125564
  -OEChem-10051722053D

 57 60  0     0  0  0  0  0  0999 V2000
    4.9164    4.2591   -0.4364 F   0  0  0  0  0  0  0  0  0  0  0  0
   -2.5109   -0.0306    0.0517 N   0  0  0  0  0  0  0  0  0  0  0  0
   -5.3029    0.5366   -0.1530 N   0  0  0  0  0  0  0  0  0  0  0  0
   -0.8853   -1.6678    0.5730 N   0  0  0  0  0  0  0  0  0  0  0  0
   -3.1120    1.0109    0.8905 C   0  0  0  0  0  0  0  0  0  0  0  0
   -3.4355   -1.0554   -0.4490 C   0  0  0  0  0  0  0  0  0  0  0  0
   -4.3544    1.5953    0.2136 C   0  0  0  0  0  0  0  0  0  0  0  0
   -4.6664   -0.4040   -1.0834 C   0  0  0  0  0  0  0  0  0  0  0  0
    1.4615   -1.0655    0.6254 C   0  0  0  0  0  0  0  0  0  0  0  0
    2.9144   -1.4132    0.8210 C   0  0  0  0  0  0  0  0  0  0  0  0
    0.4212   -1.9924    0.7616 C   0  0  0  0  0  0  0  0  0  0  0  0
   -1.1724   -0.3904    0.2446 C   0  0  0  0  0  0  0  0  0  0  0  0
    3.5836   -2.0466   -0.4004 C   0  0  0  0  0  0  0  0  0  0  0  0
    0.6841   -3.4411    1.0691 C   0  0  0  0  0  0  0  0  0  0  0  0
    3.2699   -3.5293   -0.6374 C   0  0  0  0  0  0  0  0  0  0  0  0
    0.8435   -4.2901   -0.1909 C   0  0  0  0  0  0  0  0  0  0  0  0
    1.8779   -3.8017   -1.2101 C   0  0  0  0  0  0  0  0  0  0  0  0
    1.1104    0.2453    0.2747 C   0  0  0  0  0  0  0  0  0  0  0  0
   -6.5082    1.1115   -0.7494 C   0  0  0  0  0  0  0  0  0  0  0  0
   -0.2200    0.5952    0.0827 C   0  0  0  0  0  0  0  0  0  0  0  0
    2.1030    1.2904    0.0894 C   0  0  0  0  0  0  0  0  0  0  0  0
   -7.2232    2.0260    0.2307 C   0  0  0  0  0  0  0  0  0  0  0  0
    2.4841    2.0816    1.1694 C   0  0  0  0  0  0  0  0  0  0  0  0
    2.6659    1.4954   -1.1673 C   0  0  0  0  0  0  0  0  0  0  0  0
    3.4355    3.0861    0.9914 C   0  0  0  0  0  0  0  0  0  0  0  0
    3.6174    2.4998   -1.3453 C   0  0  0  0  0  0  0  0  0  0  0  0
    4.0023    3.2951   -0.2659 C   0  0  0  0  0  0  0  0  0  0  0  0
   -3.3798    0.5785    1.8633 H   0  0  0  0  0  0  0  0  0  0  0  0
   -2.4109    1.8303    1.0855 H   0  0  0  0  0  0  0  0  0  0  0  0
   -2.9465   -1.6771   -1.2096 H   0  0  0  0  0  0  0  0  0  0  0  0
   -3.7383   -1.7130    0.3760 H   0  0  0  0  0  0  0  0  0  0  0  0
   -4.7883    2.2958    0.9340 H   0  0  0  0  0  0  0  0  0  0  0  0
   -4.0542    2.1734   -0.6708 H   0  0  0  0  0  0  0  0  0  0  0  0
   -4.3742    0.1065   -2.0112 H   0  0  0  0  0  0  0  0  0  0  0  0
   -5.3712   -1.1988   -1.3564 H   0  0  0  0  0  0  0  0  0  0  0  0
    3.4956   -0.5310    1.1097 H   0  0  0  0  0  0  0  0  0  0  0  0
    3.0270   -2.0690    1.6921 H   0  0  0  0  0  0  0  0  0  0  0  0
    3.3667   -1.4710   -1.3078 H   0  0  0  0  0  0  0  0  0  0  0  0
    4.6686   -1.9740   -0.2467 H   0  0  0  0  0  0  0  0  0  0  0  0
    1.5441   -3.5640    1.7334 H   0  0  0  0  0  0  0  0  0  0  0  0
   -0.1667   -3.8324    1.6429 H   0  0  0  0  0  0  0  0  0  0  0  0
    4.0001   -3.8876   -1.3756 H   0  0  0  0  0  0  0  0  0  0  0  0
    3.4510   -4.1151    0.2710 H   0  0  0  0  0  0  0  0  0  0  0  0
    1.1013   -5.3119    0.1153 H   0  0  0  0  0  0  0  0  0  0  0  0
   -0.1253   -4.3621   -0.7025 H   0  0  0  0  0  0  0  0  0  0  0  0
    1.9695   -4.5896   -1.9696 H   0  0  0  0  0  0  0  0  0  0  0  0
    1.4994   -2.9232   -1.7459 H   0  0  0  0  0  0  0  0  0  0  0  0
   -6.2857    1.6605   -1.6731 H   0  0  0  0  0  0  0  0  0  0  0  0
   -7.1987    0.3007   -1.0130 H   0  0  0  0  0  0  0  0  0  0  0  0
   -0.4946    1.6069   -0.2030 H   0  0  0  0  0  0  0  0  0  0  0  0
   -7.3385    1.5567    1.2137 H   0  0  0  0  0  0  0  0  0  0  0  0
   -6.7161    2.9878    0.3530 H   0  0  0  0  0  0  0  0  0  0  0  0
   -8.2285    2.2485   -0.1444 H   0  0  0  0  0  0  0  0  0  0  0  0
    2.0520    1.9311    2.1558 H   0  0  0  0  0  0  0  0  0  0  0  0
    2.3754    0.8854   -2.0191 H   0  0  0  0  0  0  0  0  0  0  0  0
    3.7355    3.7052    1.8316 H   0  0  0  0  0  0  0  0  0  0  0  0
    4.0586    2.6629   -2.3241 H   0  0  0  0  0  0  0  0  0  0  0  0
  1 27  1  0  0  0  0
  2  5  1  0  0  0  0
  2  6  1  0  0  0  0
  2 12  1  0  0  0  0
  3  7  1  0  0  0  0
  3  8  1  0  0  0  0
  3 19  1  0  0  0  0
  4 11  1  0  0  0  0
  4 12  2  0  0  0  0
  5  7  1  0  0  0  0
  5 28  1  0  0  0  0
  5 29  1  0  0  0  0
  6  8  1  0  0  0  0
  6 30  1  0  0  0  0
  6 31  1  0  0  0  0
  7 32  1  0  0  0  0
  7 33  1  0  0  0  0
  8 34  1  0  0  0  0
  8 35  1  0  0  0  0
  9 10  1  0  0  0  0
  9 11  2  0  0  0  0
  9 18  1  0  0  0  0
 10 13  1  0  0  0  0
 10 36  1  0  0  0  0
 10 37  1  0  0  0  0
 11 14  1  0  0  0  0
 12 20  1  0  0  0  0
 13 15  1  0  0  0  0
 13 38  1  0  0  0  0
 13 39  1  0  0  0  0
 14 16  1  0  0  0  0
 14 40  1  0  0  0  0
 14 41  1  0  0  0  0
 15 17  1  0  0  0  0
 15 42  1  0  0  0  0
 15 43  1  0  0  0  0
 16 17  1  0  0  0  0
 16 44  1  0  0  0  0
 16 45  1  0  0  0  0
 17 46  1  0  0  0  0
 17 47  1  0  0  0  0
 18 20  2  0  0  0  0
 18 21  1  0  0  0  0
 19 22  1  0  0  0  0
 19 48  1  0  0  0  0
 19 49  1  0  0  0  0
 20 50  1  0  0  0  0
 21 23  2  0  0  0  0
 21 24  1  0  0  0  0
 22 51  1  0  0  0  0
 22 52  1  0  0  0  0
 22 53  1  0  0  0  0
 23 25  1  0  0  0  0
 23 54  1  0  0  0  0
 24 26  2  0  0  0  0
 24 55  1  0  0  0  0
 25 27  2  0  0  0  0
 25 56  1  0  0  0  0
 26 27  1  0  0  0  0
 26 57  1  0  0  0  0
M  END
> <DATABASE_ID>
DB09223

> <DATABASE_NAME>
drugbank

> <ORIGINAL_SOURCE>
PUBCHEM

> <ORIGINAL_SOURCE_URL>
https://pubchem.ncbi.nlm.nih.gov/rest/pug/compound/inchikey/XVGOZDAJGBALKS-UHFFFAOYSA-N/SDF?record_type=3d

> <SMILES>
CCN1CCN(CC1)C1=NC2=C(CCCCCC2)C(=C1)C1=CC=C(F)C=C1

> <INCHI_IDENTIFIER>
InChI=1S/C23H30FN3/c1-2-26-13-15-27(16-14-26)23-17-21(18-9-11-19(24)12-10-18)20-7-5-3-4-6-8-22(20)25-23/h9-12,17H,2-8,13-16H2,1H3

> <INCHI_KEY>
XVGOZDAJGBALKS-UHFFFAOYSA-N

> <FORMULA>
C23H30FN3

> <MOLECULAR_WEIGHT>
367.512

> <EXACT_MASS>
367.242376141

> <JCHEM_ACCEPTOR_COUNT>
3

> <JCHEM_ATOM_COUNT>
57

> <JCHEM_AVERAGE_POLARIZABILITY>
42.79587248340438

> <JCHEM_BIOAVAILABILITY>
1

> <JCHEM_DONOR_COUNT>
0

> <JCHEM_FORMAL_CHARGE>
0

> <JCHEM_GHOSE_FILTER>
0

> <JCHEM_IUPAC>
1-ethyl-4-[4-(4-fluorophenyl)-5H,6H,7H,8H,9H,10H-cycloocta[b]pyridin-2-yl]piperazine

> <ALOGPS_LOGP>
5.76

> <JCHEM_LOGP>
5.667237107333334

> <ALOGPS_LOGS>
-4.01

> <JCHEM_MDDR_LIKE_RULE>
0

> <JCHEM_NUMBER_OF_RINGS>
4

> <JCHEM_PHYSIOLOGICAL_CHARGE>
1

> <JCHEM_PKA_STRONGEST_BASIC>
7.9662017550316

> <JCHEM_POLAR_SURFACE_AREA>
19.370000000000005

> <JCHEM_REFRACTIVITY>
111.05489999999998

> <JCHEM_ROTATABLE_BOND_COUNT>
3

> <JCHEM_RULE_OF_FIVE>
0

> <ALOGPS_SOLUBILITY>
3.59e-02 g/l

> <JCHEM_TRADITIONAL_IUPAC>
blonanserin

> <JCHEM_VEBER_RULE>
1

> <DRUGBANK_ID>
DB09223

> <DRUG_GROUPS>
investigational

> <GENERIC_NAME>
Blonanserin

$$$$