drugbank_target|P04637 Cellular tumor antigen p53 (DB00945; DB01593; DB03347; DB05404; DB08363; DB14487; DB14533; DB14548)
 OpenBabel12092120313D

  0  0  0     0  0            999 V3000
M  V30 BEGIN CTAB
M  V30 COUNTS 6036 6120 0 0 0
M  V30 BEGIN ATOM
M  V30 1 H -0.908 1.98254 -0.117106 0
M  V30 2 N 0 1.576 0 0
M  V30 3 C 0.933 2.03868 1.02534 0
M  V30 4 C 1.911 0.928543 1.3348 0
M  V30 5 O 3.095 1.19667 1.45644 0
M  V30 6 C 0.222 2.43627 2.35294 0
M  V30 7 C -0.732 3.65373 2.2001 0
M  V30 8 S 0.101 5.13292 1.52614 0
M  V30 9 C 1.257 5.56322 2.86805 0
M  V30 10 H 1.49 2.90518 0.631377 0
M  V30 11 H -0.977 1.52953 0.210867 0
M  V30 12 H 0.981 2.67203 3.11629 0
M  V30 13 H -0.358 1.57376 2.7183 0
M  V30 14 H -1.165 3.90944 3.18086 0
M  V30 15 H -1.563 3.418 1.51819 0
M  V30 16 H 0.729 5.58782 3.83104 0
M  V30 17 H 1.672 6.56266 2.65933 0
M  V30 18 H 2.08 4.83886 2.90714 0
M  V30 19 N 1.4781 -0.272755 1.55222 0
M  V30 20 C 2.3881 -1.35918 1.91216 0
M  V30 21 C 3.4041 -1.54026 0.809436 0
M  V30 22 O 4.5801 -1.68148 1.10852 0
M  V30 23 C 1.6451 -2.69834 2.17693 0
M  V30 24 C 0.7061 -2.6047 3.41253 0
M  V30 25 C -0.0609 -3.88 3.66458 0
M  V30 26 O 0.1621 -4.88693 2.94169 0
M  V30 27 O -0.9039 -3.88189 4.59992 0
M  V30 28 H 2.9221 -1.0839 2.83699 0
M  V30 29 H 0.5071 -0.471301 1.41771 0
M  V30 30 H 2.3891 -3.49017 2.36147 0
M  V30 31 H 1.0641 -2.97148 1.28392 0
M  V30 32 H -0.0289 -1.79663 3.28134 0
M  V30 33 H 1.3041 -2.38106 4.30774 0
M  V30 34 N 2.9562 -1.48159 -0.537278 0
M  V30 35 C 3.8662 -1.64807 -1.6696 0
M  V30 36 C 4.8822 -0.530651 -1.65711 0
M  V30 37 O 6.0582 -0.800784 -1.84796 0
M  V30 38 C 3.1232 -1.67708 -3.03438 0
M  V30 39 C 2.1842 -2.91025 -3.156 0
M  V30 40 C 1.4172 -2.93778 -4.45567 0
M  V30 41 O 1.6402 -2.05153 -5.3223 0
M  V30 42 O 0.5742 -3.85868 -4.61941 0
M  V30 43 H 4.4002 -2.6066 -1.55853 0
M  V30 44 H 1.9852 -1.31475 -0.709549 0
M  V30 45 H 3.8672 -1.7218 -3.84619 0
M  V30 46 H 2.5422 -0.750278 -3.14885 0
M  V30 47 H 1.4492 -2.92089 -2.33741 0
M  V30 48 H 2.7822 -3.83065 -3.09066 0
M  V30 49 N 4.4343 0.785586 -1.36625 0
M  V30 50 C 5.8453 1.36101 -1.27803 0
M  V30 51 C 6.1963 1.96035 0.0804875 0
M  V30 52 O 5.3213 1.92834 0.982042 0
M  V30 53 C 5.9163 2.47442 -2.31426 0
M  V30 54 C 4.4753 3.00789 -2.26281 0
M  V30 55 C 3.6223 1.73896 -2.15999 0
M  V30 56 H 6.5733 0.586928 -1.47448 0
M  V30 57 H 6.5943 3.2656 -1.95291 0
M  V30 58 H 6.1063 2.03791 -3.30289 0
M  V30 59 H 4.2073 3.48851 -1.30896 0
M  V30 60 H 4.3203 3.57343 -3.19128 0
M  V30 61 H 2.6843 1.9628 -1.62316 0
M  V30 62 H 3.4673 1.32368 -3.16755 0
M  V30 63 N 5.9124 1.20967 1.01018 0
M  V30 64 C 6.8444 0.922059 2.09835 0
M  V30 65 C 7.8574 -0.0927106 1.62536 0
M  V30 66 O 9.0464 0.139127 1.77957 0
M  V30 67 C 6.1464 0.362004 3.36961 0
M  V30 68 C 5.3194 1.42986 4.13369 0
M  V30 69 C 4.3784 0.879976 5.1879 0
M  V30 70 O 3.4044 1.56219 5.47343 0
M  V30 71 N 4.6064 -0.307396 5.79686 0
M  V30 72 H 7.3714 1.8588 2.35093 0
M  V30 73 H 4.9324 1.11422 1.1746 0
M  V30 74 H 6.9244 -0.0201474 4.04695 0
M  V30 75 H 5.4944 -0.479437 3.08902 0
M  V30 76 H 4.7144 1.98608 3.40512 0
M  V30 77 H 6.0024 2.14885 4.61196 0
M  V30 78 H 5.4004 -0.878796 5.58832 0
M  V30 79 H 3.9574 -0.631115 6.48737 0
M  V30 80 N 7.3905 -1.2043 1.01659 0
M  V30 81 C 8.6155 -1.94318 0.724942 0
M  V30 82 C 9.0405 -1.74266 -0.708034 0
M  V30 83 O 8.3985 -1.03694 -1.48719 0
M  V30 84 C 8.4465 -3.44486 1.06591 0
M  V30 85 O 7.5505 -4.12017 0.177599 0
M  V30 86 H 6.8915 -0.60708 0.26898 0
M  V30 87 H 9.4215 -1.52861 1.35995 0
M  V30 88 H 9.4315 -3.95106 1.01762 0
M  V30 89 H 8.1065 -3.58404 2.10997 0
M  V30 90 H 6.6835 -3.71821 0.283421 0
M  V30 91 N 8.8686 -0.792821 -1.36206 0
M  V30 92 C 10.1456 -0.290627 -1.93429 0
M  V30 93 C 10.5256 1.21773 -1.72437 0
M  V30 94 O 9.8736 2.0108 -1.08531 0
M  V30 95 C 10.0836 -0.686973 -3.42172 0
M  V30 96 C 11.4316 -0.668643 -4.19302 0
M  V30 97 O 12.4556 -0.627658 -3.50626 0
M  V30 98 O 11.3146 -0.714597 -5.41808 0
M  V30 99 H 8.4086 -0.0727927 -0.82379 0
M  V30 100 H 10.9546 -0.875593 -1.45367 0
M  V30 101 H 9.7266 -1.72711 -3.51122 0
M  V30 102 H 9.3496 -0.0760733 -3.97527 0
M  V30 103 N 10.3467 1.47872 -0.545128 0
M  V30 104 C 11.7577 1.86384 -0.108581 0
M  V30 105 C 12.1087 1.45309 1.31832 0
M  V30 106 O 11.2337 0.850641 1.9898 0
M  V30 107 C 11.8287 3.38265 -0.190274 0
M  V30 108 C 10.3877 3.75914 0.191164 0
M  V30 109 C 9.5347 2.71926 -0.543273 0
M  V30 110 H 12.4857 1.39561 -0.755537 0
M  V30 111 H 12.5067 3.75831 0.594217 0
M  V30 112 H 12.0187 3.6813 -1.2289 0
M  V30 113 H 10.1197 3.51665 1.23136 0
M  V30 114 H 10.2327 4.78836 -0.158987 0
M  V30 115 H 8.5967 2.54697 0.0122495 0
M  V30 116 H 9.3797 3.04634 -1.58282 0
M  V30 117 N 11.8248 0.280983 1.55075 0
M  V30 118 C 13.0498 -0.340154 2.04592 0
M  V30 119 C 13.4748 -1.48246 1.15779 0
M  V30 120 O 12.8328 -1.80614 0.15761 0
M  V30 121 C 12.8808 -0.793104 3.5177 0
M  V30 122 O 11.9848 -1.89981 3.66034 0
M  V30 123 H 11.3258 -0.0694289 0.66036 0
M  V30 124 H 13.8558 0.416993 2.00306 0
M  V30 125 H 13.8658 -1.08729 3.93245 0
M  V30 126 H 12.5408 0.0426163 4.15878 0
M  V30 127 H 11.1178 -1.60771 3.36463 0
M  V30 128 N 13.3029 -1.57598 0.00835791 0
M  V30 129 C 14.5489 -1.91211 -0.675732 0
M  V30 130 C 14.8819 -0.883139 -1.72958 0
M  V30 131 O 14.1569 0.097016 -1.94258 0
M  V30 132 C 14.4399 -3.35379 -1.31123 0
M  V30 133 C 14.2929 -4.48999 -0.268356 0
M  V30 134 C 15.6119 -3.7912 -2.23508 0
M  V30 135 H 12.7309 -0.695374 -0.244179 0
M  V30 136 H 15.3729 -1.89901 0.0613655 0
M  V30 137 H 13.5229 -3.36626 -1.93946 0
M  V30 138 H 15.1949 -4.59887 0.360844 0
M  V30 139 H 13.4379 -4.31873 0.408482 0
M  V30 140 H 14.1089 -5.46851 -0.752218 0
M  V30 141 H 16.5849 -3.79477 -1.70693 0
M  V30 142 H 15.4609 -4.80729 -2.64936 0
M  V30 143 H 15.7219 -3.13455 -3.11766 0
M  V30 144 N 14.781 0.264519 -1.55364 0
M  V30 145 C 15.691 1.34902 -1.91934 0
M  V30 146 C 16.707 1.53595 -0.817593 0
M  V30 147 O 17.883 1.67558 -1.11742 0
M  V30 148 C 14.948 2.68676 -2.19121 0
M  V30 149 C 14.009 2.58657 -3.4263 0
M  V30 150 C 13.242 3.86051 -3.68511 0
M  V30 151 O 13.465 4.87126 -2.96757 0
M  V30 152 O 12.399 3.85744 -4.62045 0
M  V30 153 H 16.225 1.06883 -2.8427 0
M  V30 154 H 13.81 0.463775 -1.42019 0
M  V30 155 H 15.692 3.47759 -2.37995 0
M  V30 156 H 14.367 2.96463 -1.29966 0
M  V30 157 H 13.274 1.7792 -3.29082 0
M  V30 158 H 14.607 2.35818 -4.32031 0
M  V30 159 N 16.2591 1.48442 0.529413 0
M  V30 160 C 17.6701 1.5002 1.11134 0
M  V30 161 C 18.0211 0.27031 1.94329 0
M  V30 162 O 17.1461 -0.622507 2.07253 0
M  V30 163 C 17.7411 2.71834 2.02217 0
M  V30 164 C 16.3001 2.76283 2.55627 0
M  V30 165 C 15.4471 2.43542 1.326 0
M  V30 166 H 18.3981 1.5555 0.314641 0
M  V30 167 H 18.4191 2.50384 2.8651 0
M  V30 168 H 17.9311 3.61331 1.41639 0
M  V30 169 H 16.0321 1.90995 3.19924 0
M  V30 170 H 16.1451 3.77725 2.94721 0
M  V30 171 H 14.5091 1.94709 1.64196 0
M  V30 172 H 15.2921 3.3528 0.737734 0
M  V30 173 N 17.7372 -0.778329 1.37039 0
M  V30 174 C 19.1482 -1.35421 1.28523 0
M  V30 175 C 19.4992 -1.96075 -0.0700901 0
M  V30 176 O 18.6242 -1.93352 -0.971801 0
M  V30 177 C 19.2192 -2.46211 2.32735 0
M  V30 178 C 17.7782 -2.99585 2.27873 0
M  V30 179 C 16.9252 -1.72748 2.16918 0
M  V30 180 H 19.8762 -0.5791 1.47757 0
M  V30 181 H 19.8972 -3.2552 1.9702 0
M  V30 182 H 19.4092 -2.02036 3.31365 0
M  V30 183 H 17.5102 -3.48152 1.32745 0
M  V30 184 H 17.6232 -3.55646 3.21018 0
M  V30 185 H 15.9872 -1.95416 1.63354 0
M  V30 186 H 16.7702 -1.30686 3.17452 0
M  V30 187 N 19.2153 -1.21501 -1.00376 0
M  V30 188 C 20.1453 -0.999478 -2.11028 0
M  V30 189 C 21.1263 0.0759671 -1.6993 0
M  V30 190 O 22.3113 -0.0841106 -1.94018 0
M  V30 191 C 19.4413 -0.564709 -3.42678 0
M  V30 192 C 18.3953 -1.58486 -3.97576 0
M  V30 193 C 17.7213 -1.00628 -5.25146 0
M  V30 194 C 19.0213 -2.97204 -4.29496 0
M  V30 195 H 20.7153 -1.92495 -2.29317 0
M  V30 196 H 18.2613 -0.92693 -1.102 0
M  V30 197 H 20.2143 -0.401091 -4.19487 0
M  V30 198 H 18.9383 0.396411 -3.24185 0
M  V30 199 H 17.5973 -1.73606 -3.22888 0
M  V30 200 H 17.2453 -0.0368439 -5.02987 0
M  V30 201 H 16.9453 -1.68771 -5.62841 0
M  V30 202 H 18.4693 -0.854015 -6.04598 0
M  V30 203 H 19.8833 -2.8552 -4.97143 0
M  V30 204 H 18.2803 -3.62372 -4.78338 0
M  V30 205 H 19.3503 -3.47956 -3.3772 0
M  V30 206 N 20.6934 1.19889 -1.02296 0
M  V30 207 C 21.9184 1.9393 -0.735237 0
M  V30 208 C 22.3434 1.74639 0.698782 0
M  V30 209 O 21.7014 1.04481 1.48167 0
M  V30 210 C 21.7494 3.43916 -1.08417 0
M  V30 211 O 20.8534 4.11917 -0.199446 0
M  V30 212 H 20.1944 0.605645 -0.272196 0
M  V30 213 H 22.7244 1.52137 -1.36804 0
M  V30 214 H 22.7344 3.9456 -1.03856 0
M  V30 215 H 21.4094 3.5728 -2.12894 0
M  V30 216 H 19.9864 3.71666 -0.303136 0
M  V30 217 N 22.1715 0.800033 1.35784 0
M  V30 218 C 23.1035 0.163596 2.28615 0
M  V30 219 C 24.1165 -0.633317 1.49976 0
M  V30 220 O 25.3055 -0.466754 1.72289 0
M  V30 221 C 22.4055 -0.790958 3.29541 0
M  V30 222 C 21.5785 -0.0418255 4.3738 0
M  V30 223 C 20.6375 -0.91389 5.18203 0
M  V30 224 O 19.6635 -0.367234 5.68014 0
M  V30 225 N 20.8655 -2.23682 5.35674 0
M  V30 226 H 23.6305 0.96105 2.83873 0
M  V30 227 H 21.1915 0.654894 1.48063 0
M  V30 228 H 23.1835 -1.37844 3.80501 0
M  V30 229 H 21.7535 -1.48925 2.74846 0
M  V30 230 H 20.9735 0.726813 3.87442 0
M  V30 231 H 22.2615 0.474719 5.06581 0
M  V30 232 H 21.6595 -2.70497 4.96838 0
M  V30 233 H 20.2165 -2.77369 5.89839 0
M  V30 234 N 23.6496 -1.47581 0.552962 0
M  V30 235 C 24.5596 -2.33743 -0.200353 0
M  V30 236 C 25.5756 -1.47928 -0.916151 0
M  V30 237 O 26.7516 -1.80865 -0.885993 0
M  V30 238 C 23.8166 -3.24536 -1.21973 0
M  V30 239 C 22.8776 -4.26238 -0.511819 0
M  V30 240 C 22.1106 -5.12693 -1.48263 0
M  V30 241 O 22.3336 -5.01525 -2.71714 0
M  V30 242 O 21.2676 -5.93375 -1.00945 0
M  V30 243 H 25.0936 -2.9945 0.506304 0
M  V30 244 H 22.6786 -1.46071 0.313622 0
M  V30 245 H 24.5606 -3.80631 -1.80827 0
M  V30 246 H 23.2356 -2.61462 -1.90839 0
M  V30 247 H 22.1426 -3.73914 0.117799 0
M  V30 248 H 23.4756 -4.92014 0.135308 0
M  V30 249 N 25.1277 -0.289203 -1.54924 0
M  V30 250 C 26.3557 0.326463 -2.04308 0
M  V30 251 C 26.7707 1.48413 -1.16701 0
M  V30 252 O 26.1277 1.81507 -0.190087 0
M  V30 253 C 26.1787 0.794014 -3.52672 0
M  V30 254 O 25.8997 -0.317564 -4.36948 0
M  V30 255 C 27.4007 1.47605 -4.18004 0
M  V30 256 H 24.6207 0.0726272 -0.667058 0
M  V30 257 H 27.1647 -0.425401 -2.00026 0
M  V30 258 H 25.3197 1.49593 -3.57352 0
M  V30 259 H 25.7337 0.0443186 -5.24481 0
M  V30 260 H 27.2077 1.75447 -5.23376 0
M  V30 261 H 27.6847 2.41224 -3.67025 0
M  V30 262 H 28.2907 0.81762 -4.17367 0
M  V30 263 N 26.6058 1.57591 -0.0167156 0
M  V30 264 C 27.8528 1.91283 0.664597 0
M  V30 265 C 28.1808 0.891949 1.72842 0
M  V30 266 O 27.4358 -0.100931 1.9544 0
M  V30 267 C 27.7348 3.3172 1.33029 0
M  V30 268 C 27.4008 4.4914 0.398047 0
M  V30 269 C 26.0628 4.80992 0.141421 0
M  V30 270 C 28.4148 5.20634 -0.242825 0
M  V30 271 C 25.7428 5.81703 -0.764092 0
M  V30 272 C 28.0948 6.22311 -1.13632 0
M  V30 273 C 26.7588 6.52611 -1.40196 0
M  V30 274 H 26.0288 0.699956 0.243193 0
M  V30 275 H 28.6758 1.9135 -0.0758267 0
M  V30 276 H 26.9808 3.27856 2.14517 0
M  V30 277 H 28.6778 3.55055 1.86379 0
M  V30 278 H 25.2678 4.24262 0.608238 0
M  V30 279 H 29.4518 4.96267 -0.0576019 0
M  V30 280 H 24.7078 6.03532 -0.977732 0
M  V30 281 H 28.8818 6.76834 -1.63917 0
M  V30 282 H 26.5088 7.30467 -2.10529 0
M  V30 283 N 28.0839 -0.256276 1.55502 0
M  V30 284 C 29.3089 -1.00766 1.81276 0
M  V30 285 C 29.7339 -1.78524 0.59252 0
M  V30 286 O 29.0919 -1.75413 -0.45827 0
M  V30 287 C 29.1399 -1.92869 3.04687 0
M  V30 288 O 28.2439 -3.019 2.80945 0
M  V30 289 H 27.5849 -0.287224 0.598664 0
M  V30 290 H 30.1149 -0.280109 2.02674 0
M  V30 291 H 30.1249 -2.34511 3.33869 0
M  V30 292 H 28.7999 -1.35689 3.93143 0
M  V30 293 H 27.3769 -2.64454 2.62904 0
M  V30 294 N 29.562 -1.4872 -0.521534 0
M  V30 295 C 30.839 -1.4766 -1.2828 0
M  V30 296 C 31.219 -0.19292 -2.10217 0
M  V30 297 O 30.567 0.825193 -2.13079 0
M  V30 298 C 30.777 -2.74358 -2.15705 0
M  V30 299 C 32.125 -3.23028 -2.75569 0
M  V30 300 O 33.149 -2.75333 -2.25987 0
M  V30 301 O 32.008 -4.0604 -3.65778 0
M  V30 302 H 29.102 -0.590085 -0.579421 0
M  V30 303 H 31.648 -1.60963 -0.537492 0
M  V30 304 H 30.42 -3.59292 -1.54999 0
M  V30 305 H 30.043 -2.63816 -2.97467 0
M  V30 306 N 31.0401 0.771051 -1.3745 0
M  V30 307 C 31.9701 1.89827 -1.3597 0
M  V30 308 C 32.9511 1.68562 -0.228216 0
M  V30 309 O 34.1361 1.8941 -0.428675 0
M  V30 310 C 31.2661 3.2712 -1.16662 0
M  V30 311 C 30.2201 3.6295 -2.2683 0
M  V30 312 C 29.5461 4.98791 -1.92644 0
M  V30 313 C 30.8461 3.69627 -3.69017 0
M  V30 314 H 32.5401 1.91323 -2.30295 0
M  V30 315 H 30.0861 0.919082 -1.10855 0
M  V30 316 H 32.0391 4.05615 -1.14256 0
M  V30 317 H 30.7631 3.26059 -0.187926 0
M  V30 318 H 29.4221 2.86763 -2.28392 0
M  V30 319 H 29.0701 4.94271 -0.933021 0
M  V30 320 H 28.7701 5.23733 -2.66416 0
M  V30 321 H 30.2941 5.79685 -1.91826 0
M  V30 322 H 31.7081 4.38273 -3.69581 0
M  V30 323 H 30.1051 4.06067 -4.41848 0
M  V30 324 H 31.1751 2.70273 -4.02592 0
M  V30 325 N 32.5182 1.22032 0.997298 0
M  V30 326 C 33.7642 1.05382 1.73972 0
M  V30 327 C 34.1192 -0.407419 1.88037 0
M  V30 328 O 33.4122 -1.29811 1.40924 0
M  V30 329 C 33.6062 1.69345 3.14733 0
M  V30 330 C 33.4352 3.21537 3.14395 0
M  V30 331 C 32.2052 3.9062 3.20537 0
M  V30 332 C 34.4032 4.18527 2.98897 0
M  V30 333 N 32.3852 5.29935 3.09906 0
M  V30 334 C 33.7562 5.44645 2.96247 0
M  V30 335 C 35.8112 4.09476 2.83255 0
M  V30 336 C 34.5142 6.62752 2.79557 0
M  V30 337 C 36.5402 5.27228 2.67926 0
M  V30 338 C 35.9022 6.52262 2.65959 0
M  V30 339 H 32.0012 0.440018 0.646458 0
M  V30 340 H 34.5852 1.54505 1.18475 0
M  V30 341 H 32.7562 1.22778 3.68484 0
M  V30 342 H 34.4882 1.45828 3.77513 0
M  V30 343 H 31.2432 3.41592 3.28043 0
M  V30 344 H 31.6672 6.02926 3.07912 0
M  V30 345 H 36.3092 3.13598 2.83577 0
M  V30 346 H 34.0272 7.58783 2.77982 0
M  V30 347 H 37.6132 5.22053 2.56812 0
M  V30 348 H 36.4932 7.41844 2.54239 0
M  V30 349 N 33.9963 -1.19345 1.0293 0
M  V30 350 C 34.9433 -2.2258 0.610464 0
M  V30 351 C 35.9133 -1.6179 -0.375946 0
M  V30 352 O 37.0983 -1.88844 -0.272511 0
M  V30 353 C 34.2383 -3.45085 -0.0321473 0
M  V30 354 C 33.3513 -4.20258 1.00035 0
M  V30 355 C 32.4863 -5.3019 0.32746 0
M  V30 356 C 31.5253 -5.97121 1.34584 0
M  V30 357 N 30.6623 -6.98615 0.698726 0
M  V30 358 H 35.5023 -2.57764 1.49538 0
M  V30 359 H 33.0393 -1.26644 0.748311 0
M  V30 360 H 34.9973 -4.15061 -0.421966 0
M  V30 361 H 33.6273 -3.10555 -0.88064 0
M  V30 362 H 32.6793 -3.49223 1.50823 0
M  V30 363 H 33.9913 -4.66175 1.77433 0
M  V30 364 H 33.1453 -6.06587 -0.11718 0
M  V30 365 H 31.8843 -4.85345 -0.478713 0
M  V30 366 H 30.8893 -5.19474 1.80074 0
M  V30 367 H 32.1143 -6.4405 2.15352 0
M  V30 368 H 30.0603 -6.55942 -0.0873471 0
M  V30 369 H 29.9773 -7.42724 1.41058 0
M  V30 370 H 31.2453 -7.79004 0.278102 0
M  V30 371 N 35.4744 -0.807222 -1.35358 0
M  V30 372 C 36.4044 -0.232509 -2.3234 0
M  V30 373 C 37.3854 0.642386 -1.57504 0
M  V30 374 O 38.5704 0.572526 -1.85569 0
M  V30 375 C 35.7004 0.619238 -3.41735 0
M  V30 376 C 34.6544 -0.157215 -4.27711 0
M  V30 377 C 33.9804 0.816273 -5.28433 0
M  V30 378 C 35.2804 -1.35656 -5.04376 0
M  V30 379 H 36.9744 -1.04276 -2.80654 0
M  V30 380 H 34.5204 -0.50288 -1.34934 0
M  V30 381 H 36.4734 1.03137 -4.08584 0
M  V30 382 H 35.1974 1.46239 -2.92031 0
M  V30 383 H 33.8564 -0.550525 -3.62443 0
M  V30 384 H 33.5044 1.65494 -4.74996 0
M  V30 385 H 33.2044 0.301067 -5.86828 0
M  V30 386 H 34.7284 1.22659 -5.98153 0
M  V30 387 H 36.1424 -1.01927 -5.64166 0
M  V30 388 H 34.5394 -1.8063 -5.7227 0
M  V30 389 H 35.6094 -2.14288 -4.34981 0
M  V30 390 N 36.9525 1.47285 -0.560781 0
M  V30 391 C 37.8825 2.32857 0.173105 0
M  V30 392 C 38.8635 1.44009 0.905281 0
M  V30 393 O 40.0485 1.7286 0.885046 0
M  V30 394 C 37.1785 3.25861 1.20133 0
M  V30 395 C 36.1325 4.23978 0.585388 0
M  V30 396 C 35.4585 5.06332 1.7185 0
M  V30 397 C 36.7585 5.20242 -0.463178 0
M  V30 398 H 38.4525 2.94466 -0.541307 0
M  V30 399 H 35.9985 1.41601 -0.261764 0
M  V30 400 H 37.9515 3.84569 1.72293 0
M  V30 401 H 36.6755 2.62315 1.94573 0
M  V30 402 H 35.3345 3.66501 0.085054 0
M  V30 403 H 34.9825 4.39186 2.45203 0
M  V30 404 H 34.6825 5.72762 1.31213 0
M  V30 405 H 36.2065 5.67899 2.24329 0
M  V30 406 H 37.6205 5.73293 -0.027502 0
M  V30 407 H 36.0175 5.94896 -0.788627 0
M  V30 408 H 37.0875 4.65504 -1.35773 0
M  V30 409 N 38.4306 0.297415 1.54768 0
M  V30 410 C 39.8416 -0.195947 1.85669 0
M  V30 411 C 40.1926 -1.53707 1.21937 0
M  V30 412 O 39.3176 -2.10164 0.515754 0
M  V30 413 C 39.9126 -0.362318 3.36857 0
M  V30 414 C 38.4716 -0.799901 3.67802 0
M  V30 415 C 37.6186 0.0938578 2.77141 0
M  V30 416 H 40.5696 0.518538 1.4999 0
M  V30 417 H 40.5906 -1.19745 3.61167 0
M  V30 418 H 40.1026 0.613921 3.83214 0
M  V30 419 H 38.2036 -1.78682 3.26961 0
M  V30 420 H 38.3166 -0.621773 4.75048 0
M  V30 421 H 36.6806 -0.426254 2.51108 0
M  V30 422 H 37.4636 1.06639 3.26318 0
M  V30 423 N 39.9087 -1.5758 0.0250728 0
M  V30 424 C 40.8187 -2.1343 -0.973905 0
M  V30 425 C 41.8347 -1.08556 -1.35984 0
M  V30 426 O 43.0107 -1.40592 -1.44207 0
M  V30 427 C 40.0757 -2.64703 -2.23904 0
M  V30 428 C 39.1367 -3.84276 -1.91391 0
M  V30 429 C 38.3697 -4.33095 -3.11873 0
M  V30 430 O 38.5927 -3.81107 -4.24398 0
M  V30 431 O 37.5267 -5.24984 -2.94406 0
M  V30 432 H 41.3527 -2.99057 -0.529036 0
M  V30 433 H 38.9377 -1.48118 -0.195288 0
M  V30 434 H 40.8197 -2.97769 -2.98181 0
M  V30 435 H 39.4947 -1.82161 -2.6758 0
M  V30 436 H 38.4017 -3.56143 -1.14511 0
M  V30 437 H 39.7347 -4.67968 -1.52534 0
M  V30 438 N 41.3868 0.248026 -1.55636 0
M  V30 439 C 42.3348 1.32683 -1.91045 0
M  V30 440 C 43.3288 1.49883 -0.789401 0
M  V30 441 O 44.5348 1.51371 -0.974007 0
M  V30 442 H 40.9098 0.444272 -0.606734 0
M  V30 443 H 42.8808 1.00085 -2.81115 0
M  V30 444 C 41.6298 2.6755 -2.22064 0
M  V30 445 H 40.9528 2.55114 -3.07826 0
M  V30 446 H 42.3928 3.41912 -2.50743 0
M  V30 447 C 40.8518 3.20556 -1.0366 0
M  V30 448 O 41.3818 4.00695 -0.284016 0
M  V30 449 N 39.5878 2.78568 -0.82753 0
M  V30 450 H 39.1348 2.1351 -1.44123 0
M  V30 451 H 39.0928 3.14378 -0.0369803 0
M  V30 452 N 42.8649 1.48995 0.513639 0
M  V30 453 C 43.8129 1.65199 1.63744 0
M  V30 454 C 44.8069 0.51809 1.61283 0
M  V30 455 O 46.0129 0.697335 1.65943 0
M  V30 456 H 42.3879 0.52069 0.542574 0
M  V30 457 H 44.3589 2.59552 1.47226 0
M  V30 458 C 43.1079 1.72409 3.01945 0
M  V30 459 H 42.4309 2.59029 3.04539 0
M  V30 460 H 43.8709 1.87785 3.80148 0
M  V30 461 C 42.3299 0.46618 3.33659 0
M  V30 462 O 42.8599 -0.413744 3.99564 0
M  V30 463 N 41.0659 0.332931 2.88687 0
M  V30 464 H 40.6129 1.04996 2.35231 0
M  V30 465 H 40.5709 -0.507665 3.10274 0
M  V30 466 N 44.343 -0.763751 1.37857 0
M  V30 467 C 45.589 -1.52483 1.33704 0
M  V30 468 C 45.922 -1.94051 -0.0759612 0
M  V30 469 O 45.197 -1.64675 -1.03501 0
M  V30 470 C 45.48 -2.78441 2.28348 0
M  V30 471 C 45.333 -2.43075 3.78463 0
M  V30 472 C 46.652 -3.80415 2.21298 0
M  V30 473 H 43.771 -0.553169 0.487005 0
M  V30 474 H 46.413 -0.875562 1.68624 0
M  V30 475 H 44.563 -3.33842 1.987 0
M  V30 476 H 46.235 -1.93527 4.18742 0
M  V30 477 H 44.478 -1.75666 3.96641 0
M  V30 478 H 45.149 -3.33149 4.40132 0
M  V30 479 H 47.625 -3.34527 2.47449 0
M  V30 480 H 46.501 -4.66257 2.89647 0
M  V30 481 H 46.762 -4.25262 1.20849 0
M  V30 482 N 45.8211 -1.22559 -0.990812 0
M  V30 483 C 46.7511 -1.0218 -2.09956 0
M  V30 484 C 47.7321 0.0579394 -1.70001 0
M  V30 485 O 48.9171 -0.104684 -1.93918 0
M  V30 486 C 46.0471 -0.601023 -3.4206 0
M  V30 487 C 45.0011 -1.62694 -3.95872 0
M  V30 488 C 44.3271 -1.06193 -5.24049 0
M  V30 489 C 45.6271 -3.01743 -4.2632 0
M  V30 490 H 47.3211 -1.94916 -2.27262 0
M  V30 491 H 44.8671 -0.938566 -1.09211 0
M  V30 492 H 46.8201 -0.445561 -4.19038 0
M  V30 493 H 45.5441 0.362005 -3.24588 0
M  V30 494 H 44.2031 -1.77021 -3.21028 0
M  V30 495 H 43.8511 -0.0901903 -5.02919 0
M  V30 496 H 43.5511 -1.74732 -5.61019 0
M  V30 497 H 45.0751 -0.918092 -6.03658 0
M  V30 498 H 46.4891 -2.90777 -4.94087 0
M  V30 499 H 44.8861 -3.67425 -4.74467 0
M  V30 500 H 45.9561 -3.51518 -3.34011 0
M  V30 501 N 47.2992 1.18797 -1.03562 0
M  V30 502 C 48.5242 1.9314 -0.755764 0
M  V30 503 C 48.9492 1.7537 0.68022 0
M  V30 504 O 48.3072 1.06046 1.47051 0
M  V30 505 C 48.3552 3.42747 -1.12058 0
M  V30 506 O 47.4592 4.11683 -0.243124 0
M  V30 507 H 46.8002 0.602724 -0.278604 0
M  V30 508 H 49.3302 1.50678 -1.3841 0
M  V30 509 H 49.3402 3.93437 -1.08035 0
M  V30 510 H 48.0152 3.55002 -2.16672 0
M  V30 511 H 46.5922 3.71323 -0.342539 0
M  V30 512 N 48.7773 0.814389 1.34928 0
M  V30 513 C 50.1883 0.458364 1.80986 0
M  V30 514 C 50.5393 -1.02042 1.67577 0
M  V30 515 O 49.6643 -1.79352 1.21086 0
M  V30 516 C 50.2593 0.825212 3.28597 0
M  V30 517 C 48.8183 0.521677 3.72767 0
M  V30 518 C 47.9653 1.04668 2.56788 0
M  V30 519 H 50.9163 1.00533 1.22795 0
M  V30 520 H 50.9373 0.12571 3.80292 0
M  V30 521 H 50.4493 1.90154 3.38324 0
M  V30 522 H 48.5503 -0.545589 3.68584 0
M  V30 523 H 48.6633 1.05977 4.67232 0
M  V30 524 H 47.0273 0.468622 2.50352 0
M  V30 525 H 47.8103 2.12927 2.6929 0
M  V30 526 N 50.2554 -1.46986 0.568584 0
M  V30 527 C 51.1854 -2.32946 -0.160753 0
M  V30 528 C 52.1664 -1.44487 -0.897631 0
M  V30 529 O 53.3514 -1.73327 -0.875867 0
M  V30 530 C 50.4814 -3.26494 -1.18403 0
M  V30 531 C 49.4354 -4.24282 -0.562895 0
M  V30 532 C 48.7614 -5.07236 -1.69163 0
M  V30 533 C 50.0614 -5.19989 0.490761 0
M  V30 534 H 51.7554 -2.94175 0.556916 0
M  V30 535 H 49.3014 -1.4146 0.26927 0
M  V30 536 H 51.2544 -3.85477 -1.70251 0
M  V30 537 H 49.9784 -2.63343 -1.93179 0
M  V30 538 H 48.6374 -3.66541 -0.0656164 0
M  V30 539 H 48.2854 -4.4048 -2.42871 0
M  V30 540 H 47.9854 -5.7345 -1.28174 0
M  V30 541 H 49.5094 -5.6908 -2.21314 0
M  V30 542 H 50.9234 -5.73271 0.0579047 0
M  V30 543 H 49.3204 -5.94469 0.820165 0
M  V30 544 H 50.3904 -4.64777 1.3824 0
M  V30 545 N 51.7335 -0.305618 -1.54608 0
M  V30 546 C 53.1445 0.186098 -1.8577 0
M  V30 547 C 53.4955 1.53058 -1.22751 0
M  V30 548 O 52.6205 2.09888 -0.526893 0
M  V30 549 C 53.2155 0.344449 -3.37044 0
M  V30 550 C 51.7745 0.780384 -3.68221 0
M  V30 551 C 50.9215 -0.108554 -2.77087 0
M  V30 552 H 53.8725 -0.526485 -1.49712 0
M  V30 553 H 53.8935 1.17828 -3.61796 0
M  V30 554 H 53.4055 -0.634235 -3.82883 0
M  V30 555 H 51.5065 1.76945 -3.27904 0
M  V30 556 H 51.6195 0.596572 -4.75371 0
M  V30 557 H 49.9835 0.412931 -2.5133 0
M  V30 558 H 50.7665 -1.08368 -3.25747 0
M  V30 559 N 53.2116 1.57565 -0.0334293 0
M  V30 560 C 54.4366 1.96689 0.657895 0
M  V30 561 C 54.8616 0.910057 1.64619 0
M  V30 562 O 54.2196 -0.128598 1.80843 0
M  V30 563 C 54.2676 3.34905 1.33683 0
M  V30 564 O 53.3716 3.31574 2.45219 0
M  V30 565 H 52.7126 0.641205 0.172489 0
M  V30 566 H 55.2426 2.04372 -0.0965621 0
M  V30 567 H 55.2526 3.71234 1.69262 0
M  V30 568 H 53.9276 4.11366 0.612411 0
M  V30 569 H 52.5046 3.06968 2.11719 0
M  V30 570 N 54.6897 -0.239769 1.55765 0
M  V30 571 C 55.6217 -1.32001 1.87372 0
M  V30 572 C 56.6347 -1.43944 0.760522 0
M  V30 573 O 57.8237 -1.45167 1.0387 0
M  V30 574 C 54.9237 -2.69779 2.05115 0
M  V30 575 C 54.0967 -2.80014 3.36022 0
M  V30 576 C 53.1557 -3.98684 3.4342 0
M  V30 577 O 52.1817 -3.87877 4.16582 0
M  V30 578 N 53.3837 -5.12176 2.73232 0
M  V30 579 H 56.1487 -1.0522 2.80622 0
M  V30 580 H 53.7097 -0.429857 1.56089 0
M  V30 581 H 55.7017 -3.47517 2.07399 0
M  V30 582 H 54.2717 -2.89237 1.18577 0
M  V30 583 H 53.4917 -1.88896 3.45994 0
M  V30 584 H 54.7797 -2.83808 4.22292 0
M  V30 585 H 54.1777 -5.2385 2.13536 0
M  V30 586 H 52.7347 -5.88022 2.81199 0
M  V30 587 N 56.1678 -1.49265 -0.50573 0
M  V30 588 C 57.1308 -1.65075 -1.59006 0
M  V30 589 C 58.1308 -0.522768 -1.52065 0
M  V30 590 O 59.3208 -0.789117 -1.55302 0
M  V30 591 C 56.4528 -1.64369 -2.98656 0
M  V30 592 H 57.6458 -2.61784 -1.46319 0
M  V30 593 H 55.1988 -1.38226 -0.729616 0
M  V30 594 H 55.9338 -0.692272 -3.16825 0
M  V30 595 H 55.7188 -2.46282 -3.05103 0
M  V30 596 H 57.2088 -1.78674 -3.77446 0
M  V30 597 N 57.6459 0.756429 -1.3826 0
M  V30 598 C 58.5789 1.87802 -1.29637 0
M  V30 599 C 59.5569 1.61667 -0.173939 0
M  V30 600 O 60.7409 1.85208 -0.350775 0
M  V30 601 C 57.8679 3.23354 -1.00797 0
M  V30 602 C 56.9139 3.68379 -2.14939 0
M  V30 603 S 57.7469 3.8025 -3.77054 0
M  V30 604 C 58.9029 5.18626 -3.50396 0
M  V30 605 H 59.1359 1.94829 -2.24564 0
M  V30 606 H 56.6689 0.919117 -1.24063 0
M  V30 607 H 58.6269 4.01637 -0.848413 0
M  V30 608 H 57.2879 3.14008 -0.0759369 0
M  V30 609 H 56.4809 4.66693 -1.90299 0
M  V30 610 H 56.0829 2.97242 -2.26988 0
M  V30 611 H 58.3749 6.04289 -3.06334 0
M  V30 612 H 59.3179 5.48286 -4.48094 0
M  V30 613 H 59.7259 4.87289 -2.84973 0
M  V30 614 N 59.124 1.23083 0.984299 0
M  V30 615 C 60.401 0.9689 1.69917 0
M  V30 616 C 60.781 -0.513604 2.04757 0
M  V30 617 O 60.129 -1.48383 1.73767 0
M  V30 618 C 60.339 1.87518 2.94343 0
M  V30 619 C 61.687 2.13636 3.6694 0
M  V30 620 O 62.711 1.85036 3.04368 0
M  V30 621 O 61.57 2.62119 4.79537 0
M  V30 622 H 58.664 0.365095 0.742048 0
M  V30 623 H 61.21 1.34107 1.03987 0
M  V30 624 H 59.982 2.87756 2.65164 0
M  V30 625 H 59.605 1.50514 3.6801 0
M  V30 626 N 60.6021 -1.18246 1.0419 0
M  V30 627 C 61.8791 -1.84121 0.660208 0
M  V30 628 C 62.2591 -1.92778 -0.860221 0
M  V30 629 O 61.6071 -1.45464 -1.76217 0
M  V30 630 C 61.8171 -3.22355 1.33747 0
M  V30 631 C 63.1651 -3.98376 1.46906 0
M  V30 632 O 64.1891 -3.31799 1.29568 0
M  V30 633 O 63.0481 -5.17665 1.75171 0
M  V30 634 H 60.1421 -0.794036 0.231161 0
M  V30 635 H 62.6881 -1.25628 1.14087 0
M  V30 636 H 61.4601 -3.10964 2.37522 0
M  V30 637 H 61.0831 -3.88506 0.845515 0
M  V30 638 N 62.0802 -0.821533 -1.34494 0
M  V30 639 C 63.0102 -0.257138 -2.3208 0
M  V30 640 C 63.9912 0.625645 -1.58176 0
M  V30 641 O 65.1762 0.552811 -1.86166 0
M  V30 642 C 62.3062 0.582958 -3.42372 0
M  V30 643 C 61.2602 -0.202571 -4.2752 0
M  V30 644 C 60.5862 0.760179 -5.29269 0
M  V30 645 C 61.8862 -1.40998 -5.02908 0
M  V30 646 H 63.5802 -1.07247 -2.79532 0
M  V30 647 H 61.1262 -0.517163 -1.34393 0
M  V30 648 H 63.0792 0.987972 -4.09655 0
M  V30 649 H 61.8032 1.43133 -2.93565 0
M  V30 650 H 60.4622 -0.588936 -3.61838 0
M  V30 651 H 60.1102 1.60447 -4.76724 0
M  V30 652 H 59.8102 0.238809 -5.87115 0
M  V30 653 H 61.3342 1.16308 -5.9942 0
M  V30 654 H 62.7482 -1.07905 -5.63054 0
M  V30 655 H 61.1452 -1.86689 -5.70322 0
M  V30 656 H 62.2152 -2.1889 -4.32684 0
M  V30 657 N 63.5583 1.46682 -0.576371 0
M  V30 658 C 64.4913 2.27243 0.208731 0
M  V30 659 C 65.4693 1.35238 0.902746 0
M  V30 660 O 66.6533 1.64641 0.917904 0
M  V30 661 C 63.7803 3.12802 1.29896 0
M  V30 662 C 62.8263 4.20524 0.711457 0
M  V30 663 S 63.6593 5.33548 -0.456781 0
M  V30 664 C 64.8153 6.22673 0.634798 0
M  V30 665 H 65.0483 2.93484 -0.474838 0
M  V30 666 H 62.5813 1.50069 -0.363118 0
M  V30 667 H 64.5393 3.62661 1.92321 0
M  V30 668 H 63.2003 2.45887 1.95444 0
M  V30 669 H 62.3933 4.80191 1.53076 0
M  V30 670 H 61.9953 3.73645 0.162999 0
M  V30 671 H 64.2873 6.60181 1.52209 0
M  V30 672 H 65.2303 7.0806 0.0750311 0
M  V30 673 H 65.6383 5.56684 0.936092 0
M  V30 674 N 65.0364 0.313813 1.54444 0
M  V30 675 C 65.9664 -0.549454 2.26943 0
M  V30 676 C 66.9474 -1.12741 1.27372 0
M  V30 677 O 68.1324 -1.15436 1.56167 0
M  V30 678 C 65.2624 -1.71523 3.01989 0
M  V30 679 C 64.2164 -1.26703 4.08816 0
M  V30 680 C 63.5424 -2.51898 4.71647 0
M  V30 681 C 64.8424 -0.388962 5.2085 0
M  V30 682 H 66.5364 0.0552661 2.99349 0
M  V30 683 H 64.0824 0.0280207 1.43973 0
M  V30 684 H 66.0354 -2.32535 3.51433 0
M  V30 685 H 64.7594 -2.34639 2.27183 0
M  V30 686 H 63.4184 -0.679896 3.6024 0
M  V30 687 H 63.0664 -3.13356 3.93468 0
M  V30 688 H 62.7664 -2.22605 5.43802 0
M  V30 689 H 64.2904 -3.1369 5.23861 0
M  V30 690 H 65.7044 -0.905107 5.6611 0
M  V30 691 H 64.1014 -0.18924 5.99802 0
M  V30 692 H 65.1714 0.582699 4.81386 0
M  V30 693 N 66.5145 -1.57545 0.0417849 0
M  V30 694 C 67.7395 -1.97035 -0.647455 0
M  V30 695 C 68.1645 -0.918775 -1.64135 0
M  V30 696 O 67.5225 0.119006 -1.80909 0
M  V30 697 C 67.5705 -3.35609 -1.31905 0
M  V30 698 O 66.6745 -3.3287 -2.43457 0
M  V30 699 H 66.0155 -0.64211 -0.169086 0
M  V30 700 H 68.5455 -2.04318 0.107399 0
M  V30 701 H 68.5555 -3.72126 -1.67291 0
M  V30 702 H 67.2305 -4.11685 -0.590586 0
M  V30 703 H 65.8075 -3.08087 -2.10088 0
M  V30 704 N 67.9926 0.231505 -1.5589 0
M  V30 705 C 69.4036 0.799327 -1.68724 0
M  V30 706 C 69.7546 1.85398 -0.642022 0
M  V30 707 O 68.8796 2.1539 0.208784 0
M  V30 708 C 69.4746 1.45664 -3.05888 0
M  V30 709 C 68.0336 1.97197 -3.20609 0
M  V30 710 C 67.1806 0.828552 -2.64632 0
M  V30 711 H 70.1316 0.00702616 -1.58698 0
M  V30 712 H 70.1526 2.32517 -3.01191 0
M  V30 713 H 69.6646 0.688808 -3.81939 0
M  V30 714 H 67.7656 2.76813 -2.4941 0
M  V30 715 H 67.8786 2.15878 -4.27707 0
M  V30 716 H 66.2426 1.23321 -2.22854 0
M  V30 717 H 67.0256 0.0735544 -3.43221 0
M  V30 718 N 69.4707 1.49531 0.497807 0
M  V30 719 C 70.7477 1.49682 1.25915 0
M  V30 720 C 71.1277 0.226339 2.09883 0
M  V30 721 O 70.4757 -0.791189 2.14365 0
M  V30 722 C 70.6857 2.77755 2.11313 0
M  V30 723 C 72.0337 3.27371 2.70395 0
M  V30 724 O 73.0577 2.78894 2.21578 0
M  V30 725 O 71.9167 4.11808 3.59272 0
M  V30 726 H 69.0107 0.599228 0.56996 0
M  V30 727 H 71.5567 1.61798 0.511816 0
M  V30 728 H 70.3287 3.61713 1.49264 0
M  V30 729 H 69.9517 2.68515 2.93233 0
M  V30 730 N 70.9488 -0.749086 1.3866 0
M  V30 731 C 72.2258 -1.4992 1.25632 0
M  V30 732 C 72.6058 -2.10633 -0.140317 0
M  V30 733 O 71.9538 -1.97437 -1.15025 0
M  V30 734 C 72.1638 -2.56195 2.36992 0
M  V30 735 C 73.5118 -3.22972 2.75634 0
M  V30 736 O 74.5358 -2.66502 2.36337 0
M  V30 737 O 73.3948 -4.25122 3.43415 0
M  V30 738 H 70.4888 -0.665067 0.491544 0
M  V30 739 H 73.0348 -0.784113 1.50498 0
M  V30 740 H 71.8068 -2.09612 3.30422 0
M  V30 741 H 71.4298 -3.35279 2.13714 0
M  V30 742 N 72.4269 -1.23603 -0.977757 0
M  V30 743 C 73.6759 -1.06377 -1.71368 0
M  V30 744 C 73.9889 0.399062 -1.91486 0
M  V30 745 O 75.1949 0.691312 -2.62551 0
M  V30 746 C 73.6509 -1.85512 -3.08404 0
M  V30 747 C 73.2589 -3.36141 -2.96164 0
M  V30 748 C 75.0029 -1.76783 -3.85938 0
M  V30 749 C 72.9099 -4.07659 -4.28449 0
M  V30 750 H 71.8399 -0.394452 -0.642591 0
M  V30 751 H 74.4909 -1.47594 -1.09034 0
M  V30 752 H 72.8729 -1.37103 -3.71509 0
M  V30 753 H 74.0469 -3.92056 -2.42133 0
M  V30 754 H 72.3619 -3.45712 -2.32104 0
M  V30 755 H 74.9589 -2.27526 -4.83876 0
M  V30 756 H 75.3019 -0.731116 -4.0983 0
M  V30 757 H 75.8349 -2.22818 -3.2954 0
M  V30 758 H 72.5739 -5.11648 -4.09752 0
M  V30 759 H 72.0939 -3.5653 -4.82334 0
M  V30 760 H 73.7729 -4.141 -4.97122 0
M  V30 761 N 73.905 1.17692 -1.04816 0
M  V30 762 C 74.815 2.25229 -0.65643 0
M  V30 763 C 75.831 1.71018 0.320761 0
M  V30 764 O 77.007 2.00649 0.173805 0
M  V30 765 C 74.072 3.46684 -0.0332629 0
M  V30 766 C 73.133 4.15997 -1.06042 0
M  V30 767 C 72.366 5.31654 -0.466893 0
M  V30 768 O 72.589 5.65777 0.724758 0
M  V30 769 O 71.523 5.89831 -1.1993 0
M  V30 770 H 75.349 2.61016 -1.55255 0
M  V30 771 H 72.934 1.24919 -0.81949 0
M  V30 772 H 74.816 4.20234 0.313256 0
M  V30 773 H 73.491 3.12703 0.836566 0
M  V30 774 H 72.398 3.44482 -1.45886 0
M  V30 775 H 73.731 4.53996 -1.90127 0
M  V30 776 N 75.3831 0.828654 1.34056 0
M  V30 777 C 76.3151 0.212052 2.28217 0
M  V30 778 C 77.3281 -0.601362 1.51286 0
M  V30 779 O 78.5171 -0.430104 1.73241 0
M  V30 780 C 75.6171 -0.72088 3.31144 0
M  V30 781 C 74.7901 0.0509587 4.3737 0
M  V30 782 C 73.8491 -0.803766 5.20025 0
M  V30 783 O 72.8751 -0.246667 5.68665 0
M  V30 784 N 74.0771 -2.1227 5.40298 0
M  V30 785 H 76.8421 1.02105 2.81771 0
M  V30 786 H 74.4031 0.686153 1.46641 0
M  V30 787 H 76.3951 -1.29742 3.8334 0
M  V30 788 H 74.9651 -1.43061 2.77943 0
M  V30 789 H 74.1851 0.808831 3.85813 0
M  V30 790 H 75.4731 0.582065 5.0546 0
M  V30 791 H 74.8711 -2.59898 5.02464 0
M  V30 792 H 73.4281 -2.64796 5.95589 0
M  V30 793 N 76.8612 -1.46375 0.584142 0
M  V30 794 C 78.1072 -2.03248 0.0787103 0
M  V30 795 C 78.4622 -1.44737 -1.26763 0
M  V30 796 O 77.7552 -0.603625 -1.81843 0
M  V30 797 C 77.9492 -3.57373 -0.0439342 0
M  V30 798 C 77.7782 -4.30831 1.28897 0
M  V30 799 C 76.5482 -4.69683 1.8635 0
M  V30 800 C 78.7462 -4.64278 2.21248 0
M  V30 801 N 76.7282 -5.27898 3.13365 0
M  V30 802 C 78.0992 -5.23078 3.32851 0
M  V30 803 C 80.1542 -4.46209 2.20911 0
M  V30 804 C 78.8572 -5.65715 4.44251 0
M  V30 805 C 80.8832 -4.89864 3.31341 0
M  V30 806 C 80.2452 -5.48736 4.41665 0
M  V30 807 H 76.3442 -0.778714 0.0716144 0
M  V30 808 H 78.9282 -1.78509 0.777355 0
M  V30 809 H 77.0992 -3.81823 -0.711749 0
M  V30 810 H 78.8312 -4.00892 -0.553881 0
M  V30 811 H 75.5862 -4.52488 1.39826 0
M  V30 812 H 76.0102 -5.61525 3.78178 0
M  V30 813 H 80.6522 -4.00027 1.36888 0
M  V30 814 H 78.3702 -6.10875 5.29015 0
M  V30 815 H 81.9562 -4.77634 3.322 0
M  V30 816 H 80.8362 -5.81898 5.25704 0
M  V30 817 N 78.3393 -0.321999 -1.54275 0
M  V30 818 C 79.5863 0.281044 -2.0054 0
M  V30 819 C 79.9143 1.52265 -1.21019 0
M  V30 820 O 79.1693 1.93687 -0.279982 0
M  V30 821 C 79.4683 0.661769 -3.5122 0
M  V30 822 C 79.1343 -0.480482 -4.48333 0
M  V30 823 C 77.7963 -0.794005 -4.74604 0
M  V30 824 C 80.1483 -1.24783 -5.06042 0
M  V30 825 C 77.4763 -1.87763 -5.55844 0
M  V30 826 C 79.8283 -2.32153 -5.88462 0
M  V30 827 C 78.4923 -2.64089 -6.13036 0
M  V30 828 H 77.7623 0.102841 -0.733829 0
M  V30 829 H 80.4093 -0.445453 -1.86247 0
M  V30 830 H 78.7143 1.46867 -3.63232 0
M  V30 831 H 80.4113 1.13989 -3.84457 0
M  V30 832 H 77.0013 -0.226039 -4.28004 0
M  V30 833 H 81.1853 -1.01887 -4.85729 0
M  V30 834 H 76.4413 -2.12954 -5.73115 0
M  V30 835 H 80.6153 -2.92057 -6.32199 0
M  V30 836 H 78.2423 -3.48185 -6.75775 0
M  V30 837 N 79.8174 1.5752 -0.0501392 0
M  V30 838 C 81.0454 1.96963 0.633492 0
M  V30 839 C 81.4604 0.927631 1.6444 0
M  V30 840 O 80.8174 -0.0882665 1.82286 0
M  V30 841 C 80.8684 3.36487 1.32132 0
M  V30 842 O 80.5894 4.36693 0.350894 0
M  V30 843 C 82.0904 3.90682 2.09481 0
M  V30 844 H 79.3104 0.648244 0.173266 0
M  V30 845 H 81.8544 2.0417 -0.116134 0
M  V30 846 H 80.0094 3.30434 2.02218 0
M  V30 847 H 80.4234 5.17702 0.841735 0
M  V30 848 H 81.8974 4.90591 2.5303 0
M  V30 849 H 82.3744 3.26053 2.94255 0
M  V30 850 H 82.9804 4.00069 1.44307 0
M  V30 851 N 81.2955 -0.223234 1.56011 0
M  V30 852 C 82.2055 -1.29766 1.95443 0
M  V30 853 C 83.2215 -1.51373 0.858028 0
M  V30 854 O 84.3975 -1.64536 1.16146 0
M  V30 855 C 81.4625 -2.62772 2.26167 0
M  V30 856 C 80.5235 -2.49482 3.49367 0
M  V30 857 C 79.7565 -3.76145 3.78616 0
M  V30 858 O 79.9795 -4.79087 3.09568 0
M  V30 859 O 78.9135 -3.73358 4.72109 0
M  V30 860 H 82.7395 -0.99309 2.87004 0
M  V30 861 H 80.3245 -0.425958 1.43199 0
M  V30 862 H 82.2065 -3.41327 2.47131 0
M  V30 863 H 80.8815 -2.92913 1.37781 0
M  V30 864 H 79.7885 -1.69133 3.33684 0
M  V30 865 H 81.1215 -2.2428 4.38131 0
M  V30 866 N 82.7736 -1.49793 -0.48987 0
M  V30 867 C 84.0506 -1.50348 -1.25119 0
M  V30 868 C 84.4306 -0.237466 -2.0976 0
M  V30 869 O 83.7786 0.77981 -2.14782 0
M  V30 870 C 83.9886 -2.78872 -2.09837 0
M  V30 871 C 85.3366 -3.288 -2.68655 0
M  V30 872 O 86.3606 -2.80065 -2.20096 0
M  V30 873 O 85.2196 -4.13707 -3.57083 0
M  V30 874 H 82.3136 -0.602242 -0.566775 0
M  V30 875 H 84.8596 -1.62067 -0.503229 0
M  V30 876 H 83.6316 -3.62499 -1.47343 0
M  V30 877 H 83.2546 -2.70066 -2.91805 0
M  V30 878 N 84.2517 0.741722 -1.39055 0
M  V30 879 C 85.6627 1.31966 -1.32068 0
M  V30 880 C 86.0137 1.96192 0.0180797 0
M  V30 881 O 85.1387 1.95861 0.920196 0
M  V30 882 C 85.7337 2.39954 -2.39181 0
M  V30 883 C 84.2927 2.93438 -2.35735 0
M  V30 884 C 83.4397 1.66936 -2.21422 0
M  V30 885 H 86.3907 0.539721 -1.4924 0
M  V30 886 H 86.4117 3.20182 -2.05581 0
M  V30 887 H 85.9237 1.9318 -3.36605 0
M  V30 888 H 84.0247 3.4451 -1.41929 0
M  V30 889 H 84.1377 3.4701 -3.30335 0
M  V30 890 H 82.5017 1.91016 -1.68478 0
M  V30 891 H 83.2847 1.22224 -3.20806 0
M  V30 892 N 85.7298 1.2412 0.971189 0
M  V30 893 C 86.9778 1.07668 1.71032 0
M  V30 894 C 87.2988 -0.385797 1.91146 0
M  V30 895 O 86.5688 -1.27569 1.4867 0
M  V30 896 H 85.1488 0.395429 0.633755 0
M  V30 897 H 87.8108 1.55984 1.16855 0
M  V30 898 H 86.9068 1.57195 2.69622 0
M  V30 899 N 87.2079 -1.17134 1.05439 0
M  V30 900 C 88.6189 -1.69084 0.791676 0
M  V30 901 C 88.9699 -1.83822 -0.685839 0
M  V30 902 O 88.0949 -1.52757 -1.53278 0
M  V30 903 C 88.6899 -3.07119 1.4305 0
M  V30 904 C 87.2489 -3.56225 1.21577 0
M  V30 905 C 86.3959 -2.32421 1.51247 0
M  V30 906 H 89.3469 -1.01617 1.219 0
M  V30 907 H 89.3679 -3.71087 0.84112 0
M  V30 908 H 88.8799 -2.9636 2.50584 0
M  V30 909 H 86.9809 -3.72257 0.159787 0
M  V30 910 H 87.0939 -4.38837 1.92246 0
M  V30 911 H 85.4579 -2.3701 0.932653 0
M  V30 912 H 86.2409 -2.24268 2.5992 0
M  V30 913 N 88.686 -0.835752 -1.33615 0
M  V30 914 C 89.963 -0.352017 -1.92406 0
M  V30 915 C 90.343 1.16225 -1.76224 0
M  V30 916 O 89.691 1.97526 -1.14873 0
M  V30 917 C 89.901 -0.795485 -3.39813 0
M  V30 918 C 91.249 -0.801703 -4.16963 0
M  V30 919 O 92.273 -0.738889 -3.48452 0
M  V30 920 O 91.132 -0.886607 -5.3926 0
M  V30 921 H 88.226 -0.0989641 -0.821057 0
M  V30 922 H 90.772 -0.921397 -1.42507 0
M  V30 923 H 89.544 -1.83795 -3.45449 0
M  V30 924 H 89.167 -0.202505 -3.97084 0
M  V30 925 N 90.1641 1.46063 -0.591896 0
M  V30 926 C 91.0741 2.34192 0.13831 0
M  V30 927 C 92.0901 1.50305 0.876608 0
M  V30 928 O 93.2661 1.8315 0.837728 0
M  V30 929 C 90.3311 3.27656 1.13326 0
M  V30 930 C 89.3921 4.27445 0.39863 0
M  V30 931 C 88.6251 5.16443 1.34618 0
M  V30 932 O 88.8481 5.08553 2.58321 0
M  V30 933 O 87.7821 5.95843 0.851768 0
M  V30 934 H 91.6081 2.98002 -0.58552 0
M  V30 935 H 89.1931 1.45188 -0.352239 0
M  V30 936 H 91.0751 3.85291 1.70671 0
M  V30 937 H 89.7501 2.6643 1.83839 0
M  V30 938 H 88.6571 3.73471 -0.216895 0
M  V30 939 H 89.9901 4.91482 -0.265709 0
M  V30 940 N 91.6422 0.330177 1.54103 0
M  V30 941 C 92.6052 -0.520144 2.2322 0
M  V30 942 C 93.6052 -1.03828 1.22786 0
M  V30 943 O 94.7952 -0.929652 1.4732 0
M  V30 944 C 91.9272 -1.72317 2.94142 0
M  V30 945 H 93.1202 0.0841605 2.99782 0
M  V30 946 H 90.6732 0.0813433 1.56088 0
M  V30 947 H 91.4082 -2.36653 2.21734 0
M  V30 948 H 91.1932 -1.35898 3.67796 0
M  V30 949 H 92.6832 -2.3266 3.46784 0
M  V30 950 N 93.1203 -1.57491 0.0584922 0
M  V30 951 C 94.5313 -1.80526 -0.476138 0
M  V30 952 C 94.8823 -0.971334 -1.70469 0
M  V30 953 O 94.0073 -0.190012 -2.15564 0
M  V30 954 C 94.6023 -3.27424 -0.870587 0
M  V30 955 C 93.1613 -3.51351 -1.35015 0
M  V30 956 C 92.3083 -2.75343 -0.32887 0
M  V30 957 H 95.2593 -1.56133 0.284312 0
M  V30 958 H 95.2803 -3.38745 -1.73299 0
M  V30 959 H 94.7923 -3.88093 0.0237627 0
M  V30 960 H 92.8933 -2.95971 -2.26345 0
M  V30 961 H 93.0063 -4.60059 -1.33726 0
M  V30 962 H 91.3703 -2.417 -0.803321 0
M  V30 963 H 92.1533 -3.38743 0.557521 0
M  V30 964 N 94.5984 0.214957 -1.56127 0
M  V30 965 C 96.0144 0.564948 -1.49267 0
M  V30 966 C 96.2144 1.86827 -0.754838 0
M  V30 967 O 95.2704 2.50745 -0.297198 0
M  V30 968 C 96.5834 0.638071 -2.93852 0
M  V30 969 C 98.1314 0.728253 -3.0441 0
M  V30 970 C 98.6064 0.832663 -4.50367 0
M  V30 971 N 100.097 0.896712 -4.54437 0
M  V30 972 C 100.832 0.997324 -5.6466 0
M  V30 973 N 100.328 1.06147 -6.8462 0
M  V30 974 N 102.121 1.03297 -5.52527 0
M  V30 975 H 94.2724 -0.640211 -2.02522 0
M  V30 976 H 96.5354 -0.225507 -0.920788 0
M  V30 977 H 96.2414 -0.250126 -3.50809 0
M  V30 978 H 96.1154 1.49947 -3.46115 0
M  V30 979 H 98.5024 1.60689 -2.47514 0
M  V30 980 H 98.5834 -0.158952 -2.55306 0
M  V30 981 H 98.2274 -0.0415417 -5.07883 0
M  V30 982 H 98.1574 1.73538 -4.97184 0
M  V30 983 H 100.648 0.857188 -3.6805 0
M  V30 984 H 100.961 1.1382 -7.64372 0
M  V30 985 H 99.3064 1.03049 -6.87318 0
M  V30 986 H 102.497 0.979558 -4.57736 0
M  V30 987 H 102.67 1.10793 -6.38458 0
M  V30 988 N 96.0765 1.50051 0.48192 0
M  V30 989 C 97.0095 1.62749 1.59963 0
M  V30 990 C 97.9875 0.475903 1.5548 0
M  V30 991 O 99.1715 0.693986 1.7526 0
M  V30 992 C 96.2985 1.60008 2.98522 0
M  V30 993 C 95.3445 2.80596 3.21198 0
M  V30 994 S 96.1775 4.42038 3.02262 0
M  V30 995 C 97.3335 4.41973 4.43182 0
M  V30 996 H 97.5665 2.57296 1.4895 0
M  V30 997 H 95.0995 1.39179 0.668477 0
M  V30 998 H 97.0575 1.59112 3.78409 0
M  V30 999 H 95.7185 0.667153 3.06933 0
M  V30 1000 H 94.9115 2.74952 4.22395 0
M  V30 1001 H 94.5135 2.79003 2.49065 0
M  V30 1002 H 96.8055 4.14868 5.35622 0
M  V30 1003 H 97.7485 5.43512 4.53873 0
M  V30 1004 H 98.1565 3.71812 4.24755 0
M  V30 1005 N 97.5546 -0.734337 1.39446 0
M  V30 1006 C 98.9656 -1.31264 1.32766 0
M  V30 1007 C 99.3166 -1.96198 -0.00767497 0
M  V30 1008 O 98.4416 -1.96346 -0.909796 0
M  V30 1009 C 99.0366 -2.38682 2.4045 0
M  V30 1010 C 97.5956 -2.92184 2.37288 0
M  V30 1011 C 96.7426 -1.6576 2.22304 0
M  V30 1012 H 99.6936 -0.531799 1.49525 0
M  V30 1013 H 99.7146 -3.19087 2.07276 0
M  V30 1014 H 99.2266 -1.91392 3.37625 0
M  V30 1015 H 97.3276 -3.43752 1.43754 0
M  V30 1016 H 97.4406 -3.45253 3.3217 0
M  V30 1017 H 95.8046 -1.9012 1.69489 0
M  V30 1018 H 96.5876 -1.20521 3.21449 0
M  V30 1019 N 99.0327 -1.24633 -0.964593 0
M  V30 1020 C 99.9427 -1.05859 -2.09359 0
M  V30 1021 C 100.959 0.00148855 -1.74 0
M  V30 1022 O 102.135 -0.197346 -2.00431 0
M  V30 1023 C 99.1997 -0.668879 -3.40187 0
M  V30 1024 C 98.2607 -1.80578 -3.89474 0
M  V30 1025 C 97.4937 -1.43457 -5.14058 0
M  V30 1026 O 97.7167 -0.325775 -5.69469 0
M  V30 1027 O 96.6507 -2.2613 -5.57807 0
M  V30 1028 H 100.477 -2.00516 -2.28094 0
M  V30 1029 H 98.0617 -1.03481 -1.0776 0
M  V30 1030 H 99.9437 -0.463211 -4.18846 0
M  V30 1031 H 98.6187 0.248536 -3.22744 0
M  V30 1032 H 97.5257 -2.06623 -3.11862 0
M  V30 1033 H 98.8587 -2.70208 -4.11398 0
M  V30 1034 N 100.511 1.16574 -1.06058 0
M  V30 1035 C 101.474 2.19085 -0.673392 0
M  V30 1036 C 102.474 1.5835 0.279648 0
M  V30 1037 O 103.664 1.74088 0.0623488 0
M  V30 1038 C 100.796 3.40899 0.00954234 0
M  V30 1039 H 101.989 2.54853 -1.58081 0
M  V30 1040 H 99.5418 1.30808 -0.855516 0
M  V30 1041 H 100.277 3.10684 0.929826 0
M  V30 1042 H 100.062 3.86233 -0.67573 0
M  V30 1043 H 101.552 4.1675 0.266245 0
M  V30 1044 N 101.989 0.842826 1.3317 0
M  V30 1045 C 102.952 0.284065 2.27433 0
M  V30 1046 C 103.952 -0.54948 1.5112 0
M  V30 1047 O 105.142 -0.362699 1.70382 0
M  V30 1048 C 102.274 -0.599384 3.35589 0
M  V30 1049 H 103.467 1.11589 2.78366 0
M  V30 1050 H 101.02 0.616221 1.4364 0
M  V30 1051 H 101.755 -1.45349 2.89904 0
M  V30 1052 H 101.54 -0.00291266 3.921 0
M  V30 1053 H 103.03 -0.983488 4.05854 0
M  V30 1054 N 103.467 -1.45747 0.599634 0
M  V30 1055 C 104.878 -1.85853 0.177681 0
M  V30 1056 C 105.229 -1.50102 -1.26348 0
M  V30 1057 O 104.354 -0.923905 -1.95686 0
M  V30 1058 C 104.949 -3.37326 0.315688 0
M  V30 1059 C 103.508 -3.76365 -0.0515144 0
M  V30 1060 C 102.655 -2.69722 0.643822 0
M  V30 1061 H 105.606 -1.36661 0.806814 0
M  V30 1062 H 105.627 -3.77778 -0.454321 0
M  V30 1063 H 105.139 -3.63315 1.36468 0
M  V30 1064 H 103.24 -3.55993 -1.09999 0
M  V30 1065 H 103.353 -4.77916 0.336594 0
M  V30 1066 H 101.717 -2.54567 0.0822881 0
M  V30 1067 H 102.5 -2.98549 1.6948 0
M  V30 1068 N 104.945 -0.338344 -1.53925 0
M  V30 1069 C 106.356 0.146651 -1.86123 0
M  V30 1070 C 106.707 1.5042 -1.2597 0
M  V30 1071 O 105.832 2.08723 -0.571294 0
M  V30 1072 C 106.427 0.272879 -3.37699 0
M  V30 1073 C 104.986 0.702103 -3.69794 0
M  V30 1074 C 104.133 -0.167304 -2.76795 0
M  V30 1075 H 107.084 -0.558123 -1.48562 0
M  V30 1076 H 107.105 1.10128 -3.64214 0
M  V30 1077 H 106.617 -0.715307 -3.81451 0
M  V30 1078 H 104.718 1.6995 -3.31584 0
M  V30 1079 H 104.831 0.495604 -4.7653 0
M  V30 1080 H 103.195 0.359527 -2.5215 0
M  V30 1081 H 103.978 -1.15253 -3.23375 0
M  V30 1082 N 106.423 1.57458 -0.0668435 0
M  V30 1083 C 107.669 1.93587 0.6043 0
M  V30 1084 C 108.002 0.946722 1.69561 0
M  V30 1085 O 107.277 -0.0248516 1.94484 0
M  V30 1086 C 107.56 3.40014 1.18585 0
M  V30 1087 C 107.413 4.49685 0.101529 0
M  V30 1088 C 108.732 3.87154 2.09284 0
M  V30 1089 H 105.851 0.703958 0.218202 0
M  V30 1090 H 108.493 1.89542 -0.131804 0
M  V30 1091 H 106.643 3.43592 1.81319 0
M  V30 1092 H 108.315 4.5823 -0.531279 0
M  V30 1093 H 106.558 4.30059 -0.568487 0
M  V30 1094 H 107.229 5.49266 0.54874 0
M  V30 1095 H 109.705 3.85551 1.56491 0
M  V30 1096 H 108.581 4.90231 2.46911 0
M  V30 1097 H 108.842 3.2481 2.99918 0
M  V30 1098 N 107.901 -0.206675 1.56239 0
M  V30 1099 C 108.864 -1.23976 1.92776 0
M  V30 1100 C 109.864 -1.39041 0.807729 0
M  V30 1101 O 111.054 -1.37051 1.0753 0
M  V30 1102 C 108.186 -2.61112 2.19165 0
M  V30 1103 H 109.379 -0.927764 2.85189 0
M  V30 1104 H 106.932 -0.447718 1.4975 0
M  V30 1105 H 107.667 -2.97386 1.29352 0
M  V30 1106 H 107.452 -2.51552 3.00772 0
M  V30 1107 H 108.942 -3.35633 2.48476 0
M  V30 1108 N 109.379 -1.50304 -0.473955 0
M  V30 1109 C 110.79 -1.54042 -1.0549 0
M  V30 1110 C 111.141 -0.342248 -1.93192 0
M  V30 1111 O 110.266 0.545157 -2.09421 0
M  V30 1112 C 110.861 -2.79152 -1.91989 0
M  V30 1113 C 109.42 -2.8558 -2.45196 0
M  V30 1114 C 108.567 -2.48295 -1.2347 0
M  V30 1115 H 111.518 -1.5661 -0.256693 0
M  V30 1116 H 111.539 -2.60845 -2.7702 0
M  V30 1117 H 111.051 -3.66339 -1.28131 0
M  V30 1118 H 109.152 -2.02738 -3.12615 0
M  V30 1119 H 109.265 -3.88403 -2.80499 0
M  V30 1120 H 107.629 -2.00669 -1.56856 0
M  V30 1121 H 108.412 -3.37787 -0.612789 0
M  V30 1122 N 110.857 0.726932 -1.39834 0
M  V30 1123 C 111.82 1.82269 -1.38962 0
M  V30 1124 C 112.82 1.58248 -0.285334 0
M  V30 1125 O 114.01 1.65499 -0.54366 0
M  V30 1126 C 111.142 3.20186 -1.17019 0
M  V30 1127 H 112.335 1.84443 -2.36476 0
M  V30 1128 H 109.888 0.931416 -1.25516 0
M  V30 1129 H 110.623 3.23669 -0.202204 0
M  V30 1130 H 110.408 3.3902 -1.96998 0
M  V30 1131 H 111.898 4.00235 -1.1917 0
M  V30 1132 N 112.336 1.25143 0.95797 0
M  V30 1133 C 113.747 1.08851 1.51685 0
M  V30 1134 C 114.098 -0.33687 1.93286 0
M  V30 1135 O 113.223 -1.22644 1.7829 0
M  V30 1136 C 113.818 1.96978 2.75654 0
M  V30 1137 C 112.377 1.84881 3.27866 0
M  V30 1138 C 111.524 1.91329 2.0072 0
M  V30 1139 H 114.475 1.38478 0.77522 0
M  V30 1140 H 114.496 1.5078 3.4935 0
M  V30 1141 H 114.008 3.00712 2.45345 0
M  V30 1142 H 112.109 0.840182 3.63004 0
M  V30 1143 H 112.222 2.6951 3.96107 0
M  V30 1144 H 110.586 1.35174 2.15871 0
M  V30 1145 H 111.369 2.96661 1.72764 0
M  V30 1146 N 113.814 -1.1601 1.06675 0
M  V30 1147 C 114.777 -2.18724 0.685001 0
M  V30 1148 C 115.777 -1.58496 -0.271246 0
M  V30 1149 O 116.967 -1.74119 -0.0531156 0
M  V30 1150 C 114.099 -3.40899 0.00853648 0
M  V30 1151 H 115.292 -2.54011 1.59431 0
M  V30 1152 H 112.845 -1.30352 0.862441 0
M  V30 1153 H 113.58 -3.11173 -0.913337 0
M  V30 1154 H 113.365 -3.8587 0.696204 0
M  V30 1155 H 114.855 -4.16886 -0.24414 0
M  V30 1156 N 115.292 -0.849877 -1.32721 0
M  V30 1157 C 116.255 -0.296122 -2.27279 0
M  V30 1158 C 117.255 0.541458 -1.5141 0
M  V30 1159 O 118.445 0.353658 -1.70572 0
M  V30 1160 C 115.577 0.581579 -3.35902 0
M  V30 1161 H 116.77 -1.13064 -2.77771 0
M  V30 1162 H 114.323 -0.62383 -1.43311 0
M  V30 1163 H 115.058 1.43809 -2.9067 0
M  V30 1164 H 114.843 -0.0178814 -3.92096 0
M  V30 1165 H 116.333 0.961951 -4.0637 0
M  V30 1166 N 116.77 1.45427 -0.607355 0
M  V30 1167 C 118.181 1.85756 -0.187535 0
M  V30 1168 C 118.532 1.5077 1.25551 0
M  V30 1169 O 117.657 0.93427 1.95193 0
M  V30 1170 C 118.252 3.37154 -0.333572 0
M  V30 1171 C 116.811 3.76387 0.0315542 0
M  V30 1172 C 115.958 2.69377 -0.658117 0
M  V30 1173 H 118.909 1.36231 -0.81405 0
M  V30 1174 H 118.93 3.78014 0.43428 0
M  V30 1175 H 118.442 3.62586 -1.38393 0
M  V30 1176 H 116.543 3.56571 1.0811 0
M  V30 1177 H 116.656 4.77731 -0.361935 0
M  V30 1178 H 115.02 2.5452 -0.0957873 0
M  V30 1179 H 115.803 2.97646 -1.7106 0
M  V30 1180 N 118.248 0.346503 1.53744 0
M  V30 1181 C 119.476 -0.25041 2.05379 0
M  V30 1182 C 119.891 -1.43979 1.22129 0
M  V30 1183 O 119.248 -1.80677 0.257321 0
M  V30 1184 C 119.299 -0.662575 3.55376 0
M  V30 1185 O 119.02 0.479515 4.35468 0
M  V30 1186 C 120.521 -1.31989 4.23195 0
M  V30 1187 H 117.741 -0.0478198 0.669294 0
M  V30 1188 H 120.285 0.499346 1.9831 0
M  V30 1189 H 118.44 -1.36227 3.62658 0
M  V30 1190 H 118.854 0.15037 5.24284 0
M  V30 1191 H 120.328 -1.55902 5.29527 0
M  V30 1192 H 120.805 -2.27436 3.75725 0
M  V30 1193 H 121.411 -0.662154 4.20114 0
M  V30 1194 N 119.726 -1.57421 0.075193 0
M  V30 1195 C 121.137 -1.81021 -0.456964 0
M  V30 1196 C 121.488 -0.98936 -1.69429 0
M  V30 1197 O 120.613 -0.212865 -2.15351 0
M  V30 1198 C 121.208 -3.28329 -0.83581 0
M  V30 1199 C 119.767 -3.52764 -1.31281 0
M  V30 1200 C 118.914 -2.75676 -0.299648 0
M  V30 1201 H 121.865 -1.55822 0.300856 0
M  V30 1202 H 121.886 -3.40564 -1.69696 0
M  V30 1203 H 121.398 -3.88046 0.0649238 0
M  V30 1204 H 119.499 -2.98355 -2.23193 0
M  V30 1205 H 119.612 -4.61451 -1.28839 0
M  V30 1206 H 117.976 -2.42538 -0.777641 0
M  V30 1207 H 118.759 -3.38132 0.593417 0
M  V30 1208 N 121.204 0.198386 -1.56346 0
M  V30 1209 C 122.167 1.22952 -1.93431 0
M  V30 1210 C 123.167 1.38611 -0.815092 0
M  V30 1211 O 124.357 1.36479 -1.08255 0
M  V30 1212 C 121.489 2.59946 -2.20546 0
M  V30 1213 H 122.682 0.912626 -2.85677 0
M  V30 1214 H 120.235 0.43977 -1.49986 0
M  V30 1215 H 120.97 2.96696 -1.30927 0
M  V30 1216 H 120.755 2.49953 -3.02102 0
M  V30 1217 H 122.245 3.3431 -2.50253 0
M  V30 1218 N 122.682 1.50554 0.465978 0
M  V30 1219 C 123.645 1.69233 1.54574 0
M  V30 1220 C 124.645 0.562901 1.50626 0
M  V30 1221 O 125.835 0.830016 1.53155 0
M  V30 1222 C 122.967 1.7223 2.94193 0
M  V30 1223 H 124.16 2.65571 1.39327 0
M  V30 1224 H 121.713 1.40111 0.692711 0
M  V30 1225 H 122.448 0.77603 3.14878 0
M  V30 1226 H 122.233 2.54285 2.98466 0
M  V30 1227 H 123.723 1.88618 3.72576 0
M  V30 1228 N 124.16 -0.719506 1.40217 0
M  V30 1229 C 125.571 -1.29848 1.34151 0
M  V30 1230 C 125.922 -1.96196 0.0131349 0
M  V30 1231 O 125.047 -1.973 -0.88892 0
M  V30 1232 C 125.642 -2.36118 2.42968 0
M  V30 1233 C 124.201 -2.8965 2.40374 0
M  V30 1234 C 123.348 -1.63393 2.24049 0
M  V30 1235 H 126.299 -0.51591 1.5008 0
M  V30 1236 H 126.32 -3.16871 2.10649 0
M  V30 1237 H 125.832 -1.878 3.39636 0
M  V30 1238 H 123.933 -3.42208 1.47392 0
M  V30 1239 H 124.046 -3.4171 3.35814 0
M  V30 1240 H 122.41 -1.88312 1.71495 0
M  V30 1241 H 123.193 -1.17104 3.2271 0
M  V30 1242 N 125.638 -1.25649 -0.95132 0
M  V30 1243 C 126.601 -1.06399 -2.03007 0
M  V30 1244 C 127.601 -0.0156794 -1.60792 0
M  V30 1245 O 128.791 -0.25817 -1.72276 0
M  V30 1246 C 125.923 -0.616184 -3.35285 0
M  V30 1247 H 127.116 -2.02164 -2.21517 0
M  V30 1248 H 124.669 -1.08103 -1.12887 0
M  V30 1249 H 125.404 0.343917 -3.22471 0
M  V30 1250 H 125.189 -1.37301 -3.67275 0
M  V30 1251 H 126.679 -0.503032 -4.14559 0
M  V30 1252 N 127.117 1.15442 -1.07289 0
M  V30 1253 C 128.528 1.67803 -0.818475 0
M  V30 1254 C 128.879 1.8489 0.656507 0
M  V30 1255 O 128.004 1.55176 1.50829 0
M  V30 1256 C 128.599 3.04805 -1.47917 0
M  V30 1257 C 127.158 3.54245 -1.27229 0
M  V30 1258 C 126.305 2.29986 -1.54925 0
M  V30 1259 H 129.256 0.996646 -1.23502 0
M  V30 1260 H 129.277 3.69702 -0.90005 0
M  V30 1261 H 128.789 2.92336 -2.55267 0
M  V30 1262 H 126.89 3.71956 -0.21899 0
M  V30 1263 H 127.003 4.35723 -1.99203 0
M  V30 1264 H 125.367 2.35496 -0.970242 0
M  V30 1265 H 126.15 2.20105 -2.63455 0
M  V30 1266 N 128.595 0.856903 1.32268 0
M  V30 1267 C 129.558 0.308171 2.27119 0
M  V30 1268 C 130.558 -0.533421 1.51695 0
M  V30 1269 O 131.748 -0.344607 1.70757 0
M  V30 1270 C 128.88 -0.563757 3.36206 0
M  V30 1271 H 130.073 1.14535 2.77167 0
M  V30 1272 H 127.626 0.631421 1.42978 0
M  V30 1273 H 128.361 -1.42266 2.91429 0
M  V30 1274 H 128.146 0.0386749 3.92081 0
M  V30 1275 H 129.636 -0.940386 4.06874 0
M  V30 1276 N 130.073 -1.45103 0.615059 0
M  V30 1277 C 131.484 -1.85654 0.197383 0
M  V30 1278 C 131.835 -1.51433 -1.24749 0
M  V30 1279 O 130.96 -0.944608 -1.94695 0
M  V30 1280 C 131.555 -3.36972 0.351448 0
M  V30 1281 C 130.114 -3.76398 -0.011593 0
M  V30 1282 C 129.261 -2.69024 0.672394 0
M  V30 1283 H 132.212 -1.35797 0.821263 0
M  V30 1284 H 132.233 -3.78239 -0.414227 0
M  V30 1285 H 131.745 -3.61847 1.40314 0
M  V30 1286 H 129.846 -3.5714 -1.06217 0
M  V30 1287 H 129.959 -4.77532 0.387265 0
M  V30 1288 H 128.323 -2.54465 0.109284 0
M  V30 1289 H 129.106 -2.96735 1.72636 0
M  V30 1290 N 131.551 -0.354651 -1.53558 0
M  V30 1291 C 132.776 0.242153 -2.05981 0
M  V30 1292 C 133.201 1.42553 -1.2272 0
M  V30 1293 O 132.559 1.79656 -0.243604 0
M  V30 1294 C 132.607 0.624367 -3.55154 0
M  V30 1295 O 131.711 1.72301 -3.74681 0
M  V30 1296 H 131.052 0.0378432 -0.662921 0
M  V30 1297 H 133.582 -0.512087 -1.98088 0
M  V30 1298 H 133.592 0.898433 -3.97985 0
M  V30 1299 H 132.267 -0.240989 -4.15201 0
M  V30 1300 H 130.844 1.44535 -3.4375 0
M  V30 1301 N 133.029 1.57378 -0.0835403 0
M  V30 1302 C 134.275 1.95025 0.577664 0
M  V30 1303 C 134.63 0.964049 1.66505 0
M  V30 1304 O 133.923 -0.0118235 1.91596 0
M  V30 1305 C 134.117 3.37063 1.1884 0
M  V30 1306 C 133.946 4.49409 0.16171 0
M  V30 1307 C 132.716 5.04642 -0.257756 0
M  V30 1308 C 134.914 5.10722 -0.605634 0
M  V30 1309 N 132.896 6.00537 -1.27393 0
M  V30 1310 C 134.267 6.02225 -1.47395 0
M  V30 1311 C 136.322 4.93501 -0.660418 0
M  V30 1312 C 135.025 6.78355 -2.39221 0
M  V30 1313 C 137.051 5.70283 -1.56623 0
M  V30 1314 C 136.413 6.61444 -2.4222 0
M  V30 1315 H 132.512 0.760512 0.182058 0
M  V30 1316 H 135.096 1.94013 -0.163419 0
M  V30 1317 H 133.267 3.3879 1.89936 0
M  V30 1318 H 134.999 3.61917 1.81103 0
M  V30 1319 H 131.754 4.73428 0.127702 0
M  V30 1320 H 132.178 6.53184 -1.77987 0
M  V30 1321 H 136.82 4.22798 -0.0128221 0
M  V30 1322 H 134.538 7.48327 -3.05011 0
M  V30 1323 H 138.124 5.58976 -1.61361 0
M  V30 1324 H 137.004 7.1982 -3.11174 0
M  V30 1325 N 134.507 -0.190092 1.56449 0
M  V30 1326 C 135.918 -0.754312 1.70784 0
M  V30 1327 C 136.269 -1.83631 0.690951 0
M  V30 1328 O 135.394 -2.15868 -0.151604 0
M  V30 1329 C 135.989 -1.37503 3.09642 0
M  V30 1330 C 134.548 -1.88628 3.25725 0
M  V30 1331 C 133.695 -0.758098 2.66736 0
M  V30 1332 H 136.646 0.0350524 1.58661 0
M  V30 1333 H 136.667 -2.2445 3.0725 0
M  V30 1334 H 136.179 -0.587302 3.83631 0
M  V30 1335 H 134.28 -2.70103 2.56661 0
M  V30 1336 H 134.393 -2.04462 4.3328 0
M  V30 1337 H 132.757 -1.17369 2.26046 0
M  V30 1338 H 133.54 0.0174705 3.43296 0
M  V30 1339 N 135.985 -1.50799 -0.457987 0
M  V30 1340 C 136.915 -1.73553 -1.5621 0
M  V30 1341 C 137.896 -0.584774 -1.59732 0
M  V30 1342 O 139.081 -0.825314 -1.7579 0
M  V30 1343 C 136.211 -1.84169 -2.94447 0
M  V30 1344 C 135.165 -2.99461 -3.0579 0
M  V30 1345 C 134.491 -2.95235 -4.45803 0
M  V30 1346 C 135.791 -4.39766 -2.81786 0
M  V30 1347 H 137.485 -2.66 -1.37421 0
M  V30 1348 H 135.031 -1.28002 -0.659662 0
M  V30 1349 H 136.984 -1.98672 -3.71628 0
M  V30 1350 H 135.708 -0.883545 -3.14422 0
M  V30 1351 H 134.367 -2.8463 -2.31044 0
M  V30 1352 H 134.015 -1.97239 -4.62715 0
M  V30 1353 H 133.715 -3.72642 -4.54326 0
M  V30 1354 H 135.239 -3.11803 -5.24987 0
M  V30 1355 H 136.653 -4.55054 -3.4871 0
M  V30 1356 H 135.05 -5.18722 -3.0174 0
M  V30 1357 H 136.12 -4.51229 -1.7754 0
M  V30 1358 N 137.463 0.71206 -1.40597 0
M  V30 1359 C 138.688 1.50617 -1.42581 0
M  V30 1360 C 139.113 1.88079 -0.0282102 0
M  V30 1361 O 138.471 1.53511 0.964579 0
M  V30 1362 C 138.519 2.7557 -2.3258 0
M  V30 1363 O 137.623 3.72414 -1.77148 0
M  V30 1364 H 136.964 0.453966 -0.484573 0
M  V30 1365 H 139.494 0.876649 -1.84868 0
M  V30 1366 H 139.504 3.2406 -2.47889 0
M  V30 1367 H 138.179 2.47639 -3.34138 0
M  V30 1368 H 136.756 3.31276 -1.71204 0
M  V30 1369 N 138.941 1.26152 0.944643 0
M  V30 1370 C 140.166 1.14363 1.7302 0
M  V30 1371 C 140.591 -0.29772 1.85729 0
M  V30 1372 O 139.949 -1.2157 1.34501 0
M  V30 1373 C 139.997 1.81378 3.11664 0
M  V30 1374 O 139.101 1.10022 3.97453 0
M  V30 1375 H 138.442 0.398694 0.53098 0
M  V30 1376 H 140.972 1.66906 1.18337 0
M  V30 1377 H 140.982 1.88064 3.62072 0
M  V30 1378 H 139.657 2.86237 3.0173 0
M  V30 1379 H 138.234 1.11287 3.55907 0
M  V30 1380 N 140.419 -1.14872 1.07899 0
M  V30 1381 C 141.644 -1.90202 0.826926 0
M  V30 1382 C 142.069 -1.77774 -0.614664 0
M  V30 1383 O 141.427 -1.11431 -1.43013 0
M  V30 1384 C 141.475 -3.38352 1.24702 0
M  V30 1385 O 140.579 -4.10497 0.39575 0
M  V30 1386 H 139.92 -0.591968 0.300782 0
M  V30 1387 H 142.45 -1.45437 1.43907 0
M  V30 1388 H 142.46 -3.89156 1.22563 0
M  V30 1389 H 141.135 -3.46715 2.29698 0
M  V30 1390 H 139.712 -3.69796 0.480117 0
M  V30 1391 N 141.898 -0.863906 -1.31812 0
M  V30 1392 C 143.144 -0.472535 -1.97218 0
M  V30 1393 C 143.477 0.971394 -1.68159 0
M  V30 1394 O 142.752 1.68309 -0.974798 0
M  V30 1395 C 143.035 -0.723054 -3.52766 0
M  V30 1396 C 142.888 -2.21608 -3.91421 0
M  V30 1397 C 144.207 -0.185522 -4.39709 0
M  V30 1398 H 141.326 -0.173158 -0.71637 0
M  V30 1399 H 143.968 -1.08403 -1.56041 0
M  V30 1400 H 142.118 -0.202577 -3.87971 0
M  V30 1401 H 143.79 -2.80334 -3.66347 0
M  V30 1402 H 142.033 -2.691 -3.40246 0
M  V30 1403 H 142.704 -2.34203 -4.99853 0
M  V30 1404 H 145.18 -0.630726 -4.11292 0
M  V30 1405 H 144.056 -0.390306 -5.47511 0
M  V30 1406 H 144.317 0.912229 -4.32586 0
M  V30 1407 N 143.376 1.44774 -0.622745 0
M  V30 1408 C 144.787 1.85546 -0.207226 0
M  V30 1409 C 145.138 1.52093 1.23944 0
M  V30 1410 O 144.263 0.95492 1.94191 0
M  V30 1411 C 144.858 3.36781 -0.369313 0
M  V30 1412 C 143.417 3.76399 -0.00836847 0
M  V30 1413 C 142.564 2.68664 -0.686651 0
M  V30 1414 H 145.515 1.3536 -0.828454 0
M  V30 1415 H 145.536 3.78453 0.394162 0
M  V30 1416 H 145.048 3.61098 -1.42231 0
M  V30 1417 H 143.149 3.57698 1.04322 0
M  V30 1418 H 143.262 4.7732 -0.412584 0
M  V30 1419 H 141.626 2.54404 -0.122777 0
M  V30 1420 H 142.409 2.95815 -1.74208 0
M  V30 1421 N 144.854 0.36279 1.53368 0
M  V30 1422 C 146.079 -0.231226 2.06107 0
M  V30 1423 C 146.504 -1.419 1.23474 0
M  V30 1424 O 145.862 -1.79524 0.253128 0
M  V30 1425 C 145.91 -0.605523 3.5548 0
M  V30 1426 O 145.014 -1.70312 3.7559 0
M  V30 1427 H 144.355 -0.034327 0.663112 0
M  V30 1428 H 146.885 0.522584 1.97814 0
M  V30 1429 H 146.895 -0.877314 3.98456 0
M  V30 1430 H 145.57 0.263004 4.15068 0
M  V30 1431 H 144.147 -1.4271 3.44512 0
M  V30 1432 N 146.332 -1.57332 0.0918853 0
M  V30 1433 C 147.264 -2.10869 -0.898168 0
M  V30 1434 C 148.277 -1.04521 -1.24817 0
M  V30 1435 O 149.466 -1.31977 -1.20184 0
M  V30 1436 C 146.566 -2.57083 -2.2082 0
M  V30 1437 C 145.739 -3.87229 -2.03402 0
M  V30 1438 C 144.798 -4.19324 -3.17889 0
M  V30 1439 O 143.824 -4.88598 -2.91994 0
M  V30 1440 N 145.026 -3.74471 -4.43567 0
M  V30 1441 H 147.791 -2.96439 -0.440943 0
M  V30 1442 H 145.352 -1.61631 -0.0933064 0
M  V30 1443 H 147.344 -2.75602 -2.96354 0
M  V30 1444 H 145.914 -1.76541 -2.57977 0
M  V30 1445 H 145.134 -3.7789 -1.12218 0
M  V30 1446 H 146.422 -4.72379 -1.89038 0
M  V30 1447 H 145.82 -3.18546 -4.67488 0
M  V30 1448 H 144.377 -3.98151 -5.16061 0
M  V30 1449 N 147.81 0.181792 -1.56548 0
M  V30 1450 C 148.757 1.22521 -1.95595 0
M  V30 1451 C 149.727 1.4454 -0.818373 0
M  V30 1452 O 150.912 1.57454 -1.07763 0
M  V30 1453 C 148.052 2.56193 -2.31212 0
M  V30 1454 C 147.165 2.41641 -3.58097 0
M  V30 1455 C 146.3 3.68108 -3.82975 0
M  V30 1456 C 145.339 3.48445 -5.03242 0
M  V30 1457 N 144.476 4.66956 -5.24306 0
M  V30 1458 H 149.316 0.885226 -2.84548 0
M  V30 1459 H 146.853 0.425718 -1.40805 0
M  V30 1460 H 148.811 3.34088 -2.49882 0
M  V30 1461 H 147.441 2.88208 -1.45382 0
M  V30 1462 H 146.493 1.54976 -3.474 0
M  V30 1463 H 147.805 2.23052 -4.46149 0
M  V30 1464 H 146.959 4.54441 -4.01956 0
M  V30 1465 H 145.698 3.89666 -2.93278 0
M  V30 1466 H 144.703 2.60499 -4.8417 0
M  V30 1467 H 145.928 3.2832 -5.9446 0
M  V30 1468 H 143.874 4.88752 -4.37559 0
M  V30 1469 H 143.791 4.51242 -6.06561 0
M  V30 1470 H 145.059 5.54602 -5.47756 0
M  V30 1471 N 149.288 1.51039 0.449983 0
M  V30 1472 C 150.516 1.66869 1.2232 0
M  V30 1473 C 150.931 0.360727 1.85322 0
M  V30 1474 O 150.288 -0.659531 1.70166 0
M  V30 1475 C 150.339 2.77524 2.31652 0
M  V30 1476 O 150.06 4.03252 1.7123 0
M  V30 1477 C 151.561 3.04512 3.2216 0
M  V30 1478 H 148.781 0.560326 0.369155 0
M  V30 1479 H 151.325 1.97385 0.534719 0
M  V30 1480 H 149.48 2.49642 2.96239 0
M  V30 1481 H 149.894 4.64609 2.43389 0
M  V30 1482 H 151.368 3.85551 3.95038 0
M  V30 1483 H 151.845 2.16415 3.8218 0
M  V30 1484 H 152.451 3.34005 2.63288 0
M  V30 1485 N 150.766 -0.704594 1.40972 0
M  V30 1486 C 151.996 -1.49138 1.42974 0
M  V30 1487 C 152.404 -1.89175 0.0308406 0
M  V30 1488 O 151.747 -1.56734 -0.958138 0
M  V30 1489 C 151.809 -2.79016 2.26694 0
M  V30 1490 C 151.473 -2.61236 3.74973 0
M  V30 1491 C 152.47 -2.27773 4.67349 0
M  V30 1492 C 150.155 -2.77158 4.18914 0
M  V30 1493 C 152.149 -2.10457 6.01653 0
M  V30 1494 C 149.836 -2.59459 5.53285 0
M  V30 1495 C 150.834 -2.26158 6.4447 0
M  V30 1496 O 150.522 -2.08605 7.76363 0
M  V30 1497 H 150.254 -0.466443 0.489292 0
M  V30 1498 H 152.808 -0.8758 1.85793 0
M  V30 1499 H 151.038 -3.42947 1.78673 0
M  V30 1500 H 152.727 -3.40782 2.20504 0
M  V30 1501 H 153.493 -2.15095 4.34694 0
M  V30 1502 H 149.372 -3.02064 3.48251 0
M  V30 1503 H 152.916 -1.84387 6.72791 0
M  V30 1504 H 148.813 -2.71725 5.85522 0
M  V30 1505 H 149.581 -2.23439 7.87412 0
M  V30 1506 N 152.244 -1.26651 -0.937939 0
M  V30 1507 C 153.176 -1.04283 -2.04102 0
M  V30 1508 C 154.189 -0.00221014 -1.628 0
M  V30 1509 O 155.378 -0.242645 -1.76843 0
M  V30 1510 C 152.478 -0.557846 -3.34277 0
M  V30 1511 C 151.651 -1.66843 -4.04329 0
M  V30 1512 C 150.71 -1.18095 -5.12777 0
M  V30 1513 O 149.736 -1.87865 -5.37304 0
M  V30 1514 N 150.938 -0.0311006 -5.80492 0
M  V30 1515 H 153.703 -1.9927 -2.23856 0
M  V30 1516 H 151.264 -1.1808 -1.10764 0
M  V30 1517 H 153.256 -0.215836 -4.04124 0
M  V30 1518 H 151.826 0.298523 -3.11171 0
M  V30 1519 H 151.046 -2.18123 -3.28353 0
M  V30 1520 H 152.334 -2.41408 -4.47883 0
M  V30 1521 H 151.732 0.551486 -5.63005 0
M  V30 1522 H 150.289 0.251809 -6.51313 0
M  V30 1523 N 153.722 1.14298 -1.08507 0
M  V30 1524 C 154.97 1.84993 -0.813763 0
M  V30 1525 C 155.291 1.83405 0.662393 0
M  V30 1526 O 154.561 1.28319 1.48024 0
M  V30 1527 H 153.141 0.684966 -0.298045 0
M  V30 1528 H 155.803 1.385 -1.37126 0
M  V30 1529 H 154.899 2.89788 -1.15884 0
M  V30 1530 N 155.201 0.870884 1.31352 0
M  V30 1531 C 156.426 0.495957 2.01383 0
M  V30 1532 C 156.851 -0.904324 1.64935 0
M  V30 1533 O 156.209 -1.59687 0.858466 0
M  V30 1534 C 156.257 0.661433 3.54482 0
M  V30 1535 O 155.361 -0.298851 4.11316 0
M  V30 1536 H 154.702 0.197158 0.634054 0
M  V30 1537 H 157.232 1.17455 1.67527 0
M  V30 1538 H 157.242 0.555072 4.04207 0
M  V30 1539 H 155.917 1.68246 3.8035 0
M  V30 1540 H 154.494 -0.147368 3.72609 0
M  V30 1541 N 156.679 -1.44442 0.630414 0
M  V30 1542 C 157.909 -2.06115 0.141465 0
M  V30 1543 C 158.317 -1.47179 -1.1889 0
M  V30 1544 O 157.66 -0.588873 -1.74006 0
M  V30 1545 C 157.722 -3.59467 -0.0484355 0
M  V30 1546 C 157.386 -4.40864 1.20366 0
M  V30 1547 C 158.383 -4.74391 2.12719 0
M  V30 1548 C 156.068 -4.8125 1.43887 0
M  V30 1549 C 158.062 -5.47186 3.26904 0
M  V30 1550 C 155.749 -5.53795 2.5837 0
M  V30 1551 C 156.747 -5.86682 3.49705 0
M  V30 1552 O 156.435 -6.57749 4.62191 0
M  V30 1553 H 156.167 -0.671648 0.0765792 0
M  V30 1554 H 158.721 -1.86312 0.864695 0
M  V30 1555 H 156.951 -3.77758 -0.826803 0
M  V30 1556 H 158.64 -4.02909 -0.491849 0
M  V30 1557 H 159.406 -4.43728 1.95781 0
M  V30 1558 H 155.285 -4.55073 0.736853 0
M  V30 1559 H 158.829 -5.72773 3.98217 0
M  V30 1560 H 154.726 -5.83872 2.75251 0
M  V30 1561 H 155.494 -6.76217 4.61164 0
M  V30 1562 N 158.157 -0.370918 -1.53173 0
M  V30 1563 C 159.405 0.216673 -2.00935 0
M  V30 1564 C 159.726 1.48845 -1.25977 0
M  V30 1565 O 158.996 1.92286 -0.374551 0
M  V30 1566 H 157.576 0.0830565 -0.742368 0
M  V30 1567 H 160.238 -0.49838 -1.8842 0
M  V30 1568 H 159.334 0.439893 -3.08984 0
M  V30 1569 N 159.635 1.57281 -0.100228 0
M  V30 1570 C 160.882 1.94537 0.562268 0
M  V30 1571 C 161.21 0.982315 1.67871 0
M  V30 1572 O 160.465 0.00280936 1.957 0
M  V30 1573 C 160.764 3.38305 1.15259 0
M  V30 1574 C 160.43 4.50618 0.159409 0
M  V30 1575 C 159.092 4.81066 -0.113741 0
M  V30 1576 C 161.444 5.18615 -0.518461 0
M  V30 1577 C 158.772 5.76835 -1.07137 0
M  V30 1578 C 161.124 6.15412 -1.46459 0
M  V30 1579 C 159.788 6.44262 -1.74592 0
M  V30 1580 H 159.058 0.711863 0.205748 0
M  V30 1581 H 161.705 1.90679 -0.17715 0
M  V30 1582 H 160.01 3.38766 1.96836 0
M  V30 1583 H 161.707 3.64435 1.67297 0
M  V30 1584 H 158.297 4.2689 0.382491 0
M  V30 1585 H 162.481 4.95264 -0.320581 0
M  V30 1586 H 157.737 5.975 -1.29628 0
M  V30 1587 H 161.911 6.67194 -1.99564 0
M  V30 1588 H 159.538 7.1828 -2.48953 0
M  V30 1589 N 161.113 -0.173488 1.56642 0
M  V30 1590 C 162.529 -0.525174 1.50712 0
M  V30 1591 C 162.729 -1.8476 0.804107 0
M  V30 1592 O 161.785 -2.49869 0.363574 0
M  V30 1593 C 163.098 -0.559937 2.95441 0
M  V30 1594 C 164.646 -0.647288 3.06234 0
M  V30 1595 C 165.121 -0.712963 4.52417 0
M  V30 1596 N 166.612 -0.775911 4.56655 0
M  V30 1597 C 167.347 -0.847264 5.67106 0
M  V30 1598 N 166.843 -0.879585 6.87194 0
M  V30 1599 N 168.636 -0.886117 5.55071 0
M  V30 1600 H 160.787 0.693681 2.00753 0
M  V30 1601 H 163.05 0.249841 0.914485 0
M  V30 1602 H 162.756 0.343049 3.50023 0
M  V30 1603 H 162.63 -1.40718 3.49969 0
M  V30 1604 H 165.017 -1.5407 2.51687 0
M  V30 1605 H 165.098 0.226586 2.54794 0
M  V30 1606 H 164.742 0.176183 5.07594 0
M  V30 1607 H 164.672 -1.60295 5.0161 0
M  V30 1608 H 167.163 -0.759304 3.70193 0
M  V30 1609 H 167.476 -0.935144 7.67121 0
M  V30 1610 H 165.821 -0.847898 6.89808 0
M  V30 1611 H 169.012 -0.857853 4.60172 0
M  V30 1612 H 169.185 -0.938263 6.41171 0
M  V30 1613 N 162.591 -1.51276 -0.441967 0
M  V30 1614 C 163.521 -1.752 -1.54361 0
M  V30 1615 C 164.502 -0.601682 -1.59103 0
M  V30 1616 O 165.687 -0.843913 -1.74905 0
M  V30 1617 C 162.817 -1.87282 -2.92477 0
M  V30 1618 C 161.771 -3.02687 -3.02596 0
M  V30 1619 C 161.097 -2.99947 -4.42647 0
M  V30 1620 C 162.397 -4.4273 -2.77106 0
M  V30 1621 H 164.091 -2.67442 -1.34592 0
M  V30 1622 H 161.637 -1.28694 -0.646048 0
M  V30 1623 H 163.59 -2.02602 -3.695 0
M  V30 1624 H 162.314 -0.916844 -3.13467 0
M  V30 1625 H 160.973 -2.87065 -2.28012 0
M  V30 1626 H 160.621 -2.02136 -4.60597 0
M  V30 1627 H 160.321 -3.77439 -4.50348 0
M  V30 1628 H 161.845 -3.17354 -5.2165 0
M  V30 1629 H 163.259 -4.58727 -3.43864 0
M  V30 1630 H 161.656 -5.21893 -2.96222 0
M  V30 1631 H 162.726 -4.53087 -1.72744 0
M  V30 1632 N 164.069 0.697108 -1.41344 0
M  V30 1633 C 165.317 1.45426 -1.40341 0
M  V30 1634 C 165.638 1.94996 -0.0128787 0
M  V30 1635 O 164.908 1.71599 0.945027 0
M  V30 1636 H 163.488 0.539594 -0.516573 0
M  V30 1637 H 166.15 0.825201 -1.76569 0
M  V30 1638 H 165.246 2.31817 -2.08967 0
M  V30 1639 N 165.547 1.27147 0.931209 0
M  V30 1640 C 166.794 1.13278 1.67852 0
M  V30 1641 C 167.122 -0.32204 1.91815 0
M  V30 1642 O 166.377 -1.25224 1.50391 0
M  V30 1643 C 166.676 1.8579 3.05314 0
M  V30 1644 C 166.342 3.35657 3.01073 0
M  V30 1645 C 165.004 3.76536 2.99623 0
M  V30 1646 C 167.356 4.31299 2.92627 0
M  V30 1647 C 164.684 5.11426 2.87506 0
M  V30 1648 C 167.036 5.66242 2.82051 0
M  V30 1649 C 165.7 6.06418 2.7895 0
M  V30 1650 H 164.97 0.414515 0.614214 0
M  V30 1651 H 167.617 1.57712 1.08624 0
M  V30 1652 H 165.922 1.33854 3.68226 0
M  V30 1653 H 167.619 1.72491 3.62005 0
M  V30 1654 H 164.209 3.03146 3.02986 0
M  V30 1655 H 168.393 4.00692 2.92848 0
M  V30 1656 H 163.649 5.41705 2.83489 0
M  V30 1657 H 167.823 6.40026 2.74481 0
M  V30 1658 H 165.45 7.10895 2.69318 0
M  V30 1659 N 167.025 -1.13721 1.09112 0
M  V30 1660 C 167.955 -2.21148 0.749385 0
M  V30 1661 C 168.936 -1.6792 -0.271475 0
M  V30 1662 O 170.121 -1.93693 -0.140251 0
M  V30 1663 C 167.251 -3.46905 0.165659 0
M  V30 1664 C 166.205 -4.13203 1.11567 0
M  V30 1665 C 165.531 -5.33248 0.393809 0
M  V30 1666 C 166.831 -4.60912 2.45678 0
M  V30 1667 H 168.525 -2.4999 1.64758 0
M  V30 1668 H 166.071 -1.20156 0.793626 0
M  V30 1669 H 168.024 -4.21313 -0.085466 0
M  V30 1670 H 166.748 -3.17449 -0.767714 0
M  V30 1671 H 165.407 -3.40758 1.35202 0
M  V30 1672 H 165.055 -5.00054 -0.543599 0
M  V30 1673 H 164.755 -5.78552 1.02721 0
M  V30 1674 H 166.279 -6.10413 0.150908 0
M  V30 1675 H 167.693 -5.26759 2.26269 0
M  V30 1676 H 166.09 -5.16944 3.04776 0
M  V30 1677 H 167.16 -3.75603 3.06677 0
M  V30 1678 N 168.503 -0.877838 -1.30888 0
M  V30 1679 C 169.453 -0.310872 -2.25871 0
M  V30 1680 C 170.437 0.556596 -1.50966 0
M  V30 1681 O 171.629 0.402187 -1.7237 0
M  V30 1682 C 168.758 0.479821 -3.3993 0
M  V30 1683 C 167.844 -0.401333 -4.22197 0
M  V30 1684 N 168.235 -1.49848 -4.83093 0
M  V30 1685 C 166.533 -0.195167 -4.45573 0
M  V30 1686 C 167.234 -2.0425 -5.44662 0
M  V30 1687 N 166.21 -1.33843 -5.26865 0
M  V30 1688 H 170.012 -1.1493 -2.70496 0
M  V30 1689 H 167.526 -0.726458 -1.45246 0
M  V30 1690 H 169.523 0.902582 -4.07012 0
M  V30 1691 H 168.183 1.31577 -2.96846 0
M  V30 1692 H 169.194 -1.88137 -4.82519 0
M  V30 1693 H 165.871 0.604192 -4.13105 0
M  V30 1694 H 167.261 -2.96345 -6.03017 0
M  V30 1695 N 169.982 1.44106 -0.638065 0
M  V30 1696 C 171.207 2.0685 -0.150916 0
M  V30 1697 C 171.632 1.47417 1.16833 0
M  V30 1698 O 170.99 0.578264 1.71831 0
M  V30 1699 C 171.038 3.60555 -0.05708 0
M  V30 1700 O 170.142 4.00465 0.984972 0
M  V30 1701 H 169.483 0.658151 -0.0879399 0
M  V30 1702 H 172.013 1.84865 -0.876707 0
M  V30 1703 H 172.023 4.07789 0.131232 0
M  V30 1704 H 170.698 4.03193 -1.02021 0
M  V30 1705 H 169.275 3.64849 0.770672 0
M  V30 1706 N 171.46 0.379036 1.52974 0
M  V30 1707 C 172.708 -0.206014 2.01047 0
M  V30 1708 C 173.029 -1.48175 1.26765 0
M  V30 1709 O 172.299 -1.92085 0.384743 0
M  V30 1710 H 170.879 -0.0791184 0.742798 0
M  V30 1711 H 173.541 0.508366 1.88153 0
M  V30 1712 H 172.637 -0.423501 3.09213 0
M  V30 1713 N 172.938 -1.57226 0.108567 0
M  V30 1714 C 174.166 -1.99179 -0.559954 0
M  V30 1715 C 174.581 -0.988022 -1.60884 0
M  V30 1716 O 173.938 0.0205512 -1.82488 0
M  V30 1717 C 173.989 -3.41159 -1.19552 0
M  V30 1718 O 173.71 -4.37694 -0.188577 0
M  V30 1719 C 175.211 -3.98188 -1.94837 0
M  V30 1720 H 172.431 -0.654228 -0.149088 0
M  V30 1721 H 174.975 -2.03598 0.19183 0
M  V30 1722 H 173.13 -3.37711 -1.89815 0
M  V30 1723 H 173.544 -5.20469 -0.649014 0
M  V30 1724 H 175.018 -4.99644 -2.34648 0
M  V30 1725 H 175.495 -3.3675 -2.81951 0
M  V30 1726 H 176.101 -4.0515 -1.2936 0
M  V30 1727 N 174.416 0.165178 -1.56732 0
M  V30 1728 C 175.379 1.18822 -1.95995 0
M  V30 1729 C 176.379 1.3685 -0.84431 0
M  V30 1730 O 177.569 1.34152 -1.11126 0
M  V30 1731 C 174.701 2.5521 -2.26011 0
M  V30 1732 H 175.894 0.851825 -2.87548 0
M  V30 1733 H 173.447 0.407857 -1.50885 0
M  V30 1734 H 174.182 2.93852 -1.37191 0
M  V30 1735 H 173.967 2.43489 -3.07336 0
M  V30 1736 H 175.457 3.28927 -2.57288 0
M  V30 1737 N 175.894 1.51508 0.433938 0
M  V30 1738 C 176.841 1.73068 1.52696 0
M  V30 1739 C 177.811 0.572441 1.55924 0
M  V30 1740 O 178.996 0.807253 1.72882 0
M  V30 1741 C 176.136 1.86474 2.90381 0
M  V30 1742 C 175.249 3.14037 2.96656 0
M  V30 1743 C 174.384 3.18019 4.25485 0
M  V30 1744 C 173.423 4.39882 4.2564 0
M  V30 1745 N 172.56 4.41394 5.45999 0
M  V30 1746 H 177.4 2.66366 1.33615 0
M  V30 1747 H 174.937 1.32008 0.649018 0
M  V30 1748 H 176.895 1.92229 3.70275 0
M  V30 1749 H 175.525 0.965809 3.08013 0
M  V30 1750 H 174.577 3.17575 2.09404 0
M  V30 1751 H 175.889 4.0394 2.92633 0
M  V30 1752 H 175.043 3.22708 5.13755 0
M  V30 1753 H 173.782 2.2601 4.3217 0
M  V30 1754 H 172.787 4.35366 3.35763 0
M  V30 1755 H 174.012 5.33159 4.20617 0
M  V30 1756 H 171.958 3.52258 5.53399 0
M  V30 1757 H 171.875 5.25111 5.4387 0
M  V30 1758 H 173.143 4.50281 6.36292 0
M  V30 1759 N 177.372 -0.689602 1.41712 0
M  V30 1760 C 178.597 -1.48329 1.44959 0
M  V30 1761 C 179.022 -1.8801 0.0581283 0
M  V30 1762 O 178.38 -1.55026 -0.940035 0
M  V30 1763 C 178.428 -2.71835 2.36935 0
M  V30 1764 O 177.532 -3.69549 1.8305 0
M  V30 1765 H 176.873 -0.446199 0.491734 0
M  V30 1766 H 179.403 -0.847127 1.86239 0
M  V30 1767 H 179.413 -3.20076 2.53013 0
M  V30 1768 H 178.088 -2.42291 3.38035 0
M  V30 1769 H 176.665 -3.2851 1.76452 0
M  V30 1770 N 178.85 -1.27639 -0.924453 0
M  V30 1771 C 180.096 -1.14336 -1.67497 0
M  V30 1772 C 180.429 0.309465 -1.91718 0
M  V30 1773 O 179.704 1.22608 -1.50989 0
M  V30 1774 C 179.987 -1.93096 -3.0395 0
M  V30 1775 C 179.84 -3.46381 -2.8695 0
M  V30 1776 C 181.159 -1.73798 -4.0433 0
M  V30 1777 H 178.278 -0.416728 -0.607871 0
M  V30 1778 H 180.92 -1.56832 -1.07256 0
M  V30 1779 H 179.07 -1.56982 -3.55372 0
M  V30 1780 H 180.742 -3.92343 -2.42621 0
M  V30 1781 H 178.985 -3.72557 -2.22225 0
M  V30 1782 H 179.656 -3.96735 -3.83804 0
M  V30 1783 H 182.132 -2.05293 -3.61931 0
M  V30 1784 H 181.008 -2.31294 -4.97789 0
M  V30 1785 H 181.269 -0.686725 -4.36734 0
M  V30 1786 N 180.328 1.1314 -1.09713 0
M  V30 1787 C 181.556 1.88321 -0.856898 0
M  V30 1788 C 181.971 1.79276 0.592073 0
M  V30 1789 O 181.328 1.16142 1.40774 0
M  V30 1790 C 181.379 3.37812 -1.28706 0
M  V30 1791 O 181.1 3.46627 -2.67921 0
M  V30 1792 C 182.601 4.29952 -1.07964 0
M  V30 1793 H 179.821 0.596094 -0.308079 0
M  V30 1794 H 182.365 1.43205 -1.45988 0
M  V30 1795 H 180.52 3.805 -0.727912 0
M  V30 1796 H 180.934 4.39579 -2.8613 0
M  V30 1797 H 182.408 5.33159 -1.42986 0
M  V30 1798 H 182.885 4.39196 -0.0176577 0
M  V30 1799 H 183.491 3.93036 -1.62489 0
M  V30 1800 N 181.806 0.884767 1.30421 0
M  V30 1801 C 183.046 0.509806 1.9794 0
M  V30 1802 C 183.41 -0.923736 1.68319 0
M  V30 1803 O 184.611 -1.40481 2.29169 0
M  V30 1804 C 182.882 0.776732 3.48858 0
M  V30 1805 S 184.441 0.503843 4.35898 0
M  V30 1806 H 181.259 0.189699 0.685227 0
M  V30 1807 H 183.861 1.14399 1.58535 0
M  V30 1808 H 182.565 1.81857 3.67908 0
M  V30 1809 H 182.096 0.1301 3.93185 0
M  V30 1810 H 184.111 -0.657625 4.91823 0
M  V30 1811 N 183.284 -1.43765 0.645699 0
M  V30 1812 C 184.512 -2.06253 0.163556 0
M  V30 1813 C 184.927 -1.48352 -1.16778 0
M  V30 1814 O 184.284 -0.611932 -1.71935 0
M  V30 1815 C 184.335 -3.61453 0.0583186 0
M  V30 1816 O 184.056 -4.172 1.33702 0
M  V30 1817 C 185.557 -4.41002 -0.450795 0
M  V30 1818 H 182.777 -0.665413 0.0864077 0
M  V30 1819 H 185.321 -1.84396 0.884222 0
M  V30 1820 H 183.476 -3.82522 -0.612865 0
M  V30 1821 H 183.89 -5.10791 1.19131 0
M  V30 1822 H 185.364 -5.49966 -0.473403 0
M  V30 1823 H 185.841 -4.13488 -1.48068 0
M  V30 1824 H 186.447 -4.24886 0.187637 0
M  V30 1825 N 184.763 -0.387143 -1.52771 0
M  V30 1826 C 185.993 0.195585 -2.05672 0
M  V30 1827 C 186.401 1.41241 -1.25887 0
M  V30 1828 O 185.744 1.81265 -0.298081 0
M  V30 1829 C 185.806 0.632327 -3.53895 0
M  V30 1830 C 185.47 -0.470739 -4.54569 0
M  V30 1831 C 186.467 -1.32746 -5.02667 0
M  V30 1832 C 184.152 -0.637151 -4.98243 0
M  V30 1833 C 186.146 -2.33574 -5.93061 0
M  V30 1834 C 183.833 -1.64877 -5.88438 0
M  V30 1835 C 184.831 -2.49649 -6.35739 0
M  V30 1836 O 184.519 -3.49082 -7.24153 0
M  V30 1837 H 184.251 0.033658 -0.675162 0
M  V30 1838 H 186.805 -0.550221 -1.97893 0
M  V30 1839 H 185.035 1.43008 -3.59285 0
M  V30 1840 H 186.724 1.14048 -3.89548 0
M  V30 1841 H 187.49 -1.21019 -4.69659 0
M  V30 1842 H 183.369 0.0129567 -4.60998 0
M  V30 1843 H 186.913 -2.99777 -6.29904 0
M  V30 1844 H 182.81 -1.76643 -6.2086 0
M  V30 1845 H 183.578 -3.45065 -7.42208 0
M  V30 1846 N 186.241 1.57166 -0.116904 0
M  V30 1847 C 187.466 1.999 0.55271 0
M  V30 1848 C 187.891 0.996039 1.59564 0
M  V30 1849 O 187.249 -0.032556 1.81271 0
M  V30 1850 C 187.297 3.4152 1.15742 0
M  V30 1851 O 186.401 3.44106 2.27299 0
M  V30 1852 H 185.742 0.649447 0.138258 0
M  V30 1853 H 188.272 2.03573 -0.204759 0
M  V30 1854 H 188.282 3.79684 1.49346 0
M  V30 1855 H 186.957 4.14034 0.393493 0
M  V30 1856 H 185.534 3.17759 1.9515 0
M  V30 1857 N 187.719 -0.156864 1.56817 0
M  V30 1858 C 189.13 -0.717916 1.72345 0
M  V30 1859 C 189.481 -1.82124 0.729747 0
M  V30 1860 O 188.606 -2.16141 -0.105781 0
M  V30 1861 C 189.201 -1.30904 3.12489 0
M  V30 1862 C 187.76 -1.81676 3.29653 0
M  V30 1863 C 186.907 -0.701349 2.68284 0
M  V30 1864 H 189.858 0.0686989 1.58551 0
M  V30 1865 H 189.879 -2.17882 3.11942 0
M  V30 1866 H 189.391 -0.505796 3.8479 0
M  V30 1867 H 187.492 -2.64598 2.62333 0
M  V30 1868 H 187.605 -1.95226 4.3752 0
M  V30 1869 H 185.969 -1.12548 2.28484 0
M  V30 1870 H 186.752 0.0902846 3.43181 0
M  V30 1871 N 189.197 -1.51736 -0.425897 0
M  V30 1872 C 190.16 -1.73271 -1.50032 0
M  V30 1873 C 191.16 -0.602639 -1.4908 0
M  V30 1874 O 192.35 -0.87033 -1.509 0
M  V30 1875 C 189.482 -1.79969 -2.89523 0
M  V30 1876 H 190.675 -2.69172 -1.32237 0
M  V30 1877 H 188.228 -1.41899 -0.65532 0
M  V30 1878 H 188.963 -0.859241 -3.1271 0
M  V30 1879 H 188.748 -2.62109 -2.91619 0
M  V30 1880 H 190.238 -1.9843 -3.67444 0
M  V30 1881 N 190.675 0.682077 -1.42076 0
M  V30 1882 C 191.605 1.80796 -1.47767 0
M  V30 1883 C 192.586 1.6677 -0.334954 0
M  V30 1884 O 193.771 1.863 -0.548264 0
M  V30 1885 C 190.901 3.19038 -1.37229 0
M  V30 1886 C 189.855 3.47789 -2.49453 0
M  V30 1887 C 189.181 4.8553 -2.23975 0
M  V30 1888 C 190.481 3.45411 -3.91776 0
M  V30 1889 H 192.175 1.7629 -2.41997 0
M  V30 1890 H 189.721 0.846721 -1.16476 0
M  V30 1891 H 191.674 3.97528 -1.39821 0
M  V30 1892 H 190.398 3.24204 -0.394907 0
M  V30 1893 H 189.057 2.71657 -2.46166 0
M  V30 1894 H 188.705 4.87337 -1.24547 0
M  V30 1895 H 188.405 5.0573 -2.99184 0
M  V30 1896 H 189.929 5.66312 -2.28304 0
M  V30 1897 H 191.343 4.13882 -3.96705 0
M  V30 1898 H 189.74 3.77145 -4.66778 0
M  V30 1899 H 190.81 2.44122 -4.18966 0
M  V30 1900 N 192.153 1.28127 0.917671 0
M  V30 1901 C 193.101 1.11569 2.04096 0
M  V30 1902 C 194.095 0.0360242 1.69362 0
M  V30 1903 O 195.301 0.194501 1.78946 0
M  V30 1904 H 191.676 0.344097 0.668656 0
M  V30 1905 H 193.647 2.06711 2.15205 0
M  V30 1906 C 192.396 0.790197 3.38602 0
M  V30 1907 H 191.719 1.61293 3.6582 0
M  V30 1908 H 193.159 0.714271 4.1794 0
M  V30 1909 C 191.618 -0.505897 3.3308 0
M  V30 1910 O 192.148 -1.53736 3.71117 0
M  V30 1911 N 190.354 -0.505193 2.86175 0
M  V30 1912 H 189.901 0.334621 2.55417 0
M  V30 1913 H 189.859 -1.37243 2.82863 0
M  V30 1914 N 193.631 -1.12557 1.10312 0
M  V30 1915 C 194.578 -2.18247 0.750781 0
M  V30 1916 C 195.548 -1.63853 -0.272293 0
M  V30 1917 O 196.733 -1.90195 -0.151862 0
M  V30 1918 C 193.873 -3.44591 0.187379 0
M  V30 1919 C 192.986 -4.13046 1.2656 0
M  V30 1920 C 192.121 -5.27034 0.663978 0
M  V30 1921 C 191.16 -5.87353 1.72287 0
M  V30 1922 N 190.297 -6.92757 1.1416 0
M  V30 1923 H 195.137 -2.47732 1.65628 0
M  V30 1924 H 192.674 -1.21629 0.827337 0
M  V30 1925 H 194.632 -4.16904 -0.157148 0
M  V30 1926 H 193.262 -3.15527 -0.681355 0
M  V30 1927 H 192.314 -3.38924 1.72727 0
M  V30 1928 H 193.626 -4.53947 2.06721 0
M  V30 1929 H 192.78 -6.06104 0.268824 0
M  V30 1930 H 191.519 -4.87407 -0.169082 0
M  V30 1931 H 190.524 -5.06971 2.12746 0
M  V30 1932 H 191.749 -6.29051 2.55875 0
M  V30 1933 H 189.695 -6.5517 0.329984 0
M  V30 1934 H 189.612 -7.3225 1.88007 0
M  V30 1935 H 190.88 -7.75658 0.772956 0
M  V30 1936 N 195.109 -0.891671 -1.2995 0
M  V30 1937 C 196.042 -0.307994 -2.26112 0
M  V30 1938 C 197.02 0.575262 -1.52084 0
M  V30 1939 O 198.204 0.523864 -1.81074 0
M  V30 1940 C 195.331 0.561734 -3.34009 0
M  V30 1941 C 194.377 -0.253107 -4.25748 0
M  V30 1942 S 195.21 -1.64572 -5.09584 0
M  V30 1943 C 196.366 -0.782699 -6.20987 0
M  V30 1944 H 196.599 -1.12309 -2.75271 0
M  V30 1945 H 194.132 -0.691509 -1.38049 0
M  V30 1946 H 196.09 1.05777 -3.96638 0
M  V30 1947 H 194.751 1.35099 -2.83561 0
M  V30 1948 H 193.944 0.410908 -5.02322 0
M  V30 1949 H 193.546 -0.682004 -3.67729 0
M  V30 1950 H 195.838 -0.00257476 -6.775 0
M  V30 1951 H 196.781 -1.52026 -6.91588 0
M  V30 1952 H 197.189 -0.340638 -5.63471 0
M  V30 1953 N 196.587 1.43421 -0.653314 0
M  V30 1954 C 197.834 2.01812 -0.166745 0
M  V30 1955 C 198.162 1.51535 1.21931 0
M  V30 1956 O 197.417 0.698975 1.82792 0
M  V30 1957 C 197.716 3.57176 -0.126623 0
M  V30 1958 C 197.382 4.26798 -1.45444 0
M  V30 1959 C 196.044 4.45534 -1.81805 0
M  V30 1960 C 198.396 4.66225 -2.32989 0
M  V30 1961 C 195.724 5.00961 -3.05377 0
M  V30 1962 C 198.076 5.23021 -3.55853 0
M  V30 1963 C 196.74 5.39973 -3.9241 0
M  V30 1964 H 196.01 0.738484 -0.0610162 0
M  V30 1965 H 198.657 1.71896 -0.84404 0
M  V30 1966 H 196.962 3.86634 0.634123 0
M  V30 1967 H 198.659 4.00112 0.266723 0
M  V30 1968 H 195.249 4.12561 -1.16153 0
M  V30 1969 H 199.433 4.51443 -2.06187 0
M  V30 1970 H 194.689 5.12271 -3.3375 0
M  V30 1971 H 198.863 5.52518 -4.23907 0
M  V30 1972 H 196.49 5.82687 -4.88242 0
M  V30 1973 N 198.065 0.39524 1.52563 0
M  V30 1974 C 199.305 -0.184744 2.03563 0
M  V30 1975 C 199.669 -1.43548 1.27507 0
M  V30 1976 O 200.87 -2.093 1.68662 0
M  V30 1977 C 199.141 -0.440294 3.54678 0
M  V30 1978 S 200.7 -0.989712 4.27493 0
M  V30 1979 H 197.518 -0.0515075 0.709132 0
M  V30 1980 H 200.12 0.544957 1.87751 0
M  V30 1981 H 198.824 0.477005 4.07618 0
M  V30 1982 H 198.355 -1.19825 3.74707 0
M  V30 1983 H 200.37 -2.27155 4.41152 0
M  V30 1984 N 199.544 -1.57102 0.125237 0
M  V30 1985 C 200.476 -2.12726 -0.853237 0
M  V30 1986 C 201.489 -1.07145 -1.22571 0
M  V30 1987 O 202.678 -1.34497 -1.17358 0
M  V30 1988 C 199.778 -2.61709 -2.15317 0
M  V30 1989 C 198.951 -3.91456 -1.95143 0
M  V30 1990 C 198.01 -4.25973 -3.08923 0
M  V30 1991 O 197.036 -4.94682 -2.81564 0
M  V30 1992 N 198.238 -3.83795 -4.35524 0
M  V30 1993 H 201.003 -2.97307 -0.377964 0
M  V30 1994 H 198.564 -1.61792 -0.0590011 0
M  V30 1995 H 200.556 -2.81826 -2.90441 0
M  V30 1996 H 199.126 -1.81974 -2.54174 0
M  V30 1997 H 198.346 -3.80185 -1.04177 0
M  V30 1998 H 199.634 -4.76283 -1.78976 0
M  V30 1999 H 199.032 -3.2839 -4.60626 0
M  V30 2000 H 197.589 -4.09008 -5.07499 0
M  V30 2001 N 201.022 0.148545 -1.56898 0
M  V30 2002 C 201.952 1.18524 -2.01182 0
M  V30 2003 C 202.933 1.4489 -0.891123 0
M  V30 2004 O 204.118 1.55836 -1.15882 0
M  V30 2005 C 201.248 2.51879 -2.39112 0
M  V30 2006 C 200.202 2.40038 -3.54353 0
M  V30 2007 C 199.528 3.78089 -3.78091 0
M  V30 2008 C 200.828 1.88577 -4.87069 0
M  V30 2009 H 202.522 0.817029 -2.88036 0
M  V30 2010 H 200.068 0.391575 -1.38574 0
M  V30 2011 H 202.021 3.24627 -2.68692 0
M  V30 2012 H 200.745 2.90532 -1.49193 0
M  V30 2013 H 199.404 1.69742 -3.24936 0
M  V30 2014 H 199.052 4.14175 -2.85426 0
M  V30 2015 H 198.752 3.71028 -4.55645 0
M  V30 2016 H 200.276 4.52387 -4.10095 0
M  V30 2017 H 201.69 2.51117 -5.15377 0
M  V30 2018 H 200.087 1.9241 -5.68417 0
M  V30 2019 H 201.157 0.84136 -4.77545 0
M  V30 2020 N 202.5 1.5196 0.417844 0
M  V30 2021 C 203.463 1.74065 1.49111 0
M  V30 2022 C 204.463 0.610537 1.48758 0
M  V30 2023 O 205.653 0.87832 1.50437 0
M  V30 2024 C 202.785 1.81502 2.88565 0
M  V30 2025 H 203.978 2.69869 1.30807 0
M  V30 2026 H 201.531 1.42244 0.647785 0
M  V30 2027 H 202.266 0.875813 3.1225 0
M  V30 2028 H 202.051 2.63651 2.90225 0
M  V30 2029 H 203.541 2.00376 3.66387 0
M  V30 2030 N 203.978 -0.674533 1.42435 0
M  V30 2031 C 204.925 -1.78807 1.45934 0
M  V30 2032 C 205.895 -1.63157 0.311271 0
M  V30 2033 O 207.08 -1.83707 0.515383 0
M  V30 2034 C 204.22 -3.16839 1.36773 0
M  V30 2035 C 203.333 -3.43774 2.61617 0
M  V30 2036 C 202.468 -4.71536 2.44597 0
M  V30 2037 C 201.507 -4.91505 3.64814 0
M  V30 2038 N 200.644 -6.10508 3.46734 0
M  V30 2039 H 205.484 -1.75151 2.41093 0
M  V30 2040 H 203.021 -0.85504 1.19697 0
M  V30 2041 H 204.979 -3.96606 1.29459 0
M  V30 2042 H 203.609 -3.19619 0.452089 0
M  V30 2043 H 202.661 -2.58259 2.79297 0
M  V30 2044 H 203.973 -3.54423 3.50978 0
M  V30 2045 H 203.127 -5.59393 2.3487 0
M  V30 2046 H 201.866 -4.6317 1.52726 0
M  V30 2047 H 200.871 -4.0209 3.74972 0
M  V30 2048 H 202.096 -5.01716 4.57665 0
M  V30 2049 H 200.042 -6.03315 2.5758 0
M  V30 2050 H 199.959 -6.2202 4.29682 0
M  V30 2051 H 201.227 -7.01044 3.40819 0
M  V30 2052 N 205.456 -1.28612 -0.910864 0
M  V30 2053 C 206.684 -1.18792 -1.69399 0
M  V30 2054 C 207.099 0.253039 -1.87097 0
M  V30 2055 O 206.456 1.17071 -1.40003 0
M  V30 2056 C 206.507 -1.88511 -3.08457 0
M  V30 2057 O 206.228 -3.26979 -2.91576 0
M  V30 2058 C 207.729 -1.85029 -4.02839 0
M  V30 2059 H 204.949 -0.412233 -0.529438 0
M  V30 2060 H 207.493 -1.69788 -1.13984 0
M  V30 2061 H 205.648 -1.41379 -3.60681 0
M  V30 2062 H 206.062 -3.61936 -3.79608 0
M  V30 2063 H 207.536 -2.38395 -4.97867 0
M  V30 2064 H 208.013 -0.823303 -4.31414 0
M  V30 2065 H 208.619 -2.31853 -3.56545 0
M  V30 2066 N 206.934 1.1197 -1.10907 0
M  V30 2067 C 208.174 1.85224 -0.864378 0
M  V30 2068 C 208.538 1.82411 0.599178 0
M  V30 2069 O 209.739 2.51057 0.960416 0
M  V30 2070 C 208.01 3.2868 -1.40371 0
M  V30 2071 S 209.569 4.1925 -1.29518 0
M  V30 2072 H 206.387 0.63878 -0.312219 0
M  V30 2073 H 208.989 1.3485 -1.41548 0
M  V30 2074 H 207.693 3.28289 -2.46281 0
M  V30 2075 H 207.224 3.84121 -0.849402 0
M  V30 2076 H 209.239 4.95539 -0.256059 0
M  V30 2077 N 208.412 0.89855 1.29475 0
M  V30 2078 C 209.823 0.572537 1.77705 0
M  V30 2079 C 210.174 -0.911778 1.73727 0
M  V30 2080 O 209.299 -1.71288 1.32247 0
M  V30 2081 C 209.894 1.03252 3.22683 0
M  V30 2082 C 208.453 0.757687 3.68695 0
M  V30 2083 C 207.6 1.20787 2.49612 0
M  V30 2084 H 210.551 1.08139 1.16153 0
M  V30 2085 H 210.572 0.367307 3.78723 0
M  V30 2086 H 210.084 2.11285 3.25546 0
M  V30 2087 H 208.185 -0.310079 3.71308 0
M  V30 2088 H 208.298 1.35476 4.59547 0
M  V30 2089 H 206.662 0.626888 2.46865 0
M  V30 2090 H 207.445 2.29622 2.55203 0
M  V30 2091 N 209.89 -1.43072 0.660911 0
M  V30 2092 C 211.136 -2.0202 0.177708 0
M  V30 2093 C 211.469 -1.52066 -1.20787 0
M  V30 2094 O 210.744 -0.716987 -1.80802 0
M  V30 2095 C 211.027 -3.59561 0.197019 0
M  V30 2096 C 210.88 -4.19727 1.61706 0
M  V30 2097 C 212.199 -4.37664 -0.462396 0
M  V30 2098 H 209.318 -0.734034 0.0660494 0
M  V30 2099 H 211.96 -1.70272 0.843058 0
M  V30 2100 H 210.11 -3.86739 -0.369527 0
M  V30 2101 H 211.782 -4.03553 2.23479 0
M  V30 2102 H 210.025 -3.76084 2.16201 0
M  V30 2103 H 210.696 -5.28834 1.58237 0
M  V30 2104 H 213.172 -4.16095 0.0197215 0
M  V30 2105 H 212.048 -5.47305 -0.418188 0
M  V30 2106 H 212.309 -4.14493 -1.53778 0
M  V30 2107 N 211.368 -0.403325 -1.52352 0
M  V30 2108 C 212.3 0.4603 -2.2453 0
M  V30 2109 C 213.313 1.01505 -1.27282 0
M  V30 2110 O 214.502 0.914982 -1.53266 0
M  V30 2111 C 211.602 1.65208 -2.95905 0
M  V30 2112 C 210.775 1.22224 -4.19976 0
M  V30 2113 C 209.834 2.28028 -4.74226 0
M  V30 2114 O 208.86 1.88857 -5.36956 0
M  V30 2115 N 210.062 3.6012 -4.55295 0
M  V30 2116 H 212.827 -0.158156 -2.99282 0
M  V30 2117 H 210.388 -0.230402 -1.60252 0
M  V30 2118 H 212.38 2.35541 -3.29093 0
M  V30 2119 H 210.95 2.17658 -2.24374 0
M  V30 2120 H 210.17 0.34725 -3.92668 0
M  V30 2121 H 211.458 0.911924 -5.00561 0
M  V30 2122 H 210.856 3.94698 -4.05253 0
M  V30 2123 H 209.413 4.26447 -4.92936 0
M  V30 2124 N 212.846 1.57033 -0.133567 0
M  V30 2125 C 213.776 2.1909 0.807567 0
M  V30 2126 C 214.757 1.13517 1.26681 0
M  V30 2127 O 215.942 1.41809 1.32679 0
M  V30 2128 C 213.072 2.80188 2.05212 0
M  V30 2129 C 212.026 3.91471 1.73015 0
M  V30 2130 C 211.352 4.39443 3.04622 0
M  V30 2131 C 212.652 5.12886 0.987168 0
M  V30 2132 H 214.346 2.97988 0.290403 0
M  V30 2133 H 211.892 1.43335 0.138239 0
M  V30 2134 H 213.845 3.22264 2.71521 0
M  V30 2135 H 212.569 1.98601 2.59278 0
M  V30 2136 H 211.228 3.49993 1.0909 0
M  V30 2137 H 210.876 3.54695 3.56651 0
M  V30 2138 H 210.576 5.14495 2.83847 0
M  V30 2139 H 212.1 4.8418 3.72024 0
M  V30 2140 H 213.514 5.51891 1.55208 0
M  V30 2141 H 211.911 5.93615 0.87985 0
M  V30 2142 H 212.981 4.84894 -0.0235286 0
M  V30 2143 N 214.325 -0.140222 1.56975 0
M  V30 2144 C 215.571 -0.848084 1.84876 0
M  V30 2145 C 215.926 -1.78481 0.718481 0
M  V30 2146 O 215.219 -1.89497 -0.283093 0
M  V30 2147 C 215.413 -1.65386 3.16832 0
M  V30 2148 C 215.242 -0.79665 4.42587 0
M  V30 2149 C 214.012 -0.459648 5.03205 0
M  V30 2150 C 216.21 -0.12389 5.14151 0
M  V30 2151 N 214.192 0.410446 6.12526 0
M  V30 2152 C 215.563 0.606064 6.17031 0
M  V30 2153 C 217.618 -0.0452654 4.97879 0
M  V30 2154 C 216.321 1.40723 7.054 0
M  V30 2155 C 218.347 0.742658 5.86718 0
M  V30 2156 C 217.709 1.46087 6.89085 0
M  V30 2157 H 213.808 -0.287946 0.727056 0
M  V30 2158 H 216.392 -0.11304 1.94372 0
M  V30 2159 H 214.563 -2.36009 3.08471 0
M  V30 2160 H 216.295 -2.30541 3.32615 0
M  V30 2161 H 213.05 -0.797006 4.66846 0
M  V30 2162 H 213.474 0.836716 6.7181 0
M  V30 2163 H 218.116 -0.586184 4.18717 0
M  V30 2164 H 215.834 1.95938 7.83986 0
M  V30 2165 H 219.42 0.805574 5.76196 0
M  V30 2166 H 218.3 2.06077 7.56639 0
M  V30 2167 N 215.803 -1.52179 -0.40978 0
M  V30 2168 C 217.049 -1.66453 -1.15851 0
M  V30 2169 C 217.382 -0.392972 -1.90182 0
M  V30 2170 O 216.657 0.608579 -1.84734 0
M  V30 2171 C 216.94 -2.88612 -2.15349 0
M  V30 2172 C 216.793 -4.25815 -1.44918 0
M  V30 2173 C 218.112 -3.06294 -3.16026 0
M  V30 2174 H 215.231 -0.60575 -0.419805 0
M  V30 2175 H 217.873 -1.84732 -0.444314 0
M  V30 2176 H 216.023 -2.73158 -2.76255 0
M  V30 2177 H 217.695 -4.52995 -0.871365 0
M  V30 2178 H 215.938 -4.27247 -0.751159 0
M  V30 2179 H 216.609 -5.07337 -2.17516 0
M  V30 2180 H 219.085 -3.20641 -2.65195 0
M  V30 2181 H 217.961 -3.93283 -3.8291 0
M  V30 2182 H 218.222 -2.19579 -3.83715 0
M  V30 2183 N 217.281 0.66697 -1.42791 0
M  V30 2184 C 218.558 1.4234 -1.34159 0
M  V30 2185 C 218.938 2.11093 0.0172729 0
M  V30 2186 O 218.286 2.03808 1.03318 0
M  V30 2187 C 218.496 2.41942 -2.51526 0
M  V30 2188 C 219.844 3.06353 -2.93995 0
M  V30 2189 O 220.868 2.52269 -2.51473 0
M  V30 2190 O 219.727 4.04376 -3.67617 0
M  V30 2191 H 216.821 0.635277 -0.529483 0
M  V30 2192 H 219.367 0.695034 -1.54814 0
M  V30 2193 H 218.139 1.89991 -3.42081 0
M  V30 2194 H 217.762 3.22249 -2.32898 0
M  V30 2195 N 218.759 1.29093 0.90403 0
M  V30 2196 C 219.984 1.19809 1.69294 0
M  V30 2197 C 220.409 -0.238481 1.86582 0
M  V30 2198 O 219.767 -1.1723 1.383 0
M  V30 2199 C 219.815 1.91202 3.05736 0
M  V30 2200 O 218.919 1.22611 3.93752 0
M  V30 2201 H 218.26 0.415385 0.518027 0
M  V30 2202 H 220.79 1.70586 1.12967 0
M  V30 2203 H 220.8 1.99487 3.55906 0
M  V30 2204 H 219.475 2.95692 2.92471 0
M  V30 2205 H 218.052 1.22554 3.52186 0
M  V30 2206 N 220.237 -1.11381 1.11499 0
M  V30 2207 C 221.465 -1.86934 0.88675 0
M  V30 2208 C 221.88 -1.80195 -0.563476 0
M  V30 2209 O 221.237 -1.18367 -1.38908 0
M  V30 2210 C 221.288 -3.35722 1.34064 0
M  V30 2211 O 221.009 -3.4232 2.73401 0
M  V30 2212 C 222.51 -4.2818 1.14791 0
M  V30 2213 H 219.73 -0.591117 0.317523 0
M  V30 2214 H 222.274 -1.40865 1.48248 0
M  V30 2215 H 220.429 -3.79294 0.788355 0
M  V30 2216 H 220.843 -4.34971 2.93087 0
M  V30 2217 H 222.317 -5.30817 1.5145 0
M  V30 2218 H 222.794 -4.39113 0.0875279 0
M  V30 2219 H 223.4 -3.90402 1.68721 0
M  V30 2220 N 221.715 -0.905404 -1.28997 0
M  V30 2221 C 223.126 -0.581953 -1.77398 0
M  V30 2222 C 223.477 0.902552 -1.74208 0
M  V30 2223 O 222.602 1.70584 -1.33154 0
M  V30 2224 C 223.197 -1.04961 -3.22131 0
M  V30 2225 C 221.756 -0.777229 -3.68288 0
M  V30 2226 C 220.903 -1.22109 -2.48967 0
M  V30 2227 H 223.854 -1.08754 -1.15578 0
M  V30 2228 H 223.875 -0.387387 -3.78523 0
M  V30 2229 H 223.387 -2.13008 -3.24421 0
M  V30 2230 H 221.488 0.290383 -3.71467 0
M  V30 2231 H 221.601 -1.37911 -4.58822 0
M  V30 2232 H 219.965 -0.639971 -2.46529 0
M  V30 2233 H 220.748 -2.30972 -2.53982 0
M  V30 2234 N 223.193 1.4272 -0.668489 0
M  V30 2235 C 224.604 1.84793 -0.266151 0
M  V30 2236 C 224.955 1.55959 1.19043 0
M  V30 2237 O 224.08 1.01622 1.91055 0
M  V30 2238 C 224.675 3.35436 -0.476271 0
M  V30 2239 C 223.234 3.76182 -0.128113 0
M  V30 2240 C 222.381 2.66344 -0.771777 0
M  V30 2241 H 225.332 1.32656 -0.871098 0
M  V30 2242 H 225.353 3.79515 0.273561 0
M  V30 2243 H 224.865 3.5639 -1.53647 0
M  V30 2244 H 222.966 3.60836 0.928891 0
M  V30 2245 H 223.079 4.75766 -0.564231 0
M  V30 2246 H 221.443 2.53885 -0.203652 0
M  V30 2247 H 222.226 2.90123 -1.83531 0
M  V30 2248 N 224.671 0.411399 1.52136 0
M  V30 2249 C 226.082 -0.0576826 1.86611 0
M  V30 2250 C 226.433 -1.44238 1.33003 0
M  V30 2251 O 225.558 -2.05759 0.670228 0
M  V30 2252 C 226.153 -0.111448 3.38617 0
M  V30 2253 C 224.712 -0.52487 3.72723 0
M  V30 2254 C 223.859 0.299176 2.75681 0
M  V30 2255 H 226.81 0.628368 1.4573 0
M  V30 2256 H 226.831 -0.926252 3.69054 0
M  V30 2257 H 226.343 0.896488 3.77604 0
M  V30 2258 H 224.444 -1.53936 3.39315 0
M  V30 2259 H 224.557 -0.267681 4.78352 0
M  V30 2260 H 222.921 -0.238814 2.53578 0
M  V30 2261 H 223.704 1.3055 3.17508 0
M  V30 2262 N 226.149 -1.5696 0.141893 0
M  V30 2263 C 227.397 -1.95573 -0.509484 0
M  V30 2264 C 227.718 -1.02746 -1.65736 0
M  V30 2265 O 226.988 -0.0880311 -1.95702 0
M  V30 2266 H 225.568 -0.722115 -0.191205 0
M  V30 2267 H 228.23 -1.93697 0.216196 0
M  V30 2268 H 227.326 -2.99171 -0.889 0
M  V30 2269 N 227.627 0.131896 -1.57047 0
M  V30 2270 C 228.855 0.856461 -1.88341 0
M  V30 2271 C 229.27 1.74042 -0.731757 0
M  V30 2272 O 228.627 1.80051 0.297945 0
M  V30 2273 C 228.678 1.70064 -3.18999 0
M  V30 2274 O 228.399 0.852278 -4.2973 0
M  V30 2275 C 229.9 2.53148 -3.63911 0
M  V30 2276 H 227.12 0.246885 -0.62393 0
M  V30 2277 H 229.664 0.120152 -2.04147 0
M  V30 2278 H 227.819 2.38984 -3.04902 0
M  V30 2279 H 228.233 1.43329 -5.04537 0
M  V30 2280 H 229.707 3.07931 -4.58129 0
M  V30 2281 H 230.184 3.29901 -2.89935 0
M  V30 2282 H 230.79 1.89492 -3.80753 0
M  V30 2283 N 229.106 1.52395 0.401703 0
M  V30 2284 C 230.522 1.41363 0.740864 0
M  V30 2285 C 230.722 0.523982 1.94568 0
M  V30 2286 O 229.778 -0.00741204 2.52499 0
M  V30 2287 C 231.091 2.84011 0.987847 0
M  V30 2288 C 232.639 2.93404 1.09011 0
M  V30 2289 C 233.114 4.37036 1.3698 0
M  V30 2290 N 234.605 4.40304 1.43829 0
M  V30 2291 C 235.34 5.48508 1.67112 0
M  V30 2292 N 234.836 6.66819 1.87949 0
M  V30 2293 N 236.629 5.36034 1.69187 0
M  V30 2294 H 228.78 2.08765 -0.391262 0
M  V30 2295 H 231.043 0.941265 -0.112798 0
M  V30 2296 H 230.749 3.51265 0.174835 0
M  V30 2297 H 230.623 3.25502 1.906 0
M  V30 2298 H 233.01 2.26325 1.8937 0
M  V30 2299 H 233.091 2.55359 0.15015 0
M  V30 2300 H 232.735 5.04676 0.571353 0
M  V30 2301 H 232.665 4.72623 2.3224 0
M  V30 2302 H 235.156 3.55024 1.29486 0
M  V30 2303 H 235.469 7.45063 2.05185 0
M  V30 2304 H 233.814 6.6987 1.85199 0
M  V30 2305 H 237.005 4.42579 1.52451 0
M  V30 2306 H 237.178 6.20434 1.86993 0
M  V30 2307 N 230.584 -0.659388 1.43143 0
M  V30 2308 C 231.83 -1.42145 1.44647 0
M  V30 2309 C 232.163 -1.9408 0.0681907 0
M  V30 2310 O 231.438 -1.71899 -0.910007 0
M  V30 2311 C 231.721 -2.60735 2.48373 0
M  V30 2312 C 231.574 -2.14332 3.95451 0
M  V30 2313 C 232.893 -3.62951 2.48906 0
M  V30 2314 H 230.012 -0.51552 0.526696 0
M  V30 2315 H 232.654 -0.748069 1.74654 0
M  V30 2316 H 230.804 -3.18184 2.22916 0
M  V30 2317 H 232.476 -1.61932 4.31944 0
M  V30 2318 H 230.719 -1.4576 4.08578 0
M  V30 2319 H 231.39 -2.99583 4.63631 0
M  V30 2320 H 233.866 -3.1525 2.71582 0
M  V30 2321 H 232.742 -4.43487 3.23435 0
M  V30 2322 H 233.003 -4.15126 1.52061 0
M  V30 2323 N 232.062 -1.29571 -0.897171 0
M  V30 2324 C 233.478 -1.07637 -1.17841 0
M  V30 2325 C 233.678 0.170713 -2.00776 0
M  V30 2326 O 232.734 0.867768 -2.3712 0
M  V30 2327 C 234.047 -2.3332 -1.8969 0
M  V30 2328 C 235.595 -2.38664 -2.02505 0
M  V30 2329 C 236.07 -3.64157 -2.77765 0
M  V30 2330 N 237.561 -3.64894 -2.85318 0
M  V30 2331 C 238.296 -4.58679 -3.44094 0
M  V30 2332 N 237.792 -5.62799 -4.04017 0
M  V30 2333 N 239.585 -4.46245 -3.41793 0
M  V30 2334 H 231.736 -2.09598 -0.343883 0
M  V30 2335 H 233.999 -0.923333 -0.214848 0
M  V30 2336 H 233.705 -3.24262 -1.36187 0
M  V30 2337 H 233.579 -2.41025 -2.9015 0
M  V30 2338 H 235.966 -1.48208 -2.55183 0
M  V30 2339 H 236.047 -2.34943 -1.01171 0
M  V30 2340 H 235.691 -4.54965 -2.25763 0
M  V30 2341 H 235.621 -3.65137 -3.7945 0
M  V30 2342 H 238.112 -2.89613 -2.42761 0
M  V30 2343 H 238.425 -6.3048 -4.46895 0
M  V30 2344 H 236.77 -5.66605 -4.02472 0
M  V30 2345 H 239.961 -3.64094 -2.94199 0
M  V30 2346 H 240.134 -5.19518 -3.87304 0
M  V30 2347 N 233.54 1.10788 -1.12088 0
M  V30 2348 C 234.503 2.15207 -0.788577 0
M  V30 2349 C 235.503 1.59609 0.195317 0
M  V30 2350 O 236.693 1.74174 -0.0300193 0
M  V30 2351 C 233.825 3.4047 -0.171174 0
M  V30 2352 H 235.018 2.46116 -1.71368 0
M  V30 2353 H 232.571 1.26089 -0.923652 0
M  V30 2354 H 233.306 3.15176 0.763832 0
M  V30 2355 H 233.091 3.82109 -0.879514 0
M  V30 2356 H 234.581 4.17576 0.04496 0
M  V30 2357 N 235.018 0.912232 1.28515 0
M  V30 2358 C 235.951 0.343928 2.25593 0
M  V30 2359 C 236.929 -0.550994 1.5298 0
M  V30 2360 O 238.113 -0.494991 1.81885 0
M  V30 2361 C 235.24 -0.508525 3.34861 0
M  V30 2362 C 234.286 0.320808 4.25292 0
M  V30 2363 S 235.119 1.72658 5.06902 0
M  V30 2364 C 236.275 0.881394 6.19663 0
M  V30 2365 H 236.508 1.16674 2.73449 0
M  V30 2366 H 234.041 0.713384 1.36931 0
M  V30 2367 H 235.999 -0.994539 3.9827 0
M  V30 2368 H 234.66 -1.30571 2.85675 0
M  V30 2369 H 233.853 -0.330941 5.02912 0
M  V30 2370 H 233.455 0.74042 3.66598 0
M  V30 2371 H 235.747 0.110359 6.7741 0
M  V30 2372 H 236.69 1.63009 6.89082 0
M  V30 2373 H 237.098 0.430239 5.62858 0
M  V30 2374 N 236.496 -1.42363 0.676048 0
M  V30 2375 C 237.459 -2.29199 0.00766941 0
M  V30 2376 C 238.459 -1.43389 -0.727745 0
M  V30 2377 O 239.649 -1.64764 -0.56556 0
M  V30 2378 C 236.781 -3.2591 -0.999785 0
M  V30 2379 H 237.974 -2.89794 0.771988 0
M  V30 2380 H 235.527 -1.50024 0.438468 0
M  V30 2381 H 236.262 -2.70256 -1.79255 0
M  V30 2382 H 236.047 -3.89202 -0.475829 0
M  V30 2383 H 237.537 -3.91028 -1.46583 0
M  V30 2384 N 237.974 -0.419461 -1.51915 0
M  V30 2385 C 239.223 0.154346 -2.01109 0
M  V30 2386 C 239.536 1.45338 -1.30905 0
M  V30 2387 O 240.742 2.10906 -1.7097 0
M  V30 2388 C 239.198 0.325615 -3.58424 0
M  V30 2389 C 238.806 -0.961934 -4.37551 0
M  V30 2390 C 240.55 0.854155 -4.15818 0
M  V30 2391 C 238.457 -0.757287 -5.86531 0
M  V30 2392 H 237.387 0.0614563 -0.751491 0
M  V30 2393 H 240.038 -0.54649 -1.75173 0
M  V30 2394 H 238.42 1.08903 -3.80731 0
M  V30 2395 H 239.594 -1.7323 -4.26999 0
M  V30 2396 H 237.909 -1.41766 -3.91524 0
M  V30 2397 H 240.506 1.02346 -5.24814 0
M  V30 2398 H 240.849 1.83172 -3.73837 0
M  V30 2399 H 241.382 0.149528 -3.97519 0
M  V30 2400 H 238.121 -1.70671 -6.32892 0
M  V30 2401 H 237.641 -0.0264061 -5.99794 0
M  V30 2402 H 239.32 -0.403482 -6.45741 0
M  V30 2403 N 239.452 1.56882 -0.150215 0
M  V30 2404 C 240.682 2.00302 0.506213 0
M  V30 2405 C 241.09 1.02934 1.58749 0
M  V30 2406 O 240.433 0.0188384 1.8369 0
M  V30 2407 C 240.495 3.40156 1.16337 0
M  V30 2408 C 240.159 4.56439 0.226311 0
M  V30 2409 C 241.156 5.17012 -0.547265 0
M  V30 2410 C 238.841 5.02136 0.128279 0
M  V30 2411 C 240.835 6.21693 -1.40629 0
M  V30 2412 C 238.522 6.06672 -0.734345 0
M  V30 2413 C 239.52 6.6632 -1.50023 0
M  V30 2414 O 239.208 7.68831 -2.34848 0
M  V30 2415 H 238.94 0.662182 0.135984 0
M  V30 2416 H 241.494 2.03961 -0.242746 0
M  V30 2417 H 239.724 3.33346 1.96004 0
M  V30 2418 H 241.413 3.67663 1.71985 0
M  V30 2419 H 242.179 4.82603 -0.48158 0
M  V30 2420 H 238.058 4.55435 0.714157 0
M  V30 2421 H 241.602 6.68179 -2.00455 0
M  V30 2422 H 237.499 6.40507 -0.801309 0
M  V30 2423 H 238.267 7.86065 -2.28131 0
M  V30 2424 N 240.93 -0.123565 1.57115 0
M  V30 2425 C 241.877 -1.15177 2.00007 0
M  V30 2426 C 242.847 -1.41403 0.871454 0
M  V30 2427 O 244.032 -1.53346 1.13533 0
M  V30 2428 C 241.172 -2.47436 2.40561 0
M  V30 2429 C 240.285 -2.28184 3.66819 0
M  V30 2430 C 239.42 -3.53641 3.96373 0
M  V30 2431 C 238.459 -3.29528 5.15827 0
M  V30 2432 N 237.596 -4.47175 5.41275 0
M  V30 2433 H 242.436 -0.779008 2.87638 0
M  V30 2434 H 239.973 -0.373166 1.42288 0
M  V30 2435 H 241.931 -3.24584 2.62109 0
M  V30 2436 H 240.561 -2.82614 1.55978 0
M  V30 2437 H 239.613 -1.41976 3.52912 0
M  V30 2438 H 240.925 -2.0634 4.5412 0
M  V30 2439 H 240.079 -4.39209 4.18545 0
M  V30 2440 H 238.818 -3.78512 3.07538 0
M  V30 2441 H 237.823 -2.42349 4.93505 0
M  V30 2442 H 239.048 -3.06031 6.06236 0
M  V30 2443 H 236.994 -4.72175 4.55397 0
M  V30 2444 H 236.911 -4.28419 6.22891 0
M  V30 2445 H 238.179 -5.3389 5.67963 0
M  V30 2446 N 242.408 -1.52605 -0.393616 0
M  V30 2447 C 243.34 -1.73303 -1.49995 0
M  V30 2448 C 244.353 -0.613473 -1.50799 0
M  V30 2449 O 245.542 -0.889049 -1.54784 0
M  V30 2450 C 242.642 -1.77245 -2.88855 0
M  V30 2451 C 241.815 -3.06483 -3.12069 0
M  V30 2452 C 240.874 -3.02033 -4.30886 0
M  V30 2453 O 239.9 -3.75907 -4.27414 0
M  V30 2454 N 241.102 -2.20897 -5.36828 0
M  V30 2455 H 243.867 -2.68756 -1.32629 0
M  V30 2456 H 241.428 -1.51036 -0.583083 0
M  V30 2457 H 243.42 -1.7178 -3.66434 0
M  V30 2458 H 241.99 -0.891993 -2.99603 0
M  V30 2459 H 241.21 -3.25474 -2.22396 0
M  V30 2460 H 242.498 -3.91947 -3.2443 0
M  V30 2461 H 241.896 -1.60336 -5.42502 0
M  V30 2462 H 240.453 -2.21275 -6.13091 0
M  V30 2463 N 243.887 0.651787 -1.4349 0
M  V30 2464 C 245.112 1.44434 -1.48841 0
M  V30 2465 C 245.537 1.8779 -0.107955 0
M  V30 2466 O 244.895 1.57464 0.898602 0
M  V30 2467 C 244.943 2.65458 -2.44059 0
M  V30 2468 O 244.047 3.64566 -1.92784 0
M  V30 2469 H 243.388 0.433005 -0.503391 0
M  V30 2470 H 245.918 0.797451 -1.88419 0
M  V30 2471 H 245.928 3.13255 -2.6141 0
M  V30 2472 H 244.603 2.33244 -3.4434 0
M  V30 2473 H 243.18 3.23716 -1.851 0
M  V30 2474 N 245.365 1.30045 0.890287 0
M  V30 2475 C 246.297 1.11786 2.00091 0
M  V30 2476 C 247.31 0.0626307 1.62679 0
M  V30 2477 O 248.499 0.308112 1.75821 0
M  V30 2478 C 245.599 0.681527 3.31977 0
M  V30 2479 C 244.772 1.81735 3.97858 0
M  V30 2480 C 243.831 1.37045 5.08041 0
M  V30 2481 O 242.857 2.07677 5.29961 0
M  V30 2482 N 244.059 0.246525 5.79976 0
M  V30 2483 H 246.824 2.07441 2.16306 0
M  V30 2484 H 244.385 1.2211 1.06305 0
M  V30 2485 H 246.377 0.365675 4.03045 0
M  V30 2486 H 244.947 -0.182828 3.12065 0
M  V30 2487 H 244.167 2.30159 3.20032 0
M  V30 2488 H 245.455 2.57865 4.38615 0
M  V30 2489 H 244.853 -0.34215 5.64664 0
M  V30 2490 H 243.41 -0.00990438 6.51799 0
M  V30 2491 N 246.843 -1.10192 1.12674 0
M  V30 2492 C 247.793 -2.14754 0.765801 0
M  V30 2493 C 248.777 -1.59154 -0.236409 0
M  V30 2494 O 249.969 -1.76951 -0.0415261 0
M  V30 2495 C 247.098 -3.42563 0.224827 0
M  V30 2496 C 246.184 -4.05091 1.25548 0
M  V30 2497 N 246.575 -4.42287 2.4539 0
M  V30 2498 C 244.873 -4.32186 1.10142 0
M  V30 2499 C 245.574 -4.91441 3.11224 0
M  V30 2500 N 244.55 -4.88405 2.38666 0
M  V30 2501 H 248.352 -2.41309 1.67772 0
M  V30 2502 H 245.866 -1.27339 1.00789 0
M  V30 2503 H 247.863 -4.16868 -0.0519578 0
M  V30 2504 H 246.523 -3.17467 -0.681515 0
M  V30 2505 H 247.534 -4.33902 2.82754 0
M  V30 2506 H 244.211 -4.16735 0.252587 0
M  V30 2507 H 245.601 -5.29749 4.13298 0
M  V30 2508 N 248.321 -0.919034 -1.28029 0
M  V30 2509 C 249.254 -0.355887 -2.25408 0
M  V30 2510 C 250.232 0.542874 -1.5327 0
M  V30 2511 O 251.416 0.485338 -1.82145 0
M  V30 2512 C 248.543 0.490759 -3.35126 0
M  V30 2513 C 247.589 -0.343358 -4.25116 0
M  V30 2514 S 248.422 -1.75344 -5.05979 0
M  V30 2515 C 249.578 -0.914244 -6.19187 0
M  V30 2516 H 249.811 -1.18123 -2.72826 0
M  V30 2517 H 247.344 -0.720636 -1.36551 0
M  V30 2518 H 249.302 0.973404 -3.98792 0
M  V30 2519 H 247.963 1.29054 -2.86363 0
M  V30 2520 H 247.156 0.304266 -5.03081 0
M  V30 2521 H 246.758 -0.759851 -3.662 0
M  V30 2522 H 249.05 -0.146282 -6.77342 0
M  V30 2523 H 249.993 -1.66661 -6.88208 0
M  V30 2524 H 250.401 -0.460082 -5.62622 0
M  V30 2525 N 249.799 1.42003 -0.683588 0
M  V30 2526 C 251.027 2.05746 -0.218182 0
M  V30 2527 C 251.442 1.51396 1.12804 0
M  V30 2528 O 250.799 0.657303 1.70252 0
M  V30 2529 C 250.85 3.61171 -0.154131 0
M  V30 2530 O 250.571 4.13508 -1.44716 0
M  V30 2531 C 252.072 4.42042 0.333713 0
M  V30 2532 H 249.292 0.662888 -0.10402 0
M  V30 2533 H 251.836 1.81987 -0.9328 0
M  V30 2534 H 249.991 3.84012 0.511231 0
M  V30 2535 H 250.405 5.07453 -1.32632 0
M  V30 2536 H 251.879 5.51028 0.327423 0
M  V30 2537 H 252.356 4.17269 1.37053 0
M  V30 2538 H 252.962 4.24239 -0.300222 0
M  V30 2539 N 251.277 0.427512 1.51691 0
M  V30 2540 C 252.187 -0.39527 2.31246 0
M  V30 2541 C 253.203 -1.03674 1.39742 0
M  V30 2542 O 254.379 -1.03425 1.72816 0
M  V30 2543 C 251.444 -1.48706 3.13189 0
M  V30 2544 C 250.505 -0.866743 4.20459 0
M  V30 2545 C 249.738 -1.90651 4.98486 0
M  V30 2546 O 249.961 -3.12733 4.77026 0
M  V30 2547 O 248.895 -1.5025 5.82845 0
M  V30 2548 H 252.721 0.253918 3.02637 0
M  V30 2549 H 250.306 0.190274 1.48183 0
M  V30 2550 H 252.188 -2.12047 3.64162 0
M  V30 2551 H 250.863 -2.12051 2.44573 0
M  V30 2552 H 249.77 -0.195544 3.73589 0
M  V30 2553 H 251.103 -0.276934 4.9142 0
M  V30 2554 N 252.755 -1.56801 0.158532 0
M  V30 2555 C 254.001 -1.96781 -0.490405 0
M  V30 2556 C 254.334 -1.04397 -1.63753 0
M  V30 2557 O 253.609 -0.0885805 -1.94298 0
M  V30 2558 C 253.892 -3.4635 -0.985594 0
M  V30 2559 C 253.745 -4.49512 0.160824 0
M  V30 2560 C 255.064 -3.98697 -1.86355 0
M  V30 2561 H 252.183 -0.715482 -0.176788 0
M  V30 2562 H 254.825 -1.88451 0.242088 0
M  V30 2563 H 252.975 -3.53579 -1.60978 0
M  V30 2564 H 254.647 -4.54353 0.797537 0
M  V30 2565 H 252.89 -4.26013 0.818256 0
M  V30 2566 H 253.561 -5.51531 -0.227569 0
M  V30 2567 H 256.037 -3.94019 -1.33746 0
M  V30 2568 H 254.913 -5.03792 -2.17909 0
M  V30 2569 H 255.174 -3.41744 -2.8047 0
M  V30 2570 N 254.233 0.115231 -1.57178 0
M  V30 2571 C 255.479 0.82357 -1.85325 0
M  V30 2572 C 255.812 1.79349 -0.744814 0
M  V30 2573 O 255.087 1.92899 0.249024 0
M  V30 2574 C 255.37 1.57014 -3.24066 0
M  V30 2575 C 255.223 0.619565 -4.45513 0
M  V30 2576 C 256.542 2.52545 -3.60429 0
M  V30 2577 H 253.661 0.297948 -0.674089 0
M  V30 2578 H 256.303 0.0877138 -1.89797 0
M  V30 2579 H 254.453 2.19742 -3.20383 0
M  V30 2580 H 256.125 0.000837639 -4.613 0
M  V30 2581 H 254.368 -0.0686174 -4.33746 0
M  V30 2582 H 255.039 1.17866 -5.3927 0
M  V30 2583 H 257.515 1.9992 -3.64926 0
M  V30 2584 H 256.391 3.01811 -4.58477 0
M  V30 2585 H 256.652 3.35383 -2.88047 0
M  V30 2586 N 255.711 1.52812 0.385517 0
M  V30 2587 C 257.127 1.4214 0.725829 0
M  V30 2588 C 257.327 0.544589 1.94001 0
M  V30 2589 O 256.383 0.0193693 2.52493 0
M  V30 2590 C 257.696 2.85042 0.957668 0
M  V30 2591 C 259.244 2.94543 1.05892 0
M  V30 2592 C 259.719 4.38464 1.32337 0
M  V30 2593 N 261.21 4.41804 1.39151 0
M  V30 2594 C 261.945 5.5025 1.61285 0
M  V30 2595 N 261.441 6.68775 1.80866 0
M  V30 2596 N 263.234 5.37798 1.63492 0
M  V30 2597 H 255.385 2.08338 -0.413383 0
M  V30 2598 H 257.648 0.940016 -0.122775 0
M  V30 2599 H 257.354 3.51431 0.137568 0
M  V30 2600 H 257.228 3.27505 1.87137 0
M  V30 2601 H 259.615 2.28321 1.86959 0
M  V30 2602 H 259.696 2.55504 0.123057 0
M  V30 2603 H 259.34 5.05254 0.517793 0
M  V30 2604 H 259.27 4.75059 2.27214 0
M  V30 2605 H 261.761 3.56377 1.25713 0
M  V30 2606 H 262.074 7.47197 1.97271 0
M  V30 2607 H 260.419 6.71797 1.78083 0
M  V30 2608 H 263.61 4.44171 1.47749 0
M  V30 2609 H 263.783 6.22382 1.80402 0
M  V30 2610 N 257.189 -0.644168 1.43834 0
M  V30 2611 C 258.605 -0.960875 1.27434 0
M  V30 2612 C 258.805 -2.00499 0.200618 0
M  V30 2613 O 257.861 -2.49018 -0.417906 0
M  V30 2614 C 259.174 -1.43653 2.64167 0
M  V30 2615 C 260.722 -1.55271 2.71772 0
M  V30 2616 C 261.197 -2.06224 4.08944 0
M  V30 2617 N 262.688 -2.13513 4.11055 0
M  V30 2618 C 263.423 -2.54081 5.14033 0
M  V30 2619 N 262.919 -2.9388 6.27381 0
M  V30 2620 N 264.712 -2.54101 5.01387 0
M  V30 2621 H 256.863 0.0465779 2.12349 0
M  V30 2622 H 259.126 -0.0417638 0.94708 0
M  V30 2623 H 258.832 -0.743706 3.43747 0
M  V30 2624 H 258.706 -2.40993 2.90176 0
M  V30 2625 H 261.093 -2.23653 1.92519 0
M  V30 2626 H 261.174 -0.563395 2.49519 0
M  V30 2627 H 260.818 -1.38441 4.88668 0
M  V30 2628 H 260.748 -3.06003 4.28567 0
M  V30 2629 H 263.239 -1.85493 3.29242 0
M  V30 2630 H 263.552 -3.2361 7.01781 0
M  V30 2631 H 261.897 -2.91663 6.30839 0
M  V30 2632 H 265.088 -2.22391 4.11898 0
M  V30 2633 H 265.261 -2.85394 5.81768 0
M  V30 2634 N 258.668 -1.30515 -0.883378 0
M  V30 2635 C 259.908 -1.20716 -1.64946 0
M  V30 2636 C 260.272 0.234072 -1.90568 0
M  V30 2637 O 261.473 0.455335 -2.64915 0
M  V30 2638 C 259.744 -2.01444 -2.9522 0
M  V30 2639 S 261.303 -2.0836 -3.86175 0
M  V30 2640 H 258.121 -0.430165 -0.566109 0
M  V30 2641 H 260.723 -1.65011 -1.04841 0
M  V30 2642 H 259.427 -3.05268 -2.74298 0
M  V30 2643 H 258.958 -1.57817 -3.60357 0
M  V30 2644 H 260.973 -1.21215 -4.81167 0
M  V30 2645 N 260.146 1.09593 -1.13257 0
M  V30 2646 C 261.557 1.63229 -0.906274 0
M  V30 2647 C 261.908 1.8811 0.557578 0
M  V30 2648 O 261.033 1.62953 1.42391 0
M  V30 2649 C 261.628 2.96535 -1.63867 0
M  V30 2650 C 260.187 3.47003 -1.45828 0
M  V30 2651 C 259.334 2.2145 -1.66898 0
M  V30 2652 H 262.285 0.92978 -1.28611 0
M  V30 2653 H 262.306 3.64411 -1.09476 0
M  V30 2654 H 261.818 2.78394 -2.70404 0
M  V30 2655 H 259.919 3.70272 -0.415848 0
M  V30 2656 H 260.032 4.24551 -2.2202 0
M  V30 2657 H 258.396 2.30022 -1.09371 0
M  V30 2658 H 259.179 2.0583 -2.74752 0
M  V30 2659 N 261.624 0.925811 1.2754 0
M  V30 2660 C 262.574 0.394488 2.24561 0
M  V30 2661 C 263.558 -0.500183 1.52928 0
M  V30 2662 O 264.75 -0.337936 1.73744 0
M  V30 2663 C 261.879 -0.353328 3.41477 0
M  V30 2664 C 260.965 0.557752 4.20416 0
M  V30 2665 N 261.356 1.67674 4.77199 0
M  V30 2666 C 259.654 0.360404 4.44541 0
M  V30 2667 C 260.355 2.24324 5.36706 0
M  V30 2668 N 259.331 1.53305 5.21535 0
M  V30 2669 H 263.133 1.2489 2.66045 0
M  V30 2670 H 260.647 0.779864 1.4245 0
M  V30 2671 H 262.644 -0.7509 4.10082 0
M  V30 2672 H 261.304 -1.20469 3.01525 0
M  V30 2673 H 262.315 2.05915 4.75204 0
M  V30 2674 H 258.992 -0.450454 4.15063 0
M  V30 2675 H 260.382 3.18521 5.91603 0
M  V30 2676 N 263.102 -1.41638 0.69111 0
M  V30 2677 C 264.052 -2.28 -0.000107832 0
M  V30 2678 C 265.036 -1.41964 -0.757304 0
M  V30 2679 O 266.228 -1.65274 -0.633532 0
M  V30 2680 C 263.357 -3.30209 -0.938983 0
M  V30 2681 C 262.443 -4.23725 -0.17827 0
M  V30 2682 N 262.834 -4.99017 0.825563 0
M  V30 2683 C 261.132 -4.44071 -0.414392 0
M  V30 2684 C 261.833 -5.67431 1.28052 0
M  V30 2685 N 260.809 -5.40197 0.607304 0
M  V30 2686 H 264.611 -2.83644 0.769617 0
M  V30 2687 H 262.125 -1.53797 0.521562 0
M  V30 2688 H 264.122 -3.90898 -1.44929 0
M  V30 2689 H 262.782 -2.76126 -1.70836 0
M  V30 2690 H 263.793 -5.03671 1.20566 0
M  V30 2691 H 260.47 -4.01004 -1.162 0
M  V30 2692 H 261.86 -6.37801 2.11327 0
M  V30 2693 N 264.58 -0.43555 -1.51462 0
M  V30 2694 C 265.49 0.383001 -2.31453 0
M  V30 2695 C 266.506 1.02931 -1.4029 0
M  V30 2696 O 267.682 1.02507 -1.73362 0
M  V30 2697 C 264.747 1.47043 -3.13973 0
M  V30 2698 C 263.808 0.844433 -4.20913 0
M  V30 2699 C 263.041 1.88004 -4.9949 0
M  V30 2700 O 263.264 3.10199 -4.78678 0
M  V30 2701 O 262.198 1.47157 -5.83634 0
M  V30 2702 H 266.024 -0.269964 -3.02498 0
M  V30 2703 H 263.609 -0.19813 -1.4808 0
M  V30 2704 H 265.491 2.10113 -3.65281 0
M  V30 2705 H 264.166 2.10751 -2.45695 0
M  V30 2706 H 263.073 0.175729 -3.73687 0
M  V30 2707 H 264.406 0.250869 -4.9156 0
M  V30 2708 N 266.058 1.56714 -0.166846 0
M  V30 2709 C 267.474 1.58473 0.189372 0
M  V30 2710 C 267.674 1.18201 1.63189 0
M  V30 2711 O 266.73 0.891528 2.36237 0
M  V30 2712 C 268.043 3.00573 -0.0873872 0
M  V30 2713 C 269.591 3.1299 -0.0252443 0
M  V30 2714 C 270.066 4.57174 -0.274934 0
M  V30 2715 N 271.557 4.62665 -0.222553 0
M  V30 2716 C 272.292 5.72072 -0.389985 0
M  V30 2717 N 271.788 6.90054 -0.616229 0
M  V30 2718 N 273.581 5.61153 -0.326202 0
M  V30 2719 H 265.732 1.8118 -1.10849 0
M  V30 2720 H 267.995 0.839525 -0.440342 0
M  V30 2721 H 267.701 3.34497 -1.0865 0
M  V30 2722 H 267.575 3.72019 0.623037 0
M  V30 2723 H 269.962 2.78895 0.96444 0
M  V30 2724 H 270.043 2.43989 -0.768309 0
M  V30 2725 H 269.687 4.91976 -1.26181 0
M  V30 2726 H 269.617 5.24328 0.48869 0
M  V30 2727 H 272.108 3.77863 -0.0531512 0
M  V30 2728 H 272.421 7.69311 -0.733559 0
M  V30 2729 H 270.766 6.91927 -0.652791 0
M  V30 2730 H 273.957 4.67859 -0.150072 0
M  V30 2731 H 274.13 6.46364 -0.460116 0
M  V30 2732 N 267.536 -0.106894 1.57237 0
M  V30 2733 C 268.776 -0.818277 1.87306 0
M  V30 2734 C 269.14 -1.76474 0.756371 0
M  V30 2735 O 270.341 -2.5186 0.939155 0
M  V30 2736 C 268.612 -1.53806 3.22612 0
M  V30 2737 S 270.171 -2.28935 3.74345 0
M  V30 2738 H 266.989 -0.272862 0.656557 0
M  V30 2739 H 269.591 -0.075988 1.95352 0
M  V30 2740 H 268.295 -0.834951 4.01817 0
M  V30 2741 H 267.826 -2.32049 3.17674 0
M  V30 2742 H 269.841 -3.54871 3.46815 0
M  V30 2743 N 269.014 -1.53014 -0.377408 0
M  V30 2744 C 270.239 -1.72818 -1.14668 0
M  V30 2745 C 270.664 -0.450725 -1.8262 0
M  V30 2746 O 270.022 0.59439 -1.7128 0
M  V30 2747 C 270.07 -2.88627 -2.16164 0
M  V30 2748 O 269.174 -2.56409 -3.22998 0
M  V30 2749 H 268.515 -0.574301 -0.333278 0
M  V30 2750 H 271.045 -1.99853 -0.438152 0
M  V30 2751 H 271.055 -3.14455 -2.59966 0
M  V30 2752 H 269.73 -3.81294 -1.66095 0
M  V30 2753 H 268.307 -2.4136 -2.84253 0
M  V30 2754 N 270.492 0.636531 -1.44174 0
M  V30 2755 C 271.769 1.39463 -1.37148 0
M  V30 2756 C 272.149 2.11082 -0.027507 0
M  V30 2757 O 271.497 2.05954 0.989716 0
M  V30 2758 C 271.707 2.36552 -2.56601 0
M  V30 2759 C 273.055 3.00048 -3.00427 0
M  V30 2760 O 274.079 2.46878 -2.56767 0
M  V30 2761 O 272.938 3.96488 -3.76111 0
M  V30 2762 H 270.032 0.623903 -0.542839 0
M  V30 2763 H 272.578 0.662039 -1.56253 0
M  V30 2764 H 271.35 1.82692 -3.46034 0
M  V30 2765 H 270.973 3.17236 -2.39681 0
M  V30 2766 N 271.97 1.30982 0.876444 0
M  V30 2767 C 273.195 1.23373 1.66715 0
M  V30 2768 C 273.62 -0.19885 1.87046 0
M  V30 2769 O 272.978 -1.1427 1.40756 0
M  V30 2770 C 273.026 1.97644 3.01611 0
M  V30 2771 O 272.13 1.30935 3.91062 0
M  V30 2772 H 271.471 0.426279 0.509099 0
M  V30 2773 H 274.001 1.72944 1.09323 0
M  V30 2774 H 274.011 2.06992 3.51594 0
M  V30 2775 H 272.686 3.01829 2.86133 0
M  V30 2776 H 271.263 1.29996 3.49507 0
M  V30 2777 N 273.449 -1.08991 1.13837 0
M  V30 2778 C 274.726 -1.77863 0.813876 0
M  V30 2779 C 275.106 -1.99375 -0.693746 0
M  V30 2780 O 274.454 -1.59875 -1.63255 0
M  V30 2781 C 274.664 -3.0986 1.60586 0
M  V30 2782 C 276.012 -3.84493 1.8014 0
M  V30 2783 O 277.036 -3.19624 1.57222 0
M  V30 2784 O 275.895 -5.00957 2.18413 0
M  V30 2785 H 272.989 -0.771589 0.297624 0
M  V30 2786 H 275.535 -1.15507 1.24323 0
M  V30 2787 H 274.307 -2.89715 2.63022 0
M  V30 2788 H 273.93 -3.79942 1.17173 0
M  V30 2789 N 274.927 -0.932562 -1.27047 0
M  V30 2790 C 276.175 -0.574422 -1.93765 0
M  V30 2791 C 276.496 0.887993 -1.73608 0
M  V30 2792 O 275.766 1.62999 -1.08665 0
M  V30 2793 H 274.346 -0.209451 -0.717035 0
M  V30 2794 H 277.008 -1.18601 -1.5466 0
M  V30 2795 H 276.104 -0.784841 -3.02071 0
M  V30 2796 N 276.405 1.4127 -0.698611 0
M  V30 2797 C 277.335 2.33447 -0.049629 0
M  V30 2798 C 278.316 1.51982 0.763898 0
M  V30 2799 O 279.501 1.80509 0.716257 0
M  V30 2800 C 276.631 3.35828 0.885267 0
M  V30 2801 C 275.585 4.27627 0.178613 0
M  V30 2802 C 274.911 5.20406 1.22807 0
M  V30 2803 C 276.211 5.13459 -0.956933 0
M  V30 2804 H 277.905 2.87966 -0.81951 0
M  V30 2805 H 275.451 1.38461 -0.395538 0
M  V30 2806 H 277.404 3.9924 1.34854 0
M  V30 2807 H 276.128 2.79666 1.68685 0
M  V30 2808 H 274.787 3.65643 -0.26466 0
M  V30 2809 H 274.435 4.60558 2.02226 0
M  V30 2810 H 274.135 5.82661 0.760239 0
M  V30 2811 H 275.659 5.86695 1.69179 0
M  V30 2812 H 277.073 5.70421 -0.573805 0
M  V30 2813 H 275.47 5.8467 -1.35205 0
M  V30 2814 H 276.54 4.50443 -1.79524 0
M  V30 2815 N 277.883 0.443576 1.51229 0
M  V30 2816 C 278.846 -0.353132 2.26463 0
M  V30 2817 C 279.846 -0.944338 1.3015 0
M  V30 2818 O 281.036 -0.817813 1.5381 0
M  V30 2819 C 278.168 -1.50023 3.06114 0
M  V30 2820 H 279.361 0.3063 2.98332 0
M  V30 2821 H 276.914 0.196902 1.55055 0
M  V30 2822 H 277.649 -2.19553 2.38677 0
M  V30 2823 H 277.434 -1.08241 3.76864 0
M  V30 2824 H 278.924 -2.06296 3.63087 0
M  V30 2825 N 279.361 -1.56624 0.175154 0
M  V30 2826 C 280.772 -1.83561 -0.340916 0
M  V30 2827 C 281.123 -1.09511 -1.62794 0
M  V30 2828 O 280.248 -0.349389 -2.13561 0
M  V30 2829 C 280.843 -3.32979 -0.625313 0
M  V30 2830 C 279.402 -3.60399 -1.08581 0
M  V30 2831 C 278.549 -2.77024 -0.123722 0
M  V30 2832 H 281.5 -1.53593 0.399344 0
M  V30 2833 H 281.521 -3.50666 -1.47694 0
M  V30 2834 H 281.033 -3.86847 0.311575 0
M  V30 2835 H 279.134 -3.11945 -2.03767 0
M  V30 2836 H 279.247 -4.68711 -0.992317 0
M  V30 2837 H 277.611 -2.46993 -0.621821 0
M  V30 2838 H 278.394 -3.33674 0.807256 0
M  V30 2839 N 280.839 0.0985539 -1.57292 0
M  V30 2840 C 282.25 0.653457 -1.74891 0
M  V30 2841 C 282.601 1.7929 -0.796838 0
M  V30 2842 O 281.726 2.16385 0.0254886 0
M  V30 2843 C 282.321 1.19216 -3.17133 0
M  V30 2844 C 280.88 1.69316 -3.36168 0
M  V30 2845 C 280.027 0.601294 -2.70702 0
M  V30 2846 H 282.978 -0.127497 -1.58187 0
M  V30 2847 H 282.999 2.06154 -3.19814 0
M  V30 2848 H 282.511 0.362635 -3.86402 0
M  V30 2849 H 280.612 2.5468 -2.71972 0
M  V30 2850 H 280.725 1.78853 -4.44464 0
M  V30 2851 H 279.089 1.0399 -2.32504 0
M  V30 2852 H 279.872 -0.217592 -3.4261 0
M  V30 2853 N 282.317 1.53212 0.369288 0
M  V30 2854 C 283.249 1.75668 1.47219 0
M  V30 2855 C 284.262 0.637387 1.49804 0
M  V30 2856 O 285.451 0.913561 1.5335 0
M  V30 2857 C 282.551 1.81818 2.85999 0
M  V30 2858 C 281.724 3.11409 3.07153 0
M  V30 2859 C 280.783 3.08849 4.26026 0
M  V30 2860 O 279.809 3.82659 4.2138 0
M  V30 2861 N 281.011 2.29409 5.33246 0
M  V30 2862 H 283.776 2.70832 1.28337 0
M  V30 2863 H 281.337 1.51944 0.55898 0
M  V30 2864 H 283.329 1.77588 3.63655 0
M  V30 2865 H 281.899 0.939544 2.98146 0
M  V30 2866 H 281.119 3.28971 2.1719 0
M  V30 2867 H 282.407 3.97059 3.18154 0
M  V30 2868 H 281.805 1.68946 5.39883 0
M  V30 2869 H 280.362 2.31001 6.09493 0
M  V30 2870 N 283.795 -0.628877 1.44509 0
M  V30 2871 C 284.745 -1.7345 1.47983 0
M  V30 2872 C 285.729 -1.5715 0.345373 0
M  V30 2873 O 286.921 -1.66848 0.590829 0
M  V30 2874 C 284.05 -3.12143 1.42904 0
M  V30 2875 C 283.136 -3.33906 2.61472 0
M  V30 2876 N 283.527 -3.26024 3.86706 0
M  V30 2877 C 281.825 -3.64709 2.56716 0
M  V30 2878 C 282.526 -3.48536 4.65722 0
M  V30 2879 N 281.502 -3.71517 3.96832 0
M  V30 2880 H 285.304 -1.65818 2.42655 0
M  V30 2881 H 282.818 -0.831419 1.39503 0
M  V30 2882 H 284.815 -3.91433 1.43476 0
M  V30 2883 H 283.475 -3.2094 0.492717 0
M  V30 2884 H 284.486 -3.04893 4.18641 0
M  V30 2885 H 281.163 -3.80473 1.71891 0
M  V30 2886 H 282.553 -3.48016 5.74747 0
M  V30 2887 N 285.273 -1.31445 -0.869486 0
M  V30 2888 C 286.203 -1.21727 -1.99261 0
M  V30 2889 C 287.184 -0.104359 -1.6978 0
M  V30 2890 O 288.369 -0.289038 -1.92037 0
M  V30 2891 C 285.499 -0.924317 -3.34774 0
M  V30 2892 C 284.453 -1.99685 -3.78563 0
M  V30 2893 C 283.779 -1.55658 -5.11541 0
M  V30 2894 C 285.079 -3.41003 -3.95619 0
M  V30 2895 H 286.773 -2.1569 -2.07649 0
M  V30 2896 H 284.319 -1.03839 -0.997675 0
M  V30 2897 H 286.272 -0.842934 -4.12883 0
M  V30 2898 H 284.996 0.0509793 -3.2656 0
M  V30 2899 H 283.655 -2.06813 -3.02694 0
M  V30 2900 H 283.303 -0.569132 -4.9977 0
M  V30 2901 H 283.003 -2.27409 -5.41811 0
M  V30 2902 H 284.527 -1.48928 -5.92159 0
M  V30 2903 H 285.941 -3.36547 -4.64122 0
M  V30 2904 H 284.338 -4.10975 -4.37286 0
M  V30 2905 H 285.408 -3.81754 -2.98985 0
M  V30 2906 N 286.751 1.08385 -1.14413 0
M  V30 2907 C 288 1.80153 -0.907076 0
M  V30 2908 C 288.313 1.87176 0.567851 0
M  V30 2909 O 289.519 2.55359 0.922172 0
M  V30 2910 C 287.975 3.23687 -1.57336 0
M  V30 2911 C 287.583 3.24897 -3.08457 0
M  V30 2912 C 289.327 4.00136 -1.41744 0
M  V30 2913 C 287.234 4.6302 -3.67921 0
M  V30 2914 H 286.164 0.675139 -0.335714 0
M  V30 2915 H 288.815 1.21733 -1.37307 0
M  V30 2916 H 287.197 3.82234 -1.03505 0
M  V30 2917 H 288.371 2.76055 -3.68958 0
M  V30 2918 H 286.686 2.61943 -3.2369 0
M  V30 2919 H 289.283 5.02201 -1.83572 0
M  V30 2920 H 289.626 4.14709 -0.363576 0
M  V30 2921 H 290.159 3.48058 -1.92614 0
M  V30 2922 H 286.898 4.5365 -4.73161 0
M  V30 2923 H 286.418 5.12143 -3.12201 0
M  V30 2924 H 288.097 5.31994 -3.68227 0
M  V30 2925 N 288.23 0.939286 1.26551 0
M  V30 2926 C 289.646 0.641304 1.46149 0
M  V30 2927 C 289.846 -0.805964 1.84679 0
M  V30 2928 O 288.902 -1.58278 1.96734 0
M  V30 2929 C 290.215 1.6011 2.54529 0
M  V30 2930 C 291.763 1.6106 2.68382 0
M  V30 2931 C 292.238 2.55765 3.79932 0
M  V30 2932 N 293.729 2.5404 3.87322 0
M  V30 2933 C 294.464 3.24004 4.73085 0
M  V30 2934 N 293.96 4.03388 5.63249 0
M  V30 2935 N 295.753 3.12965 4.66914 0
M  V30 2936 H 287.904 1.87478 0.998285 0
M  V30 2937 H 290.167 0.805559 0.499779 0
M  V30 2938 H 289.873 2.63412 2.33039 0
M  V30 2939 H 289.747 1.35171 3.52149 0
M  V30 2940 H 292.134 0.584835 2.89247 0
M  V30 2941 H 292.215 1.90053 1.71212 0
M  V30 2942 H 291.859 3.58458 3.5982 0
M  V30 2943 H 291.789 2.24063 4.76554 0
M  V30 2944 H 294.28 1.96396 3.22858 0
M  V30 2945 H 294.593 4.5373 6.25579 0
M  V30 2946 H 292.938 4.07489 5.63008 0
M  V30 2947 H 296.129 2.50432 3.95476 0
M  V30 2948 H 296.302 3.67759 5.33533 0
M  V30 2949 N 289.708 -1.40897 0.706093 0
M  V30 2950 C 290.954 -2.01352 0.241889 0
M  V30 2951 C 291.287 -1.55832 -1.15888 0
M  V30 2952 O 290.562 -0.774145 -1.7843 0
M  V30 2953 C 290.845 -3.58752 0.311311 0
M  V30 2954 C 290.698 -4.1437 1.74978 0
M  V30 2955 C 292.017 -4.38914 -0.322922 0
M  V30 2956 H 289.136 -0.731562 0.0893687 0
M  V30 2957 H 291.778 -1.67504 0.896802 0
M  V30 2958 H 289.928 -3.87718 -0.246302 0
M  V30 2959 H 291.6 -3.96239 2.36205 0
M  V30 2960 H 289.843 -3.69016 2.28057 0
M  V30 2961 H 290.514 -5.23532 1.74981 0
M  V30 2962 H 292.99 -4.15822 0.152089 0
M  V30 2963 H 291.866 -5.48358 -0.243855 0
M  V30 2964 H 292.127 -4.19176 -1.40513 0
M  V30 2965 N 291.186 -0.45159 -1.50991 0
M  V30 2966 C 292.096 0.358431 -2.31846 0
M  V30 2967 C 293.112 1.01438 -1.41373 0
M  V30 2968 O 294.288 1.00663 -1.74439 0
M  V30 2969 C 291.353 1.43704 -3.15515 0
M  V30 2970 C 290.414 0.799742 -4.21785 0
M  V30 2971 C 289.647 1.82696 -5.01456 0
M  V30 2972 O 289.87 3.05105 -4.81941 0
M  V30 2973 O 288.804 1.40958 -5.85162 0
M  V30 2974 H 292.63 -0.302032 -3.02194 0
M  V30 2975 H 290.215 -0.213825 -1.47862 0
M  V30 2976 H 292.097 2.06227 -3.67489 0
M  V30 2977 H 290.772 2.08133 -2.47916 0
M  V30 2978 H 289.679 0.136084 -3.73852 0
M  V30 2979 H 291.012 0.198718 -4.91799 0
M  V30 2980 N 292.664 1.56529 -0.183458 0
M  V30 2981 C 293.912 1.96855 0.457452 0
M  V30 2982 C 294.233 1.07104 1.62953 0
M  V30 2983 O 293.503 0.139887 1.954 0
M  V30 2984 H 292.083 0.72693 0.171992 0
M  V30 2985 H 294.745 1.93056 -0.267476 0
M  V30 2986 H 293.841 3.01423 0.809368 0
M  V30 2987 N 294.142 -0.090211 1.57342 0
M  V30 2988 C 295.09 -1.12792 2.03422 0
M  V30 2989 C 296.084 -1.41182 0.936166 0
M  V30 2990 O 297.29 -1.40805 1.12133 0
M  V30 2991 H 293.665 -0.380986 0.648347 0
M  V30 2992 H 295.636 -0.71299 2.89757 0
M  V30 2993 C 294.385 -2.43855 2.47851 0
M  V30 2994 H 293.708 -2.22855 3.31927 0
M  V30 2995 H 295.148 -3.14955 2.83865 0
M  V30 2996 C 293.607 -3.08503 1.3538 0
M  V30 2997 O 294.137 -3.95805 0.685641 0
M  V30 2998 N 292.343 -2.68831 1.10355 0
M  V30 2999 H 291.89 -1.97929 1.64869 0
M  V30 3000 H 291.848 -3.12412 0.353031 0
M  V30 3001 N 295.62 -1.53406 -0.361157 0
M  V30 3002 C 296.55 -1.83136 -1.44857 0
M  V30 3003 C 297.531 -0.685174 -1.5569 0
M  V30 3004 O 298.716 -0.93544 -1.70186 0
M  V30 3005 C 295.846 -2.02522 -2.82138 0
M  V30 3006 C 294.8 -3.18302 -2.86126 0
M  V30 3007 C 294.126 -3.22989 -4.26125 0
M  V30 3008 C 295.426 -4.56796 -2.53248 0
M  V30 3009 H 297.12 -2.74201 -1.20226 0
M  V30 3010 H 294.666 -1.31938 -0.576922 0
M  V30 3011 H 296.619 -2.21904 -3.58241 0
M  V30 3012 H 295.343 -1.08172 -3.08166 0
M  V30 3013 H 294.002 -2.98747 -2.12475 0
M  V30 3014 H 293.65 -2.26267 -4.49235 0
M  V30 3015 H 293.35 -4.00781 -4.29708 0
M  V30 3016 H 294.874 -3.44559 -5.04094 0
M  V30 3017 H 296.288 -4.7631 -3.19064 0
M  V30 3018 H 294.685 -5.36862 -2.68141 0
M  V30 3019 H 295.755 -4.61606 -1.48484 0
M  V30 3020 N 297.098 0.621204 -1.44841 0
M  V30 3021 C 298.514 0.94048 -1.28946 0
M  V30 3022 C 298.714 2.00154 -0.23249 0
M  V30 3023 O 297.77 2.49651 0.378237 0
M  V30 3024 C 299.083 1.39433 -2.66419 0
M  V30 3025 C 300.631 1.50927 -2.74208 0
M  V30 3026 C 301.106 1.99692 -4.12174 0
M  V30 3027 N 302.597 2.06947 -4.144 0
M  V30 3028 C 303.332 2.45871 -5.1801 0
M  V30 3029 N 302.828 2.83862 -6.31977 0
M  V30 3030 N 304.621 2.46092 -5.05366 0
M  V30 3031 H 296.772 -0.0803548 -2.12248 0
M  V30 3032 H 299.035 0.0266913 -0.947624 0
M  V30 3033 H 298.741 0.688925 -3.44887 0
M  V30 3034 H 298.615 2.36347 -2.93973 0
M  V30 3035 H 301.002 2.20561 -1.96053 0
M  V30 3036 H 301.083 0.523627 -2.50383 0
M  V30 3037 H 300.727 1.30649 -4.90809 0
M  V30 3038 H 300.657 2.99146 -4.33381 0
M  V30 3039 H 303.148 1.80232 -3.32152 0
M  V30 3040 H 303.461 3.12405 -7.0684 0
M  V30 3041 H 301.806 2.8159 -6.35399 0
M  V30 3042 H 304.997 2.1581 -4.15384 0
M  V30 3043 H 305.17 2.76102 -5.86235 0
M  V30 3044 N 298.576 1.31904 0.862503 0
M  V30 3045 C 299.822 1.22197 1.61851 0
M  V30 3046 C 300.155 -0.217641 1.92977 0
M  V30 3047 O 299.43 -1.15264 1.56666 0
M  V30 3048 C 299.713 2.07378 2.94391 0
M  V30 3049 C 299.566 3.59678 2.70096 0
M  V30 3050 C 300.885 1.92891 3.95577 0
M  V30 3051 H 298.004 0.445255 0.587296 0
M  V30 3052 H 300.646 1.6177 0.99651 0
M  V30 3053 H 298.796 1.73758 3.47477 0
M  V30 3054 H 300.468 4.03472 2.23625 0
M  V30 3055 H 298.711 3.82735 2.04197 0
M  V30 3056 H 299.382 4.14595 3.64438 0
M  V30 3057 H 301.858 2.22327 3.51724 0
M  V30 3058 H 300.734 2.54781 4.86187 0
M  V30 3059 H 300.995 0.894315 4.3296 0
M  V30 3060 N 300.054 -1.07777 1.14986 0
M  V30 3061 C 300.964 -2.18404 0.856546 0
M  V30 3062 C 301.98 -1.73211 -0.165485 0
M  V30 3063 O 303.156 -2.01399 0.00755219 0
M  V30 3064 C 300.221 -3.44977 0.34526 0
M  V30 3065 C 299.282 -4.0476 1.43065 0
M  V30 3066 C 298.515 -5.25291 0.943663 0
M  V30 3067 O 298.738 -5.70004 -0.212426 0
M  V30 3068 O 297.672 -5.76638 1.72547 0
M  V30 3069 H 301.498 -2.45978 1.78125 0
M  V30 3070 H 299.083 -1.17033 0.928631 0
M  V30 3071 H 300.965 -4.21348 0.0663671 0
M  V30 3072 H 299.64 -3.18965 -0.551631 0
M  V30 3073 H 298.547 -3.29949 1.76309 0
M  V30 3074 H 299.88 -4.35035 2.30229 0
M  V30 3075 N 301.532 -0.945985 -1.26051 0
M  V30 3076 C 302.762 -0.612136 -1.97323 0
M  V30 3077 C 303.17 0.818171 -1.70595 0
M  V30 3078 O 302.513 1.55777 -0.973613 0
M  V30 3079 C 302.575 -0.780347 -3.50929 0
M  V30 3080 C 302.239 -2.18619 -4.01317 0
M  V30 3081 C 303.236 -3.16209 -4.12683 0
M  V30 3082 C 300.921 -2.50805 -4.35203 0
M  V30 3083 C 302.915 -4.44085 -4.57238 0
M  V30 3084 C 300.602 -3.78912 -4.79446 0
M  V30 3085 C 301.6 -4.75365 -4.90425 0
M  V30 3086 O 301.288 -6.01191 -5.3369 0
M  V30 3087 H 301.02 -0.229134 -0.635982 0
M  V30 3088 H 303.574 -1.27036 -1.61404 0
M  V30 3089 H 301.804 -0.0649864 -3.86645 0
M  V30 3090 H 303.493 -0.448842 -4.03411 0
M  V30 3091 H 304.259 -2.92668 -3.86744 0
M  V30 3092 H 300.138 -1.76463 -4.2589 0
M  V30 3093 H 303.682 -5.19373 -4.65723 0
M  V30 3094 H 299.579 -4.02265 -5.0483 0
M  V30 3095 H 300.347 -6.04442 -5.51899 0
M  V30 3096 N 303.011 1.40521 -0.713556 0
M  V30 3097 C 303.941 2.33381 -0.0743864 0
M  V30 3098 C 304.922 1.52784 0.747735 0
M  V30 3099 O 306.107 1.81258 0.697071 0
M  V30 3100 C 303.237 3.36748 0.849598 0
M  V30 3101 C 302.191 4.27793 0.133247 0
M  V30 3102 C 301.517 5.21679 1.17281 0
M  V30 3103 C 302.817 5.12415 -1.01134 0
M  V30 3104 H 304.511 2.87081 -0.850007 0
M  V30 3105 H 302.057 1.38034 -0.410201 0
M  V30 3106 H 304.01 4.00648 1.30612 0
M  V30 3107 H 302.734 2.81439 1.65709 0
M  V30 3108 H 301.393 3.65342 -0.303426 0
M  V30 3109 H 301.041 4.62677 1.9733 0
M  V30 3110 H 300.741 5.83435 0.698397 0
M  V30 3111 H 302.265 5.88456 1.62947 0
M  V30 3112 H 303.679 5.69781 -0.634274 0
M  V30 3113 H 302.076 5.83203 -1.41399 0
M  V30 3114 H 303.146 4.48514 -1.84292 0
M  V30 3115 N 304.489 0.459591 1.5075 0
M  V30 3116 C 305.766 -0.160371 1.94941 0
M  V30 3117 C 306.146 -1.58048 1.39943 0
M  V30 3118 O 305.494 -2.206 0.595629 0
M  V30 3119 C 305.704 -0.115432 3.48809 0
M  V30 3120 C 307.052 -0.310026 4.23467 0
M  V30 3121 O 308.076 -0.192543 3.55679 0
M  V30 3122 O 306.935 -0.546031 5.43765 0
M  V30 3123 H 304.029 -0.117925 0.818549 0
M  V30 3124 H 306.575 0.519169 1.61563 0
M  V30 3125 H 305.347 0.87652 3.81357 0
M  V30 3126 H 304.97 -0.836928 3.88692 0
M  V30 3127 N 305.967 -1.56429 0.191757 0
M  V30 3128 C 307.244 -1.89224 -0.495332 0
M  V30 3129 C 307.624 -1.10478 -1.79883 0
M  V30 3130 O 306.972 -0.204852 -2.2758 0
M  V30 3131 C 307.182 -3.41548 -0.717367 0
M  V30 3132 C 308.53 -4.11711 -1.03823 0
M  V30 3133 O 309.554 -3.4698 -0.805204 0
M  V30 3134 O 308.413 -5.2611 -1.47887 0
M  V30 3135 H 305.507 -0.785788 -0.25781 0
M  V30 3136 H 308.053 -1.68111 0.231721 0
M  V30 3137 H 306.825 -3.90772 0.203287 0
M  V30 3138 H 306.448 -3.68342 -1.497 0
M  V30 3139 N 307.445 0.0818655 -1.57387 0
M  V30 3140 C 308.861 0.436412 -1.53517 0
M  V30 3141 C 309.061 1.79758 -0.910459 0
M  V30 3142 O 308.117 2.47324 -0.508636 0
M  V30 3143 C 309.43 0.386734 -2.98203 0
M  V30 3144 C 310.978 0.467644 -3.09487 0
M  V30 3145 C 311.453 0.447978 -4.55804 0
M  V30 3146 N 312.944 0.508348 -4.60402 0
M  V30 3147 C 313.679 0.515184 -5.71081 0
M  V30 3148 N 313.175 0.477435 -6.91153 0
M  V30 3149 N 314.968 0.560988 -5.59294 0
M  V30 3150 H 307.119 -0.809546 -1.96367 0
M  V30 3151 H 309.382 -0.302733 -0.898363 0
M  V30 3152 H 309.088 -0.546539 -3.47427 0
M  V30 3153 H 308.962 1.20075 -3.57578 0
M  V30 3154 H 311.349 1.39134 -2.60242 0
M  V30 3155 H 311.43 -0.374753 -2.5304 0
M  V30 3156 H 311.074 -0.471826 -5.05704 0
M  V30 3157 H 311.004 1.30777 -5.10103 0
M  V30 3158 H 313.495 0.54218 -3.7399 0
M  V30 3159 H 313.808 0.486299 -7.71268 0
M  V30 3160 H 312.153 0.444278 -6.93579 0
M  V30 3161 H 315.344 0.5881 -4.64391 0
M  V30 3162 H 315.517 0.562846 -6.45551 0
M  V30 3163 N 308.923 1.53595 0.353017 0
M  V30 3164 C 309.871 1.81605 1.45335 0
M  V30 3165 C 310.865 0.685923 1.54892 0
M  V30 3166 O 312.071 0.869095 1.57628 0
M  V30 3167 H 308.446 0.575204 0.484401 0
M  V30 3168 H 310.417 2.73679 1.18921 0
M  V30 3169 C 309.166 2.03406 2.81995 0
M  V30 3170 H 308.489 2.89814 2.75405 0
M  V30 3171 H 309.929 2.26975 3.58132 0
M  V30 3172 C 308.388 0.816794 3.26849 0
M  V30 3173 O 308.918 0.0115856 4.01698 0
M  V30 3174 N 307.124 0.636682 2.8354 0
M  V30 3175 H 306.671 1.2931 2.22793 0
M  V30 3176 H 306.629 -0.176336 3.13905 0
M  V30 3177 N 310.401 -0.613514 1.45168 0
M  V30 3178 C 311.629 -1.39946 1.5239 0
M  V30 3179 C 312.044 -1.88167 0.154531 0
M  V30 3180 O 311.401 -1.61872 -0.842843 0
M  V30 3181 C 311.452 -2.60795 2.50337 0
M  V30 3182 O 311.173 -2.1458 3.81952 0
M  V30 3183 C 312.674 -3.53723 2.67198 0
M  V30 3184 H 309.894 -0.428593 0.516284 0
M  V30 3185 H 312.438 -0.748753 1.903 0
M  V30 3186 H 310.593 -3.21919 2.15515 0
M  V30 3187 H 311.007 -2.93055 4.34993 0
M  V30 3188 H 312.481 -4.35079 3.39721 0
M  V30 3189 H 312.958 -4.0368 1.73029 0
M  V30 3190 H 313.564 -2.98456 3.02992 0
M  V30 3191 N 311.879 -1.3236 -0.855495 0
M  V30 3192 C 313.126 -1.22872 -1.60962 0
M  V30 3193 C 313.454 0.209658 -1.93367 0
M  V30 3194 O 312.709 1.16243 -1.57436 0
M  V30 3195 C 313.008 -2.03275 -2.93963 0
M  V30 3196 C 312.674 -3.5264 -2.80991 0
M  V30 3197 C 311.336 -3.93364 -2.7716 0
M  V30 3198 C 313.688 -4.47626 -2.66983 0
M  V30 3199 C 311.016 -5.27319 -2.572 0
M  V30 3200 C 313.368 -5.81723 -2.48558 0
M  V30 3201 C 312.032 -6.2165 -2.4312 0
M  V30 3202 H 311.302 -0.44962 -0.589001 0
M  V30 3203 H 313.949 -1.63777 -0.992442 0
M  V30 3204 H 312.254 -1.55095 -3.59795 0
M  V30 3205 H 313.951 -1.93303 -3.51333 0
M  V30 3206 H 310.541 -3.20295 -2.84797 0
M  V30 3207 H 314.725 -4.17084 -2.68988 0
M  V30 3208 H 309.981 -5.57311 -2.51424 0
M  V30 3209 H 314.155 -6.5494 -2.36699 0
M  V30 3210 H 311.782 -7.25388 -2.27412 0
M  V30 3211 N 313.357 1.07166 -1.15556 0
M  V30 3212 C 314.773 1.31899 -0.898603 0
M  V30 3213 C 314.973 1.96333 0.453383 0
M  V30 3214 O 314.029 2.22438 1.19489 0
M  V30 3215 C 315.342 2.20826 -2.04099 0
M  V30 3216 C 316.89 2.34269 -2.07574 0
M  V30 3217 C 317.365 3.26546 -3.21141 0
M  V30 3218 N 318.856 3.34127 -3.20801 0
M  V30 3219 C 319.591 4.05595 -4.05315 0
M  V30 3220 N 319.087 4.79661 -4.99897 0
M  V30 3221 N 320.88 4.01555 -3.93332 0
M  V30 3222 H 313.031 0.637302 -2.02613 0
M  V30 3223 H 315.294 0.343468 -0.883591 0
M  V30 3224 H 315 1.80744 -3.01703 0
M  V30 3225 H 314.874 3.21364 -1.97496 0
M  V30 3226 H 317.261 2.73603 -1.10568 0
M  V30 3227 H 317.342 1.33429 -2.18244 0
M  V30 3228 H 316.986 2.87931 -4.184 0
M  V30 3229 H 316.916 4.27345 -3.07708 0
M  V30 3230 H 319.407 2.81336 -2.52306 0
M  V30 3231 H 319.72 5.31694 -5.60822 0
M  V30 3232 H 318.065 4.78671 -5.03884 0
M  V30 3233 H 321.256 3.42806 -3.18751 0
M  V30 3234 H 321.429 4.56987 -4.5942 0
M  V30 3235 N 314.835 0.952656 1.25548 0
M  V30 3236 C 315.785 0.442033 2.23674 0
M  V30 3237 C 316.769 -0.467632 1.53955 0
M  V30 3238 O 317.961 -0.301006 1.74422 0
M  V30 3239 C 315.09 -0.280816 3.4215 0
M  V30 3240 C 314.176 0.646803 4.19139 0
M  V30 3241 N 314.567 1.77759 4.73535 0
M  V30 3242 C 312.865 0.454617 4.43677 0
M  V30 3243 C 313.566 2.35658 5.31827 0
M  V30 3244 N 312.542 1.64333 5.18166 0
M  V30 3245 H 316.344 1.30505 2.63336 0
M  V30 3246 H 313.858 0.809904 1.40763 0
M  V30 3247 H 315.855 -0.663747 4.11582 0
M  V30 3248 H 314.515 -1.14046 3.04012 0
M  V30 3249 H 315.526 2.15949 4.7073 0
M  V30 3250 H 312.203 -0.362312 4.15925 0
M  V30 3251 H 313.593 3.30998 5.84713 0
M  V30 3252 N 316.313 -1.40141 0.720998 0
M  V30 3253 C 317.538 -2.05618 0.271258 0
M  V30 3254 C 317.963 -1.53978 -1.08039 0
M  V30 3255 O 317.321 -0.677463 -1.68167 0
M  V30 3256 C 317.369 -3.59609 0.267197 0
M  V30 3257 O 316.473 -4.05526 -0.749814 0
M  V30 3258 H 315.814 -0.651904 0.126162 0
M  V30 3259 H 318.344 -1.79439 0.982997 0
M  V30 3260 H 318.354 -4.0786 0.106744 0
M  V30 3261 H 317.029 -3.96559 1.25354 0
M  V30 3262 H 315.606 -3.68722 -0.556644 0
M  V30 3263 N 317.792 -0.46758 -1.50504 0
M  V30 3264 C 319.038 0.0887532 -2.02606 0
M  V30 3265 C 319.371 1.39686 -1.34913 0
M  V30 3266 O 318.646 1.88644 -0.473694 0
M  V30 3267 C 318.929 0.276206 -3.59039 0
M  V30 3268 C 318.782 -1.05267 -4.37309 0
M  V30 3269 C 320.101 1.03235 -4.27821 0
M  V30 3270 H 317.22 0.0307814 -0.736357 0
M  V30 3271 H 319.862 -0.612485 -1.79857 0
M  V30 3272 H 318.012 0.8735 -3.78553 0
M  V30 3273 H 319.684 -1.68628 -4.29374 0
M  V30 3274 H 317.927 -1.65015 -4.01189 0
M  V30 3275 H 318.598 -0.875197 -5.45018 0
M  V30 3276 H 321.074 0.526111 -4.12761 0
M  V30 3277 H 319.95 1.1323 -5.37094 0
M  V30 3278 H 320.211 2.06806 -3.90748 0
M  V30 3279 N 319.27 1.56325 -0.20005 0
M  V30 3280 C 320.516 1.98012 0.438059 0
M  V30 3281 C 320.849 1.08702 1.60927 0
M  V30 3282 O 320.124 0.140064 1.93995 0
M  V30 3283 C 320.407 3.48841 0.893419 0
M  V30 3284 C 320.26 4.48928 -0.279947 0
M  V30 3285 C 321.579 4.03498 1.75719 0
M  V30 3286 H 318.698 0.719918 0.157757 0
M  V30 3287 H 321.34 1.87743 -0.291968 0
M  V30 3288 H 319.49 3.57723 1.51547 0
M  V30 3289 H 321.162 4.52079 -0.91772 0
M  V30 3290 H 319.405 4.23694 -0.930919 0
M  V30 3291 H 320.076 5.5194 0.0812601 0
M  V30 3292 H 322.552 3.97427 1.23253 0
M  V30 3293 H 321.428 5.09393 2.04476 0
M  V30 3294 H 321.689 3.4906 2.71311 0
M  V30 3295 N 320.748 -0.0735177 1.57428 0
M  V30 3296 C 321.994 -0.774145 1.87443 0
M  V30 3297 C 322.327 -1.77311 0.792103 0
M  V30 3298 O 321.602 -1.93492 -0.197793 0
M  V30 3299 C 321.885 -1.48367 3.28115 0
M  V30 3300 C 321.738 -0.501227 4.46999 0
M  V30 3301 C 323.057 -2.429 3.66998 0
M  V30 3302 H 320.176 -0.279971 0.681752 0
M  V30 3303 H 322.818 -0.0373616 1.89963 0
M  V30 3304 H 320.968 -2.11171 3.26097 0
M  V30 3305 H 322.64 0.121468 4.6114 0
M  V30 3306 H 320.883 0.183593 4.33411 0
M  V30 3307 H 321.554 -1.03526 5.42205 0
M  V30 3308 H 324.03 -1.90175 3.70098 0
M  V30 3309 H 322.906 -2.89549 4.66318 0
M  V30 3310 H 323.167 -3.27628 2.96837 0
M  V30 3311 N 322.226 -1.5378 -0.344866 0
M  V30 3312 C 323.637 -1.62428 -0.920552 0
M  V30 3313 C 323.988 -0.504747 -1.89596 0
M  V30 3314 O 323.113 0.365711 -2.13287 0
M  V30 3315 C 323.708 -2.94419 -1.67639 0
M  V30 3316 C 322.267 -3.05333 -2.20111 0
M  V30 3317 C 321.414 -2.57866 -1.01982 0
M  V30 3318 H 324.365 -1.58222 -0.123042 0
M  V30 3319 H 324.386 -2.83384 -2.53917 0
M  V30 3320 H 323.898 -3.7588 -0.966224 0
M  V30 3321 H 321.999 -2.28502 -2.94308 0
M  V30 3322 H 322.112 -4.10778 -2.46573 0
M  V30 3323 H 320.476 -2.13241 -1.39285 0
M  V30 3324 H 321.259 -3.41765 -0.324308 0
M  V30 3325 N 323.704 0.605807 -1.45491 0
M  V30 3326 C 324.934 1.38934 -1.52908 0
M  V30 3327 C 325.342 1.88513 -0.161086 0
M  V30 3328 O 324.685 1.62962 0.847891 0
M  V30 3329 C 324.747 2.62737 -2.45376 0
M  V30 3330 C 324.411 2.34785 -3.92078 0
M  V30 3331 C 325.408 1.95038 -4.8193 0
M  V30 3332 C 323.093 2.47642 -4.37011 0
M  V30 3333 C 325.087 1.68511 -6.14722 0
M  V30 3334 C 322.774 2.20728 -5.69844 0
M  V30 3335 C 323.772 1.81225 -6.58519 0
M  V30 3336 O 323.46 1.54627 -7.88889 0
M  V30 3337 H 323.192 0.431629 -0.520262 0
M  V30 3338 H 325.746 0.74573 -1.91384 0
M  V30 3339 H 323.976 3.29824 -2.01874 0
M  V30 3340 H 325.665 3.24783 -2.43456 0
M  V30 3341 H 326.431 1.84639 -4.48479 0
M  V30 3342 H 322.31 2.77356 -3.68232 0
M  V30 3343 H 325.854 1.37602 -6.83894 0
M  V30 3344 H 321.751 2.30744 -6.02849 0
M  V30 3345 H 322.519 1.68665 -8.00933 0
M  V30 3346 N 325.182 1.32811 0.848464 0
M  V30 3347 C 326.092 1.24278 1.98978 0
M  V30 3348 C 327.108 0.155176 1.73307 0
M  V30 3349 O 328.284 0.376999 1.9784 0
M  V30 3350 C 325.349 0.972444 3.32783 0
M  V30 3351 C 324.41 2.14911 3.71634 0
M  V30 3352 C 323.643 1.89157 4.99054 0
M  V30 3353 O 323.866 0.837165 5.64223 0
M  V30 3354 O 322.8 2.75433 5.35183 0
M  V30 3355 H 326.626 2.20238 2.09115 0
M  V30 3356 H 324.211 1.12762 0.980052 0
M  V30 3357 H 326.093 0.838432 4.12975 0
M  V30 3358 H 324.768 0.043051 3.23671 0
M  V30 3359 H 323.675 2.33862 2.91992 0
M  V30 3360 H 325.008 3.06151 3.85399 0
M  V30 3361 N 326.66 -1.06551 1.16123 0
M  V30 3362 C 328.071 -1.60768 0.949232 0
M  V30 3363 C 328.422 -1.89523 -0.507508 0
M  V30 3364 O 327.547 -1.66671 -1.38021 0
M  V30 3365 C 328.142 -2.92086 1.71671 0
M  V30 3366 C 326.701 -3.43015 1.54977 0
M  V30 3367 C 325.848 -2.16947 1.72711 0
M  V30 3368 H 328.799 -0.895354 1.31031 0
M  V30 3369 H 328.82 -3.6138 1.19099 0
M  V30 3370 H 328.332 -2.71127 2.7769 0
M  V30 3371 H 326.433 -3.69039 0.513873 0
M  V30 3372 H 326.546 -4.18516 2.33198 0
M  V30 3373 H 324.91 -2.27041 1.15431 0
M  V30 3374 H 325.693 -1.98473 2.80113 0
M  V30 3375 N 328.138 -0.959301 -1.25041 0
M  V30 3376 C 329.549 -0.65667 -1.74771 0
M  V30 3377 C 329.9 0.827852 -1.77879 0
M  V30 3378 O 329.025 1.64783 -1.40269 0
M  V30 3379 C 329.62 -1.1853 -3.1739 0
M  V30 3380 C 328.179 -0.932734 -3.6466 0
M  V30 3381 C 327.326 -1.32558 -2.43564 0
M  V30 3382 H 330.277 -1.13558 -1.10862 0
M  V30 3383 H 330.298 -0.547582 -3.76539 0
M  V30 3384 H 329.81 -2.26576 -3.15095 0
M  V30 3385 H 327.911 0.13257 -3.72364 0
M  V30 3386 H 328.024 -1.57248 -4.52559 0
M  V30 3387 H 326.388 -0.743956 -2.43593 0
M  V30 3388 H 327.171 -2.41537 -2.43957 0
M  V30 3389 N 329.616 1.39756 -0.72842 0
M  V30 3390 C 330.526 2.34444 -0.0855374 0
M  V30 3391 C 331.542 1.57976 0.729356 0
M  V30 3392 O 332.718 1.90301 0.659346 0
M  V30 3393 C 329.783 3.36965 0.815798 0
M  V30 3394 C 328.844 4.29299 -0.0105996 0
M  V30 3395 C 328.077 5.26923 0.84781 0
M  V30 3396 O 328.3 5.30859 2.08673 0
M  V30 3397 O 327.234 6.01249 0.279969 0
M  V30 3398 H 331.06 2.91065 -0.866892 0
M  V30 3399 H 328.645 1.4117 -0.48902 0
M  V30 3400 H 330.527 3.99804 1.33171 0
M  V30 3401 H 329.202 2.82739 1.57608 0
M  V30 3402 H 328.109 3.69703 -0.571877 0
M  V30 3403 H 329.442 4.86712 -0.73295 0
M  V30 3404 N 331.094 0.475555 1.50254 0
M  V30 3405 C 332.34 -0.0780073 2.0265 0
M  V30 3406 C 332.673 -1.38968 1.35652 0
M  V30 3407 O 331.948 -1.8839 0.483691 0
M  V30 3408 C 332.231 -0.257161 3.59181 0
M  V30 3409 C 332.084 1.07585 4.36744 0
M  V30 3410 C 333.403 -1.00965 4.28362 0
M  V30 3411 H 330.522 -0.0268758 0.73651 0
M  V30 3412 H 333.164 0.622015 1.7953 0
M  V30 3413 H 331.314 -0.853412 3.79011 0
M  V30 3414 H 332.986 1.70902 4.28474 0
M  V30 3415 H 331.229 1.6714 4.00308 0
M  V30 3416 H 331.9 0.904088 5.44546 0
M  V30 3417 H 334.376 -0.504214 4.13034 0
M  V30 3418 H 333.252 -1.10381 5.37687 0
M  V30 3419 H 333.513 -2.04731 3.91839 0
M  V30 3420 N 332.573 -1.56217 0.208337 0
M  V30 3421 C 333.821 -1.97558 -0.426076 0
M  V30 3422 C 334.142 -1.09683 -1.61229 0
M  V30 3423 O 333.412 -0.170956 -1.95153 0
M  V30 3424 H 331.992 -0.729575 -0.160405 0
M  V30 3425 H 334.654 -1.92606 0.298155 0
M  V30 3426 H 333.75 -3.02672 -0.761312 0
M  V30 3427 N 334.051 0.0651679 -1.57465 0
M  V30 3428 C 335.276 0.779605 -1.9219 0
M  V30 3429 C 335.701 1.69988 -0.805333 0
M  V30 3430 O 335.059 1.79685 0.241435 0
M  V30 3431 C 335.107 1.54364 -3.2589 0
M  V30 3432 O 334.211 2.65474 -3.1559 0
M  V30 3433 H 333.552 0.212249 -0.629163 0
M  V30 3434 H 336.082 0.0314294 -2.04576 0
M  V30 3435 H 336.092 1.92146 -3.59922 0
M  V30 3436 H 334.767 0.868457 -4.06732 0
M  V30 3437 H 333.344 2.30501 -2.93128 0
M  V30 3438 N 335.529 1.53961 0.336706 0
M  V30 3439 C 336.806 1.62171 1.09361 0
M  V30 3440 C 337.186 0.447263 2.06307 0
M  V30 3441 O 336.534 -0.559802 2.21537 0
M  V30 3442 C 336.744 2.98565 1.80721 0
M  V30 3443 C 338.092 3.54157 2.34218 0
M  V30 3444 O 339.116 3.00784 1.90807 0
M  V30 3445 O 337.975 4.47528 3.13657 0
M  V30 3446 H 335.069 0.6562 0.503319 0
M  V30 3447 H 337.615 1.66307 0.33765 0
M  V30 3448 H 336.387 3.75482 1.10132 0
M  V30 3449 H 336.01 2.9805 2.63158 0
M  V30 3450 N 337.007 -0.598083 1.45811 0
M  V30 3451 C 338.247 -1.36802 1.5187 0
M  V30 3452 C 338.611 -1.9133 0.160224 0
M  V30 3453 O 339.812 -2.6863 0.0955302 0
M  V30 3454 C 338.083 -2.47835 2.57513 0
M  V30 3455 S 339.642 -3.35458 2.82866 0
M  V30 3456 H 336.46 -0.466278 0.536755 0
M  V30 3457 H 339.062 -0.689152 1.82951 0
M  V30 3458 H 337.766 -2.06141 3.54872 0
M  V30 3459 H 337.297 -3.20512 2.28114 0
M  V30 3460 H 339.312 -4.46251 2.16967 0
M  V30 3461 N 338.485 -1.33259 -0.841409 0
M  V30 3462 C 339.713 -1.27605 -1.62864 0
M  V30 3463 C 340.128 0.153507 -1.88175 0
M  V30 3464 O 339.485 1.09485 -1.46011 0
M  V30 3465 C 339.536 -2.04596 -2.98031 0
M  V30 3466 O 339.257 -3.41975 -2.73834 0
M  V30 3467 C 340.758 -2.06122 -3.92465 0
M  V30 3468 H 337.978 -0.439718 -0.506842 0
M  V30 3469 H 340.522 -1.75591 -1.04824 0
M  V30 3470 H 338.677 -1.60299 -3.5268 0
M  V30 3471 H 339.091 -3.81549 -3.59889 0
M  V30 3472 H 340.565 -2.64451 -4.84531 0
M  V30 3473 H 341.042 -1.05083 -4.26444 0
M  V30 3474 H 341.648 -2.50427 -3.43753 0
M  V30 3475 N 339.963 1.05934 -1.16686 0
M  V30 3476 C 341.191 1.8249 -0.974929 0
M  V30 3477 C 341.606 1.82679 0.476861 0
M  V30 3478 O 340.963 1.2486 1.33103 0
M  V30 3479 C 341.014 3.28943 -1.49929 0
M  V30 3480 O 340.735 3.28886 -2.89423 0
M  V30 3481 C 342.236 4.22215 -1.35089 0
M  V30 3482 H 339.456 0.575295 -0.345365 0
M  V30 3483 H 342 1.33631 -1.548 0
M  V30 3484 H 340.155 3.751 -0.968423 0
M  V30 3485 H 340.569 4.20493 -3.13506 0
M  V30 3486 H 342.043 5.22987 -1.76603 0
M  V30 3487 H 342.52 4.38195 -0.296935 0
M  V30 3488 H 343.126 3.81907 -1.87155 0
M  V30 3489 N 341.441 0.965919 1.2453 0
M  V30 3490 C 342.69 0.622437 1.91856 0
M  V30 3491 C 343.003 -0.846006 1.76358 0
M  V30 3492 O 344.209 -1.29993 2.38357 0
M  V30 3493 C 342.665 1.0626 3.43856 0
M  V30 3494 C 342.273 2.55437 3.68043 0
M  V30 3495 C 344.017 0.792183 4.17043 0
M  V30 3496 C 341.924 2.93196 5.13605 0
M  V30 3497 H 340.854 0.229092 0.718354 0
M  V30 3498 H 343.505 1.17189 1.41206 0
M  V30 3499 H 341.887 0.441476 3.93531 0
M  V30 3500 H 343.061 3.22665 3.28974 0
M  V30 3501 H 341.376 2.8007 3.08139 0
M  V30 3502 H 343.973 1.05031 5.24283 0
M  V30 3503 H 344.316 -0.271584 4.15413 0
M  V30 3504 H 344.849 1.37419 3.73311 0
M  V30 3505 H 341.588 3.98636 5.20355 0
M  V30 3506 H 341.108 2.30651 5.53679 0
M  V30 3507 H 342.787 2.83004 5.81823 0
M  V30 3508 N 342.919 -1.39368 0.735821 0
M  V30 3509 C 343.869 -2.27885 0.0724287 0
M  V30 3510 C 344.853 -1.44301 -0.711756 0
M  V30 3511 O 346.045 -1.67206 -0.58063 0
M  V30 3512 C 343.174 -3.33029 -0.833454 0
M  V30 3513 C 342.26 -4.24078 -0.0433749 0
M  V30 3514 N 342.651 -4.96138 0.983903 0
M  V30 3515 C 340.949 -4.45164 -0.272905 0
M  V30 3516 C 341.65 -5.63069 1.4604 0
M  V30 3517 N 340.626 -5.37991 0.778857 0
M  V30 3518 H 344.428 -2.81052 0.859467 0
M  V30 3519 H 341.942 -1.5206 0.570227 0
M  V30 3520 H 343.939 -3.95311 -1.32419 0
M  V30 3521 H 342.599 -2.81421 -1.61964 0
M  V30 3522 H 343.61 -4.9958 1.36528 0
M  V30 3523 H 340.287 -4.04497 -1.03383 0
M  V30 3524 H 341.677 -6.30755 2.31511 0
M  V30 3525 N 344.397 -0.483516 -1.5 0
M  V30 3526 C 345.627 0.0643896 -2.065 0
M  V30 3527 C 346.035 1.32949 -1.34615 0
M  V30 3528 O 345.378 1.79003 -0.412756 0
M  V30 3529 C 345.44 0.405983 -3.572 0
M  V30 3530 C 345.104 -0.758875 -4.50655 0
M  V30 3531 C 346.101 -1.64445 -4.93208 0
M  V30 3532 C 343.786 -0.952725 -4.93182 0
M  V30 3533 C 345.78 -2.70818 -5.77006 0
M  V30 3534 C 343.467 -2.01966 -5.76761 0
M  V30 3535 C 344.465 -2.89574 -6.18576 0
M  V30 3536 O 344.153 -3.94429 -7.00486 0
M  V30 3537 H 343.885 -0.00934786 -0.675935 0
M  V30 3538 H 346.439 -0.674959 -1.93993 0
M  V30 3539 H 344.669 1.19869 -3.67652 0
M  V30 3540 H 346.358 0.890433 -3.96013 0
M  V30 3541 H 347.124 -1.50643 -4.61012 0
M  V30 3542 H 343.003 -0.280247 -4.60147 0
M  V30 3543 H 346.547 -3.3923 -6.09565 0
M  V30 3544 H 342.444 -2.1577 -6.0837 0
M  V30 3545 H 343.212 -3.91568 -7.1876 0
M  V30 3546 N 345.875 1.56104 -0.216619 0
M  V30 3547 C 346.823 2.21434 0.712036 0
M  V30 3548 C 347.817 1.19218 1.20348 0
M  V30 3549 O 349.023 1.3731 1.16387 0
M  V30 3550 H 345.398 0.70992 0.248026 0
M  V30 3551 H 347.369 2.98083 0.137558 0
M  V30 3552 C 346.118 2.90434 1.91163 0
M  V30 3553 H 345.441 3.68842 1.54258 0
M  V30 3554 H 346.881 3.39552 2.5393 0
M  V30 3555 C 345.34 1.92635 2.76394 0
M  V30 3556 O 345.87 1.44017 3.74996 0
M  V30 3557 N 344.076 1.60392 2.42328 0
M  V30 3558 H 343.623 2.00122 1.622 0
M  V30 3559 H 343.581 0.952159 2.99635 0
M  V30 3560 N 347.353 -0.0568162 1.57498 0
M  V30 3561 C 348.583 -0.764515 1.91934 0
M  V30 3562 C 348.991 -1.70877 0.81227 0
M  V30 3563 O 348.334 -1.82351 -0.222213 0
M  V30 3564 C 348.396 -1.5994 3.21962 0
M  V30 3565 C 348.06 -0.822925 4.4953 0
M  V30 3566 C 349.057 -0.135464 5.19723 0
M  V30 3567 C 346.742 -0.785666 4.96117 0
M  V30 3568 C 348.736 0.578861 6.34766 0
M  V30 3569 C 346.423 -0.0675784 6.11063 0
M  V30 3570 C 347.421 0.613471 6.80239 0
M  V30 3571 O 347.109 1.31996 7.92989 0
M  V30 3572 H 346.841 -0.221647 0.63863 0
M  V30 3573 H 349.395 -0.0268218 2.05382 0
M  V30 3574 H 347.625 -2.38026 3.04763 0
M  V30 3575 H 349.314 -2.18715 3.41934 0
M  V30 3576 H 350.08 -0.155458 4.84751 0
M  V30 3577 H 345.959 -1.30524 4.42136 0
M  V30 3578 H 349.503 1.111 6.88696 0
M  V30 3579 H 345.4 -0.0455636 6.45484 0
M  V30 3580 H 346.168 1.23077 8.09194 0
M  V30 3581 N 348.832 -1.54138 -0.328536 0
M  V30 3582 C 349.765 -1.78014 -1.4278 0
M  V30 3583 C 350.743 -0.629889 -1.49904 0
M  V30 3584 O 351.927 -0.866763 -1.6739 0
M  V30 3585 C 349.054 -1.89225 -2.80912 0
M  V30 3586 C 348.1 -3.11483 -2.91343 0
M  V30 3587 S 348.933 -4.70201 -2.56263 0
M  V30 3588 C 350.089 -4.84312 -3.96476 0
M  V30 3589 H 350.322 -2.70974 -1.22313 0
M  V30 3590 H 347.855 -1.45197 -0.525084 0
M  V30 3591 H 349.813 -1.9637 -3.60485 0
M  V30 3592 H 348.474 -0.972518 -2.98665 0
M  V30 3593 H 347.667 -3.16046 -3.92595 0
M  V30 3594 H 347.269 -3.02642 -2.19736 0
M  V30 3595 H 349.561 -4.66643 -4.91173 0
M  V30 3596 H 350.504 -5.86411 -3.96898 0
M  V30 3597 H 350.912 -4.12652 -3.85199 0
M  V30 3598 N 350.31 0.590341 -1.46126 0
M  V30 3599 C 351.55 1.35995 -1.52593 0
M  V30 3600 C 351.914 1.91243 -0.170368 0
M  V30 3601 O 353.115 2.68576 -0.109775 0
M  V30 3602 C 351.386 2.46465 -2.58823 0
M  V30 3603 S 352.945 3.33953 -2.84641 0
M  V30 3604 H 349.763 0.463425 -0.53922 0
M  V30 3605 H 352.365 0.67944 -1.83314 0
M  V30 3606 H 351.069 2.04256 -3.5596 0
M  V30 3607 H 350.6 3.19297 -2.2981 0
M  V30 3608 H 352.615 4.45094 -2.19331 0
M  V30 3609 N 351.788 1.33704 0.83433 0
M  V30 3610 C 352.736 1.24323 1.96587 0
M  V30 3611 C 353.73 0.143659 1.6879 0
M  V30 3612 O 354.936 0.30791 1.77347 0
M  V30 3613 H 351.311 0.385925 0.645419 0
M  V30 3614 H 353.282 2.19978 2.01624 0
M  V30 3615 C 352.031 1.00394 3.32891 0
M  V30 3616 H 351.354 1.84231 3.54822 0
M  V30 3617 H 352.794 0.97862 4.12552 0
M  V30 3618 C 351.253 -0.293047 3.35623 0
M  V30 3619 O 351.783 -1.29823 3.80143 0
M  V30 3620 N 349.989 -0.322174 2.88809 0
M  V30 3621 H 349.536 0.496379 2.52772 0
M  V30 3622 H 349.494 -1.18977 2.91019 0
M  V30 3623 N 353.266 -1.05314 1.17247 0
M  V30 3624 C 354.491 -1.82509 0.985148 0
M  V30 3625 C 354.916 -1.82343 -0.461788 0
M  V30 3626 O 354.274 -1.23151 -1.33055 0
M  V30 3627 C 354.322 -3.26566 1.52929 0
M  V30 3628 O 353.426 -4.05666 0.742225 0
M  V30 3629 H 352.767 -0.564347 0.349869 0
M  V30 3630 H 355.297 -1.32718 1.55715 0
M  V30 3631 H 355.307 -3.77369 1.55103 0
M  V30 3632 H 353.982 -3.26001 2.58256 0
M  V30 3633 H 352.559 -3.64397 0.791794 0
M  V30 3634 N 354.744 -0.972509 -1.24016 0
M  V30 3635 C 355.969 -0.654417 -1.96805 0
M  V30 3636 C 356.394 0.770398 -1.716 0
M  V30 3637 O 355.752 1.52361 -0.982647 0
M  V30 3638 C 355.8 -0.941031 -3.48105 0
M  V30 3639 O 354.904 -0.0289472 -4.1239 0
M  V30 3640 H 354.245 -0.24692 -0.616382 0
M  V30 3641 H 356.775 -1.30396 -1.57664 0
M  V30 3642 H 356.785 -0.87452 -3.98517 0
M  V30 3643 H 355.46 -1.97939 -3.65777 0
M  V30 3644 H 354.037 -0.149192 -3.72601 0
M  V30 3645 N 356.222 1.38976 -0.743202 0
M  V30 3646 C 357.462 2.02193 -0.29954 0
M  V30 3647 C 357.826 1.5771 1.09506 0
M  V30 3648 O 359.027 2.13184 1.63726 0
M  V30 3649 C 357.298 3.55077 -0.406822 0
M  V30 3650 S 358.857 4.38778 -0.0442109 0
M  V30 3651 H 355.675 0.701335 -0.116836 0
M  V30 3652 H 358.277 1.69651 -0.971529 0
M  V30 3653 H 356.981 3.84942 -1.42295 0
M  V30 3654 H 356.512 3.92383 0.282707 0
M  V30 3655 H 358.527 4.82222 1.16947 0
M  V30 3656 N 357.7 0.491464 1.49741 0
M  V30 3657 C 358.633 -0.338464 2.25676 0
M  V30 3658 C 359.611 -0.978676 1.29849 0
M  V30 3659 O 360.795 -1.01064 1.59117 0
M  V30 3660 C 357.922 -1.47588 3.04853 0
M  V30 3661 C 356.968 -0.951 4.15762 0
M  V30 3662 S 357.801 0.150626 5.35288 0
M  V30 3663 C 358.957 -0.990178 6.18018 0
M  V30 3664 H 359.19 0.306068 2.9572 0
M  V30 3665 H 356.723 0.276622 1.51902 0
M  V30 3666 H 358.681 -2.12764 3.51058 0
M  V30 3667 H 357.342 -2.09199 2.34296 0
M  V30 3668 H 356.535 -1.80311 4.70642 0
M  V30 3669 H 356.137 -0.376607 3.72099 0
M  V30 3670 H 358.429 -1.89748 6.50386 0
M  V30 3671 H 359.372 -0.480205 7.0647 0
M  V30 3672 H 359.78 -1.25321 5.50413 0
M  V30 3673 N 359.178 -1.55987 0.224894 0
M  V30 3674 C 360.426 -1.97998 -0.405099 0
M  V30 3675 C 360.747 -1.11387 -1.60056 0
M  V30 3676 O 360.017 -0.191645 -1.9496 0
M  V30 3677 H 358.597 -0.731235 -0.152658 0
M  V30 3678 H 361.259 -1.92279 0.318567 0
M  V30 3679 H 360.355 -3.03463 -0.729167 0
M  V30 3680 N 360.656 0.0484629 -1.57525 0
M  V30 3681 C 361.904 0.741657 -1.88 0
M  V30 3682 C 362.225 1.76918 -0.820054 0
M  V30 3683 O 361.495 1.95335 0.148661 0
M  V30 3684 H 360.075 0.276908 -0.69378 0
M  V30 3685 H 362.737 0.019013 -1.94891 0
M  V30 3686 H 361.833 1.24336 -2.86264 0
M  V30 3687 N 362.134 1.5431 0.320358 0
M  V30 3688 C 363.067 1.78769 1.41834 0
M  V30 3689 C 364.045 0.63783 1.49568 0
M  V30 3690 O 365.229 0.875628 1.66928 0
M  V30 3691 C 362.356 1.90712 2.79905 0
M  V30 3692 C 361.402 3.13023 2.89687 0
M  V30 3693 S 362.235 4.71554 2.53766 0
M  V30 3694 C 363.391 4.86408 3.93902 0
M  V30 3695 H 363.624 2.71619 1.20874 0
M  V30 3696 H 361.157 1.45474 0.517377 0
M  V30 3697 H 363.115 1.98279 3.59438 0
M  V30 3698 H 361.776 0.988343 2.98145 0
M  V30 3699 H 360.969 3.18124 3.90913 0
M  V30 3700 H 360.571 3.03803 2.18128 0
M  V30 3701 H 362.863 4.69241 4.88691 0
M  V30 3702 H 363.806 5.88508 3.93782 0
M  V30 3703 H 364.214 4.14689 3.83005 0
M  V30 3704 N 363.613 -0.582584 1.46437 0
M  V30 3705 C 364.561 -1.71272 1.5738 0
M  V30 3706 C 365.555 -1.63524 0.44229 0
M  V30 3707 O 366.761 -1.69016 0.619166 0
M  V30 3708 H 363.136 -0.566273 0.494813 0
M  V30 3709 H 365.107 -1.59174 2.52401 0
M  V30 3710 C 363.856 -3.09658 1.58136 0
M  V30 3711 H 363.179 -3.16291 2.44541 0
M  V30 3712 H 364.619 -3.88494 1.69847 0
M  V30 3713 C 363.078 -3.3547 0.310026 0
M  V30 3714 O 363.608 -3.97199 -0.599683 0
M  V30 3715 N 361.814 -2.89925 0.197901 0
M  V30 3716 H 361.361 -2.39873 0.93909 0
M  V30 3717 H 361.319 -3.07568 -0.65185 0
M  V30 3718 N 365.091 -1.34144 -0.827227 0
M  V30 3719 C 366.507 -1.13732 -1.11969 0
M  V30 3720 C 366.707 0.0640463 -2.01398 0
M  V30 3721 O 365.763 0.740856 -2.41387 0
M  V30 3722 C 367.076 -2.43047 -1.77055 0
M  V30 3723 C 368.624 -2.49063 -1.89569 0
M  V30 3724 C 369.099 -3.78369 -2.58072 0
M  V30 3725 N 370.59 -3.79505 -2.65575 0
M  V30 3726 C 371.325 -4.76274 -3.19297 0
M  V30 3727 N 370.821 -5.83424 -3.73616 0
M  V30 3728 N 372.614 -4.63735 -3.17658 0
M  V30 3729 H 364.765 -2.11126 -0.232296 0
M  V30 3730 H 367.028 -0.933424 -0.165602 0
M  V30 3731 H 366.734 -3.31025 -1.18807 0
M  V30 3732 H 366.608 -2.56066 -2.76966 0
M  V30 3733 H 368.995 -1.61527 -2.46968 0
M  V30 3734 H 369.076 -2.39975 -0.885745 0
M  V30 3735 H 368.72 -4.66293 -2.01329 0
M  V30 3736 H 368.65 -3.84737 -3.59562 0
M  V30 3737 H 371.141 -3.02074 -2.27068 0
M  V30 3738 H 371.454 -6.53282 -4.12846 0
M  V30 3739 H 369.799 -5.87143 -3.71871 0
M  V30 3740 H 372.99 -3.79177 -2.74486 0
M  V30 3741 H 373.163 -5.39318 -3.59221 0
M  V30 3742 N 366.569 1.04691 -1.17803 0
M  V30 3743 C 367.985 1.29963 -0.926379 0
M  V30 3744 C 368.185 1.97251 0.411635 0
M  V30 3745 O 367.241 2.24922 1.14744 0
M  V30 3746 C 368.554 2.16447 -2.08737 0
M  V30 3747 C 370.102 2.29814 -2.12496 0
M  V30 3748 C 370.577 3.19661 -3.27995 0
M  V30 3749 N 372.068 3.27247 -3.27816 0
M  V30 3750 C 372.803 3.96906 -4.13827 0
M  V30 3751 N 372.299 4.6895 -5.09959 0
M  V30 3752 N 374.092 3.93122 -4.01761 0
M  V30 3753 H 366.243 0.594182 -2.0392 0
M  V30 3754 H 368.506 0.324649 -0.890678 0
M  V30 3755 H 368.212 1.74304 -3.05469 0
M  V30 3756 H 368.086 3.17103 -2.04268 0
M  V30 3757 H 370.473 2.71196 -1.16347 0
M  V30 3758 H 370.554 1.2877 -2.21025 0
M  V30 3759 H 370.198 2.78991 -4.24413 0
M  V30 3760 H 370.128 4.20722 -3.16703 0
M  V30 3761 H 372.619 2.75921 -2.58217 0
M  V30 3762 H 372.932 5.19679 -5.71974 0
M  V30 3763 H 371.277 4.67875 -5.13924 0
M  V30 3764 H 374.468 3.35967 -3.2595 0
M  V30 3765 H 374.641 4.47139 -4.6901 0
M  V30 3766 N 368.047 0.979072 1.23499 0
M  V30 3767 C 369.458 0.684391 1.73704 0
M  V30 3768 C 369.809 -0.799448 1.79174 0
M  V30 3769 O 368.934 -1.62531 1.42873 0
M  V30 3770 C 369.529 1.23564 3.15464 0
M  V30 3771 C 368.088 0.99063 3.6313 0
M  V30 3772 C 367.235 1.36416 2.41425 0
M  V30 3773 H 370.186 1.15307 1.09041 0
M  V30 3774 H 370.207 0.607417 3.7562 0
M  V30 3775 H 369.719 2.31561 3.1145 0
M  V30 3776 H 367.82 -0.0733136 3.72528 0
M  V30 3777 H 367.933 1.64427 4.5 0
M  V30 3778 H 366.297 0.782616 2.42378 0
M  V30 3779 H 367.08 2.45387 2.40083 0
M  V30 3780 N 369.525 -1.3858 0.750561 0
M  V30 3781 C 370.774 -1.99424 0.302172 0
M  V30 3782 C 371.087 -1.60254 -1.12152 0
M  V30 3783 O 372.293 -2.14046 -1.67023 0
M  V30 3784 C 370.749 -3.56558 0.489307 0
M  V30 3785 C 370.357 -4.04682 1.92189 0
M  V30 3786 C 372.101 -4.24374 0.103478 0
M  V30 3787 C 370.008 -5.54446 2.05775 0
M  V30 3788 H 368.938 -0.746046 0.10923 0
M  V30 3789 H 371.589 -1.58383 0.92667 0
M  V30 3790 H 369.971 -3.95472 -0.204329 0
M  V30 3791 H 371.145 -3.77065 2.64875 0
M  V30 3792 H 369.46 -3.4958 2.26236 0
M  V30 3793 H 372.057 -5.34384 0.183787 0
M  V30 3794 H 372.4 -4.05468 -0.943481 0
M  V30 3795 H 372.933 -3.90688 0.748854 0
M  V30 3796 H 369.672 -5.78252 3.08714 0
M  V30 3797 H 369.192 -5.83816 1.37546 0
M  V30 3798 H 370.871 -6.20099 1.84626 0
M  V30 3799 N 371.003 -0.499398 -1.49478 0
M  V30 3800 C 371.933 0.269244 -2.31943 0
M  V30 3801 C 372.914 0.964054 -1.40143 0
M  V30 3802 O 374.099 0.955767 -1.69052 0
M  V30 3803 C 371.229 1.33504 -3.20615 0
M  V30 3804 C 370.183 0.760202 -4.21195 0
M  V30 3805 C 369.509 1.9264 -4.98792 0
M  V30 3806 C 370.809 -0.247661 -5.21712 0
M  V30 3807 H 372.503 -0.419082 -2.96452 0
M  V30 3808 H 370.049 -0.202988 -1.42562 0
M  V30 3809 H 372.002 1.88048 -3.77115 0
M  V30 3810 H 370.726 2.05253 -2.54045 0
M  V30 3811 H 369.385 0.23653 -3.65836 0
M  V30 3812 H 369.033 2.63154 -4.28671 0
M  V30 3813 H 368.733 1.54785 -5.66847 0
M  V30 3814 H 370.257 2.4762 -5.58137 0
M  V30 3815 H 371.671 0.209579 -5.72917 0
M  V30 3816 H 370.068 -0.541962 -5.97648 0
M  V30 3817 H 371.138 -1.16409 -4.7072 0
M  V30 3818 N 372.481 1.55866 -0.233164 0
M  V30 3819 C 373.709 2.02998 0.399905 0
M  V30 3820 C 374.124 1.11274 1.52524 0
M  V30 3821 O 373.481 0.124528 1.82075 0
M  V30 3822 C 373.532 3.4958 0.920639 0
M  V30 3823 O 373.253 4.37808 -0.159834 0
M  V30 3824 C 374.754 4.12411 1.62578 0
M  V30 3825 H 371.974 0.664006 0.0966281 0
M  V30 3826 H 374.518 2.0143 -0.353013 0
M  V30 3827 H 372.673 3.51727 1.62379 0
M  V30 3828 H 373.087 5.23981 0.23337 0
M  V30 3829 H 374.561 5.16711 1.94201 0
M  V30 3830 H 375.038 3.5809 2.54299 0
M  V30 3831 H 375.644 4.14148 0.967553 0
M  V30 3832 N 373.959 -0.0401083 1.57549 0
M  V30 3833 C 375.208 -0.732108 1.87944 0
M  V30 3834 C 375.521 -1.77107 0.830206 0
M  V30 3835 O 376.727 -2.51488 1.02302 0
M  V30 3836 C 375.183 -1.35315 3.33494 0
M  V30 3837 C 374.791 -0.351105 4.46622 0
M  V30 3838 C 376.535 -2.02566 3.73051 0
M  V30 3839 C 374.442 -0.979859 5.83226 0
M  V30 3840 H 373.372 -0.277188 0.701201 0
M  V30 3841 H 376.023 0.0138501 1.83495 0
M  V30 3842 H 374.405 -2.14844 3.32653 0
M  V30 3843 H 375.579 0.416674 4.58912 0
M  V30 3844 H 373.894 0.218708 4.15825 0
M  V30 3845 H 376.491 -2.50441 4.72423 0
M  V30 3846 H 376.834 -2.83904 3.04474 0
M  V30 3847 H 377.367 -1.29827 3.76018 0
M  V30 3848 H 374.106 -0.206135 6.55176 0
M  V30 3849 H 373.626 -1.71774 5.74677 0
M  V30 3850 H 375.305 -1.49046 6.29599 0
M  V30 3851 N 375.437 -1.54477 -0.31217 0
M  V30 3852 C 376.686 -1.72438 -1.04633 0
M  V30 3853 C 376.999 -0.511163 -1.88803 0
M  V30 3854 O 378.205 -0.572341 -2.65399 0
M  V30 3855 C 376.661 -3.05043 -1.9099 0
M  V30 3856 C 376.269 -4.33806 -1.11877 0
M  V30 3857 C 378.013 -3.32364 -2.64073 0
M  V30 3858 C 375.92 -5.57467 -1.97445 0
M  V30 3859 H 374.85 -0.642647 -0.394361 0
M  V30 3860 H 377.501 -1.80966 -0.303929 0
M  V30 3861 H 375.883 -2.90451 -2.69173 0
M  V30 3862 H 377.057 -4.59199 -0.383843 0
M  V30 3863 H 375.372 -4.13336 -0.504252 0
M  V30 3864 H 377.969 -4.21951 -3.28423 0
M  V30 3865 H 378.312 -2.50745 -3.32314 0
M  V30 3866 H 378.845 -3.47875 -1.92944 0
M  V30 3867 H 375.584 -6.41722 -1.33692 0
M  V30 3868 H 375.104 -5.36277 -2.6864 0
M  V30 3869 H 376.783 -5.94303 -2.5576 0
M  V30 3870 N 376.915 0.57481 -1.46744 0
M  V30 3871 C 378.143 1.35856 -1.56047 0
M  V30 3872 C 378.558 1.87691 -0.204365 0
M  V30 3873 O 377.915 1.64049 0.79963 0
M  V30 3874 C 377.966 2.54066 -2.57163 0
M  V30 3875 O 377.687 2.04377 -3.87507 0
M  V30 3876 C 379.188 3.46514 -2.76483 0
M  V30 3877 H 376.408 0.414754 -0.527466 0
M  V30 3878 H 378.952 0.698035 -1.92218 0
M  V30 3879 H 377.107 3.16092 -2.23974 0
M  V30 3880 H 377.521 2.81419 -4.4261 0
M  V30 3881 H 378.995 4.25919 -3.51137 0
M  V30 3882 H 379.472 3.98951 -1.83671 0
M  V30 3883 H 380.078 2.90318 -3.10799 0
M  V30 3884 N 378.394 1.34581 0.820102 0
M  V30 3885 C 379.324 1.29038 1.94606 0
M  V30 3886 C 380.305 0.1673 1.69275 0
M  V30 3887 O 381.49 0.360112 1.90832 0
M  V30 3888 C 378.62 1.04793 3.31113 0
M  V30 3889 C 377.574 2.13597 3.70891 0
M  V30 3890 C 376.9 1.74537 5.05412 0
M  V30 3891 C 378.2 3.55451 3.8269 0
M  V30 3892 H 379.894 2.23248 1.99501 0
M  V30 3893 H 377.44 1.0747 0.958449 0
M  V30 3894 H 379.393 0.995592 4.0947 0
M  V30 3895 H 378.117 0.0702565 3.26524 0
M  V30 3896 H 376.776 2.17905 2.9481 0
M  V30 3897 H 376.424 0.754226 4.97313 0
M  V30 3898 H 376.124 2.47361 5.32997 0
M  V30 3899 H 377.648 1.70803 5.86224 0
M  V30 3900 H 379.062 3.5354 4.51312 0
M  V30 3901 H 377.459 4.26922 4.21732 0
M  V30 3902 H 378.529 3.92587 2.84611 0
M  V30 3903 N 379.872 -1.04064 1.18357 0
M  V30 3904 C 380.782 -2.15569 0.925596 0
M  V30 3905 C 381.798 -1.7365 -0.110295 0
M  V30 3906 O 382.974 -2.01273 0.0716218 0
M  V30 3907 C 380.039 -3.43704 0.454836 0
M  V30 3908 C 379.1 -4.00004 1.55869 0
M  V30 3909 C 378.333 -5.22023 1.1103 0
M  V30 3910 O 378.556 -5.70392 -0.0309756 0
M  V30 3911 O 377.49 -5.70856 1.90805 0
M  V30 3912 H 381.316 -2.40187 1.8586 0
M  V30 3913 H 378.901 -1.1402 0.965394 0
M  V30 3914 H 380.783 -4.20923 0.200382 0
M  V30 3915 H 379.458 -3.20559 -0.449876 0
M  V30 3916 H 378.365 -3.24172 1.86716 0
M  V30 3917 H 379.698 -4.2749 2.43953 0
M  V30 3918 N 381.35 -0.985608 -1.22978 0
M  V30 3919 C 382.627 -0.573599 -1.87001 0
M  V30 3920 C 383.007 0.949213 -1.88555 0
M  V30 3921 O 382.355 1.82811 -1.37086 0
M  V30 3922 C 382.565 -1.18564 -3.28243 0
M  V30 3923 C 383.913 -1.28163 -4.04796 0
M  V30 3924 O 384.937 -1.13949 -3.37482 0
M  V30 3925 O 383.796 -1.50832 -5.25273 0
M  V30 3926 H 380.89 -0.193868 -0.803955 0
M  V30 3927 H 383.436 -1.08102 -1.30813 0
M  V30 3928 H 382.208 -2.22758 -3.21706 0
M  V30 3929 H 381.831 -0.663363 -3.92027 0
M  V30 3930 N 382.828 1.3818 -0.7579 0
M  V30 3931 C 384.053 2.04827 -0.325679 0
M  V30 3932 C 384.478 1.56788 1.03919 0
M  V30 3933 O 383.836 0.721811 1.66312 0
M  V30 3934 C 383.884 3.58774 -0.362447 0
M  V30 3935 O 382.988 4.07372 0.642033 0
M  V30 3936 H 382.329 0.64833 -0.143402 0
M  V30 3937 H 384.859 1.7677 -1.03023 0
M  V30 3938 H 384.869 4.07434 -0.214844 0
M  V30 3939 H 383.544 3.93096 -1.35824 0
M  V30 3940 H 382.121 3.70068 0.458688 0
M  V30 3941 N 384.306 0.507319 1.49211 0
M  V30 3942 C 385.531 -0.033725 2.07373 0
M  V30 3943 C 385.956 -1.29485 1.36437 0
M  V30 3944 O 385.314 -1.76294 0.423087 0
M  V30 3945 C 385.362 -0.263945 3.59633 0
M  V30 3946 O 384.466 -1.33737 3.90113 0
M  V30 3947 H 383.807 0.0290331 0.663365 0
M  V30 3948 H 386.337 0.708749 1.91932 0
M  V30 3949 H 386.347 -0.493536 4.05004 0
M  V30 3950 H 385.022 0.657424 4.10671 0
M  V30 3951 H 383.599 -1.09224 3.56545 0
M  V30 3952 N 385.784 -1.5574 0.241426 0
M  V30 3953 C 387.032 -1.98417 -0.384075 0
M  V30 3954 C 387.353 -1.13078 -1.58866 0
M  V30 3955 O 386.623 -0.212312 -1.94746 0
M  V30 3956 H 385.203 -0.732813 -0.144894 0
M  V30 3957 H 387.865 -1.9193 0.338943 0
M  V30 3958 H 386.961 -3.04219 -0.696939 0
M  V30 3959 N 387.262 0.0317525 -1.57568 0
M  V30 3960 C 388.21 1.05165 -2.07468 0
M  V30 3961 C 389.204 1.3761 -0.98792 0
M  V30 3962 O 390.41 1.36546 -1.17282 0
M  V30 3963 H 386.785 0.35666 -0.66204 0
M  V30 3964 H 388.756 0.604958 -2.92203 0
M  V30 3965 C 387.505 2.34488 -2.56731 0
M  V30 3966 H 386.828 2.10383 -3.39969 0
M  V30 3967 H 388.268 3.04203 -2.95358 0
M  V30 3968 C 386.727 3.03266 -1.46736 0
M  V30 3969 O 387.257 3.92988 -0.832069 0
M  V30 3970 N 385.463 2.6455 -1.20256 0
M  V30 3971 H 385.01 1.91674 -1.72102 0
M  V30 3972 H 384.968 3.10886 -0.468737 0
M  V30 3973 N 388.74 1.54641 0.303973 0
M  V30 3974 C 389.67 1.88386 1.3796 0
M  V30 3975 C 390.651 0.742485 1.5304 0
M  V30 3976 O 391.836 0.997959 1.66597 0
M  V30 3977 C 388.966 2.12854 2.74427 0
M  V30 3978 C 387.92 3.28702 2.74115 0
M  V30 3979 C 387.246 3.38582 4.13844 0
M  V30 3980 C 388.546 4.65881 2.3612 0
M  V30 3981 H 390.24 2.78474 1.09966 0
M  V30 3982 H 387.786 1.33988 0.527556 0
M  V30 3983 H 389.739 2.35047 3.49758 0
M  V30 3984 H 388.463 1.19535 3.03939 0
M  V30 3985 H 387.122 3.06428 2.0124 0
M  V30 3986 H 386.77 2.42784 4.40528 0
M  V30 3987 H 386.47 4.16453 4.14537 0
M  V30 3988 H 387.994 3.63031 4.90959 0
M  V30 3989 H 389.408 4.87823 3.01167 0
M  V30 3990 H 387.805 5.46444 2.48031 0
M  V30 3991 H 388.875 4.66799 1.3125 0
M  V30 3992 N 390.218 -0.567019 1.47046 0
M  V30 3993 C 391.148 -1.68482 1.61667 0
M  V30 3994 C 392.129 -1.6358 0.466418 0
M  V30 3995 O 393.314 -1.81354 0.694574 0
M  V30 3996 C 390.444 -3.07124 1.62148 0
M  V30 3997 C 389.398 -3.26867 2.76301 0
M  V30 3998 C 388.724 -4.66196 2.61849 0
M  V30 3999 C 390.024 -3.13186 4.17986 0
M  V30 4000 H 391.718 -1.56502 2.5524 0
M  V30 4001 H 389.264 -0.751486 1.22836 0
M  V30 4002 H 391.217 -3.8516 1.70968 0
M  V30 4003 H 389.941 -3.2004 0.651287 0
M  V30 4004 H 388.6 -2.51237 2.66975 0
M  V30 4005 H 388.248 -4.75898 1.62879 0
M  V30 4006 H 387.948 -4.80356 3.38425 0
M  V30 4007 H 389.472 -5.46379 2.72584 0
M  V30 4008 H 390.886 -3.81049 4.2834 0
M  V30 4009 H 389.283 -3.3886 4.95272 0
M  V30 4010 H 390.353 -2.10057 4.3704 0
M  V30 4011 N 391.696 -1.35014 -0.812953 0
M  V30 4012 C 392.944 -1.27678 -1.56661 0
M  V30 4013 C 393.265 0.150359 -1.94419 0
M  V30 4014 O 392.535 1.08532 -1.63088 0
M  V30 4015 H 391.115 -0.469602 -0.580933 0
M  V30 4016 H 393.777 -1.69043 -0.970076 0
M  V30 4017 H 392.873 -1.88833 -2.48492 0
M  V30 4018 N 393.175 1.03435 -1.18907 0
M  V30 4019 C 394.591 1.28973 -0.940111 0
M  V30 4020 C 394.791 1.97676 0.390691 0
M  V30 4021 O 393.847 2.26127 1.12352 0
M  V30 4022 C 395.16 2.14221 -2.11021 0
M  V30 4023 C 396.708 2.27547 -2.14922 0
M  V30 4024 C 397.183 3.16164 -3.31367 0
M  V30 4025 N 398.674 3.23752 -3.31269 0
M  V30 4026 C 399.409 3.92495 -4.18014 0
M  V30 4027 N 398.905 4.63515 -5.14904 0
M  V30 4028 N 400.698 3.88838 -4.05908 0
M  V30 4029 H 392.849 0.57252 -2.04538 0
M  V30 4030 H 395.112 0.315184 -0.894071 0
M  V30 4031 H 394.818 1.71054 -3.073 0
M  V30 4032 H 394.692 3.14919 -2.0762 0
M  V30 4033 H 397.079 2.69947 -1.19217 0
M  V30 4034 H 397.16 1.26418 -2.22378 0
M  V30 4035 H 396.804 2.74474 -4.27348 0
M  V30 4036 H 396.734 4.17339 -3.21148 0
M  V30 4037 H 399.225 2.73167 -2.61129 0
M  V30 4038 H 399.538 5.13583 -5.77453 0
M  V30 4039 H 397.883 4.62398 -5.18857 0
M  V30 4040 H 401.074 3.32491 -3.29495 0
M  V30 4041 H 401.247 4.4214 -4.73726 0
M  V30 4042 N 394.653 0.992116 1.22453 0
M  V30 4043 C 395.601 0.534644 2.26372 0
M  V30 4044 C 396.595 -0.414293 1.64256 0
M  V30 4045 O 397.801 -0.286899 1.77699 0
M  V30 4046 H 394.176 0.154502 0.735957 0
M  V30 4047 H 396.147 1.42256 2.62309 0
M  V30 4048 C 394.896 -0.135815 3.47435 0
M  V30 4049 H 394.219 0.585311 3.95492 0
M  V30 4050 H 395.659 -0.419374 4.21921 0
M  V30 4051 C 394.118 -1.37089 3.07747 0
M  V30 4052 O 394.648 -2.46629 3.17076 0
M  V30 4053 N 392.854 -1.24585 2.62539 0
M  V30 4054 H 392.401 -0.354542 2.55149 0
M  V30 4055 H 392.359 -2.07327 2.36353 0
M  V30 4056 N 396.131 -1.37776 0.765217 0
M  V30 4057 C 397.356 -2.04651 0.336537 0
M  V30 4058 C 397.781 -1.57337 -1.03086 0
M  V30 4059 O 397.139 -0.730621 -1.65927 0
M  V30 4060 C 397.187 -3.58577 0.381468 0
M  V30 4061 O 396.291 -4.07706 -0.62042 0
M  V30 4062 H 395.632 -0.64756 0.146838 0
M  V30 4063 H 398.162 -1.76221 1.03959 0
M  V30 4064 H 398.172 -4.07314 0.236448 0
M  V30 4065 H 396.847 -3.9237 1.37907 0
M  V30 4066 H 395.424 -3.70306 -0.439056 0
M  V30 4067 N 397.609 -0.515225 -1.4894 0
M  V30 4068 C 398.856 0.024215 -2.02486 0
M  V30 4069 C 399.184 1.35671 -1.39368 0
M  V30 4070 O 398.439 1.88566 -0.523574 0
M  V30 4071 C 398.738 0.210595 -3.56779 0
M  V30 4072 C 398.404 -1.04569 -4.38607 0
M  V30 4073 C 397.066 -1.39002 -4.60686 0
M  V30 4074 C 399.418 -1.88008 -4.86109 0
M  V30 4075 C 396.746 -2.568 -5.27514 0
M  V30 4076 C 399.098 -3.04972 -5.54234 0
M  V30 4077 C 397.762 -3.39768 -5.74555 0
M  V30 4078 H 397.032 0.00886088 -0.740947 0
M  V30 4079 H 399.679 -0.678263 -1.79086 0
M  V30 4080 H 397.984 0.99572 -3.78936 0
M  V30 4081 H 399.681 0.642659 -3.95817 0
M  V30 4082 H 396.271 -0.767497 -4.21672 0
M  V30 4083 H 400.455 -1.62719 -4.68867 0
M  V30 4084 H 395.711 -2.8398 -5.41447 0
M  V30 4085 H 399.885 -3.69943 -5.90013 0
M  V30 4086 H 397.512 -4.31148 -6.26112 0
M  V30 4087 N 399.087 1.5561 -0.249682 0
M  V30 4088 C 399.997 2.25143 0.659375 0
M  V30 4089 C 401.013 1.2685 1.19101 0
M  V30 4090 O 402.189 1.59732 1.22669 0
M  V30 4091 C 399.254 2.93945 1.8384 0
M  V30 4092 C 398.315 4.07655 1.34596 0
M  V30 4093 C 397.548 4.73167 2.46878 0
M  V30 4094 O 397.771 4.37768 3.65671 0
M  V30 4095 O 396.705 5.61623 2.16478 0
M  V30 4096 H 400.531 3.03545 0.0968698 0
M  V30 4097 H 398.116 1.49389 -0.018074 0
M  V30 4098 H 399.998 3.37271 2.52638 0
M  V30 4099 H 398.673 2.18481 2.38847 0
M  V30 4100 H 397.58 3.68839 0.625174 0
M  V30 4101 H 398.913 4.84946 0.841941 0
M  V30 4102 N 400.565 -0.0233959 1.57583 0
M  V30 4103 C 401.811 -0.714119 1.89811 0
M  V30 4104 C 402.144 -1.74702 0.848113 0
M  V30 4105 O 401.419 -1.94023 -0.136135 0
M  V30 4106 C 401.702 -1.37853 3.32669 0
M  V30 4107 C 401.555 -0.358764 4.48367 0
M  V30 4108 C 402.874 -2.31101 3.7454 0
M  V30 4109 H 399.993 -0.25814 0.690314 0
M  V30 4110 H 402.635 0.0230927 1.89986 0
M  V30 4111 H 400.785 -2.00689 3.3265 0
M  V30 4112 H 402.457 0.268115 4.6052 0
M  V30 4113 H 400.7 0.321387 4.32608 0
M  V30 4114 H 401.371 -0.862242 5.45224 0
M  V30 4115 H 403.847 -1.78304 3.75961 0
M  V30 4116 H 402.723 -2.74567 4.75294 0
M  V30 4117 H 402.984 -3.18018 3.0711 0
M  V30 4118 N 402.043 -1.548 -0.295768 0
M  V30 4119 C 403.459 -1.4613 -0.641722 0
M  V30 4120 C 403.659 -0.656771 -1.90496 0
M  V30 4121 O 402.715 -0.166547 -2.5195 0
M  V30 4122 C 404.028 -2.90141 -0.789852 0
M  V30 4123 C 405.576 -3.00216 -0.885396 0
M  V30 4124 C 406.051 -4.45434 -1.06548 0
M  V30 4125 N 407.542 -4.49166 -1.13156 0
M  V30 4126 C 408.277 -5.58717 -1.28929 0
M  V30 4127 N 407.773 -6.78182 -1.41567 0
M  V30 4128 N 409.566 -5.46415 -1.31859 0
M  V30 4129 H 401.717 -2.05574 0.534147 0
M  V30 4130 H 403.98 -0.931259 0.177372 0
M  V30 4131 H 403.686 -3.51635 0.0675598 0
M  V30 4132 H 403.56 -3.37859 -1.67724 0
M  V30 4133 H 405.947 -2.38833 -1.73329 0
M  V30 4134 H 406.028 -2.55787 0.0261185 0
M  V30 4135 H 405.672 -5.07413 -0.222335 0
M  V30 4136 H 405.602 -4.87499 -1.9913 0
M  V30 4137 H 408.093 -3.631 -1.04721 0
M  V30 4138 H 408.406 -7.57428 -1.53372 0
M  V30 4139 H 406.751 -6.81037 -1.38613 0
M  V30 4140 H 409.942 -4.5203 -1.21601 0
M  V30 4141 H 410.115 -6.31841 -1.43808 0
M  V30 4142 N 403.521 0.559213 -1.47345 0
M  V30 4143 C 404.767 1.31843 -1.54095 0
M  V30 4144 C 405.1 1.93149 -0.201726 0
M  V30 4145 O 404.375 1.77759 0.789428 0
M  V30 4146 C 404.658 2.43006 -2.65744 0
M  V30 4147 C 404.511 1.86581 -4.09277 0
M  V30 4148 C 405.83 3.44943 -2.73318 0
M  V30 4149 H 402.949 0.478012 -0.560957 0
M  V30 4150 H 405.591 0.625977 -1.79392 0
M  V30 4151 H 403.741 3.02072 -2.44305 0
M  V30 4152 H 405.413 1.31792 -4.42073 0
M  V30 4153 H 403.656 1.17268 -4.17649 0
M  V30 4154 H 404.327 2.66933 -4.83168 0
M  V30 4155 H 406.803 2.95793 -2.92653 0
M  V30 4156 H 405.679 4.20153 -3.53218 0
M  V30 4157 H 405.94 4.03665 -1.80296 0
M  V30 4158 N 404.999 1.35443 0.805782 0
M  V30 4159 C 406.239 1.30127 1.57627 0
M  V30 4160 C 406.603 -0.122567 1.91608 0
M  V30 4161 O 407.804 -0.300107 2.67119 0
M  V30 4162 C 406.075 2.18314 2.82973 0
M  V30 4163 S 407.634 2.30521 3.7337 0
M  V30 4164 H 404.452 0.462439 0.540066 0
M  V30 4165 H 407.054 1.70843 0.95042 0
M  V30 4166 H 405.758 3.20741 2.56034 0
M  V30 4167 H 405.289 1.78558 3.50543 0
M  V30 4168 H 407.304 1.49062 4.73281 0
M  V30 4169 N 406.477 -1.02803 1.19454 0
M  V30 4170 C 407.44 -2.09264 0.934955 0
M  V30 4171 C 408.44 -1.60576 -0.0849015 0
M  V30 4172 O 409.63 -1.73554 0.149933 0
M  V30 4173 C 406.762 -3.38482 0.40531 0
M  V30 4174 H 407.955 -2.33726 1.87916 0
M  V30 4175 H 405.508 -1.19426 1.00832 0
M  V30 4176 H 406.243 -3.19689 -0.544899 0
M  V30 4177 H 406.028 -3.75142 1.14065 0
M  V30 4178 H 407.518 -4.16894 0.242806 0
M  V30 4179 N 407.956 -0.998596 -1.21925 0
M  V30 4180 C 409.196 -0.685948 -1.92546 0
M  V30 4181 C 409.56 0.768441 -1.75952 0
M  V30 4182 O 410.761 1.19277 -2.40887 0
M  V30 4183 C 409.032 -1.08767 -3.40448 0
M  V30 4184 S 410.591 -0.894251 -4.29591 0
M  V30 4185 H 407.409 -0.250622 -0.665364 0
M  V30 4186 H 410.011 -1.28207 -1.47591 0
M  V30 4187 H 408.715 -2.14242 -3.50041 0
M  V30 4188 H 408.246 -0.48357 -3.90417 0
M  V30 4189 H 410.261 0.212149 -4.95746 0
M  V30 4190 N 409.434 1.37368 -0.772513 0
M  V30 4191 C 410.845 1.8231 -0.402493 0
M  V30 4192 C 411.196 1.6436 1.07146 0
M  V30 4193 O 410.321 1.15514 1.82991 0
M  V30 4194 C 410.916 3.30979 -0.723776 0
M  V30 4195 C 409.475 3.74195 -0.406802 0
M  V30 4196 C 408.622 2.59885 -0.967218 0
M  V30 4197 H 411.573 1.25829 -0.967099 0
M  V30 4198 H 411.594 3.80499 -0.00870832 0
M  V30 4199 H 411.106 3.44011 -1.7966 0
M  V30 4200 H 409.207 3.66732 0.658673 0
M  V30 4201 H 409.32 4.7027 -0.915588 0
M  V30 4202 H 407.684 2.51674 -0.391416 0
M  V30 4203 H 408.467 2.7571 -2.04546 0
M  V30 4204 N 410.912 0.523116 1.48665 0
M  V30 4205 C 412.16 -0.0134497 2.02096 0
M  V30 4206 C 412.481 -1.35418 1.40311 0
M  V30 4207 O 411.751 -1.87543 0.566074 0
M  V30 4208 H 410.331 -0.00795915 0.746958 0
M  V30 4209 H 412.993 0.685388 1.82451 0
M  V30 4210 H 412.089 -0.126849 3.11842 0
M  V30 4211 N 412.39 -1.55475 0.257931 0
M  V30 4212 C 413.806 -1.59307 -0.0966563 0
M  V30 4213 C 414.006 -1.27514 -1.5602 0
M  V30 4214 O 413.062 -1.02774 -2.30637 0
M  V30 4215 C 414.375 -2.99552 0.262481 0
M  V30 4216 C 415.923 -3.1231 0.207683 0
M  V30 4217 C 416.398 -4.54793 0.541012 0
M  V30 4218 N 417.889 -4.6058 0.491921 0
M  V30 4219 C 418.624 -5.68825 0.722857 0
M  V30 4220 N 418.12 -6.85287 1.0175 0
M  V30 4221 N 419.913 -5.58296 0.652815 0
M  V30 4222 H 412.064 -1.74409 1.21224 0
M  V30 4223 H 414.327 -0.812424 0.48854 0
M  V30 4224 H 414.033 -3.27593 1.27967 0
M  V30 4225 H 413.907 -3.75019 -0.40508 0
M  V30 4226 H 416.294 -2.84044 -0.800195 0
M  V30 4227 H 416.375 -2.39095 0.909255 0
M  V30 4228 H 416.019 -4.83783 1.5465 0
M  V30 4229 H 415.949 -5.26285 -0.18216 0
M  V30 4230 H 418.44 -3.7691 0.273366 0
M  V30 4231 H 418.753 -7.63725 1.18084 0
M  V30 4232 H 417.098 -6.86945 1.05509 0
M  V30 4233 H 420.289 -4.66189 0.422592 0
M  V30 4234 H 420.462 -6.42582 0.836182 0
M  V30 4235 N 413.868 0.0150385 -1.57593 0
M  V30 4236 C 415.145 0.7392 -1.81094 0
M  V30 4237 C 415.525 1.92817 -0.859344 0
M  V30 4238 O 414.873 2.28301 0.095362 0
M  V30 4239 C 415.083 1.15907 -3.29191 0
M  V30 4240 C 416.431 1.56918 -3.9454 0
M  V30 4241 O 417.455 1.25328 -3.33424 0
M  V30 4242 O 416.314 2.15604 -5.02173 0
M  V30 4243 H 413.408 0.358631 -0.745193 0
M  V30 4244 H 415.954 -0.00926156 -1.69697 0
M  V30 4245 H 414.726 0.310921 -3.90063 0
M  V30 4246 H 414.349 1.96711 -3.45529 0
M  V30 4247 N 415.346 1.54954 0.287554 0
M  V30 4248 C 416.762 1.46469 0.633964 0
M  V30 4249 C 416.962 0.666865 1.90145 0
M  V30 4250 O 416.018 0.179906 2.51858 0
M  V30 4251 C 417.331 2.90556 0.774454 0
M  V30 4252 C 418.879 3.00681 0.869462 0
M  V30 4253 C 419.354 4.45993 1.04184 0
M  V30 4254 N 420.845 4.4976 1.10772 0
M  V30 4255 C 421.58 5.59393 1.25964 0
M  V30 4256 N 421.076 6.78923 1.37968 0
M  V30 4257 N 422.869 5.47107 1.28959 0
M  V30 4258 H 415.02 2.05288 -0.545041 0
M  V30 4259 H 417.283 0.930305 -0.182308 0
M  V30 4260 H 416.989 3.51594 -0.086207 0
M  V30 4261 H 416.863 3.38743 1.6593 0
M  V30 4262 H 419.25 2.39749 1.7206 0
M  V30 4263 H 419.331 2.55769 -0.0396831 0
M  V30 4264 H 418.975 5.07524 0.195422 0
M  V30 4265 H 418.905 4.88548 1.96542 0
M  V30 4266 H 421.396 3.63651 1.02794 0
M  V30 4267 H 421.709 7.58231 1.49353 0
M  V30 4268 H 420.054 6.81763 1.34999 0
M  V30 4269 H 423.245 4.52668 1.19202 0
M  V30 4270 H 423.418 6.32595 1.40455 0
M  V30 4271 N 416.824 -0.551391 1.4764 0
M  V30 4272 C 418.24 -0.877887 1.33287 0
M  V30 4273 C 418.44 -1.98817 0.327721 0
M  V30 4274 O 417.496 -2.51171 -0.258695 0
M  V30 4275 C 418.809 -1.26563 2.72768 0
M  V30 4276 C 420.357 -1.37673 2.81097 0
M  V30 4277 C 420.832 -1.79799 4.21232 0
M  V30 4278 N 422.323 -1.8694 4.23802 0
M  V30 4279 C 423.058 -2.20876 5.29151 0
M  V30 4280 N 422.554 -2.53386 6.448 0
M  V30 4281 N 424.347 -2.217 5.16532 0
M  V30 4282 H 416.498 0.18153 2.11623 0
M  V30 4283 H 418.761 0.0185514 0.947818 0
M  V30 4284 H 418.467 -0.523591 3.47781 0
M  V30 4285 H 418.341 -2.22052 3.04915 0
M  V30 4286 H 420.728 -2.10956 2.06353 0
M  V30 4287 H 420.809 -0.40357 2.52596 0
M  V30 4288 H 420.453 -1.07083 4.96483 0
M  V30 4289 H 420.383 -2.78128 4.4716 0
M  V30 4290 H 422.874 -1.64179 3.40373 0
M  V30 4291 H 423.187 -2.78325 7.20941 0
M  V30 4292 H 421.532 -2.50953 6.48111 0
M  V30 4293 H 424.723 -1.95745 4.25207 0
M  V30 4294 H 424.896 -2.47818 5.98741 0
M  V30 4295 N 418.302 -1.35869 -0.798587 0
M  V30 4296 C 419.53 -1.32722 -1.58722 0
M  V30 4297 C 419.945 0.0935631 -1.88568 0
M  V30 4298 O 419.302 1.04784 -1.49421 0
M  V30 4299 C 419.353 -2.13974 -2.91371 0
M  V30 4300 O 419.074 -3.50514 -2.62815 0
M  V30 4301 C 420.575 -2.18504 -3.85708 0
M  V30 4302 H 417.795 -0.45562 -0.492596 0
M  V30 4303 H 420.339 -1.78837 -0.991843 0
M  V30 4304 H 418.494 -1.71438 -3.47402 0
M  V30 4305 H 418.908 -3.92806 -3.47568 0
M  V30 4306 H 420.382 -2.79732 -4.75872 0
M  V30 4307 H 420.859 -1.18597 -4.22885 0
M  V30 4308 H 421.465 -2.61236 -3.35612 0
M  V30 4309 N 419.78 1.02168 -1.19998 0
M  V30 4310 C 420.69 2.14069 -0.959774 0
M  V30 4311 C 421.706 1.73804 0.082655 0
M  V30 4312 O 422.882 2.01133 -0.103633 0
M  V30 4313 C 419.947 3.42936 -0.509459 0
M  V30 4314 C 419.008 3.97474 -1.62213 0
M  V30 4315 C 418.241 5.2019 -1.19321 0
M  V30 4316 O 418.464 5.70369 -0.0597726 0
M  V30 4317 O 417.398 5.67749 -1.99863 0
M  V30 4318 H 421.224 2.37199 -1.89658 0
M  V30 4319 H 418.809 1.12469 -0.983411 0
M  V30 4320 H 420.691 4.20551 -0.267322 0
M  V30 4321 H 419.366 3.21234 0.398821 0
M  V30 4322 H 418.273 3.21161 -1.9185 0
M  V30 4323 H 419.606 4.23555 -2.50723 0
M  V30 4324 N 421.258 1.00505 1.21394 0
M  V30 4325 C 422.168 0.574806 2.27449 0
M  V30 4326 C 423.184 -0.382206 1.6975 0
M  V30 4327 O 424.36 -0.246027 1.99892 0
M  V30 4328 C 421.425 -0.0917414 3.46579 0
M  V30 4329 C 420.486 0.909758 4.1955 0
M  V30 4330 C 419.719 0.274924 5.32991 0
M  V30 4331 O 419.942 -0.928254 5.62796 0
M  V30 4332 O 418.876 0.985877 5.93771 0
M  V30 4333 H 422.702 1.45744 2.66444 0
M  V30 4334 H 420.287 0.773923 1.27792 0
M  V30 4335 H 422.169 -0.464551 4.18832 0
M  V30 4336 H 420.844 -0.948755 3.09484 0
M  V30 4337 H 419.751 1.33372 3.49518 0
M  V30 4338 H 421.084 1.73636 4.60555 0
M  V30 4339 N 422.737 -1.36956 0.779787 0
M  V30 4340 C 423.647 -2.33965 0.172491 0
M  V30 4341 C 424.663 -1.60574 -0.670222 0
M  V30 4342 O 425.839 -1.92617 -0.588263 0
M  V30 4343 C 422.904 -3.39761 -0.690173 0
M  V30 4344 C 421.965 -4.28964 0.169924 0
M  V30 4345 C 421.198 -5.29707 -0.651662 0
M  V30 4346 O 421.421 -5.38238 -1.88827 0
M  V30 4347 O 420.355 -6.01873 -0.0566264 0
M  V30 4348 H 424.181 -2.87647 0.974321 0
M  V30 4349 H 421.766 -1.39258 0.541078 0
M  V30 4350 H 423.648 -4.04471 -1.1824 0
M  V30 4351 H 422.323 -2.88394 -1.47006 0
M  V30 4352 H 421.23 -3.67326 0.708696 0
M  V30 4353 H 422.563 -4.83656 0.913085 0
M  V30 4354 N 424.215 -0.530993 -1.48385 0
M  V30 4355 C 425.163 0.244595 -2.3131 0
M  V30 4356 C 426.157 0.93451 -1.41291 0
M  V30 4357 O 427.363 0.85878 -1.58193 0
M  V30 4358 H 423.738 0.0977472 -0.74562 0
M  V30 4359 H 425.709 -0.474369 -2.94605 0
M  V30 4360 C 424.458 1.2779 -3.23365 0
M  V30 4361 H 423.781 0.756439 -3.92579 0
M  V30 4362 H 425.221 1.79198 -3.84271 0
M  V30 4363 C 423.68 2.31205 -2.45042 0
M  V30 4364 O 424.21 3.37661 -2.17596 0
M  V30 4365 N 422.416 2.04446 -2.0652 0
M  V30 4366 H 421.963 1.17891 -2.2904 0
M  V30 4367 H 421.921 2.73861 -1.54427 0
M  V30 4368 N 425.693 1.55336 -0.266172 0
M  V30 4369 C 426.623 2.25146 0.618981 0
M  V30 4370 C 427.604 1.23845 1.16604 0
M  V30 4371 O 428.789 1.52544 1.20183 0
M  V30 4372 C 425.919 2.96572 1.80728 0
M  V30 4373 C 424.873 4.04726 1.39215 0
M  V30 4374 C 424.199 4.63678 2.66283 0
M  V30 4375 C 425.499 5.19407 0.548942 0
M  V30 4376 H 427.193 2.99377 0.0368116 0
M  V30 4377 H 424.739 1.43991 0.0162651 0
M  V30 4378 H 426.692 3.44116 2.43232 0
M  V30 4379 H 425.416 2.19861 2.41514 0
M  V30 4380 H 424.075 3.57979 0.790351 0
M  V30 4381 H 423.723 3.83646 3.25308 0
M  V30 4382 H 423.423 5.367 2.39222 0
M  V30 4383 H 424.947 5.13967 3.29651 0
M  V30 4384 H 426.361 5.63059 1.07876 0
M  V30 4385 H 424.758 5.98936 0.373593 0
M  V30 4386 H 425.828 4.8295 -0.434394 0
M  V30 4387 N 427.171 -0.0066808 1.57599 0
M  V30 4388 C 428.587 -0.36267 1.55425 0
M  V30 4389 C 428.787 -1.75209 0.995187 0
M  V30 4390 O 427.843 -2.44616 0.626058 0
M  V30 4391 C 429.156 -0.244017 2.99708 0
M  V30 4392 C 430.704 -0.319451 3.11366 0
M  V30 4393 C 431.179 -0.229998 4.57422 0
M  V30 4394 N 432.67 -0.288105 4.62303 0
M  V30 4395 C 433.405 -0.242127 5.72889 0
M  V30 4396 N 432.901 -0.147133 6.92644 0
M  V30 4397 N 434.694 -0.293502 5.61333 0
M  V30 4398 H 426.845 0.902314 1.92281 0
M  V30 4399 H 429.108 0.34525 0.882896 0
M  V30 4400 H 428.814 0.711678 3.44424 0
M  V30 4401 H 428.688 -1.02877 3.629 0
M  V30 4402 H 431.075 -1.26559 2.66584 0
M  V30 4403 H 431.156 0.495055 2.50964 0
M  V30 4404 H 430.8 0.712566 5.02877 0
M  V30 4405 H 430.73 -1.0629 5.15761 0
M  V30 4406 H 433.221 -0.363126 3.76151 0
M  V30 4407 H 433.534 -0.117763 7.7271 0
M  V30 4408 H 431.879 -0.112857 6.94908 0
M  V30 4409 H 435.07 -0.365864 4.66668 0
M  V30 4410 H 435.243 -0.254204 6.47501 0
M  V30 4411 N 428.649 -1.55105 -0.279332 0
M  V30 4412 C 429.596 -1.8755 -1.34513 0
M  V30 4413 C 430.566 -0.726384 -1.49375 0
M  V30 4414 O 431.751 -0.977063 -1.63884 0
M  V30 4415 C 428.891 -2.14738 -2.70151 0
M  V30 4416 C 428.004 -3.42285 -2.63562 0
M  V30 4417 C 427.139 -3.59206 -3.91337 0
M  V30 4418 C 426.178 -4.80467 -3.79233 0
M  V30 4419 N 425.315 -4.94079 -4.98829 0
M  V30 4420 H 430.155 -2.78456 -1.06143 0
M  V30 4421 H 427.692 -1.37867 -0.512936 0
M  V30 4422 H 429.65 -2.28501 -3.49061 0
M  V30 4423 H 428.28 -1.27075 -2.96735 0
M  V30 4424 H 427.332 -3.37029 -1.76397 0
M  V30 4425 H 428.644 -4.31328 -2.50515 0
M  V30 4426 H 427.798 -3.72751 -4.78687 0
M  V30 4427 H 426.537 -2.68337 -4.07243 0
M  V30 4428 H 425.542 -4.66932 -2.90266 0
M  V30 4429 H 426.767 -5.72765 -3.64852 0
M  V30 4430 H 424.713 -4.06139 -5.15158 0
M  V30 4431 H 424.63 -5.77156 -4.8829 0
M  V30 4432 H 425.898 -5.12003 -5.8777 0
M  V30 4433 N 430.127 0.543554 -1.4793 0
M  V30 4434 C 431.074 1.64942 -1.6144 0
M  V30 4435 C 432.044 1.59692 -0.456903 0
M  V30 4436 O 433.229 1.78321 -0.678688 0
M  V30 4437 C 430.369 3.03238 -1.64744 0
M  V30 4438 C 429.482 3.18823 -2.91506 0
M  V30 4439 C 428.617 4.47599 -2.86057 0
M  V30 4440 C 427.656 4.56664 -4.07584 0
M  V30 4441 N 426.793 5.76811 -4.00292 0
M  V30 4442 H 431.633 1.52733 -2.55884 0
M  V30 4443 H 429.17 0.7438 -1.2691 0
M  V30 4444 H 431.128 3.83339 -1.64641 0
M  V30 4445 H 429.758 3.1425 -0.738017 0
M  V30 4446 H 428.81 2.32064 -3.01414 0
M  V30 4447 H 430.122 3.21384 -3.81463 0
M  V30 4448 H 429.276 5.35975 -2.84281 0
M  V30 4449 H 428.015 4.47538 -1.93807 0
M  V30 4450 H 427.02 3.66697 -4.09651 0
M  V30 4451 H 428.245 4.58474 -5.00978 0
M  V30 4452 H 426.191 5.77673 -3.10853 0
M  V30 4453 H 426.108 5.80808 -4.8394 0
M  V30 4454 H 427.376 6.67512 -4.02553 0
M  V30 4455 N 431.605 1.3629 0.791371 0
M  V30 4456 C 432.853 1.30154 1.5461 0
M  V30 4457 C 433.174 -0.119409 1.94634 0
M  V30 4458 O 432.444 -1.05924 1.64794 0
M  V30 4459 H 431.024 0.478784 0.573389 0
M  V30 4460 H 433.686 1.70565 0.94306 0
M  V30 4461 H 432.782 1.92762 2.45457 0
M  V30 4462 N 433.083 -1.0153 1.20538 0
M  V30 4463 C 433.993 -2.13557 0.971113 0
M  V30 4464 C 435.009 -1.73845 -0.0734366 0
M  V30 4465 O 436.185 -2.01075 0.114299 0
M  V30 4466 C 433.25 -3.42661 0.527639 0
M  V30 4467 C 432.311 -3.96608 1.64319 0
M  V30 4468 C 431.544 -5.1955 1.22078 0
M  V30 4469 O 431.767 -5.70329 0.0900198 0
M  V30 4470 O 430.701 -5.66681 2.02871 0
M  V30 4471 H 434.527 -2.3619 1.90913 0
M  V30 4472 H 432.112 -1.11946 0.989362 0
M  V30 4473 H 433.994 -4.20404 0.289621 0
M  V30 4474 H 432.669 -3.21441 -0.381779 0
M  V30 4475 H 431.576 -3.20139 1.93551 0
M  V30 4476 H 432.909 -4.22219 2.52966 0
M  V30 4477 N 434.561 -1.01147 -1.20859 0
M  V30 4478 C 435.972 -0.730205 -1.71828 0
M  V30 4479 C 436.323 0.751662 -1.8123 0
M  V30 4480 O 435.448 1.58686 -1.47132 0
M  V30 4481 C 436.043 -1.31885 -3.12077 0
M  V30 4482 C 434.602 -1.08656 -3.60376 0
M  V30 4483 C 433.749 -1.42769 -2.37723 0
M  V30 4484 H 436.7 -1.18158 -1.05945 0
M  V30 4485 H 436.721 -0.706793 -3.73878 0
M  V30 4486 H 436.233 -2.39737 -3.05201 0
M  V30 4487 H 434.334 -0.0254814 -3.72591 0
M  V30 4488 H 434.447 -1.76301 -4.45483 0
M  V30 4489 H 432.811 -0.846603 -2.40218 0
M  V30 4490 H 433.594 -2.51666 -2.33493 0
M  V30 4491 N 436.039 1.36541 -0.78704 0
M  V30 4492 C 436.989 2.27459 -0.156957 0
M  V30 4493 C 437.973 1.46843 0.657709 0
M  V30 4494 O 439.165 1.69245 0.518173 0
M  V30 4495 C 436.294 3.35893 0.709278 0
M  V30 4496 C 435.38 4.23947 -0.114049 0
M  V30 4497 N 435.771 4.92145 -1.16736 0
M  V30 4498 C 434.069 4.4587 0.107497 0
M  V30 4499 C 434.77 5.57261 -1.66837 0
M  V30 4500 N 433.746 5.3473 -0.977992 0
M  V30 4501 H 437.548 2.77669 -0.963185 0
M  V30 4502 H 435.062 1.49839 -0.62627 0
M  V30 4503 H 437.059 3.99953 1.17656 0
M  V30 4504 H 435.719 2.87238 1.51408 0
M  V30 4505 H 436.73 4.94169 -1.54976 0
M  V30 4506 H 433.407 4.08056 0.882994 0
M  V30 4507 H 434.797 6.21728 -2.54762 0
M  V30 4508 N 437.518 0.538854 1.48102 0
M  V30 4509 C 438.468 -0.23907 2.26743 0
M  V30 4510 C 439.452 -0.901923 1.33245 0
M  V30 4511 O 440.644 -0.803263 1.57723 0
M  V30 4512 C 437.773 -1.2799 3.18549 0
M  V30 4513 C 436.859 -0.621388 4.19523 0
M  V30 4514 N 437.25 0.298004 5.04921 0
M  V30 4515 C 435.548 -0.877533 4.37282 0
M  V30 4516 C 436.249 0.678757 5.77726 0
M  V30 4517 N 435.225 0.0377881 5.43587 0
M  V30 4518 H 439.027 0.468096 2.90148 0
M  V30 4519 H 436.541 0.357497 1.58416 0
M  V30 4520 H 438.538 -1.851 3.73555 0
M  V30 4521 H 437.198 -1.98835 2.567 0
M  V30 4522 H 438.209 0.671126 5.13533 0
M  V30 4523 H 434.886 -1.57588 3.86616 0
M  V30 4524 H 436.276 1.43316 6.56437 0
M  V30 4525 N 438.996 -1.55193 0.274407 0
M  V30 4526 C 439.906 -2.26164 -0.623473 0
M  V30 4527 C 440.922 -1.28729 -1.17068 0
M  V30 4528 O 442.098 -1.61663 -1.20112 0
M  V30 4529 C 439.163 -2.96833 -1.7914 0
M  V30 4530 C 438.224 -4.09745 -1.28093 0
M  V30 4531 C 437.457 -4.77034 -2.3932 0
M  V30 4532 O 437.68 -4.4353 -3.5866 0
M  V30 4533 O 436.614 -5.64996 -2.07516 0
M  V30 4534 H 440.44 -3.03661 -0.0485661 0
M  V30 4535 H 438.025 -1.49341 0.0418382 0
M  V30 4536 H 439.907 -3.41248 -2.4724 0
M  V30 4537 H 438.582 -2.22253 -2.35341 0
M  V30 4538 H 437.489 -3.69787 -0.566416 0
M  V30 4539 H 438.822 -4.86224 -0.764683 0
M  V30 4540 N 440.474 -0.00167713 -1.576 0
M  V30 4541 C 441.404 0.988091 -2.11563 0
M  V30 4542 C 442.385 1.35736 -1.02517 0
M  V30 4543 O 443.57 1.44082 -1.30208 0
M  V30 4544 C 440.7 2.27941 -2.62031 0
M  V30 4545 C 439.654 2.0517 -3.75619 0
M  V30 4546 C 438.98 3.4033 -4.12407 0
M  V30 4547 C 440.28 1.41294 -5.02825 0
M  V30 4548 H 441.974 0.538771 -2.94513 0
M  V30 4549 H 439.52 0.257712 -1.41675 0
M  V30 4550 H 441.473 2.97539 -2.9841 0
M  V30 4551 H 440.197 2.74989 -1.76205 0
M  V30 4552 H 438.856 1.37998 -3.39635 0
M  V30 4553 H 438.504 3.85085 -3.23603 0
M  V30 4554 H 438.204 3.25909 -4.88935 0
M  V30 4555 H 439.728 4.1124 -4.51347 0
M  V30 4556 H 441.142 2.00851 -5.36965 0
M  V30 4557 H 439.539 1.37356 -5.84169 0
M  V30 4558 H 440.609 0.382362 -4.8339 0
M  V30 4559 N 441.952 1.55251 0.271103 0
M  V30 4560 C 443.363 1.66635 0.842007 0
M  V30 4561 C 443.714 0.594631 1.86972 0
M  V30 4562 O 442.839 -0.263532 2.14789 0
M  V30 4563 C 443.434 3.02082 1.53401 0
M  V30 4564 C 441.993 3.15487 2.05293 0
M  V30 4565 C 441.14 2.62438 0.895631 0
M  V30 4566 H 444.091 1.58629 0.0474117 0
M  V30 4567 H 444.112 2.95176 2.40107 0
M  V30 4568 H 443.624 3.80062 0.785786 0
M  V30 4569 H 441.725 2.42284 2.83071 0
M  V30 4570 H 441.838 4.22075 2.26693 0
M  V30 4571 H 440.202 2.19644 1.28953 0
M  V30 4572 H 440.985 3.42923 0.160878 0
M  V30 4573 N 443.43 -0.535701 1.48216 0
M  V30 4574 C 444.841 -1.11769 1.49548 0
M  V30 4575 C 445.192 -1.94442 0.26207 0
M  V30 4576 O 444.317 -2.06987 -0.631287 0
M  V30 4577 C 444.912 -2.03367 2.70975 0
M  V30 4578 C 443.471 -2.56795 2.75196 0
M  V30 4579 C 442.618 -1.33631 2.42977 0
M  V30 4580 H 445.569 -0.321232 1.55415 0
M  V30 4581 H 445.59 -2.87569 2.49167 0
M  V30 4582 H 445.102 -1.43169 3.60727 0
M  V30 4583 H 443.203 -3.20731 1.89638 0
M  V30 4584 H 443.316 -2.9632 3.76472 0
M  V30 4585 H 441.68 -1.6502 1.94012 0
M  V30 4586 H 442.463 -0.75194 3.34964 0
M  V30 4587 N 444.908 -1.36708 -0.784132 0
M  V30 4588 C 446.156 -1.30972 -1.53918 0
M  V30 4589 C 446.477 0.109086 -1.94695 0
M  V30 4590 O 445.747 1.05048 -1.65353 0
M  V30 4591 H 444.327 -0.481819 -0.570841 0
M  V30 4592 H 446.989 -1.71063 -0.934002 0
M  V30 4593 H 446.085 -1.94061 -2.44431 0
M  V30 4594 N 446.386 1.0089 -1.21074 0
M  V30 4595 C 447.611 1.78727 -1.05221 0
M  V30 4596 C 448.036 1.83932 0.393795 0
M  V30 4597 O 447.394 1.28004 1.28393 0
M  V30 4598 C 447.442 3.20665 -1.64944 0
M  V30 4599 O 446.546 4.02632 -0.892273 0
M  V30 4600 H 445.887 0.550973 -0.370574 0
M  V30 4601 H 448.417 1.26847 -1.60534 0
M  V30 4602 H 448.427 3.71352 -1.69002 0
M  V30 4603 H 447.102 3.16191 -2.70177 0
M  V30 4604 H 445.679 3.61207 -0.926492 0
M  V30 4605 N 447.864 1.01787 1.20321 0
M  V30 4606 C 449.092 0.727194 1.937 0
M  V30 4607 C 449.507 -0.712305 1.74848 0
M  V30 4608 O 448.864 -1.48327 1.06327 0
M  V30 4609 C 448.915 1.05497 3.45764 0
M  V30 4610 O 448.636 2.43794 3.64 0
M  V30 4611 C 450.137 0.785534 4.36285 0
M  V30 4612 H 447.357 0.266939 0.615617 0
M  V30 4613 H 449.901 1.35939 1.52777 0
M  V30 4614 H 448.056 0.468158 3.84561 0
M  V30 4615 H 448.47 2.55656 4.57974 0
M  V30 4616 H 449.944 1.06495 5.4163 0
M  V30 4617 H 450.421 -0.280273 4.38305 0
M  V30 4618 H 451.027 1.35456 4.03152 0
M  V30 4619 N 449.342 -1.36122 0.79427 0
M  V30 4620 C 450.289 -2.29982 0.194101 0
M  V30 4621 C 451.259 -1.52214 -0.664833 0
M  V30 4622 O 452.444 -1.80702 -0.612498 0
M  V30 4623 C 449.584 -3.38706 -0.661244 0
M  V30 4624 C 448.697 -4.31456 0.216766 0
M  V30 4625 C 447.832 -5.27265 -0.645411 0
M  V30 4626 C 446.871 -6.11653 0.233756 0
M  V30 4627 N 446.008 -6.99636 -0.587682 0
M  V30 4628 H 450.848 -2.80722 0.999965 0
M  V30 4629 H 448.385 -1.38172 0.504677 0
M  V30 4630 H 450.343 -4.00394 -1.17219 0
M  V30 4631 H 448.973 -2.89274 -1.43249 0
M  V30 4632 H 448.025 -3.7088 0.845724 0
M  V30 4633 H 449.337 -4.90724 0.893973 0
M  V30 4634 H 448.491 -5.94266 -1.22198 0
M  V30 4635 H 447.23 -4.68463 -1.35623 0
M  V30 4636 H 446.235 -5.4361 0.82269 0
M  V30 4637 H 447.46 -6.72531 0.942247 0
M  V30 4638 H 445.406 -6.43337 -1.2827 0
M  V30 4639 H 445.323 -7.55993 0.0317402 0
M  V30 4640 H 446.591 -7.71001 -1.14792 0
M  V30 4641 N 450.82 -0.546701 -1.47814 0
M  V30 4642 C 452.236 -0.205717 -1.58269 0
M  V30 4643 C 452.436 1.29153 -1.54667 0
M  V30 4644 O 451.492 2.07098 -1.44453 0
M  V30 4645 C 452.805 -0.823065 -2.89216 0
M  V30 4646 C 454.353 -0.793328 -3.02779 0
M  V30 4647 C 454.828 -1.38955 -4.36412 0
M  V30 4648 N 456.319 -1.35227 -4.43021 0
M  V30 4649 C 457.054 -1.78333 -5.44963 0
M  V30 4650 N 456.55 -2.29246 -6.53772 0
M  V30 4651 N 458.343 -1.69467 -5.35945 0
M  V30 4652 H 450.494 -1.5196 -1.48398 0
M  V30 4653 H 452.757 -0.633078 -0.705632 0
M  V30 4654 H 452.463 -1.8749 -2.97558 0
M  V30 4655 H 452.337 -0.309915 -3.75925 0
M  V30 4656 H 454.724 0.249784 -2.94041 0
M  V30 4657 H 454.805 -1.34412 -2.17639 0
M  V30 4658 H 454.449 -2.43168 -4.45906 0
M  V30 4659 H 454.379 -0.814291 -5.20266 0
M  V30 4660 H 456.87 -0.979739 -3.64979 0
M  V30 4661 H 457.183 -2.60089 -7.27718 0
M  V30 4662 H 455.528 -2.3325 -6.5469 0
M  V30 4663 H 458.719 -1.29477 -4.49837 0
M  V30 4664 H 458.892 -2.03381 -6.15256 0
M  V30 4665 N 452.299 1.55045 -0.282633 0
M  V30 4666 C 453.262 2.21515 0.588539 0
M  V30 4667 C 454.262 1.19535 1.07554 0
M  V30 4668 O 455.452 1.44391 0.974514 0
M  V30 4669 C 452.584 2.88704 1.8128 0
M  V30 4670 H 453.777 2.99899 0.00806397 0
M  V30 4671 H 451.33 1.56265 -0.0333067 0
M  V30 4672 H 452.065 2.14352 2.43359 0
M  V30 4673 H 451.85 3.63443 1.47144 0
M  V30 4674 H 453.34 3.39465 2.43214 0
M  V30 4675 N 453.777 0.010035 1.57597 0
M  V30 4676 C 454.707 -0.976857 2.12084 0
M  V30 4677 C 455.688 -1.35191 1.03235 0
M  V30 4678 O 456.873 -1.43389 1.3097 0
M  V30 4679 C 454.003 -2.26548 2.63236 0
M  V30 4680 C 452.957 -2.03175 3.76701 0
M  V30 4681 C 452.283 -3.38138 4.14206 0
M  V30 4682 C 453.583 -1.38625 5.03568 0
M  V30 4683 H 455.277 -0.523145 2.94794 0
M  V30 4684 H 452.823 -0.250195 1.4181 0
M  V30 4685 H 454.776 -2.95952 2.99984 0
M  V30 4686 H 453.5 -2.74051 1.77661 0
M  V30 4687 H 452.159 -1.36195 3.40362 0
M  V30 4688 H 451.807 -3.83363 3.25641 0
M  V30 4689 H 451.507 -3.23312 4.90656 0
M  V30 4690 H 453.031 -4.08841 4.53521 0
M  V30 4691 H 454.445 -1.98 5.38023 0
M  V30 4692 H 452.842 -1.34256 5.84889 0
M  V30 4693 H 453.912 -0.356722 4.83586 0
M  V30 4694 N 455.255 -1.55392 -0.262866 0
M  V30 4695 C 456.666 -1.67079 -0.833158 0
M  V30 4696 C 457.017 -0.604539 -1.86654 0
M  V30 4697 O 456.142 0.252138 -2.14926 0
M  V30 4698 C 456.737 -3.02891 -1.51797 0
M  V30 4699 C 455.296 -3.16571 -2.03617 0
M  V30 4700 C 454.443 -2.62909 -0.881701 0
M  V30 4701 H 457.394 -1.58652 -0.0389986 0
M  V30 4702 H 457.415 -2.96445 -2.38538 0
M  V30 4703 H 456.927 -3.80473 -0.765619 0
M  V30 4704 H 455.028 -2.43782 -2.81782 0
M  V30 4705 H 455.141 -4.23271 -2.24452 0
M  V30 4706 H 453.505 -2.20324 -1.27786 0
M  V30 4707 H 454.288 -3.43003 -0.14269 0
M  V30 4708 N 456.733 0.527833 -1.48498 0
M  V30 4709 C 457.681 1.65313 -1.63628 0
M  V30 4710 C 458.675 1.6177 -0.502676 0
M  V30 4711 O 459.881 1.66601 -0.681469 0
M  V30 4712 H 456.256 0.547518 -0.515488 0
M  V30 4713 H 458.227 1.49696 -2.58135 0
M  V30 4714 C 456.976 3.03576 -1.6952 0
M  V30 4715 H 456.299 3.06997 -2.56111 0
M  V30 4716 H 457.739 3.81923 -1.84149 0
M  V30 4717 C 456.198 3.34089 -0.43432 0
M  V30 4718 O 456.728 3.99151 0.451852 0
M  V30 4719 N 454.934 2.88991 -0.305368 0
M  V30 4720 H 454.481 2.36222 -1.02747 0
M  V30 4721 H 454.439 3.09776 0.537249 0
M  V30 4722 N 458.211 1.37122 0.776871 0
M  V30 4723 C 459.159 1.32549 1.91138 0
M  V30 4724 C 460.153 0.215119 1.68029 0
M  V30 4725 O 461.359 0.382852 1.75881 0
M  V30 4726 H 457.734 0.412952 0.62847 0
M  V30 4727 H 459.705 2.28332 1.92112 0
M  V30 4728 C 458.454 1.14422 3.28333 0
M  V30 4729 H 457.777 1.99115 3.46689 0
M  V30 4730 H 459.217 1.15272 4.0803 0
M  V30 4731 C 457.676 -0.150434 3.36564 0
M  V30 4732 O 458.206 -1.13584 3.85307 0
M  V30 4733 N 456.412 -0.19939 2.89915 0
M  V30 4734 H 455.959 0.603142 2.5044 0
M  V30 4735 H 455.917 -1.06526 2.95803 0
M  V30 4736 N 459.689 -1.00246 1.21608 0
M  V30 4737 C 460.917 -1.77631 1.06089 0
M  V30 4738 C 461.332 -1.84746 -0.38916 0
M  V30 4739 O 460.689 -1.31068 -1.26994 0
M  V30 4740 C 460.74 -3.21415 1.65453 0
M  V30 4741 O 460.461 -3.14703 3.04785 0
M  V30 4742 C 461.962 -4.15289 1.55079 0
M  V30 4743 H 459.182 -0.558162 0.37242 0
M  V30 4744 H 461.726 -1.26093 1.60999 0
M  V30 4745 H 459.881 -3.70053 1.14629 0
M  V30 4746 H 460.295 -4.05056 3.33212 0
M  V30 4747 H 461.769 -5.13965 2.01355 0
M  V30 4748 H 462.246 -4.36279 0.505665 0
M  V30 4749 H 462.852 -3.72543 2.05163 0
M  V30 4750 N 461.167 -1.02423 -1.1978 0
M  V30 4751 C 462.392 -0.7373 -1.93852 0
M  V30 4752 C 462.817 0.696923 -1.74713 0
M  V30 4753 O 462.175 1.48056 -1.04638 0
M  V30 4754 C 462.223 -1.08783 -3.438 0
M  V30 4755 O 461.327 -0.20383 -4.11896 0
M  V30 4756 H 460.668 -0.27284 -0.605355 0
M  V30 4757 H 463.198 -1.36966 -1.51992 0
M  V30 4758 H 463.208 -1.04276 -3.9445 0
M  V30 4759 H 461.883 -2.13274 -3.57053 0
M  V30 4760 H 460.46 -0.307091 -3.71633 0
M  V30 4761 N 462.645 1.35699 -0.801477 0
M  V30 4762 C 463.87 2.03687 -0.390678 0
M  V30 4763 C 464.295 1.60015 0.988778 0
M  V30 4764 O 463.653 0.774357 1.63931 0
M  V30 4765 C 463.701 3.57439 -0.476404 0
M  V30 4766 O 462.805 4.09208 0.512106 0
M  V30 4767 H 462.146 0.64344 -0.163956 0
M  V30 4768 H 464.676 1.73403 -1.08594 0
M  V30 4769 H 464.686 4.06544 -0.344357 0
M  V30 4770 H 463.361 3.88576 -1.48262 0
M  V30 4771 H 461.938 3.7134 0.340721 0
M  V30 4772 N 464.123 0.554532 1.47522 0
M  V30 4773 C 465.348 0.0322661 2.07375 0
M  V30 4774 C 465.773 -1.25079 1.40488 0
M  V30 4775 O 465.131 -1.74859 0.47896 0
M  V30 4776 C 465.179 -0.149397 3.6029 0
M  V30 4777 O 464.283 -1.21259 3.9417 0
M  V30 4778 H 463.624 0.0501228 0.662106 0
M  V30 4779 H 466.154 0.769452 1.8958 0
M  V30 4780 H 466.164 -0.364437 4.06369 0
M  V30 4781 H 464.839 0.787743 4.08372 0
M  V30 4782 H 463.416 -0.97825 3.5984 0
M  V30 4783 N 465.601 -1.54893 0.290851 0
M  V30 4784 C 467.012 -1.85584 -0.203816 0
M  V30 4785 C 467.363 -1.21285 -1.54222 0
M  V30 4786 O 466.488 -0.506841 -2.10381 0
M  V30 4787 C 467.083 -3.367 -0.376595 0
M  V30 4788 C 465.642 -3.6746 -0.815485 0
M  V30 4789 C 464.789 -2.77178 0.0821087 0
M  V30 4790 H 467.74 -1.50208 0.512175 0
M  V30 4791 H 467.761 -3.60656 -1.21275 0
M  V30 4792 H 467.273 -3.8347 0.59767 0
M  V30 4793 H 465.374 -3.26201 -1.80066 0
M  V30 4794 H 465.487 -4.7478 -0.641905 0
M  V30 4795 H 463.851 -2.50925 -0.436895 0
M  V30 4796 H 464.634 -3.26767 1.05254 0
M  V30 4797 N 467.08 -0.0183926 -1.57589 0
M  V30 4798 C 468.012 0.995557 -2.06449 0
M  V30 4799 C 469.025 1.29556 -0.985849 0
M  V30 4800 O 470.214 1.2621 -1.26227 0
M  V30 4801 C 467.314 2.32572 -2.46502 0
M  V30 4802 C 466.487 2.21245 -3.77319 0
M  V30 4803 C 465.546 3.37104 -4.04039 0
M  V30 4804 O 464.572 3.14468 -4.74445 0
M  V30 4805 N 465.774 4.60553 -3.53372 0
M  V30 4806 H 468.539 0.578746 -2.94059 0
M  V30 4807 H 466.1 0.168603 -1.6102 0
M  V30 4808 H 468.092 3.08887 -2.61478 0
M  V30 4809 H 466.662 2.65931 -1.64315 0
M  V30 4810 H 465.882 1.29723 -3.72244 0
M  V30 4811 H 467.17 2.10868 -4.63047 0
M  V30 4812 H 466.568 4.81839 -2.96391 0
M  V30 4813 H 465.125 5.34072 -3.73644 0
M  V30 4814 N 468.558 1.5553 0.254621 0
M  V30 4815 C 469.969 1.67518 0.824286 0
M  V30 4816 C 470.32 0.614429 1.86331 0
M  V30 4817 O 469.445 -0.240736 2.15057 0
M  V30 4818 C 470.04 3.03692 1.50189 0
M  V30 4819 C 468.599 3.17646 2.01935 0
M  V30 4820 C 467.746 2.63373 0.867746 0
M  V30 4821 H 470.697 1.58671 0.0305843 0
M  V30 4822 H 470.718 2.97706 2.36962 0
M  V30 4823 H 470.23 3.80874 0.745431 0
M  V30 4824 H 468.331 2.45273 2.80485 0
M  V30 4825 H 468.444 4.24455 2.22204 0
M  V30 4826 H 466.808 2.20999 1.26616 0
M  V30 4827 H 467.591 3.43074 0.124498 0
M  V30 4828 N 470.036 -0.519951 1.48776 0
M  V30 4829 C 470.983 -1.62352 1.64044 0
M  V30 4830 C 471.953 -1.58945 0.482251 0
M  V30 4831 O 473.138 -1.77219 0.706971 0
M  V30 4832 C 470.278 -3.00579 1.69547 0
M  V30 4833 C 469.391 -3.14145 2.96541 0
M  V30 4834 C 468.526 -4.42991 2.93142 0
M  V30 4835 C 467.565 -4.50122 4.14797 0
M  V30 4836 N 466.702 -5.7037 4.09418 0
M  V30 4837 H 471.542 -1.48643 2.58281 0
M  V30 4838 H 469.079 -0.723516 1.28077 0
M  V30 4839 H 471.037 -3.80671 1.70719 0
M  V30 4840 H 469.667 -3.13036 0.787918 0
M  V30 4841 H 468.719 -2.27239 3.05068 0
M  V30 4842 H 470.031 -3.15275 3.86527 0
M  V30 4843 H 469.185 -5.31385 2.92772 0
M  V30 4844 H 467.924 -4.44398 2.00902 0
M  V30 4845 H 466.929 -3.60133 4.15433 0
M  V30 4846 H 468.154 -4.50445 5.08208 0
M  V30 4847 H 466.1 -5.72655 3.20004 0
M  V30 4848 H 466.017 -5.73036 4.93119 0
M  V30 4849 H 467.285 -6.61023 4.13121 0
M  V30 4850 N 471.514 -1.37532 -0.769588 0
M  V30 4851 C 472.461 -1.3347 -1.88293 0
M  V30 4852 C 473.431 -0.199891 -1.64893 0
M  V30 4853 O 474.616 -0.389594 -1.8678 0
M  V30 4854 C 471.756 -1.14968 -3.25387 0
M  V30 4855 C 470.869 -2.37698 -3.60727 0
M  V30 4856 C 470.004 -2.12051 -4.8704 0
M  V30 4857 C 469.043 -3.30636 -5.15117 0
M  V30 4858 N 468.18 -3.04527 -6.3262 0
M  V30 4859 H 473.02 -2.28658 -1.911 0
M  V30 4860 H 470.557 -1.13622 -0.934257 0
M  V30 4861 H 472.515 -1.02261 -4.04473 0
M  V30 4862 H 471.145 -0.234263 -3.21949 0
M  V30 4863 H 470.197 -2.61137 -2.76608 0
M  V30 4864 H 471.509 -3.26131 -3.77413 0
M  V30 4865 H 470.663 -1.96388 -5.74035 0
M  V30 4866 H 469.402 -1.20959 -4.72462 0
M  V30 4867 H 468.407 -3.46836 -4.26597 0
M  V30 4868 H 469.632 -4.22582 -5.31603 0
M  V30 4869 H 467.578 -2.16067 -6.19396 0
M  V30 4870 H 467.495 -3.86503 -6.49732 0
M  V30 4871 H 468.763 -2.92485 -7.22546 0
M  V30 4872 N 472.992 0.995999 -1.22138 0
M  V30 4873 C 473.939 2.08551 -0.988687 0
M  V30 4874 C 474.909 1.65864 0.0885021 0
M  V30 4875 O 476.094 1.90704 -0.0604589 0
M  V30 4876 C 473.234 3.40374 -0.569191 0
M  V30 4877 C 472.347 3.96421 -1.71681 0
M  V30 4878 C 471.482 5.1639 -1.2456 0
M  V30 4879 C 470.521 5.64567 -2.36497 0
M  V30 4880 N 469.658 6.75777 -1.90445 0
M  V30 4881 H 474.498 2.2779 -1.92135 0
M  V30 4882 H 472.035 1.1168 -0.957388 0
M  V30 4883 H 473.993 4.16068 -0.307166 0
M  V30 4884 H 472.623 3.21145 0.326462 0
M  V30 4885 H 471.675 3.17628 -2.09324 0
M  V30 4886 H 472.987 4.2816 -2.55891 0
M  V30 4887 H 472.141 5.99362 -0.940774 0
M  V30 4888 H 470.88 4.86266 -0.373662 0
M  V30 4889 H 469.885 4.80185 -2.67772 0
M  V30 4890 H 471.11 5.96716 -3.24202 0
M  V30 4891 H 469.056 6.47443 -1.05609 0
M  V30 4892 H 468.973 7.06818 -2.68223 0
M  V30 4893 H 470.241 7.62262 -1.63022 0
M  V30 4894 N 474.47 1.03057 1.19235 0
M  V30 4895 C 475.881 0.757449 1.70645 0
M  V30 4896 C 476.232 -0.722735 1.82403 0
M  V30 4897 O 475.357 -1.56325 1.49638 0
M  V30 4898 C 475.952 1.36833 3.09939 0
M  V30 4899 C 474.511 1.14375 3.58602 0
M  V30 4900 C 473.658 1.46533 2.35422 0
M  V30 4901 H 476.609 1.19828 1.04052 0
M  V30 4902 H 476.63 0.766184 3.72706 0
M  V30 4903 H 476.142 2.44562 3.01349 0
M  V30 4904 H 474.243 0.0847542 3.72504 0
M  V30 4905 H 474.356 1.83366 4.42622 0
M  V30 4906 H 472.72 0.884712 2.38841 0
M  V30 4907 H 473.503 2.55349 2.2946 0
M  V30 4908 N 475.948 -1.35272 0.808662 0
M  V30 4909 C 476.878 -2.32315 0.234981 0
M  V30 4910 C 477.859 -1.57572 -0.64071 0
M  V30 4911 O 479.044 -1.8563 -0.570551 0
M  V30 4912 C 476.174 -3.41801 -0.615601 0
M  V30 4913 C 475.128 -4.27694 0.161767 0
M  V30 4914 C 474.454 -5.28519 -0.810649 0
M  V30 4915 C 475.754 -5.04231 1.36193 0
M  V30 4916 H 477.448 -2.80543 1.04575 0
M  V30 4917 H 474.994 -1.3488 0.504315 0
M  V30 4918 H 476.947 -4.08693 -1.02702 0
M  V30 4919 H 475.671 -2.92186 -1.45928 0
M  V30 4920 H 474.33 -3.62384 0.554382 0
M  V30 4921 H 473.978 -4.75171 -1.64988 0
M  V30 4922 H 473.678 -5.8686 -0.294822 0
M  V30 4923 H 475.202 -5.98283 -1.22023 0
M  V30 4924 H 476.616 -5.64058 1.02528 0
M  V30 4925 H 475.013 -5.72077 1.81239 0
M  V30 4926 H 476.083 -4.34753 2.14751 0
M  V30 4927 N 477.426 -0.562348 -1.47226 0
M  V30 4928 C 478.703 0.0256985 -1.95583 0
M  V30 4929 C 479.083 1.48032 -1.50498 0
M  V30 4930 O 478.431 2.15973 -0.746181 0
M  V30 4931 C 478.641 -0.125129 -3.48776 0
M  V30 4932 C 479.989 0.0175728 -4.24596 0
M  V30 4933 O 481.013 -0.0529341 -3.56161 0
M  V30 4934 O 479.872 0.170145 -5.46235 0
M  V30 4935 H 476.966 0.0612565 -0.824728 0
M  V30 4936 H 479.512 -0.629233 -1.57603 0
M  V30 4937 H 478.284 -1.13715 -3.74412 0
M  V30 4938 H 477.907 0.567178 -3.93534 0
M  V30 4939 N 478.904 1.54736 -0.299062 0
M  V30 4940 C 480.152 1.99706 0.31017 0
M  V30 4941 C 480.473 1.18896 1.54559 0
M  V30 4942 O 479.743 0.284445 1.93824 0
M  V30 4943 H 478.323 0.737686 0.117596 0
M  V30 4944 H 480.985 1.9054 -0.409943 0
M  V30 4945 H 480.081 3.06596 0.58355 0
M  V30 4946 N 480.382 0.0267497 1.57577 0
M  V30 4947 C 481.292 -0.971633 2.13533 0
M  V30 4948 C 482.308 -1.35868 1.08701 0
M  V30 4949 O 483.484 -1.44058 1.40746 0
M  V30 4950 C 480.549 -2.23622 2.64941 0
M  V30 4951 C 479.61 -1.90982 3.8448 0
M  V30 4952 C 478.843 -3.11411 4.33427 0
M  V30 4953 O 479.066 -4.23992 3.81558 0
M  V30 4954 O 478 -2.93848 5.25297 0
M  V30 4955 H 481.826 -0.525853 2.99113 0
M  V30 4956 H 479.411 -0.193712 1.48139 0
M  V30 4957 H 481.293 -2.97864 2.98086 0
M  V30 4958 H 479.968 -2.67386 1.82446 0
M  V30 4959 H 478.875 -1.14132 3.56265 0
M  V30 4960 H 480.208 -1.52036 4.6813 0
M  V30 4961 N 481.861 -1.55662 -0.24637 0
M  V30 4962 C 483.091 -1.81312 -0.990438 0
M  V30 4963 C 483.499 -0.600234 -1.79426 0
M  V30 4964 O 482.842 0.440537 -1.78339 0
M  V30 4965 C 482.904 -3.0032 -1.97607 0
M  V30 4966 C 482.568 -4.36322 -1.35912 0
M  V30 4967 C 483.565 -5.14295 -0.761348 0
M  V30 4968 C 481.25 -4.83019 -1.37833 0
M  V30 4969 C 483.244 -6.37114 -0.190998 0
M  V30 4970 C 480.931 -6.05786 -0.804128 0
M  V30 4971 C 481.929 -6.82672 -0.211489 0
M  V30 4972 O 481.617 -8.03121 0.353845 0
M  V30 4973 H 481.349 -0.607233 -0.297058 0
M  V30 4974 H 483.903 -2.0356 -0.274351 0
M  V30 4975 H 482.133 -2.73829 -2.73047 0
M  V30 4976 H 483.822 -3.13057 -2.58361 0
M  V30 4977 H 484.588 -4.79337 -0.739013 0
M  V30 4978 H 480.467 -4.23165 -1.829 0
M  V30 4979 H 484.011 -6.97069 0.272206 0
M  V30 4980 H 479.908 -6.40222 -0.823792 0
M  V30 4981 H 480.676 -8.18131 0.245761 0
M  V30 4982 N 483.339 0.512053 -1.4905 0
M  V30 4983 C 484.586 1.26686 -1.57978 0
M  V30 4984 C 484.914 1.92733 -0.261553 0
M  V30 4985 O 484.169 1.80772 0.749667 0
M  V30 4986 C 484.468 2.36446 -2.68008 0
M  V30 4987 C 484.134 1.87932 -4.09869 0
M  V30 4988 C 482.796 1.74419 -4.48477 0
M  V30 4989 C 485.148 1.5149 -4.98698 0
M  V30 4990 C 482.476 1.22827 -5.73699 0
M  V30 4991 C 484.828 1.01355 -6.24428 0
M  V30 4992 C 483.492 0.864735 -6.61875 0
M  V30 4993 H 482.762 0.463577 -0.578081 0
M  V30 4994 H 485.409 0.569421 -1.82838 0
M  V30 4995 H 483.714 3.11933 -2.37076 0
M  V30 4996 H 485.411 2.9453 -2.72127 0
M  V30 4997 H 482.001 1.99405 -3.79389 0
M  V30 4998 H 486.185 1.60782 -4.69535 0
M  V30 4999 H 481.441 1.10008 -6.01422 0
M  V30 5000 H 485.615 0.722351 -6.92644 0
M  V30 5001 H 483.242 0.462777 -7.5879 0
M  V30 5002 N 484.817 1.37938 0.762283 0
M  V30 5003 C 486.045 1.36883 1.55147 0
M  V30 5004 C 486.46 -0.0435348 1.8875 0
M  V30 5005 O 485.817 -1.00786 1.52146 0
M  V30 5006 C 485.868 2.21624 2.85596 0
M  V30 5007 O 485.589 3.57358 2.5343 0
M  V30 5008 C 487.09 2.28653 3.7978 0
M  V30 5009 H 484.31 0.468521 0.480343 0
M  V30 5010 H 486.854 1.81404 0.944079 0
M  V30 5011 H 485.009 1.80588 3.42734 0
M  V30 5012 H 485.423 4.01883 3.37032 0
M  V30 5013 H 486.897 2.9225 4.68288 0
M  V30 5014 H 487.374 1.29767 4.19592 0
M  V30 5015 H 487.98 2.70043 3.28568 0
M  V30 5016 N 486.295 -0.989507 1.22664 0
M  V30 5017 C 487.225 -2.09847 1.02404 0
M  V30 5018 C 488.206 -1.70007 -0.0561303 0
M  V30 5019 O 489.391 -1.93906 0.106748 0
M  V30 5020 C 486.521 -3.41996 0.604663 0
M  V30 5021 C 485.475 -3.95699 1.63115 0
M  V30 5022 C 484.801 -5.23936 1.0675 0
M  V30 5023 C 486.101 -4.25999 3.02196 0
M  V30 5024 H 487.795 -2.27054 1.95158 0
M  V30 5025 H 485.341 -1.09111 0.939727 0
M  V30 5026 H 487.294 -4.1899 0.45002 0
M  V30 5027 H 486.018 -3.24626 -0.35855 0
M  V30 5028 H 484.677 -3.2084 1.77362 0
M  V30 5029 H 484.325 -5.02909 0.0955422 0
M  V30 5030 H 484.025 -5.60833 1.75328 0
M  V30 5031 H 485.549 -6.0356 0.924516 0
M  V30 5032 H 486.963 -4.93777 2.91303 0
M  V30 5033 H 485.36 -4.74076 3.67929 0
M  V30 5034 H 486.43 -3.33636 3.51873 0
M  V30 5035 N 487.773 -1.03688 -1.18687 0
M  V30 5036 C 488.705 -0.582696 -2.21669 0
M  V30 5037 C 489.718 0.345656 -1.59088 0
M  V30 5038 O 490.907 0.140776 -1.77944 0
M  V30 5039 C 488.007 0.169204 -3.38477 0
M  V30 5040 C 487.18 -0.766079 -4.30639 0
M  V30 5041 C 486.239 -0.0581541 -5.26168 0
M  V30 5042 O 485.265 -0.687346 -5.65035 0
M  V30 5043 N 486.467 1.20981 -5.67753 0
M  V30 5044 H 489.232 -1.46843 -2.61261 0
M  V30 5045 H 486.793 -0.916896 -1.33434 0
M  V30 5046 H 488.785 0.652543 -3.99405 0
M  V30 5047 H 487.355 0.956435 -2.97609 0
M  V30 5048 H 486.575 -1.42935 -3.67373 0
M  V30 5049 H 487.863 -1.40146 -4.89118 0
M  V30 5050 H 487.261 1.74159 -5.38224 0
M  V30 5051 H 485.818 1.6375 -6.30896 0
M  V30 5052 N 489.251 1.34841 -0.815825 0
M  V30 5053 C 490.5 1.97755 -0.396976 0
M  V30 5054 C 490.813 1.65422 1.04379 0
M  V30 5055 O 492.019 2.21771 1.5662 0
M  V30 5056 C 490.475 3.53818 -0.658869 0
M  V30 5057 C 490.083 3.95051 -2.11278 0
M  V30 5058 C 491.827 4.23397 -0.305834 0
M  V30 5059 C 489.734 5.43997 -2.31994 0
M  V30 5060 H 488.664 0.739985 -0.1447 0
M  V30 5061 H 491.315 1.53781 -1.00118 0
M  V30 5062 H 489.697 3.95997 0.0154112 0
M  V30 5063 H 490.871 3.63998 -2.82564 0
M  V30 5064 H 489.186 3.38388 -2.42657 0
M  V30 5065 H 491.783 5.32899 -0.43854 0
M  V30 5066 H 492.126 4.09508 0.748952 0
M  V30 5067 H 492.659 3.8667 -0.934403 0
M  V30 5068 H 489.398 5.62865 -3.35952 0
M  V30 5069 H 488.918 5.76589 -1.65244 0
M  V30 5070 H 490.597 6.10584 -2.14001 0
M  V30 5071 N 490.729 0.570148 1.46925 0
M  V30 5072 C 492.145 0.23087 1.57921 0
M  V30 5073 C 492.345 -1.26676 1.56702 0
M  V30 5074 O 491.401 -2.04774 1.47729 0
M  V30 5075 C 492.714 0.868973 2.8787 0
M  V30 5076 C 494.262 0.841397 3.01479 0
M  V30 5077 C 494.737 1.45881 4.34146 0
M  V30 5078 N 496.228 1.42258 4.40814 0
M  V30 5079 C 496.963 1.8698 5.42057 0
M  V30 5080 N 496.459 2.39618 6.50042 0
M  V30 5081 N 498.252 1.77972 5.33181 0
M  V30 5082 H 490.403 1.54301 1.45962 0
M  V30 5083 H 492.666 0.644224 0.69547 0
M  V30 5084 H 492.372 1.922 2.94537 0
M  V30 5085 H 492.246 0.369682 3.75384 0
M  V30 5086 H 494.633 -0.202973 2.94401 0
M  V30 5087 H 494.714 1.37858 2.15474 0
M  V30 5088 H 494.358 2.50231 4.4198 0
M  V30 5089 H 494.288 0.896958 5.18905 0
M  V30 5090 H 496.779 1.03768 3.63374 0
M  V30 5091 H 497.092 2.71633 7.23488 0
M  V30 5092 H 495.437 2.43636 6.50897 0
M  V30 5093 H 498.628 1.36617 4.4772 0
M  V30 5094 H 498.801 2.13143 6.11943 0
M  V30 5095 N 492.207 -1.54576 0.307264 0
M  V30 5096 C 493.455 -1.99867 -0.299574 0
M  V30 5097 C 493.776 -1.19714 -1.53927 0
M  V30 5098 O 493.046 -0.29472 -1.9367 0
M  V30 5099 H 491.626 -0.738299 -0.113683 0
M  V30 5100 H 494.288 -1.9032 0.420042 0
M  V30 5101 H 493.384 -3.06901 -0.567283 0
M  V30 5102 N 493.685 -0.035106 -1.57561 0
M  V30 5103 C 495.101 0.321334 -1.56332 0
M  V30 5104 C 495.301 1.72509 -1.04129 0
M  V30 5105 O 494.357 2.4287 -0.690694 0
M  V30 5106 C 495.67 0.164469 -3.0025 0
M  V30 5107 C 497.218 0.236786 -3.12103 0
M  V30 5108 C 497.693 0.10864 -4.57871 0
M  V30 5109 N 499.184 0.165433 -4.62904 0
M  V30 5110 C 499.919 0.0901506 -5.73329 0
M  V30 5111 N 499.415 -0.0365606 -6.9279 0
M  V30 5112 N 501.208 0.144572 -5.61914 0
M  V30 5113 H 493.359 -0.952976 -1.89821 0
M  V30 5114 H 495.622 -0.368537 -0.873432 0
M  V30 5115 H 495.328 -0.802746 -3.42416 0
M  V30 5116 H 495.202 0.932194 -3.655 0
M  V30 5117 H 497.589 1.19446 -2.69845 0
M  V30 5118 H 497.67 -0.561419 -2.49563 0
M  V30 5119 H 497.314 -0.845644 -5.00811 0
M  V30 5120 H 497.244 0.925786 -5.18398 0
M  V30 5121 H 499.735 0.263269 -3.76982 0
M  V30 5122 H 500.048 -0.0871487 -7.72751 0
M  V30 5123 H 498.393 -0.0714256 -6.94963 0
M  V30 5124 H 501.584 0.242006 -4.67474 0
M  V30 5125 H 501.757 0.0824413 -6.47948 0
M  V30 5126 N 495.163 1.55791 0.238111 0
M  V30 5127 C 496.073 1.94196 1.31625 0
M  V30 5128 C 497.089 0.843545 1.52185 0
M  V30 5129 O 498.265 1.1457 1.65637 0
M  V30 5130 C 495.33 2.2365 2.64918 0
M  V30 5131 C 494.391 3.46971 2.52804 0
M  V30 5132 C 493.624 3.7501 3.79741 0
M  V30 5133 O 493.847 3.04982 4.82019 0
M  V30 5134 O 492.781 4.68525 3.77846 0
M  V30 5135 H 496.607 2.86044 1.02043 0
M  V30 5136 H 494.192 1.42786 0.439603 0
M  V30 5137 H 496.074 2.43863 3.4367 0
M  V30 5138 H 494.749 1.34979 2.94215 0
M  V30 5139 H 493.656 3.32055 1.72309 0
M  V30 5140 H 494.989 4.35971 2.28451 0
M  V30 5141 N 496.642 -0.504142 1.49319 0
M  V30 5142 C 498.058 -0.835039 1.36012 0
M  V30 5143 C 498.258 -1.97674 0.390808 0
M  V30 5144 O 497.314 -2.51867 -0.178655 0
M  V30 5145 C 498.627 -1.17821 2.76656 0
M  V30 5146 C 500.175 -1.2866 2.85334 0
M  V30 5147 C 500.65 -1.66307 4.26739 0
M  V30 5148 N 502.141 -1.73362 4.29534 0
M  V30 5149 C 502.876 -2.0393 5.35911 0
M  V30 5150 N 502.372 -2.32744 6.52535 0
M  V30 5151 N 504.165 -2.05155 5.23324 0
M  V30 5152 H 496.316 0.248764 2.10938 0
M  V30 5153 H 498.579 0.0486962 0.946748 0
M  V30 5154 H 498.285 -0.412682 3.4927 0
M  V30 5155 H 498.159 -2.12239 3.11825 0
M  V30 5156 H 500.546 -2.04285 2.1296 0
M  V30 5157 H 500.627 -0.323004 2.53752 0
M  V30 5158 H 500.271 -0.91234 4.99639 0
M  V30 5159 H 500.201 -2.63761 4.55782 0
M  V30 5160 H 502.692 -1.53268 3.45424 0
M  V30 5161 H 503.005 -2.55248 7.2943 0
M  V30 5162 H 501.35 -2.30207 6.55767 0
M  V30 5163 H 504.541 -1.82119 4.3122 0
M  V30 5164 H 504.714 -2.28644 6.06322 0
M  V30 5165 N 498.12 -1.38341 -0.754957 0
M  V30 5166 C 499.367 -1.34473 -1.51404 0
M  V30 5167 C 499.695 0.0656458 -1.94389 0
M  V30 5168 O 498.95 1.04244 -1.65625 0
M  V30 5169 C 499.249 -2.2452 -2.78075 0
M  V30 5170 C 498.915 -3.72512 -2.54059 0
M  V30 5171 C 497.577 -4.1284 -2.47218 0
M  V30 5172 C 499.929 -4.66197 -2.33044 0
M  V30 5173 C 497.257 -5.44945 -2.17376 0
M  V30 5174 C 499.609 -5.98558 -2.04723 0
M  V30 5175 C 498.273 -6.37972 -1.96337 0
M  V30 5176 H 497.543 -0.492072 -0.554027 0
M  V30 5177 H 500.19 -1.70687 -0.868223 0
M  V30 5178 H 498.495 -1.81357 -3.473 0
M  V30 5179 H 500.192 -2.18832 -3.36026 0
M  V30 5180 H 496.782 -3.40538 -2.60253 0
M  V30 5181 H 500.966 -4.35888 -2.37309 0
M  V30 5182 H 496.222 -5.74426 -2.09391 0
M  V30 5183 H 500.396 -6.70693 -1.87465 0
M  V30 5184 H 498.023 -7.40258 -1.72978 0
M  V30 5185 N 499.598 0.982988 -1.23187 0
M  V30 5186 C 500.508 2.10907 -1.02739 0
M  V30 5187 C 501.524 1.73979 0.0273188 0
M  V30 5188 O 502.7 2.00702 -0.16757 0
M  V30 5189 C 499.765 3.41142 -0.618304 0
M  V30 5190 C 498.826 3.92112 -1.74777 0
M  V30 5191 C 498.059 5.16131 -1.3581 0
M  V30 5192 O 498.282 5.6989 -0.241201 0
M  V30 5193 O 497.216 5.61103 -2.17824 0
M  V30 5194 H 501.042 2.31046 -1.97108 0
M  V30 5195 H 498.627 1.09284 -1.01869 0
M  V30 5196 H 500.509 4.19488 -0.400982 0
M  V30 5197 H 499.184 3.2234 0.296421 0
M  V30 5198 H 498.091 3.14895 -2.0197 0
M  V30 5199 H 499.424 4.15364 -2.64071 0
M  V30 5200 N 501.076 1.04316 1.18135 0
M  V30 5201 C 502.009 0.580823 2.20685 0
M  V30 5202 C 502.987 -0.385943 1.57953 0
M  V30 5203 O 504.171 -0.299654 1.86103 0
M  V30 5204 C 501.298 -0.151162 3.38363 0
M  V30 5205 C 500.344 0.769247 4.19505 0
M  V30 5206 S 501.177 2.25352 4.85774 0
M  V30 5207 C 502.333 1.53246 6.0685 0
M  V30 5208 H 502.566 1.44968 2.5956 0
M  V30 5209 H 500.099 0.85434 1.28609 0
M  V30 5210 H 502.057 -0.567315 4.06561 0
M  V30 5211 H 500.718 -0.995936 2.97892 0
M  V30 5212 H 499.911 0.203335 5.0359 0
M  V30 5213 H 499.513 1.12436 3.56699 0
M  V30 5214 H 501.805 0.82689 6.72435 0
M  V30 5215 H 502.748 2.35044 6.67952 0
M  V30 5216 H 503.156 1.0237 5.5514 0
M  V30 5217 N 502.554 -1.34406 0.822964 0
M  V30 5218 C 503.801 -1.98284 0.411057 0
M  V30 5219 C 504.129 -1.65245 -1.02588 0
M  V30 5220 O 503.384 -0.91619 -1.72929 0
M  V30 5221 C 503.683 -3.52981 0.560268 0
M  V30 5222 C 503.349 -4.05931 1.96293 0
M  V30 5223 C 502.011 -4.20103 2.34664 0
M  V30 5224 C 504.363 -4.34412 2.87985 0
M  V30 5225 C 501.691 -4.60082 3.64062 0
M  V30 5226 C 504.043 -4.75838 4.16847 0
M  V30 5227 C 502.707 -4.88215 4.55195 0
M  V30 5228 H 501.977 -0.725573 0.150416 0
M  V30 5229 H 504.624 -1.60349 1.04692 0
M  V30 5230 H 502.929 -3.91477 -0.158982 0
M  V30 5231 H 504.626 -4.00385 0.222087 0
M  V30 5232 H 501.216 -3.95363 1.65487 0
M  V30 5233 H 505.4 -4.23001 2.59584 0
M  V30 5234 H 500.656 -4.67856 3.93599 0
M  V30 5235 H 504.83 -4.96834 4.87984 0
M  V30 5236 H 502.457 -5.18952 5.55512 0
M  V30 5237 N 504.032 -0.577932 -1.46621 0
M  V30 5238 C 505.448 -0.239242 -1.57797 0
M  V30 5239 C 505.648 1.25843 -1.57371 0
M  V30 5240 O 504.704 2.03988 -1.48813 0
M  V30 5241 C 506.017 -0.884227 -2.87405 0
M  V30 5242 C 507.565 -0.857373 -3.01028 0
M  V30 5243 C 508.04 -1.48181 -4.33366 0
M  V30 5244 N 509.531 -1.44593 -4.40053 0
M  V30 5245 C 510.266 -1.89852 -5.41058 0
M  V30 5246 N 509.762 -2.43062 -6.48762 0
M  V30 5247 N 511.555 -1.80797 -5.3223 0
M  V30 5248 H 503.706 -1.55073 -1.45142 0
M  V30 5249 H 505.969 -0.647903 -0.692044 0
M  V30 5250 H 505.675 -1.93759 -2.93514 0
M  V30 5251 H 505.549 -0.389585 -3.75183 0
M  V30 5252 H 507.936 0.187357 -2.94505 0
M  V30 5253 H 508.017 -1.38999 -2.14739 0
M  V30 5254 H 507.661 -2.52572 -4.40647 0
M  V30 5255 H 507.591 -0.924464 -5.18422 0
M  V30 5256 H 510.082 -1.05694 -3.62819 0
M  V30 5257 H 510.395 -2.75466 -7.22038 0
M  V30 5258 H 508.74 -2.47085 -6.49595 0
M  V30 5259 H 511.931 -1.38989 -4.46989 0
M  V30 5260 H 512.104 -2.16385 -6.10804 0
M  V30 5261 N 505.51 1.54411 -0.315457 0
M  V30 5262 C 506.42 2.27737 0.56329 0
M  V30 5263 C 507.436 1.31787 1.13614 0
M  V30 5264 O 508.612 1.64791 1.15784 0
M  V30 5265 C 505.677 3.01478 1.71207 0
M  V30 5266 C 504.738 4.12997 1.17185 0
M  V30 5267 C 503.971 4.83212 2.26588 0
M  V30 5268 O 504.194 4.52884 3.46775 0
M  V30 5269 O 503.128 5.70299 1.92463 0
M  V30 5270 H 506.954 3.03683 -0.0319614 0
M  V30 5271 H 504.539 1.49178 -0.0814188 0
M  V30 5272 H 506.421 3.47683 2.38106 0
M  V30 5273 H 505.096 2.28414 2.29366 0
M  V30 5274 H 504.003 3.71159 0.468174 0
M  V30 5275 H 505.336 4.8808 0.635501 0
M  V30 5276 N 506.988 0.0434614 1.5754 0
M  V30 5277 C 507.918 -0.931651 2.14109 0
M  V30 5278 C 508.899 -1.32971 1.06079 0
M  V30 5279 O 510.084 -1.40579 1.33982 0
M  V30 5280 C 507.214 -2.20914 2.67982 0
M  V30 5281 C 506.168 -1.95139 3.80926 0
M  V30 5282 C 505.494 -3.29276 4.21285 0
M  V30 5283 C 506.794 -1.27913 5.06395 0
M  V30 5284 H 508.488 -0.460497 2.95837 0
M  V30 5285 H 506.034 -0.220058 1.42309 0
M  V30 5286 H 507.987 -2.89522 3.06194 0
M  V30 5287 H 506.711 -2.70221 1.83434 0
M  V30 5288 H 505.37 -1.28945 3.43175 0
M  V30 5289 H 505.018 -3.76369 3.33699 0
M  V30 5290 H 504.718 -3.12831 4.97404 0
M  V30 5291 H 506.242 -3.99129 4.62091 0
M  V30 5292 H 507.656 -1.86544 5.42102 0
M  V30 5293 H 506.053 -1.2182 5.87605 0
M  V30 5294 H 507.123 -0.254066 4.84234 0
M  V30 5295 N 508.466 -1.55915 -0.229846 0
M  V30 5296 C 509.414 -1.9258 -1.30444 0
M  V30 5297 C 510.408 -0.806839 -1.48951 0
M  V30 5298 O 511.614 -0.991606 -1.50224 0
M  V30 5299 H 507.989 -0.611878 -0.437161 0
M  V30 5300 H 509.96 -2.82264 -0.96797 0
M  V30 5301 C 508.709 -2.25171 -2.6494 0
M  V30 5302 H 508.032 -3.10782 -2.51504 0
M  V30 5303 H 509.472 -2.54716 -3.38963 0
M  V30 5304 C 507.931 -1.07394 -3.19324 0
M  V30 5305 O 508.461 -0.330759 -4.00336 0
M  V30 5306 N 506.667 -0.859984 -2.77584 0
M  V30 5307 H 506.214 -1.46605 -2.11813 0
M  V30 5308 H 506.172 -0.0736671 -3.14314 0
M  V30 5309 N 509.944 0.496216 -1.49584 0
M  V30 5310 C 510.854 1.62352 -1.69349 0
M  V30 5311 C 511.87 1.64184 -0.576147 0
M  V30 5312 O 513.046 1.82517 -0.85144 0
M  V30 5313 C 510.111 2.98698 -1.76013 0
M  V30 5314 C 509.172 3.07454 -2.99617 0
M  V30 5315 C 508.405 4.37296 -3.05953 0
M  V30 5316 O 508.628 5.2637 -2.19752 0
M  V30 5317 O 507.562 4.51124 -3.9846 0
M  V30 5318 H 511.388 1.48606 -2.64859 0
M  V30 5319 H 508.973 0.673022 -1.33382 0
M  V30 5320 H 510.855 3.79725 -1.82721 0
M  V30 5321 H 509.53 3.12696 -0.836828 0
M  V30 5322 H 508.437 2.25597 -2.98424 0
M  V30 5323 H 509.77 2.98385 -3.91443 0
M  V30 5324 N 511.423 1.38739 0.74761 0
M  V30 5325 C 512.386 1.36241 1.84312 0
M  V30 5326 C 513.386 0.261811 1.58654 0
M  V30 5327 O 514.576 0.519031 1.66288 0
M  V30 5328 C 511.708 1.12253 3.21888 0
M  V30 5329 H 512.901 2.33712 1.87933 0
M  V30 5330 H 510.454 1.2412 0.949946 0
M  V30 5331 H 511.189 0.154133 3.23934 0
M  V30 5332 H 510.974 1.91943 3.41907 0
M  V30 5333 H 512.464 1.13215 4.0196 0
M  V30 5334 N 512.901 -0.976442 1.23707 0
M  V30 5335 C 513.831 -2.08749 1.04624 0
M  V30 5336 C 514.812 -1.70057 -0.0380956 0
M  V30 5337 O 515.997 -1.93782 0.127308 0
M  V30 5338 C 513.127 -3.41335 0.640902 0
M  V30 5339 C 512.081 -3.93947 1.67302 0
M  V30 5340 C 511.407 -5.22774 1.12301 0
M  V30 5341 C 512.707 -4.22769 3.06697 0
M  V30 5342 H 514.401 -2.24972 1.97555 0
M  V30 5343 H 511.947 -1.08108 0.951247 0
M  V30 5344 H 513.9 -4.18489 0.494434 0
M  V30 5345 H 512.624 -3.24988 -0.324099 0
M  V30 5346 H 511.283 -3.18941 1.80755 0
M  V30 5347 H 510.931 -5.0278 0.148877 0
M  V30 5348 H 510.631 -5.58942 1.81267 0
M  V30 5349 H 512.155 -6.02546 0.988479 0
M  V30 5350 H 513.569 -4.90659 2.96524 0
M  V30 5351 H 511.966 -4.70147 3.72937 0
M  V30 5352 H 513.036 -3.29885 3.55392 0
M  V30 5353 N 514.379 -1.04941 -1.1758 0
M  V30 5354 C 515.289 -0.658826 -2.25159 0
M  V30 5355 C 516.305 0.318941 -1.71052 0
M  V30 5356 O 517.481 0.171669 -2.00667 0
M  V30 5357 C 514.546 -0.0369522 -3.4668 0
M  V30 5358 C 513.607 -1.06484 -4.15884 0
M  V30 5359 C 512.84 -0.472551 -5.31604 0
M  V30 5360 O 513.063 0.718736 -5.65854 0
M  V30 5361 O 511.997 -1.20557 -5.89703 0
M  V30 5362 H 515.823 -1.55533 -2.60851 0
M  V30 5363 H 513.408 -0.820819 -1.24832 0
M  V30 5364 H 515.29 0.308784 -4.20267 0
M  V30 5365 H 513.965 0.833238 -3.12792 0
M  V30 5366 H 512.872 -1.46253 -3.44327 0
M  V30 5367 H 514.205 -1.9061 -4.53794 0
M  V30 5368 N 515.857 1.33968 -0.830081 0
M  V30 5369 C 516.787 2.31911 -0.271911 0
M  V30 5370 C 517.768 1.58571 0.61556 0
M  V30 5371 O 518.953 1.86514 0.540946 0
M  V30 5372 C 516.083 3.42737 0.561146 0
M  V30 5373 C 515.037 4.27383 -0.229789 0
M  V30 5374 C 514.363 5.29742 0.726463 0
M  V30 5375 C 515.663 5.02 -1.44197 0
M  V30 5376 H 517.357 2.78844 -1.09025 0
M  V30 5377 H 514.903 1.34061 -0.52571 0
M  V30 5378 H 516.856 4.10276 0.961867 0
M  V30 5379 H 515.58 2.94471 1.41261 0
M  V30 5380 H 514.239 3.61456 -0.611964 0
M  V30 5381 H 513.887 4.77736 1.57408 0
M  V30 5382 H 513.587 5.87255 0.20142 0
M  V30 5383 H 515.111 6.00149 1.12489 0
M  V30 5384 H 516.525 5.62355 -1.11488 0
M  V30 5385 H 514.922 5.69122 -1.90317 0
M  V30 5386 H 515.992 4.31281 -2.2164 0
M  V30 5387 N 517.335 0.585699 1.46312 0
M  V30 5388 C 518.282 -0.145835 2.30339 0
M  V30 5389 C 519.252 -0.881215 1.40797 0
M  V30 5390 O 520.437 -0.871293 1.69744 0
M  V30 5391 C 517.577 -1.15161 3.25318 0
M  V30 5392 C 516.69 -0.419367 4.2996 0
M  V30 5393 C 515.825 -1.41293 5.12064 0
M  V30 5394 C 514.864 -0.667261 6.08452 0
M  V30 5395 N 514.001 -1.60903 6.83414 0
M  V30 5396 H 518.841 0.576755 2.92365 0
M  V30 5397 H 516.378 0.296237 1.44086 0
M  V30 5398 H 518.336 -1.74763 3.78832 0
M  V30 5399 H 516.966 -1.84188 2.65094 0
M  V30 5400 H 516.018 0.291751 3.7928 0
M  V30 5401 H 517.33 0.163433 4.98532 0
M  V30 5402 H 516.484 -2.08167 5.6987 0
M  V30 5403 H 515.223 -2.02966 4.43459 0
M  V30 5404 H 514.228 0.0152356 5.49798 0
M  V30 5405 H 515.453 -0.0558817 6.79077 0
M  V30 5406 H 513.399 -2.21381 6.17516 0
M  V30 5407 H 513.316 -1.07911 7.48259 0
M  V30 5408 H 514.584 -2.26802 7.45775 0
M  V30 5409 N 518.813 -1.54241 0.323641 0
M  V30 5410 C 520.09 -1.92741 -0.333181 0
M  V30 5411 C 520.47 -1.25326 -1.69872 0
M  V30 5412 O 519.818 -0.396991 -2.25025 0
M  V30 5413 C 520.028 -3.46399 -0.425322 0
M  V30 5414 C 521.376 -4.19029 -0.68557 0
M  V30 5415 O 522.4 -3.52555 -0.50824 0
M  V30 5416 O 521.259 -5.36751 -1.02767 0
M  V30 5417 H 518.353 -0.804811 -0.190286 0
M  V30 5418 H 520.899 -1.65542 0.373361 0
M  V30 5419 H 519.671 -3.87643 0.533737 0
M  V30 5420 H 519.294 -3.79704 -1.17944 0
M  V30 5421 N 520.291 -0.0518155 -1.57515 0
M  V30 5422 C 521.254 0.907547 -2.10467 0
M  V30 5423 C 522.254 1.23947 -1.02439 0
M  V30 5424 O 523.444 1.17604 -1.2851 0
M  V30 5425 C 520.576 2.21723 -2.58944 0
M  V30 5426 H 521.769 0.44851 -2.96527 0
M  V30 5427 H 519.322 0.196598 -1.55059 0
M  V30 5428 H 520.057 2.72206 -1.76279 0
M  V30 5429 H 519.842 1.98935 -3.37886 0
M  V30 5430 H 521.332 2.90441 -3.00056 0
M  V30 5431 N 521.769 1.56035 0.221574 0
M  V30 5432 C 522.701 1.889 1.29805 0
M  V30 5433 C 523.714 0.777269 1.43047 0
M  V30 5434 O 524.903 1.05557 1.43945 0
M  V30 5435 C 522.003 2.0825 2.67367 0
M  V30 5436 C 521.176 3.39267 2.76073 0
M  V30 5437 C 520.235 3.48049 3.94649 0
M  V30 5438 O 519.261 4.2108 3.82988 0
M  V30 5439 N 520.463 2.79191 5.08953 0
M  V30 5440 H 523.228 2.81831 1.01938 0
M  V30 5441 H 520.789 1.5658 0.411612 0
M  V30 5442 H 522.781 2.11441 3.45072 0
M  V30 5443 H 521.351 1.21944 2.87834 0
M  V30 5444 H 520.571 3.48175 1.84846 0
M  V30 5445 H 521.859 4.25575 2.7886 0
M  V30 5446 H 521.257 2.19635 5.21322 0
M  V30 5447 H 519.814 2.88043 5.84701 0
M  V30 5448 N 523.247 -0.488276 1.49845 0
M  V30 5449 C 524.21 -1.57069 1.66919 0
M  V30 5450 C 525.21 -1.51445 0.540479 0
M  V30 5451 O 526.4 -1.5437 0.807188 0
M  V30 5452 C 523.532 -2.96718 1.67844 0
M  V30 5453 H 524.725 -1.43254 2.63474 0
M  V30 5454 H 522.278 -0.713435 1.39068 0
M  V30 5455 H 523.013 -3.15996 0.7292 0
M  V30 5456 H 522.798 -3.02208 2.49826 0
M  V30 5457 H 524.288 -3.75335 1.83066 0
M  V30 5458 N 524.725 -1.39134 -0.740242 0
M  V30 5459 C 525.973 -1.35803 -1.49673 0
M  V30 5460 C 526.294 0.0470897 -1.94943 0
M  V30 5461 O 525.564 0.997347 -1.68611 0
M  V30 5462 H 524.144 -0.499736 -0.555224 0
M  V30 5463 H 526.806 -1.73947 -0.879107 0
M  V30 5464 H 525.902 -2.0174 -2.38133 0
M  V30 5465 N 526.204 0.969867 -1.24223 0
M  V30 5466 C 527.151 2.06407 -1.0327 0
M  V30 5467 C 528.121 1.66014 0.0533 0
M  V30 5468 O 529.306 1.90533 -0.100896 0
M  V30 5469 C 526.446 3.3909 -0.641262 0
M  V30 5470 C 525.559 3.9269 -1.80051 0
M  V30 5471 C 524.694 5.13631 -1.35486 0
M  V30 5472 C 523.733 5.59423 -2.48419 0
M  V30 5473 N 522.87 6.71586 -2.04737 0
M  V30 5474 H 527.71 2.23663 -1.96923 0
M  V30 5475 H 525.247 1.09624 -0.980862 0
M  V30 5476 H 527.205 4.15323 -0.395351 0
M  V30 5477 H 525.835 3.21765 0.258269 0
M  V30 5478 H 524.887 3.13116 -2.16014 0
M  V30 5479 H 526.199 4.22636 -2.64916 0
M  V30 5480 H 525.353 5.97231 -1.0677 0
M  V30 5481 H 524.092 4.85364 -0.476722 0
M  V30 5482 H 523.097 4.74398 -2.77897 0
M  V30 5483 H 524.322 5.89705 -3.36786 0
M  V30 5484 H 522.268 6.45058 -1.19318 0
M  V30 5485 H 522.185 7.0097 -2.83156 0
M  V30 5486 H 523.453 7.58633 -1.79154 0
M  V30 5487 N 527.682 1.05563 1.17022 0
M  V30 5488 C 528.592 0.670758 2.24807 0
M  V30 5489 C 529.608 -0.309865 1.71219 0
M  V30 5490 O 530.784 -0.161025 2.00755 0
M  V30 5491 C 527.849 0.055337 3.46656 0
M  V30 5492 C 526.91 1.08688 4.15314 0
M  V30 5493 C 526.143 0.500736 5.31346 0
M  V30 5494 O 526.366 -0.688718 5.66227 0
M  V30 5495 O 525.3 1.23683 5.89055 0
M  V30 5496 H 529.126 1.56914 2.60023 0
M  V30 5497 H 526.711 0.827428 1.24395 0
M  V30 5498 H 528.593 -0.286492 4.20425 0
M  V30 5499 H 527.268 -0.816638 3.13229 0
M  V30 5500 H 526.175 1.48077 3.43546 0
M  V30 5501 H 527.508 1.93014 4.52777 0
M  V30 5502 N 529.16 -1.33526 0.837174 0
M  V30 5503 C 530.571 -1.80182 0.489017 0
M  V30 5504 C 530.922 -1.69285 -0.991826 0
M  V30 5505 O 530.047 -1.24113 -1.77271 0
M  V30 5506 C 530.642 -3.27149 0.880866 0
M  V30 5507 C 529.201 -3.71828 0.584872 0
M  V30 5508 C 528.348 -2.54974 1.09011 0
M  V30 5509 H 531.299 -1.21071 1.02603 0
M  V30 5510 H 531.32 -3.80024 0.190239 0
M  V30 5511 H 530.832 -3.35048 1.95869 0
M  V30 5512 H 528.933 -3.69457 -0.48295 0
M  V30 5513 H 529.046 -4.65366 1.13892 0
M  V30 5514 H 527.41 -2.4952 0.511047 0
M  V30 5515 H 528.193 -2.65637 2.17467 0
M  V30 5516 N 530.638 -0.59345 -1.46 0
M  V30 5517 C 531.886 -0.082988 -2.0193 0
M  V30 5518 C 532.207 1.28569 -1.46612 0
M  V30 5519 O 531.477 1.84629 -0.654909 0
M  V30 5520 H 530.057 -0.0276882 -0.746487 0
M  V30 5521 H 532.719 -0.771657 -1.78973 0
M  V30 5522 H 531.815 -0.022079 -3.12092 0
M  V30 5523 N 532.116 1.54067 -0.331816 0
M  V30 5524 C 533.364 2.00319 0.267739 0
M  V30 5525 C 533.685 1.22148 1.52003 0
M  V30 5526 O 532.955 0.325494 1.93177 0
M  V30 5527 H 531.535 0.740014 0.101922 0
M  V30 5528 H 534.197 1.89628 -0.450267 0
M  V30 5529 H 533.293 3.07765 0.518385 0
M  V30 5530 N 533.594 0.0601682 1.57485 0
M  V30 5531 C 534.819 -0.624416 1.97777 0
M  V30 5532 C 535.244 -1.63051 0.937867 0
M  V30 5533 O 534.602 -1.81036 -0.0978845 0
M  V30 5534 C 534.65 -1.27979 3.37126 0
M  V30 5535 O 533.754 -2.39556 3.35688 0
M  V30 5536 H 533.095 -0.161581 0.64404 0
M  V30 5537 H 535.625 0.131237 2.04179 0
M  V30 5538 H 535.635 -1.62937 3.74053 0
M  V30 5539 H 534.31 -0.542501 4.12347 0
M  V30 5540 H 532.887 -2.06478 3.10517 0
M  V30 5541 N 535.072 -1.5615 -0.213296 0
M  V30 5542 C 536.488 -1.49327 -0.56336 0
M  V30 5543 C 536.688 -0.756826 -1.86747 0
M  V30 5544 O 535.744 -0.299866 -2.50713 0
M  V30 5545 C 537.057 -2.9392 -0.634944 0
M  V30 5546 C 538.605 -3.04487 -0.725013 0
M  V30 5547 C 539.08 -4.50456 -0.82787 0
M  V30 5548 N 540.571 -4.54533 -0.891876 0
M  V30 5549 C 541.306 -5.64766 -0.991315 0
M  V30 5550 N 540.802 -6.84733 -1.05419 0
M  V30 5551 N 542.595 -5.52637 -1.02709 0
M  V30 5552 H 534.746 -2.02453 0.642366 0
M  V30 5553 H 537.009 -0.920548 0.226487 0
M  V30 5554 H 536.715 -3.50783 0.253859 0
M  V30 5555 H 536.589 -3.46274 -1.49579 0
M  V30 5556 H 538.976 -2.47685 -1.60425 0
M  V30 5557 H 539.057 -2.55289 0.161669 0
M  V30 5558 H 538.701 -5.07878 0.0469464 0
M  V30 5559 H 538.631 -4.97369 -1.73009 0
M  V30 5560 H 541.122 -3.68141 -0.85327 0
M  V30 5561 H 541.435 -7.64493 -1.13007 0
M  V30 5562 H 539.78 -6.87427 -1.02318 0
M  V30 5563 H 542.971 -4.5784 -0.974687 0
M  V30 5564 H 543.144 -6.38576 -1.10113 0
M  V30 5565 N 536.55 0.480323 -1.50102 0
M  V30 5566 C 537.513 1.56181 -1.6775 0
M  V30 5567 C 538.513 1.51156 -0.548503 0
M  V30 5568 O 539.703 1.5394 -0.815363 0
M  V30 5569 C 536.835 2.95823 -1.69415 0
M  V30 5570 H 538.028 1.41855 -2.6423 0
M  V30 5571 H 535.581 0.70605 -1.39444 0
M  V30 5572 H 536.316 3.15604 -0.745948 0
M  V30 5573 H 536.101 3.00878 -2.51425 0
M  V30 5574 H 537.591 3.74359 -1.85054 0
M  V30 5575 N 538.028 1.39524 0.732853 0
M  V30 5576 C 538.978 1.34905 1.83806 0
M  V30 5577 C 539.962 0.229546 1.59254 0
M  V30 5578 O 541.154 0.467255 1.70721 0
M  V30 5579 C 538.283 1.19699 3.21756 0
M  V30 5580 C 537.369 2.36359 3.5213 0
M  V30 5581 N 537.76 3.61834 3.53426 0
M  V30 5582 C 536.058 2.29363 3.82503 0
M  V30 5583 C 536.759 4.38992 3.81655 0
M  V30 5584 N 535.735 3.68606 3.99538 0
M  V30 5585 H 539.537 2.29882 1.83116 0
M  V30 5586 H 537.051 1.33051 0.931194 0
M  V30 5587 H 539.048 1.14472 4.00876 0
M  V30 5588 H 537.708 0.256739 3.23683 0
M  V30 5589 H 538.719 3.95228 3.34686 0
M  V30 5590 H 535.396 1.43612 3.92023 0
M  V30 5591 H 536.786 5.47763 3.89108 0
M  V30 5592 N 539.506 -0.963266 1.24736 0
M  V30 5593 C 540.731 -1.74699 1.11781 0
M  V30 5594 C 541.156 -1.85267 -0.325258 0
M  V30 5595 O 540.514 -1.32681 -1.23553 0
M  V30 5596 C 540.562 -3.14322 1.76731 0
M  V30 5597 O 539.666 -3.99043 1.04109 0
M  V30 5598 H 539.007 -0.53684 0.390767 0
M  V30 5599 H 541.537 -1.20801 1.65131 0
M  V30 5600 H 541.547 -3.64824 1.82668 0
M  V30 5601 H 540.222 -3.05946 2.81726 0
M  V30 5602 H 538.799 -3.5752 1.05991 0
M  V30 5603 N 540.985 -1.06182 -1.16461 0
M  V30 5604 C 542.21 -0.798599 -1.91408 0
M  V30 5605 C 542.635 0.640987 -1.76842 0
M  V30 5606 O 541.993 1.44652 -1.09296 0
M  V30 5607 C 542.041 -1.19665 -3.40165 0
M  V30 5608 O 541.145 -0.334768 -4.11039 0
M  V30 5609 H 540.486 -0.291961 -0.596368 0
M  V30 5610 H 543.016 -1.41732 -1.47557 0
M  V30 5611 H 543.026 -1.16772 -3.90933 0
M  V30 5612 H 541.701 -2.24526 -3.50087 0
M  V30 5613 H 540.278 -0.425168 -3.70468 0
M  V30 5614 N 542.463 1.3308 -0.844243 0
M  V30 5615 C 543.413 2.26589 -0.253289 0
M  V30 5616 C 544.397 1.49501 0.594836 0
M  V30 5617 O 545.589 1.71291 0.445924 0
M  V30 5618 C 542.718 3.38599 0.566176 0
M  V30 5619 C 541.804 4.23081 -0.293756 0
M  V30 5620 N 542.195 4.86751 -1.37505 0
M  V30 5621 C 540.493 4.45925 -0.0817086 0
M  V30 5622 C 541.194 5.49684 -1.90323 0
M  V30 5623 N 540.17 5.30101 -1.20391 0
M  V30 5624 H 543.972 2.73334 -1.08009 0
M  V30 5625 H 541.486 1.47048 -0.689258 0
M  V30 5626 H 543.483 4.04584 1.00587 0
M  V30 5627 H 542.143 2.93401 1.39089 0
M  V30 5628 H 543.154 4.87151 -1.75796 0
M  V30 5629 H 539.831 4.11434 0.709129 0
M  V30 5630 H 541.221 6.10363 -2.80902 0
M  V30 5631 N 543.941 0.601185 1.45683 0
M  V30 5632 C 544.871 -0.108824 2.33246 0
M  V30 5633 C 545.852 -0.865223 1.46451 0
M  V30 5634 O 547.037 -0.83704 1.75235 0
M  V30 5635 C 544.167 -1.11101 3.2905 0
M  V30 5636 C 543.121 -0.468244 4.25431 0
M  V30 5637 C 542.447 -1.57822 5.10878 0
M  V30 5638 C 543.747 0.606469 5.18767 0
M  V30 5639 H 545.441 0.622306 2.92861 0
M  V30 5640 H 542.987 0.300714 1.40825 0
M  V30 5641 H 544.94 -1.61622 3.89174 0
M  V30 5642 H 543.664 -1.87265 2.67581 0
M  V30 5643 H 542.323 0.0160484 3.66596 0
M  V30 5644 H 541.971 -2.32998 4.45781 0
M  V30 5645 H 541.671 -1.15369 5.76163 0
M  V30 5646 H 543.195 -2.08583 5.73869 0
M  V30 5647 H 544.609 0.185589 5.73 0
M  V30 5648 H 543.006 0.952381 5.92494 0
M  V30 5649 H 544.076 1.48559 4.61582 0
M  V30 5650 N 545.419 -1.53889 0.339982 0
M  V30 5651 C 546.366 -2.24902 -0.518452 0
M  V30 5652 C 547.336 -1.24593 -1.09844 0
M  V30 5653 O 548.521 -1.53317 -1.13572 0
M  V30 5654 C 545.661 -3.02262 -1.66529 0
M  V30 5655 C 544.774 -4.17418 -1.11295 0
M  V30 5656 C 543.909 -4.82273 -2.2268 0
M  V30 5657 C 542.948 -5.89503 -1.6478 0
M  V30 5658 N 542.085 -6.48153 -2.69893 0
M  V30 5659 H 546.925 -2.97853 0.0936579 0
M  V30 5660 H 544.462 -1.46986 0.0579924 0
M  V30 5661 H 546.42 -3.45371 -2.3404 0
M  V30 5662 H 545.05 -2.31614 -2.24844 0
M  V30 5663 H 544.102 -3.78976 -0.328886 0
M  V30 5664 H 545.414 -4.94554 -0.649414 0
M  V30 5665 H 544.568 -5.28435 -2.98063 0
M  V30 5666 H 543.307 -4.04552 -2.72376 0
M  V30 5667 H 542.312 -5.42728 -0.879004 0
M  V30 5668 H 543.537 -6.6913 -1.1594 0
M  V30 5669 H 541.483 -5.73298 -3.1885 0
M  V30 5670 H 541.4 -7.20752 -2.28151 0
M  V30 5671 H 542.668 -6.98968 -3.45056 0
M  V30 5672 N 546.897 -0.0685191 -1.57451 0
M  V30 5673 C 548.122 0.613919 -1.98106 0
M  V30 5674 C 548.547 1.62551 -0.946501 0
M  V30 5675 O 547.905 1.81085 0.0882824 0
M  V30 5676 C 547.953 1.26189 -3.378 0
M  V30 5677 O 547.057 2.37773 -3.36954 0
M  V30 5678 H 546.398 0.158163 -0.644888 0
M  V30 5679 H 548.928 -0.142063 -2.04106 0
M  V30 5680 H 548.938 1.60951 -3.74912 0
M  V30 5681 H 547.613 0.520625 -4.12629 0
M  V30 5682 H 546.19 2.04829 -3.11608 0
M  V30 5683 N 548.375 1.56261 0.205012 0
M  V30 5684 C 549.322 1.93754 1.25411 0
M  V30 5685 C 550.292 0.796826 1.45739 0
M  V30 5686 O 551.477 1.05414 1.59036 0
M  V30 5687 C 548.617 2.27383 2.59598 0
M  V30 5688 C 547.73 3.5447 2.46931 0
M  V30 5689 C 546.865 3.77468 3.73753 0
M  V30 5690 C 545.904 4.98014 3.55877 0
M  V30 5691 N 545.041 5.17316 4.74688 0
M  V30 5692 H 549.881 2.83203 0.92737 0
M  V30 5693 H 547.418 1.40158 0.446574 0
M  V30 5694 H 549.376 2.44895 3.37761 0
M  V30 5695 H 548.006 1.41088 2.90335 0
M  V30 5696 H 547.058 3.45061 1.60116 0
M  V30 5697 H 548.37 4.42789 2.29651 0
M  V30 5698 H 547.524 3.95165 4.60358 0
M  V30 5699 H 546.263 2.87461 3.93976 0
M  V30 5700 H 545.268 4.80249 2.67657 0
M  V30 5701 H 546.493 5.8952 3.37109 0
M  V30 5702 H 544.439 4.30255 4.95194 0
M  V30 5703 H 544.356 5.99796 4.60197 0
M  V30 5704 H 545.624 5.39463 5.62672 0
M  V30 5705 N 549.853 -0.472356 1.50355 0
M  V30 5706 C 550.8 -1.57051 1.69126 0
M  V30 5707 C 551.77 -1.5733 0.532574 0
M  V30 5708 O 552.955 -1.7488 0.762994 0
M  V30 5709 C 550.095 -2.95033 1.79024 0
M  V30 5710 C 549.208 -3.04552 3.06386 0
M  V30 5711 C 548.343 -4.33441 3.07087 0
M  V30 5712 C 547.382 -4.36697 4.28908 0
M  V30 5713 N 546.519 -5.57056 4.27356 0
M  V30 5714 H 551.359 -1.40351 2.62879 0
M  V30 5715 H 548.896 -0.682403 1.30314 0
M  V30 5716 H 550.854 -3.75048 1.82744 0
M  V30 5717 H 549.484 -3.10371 0.887109 0
M  V30 5718 H 548.536 -2.17419 3.12143 0
M  V30 5719 H 549.848 -3.02818 3.96362 0
M  V30 5720 H 549.002 -5.21801 3.09529 0
M  V30 5721 H 547.741 -4.37782 2.14939 0
M  V30 5722 H 546.746 -3.46734 4.2668 0
M  V30 5723 H 547.971 -4.34049 5.22282 0
M  V30 5724 H 545.917 -5.62184 3.3806 0
M  V30 5725 H 545.834 -5.57058 5.111 0
M  V30 5726 H 547.102 -6.47545 4.33942 0
M  V30 5727 N 551.331 -1.39911 -0.725443 0
M  V30 5728 C 552.579 -1.37382 -1.48224 0
M  V30 5729 C 552.9 0.0264107 -1.94982 0
M  V30 5730 O 552.17 0.979408 -1.6966 0
M  V30 5731 H 550.75 -0.505596 -0.549892 0
M  V30 5732 H 553.412 -1.7487 -0.860608 0
M  V30 5733 H 552.508 -2.04254 -2.3598 0
M  V30 5734 N 552.809 0.956637 -1.25245 0
M  V30 5735 C 553.741 2.05628 -1.01242 0
M  V30 5736 C 554.754 1.62785 0.0219579 0
M  V30 5737 O 555.943 1.77184 -0.216365 0
M  V30 5738 C 553.043 3.35069 -0.508161 0
M  V30 5739 C 552.216 4.06761 -1.60823 0
M  V30 5740 C 551.275 5.14473 -1.1047 0
M  V30 5741 O 550.301 5.40033 -1.79868 0
M  V30 5742 N 551.503 5.80474 0.0550773 0
M  V30 5743 H 554.268 2.2679 -1.95925 0
M  V30 5744 H 551.829 1.12505 -1.16423 0
M  V30 5745 H 553.821 4.044 -0.155819 0
M  V30 5746 H 552.391 3.10694 0.344683 0
M  V30 5747 H 551.611 3.31555 -2.13224 0
M  V30 5748 H 552.899 4.51418 -2.34733 0
M  V30 5749 H 552.297 5.62125 0.635004 0
M  V30 5750 H 550.854 6.50868 0.348469 0
M  V30 5751 N 554.287 1.06798 1.15896 0
M  V30 5752 C 555.512 0.808739 1.90982 0
M  V30 5753 C 555.937 -0.6316 1.77179 0
M  V30 5754 O 555.295 -1.4407 1.10061 0
M  V30 5755 C 555.343 1.21468 3.39526 0
M  V30 5756 O 554.447 0.356562 4.10856 0
M  V30 5757 H 553.788 0.29512 0.594811 0
M  V30 5758 H 556.318 1.42513 1.46804 0
M  V30 5759 H 556.328 1.18844 3.90308 0
M  V30 5760 H 555.003 2.26379 3.48891 0
M  V30 5761 H 553.58 0.444808 3.70238 0
M  V30 5762 N 555.766 -1.3263 0.851289 0
M  V30 5763 C 556.994 -2.01563 0.466899 0
M  V30 5764 C 557.409 -1.63996 -0.935447 0
M  V30 5765 O 556.766 -0.85957 -1.6099 0
M  V30 5766 C 556.817 -3.56613 0.592433 0
M  V30 5767 O 556.538 -3.92828 1.93954 0
M  V30 5768 C 558.039 -4.42818 0.206612 0
M  V30 5769 H 555.259 -0.645307 0.183902 0
M  V30 5770 H 557.803 -1.69285 1.1473 0
M  V30 5771 H 555.958 -3.87379 -0.0401936 0
M  V30 5772 H 556.372 -4.87545 1.9339 0
M  V30 5773 H 557.846 -5.50918 0.345462 0
M  V30 5774 H 558.323 -4.30844 -0.85264 0
M  V30 5775 H 558.929 -4.17434 0.814176 0
M  V30 5776 N 557.244 -0.608902 -1.45362 0
M  V30 5777 C 558.469 -0.10921 -2.07112 0
M  V30 5778 C 558.894 1.19779 -1.45033 0
M  V30 5779 O 558.252 1.72961 -0.543527 0
M  V30 5780 C 558.3 0.0155745 -3.60597 0
M  V30 5781 O 557.404 1.06546 -3.98399 0
M  V30 5782 H 556.745 -0.0746619 -0.659789 0
M  V30 5783 H 559.275 -0.839283 -1.86594 0
M  V30 5784 H 559.285 0.213364 -4.07442 0
M  V30 5785 H 557.96 -0.938765 -4.05167 0
M  V30 5786 H 556.537 0.844024 -3.63223 0
M  V30 5787 N 558.722 1.53707 -0.348139 0
M  V30 5788 C 560.138 1.596 0.00361134 0
M  V30 5789 C 560.338 1.36394 1.4832 0
M  V30 5790 O 559.394 1.16046 2.24253 0
M  V30 5791 C 560.707 2.97512 -0.436682 0
M  V30 5792 C 562.255 3.10568 -0.389416 0
M  V30 5793 C 562.73 4.50866 -0.805249 0
M  V30 5794 N 564.221 4.56929 -0.759616 0
M  V30 5795 C 564.956 5.63643 -1.05327 0
M  V30 5796 N 564.452 6.78189 -1.41531 0
M  V30 5797 N 566.245 5.5354 -0.977207 0
M  V30 5798 H 558.396 1.67044 -1.31187 0
M  V30 5799 H 560.659 0.782559 -0.535075 0
M  V30 5800 H 560.365 3.19575 -1.46849 0
M  V30 5801 H 560.239 3.76742 0.185744 0
M  V30 5802 H 562.626 2.88226 0.633228 0
M  V30 5803 H 562.707 2.33387 -1.04711 0
M  V30 5804 H 562.351 4.73943 -1.82593 0
M  V30 5805 H 562.281 5.26452 -0.124989 0
M  V30 5806 H 564.772 3.74675 -0.49265 0
M  V30 5807 H 565.085 7.55541 -1.62411 0
M  V30 5808 H 563.43 6.79624 -1.45381 0
M  V30 5809 H 566.621 4.62932 -0.693675 0
M  V30 5810 H 566.794 6.36614 -1.2094 0
M  V30 5811 N 560.2 0.0768682 1.57412 0
M  V30 5812 C 561.15 -0.898795 2.09537 0
M  V30 5813 C 562.134 -1.25556 1.0062 0
M  V30 5814 O 563.326 -1.23369 1.26921 0
M  V30 5815 C 560.455 -2.16453 2.66464 0
M  V30 5816 C 559.541 -1.83401 3.82393 0
M  V30 5817 N 559.932 -1.20823 4.91157 0
M  V30 5818 C 558.23 -2.13121 3.91785 0
M  V30 5819 C 558.931 -1.05976 5.71965 0
M  V30 5820 N 557.907 -1.57113 5.204 0
M  V30 5821 H 561.709 -0.410718 2.91016 0
M  V30 5822 H 559.223 -0.126878 1.61904 0
M  V30 5823 H 561.22 -2.87274 3.02125 0
M  V30 5824 H 559.88 -2.65844 1.86433 0
M  V30 5825 H 560.891 -0.877249 5.10416 0
M  V30 5826 H 557.568 -2.64854 3.22736 0
M  V30 5827 H 558.958 -0.571809 6.69462 0
M  V30 5828 N 561.678 -1.56367 -0.196722 0
M  V30 5829 C 562.625 -1.94417 -1.24382 0
M  V30 5830 C 563.595 -0.804543 -1.45315 0
M  V30 5831 O 564.78 -1.06256 -1.58475 0
M  V30 5832 C 561.92 -2.28757 -2.58388 0
M  V30 5833 C 561.033 -3.55775 -2.45047 0
M  V30 5834 C 560.168 -3.79445 -3.71746 0
M  V30 5835 C 559.207 -4.99894 -3.53231 0
M  V30 5836 N 558.344 -5.19826 -4.71938 0
M  V30 5837 H 563.184 -2.83691 -0.912338 0
M  V30 5838 H 560.721 -1.40392 -0.439135 0
M  V30 5839 H 562.679 -2.46682 -3.36457 0
M  V30 5840 H 561.309 -1.42625 -2.89582 0
M  V30 5841 H 560.361 -3.45905 -1.58284 0
M  V30 5842 H 561.673 -4.44 -2.27299 0
M  V30 5843 H 560.827 -3.97601 -4.58256 0
M  V30 5844 H 559.566 -2.89546 -3.92446 0
M  V30 5845 H 558.571 -4.81662 -2.65107 0
M  V30 5846 H 559.796 -5.913 -3.33978 0
M  V30 5847 H 557.742 -4.32875 -4.92905 0
M  V30 5848 H 557.659 -6.02228 -4.57009 0
M  V30 5849 H 558.927 -5.42439 -5.59803 0
M  V30 5850 N 563.156 0.464375 -1.50603 0
M  V30 5851 C 564.103 1.56152 -1.69956 0
M  V30 5852 C 565.073 1.57046 -0.54091 0
M  V30 5853 O 566.258 1.74473 -0.772258 0
M  V30 5854 C 563.398 2.94079 -1.80586 0
M  V30 5855 C 562.511 3.02923 -3.07996 0
M  V30 5856 C 561.646 4.31806 -3.09382 0
M  V30 5857 C 560.685 4.34417 -4.31218 0
M  V30 5858 N 559.822 5.54782 -4.30304 0
M  V30 5859 H 564.662 1.38955 -2.6362 0
M  V30 5860 H 562.199 0.675482 -1.30674 0
M  V30 5861 H 564.157 3.74073 -1.8473 0
M  V30 5862 H 562.787 3.09896 -0.903556 0
M  V30 5863 H 561.839 2.1576 -3.13292 0
M  V30 5864 H 563.151 3.00712 -3.97962 0
M  V30 5865 H 562.305 5.20153 -3.12292 0
M  V30 5866 H 561.044 4.36636 -2.17257 0
M  V30 5867 H 560.049 3.44467 -4.28512 0
M  V30 5868 H 561.274 4.31273 -5.24576 0
M  V30 5869 H 559.22 5.60384 -3.41037 0
M  V30 5870 H 559.137 5.54339 -5.14047 0
M  V30 5871 H 560.405 6.45235 -4.3737 0
M  V30 5872 N 564.634 1.40294 0.718013 0
M  V30 5873 C 565.564 1.43118 1.84498 0
M  V30 5874 C 566.545 0.292403 1.67568 0
M  V30 5875 O 567.73 0.500675 1.87635 0
M  V30 5876 C 564.86 1.29065 3.22427 0
M  V30 5877 C 563.814 2.40521 3.54025 0
M  V30 5878 C 563.14 2.11546 4.91073 0
M  V30 5879 C 564.44 3.82859 3.55269 0
M  V30 5880 H 566.134 2.37432 1.82391 0
M  V30 5881 H 563.68 1.14283 0.87609 0
M  V30 5882 H 565.633 1.29658 4.00957 0
M  V30 5883 H 564.357 0.312271 3.25104 0
M  V30 5884 H 563.016 2.39173 2.77834 0
M  V30 5885 H 562.664 1.12104 4.90348 0
M  V30 5886 H 562.364 2.86216 5.1318 0
M  V30 5887 H 563.888 2.13817 5.71939 0
M  V30 5888 H 565.302 3.86044 4.23843 0
M  V30 5889 H 563.699 4.57029 3.88902 0
M  V30 5890 H 564.769 4.12617 2.54706 0
M  V30 5891 N 566.112 -0.949982 1.2575 0
M  V30 5892 C 567.045 -2.047 1.00862 0
M  V30 5893 C 568.023 -1.62475 -0.0636982 0
M  V30 5894 O 569.207 -1.88343 0.0769153 0
M  V30 5895 C 566.334 -3.34597 0.525613 0
M  V30 5896 C 565.38 -3.95788 1.58916 0
M  V30 5897 S 566.213 -4.31175 3.17567 0
M  V30 5898 C 567.369 -5.64183 2.71013 0
M  V30 5899 H 567.602 -2.25497 1.93749 0
M  V30 5900 H 565.135 -1.09022 1.09332 0
M  V30 5901 H 567.093 -4.09716 0.25359 0
M  V30 5902 H 565.754 -3.11758 -0.382828 0
M  V30 5903 H 564.947 -4.89457 1.20201 0
M  V30 5904 H 564.549 -3.27168 1.81211 0
M  V30 5905 H 566.841 -6.42504 2.14928 0
M  V30 5906 H 567.784 -6.07774 3.6334 0
M  V30 5907 H 568.192 -5.2364 2.1086 0
M  V30 5908 N 567.59 -1.07411 -1.15328 0
M  V30 5909 C 568.837 -0.797649 -1.86128 0
M  V30 5910 C 569.165 0.676298 -1.82364 0
M  V30 5911 O 568.42 1.51223 -1.24218 0
M  V30 5912 C 568.719 -1.25191 -3.34757 0
M  V30 5913 C 568.385 -2.73191 -3.58716 0
M  V30 5914 C 567.047 -3.13616 -3.64964 0
M  V30 5915 C 569.399 -3.68718 -3.6837 0
M  V30 5916 C 566.727 -4.48383 -3.78377 0
M  V30 5917 C 569.079 -5.03248 -3.83306 0
M  V30 5918 C 567.743 -5.43293 -3.878 0
M  V30 5919 H 567.013 -0.29188 -0.681092 0
M  V30 5920 H 569.66 -1.34524 -1.36292 0
M  V30 5921 H 567.965 -0.623712 -3.86804 0
M  V30 5922 H 569.662 -1.01489 -3.87945 0
M  V30 5923 H 566.252 -2.40898 -3.54494 0
M  V30 5924 H 570.436 -3.38614 -3.62842 0
M  V30 5925 H 565.692 -4.78877 -3.80114 0
M  V30 5926 H 569.866 -5.77142 -3.89718 0
M  V30 5927 H 567.493 -6.47721 -3.97946 0
M  V30 5928 N 569.068 1.32177 -0.85831 0
M  V30 5929 C 570.015 2.28794 -0.303607 0
M  V30 5930 C 570.985 1.55213 0.591453 0
M  V30 5931 O 572.17 1.83418 0.525585 0
M  V30 5932 C 569.31 3.41475 0.49889 0
M  V30 5933 C 568.423 4.2993 -0.422373 0
M  V30 5934 C 567.558 5.29743 0.393111 0
M  V30 5935 C 566.597 6.09842 -0.525317 0
M  V30 5936 N 565.734 7.01643 0.253208 0
M  V30 5937 H 570.574 2.75631 -1.13276 0
M  V30 5938 H 568.111 1.35606 -0.570026 0
M  V30 5939 H 570.069 4.05531 0.979826 0
M  V30 5940 H 568.699 2.95779 1.29284 0
M  V30 5941 H 567.751 3.66422 -1.02171 0
M  V30 5942 H 569.063 4.85899 -1.12709 0
M  V30 5943 H 568.217 5.9942 0.937056 0
M  V30 5944 H 566.956 4.744 1.13117 0
M  V30 5945 H 565.961 5.39066 -1.08112 0
M  V30 5946 H 567.186 6.6727 -1.26205 0
M  V30 5947 H 565.132 6.48725 0.974295 0
M  V30 5948 H 565.049 7.54981 -0.392398 0
M  V30 5949 H 566.317 7.756 0.778761 0
M  V30 5950 N 570.547 0.616602 1.45037 0
M  V30 5951 C 571.775 0.121968 2.0654 0
M  V30 5952 C 572.19 -1.19743 1.45969 0
M  V30 5953 O 571.547 -1.73133 0.577168 0
M  V30 5954 C 571.598 -0.0145171 3.61497 0
M  V30 5955 O 571.319 1.25269 4.19809 0
M  V30 5956 C 572.82 -0.539555 4.40004 0
M  V30 5957 H 570.04 0.0729837 0.667019 0
M  V30 5958 H 572.584 0.846891 1.8614 0
M  V30 5959 H 570.739 -0.689809 3.81209 0
M  V30 5960 H 571.153 1.08816 5.13088 0
M  V30 5961 H 572.627 -0.584112 5.48901 0
M  V30 5962 H 573.104 -1.56368 4.10421 0
M  V30 5963 H 573.71 0.101995 4.25178 0
M  V30 5964 N 572.025 -1.5352 0.356285 0
M  V30 5965 C 572.935 -2.29151 -0.502712 0
M  V30 5966 C 573.951 -1.34753 -1.1008 0
M  V30 5967 O 575.127 -1.67803 -1.11374 0
M  V30 5968 C 572.192 -3.05911 -1.63154 0
M  V30 5969 C 571.253 -4.15958 -1.06194 0
M  V30 5970 C 570.486 -4.8905 -2.13696 0
M  V30 5971 O 570.709 -4.61919 -3.34645 0
M  V30 5972 O 569.643 -5.75202 -1.77275 0
M  V30 5973 H 573.469 -3.03492 0.112466 0
M  V30 5974 H 571.054 -1.4891 0.120942 0
M  V30 5975 H 572.936 -3.53874 -2.28804 0
M  V30 5976 H 571.611 -2.34415 -2.23229 0
M  V30 5977 H 570.518 -3.7227 -0.369603 0
M  V30 5978 H 571.851 -4.89593 -0.505872 0
M  V30 5979 N 573.503 -0.0852151 -1.57369 0
M  V30 5980 C 574.751 0.579658 -1.93609 0
M  V30 5981 C 575.072 1.69332 -0.967043 0
M  V30 5982 O 574.342 1.95892 -0.0174215 0
M  V30 5983 H 572.922 0.217113 -0.714752 0
M  V30 5984 H 575.584 -0.146226 -1.94351 0
M  V30 5985 H 574.68 0.996276 -2.95771 0
M  V30 5986 N 574.981 1.5647 0.188427 0
M  V30 5987 C 576.392 1.70864 0.752494 0
M  V30 5988 C 576.743 0.692905 1.83557 0
M  V30 5989 O 575.868 -0.149307 2.15884 0
M  V30 5990 C 576.463 3.09789 1.37173 0
M  V30 5991 C 575.022 3.25925 1.88281 0
M  V30 5992 C 574.169 2.66817 0.755259 0
M  V30 5993 H 577.12 1.58657 -0.0367408 0
M  V30 5994 H 577.141 3.07489 2.24122 0
M  V30 5995 H 576.653 3.83693 0.583219 0
M  V30 5996 H 574.754 2.56948 2.6983 0
M  V30 5997 H 574.867 4.33498 2.04001 0
M  V30 5998 H 573.231 2.2617 1.17128 0
M  V30 5999 H 574.014 3.43294 -0.0211237 0
M  V30 6000 N 576.459 -0.456382 1.50847 0
M  V30 6001 C 577.736 -1.21739 1.53098 0
M  V30 6002 C 578.116 -2.09179 0.284132 0
M  V30 6003 O 577.464 -2.16466 -0.731773 0
M  V30 6004 C 577.674 -2.03573 2.83477 0
M  V30 6005 C 579.022 -2.61264 3.34703 0
M  V30 6006 O 580.046 -2.13802 2.84898 0
M  V30 6007 O 578.905 -3.47779 4.21559 0
M  V30 6008 H 575.999 -0.553219 0.614718 0
M  V30 6009 H 578.545 -0.467003 1.63148 0
M  V30 6010 H 577.317 -1.39232 3.65691 0
M  V30 6011 H 576.94 -2.85716 2.76499 0
M  V30 6012 N 577.937 -1.40673 -0.710563 0
M  V30 6013 C 579.162 -1.42741 -1.50465 0
M  V30 6014 C 579.587 -0.0302116 -1.88076 0
M  V30 6015 O 578.945 0.962945 -1.53613 0
M  V30 6016 C 578.993 -2.32873 -2.75322 0
M  V30 6017 O 578.097 -1.77544 -3.72226 0
M  V30 6018 H 577.438 -0.485056 -0.45345 0
M  V30 6019 H 579.968 -1.84961 -0.874681 0
M  V30 6020 H 579.978 -2.48233 -3.23797 0
M  V30 6021 H 578.653 -3.34401 -2.47283 0
M  V30 6022 H 577.23 -1.71556 -3.31093 0
M  V30 6023 N 579.415 0.9433 -1.26252 0
M  V30 6024 C 580.692 1.66639 -1.02424 0
M  V30 6025 C 581.072 2.06335 0.446006 0
M  V30 6026 O 580.42 1.78551 1.42589 0
M  V30 6027 C 580.63 2.88019 -1.97094 0
M  V30 6028 C 581.978 3.59718 -2.25584 0
M  V30 6029 O 583.002 2.9812 -1.94943 0
M  V30 6030 O 581.861 4.7066 -2.77743 0
M  V30 6031 H 578.955 0.729643 -0.389294 0
M  V30 6032 H 581.501 0.995218 -1.37454 0
M  V30 6033 H 580.273 2.5556 -2.96319 0
M  V30 6034 H 579.896 3.62863 -1.62532 0
M  V30 6035 O 580.932 1.20358 1.07685 0
M  V30 6036 H 581.623 0.957266 1.68393 0
M  V30 END ATOM
M  V30 BEGIN BOND
M  V30 END BOND
M  V30 END CTAB
M  END
$$$$
