drugbank_target|P02766 Transthyretin (DB01593; DB09130; DB11644; DB14487; DB14533; DB14548)
 OpenBabel12092119293D

  0  0  0     0  0            999 V3000
M  V30 BEGIN CTAB
M  V30 COUNTS 2226 2253 0 0 0
M  V30 BEGIN ATOM
M  V30 1 H -0.908 1.98254 -0.117106 0
M  V30 2 N 0 1.576 0 0
M  V30 3 C 0.933 2.03868 1.02534 0
M  V30 4 C 1.911 0.928543 1.3348 0
M  V30 5 O 3.095 1.19667 1.45644 0
M  V30 6 C 0.222 2.43627 2.35294 0
M  V30 7 C -0.732 3.65373 2.2001 0
M  V30 8 S 0.101 5.13292 1.52614 0
M  V30 9 C 1.257 5.56322 2.86805 0
M  V30 10 H 1.49 2.90518 0.631377 0
M  V30 11 H -0.977 1.52953 0.210867 0
M  V30 12 H 0.981 2.67203 3.11629 0
M  V30 13 H -0.358 1.57376 2.7183 0
M  V30 14 H -1.165 3.90944 3.18086 0
M  V30 15 H -1.563 3.418 1.51819 0
M  V30 16 H 0.729 5.58782 3.83104 0
M  V30 17 H 1.672 6.56266 2.65933 0
M  V30 18 H 2.08 4.83886 2.90714 0
M  V30 19 N 1.4781 -0.272755 1.55222 0
M  V30 20 C 2.4411 -1.32041 1.87344 0
M  V30 21 C 3.4411 -1.42342 0.74803 0
M  V30 22 O 4.6311 -1.41488 1.0162 0
M  V30 23 C 1.7631 -2.70173 2.07893 0
M  V30 24 H 2.9561 -1.04789 2.80997 0
M  V30 25 H 0.5091 -0.51083 1.47717 0
M  V30 26 H 1.2441 -3.02605 1.16622 0
M  V30 27 H 1.0291 -2.64082 2.89833 0
M  V30 28 H 2.5191 -3.45869 2.34017 0
M  V30 29 N 2.9562 -1.48159 -0.537278 0
M  V30 30 C 4.1812 -1.59707 -1.32319 0
M  V30 31 C 4.6062 -0.254859 -1.86365 0
M  V30 32 O 3.9642 0.772378 -1.64024 0
M  V30 33 C 4.0122 -2.6412 -2.45505 0
M  V30 34 O 3.1162 -2.20774 -3.48328 0
M  V30 35 H 2.4572 -0.535791 -0.392204 0
M  V30 36 H 4.9872 -1.94092 -0.647268 0
M  V30 37 H 4.9972 -2.85166 -2.91795 0
M  V30 38 H 3.6722 -3.61567 -2.05528 0
M  V30 39 H 2.2492 -2.09911 -3.08207 0
M  V30 40 N 4.4343 0.785586 -1.36625 0
M  V30 41 C 5.3843 1.88822 -1.27789 0
M  V30 42 C 6.3683 1.60014 -0.168579 0
M  V30 43 O 7.5603 1.72381 -0.401737 0
M  V30 44 C 4.6893 3.26092 -1.07327 0
M  V30 45 C 3.7753 3.60897 -2.22743 0
M  V30 46 N 4.1663 3.66982 -3.48077 0
M  V30 47 C 2.4643 3.90981 -2.14593 0
M  V30 48 C 3.1653 3.98137 -4.24101 0
M  V30 49 N 2.1413 4.13319 -3.53084 0
M  V30 50 H 5.9433 1.91759 -2.22723 0
M  V30 51 H 3.4573 0.981311 -1.29399 0
M  V30 52 H 5.4543 4.04954 -0.990842 0
M  V30 53 H 4.1143 3.24428 -0.132977 0
M  V30 54 H 5.1253 3.49531 -3.82163 0
M  V30 55 H 1.8023 3.9722 -1.2854 0
M  V30 56 H 3.1923 4.09737 -5.32509 0
M  V30 57 N 5.9124 1.20967 1.01018 0
M  V30 58 C 7.3284 0.965905 1.27053 0
M  V30 59 C 7.5284 -0.350785 1.98423 0
M  V30 60 O 6.5844 -1.07773 2.28344 0
M  V30 61 C 7.8974 2.15294 2.09926 0
M  V30 62 C 9.4454 2.19463 2.23171 0
M  V30 63 C 9.9204 3.3767 3.09424 0
M  V30 64 N 11.4114 3.37724 3.17012 0
M  V30 65 C 12.1464 4.25837 3.83993 0
M  V30 66 N 11.6424 5.24138 4.53047 0
M  V30 67 N 13.4354 4.1366 3.80581 0
M  V30 68 H 5.5864 2.0565 0.531194 0
M  V30 69 H 7.8494 0.90024 0.297106 0
M  V30 70 H 7.5554 3.10684 1.64828 0
M  V30 71 H 7.4294 2.13923 3.10672 0
M  V30 72 H 9.8164 1.24632 2.6749 0
M  V30 73 H 9.8974 2.2488 1.21912 0
M  V30 74 H 9.5414 4.32791 2.65808 0
M  V30 75 H 9.4714 3.29491 4.10784 0
M  V30 76 H 11.9624 2.6658 2.6785 0
M  V30 77 H 12.2754 5.87684 5.01844 0
M  V30 78 H 10.6204 5.28068 4.5185 0
M  V30 79 H 13.8114 3.36127 3.25785 0
M  V30 80 H 13.9844 4.82538 4.32505 0
M  V30 81 N 7.3905 -1.2043 1.01659 0
M  V30 82 C 8.3205 -2.25466 0.607226 0
M  V30 83 C 9.3015 -1.65853 -0.377716 0
M  V30 84 O 10.4865 -1.92409 -0.263149 0
M  V30 85 C 7.6165 -3.47256 -0.0552949 0
M  V30 86 C 6.5705 -4.19462 0.850632 0
M  V30 87 C 5.8965 -5.34673 0.0538859 0
M  V30 88 C 7.1965 -4.75603 2.15868 0
M  V30 89 H 8.8905 -2.59962 1.48526 0
M  V30 90 H 6.4365 -1.2496 0.715605 0
M  V30 91 H 8.3895 -4.19917 -0.353233 0
M  V30 92 H 7.1135 -3.11924 -0.968045 0
M  V30 93 H 5.7725 -3.48667 1.13257 0
M  V30 94 H 5.4205 -4.95585 -0.860514 0
M  V30 95 H 5.1205 -5.83913 0.657192 0
M  V30 96 H 6.6445 -6.10138 -0.237598 0
M  V30 97 H 8.0585 -5.40083 1.92311 0
M  V30 98 H 6.4555 -5.3528 2.71284 0
M  V30 99 H 7.5255 -3.94346 2.82169 0
M  V30 100 N 8.8686 -0.792821 -1.36206 0
M  V30 101 C 9.7986 -0.207853 -2.32573 0
M  V30 102 C 10.7796 0.659055 -1.56813 0
M  V30 103 O 11.9646 0.592176 -1.84951 0
M  V30 104 C 9.0946 0.655449 -3.41059 0
M  V30 105 C 8.0486 -0.111842 -4.27854 0
M  V30 106 C 7.3746 0.872274 -5.27537 0
M  V30 107 C 8.6746 -1.30299 -5.05786 0
M  V30 108 H 10.3686 -1.01294 -2.81744 0
M  V30 109 H 7.9146 -0.48854 -1.3546 0
M  V30 110 H 9.8676 1.07464 -4.07467 0
M  V30 111 H 8.5916 1.49328 -2.90463 0
M  V30 112 H 7.2506 -0.512053 -3.63006 0
M  V30 113 H 6.8986 1.70523 -4.73214 0
M  V30 114 H 6.5986 0.363291 -5.86476 0
M  V30 115 H 8.1226 1.28996 -5.96818 0
M  V30 116 H 9.5366 -0.959379 -5.65216 0
M  V30 117 H 7.9336 -1.7455 -5.74154 0
M  V30 118 H 9.0036 -2.09663 -4.37229 0
M  V30 119 N 10.3467 1.47872 -0.545128 0
M  V30 120 C 11.2767 2.32661 0.197793 0
M  V30 121 C 12.2577 1.43041 0.920504 0
M  V30 122 O 13.4427 1.71912 0.90333 0
M  V30 123 C 10.5727 3.24569 1.23582 0
M  V30 124 C 9.5267 4.23333 0.630323 0
M  V30 125 C 8.8527 5.0448 1.77211 0
M  V30 126 C 10.1527 5.20704 -0.407974 0
M  V30 127 H 11.8467 2.95024 -0.510045 0
M  V30 128 H 9.3927 1.4187 -0.246731 0
M  V30 129 H 11.3457 3.8272 1.76362 0
M  V30 130 H 10.0697 2.60236 1.97344 0
M  V30 131 H 8.7287 3.6639 0.123922 0
M  V30 132 H 8.3767 4.36561 2.49847 0
M  V30 133 H 8.0767 5.71339 1.37281 0
M  V30 134 H 9.6007 5.65487 2.3034 0
M  V30 135 H 11.0147 5.7329 0.033305 0
M  V30 136 H 9.4117 5.95699 -0.725486 0
M  V30 137 H 10.4817 4.66917 -1.30828 0
M  V30 138 N 11.8248 0.280983 1.55075 0
M  V30 139 C 12.7548 -0.597469 2.25727 0
M  V30 140 C 13.7358 -1.15417 1.24952 0
M  V30 141 O 14.9208 -1.18722 1.53684 0
M  V30 142 C 12.0508 -1.7789 2.98283 0
M  V30 143 C 11.0048 -1.35347 4.06036 0
M  V30 144 C 10.3308 -2.61846 4.66198 0
M  V30 145 C 11.6308 -0.499354 5.19907 0
M  V30 146 H 13.3248 -0.00824265 2.99399 0
M  V30 147 H 10.8708 -0.0025244 1.44 0
M  V30 148 H 12.8238 -2.39937 3.46422 0
M  V30 149 H 11.5478 -2.39405 2.22155 0
M  V30 150 H 10.2068 -0.756156 3.58717 0
M  V30 151 H 9.8548 -3.21632 3.86732 0
M  V30 152 H 9.5548 -2.3409 5.38958 0
M  V30 153 H 11.0788 -3.24732 5.1709 0
M  V30 154 H 12.4928 -1.02498 5.64063 0
M  V30 155 H 10.8898 -0.316424 5.99265 0
M  V30 156 H 11.9598 0.480459 4.82514 0
M  V30 157 N 13.3029 -1.57598 0.00835791 0
M  V30 158 C 14.5429 -1.92788 -0.679136 0
M  V30 159 C 14.9069 -0.883378 -1.70471 0
M  V30 160 O 16.1079 -1.12079 -2.44319 0
M  V30 161 C 14.3789 -3.32994 -1.29807 0
M  V30 162 S 15.9379 -3.90082 -2.00952 0
M  V30 163 H 12.7559 -0.67475 -0.224127 0
M  V30 164 H 15.3579 -1.95385 0.0670497 0
M  V30 165 H 14.0619 -4.06846 -0.538922 0
M  V30 166 H 13.5929 -3.33791 -2.082 0
M  V30 167 H 15.6079 -3.71834 -3.28563 0
M  V30 168 N 14.781 0.264519 -1.55364 0
M  V30 169 C 15.711 1.33121 -1.91836 0
M  V30 170 C 16.692 1.51101 -0.781192 0
M  V30 171 O 17.877 1.64003 -1.04003 0
M  V30 172 C 15.007 2.68921 -2.19769 0
M  V30 173 C 13.961 2.65661 -3.35571 0
M  V30 174 C 13.287 4.05093 -3.49004 0
M  V30 175 C 14.587 2.24187 -4.71739 0
M  V30 176 H 16.281 1.02844 -2.81182 0
M  V30 177 H 13.827 0.493286 -1.35287 0
M  V30 178 H 15.78 3.43663 -2.43872 0
M  V30 179 H 14.504 3.00799 -1.27231 0
M  V30 180 H 13.163 1.93377 -3.1145 0
M  V30 181 H 12.811 4.34206 -2.53917 0
M  V30 182 H 12.511 4.03804 -4.26868 0
M  V30 183 H 14.035 4.81561 -3.75408 0
M  V30 184 H 15.449 2.88654 -4.9533 0
M  V30 185 H 13.846 2.34044 -5.52579 0
M  V30 186 H 14.916 1.19327 -4.69988 0
M  V30 187 N 16.2591 1.48442 0.529413 0
M  V30 188 C 17.2221 1.62524 1.61612 0
M  V30 189 C 18.2221 0.498509 1.52877 0
M  V30 190 O 19.4121 0.76431 1.56537 0
M  V30 191 C 16.5441 1.59597 3.01233 0
M  V30 192 H 17.7371 2.59423 1.50465 0
M  V30 193 H 15.2901 1.37047 0.751514 0
M  V30 194 H 16.0251 0.641781 3.17886 0
M  V30 195 H 15.8101 2.41397 3.08982 0
M  V30 196 H 17.3001 1.72646 3.80241 0
M  V30 197 N 17.7372 -0.778329 1.37039 0
M  V30 198 C 18.9852 -1.53361 1.31623 0
M  V30 199 C 19.3062 -1.94739 -0.100831 0
M  V30 200 O 18.5762 -1.65797 -1.04347 0
M  V30 201 H 17.1562 -0.568794 0.484234 0
M  V30 202 H 19.8182 -0.926742 1.71457 0
M  V30 203 H 18.9142 -2.43606 1.95096 0
M  V30 204 N 19.2153 -1.21501 -1.00376 0
M  V30 205 C 20.1453 -0.999478 -2.11028 0
M  V30 206 C 21.1263 0.0759671 -1.6993 0
M  V30 207 O 22.3113 -0.0841106 -1.94018 0
M  V30 208 C 19.4413 -0.564709 -3.42678 0
M  V30 209 C 18.3953 -1.58486 -3.97576 0
M  V30 210 C 17.7213 -1.00628 -5.25146 0
M  V30 211 C 19.0213 -2.97204 -4.29496 0
M  V30 212 H 20.7153 -1.92495 -2.29317 0
M  V30 213 H 18.2613 -0.92693 -1.102 0
M  V30 214 H 20.2143 -0.401091 -4.19487 0
M  V30 215 H 18.9383 0.396411 -3.24185 0
M  V30 216 H 17.5973 -1.73606 -3.22888 0
M  V30 217 H 17.2453 -0.0368439 -5.02987 0
M  V30 218 H 16.9453 -1.68771 -5.62841 0
M  V30 219 H 18.4693 -0.854015 -6.04598 0
M  V30 220 H 19.8833 -2.8552 -4.97143 0
M  V30 221 H 18.2803 -3.62372 -4.78338 0
M  V30 222 H 19.3503 -3.47956 -3.3772 0
M  V30 223 N 20.6934 1.19889 -1.02296 0
M  V30 224 C 21.9394 1.89701 -0.717033 0
M  V30 225 C 22.2724 1.7905 0.751989 0
M  V30 226 O 21.5474 1.17891 1.547 0
M  V30 227 C 21.8304 3.40858 -1.16136 0
M  V30 228 C 21.6834 3.60411 -2.69117 0
M  V30 229 C 23.0024 4.33876 -0.737549 0
M  V30 230 H 20.1214 0.688874 -0.261957 0
M  V30 231 H 22.7634 1.41154 -1.27183 0
M  V30 232 H 20.9134 3.82335 -0.689342 0
M  V30 233 H 22.5854 3.28145 -3.2422 0
M  V30 234 H 20.8284 3.03665 -3.0979 0
M  V30 235 H 21.4994 4.66396 -2.95261 0
M  V30 236 H 23.9754 4.00081 -1.14344 0
M  V30 237 H 22.8514 5.38242 -1.0764 0
M  V30 238 H 23.1124 4.40628 0.360436 0
M  V30 239 N 22.1715 0.800033 1.35784 0
M  V30 240 C 23.4185 0.377342 1.98953 0
M  V30 241 C 23.7465 -1.05378 1.6348 0
M  V30 242 O 23.0015 -1.74459 0.886707 0
M  V30 243 C 23.3005 0.500276 3.53881 0
M  V30 244 C 22.9665 1.89375 4.09204 0
M  V30 245 C 21.6285 2.27499 4.24025 0
M  V30 246 C 23.9805 2.8057 4.39238 0
M  V30 247 C 21.3085 3.562 4.66195 0
M  V30 248 C 23.6605 4.0871 4.82844 0
M  V30 249 C 22.3245 4.46843 4.95871 0
M  V30 250 H 21.5945 0.138079 0.728021 0
M  V30 251 H 24.2415 1.01955 1.62103 0
M  V30 252 H 22.5465 -0.225405 3.91151 0
M  V30 253 H 24.2435 0.154097 4.00704 0
M  V30 254 H 20.8335 1.58753 3.98115 0
M  V30 255 H 25.0175 2.52367 4.27346 0
M  V30 256 H 20.2735 3.85602 4.74469 0
M  V30 257 H 24.4475 4.79481 5.05046 0
M  V30 258 H 22.0745 5.46623 5.28306 0
M  V30 259 N 23.6496 -1.47581 0.552962 0
M  V30 260 C 24.8956 -2.02782 0.0273648 0
M  V30 261 C 25.2286 -1.42687 -1.31734 0
M  V30 262 O 24.5036 -0.580897 -1.85623 0
M  V30 263 C 24.7866 -3.60031 -0.0702371 0
M  V30 264 C 24.6396 -4.30566 1.30126 0
M  V30 265 C 25.9586 -4.33028 -0.785771 0
M  V30 266 H 23.0776 -0.736912 0.0114185 0
M  V30 267 H 25.7196 -1.76056 0.714432 0
M  V30 268 H 23.8696 -3.82932 -0.655382 0
M  V30 269 H 25.5416 -4.19018 1.92929 0
M  V30 270 H 23.7846 -3.91086 1.87709 0
M  V30 271 H 24.4556 -5.39114 1.18573 0
M  V30 272 H 26.9316 -4.15095 -0.288982 0
M  V30 273 H 25.8076 -5.42695 -0.823013 0
M  V30 274 H 26.0686 -4.01945 -1.841 0
M  V30 275 N 25.1277 -0.289203 -1.54924 0
M  V30 276 C 26.3527 0.329299 -2.04769 0
M  V30 277 C 26.7777 1.4763 -1.16564 0
M  V30 278 O 26.1357 1.80527 -0.167186 0
M  V30 279 C 26.1837 0.774438 -3.52186 0
M  V30 280 O 25.2877 1.88038 -3.67036 0
M  V30 281 H 24.6287 0.0659259 -0.660719 0
M  V30 282 H 27.1587 -0.42761 -2.00082 0
M  V30 283 H 27.1687 1.06642 -3.93816 0
M  V30 284 H 25.8437 -0.0646707 -4.1585 0
M  V30 285 H 24.4207 1.58985 -3.3731 0
M  V30 286 N 26.6058 1.57591 -0.0167156 0
M  V30 287 C 27.5158 2.1291 0.98521 0
M  V30 288 C 28.5318 1.07834 1.36557 0
M  V30 289 O 29.7078 1.39826 1.44951 0
M  V30 290 C 26.7728 2.63512 2.25305 0
M  V30 291 C 25.8338 3.83256 1.93426 0
M  V30 292 C 25.0668 4.31435 3.14165 0
M  V30 293 O 25.2898 3.78851 4.26413 0
M  V30 294 O 24.2238 5.23416 2.97186 0
M  V30 295 H 28.0498 2.98772 0.544888 0
M  V30 296 H 25.6348 1.48012 0.203141 0
M  V30 297 H 27.5168 2.96183 2.99756 0
M  V30 298 H 26.1918 1.8074 2.68542 0
M  V30 299 H 25.0988 3.55531 1.16398 0
M  V30 300 H 26.4318 4.67153 1.55013 0
M  V30 301 N 28.0839 -0.256276 1.55502 0
M  V30 302 C 29.0469 -1.30047 1.88734 0
M  V30 303 C 30.0469 -1.4154 0.763086 0
M  V30 304 O 31.2369 -1.40403 1.03115 0
M  V30 305 C 28.3689 -2.67953 2.10747 0
M  V30 306 H 29.5619 -1.01802 2.82093 0
M  V30 307 H 27.1149 -0.495134 1.4825 0
M  V30 308 H 27.8499 -3.01351 1.19825 0
M  V30 309 H 27.6349 -2.60993 2.92617 0
M  V30 310 H 29.1249 -3.43368 2.37673 0
M  V30 311 N 29.562 -1.4872 -0.521534 0
M  V30 312 C 30.81 -1.56857 -1.27437 0
M  V30 313 C 31.131 -0.247982 -1.93417 0
M  V30 314 O 30.401 0.731151 -1.81744 0
M  V30 315 H 28.981 -0.577885 -0.473347 0
M  V30 316 H 31.643 -1.85233 -0.606205 0
M  V30 317 H 30.739 -2.35402 -2.0492 0
M  V30 318 N 31.0401 0.771051 -1.3745 0
M  V30 319 C 32.4511 1.34737 -1.29239 0
M  V30 320 C 32.8021 1.96109 0.0596908 0
M  V30 321 O 31.9271 1.93865 0.961534 0
M  V30 322 C 32.5221 2.44973 -2.34037 0
M  V30 323 C 31.0811 2.98372 -2.29458 0
M  V30 324 C 30.2281 1.71595 -2.17831 0
M  V30 325 H 33.1791 0.571256 -1.48062 0
M  V30 326 H 33.2001 3.24471 -1.98744 0
M  V30 327 H 32.7121 2.00276 -3.32432 0
M  V30 328 H 30.8131 3.47443 -1.34589 0
M  V30 329 H 30.9261 3.53939 -3.229 0
M  V30 330 H 29.2901 1.94547 -1.64388 0
M  V30 331 H 30.0731 1.29001 -3.18141 0
M  V30 332 N 32.5182 1.22032 0.997298 0
M  V30 333 C 33.7462 1.06841 1.7718 0
M  V30 334 C 34.1612 -0.381325 1.84909 0
M  V30 335 O 33.5182 -1.26437 1.31605 0
M  V30 336 C 33.5692 1.66814 3.20711 0
M  V30 337 O 33.2902 3.06116 3.13408 0
M  V30 338 C 34.7912 1.56838 4.14628 0
M  V30 339 H 32.0112 0.374782 0.556578 0
M  V30 340 H 34.5552 1.61532 1.2541 0
M  V30 341 H 32.7102 1.16196 3.69564 0
M  V30 342 H 33.1242 3.34926 4.0364 0
M  V30 343 H 34.5982 2.03532 5.13107 0
M  V30 344 H 35.0752 0.524155 4.36061 0
M  V30 345 H 35.6812 2.06741 3.7167 0
M  V30 346 N 33.9963 -1.19345 1.0293 0
M  V30 347 C 35.2443 -1.88665 0.724574 0
M  V30 348 C 35.5653 -1.80036 -0.749144 0
M  V30 349 O 34.8353 -1.2111 -1.53978 0
M  V30 350 H 33.4153 -0.698406 0.265025 0
M  V30 351 H 36.0773 -1.44885 1.30362 0
M  V30 352 H 35.1733 -2.94987 1.01926 0
M  V30 353 N 35.4744 -0.807222 -1.35358 0
M  V30 354 C 36.7024 -0.400377 -2.02989 0
M  V30 355 C 37.1174 0.988859 -1.60832 0
M  V30 356 O 36.4744 1.63729 -0.806175 0
M  V30 357 C 36.5254 -0.474867 -3.58368 0
M  V30 358 O 36.2464 -1.80933 -3.98992 0
M  V30 359 C 37.7474 -0.0609112 -4.43258 0
M  V30 360 H 34.9674 -0.162587 -0.651004 0
M  V30 361 H 37.5114 -1.09102 -1.72965 0
M  V30 362 H 35.6664 0.167534 -3.87038 0
M  V30 363 H 36.0804 -1.77256 -4.9364 0
M  V30 364 H 37.5544 -0.164145 -5.51756 0
M  V30 365 H 38.0314 0.993831 -4.27808 0
M  V30 366 H 38.6374 -0.676492 -4.19885 0
M  V30 367 N 36.9525 1.47285 -0.560781 0
M  V30 368 C 38.2005 2.02064 -0.0379868 0
M  V30 369 C 38.5215 1.43711 1.31803 0
M  V30 370 O 37.7915 0.61362 1.86042 0
M  V30 371 H 36.3715 0.746918 -0.0110531 0
M  V30 372 H 39.0335 1.80648 -0.731598 0
M  V30 373 H 38.1295 3.12064 0.0474463 0
M  V30 374 N 38.4306 0.297415 1.54768 0
M  V30 375 C 39.3406 -0.58983 2.27064 0
M  V30 376 C 40.3566 -1.15144 1.30453 0
M  V30 377 O 41.5326 -1.17699 1.63428 0
M  V30 378 C 38.5976 -1.74714 2.9946 0
M  V30 379 C 37.6586 -1.21997 4.11601 0
M  V30 380 C 36.8916 -2.32212 4.80535 0
M  V30 381 O 37.1146 -3.52036 4.48806 0
M  V30 382 O 36.0486 -1.99106 5.68014 0
M  V30 383 H 39.8746 -0.00348199 3.037 0
M  V30 384 H 37.4596 0.0640035 1.49263 0
M  V30 385 H 39.3416 -2.42147 3.44881 0
M  V30 386 H 38.0166 -2.32016 2.25722 0
M  V30 387 H 36.9236 -0.511458 3.70587 0
M  V30 388 H 38.2566 -0.692419 4.87305 0
M  V30 389 N 39.9087 -1.5758 0.0250728 0
M  V30 390 C 41.1337 -1.96337 -0.668317 0
M  V30 391 C 41.5587 -0.901314 -1.651 0
M  V30 392 O 40.9167 0.138187 -1.80773 0
M  V30 393 C 40.9647 -3.34191 -1.35457 0
M  V30 394 O 40.0687 -3.30269 -2.46974 0
M  V30 395 H 39.4097 -0.640281 -0.175887 0
M  V30 396 H 41.9397 -2.0442 0.0857224 0
M  V30 397 H 41.9497 -3.70331 -1.71228 0
M  V30 398 H 40.6247 -4.11036 -0.634218 0
M  V30 399 H 39.2017 -3.05841 -2.13344 0
M  V30 400 N 41.3868 0.248026 -1.55636 0
M  V30 401 C 42.3338 1.30707 -1.90222 0
M  V30 402 C 43.3038 1.47881 -0.756332 0
M  V30 403 O 44.4888 1.61883 -1.00988 0
M  V30 404 C 41.6288 2.65769 -2.20138 0
M  V30 405 C 40.7418 2.56612 -3.47526 0
M  V30 406 C 39.8768 3.8402 -3.67017 0
M  V30 407 C 38.9158 3.69476 -4.8801 0
M  V30 408 N 38.0528 4.88774 -5.04029 0
M  V30 409 H 42.8928 1.00512 -2.80538 0
M  V30 410 H 40.4298 0.485055 -1.38873 0
M  V30 411 H 42.3878 3.44386 -2.35487 0
M  V30 412 H 41.0178 2.94115 -1.33027 0
M  V30 413 H 40.0698 1.69571 -3.40514 0
M  V30 414 H 41.3818 2.41774 -4.36287 0
M  V30 415 H 40.5358 4.7108 -3.8232 0
M  V30 416 H 39.2748 4.01754 -2.76487 0
M  V30 417 H 38.2798 2.80799 -4.72686 0
M  V30 418 H 39.5048 3.53238 -5.8 0
M  V30 419 H 37.4508 5.0687 -4.16435 0
M  V30 420 H 37.3678 4.76562 -5.86877 0
M  V30 421 H 38.6358 5.77335 -5.23741 0
M  V30 422 N 42.8649 1.48995 0.513639 0
M  V30 423 C 44.1049 1.59452 1.27885 0
M  V30 424 C 44.4689 0.269479 1.90099 0
M  V30 425 O 45.6699 0.249139 2.67643 0
M  V30 426 C 43.9409 2.71277 2.32688 0
M  V30 427 S 45.4999 3.01604 3.18717 0
M  V30 428 H 42.3179 0.562565 0.434789 0
M  V30 429 H 44.9199 1.86595 0.583301 0
M  V30 430 H 43.6239 3.66089 1.8549 0
M  V30 431 H 43.1549 2.46086 3.06929 0
M  V30 432 H 45.1699 2.42155 4.331 0
M  V30 433 N 44.343 -0.763751 1.37857 0
M  V30 434 C 45.754 -1.3405 1.29952 0
M  V30 435 C 46.105 -1.96138 -0.0492898 0
M  V30 436 O 45.23 -1.94372 -0.951239 0
M  V30 437 C 45.825 -2.43729 2.35333 0
M  V30 438 C 44.384 -2.97151 2.31037 0
M  V30 439 C 43.531 -1.70438 2.18738 0
M  V30 440 H 46.482 -0.563396 1.48363 0
M  V30 441 H 46.503 -3.23412 2.00462 0
M  V30 442 H 46.015 -1.9851 3.33489 0
M  V30 443 H 44.116 -3.46724 1.3643 0
M  V30 444 H 44.229 -3.52221 3.24772 0
M  V30 445 H 42.593 -1.93673 1.65418 0
M  V30 446 H 43.376 -1.27312 3.18821 0
M  V30 447 N 45.8211 -1.22559 -0.990812 0
M  V30 448 C 46.7511 -1.0218 -2.09956 0
M  V30 449 C 47.7321 0.0579394 -1.70001 0
M  V30 450 O 48.9171 -0.104684 -1.93918 0
M  V30 451 C 46.0471 -0.601023 -3.4206 0
M  V30 452 C 45.0011 -1.62694 -3.95872 0
M  V30 453 C 44.3271 -1.06193 -5.24049 0
M  V30 454 C 45.6271 -3.01743 -4.2632 0
M  V30 455 H 47.3211 -1.94916 -2.27262 0
M  V30 456 H 44.8671 -0.938566 -1.09211 0
M  V30 457 H 46.8201 -0.445561 -4.19038 0
M  V30 458 H 45.5441 0.362005 -3.24588 0
M  V30 459 H 44.2031 -1.77021 -3.21028 0
M  V30 460 H 43.8511 -0.0901903 -5.02919 0
M  V30 461 H 43.5511 -1.74732 -5.61019 0
M  V30 462 H 45.0751 -0.918092 -6.03658 0
M  V30 463 H 46.4891 -2.90777 -4.94087 0
M  V30 464 H 44.8861 -3.67425 -4.74467 0
M  V30 465 H 45.9561 -3.51518 -3.34011 0
M  V30 466 N 47.2992 1.18797 -1.03562 0
M  V30 467 C 48.2322 2.2105 -0.56676 0
M  V30 468 C 49.2102 1.57704 0.395993 0
M  V30 469 O 50.3942 1.85908 0.311498 0
M  V30 470 C 47.5212 3.38259 0.172704 0
M  V30 471 C 46.5672 4.19987 -0.74252 0
M  V30 472 S 47.4002 4.87199 -2.22254 0
M  V30 473 C 48.5562 6.07813 -1.49379 0
M  V30 474 H 48.7892 2.60478 -1.43312 0
M  V30 475 H 46.3222 1.29151 -0.846133 0
M  V30 476 H 48.2802 4.06191 0.593191 0
M  V30 477 H 46.9412 2.97252 1.01488 0
M  V30 478 H 46.1342 5.03709 -0.171265 0
M  V30 479 H 45.7362 3.57408 -1.10163 0
M  V30 480 H 48.0282 6.72948 -0.784056 0
M  V30 481 H 48.9712 6.69435 -2.30786 0
M  V30 482 H 49.3792 5.55781 -0.988331 0
M  V30 483 N 48.7773 0.814389 1.34928 0
M  V30 484 C 50.0233 0.399013 1.98836 0
M  V30 485 C 50.3563 -1.03314 1.64438 0
M  V30 486 O 49.6313 -1.71811 0.911659 0
M  V30 487 C 49.9143 0.591629 3.55207 0
M  V30 488 C 49.7673 2.06928 3.99376 0
M  V30 489 C 51.0863 0.022199 4.40094 0
M  V30 490 H 48.2053 0.146451 0.722303 0
M  V30 491 H 50.8473 1.02537 1.59957 0
M  V30 492 H 48.9973 0.0584441 3.88456 0
M  V30 493 H 50.6693 2.66544 3.76499 0
M  V30 494 H 48.9123 2.56287 3.49999 0
M  V30 495 H 49.5833 2.1549 5.08201 0
M  V30 496 H 52.0593 0.477643 4.13349 0
M  V30 497 H 50.9353 0.186832 5.48582 0
M  V30 498 H 51.1963 -1.07215 4.28902 0
M  V30 499 N 50.2554 -1.46986 0.568584 0
M  V30 500 C 51.2024 -2.30153 -0.172707 0
M  V30 501 C 52.1724 -1.39759 -0.897586 0
M  V30 502 O 53.3574 -1.68716 -0.891044 0
M  V30 503 C 50.4974 -3.23952 -1.1895 0
M  V30 504 C 49.6104 -4.29441 -0.469517 0
M  V30 505 C 48.7454 -5.1038 -1.47259 0
M  V30 506 C 47.7844 -6.07632 -0.738225 0
M  V30 507 N 46.9214 -6.8149 -1.68868 0
M  V30 508 H 51.7614 -2.93019 0.542596 0
M  V30 509 H 49.2984 -1.44422 0.279401 0
M  V30 510 H 51.2564 -3.76767 -1.79173 0
M  V30 511 H 49.8864 -2.62926 -1.87269 0
M  V30 512 H 48.9384 -3.79594 0.247467 0
M  V30 513 H 50.2504 -4.98689 0.105241 0
M  V30 514 H 49.4044 -5.67402 -2.14803 0
M  V30 515 H 48.1434 -4.4106 -2.08128 0
M  V30 516 H 47.1484 -5.49778 -0.0489293 0
M  V30 517 H 48.3734 -6.78966 -0.135129 0
M  V30 518 H 46.3194 -6.14891 -2.28573 0
M  V30 519 H 46.2364 -7.46948 -1.16636 0
M  V30 520 H 47.5044 -7.43078 -2.3549 0
M  V30 521 N 51.7335 -0.305618 -1.54608 0
M  V30 522 C 52.9795 0.302746 -2.00528 0
M  V30 523 C 53.3125 1.53184 -1.19367 0
M  V30 524 O 52.5875 1.92598 -0.271321 0
M  V30 525 C 52.8705 0.654756 -3.54097 0
M  V30 526 C 52.7235 -0.583793 -4.45995 0
M  V30 527 C 54.0425 1.47947 -4.14487 0
M  V30 528 H 51.1615 0.108564 -0.72896 0
M  V30 529 H 53.8035 -0.418634 -1.85331 0
M  V30 530 H 51.9535 1.26935 -3.67178 0
M  V30 531 H 53.6255 -1.22224 -4.44814 0
M  V30 532 H 51.8685 -1.21615 -4.16404 0
M  V30 533 H 52.5395 -0.293287 -5.5122 0
M  V30 534 H 55.0155 0.96013 -4.04871 0
M  V30 535 H 53.8915 1.69454 -5.22088 0
M  V30 536 H 54.1525 2.47011 -3.66658 0
M  V30 537 N 53.2116 1.57565 -0.0334293 0
M  V30 538 C 54.1416 2.13511 0.945265 0
M  V30 539 C 55.1226 1.05231 1.33643 0
M  V30 540 O 56.3076 1.33084 1.41429 0
M  V30 541 C 53.4376 2.6657 2.22616 0
M  V30 542 C 52.3916 3.79676 1.97561 0
M  V30 543 C 51.7176 4.1918 3.31952 0
M  V30 544 C 53.0176 5.0557 1.31135 0
M  V30 545 H 54.7116 2.95538 0.479325 0
M  V30 546 H 52.2576 1.42166 0.229115 0
M  V30 547 H 54.2106 3.04344 2.91466 0
M  V30 548 H 52.9346 1.8171 2.71384 0
M  V30 549 H 51.5936 3.42347 1.31127 0
M  V30 550 H 51.2416 3.31296 3.78487 0
M  V30 551 H 50.9416 4.95402 3.15992 0
M  V30 552 H 52.4656 4.59541 4.02063 0
M  V30 553 H 53.8796 5.40903 1.89992 0
M  V30 554 H 52.2766 5.86818 1.25559 0
M  V30 555 H 53.3466 4.84062 0.284894 0
M  V30 556 N 54.6897 -0.239769 1.55765 0
M  V30 557 C 55.9667 -0.990056 1.68693 0
M  V30 558 C 56.3467 -2.03107 0.5754 0
M  V30 559 O 55.6947 -2.24604 -0.42017 0
M  V30 560 C 55.9047 -1.61696 3.09282 0
M  V30 561 C 57.2527 -2.11613 3.6811 0
M  V30 562 O 58.2767 -1.71624 3.12127 0
M  V30 563 O 57.1357 -2.85057 4.66267 0
M  V30 564 H 54.2297 -0.461299 0.686391 0
M  V30 565 H 56.7757 -0.232991 1.68093 0
M  V30 566 H 55.5477 -0.864357 3.81634 0
M  V30 567 H 55.1707 -2.44005 3.13923 0
M  V30 568 N 56.1678 -1.49265 -0.50573 0
M  V30 569 C 57.1308 -1.65075 -1.59006 0
M  V30 570 C 58.1308 -0.522768 -1.52065 0
M  V30 571 O 59.3208 -0.789117 -1.55302 0
M  V30 572 C 56.4528 -1.64369 -2.98656 0
M  V30 573 H 57.6458 -2.61784 -1.46319 0
M  V30 574 H 55.1988 -1.38226 -0.729616 0
M  V30 575 H 55.9338 -0.692272 -3.16825 0
M  V30 576 H 55.7188 -2.46282 -3.05103 0
M  V30 577 H 57.2088 -1.78674 -3.77446 0
M  V30 578 N 57.6459 0.756429 -1.3826 0
M  V30 579 C 58.8919 1.51772 -1.34511 0
M  V30 580 C 59.2249 1.94089 0.0656691 0
M  V30 581 O 58.4999 1.65221 1.02626 0
M  V30 582 C 58.7829 2.77226 -2.29821 0
M  V30 583 C 58.6359 2.41065 -3.79747 0
M  V30 584 C 59.9549 3.79236 -2.23312 0
M  V30 585 H 57.0739 0.550578 -0.489931 0
M  V30 586 H 59.7159 0.866607 -1.69086 0
M  V30 587 H 57.8659 3.32784 -2.00467 0
M  V30 588 H 59.5379 1.91303 -4.19763 0
M  V30 589 H 57.7809 1.7356 -3.97567 0
M  V30 590 H 58.4519 3.3081 -4.41892 0
M  V30 591 H 60.9279 3.3321 -2.49219 0
M  V30 592 H 59.8039 4.64714 -2.92116 0
M  V30 593 H 60.0649 4.24615 -1.23102 0
M  V30 594 N 59.124 1.23083 0.984299 0
M  V30 595 C 60.54 0.992637 1.24975 0
M  V30 596 C 60.74 -0.308618 1.99123 0
M  V30 597 O 59.796 -1.02905 2.30579 0
M  V30 598 C 61.109 2.19698 2.05312 0
M  V30 599 C 62.657 2.24147 2.18465 0
M  V30 600 C 63.132 3.44157 3.02192 0
M  V30 601 N 64.623 3.44372 3.09777 0
M  V30 602 C 65.358 4.33886 3.74874 0
M  V30 603 N 64.854 5.3363 4.41827 0
M  V30 604 N 66.647 4.21639 3.71721 0
M  V30 605 H 58.798 2.06731 0.487453 0
M  V30 606 H 61.061 0.906339 0.277944 0
M  V30 607 H 60.767 3.1411 1.58201 0
M  V30 608 H 60.641 2.20465 3.06064 0
M  V30 609 H 63.028 1.30277 2.64786 0
M  V30 610 H 63.109 2.27415 1.17115 0
M  V30 611 H 62.753 4.38332 2.56568 0
M  V30 612 H 62.683 3.3813 4.03702 0
M  V30 613 H 65.174 2.72201 2.62135 0
M  V30 614 H 65.487 5.98196 4.89266 0
M  V30 615 H 63.832 5.37534 4.40548 0
M  V30 616 H 67.023 3.42962 3.18582 0
M  V30 617 H 67.196 4.91604 4.22173 0
M  V30 618 N 60.6021 -1.18246 1.0419 0
M  V30 619 C 61.8501 -1.87886 0.744543 0
M  V30 620 C 62.1711 -1.8082 -0.730006 0
M  V30 621 O 61.4411 -1.22736 -1.52685 0
M  V30 622 H 60.0211 -0.695556 0.272417 0
M  V30 623 H 62.6831 -1.43494 1.31892 0
M  V30 624 H 61.7791 -2.9389 1.05049 0
M  V30 625 N 62.0802 -0.821533 -1.34494 0
M  V30 626 C 63.3052 -0.420873 -2.03085 0
M  V30 627 C 63.7302 0.964915 -1.61465 0
M  V30 628 O 63.0882 1.62763 -0.798607 0
M  V30 629 C 63.1362 -0.529414 -3.56693 0
M  V30 630 O 62.2402 0.451302 -4.09923 0
M  V30 631 H 61.5812 -0.173489 -0.640935 0
M  V30 632 H 64.1112 -1.11157 -1.71771 0
M  V30 633 H 64.1212 -0.404671 -4.05988 0
M  V30 634 H 62.7962 -1.54014 -3.86332 0
M  V30 635 H 61.3732 0.285558 -3.71805 0
M  V30 636 N 63.5583 1.46682 -0.576371 0
M  V30 637 C 64.9693 1.86112 -0.148091 0
M  V30 638 C 65.3203 1.48073 1.2872 0
M  V30 639 O 64.4453 0.892656 1.97131 0
M  V30 640 C 65.0403 3.37786 -0.261982 0
M  V30 641 C 63.5993 3.76235 0.111384 0
M  V30 642 C 62.7463 2.70713 -0.60083 0
M  V30 643 H 65.6973 1.37927 -0.78497 0
M  V30 644 H 65.7183 3.77007 0.514364 0
M  V30 645 H 65.2303 3.6544 -1.30671 0
M  V30 646 H 63.3313 3.54198 1.15649 0
M  V30 647 H 63.4443 4.78391 -0.26052 0
M  V30 648 H 61.8083 2.54666 -0.0417783 0
M  V30 649 H 62.5913 3.01208 -1.64708 0
M  V30 650 N 65.0364 0.313813 1.54444 0
M  V30 651 C 65.9994 -0.54379 2.22656 0
M  V30 652 C 66.9994 -1.05124 1.21678 0
M  V30 653 O 68.1894 -0.945225 1.46325 0
M  V30 654 C 65.3214 -1.75427 2.92298 0
M  V30 655 H 66.5144 0.0523599 2.99854 0
M  V30 656 H 64.0674 0.0647834 1.56166 0
M  V30 657 H 64.8024 -2.38991 2.19211 0
M  V30 658 H 64.5874 -1.39791 3.66334 0
M  V30 659 H 66.0774 -2.36325 3.44297 0
M  V30 660 N 66.5145 -1.57545 0.0417849 0
M  V30 661 C 67.7635 -1.91494 -0.633492 0
M  V30 662 C 68.0765 -0.921084 -1.72556 0
M  V30 663 O 69.2825 -1.15228 -2.45835 0
M  V30 664 C 67.7385 -3.40072 -1.17808 0
M  V30 665 C 67.3465 -4.47843 -0.118633 0
M  V30 666 C 69.0905 -3.8307 -1.82915 0
M  V30 667 C 66.9975 -5.87529 -0.675578 0
M  V30 668 H 65.9275 -0.714653 -0.24039 0
M  V30 669 H 68.5785 -1.83175 0.109148 0
M  V30 670 H 66.9605 -3.43364 -1.97274 0
M  V30 671 H 68.1345 -4.56128 0.654494 0
M  V30 672 H 66.4495 -4.14128 0.434414 0
M  V30 673 H 69.0465 -4.84794 -2.25563 0
M  V30 674 H 69.3895 -3.1881 -2.67705 0
M  V30 675 H 69.9225 -3.82255 -1.10119 0
M  V30 676 H 66.6615 -6.55362 0.134475 0
M  V30 677 H 66.1815 -5.82824 -1.4169 0
M  V30 678 H 67.8605 -6.36491 -1.1614 0
M  V30 679 N 67.9926 0.231505 -1.5589 0
M  V30 680 C 68.9406 1.30649 -1.92441 0
M  V30 681 C 69.9346 1.49037 -0.805254 0
M  V30 682 O 71.1406 1.50329 -0.990007 0
M  V30 683 H 67.5156 0.437812 -0.611412 0
M  V30 684 H 69.4866 0.970973 -2.82161 0
M  V30 685 C 68.2356 2.65179 -2.24889 0
M  V30 686 H 67.5586 2.51835 -3.10514 0
M  V30 687 H 68.9986 3.39234 -2.54355 0
M  V30 688 C 67.4576 3.19439 -1.07054 0
M  V30 689 O 67.9876 4.00371 -0.326499 0
M  V30 690 N 66.1936 2.77675 -0.85703 0
M  V30 691 H 65.7406 2.11969 -1.46379 0
M  V30 692 H 65.6986 3.14321 -0.0703223 0
M  V30 693 N 69.4707 1.49531 0.497807 0
M  V30 694 C 70.7167 1.59415 1.25358 0
M  V30 695 C 71.0497 0.281422 1.9215 0
M  V30 696 O 70.3247 -0.715249 1.80871 0
M  V30 697 C 70.6077 2.75566 2.3181 0
M  V30 698 C 70.4607 4.16642 1.69498 0
M  V30 699 C 71.7797 2.87347 3.33346 0
M  V30 700 H 68.8987 0.580244 0.454408 0
M  V30 701 H 71.5407 1.81827 0.551262 0
M  V30 702 H 69.6907 2.56587 2.91711 0
M  V30 703 H 71.3627 4.47145 1.13399 0
M  V30 704 H 69.6057 4.22141 0.998978 0
M  V30 705 H 70.2767 4.93792 2.46725 0
M  V30 706 H 72.7527 3.04634 2.83438 0
M  V30 707 H 71.6287 3.70289 4.05188 0
M  V30 708 H 71.8897 1.96834 3.95865 0
M  V30 709 N 70.9488 -0.749086 1.3866 0
M  V30 710 C 71.9118 -1.84457 1.36045 0
M  V30 711 C 72.9118 -1.58682 0.260122 0
M  V30 712 O 74.1018 -1.66343 0.517261 0
M  V30 713 C 71.2338 -3.22008 1.11911 0
M  V30 714 H 72.4268 -1.88182 2.33512 0
M  V30 715 H 69.9798 -0.951266 1.24019 0
M  V30 716 H 70.7148 -3.2395 0.150686 0
M  V30 717 H 70.4998 -3.42111 1.91579 0
M  V30 718 H 71.9898 -4.0208 1.12788 0
M  V30 719 N 72.4269 -1.23603 -0.977757 0
M  V30 720 C 73.6729 -1.07129 -1.72195 0
M  V30 721 C 74.0059 0.390501 -1.90233 0
M  V30 722 O 73.2809 1.28902 -1.45653 0
M  V30 723 C 73.5639 -1.80031 -3.11867 0
M  V30 724 C 73.4169 -3.33899 -3.01383 0
M  V30 725 C 74.7359 -1.56492 -4.11337 0
M  V30 726 H 71.8549 -0.390571 -0.624999 0
M  V30 727 H 74.4969 -1.52142 -1.13811 0
M  V30 728 H 72.6469 -1.41768 -3.6171 0
M  V30 729 H 74.3189 -3.81699 -2.59043 0
M  V30 730 H 72.5619 -3.62796 -2.37827 0
M  V30 731 H 73.2329 -3.801 -4.00285 0
M  V30 732 H 75.7089 -1.89757 -3.70313 0
M  V30 733 H 74.5849 -2.09973 -5.07151 0
M  V30 734 H 74.8459 -0.500874 -4.39254 0
M  V30 735 N 73.905 1.17692 -1.04816 0
M  V30 736 C 74.855 2.1952 -0.616042 0
M  V30 737 C 75.839 1.57147 0.345485 0
M  V30 738 O 77.031 1.76245 0.163325 0
M  V30 739 C 74.16 3.43298 0.0116917 0
M  V30 740 C 73.246 4.12777 -0.973435 0
M  V30 741 N 73.637 4.5814 -2.14339 0
M  V30 742 C 71.935 4.38747 -0.80108 0
M  V30 743 C 72.636 5.11713 -2.7663 0
M  V30 744 N 71.612 5.03686 -2.04453 0
M  V30 745 H 75.414 2.52293 -1.5075 0
M  V30 746 H 72.928 1.3398 -0.917776 0
M  V30 747 H 74.925 4.15519 0.339006 0
M  V30 748 H 73.585 3.12018 0.898593 0
M  V30 749 H 74.596 4.52349 -2.52191 0
M  V30 750 H 71.273 4.17485 0.0350934 0
M  V30 751 H 72.663 5.56962 -3.75823 0
M  V30 752 N 75.3831 0.828654 1.34056 0
M  V30 753 C 76.6291 0.42008 1.98402 0
M  V30 754 C 76.9621 -1.01564 1.65525 0
M  V30 755 O 76.2371 -1.70834 0.929831 0
M  V30 756 C 76.5201 0.62927 3.54559 0
M  V30 757 C 76.3731 2.11152 3.97159 0
M  V30 758 C 77.6921 0.0688756 4.40046 0
M  V30 759 H 74.8111 0.154104 0.720709 0
M  V30 760 H 77.4531 1.04228 1.5886 0
M  V30 761 H 75.6031 0.0996418 3.88372 0
M  V30 762 H 77.2751 2.70522 3.73651 0
M  V30 763 H 75.5181 2.59985 3.47261 0
M  V30 764 H 76.1891 2.20868 5.05887 0
M  V30 765 H 78.6651 0.521458 4.1282 0
M  V30 766 H 77.5411 0.245006 5.48353 0
M  V30 767 H 77.8021 -1.0266 4.30015 0
M  V30 768 N 76.8612 -1.46375 0.584142 0
M  V30 769 C 78.1082 -2.02378 0.0702675 0
M  V30 770 C 78.4362 -1.45545 -1.29023 0
M  V30 771 O 77.6912 -0.610967 -1.85918 0
M  V30 772 C 77.9902 -3.57373 -0.0439342 0
M  V30 773 C 77.6562 -4.33252 1.24915 0
M  V30 774 C 76.3182 -4.53701 1.60341 0
M  V30 775 C 78.6702 -4.7681 2.1048 0
M  V30 776 C 75.9982 -5.1496 2.81128 0
M  V30 777 C 78.3502 -5.39404 3.30494 0
M  V30 778 C 77.0142 -5.5808 3.66201 0
M  V30 779 H 76.2842 -0.740554 0.0257127 0
M  V30 780 H 78.9312 -1.75727 0.761065 0
M  V30 781 H 77.2362 -3.83169 -0.817869 0
M  V30 782 H 78.9332 -3.98384 -0.457318 0
M  V30 783 H 75.5232 -4.17633 0.963364 0
M  V30 784 H 79.7072 -4.60766 1.84414 0
M  V30 785 H 74.9632 -5.27611 3.08928 0
M  V30 786 H 79.1372 -5.72114 3.97063 0
M  V30 787 H 76.7642 -6.05318 4.59885 0
M  V30 788 N 78.3393 -0.321999 -1.54275 0
M  V30 789 C 79.7553 0.0306999 -1.5957 0
M  V30 790 C 79.9553 1.50614 -1.33857 0
M  V30 791 O 79.0113 2.2619 -1.12223 0
M  V30 792 C 80.3243 -0.386122 -2.98211 0
M  V30 793 C 81.8723 -0.336647 -3.11184 0
M  V30 794 C 82.3473 -0.728607 -4.52167 0
M  V30 795 N 83.8383 -0.681952 -4.58152 0
M  V30 796 C 84.5733 -0.957449 -5.6535 0
M  V30 797 N 84.0693 -1.3 -6.80494 0
M  V30 798 N 85.8623 -0.883113 -5.55119 0
M  V30 799 H 78.0133 -1.28332 -1.69247 0
M  V30 800 H 80.2763 -0.521716 -0.791528 0
M  V30 801 H 79.9823 -1.41404 -3.22022 0
M  V30 802 H 79.8563 0.249662 -3.76373 0
M  V30 803 H 82.2433 0.682058 -2.8711 0
M  V30 804 H 82.3243 -1.00734 -2.3513 0
M  V30 805 H 81.9683 -1.74522 -4.76974 0
M  V30 806 H 81.8983 -0.0356152 -5.26588 0
M  V30 807 H 84.3893 -0.428985 -3.75457 0
M  V30 808 H 84.7023 -1.49563 -7.58189 0
M  V30 809 H 83.0473 -1.33824 -6.81994 0
M  V30 810 H 86.2383 -0.615001 -4.64042 0
M  V30 811 H 86.4113 -1.10118 -6.38575 0
M  V30 812 N 79.8174 1.5752 -0.0501392 0
M  V30 813 C 80.7644 2.1147 0.924603 0
M  V30 814 C 81.7344 1.02182 1.30951 0
M  V30 815 O 82.9194 1.29723 1.39916 0
M  V30 816 C 80.0594 2.66337 2.19451 0
M  V30 817 C 79.1724 3.89708 1.86418 0
M  V30 818 C 78.3074 4.32893 3.07859 0
M  V30 819 C 77.3464 5.48967 2.70742 0
M  V30 820 N 76.4834 5.87211 3.84874 0
M  V30 821 H 81.3234 2.94465 0.457639 0
M  V30 822 H 78.8604 1.45531 0.214266 0
M  V30 823 H 80.8184 2.96247 2.93758 0
M  V30 824 H 79.4484 1.86141 2.63726 0
M  V30 825 H 78.5004 3.66396 1.02264 0
M  V30 826 H 79.8124 4.74074 1.55096 0
M  V30 827 H 78.9664 4.6435 3.90466 0
M  V30 828 H 77.7054 3.47336 3.42358 0
M  V30 829 H 76.7104 5.17183 1.86551 0
M  V30 830 H 77.9354 6.3624 2.37436 0
M  V30 831 H 75.8814 5.04607 4.19175 0
M  V30 832 H 75.7984 6.66266 3.57247 0
M  V30 833 H 77.0664 6.23282 4.68123 0
M  V30 834 N 81.2955 -0.223234 1.56011 0
M  V30 835 C 82.2585 -1.26014 1.9145 0
M  V30 836 C 83.2585 -1.3989 0.792937 0
M  V30 837 O 84.4485 -1.38184 1.0607 0
M  V30 838 C 81.5805 -2.63422 2.16383 0
M  V30 839 H 82.7735 -0.95796 2.84189 0
M  V30 840 H 80.3265 -0.463576 1.49267 0
M  V30 841 H 81.0615 -2.98741 1.2619 0
M  V30 842 H 80.8465 -2.54728 2.98088 0
M  V30 843 H 82.3365 -3.38249 2.44903 0
M  V30 844 N 82.7736 -1.49793 -0.48987 0
M  V30 845 C 83.7366 -1.66752 -1.57246 0
M  V30 846 C 84.7366 -0.538867 -1.51502 0
M  V30 847 O 85.9266 -0.805545 -1.54456 0
M  V30 848 C 83.0586 -1.67528 -2.96896 0
M  V30 849 H 84.2516 -2.63321 -1.43534 0
M  V30 850 H 81.8046 -1.38992 -0.714914 0
M  V30 851 H 82.5396 -0.725837 -3.16073 0
M  V30 852 H 82.3246 -2.49504 -3.02473 0
M  V30 853 H 83.8146 -1.82667 -3.7553 0
M  V30 854 N 84.2517 0.741722 -1.39055 0
M  V30 855 C 85.5287 1.49252 -1.26425 0
M  V30 856 C 85.9087 2.10705 0.129144 0
M  V30 857 O 85.2567 1.98045 1.13976 0
M  V30 858 C 85.4667 2.54934 -2.38347 0
M  V30 859 C 86.8147 3.21506 -2.77343 0
M  V30 860 O 87.8387 2.65245 -2.37747 0
M  V30 861 O 86.6977 4.23294 -3.45665 0
M  V30 862 H 83.7917 0.662451 -0.495064 0
M  V30 863 H 86.3377 0.776121 -1.50912 0
M  V30 864 H 85.1097 2.07857 -3.31529 0
M  V30 865 H 84.7327 3.34141 -2.15489 0
M  V30 866 N 85.7298 1.2412 0.971189 0
M  V30 867 C 87.0068 0.986867 1.6888 0
M  V30 868 C 87.3868 -0.491857 2.0529 0
M  V30 869 O 86.7348 -1.46531 1.75331 0
M  V30 870 C 86.9448 1.9063 2.92338 0
M  V30 871 C 88.2928 2.17515 3.64654 0
M  V30 872 O 89.3168 1.88254 3.02388 0
M  V30 873 O 88.1758 2.6719 4.7673 0
M  V30 874 H 85.2698 0.372944 0.738134 0
M  V30 875 H 87.8158 1.35203 1.02559 0
M  V30 876 H 86.5878 2.90552 2.62097 0
M  V30 877 H 86.2108 1.54408 3.66393 0
M  V30 878 N 87.2079 -1.17134 1.05439 0
M  V30 879 C 88.4359 -1.91372 0.786414 0
M  V30 880 C 88.8509 -1.76955 -0.658202 0
M  V30 881 O 88.2079 -1.10838 -1.44987 0
M  V30 882 C 88.2589 -3.42356 1.1608 0
M  V30 883 O 87.9799 -3.56332 2.54871 0
M  V30 884 C 89.4809 -4.33663 0.919322 0
M  V30 885 H 86.7009 -0.607118 0.285743 0
M  V30 886 H 89.2449 -1.48525 1.40572 0
M  V30 887 H 87.3999 -3.82939 0.586191 0
M  V30 888 H 87.8139 -4.49896 2.69618 0
M  V30 889 H 89.2879 -5.38099 1.231 0
M  V30 890 H 89.7649 -4.38959 -0.145359 0
M  V30 891 H 90.3709 -3.98796 1.47789 0
M  V30 892 N 88.686 -0.835752 -1.33615 0
M  V30 893 C 89.932 -0.439817 -1.98588 0
M  V30 894 C 90.287 0.989274 -1.65019 0
M  V30 895 O 89.58 1.68168 -0.918159 0
M  V30 896 C 89.774 -0.593925 -3.52431 0
M  V30 897 C 89.603 -2.03644 -4.00948 0
M  V30 898 C 88.373 -2.67103 -4.28934 0
M  V30 899 C 90.571 -3.00479 -4.17393 0
M  V30 900 N 88.553 -4.02462 -4.6357 0
M  V30 901 C 89.924 -4.20777 -4.55353 0
M  V30 902 C 91.979 -2.96926 -3.99674 0
M  V30 903 C 90.682 -5.37994 -4.77447 0
M  V30 904 C 92.708 -4.1337 -4.22941 0
M  V30 905 C 92.07 -5.32422 -4.61201 0
M  V30 906 H 88.169 -0.209303 -0.75347 0
M  V30 907 H 90.753 -1.08316 -1.61789 0
M  V30 908 H 88.924 0.019599 -3.88395 0
M  V30 909 H 90.656 -0.169738 -4.04344 0
M  V30 910 H 87.411 -2.18259 -4.20309 0
M  V30 911 H 87.835 -4.72232 -4.85104 0
M  V30 912 H 92.477 -2.06015 -3.69212 0
M  V30 913 H 90.195 -6.29451 -5.06771 0
M  V30 914 H 93.781 -4.12034 -4.10754 0
M  V30 915 H 92.661 -6.21027 -4.78848 0
M  V30 916 N 90.1641 1.46063 -0.591896 0
M  V30 917 C 91.0741 2.34192 0.13831 0
M  V30 918 C 92.0901 1.50305 0.876608 0
M  V30 919 O 93.2661 1.8315 0.837728 0
M  V30 920 C 90.3311 3.27656 1.13326 0
M  V30 921 C 89.3921 4.27445 0.39863 0
M  V30 922 C 88.6251 5.16443 1.34618 0
M  V30 923 O 88.8481 5.08553 2.58321 0
M  V30 924 O 87.7821 5.95843 0.851768 0
M  V30 925 H 91.6081 2.98002 -0.58552 0
M  V30 926 H 89.1931 1.45188 -0.352239 0
M  V30 927 H 91.0751 3.85291 1.70671 0
M  V30 928 H 89.7501 2.6643 1.83839 0
M  V30 929 H 88.6571 3.73471 -0.216895 0
M  V30 930 H 89.9901 4.91482 -0.265709 0
M  V30 931 N 91.6422 0.330177 1.54103 0
M  V30 932 C 93.0532 -0.15652 1.86043 0
M  V30 933 C 93.4042 -1.51086 1.2517 0
M  V30 934 O 92.5292 -2.09023 0.560217 0
M  V30 935 C 93.1242 -0.290784 3.3755 0
M  V30 936 C 91.6832 -0.721705 3.69416 0
M  V30 937 C 90.8302 0.152622 2.7688 0
M  V30 938 H 93.7812 0.550237 1.48856 0
M  V30 939 H 93.8022 -1.12058 3.63625 0
M  V30 940 H 93.3142 0.695068 3.81825 0
M  V30 941 H 91.4152 -1.71706 3.30678 0
M  V30 942 H 91.5282 -0.520869 4.7626 0
M  V30 943 H 89.8922 -0.372894 2.51956 0
M  V30 944 H 90.6752 1.13536 3.23982 0
M  V30 945 N 93.1203 -1.57491 0.0584922 0
M  V30 946 C 94.3673 -1.92978 -0.613648 0
M  V30 947 C 94.6953 -0.937461 -1.70417 0
M  V30 948 O 93.9503 0.049078 -1.95638 0
M  V30 949 C 94.2493 -3.3513 -1.24188 0
M  V30 950 C 93.9153 -4.50037 -0.278826 0
M  V30 951 C 92.5773 -4.81198 -0.0138447 0
M  V30 952 C 94.9293 -5.19807 0.380777 0
M  V30 953 C 92.2573 -5.79473 0.918052 0
M  V30 954 C 94.6093 -6.19079 1.30091 0
M  V30 955 C 93.2733 -6.48665 1.57449 0
M  V30 956 H 92.5433 -0.706157 -0.22455 0
M  V30 957 H 95.1903 -1.91082 0.126533 0
M  V30 958 H 93.4953 -3.33429 -2.05749 0
M  V30 959 H 95.1923 -3.59871 -1.769 0
M  V30 960 H 91.7823 -4.25726 -0.495539 0
M  V30 961 H 95.9663 -4.95939 0.189158 0
M  V30 962 H 91.2223 -6.00727 1.1374 0
M  V30 963 H 95.3963 -6.7225 1.81804 0
M  V30 964 H 93.0233 -7.24628 2.29822 0
M  V30 965 N 94.5984 0.214957 -1.56127 0
M  V30 966 C 95.5614 1.24997 -1.92116 0
M  V30 967 C 96.5614 1.39467 -0.800344 0
M  V30 968 O 97.7514 1.37619 -1.06802 0
M  V30 969 C 94.8834 2.62271 -2.17777 0
M  V30 970 H 96.0764 0.942875 -2.84693 0
M  V30 971 H 93.6294 0.455654 -1.49511 0
M  V30 972 H 94.3644 2.98068 -1.27773 0
M  V30 973 H 94.1494 2.53143 -2.99434 0
M  V30 974 H 95.6394 3.36946 -2.46693 0
M  V30 975 N 96.0765 1.50051 0.48192 0
M  V30 976 C 97.3015 1.64508 1.26301 0
M  V30 977 C 97.7265 0.323851 1.85291 0
M  V30 978 O 97.0845 -0.710969 1.66778 0
M  V30 979 C 97.1325 2.7305 2.35533 0
M  V30 980 O 96.2365 2.3355 3.39895 0
M  V30 981 H 95.5775 0.549978 0.372048 0
M  V30 982 H 98.1075 1.9636 0.574786 0
M  V30 983 H 98.1175 2.95799 2.8101 0
M  V30 984 H 96.7925 3.68946 1.91967 0
M  V30 985 H 95.3695 2.21205 3.00204 0
M  V30 986 N 97.5546 -0.734337 1.39446 0
M  V30 987 C 98.8026 -1.49096 1.36436 0
M  V30 988 C 99.1236 -1.94961 -0.0388255 0
M  V30 989 O 98.3936 -1.69033 -0.990191 0
M  V30 990 H 96.9736 -0.5531 0.502085 0
M  V30 991 H 99.6356 -0.871725 1.74319 0
M  V30 992 H 98.7316 -2.37276 2.02747 0
M  V30 993 N 99.0327 -1.24633 -0.964593 0
M  V30 994 C 99.9797 -1.04144 -2.05968 0
M  V30 995 C 100.95 0.046262 -1.66036 0
M  V30 996 O 102.135 -0.108972 -1.90489 0
M  V30 997 C 99.2747 -0.65563 -3.38815 0
M  V30 998 C 98.3877 -1.81714 -3.91923 0
M  V30 999 C 97.5227 -1.37662 -5.13052 0
M  V30 1000 C 96.5617 -2.50788 -5.58365 0
M  V30 1001 N 95.6987 -2.07582 -6.70712 0
M  V30 1002 H 100.539 -1.9787 -2.22827 0
M  V30 1003 H 98.0757 -0.9855 -1.09208 0
M  V30 1004 H 100.034 -0.412954 -4.15151 0
M  V30 1005 H 98.6637 0.244627 -3.21872 0
M  V30 1006 H 97.7157 -2.1734 -3.12198 0
M  V30 1007 H 99.0277 -2.66705 -4.21509 0
M  V30 1008 H 98.1817 -1.093 -5.96773 0
M  V30 1009 H 96.9207 -0.497293 -4.85158 0
M  V30 1010 H 95.9257 -2.79906 -4.73215 0
M  V30 1011 H 97.1507 -3.39283 -5.88272 0
M  V30 1012 H 95.0967 -1.22051 -6.44546 0
M  V30 1013 H 95.0137 -2.86125 -6.99763 0
M  V30 1014 H 96.2817 -1.82369 -7.57867 0
M  V30 1015 N 100.511 1.16574 -1.06058 0
M  V30 1016 C 101.739 1.90952 -0.796552 0
M  V30 1017 C 102.154 1.77302 0.648808 0
M  V30 1018 O 101.511 1.11605 1.44397 0
M  V30 1019 C 101.562 3.41736 -1.17894 0
M  V30 1020 O 101.283 3.54975 -2.56758 0
M  V30 1021 C 102.784 4.33169 -0.942308 0
M  V30 1022 H 100.004 0.605594 -0.288959 0
M  V30 1023 H 102.548 1.47777 -1.41358 0
M  V30 1024 H 100.703 3.82623 -0.606491 0
M  V30 1025 H 101.117 4.4846 -2.72 0
M  V30 1026 H 102.591 5.37439 -1.25952 0
M  V30 1027 H 103.068 4.3903 0.122078 0
M  V30 1028 H 103.674 3.98007 -1.49902 0
M  V30 1029 N 101.989 0.842826 1.3317 0
M  V30 1030 C 103.214 0.453129 2.02389 0
M  V30 1031 C 103.639 -0.939105 1.6298 0
M  V30 1032 O 102.997 -1.61472 0.8244 0
M  V30 1033 C 103.045 0.586094 3.55805 0
M  V30 1034 O 102.149 -0.386029 4.10589 0
M  V30 1035 H 101.49 0.183664 0.638094 0
M  V30 1036 H 104.02 1.13875 1.69981 0
M  V30 1037 H 104.03 0.469209 4.05293 0
M  V30 1038 H 102.705 1.6014 3.83833 0
M  V30 1039 H 101.282 -0.226371 3.72212 0
M  V30 1040 N 103.467 -1.45747 0.599634 0
M  V30 1041 C 104.377 -2.34262 -0.125888 0
M  V30 1042 C 105.393 -1.50768 -0.868625 0
M  V30 1043 O 106.569 -1.83592 -0.828003 0
M  V30 1044 C 103.634 -3.28252 -1.11587 0
M  V30 1045 C 102.695 -4.27651 -0.375956 0
M  V30 1046 C 101.928 -5.1715 -1.31877 0
M  V30 1047 O 102.151 -5.09916 -2.55621 0
M  V30 1048 O 101.085 -5.96286 -0.820157 0
M  V30 1049 H 104.911 -2.97688 0.601315 0
M  V30 1050 H 102.496 -1.44999 0.359934 0
M  V30 1051 H 104.378 -3.86191 -1.68626 0
M  V30 1052 H 103.053 -2.67401 -1.82424 0
M  V30 1053 H 101.96 -3.7335 0.236698 0
M  V30 1054 H 103.293 -4.91334 0.29177 0
M  V30 1055 N 104.945 -0.338344 -1.53925 0
M  V30 1056 C 106.17 0.263987 -2.05713 0
M  V30 1057 C 106.595 1.43847 -1.21201 0
M  V30 1058 O 105.953 1.79904 -0.224535 0
M  V30 1059 C 106.001 0.662 -3.54471 0
M  V30 1060 O 105.105 1.76265 -3.72833 0
M  V30 1061 H 104.446 0.0448722 -0.662482 0
M  V30 1062 H 106.976 -0.491048 -1.9862 0
M  V30 1063 H 106.986 0.940594 -3.9701 0
M  V30 1064 H 105.661 -0.196937 -4.15433 0
M  V30 1065 H 104.238 1.48173 -3.42198 0
M  V30 1066 N 106.423 1.57458 -0.0668435 0
M  V30 1067 C 107.671 1.92919 0.602214 0
M  V30 1068 C 107.992 0.947215 1.70449 0
M  V30 1069 O 107.262 -0.00544117 1.95899 0
M  V30 1070 H 105.842 0.71217 0.22544 0
M  V30 1071 H 108.504 1.94508 -0.123535 0
M  V30 1072 H 107.6 2.94589 1.03073 0
M  V30 1073 N 107.901 -0.206675 1.56239 0
M  V30 1074 C 108.811 -1.27686 1.96808 0
M  V30 1075 C 109.827 -1.50455 0.874035 0
M  V30 1076 O 111.003 -1.63295 1.17884 0
M  V30 1077 C 108.068 -2.60358 2.28942 0
M  V30 1078 C 107.129 -2.45762 3.51994 0
M  V30 1079 C 106.362 -3.72108 3.82585 0
M  V30 1080 O 106.585 -4.75776 3.14631 0
M  V30 1081 O 105.519 -3.6833 4.76043 0
M  V30 1082 H 109.345 -0.962593 2.88041 0
M  V30 1083 H 106.93 -0.410746 1.43643 0
M  V30 1084 H 108.812 -3.38687 2.50737 0
M  V30 1085 H 107.487 -2.91435 1.4088 0
M  V30 1086 H 106.394 -1.65584 3.35459 0
M  V30 1087 H 107.727 -2.19621 4.40486 0
M  V30 1088 N 109.379 -1.50304 -0.473955 0
M  V30 1089 C 110.309 -1.71886 -1.58042 0
M  V30 1090 C 111.29 -0.567799 -1.60344 0
M  V30 1091 O 112.475 -0.806623 -1.76656 0
M  V30 1092 C 109.605 -1.81036 -2.96384 0
M  V30 1093 C 108.559 -2.962 -3.08949 0
M  V30 1094 C 107.885 -2.9049 -4.48909 0
M  V30 1095 C 109.185 -4.36752 -2.86434 0
M  V30 1096 H 110.879 -2.64527 -1.40234 0
M  V30 1097 H 108.425 -1.27295 -0.673201 0
M  V30 1098 H 110.378 -1.94719 -3.73714 0
M  V30 1099 H 109.102 -0.850147 -3.15341 0
M  V30 1100 H 107.761 -2.82164 -2.3405 0
M  V30 1101 H 107.409 -1.92321 -4.64781 0
M  V30 1102 H 107.109 -3.67802 -4.58253 0
M  V30 1103 H 108.633 -3.06218 -5.28264 0
M  V30 1104 H 110.047 -4.5133 -3.53517 0
M  V30 1105 H 108.444 -5.15493 -3.07225 0
M  V30 1106 H 109.514 -4.49321 -1.82316 0
M  V30 1107 N 110.857 0.726932 -1.39834 0
M  V30 1108 C 111.807 1.83232 -1.35683 0
M  V30 1109 C 112.791 1.59155 -0.236295 0
M  V30 1110 O 113.983 1.70522 -0.474488 0
M  V30 1111 C 111.112 3.21246 -1.21062 0
M  V30 1112 C 110.198 3.51125 -2.37849 0
M  V30 1113 N 110.589 3.51889 -3.63329 0
M  V30 1114 C 108.887 3.81527 -2.30982 0
M  V30 1115 C 109.588 3.79791 -4.40606 0
M  V30 1116 N 108.564 3.97971 -3.70297 0
M  V30 1117 H 112.366 1.8214 -2.30656 0
M  V30 1118 H 109.88 0.925545 -1.33444 0
M  V30 1119 H 111.877 4.00387 -1.16171 0
M  V30 1120 H 110.537 3.23572 -0.270458 0
M  V30 1121 H 111.548 3.33008 -3.96643 0
M  V30 1122 H 108.225 3.91411 -1.45272 0
M  V30 1123 H 109.615 3.86783 -5.49408 0
M  V30 1124 N 112.336 1.25143 0.95797 0
M  V30 1125 C 113.584 1.09476 1.69881 0
M  V30 1126 C 113.905 -0.365502 1.91544 0
M  V30 1127 O 113.175 -1.25985 1.50015 0
M  V30 1128 H 111.755 0.402128 0.629525 0
M  V30 1129 H 114.417 1.57214 1.15194 0
M  V30 1130 H 113.513 1.60046 2.6794 0
M  V30 1131 N 113.814 -1.1601 1.06675 0
M  V30 1132 C 114.744 -2.22688 0.702307 0
M  V30 1133 C 115.725 -1.67306 -0.307032 0
M  V30 1134 O 116.91 -1.93352 -0.181305 0
M  V30 1135 C 114.04 -3.47178 0.092038 0
M  V30 1136 C 112.994 -4.15477 1.02777 0
M  V30 1137 C 112.32 -5.33963 0.28061 0
M  V30 1138 C 113.62 -4.66019 2.35846 0
M  V30 1139 H 115.314 -2.53429 1.59419 0
M  V30 1140 H 112.86 -1.21813 0.767961 0
M  V30 1141 H 114.813 -4.21037 -0.174814 0
M  V30 1142 H 113.537 -3.15749 -0.834877 0
M  V30 1143 H 112.196 -3.43549 1.27944 0
M  V30 1144 H 111.844 -4.98788 -0.649545 0
M  V30 1145 H 111.544 -5.806 0.904258 0
M  V30 1146 H 113.068 -6.10596 0.021396 0
M  V30 1147 H 114.482 -5.3144 2.15045 0
M  V30 1148 H 112.879 -5.23293 2.93743 0
M  V30 1149 H 113.949 -3.82023 2.98641 0
M  V30 1150 N 115.292 -0.849877 -1.32721 0
M  V30 1151 C 116.52 -0.464754 -2.01613 0
M  V30 1152 C 116.935 0.937191 -1.63897 0
M  V30 1153 O 116.292 1.61081 -0.857856 0
M  V30 1154 C 116.343 -0.588638 -3.56675 0
M  V30 1155 O 116.064 -1.93535 -3.93034 0
M  V30 1156 C 117.565 -0.2019 -4.4284 0
M  V30 1157 H 114.785 -0.183215 -0.645502 0
M  V30 1158 H 117.329 -1.1455 -1.69407 0
M  V30 1159 H 115.484 0.0443159 -3.87375 0
M  V30 1160 H 115.898 -1.92871 -4.87751 0
M  V30 1161 H 117.372 -0.339599 -5.50954 0
M  V30 1162 H 117.849 0.857224 -4.30753 0
M  V30 1163 H 118.455 -0.809733 -4.17521 0
M  V30 1164 N 116.77 1.45427 -0.607355 0
M  V30 1165 C 117.998 2.06614 -0.108814 0
M  V30 1166 C 118.413 1.45204 1.2067 0
M  V30 1167 O 117.77 0.566132 1.73497 0
M  V30 1168 C 117.821 3.61481 0.0375347 0
M  V30 1169 O 117.542 4.20598 -1.22593 0
M  V30 1170 C 119.043 4.39652 0.567561 0
M  V30 1171 H 116.263 0.66747 -0.0687351 0
M  V30 1172 H 118.807 1.86675 -0.835022 0
M  V30 1173 H 116.962 3.80762 0.714068 0
M  V30 1174 H 117.376 5.1377 -1.05547 0
M  V30 1175 H 118.85 5.48518 0.61905 0
M  V30 1176 H 119.327 4.09417 1.58978 0
M  V30 1177 H 119.933 4.25234 -0.0749202 0
M  V30 1178 N 118.248 0.346503 1.53744 0
M  V30 1179 C 119.158 -0.517293 2.28826 0
M  V30 1180 C 120.174 -1.10935 1.3405 0
M  V30 1181 O 121.35 -1.1244 1.6709 0
M  V30 1182 C 118.415 -1.65098 3.04866 0
M  V30 1183 C 117.476 -1.0884 4.15274 0
M  V30 1184 C 116.709 -2.16806 4.87679 0
M  V30 1185 O 116.932 -3.3758 4.59778 0
M  V30 1186 O 115.866 -1.80934 5.74061 0
M  V30 1187 H 119.692 0.0931396 3.03557 0
M  V30 1188 H 117.277 0.111458 1.48984 0
M  V30 1189 H 119.159 -2.31053 3.5241 0
M  V30 1190 H 117.834 -2.24717 2.32989 0
M  V30 1191 H 116.741 -0.3933 3.72027 0
M  V30 1192 H 118.074 -0.537036 4.89261 0
M  V30 1193 N 119.726 -1.57421 0.075193 0
M  V30 1194 C 120.636 -2.1642 -0.905511 0
M  V30 1195 C 121.652 -1.12828 -1.32461 0
M  V30 1196 O 122.828 -1.45109 -1.39661 0
M  V30 1197 C 119.893 -2.71693 -2.15369 0
M  V30 1198 C 118.954 -3.90171 -1.79068 0
M  V30 1199 C 118.187 -4.42798 -2.97936 0
M  V30 1200 O 118.41 -3.94416 -4.12058 0
M  V30 1201 O 117.344 -5.34085 -2.77555 0
M  V30 1202 H 121.17 -3.00588 -0.433626 0
M  V30 1203 H 118.755 -1.48664 -0.148067 0
M  V30 1204 H 120.637 -3.07104 -2.88557 0
M  V30 1205 H 119.312 -1.90582 -2.61649 0
M  V30 1206 H 118.219 -3.59606 -1.03122 0
M  V30 1207 H 119.552 -4.72584 -1.37569 0
M  V30 1208 N 121.204 0.198386 -1.56346 0
M  V30 1209 C 122.114 1.2664 -1.97483 0
M  V30 1210 C 123.13 1.49989 -0.882002 0
M  V30 1211 O 124.306 1.62668 -1.18748 0
M  V30 1212 C 121.371 2.59141 -2.30319 0
M  V30 1213 C 120.432 2.43892 -3.53292 0
M  V30 1214 C 119.665 3.70074 -3.84553 0
M  V30 1215 O 119.888 4.74101 -3.1715 0
M  V30 1216 O 118.822 3.658 -4.7799 0
M  V30 1217 H 122.648 0.947304 -2.88548 0
M  V30 1218 H 120.233 0.403123 -1.43859 0
M  V30 1219 H 122.115 3.37352 -2.5253 0
M  V30 1220 H 120.79 2.90684 -1.42423 0
M  V30 1221 H 119.697 1.63803 -3.36332 0
M  V30 1222 H 121.03 2.17282 -4.41644 0
M  V30 1223 N 122.682 1.50554 0.465978 0
M  V30 1224 C 123.929 1.61798 1.21768 0
M  V30 1225 C 124.257 0.320696 1.91838 0
M  V30 1226 O 123.512 -0.693724 1.82992 0
M  V30 1227 C 123.811 2.75152 2.28093 0
M  V30 1228 C 123.477 4.15454 1.75239 0
M  V30 1229 C 122.139 4.53628 1.60546 0
M  V30 1230 C 124.491 5.03121 1.36083 0
M  V30 1231 C 121.819 5.77204 1.05128 0
M  V30 1232 C 124.171 6.27249 0.821056 0
M  V30 1233 C 122.835 6.64221 0.660795 0
M  V30 1234 H 122.105 0.592063 0.445582 0
M  V30 1235 H 124.752 1.84503 0.512927 0
M  V30 1236 H 123.057 2.46556 3.04496 0
M  V30 1237 H 124.754 2.81055 2.86023 0
M  V30 1238 H 121.344 3.85341 1.87644 0
M  V30 1239 H 125.528 4.74257 1.46267 0
M  V30 1240 H 120.784 6.0452 0.91462 0
M  V30 1241 H 124.958 6.94537 0.509018 0
M  V30 1242 H 122.585 7.59854 0.229226 0
M  V30 1243 N 124.16 -0.719506 1.40217 0
M  V30 1244 C 125.406 -1.48152 1.38488 0
M  V30 1245 C 125.739 -1.94195 -0.0141867 0
M  V30 1246 O 125.014 -1.67884 -0.982096 0
M  V30 1247 C 125.297 -2.71035 2.37091 0
M  V30 1248 C 125.15 -2.30912 3.86005 0
M  V30 1249 C 126.469 -3.73182 2.33288 0
M  V30 1250 H 123.588 -0.537395 0.504357 0
M  V30 1251 H 126.23 -0.821472 1.71324 0
M  V30 1252 H 124.38 -3.27352 2.0922 0
M  V30 1253 H 126.052 -1.80107 4.24687 0
M  V30 1254 H 124.295 -1.62958 4.02029 0
M  V30 1255 H 124.966 -3.18978 4.50508 0
M  V30 1256 H 127.442 -3.26485 2.57966 0
M  V30 1257 H 126.318 -4.56806 3.04334 0
M  V30 1258 H 126.579 -4.21202 1.34317 0
M  V30 1259 N 125.638 -1.25649 -0.95132 0
M  V30 1260 C 126.548 -1.08073 -2.08224 0
M  V30 1261 C 127.564 -0.0169666 -1.73992 0
M  V30 1262 O 128.74 -0.218593 -2.0021 0
M  V30 1263 C 125.805 -0.704922 -3.39458 0
M  V30 1264 C 124.866 -1.84699 -3.87537 0
M  V30 1265 C 124.099 -1.48902 -5.12508 0
M  V30 1266 O 124.322 -0.386156 -5.69091 0
M  V30 1267 O 123.256 -2.32033 -5.55378 0
M  V30 1268 H 127.082 -2.02924 -2.25954 0
M  V30 1269 H 124.667 -1.04618 -1.06656 0
M  V30 1270 H 126.549 -0.507609 -4.18332 0
M  V30 1271 H 125.224 0.214291 -3.2299 0
M  V30 1272 H 124.131 -2.09919 -3.09653 0
M  V30 1273 H 125.464 -2.74557 -4.08509 0
M  V30 1274 N 127.117 1.15442 -1.07289 0
M  V30 1275 C 128.365 1.85845 -0.794096 0
M  V30 1276 C 128.686 1.82692 0.681809 0
M  V30 1277 O 127.956 1.26741 1.49377 0
M  V30 1278 H 126.536 0.688089 -0.290763 0
M  V30 1279 H 129.198 1.39947 -1.3565 0
M  V30 1280 H 128.294 2.91001 -1.12804 0
M  V30 1281 N 128.595 0.856903 1.32268 0
M  V30 1282 C 129.844 0.457599 1.96441 0
M  V30 1283 C 130.157 -0.992426 1.68553 0
M  V30 1284 O 131.363 -1.49727 2.26482 0
M  V30 1285 C 129.819 0.767358 3.51624 0
M  V30 1286 C 129.427 2.23326 3.88367 0
M  V30 1287 C 131.171 0.435887 4.22256 0
M  V30 1288 C 129.078 2.48613 5.36606 0
M  V30 1289 H 128.008 0.167387 0.735185 0
M  V30 1290 H 130.659 1.048 1.5063 0
M  V30 1291 H 129.041 0.106367 3.95857 0
M  V30 1292 H 130.215 2.93623 3.55137 0
M  V30 1293 H 128.53 2.52948 3.30766 0
M  V30 1294 H 131.127 0.602202 5.31298 0
M  V30 1295 H 131.47 -0.622672 4.11617 0
M  V30 1296 H 132.003 1.05286 3.83614 0
M  V30 1297 H 128.742 3.53101 5.52268 0
M  V30 1298 H 128.262 1.82896 5.71235 0
M  V30 1299 H 129.941 2.32676 6.03714 0
M  V30 1300 N 130.073 -1.45103 0.615059 0
M  V30 1301 C 131.303 -2.06254 0.119596 0
M  V30 1302 C 131.711 -1.4591 -1.20445 0
M  V30 1303 O 131.054 -0.570384 -1.7462 0
M  V30 1304 C 131.116 -3.59396 -0.0865591 0
M  V30 1305 C 130.78 -4.42116 1.15683 0
M  V30 1306 C 131.777 -4.7662 2.07676 0
M  V30 1307 C 129.462 -4.82749 1.38775 0
M  V30 1308 C 131.456 -5.50622 3.21082 0
M  V30 1309 C 129.143 -5.56504 2.52481 0
M  V30 1310 C 130.141 -5.90358 3.43463 0
M  V30 1311 O 129.829 -6.62615 4.55189 0
M  V30 1312 H 129.561 -0.672423 0.0694512 0
M  V30 1313 H 132.115 -1.87219 0.844885 0
M  V30 1314 H 130.345 -3.76859 -0.866823 0
M  V30 1315 H 132.034 -4.02365 -0.534555 0
M  V30 1316 H 132.8 -4.4578 1.91063 0
M  V30 1317 H 128.679 -4.55829 0.688545 0
M  V30 1318 H 132.223 -5.76965 3.92119 0
M  V30 1319 H 128.12 -5.86759 2.69043 0
M  V30 1320 H 128.888 -6.81071 4.53966 0
M  V30 1321 N 131.551 -0.354651 -1.53558 0
M  V30 1322 C 132.498 0.496968 -2.25386 0
M  V30 1323 C 133.468 1.0865 -1.25636 0
M  V30 1324 O 134.653 1.12104 -1.54394 0
M  V30 1325 C 131.793 1.63637 -3.03837 0
M  V30 1326 C 130.906 1.07307 -4.18461 0
M  V30 1327 C 130.041 2.18068 -4.84376 0
M  V30 1328 C 129.08 1.59147 -5.91049 0
M  V30 1329 N 128.217 2.63695 -6.50699 0
M  V30 1330 H 133.057 -0.122075 -2.9775 0
M  V30 1331 H 130.594 -0.0720154 -1.46924 0
M  V30 1332 H 132.552 2.30734 -3.47589 0
M  V30 1333 H 131.182 2.22623 -2.33749 0
M  V30 1334 H 130.234 0.292708 -3.79272 0
M  V30 1335 H 131.546 0.602193 -4.95152 0
M  V30 1336 H 130.7 2.93007 -5.31255 0
M  V30 1337 H 129.439 2.68504 -4.07133 0
M  V30 1338 H 128.444 0.827175 -5.43542 0
M  V30 1339 H 129.669 1.09549 -6.70206 0
M  V30 1340 H 127.615 3.13365 -5.76315 0
M  V30 1341 H 127.532 2.21263 -7.22896 0
M  V30 1342 H 128.8 3.3837 -7.02229 0
M  V30 1343 N 133.029 1.57378 -0.0835403 0
M  V30 1344 C 134.275 1.94217 0.583733 0
M  V30 1345 C 134.608 0.964653 1.68547 0
M  V30 1346 O 133.883 -0.00422258 1.945 0
M  V30 1347 C 134.166 3.41253 1.14972 0
M  V30 1348 C 134.019 4.49768 0.0538277 0
M  V30 1349 C 135.338 3.89352 2.05166 0
M  V30 1350 H 132.457 0.706233 0.210724 0
M  V30 1351 H 135.099 1.89392 -0.1519 0
M  V30 1352 H 133.249 3.45496 1.77665 0
M  V30 1353 H 134.921 4.57641 -0.579851 0
M  V30 1354 H 133.164 4.29432 -0.614068 0
M  V30 1355 H 133.835 5.49817 0.490452 0
M  V30 1356 H 136.311 3.87189 1.52393 0
M  V30 1357 H 135.187 4.92822 2.41698 0
M  V30 1358 H 135.448 3.27973 2.96456 0
M  V30 1359 N 134.507 -0.190092 1.56449 0
M  V30 1360 C 135.417 -1.25591 1.98152 0
M  V30 1361 C 136.433 -1.49519 0.889944 0
M  V30 1362 O 137.609 -1.62036 1.19609 0
M  V30 1363 C 134.674 -2.57916 2.3169 0
M  V30 1364 C 133.735 -2.42015 3.5458 0
M  V30 1365 C 132.968 -3.6803 3.8651 0
M  V30 1366 O 133.191 -4.72413 3.1966 0
M  V30 1367 O 132.125 -3.6326 4.79923 0
M  V30 1368 H 135.951 -0.931988 2.89046 0
M  V30 1369 H 133.536 -0.395488 1.4407 0
M  V30 1370 H 135.418 -3.36008 2.54316 0
M  V30 1371 H 134.093 -2.89925 1.43963 0
M  V30 1372 H 133 -1.62017 3.37196 0
M  V30 1373 H 134.333 -2.14937 4.4279 0
M  V30 1374 N 135.985 -1.50799 -0.457987 0
M  V30 1375 C 137.234 -1.6168 -1.20593 0
M  V30 1376 C 137.547 -0.32888 -1.92815 0
M  V30 1377 O 138.753 -0.316773 -2.69646 0
M  V30 1378 C 137.209 -2.8545 -2.19195 0
M  V30 1379 C 136.817 -4.21168 -1.52715 0
M  V30 1380 C 138.561 -3.05681 -2.94549 0
M  V30 1381 C 136.468 -5.3611 -2.4968 0
M  V30 1382 H 135.398 -0.602134 -0.453818 0
M  V30 1383 H 138.049 -1.77245 -0.475031 0
M  V30 1384 H 136.431 -2.63472 -2.95632 0
M  V30 1385 H 137.605 -4.53449 -0.819775 0
M  V30 1386 H 135.92 -4.06648 -0.895922 0
M  V30 1387 H 138.517 -3.88727 -3.67145 0
M  V30 1388 H 138.86 -2.17929 -3.54701 0
M  V30 1389 H 139.393 -3.27901 -2.25223 0
M  V30 1390 H 136.132 -6.26057 -1.94249 0
M  V30 1391 H 135.652 -5.0823 -3.18532 0
M  V30 1392 H 137.331 -5.6722 -3.11241 0
M  V30 1393 N 137.463 0.71206 -1.40597 0
M  V30 1394 C 138.74 1.46536 -1.29563 0
M  V30 1395 C 139.12 2.10931 0.0844217 0
M  V30 1396 O 138.468 2.00418 1.0975 0
M  V30 1397 C 138.678 2.49821 -2.43701 0
M  V30 1398 C 140.026 3.15551 -2.841 0
M  V30 1399 O 141.05 2.60142 -2.4332 0
M  V30 1400 O 139.909 4.15867 -3.54566 0
M  V30 1401 H 137.003 0.651801 -0.509004 0
M  V30 1402 H 139.549 0.743935 -1.52524 0
M  V30 1403 H 138.321 2.00778 -3.35863 0
M  V30 1404 H 137.944 3.29495 -2.22528 0
M  V30 1405 N 138.941 1.26152 0.944643 0
M  V30 1406 C 140.169 1.14259 1.72489 0
M  V30 1407 C 140.584 -0.302555 1.8636 0
M  V30 1408 O 139.941 -1.20741 1.36849 0
M  V30 1409 C 139.992 1.80266 3.13347 0
M  V30 1410 O 139.713 3.19133 3.00143 0
M  V30 1411 C 141.214 1.74283 4.07603 0
M  V30 1412 H 138.434 0.398051 0.540181 0
M  V30 1413 H 140.978 1.66706 1.18446 0
M  V30 1414 H 139.133 1.31766 3.64303 0
M  V30 1415 H 139.547 3.51744 3.89071 0
M  V30 1416 H 141.021 2.25111 5.04013 0
M  V30 1417 H 141.498 0.708631 4.33446 0
M  V30 1418 H 142.104 2.22319 3.62567 0
M  V30 1419 N 140.419 -1.14872 1.07899 0
M  V30 1420 C 141.366 -2.19791 0.704319 0
M  V30 1421 C 142.336 -1.63238 -0.306987 0
M  V30 1422 O 143.521 -1.8983 -0.192171 0
M  V30 1423 C 140.661 -3.44911 0.114244 0
M  V30 1424 C 139.774 -4.15637 1.1777 0
M  V30 1425 C 138.909 -5.28324 0.552037 0
M  V30 1426 C 137.948 -5.90875 1.59789 0
M  V30 1427 N 137.085 -6.95022 0.994404 0
M  V30 1428 H 141.925 -2.5119 1.60336 0
M  V30 1429 H 139.462 -1.23356 0.801352 0
M  V30 1430 H 141.42 -4.16477 -0.245544 0
M  V30 1431 H 140.05 -3.14011 -0.74813 0
M  V30 1432 H 139.102 -3.42512 1.65499 0
M  V30 1433 H 140.414 -4.5823 1.97046 0
M  V30 1434 H 139.568 -6.06538 0.1402 0
M  V30 1435 H 138.307 -4.86939 -0.272431 0
M  V30 1436 H 137.312 -5.11369 2.01945 0
M  V30 1437 H 138.537 -6.34337 2.42474 0
M  V30 1438 H 136.483 -6.55722 0.190939 0
M  V30 1439 H 136.4 -7.36073 1.72432 0
M  V30 1440 H 137.668 -7.77123 0.608253 0
M  V30 1441 N 141.898 -0.863906 -1.31812 0
M  V30 1442 C 143.123 -0.48527 -2.01643 0
M  V30 1443 C 143.548 0.913058 -1.64453 0
M  V30 1444 O 142.906 1.6014 -0.849985 0
M  V30 1445 C 142.954 -0.642625 -3.54828 0
M  V30 1446 O 142.058 0.320659 -4.11151 0
M  V30 1447 H 141.399 -0.193793 -0.635091 0
M  V30 1448 H 143.929 -1.16565 -1.68148 0
M  V30 1449 H 143.939 -0.533628 -4.04495 0
M  V30 1450 H 142.614 -1.66227 -3.81237 0
M  V30 1451 H 141.191 0.167126 -3.72525 0
M  V30 1452 N 143.376 1.44774 -0.622745 0
M  V30 1453 C 144.606 2.06187 -0.130532 0
M  V30 1454 C 145.014 1.46547 1.19669 0
M  V30 1455 O 144.357 0.579636 1.74316 0
M  V30 1456 C 144.419 3.59437 0.0674983 0
M  V30 1457 C 144.083 4.41496 -1.18026 0
M  V30 1458 C 145.08 4.75512 -2.102 0
M  V30 1459 C 142.765 4.82007 -1.41333 0
M  V30 1460 C 144.759 5.48912 -3.23998 0
M  V30 1461 C 142.446 5.55157 -2.55429 0
M  V30 1462 C 143.444 5.88528 -3.46589 0
M  V30 1463 O 143.132 6.60191 -4.58697 0
M  V30 1464 H 142.864 0.672045 -0.0730162 0
M  V30 1465 H 145.418 1.86768 -0.854802 0
M  V30 1466 H 143.648 3.77314 0.846825 0
M  V30 1467 H 145.337 4.02642 0.513209 0
M  V30 1468 H 146.103 4.4476 -1.93425 0
M  V30 1469 H 141.982 4.55457 -0.712709 0
M  V30 1470 H 145.526 5.74877 -3.95174 0
M  V30 1471 H 141.423 5.85324 -2.72151 0
M  V30 1472 H 142.191 6.78654 -4.57571 0
M  V30 1473 N 144.854 0.36279 1.53368 0
M  V30 1474 C 146.1 -0.220702 2.02199 0
M  V30 1475 C 146.455 -1.46649 1.24546 0
M  V30 1476 O 145.748 -1.88737 0.32996 0
M  V30 1477 C 145.942 -0.568417 3.52851 0
M  V30 1478 C 145.771 0.642126 4.45092 0
M  V30 1479 C 144.541 1.15335 4.91961 0
M  V30 1480 C 146.739 1.50649 4.91741 0
M  V30 1481 N 144.721 2.3242 5.68202 0
M  V30 1482 C 146.092 2.52404 5.66297 0
M  V30 1483 C 148.147 1.52969 4.73819 0
M  V30 1484 C 146.85 3.56331 6.24836 0
M  V30 1485 C 148.876 2.55789 5.33222 0
M  V30 1486 C 148.238 3.56268 6.07662 0
M  V30 1487 H 144.337 -0.0435508 0.780786 0
M  V30 1488 H 146.921 0.506704 1.87991 0
M  V30 1489 H 145.092 -1.2649 3.67226 0
M  V30 1490 H 146.824 -1.13676 3.88407 0
M  V30 1491 H 143.579 0.718412 4.68119 0
M  V30 1492 H 144.003 2.91591 6.10986 0
M  V30 1493 H 148.645 0.766418 4.15795 0
M  V30 1494 H 146.363 4.33543 6.81958 0
M  V30 1495 H 149.949 2.58435 5.21251 0
M  V30 1496 H 148.829 4.34524 6.52808 0
M  V30 1497 N 146.332 -1.57332 0.0918853 0
M  V30 1498 C 147.279 -2.13847 -0.868211 0
M  V30 1499 C 148.249 -1.05618 -1.28196 0
M  V30 1500 O 149.434 -1.33387 -1.36427 0
M  V30 1501 C 146.574 -2.72062 -2.12312 0
M  V30 1502 C 145.687 -3.94514 -1.7602 0
M  V30 1503 C 144.822 -4.40903 -2.96273 0
M  V30 1504 C 143.861 -5.55953 -2.56092 0
M  V30 1505 N 142.998 -5.97209 -3.69169 0
M  V30 1506 H 147.838 -2.95575 -0.379406 0
M  V30 1507 H 145.375 -1.46048 -0.175606 0
M  V30 1508 H 147.333 -3.03931 -2.858 0
M  V30 1509 H 145.963 -1.93068 -2.58698 0
M  V30 1510 H 145.015 -3.68979 -0.925135 0
M  V30 1511 H 146.327 -4.7802 -1.42472 0
M  V30 1512 H 145.481 -4.74539 -3.78018 0
M  V30 1513 H 144.22 -3.56291 -3.33029 0
M  V30 1514 H 143.225 -5.21948 -1.72773 0
M  V30 1515 H 144.45 -6.42311 -2.20484 0
M  V30 1516 H 142.396 -5.15543 -4.05649 0
M  V30 1517 H 142.313 -6.75504 -3.39456 0
M  V30 1518 H 143.581 -6.35475 -4.51434 0
M  V30 1519 N 147.81 0.181792 -1.56548 0
M  V30 1520 C 148.773 1.20894 -1.94724 0
M  V30 1521 C 149.773 1.37738 -0.829747 0
M  V30 1522 O 150.963 1.35323 -1.09697 0
M  V30 1523 C 148.095 2.57593 -2.23291 0
M  V30 1524 H 149.288 0.882275 -2.86629 0
M  V30 1525 H 146.841 0.423838 -1.50444 0
M  V30 1526 H 147.576 2.95291 -1.34067 0
M  V30 1527 H 147.361 2.46735 -3.04736 0
M  V30 1528 H 148.851 3.31637 -2.53785 0
M  V30 1529 N 149.288 1.51039 0.449983 0
M  V30 1530 C 150.218 1.74379 1.55288 0
M  V30 1531 C 151.199 0.593236 1.5942 0
M  V30 1532 O 152.384 0.834625 1.7535 0
M  V30 1533 C 149.514 1.85728 2.93466 0
M  V30 1534 C 148.468 3.01078 3.04197 0
M  V30 1535 C 147.794 2.97595 4.44231 0
M  V30 1536 C 149.094 4.41254 2.7945 0
M  V30 1537 H 150.788 2.66725 1.36008 0
M  V30 1538 H 148.334 1.2835 0.652864 0
M  V30 1539 H 150.287 2.0064 3.70569 0
M  V30 1540 H 149.011 0.900207 3.13949 0
M  V30 1541 H 147.67 2.85851 2.29531 0
M  V30 1542 H 147.318 1.99691 4.61663 0
M  V30 1543 H 147.018 3.75046 4.52343 0
M  V30 1544 H 148.542 3.14583 5.23326 0
M  V30 1545 H 149.956 4.56897 3.46292 0
M  V30 1546 H 148.353 5.20315 2.98985 0
M  V30 1547 H 149.423 4.52164 1.75144 0
M  V30 1548 N 150.766 -0.704594 1.40972 0
M  V30 1549 C 152.014 -1.46169 1.39568 0
M  V30 1550 C 152.335 -1.95 0.00253745 0
M  V30 1551 O 151.605 -1.71095 -0.954114 0
M  V30 1552 H 150.185 -0.542326 0.513704 0
M  V30 1553 H 152.847 -0.834553 1.76128 0
M  V30 1554 H 151.943 -2.32922 2.07735 0
M  V30 1555 N 152.244 -1.26651 -0.937939 0
M  V30 1556 C 153.493 -1.11775 -1.67897 0
M  V30 1557 C 153.806 0.33794 -1.92659 0
M  V30 1558 O 155.012 0.607434 -2.64618 0
M  V30 1559 C 153.468 -1.9523 -3.02346 0
M  V30 1560 C 153.076 -3.45393 -2.8532 0
M  V30 1561 C 154.82 -1.88972 -3.80118 0
M  V30 1562 C 152.727 -4.21083 -4.15263 0
M  V30 1563 H 151.657 -0.414696 -0.629717 0
M  V30 1564 H 154.308 -1.50988 -1.04283 0
M  V30 1565 H 152.69 -1.48853 -3.66959 0
M  V30 1566 H 153.864 -3.99561 -2.29537 0
M  V30 1567 H 152.179 -3.52921 -2.20988 0
M  V30 1568 H 154.776 -2.42805 -4.76392 0
M  V30 1569 H 155.119 -0.86113 -4.07296 0
M  V30 1570 H 155.652 -2.33189 -3.22285 0
M  V30 1571 H 152.391 -5.24425 -3.93267 0
M  V30 1572 H 151.911 -3.71695 -4.70747 0
M  V30 1573 H 153.59 -4.29706 -4.83696 0
M  V30 1574 N 153.722 1.14298 -1.08507 0
M  V30 1575 C 154.947 1.8976 -0.837001 0
M  V30 1576 C 155.372 1.78097 0.605228 0
M  V30 1577 O 154.73 1.12188 1.4242 0
M  V30 1578 C 154.778 3.37685 -1.26495 0
M  V30 1579 O 153.882 4.10281 -0.417514 0
M  V30 1580 H 153.223 0.590365 -0.303917 0
M  V30 1581 H 155.753 1.44672 -1.44676 0
M  V30 1582 H 155.763 3.88501 -1.24625 0
M  V30 1583 H 154.438 3.45492 -2.31534 0
M  V30 1584 H 153.015 3.69536 -0.499722 0
M  V30 1585 N 155.201 0.870884 1.31352 0
M  V30 1586 C 156.612 0.534714 1.78879 0
M  V30 1587 C 156.963 -0.948423 1.71754 0
M  V30 1588 O 156.088 -1.74055 1.28584 0
M  V30 1589 C 156.683 0.963839 3.24801 0
M  V30 1590 C 155.242 0.679311 3.70219 0
M  V30 1591 C 154.389 1.15465 2.52117 0
M  V30 1592 H 157.34 1.05651 1.18421 0
M  V30 1593 H 157.361 0.286892 3.79417 0
M  V30 1594 H 156.873 2.04332 3.29955 0
M  V30 1595 H 154.974 -0.388769 3.70566 0
M  V30 1596 H 155.087 1.25698 4.62317 0
M  V30 1597 H 153.451 0.574383 2.48139 0
M  V30 1598 H 154.234 2.24157 2.60016 0
M  V30 1599 N 156.679 -1.44442 0.630414 0
M  V30 1600 C 157.926 -2.02052 0.134617 0
M  V30 1601 C 158.254 -1.49576 -1.24327 0
M  V30 1602 O 157.509 -0.669806 -1.83881 0
M  V30 1603 C 157.808 -3.57332 0.0697835 0
M  V30 1604 C 157.474 -4.29058 1.38635 0
M  V30 1605 C 156.136 -4.4837 1.74694 0
M  V30 1606 C 158.488 -4.69872 2.25543 0
M  V30 1607 C 155.816 -5.05756 2.97369 0
M  V30 1608 C 158.168 -5.28616 3.47487 0
M  V30 1609 C 156.832 -5.46147 3.8377 0
M  V30 1610 H 156.102 -0.739361 0.0492598 0
M  V30 1611 H 158.749 -1.73217 0.816586 0
M  V30 1612 H 157.054 -3.85577 -0.695553 0
M  V30 1613 H 158.751 -3.99637 -0.330344 0
M  V30 1614 H 155.341 -4.14357 1.09574 0
M  V30 1615 H 159.525 -4.54666 1.98979 0
M  V30 1616 H 154.781 -5.17515 3.25558 0
M  V30 1617 H 158.955 -5.59192 4.15063 0
M  V30 1618 H 156.582 -5.9038 4.7891 0
M  V30 1619 N 158.157 -0.370918 -1.53173 0
M  V30 1620 C 159.107 0.489588 -2.22681 0
M  V30 1621 C 160.091 1.04442 -1.22395 0
M  V30 1622 O 161.283 0.973578 -1.47819 0
M  V30 1623 C 158.412 1.626 -3.02351 0
M  V30 1624 C 157.498 1.08379 -4.10018 0
M  V30 1625 N 157.889 0.265004 -5.05105 0
M  V30 1626 C 156.187 1.35809 -4.2482 0
M  V30 1627 C 156.888 -0.0324755 -5.81691 0
M  V30 1628 N 155.864 0.566581 -5.40639 0
M  V30 1629 H 159.666 -0.142729 -2.93553 0
M  V30 1630 H 157.18 -0.179221 -1.61408 0
M  V30 1631 H 159.177 2.2547 -3.50669 0
M  V30 1632 H 157.837 2.26132 -2.33011 0
M  V30 1633 H 158.848 -0.0962352 -5.17811 0
M  V30 1634 H 155.525 1.9958 -3.66707 0
M  V30 1635 H 156.915 -0.69473 -6.68299 0
M  V30 1636 N 159.635 1.57281 -0.100228 0
M  V30 1637 C 160.545 2.17833 0.870965 0
M  V30 1638 C 161.561 1.14921 1.30649 0
M  V30 1639 O 162.737 1.47313 1.37335 0
M  V30 1640 C 159.802 2.75085 2.1102 0
M  V30 1641 C 158.863 3.9297 1.72838 0
M  V30 1642 C 158.096 4.47482 2.90854 0
M  V30 1643 O 158.319 4.00922 4.05731 0
M  V30 1644 O 157.253 5.38433 2.69023 0
M  V30 1645 H 161.079 3.0124 0.38575 0
M  V30 1646 H 158.664 1.48881 0.124397 0
M  V30 1647 H 160.546 3.11656 2.83634 0
M  V30 1648 H 159.221 1.94721 2.58584 0
M  V30 1649 H 158.128 3.61201 0.973883 0
M  V30 1650 H 159.461 4.74713 1.30033 0
M  V30 1651 N 161.113 -0.173488 1.56642 0
M  V30 1652 C 162.063 -1.21941 1.92651 0
M  V30 1653 C 163.047 -1.39912 0.794577 0
M  V30 1654 O 164.239 -1.41919 1.05773 0
M  V30 1655 C 161.368 -2.55935 2.28806 0
M  V30 1656 C 160.454 -2.41667 3.48508 0
M  V30 1657 N 160.845 -1.9711 4.65813 0
M  V30 1658 C 159.143 -2.72499 3.53072 0
M  V30 1659 C 159.844 -1.95253 5.47952 0
M  V30 1660 N 158.82 -2.37575 4.88937 0
M  V30 1661 H 162.622 -0.866581 2.80834 0
M  V30 1662 H 160.136 -0.381776 1.57849 0
M  V30 1663 H 162.133 -3.31511 2.52797 0
M  V30 1664 H 160.793 -2.92022 1.41961 0
M  V30 1665 H 161.804 -1.67481 4.90072 0
M  V30 1666 H 158.481 -3.12639 2.767 0
M  V30 1667 H 159.871 -1.6252 6.51948 0
M  V30 1668 N 162.591 -1.51276 -0.441967 0
M  V30 1669 C 163.554 -1.7167 -1.51862 0
M  V30 1670 C 164.554 -0.586793 -1.49711 0
M  V30 1671 O 165.744 -0.854276 -1.51815 0
M  V30 1672 C 162.876 -1.76889 -2.91416 0
M  V30 1673 H 164.069 -2.67754 -1.35084 0
M  V30 1674 H 161.622 -1.41196 -0.670333 0
M  V30 1675 H 162.357 -0.826026 -3.13604 0
M  V30 1676 H 162.142 -2.59001 -2.94382 0
M  V30 1677 H 163.632 -1.94522 -3.69528 0
M  V30 1678 N 164.069 0.697108 -1.41344 0
M  V30 1679 C 164.979 1.84088 -1.45427 0
M  V30 1680 C 165.995 1.70545 -0.34501 0
M  V30 1681 O 167.171 1.92488 -0.592492 0
M  V30 1682 C 164.236 3.20056 -1.33286 0
M  V30 1683 C 163.297 3.45718 -2.54514 0
M  V30 1684 C 162.53 4.75199 -2.42944 0
M  V30 1685 O 162.753 5.51579 -1.45318 0
M  V30 1686 O 161.687 5.0161 -3.32672 0
M  V30 1687 H 165.513 1.836 -2.41919 0
M  V30 1688 H 163.098 0.849966 -1.22866 0
M  V30 1689 H 164.98 4.01236 -1.28794 0
M  V30 1690 H 163.655 3.2123 -0.39909 0
M  V30 1691 H 162.562 2.64474 -2.64583 0
M  V30 1692 H 163.895 3.49356 -3.46715 0
M  V30 1693 N 165.547 1.27147 0.931209 0
M  V30 1694 C 166.793 1.13446 1.68101 0
M  V30 1695 C 167.126 -0.319628 1.91552 0
M  V30 1696 O 166.401 -1.23407 1.50336 0
M  V30 1697 C 166.684 1.91482 3.0497 0
M  V30 1698 C 166.537 3.44855 2.88782 0
M  V30 1699 C 167.856 1.71651 4.05246 0
M  V30 1700 H 164.975 0.413498 0.610072 0
M  V30 1701 H 167.617 1.56261 1.08086 0
M  V30 1702 H 165.767 1.55095 3.56199 0
M  V30 1703 H 167.439 3.9105 2.44698 0
M  V30 1704 H 165.682 3.71373 2.24198 0
M  V30 1705 H 166.353 3.94694 3.85902 0
M  V30 1706 H 168.829 2.0337 3.63015 0
M  V30 1707 H 167.705 2.28651 4.99009 0
M  V30 1708 H 167.966 0.663555 4.37092 0
M  V30 1709 N 167.025 -1.13721 1.09112 0
M  V30 1710 C 168.271 -1.85198 0.826414 0
M  V30 1711 C 168.604 -1.83129 -0.646319 0
M  V30 1712 O 167.879 -1.2671 -1.47563 0
M  V30 1713 C 168.162 -3.33507 1.35812 0
M  V30 1714 C 168.015 -3.44108 2.89672 0
M  V30 1715 C 169.334 -4.28838 0.989256 0
M  V30 1716 H 166.453 -0.67243 0.301675 0
M  V30 1717 H 169.095 -1.33499 1.35197 0
M  V30 1718 H 167.245 -3.77666 0.911082 0
M  V30 1719 H 168.917 -3.08684 3.428 0
M  V30 1720 H 167.16 -2.85087 3.26967 0
M  V30 1721 H 167.831 -4.48388 3.21951 0
M  V30 1722 H 170.307 -3.92734 1.37475 0
M  V30 1723 H 169.183 -5.31051 1.38838 0
M  V30 1724 H 169.444 -4.4198 -0.102924 0
M  V30 1725 N 168.503 -0.877838 -1.30888 0
M  V30 1726 C 169.75 -0.492696 -1.96415 0
M  V30 1727 C 170.078 0.956671 -1.69346 0
M  V30 1728 O 169.333 1.68993 -0.986913 0
M  V30 1729 C 169.632 -0.705748 -3.50363 0
M  V30 1730 C 169.298 -2.1291 -3.97467 0
M  V30 1731 C 167.96 -2.51834 -4.1004 0
M  V30 1732 C 170.312 -3.05702 -4.22132 0
M  V30 1733 C 167.64 -3.82775 -4.44635 0
M  V30 1734 C 169.992 -4.36166 -4.58194 0
M  V30 1735 C 168.656 -4.74993 -4.68975 0
M  V30 1736 H 167.926 -0.18029 -0.718733 0
M  V30 1737 H 170.573 -1.11233 -1.55883 0
M  V30 1738 H 168.878 -0.00303058 -3.918 0
M  V30 1739 H 170.575 -0.387456 -3.99124 0
M  V30 1740 H 167.165 -1.81694 -3.88182 0
M  V30 1741 H 171.349 -2.76853 -4.11906 0
M  V30 1742 H 166.605 -4.12609 -4.51181 0
M  V30 1743 H 170.779 -5.08111 -4.76231 0
M  V30 1744 H 168.406 -5.76495 -4.95537 0
M  V30 1745 N 169.982 1.44106 -0.638065 0
M  V30 1746 C 171.21 2.06336 -0.152615 0
M  V30 1747 C 171.625 1.47731 1.17563 0
M  V30 1748 O 170.982 0.602806 1.72257 0
M  V30 1749 C 171.033 3.61479 -0.0391491 0
M  V30 1750 O 170.754 4.17903 -1.31487 0
M  V30 1751 C 172.255 4.40757 0.474176 0
M  V30 1752 H 169.475 0.665862 -0.0828776 0
M  V30 1753 H 172.019 1.84862 -0.87443 0
M  V30 1754 H 170.174 3.82191 0.633142 0
M  V30 1755 H 170.588 5.11416 -1.16421 0
M  V30 1756 H 172.062 5.49707 0.502562 0
M  V30 1757 H 172.539 4.12697 1.50258 0
M  V30 1758 H 173.145 4.24979 -0.165102 0
M  V30 1759 N 171.46 0.379036 1.52974 0
M  V30 1760 C 172.423 -0.448865 2.24762 0
M  V30 1761 C 173.423 -0.998689 1.26027 0
M  V30 1762 O 174.613 -0.882313 1.50203 0
M  V30 1763 C 171.745 -1.62872 2.99476 0
M  V30 1764 H 172.938 0.179491 2.99362 0
M  V30 1765 H 170.491 0.13096 1.5575 0
M  V30 1766 H 171.226 -2.29479 2.29151 0
M  V30 1767 H 171.011 -1.24128 3.71934 0
M  V30 1768 H 172.501 -2.2151 3.5401 0
M  V30 1769 N 172.938 -1.57226 0.108567 0
M  V30 1770 C 173.886 -2.16002 -0.862885 0
M  V30 1771 C 174.88 -1.10644 -1.28274 0
M  V30 1772 O 176.086 -1.28966 -1.2557 0
M  V30 1773 H 172.461 -0.691148 -0.296342 0
M  V30 1774 H 174.432 -2.96427 -0.342575 0
M  V30 1775 C 173.181 -2.76576 -2.10716 0
M  V30 1776 H 172.504 -3.5734 -1.793 0
M  V30 1777 H 173.944 -3.21253 -2.76717 0
M  V30 1778 C 172.403 -1.73137 -2.89007 0
M  V30 1779 O 172.933 -1.17842 -3.84026 0
M  V30 1780 N 171.139 -1.43317 -2.52801 0
M  V30 1781 H 170.686 -1.88473 -1.75601 0
M  V30 1782 H 170.644 -0.743485 -3.05483 0
M  V30 1783 N 174.416 0.165178 -1.56732 0
M  V30 1784 C 175.693 0.908443 -1.73224 0
M  V30 1785 C 176.073 2.0013 -0.67165 0
M  V30 1786 O 175.421 2.26353 0.31253 0
M  V30 1787 C 175.631 1.46756 -3.16644 0
M  V30 1788 C 176.979 1.93809 -3.77787 0
M  V30 1789 O 178.003 1.56537 -3.1996 0
M  V30 1790 O 176.862 2.62486 -4.79336 0
M  V30 1791 H 173.956 0.428025 -0.707618 0
M  V30 1792 H 176.502 0.152526 -1.69013 0
M  V30 1793 H 175.274 0.68129 -3.85323 0
M  V30 1794 H 174.897 2.28749 -3.25207 0
M  V30 1795 N 175.894 1.51508 0.433938 0
M  V30 1796 C 177.119 1.68443 1.21003 0
M  V30 1797 C 177.544 0.382636 1.84167 0
M  V30 1798 O 176.902 -0.65755 1.68956 0
M  V30 1799 C 176.95 2.80405 2.26727 0
M  V30 1800 O 176.054 2.44245 3.32292 0
M  V30 1801 H 175.395 0.561536 0.354363 0
M  V30 1802 H 177.925 1.9809 0.512024 0
M  V30 1803 H 177.935 3.0459 2.71457 0
M  V30 1804 H 176.61 3.74867 1.80132 0
M  V30 1805 H 175.187 2.30644 2.93015 0
M  V30 1806 N 177.372 -0.689602 1.41712 0
M  V30 1807 C 178.62 -1.4468 1.4111 0
M  V30 1808 C 178.941 -1.94986 0.0232196 0
M  V30 1809 O 178.211 -1.72097 -0.935913 0
M  V30 1810 H 176.791 -0.536847 0.519427 0
M  V30 1811 H 179.453 -0.815825 1.77004 0
M  V30 1812 H 178.549 -2.30706 2.10193 0
M  V30 1813 N 178.85 -1.27639 -0.924453 0
M  V30 1814 C 180.261 -1.12834 -1.48746 0
M  V30 1815 C 180.612 0.285505 -1.94112 0
M  V30 1816 O 179.737 1.17874 -1.81479 0
M  V30 1817 C 180.332 -2.04217 -2.70334 0
M  V30 1818 C 178.891 -1.93509 -3.22848 0
M  V30 1819 C 178.038 -1.96583 -1.95577 0
M  V30 1820 H 180.989 -1.40484 -0.738233 0
M  V30 1821 H 181.01 -1.59989 -3.4523 0
M  V30 1822 H 180.522 -3.07111 -2.37285 0
M  V30 1823 H 178.623 -0.936131 -3.60649 0
M  V30 1824 H 178.736 -2.79917 -3.88823 0
M  V30 1825 H 177.1 -1.4085 -2.12211 0
M  V30 1826 H 177.883 -3.01137 -1.64837 0
M  V30 1827 N 180.328 1.1314 -1.09713 0
M  V30 1828 C 181.744 1.36477 -0.827423 0
M  V30 1829 C 181.944 1.93654 0.556817 0
M  V30 1830 O 181 2.15791 1.31112 0
M  V30 1831 C 182.313 2.31334 -1.92106 0
M  V30 1832 C 183.861 2.44943 -1.94864 0
M  V30 1833 C 184.336 3.4311 -3.0338 0
M  V30 1834 N 185.827 3.50662 -3.02639 0
M  V30 1835 C 186.562 4.2651 -3.83246 0
M  V30 1836 N 186.058 5.05485 -4.73768 0
M  V30 1837 N 187.851 4.2184 -3.71493 0
M  V30 1838 H 180.002 0.743807 -1.9895 0
M  V30 1839 H 182.265 0.389823 -0.864143 0
M  V30 1840 H 181.971 1.96483 -2.91698 0
M  V30 1841 H 181.845 3.31381 -1.80184 0
M  V30 1842 H 184.232 2.79079 -0.959099 0
M  V30 1843 H 184.313 1.4481 -2.10864 0
M  V30 1844 H 183.957 3.09704 -4.02549 0
M  V30 1845 H 183.887 4.43055 -2.84622 0
M  V30 1846 H 186.378 2.94315 -2.37039 0
M  V30 1847 H 186.691 5.60675 -5.3185 0
M  V30 1848 H 185.036 5.04708 -4.77802 0
M  V30 1849 H 188.227 3.5922 -3.00131 0
M  V30 1850 H 188.4 4.80697 -4.3455 0
M  V30 1851 N 181.806 0.884767 1.30421 0
M  V30 1852 C 183.222 0.57874 1.48737 0
M  V30 1853 C 183.422 -0.883567 1.81095 0
M  V30 1854 O 182.478 -1.6648 1.89844 0
M  V30 1855 C 183.791 1.49171 2.61091 0
M  V30 1856 C 185.339 1.49532 2.74971 0
M  V30 1857 C 185.814 2.39421 3.90438 0
M  V30 1858 N 187.305 2.37383 3.97748 0
M  V30 1859 C 188.04 3.03647 4.86401 0
M  V30 1860 N 187.536 3.79136 5.79852 0
M  V30 1861 N 189.329 2.9288 4.79768 0
M  V30 1862 H 181.48 1.83075 1.0769 0
M  V30 1863 H 183.743 0.783637 0.533495 0
M  V30 1864 H 183.449 2.53291 2.44001 0
M  V30 1865 H 183.323 1.20113 3.57565 0
M  V30 1866 H 185.71 0.46163 2.91467 0
M  V30 1867 H 185.791 1.8262 1.79119 0
M  V30 1868 H 185.435 3.42874 3.74699 0
M  V30 1869 H 185.365 2.03649 4.85628 0
M  V30 1870 H 187.856 1.82525 3.30897 0
M  V30 1871 H 188.169 4.26789 6.4426 0
M  V30 1872 H 186.514 3.83243 5.79784 0
M  V30 1873 H 189.705 2.33433 4.05742 0
M  V30 1874 H 189.878 3.448 5.4865 0
M  V30 1875 N 183.284 -1.43765 0.645699 0
M  V30 1876 C 184.514 -2.05953 0.163318 0
M  V30 1877 C 184.922 -1.48432 -1.17322 0
M  V30 1878 O 184.265 -0.607295 -1.73371 0
M  V30 1879 C 184.327 -3.59499 -0.0103065 0
M  V30 1880 C 183.991 -4.39563 1.25035 0
M  V30 1881 C 184.988 -4.72108 2.17739 0
M  V30 1882 C 182.673 -4.79697 1.48983 0
M  V30 1883 C 184.667 -5.43688 3.3269 0
M  V30 1884 C 182.354 -5.51023 2.64229 0
M  V30 1885 C 183.352 -5.8294 3.55908 0
M  V30 1886 O 183.04 -6.5281 4.69142 0
M  V30 1887 H 182.772 -0.670798 0.0836986 0
M  V30 1888 H 185.326 -1.85384 0.884407 0
M  V30 1889 H 183.556 -3.78613 -0.78669 0
M  V30 1890 H 185.245 -4.03408 -0.449087 0
M  V30 1891 H 186.011 -4.41627 2.00476 0
M  V30 1892 H 181.89 -4.54266 0.785078 0
M  V30 1893 H 185.434 -5.68517 4.04269 0
M  V30 1894 H 181.331 -5.8092 2.81429 0
M  V30 1895 H 182.099 -6.71288 4.6831 0
M  V30 1896 N 184.763 -0.387143 -1.52771 0
M  V30 1897 C 185.991 0.195869 -2.05971 0
M  V30 1898 C 186.406 1.40691 -1.25903 0
M  V30 1899 O 185.763 1.79931 -0.305134 0
M  V30 1900 C 185.814 0.56812 -3.57008 0
M  V30 1901 O 185.535 -0.594803 -4.34043 0
M  V30 1902 C 187.036 1.20723 -4.26545 0
M  V30 1903 H 184.256 0.0300578 -0.670326 0
M  V30 1904 H 186.8 -0.551749 -1.96916 0
M  V30 1905 H 184.955 1.26564 -3.66143 0
M  V30 1906 H 185.369 -0.289322 -5.23701 0
M  V30 1907 H 186.843 1.41807 -5.33474 0
M  V30 1908 H 187.32 2.17395 -3.81623 0
M  V30 1909 H 187.926 0.550535 -4.21722 0
M  V30 1910 N 186.241 1.57166 -0.116904 0
M  V30 1911 C 187.49 1.94298 0.541407 0
M  V30 1912 C 187.803 1.00236 1.67964 0
M  V30 1913 O 189.009 1.26826 2.40057 0
M  V30 1914 C 187.465 3.45306 1.01449 0
M  V30 1915 C 187.073 4.47899 -0.0951738 0
M  V30 1916 C 188.817 3.91361 1.6443 0
M  V30 1917 C 186.724 5.90083 0.394491 0
M  V30 1918 H 185.654 0.725308 0.206019 0
M  V30 1919 H 188.305 1.82446 -0.196419 0
M  V30 1920 H 186.687 3.52385 1.80667 0
M  V30 1921 H 187.861 4.52486 -0.871374 0
M  V30 1922 H 186.176 4.11583 -0.631505 0
M  V30 1923 H 188.773 4.95004 2.02176 0
M  V30 1924 H 189.116 3.3122 2.52189 0
M  V30 1925 H 189.649 3.87073 0.917559 0
M  V30 1926 H 186.388 6.53974 -0.447004 0
M  V30 1927 H 185.908 5.88921 1.13722 0
M  V30 1928 H 187.587 6.41307 0.856399 0
M  V30 1929 N 187.719 -0.156864 1.56817 0
M  V30 1930 C 188.682 -1.17781 1.96622 0
M  V30 1931 C 189.682 -1.36401 0.851555 0
M  V30 1932 O 190.872 -1.33561 1.11836 0
M  V30 1933 C 188.004 -2.54008 2.27361 0
M  V30 1934 H 189.197 -0.836564 2.87996 0
M  V30 1935 H 186.75 -0.39985 1.51099 0
M  V30 1936 H 187.485 -2.9312 1.38748 0
M  V30 1937 H 187.27 -2.41856 3.08623 0
M  V30 1938 H 188.76 -3.27558 2.59029 0
M  V30 1939 N 189.197 -1.51736 -0.425897 0
M  V30 1940 C 190.16 -1.73271 -1.50032 0
M  V30 1941 C 191.16 -0.602639 -1.4908 0
M  V30 1942 O 192.35 -0.87033 -1.509 0
M  V30 1943 C 189.482 -1.79969 -2.89523 0
M  V30 1944 H 190.675 -2.69172 -1.32237 0
M  V30 1945 H 188.228 -1.41899 -0.65532 0
M  V30 1946 H 188.963 -0.859241 -3.1271 0
M  V30 1947 H 188.748 -2.62109 -2.91619 0
M  V30 1948 H 190.238 -1.9843 -3.67444 0
M  V30 1949 N 190.675 0.682077 -1.42076 0
M  V30 1950 C 191.605 1.80796 -1.47767 0
M  V30 1951 C 192.586 1.6677 -0.334954 0
M  V30 1952 O 193.771 1.863 -0.548264 0
M  V30 1953 C 190.901 3.19038 -1.37229 0
M  V30 1954 C 189.855 3.47789 -2.49453 0
M  V30 1955 C 189.181 4.8553 -2.23975 0
M  V30 1956 C 190.481 3.45411 -3.91776 0
M  V30 1957 H 192.175 1.7629 -2.41997 0
M  V30 1958 H 189.721 0.846721 -1.16476 0
M  V30 1959 H 191.674 3.97528 -1.39821 0
M  V30 1960 H 190.398 3.24204 -0.394907 0
M  V30 1961 H 189.057 2.71657 -2.46166 0
M  V30 1962 H 188.705 4.87337 -1.24547 0
M  V30 1963 H 188.405 5.0573 -2.99184 0
M  V30 1964 H 189.929 5.66312 -2.28304 0
M  V30 1965 H 191.343 4.13882 -3.96705 0
M  V30 1966 H 189.74 3.77145 -4.66778 0
M  V30 1967 H 190.81 2.44122 -4.18966 0
M  V30 1968 N 192.153 1.28127 0.917671 0
M  V30 1969 C 193.083 1.14248 2.03641 0
M  V30 1970 C 194.064 0.0412748 1.7005 0
M  V30 1971 O 195.249 0.217566 1.92977 0
M  V30 1972 C 192.379 0.799431 3.37974 0
M  V30 1973 C 191.333 1.85497 3.85713 0
M  V30 1974 C 190.659 1.36565 5.16966 0
M  V30 1975 C 191.959 3.26085 4.08002 0
M  V30 1976 H 193.653 2.07835 2.15511 0
M  V30 1977 H 191.199 1.00064 1.03553 0
M  V30 1978 H 193.152 0.689114 4.15727 0
M  V30 1979 H 191.876 -0.172145 3.26146 0
M  V30 1980 H 190.535 1.95437 3.10161 0
M  V30 1981 H 190.183 0.383253 5.01538 0
M  V30 1982 H 189.883 2.07143 5.49878 0
M  V30 1983 H 191.407 1.26848 5.97279 0
M  V30 1984 H 192.821 3.19089 4.76293 0
M  V30 1985 H 191.218 3.94462 4.52238 0
M  V30 1986 H 192.288 3.70394 3.12948 0
M  V30 1987 N 193.631 -1.12557 1.10312 0
M  V30 1988 C 194.856 -1.88405 0.867085 0
M  V30 1989 C 195.281 -1.79038 -0.576817 0
M  V30 1990 O 194.639 -1.14439 -1.40618 0
M  V30 1991 C 194.687 -3.3563 1.31851 0
M  V30 1992 O 193.791 -4.09565 0.482734 0
M  V30 1993 H 193.132 -0.585455 0.313271 0
M  V30 1994 H 195.662 -1.42352 1.4696 0
M  V30 1995 H 195.672 -3.86469 1.3079 0
M  V30 1996 H 194.347 -3.41765 2.37001 0
M  V30 1997 H 192.924 -3.68695 0.558448 0
M  V30 1998 N 195.109 -0.891671 -1.2995 0
M  V30 1999 C 196.52 -0.563104 -1.78006 0
M  V30 2000 C 196.871 0.920978 -1.73241 0
M  V30 2001 O 195.996 1.71987 -1.31337 0
M  V30 2002 C 196.591 -1.01539 -3.23226 0
M  V30 2003 C 195.15 -0.738124 -3.69092 0
M  V30 2004 C 194.297 -1.19461 -2.50249 0
M  V30 2005 H 197.248 -1.07522 -1.16725 0
M  V30 2006 H 197.269 -0.347217 -3.78912 0
M  V30 2007 H 196.781 -2.09555 -3.26662 0
M  V30 2008 H 194.882 0.329766 -3.71138 0
M  V30 2009 H 194.995 -1.33037 -4.60259 0
M  V30 2010 H 193.359 -0.613787 -2.47194 0
M  V30 2011 H 194.142 -2.28265 -2.56417 0
M  V30 2012 N 196.587 1.43421 -0.653314 0
M  V30 2013 C 197.817 2.05864 -0.174238 0
M  V30 2014 C 198.225 1.49052 1.16534 0
M  V30 2015 O 197.568 0.616481 1.73047 0
M  V30 2016 C 197.63 3.59499 -0.00875873 0
M  V30 2017 C 197.294 4.38893 -1.27364 0
M  V30 2018 C 198.291 4.70947 -2.20239 0
M  V30 2019 C 195.976 4.789 -1.51525 0
M  V30 2020 C 197.97 5.41916 -3.35568 0
M  V30 2021 C 195.657 5.49614 -2.67147 0
M  V30 2022 C 196.655 5.81044 -3.58994 0
M  V30 2023 O 196.343 6.50313 -4.72597 0
M  V30 2024 H 196.075 0.670345 -0.0872549 0
M  V30 2025 H 198.629 1.84913 -0.894226 0
M  V30 2026 H 196.859 3.79025 0.7666 0
M  V30 2027 H 198.548 4.0364 0.427687 0
M  V30 2028 H 199.314 4.40558 -2.02815 0
M  V30 2029 H 195.193 4.53843 -0.809158 0
M  V30 2030 H 198.737 5.66365 -4.07279 0
M  V30 2031 H 194.634 5.79419 -2.84505 0
M  V30 2032 H 195.402 6.68795 -4.71864 0
M  V30 2033 N 198.065 0.39524 1.52563 0
M  V30 2034 C 199.29 -0.187456 2.06551 0
M  V30 2035 C 199.715 -1.39249 1.26457 0
M  V30 2036 O 199.073 -1.78947 0.291151 0
M  V30 2037 C 199.121 -0.529985 3.56684 0
M  V30 2038 O 198.225 -1.62307 3.79118 0
M  V30 2039 H 197.566 -0.0202537 0.663691 0
M  V30 2040 H 200.096 0.564426 1.96661 0
M  V30 2041 H 200.106 -0.792598 4.00227 0
M  V30 2042 H 198.781 0.350987 4.14416 0
M  V30 2043 H 197.358 -1.3537 3.47461 0
M  V30 2044 N 199.544 -1.57102 0.125237 0
M  V30 2045 C 200.774 -1.99472 -0.538015 0
M  V30 2046 C 201.182 -1.00395 -1.60366 0
M  V30 2047 O 200.525 0.0103875 -1.83697 0
M  V30 2048 C 200.587 -3.38262 -1.21734 0
M  V30 2049 C 200.251 -4.56021 -0.298897 0
M  V30 2050 C 201.248 -5.17817 0.464943 0
M  V30 2051 C 198.933 -5.01869 -0.208149 0
M  V30 2052 C 200.927 -6.23852 1.3072 0
M  V30 2053 C 198.614 -6.07763 0.637736 0
M  V30 2054 C 199.612 -6.68622 1.39403 0
M  V30 2055 O 199.3 -7.7247 2.22586 0
M  V30 2056 H 199.032 -0.659934 -0.146501 0
M  V30 2057 H 201.586 -2.04321 0.210267 0
M  V30 2058 H 199.816 -3.30185 -2.01282 0
M  V30 2059 H 201.505 -3.6488 -1.77813 0
M  V30 2060 H 202.271 -4.83308 0.404741 0
M  V30 2061 H 198.15 -4.54241 -0.786522 0
M  V30 2062 H 201.694 -6.71284 1.898 0
M  V30 2063 H 197.591 -6.41701 0.699309 0
M  V30 2064 H 198.359 -7.89595 2.15596 0
M  V30 2065 N 201.022 0.148545 -1.56898 0
M  V30 2066 C 202.247 0.880385 -1.87787 0
M  V30 2067 C 202.672 1.74018 -0.714093 0
M  V30 2068 O 202.03 1.78153 0.336343 0
M  V30 2069 C 202.078 1.71422 -3.17249 0
M  V30 2070 O 201.182 2.8183 -3.01074 0
M  V30 2071 H 200.523 0.245301 -0.617028 0
M  V30 2072 H 203.053 0.139826 -2.04122 0
M  V30 2073 H 203.063 2.10954 -3.49231 0
M  V30 2074 H 201.738 1.08284 -4.01556 0
M  V30 2075 H 200.315 2.45715 -2.80497 0
M  V30 2076 N 202.5 1.5196 0.417844 0
M  V30 2077 C 203.728 1.69426 1.18753 0
M  V30 2078 C 204.143 0.399955 1.84515 0
M  V30 2079 O 203.5 -0.623288 1.71527 0
M  V30 2080 C 203.551 2.82375 2.25714 0
M  V30 2081 O 203.272 4.06793 1.62638 0
M  V30 2082 C 204.773 3.11277 3.15628 0
M  V30 2083 H 201.993 0.568031 0.357186 0
M  V30 2084 H 204.537 1.98475 0.49273 0
M  V30 2085 H 202.692 2.5587 2.90877 0
M  V30 2086 H 203.106 4.69667 2.3348 0
M  V30 2087 H 204.58 3.93843 3.86771 0
M  V30 2088 H 205.057 2.24473 3.77503 0
M  V30 2089 H 205.663 3.39515 2.56144 0
M  V30 2090 N 203.978 -0.674533 1.42435 0
M  V30 2091 C 205.206 -1.46283 1.46317 0
M  V30 2092 C 205.621 -1.88653 0.0745836 0
M  V30 2093 O 204.978 -1.58151 -0.91074 0
M  V30 2094 C 205.029 -2.71178 2.3905 0
M  V30 2095 O 204.75 -2.30586 3.72507 0
M  V30 2096 C 206.251 -3.64738 2.51955 0
M  V30 2097 H 203.471 -0.450104 0.497642 0
M  V30 2098 H 206.015 -0.828792 1.86953 0
M  V30 2099 H 204.17 -3.3077 2.01667 0
M  V30 2100 H 204.584 -3.11241 4.22172 0
M  V30 2101 H 206.058 -4.49096 3.20962 0
M  V30 2102 H 206.535 -4.10656 1.55752 0
M  V30 2103 H 207.141 -3.11038 2.90061 0
M  V30 2104 N 205.456 -1.28612 -0.910864 0
M  V30 2105 C 206.419 -1.12803 -1.9952 0
M  V30 2106 C 207.419 -0.0668264 -1.60661 0
M  V30 2107 O 208.609 -0.312847 -1.71368 0
M  V30 2108 C 205.741 -0.72254 -3.33155 0
M  V30 2109 H 206.934 -2.09109 -2.14973 0
M  V30 2110 H 204.487 -1.11639 -1.09391 0
M  V30 2111 H 205.222 0.241152 -3.23402 0
M  V30 2112 H 205.007 -1.48916 -3.62721 0
M  V30 2113 H 206.497 -0.634666 -4.12749 0
M  V30 2114 N 206.934 1.1197 -1.10907 0
M  V30 2115 C 208.18 1.8386 -0.855773 0
M  V30 2116 C 208.513 1.84134 0.617103 0
M  V30 2117 O 207.788 1.29041 1.45529 0
M  V30 2118 C 208.071 3.31305 -1.411 0
M  V30 2119 C 207.924 3.39456 -2.9511 0
M  V30 2120 C 209.243 4.2721 -1.05736 0
M  V30 2121 H 206.362 0.667545 -0.312334 0
M  V30 2122 H 209.004 1.31331 -1.37303 0
M  V30 2123 H 207.154 3.76169 -0.97105 0
M  V30 2124 H 208.826 3.03191 -3.47668 0
M  V30 2125 H 207.069 2.79849 -3.31462 0
M  V30 2126 H 207.74 4.43209 -3.29044 0
M  V30 2127 H 210.216 3.90497 -1.43706 0
M  V30 2128 H 209.092 5.28775 -1.47269 0
M  V30 2129 H 209.353 4.42088 0.0325958 0
M  V30 2130 N 208.412 0.89855 1.29475 0
M  V30 2131 C 209.658 0.524658 1.95896 0
M  V30 2132 C 209.991 -0.926468 1.70676 0
M  V30 2133 O 209.266 -1.65665 1.01908 0
M  V30 2134 C 209.549 0.81633 3.50725 0
M  V30 2135 C 209.402 2.31907 3.85408 0
M  V30 2136 C 210.721 0.302038 4.39062 0
M  V30 2137 H 207.84 0.19209 0.711527 0
M  V30 2138 H 210.482 1.12502 1.53112 0
M  V30 2139 H 208.632 0.305369 3.87298 0
M  V30 2140 H 210.304 2.89949 3.58786 0
M  V30 2141 H 208.547 2.78027 3.32992 0
M  V30 2142 H 209.218 2.47373 4.93468 0
M  V30 2143 H 211.694 0.739551 4.09475 0
M  V30 2144 H 210.57 0.535331 5.46283 0
M  V30 2145 H 210.831 -0.797216 4.34853 0
M  V30 2146 N 209.89 -1.43072 0.660911 0
M  V30 2147 C 211.118 -2.06067 0.185422 0
M  V30 2148 C 211.533 -1.49582 -1.15198 0
M  V30 2149 O 210.89 -0.630134 -1.71276 0
M  V30 2150 C 210.941 -3.61371 0.0966523 0
M  V30 2151 O 210.662 -4.15758 1.38119 0
M  V30 2152 C 212.163 -4.41455 -0.403996 0
M  V30 2153 H 209.383 -0.664459 0.0934604 0
M  V30 2154 H 211.927 -1.83447 0.90373 0
M  V30 2155 H 210.082 -3.8315 -0.572259 0
M  V30 2156 H 210.496 -5.09499 1.24542 0
M  V30 2157 H 211.97 -5.50437 -0.415045 0
M  V30 2158 H 212.447 -4.15036 -1.43674 0
M  V30 2159 H 213.053 -4.24663 0.232691 0
M  V30 2160 N 211.368 -0.403325 -1.52352 0
M  V30 2161 C 212.316 0.439752 -2.28405 0
M  V30 2162 C 213.31 1.05089 -1.32863 0
M  V30 2163 O 214.516 0.989759 -1.50345 0
M  V30 2164 H 210.891 0.160587 -0.734653 0
M  V30 2165 H 212.862 -0.222983 -2.97566 0
M  V30 2166 C 211.611 1.54736 -3.11371 0
M  V30 2167 H 210.934 1.08643 -3.84755 0
M  V30 2168 H 212.374 2.1112 -3.67701 0
M  V30 2169 C 210.833 2.51141 -2.24566 0
M  V30 2170 O 211.363 3.54887 -1.88196 0
M  V30 2171 N 209.569 2.21213 -1.8845 0
M  V30 2172 H 209.116 1.36878 -2.18225 0
M  V30 2173 H 209.074 2.85963 -1.30662 0
M  V30 2174 N 212.846 1.57033 -0.133567 0
M  V30 2175 C 214.257 1.82593 0.389464 0
M  V30 2176 C 214.608 1.05156 1.6564 0
M  V30 2177 O 213.733 0.292644 2.14412 0
M  V30 2178 C 214.328 3.31204 0.713377 0
M  V30 2179 C 212.887 3.57393 1.18098 0
M  V30 2180 C 212.034 2.76598 0.197126 0
M  V30 2181 H 214.985 1.54598 -0.358481 0
M  V30 2182 H 215.006 3.46627 1.56939 0
M  V30 2183 H 214.518 3.87537 -0.2089 0
M  V30 2184 H 212.619 3.06433 2.11966 0
M  V30 2185 H 212.732 4.65915 1.11624 0
M  V30 2186 H 211.096 2.45257 0.687088 0
M  V30 2187 H 211.879 3.35697 -0.718504 0
M  V30 2188 N 214.325 -0.140222 1.56975 0
M  V30 2189 C 215.272 -1.17292 1.98774 0
M  V30 2190 C 216.242 -1.4232 0.856408 0
M  V30 2191 O 217.427 -1.54541 1.119 0
M  V30 2192 C 214.567 -2.49973 2.37923 0
M  V30 2193 C 213.68 -2.32062 3.64378 0
M  V30 2194 C 212.815 -3.57825 3.926 0
M  V30 2195 C 211.854 -3.3498 5.12303 0
M  V30 2196 N 210.991 -4.52891 5.36502 0
M  V30 2197 H 215.831 -0.809472 2.86795 0
M  V30 2198 H 213.368 -0.388237 1.41884 0
M  V30 2199 H 215.326 -3.27346 2.58652 0
M  V30 2200 H 213.956 -2.84252 1.52972 0
M  V30 2201 H 213.008 -1.45711 3.51387 0
M  V30 2202 H 214.32 -2.11145 4.51906 0
M  V30 2203 H 213.474 -4.43624 4.13863 0
M  V30 2204 H 212.213 -3.81753 3.03506 0
M  V30 2205 H 211.218 -2.4757 4.90906 0
M  V30 2206 H 212.443 -3.12444 6.02956 0
M  V30 2207 H 210.389 -4.76979 4.50363 0
M  V30 2208 H 210.306 -4.35001 6.18312 0
M  V30 2209 H 211.574 -5.39884 5.62268 0
M  V30 2210 N 215.803 -1.52179 -0.40978 0
M  V30 2211 C 216.713 -1.78364 -1.52392 0
M  V30 2212 C 217.729 -0.669183 -1.60617 0
M  V30 2213 O 218.905 -0.954518 -1.77344 0
M  V30 2214 C 215.97 -1.92822 -2.88133 0
M  V30 2215 C 215.031 -3.16725 -2.898 0
M  V30 2216 C 214.264 -3.30483 -4.19067 0
M  V30 2217 O 214.487 -2.49522 -5.12928 0
M  V30 2218 O 213.421 -4.2363 -4.27576 0
M  V30 2219 H 217.247 -2.72931 -1.33201 0
M  V30 2220 H 214.832 -1.37016 -0.59557 0
M  V30 2221 H 216.714 -2.04157 -3.68643 0
M  V30 2222 H 215.389 -1.01444 -3.07393 0
M  V30 2223 H 214.296 -3.10848 -2.08146 0
M  V30 2224 H 215.629 -4.07881 -2.75489 0
M  V30 2225 O 217.32 0.555659 -1.5164 0
M  V30 2226 H 218.011 1.21079 -1.51194 0
M  V30 END ATOM
M  V30 BEGIN BOND
M  V30 END BOND
M  V30 END CTAB
M  END
$$$$
