drugbank_target|P07384 Calpain-1 catalytic subunit (DB04276; DB04653; DB07627)
 OpenBabel12092120303D

  0  0  0     0  0            999 V3000
M  V30 BEGIN CTAB
M  V30 COUNTS 11431 11562 0 0 0
M  V30 BEGIN ATOM
M  V30 1 H -0.908 1.98254 -0.117106 0
M  V30 2 N 0 1.576 0 0
M  V30 3 C 0.933 2.03868 1.02534 0
M  V30 4 C 1.911 0.928543 1.3348 0
M  V30 5 O 3.095 1.19667 1.45644 0
M  V30 6 C 0.222 2.43627 2.35294 0
M  V30 7 C -0.732 3.65373 2.2001 0
M  V30 8 S 0.101 5.13292 1.52614 0
M  V30 9 C 1.257 5.56322 2.86805 0
M  V30 10 H 1.49 2.90518 0.631377 0
M  V30 11 H -0.977 1.52953 0.210867 0
M  V30 12 H 0.981 2.67203 3.11629 0
M  V30 13 H -0.358 1.57376 2.7183 0
M  V30 14 H -1.165 3.90944 3.18086 0
M  V30 15 H -1.563 3.418 1.51819 0
M  V30 16 H 0.729 5.58782 3.83104 0
M  V30 17 H 1.672 6.56266 2.65933 0
M  V30 18 H 2.08 4.83886 2.90714 0
M  V30 19 N 1.4781 -0.272755 1.55222 0
M  V30 20 C 2.7031 -1.02683 1.80197 0
M  V30 21 C 3.1281 -1.79142 0.573551 0
M  V30 22 O 2.4861 -1.74917 -0.476849 0
M  V30 23 C 2.5341 -1.9609 3.02624 0
M  V30 24 O 1.6381 -3.04863 2.77727 0
M  V30 25 H 0.9791 -0.293557 0.595584 0
M  V30 26 H 3.5091 -0.30159 2.02365 0
M  V30 27 H 3.5191 -2.38039 3.31363 0
M  V30 28 H 2.1941 -1.39851 3.91682 0
M  V30 29 H 0.7711 -2.67228 2.60084 0
M  V30 30 N 2.9562 -1.48159 -0.537278 0
M  V30 31 C 3.8662 -1.64807 -1.6696 0
M  V30 32 C 4.8822 -0.530651 -1.65711 0
M  V30 33 O 6.0582 -0.800784 -1.84796 0
M  V30 34 C 3.1232 -1.67708 -3.03438 0
M  V30 35 C 2.1842 -2.91025 -3.156 0
M  V30 36 C 1.4172 -2.93778 -4.45567 0
M  V30 37 O 1.6402 -2.05153 -5.3223 0
M  V30 38 O 0.5742 -3.85868 -4.61941 0
M  V30 39 H 4.4002 -2.6066 -1.55853 0
M  V30 40 H 1.9852 -1.31475 -0.709549 0
M  V30 41 H 3.8672 -1.7218 -3.84619 0
M  V30 42 H 2.5422 -0.750278 -3.14885 0
M  V30 43 H 1.4492 -2.92089 -2.33741 0
M  V30 44 H 2.7822 -3.83065 -3.09066 0
M  V30 45 N 4.4343 0.785586 -1.36625 0
M  V30 46 C 5.3443 1.92964 -1.33425 0
M  V30 47 C 6.3603 1.72394 -0.235851 0
M  V30 48 O 7.5363 1.95866 -0.468878 0
M  V30 49 C 4.6013 3.27884 -1.12662 0
M  V30 50 C 3.6623 3.61204 -2.32013 0
M  V30 51 C 2.8953 4.89687 -2.12231 0
M  V30 52 O 3.1183 5.59704 -1.09945 0
M  V30 53 O 2.0523 5.21752 -3.00098 0
M  V30 54 H 5.8783 1.98613 -2.29753 0
M  V30 55 H 3.4633 0.926384 -1.17211 0
M  V30 56 H 5.3453 4.08614 -1.03016 0
M  V30 57 H 4.0203 3.23118 -0.193991 0
M  V30 58 H 2.9273 2.80765 -2.47228 0
M  V30 59 H 4.2603 3.70698 -3.23796 0
M  V30 60 N 5.9124 1.20967 1.01018 0
M  V30 61 C 7.1614 1.01796 1.74128 0
M  V30 62 C 7.4744 -0.449691 1.90361 0
M  V30 63 O 8.6804 -0.76068 2.60626 0
M  V30 64 C 7.1364 1.7727 3.13215 0
M  V30 65 C 6.7444 3.28171 3.04972 0
M  V30 66 C 8.4884 1.66489 3.90489 0
M  V30 67 C 6.3954 3.96156 4.39107 0
M  V30 68 H 5.3254 0.377276 0.652824 0
M  V30 69 H 7.9764 1.44651 1.12909 0
M  V30 70 H 6.3584 1.27205 3.75013 0
M  V30 71 H 7.5324 3.85499 2.52443 0
M  V30 72 H 5.8474 3.39437 2.41188 0
M  V30 73 H 8.4444 2.14617 4.89738 0
M  V30 74 H 8.7874 0.6222 4.11624 0
M  V30 75 H 9.3204 2.14003 3.35332 0
M  V30 76 H 6.0594 5.00604 4.23174 0
M  V30 77 H 5.5794 3.43617 4.91617 0
M  V30 78 H 7.2584 4.00774 5.07926 0
M  V30 79 N 7.3905 -1.2043 1.01659 0
M  V30 80 C 8.6395 -1.89118 0.701237 0
M  V30 81 C 8.9525 -1.79705 -0.772358 0
M  V30 82 O 10.1585 -2.43528 -1.20026 0
M  V30 83 C 8.6145 -3.39168 1.20388 0
M  V30 84 C 8.2225 -3.57166 2.70438 0
M  V30 85 C 9.9665 -4.1341 0.963953 0
M  V30 86 C 7.8735 -5.01042 3.14183 0
M  V30 87 H 6.8035 -0.708267 0.2586 0
M  V30 88 H 9.4545 -1.36239 1.22927 0
M  V30 89 H 7.8365 -3.91369 0.603824 0
M  V30 90 H 9.0105 -3.15351 3.35992 0
M  V30 91 H 7.3255 -2.96294 2.92572 0
M  V30 92 H 9.9225 -5.19491 1.26621 0
M  V30 93 H 10.2655 -4.16181 -0.099578 0
M  V30 94 H 10.7985 -3.67309 1.52738 0
M  V30 95 H 7.5375 -5.03426 4.19812 0
M  V30 96 H 7.0575 -5.43668 2.53348 0
M  V30 97 H 8.7365 -5.69623 3.0682 0
M  V30 98 N 8.8686 -0.792821 -1.36206 0
M  V30 99 C 10.0966 -0.378825 -2.03402 0
M  V30 100 C 10.5116 1.00586 -1.59774 0
M  V30 101 O 9.8686 1.64574 -0.788764 0
M  V30 102 C 9.9196 -0.43683 -3.58851 0
M  V30 103 O 9.6406 -1.76691 -4.00889 0
M  V30 104 C 11.1416 -0.0138943 -4.43298 0
M  V30 105 H 8.3616 -0.155673 -0.652692 0
M  V30 106 H 10.9056 -1.07261 -1.74113 0
M  V30 107 H 9.0606 0.208575 -3.86838 0
M  V30 108 H 9.4746 -1.72011 -4.95492 0
M  V30 109 H 10.9486 -0.105615 -5.51899 0
M  V30 110 H 11.4256 1.03915 -4.2673 0
M  V30 111 H 12.0316 -0.63192 -4.20579 0
M  V30 112 N 10.3467 1.47872 -0.545128 0
M  V30 113 C 11.7577 1.86384 -0.108581 0
M  V30 114 C 12.1087 1.45309 1.31832 0
M  V30 115 O 11.2337 0.850641 1.9898 0
M  V30 116 C 11.8287 3.38265 -0.190274 0
M  V30 117 C 10.3877 3.75914 0.191164 0
M  V30 118 C 9.5347 2.71926 -0.543273 0
M  V30 119 H 12.4857 1.39561 -0.755537 0
M  V30 120 H 12.5067 3.75831 0.594217 0
M  V30 121 H 12.0187 3.6813 -1.2289 0
M  V30 122 H 10.1197 3.51665 1.23136 0
M  V30 123 H 10.2327 4.78836 -0.158987 0
M  V30 124 H 8.5967 2.54697 0.0122495 0
M  V30 125 H 9.3797 3.04634 -1.58282 0
M  V30 126 N 11.8248 0.280983 1.55075 0
M  V30 127 C 13.0708 -0.33461 2.00021 0
M  V30 128 C 13.4038 -1.55063 1.16915 0
M  V30 129 O 12.6788 -1.93006 0.240646 0
M  V30 130 C 12.9618 -0.711007 3.53011 0
M  V30 131 C 12.8148 0.512766 4.46868 0
M  V30 132 C 14.1338 -1.54522 4.12081 0
M  V30 133 H 11.2528 -0.120147 0.727141 0
M  V30 134 H 13.8948 0.389097 1.85973 0
M  V30 135 H 12.0448 -1.32761 3.65112 0
M  V30 136 H 13.7168 1.15131 4.46702 0
M  V30 137 H 11.9598 1.14975 4.18286 0
M  V30 138 H 12.6308 0.205556 5.51617 0
M  V30 139 H 15.1068 -1.02442 4.03293 0
M  V30 140 H 13.9828 -1.77739 5.19327 0
M  V30 141 H 14.2438 -2.52813 3.62682 0
M  V30 142 N 13.3029 -1.57598 0.00835791 0
M  V30 143 C 14.5329 -1.94931 -0.684496 0
M  V30 144 C 14.9409 -0.882233 -1.67372 0
M  V30 145 O 14.2839 0.146621 -1.83114 0
M  V30 146 C 14.3459 -3.283 -1.4649 0
M  V30 147 C 14.0099 -4.52548 -0.63634 0
M  V30 148 C 15.0069 -5.19839 0.0795586 0
M  V30 149 C 12.6919 -4.98942 -0.579849 0
M  V30 150 C 14.6859 -6.3183 0.840843 0
M  V30 151 C 12.3729 -6.10819 0.185155 0
M  V30 152 C 13.3709 -6.77121 0.894227 0
M  V30 153 O 13.0589 -7.86853 1.64673 0
M  V30 154 H 12.7909 -0.647249 -0.19505 0
M  V30 155 H 15.3449 -2.05318 0.0581272 0
M  V30 156 H 13.5749 -3.14345 -2.2522 0
M  V30 157 H 15.2639 -3.50685 -2.04389 0
M  V30 158 H 16.0299 -4.84979 0.0451202 0
M  V30 159 H 11.9089 -4.47155 -1.1213 0
M  V30 160 H 15.4529 -6.83513 1.39483 0
M  V30 161 H 11.3499 -6.4512 0.221384 0
M  V30 162 H 12.1179 -8.03412 1.56432 0
M  V30 163 N 14.781 0.264519 -1.55364 0
M  V30 164 C 16.021 1.00254 -1.78125 0
M  V30 165 C 16.385 1.83187 -0.575017 0
M  V30 166 O 17.586 2.60029 -0.681042 0
M  V30 167 C 15.857 1.85478 -3.05504 0
M  V30 168 S 17.416 2.6543 -3.49417 0
M  V30 169 H 14.234 0.337522 -0.625779 0
M  V30 170 H 16.836 0.272111 -1.93597 0
M  V30 171 H 15.54 1.23491 -3.9138 0
M  V30 172 H 15.071 2.62827 -2.92721 0
M  V30 173 H 17.086 3.87958 -3.09359 0
M  V30 174 N 16.2591 1.48442 0.529413 0
M  V30 175 C 17.4871 1.60151 1.30994 0
M  V30 176 C 17.9021 0.261985 1.86973 0
M  V30 177 O 17.2591 -0.748805 1.66431 0
M  V30 178 C 17.3101 2.64854 2.46038 0
M  V30 179 O 17.0311 3.93608 1.92365 0
M  V30 180 C 18.5321 2.87007 3.37849 0
M  V30 181 H 15.7521 0.539971 0.398338 0
M  V30 182 H 18.2961 1.94273 0.638597 0
M  V30 183 H 16.4511 2.33589 3.09055 0
M  V30 184 H 16.8651 4.51055 2.67675 0
M  V30 185 H 18.3391 3.64068 4.14919 0
M  V30 186 H 18.8161 1.95852 3.93114 0
M  V30 187 H 19.4221 3.19579 2.80623 0
M  V30 188 N 17.7372 -0.778329 1.37039 0
M  V30 189 C 18.9852 -1.53361 1.31623 0
M  V30 190 C 19.3062 -1.94739 -0.100831 0
M  V30 191 O 18.5762 -1.65797 -1.04347 0
M  V30 192 H 17.1562 -0.568794 0.484234 0
M  V30 193 H 19.8182 -0.926742 1.71457 0
M  V30 194 H 18.9142 -2.43606 1.95096 0
M  V30 195 N 19.2153 -1.21501 -1.00376 0
M  V30 196 C 20.4613 -1.03452 -1.74429 0
M  V30 197 C 20.7943 0.430764 -1.89362 0
M  V30 198 O 20.0693 1.31962 -1.42886 0
M  V30 199 C 20.3523 -1.73375 -3.15615 0
M  V30 200 C 20.2053 -3.27431 -3.08397 0
M  V30 201 C 21.5243 -1.47732 -4.14564 0
M  V30 202 H 18.6433 -0.377226 -0.633143 0
M  V30 203 H 21.2853 -1.49693 -1.17013 0
M  V30 204 H 19.4353 -1.34064 -3.64636 0
M  V30 205 H 21.1073 -3.76119 -2.67081 0
M  V30 206 H 19.3503 -3.5767 -2.45468 0
M  V30 207 H 20.0213 -3.71524 -4.08258 0
M  V30 208 H 22.4973 -1.8186 -3.74254 0
M  V30 209 H 21.3733 -1.99169 -5.11491 0
M  V30 210 H 21.6343 -0.407589 -4.40217 0
M  V30 211 N 20.6934 1.19889 -1.02296 0
M  V30 212 C 21.9184 1.9393 -0.735237 0
M  V30 213 C 22.3434 1.74639 0.698782 0
M  V30 214 O 21.7014 1.04481 1.48167 0
M  V30 215 C 21.7494 3.43916 -1.08417 0
M  V30 216 O 20.8534 4.11917 -0.199446 0
M  V30 217 H 20.1944 0.605645 -0.272196 0
M  V30 218 H 22.7244 1.52137 -1.36804 0
M  V30 219 H 22.7344 3.9456 -1.03856 0
M  V30 220 H 21.4094 3.5728 -2.12894 0
M  V30 221 H 19.9864 3.71666 -0.303136 0
M  V30 222 N 22.1715 0.800033 1.35784 0
M  V30 223 C 23.1345 0.211565 2.28221 0
M  V30 224 C 24.1345 -0.59728 1.49296 0
M  V30 225 O 25.3245 -0.416721 1.69142 0
M  V30 226 C 22.4565 -0.705846 3.33513 0
M  V30 227 H 23.6495 1.02677 2.81776 0
M  V30 228 H 21.2025 0.570211 1.45528 0
M  V30 229 H 21.9375 -1.54498 2.85133 0
M  V30 230 H 21.7225 -0.127655 3.91892 0
M  V30 231 H 23.2125 -1.11211 4.02519 0
M  V30 232 N 23.6496 -1.47581 0.552962 0
M  V30 233 C 24.5816 -2.27997 -0.234533 0
M  V30 234 C 25.5946 -1.36753 -0.883321 0
M  V30 235 O 26.7836 -1.61612 -0.757889 0
M  V30 236 C 23.8836 -3.10879 -1.34935 0
M  V30 237 C 23.0566 -4.30056 -0.798158 0
M  V30 238 C 22.1156 -4.94567 -1.79694 0
M  V30 239 O 21.1416 -5.53087 -1.34474 0
M  V30 240 N 22.3436 -4.88878 -3.13015 0
M  V30 241 H 25.1086 -2.96222 0.455255 0
M  V30 242 H 22.6696 -1.57163 0.388761 0
M  V30 243 H 24.6616 -3.50903 -2.01616 0
M  V30 244 H 23.2316 -2.44924 -1.94244 0
M  V30 245 H 22.4516 -3.94174 0.0453079 0
M  V30 246 H 23.7396 -5.07152 -0.409173 0
M  V30 247 H 23.1376 -4.42526 -3.52402 0
M  V30 248 H 21.6946 -5.32934 -3.75266 0
M  V30 249 N 25.1277 -0.289203 -1.54924 0
M  V30 250 C 26.3737 0.323998 -2.00195 0
M  V30 251 C 26.7067 1.54441 -1.17735 0
M  V30 252 O 25.9817 1.92875 -0.250878 0
M  V30 253 C 26.2647 0.692276 -3.53383 0
M  V30 254 C 26.1177 -0.536457 -4.46589 0
M  V30 255 C 27.4367 1.52335 -4.12895 0
M  V30 256 H 24.5557 0.116289 -0.727768 0
M  V30 257 H 27.1977 -0.398954 -1.85764 0
M  V30 258 H 25.3477 1.30822 -3.65811 0
M  V30 259 H 27.0197 -1.17499 -4.46085 0
M  V30 260 H 25.2627 -1.17192 -4.1767 0
M  V30 261 H 25.9337 -0.234806 -5.515 0
M  V30 262 H 28.4097 1.00302 -4.0383 0
M  V30 263 H 27.2857 1.74982 -5.20262 0
M  V30 264 H 27.5467 2.50886 -3.64018 0
M  V30 265 N 26.6058 1.57591 -0.0167156 0
M  V30 266 C 27.5378 2.06343 0.997753 0
M  V30 267 C 28.5508 0.984469 1.29661 0
M  V30 268 O 29.7398 1.26093 1.26344 0
M  V30 269 C 26.8398 2.46255 2.32834 0
M  V30 270 C 26.0128 3.77083 2.21646 0
M  V30 271 C 25.0718 4.0368 3.37534 0
M  V30 272 O 24.0978 4.7411 3.14973 0
M  V30 273 N 25.2998 3.52881 4.60929 0
M  V30 274 H 28.0648 2.93997 0.581875 0
M  V30 275 H 25.6258 1.61002 0.170316 0
M  V30 276 H 27.6178 2.61149 3.09166 0
M  V30 277 H 26.1878 1.64032 2.66106 0
M  V30 278 H 25.4078 3.72106 1.30119 0
M  V30 279 H 26.6958 4.62822 2.11361 0
M  V30 280 H 26.0938 2.95878 4.82154 0
M  V30 281 H 24.6508 3.73076 5.34469 0
M  V30 282 N 28.0839 -0.256276 1.55502 0
M  V30 283 C 29.0309 -1.31714 1.89526 0
M  V30 284 C 30.0009 -1.4828 0.748479 0
M  V30 285 O 31.1859 -1.62416 1.00128 0
M  V30 286 C 28.3259 -2.66933 2.18725 0
M  V30 287 C 27.4389 -2.58452 3.4616 0
M  V30 288 C 26.5739 -3.85961 3.64976 0
M  V30 289 C 25.6129 -3.72059 4.86044 0
M  V30 290 N 24.7499 -4.9144 5.01429 0
M  V30 291 H 29.5899 -1.01998 2.80001 0
M  V30 292 H 27.1269 -0.492413 1.38613 0
M  V30 293 H 29.0849 -3.4563 2.33657 0
M  V30 294 H 27.7149 -2.94816 1.31466 0
M  V30 295 H 26.7669 -1.71374 3.3961 0
M  V30 296 H 28.0789 -2.44085 4.34999 0
M  V30 297 H 27.2329 -4.73101 3.79816 0
M  V30 298 H 25.9719 -4.03215 2.74353 0
M  V30 299 H 24.9769 -2.83302 4.7119 0
M  V30 300 H 26.2019 -3.56309 5.78118 0
M  V30 301 H 24.1479 -5.09072 4.13741 0
M  V30 302 H 24.0649 -4.79668 5.84341 0
M  V30 303 H 25.3329 -5.80104 5.20672 0
M  V30 304 N 29.562 -1.4872 -0.521534 0
M  V30 305 C 30.494 -1.59968 -1.64143 0
M  V30 306 C 31.507 -0.483463 -1.55456 0
M  V30 307 O 32.696 -0.75467 -1.61762 0
M  V30 308 C 29.796 -1.52127 -3.02838 0
M  V30 309 C 28.969 -2.78932 -3.36921 0
M  V30 310 C 28.028 -2.64428 -4.54933 0
M  V30 311 O 27.054 -3.38331 -4.57735 0
M  V30 312 N 28.256 -1.74606 -5.53618 0
M  V30 313 H 31.021 -2.56548 -1.54929 0
M  V30 314 H 28.582 -1.45551 -0.708988 0
M  V30 315 H 30.574 -1.40106 -3.79674 0
M  V30 316 H 29.144 -0.634868 -3.06085 0
M  V30 317 H 28.364 -3.05455 -2.4918 0
M  V30 318 H 29.652 -3.63041 -3.56481 0
M  V30 319 H 29.05 -1.13782 -5.54139 0
M  V30 320 H 27.607 -1.6852 -6.29638 0
M  V30 321 N 31.0401 0.771051 -1.3745 0
M  V30 322 C 32.4561 1.07171 -1.18265 0
M  V30 323 C 32.6561 2.01491 -0.019287 0
M  V30 324 O 31.7121 2.44244 0.640408 0
M  V30 325 C 33.0251 1.66854 -2.50161 0
M  V30 326 C 34.5731 1.79109 -2.56689 0
M  V30 327 C 35.0481 2.42205 -3.88717 0
M  V30 328 N 36.5391 2.49655 -3.90162 0
M  V30 329 C 37.2741 2.9933 -4.8907 0
M  V30 330 N 36.7701 3.49172 -5.98374 0
M  V30 331 N 38.5631 2.9821 -4.76474 0
M  V30 332 H 30.7141 0.144796 -2.11906 0
M  V30 333 H 32.9771 0.126863 -0.939473 0
M  V30 334 H 32.6831 1.05017 -3.35655 0
M  V30 335 H 32.5571 2.6614 -2.673 0
M  V30 336 H 34.9441 2.40077 -1.71601 0
M  V30 337 H 35.0251 0.785757 -2.43433 0
M  V30 338 H 34.6691 1.81875 -4.74219 0
M  V30 339 H 34.5991 3.43345 -3.99276 0
M  V30 340 H 37.0901 2.14383 -3.11205 0
M  V30 341 H 37.4031 3.8548 -6.69795 0
M  V30 342 H 35.7481 3.47275 -6.02018 0
M  V30 343 H 38.9391 2.58572 -3.90203 0
M  V30 344 H 39.1121 3.36613 -5.53711 0
M  V30 345 N 32.5182 1.22032 0.997298 0
M  V30 346 C 33.4812 0.987909 2.06816 0
M  V30 347 C 34.4812 -0.0440084 1.6074 0
M  V30 348 O 35.6712 0.194053 1.73116 0
M  V30 349 C 32.8032 0.49132 3.37341 0
M  V30 350 H 33.9962 1.93803 2.28868 0
M  V30 351 H 31.5492 1.03838 1.16822 0
M  V30 352 H 32.2842 -0.463364 3.20973 0
M  V30 353 H 32.0692 1.23575 3.72118 0
M  V30 354 H 33.5592 0.348824 4.16141 0
M  V30 355 N 33.9963 -1.19345 1.0293 0
M  V30 356 C 35.4123 -1.41069 0.746446 0
M  V30 357 C 35.6123 -1.90078 -0.668776 0
M  V30 358 O 34.6683 -2.0778 -1.4347 0
M  V30 359 C 35.9813 -2.42141 1.78292 0
M  V30 360 C 37.5293 -2.55887 1.80252 0
M  V30 361 C 38.0043 -3.60214 2.8286 0
M  V30 362 N 39.4953 -3.67711 2.81679 0
M  V30 363 C 40.2303 -4.48128 3.57727 0
M  V30 364 N 39.7263 -5.32248 4.43491 0
M  V30 365 N 41.5193 -4.42782 3.46267 0
M  V30 366 H 33.6703 -0.858536 1.94275 0
M  V30 367 H 35.9333 -0.439541 0.839945 0
M  V30 368 H 35.6393 -2.13155 2.79746 0
M  V30 369 H 35.5133 -3.41323 1.60557 0
M  V30 370 H 37.9003 -2.84196 0.794757 0
M  V30 371 H 37.9813 -1.56858 2.02062 0
M  V30 372 H 37.6253 -3.32647 3.83807 0
M  V30 373 H 37.5553 -4.58895 2.58307 0
M  V30 374 H 40.0463 -3.07634 2.19476 0
M  V30 375 H 40.3593 -5.90729 4.98256 0
M  V30 376 H 38.7043 -5.31707 4.47564 0
M  V30 377 H 41.8953 -3.76107 2.78677 0
M  V30 378 H 42.0683 -5.05215 4.05785 0
M  V30 379 N 35.4744 -0.807222 -1.35358 0
M  V30 380 C 36.3844 -0.219594 -2.3357 0
M  V30 381 C 37.4004 0.637734 -1.61892 0
M  V30 382 O 38.5764 0.549336 -1.93763 0
M  V30 383 C 35.6414 0.62158 -3.41083 0
M  V30 384 C 34.7024 -0.256315 -4.28534 0
M  V30 385 C 33.9354 0.544807 -5.30912 0
M  V30 386 O 34.1584 1.77944 -5.41934 0
M  V30 387 O 33.0924 -0.0646478 -6.01865 0
M  V30 388 H 36.9184 -1.03208 -2.85625 0
M  V30 389 H 34.5034 -0.569025 -1.38139 0
M  V30 390 H 36.3854 1.10067 -4.06772 0
M  V30 391 H 35.0604 1.41165 -2.91297 0
M  V30 392 H 33.9674 -0.782559 -3.65823 0
M  V30 393 H 35.3004 -1.01034 -4.81719 0
M  V30 394 N 36.9525 1.47285 -0.560781 0
M  V30 395 C 37.8825 2.32857 0.173105 0
M  V30 396 C 38.8635 1.44009 0.905281 0
M  V30 397 O 40.0485 1.7286 0.885046 0
M  V30 398 C 37.1785 3.25861 1.20133 0
M  V30 399 C 36.1325 4.23978 0.585388 0
M  V30 400 C 35.4585 5.06332 1.7185 0
M  V30 401 C 36.7585 5.20242 -0.463178 0
M  V30 402 H 38.4525 2.94466 -0.541307 0
M  V30 403 H 35.9985 1.41601 -0.261764 0
M  V30 404 H 37.9515 3.84569 1.72293 0
M  V30 405 H 36.6755 2.62315 1.94573 0
M  V30 406 H 35.3345 3.66501 0.085054 0
M  V30 407 H 34.9825 4.39186 2.45203 0
M  V30 408 H 34.6825 5.72762 1.31213 0
M  V30 409 H 36.2065 5.67899 2.24329 0
M  V30 410 H 37.6205 5.73293 -0.027502 0
M  V30 411 H 36.0175 5.94896 -0.788627 0
M  V30 412 H 37.0875 4.65504 -1.35773 0
M  V30 413 N 38.4306 0.297415 1.54768 0
M  V30 414 C 39.6786 -0.312295 1.99673 0
M  V30 415 C 39.9996 -1.54686 1.18732 0
M  V30 416 O 39.2696 -1.93854 0.282382 0
M  V30 417 H 37.8496 -0.118381 0.73756 0
M  V30 418 H 40.5116 0.407915 1.90583 0
M  V30 419 H 39.6076 -0.586813 3.06534 0
M  V30 420 N 39.9087 -1.5758 0.0250728 0
M  V30 421 C 40.8387 -2.13007 -0.956575 0
M  V30 422 C 41.8197 -1.0452 -1.342 0
M  V30 423 O 43.0047 -1.32332 -1.42133 0
M  V30 424 C 40.1347 -2.65386 -2.24026 0
M  V30 425 C 39.0887 -3.78623 -1.99571 0
M  V30 426 C 38.4147 -4.17414 -3.3417 0
M  V30 427 C 39.7147 -5.04867 -1.33814 0
M  V30 428 H 41.4087 -2.9528 -0.494991 0
M  V30 429 H 38.9547 -1.42042 -0.236651 0
M  V30 430 H 40.9077 -3.02794 -2.93076 0
M  V30 431 H 39.6317 -1.80268 -2.72343 0
M  V30 432 H 38.2907 -3.41646 -1.32941 0
M  V30 433 H 37.9387 -3.29284 -3.80238 0
M  V30 434 H 37.6387 -4.93719 -3.18615 0
M  V30 435 H 39.1627 -4.57402 -4.04495 0
M  V30 436 H 40.5767 -5.39888 -1.92857 0
M  V30 437 H 38.9737 -5.86144 -1.28669 0
M  V30 438 H 40.0437 -4.83904 -0.310561 0
M  V30 439 N 41.3868 0.248026 -1.55636 0
M  V30 440 C 42.6348 0.974295 -1.77065 0
M  V30 441 C 42.9558 1.85897 -0.588849 0
M  V30 442 O 42.2258 1.91868 0.395407 0
M  V30 443 H 40.8058 0.362733 -0.653019 0
M  V30 444 H 43.4678 0.266244 -1.93073 0
M  V30 445 H 42.5638 1.59667 -2.68166 0
M  V30 446 N 42.8649 1.48995 0.513639 0
M  V30 447 C 44.2809 1.35478 0.843682 0
M  V30 448 C 44.4809 0.378213 1.97919 0
M  V30 449 O 43.5369 -0.194689 2.51748 0
M  V30 450 C 44.8499 2.75901 1.1958 0
M  V30 451 C 46.3979 2.84509 1.30474 0
M  V30 452 C 46.8729 4.25671 1.69021 0
M  V30 453 N 48.3639 4.28422 1.76094 0
M  V30 454 C 49.0989 5.34601 2.07338 0
M  V30 455 N 48.5949 6.5104 2.36894 0
M  V30 456 N 50.3879 5.22007 2.08483 0
M  V30 457 H 42.5389 2.11092 -0.235328 0
M  V30 458 H 44.8019 0.947039 -0.0426669 0
M  V30 459 H 44.5079 3.49001 0.434913 0
M  V30 460 H 44.3819 3.10467 2.1422 0
M  V30 461 H 46.7689 2.11655 2.05637 0
M  V30 462 H 46.8499 2.53542 0.339155 0
M  V30 463 H 46.4939 4.99048 0.944135 0
M  V30 464 H 46.4239 4.54094 2.66658 0
M  V30 465 H 48.9149 3.44441 1.55464 0
M  V30 466 H 49.2279 7.2779 2.59887 0
M  V30 467 H 47.5729 6.54287 2.34378 0
M  V30 468 H 50.7639 4.30051 1.84861 0
M  V30 469 H 50.9369 6.04854 2.325 0
M  V30 470 N 44.343 -0.763751 1.37857 0
M  V30 471 C 45.293 -1.86765 1.30777 0
M  V30 472 C 46.277 -1.59726 0.194015 0
M  V30 473 O 47.469 -1.7172 0.42911 0
M  V30 474 C 44.598 -3.24343 1.12502 0
M  V30 475 C 43.684 -3.57307 2.28456 0
M  V30 476 N 44.075 -3.61398 3.53871 0
M  V30 477 C 42.373 -3.87517 2.20786 0
M  V30 478 C 43.074 -3.91339 4.30382 0
M  V30 479 N 42.05 -4.07649 3.59615 0
M  V30 480 H 45.852 -1.88191 2.25746 0
M  V30 481 H 43.366 -0.9606 1.30944 0
M  V30 482 H 45.363 -4.03327 1.05514 0
M  V30 483 H 44.023 -3.24175 0.184574 0
M  V30 484 H 45.034 -3.43407 3.87675 0
M  V30 485 H 41.711 -3.95125 1.34844 0
M  V30 486 H 43.101 -4.01213 5.3896 0
M  V30 487 N 45.8211 -1.22559 -0.990812 0
M  V30 488 C 46.7311 -1.01394 -2.11557 0
M  V30 489 C 47.7471 0.0383962 -1.73958 0
M  V30 490 O 48.9231 -0.154787 -2.00804 0
M  V30 491 C 45.9881 -0.596569 -3.41529 0
M  V30 492 C 45.0491 -1.72276 -3.93217 0
M  V30 493 C 44.2821 -1.32521 -5.16985 0
M  V30 494 O 44.5051 -0.204909 -5.70032 0
M  V30 495 O 43.4391 -2.14247 -5.62478 0
M  V30 496 H 47.2651 -1.95633 -2.32296 0
M  V30 497 H 44.8501 -1.01172 -1.0993 0
M  V30 498 H 46.7321 -0.374263 -4.19735 0
M  V30 499 H 45.4071 0.316939 -3.22145 0
M  V30 500 H 44.3141 -1.99961 -3.16174 0
M  V30 501 H 45.6471 -2.61421 -4.17037 0
M  V30 502 N 47.2992 1.18797 -1.03562 0
M  V30 503 C 48.2472 2.24297 -0.615905 0
M  V30 504 C 49.2412 1.65643 0.354808 0
M  V30 505 O 50.4472 1.78618 0.22265 0
M  V30 506 H 46.8222 0.729909 -0.180934 0
M  V30 507 H 48.7932 2.5701 -1.5162 0
M  V30 508 C 47.5422 3.47698 0.0104735 0
M  V30 509 H 46.8652 3.93125 -0.727509 0
M  V30 510 H 48.3052 4.23159 0.266995 0
M  V30 511 C 46.7642 3.12489 1.25905 0
M  V30 512 O 47.2942 3.25761 2.35038 0
M  V30 513 N 45.5002 2.6686 1.15039 0
M  V30 514 H 45.0472 2.56261 0.262328 0
M  V30 515 H 45.0052 2.43674 1.98672 0
M  V30 516 N 48.7773 0.814389 1.34928 0
M  V30 517 C 49.7403 0.235759 2.27984 0
M  V30 518 C 50.7403 -0.581412 1.49921 0
M  V30 519 O 51.9303 -0.398758 1.69575 0
M  V30 520 C 49.0623 -0.670433 3.34242 0
M  V30 521 H 50.2553 1.05659 2.80671 0
M  V30 522 H 47.8083 0.585614 1.44915 0
M  V30 523 H 48.5433 -1.51466 2.86755 0
M  V30 524 H 48.3283 -0.0860822 3.92005 0
M  V30 525 H 49.8183 -1.06935 4.03676 0
M  V30 526 N 50.2554 -1.46986 0.568584 0
M  V30 527 C 51.5044 -2.01646 0.0465894 0
M  V30 528 C 51.8174 -1.44721 -1.31587 0
M  V30 529 O 53.0234 -1.91113 -1.92842 0
M  V30 530 C 51.4794 -3.59885 0.032752 0
M  V30 531 C 51.0874 -4.25804 1.39266 0
M  V30 532 C 52.8314 -4.22255 -0.436038 0
M  V30 533 C 50.7384 -5.76081 1.33732 0
M  V30 534 H 49.6684 -0.753876 0.013647 0
M  V30 535 H 52.3194 -1.68864 0.718131 0
M  V30 536 H 50.7014 -3.8968 -0.704669 0
M  V30 537 H 51.8754 -4.07637 2.1487 0
M  V30 538 H 50.1904 -3.7547 1.80032 0
M  V30 539 H 52.7874 -5.32394 -0.49602 0
M  V30 540 H 53.1304 -3.90212 -1.45053 0
M  V30 541 H 53.6634 -3.97033 0.246877 0
M  V30 542 H 50.4024 -6.12761 2.32817 0
M  V30 543 H 49.9224 -5.96553 0.623267 0
M  V30 544 H 51.6014 -6.38518 1.0442 0
M  V30 545 N 51.7335 -0.305618 -1.54608 0
M  V30 546 C 52.6805 0.568421 -2.23691 0
M  V30 547 C 53.6505 1.12592 -1.22116 0
M  V30 548 O 54.8355 1.16959 -1.50749 0
M  V30 549 C 51.9755 1.7322 -2.98477 0
M  V30 550 C 51.0885 1.20566 -4.14835 0
M  V30 551 C 50.2235 2.33368 -4.77193 0
M  V30 552 C 49.2625 1.7787 -5.85686 0
M  V30 553 N 48.3995 2.84263 -6.4198 0
M  V30 554 H 53.2395 -0.0272867 -2.97988 0
M  V30 555 H 50.7765 -0.0252363 -1.47078 0
M  V30 556 H 52.7345 2.41675 -3.40072 0
M  V30 557 H 51.3645 2.29947 -2.26548 0
M  V30 558 H 50.4165 0.413223 -3.78149 0
M  V30 559 H 51.7285 0.759417 -4.92985 0
M  V30 560 H 50.8825 3.09761 -5.21664 0
M  V30 561 H 49.6215 2.8132 -3.98385 0
M  V30 562 H 48.6265 0.99968 -5.40635 0
M  V30 563 H 49.8515 1.30816 -6.66381 0
M  V30 564 H 47.7975 3.31541 -5.66053 0
M  V30 565 H 47.7145 2.44149 -7.15491 0
M  V30 566 H 48.9825 3.6054 -6.91109 0
M  V30 567 N 53.2116 1.57565 -0.0334293 0
M  V30 568 C 54.4416 1.95996 0.653398 0
M  V30 569 C 54.8496 0.908749 1.65947 0
M  V30 570 O 54.1926 -0.117471 1.83324 0
M  V30 571 C 54.2546 3.30589 1.41249 0
M  V30 572 C 53.9186 4.53503 0.564263 0
M  V30 573 C 54.9156 5.19647 -0.16225 0
M  V30 574 C 52.6006 4.99801 0.500398 0
M  V30 575 C 54.5946 6.30412 -0.941255 0
M  V30 576 C 52.2816 6.10448 -0.282308 0
M  V30 577 C 53.2796 6.75612 -1.00184 0
M  V30 578 O 52.9676 7.84134 -1.77171 0
M  V30 579 H 52.6996 0.65027 0.184728 0
M  V30 580 H 55.2536 2.05199 -0.0907841 0
M  V30 581 H 53.4836 3.17888 2.20191 0
M  V30 582 H 55.1726 3.53892 1.98784 0
M  V30 583 H 55.9386 4.84846 -0.12227 0
M  V30 584 H 51.8176 4.48883 1.05002 0
M  V30 585 H 55.3616 6.81208 -1.50339 0
M  V30 586 H 51.2586 6.44686 -0.323989 0
M  V30 587 H 52.0266 8.00822 -1.69194 0
M  V30 588 N 54.6897 -0.239769 1.55765 0
M  V30 589 C 55.6197 -1.30052 1.9393 0
M  V30 590 C 56.6007 -1.49839 0.805132 0
M  V30 591 O 57.7857 -1.62328 1.06599 0
M  V30 592 C 54.9157 -2.65391 2.2402 0
M  V30 593 C 53.8697 -2.60289 3.39755 0
M  V30 594 C 53.1957 -3.99489 3.55405 0
M  V30 595 C 54.4957 -2.16654 4.75246 0
M  V30 596 H 56.1897 -0.983573 2.82783 0
M  V30 597 H 53.7357 -0.471701 1.36055 0
M  V30 598 H 55.6887 -3.3974 2.49308 0
M  V30 599 H 54.4127 -2.98736 1.32 0
M  V30 600 H 53.0717 -1.88398 3.14487 0
M  V30 601 H 52.7197 -4.30112 2.60793 0
M  V30 602 H 52.4197 -3.96962 4.33238 0
M  V30 603 H 53.9437 -4.75528 3.83022 0
M  V30 604 H 55.3577 -2.80737 4.99859 0
M  V30 605 H 53.7547 -2.25223 5.56232 0
M  V30 606 H 54.8247 -1.11835 4.71827 0
M  V30 607 N 56.1678 -1.49265 -0.50573 0
M  V30 608 C 57.4158 -1.582 -1.25766 0
M  V30 609 C 57.7368 -0.268482 -1.93143 0
M  V30 610 O 57.0068 0.711833 -1.8251 0
M  V30 611 H 55.5868 -0.582873 -0.467191 0
M  V30 612 H 58.2488 -1.85865 -0.586525 0
M  V30 613 H 57.3448 -2.37563 -2.02412 0
M  V30 614 N 57.6459 0.756429 -1.3826 0
M  V30 615 C 58.5779 1.87971 -1.31147 0
M  V30 616 C 59.5909 1.61248 -0.224239 0
M  V30 617 O 60.7799 1.71881 -0.481581 0
M  V30 618 C 57.8799 3.23545 -1.00857 0
M  V30 619 C 57.0529 3.77794 -2.20432 0
M  V30 620 C 56.1119 4.91877 -1.86931 0
M  V30 621 O 55.1379 5.06659 -2.59395 0
M  V30 622 N 56.3399 5.74643 -0.822568 0
M  V30 623 H 59.1049 1.94585 -2.2794 0
M  V30 624 H 56.6659 0.936234 -1.32084 0
M  V30 625 H 58.6579 3.97403 -0.765021 0
M  V30 626 H 57.2279 3.12335 -0.128687 0
M  V30 627 H 56.4479 2.95534 -2.6087 0
M  V30 628 H 57.7359 4.10771 -3.00241 0
M  V30 629 H 57.1339 5.65266 -0.221575 0
M  V30 630 H 55.6909 6.48661 -0.638899 0
M  V30 631 N 59.124 1.23083 0.984299 0
M  V30 632 C 60.401 0.9689 1.69917 0
M  V30 633 C 60.781 -0.513604 2.04757 0
M  V30 634 O 60.129 -1.48383 1.73767 0
M  V30 635 C 60.339 1.87518 2.94343 0
M  V30 636 C 61.687 2.13636 3.6694 0
M  V30 637 O 62.711 1.85036 3.04368 0
M  V30 638 O 61.57 2.62119 4.79537 0
M  V30 639 H 58.664 0.365095 0.742048 0
M  V30 640 H 61.21 1.34107 1.03987 0
M  V30 641 H 59.982 2.87756 2.65164 0
M  V30 642 H 59.605 1.50514 3.6801 0
M  V30 643 N 60.6021 -1.18246 1.0419 0
M  V30 644 C 61.8321 -1.91916 0.764961 0
M  V30 645 C 62.2401 -1.76485 -0.681898 0
M  V30 646 O 61.5831 -1.09275 -1.47664 0
M  V30 647 C 61.6451 -3.4373 1.05309 0
M  V30 648 C 61.3091 -3.8294 2.4941 0
M  V30 649 C 62.3061 -3.86621 3.47592 0
M  V30 650 C 59.9911 -4.142 2.84155 0
M  V30 651 C 61.9851 -4.21013 4.78568 0
M  V30 652 C 59.6721 -4.48262 4.15337 0
M  V30 653 C 60.6701 -4.51645 5.12353 0
M  V30 654 O 60.3581 -4.84911 6.41183 0
M  V30 655 H 60.0901 -0.61606 0.278292 0
M  V30 656 H 62.6441 -1.50947 1.39299 0
M  V30 657 H 60.8741 -3.84946 0.367933 0
M  V30 658 H 62.5631 -3.9865 0.763752 0
M  V30 659 H 63.3291 -3.62607 3.22089 0
M  V30 660 H 59.2081 -4.10743 2.09311 0
M  V30 661 H 62.7521 -4.23568 5.54289 0
M  V30 662 H 58.6491 -4.71737 4.40607 0
M  V30 663 H 59.4171 -5.02809 6.45852 0
M  V30 664 N 62.0802 -0.821533 -1.34494 0
M  V30 665 C 62.9902 -0.244355 -2.33324 0
M  V30 666 C 64.0062 0.620527 -1.62559 0
M  V30 667 O 65.1822 0.528754 -1.94335 0
M  V30 668 C 62.2472 0.585368 -3.41723 0
M  V30 669 C 61.3082 -0.301752 -4.28238 0
M  V30 670 C 60.5412 0.488466 -5.3146 0
M  V30 671 O 60.7642 1.72186 -5.4379 0
M  V30 672 O 59.6982 -0.12848 -6.01763 0
M  V30 673 H 63.5242 -1.06231 -2.84515 0
M  V30 674 H 61.1092 -0.583645 -1.37528 0
M  V30 675 H 62.9912 1.05747 -4.07916 0
M  V30 676 H 61.6662 1.38068 -2.92778 0
M  V30 677 H 60.5732 -0.821315 -3.64973 0
M  V30 678 H 61.9062 -1.06138 -4.8062 0
M  V30 679 N 63.5583 1.46682 -0.576371 0
M  V30 680 C 64.4903 2.28341 0.198231 0
M  V30 681 C 65.5033 1.38141 0.861453 0
M  V30 682 O 66.6923 1.62797 0.732082 0
M  V30 683 C 63.7923 3.12986 1.29972 0
M  V30 684 C 62.9653 4.31271 0.729639 0
M  V30 685 C 62.0243 4.97363 1.71803 0
M  V30 686 O 61.0503 5.55156 1.25658 0
M  V30 687 N 62.2523 4.93796 3.05198 0
M  V30 688 H 65.0173 2.9546 -0.502324 0
M  V30 689 H 62.5783 1.56525 -0.413715 0
M  V30 690 H 64.5703 3.54066 1.96008 0
M  V30 691 H 63.1403 2.47984 1.90323 0
M  V30 692 H 62.3603 3.94052 -0.108012 0
M  V30 693 H 63.6483 5.07739 0.328438 0
M  V30 694 H 63.0463 4.48077 3.45317 0
M  V30 695 H 61.6033 5.38837 3.6674 0
M  V30 696 N 65.0364 0.313813 1.54444 0
M  V30 697 C 65.9664 -0.549454 2.26943 0
M  V30 698 C 66.9474 -1.12741 1.27372 0
M  V30 699 O 68.1324 -1.15436 1.56167 0
M  V30 700 C 65.2624 -1.71523 3.01989 0
M  V30 701 C 64.2164 -1.26703 4.08816 0
M  V30 702 C 63.5424 -2.51898 4.71647 0
M  V30 703 C 64.8424 -0.388962 5.2085 0
M  V30 704 H 66.5364 0.0552661 2.99349 0
M  V30 705 H 64.0824 0.0280207 1.43973 0
M  V30 706 H 66.0354 -2.32535 3.51433 0
M  V30 707 H 64.7594 -2.34639 2.27183 0
M  V30 708 H 63.4184 -0.679896 3.6024 0
M  V30 709 H 63.0664 -3.13356 3.93468 0
M  V30 710 H 62.7664 -2.22605 5.43802 0
M  V30 711 H 64.2904 -3.1369 5.23861 0
M  V30 712 H 65.7044 -0.905107 5.6611 0
M  V30 713 H 64.1014 -0.18924 5.99802 0
M  V30 714 H 65.1714 0.582699 4.81386 0
M  V30 715 N 66.5145 -1.57545 0.0417849 0
M  V30 716 C 67.9305 -1.56467 -0.314704 0
M  V30 717 C 68.1305 -1.04859 -1.72066 0
M  V30 718 O 67.1865 -0.700983 -2.42575 0
M  V30 719 C 68.4995 -3.00317 -0.15174 0
M  V30 720 C 70.0475 -3.12201 -0.223553 0
M  V30 721 C 70.5225 -4.57913 -0.0892295 0
M  V30 722 N 72.0135 -4.6297 -0.145808 0
M  V30 723 C 72.7485 -5.73362 -0.0658459 0
M  V30 724 N 72.2445 -6.92769 0.0659282 0
M  V30 725 N 74.0375 -5.6197 -0.12075 0
M  V30 726 H 66.1885 -1.89416 0.961014 0
M  V30 727 H 68.4515 -0.871862 0.372237 0
M  V30 728 H 68.1575 -3.42073 0.817254 0
M  V30 729 H 68.0315 -3.65892 -0.916692 0
M  V30 730 H 70.4185 -2.70349 -1.18301 0
M  V30 731 H 70.4995 -2.49323 0.571994 0
M  V30 732 H 70.1435 -5.00448 0.866867 0
M  V30 733 H 70.0735 -5.18786 -0.903802 0
M  V30 734 H 72.5645 -3.7709 -0.247286 0
M  V30 735 H 72.8775 -7.72707 0.119905 0
M  V30 736 H 71.2225 -6.94927 0.100885 0
M  V30 737 H 74.4135 -4.67572 -0.222187 0
M  V30 738 H 74.5865 -6.47977 -0.0549735 0
M  V30 739 N 67.9926 0.231505 -1.5589 0
M  V30 740 C 69.2386 0.95877 -1.78705 0
M  V30 741 C 69.5716 1.8438 -0.609725 0
M  V30 742 O 68.8466 1.90521 0.391426 0
M  V30 743 C 69.1296 1.8062 -3.11526 0
M  V30 744 C 68.9826 0.948328 -4.39689 0
M  V30 745 C 70.3016 2.78585 -3.40703 0
M  V30 746 H 67.4206 0.347129 -0.650131 0
M  V30 747 H 70.0626 0.228259 -1.88624 0
M  V30 748 H 68.2126 2.42902 -3.03201 0
M  V30 749 H 69.8846 0.343016 -4.60023 0
M  V30 750 H 68.1276 0.253314 -4.3306 0
M  V30 751 H 68.7986 1.57543 -5.29041 0
M  V30 752 H 71.2746 2.26439 -3.49091 0
M  V30 753 H 70.1506 3.34988 -4.34826 0
M  V30 754 H 70.4116 3.55825 -2.62375 0
M  V30 755 N 69.4707 1.49531 0.497807 0
M  V30 756 C 70.8867 1.36365 0.829266 0
M  V30 757 C 71.0867 0.399184 1.97506 0
M  V30 758 O 70.1427 -0.167977 2.51941 0
M  V30 759 C 71.4557 2.77153 1.16647 0
M  V30 760 C 73.0037 2.85877 1.27449 0
M  V30 761 C 73.4787 4.2744 1.64497 0
M  V30 762 N 74.9697 4.30265 1.7154 0
M  V30 763 C 75.7047 5.3677 2.01656 0
M  V30 764 N 75.2007 6.53516 2.29976 0
M  V30 765 N 76.9937 5.24189 2.02934 0
M  V30 766 H 69.1447 2.10831 -0.257703 0
M  V30 767 H 71.4077 0.946534 -0.0527091 0
M  V30 768 H 71.1137 3.49442 0.397872 0
M  V30 769 H 70.9877 3.12722 2.10915 0
M  V30 770 H 73.3747 2.13824 2.0338 0
M  V30 771 H 73.4557 2.53887 0.312244 0
M  V30 772 H 73.0997 5.00021 0.891151 0
M  V30 773 H 73.0297 4.56896 2.61827 0
M  V30 774 H 75.5207 3.4607 1.51802 0
M  V30 775 H 75.8337 7.30506 2.52153 0
M  V30 776 H 74.1787 6.56737 2.27425 0
M  V30 777 H 77.3697 4.31988 1.80289 0
M  V30 778 H 77.5427 6.07286 2.26071 0
M  V30 779 N 70.9488 -0.749086 1.3866 0
M  V30 780 C 72.1888 -1.52112 1.36534 0
M  V30 781 C 72.5528 -1.91951 -0.0432316 0
M  V30 782 O 73.7538 -2.68132 -0.189396 0
M  V30 783 C 72.0248 -2.73704 2.29828 0
M  V30 784 S 73.5838 -3.63519 2.45763 0
M  V30 785 H 70.4018 -0.520482 0.484375 0
M  V30 786 H 73.0038 -0.878963 1.74627 0
M  V30 787 H 71.7078 -2.42552 3.31054 0
M  V30 788 H 71.2388 -3.4286 1.929 0
M  V30 789 H 73.2538 -4.66712 1.68505 0
M  V30 790 N 72.4269 -1.23603 -0.977757 0
M  V30 791 C 73.3569 -1.04401 -2.0886 0
M  V30 792 C 74.3379 0.0399052 -1.70053 0
M  V30 793 O 75.5229 -0.125246 -1.93796 0
M  V30 794 C 72.6529 -0.637269 -3.41403 0
M  V30 795 C 71.6069 -1.66883 -3.94124 0
M  V30 796 C 70.9329 -1.11745 -5.22893 0
M  V30 797 C 72.2329 -3.06247 -4.23096 0
M  V30 798 H 73.9269 -1.97316 -2.25182 0
M  V30 799 H 71.4729 -0.950096 -1.08209 0
M  V30 800 H 73.4259 -0.48998 -4.18542 0
M  V30 801 H 72.1499 0.327557 -3.24953 0
M  V30 802 H 70.8089 -1.80416 -3.19133 0
M  V30 803 H 70.4569 -0.143527 -5.02795 0
M  V30 804 H 70.1569 -1.80672 -5.59134 0
M  V30 805 H 71.6809 -0.982067 -6.02651 0
M  V30 806 H 73.0949 -2.96001 -4.90975 0
M  V30 807 H 71.4919 -3.72436 -4.70544 0
M  V30 808 H 72.5619 -3.55041 -3.30263 0
M  V30 809 N 73.905 1.17692 -1.04816 0
M  V30 810 C 74.837 2.21103 -0.603822 0
M  V30 811 C 75.85 1.59411 0.33046 0
M  V30 812 O 77.039 1.7807 0.12379 0
M  V30 813 C 74.139 3.38623 0.136898 0
M  V30 814 C 73.312 4.29888 -0.807137 0
M  V30 815 C 72.371 5.26088 -0.10836 0
M  V30 816 O 71.397 5.64353 -0.741232 0
M  V30 817 N 72.599 5.68882 1.15558 0
M  V30 818 H 75.364 2.59848 -1.49329 0
M  V30 819 H 72.925 1.32553 -0.929587 0
M  V30 820 H 74.917 4.00009 0.614401 0
M  V30 821 H 73.487 2.98508 0.927993 0
M  V30 822 H 72.707 3.65993 -1.46434 0
M  V30 823 H 73.995 4.87759 -1.44807 0
M  V30 824 H 73.393 5.39861 1.69015 0
M  V30 825 H 71.95 6.32429 1.57722 0
M  V30 826 N 75.3831 0.828654 1.34056 0
M  V30 827 C 76.6081 0.431637 2.02859 0
M  V30 828 C 77.0331 -0.956339 1.61975 0
M  V30 829 O 76.3911 -1.62338 0.807228 0
M  V30 830 C 76.4391 0.548323 3.56407 0
M  V30 831 O 75.5431 -0.429556 4.10157 0
M  V30 832 H 74.8841 0.176886 0.640006 0
M  V30 833 H 77.4141 1.12066 1.71179 0
M  V30 834 H 77.4241 0.426196 4.05768 0
M  V30 835 H 76.0991 1.5606 3.8551 0
M  V30 836 H 74.6761 -0.265836 3.71951 0
M  V30 837 N 76.8612 -1.46375 0.584142 0
M  V30 838 C 78.1092 -2.01978 0.0701287 0
M  V30 839 C 78.4302 -1.4579 -1.295 0
M  V30 840 O 77.7002 -0.64314 -1.85042 0
M  V30 841 H 76.2802 -0.746648 0.0229345 0
M  V30 842 H 78.9422 -1.79461 0.760245 0
M  V30 843 H 78.0382 -3.121 0.0022064 0
M  V30 844 N 78.3393 -0.321999 -1.54275 0
M  V30 845 C 79.5673 0.283052 -2.04955 0
M  V30 846 C 79.9823 1.45904 -1.19823 0
M  V30 847 O 79.3393 1.81063 -0.228545 0
M  V30 848 C 79.3903 0.719028 -3.54277 0
M  V30 849 O 79.1113 -0.410175 -4.36176 0
M  V30 850 C 80.6123 1.38705 -4.21041 0
M  V30 851 H 77.8323 0.0584616 -0.668448 0
M  V30 852 H 80.3763 -0.467734 -1.99079 0
M  V30 853 H 78.5313 1.41979 -3.60445 0
M  V30 854 H 78.9453 -0.0669416 -5.24457 0
M  V30 855 H 80.4193 1.64306 -5.2698 0
M  V30 856 H 80.8963 2.33385 -3.72059 0
M  V30 857 H 81.5023 0.728906 -4.19007 0
M  V30 858 N 79.8174 1.5752 -0.0501392 0
M  V30 859 C 80.7474 2.14502 0.922566 0
M  V30 860 C 81.7284 1.06642 1.3252 0
M  V30 861 O 82.9134 1.34577 1.4001 0
M  V30 862 C 80.0434 2.68916 2.19776 0
M  V30 863 C 78.9974 3.8175 1.93523 0
M  V30 864 C 78.3234 4.22677 3.27487 0
M  V30 865 C 79.6234 5.06932 1.25765 0
M  V30 866 H 81.3174 2.9603 0.447952 0
M  V30 867 H 78.8634 1.42401 0.214024 0
M  V30 868 H 80.8164 3.07419 2.88222 0
M  V30 869 H 79.5404 1.84578 2.69441 0
M  V30 870 H 78.1994 3.43718 1.27489 0
M  V30 871 H 77.8474 3.35291 3.74952 0
M  V30 872 H 77.5474 4.98725 3.1072 0
M  V30 873 H 79.0714 4.63779 3.97166 0
M  V30 874 H 80.4854 5.42888 1.84244 0
M  V30 875 H 78.8824 5.88116 1.19328 0
M  V30 876 H 79.9524 4.84337 0.233536 0
M  V30 877 N 81.2955 -0.223234 1.56011 0
M  V30 878 C 82.5425 -0.947875 1.78946 0
M  V30 879 C 82.8705 -1.844 0.618608 0
M  V30 880 O 82.1255 -1.91629 -0.397093 0
M  V30 881 C 82.4245 -1.81948 3.0762 0
M  V30 882 C 82.0905 -1.07672 4.37856 0
M  V30 883 C 80.7525 -0.871544 4.73242 0
M  V30 884 C 83.1045 -0.552081 5.18268 0
M  V30 885 C 80.4325 -0.129791 5.86556 0
M  V30 886 C 82.7845 0.17632 6.32354 0
M  V30 887 C 81.4485 0.39277 6.66343 0
M  V30 888 H 80.7185 -0.346852 0.654809 0
M  V30 889 H 83.3655 -0.216171 1.90276 0
M  V30 890 H 81.6705 -2.61899 2.91404 0
M  V30 891 H 83.3675 -2.38227 3.22566 0
M  V30 892 H 79.9575 -1.24662 4.1007 0
M  V30 893 H 84.1415 -0.698076 4.91366 0
M  V30 894 H 79.3975 0.048153 6.11381 0
M  V30 895 H 83.5715 0.590367 6.93893 0
M  V30 896 H 81.1985 0.969466 7.53993 0
M  V30 897 N 82.7736 -1.49793 -0.48987 0
M  V30 898 C 84.1896 -1.36803 -0.822022 0
M  V30 899 C 84.3896 -0.409652 -1.97292 0
M  V30 900 O 83.4456 0.154614 -2.52026 0
M  V30 901 C 84.7586 -2.77768 -1.15175 0
M  V30 902 C 86.3066 -2.86549 -1.25931 0
M  V30 903 C 86.7816 -4.28306 -1.62228 0
M  V30 904 N 88.2726 -4.31169 -1.69256 0
M  V30 905 C 89.0076 -5.37832 -1.98807 0
M  V30 906 N 88.5036 -6.54726 -2.26507 0
M  V30 907 N 90.2966 -5.25258 -2.00152 0
M  V30 908 H 82.4476 -2.10691 0.268881 0
M  V30 909 H 84.7106 -0.946241 0.057728 0
M  V30 910 H 84.4166 -3.49648 -0.379335 0
M  V30 911 H 84.2906 -3.13836 -2.09253 0
M  V30 912 H 86.6776 -2.14899 -2.02243 0
M  V30 913 H 86.7586 -2.54049 -0.298776 0
M  V30 914 H 86.4026 -5.00486 -0.864622 0
M  V30 915 H 86.3326 -4.58279 -2.594 0
M  V30 916 H 88.8236 -3.4687 -1.49965 0
M  V30 917 H 89.1366 -7.31833 -2.48276 0
M  V30 918 H 87.4816 -6.57933 -2.23939 0
M  V30 919 H 90.6726 -4.32938 -1.77996 0
M  V30 920 H 90.8456 -6.08476 -2.22848 0
M  V30 921 N 84.2517 0.741722 -1.39055 0
M  V30 922 C 85.5287 1.49252 -1.26425 0
M  V30 923 C 85.9087 2.10705 0.129144 0
M  V30 924 O 85.2567 1.98045 1.13976 0
M  V30 925 C 85.4667 2.54934 -2.38347 0
M  V30 926 C 86.8147 3.21506 -2.77343 0
M  V30 927 O 87.8387 2.65245 -2.37747 0
M  V30 928 O 86.6977 4.23294 -3.45665 0
M  V30 929 H 83.7917 0.662451 -0.495064 0
M  V30 930 H 86.3377 0.776121 -1.50912 0
M  V30 931 H 85.1097 2.07857 -3.31529 0
M  V30 932 H 84.7327 3.34141 -2.15489 0
M  V30 933 N 85.7298 1.2412 0.971189 0
M  V30 934 C 86.6398 1.04747 2.09917 0
M  V30 935 C 87.6558 -0.0107162 1.73997 0
M  V30 936 O 88.8318 0.186714 2.00533 0
M  V30 937 C 85.8968 0.650828 3.40537 0
M  V30 938 C 84.9578 1.7851 3.90426 0
M  V30 939 C 84.1908 1.40729 5.14812 0
M  V30 940 O 84.4138 0.29557 5.69634 0
M  V30 941 O 83.3478 2.23168 5.58999 0
M  V30 942 H 87.1738 1.99304 2.29154 0
M  V30 943 H 84.7588 1.02908 1.08307 0
M  V30 944 H 86.6408 0.440992 4.19086 0
M  V30 945 H 85.3158 -0.265649 3.22608 0
M  V30 946 H 84.2228 2.04966 3.12953 0
M  V30 947 H 85.5558 2.68023 4.12825 0
M  V30 948 N 87.2079 -1.17134 1.05439 0
M  V30 949 C 88.1709 -2.19439 0.661764 0
M  V30 950 C 89.1709 -1.58199 -0.288042 0
M  V30 951 O 90.3609 -1.74053 -0.0715803 0
M  V30 952 C 87.4929 -3.40889 -0.0276209 0
M  V30 953 H 88.6859 -2.55688 1.56728 0
M  V30 954 H 86.2389 -1.31259 0.848567 0
M  V30 955 H 86.9739 -3.10187 -0.94629 0
M  V30 956 H 86.7589 -3.86586 0.655238 0
M  V30 957 H 88.2489 -4.16603 -0.288342 0
M  V30 958 N 88.686 -0.835752 -1.33615 0
M  V30 959 C 89.933 -0.429959 -1.97883 0
M  V30 960 C 90.261 1.01006 -1.66217 0
M  V30 961 O 89.516 1.72047 -0.93265 0
M  V30 962 C 89.815 -0.593925 -3.52431 0
M  V30 963 C 89.481 -2.00158 -4.04039 0
M  V30 964 C 88.143 -2.38662 -4.17844 0
M  V30 965 C 90.495 -2.92117 -4.31644 0
M  V30 966 C 87.823 -3.68435 -4.56588 0
M  V30 967 C 90.175 -4.21368 -4.71838 0
M  V30 968 C 88.839 -4.59833 -4.83849 0
M  V30 969 H 88.109 -0.157333 -0.724104 0
M  V30 970 H 90.756 -1.06217 -1.59343 0
M  V30 971 H 89.061 0.121619 -3.91611 0
M  V30 972 H 90.758 -0.260282 -4.00154 0
M  V30 973 H 87.348 -1.69252 -3.93766 0
M  V30 974 H 91.532 -2.63608 -4.20505 0
M  V30 975 H 86.788 -3.98046 -4.64079 0
M  V30 976 H 90.962 -4.92703 -4.92155 0
M  V30 977 H 88.589 -5.60438 -5.13627 0
M  V30 978 N 90.1641 1.46063 -0.591896 0
M  V30 979 C 91.5751 1.85944 -0.167822 0
M  V30 980 C 91.9261 1.49429 1.27143 0
M  V30 981 O 91.0511 0.913515 1.96173 0
M  V30 982 C 91.6461 3.37489 -0.297794 0
M  V30 983 C 90.2051 3.76332 0.0714732 0
M  V30 984 C 89.3521 2.7006 -0.629509 0
M  V30 985 H 92.3031 1.37087 -0.799555 0
M  V30 986 H 92.3241 3.77532 0.474349 0
M  V30 987 H 91.8361 3.64034 -1.3454 0
M  V30 988 H 89.9371 3.55405 1.11886 0
M  V30 989 H 90.0501 4.78088 -0.311245 0
M  V30 990 H 88.4141 2.54607 -0.0687867 0
M  V30 991 H 89.1971 2.99444 -1.67894 0
M  V30 992 N 91.6422 0.330177 1.54103 0
M  V30 993 C 93.0532 -0.15652 1.86043 0
M  V30 994 C 93.4042 -1.51086 1.2517 0
M  V30 995 O 92.5292 -2.09023 0.560217 0
M  V30 996 C 93.1242 -0.290784 3.3755 0
M  V30 997 C 91.6832 -0.721705 3.69416 0
M  V30 998 C 90.8302 0.152622 2.7688 0
M  V30 999 H 93.7812 0.550237 1.48856 0
M  V30 1000 H 93.8022 -1.12058 3.63625 0
M  V30 1001 H 93.3142 0.695068 3.81825 0
M  V30 1002 H 91.4152 -1.71706 3.30678 0
M  V30 1003 H 91.5282 -0.520869 4.7626 0
M  V30 1004 H 89.8922 -0.372894 2.51956 0
M  V30 1005 H 90.6752 1.13536 3.23982 0
M  V30 1006 N 93.1203 -1.57491 0.0584922 0
M  V30 1007 C 94.3663 -1.93264 -0.614558 0
M  V30 1008 C 94.6993 -0.937717 -1.7006 0
M  V30 1009 O 93.9743 0.0351652 -1.94468 0
M  V30 1010 C 94.2573 -3.3938 -1.20386 0
M  V30 1011 C 94.1103 -4.49625 -0.125375 0
M  V30 1012 C 95.4293 -3.86039 -2.11334 0
M  V30 1013 H 92.5483 -0.702791 -0.221933 0
M  V30 1014 H 95.1903 -1.8961 0.12175 0
M  V30 1015 H 93.3403 -3.42626 -1.83139 0
M  V30 1016 H 95.0123 -4.58506 0.506971 0
M  V30 1017 H 93.2553 -4.30354 0.545672 0
M  V30 1018 H 93.9263 -5.48967 -0.577861 0
M  V30 1019 H 96.4023 -3.84716 -1.58534 0
M  V30 1020 H 95.2783 -4.88914 -2.49507 0
M  V30 1021 H 95.5393 -3.23215 -3.01636 0
M  V30 1022 N 94.5984 0.214957 -1.56127 0
M  V30 1023 C 96.0094 0.781386 -1.69562 0
M  V30 1024 C 96.3604 1.84707 -0.66165 0
M  V30 1025 O 95.4854 2.156 0.185927 0
M  V30 1026 C 96.0804 1.42411 -3.07416 0
M  V30 1027 C 94.6394 1.93786 -3.22683 0
M  V30 1028 C 93.7864 0.800438 -2.65496 0
M  V30 1029 H 96.7374 -0.00980633 -1.58697 0
M  V30 1030 H 96.7584 2.29309 -3.0364 0
M  V30 1031 H 96.2704 0.64826 -3.82648 0
M  V30 1032 H 94.3714 2.74152 -2.52332 0
M  V30 1033 H 94.4844 2.1133 -4.29973 0
M  V30 1034 H 92.8484 1.2095 -2.2415 0
M  V30 1035 H 93.6314 0.0371471 -3.4328 0
M  V30 1036 N 96.0765 1.50051 0.48192 0
M  V30 1037 C 97.0085 1.64263 1.59844 0
M  V30 1038 C 98.0215 0.52451 1.54119 0
M  V30 1039 O 99.2105 0.797293 1.59704 0
M  V30 1040 C 96.3105 1.60102 2.98698 0
M  V30 1041 C 95.4835 2.87767 3.29407 0
M  V30 1042 C 94.5425 2.76397 4.47762 0
M  V30 1043 O 93.5685 3.50348 4.48603 0
M  V30 1044 N 94.7705 1.89222 5.48794 0
M  V30 1045 H 97.5355 2.60566 1.48073 0
M  V30 1046 H 95.0965 1.47379 0.670149 0
M  V30 1047 H 97.0885 1.50123 3.75826 0
M  V30 1048 H 95.6585 0.715798 3.04294 0
M  V30 1049 H 94.8785 3.11954 2.40994 0
M  V30 1050 H 96.1665 3.72365 3.4673 0
M  V30 1051 H 95.5645 1.28434 5.50928 0
M  V30 1052 H 94.1215 1.85154 6.24949 0
M  V30 1053 N 97.5546 -0.734337 1.39446 0
M  V30 1054 C 98.7796 -1.52866 1.40167 0
M  V30 1055 C 99.2046 -1.881 -0.00171513 0
M  V30 1056 O 98.5626 -1.51957 -0.988879 0
M  V30 1057 C 98.6106 -2.79235 2.28167 0
M  V30 1058 O 97.7146 -3.75185 1.71201 0
M  V30 1059 H 97.0556 -0.461618 0.477289 0
M  V30 1060 H 99.5856 -0.905949 1.8345 0
M  V30 1061 H 99.5956 -3.27963 2.42702 0
M  V30 1062 H 98.2706 -2.52923 3.30156 0
M  V30 1063 H 96.8476 -3.33958 1.65912 0
M  V30 1064 N 99.0327 -1.24633 -0.964593 0
M  V30 1065 C 99.9627 -1.06611 -2.07741 0
M  V30 1066 C 100.944 0.0218666 -1.70086 0
M  V30 1067 O 102.129 -0.145793 -1.93652 0
M  V30 1068 C 99.2587 -0.673444 -3.40708 0
M  V30 1069 C 98.2127 -1.71054 -3.92332 0
M  V30 1070 C 97.5387 -1.17285 -5.21678 0
M  V30 1071 C 98.8387 -3.10718 -4.19824 0
M  V30 1072 H 100.533 -1.99693 -2.23076 0
M  V30 1073 H 98.0787 -0.96152 -1.07195 0
M  V30 1074 H 100.032 -0.534345 -4.17998 0
M  V30 1075 H 98.7557 0.293073 -3.25282 0
M  V30 1076 H 97.4147 -1.83791 -3.17201 0
M  V30 1077 H 97.0627 -0.196847 -5.02615 0
M  V30 1078 H 96.7627 -1.86592 -5.57187 0
M  V30 1079 H 98.2867 -1.04593 -6.01575 0
M  V30 1080 H 99.7007 -3.01192 -4.87808 0
M  V30 1081 H 98.0977 -3.77406 -4.66567 0
M  V30 1082 H 99.1677 -3.58524 -3.26479 0
M  V30 1083 N 100.511 1.16574 -1.06058 0
M  V30 1084 C 101.759 1.86677 -0.77434 0
M  V30 1085 C 102.08 1.81959 0.701147 0
M  V30 1086 O 101.35 1.2515 1.50713 0
M  V30 1087 H 99.9298 0.691134 -0.283449 0
M  V30 1088 H 102.592 1.41378 -1.34158 0
M  V30 1089 H 101.688 2.92181 -1.09711 0
M  V30 1090 N 101.989 0.842826 1.3317 0
M  V30 1091 C 103.219 0.453397 2.01564 0
M  V30 1092 C 103.627 -0.951147 1.63554 0
M  V30 1093 O 102.97 -1.63021 0.846746 0
M  V30 1094 C 103.032 0.499013 3.5602 0
M  V30 1095 C 102.696 1.86037 4.1742 0
M  V30 1096 C 103.693 2.82416 4.36506 0
M  V30 1097 C 101.378 2.15428 4.53757 0
M  V30 1098 C 103.372 4.06346 4.91082 0
M  V30 1099 C 101.059 3.39615 5.0804 0
M  V30 1100 C 102.057 4.3489 5.26649 0
M  V30 1101 O 101.745 5.5688 5.79776 0
M  V30 1102 H 101.477 0.177871 0.652179 0
M  V30 1103 H 104.031 1.13808 1.70988 0
M  V30 1104 H 102.261 -0.242467 3.85939 0
M  V30 1105 H 103.95 0.126852 4.05702 0
M  V30 1106 H 104.716 2.6101 4.08777 0
M  V30 1107 H 100.595 1.42061 4.38565 0
M  V30 1108 H 104.139 4.80722 5.05522 0
M  V30 1109 H 100.036 3.60876 5.352 0
M  V30 1110 H 100.804 5.58674 5.98185 0
M  V30 1111 N 103.467 -1.45747 0.599634 0
M  V30 1112 C 104.414 -2.30467 -0.123849 0
M  V30 1113 C 105.384 -1.41632 -0.86774 0
M  V30 1114 O 106.569 -1.70568 -0.855056 0
M  V30 1115 C 103.709 -3.26402 -1.12051 0
M  V30 1116 C 102.822 -4.3034 -0.37832 0
M  V30 1117 C 101.957 -5.13389 -1.364 0
M  V30 1118 C 100.996 -6.09061 -0.609171 0
M  V30 1119 N 100.133 -6.84918 -1.54374 0
M  V30 1120 H 104.973 -2.91802 0.604627 0
M  V30 1121 H 102.51 -1.43797 0.309972 0
M  V30 1122 H 104.468 -3.80482 -1.7114 0
M  V30 1123 H 103.098 -2.66839 -1.8165 0
M  V30 1124 H 102.15 -3.78984 0.327929 0
M  V30 1125 H 103.462 -4.98354 0.210997 0
M  V30 1126 H 102.616 -5.7183 -2.02719 0
M  V30 1127 H 101.355 -4.45376 -1.98725 0
M  V30 1128 H 100.36 -5.49758 0.0676979 0
M  V30 1129 H 101.585 -6.79099 0.00891991 0
M  V30 1130 H 99.531 -6.19601 -2.15478 0
M  V30 1131 H 99.448 -7.49254 -1.00766 0
M  V30 1132 H 100.716 -7.47906 -2.19676 0
M  V30 1133 N 104.945 -0.338344 -1.53925 0
M  V30 1134 C 106.222 0.314774 -1.93051 0
M  V30 1135 C 106.602 1.68669 -1.26941 0
M  V30 1136 O 105.95 2.24636 -0.418445 0
M  V30 1137 C 106.16 0.392249 -3.46789 0
M  V30 1138 C 107.508 0.645554 -4.19664 0
M  V30 1139 O 108.532 0.474575 -3.53024 0
M  V30 1140 O 107.391 0.976408 -5.37707 0
M  V30 1141 H 104.485 0.182598 -0.80659 0
M  V30 1142 H 107.031 -0.389141 -1.65178 0
M  V30 1143 H 105.803 -0.570702 -3.87116 0
M  V30 1144 H 105.426 1.14316 -3.80812 0
M  V30 1145 N 106.423 1.57458 -0.0668435 0
M  V30 1146 C 107.353 2.15468 0.899764 0
M  V30 1147 C 108.334 1.08042 1.31381 0
M  V30 1148 O 109.519 1.36054 1.38574 0
M  V30 1149 C 106.649 2.71232 2.16911 0
M  V30 1150 C 105.603 3.83781 1.89463 0
M  V30 1151 C 104.929 4.26127 3.22986 0
M  V30 1152 C 106.229 5.08238 1.20381 0
M  V30 1153 H 107.923 2.96488 0.416529 0
M  V30 1154 H 105.469 1.4262 0.198908 0
M  V30 1155 H 107.422 3.10458 2.84945 0
M  V30 1156 H 106.146 1.87426 2.67468 0
M  V30 1157 H 104.805 3.45051 1.23836 0
M  V30 1158 H 104.453 3.39249 3.71374 0
M  V30 1159 H 104.153 5.01993 3.05413 0
M  V30 1160 H 105.677 4.67966 3.92225 0
M  V30 1161 H 107.091 5.44811 1.78475 0
M  V30 1162 H 105.488 5.89349 1.13083 0
M  V30 1163 H 106.558 4.84558 0.182153 0
M  V30 1164 N 107.901 -0.206675 1.56239 0
M  V30 1165 C 109.149 -0.927007 1.79586 0
M  V30 1166 C 109.47 -1.8427 0.637929 0
M  V30 1167 O 108.74 -1.92849 -0.344398 0
M  V30 1168 H 107.32 -0.345292 0.662407 0
M  V30 1169 H 109.982 -0.21496 1.93711 0
M  V30 1170 H 109.078 -1.52501 2.72305 0
M  V30 1171 N 109.379 -1.50304 -0.473955 0
M  V30 1172 C 110.79 -1.54042 -1.0549 0
M  V30 1173 C 111.141 -0.342248 -1.93192 0
M  V30 1174 O 110.266 0.545157 -2.09421 0
M  V30 1175 C 110.861 -2.79152 -1.91989 0
M  V30 1176 C 109.42 -2.8558 -2.45196 0
M  V30 1177 C 108.567 -2.48295 -1.2347 0
M  V30 1178 H 111.518 -1.5661 -0.256693 0
M  V30 1179 H 111.539 -2.60845 -2.7702 0
M  V30 1180 H 111.051 -3.66339 -1.28131 0
M  V30 1181 H 109.152 -2.02738 -3.12615 0
M  V30 1182 H 109.265 -3.88403 -2.80499 0
M  V30 1183 H 107.629 -2.00669 -1.56856 0
M  V30 1184 H 108.412 -3.37787 -0.612789 0
M  V30 1185 N 110.857 0.726932 -1.39834 0
M  V30 1186 C 111.805 1.86235 -1.39353 0
M  V30 1187 C 112.799 1.67144 -0.275555 0
M  V30 1188 O 114.005 1.74387 -0.44601 0
M  V30 1189 H 110.38 0.613174 -0.43534 0
M  V30 1190 H 112.351 1.83756 -2.35109 0
M  V30 1191 C 111.1 3.23995 -1.26185 0
M  V30 1192 H 110.423 3.39285 -2.11484 0
M  V30 1193 H 111.863 4.03609 -1.29907 0
M  V30 1194 C 110.322 3.36888 0.0290018 0
M  V30 1195 O 110.852 3.89152 0.99619 0
M  V30 1196 N 109.058 2.90446 0.0947437 0
M  V30 1197 H 108.605 2.48102 -0.693035 0
M  V30 1198 H 108.563 2.99451 0.957932 0
M  V30 1199 N 112.336 1.25143 0.95797 0
M  V30 1200 C 113.561 1.12521 1.74223 0
M  V30 1201 C 113.986 -0.317402 1.85403 0
M  V30 1202 O 113.344 -1.2299 1.33204 0
M  V30 1203 C 113.392 1.78062 3.1357 0
M  V30 1204 O 112.496 1.058 3.98598 0
M  V30 1205 H 111.837 0.39304 0.535178 0
M  V30 1206 H 114.367 1.65641 1.201 0
M  V30 1207 H 114.377 1.84213 3.64046 0
M  V30 1208 H 113.052 2.83021 3.04749 0
M  V30 1209 H 111.629 1.07506 3.57067 0
M  V30 1210 N 113.814 -1.1601 1.06675 0
M  V30 1211 C 115.039 -1.91068 0.806706 0
M  V30 1212 C 115.464 -1.77112 -0.633485 0
M  V30 1213 O 114.822 -1.09908 -1.44187 0
M  V30 1214 C 114.87 -3.39655 1.21106 0
M  V30 1215 O 113.974 -4.10893 0.352189 0
M  V30 1216 H 113.315 -0.595125 0.294486 0
M  V30 1217 H 115.845 -1.46955 1.42356 0
M  V30 1218 H 115.855 -3.90434 1.18428 0
M  V30 1219 H 114.53 -3.49132 2.26008 0
M  V30 1220 H 113.107 -3.70285 0.440868 0
M  V30 1221 N 115.292 -0.849877 -1.32721 0
M  V30 1222 C 116.239 -0.289033 -2.28983 0
M  V30 1223 C 117.209 0.601324 -1.54833 0
M  V30 1224 O 118.394 0.537253 -1.8308 0
M  V30 1225 C 115.534 0.520623 -3.4115 0
M  V30 1226 C 114.647 -0.394989 -4.3019 0
M  V30 1227 C 113.782 0.426834 -5.29482 0
M  V30 1228 C 112.821 -0.486476 -6.10164 0
M  V30 1229 N 111.958 0.297879 -7.01468 0
M  V30 1230 H 116.798 -1.11519 -2.76347 0
M  V30 1231 H 114.335 -0.56138 -1.35967 0
M  V30 1232 H 116.293 1.00563 -4.04899 0
M  V30 1233 H 114.923 1.31165 -2.9495 0
M  V30 1234 H 113.975 -0.99836 -3.67065 0
M  V30 1235 H 115.287 -1.09612 -4.86607 0
M  V30 1236 H 114.441 0.975205 -5.98811 0
M  V30 1237 H 113.18 1.16136 -4.73671 0
M  V30 1238 H 112.185 -1.04677 -5.39743 0
M  V30 1239 H 113.41 -1.21953 -6.6806 0
M  V30 1240 H 111.356 1.01558 -6.48091 0
M  V30 1241 H 111.273 -0.344318 -7.55216 0
M  V30 1242 H 112.541 0.828131 -7.75089 0
M  V30 1243 N 116.77 1.45427 -0.607355 0
M  V30 1244 C 117.998 2.06614 -0.108814 0
M  V30 1245 C 118.413 1.45204 1.2067 0
M  V30 1246 O 117.77 0.566132 1.73497 0
M  V30 1247 C 117.821 3.61481 0.0375347 0
M  V30 1248 O 117.542 4.20598 -1.22593 0
M  V30 1249 C 119.043 4.39652 0.567561 0
M  V30 1250 H 116.263 0.66747 -0.0687351 0
M  V30 1251 H 118.807 1.86675 -0.835022 0
M  V30 1252 H 116.962 3.80762 0.714068 0
M  V30 1253 H 117.376 5.1377 -1.05547 0
M  V30 1254 H 118.85 5.48518 0.61905 0
M  V30 1255 H 119.327 4.09417 1.58978 0
M  V30 1256 H 119.933 4.25234 -0.0749202 0
M  V30 1257 N 118.248 0.346503 1.53744 0
M  V30 1258 C 119.478 -0.250047 2.05081 0
M  V30 1259 C 119.886 -1.44529 1.22098 0
M  V30 1260 O 119.229 -1.81992 0.249917 0
M  V30 1261 C 119.291 -0.725934 3.52094 0
M  V30 1262 C 118.955 0.350053 4.55657 0
M  V30 1263 C 119.952 1.19372 5.0601 0
M  V30 1264 C 117.637 0.504827 4.99757 0
M  V30 1265 C 119.631 2.17768 5.99046 0
M  V30 1266 C 117.318 1.49218 5.92602 0
M  V30 1267 C 118.316 2.32706 6.42135 0
M  V30 1268 O 118.004 3.2976 7.33153 0
M  V30 1269 H 117.736 -0.0515469 0.674032 0
M  V30 1270 H 120.29 0.497559 1.99282 0
M  V30 1271 H 118.52 -1.52483 3.55367 0
M  V30 1272 H 120.209 -1.24336 3.86388 0
M  V30 1273 H 120.975 1.08525 4.72702 0
M  V30 1274 H 116.854 -0.135178 4.60802 0
M  V30 1275 H 120.398 2.82971 6.37631 0
M  V30 1276 H 116.295 1.6012 6.25325 0
M  V30 1277 H 117.063 3.25265 7.51096 0
M  V30 1278 N 119.726 -1.57421 0.075193 0
M  V30 1279 C 120.974 -1.93236 -0.591974 0
M  V30 1280 C 121.295 -0.956241 -1.69944 0
M  V30 1281 O 120.565 -0.00494792 -1.95899 0
M  V30 1282 H 119.145 -0.713355 -0.22166 0
M  V30 1283 H 121.807 -1.9444 0.133848 0
M  V30 1284 H 120.903 -2.95131 -1.01509 0
M  V30 1285 N 121.204 0.198386 -1.56346 0
M  V30 1286 C 122.453 0.917451 -1.79627 0
M  V30 1287 C 122.766 1.8456 -0.64784 0
M  V30 1288 O 123.972 2.60504 -0.764859 0
M  V30 1289 C 122.428 1.68175 -3.18191 0
M  V30 1290 C 122.036 0.798589 -4.40825 0
M  V30 1291 C 123.78 2.39065 -3.50782 0
M  V30 1292 C 121.687 1.56157 -5.70411 0
M  V30 1293 H 120.617 0.346317 -0.669762 0
M  V30 1294 H 123.268 0.170801 -1.82703 0
M  V30 1295 H 121.65 2.47216 -3.09354 0
M  V30 1296 H 122.824 0.0470665 -4.60776 0
M  V30 1297 H 121.139 0.200686 -4.15916 0
M  V30 1298 H 123.736 2.96692 -4.44835 0
M  V30 1299 H 124.079 3.13091 -2.74371 0
M  V30 1300 H 124.612 1.66993 -3.61052 0
M  V30 1301 H 121.351 0.864142 -6.49779 0
M  V30 1302 H 120.871 2.2871 -5.54483 0
M  V30 1303 H 122.55 2.11622 -6.11412 0
M  V30 1304 N 122.682 1.50554 0.465978 0
M  V30 1305 C 123.629 1.6979 1.56333 0
M  V30 1306 C 124.599 0.539239 1.57103 0
M  V30 1307 O 125.784 0.770401 1.74555 0
M  V30 1308 C 122.924 1.80273 2.94271 0
M  V30 1309 C 122.037 3.07674 3.0325 0
M  V30 1310 C 121.172 3.08922 4.32135 0
M  V30 1311 C 120.211 4.30755 4.34875 0
M  V30 1312 N 119.348 4.29714 5.55239 0
M  V30 1313 H 124.188 2.63472 1.39235 0
M  V30 1314 H 121.725 1.30602 0.676873 0
M  V30 1315 H 123.683 1.84332 3.74269 0
M  V30 1316 H 122.313 0.900258 3.09992 0
M  V30 1317 H 121.365 3.13062 2.16094 0
M  V30 1318 H 122.677 3.97642 3.01135 0
M  V30 1319 H 121.831 3.11738 5.20485 0
M  V30 1320 H 120.57 2.16792 4.36866 0
M  V30 1321 H 119.575 4.28146 3.44922 0
M  V30 1322 H 120.8 5.24117 4.31831 0
M  V30 1323 H 118.746 3.4044 5.60746 0
M  V30 1324 H 118.663 5.13456 5.54886 0
M  V30 1325 H 119.931 4.36683 6.457 0
M  V30 1326 N 124.16 -0.719506 1.40217 0
M  V30 1327 C 125.406 -1.48034 1.39491 0
M  V30 1328 C 125.761 -1.92399 -0.00443536 0
M  V30 1329 O 125.054 -1.64993 -0.974061 0
M  V30 1330 C 125.248 -2.72271 2.31524 0
M  V30 1331 C 125.077 -2.40055 3.80268 0
M  V30 1332 C 123.847 -2.31588 4.49105 0
M  V30 1333 C 126.045 -2.04581 4.71859 0
M  V30 1334 N 124.027 -1.92006 5.83101 0
M  V30 1335 C 125.398 -1.75568 5.94623 0
M  V30 1336 C 127.453 -1.91183 4.59732 0
M  V30 1337 C 126.156 -1.34505 7.06612 0
M  V30 1338 C 128.182 -1.51524 5.71659 0
M  V30 1339 C 127.544 -1.23406 6.93506 0
M  V30 1340 H 123.643 -0.539927 0.565688 0
M  V30 1341 H 126.227 -0.834764 1.75897 0
M  V30 1342 H 124.398 -3.34584 1.97251 0
M  V30 1343 H 126.13 -3.38584 2.21682 0
M  V30 1344 H 122.885 -2.49199 4.02737 0
M  V30 1345 H 123.309 -1.74764 6.54054 0
M  V30 1346 H 127.951 -2.11584 3.66049 0
M  V30 1347 H 125.669 -1.12846 8.00182 0
M  V30 1348 H 129.255 -1.41741 5.6427 0
M  V30 1349 H 128.135 -0.931788 7.78645 0
M  V30 1350 N 125.638 -1.25649 -0.95132 0
M  V30 1351 C 126.585 -1.06323 -2.04851 0
M  V30 1352 C 127.555 0.0286491 -1.66075 0
M  V30 1353 O 128.74 -0.12917 -1.90362 0
M  V30 1354 C 125.88 -0.691529 -3.381 0
M  V30 1355 C 124.993 -1.85861 -3.89974 0
M  V30 1356 C 124.128 -1.43096 -5.11563 0
M  V30 1357 C 123.167 -2.56696 -5.55674 0
M  V30 1358 N 122.304 -2.14684 -6.68472 0
M  V30 1359 H 127.144 -2.00222 -2.20715 0
M  V30 1360 H 124.681 -0.997027 -1.08156 0
M  V30 1361 H 126.639 -0.456963 -4.1469 0
M  V30 1362 H 125.269 0.210474 -3.22113 0
M  V30 1363 H 124.321 -2.20639 -3.09875 0
M  V30 1364 H 125.633 -2.71161 -4.18657 0
M  V30 1365 H 124.787 -1.15624 -5.9558 0
M  V30 1366 H 123.526 -0.548722 -4.84603 0
M  V30 1367 H 122.531 -2.84909 -4.7022 0
M  V30 1368 H 123.756 -3.45503 -5.8464 0
M  V30 1369 H 121.702 -1.28881 -6.43215 0
M  V30 1370 H 121.619 -2.9353 -6.96689 0
M  V30 1371 H 122.887 -1.90397 -7.5589 0
M  V30 1372 N 127.117 1.15442 -1.07289 0
M  V30 1373 C 128.533 1.38201 -0.798288 0
M  V30 1374 C 128.733 1.92429 0.597769 0
M  V30 1375 O 127.789 2.12962 1.3566 0
M  V30 1376 C 129.102 2.35357 -1.87156 0
M  V30 1377 C 130.65 2.49021 -1.89624 0
M  V30 1378 C 131.125 3.49468 -2.96034 0
M  V30 1379 N 132.616 3.57003 -2.95132 0
M  V30 1380 C 133.351 4.34543 -3.74112 0
M  V30 1381 N 132.847 5.15421 -4.6294 0
M  V30 1382 N 134.64 4.29625 -3.62462 0
M  V30 1383 H 126.791 0.78584 -1.97328 0
M  V30 1384 H 129.054 0.408065 -0.855679 0
M  V30 1385 H 128.76 2.02626 -2.87464 0
M  V30 1386 H 128.634 3.35129 -1.73114 0
M  V30 1387 H 131.021 2.81051 -0.899687 0
M  V30 1388 H 131.102 1.4925 -2.07745 0
M  V30 1389 H 130.746 3.18173 -3.95889 0
M  V30 1390 H 130.676 4.48992 -2.75161 0
M  V30 1391 H 133.167 2.99276 -2.30743 0
M  V30 1392 H 133.48 5.7183 -5.19837 0
M  V30 1393 H 131.825 5.14729 -4.66989 0
M  V30 1394 H 135.016 3.65505 -2.92444 0
M  V30 1395 H 135.189 4.89807 -4.24256 0
M  V30 1396 N 128.595 0.856903 1.32268 0
M  V30 1397 C 130.006 0.515711 1.79436 0
M  V30 1398 C 130.357 -0.966586 1.70738 0
M  V30 1399 O 129.482 -1.75409 1.26731 0
M  V30 1400 C 130.077 0.929335 3.25805 0
M  V30 1401 C 128.636 0.640006 3.70919 0
M  V30 1402 C 127.783 1.12784 2.53328 0
M  V30 1403 H 130.734 1.04389 1.19535 0
M  V30 1404 H 130.755 0.246633 3.797 0
M  V30 1405 H 130.267 2.00821 3.32103 0
M  V30 1406 H 128.368 -0.428051 3.70133 0
M  V30 1407 H 128.481 1.20788 4.63624 0
M  V30 1408 H 126.845 0.548033 2.48734 0
M  V30 1409 H 127.628 2.21387 2.62379 0
M  V30 1410 N 130.073 -1.45103 0.615059 0
M  V30 1411 C 131.301 -2.06553 0.11977 0
M  V30 1412 C 131.716 -1.45842 -1.19898 0
M  V30 1413 O 131.073 -0.575325 -1.73194 0
M  V30 1414 C 131.124 -3.61495 -0.018364 0
M  V30 1415 O 130.845 -4.19942 1.24822 0
M  V30 1416 C 132.346 -4.39947 -0.544237 0
M  V30 1417 H 129.566 -0.667096 0.0722739 0
M  V30 1418 H 132.11 -1.8623 0.84491 0
M  V30 1419 H 130.265 -3.81135 -0.693865 0
M  V30 1420 H 130.679 -5.13204 1.0827 0
M  V30 1421 H 132.153 -5.48838 -0.589953 0
M  V30 1422 H 132.63 -4.10255 -1.56805 0
M  V30 1423 H 133.236 -4.25188 0.0974703 0
M  V30 1424 N 131.551 -0.354651 -1.53558 0
M  V30 1425 C 132.461 0.50515 -2.29097 0
M  V30 1426 C 133.477 1.10223 -1.34636 0
M  V30 1427 O 134.653 1.11553 -1.67684 0
M  V30 1428 C 131.718 1.63479 -3.05738 0
M  V30 1429 C 130.779 1.06636 -4.15845 0
M  V30 1430 C 130.012 2.14217 -4.88822 0
M  V30 1431 O 130.235 3.35137 -4.61562 0
M  V30 1432 O 129.169 1.77887 -5.75013 0
M  V30 1433 H 132.995 -0.109237 -3.03503 0
M  V30 1434 H 130.58 -0.119357 -1.48922 0
M  V30 1435 H 132.462 2.2918 -3.5363 0
M  V30 1436 H 131.137 2.23478 -2.34178 0
M  V30 1437 H 130.044 0.373565 -3.7223 0
M  V30 1438 H 131.377 0.511081 -4.89539 0
M  V30 1439 N 133.029 1.57378 -0.0835403 0
M  V30 1440 C 133.959 2.1641 0.87686 0
M  V30 1441 C 134.94 1.09429 1.30228 0
M  V30 1442 O 136.125 1.37516 1.37124 0
M  V30 1443 C 133.255 2.73517 2.14022 0
M  V30 1444 C 132.209 3.85769 1.85381 0
M  V30 1445 C 131.535 4.29529 3.18448 0
M  V30 1446 C 132.835 5.09486 1.14984 0
M  V30 1447 H 134.529 2.96914 0.385059 0
M  V30 1448 H 132.075 1.42823 0.18377 0
M  V30 1449 H 134.028 3.13463 2.81636 0
M  V30 1450 H 132.752 1.90252 2.65465 0
M  V30 1451 H 131.411 3.46345 1.20169 0
M  V30 1452 H 131.059 3.43169 3.67755 0
M  V30 1453 H 130.759 5.05204 3.00071 0
M  V30 1454 H 132.283 4.72099 3.8724 0
M  V30 1455 H 133.697 5.46674 1.72687 0
M  V30 1456 H 132.094 5.90515 1.06826 0
M  V30 1457 H 133.164 4.84724 0.130749 0
M  V30 1458 N 134.507 -0.190092 1.56449 0
M  V30 1459 C 135.437 -1.23816 1.97969 0
M  V30 1460 C 136.418 -1.47201 0.852395 0
M  V30 1461 O 137.603 -1.58854 1.1171 0
M  V30 1462 C 134.733 -2.5813 2.3235 0
M  V30 1463 C 133.687 -2.49348 3.47864 0
M  V30 1464 C 133.013 -3.8798 3.67934 0
M  V30 1465 C 134.313 -2.01424 4.81898 0
M  V30 1466 H 136.007 -0.89311 2.85769 0
M  V30 1467 H 133.553 -0.428177 1.37487 0
M  V30 1468 H 135.506 -3.31637 2.59991 0
M  V30 1469 H 134.23 -2.94386 1.41438 0
M  V30 1470 H 132.889 -1.78297 3.20321 0
M  V30 1471 H 132.537 -4.21597 2.74344 0
M  V30 1472 H 132.237 -3.82978 4.45648 0
M  V30 1473 H 133.761 -4.63101 3.97957 0
M  V30 1474 H 135.175 -2.64693 5.08538 0
M  V30 1475 H 133.572 -2.07413 5.63116 0
M  V30 1476 H 134.642 -0.967677 4.75146 0
M  V30 1477 N 135.985 -1.50799 -0.457987 0
M  V30 1478 C 137.21 -1.66496 -1.23668 0
M  V30 1479 C 137.635 -0.353288 -1.84752 0
M  V30 1480 O 136.993 0.684346 -1.67888 0
M  V30 1481 C 137.041 -2.76763 -2.3116 0
M  V30 1482 O 136.145 -2.38928 -3.36136 0
M  V30 1483 H 135.486 -0.555828 -0.363252 0
M  V30 1484 H 138.016 -1.9725 -0.543474 0
M  V30 1485 H 138.026 -3.00232 -2.76269 0
M  V30 1486 H 136.701 -3.71954 -1.86073 0
M  V30 1487 H 135.278 -2.25953 -2.96647 0
M  V30 1488 N 137.463 0.71206 -1.40597 0
M  V30 1489 C 138.411 1.84746 -1.41321 0
M  V30 1490 C 139.405 1.66842 -0.293268 0
M  V30 1491 O 140.611 1.73904 -0.464481 0
M  V30 1492 H 136.986 0.608522 -0.441819 0
M  V30 1493 H 138.957 1.81252 -2.37045 0
M  V30 1494 C 137.706 3.22638 -1.29614 0
M  V30 1495 H 137.029 3.37023 -2.15071 0
M  V30 1496 H 138.469 4.02209 -1.3418 0
M  V30 1497 C 136.928 3.36899 -0.00673121 0
M  V30 1498 O 137.458 3.90186 0.954859 0
M  V30 1499 N 135.664 2.9053 0.0639327 0
M  V30 1500 H 135.211 2.47353 -0.719311 0
M  V30 1501 H 135.169 3.0045 0.926118 0
M  V30 1502 N 138.941 1.26152 0.944643 0
M  V30 1503 C 140.352 1.10454 1.50522 0
M  V30 1504 C 140.703 -0.31635 1.93633 0
M  V30 1505 O 139.828 -1.20746 1.79581 0
M  V30 1506 C 140.423 1.99891 2.73549 0
M  V30 1507 C 138.982 1.88348 3.25886 0
M  V30 1508 C 138.129 1.93447 1.9868 0
M  V30 1509 H 141.08 1.39292 0.760489 0
M  V30 1510 H 141.101 1.54477 3.47732 0
M  V30 1511 H 140.613 3.03297 2.42141 0
M  V30 1512 H 138.714 0.878636 3.62092 0
M  V30 1513 H 138.827 2.73696 3.93227 0
M  V30 1514 H 137.191 1.37456 2.14425 0
M  V30 1515 H 137.974 2.98476 1.69607 0
M  V30 1516 N 140.419 -1.14872 1.07899 0
M  V30 1517 C 141.351 -2.19425 0.662231 0
M  V30 1518 C 142.364 -1.60231 -0.288079 0
M  V30 1519 O 143.553 -1.78336 -0.076534 0
M  V30 1520 C 140.653 -3.38867 -0.0470695 0
M  V30 1521 C 139.826 -4.27597 0.920831 0
M  V30 1522 C 138.885 -5.25616 0.247805 0
M  V30 1523 O 137.911 -5.62189 0.890599 0
M  V30 1524 N 139.113 -5.71746 -1.00435 0
M  V30 1525 H 141.878 -2.55797 1.56166 0
M  V30 1526 H 139.439 -1.30042 0.964404 0
M  V30 1527 H 141.431 -4.01497 -0.50813 0
M  V30 1528 H 140.001 -3.00864 -0.848523 0
M  V30 1529 H 139.221 -3.61982 1.56087 0
M  V30 1530 H 140.509 -4.83748 1.57688 0
M  V30 1531 H 139.907 -5.44153 -1.54642 0
M  V30 1532 H 138.464 -6.36389 -1.40899 0
M  V30 1533 N 141.898 -0.863906 -1.31812 0
M  V30 1534 C 143.145 -0.471836 -1.96926 0
M  V30 1535 C 143.473 0.974578 -1.68322 0
M  V30 1536 O 142.728 1.7003 -0.968933 0
M  V30 1537 C 143.027 -0.668547 -3.51091 0
M  V30 1538 C 142.693 -2.08683 -3.99703 0
M  V30 1539 C 141.355 -2.47471 -4.12688 0
M  V30 1540 C 143.707 -3.01207 -4.25351 0
M  V30 1541 C 141.035 -3.78037 -4.4867 0
M  V30 1542 C 143.387 -4.31282 -4.62794 0
M  V30 1543 C 142.051 -4.69992 -4.73987 0
M  V30 1544 H 141.321 -0.172657 -0.720604 0
M  V30 1545 H 143.968 -1.09573 -1.57054 0
M  V30 1546 H 142.273 0.0385252 -3.91781 0
M  V30 1547 H 143.97 -0.345102 -3.99512 0
M  V30 1548 H 140.56 -1.77566 -3.90087 0
M  V30 1549 H 144.744 -2.72469 -4.14819 0
M  V30 1550 H 140 -4.078 -4.55532 0
M  V30 1551 H 144.174 -5.03031 -4.81594 0
M  V30 1552 H 141.801 -5.71207 -5.01624 0
M  V30 1553 N 143.376 1.44774 -0.622745 0
M  V30 1554 C 144.625 2.01334 -0.121397 0
M  V30 1555 C 144.938 1.49505 1.26125 0
M  V30 1556 O 146.144 1.98139 1.85616 0
M  V30 1557 C 144.6 3.59516 -0.166298 0
M  V30 1558 C 144.208 4.20342 -1.54974 0
M  V30 1559 C 145.952 4.23582 0.279021 0
M  V30 1560 C 143.859 5.70721 -1.55021 0
M  V30 1561 H 142.789 0.752851 -0.0416172 0
M  V30 1562 H 145.44 1.66083 -0.780309 0
M  V30 1563 H 143.822 3.92027 0.559557 0
M  V30 1564 H 144.996 3.99381 -2.29851 0
M  V30 1565 H 143.311 3.68529 -1.93843 0
M  V30 1566 H 145.908 5.33868 0.298083 0
M  V30 1567 H 146.251 3.95327 1.30471 0
M  V30 1568 H 146.784 3.95843 -0.394063 0
M  V30 1569 H 143.523 6.03698 -2.55399 0
M  V30 1570 H 143.043 5.93829 -0.844245 0
M  V30 1571 H 144.722 6.34203 -1.28047 0
M  V30 1572 N 144.854 0.36279 1.53368 0
M  V30 1573 C 146.1 -0.228113 2.01513 0
M  V30 1574 C 146.433 -1.48648 1.2497 0
M  V30 1575 O 145.708 -1.91459 0.342616 0
M  V30 1576 C 145.991 -0.522884 3.56284 0
M  V30 1577 C 145.844 0.74892 4.43521 0
M  V30 1578 C 147.163 -1.32461 4.19693 0
M  V30 1579 H 144.282 -0.0814343 0.732487 0
M  V30 1580 H 146.924 0.48713 1.83649 0
M  V30 1581 H 145.074 -1.1322 3.71636 0
M  V30 1582 H 146.746 1.38648 4.39971 0
M  V30 1583 H 144.989 1.36986 4.11603 0
M  V30 1584 H 145.66 0.497667 5.49752 0
M  V30 1585 H 148.136 -0.809203 4.08156 0
M  V30 1586 H 147.012 -1.49961 5.28018 0
M  V30 1587 H 147.273 -2.33232 3.75573 0
M  V30 1588 N 146.332 -1.57332 0.0918853 0
M  V30 1589 C 147.609 -1.85691 -0.614668 0
M  V30 1590 C 147.989 -0.988146 -1.86545 0
M  V30 1591 O 147.337 -0.0597055 -2.28422 0
M  V30 1592 C 147.547 -3.36294 -0.933126 0
M  V30 1593 C 148.895 -4.04275 -1.29796 0
M  V30 1594 O 149.919 -3.41157 -1.02424 0
M  V30 1595 O 148.778 -5.1564 -1.81047 0
M  V30 1596 H 145.872 -0.767802 -0.307261 0
M  V30 1597 H 148.418 -1.69244 0.12434 0
M  V30 1598 H 147.19 -3.91273 -0.0456404 0
M  V30 1599 H 146.813 -3.58076 -1.72822 0
M  V30 1600 N 147.81 0.181792 -1.56548 0
M  V30 1601 C 149.058 0.89832 -1.81038 0
M  V30 1602 C 149.379 1.83232 -0.667164 0
M  V30 1603 O 148.649 1.93372 0.313673 0
M  V30 1604 H 147.229 0.33471 -0.667816 0
M  V30 1605 H 149.891 0.184116 -1.94028 0
M  V30 1606 H 148.987 1.4815 -2.74696 0
M  V30 1607 N 149.288 1.51039 0.449983 0
M  V30 1608 C 150.251 1.70863 1.5277 0
M  V30 1609 C 151.251 0.578846 1.5002 0
M  V30 1610 O 152.441 0.846213 1.52266 0
M  V30 1611 C 149.573 1.75341 2.9235 0
M  V30 1612 H 150.766 2.67034 1.36502 0
M  V30 1613 H 148.319 1.40838 0.677812 0
M  V30 1614 H 149.054 0.809383 3.14037 0
M  V30 1615 H 148.839 2.57436 2.95752 0
M  V30 1616 H 150.329 1.92559 3.70555 0
M  V30 1617 N 150.766 -0.704594 1.40972 0
M  V30 1618 C 151.994 -1.49354 1.43182 0
M  V30 1619 C 152.409 -1.88768 0.0345508 0
M  V30 1620 O 151.766 -1.56184 -0.944081 0
M  V30 1621 C 151.817 -2.76187 2.33244 0
M  V30 1622 O 151.538 -2.38436 3.67532 0
M  V30 1623 C 153.039 -3.7 2.44162 0
M  V30 1624 H 150.259 -0.460559 0.487982 0
M  V30 1625 H 152.803 -0.868261 1.85153 0
M  V30 1626 H 150.958 -3.34974 1.94606 0
M  V30 1627 H 151.372 -3.20126 4.15475 0
M  V30 1628 H 152.846 -4.55803 3.11364 0
M  V30 1629 H 153.323 -4.13867 1.47006 0
M  V30 1630 H 153.929 -3.17121 2.83398 0
M  V30 1631 N 152.244 -1.26651 -0.937939 0
M  V30 1632 C 153.66 -1.03834 -1.21205 0
M  V30 1633 C 153.86 0.234502 -2.00131 0
M  V30 1634 O 152.916 0.942767 -2.3424 0
M  V30 1635 C 154.229 -2.27167 -1.97017 0
M  V30 1636 C 155.777 -2.32101 -2.09996 0
M  V30 1637 C 156.252 -3.55136 -2.8921 0
M  V30 1638 N 157.743 -3.55632 -2.96783 0
M  V30 1639 C 158.478 -4.475 -3.58512 0
M  V30 1640 N 157.974 -5.4966 -4.21717 0
M  V30 1641 N 159.767 -4.35145 -3.55816 0
M  V30 1642 H 151.918 -2.08398 -0.410391 0
M  V30 1643 H 154.181 -0.916031 -0.244114 0
M  V30 1644 H 153.887 -3.19765 -1.46434 0
M  V30 1645 H 153.761 -2.31672 -2.97671 0
M  V30 1646 H 156.148 -1.40015 -2.59769 0
M  V30 1647 H 156.229 -2.31605 -1.08594 0
M  V30 1648 H 155.873 -4.47553 -2.40123 0
M  V30 1649 H 155.803 -3.5288 -3.90875 0
M  V30 1650 H 158.294 -2.81743 -2.51852 0
M  V30 1651 H 158.607 -6.15943 -4.66727 0
M  V30 1652 H 156.952 -5.53514 -4.20294 0
M  V30 1653 H 160.143 -3.5455 -3.05634 0
M  V30 1654 H 160.316 -5.06934 -4.03636 0
M  V30 1655 N 153.722 1.14298 -1.08507 0
M  V30 1656 C 154.95 1.89219 -0.836876 0
M  V30 1657 C 155.365 1.78638 0.611054 0
M  V30 1658 O 154.722 1.14643 1.41998 0
M  V30 1659 C 154.773 3.39158 -1.25116 0
M  V30 1660 O 154.494 3.49449 -2.64229 0
M  V30 1661 C 155.995 4.31073 -1.03398 0
M  V30 1662 H 153.215 0.599328 -0.301739 0
M  V30 1663 H 155.759 1.44746 -1.44461 0
M  V30 1664 H 153.914 3.81251 -0.687514 0
M  V30 1665 H 154.328 4.42589 -2.81452 0
M  V30 1666 H 155.802 5.34646 -1.37323 0
M  V30 1667 H 156.279 4.3919 0.0289259 0
M  V30 1668 H 156.885 3.94738 -1.58311 0
M  V30 1669 N 155.201 0.870884 1.31352 0
M  V30 1670 C 156.478 0.402907 1.91405 0
M  V30 1671 C 156.858 -1.11512 1.79244 0
M  V30 1672 O 156.206 -1.94411 1.2007 0
M  V30 1673 C 156.416 0.885301 3.37585 0
M  V30 1674 C 157.764 0.911971 4.14691 0
M  V30 1675 O 158.788 0.831016 3.46371 0
M  V30 1676 O 157.647 1.02927 5.3672 0
M  V30 1677 H 154.741 0.120698 0.818145 0
M  V30 1678 H 157.287 0.958857 1.40014 0
M  V30 1679 H 156.059 1.92889 3.40455 0
M  V30 1680 H 155.682 0.307714 3.96407 0
M  V30 1681 N 156.679 -1.44442 0.630414 0
M  V30 1682 C 157.928 -2.01267 0.132073 0
M  V30 1683 C 158.241 -1.50172 -1.25331 0
M  V30 1684 O 159.447 -1.9912 -1.84562 0
M  V30 1685 C 157.903 -3.59422 0.185362 0
M  V30 1686 C 157.511 -4.19514 1.57201 0
M  V30 1687 C 159.255 -4.23724 -0.256553 0
M  V30 1688 C 157.162 -5.69891 1.58045 0
M  V30 1689 H 156.092 -0.752619 0.0456092 0
M  V30 1690 H 158.743 -1.65666 0.789106 0
M  V30 1691 H 157.125 -3.92318 -0.538759 0
M  V30 1692 H 158.299 -3.98156 2.31966 0
M  V30 1693 H 156.614 -3.67496 1.95795 0
M  V30 1694 H 159.211 -5.34019 -0.269767 0
M  V30 1695 H 159.554 -3.96013 -1.28372 0
M  V30 1696 H 160.087 -3.95629 0.41505 0
M  V30 1697 H 156.826 -6.02336 2.58597 0
M  V30 1698 H 156.346 -5.93373 0.875725 0
M  V30 1699 H 158.025 -6.33515 1.31408 0
M  V30 1700 N 158.157 -0.370918 -1.53173 0
M  V30 1701 C 159.397 0.217106 -2.03244 0
M  V30 1702 C 159.761 1.45558 -1.25207 0
M  V30 1703 O 160.962 2.11957 -1.65311 0
M  V30 1704 C 159.233 0.496664 -3.53932 0
M  V30 1705 S 160.792 1.0576 -4.25864 0
M  V30 1706 H 157.61 0.0627827 -0.708223 0
M  V30 1707 H 160.212 -0.515019 -1.88594 0
M  V30 1708 H 158.916 -0.412096 -4.08326 0
M  V30 1709 H 158.447 1.25772 -3.72753 0
M  V30 1710 H 160.462 2.34145 -4.37482 0
M  V30 1711 N 159.635 1.57281 -0.100228 0
M  V30 1712 C 160.567 2.11342 0.886972 0
M  V30 1713 C 161.58 1.05182 1.24261 0
M  V30 1714 O 162.769 1.32613 1.19483 0
M  V30 1715 C 159.869 2.5825 2.19454 0
M  V30 1716 C 159.042 3.88302 2.01346 0
M  V30 1717 C 158.101 4.21004 3.15661 0
M  V30 1718 O 157.127 4.9014 2.89398 0
M  V30 1719 N 158.329 3.76818 4.41575 0
M  V30 1720 H 161.094 2.96668 0.425216 0
M  V30 1721 H 158.655 1.61678 0.0847334 0
M  V30 1722 H 160.647 2.7717 2.94888 0
M  V30 1723 H 159.217 1.77907 2.57037 0
M  V30 1724 H 158.437 3.7848 1.10212 0
M  V30 1725 H 159.725 4.73375 1.8653 0
M  V30 1726 H 159.123 3.2102 4.65792 0
M  V30 1727 H 157.68 4.00882 5.13942 0
M  V30 1728 N 161.113 -0.173488 1.56642 0
M  V30 1729 C 162.361 -0.888706 1.81512 0
M  V30 1730 C 162.682 -1.82875 0.676872 0
M  V30 1731 O 161.952 -1.93536 -0.303414 0
M  V30 1732 H 160.532 -0.331164 0.669582 0
M  V30 1733 H 163.194 -0.173823 1.94123 0
M  V30 1734 H 162.29 -1.46691 2.75478 0
M  V30 1735 N 162.591 -1.51276 -0.441967 0
M  V30 1736 C 163.554 -1.7167 -1.51862 0
M  V30 1737 C 164.554 -0.586793 -1.49711 0
M  V30 1738 O 165.744 -0.854276 -1.51815 0
M  V30 1739 C 162.876 -1.76889 -2.91416 0
M  V30 1740 H 164.069 -2.67754 -1.35084 0
M  V30 1741 H 161.622 -1.41196 -0.670333 0
M  V30 1742 H 162.357 -0.826026 -3.13604 0
M  V30 1743 H 162.142 -2.59001 -2.94382 0
M  V30 1744 H 163.632 -1.94522 -3.69528 0
M  V30 1745 N 164.069 0.697108 -1.41344 0
M  V30 1746 C 164.999 1.82353 -1.45841 0
M  V30 1747 C 165.98 1.67115 -0.317247 0
M  V30 1748 O 167.165 1.86871 -0.528474 0
M  V30 1749 C 164.295 3.20476 -1.33838 0
M  V30 1750 C 163.249 3.50415 -2.4575 0
M  V30 1751 C 162.575 4.87878 -2.18813 0
M  V30 1752 C 163.875 3.49546 -3.88091 0
M  V30 1753 H 165.569 1.78846 -2.40113 0
M  V30 1754 H 163.115 0.859028 -1.15571 0
M  V30 1755 H 165.068 3.98988 -1.35596 0
M  V30 1756 H 163.792 3.24604 -0.360498 0
M  V30 1757 H 162.451 2.74253 -2.43271 0
M  V30 1758 H 162.099 4.8863 -1.19371 0
M  V30 1759 H 161.799 5.08875 -2.93803 0
M  V30 1760 H 163.323 5.68702 -2.22284 0
M  V30 1761 H 164.737 4.18066 -3.92293 0
M  V30 1762 H 163.134 3.82075 -4.62751 0
M  V30 1763 H 164.204 2.48552 -4.16353 0
M  V30 1764 N 165.547 1.27147 0.931209 0
M  V30 1765 C 166.795 1.13055 1.6752 0
M  V30 1766 C 167.116 -0.324791 1.92276 0
M  V30 1767 O 166.386 -1.22775 1.52654 0
M  V30 1768 H 164.966 0.415391 0.620854 0
M  V30 1769 H 167.628 1.59623 1.11833 0
M  V30 1770 H 166.724 1.65694 2.64485 0
M  V30 1771 N 167.025 -1.13721 1.09112 0
M  V30 1772 C 168.302 -1.81155 0.737706 0
M  V30 1773 C 168.682 -1.96253 -0.777683 0
M  V30 1774 O 168.03 -1.52807 -1.69889 0
M  V30 1775 C 168.24 -3.16392 1.47299 0
M  V30 1776 C 169.588 -3.91787 1.63671 0
M  V30 1777 O 170.612 -3.26005 1.43524 0
M  V30 1778 O 169.471 -5.0977 1.96969 0
M  V30 1779 H 166.565 -0.783518 0.26463 0
M  V30 1780 H 169.111 -1.20676 1.19312 0
M  V30 1781 H 167.883 -3.0061 2.50498 0
M  V30 1782 H 167.506 -3.8457 1.00953 0
M  V30 1783 N 168.503 -0.877838 -1.30888 0
M  V30 1784 C 169.743 -0.499301 -1.98208 0
M  V30 1785 C 170.107 0.932649 -1.67826 0
M  V30 1786 O 171.308 1.41694 -2.28421 0
M  V30 1787 C 169.579 -0.758221 -3.49265 0
M  V30 1788 S 171.138 -0.480719 -4.36159 0
M  V30 1789 H 167.956 -0.186062 -0.686223 0
M  V30 1790 H 170.558 -1.13556 -1.59139 0
M  V30 1791 H 169.262 -1.79903 -3.68867 0
M  V30 1792 H 168.793 -0.109247 -3.93248 0
M  V30 1793 H 170.808 0.683698 -4.91467 0
M  V30 1794 N 169.982 1.44106 -0.638065 0
M  V30 1795 C 171.228 2.02815 -0.15409 0
M  V30 1796 C 171.583 1.49342 1.21304 0
M  V30 1797 O 170.876 0.670699 1.79478 0
M  V30 1798 C 171.07 3.5729 -0.0887327 0
M  V30 1799 C 170.899 4.2575 -1.44799 0
M  V30 1800 C 169.669 4.62443 -2.03653 0
M  V30 1801 C 171.867 4.55746 -2.38327 0
M  V30 1802 N 169.849 5.15903 -3.32741 0
M  V30 1803 C 171.22 5.10364 -3.52036 0
M  V30 1804 C 173.275 4.37703 -2.3732 0
M  V30 1805 C 171.978 5.48837 -4.64941 0
M  V30 1806 C 174.004 4.77229 -3.49294 0
M  V30 1807 C 173.366 5.31966 -4.61726 0
M  V30 1808 H 169.465 0.775519 -0.100466 0
M  V30 1809 H 172.049 1.755 -0.843071 0
M  V30 1810 H 170.22 3.84201 0.569548 0
M  V30 1811 H 171.952 4.02671 0.404711 0
M  V30 1812 H 168.707 4.46987 -1.56523 0
M  V30 1813 H 169.131 5.47102 -3.98758 0
M  V30 1814 H 173.773 3.94671 -1.51641 0
M  V30 1815 H 171.491 5.9082 -5.51323 0
M  V30 1816 H 175.077 4.64976 -3.49698 0
M  V30 1817 H 173.957 5.61986 -5.46939 0
M  V30 1818 N 171.46 0.379036 1.52974 0
M  V30 1819 C 172.39 -0.452706 2.29069 0
M  V30 1820 C 173.371 -1.07237 1.32039 0
M  V30 1821 O 174.556 -1.08708 1.60923 0
M  V30 1822 C 171.686 -1.5856 3.08992 0
M  V30 1823 C 170.64 -1.0925 4.13822 0
M  V30 1824 C 169.966 -2.31668 4.81907 0
M  V30 1825 C 171.266 -0.167702 5.22031 0
M  V30 1826 H 172.96 0.182181 2.98845 0
M  V30 1827 H 170.506 0.0890592 1.43724 0
M  V30 1828 H 172.459 -2.1742 3.6098 0
M  V30 1829 H 171.183 -2.24792 2.36931 0
M  V30 1830 H 169.842 -0.526494 3.628 0
M  V30 1831 H 169.49 -2.96386 4.06404 0
M  V30 1832 H 169.19 -1.9934 5.52754 0
M  V30 1833 H 170.714 -2.91189 5.36695 0
M  V30 1834 H 172.128 -0.664186 5.6944 0
M  V30 1835 H 170.525 0.0653265 6.00064 0
M  V30 1836 H 171.595 0.786347 4.78482 0
M  V30 1837 N 172.938 -1.57226 0.108567 0
M  V30 1838 C 173.868 -2.17778 -0.84232 0
M  V30 1839 C 174.849 -1.11487 -1.2847 0
M  V30 1840 O 176.034 -1.39681 -1.34918 0
M  V30 1841 C 173.164 -2.76888 -2.09644 0
M  V30 1842 C 172.118 -3.88669 -1.79221 0
M  V30 1843 C 171.444 -4.34541 -3.11574 0
M  V30 1844 C 172.744 -5.11251 -1.06864 0
M  V30 1845 H 174.438 -2.97489 -0.337774 0
M  V30 1846 H 171.984 -1.43097 -0.161025 0
M  V30 1847 H 173.937 -3.17904 -2.76614 0
M  V30 1848 H 172.661 -1.94451 -2.62405 0
M  V30 1849 H 171.32 -3.48213 -1.14644 0
M  V30 1850 H 170.968 -3.48977 -3.62249 0
M  V30 1851 H 170.668 -5.09914 -2.91996 0
M  V30 1852 H 172.192 -4.782 -3.7968 0
M  V30 1853 H 173.606 -5.49352 -1.63968 0
M  V30 1854 H 172.003 -5.9214 -0.974178 0
M  V30 1855 H 173.073 -4.8487 -0.0536168 0
M  V30 1856 N 174.416 0.165178 -1.56732 0
M  V30 1857 C 175.379 1.18822 -1.95995 0
M  V30 1858 C 176.379 1.3685 -0.84431 0
M  V30 1859 O 177.569 1.34152 -1.11126 0
M  V30 1860 C 174.701 2.5521 -2.26011 0
M  V30 1861 H 175.894 0.851825 -2.87548 0
M  V30 1862 H 173.447 0.407857 -1.50885 0
M  V30 1863 H 174.182 2.93852 -1.37191 0
M  V30 1864 H 173.967 2.43489 -3.07336 0
M  V30 1865 H 175.457 3.28927 -2.57288 0
M  V30 1866 N 175.894 1.51508 0.433938 0
M  V30 1867 C 176.857 1.72473 1.50949 0
M  V30 1868 C 177.857 0.594725 1.49398 0
M  V30 1869 O 179.047 0.862315 1.5136 0
M  V30 1870 C 176.179 1.78431 2.90474 0
M  V30 1871 H 177.372 2.68467 1.33662 0
M  V30 1872 H 174.925 1.41549 0.662836 0
M  V30 1873 H 175.66 0.842645 3.13161 0
M  V30 1874 H 175.445 2.60558 2.93005 0
M  V30 1875 H 176.935 1.96479 3.68491 0
M  V30 1876 N 177.372 -0.689602 1.41712 0
M  V30 1877 C 178.621 -1.44534 1.40686 0
M  V30 1878 C 178.934 -1.95588 0.0213352 0
M  V30 1879 O 180.14 -2.71271 -0.111534 0
M  V30 1880 C 178.596 -2.61387 2.47396 0
M  V30 1881 C 178.204 -2.17094 3.91885 0
M  V30 1882 C 179.948 -3.38986 2.55517 0
M  V30 1883 C 177.855 -3.3094 4.90135 0
M  V30 1884 H 176.785 -0.542925 0.52321 0
M  V30 1885 H 179.436 -0.748054 1.6756 0
M  V30 1886 H 177.818 -3.33412 2.13664 0
M  V30 1887 H 178.992 -1.52318 4.34897 0
M  V30 1888 H 177.307 -1.52473 3.8748 0
M  V30 1889 H 179.904 -4.23747 3.26102 0
M  V30 1890 H 180.247 -3.84578 1.59391 0
M  V30 1891 H 180.78 -2.74021 2.8837 0
M  V30 1892 H 177.519 -2.90355 5.87685 0
M  V30 1893 H 177.039 -3.94546 4.51767 0
M  V30 1894 H 178.718 -3.9663 5.11169 0
M  V30 1895 N 178.85 -1.27639 -0.924453 0
M  V30 1896 C 179.813 -1.10681 -2.00705 0
M  V30 1897 C 180.813 -0.0497823 -1.60723 0
M  V30 1898 O 182.003 -0.294654 -1.7169 0
M  V30 1899 C 179.135 -0.687164 -3.33902 0
M  V30 1900 H 180.328 -2.06817 -2.17179 0
M  V30 1901 H 177.881 -1.10473 -1.10569 0
M  V30 1902 H 178.616 0.275439 -3.23128 0
M  V30 1903 H 178.401 -1.45061 -3.6428 0
M  V30 1904 H 179.891 -0.590853 -4.13399 0
M  V30 1905 N 180.328 1.1314 -1.09713 0
M  V30 1906 C 181.553 1.88862 -0.857081 0
M  V30 1907 C 181.978 1.78729 0.586304 0
M  V30 1908 O 181.336 1.13692 1.41222 0
M  V30 1909 C 181.384 3.36325 -1.30069 0
M  V30 1910 O 180.488 4.09815 -0.461007 0
M  V30 1911 H 179.829 0.587108 -0.310162 0
M  V30 1912 H 182.359 1.43129 -1.46203 0
M  V30 1913 H 182.369 3.87157 -1.28738 0
M  V30 1914 H 181.044 3.43017 -2.35185 0
M  V30 1915 H 179.621 3.68986 -0.538888 0
M  V30 1916 N 181.806 0.884767 1.30421 0
M  V30 1917 C 182.736 0.367574 2.30589 0
M  V30 1918 C 183.717 -0.549464 1.60981 0
M  V30 1919 O 184.902 -0.46336 1.88591 0
M  V30 1920 C 182.032 -0.418944 3.44764 0
M  V30 1921 C 180.986 0.406316 4.26067 0
M  V30 1922 C 180.312 -0.506793 5.32293 0
M  V30 1923 C 181.612 1.64832 4.95608 0
M  V30 1924 H 183.306 1.20462 2.74097 0
M  V30 1925 H 180.852 0.580695 1.31772 0
M  V30 1926 H 182.805 -0.791395 4.13902 0
M  V30 1927 H 181.529 -1.28964 3.0006 0
M  V30 1928 H 180.188 0.760903 3.58617 0
M  V30 1929 H 179.836 -1.37519 4.83836 0
M  V30 1930 H 179.536 0.0415828 5.87585 0
M  V30 1931 H 181.06 -0.875764 6.04287 0
M  V30 1932 H 182.474 1.34646 5.57264 0
M  V30 1933 H 180.871 2.13688 5.60765 0
M  V30 1934 H 181.941 2.39284 4.21748 0
M  V30 1935 N 183.284 -1.43765 0.645699 0
M  V30 1936 C 184.512 -2.06253 0.163556 0
M  V30 1937 C 184.927 -1.48352 -1.16778 0
M  V30 1938 O 184.284 -0.611932 -1.71935 0
M  V30 1939 C 184.335 -3.61453 0.0583186 0
M  V30 1940 O 184.056 -4.172 1.33702 0
M  V30 1941 C 185.557 -4.41002 -0.450795 0
M  V30 1942 H 182.777 -0.665413 0.0864077 0
M  V30 1943 H 185.321 -1.84396 0.884222 0
M  V30 1944 H 183.476 -3.82522 -0.612865 0
M  V30 1945 H 183.89 -5.10791 1.19131 0
M  V30 1946 H 185.364 -5.49966 -0.473403 0
M  V30 1947 H 185.841 -4.13488 -1.48068 0
M  V30 1948 H 186.447 -4.24886 0.187637 0
M  V30 1949 N 184.763 -0.387143 -1.52771 0
M  V30 1950 C 185.693 0.440551 -2.29306 0
M  V30 1951 C 186.674 1.06535 -1.32606 0
M  V30 1952 O 187.859 1.07853 -1.61497 0
M  V30 1953 C 184.989 1.56919 -3.09829 0
M  V30 1954 C 183.943 1.07054 -4.14395 0
M  V30 1955 C 183.269 2.29109 -4.83129 0
M  V30 1956 C 184.569 0.140015 -5.22112 0
M  V30 1957 H 186.263 -0.198026 -2.98744 0
M  V30 1958 H 183.809 -0.09668 -1.43675 0
M  V30 1959 H 185.762 2.15503 -3.62128 0
M  V30 1960 H 184.486 2.23532 -2.3812 0
M  V30 1961 H 183.145 0.507247 -3.63074 0
M  V30 1962 H 182.793 2.94227 -4.0797 0
M  V30 1963 H 182.493 1.96406 -5.53804 0
M  V30 1964 H 184.017 2.88339 -5.38231 0
M  V30 1965 H 185.431 0.633978 -5.69784 0
M  V30 1966 H 183.828 -0.0971485 -6.00021 0
M  V30 1967 H 184.898 -0.811711 -4.78058 0
M  V30 1968 N 186.241 1.57166 -0.116904 0
M  V30 1969 C 187.189 2.16457 0.851418 0
M  V30 1970 C 188.183 1.11323 1.27686 0
M  V30 1971 O 189.389 1.2963 1.24884 0
M  V30 1972 H 185.764 0.69271 0.292672 0
M  V30 1973 H 187.735 2.96605 0.32685 0
M  V30 1974 C 186.484 2.77689 2.09246 0
M  V30 1975 H 185.807 3.58285 1.77402 0
M  V30 1976 H 187.247 3.22716 2.7501 0
M  V30 1977 C 185.706 1.74667 2.88085 0
M  V30 1978 O 186.236 1.19877 3.83396 0
M  V30 1979 N 184.442 1.44656 2.52038 0
M  V30 1980 H 183.989 1.89402 1.74599 0
M  V30 1981 H 183.947 0.759675 3.05084 0
M  V30 1982 N 187.719 -0.156864 1.56817 0
M  V30 1983 C 188.996 -0.899244 1.73704 0
M  V30 1984 C 189.376 -1.99771 0.682254 0
M  V30 1985 O 188.724 -2.26515 -0.300522 0
M  V30 1986 C 188.934 -1.45075 3.17418 0
M  V30 1987 C 190.282 -1.91802 3.7881 0
M  V30 1988 O 191.306 -1.54838 3.20786 0
M  V30 1989 O 190.165 -2.5994 4.80722 0
M  V30 1990 H 187.259 -0.424267 0.709878 0
M  V30 1991 H 189.805 -0.143561 1.69092 0
M  V30 1992 H 188.577 -0.660846 3.85679 0
M  V30 1993 H 188.2 -2.27021 3.26416 0
M  V30 1994 N 189.197 -1.51736 -0.425897 0
M  V30 1995 C 190.425 -1.68794 -1.1965 0
M  V30 1996 C 190.84 -0.390164 -1.84725 0
M  V30 1997 O 190.197 0.632376 -1.71194 0
M  V30 1998 C 190.248 -2.81174 -2.27208 0
M  V30 1999 O 189.969 -4.05925 -1.64793 0
M  V30 2000 C 191.47 -3.09599 -3.17275 0
M  V30 2001 H 188.69 -0.566128 -0.360194 0
M  V30 2002 H 191.234 -1.98211 -0.503249 0
M  V30 2003 H 189.389 -2.54324 -2.9223 0
M  V30 2004 H 189.803 -4.68423 -2.35967 0
M  V30 2005 H 191.277 -3.91786 -3.88854 0
M  V30 2006 H 191.754 -2.22468 -3.78688 0
M  V30 2007 H 192.36 -3.38151 -2.57941 0
M  V30 2008 N 190.675 0.682077 -1.42076 0
M  V30 2009 C 191.605 1.80796 -1.47767 0
M  V30 2010 C 192.586 1.6677 -0.334954 0
M  V30 2011 O 193.771 1.863 -0.548264 0
M  V30 2012 C 190.901 3.19038 -1.37229 0
M  V30 2013 C 189.855 3.47789 -2.49453 0
M  V30 2014 C 189.181 4.8553 -2.23975 0
M  V30 2015 C 190.481 3.45411 -3.91776 0
M  V30 2016 H 192.175 1.7629 -2.41997 0
M  V30 2017 H 189.721 0.846721 -1.16476 0
M  V30 2018 H 191.674 3.97528 -1.39821 0
M  V30 2019 H 190.398 3.24204 -0.394907 0
M  V30 2020 H 189.057 2.71657 -2.46166 0
M  V30 2021 H 188.705 4.87337 -1.24547 0
M  V30 2022 H 188.405 5.0573 -2.99184 0
M  V30 2023 H 189.929 5.66312 -2.28304 0
M  V30 2024 H 191.343 4.13882 -3.96705 0
M  V30 2025 H 189.74 3.77145 -4.66778 0
M  V30 2026 H 190.81 2.44122 -4.18966 0
M  V30 2027 N 192.153 1.28127 0.917671 0
M  V30 2028 C 193.083 1.14248 2.03641 0
M  V30 2029 C 194.064 0.0412748 1.7005 0
M  V30 2030 O 195.249 0.217566 1.92977 0
M  V30 2031 C 192.379 0.799431 3.37974 0
M  V30 2032 C 191.333 1.85497 3.85713 0
M  V30 2033 C 190.659 1.36565 5.16966 0
M  V30 2034 C 191.959 3.26085 4.08002 0
M  V30 2035 H 193.653 2.07835 2.15511 0
M  V30 2036 H 191.199 1.00064 1.03553 0
M  V30 2037 H 193.152 0.689114 4.15727 0
M  V30 2038 H 191.876 -0.172145 3.26146 0
M  V30 2039 H 190.535 1.95437 3.10161 0
M  V30 2040 H 190.183 0.383253 5.01538 0
M  V30 2041 H 189.883 2.07143 5.49878 0
M  V30 2042 H 191.407 1.26848 5.97279 0
M  V30 2043 H 192.821 3.19089 4.76293 0
M  V30 2044 H 191.218 3.94462 4.52238 0
M  V30 2045 H 192.288 3.70394 3.12948 0
M  V30 2046 N 193.631 -1.12557 1.10312 0
M  V30 2047 C 194.581 -2.16331 0.720076 0
M  V30 2048 C 195.565 -1.58616 -0.270115 0
M  V30 2049 O 196.757 -1.76823 -0.0790507 0
M  V30 2050 C 193.886 -3.42963 0.152113 0
M  V30 2051 C 192.972 -4.07663 1.16927 0
M  V30 2052 N 193.363 -4.47392 2.35953 0
M  V30 2053 C 191.661 -4.34425 1.0095 0
M  V30 2054 C 192.362 -4.97932 3.0073 0
M  V30 2055 N 191.338 -4.93358 2.28252 0
M  V30 2056 H 195.14 -2.44813 1.62616 0
M  V30 2057 H 192.654 -1.29449 0.980654 0
M  V30 2058 H 194.651 -4.16664 -0.14037 0
M  V30 2059 H 193.311 -3.1595 -0.748701 0
M  V30 2060 H 194.322 -4.39802 2.73486 0
M  V30 2061 H 190.999 -4.17177 0.164134 0
M  V30 2062 H 192.389 -5.38397 4.01969 0
M  V30 2063 N 195.109 -0.891671 -1.2995 0
M  V30 2064 C 196.525 -0.58662 -1.48428 0
M  V30 2065 C 196.725 0.873951 -1.81561 0
M  V30 2066 O 195.781 1.65471 -1.90724 0
M  V30 2067 C 197.094 -1.50553 -2.60296 0
M  V30 2068 C 198.642 -1.50988 -2.74175 0
M  V30 2069 C 199.117 -2.41488 -3.89163 0
M  V30 2070 N 200.608 -2.39489 -3.96483 0
M  V30 2071 C 201.343 -3.06223 -4.84784 0
M  V30 2072 N 200.839 -3.82206 -5.77833 0
M  V30 2073 N 202.632 -2.95421 -4.78208 0
M  V30 2074 H 194.783 -1.83644 -1.06718 0
M  V30 2075 H 197.046 -0.786455 -0.529332 0
M  V30 2076 H 196.752 -2.54581 -2.42654 0
M  V30 2077 H 196.626 -1.22008 -3.56923 0
M  V30 2078 H 199.013 -0.47708 -2.91218 0
M  V30 2079 H 199.094 -1.83567 -1.78148 0
M  V30 2080 H 198.738 -3.44857 -3.72876 0
M  V30 2081 H 198.668 -2.06222 -4.84541 0
M  V30 2082 H 201.159 -1.84278 -3.29924 0
M  V30 2083 H 201.472 -4.302 -6.41988 0
M  V30 2084 H 199.817 -3.86313 -5.77743 0
M  V30 2085 H 203.008 -2.35581 -4.04499 0
M  V30 2086 H 203.181 -3.47704 -5.46814 0
M  V30 2087 N 196.587 1.43421 -0.653314 0
M  V30 2088 C 197.833 2.02111 -0.166992 0
M  V30 2089 C 198.166 1.51423 1.21592 0
M  V30 2090 O 197.441 0.707389 1.8118 0
M  V30 2091 C 197.724 3.5966 -0.177948 0
M  V30 2092 C 197.577 4.20579 -1.59478 0
M  V30 2093 C 198.896 4.37413 0.4856 0
M  V30 2094 H 196.015 0.734374 -0.0621557 0
M  V30 2095 H 198.657 1.70717 -0.834016 0
M  V30 2096 H 196.807 3.86537 0.390032 0
M  V30 2097 H 198.479 4.04732 -2.21336 0
M  V30 2098 H 196.722 3.77226 -2.14204 0
M  V30 2099 H 197.393 5.29665 -1.5543 0
M  V30 2100 H 199.869 4.161 0.00234528 0
M  V30 2101 H 198.745 5.47075 0.447207 0
M  V30 2102 H 199.006 4.13672 1.55974 0
M  V30 2103 N 198.065 0.39524 1.52563 0
M  V30 2104 C 199.311 -0.185318 2.01952 0
M  V30 2105 C 199.644 -1.45964 1.28095 0
M  V30 2106 O 198.919 -1.90689 0.38315 0
M  V30 2107 C 199.202 -0.447193 3.57312 0
M  V30 2108 C 199.055 0.842828 4.41833 0
M  V30 2109 C 200.374 -1.23529 4.22408 0
M  V30 2110 H 197.493 -0.0658788 0.73405 0
M  V30 2111 H 200.135 0.525975 1.82575 0
M  V30 2112 H 198.285 -1.05312 3.73954 0
M  V30 2113 H 199.957 1.4795 4.36931 0
M  V30 2114 H 198.2 1.45686 4.08605 0
M  V30 2115 H 198.871 0.614165 5.48573 0
M  V30 2116 H 201.347 -0.722445 4.0978 0
M  V30 2117 H 200.223 -1.38727 5.3108 0
M  V30 2118 H 200.484 -2.25213 3.80436 0
M  V30 2119 N 199.544 -1.57102 0.125237 0
M  V30 2120 C 200.955 -1.82384 -0.399142 0
M  V30 2121 C 201.306 -1.04276 -1.66195 0
M  V30 2122 O 200.431 -0.281269 -2.14564 0
M  V30 2123 C 201.026 -3.30821 -0.730932 0
M  V30 2124 C 199.585 -3.56762 -1.19992 0
M  V30 2125 C 198.732 -2.7649 -0.211792 0
M  V30 2126 H 201.683 -1.54786 0.350277 0
M  V30 2127 H 201.704 -3.4579 -1.58775 0
M  V30 2128 H 201.216 -3.87643 0.188345 0
M  V30 2129 H 199.317 -3.05305 -2.13588 0
M  V30 2130 H 199.43 -4.65317 -1.14093 0
M  V30 2131 H 197.794 -2.4489 -0.700085 0
M  V30 2132 H 198.577 -3.36073 0.700691 0
M  V30 2133 N 201.022 0.148545 -1.56898 0
M  V30 2134 C 201.972 1.1886 -1.94567 0
M  V30 2135 C 202.956 1.3863 -0.816735 0
M  V30 2136 O 204.148 1.40218 -1.08018 0
M  V30 2137 C 201.277 2.52262 -2.32849 0
M  V30 2138 C 200.363 2.36092 -3.52309 0
M  V30 2139 N 200.754 1.89674 -4.6889 0
M  V30 2140 C 199.052 2.66848 -3.57363 0
M  V30 2141 C 199.753 1.86511 -5.50989 0
M  V30 2142 N 198.729 2.29766 -4.92655 0
M  V30 2143 H 202.531 0.821793 -2.82177 0
M  V30 2144 H 200.045 0.356615 -1.58436 0
M  V30 2145 H 202.042 3.27447 -2.58039 0
M  V30 2146 H 200.702 2.89727 -1.46589 0
M  V30 2147 H 201.713 1.59663 -4.92674 0
M  V30 2148 H 198.39 3.08198 -2.81639 0
M  V30 2149 H 199.78 1.52128 -6.54452 0
M  V30 2150 N 202.5 1.5196 0.417844 0
M  V30 2151 C 203.748 1.65263 1.16329 0
M  V30 2152 C 204.069 0.380634 1.91249 0
M  V30 2153 O 203.339 -0.604214 1.86349 0
M  V30 2154 H 201.919 0.60912 0.432414 0
M  V30 2155 H 204.581 1.88969 0.477162 0
M  V30 2156 H 203.677 2.4896 1.88217 0
M  V30 2157 N 203.978 -0.674533 1.42435 0
M  V30 2158 C 204.91 -1.80005 1.41883 0
M  V30 2159 C 205.923 -1.59667 0.31787 0
M  V30 2160 O 207.112 -1.68781 0.580973 0
M  V30 2161 C 204.212 -3.17114 1.19549 0
M  V30 2162 C 203.385 -3.64299 2.42084 0
M  V30 2163 C 202.444 -4.80142 2.15291 0
M  V30 2164 O 201.47 -4.90673 2.88493 0
M  V30 2165 N 202.672 -5.68869 1.1562 0
M  V30 2166 H 205.437 -1.80964 2.38898 0
M  V30 2167 H 202.998 -0.857633 1.37318 0
M  V30 2168 H 204.99 -3.92267 0.995417 0
M  V30 2169 H 203.56 -3.11053 0.310569 0
M  V30 2170 H 202.78 -2.79822 2.77657 0
M  V30 2171 H 204.068 -3.92567 3.23679 0
M  V30 2172 H 203.466 -5.63012 0.550765 0
M  V30 2173 H 202.023 -6.43833 1.016 0
M  V30 2174 N 205.456 -1.28612 -0.910864 0
M  V30 2175 C 206.681 -1.1891 -1.69927 0
M  V30 2176 C 207.106 0.248372 -1.86453 0
M  V30 2177 O 206.464 1.17961 -1.37676 0
M  V30 2178 C 206.512 -1.89578 -3.06745 0
M  V30 2179 O 205.616 -1.20521 -3.94396 0
M  V30 2180 H 204.957 -0.412632 -0.520222 0
M  V30 2181 H 207.487 -1.69985 -1.1387 0
M  V30 2182 H 207.497 -1.97597 -3.56958 0
M  V30 2183 H 206.172 -2.94136 -2.94035 0
M  V30 2184 H 204.749 -1.20684 -3.52831 0
M  V30 2185 N 206.934 1.1197 -1.10907 0
M  V30 2186 C 208.181 1.83588 -0.854507 0
M  V30 2187 C 208.509 1.84357 0.6199 0
M  V30 2188 O 207.764 1.28809 1.47332 0
M  V30 2189 C 208.063 3.30749 -1.35425 0
M  V30 2190 C 207.729 3.50146 -2.84093 0
M  V30 2191 C 206.391 3.55148 -3.2469 0
M  V30 2192 C 208.743 3.56857 -3.79872 0
M  V30 2193 C 206.071 3.6441 -4.59806 0
M  V30 2194 C 208.423 3.6765 -5.14797 0
M  V30 2195 C 207.087 3.7091 -5.54961 0
M  V30 2196 H 206.357 0.671795 -0.312686 0
M  V30 2197 H 209.004 1.32091 -1.38652 0
M  V30 2198 H 207.309 3.84703 -0.742361 0
M  V30 2199 H 209.006 3.8464 -1.1337 0
M  V30 2200 H 205.596 3.46919 -2.51685 0
M  V30 2201 H 209.78 3.52258 -3.49611 0
M  V30 2202 H 205.036 3.65208 -4.9034 0
M  V30 2203 H 209.21 3.71786 -5.88853 0
M  V30 2204 H 206.837 3.7784 -6.59652 0
M  V30 2205 N 208.412 0.89855 1.29475 0
M  V30 2206 C 209.344 0.332726 2.26772 0
M  V30 2207 C 210.357 -0.520323 1.54261 0
M  V30 2208 O 211.546 -0.337668 1.75277 0
M  V30 2209 C 208.646 -0.544334 3.345 0
M  V30 2210 C 207.819 0.282728 4.36485 0
M  V30 2211 C 206.878 -0.526982 5.23555 0
M  V30 2212 O 205.904 0.0551165 5.69173 0
M  V30 2213 N 207.106 -1.83331 5.5079 0
M  V30 2214 H 209.871 1.16897 2.75962 0
M  V30 2215 H 207.432 0.762919 1.42798 0
M  V30 2216 H 209.424 -1.09239 3.89678 0
M  V30 2217 H 207.994 -1.28127 2.85136 0
M  V30 2218 H 207.214 1.01221 3.80983 0
M  V30 2219 H 208.502 0.84918 5.01664 0
M  V30 2220 H 207.9 -2.32898 5.15534 0
M  V30 2221 H 206.457 -2.32852 6.08788 0
M  V30 2222 N 209.89 -1.43072 0.660911 0
M  V30 2223 C 210.838 -2.32569 -0.0378199 0
M  V30 2224 C 211.832 -1.49046 -0.805092 0
M  V30 2225 O 213.038 -1.65206 -0.714624 0
M  V30 2226 H 209.413 -0.75136 -0.031019 0
M  V30 2227 H 211.384 -2.89216 0.734609 0
M  V30 2228 C 210.133 -3.33453 -0.985124 0
M  V30 2229 H 209.456 -3.97752 -0.404147 0
M  V30 2230 H 210.896 -3.98691 -1.44297 0
M  V30 2231 C 209.355 -2.64642 -2.08486 0
M  V30 2232 O 209.885 -2.46776 -3.16961 0
M  V30 2233 N 208.091 -2.23891 -1.8526 0
M  V30 2234 H 207.638 -2.38621 -0.970449 0
M  V30 2235 H 207.596 -1.78181 -2.59034 0
M  V30 2236 N 211.368 -0.403325 -1.52352 0
M  V30 2237 C 212.616 0.174003 -2.0135 0
M  V30 2238 C 212.937 1.46139 -1.29106 0
M  V30 2239 O 212.207 1.91448 -0.415253 0
M  V30 2240 H 210.787 0.0672911 -0.743963 0
M  V30 2241 H 213.449 -0.538235 -1.87321 0
M  V30 2242 H 212.545 0.374254 -3.09848 0
M  V30 2243 N 212.846 1.57033 -0.133567 0
M  V30 2244 C 214.076 1.99754 0.527429 0
M  V30 2245 C 214.484 1.01245 1.59832 0
M  V30 2246 O 213.827 -0.000645496 1.837 0
M  V30 2247 C 213.889 3.38903 1.19939 0
M  V30 2248 C 213.553 4.56174 0.274709 0
M  V30 2249 C 214.55 5.17563 -0.492398 0
M  V30 2250 C 212.235 5.01972 0.18153 0
M  V30 2251 C 214.229 6.2315 -1.34027 0
M  V30 2252 C 211.916 6.07416 -0.669958 0
M  V30 2253 C 212.914 6.67874 -1.42947 0
M  V30 2254 O 212.602 7.71279 -2.2668 0
M  V30 2255 H 212.334 0.660702 0.142999 0
M  V30 2256 H 214.888 2.04207 -0.221099 0
M  V30 2257 H 213.118 3.31248 1.99528 0
M  V30 2258 H 214.807 3.65818 1.75875 0
M  V30 2259 H 215.573 4.83087 -0.430367 0
M  V30 2260 H 211.452 4.54652 0.762422 0
M  V30 2261 H 214.996 6.70268 -1.93357 0
M  V30 2262 H 210.893 6.41321 -0.73333 0
M  V30 2263 H 211.661 7.88441 -2.1978 0
M  V30 2264 N 214.325 -0.140222 1.56975 0
M  V30 2265 C 215.288 -1.15689 1.97861 0
M  V30 2266 C 216.288 -1.3549 0.865974 0
M  V30 2267 O 217.478 -1.32367 1.13246 0
M  V30 2268 C 214.61 -2.51582 2.30042 0
M  V30 2269 H 215.803 -0.805971 2.88867 0
M  V30 2270 H 213.356 -0.383801 1.51515 0
M  V30 2271 H 214.091 -2.91632 1.41849 0
M  V30 2272 H 213.876 -2.38569 3.11171 0
M  V30 2273 H 215.366 -3.24792 2.62488 0
M  V30 2274 N 215.803 -1.52179 -0.40978 0
M  V30 2275 C 217.051 -1.65878 -1.15451 0
M  V30 2276 C 217.372 -0.390771 -1.91044 0
M  V30 2277 O 216.642 0.594323 -1.86667 0
M  V30 2278 H 215.222 -0.611405 -0.429177 0
M  V30 2279 H 217.884 -1.89219 -0.467134 0
M  V30 2280 H 216.98 -2.49954 -1.86894 0
M  V30 2281 N 217.281 0.66697 -1.42791 0
M  V30 2282 C 218.53 1.42278 -1.42968 0
M  V30 2283 C 218.843 1.9553 -0.0524489 0
M  V30 2284 O 220.049 2.71414 0.068363 0
M  V30 2285 C 218.505 2.57418 -2.51524 0
M  V30 2286 C 218.113 2.10832 -3.9529 0
M  V30 2287 C 219.857 3.34878 -2.60877 0
M  V30 2288 C 217.764 3.23101 -4.95338 0
M  V30 2289 H 216.694 0.534533 -0.531781 0
M  V30 2290 H 219.345 0.721302 -1.68729 0
M  V30 2291 H 217.727 3.29971 -2.18941 0
M  V30 2292 H 218.901 1.4538 -4.37266 0
M  V30 2293 H 217.216 1.46289 -3.89857 0
M  V30 2294 H 219.813 4.18505 -3.32802 0
M  V30 2295 H 220.156 3.81993 -1.6549 0
M  V30 2296 H 220.689 2.69398 -2.92693 0
M  V30 2297 H 217.428 2.80969 -5.9223 0
M  V30 2298 H 216.948 3.87309 -4.57987 0
M  V30 2299 H 218.627 3.88447 -5.17415 0
M  V30 2300 N 218.759 1.29093 0.90403 0
M  V30 2301 C 220.006 1.16813 1.65411 0
M  V30 2302 C 220.334 -0.28128 1.92455 0
M  V30 2303 O 219.589 -1.22006 1.53013 0
M  V30 2304 C 219.888 1.92224 3.01305 0
M  V30 2305 C 219.554 3.41968 2.93885 0
M  V30 2306 C 218.216 3.82807 2.91569 0
M  V30 2307 C 220.568 4.37409 2.83413 0
M  V30 2308 C 217.896 5.1741 2.76594 0
M  V30 2309 C 220.248 5.72097 2.69977 0
M  V30 2310 C 218.912 6.12199 2.66024 0
M  V30 2311 H 218.182 0.42745 0.605283 0
M  V30 2312 H 220.829 1.59981 1.05254 0
M  V30 2313 H 219.134 1.41635 3.65304 0
M  V30 2314 H 220.831 1.80131 3.58265 0
M  V30 2315 H 217.421 3.09504 2.96488 0
M  V30 2316 H 221.605 4.06813 2.84283 0
M  V30 2317 H 216.861 5.47596 2.71935 0
M  V30 2318 H 221.035 6.45704 2.60844 0
M  V30 2319 H 218.662 7.16448 2.54178 0
M  V30 2320 N 220.237 -1.11381 1.11499 0
M  V30 2321 C 221.187 -2.15555 0.74298 0
M  V30 2322 C 222.171 -1.58894 -0.253276 0
M  V30 2323 O 223.363 -1.76897 -0.0602918 0
M  V30 2324 C 220.492 -3.42782 0.188481 0
M  V30 2325 C 219.578 -4.064 1.21244 0
M  V30 2326 N 219.969 -4.44864 2.40685 0
M  V30 2327 C 218.267 -4.3333 1.05552 0
M  V30 2328 C 218.968 -4.94715 3.05994 0
M  V30 2329 N 217.944 -4.90909 2.33472 0
M  V30 2330 H 221.746 -2.43074 1.65203 0
M  V30 2331 H 219.26 -1.28401 0.994329 0
M  V30 2332 H 221.257 -4.16789 -0.0961693 0
M  V30 2333 H 219.917 -3.16727 -0.715149 0
M  V30 2334 H 220.928 -4.36876 2.78136 0
M  V30 2335 H 217.605 -4.1698 0.208372 0
M  V30 2336 H 218.995 -5.34103 4.07656 0
M  V30 2337 N 221.715 -0.905404 -1.28997 0
M  V30 2338 C 222.962 -0.534248 -1.95325 0
M  V30 2339 C 223.29 0.920535 -1.71337 0
M  V30 2340 O 222.545 1.66861 -1.02254 0
M  V30 2341 C 222.844 -0.779906 -3.48787 0
M  V30 2342 C 222.51 -2.21293 -3.92861 0
M  V30 2343 C 221.172 -2.60475 -4.04606 0
M  V30 2344 C 223.524 -3.14587 -4.15553 0
M  V30 2345 C 220.852 -3.9212 -4.36416 0
M  V30 2346 C 223.204 -4.45787 -4.48839 0
M  V30 2347 C 221.868 -4.84834 -4.58794 0
M  V30 2348 H 221.138 -0.195495 -0.714747 0
M  V30 2349 H 223.785 -1.14514 -1.53488 0
M  V30 2350 H 222.09 -0.0861365 -3.91705 0
M  V30 2351 H 223.787 -0.472029 -3.98212 0
M  V30 2352 H 220.377 -1.89887 -3.84241 0
M  V30 2353 H 224.561 -2.85528 -4.0594 0
M  V30 2354 H 219.817 -4.22086 -4.42327 0
M  V30 2355 H 223.991 -5.18098 -4.65346 0
M  V30 2356 H 221.618 -5.86877 -4.83197 0
M  V30 2357 N 223.193 1.4272 -0.668489 0
M  V30 2358 C 224.125 2.2914 0.052613 0
M  V30 2359 C 225.138 1.43339 0.771857 0
M  V30 2360 O 226.327 1.67123 0.627067 0
M  V30 2361 C 223.427 3.20618 1.09804 0
M  V30 2362 C 222.6 4.35039 0.45389 0
M  V30 2363 C 221.659 5.07282 1.39825 0
M  V30 2364 O 220.685 5.62024 0.900978 0
M  V30 2365 N 221.887 5.12206 2.73176 0
M  V30 2366 H 224.652 2.91668 -0.689209 0
M  V30 2367 H 222.213 1.53577 -0.512422 0
M  V30 2368 H 224.205 3.65815 1.73094 0
M  V30 2369 H 222.775 2.59585 1.74167 0
M  V30 2370 H 221.995 3.92567 -0.358396 0
M  V30 2371 H 223.283 5.088 0.00486972 0
M  V30 2372 H 222.681 4.6913 3.16122 0
M  V30 2373 H 221.238 5.61069 3.31729 0
M  V30 2374 N 224.671 0.411399 1.52136 0
M  V30 2375 C 225.601 -0.404015 2.29978 0
M  V30 2376 C 226.582 -1.04412 1.34284 0
M  V30 2377 O 227.767 -1.0527 1.63192 0
M  V30 2378 C 224.897 -1.5197 3.12286 0
M  V30 2379 C 223.851 -1.00448 4.16046 0
M  V30 2380 C 223.177 -2.21393 4.86712 0
M  V30 2381 C 224.477 -0.0569336 5.22269 0
M  V30 2382 H 226.171 0.245529 2.98392 0
M  V30 2383 H 223.717 0.119525 1.43503 0
M  V30 2384 H 225.67 -2.09715 3.6551 0
M  V30 2385 H 224.394 -2.19716 2.41646 0
M  V30 2386 H 223.053 -0.449421 3.63835 0
M  V30 2387 H 222.701 -2.87699 4.12599 0
M  V30 2388 H 222.401 -1.87571 5.56858 0
M  V30 2389 H 223.925 -2.7974 5.4275 0
M  V30 2390 H 225.339 -0.54325 5.7072 0
M  V30 2391 H 223.736 0.192594 5.99791 0
M  V30 2392 H 224.806 0.887663 4.76706 0
M  V30 2393 N 226.149 -1.5696 0.141893 0
M  V30 2394 C 227.395 -1.97034 -0.504884 0
M  V30 2395 C 227.75 -1.02518 -1.62812 0
M  V30 2396 O 227.043 -0.0592943 -1.91508 0
M  V30 2397 C 227.237 -3.41242 -1.06249 0
M  V30 2398 C 227.066 -4.497 0.00519653 0
M  V30 2399 C 225.836 -5.03338 0.444873 0
M  V30 2400 C 228.034 -5.08122 0.794767 0
M  V30 2401 N 226.016 -5.95395 1.49593 0
M  V30 2402 C 227.387 -5.96339 1.69645 0
M  V30 2403 C 229.442 -4.9071 0.843122 0
M  V30 2404 C 228.145 -6.69009 2.64233 0
M  V30 2405 C 230.171 -5.64077 1.77681 0
M  V30 2406 C 229.533 -6.51999 2.66603 0
M  V30 2407 H 225.632 -0.766745 -0.153707 0
M  V30 2408 H 228.216 -1.93273 0.235313 0
M  V30 2409 H 226.387 -3.45606 -1.77231 0
M  V30 2410 H 228.119 -3.68389 -1.67546 0
M  V30 2411 H 224.874 -4.73576 0.0480959 0
M  V30 2412 H 225.298 -6.46128 2.02107 0
M  V30 2413 H 229.94 -4.22459 0.169732 0
M  V30 2414 H 227.658 -7.36492 3.32575 0
M  V30 2415 H 231.244 -5.52602 1.81996 0
M  V30 2416 H 230.124 -7.07775 3.37675 0
M  V30 2417 N 227.627 0.131896 -1.57047 0
M  V30 2418 C 228.559 1.1878 -1.9602 0
M  V30 2419 C 229.572 1.38363 -0.857875 0
M  V30 2420 O 230.761 1.37666 -1.13623 0
M  V30 2421 C 227.861 2.55008 -2.23213 0
M  V30 2422 C 227.034 2.56201 -3.54513 0
M  V30 2423 C 226.093 3.7408 -3.70069 0
M  V30 2424 O 225.119 3.58258 -4.42312 0
M  V30 2425 N 226.321 4.92137 -3.07866 0
M  V30 2426 H 229.086 0.85639 -2.87204 0
M  V30 2427 H 226.647 0.321309 -1.5868 0
M  V30 2428 H 228.639 3.32404 -2.30846 0
M  V30 2429 H 227.209 2.80382 -1.3822 0
M  V30 2430 H 226.429 1.64613 -3.58185 0
M  V30 2431 H 227.717 2.54043 -4.4084 0
M  V30 2432 H 227.115 5.07895 -2.49116 0
M  V30 2433 H 225.672 5.67254 -3.21039 0
M  V30 2434 N 229.106 1.52395 0.401703 0
M  V30 2435 C 230.353 1.66817 1.14796 0
M  V30 2436 C 230.681 0.401772 1.90305 0
M  V30 2437 O 229.936 -0.615487 1.85769 0
M  V30 2438 C 230.235 2.84578 2.16217 0
M  V30 2439 C 229.901 4.22513 1.5746 0
M  V30 2440 C 228.563 4.60029 1.41161 0
M  V30 2441 C 230.915 5.0844 1.14622 0
M  V30 2442 C 228.243 5.81144 0.80552 0
M  V30 2443 C 230.595 6.30167 0.55428 0
M  V30 2444 C 229.259 6.66426 0.378482 0
M  V30 2445 H 228.529 0.610428 0.420069 0
M  V30 2446 H 231.176 1.86512 0.434212 0
M  V30 2447 H 229.481 2.59248 2.93764 0
M  V30 2448 H 231.178 2.92933 2.73845 0
M  V30 2449 H 227.768 3.92953 1.71132 0
M  V30 2450 H 231.952 4.80034 1.26021 0
M  V30 2451 H 227.208 6.07855 0.657399 0
M  V30 2452 H 231.382 6.96071 0.213983 0
M  V30 2453 H 229.009 7.60143 -0.0932606 0
M  V30 2454 N 230.584 -0.659388 1.43143 0
M  V30 2455 C 231.832 -1.41654 1.44147 0
M  V30 2456 C 232.153 -1.94893 0.0645739 0
M  V30 2457 O 231.423 -1.74044 -0.899198 0
M  V30 2458 H 230.003 -0.525708 0.530697 0
M  V30 2459 H 232.665 -0.778097 1.78694 0
M  V30 2460 H 231.761 -2.26195 2.1504 0
M  V30 2461 N 232.062 -1.29571 -0.897171 0
M  V30 2462 C 232.972 -1.16808 -2.03453 0
M  V30 2463 C 233.988 -0.0907471 -1.73763 0
M  V30 2464 O 235.164 -0.303312 -1.99103 0
M  V30 2465 C 232.229 -0.848264 -3.36163 0
M  V30 2466 C 231.29 -2.0097 -3.79354 0
M  V30 2467 C 230.523 -1.70505 -5.05731 0
M  V30 2468 O 230.746 -0.62718 -5.66941 0
M  V30 2469 O 229.68 -2.5538 -5.45036 0
M  V30 2470 H 233.506 -2.12325 -2.17144 0
M  V30 2471 H 231.091 -1.09047 -1.02123 0
M  V30 2472 H 232.973 -0.684581 -4.15802 0
M  V30 2473 H 231.648 0.0771071 -3.23608 0
M  V30 2474 H 230.555 -2.22863 -3.00471 0
M  V30 2475 H 231.888 -2.91636 -3.96496 0
M  V30 2476 N 233.54 1.10788 -1.12088 0
M  V30 2477 C 234.786 1.8313 -0.885148 0
M  V30 2478 C 235.141 1.8336 0.582839 0
M  V30 2479 O 234.434 1.28062 1.42516 0
M  V30 2480 C 234.628 3.29294 -1.38926 0
M  V30 2481 C 234.457 3.43302 -2.90472 0
M  V30 2482 C 233.227 3.55928 -3.58669 0
M  V30 2483 C 235.425 3.37014 -3.88492 0
M  V30 2484 N 233.407 3.58475 -4.98366 0
M  V30 2485 C 234.778 3.46263 -5.14298 0
M  V30 2486 C 236.833 3.20589 -3.80955 0
M  V30 2487 C 235.536 3.4078 -6.33452 0
M  V30 2488 C 237.562 3.16427 -4.99628 0
M  V30 2489 C 236.924 3.26253 -6.2429 0
M  V30 2490 H 233.023 0.685054 -0.377128 0
M  V30 2491 H 235.607 1.3251 -1.4265 0
M  V30 2492 H 233.778 3.78416 -0.874999 0
M  V30 2493 H 235.51 3.89578 -1.09596 0
M  V30 2494 H 232.265 3.58779 -3.09151 0
M  V30 2495 H 232.689 3.6337 -5.71219 0
M  V30 2496 H 237.331 3.11873 -2.85474 0
M  V30 2497 H 235.049 3.48263 -7.29204 0
M  V30 2498 H 238.635 3.04874 -4.95523 0
M  V30 2499 H 237.515 3.2303 -7.14578 0
M  V30 2500 N 235.018 0.912232 1.28515 0
M  V30 2501 C 236.264 0.545405 1.95328 0
M  V30 2502 C 236.597 -0.908313 1.71649 0
M  V30 2503 O 235.872 -1.64575 1.03659 0
M  V30 2504 C 236.155 0.853483 3.4984 0
M  V30 2505 C 236.008 2.35982 3.82926 0
M  V30 2506 C 237.327 0.348589 4.38717 0
M  V30 2507 H 234.446 0.199626 0.709449 0
M  V30 2508 H 237.088 1.1412 1.5191 0
M  V30 2509 H 235.238 0.34643 3.86952 0
M  V30 2510 H 236.91 2.93738 3.55691 0
M  V30 2511 H 235.153 2.81543 3.30024 0
M  V30 2512 H 235.824 2.52593 4.90816 0
M  V30 2513 H 238.3 0.78294 4.08668 0
M  V30 2514 H 237.176 0.593242 5.45685 0
M  V30 2515 H 237.437 -0.751049 4.35674 0
M  V30 2516 N 236.496 -1.42363 0.676048 0
M  V30 2517 C 237.773 -1.95183 0.127726 0
M  V30 2518 C 238.153 -1.61641 -1.35777 0
M  V30 2519 O 237.501 -0.913216 -2.09458 0
M  V30 2520 C 237.711 -3.46721 0.398199 0
M  V30 2521 C 239.059 -4.23427 0.315383 0
M  V30 2522 O 240.083 -3.54649 0.332016 0
M  V30 2523 O 238.942 -5.45888 0.25865 0
M  V30 2524 H 236.036 -0.826992 0.00359427 0
M  V30 2525 H 238.582 -1.52184 0.750864 0
M  V30 2526 H 237.354 -3.64344 1.4272 0
M  V30 2527 H 236.977 -3.96769 -0.256885 0
M  V30 2528 N 237.974 -0.419461 -1.51915 0
M  V30 2529 C 239.22 0.153166 -2.02221 0
M  V30 2530 C 239.553 1.43907 -1.30401 0
M  V30 2531 O 238.828 1.90055 -0.413438 0
M  V30 2532 C 239.111 0.390291 -3.57979 0
M  V30 2533 C 238.964 -0.913014 -4.40436 0
M  V30 2534 C 240.283 1.16794 -4.2432 0
M  V30 2535 H 237.402 0.0541924 -0.735005 0
M  V30 2536 H 240.044 -0.554955 -1.81715 0
M  V30 2537 H 238.194 0.993491 -3.75582 0
M  V30 2538 H 239.866 -1.54882 -4.34522 0
M  V30 2539 H 238.109 -1.52168 -4.06236 0
M  V30 2540 H 238.78 -0.701361 -5.47526 0
M  V30 2541 H 241.256 0.657161 -4.10878 0
M  V30 2542 H 240.132 1.3026 -5.3322 0
M  V30 2543 H 240.393 2.19132 -3.83971 0
M  V30 2544 N 239.452 1.56882 -0.150215 0
M  V30 2545 C 240.698 1.96518 0.500834 0
M  V30 2546 C 241.031 1.03527 1.64304 0
M  V30 2547 O 240.306 0.0782751 1.94342 0
M  V30 2548 C 240.589 3.45822 1.00395 0
M  V30 2549 C 240.442 4.49591 -0.136983 0
M  V30 2550 C 241.761 3.97704 1.88467 0
M  V30 2551 H 238.88 0.714535 0.18058 0
M  V30 2552 H 241.522 1.88577 -0.232091 0
M  V30 2553 H 239.672 3.5272 1.62851 0
M  V30 2554 H 241.344 4.5477 -0.77343 0
M  V30 2555 H 239.587 4.26441 -0.795652 0
M  V30 2556 H 240.258 5.51402 0.256815 0
M  V30 2557 H 242.734 3.93304 1.35834 0
M  V30 2558 H 241.61 5.0263 2.20578 0
M  V30 2559 H 241.871 3.40252 2.82279 0
M  V30 2560 N 240.93 -0.123565 1.57115 0
M  V30 2561 C 242.176 -0.833386 1.84885 0
M  V30 2562 C 242.509 -1.79742 0.735292 0
M  V30 2563 O 241.784 -1.92764 -0.25925 0
M  V30 2564 C 242.067 -1.5873 3.23228 0
M  V30 2565 C 241.92 -0.643183 4.45178 0
M  V30 2566 C 243.239 -2.54453 3.59085 0
M  V30 2567 H 240.358 -0.301518 0.6725 0
M  V30 2568 H 243 -0.097778 1.89748 0
M  V30 2569 H 241.15 -2.21438 3.19214 0
M  V30 2570 H 242.822 -0.0253015 4.61293 0
M  V30 2571 H 241.065 0.0456139 4.33776 0
M  V30 2572 H 241.736 -1.20724 5.38637 0
M  V30 2573 H 244.212 -2.01853 3.63861 0
M  V30 2574 H 243.088 -3.04238 4.5687 0
M  V30 2575 H 243.349 -3.36906 2.86264 0
M  V30 2576 N 242.408 -1.52605 -0.393616 0
M  V30 2577 C 243.685 -1.58001 -1.15304 0
M  V30 2578 C 244.065 -0.370385 -2.07825 0
M  V30 2579 O 243.413 0.641638 -2.19306 0
M  V30 2580 C 243.623 -2.91652 -1.91677 0
M  V30 2581 C 244.971 -3.4522 -2.47201 0
M  V30 2582 O 245.995 -2.93495 -2.01839 0
M  V30 2583 O 244.854 -4.35579 -3.3005 0
M  V30 2584 H 241.948 -0.637068 -0.527327 0
M  V30 2585 H 244.494 -1.64939 -0.399141 0
M  V30 2586 H 243.266 -3.71136 -1.23992 0
M  V30 2587 H 242.889 -2.88077 -2.74039 0
M  V30 2588 N 243.887 0.651787 -1.4349 0
M  V30 2589 C 245.164 1.40909 -1.35661 0
M  V30 2590 C 245.544 2.11099 -0.00511733 0
M  V30 2591 O 244.892 2.04892 1.0115 0
M  V30 2592 C 245.102 2.3926 -2.54078 0
M  V30 2593 C 246.45 3.03217 -2.97228 0
M  V30 2594 O 247.474 2.49588 -2.54135 0
M  V30 2595 O 246.333 4.00455 -3.71885 0
M  V30 2596 H 243.427 0.629625 -0.536191 0
M  V30 2597 H 245.973 0.678575 -1.55542 0
M  V30 2598 H 244.745 1.86352 -3.44076 0
M  V30 2599 H 244.368 3.1976 -2.36303 0
M  V30 2600 N 245.365 1.30045 0.890287 0
M  V30 2601 C 246.295 1.18541 2.01172 0
M  V30 2602 C 247.276 0.0773356 1.69924 0
M  V30 2603 O 248.461 0.25845 1.92473 0
M  V30 2604 C 245.591 0.870941 3.36202 0
M  V30 2605 C 244.545 1.93637 3.81692 0
M  V30 2606 C 243.871 1.475 5.13953 0
M  V30 2607 C 245.171 3.34666 4.00994 0
M  V30 2608 H 246.865 2.12359 2.11054 0
M  V30 2609 H 244.411 1.02238 1.01407 0
M  V30 2610 H 246.364 0.777141 4.14172 0
M  V30 2611 H 245.088 -0.102926 3.26438 0
M  V30 2612 H 243.747 2.01972 3.05946 0
M  V30 2613 H 243.395 0.489551 5.00612 0
M  V30 2614 H 243.095 2.1876 5.4536 0
M  V30 2615 H 244.619 1.39489 5.94454 0
M  V30 2616 H 246.033 3.2912 4.69417 0
M  V30 2617 H 244.43 4.03966 4.43769 0
M  V30 2618 H 245.5 3.76949 3.05021 0
M  V30 2619 N 246.843 -1.10192 1.12674 0
M  V30 2620 C 247.773 -2.18652 0.819362 0
M  V30 2621 C 248.754 -1.68698 -0.217915 0
M  V30 2622 O 249.939 -1.94041 -0.0785581 0
M  V30 2623 C 247.069 -3.46202 0.27594 0
M  V30 2624 C 246.023 -4.09444 1.24656 0
M  V30 2625 C 245.349 -5.31725 0.563258 0
M  V30 2626 C 246.649 -4.52863 2.60217 0
M  V30 2627 H 248.343 -2.44622 1.72628 0
M  V30 2628 H 245.889 -1.17571 0.831451 0
M  V30 2629 H 247.842 -4.21372 0.0486149 0
M  V30 2630 H 246.566 -3.1973 -0.666331 0
M  V30 2631 H 245.225 -3.36284 1.45974 0
M  V30 2632 H 244.873 -5.0153 -0.384235 0
M  V30 2633 H 244.573 -5.74991 1.21075 0
M  V30 2634 H 246.097 -6.09624 0.34503 0
M  V30 2635 H 247.511 -5.19294 2.42913 0
M  V30 2636 H 245.908 -5.06986 3.21068 0
M  V30 2637 H 246.978 -3.65656 3.18471 0
M  V30 2638 N 248.321 -0.919034 -1.28029 0
M  V30 2639 C 249.732 -0.600735 -1.76771 0
M  V30 2640 C 250.083 0.884024 -1.75156 0
M  V30 2641 O 249.208 1.69163 -1.34956 0
M  V30 2642 C 249.803 -1.08372 -3.21 0
M  V30 2643 C 248.362 -0.816248 -3.67443 0
M  V30 2644 C 247.509 -1.24742 -2.47658 0
M  V30 2645 H 250.46 -1.09974 -1.14418 0
M  V30 2646 H 250.481 -0.427512 -3.78091 0
M  V30 2647 H 249.993 -2.16437 -3.22144 0
M  V30 2648 H 248.094 0.250968 -3.71754 0
M  V30 2649 H 248.207 -1.4277 -4.57333 0
M  V30 2650 H 246.571 -0.666083 -2.45836 0
M  V30 2651 H 247.354 -2.33653 -2.51518 0
M  V30 2652 N 249.799 1.42003 -0.683588 0
M  V30 2653 C 251.048 2.00638 -0.206681 0
M  V30 2654 C 251.361 1.5472 1.19671 0
M  V30 2655 O 252.567 2.05833 1.77045 0
M  V30 2656 C 251.023 3.58487 -0.318632 0
M  V30 2657 C 250.631 4.1339 -1.72663 0
M  V30 2658 C 252.375 4.24384 0.0991141 0
M  V30 2659 C 250.282 5.63633 -1.79087 0
M  V30 2660 H 249.212 0.750408 -0.0735107 0
M  V30 2661 H 251.863 1.62624 -0.850048 0
M  V30 2662 H 250.245 3.94047 0.392781 0
M  V30 2663 H 251.419 3.89273 -2.46583 0
M  V30 2664 H 249.734 3.59976 -2.09299 0
M  V30 2665 H 252.331 5.34652 0.0713833 0
M  V30 2666 H 252.674 4.00505 1.13586 0
M  V30 2667 H 253.207 3.93816 -0.561599 0
M  V30 2668 H 249.946 5.92323 -2.80774 0
M  V30 2669 H 249.466 5.89714 -1.09535 0
M  V30 2670 H 251.145 6.28201 -1.5483 0
M  V30 2671 N 251.277 0.427512 1.51691 0
M  V30 2672 C 252.224 -0.388867 2.275 0
M  V30 2673 C 253.194 -1.02532 1.30677 0
M  V30 2674 O 254.379 -1.0461 1.59566 0
M  V30 2675 C 251.519 -1.48954 3.11298 0
M  V30 2676 C 250.632 -0.872194 4.23104 0
M  V30 2677 C 249.767 -1.94709 4.94228 0
M  V30 2678 C 248.806 -1.30766 5.97969 0
M  V30 2679 N 247.943 -2.32349 6.62539 0
M  V30 2680 H 252.783 0.263997 2.96828 0
M  V30 2681 H 250.32 0.142033 1.46413 0
M  V30 2682 H 252.278 -2.13887 3.58201 0
M  V30 2683 H 250.908 -2.11217 2.44105 0
M  V30 2684 H 249.96 -0.111419 3.80237 0
M  V30 2685 H 251.272 -0.365264 4.97461 0
M  V30 2686 H 250.426 -2.67327 5.44629 0
M  V30 2687 H 249.165 -2.48773 4.1948 0
M  V30 2688 H 248.17 -0.566902 5.4687 0
M  V30 2689 H 249.395 -0.774483 6.74669 0
M  V30 2690 H 247.341 -2.85511 5.90609 0
M  V30 2691 H 247.258 -1.8652 7.3263 0
M  V30 2692 H 248.526 -3.04481 7.17574 0
M  V30 2693 N 252.755 -1.56801 0.158532 0
M  V30 2694 C 254.032 -1.88131 -0.535357 0
M  V30 2695 C 254.412 -1.06638 -1.82186 0
M  V30 2696 O 253.76 -0.156533 -2.27963 0
M  V30 2697 C 253.97 -3.39949 -0.789653 0
M  V30 2698 C 255.318 -4.09416 -1.12533 0
M  V30 2699 O 256.342 -3.45194 -0.878622 0
M  V30 2700 O 255.201 -5.22855 -1.59014 0
M  V30 2701 H 252.295 -0.780143 -0.27442 0
M  V30 2702 H 254.841 -1.68564 0.19601 0
M  V30 2703 H 253.613 -3.91115 0.120353 0
M  V30 2704 H 253.236 -3.65084 -1.57479 0
M  V30 2705 N 254.233 0.115231 -1.57178 0
M  V30 2706 C 255.481 0.820727 -1.84685 0
M  V30 2707 C 255.802 1.80237 -0.744279 0
M  V30 2708 O 255.072 1.94529 0.231375 0
M  V30 2709 H 253.652 0.306084 -0.681411 0
M  V30 2710 H 256.314 0.101656 -1.94635 0
M  V30 2711 H 255.41 1.36366 -2.80733 0
M  V30 2712 N 255.711 1.52812 0.385517 0
M  V30 2713 C 256.658 1.77838 1.47113 0
M  V30 2714 C 257.628 0.621757 1.54024 0
M  V30 2715 O 258.813 0.861846 1.70226 0
M  V30 2716 C 255.953 1.95618 2.84302 0
M  V30 2717 C 255.066 3.23316 2.86515 0
M  V30 2718 C 254.201 3.31394 4.15152 0
M  V30 2719 C 253.24 4.53201 4.1143 0
M  V30 2720 N 252.377 4.58542 5.3168 0
M  V30 2721 H 257.217 2.70482 1.25073 0
M  V30 2722 H 254.754 1.34006 0.606692 0
M  V30 2723 H 256.712 2.03912 3.63972 0
M  V30 2724 H 255.342 1.06331 3.04784 0
M  V30 2725 H 254.394 3.24076 1.99195 0
M  V30 2726 H 255.706 4.13045 2.79634 0
M  V30 2727 H 254.86 3.3889 5.03228 0
M  V30 2728 H 253.599 2.39645 4.24761 0
M  V30 2729 H 252.604 4.45827 3.21742 0
M  V30 2730 H 253.829 5.46271 4.03442 0
M  V30 2731 H 251.775 3.69686 5.41912 0
M  V30 2732 H 251.692 5.42148 5.26889 0
M  V30 2733 H 252.96 4.70296 6.21644 0
M  V30 2734 N 257.189 -0.644168 1.43834 0
M  V30 2735 C 258.119 -1.76814 1.52509 0
M  V30 2736 C 259.1 -1.65823 0.379052 0
M  V30 2737 O 260.285 -1.84781 0.597466 0
M  V30 2738 C 257.415 -3.15288 1.4564 0
M  V30 2739 C 256.369 -3.41053 2.58586 0
M  V30 2740 C 255.695 -4.79421 2.36769 0
M  V30 2741 C 256.995 -3.34902 4.00797 0
M  V30 2742 H 258.689 -1.69812 2.46586 0
M  V30 2743 H 256.235 -0.815542 1.1868 0
M  V30 2744 H 258.188 -3.93681 1.50311 0
M  V30 2745 H 256.912 -3.23043 0.480725 0
M  V30 2746 H 255.571 -2.65035 2.53282 0
M  V30 2747 H 255.219 -4.83863 1.37424 0
M  V30 2748 H 254.919 -4.9762 3.12487 0
M  V30 2749 H 256.443 -5.6006 2.43238 0
M  V30 2750 H 257.857 -4.03218 4.07539 0
M  V30 2751 H 256.254 -3.64637 4.76613 0
M  V30 2752 H 257.324 -2.32928 4.25291 0
M  V30 2753 N 258.668 -1.30515 -0.883378 0
M  V30 2754 C 259.914 -1.19607 -1.63774 0
M  V30 2755 C 260.247 0.248314 -1.92606 0
M  V30 2756 O 259.522 1.17742 -1.54813 0
M  V30 2757 C 259.805 -2.02669 -2.97653 0
M  V30 2758 C 259.658 -3.55335 -2.75784 0
M  V30 2759 C 260.977 -1.86573 -3.98596 0
M  V30 2760 H 258.096 -0.435856 -0.594305 0
M  V30 2761 H 260.738 -1.60165 -1.02212 0
M  V30 2762 H 258.888 -1.68208 -3.50197 0
M  V30 2763 H 260.56 -3.99863 -2.30016 0
M  V30 2764 H 258.803 -3.79438 -2.1026 0
M  V30 2765 H 259.474 -4.08745 -3.70988 0
M  V30 2766 H 261.95 -2.16703 -3.55217 0
M  V30 2767 H 260.826 -2.47014 -4.90179 0
M  V30 2768 H 261.087 -0.825321 -4.34328 0
M  V30 2769 N 260.146 1.09593 -1.13257 0
M  V30 2770 C 261.393 1.81734 -0.893257 0
M  V30 2771 C 261.721 1.8563 0.580656 0
M  V30 2772 O 260.976 1.31906 1.44566 0
M  V30 2773 C 261.275 3.27802 -1.42411 0
M  V30 2774 C 260.941 3.44041 -2.91456 0
M  V30 2775 C 259.603 3.48181 -3.3215 0
M  V30 2776 C 261.955 3.48719 -3.87356 0
M  V30 2777 C 259.283 3.54575 -4.67433 0
M  V30 2778 C 261.635 3.56648 -5.2248 0
M  V30 2779 C 260.299 3.59055 -5.62704 0
M  V30 2780 H 259.569 0.665011 -0.326866 0
M  V30 2781 H 262.216 1.2912 -1.41422 0
M  V30 2782 H 260.521 3.83042 -0.823795 0
M  V30 2783 H 262.218 3.82149 -1.21503 0
M  V30 2784 H 258.808 3.41502 -2.58987 0
M  V30 2785 H 262.992 3.44763 -3.57004 0
M  V30 2786 H 258.248 3.54725 -4.97976 0
M  V30 2787 H 262.422 3.59212 -5.96607 0
M  V30 2788 H 260.049 3.63763 -6.67518 0
M  V30 2789 N 261.624 0.925811 1.2754 0
M  V30 2790 C 262.87 0.566092 1.94739 0
M  V30 2791 C 263.203 -0.890057 1.72603 0
M  V30 2792 O 262.478 -1.63467 1.05399 0
M  V30 2793 C 262.761 0.89054 3.48915 0
M  V30 2794 C 262.614 2.4003 3.80402 0
M  V30 2795 C 263.933 0.395101 4.38323 0
M  V30 2796 H 261.052 0.20714 0.707292 0
M  V30 2797 H 263.694 1.15725 1.50691 0
M  V30 2798 H 261.844 0.387452 3.86563 0
M  V30 2799 H 263.516 2.97494 3.52555 0
M  V30 2800 H 261.759 2.85028 3.2702 0
M  V30 2801 H 262.43 2.57785 4.8811 0
M  V30 2802 H 264.906 0.826241 4.07814 0
M  V30 2803 H 263.782 0.651086 5.45025 0
M  V30 2804 H 264.043 -0.704798 4.36446 0
M  V30 2805 N 263.102 -1.41638 0.69111 0
M  V30 2806 C 264.052 -2.28 -0.000107832 0
M  V30 2807 C 265.036 -1.41964 -0.757304 0
M  V30 2808 O 266.228 -1.65274 -0.633532 0
M  V30 2809 C 263.357 -3.30209 -0.938983 0
M  V30 2810 C 262.443 -4.23725 -0.17827 0
M  V30 2811 N 262.834 -4.99017 0.825563 0
M  V30 2812 C 261.132 -4.44071 -0.414392 0
M  V30 2813 C 261.833 -5.67431 1.28052 0
M  V30 2814 N 260.809 -5.40197 0.607304 0
M  V30 2815 H 264.611 -2.83644 0.769617 0
M  V30 2816 H 262.125 -1.53797 0.521562 0
M  V30 2817 H 264.122 -3.90898 -1.44929 0
M  V30 2818 H 262.782 -2.76126 -1.70836 0
M  V30 2819 H 263.793 -5.03671 1.20566 0
M  V30 2820 H 260.47 -4.01004 -1.162 0
M  V30 2821 H 261.86 -6.37801 2.11327 0
M  V30 2822 N 264.58 -0.43555 -1.51462 0
M  V30 2823 C 265.805 0.132627 -2.06976 0
M  V30 2824 C 266.23 1.35848 -1.30104 0
M  V30 2825 O 265.588 1.78112 -0.338493 0
M  V30 2826 C 265.636 0.43523 -3.57964 0
M  V30 2827 O 264.74 1.52198 -3.83288 0
M  V30 2828 H 264.081 0.00265 -0.663995 0
M  V30 2829 H 266.611 -0.616369 -1.95095 0
M  V30 2830 H 266.621 0.686206 -4.02188 0
M  V30 2831 H 265.296 -0.460739 -4.1334 0
M  V30 2832 H 263.873 1.2611 -3.50928 0
M  V30 2833 N 266.058 1.56714 -0.166846 0
M  V30 2834 C 267.021 2.16539 0.751232 0
M  V30 2835 C 268.021 1.11228 1.16125 0
M  V30 2836 O 269.211 1.36765 1.07894 0
M  V30 2837 C 266.343 2.74462 2.02196 0
M  V30 2838 H 267.536 2.99013 0.230499 0
M  V30 2839 H 265.089 1.56081 0.0826982 0
M  V30 2840 H 265.824 1.95709 2.58589 0
M  V30 2841 H 265.609 3.51527 1.73698 0
M  V30 2842 H 267.099 3.20489 2.67725 0
M  V30 2843 N 267.536 -0.106894 1.57237 0
M  V30 2844 C 268.446 -1.14911 2.0453 0
M  V30 2845 C 269.462 -1.44592 0.96795 0
M  V30 2846 O 270.638 -1.55468 1.2803 0
M  V30 2847 C 267.703 -2.45272 2.45036 0
M  V30 2848 C 266.764 -2.22879 3.66911 0
M  V30 2849 C 265.997 -3.47024 4.05475 0
M  V30 2850 O 266.22 -4.54804 3.44252 0
M  V30 2851 O 265.154 -3.3731 4.98504 0
M  V30 2852 H 268.98 -0.777461 2.9358 0
M  V30 2853 H 266.565 -0.318563 1.45964 0
M  V30 2854 H 268.447 -3.22055 2.71769 0
M  V30 2855 H 267.122 -2.81886 1.59129 0
M  V30 2856 H 266.029 -1.43915 3.45311 0
M  V30 2857 H 267.362 -1.91163 4.53561 0
M  V30 2858 N 269.014 -1.53014 -0.377408 0
M  V30 2859 C 270.262 -1.6829 -1.11906 0
M  V30 2860 C 270.583 -0.431206 -1.90173 0
M  V30 2861 O 269.853 0.554595 -1.87886 0
M  V30 2862 H 268.433 -0.620371 -0.416112 0
M  V30 2863 H 271.095 -1.90167 -0.426893 0
M  V30 2864 H 270.191 -2.53862 -1.8155 0
M  V30 2865 N 270.492 0.636531 -1.44174 0
M  V30 2866 C 271.44 1.76995 -1.50915 0
M  V30 2867 C 272.434 1.65053 -0.381295 0
M  V30 2868 O 273.64 1.71197 -0.55601 0
M  V30 2869 H 270.015 0.584247 -0.473455 0
M  V30 2870 H 271.986 1.68432 -2.4632 0
M  V30 2871 C 270.735 3.15314 -1.46534 0
M  V30 2872 H 270.058 3.25149 -2.32633 0
M  V30 2873 H 271.498 3.9453 -1.55312 0
M  V30 2874 C 269.957 3.3639 -0.185305 0
M  V30 2875 O 270.487 3.94699 0.746688 0
M  V30 2876 N 268.693 2.9046 -0.0901606 0
M  V30 2877 H 268.24 2.43193 -0.849416 0
M  V30 2878 H 268.198 3.04937 0.765553 0
M  V30 2879 N 271.97 1.30982 0.876444 0
M  V30 2880 C 272.88 1.2003 2.01569 0
M  V30 2881 C 273.896 0.11838 1.73597 0
M  V30 2882 O 275.072 0.33495 1.98595 0
M  V30 2883 C 272.137 0.901637 3.34771 0
M  V30 2884 C 271.198 2.06979 3.76109 0
M  V30 2885 C 270.431 1.78529 5.02954 0
M  V30 2886 O 270.654 0.717296 5.65872 0
M  V30 2887 O 269.588 2.64019 5.40905 0
M  V30 2888 H 273.414 2.15753 2.13739 0
M  V30 2889 H 270.999 1.10658 1.00375 0
M  V30 2890 H 272.881 0.750645 4.1466 0
M  V30 2891 H 271.556 -0.0256141 3.2369 0
M  V30 2892 H 270.463 2.27616 2.96887 0
M  V30 2893 H 271.796 2.97907 3.91807 0
M  V30 2894 N 273.449 -1.08991 1.13837 0
M  V30 2895 C 274.696 -1.81258 0.902882 0
M  V30 2896 C 275.024 -1.85936 -0.570803 0
M  V30 2897 O 274.279 -1.3267 -1.43865 0
M  V30 2898 C 274.578 -3.27042 1.44147 0
M  V30 2899 C 274.244 -3.4249 2.93276 0
M  V30 2900 C 272.906 -3.46414 3.33992 0
M  V30 2901 C 275.258 -3.4666 3.892 0
M  V30 2902 C 272.586 -3.52091 4.69307 0
M  V30 2903 C 274.938 -3.53872 5.24364 0
M  V30 2904 C 273.602 -3.56066 5.646 0
M  V30 2905 H 272.872 -0.663268 0.330388 0
M  V30 2906 H 275.519 -1.28368 1.42105 0
M  V30 2907 H 273.824 -3.82599 0.844097 0
M  V30 2908 H 275.521 -3.81499 1.23528 0
M  V30 2909 H 272.111 -3.40124 2.60794 0
M  V30 2910 H 276.295 -3.42865 3.58828 0
M  V30 2911 H 271.551 -3.52079 4.9985 0
M  V30 2912 H 275.725 -3.56043 5.98503 0
M  V30 2913 H 273.352 -3.60218 6.69438 0
M  V30 2914 N 274.927 -0.932562 -1.27047 0
M  V30 2915 C 276.173 -0.585913 -1.94778 0
M  V30 2916 C 276.528 0.864142 -1.71902 0
M  V30 2917 O 275.821 1.60894 -1.04037 0
M  V30 2918 C 276.015 -0.853713 -3.47054 0
M  V30 2919 C 275.844 -2.32825 -3.84737 0
M  V30 2920 C 274.614 -2.98184 -4.07939 0
M  V30 2921 C 276.812 -3.30612 -3.93954 0
M  V30 2922 N 274.794 -4.3574 -4.3244 0
M  V30 2923 C 276.165 -4.53395 -4.22887 0
M  V30 2924 C 278.22 -3.25755 -3.76548 0
M  V30 2925 C 276.923 -5.71927 -4.36224 0
M  V30 2926 C 278.949 -4.43604 -3.91113 0
M  V30 2927 C 278.311 -5.65166 -4.20437 0
M  V30 2928 H 274.41 -0.264617 -0.735868 0
M  V30 2929 H 276.994 -1.20019 -1.53309 0
M  V30 2930 H 275.165 -0.268557 -3.8747 0
M  V30 2931 H 276.897 -0.469202 -4.01971 0
M  V30 2932 H 273.652 -2.48835 -4.02961 0
M  V30 2933 H 274.076 -5.06915 -4.48738 0
M  V30 2934 H 278.718 -2.32835 -3.52913 0
M  V30 2935 H 276.436 -6.65308 -4.58683 0
M  V30 2936 H 280.022 -4.41368 -3.79059 0
M  V30 2937 H 278.902 -6.54836 -4.31462 0
M  V30 2938 N 276.405 1.4127 -0.698611 0
M  V30 2939 C 277.63 2.06024 -0.238512 0
M  V30 2940 C 278.055 1.5224 1.10475 0
M  V30 2941 O 277.413 0.650623 1.69223 0
M  V30 2942 C 277.461 3.59988 -0.209952 0
M  V30 2943 O 276.565 4.04282 0.814235 0
M  V30 2944 H 275.906 0.653829 -0.115775 0
M  V30 2945 H 278.436 1.8098 -0.954326 0
M  V30 2946 H 278.446 4.07979 -0.0418436 0
M  V30 2947 H 277.121 3.98503 -1.1903 0
M  V30 2948 H 275.698 3.6779 0.615234 0
M  V30 2949 N 277.883 0.443576 1.51229 0
M  V30 2950 C 278.846 -0.353132 2.26463 0
M  V30 2951 C 279.846 -0.944338 1.3015 0
M  V30 2952 O 281.036 -0.817813 1.5381 0
M  V30 2953 C 278.168 -1.50023 3.06114 0
M  V30 2954 H 279.361 0.3063 2.98332 0
M  V30 2955 H 276.914 0.196902 1.55055 0
M  V30 2956 H 277.649 -2.19553 2.38677 0
M  V30 2957 H 277.434 -1.08241 3.76864 0
M  V30 2958 H 278.924 -2.06296 3.63087 0
M  V30 2959 N 279.361 -1.56624 0.175154 0
M  V30 2960 C 280.291 -2.21155 -0.749195 0
M  V30 2961 C 281.272 -1.16836 -1.23626 0
M  V30 2962 O 282.457 -1.45277 -1.28873 0
M  V30 2963 C 279.587 -2.8553 -1.97711 0
M  V30 2964 C 278.541 -3.95921 -1.62575 0
M  V30 2965 C 277.867 -4.47365 -2.92864 0
M  V30 2966 C 279.167 -5.15323 -0.850838 0
M  V30 2967 H 280.861 -2.98653 -0.211295 0
M  V30 2968 H 278.407 -1.43651 -0.100188 0
M  V30 2969 H 280.36 -3.2935 -2.62881 0
M  V30 2970 H 279.084 -2.05406 -2.53921 0
M  V30 2971 H 277.743 -3.52762 -0.997719 0
M  V30 2972 H 277.391 -3.64027 -3.47122 0
M  V30 2973 H 277.091 -5.21839 -2.70106 0
M  V30 2974 H 278.615 -4.93873 -3.59056 0
M  V30 2975 H 280.029 -5.55812 -1.40521 0
M  V30 2976 H 278.426 -5.95739 -0.722154 0
M  V30 2977 H 279.496 -4.84661 0.152082 0
M  V30 2978 N 280.839 0.0985539 -1.57292 0
M  V30 2979 C 281.769 1.12064 -2.04851 0
M  V30 2980 C 282.75 1.41981 -0.936767 0
M  V30 2981 O 283.935 1.52071 -1.20781 0
M  V30 2982 C 281.065 2.44144 -2.47004 0
M  V30 2983 C 280.019 2.28643 -3.6181 0
M  V30 2984 C 279.345 3.65869 -3.89929 0
M  V30 2985 C 280.645 1.72986 -4.92822 0
M  V30 2986 H 282.339 0.724979 -2.9049 0
M  V30 2987 H 279.885 0.34729 -1.39749 0
M  V30 2988 H 281.838 3.15914 -2.78884 0
M  V30 2989 H 280.562 2.85639 -1.5836 0
M  V30 2990 H 279.221 1.59318 -3.30172 0
M  V30 2991 H 278.869 4.04885 -2.98458 0
M  V30 2992 H 278.569 3.56344 -4.67218 0
M  V30 2993 H 280.093 4.39112 -4.2428 0
M  V30 2994 H 281.507 2.34593 -5.23105 0
M  V30 2995 H 279.904 1.74229 -5.74251 0
M  V30 2996 H 280.974 0.689007 -4.7998 0
M  V30 2997 N 282.317 1.53212 0.369288 0
M  V30 2998 C 283.227 1.82342 1.47609 0
M  V30 2999 C 284.243 0.711532 1.58787 0
M  V30 3000 O 285.419 1.0012 1.74751 0
M  V30 3001 C 282.484 2.00393 2.8292 0
M  V30 3002 C 281.545 3.24297 2.81301 0
M  V30 3003 C 280.778 3.41478 4.10157 0
M  V30 3004 O 281.001 2.63033 5.06132 0
M  V30 3005 O 279.935 4.34817 4.16194 0
M  V30 3006 H 283.761 2.76366 1.25918 0
M  V30 3007 H 281.346 1.38547 0.559034 0
M  V30 3008 H 283.228 2.13859 3.63101 0
M  V30 3009 H 281.903 1.09559 3.04596 0
M  V30 3010 H 280.81 3.16257 1.99831 0
M  V30 3011 H 282.143 4.15041 2.64578 0
M  V30 3012 N 283.795 -0.628877 1.44509 0
M  V30 3013 C 284.742 -1.74074 1.51549 0
M  V30 3014 C 285.712 -1.62084 0.363021 0
M  V30 3015 O 286.897 -1.81975 0.573567 0
M  V30 3016 C 284.037 -3.12328 1.46784 0
M  V30 3017 C 283.15 -3.35277 2.72422 0
M  V30 3018 C 282.285 -4.63515 2.59475 0
M  V30 3019 C 281.324 -4.7965 3.80266 0
M  V30 3020 N 280.461 -5.99168 3.65981 0
M  V30 3021 H 285.301 -1.67392 2.46544 0
M  V30 3022 H 282.838 -0.816527 1.22357 0
M  V30 3023 H 284.796 -3.92286 1.42012 0
M  V30 3024 H 283.426 -3.18018 0.553544 0
M  V30 3025 H 282.478 -2.49242 2.87372 0
M  V30 3026 H 283.79 -3.43078 3.62076 0
M  V30 3027 H 282.944 -5.51638 2.52548 0
M  V30 3028 H 281.683 -4.58076 1.67384 0
M  V30 3029 H 280.688 -3.89957 3.87574 0
M  V30 3030 H 281.913 -4.86902 4.73395 0
M  V30 3031 H 279.859 -5.94814 2.76644 0
M  V30 3032 H 279.776 -6.08035 4.49254 0
M  V30 3033 H 281.044 -6.89846 3.6295 0
M  V30 3034 N 285.273 -1.31445 -0.869486 0
M  V30 3035 C 286.236 -1.19094 -1.9583 0
M  V30 3036 C 287.236 -0.117906 -1.60367 0
M  V30 3037 O 288.426 -0.367208 -1.70286 0
M  V30 3038 C 285.558 -0.828165 -3.30688 0
M  V30 3039 H 286.751 -2.15842 -2.08212 0
M  V30 3040 H 284.304 -1.15063 -1.05784 0
M  V30 3041 H 285.039 0.138142 -3.24006 0
M  V30 3042 H 284.824 -1.6038 -3.578 0
M  V30 3043 H 286.314 -0.765658 -4.10521 0
M  V30 3044 N 286.751 1.08385 -1.14413 0
M  V30 3045 C 287.981 1.8425 -0.934644 0
M  V30 3046 C 288.389 1.81907 0.520234 0
M  V30 3047 O 287.732 1.22126 1.37226 0
M  V30 3048 C 287.794 3.32853 -1.35828 0
M  V30 3049 C 287.458 3.5893 -2.82875 0
M  V30 3050 C 288.455 3.53756 -3.80989 0
M  V30 3051 C 286.14 3.86934 -3.20293 0
M  V30 3052 C 288.134 3.76216 -5.14529 0
M  V30 3053 C 285.821 4.09047 -4.54008 0
M  V30 3054 C 286.819 4.03682 -5.50936 0
M  V30 3055 O 286.507 4.25214 -6.82238 0
M  V30 3056 H 286.239 0.588502 -0.332628 0
M  V30 3057 H 288.793 1.37792 -1.52324 0
M  V30 3058 H 287.023 3.8007 -0.713019 0
M  V30 3059 H 288.712 3.90154 -1.11957 0
M  V30 3060 H 289.478 3.32135 -3.53428 0
M  V30 3061 H 285.357 3.9023 -2.45442 0
M  V30 3062 H 288.901 3.71943 -5.90173 0
M  V30 3063 H 284.798 4.30151 -4.8129 0
M  V30 3064 H 285.566 4.42619 -6.88499 0
M  V30 3065 N 288.23 0.939286 1.26551 0
M  V30 3066 C 289.193 0.451987 2.24699 0
M  V30 3067 C 290.193 -0.435869 1.5478 0
M  V30 3068 O 291.383 -0.235314 1.72603 0
M  V30 3069 C 288.515 -0.348801 3.39111 0
M  V30 3070 H 289.708 1.3193 2.69322 0
M  V30 3071 H 287.261 0.721072 1.38673 0
M  V30 3072 H 287.996 -1.23444 2.99887 0
M  V30 3073 H 287.781 0.287945 3.91041 0
M  V30 3074 H 289.271 -0.679726 4.12031 0
M  V30 3075 N 289.708 -1.40897 0.706093 0
M  V30 3076 C 290.655 -2.30751 0.0474474 0
M  V30 3077 C 291.625 -1.47678 -0.76029 0
M  V30 3078 O 292.81 -1.76441 -0.726177 0
M  V30 3079 C 289.95 -3.33815 -0.875309 0
M  V30 3080 C 289.063 -4.31961 -0.0580623 0
M  V30 3081 C 288.198 -5.22093 -0.979425 0
M  V30 3082 C 287.237 -6.11902 -0.155706 0
M  V30 3083 N 286.374 -6.94482 -1.03144 0
M  V30 3084 H 291.214 -2.86513 0.819413 0
M  V30 3085 H 288.751 -1.41102 0.415783 0
M  V30 3086 H 290.709 -3.92129 -1.42446 0
M  V30 3087 H 289.339 -2.79579 -1.61356 0
M  V30 3088 H 288.391 -3.75507 0.608147 0
M  V30 3089 H 289.703 -4.95415 0.580082 0
M  V30 3090 H 288.857 -5.85292 -1.59744 0
M  V30 3091 H 287.596 -4.5889 -1.65141 0
M  V30 3092 H 286.601 -5.47742 0.475309 0
M  V30 3093 H 287.826 -6.77162 0.512635 0
M  V30 3094 H 285.772 -6.33877 -1.68924 0
M  V30 3095 H 285.689 -7.54665 -0.449108 0
M  V30 3096 H 286.957 -7.6214 -1.63593 0
M  V30 3097 N 291.186 -0.45159 -1.50991 0
M  V30 3098 C 292.432 0.110237 -2.025 0
M  V30 3099 C 292.765 1.41109 -1.33424 0
M  V30 3100 O 292.04 1.89135 -0.453659 0
M  V30 3101 C 292.323 0.314271 -3.58726 0
M  V30 3102 C 292.176 -1.00623 -4.38401 0
M  V30 3103 C 293.495 1.07767 -4.26702 0
M  V30 3104 H 290.614 0.0385897 -0.735989 0
M  V30 3105 H 293.256 -0.593374 -1.80497 0
M  V30 3106 H 291.406 0.913601 -3.77605 0
M  V30 3107 H 293.078 -1.64064 -4.31139 0
M  V30 3108 H 291.321 -1.6075 -4.02917 0
M  V30 3109 H 291.992 -0.817341 -5.45915 0
M  V30 3110 H 294.468 0.56986 -4.12179 0
M  V30 3111 H 293.344 1.18921 -5.35863 0
M  V30 3112 H 293.605 2.10939 -3.88532 0
M  V30 3113 N 292.664 1.56529 -0.183458 0
M  V30 3114 C 293.612 2.19873 0.758845 0
M  V30 3115 C 294.606 1.16638 1.22849 0
M  V30 3116 O 295.812 1.3481 1.19274 0
M  V30 3117 H 292.187 0.7045 0.263029 0
M  V30 3118 H 294.158 2.97724 0.200755 0
M  V30 3119 C 292.907 2.86314 1.9728 0
M  V30 3120 H 292.23 3.65487 1.62047 0
M  V30 3121 H 293.67 3.3409 2.61075 0
M  V30 3122 C 292.129 1.86729 2.80418 0
M  V30 3123 O 292.659 1.36031 3.77966 0
M  V30 3124 N 290.865 1.55216 2.45675 0
M  V30 3125 H 290.412 1.96636 1.66409 0
M  V30 3126 H 290.37 0.888388 3.01588 0
M  V30 3127 N 294.142 -0.090211 1.57342 0
M  V30 3128 C 295.39 -0.791241 1.85967 0
M  V30 3129 C 295.711 -1.7903 0.772859 0
M  V30 3130 O 294.981 -1.94872 -0.200398 0
M  V30 3131 H 293.561 -0.295205 0.686195 0
M  V30 3132 H 296.223 -0.0706782 1.94772 0
M  V30 3133 H 295.319 -1.31882 2.82867 0
M  V30 3134 N 295.62 -1.53406 -0.361157 0
M  V30 3135 C 296.845 -1.74024 -1.12829 0
M  V30 3136 C 297.27 -0.470069 -1.82132 0
M  V30 3137 O 296.628 0.57619 -1.719 0
M  V30 3138 C 296.676 -2.90903 -2.13091 0
M  V30 3139 O 295.78 -2.59821 -3.20261 0
M  V30 3140 H 295.121 -0.577804 -0.327168 0
M  V30 3141 H 297.651 -2.00307 -0.41693 0
M  V30 3142 H 297.661 -3.17194 -2.56616 0
M  V30 3143 H 296.336 -3.83034 -1.62042 0
M  V30 3144 H 294.913 -2.44362 -2.81677 0
M  V30 3145 N 297.098 0.621204 -1.44841 0
M  V30 3146 C 298.328 1.40548 -1.51426 0
M  V30 3147 C 298.736 1.88673 -0.141083 0
M  V30 3148 O 298.079 1.62053 0.865128 0
M  V30 3149 C 298.141 2.65325 -2.42576 0
M  V30 3150 C 297.805 2.3893 -3.89566 0
M  V30 3151 C 298.802 2.00138 -4.79834 0
M  V30 3152 C 296.487 2.52263 -4.3436 0
M  V30 3153 C 298.481 1.75021 -6.129 0
M  V30 3154 C 296.168 2.2676 -5.67471 0
M  V30 3155 C 297.166 1.88199 -6.56559 0
M  V30 3156 O 296.854 1.62986 -7.87204 0
M  V30 3157 H 296.586 0.437122 -0.515655 0
M  V30 3158 H 299.14 0.765987 -1.90583 0
M  V30 3159 H 297.37 3.31947 -1.98364 0
M  V30 3160 H 299.059 3.27347 -2.39998 0
M  V30 3161 H 299.825 1.89386 -4.46495 0
M  V30 3162 H 295.704 2.81246 -3.65269 0
M  V30 3163 H 299.248 1.44848 -6.82396 0
M  V30 3164 H 295.145 2.37125 -6.00368 0
M  V30 3165 H 295.913 1.7715 -7.991 0
M  V30 3166 N 298.576 1.31904 0.862503 0
M  V30 3167 C 299.486 1.22161 2.00285 0
M  V30 3168 C 300.502 0.136785 1.73462 0
M  V30 3169 O 301.678 0.355994 1.98229 0
M  V30 3170 C 298.743 0.937093 3.33796 0
M  V30 3171 C 297.804 2.10957 3.73893 0
M  V30 3172 C 297.037 1.83853 5.01033 0
M  V30 3173 O 297.26 0.777274 5.65079 0
M  V30 3174 O 296.194 2.69741 5.38074 0
M  V30 3175 H 300.02 2.18008 2.11439 0
M  V30 3176 H 297.605 1.11716 0.991957 0
M  V30 3177 H 299.487 0.794583 4.13841 0
M  V30 3178 H 298.162 0.00871894 3.23699 0
M  V30 3179 H 297.069 2.30752 2.94456 0
M  V30 3180 H 298.402 3.02046 3.88625 0
M  V30 3181 N 300.054 -1.07777 1.14986 0
M  V30 3182 C 301.017 -2.13041 0.845358 0
M  V30 3183 C 302.017 -1.60071 -0.152931 0
M  V30 3184 O 303.207 -1.74033 0.0761879 0
M  V30 3185 C 300.339 -3.39896 0.261383 0
M  V30 3186 H 301.532 -2.41485 1.77834 0
M  V30 3187 H 299.085 -1.23595 0.956757 0
M  V30 3188 H 299.82 -3.17091 -0.68 0
M  V30 3189 H 299.605 -3.79642 0.980514 0
M  V30 3190 H 301.095 -4.17548 0.0657687 0
M  V30 3191 N 301.532 -0.945985 -1.26051 0
M  V30 3192 C 302.462 -0.477172 -2.28572 0
M  V30 3193 C 303.443 0.472032 -1.63419 0
M  V30 3194 O 304.628 0.372853 -1.90587 0
M  V30 3195 C 301.758 0.253975 -3.4637 0
M  V30 3196 C 300.712 -0.609135 -4.23643 0
M  V30 3197 C 300.038 0.252252 -5.34105 0
M  V30 3198 C 301.338 -1.8829 -4.8718 0
M  V30 3199 H 303.032 -1.33402 -2.68038 0
M  V30 3200 H 300.578 -0.642904 -1.28852 0
M  V30 3201 H 302.531 0.593016 -4.17207 0
M  V30 3202 H 301.255 1.145 -3.05871 0
M  V30 3203 H 299.914 -0.931138 -3.54578 0
M  V30 3204 H 299.562 1.14278 -4.89846 0
M  V30 3205 H 299.262 -0.32188 -5.86718 0
M  V30 3206 H 300.786 0.586454 -6.07777 0
M  V30 3207 H 302.2 -1.61081 -5.50205 0
M  V30 3208 H 300.597 -2.40199 -5.49931 0
M  V30 3209 H 301.667 -2.59134 -4.09851 0
M  V30 3210 N 303.011 1.40521 -0.713556 0
M  V30 3211 C 304.236 2.05759 -0.26035 0
M  V30 3212 C 304.661 1.53403 1.08854 0
M  V30 3213 O 304.019 0.668535 1.68524 0
M  V30 3214 C 304.067 3.59745 -0.248122 0
M  V30 3215 O 303.171 4.05123 0.77131 0
M  V30 3216 H 302.512 0.652564 -0.122703 0
M  V30 3217 H 305.042 1.79958 -0.973467 0
M  V30 3218 H 305.052 4.07911 -0.0851129 0
M  V30 3219 H 303.727 3.97218 -1.2325 0
M  V30 3220 H 302.304 3.68422 0.57619 0
M  V30 3221 N 304.489 0.459591 1.5075 0
M  V30 3222 C 305.737 -0.0991532 2.01857 0
M  V30 3223 C 306.058 -1.41247 1.34441 0
M  V30 3224 O 305.328 -1.89775 0.486022 0
M  V30 3225 H 303.908 -0.039633 0.745948 0
M  V30 3226 H 306.57 0.607387 1.85194 0
M  V30 3227 H 305.666 -0.258998 3.11023 0
M  V30 3228 N 305.967 -1.56429 0.191757 0
M  V30 3229 C 307.215 -1.97095 -0.447006 0
M  V30 3230 C 307.536 -1.07967 -1.62383 0
M  V30 3231 O 306.806 -0.150248 -1.95323 0
M  V30 3232 H 305.386 -0.727832 -0.168135 0
M  V30 3233 H 308.048 -1.92911 0.27771 0
M  V30 3234 H 307.144 -3.01848 -0.793371 0
M  V30 3235 N 307.445 0.0818655 -1.57387 0
M  V30 3236 C 308.67 0.799946 -1.91352 0
M  V30 3237 C 309.095 1.70833 -0.787258 0
M  V30 3238 O 308.453 1.79419 0.26048 0
M  V30 3239 C 308.501 1.57812 -3.24234 0
M  V30 3240 O 307.605 2.68806 -3.12757 0
M  V30 3241 H 306.946 0.21891 -0.626877 0
M  V30 3242 H 309.476 0.0531256 -2.04531 0
M  V30 3243 H 309.486 1.95952 -3.57864 0
M  V30 3244 H 308.161 0.911548 -4.05788 0
M  V30 3245 H 306.738 2.33597 -2.90666 0
M  V30 3246 N 308.923 1.53595 0.353017 0
M  V30 3247 C 310.151 1.74311 1.1146 0
M  V30 3248 C 310.566 0.477854 1.82653 0
M  V30 3249 O 309.923 -0.549977 1.74016 0
M  V30 3250 C 309.974 2.91694 2.13534 0
M  V30 3251 O 309.695 4.13325 1.45238 0
M  V30 3252 C 311.196 3.24384 3.02142 0
M  V30 3253 H 308.416 0.582669 0.332773 0
M  V30 3254 H 310.96 2.00386 0.408107 0
M  V30 3255 H 309.115 2.67977 2.79763 0
M  V30 3256 H 309.529 4.79148 2.13349 0
M  V30 3257 H 311.003 4.09893 3.69718 0
M  V30 3258 H 311.48 2.40282 3.67643 0
M  V30 3259 H 312.086 3.50073 2.41514 0
M  V30 3260 N 310.401 -0.613514 1.45168 0
M  V30 3261 C 311.626 -1.40437 1.52618 0
M  V30 3262 C 312.051 -1.87438 0.157707 0
M  V30 3263 O 311.409 -1.59791 -0.856537 0
M  V30 3264 C 311.457 -2.58894 2.51011 0
M  V30 3265 O 310.561 -3.59326 2.02382 0
M  V30 3266 H 309.902 -0.419506 0.514695 0
M  V30 3267 H 312.432 -0.747215 1.90467 0
M  V30 3268 H 312.442 -3.06214 2.69624 0
M  V30 3269 H 311.117 -2.24032 3.50403 0
M  V30 3270 H 309.694 -3.18695 1.93618 0
M  V30 3271 N 311.879 -1.3236 -0.855495 0
M  V30 3272 C 312.789 -1.23221 -1.99634 0
M  V30 3273 C 313.805 -0.145983 -1.73387 0
M  V30 3274 O 314.981 -0.366502 -1.98037 0
M  V30 3275 C 312.046 -0.954782 -3.33294 0
M  V30 3276 C 311.107 -2.12937 -3.72769 0
M  V30 3277 C 310.34 -1.86508 -5.00051 0
M  V30 3278 O 310.563 -0.807231 -5.64659 0
M  V30 3279 O 309.497 -2.72591 -5.36636 0
M  V30 3280 H 313.323 -2.19126 -2.1028 0
M  V30 3281 H 310.908 -1.12241 -0.986018 0
M  V30 3282 H 312.79 -0.816519 -4.13414 0
M  V30 3283 H 311.465 -0.0258854 -3.2369 0
M  V30 3284 H 310.372 -2.3231 -2.93228 0
M  V30 3285 H 311.705 -3.04102 -3.87018 0
M  V30 3286 N 313.357 1.07166 -1.15556 0
M  V30 3287 C 314.605 1.79443 -0.929764 0
M  V30 3288 C 314.926 1.87246 0.544414 0
M  V30 3289 O 314.196 1.37473 1.39564 0
M  V30 3290 H 312.776 0.664625 -0.341003 0
M  V30 3291 H 315.438 1.29499 -1.45657 0
M  V30 3292 H 314.534 2.81832 -1.34079 0
M  V30 3293 N 314.835 0.952656 1.25548 0
M  V30 3294 C 316.082 0.606373 1.93208 0
M  V30 3295 C 316.41 -0.85631 1.74636 0
M  V30 3296 O 315.665 -1.62951 1.08376 0
M  V30 3297 C 315.964 0.908818 3.45652 0
M  V30 3298 C 315.63 2.35722 3.84378 0
M  V30 3299 C 314.292 2.75312 3.9466 0
M  V30 3300 C 316.644 3.29793 4.03591 0
M  V30 3301 C 313.972 4.08047 4.21562 0
M  V30 3302 C 316.324 4.62138 4.31985 0
M  V30 3303 C 314.988 5.01528 4.40484 0
M  V30 3304 H 314.258 0.221888 0.706998 0
M  V30 3305 H 316.905 1.20132 1.49133 0
M  V30 3306 H 315.21 0.231456 3.91116 0
M  V30 3307 H 316.907 0.619498 3.96186 0
M  V30 3308 H 313.497 2.04017 3.76928 0
M  V30 3309 H 317.681 3.00397 3.95064 0
M  V30 3310 H 312.937 4.38212 4.26357 0
M  V30 3311 H 317.111 5.35012 4.45797 0
M  V30 3312 H 314.738 6.04406 4.61083 0
M  V30 3313 N 316.313 -1.40141 0.720998 0
M  V30 3314 C 317.223 -2.34486 0.0731031 0
M  V30 3315 C 318.239 -1.57587 -0.737723 0
M  V30 3316 O 319.415 -1.89949 -0.669429 0
M  V30 3317 C 316.48 -3.36528 -0.833656 0
M  V30 3318 C 315.541 -4.29298 -0.0121673 0
M  V30 3319 C 314.774 -5.26466 -0.875742 0
M  V30 3320 O 314.997 -5.29745 -2.11485 0
M  V30 3321 O 313.931 -6.01092 -0.31185 0
M  V30 3322 H 317.757 -2.9152 0.851444 0
M  V30 3323 H 315.342 -1.41427 0.481527 0
M  V30 3324 H 317.224 -3.99093 -1.35289 0
M  V30 3325 H 315.899 -2.81899 -1.59105 0
M  V30 3326 H 314.806 -3.70001 0.552262 0
M  V30 3327 H 316.139 -4.87094 0.707129 0
M  V30 3328 N 317.792 -0.46758 -1.50504 0
M  V30 3329 C 319.069 0.15003 -1.95024 0
M  V30 3330 C 319.449 1.57304 -1.40779 0
M  V30 3331 O 318.797 2.20281 -0.607319 0
M  V30 3332 C 319.007 0.0969324 -3.48865 0
M  V30 3333 C 320.355 0.287565 -4.23625 0
M  V30 3334 O 321.379 0.173678 -3.55776 0
M  V30 3335 O 320.238 0.517186 -5.44047 0
M  V30 3336 H 317.332 0.113582 -0.819163 0
M  V30 3337 H 319.878 -0.52773 -1.61286 0
M  V30 3338 H 318.65 -0.896732 -3.80886 0
M  V30 3339 H 318.273 0.816303 -3.8913 0
M  V30 3340 N 319.27 1.56325 -0.20005 0
M  V30 3341 C 320.517 1.97719 0.437411 0
M  V30 3342 C 320.845 1.08709 1.61284 0
M  V30 3343 O 320.1 0.127261 1.95286 0
M  V30 3344 C 320.399 3.4495 0.935103 0
M  V30 3345 C 320.065 4.5072 -0.12749 0
M  V30 3346 C 318.727 4.79368 -0.419451 0
M  V30 3347 C 321.079 5.14268 -0.847231 0
M  V30 3348 C 318.407 5.68854 -1.43604 0
M  V30 3349 C 320.759 6.04852 -1.85301 0
M  V30 3350 C 319.423 6.31855 -2.15211 0
M  V30 3351 H 318.693 0.723507 0.16006 0
M  V30 3352 H 321.34 1.89166 -0.298056 0
M  V30 3353 H 319.645 3.50599 1.74894 0
M  V30 3354 H 321.342 3.74337 1.43781 0
M  V30 3355 H 317.932 4.28458 0.11023 0
M  V30 3356 H 322.116 4.92222 -0.634901 0
M  V30 3357 H 317.372 5.88047 -1.67364 0
M  V30 3358 H 321.546 6.53152 -2.41591 0
M  V30 3359 H 319.173 7.00994 -2.94129 0
M  V30 3360 N 320.748 -0.0735177 1.57428 0
M  V30 3361 C 321.976 -0.785969 1.9139 0
M  V30 3362 C 322.391 -1.71207 0.795847 0
M  V30 3363 O 321.748 -1.81033 -0.230915 0
M  V30 3364 C 321.799 -1.58107 3.25091 0
M  V30 3365 O 321.52 -0.6922 4.32597 0
M  V30 3366 C 323.021 -2.39467 3.73055 0
M  V30 3367 H 320.241 -0.223558 0.632663 0
M  V30 3368 H 322.785 -0.044302 2.04452 0
M  V30 3369 H 320.94 -2.27503 3.13562 0
M  V30 3370 H 321.354 -1.24504 5.09508 0
M  V30 3371 H 322.828 -2.90716 4.69242 0
M  V30 3372 H 323.305 -3.18913 3.01979 0
M  V30 3373 H 323.911 -1.7523 3.87523 0
M  V30 3374 N 322.226 -1.5378 -0.344866 0
M  V30 3375 C 323.474 -1.70625 -1.08311 0
M  V30 3376 C 323.795 -0.471447 -1.89215 0
M  V30 3377 O 323.065 0.514616 -1.8902 0
M  V30 3378 H 321.645 -0.629058 -0.402859 0
M  V30 3379 H 324.307 -1.9103 -0.386459 0
M  V30 3380 H 323.403 -2.57656 -1.76124 0
M  V30 3381 N 323.704 0.605807 -1.45491 0
M  V30 3382 C 324.952 1.36207 -1.49305 0
M  V30 3383 C 325.273 1.94519 -0.136863 0
M  V30 3384 O 324.543 1.77261 0.833983 0
M  V30 3385 H 323.123 0.50565 -0.549843 0
M  V30 3386 H 325.785 0.711239 -1.81459 0
M  V30 3387 H 324.881 2.18058 -2.23287 0
M  V30 3388 N 325.182 1.32811 0.848464 0
M  V30 3389 C 326.428 1.23907 1.60546 0
M  V30 3390 C 326.761 -0.197161 1.93197 0
M  V30 3391 O 326.036 -1.13596 1.5788 0
M  V30 3392 C 326.319 2.10489 2.92175 0
M  V30 3393 C 326.172 3.62522 2.66266 0
M  V30 3394 C 327.491 1.97075 3.93509 0
M  V30 3395 H 324.61 0.451459 0.58254 0
M  V30 3396 H 327.252 1.62818 0.979296 0
M  V30 3397 H 325.402 1.77434 3.45614 0
M  V30 3398 H 327.074 4.05821 2.19334 0
M  V30 3399 H 325.317 3.84879 2.00126 0
M  V30 3400 H 325.988 4.18437 3.6002 0
M  V30 3401 H 328.464 2.26045 3.49346 0
M  V30 3402 H 327.34 2.59923 4.83457 0
M  V30 3403 H 327.601 0.940186 4.31987 0
M  V30 3404 N 326.66 -1.06551 1.16123 0
M  V30 3405 C 327.888 -1.83005 0.965237 0
M  V30 3406 C 328.303 -1.82423 -0.486542 0
M  V30 3407 O 327.66 -1.24152 -1.33763 0
M  V30 3408 C 327.711 -3.29733 1.48183 0
M  V30 3409 O 327.432 -3.30416 2.87674 0
M  V30 3410 C 328.933 -4.22926 1.32848 0
M  V30 3411 H 326.153 -0.577118 0.342309 0
M  V30 3412 H 328.697 -1.3445 1.54089 0
M  V30 3413 H 326.852 -3.75609 0.948517 0
M  V30 3414 H 327.266 -4.22149 3.11272 0
M  V30 3415 H 328.74 -5.23916 1.73827 0
M  V30 3416 H 329.217 -4.38346 0.273692 0
M  V30 3417 H 329.823 -3.82894 1.85127 0
M  V30 3418 N 328.138 -0.959301 -1.25041 0
M  V30 3419 C 329.048 -0.489994 -2.29426 0
M  V30 3420 C 330.064 0.444944 -1.68215 0
M  V30 3421 O 331.24 0.320046 -1.98841 0
M  V30 3422 C 328.305 0.220309 -3.45999 0
M  V30 3423 C 327.366 -0.753418 -4.22637 0
M  V30 3424 C 326.599 -0.076918 -5.33645 0
M  V30 3425 O 326.822 1.13649 -5.58963 0
M  V30 3426 O 325.756 -0.764824 -5.97021 0
M  V30 3427 H 329.582 -1.35755 -2.71669 0
M  V30 3428 H 327.167 -0.725961 -1.30576 0
M  V30 3429 H 329.049 0.619677 -4.16819 0
M  V30 3430 H 327.724 1.06296 -3.0575 0
M  V30 3431 H 326.631 -1.20308 -3.54227 0
M  V30 3432 H 327.964 -1.56423 -4.66683 0
M  V30 3433 N 329.616 1.39756 -0.72842 0
M  V30 3434 C 330.862 2.01425 -0.282761 0
M  V30 3435 C 331.217 1.56754 1.11561 0
M  V30 3436 O 330.51 0.783482 1.74849 0
M  V30 3437 C 330.704 3.56002 -0.315776 0
M  V30 3438 C 330.533 4.1568 -1.71582 0
M  V30 3439 C 329.303 4.48555 -2.32651 0
M  V30 3440 C 331.501 4.39667 -2.66829 0
M  V30 3441 N 329.483 4.93698 -3.64877 0
M  V30 3442 C 330.854 4.86942 -3.8378 0
M  V30 3443 C 332.909 4.21724 -2.64675 0
M  V30 3444 C 331.612 5.18158 -4.98904 0
M  V30 3445 C 333.638 4.54049 -3.78937 0
M  V30 3446 C 333 5.01525 -4.94623 0
M  V30 3447 H 329.099 0.76756 -0.149583 0
M  V30 3448 H 331.683 1.69784 -0.952976 0
M  V30 3449 H 329.854 3.87046 0.324057 0
M  V30 3450 H 331.586 4.0443 0.147808 0
M  V30 3451 H 328.341 4.36128 -1.84633 0
M  V30 3452 H 328.765 5.20635 -4.32744 0
M  V30 3453 H 333.407 3.84228 -1.76433 0
M  V30 3454 H 331.125 5.54562 -5.87781 0
M  V30 3455 H 334.711 4.41795 -3.78561 0
M  V30 3456 H 333.591 5.26065 -5.81572 0
M  V30 3457 N 331.094 0.475555 1.50254 0
M  V30 3458 C 332.324 -0.0753399 2.06463 0
M  V30 3459 C 332.732 -1.33661 1.33908 0
M  V30 3460 O 332.075 -1.79219 0.403257 0
M  V30 3461 C 332.137 -0.424921 3.5698 0
M  V30 3462 C 331.801 0.734965 4.51051 0
M  V30 3463 C 332.798 1.61827 4.94073 0
M  V30 3464 C 330.483 0.926557 4.9368 0
M  V30 3465 C 332.477 2.67754 5.78434 0
M  V30 3466 C 330.164 1.98904 5.77824 0
M  V30 3467 C 331.162 2.8629 6.20103 0
M  V30 3468 O 330.85 3.90708 7.02568 0
M  V30 3469 H 330.582 0.00576308 0.675975 0
M  V30 3470 H 333.136 0.664662 1.94349 0
M  V30 3471 H 331.366 -1.21817 3.67012 0
M  V30 3472 H 333.055 -0.911422 3.95535 0
M  V30 3473 H 333.821 1.48196 4.61804 0
M  V30 3474 H 329.7 0.25584 4.6029 0
M  V30 3475 H 333.244 3.35992 6.11355 0
M  V30 3476 H 329.141 2.12541 6.09505 0
M  V30 3477 H 329.909 3.87751 7.20827 0
M  V30 3478 N 332.573 -1.56217 0.208337 0
M  V30 3479 C 333.483 -2.23316 -0.718836 0
M  V30 3480 C 334.499 -1.23648 -1.22422 0
M  V30 3481 O 335.675 -1.56423 -1.26861 0
M  V30 3482 C 332.74 -2.88968 -1.91568 0
M  V30 3483 C 331.801 -4.03943 -1.45357 0
M  V30 3484 C 331.034 -4.66455 -2.59337 0
M  V30 3485 O 331.257 -4.27919 -3.77149 0
M  V30 3486 O 330.191 -5.55686 -2.31293 0
M  V30 3487 H 334.017 -3.03182 -0.177315 0
M  V30 3488 H 331.602 -1.49384 -0.0215402 0
M  V30 3489 H 333.484 -3.30455 -2.61491 0
M  V30 3490 H 332.159 -2.12071 -2.44556 0
M  V30 3491 H 331.066 -3.67052 -0.722746 0
M  V30 3492 H 332.399 -4.82543 -0.970219 0
M  V30 3493 N 334.051 0.0651679 -1.57465 0
M  V30 3494 C 334.981 1.07693 -2.07182 0
M  V30 3495 C 335.962 1.39962 -0.966673 0
M  V30 3496 O 337.147 1.49475 -1.2398 0
M  V30 3497 C 334.277 2.3885 -2.52127 0
M  V30 3498 C 333.231 2.20917 -3.66579 0
M  V30 3499 C 332.557 3.57515 -3.97601 0
M  V30 3500 C 333.857 1.62493 -4.9638 0
M  V30 3501 H 335.551 0.663199 -2.91962 0
M  V30 3502 H 333.097 0.317569 -1.40455 0
M  V30 3503 H 335.05 3.09928 -2.85522 0
M  V30 3504 H 333.774 2.82215 -1.64384 0
M  V30 3505 H 332.433 1.52279 -3.33477 0
M  V30 3506 H 332.081 3.98463 -3.06979 0
M  V30 3507 H 331.781 3.46353 -4.74672 0
M  V30 3508 H 333.305 4.30013 -4.33499 0
M  V30 3509 H 334.719 2.23445 -5.27963 0
M  V30 3510 H 333.116 1.62009 -5.77818 0
M  V30 3511 H 334.186 0.587041 -4.81333 0
M  V30 3512 N 335.529 1.53961 0.336706 0
M  V30 3513 C 336.945 1.44378 0.680241 0
M  V30 3514 C 337.145 0.606034 1.9217 0
M  V30 3515 O 336.201 0.099688 2.52303 0
M  V30 3516 C 337.514 2.87945 0.8665 0
M  V30 3517 C 339.062 2.97763 0.964682 0
M  V30 3518 C 339.537 4.42453 1.18321 0
M  V30 3519 N 341.028 4.46008 1.25025 0
M  V30 3520 C 341.763 5.55102 1.43697 0
M  V30 3521 N 341.259 6.7419 1.59498 0
M  V30 3522 N 343.052 5.42727 1.463 0
M  V30 3523 H 335.203 2.06918 -0.479455 0
M  V30 3524 H 337.466 0.935634 -0.152619 0
M  V30 3525 H 337.172 3.51691 0.0256937 0
M  V30 3526 H 337.046 3.33293 1.76623 0
M  V30 3527 H 339.433 2.34153 1.796 0
M  V30 3528 H 339.514 2.55766 0.041708 0
M  V30 3529 H 339.158 5.06645 0.356788 0
M  V30 3530 H 339.088 4.82048 2.11985 0
M  V30 3531 H 341.579 3.60196 1.14312 0
M  V30 3532 H 341.892 7.53095 1.734 0
M  V30 3533 H 340.237 6.77123 1.56621 0
M  V30 3534 H 343.428 4.48647 1.33543 0
M  V30 3535 H 343.601 6.27806 1.6051 0
M  V30 3536 N 337.007 -0.598083 1.45811 0
M  V30 3537 C 337.954 -1.7082 1.55207 0
M  V30 3538 C 338.924 -1.61278 0.39732 0
M  V30 3539 O 340.109 -1.80717 0.612038 0
M  V30 3540 C 337.249 -3.09144 1.53376 0
M  V30 3541 C 336.362 -3.29423 2.79472 0
M  V30 3542 C 335.497 -4.57907 2.69248 0
M  V30 3543 C 334.536 -4.71476 3.90354 0
M  V30 3544 N 333.673 -5.9127 3.78608 0
M  V30 3545 H 338.513 -1.62125 2.50039 0
M  V30 3546 H 336.05 -0.790389 1.24062 0
M  V30 3547 H 338.008 -3.89186 1.50301 0
M  V30 3548 H 336.638 -3.16773 0.620876 0
M  V30 3549 H 335.69 -2.43091 2.92594 0
M  V30 3550 H 337.002 -3.3532 3.69272 0
M  V30 3551 H 336.156 -5.46157 2.64192 0
M  V30 3552 H 334.895 -4.54423 1.77063 0
M  V30 3553 H 333.9 -3.81648 3.95759 0
M  V30 3554 H 335.125 -4.76751 4.83617 0
M  V30 3555 H 333.071 -5.88813 2.89199 0
M  V30 3556 H 332.988 -5.98369 4.6205 0
M  V30 3557 H 334.256 -6.81992 3.77501 0
M  V30 3558 N 338.485 -1.33259 -0.841409 0
M  V30 3559 C 339.448 -1.23221 -1.9326 0
M  V30 3560 C 340.448 -0.151895 -1.60081 0
M  V30 3561 O 341.638 -0.403246 -1.69468 0
M  V30 3562 C 338.77 -0.898123 -3.28856 0
M  V30 3563 H 339.963 -2.2021 -2.03587 0
M  V30 3564 H 337.516 -1.17281 -1.03319 0
M  V30 3565 H 338.251 0.0693841 -3.24226 0
M  V30 3566 H 338.036 -1.67934 -3.54317 0
M  V30 3567 H 339.526 -0.852563 -4.08805 0
M  V30 3568 N 339.963 1.05934 -1.16686 0
M  V30 3569 C 341.374 1.60263 -0.957745 0
M  V30 3570 C 341.725 1.89789 0.49745 0
M  V30 3571 O 340.85 1.67401 1.37135 0
M  V30 3572 C 341.445 2.91172 -1.73218 0
M  V30 3573 C 340.004 3.42188 -1.56794 0
M  V30 3574 C 339.151 2.16028 -1.73859 0
M  V30 3575 H 342.102 0.888392 -1.31504 0
M  V30 3576 H 342.123 3.60744 -1.21014 0
M  V30 3577 H 341.635 2.6965 -2.79124 0
M  V30 3578 H 339.736 3.68762 -0.533437 0
M  V30 3579 H 339.849 4.17273 -2.35414 0
M  V30 3580 H 338.213 2.26426 -1.16633 0
M  V30 3581 H 338.996 1.96985 -2.81161 0
M  V30 3582 N 341.441 0.965919 1.2453 0
M  V30 3583 C 342.666 0.643971 1.97149 0
M  V30 3584 C 343.091 -0.779487 1.71189 0
M  V30 3585 O 342.449 -1.5288 0.974553 0
M  V30 3586 C 342.497 0.922557 3.48599 0
M  V30 3587 O 341.601 0.00707672 4.12399 0
M  V30 3588 H 340.942 0.243647 0.617683 0
M  V30 3589 H 343.472 1.29558 1.58353 0
M  V30 3590 H 343.482 0.853373 3.98976 0
M  V30 3591 H 342.157 1.95996 3.66822 0
M  V30 3592 H 340.734 0.12943 3.72675 0
M  V30 3593 N 342.919 -1.39368 0.735821 0
M  V30 3594 C 344.196 -1.94465 0.210395 0
M  V30 3595 C 344.576 -1.67254 -1.28799 0
M  V30 3596 O 343.924 -1.00123 -2.05396 0
M  V30 3597 C 344.134 -3.4472 0.544897 0
M  V30 3598 C 345.482 -4.21708 0.494689 0
M  V30 3599 O 346.506 -3.52922 0.482136 0
M  V30 3600 O 345.365 -5.44299 0.489947 0
M  V30 3601 H 342.459 -0.826096 0.0386666 0
M  V30 3602 H 345.005 -1.48863 0.814735 0
M  V30 3603 H 343.777 -3.57963 1.58045 0
M  V30 3604 H 343.4 -3.97502 -0.08837 0
M  V30 3605 N 344.397 -0.483516 -1.5 0
M  V30 3606 C 345.327 0.293829 -2.31644 0
M  V30 3607 C 346.308 0.978864 -1.39112 0
M  V30 3608 O 347.493 0.973644 -1.68029 0
M  V30 3609 C 344.623 1.36897 -3.19181 0
M  V30 3610 C 343.577 0.804833 -4.20365 0
M  V30 3611 C 342.903 1.9792 -4.96721 0
M  V30 3612 C 344.203 -0.192313 -5.21946 0
M  V30 3613 H 345.897 -0.387616 -2.9688 0
M  V30 3614 H 343.443 -0.187856 -1.42769 0
M  V30 3615 H 345.396 1.92037 -3.751 0
M  V30 3616 H 344.12 2.07936 -2.51853 0
M  V30 3617 H 342.779 0.275319 -3.65565 0
M  V30 3618 H 342.427 2.67686 -4.25856 0
M  V30 3619 H 342.127 1.60789 -5.65173 0
M  V30 3620 H 343.651 2.53526 -5.55479 0
M  V30 3621 H 345.065 0.270333 -5.72662 0
M  V30 3622 H 343.462 -0.478543 -5.98189 0
M  V30 3623 H 344.532 -1.11409 -4.71928 0
M  V30 3624 N 345.875 1.56104 -0.216619 0
M  V30 3625 C 347.105 2.02269 0.420802 0
M  V30 3626 C 347.513 1.09575 1.5424 0
M  V30 3627 O 346.856 0.0967308 1.83445 0
M  V30 3628 C 346.918 3.44784 1.01806 0
M  V30 3629 C 346.582 4.56988 0.0325154 0
M  V30 3630 C 347.579 5.14225 -0.766055 0
M  V30 3631 C 345.264 5.02228 -0.0848092 0
M  V30 3632 C 347.258 6.15169 -1.6687 0
M  V30 3633 C 344.945 6.03011 -0.990994 0
M  V30 3634 C 345.943 6.59357 -1.78149 0
M  V30 3635 O 345.631 7.58179 -2.67245 0
M  V30 3636 H 345.363 0.667353 0.107776 0
M  V30 3637 H 347.917 2.02747 -0.329034 0
M  V30 3638 H 346.147 3.41359 1.81689 0
M  V30 3639 H 347.836 3.74626 1.56237 0
M  V30 3640 H 348.602 4.80126 -0.685836 0
M  V30 3641 H 344.481 4.58054 0.520349 0
M  V30 3642 H 348.025 6.59076 -2.28615 0
M  V30 3643 H 343.922 6.36532 -1.07225 0
M  V30 3644 H 344.69 7.75682 -2.61265 0
M  V30 3645 N 347.353 -0.0568162 1.57498 0
M  V30 3646 C 348.285 -1.09292 2.01464 0
M  V30 3647 C 349.298 -1.34112 0.922913 0
M  V30 3648 O 350.487 -1.32089 1.20062 0
M  V30 3649 C 347.587 -2.44068 2.35125 0
M  V30 3650 C 346.76 -2.38995 3.66333 0
M  V30 3651 C 345.819 -3.55997 3.87495 0
M  V30 3652 O 344.845 -3.36746 4.58901 0
M  V30 3653 N 346.047 -4.76888 3.30996 0
M  V30 3654 H 348.812 -0.718386 2.90963 0
M  V30 3655 H 346.373 -0.245235 1.60032 0
M  V30 3656 H 348.365 -3.21011 2.46443 0
M  V30 3657 H 346.935 -2.73468 1.5144 0
M  V30 3658 H 346.155 -1.47336 3.65631 0
M  V30 3659 H 347.443 -2.3272 4.52458 0
M  V30 3660 H 346.841 -4.95431 2.73065 0
M  V30 3661 H 345.398 -5.51291 3.47738 0
M  V30 3662 N 348.832 -1.54138 -0.328536 0
M  V30 3663 C 350.081 -1.71318 -1.06456 0
M  V30 3664 C 350.394 -0.491109 -1.89334 0
M  V30 3665 O 351.6 -0.54416 -2.65991 0
M  V30 3666 C 350.056 -3.03 -1.94214 0
M  V30 3667 C 349.664 -4.32595 -1.16471 0
M  V30 3668 C 351.408 -3.29544 -2.67583 0
M  V30 3669 C 349.315 -5.55341 -2.03347 0
M  V30 3670 H 348.245 -0.638429 -0.401155 0
M  V30 3671 H 350.896 -1.80633 -0.323106 0
M  V30 3672 H 349.278 -2.87579 -2.72239 0
M  V30 3673 H 350.452 -4.58766 -0.432525 0
M  V30 3674 H 348.767 -4.12777 -0.548063 0
M  V30 3675 H 351.364 -4.18444 -3.3288 0
M  V30 3676 H 351.707 -2.47206 -3.34955 0
M  V30 3677 H 352.24 -3.45809 -1.96623 0
M  V30 3678 H 348.979 -6.40268 -1.40491 0
M  V30 3679 H 348.499 -5.33397 -2.74313 0
M  V30 3680 H 350.178 -5.91557 -2.62049 0
M  V30 3681 N 350.31 0.590341 -1.46126 0
M  V30 3682 C 351.559 1.34499 -1.50309 0
M  V30 3683 C 351.872 1.94977 -0.156021 0
M  V30 3684 O 353.078 2.71395 -0.0756037 0
M  V30 3685 C 351.534 2.43723 -2.64815 0
M  V30 3686 C 351.142 1.89582 -4.0591 0
M  V30 3687 C 352.886 3.20579 -2.78262 0
M  V30 3688 C 350.793 2.9639 -5.11769 0
M  V30 3689 H 349.723 0.505593 -0.559368 0
M  V30 3690 H 352.374 0.630848 -1.72315 0
M  V30 3691 H 350.756 3.17902 -2.36124 0
M  V30 3692 H 351.93 1.21997 -4.44357 0
M  V30 3693 H 350.245 1.25418 -3.97063 0
M  V30 3694 H 352.842 4.00276 -3.54519 0
M  V30 3695 H 353.185 3.72684 -1.85505 0
M  V30 3696 H 353.718 2.53505 -3.06562 0
M  V30 3697 H 350.457 2.49181 -6.06291 0
M  V30 3698 H 349.977 3.62487 -4.77873 0
M  V30 3699 H 351.656 3.60474 -5.37278 0
M  V30 3700 N 351.788 1.33704 0.83433 0
M  V30 3701 C 352.718 1.26967 1.95963 0
M  V30 3702 C 353.699 0.149337 1.69443 0
M  V30 3703 O 354.884 0.339852 1.91203 0
M  V30 3704 C 352.014 1.01275 3.32206 0
M  V30 3705 C 350.968 2.09652 3.73136 0
M  V30 3706 C 350.294 1.69166 5.07235 0
M  V30 3707 C 351.594 3.51372 3.86439 0
M  V30 3708 H 353.288 2.2112 2.01857 0
M  V30 3709 H 350.834 1.06447 0.969793 0
M  V30 3710 H 352.787 0.952106 4.10503 0
M  V30 3711 H 351.511 0.0356203 3.26581 0
M  V30 3712 H 350.17 2.14766 2.97104 0
M  V30 3713 H 349.818 0.701437 4.98085 0
M  V30 3714 H 349.518 2.41694 5.35591 0
M  V30 3715 H 351.042 1.64576 5.88003 0
M  V30 3716 H 352.456 3.48734 4.55036 0
M  V30 3717 H 350.853 4.22425 4.26236 0
M  V30 3718 H 351.923 3.89546 2.88759 0
M  V30 3719 N 353.266 -1.05314 1.17247 0
M  V30 3720 C 354.213 -2.13031 0.888058 0
M  V30 3721 C 355.183 -1.65253 -0.167537 0
M  V30 3722 O 356.368 -1.90775 -0.0305974 0
M  V30 3723 C 353.508 -3.42702 0.406147 0
M  V30 3724 C 352.621 -4.04161 1.52572 0
M  V30 3725 C 351.756 -5.21744 0.997808 0
M  V30 3726 C 350.795 -5.75207 2.09291 0
M  V30 3727 N 349.932 -6.84094 1.57986 0
M  V30 3728 H 354.772 -2.36698 1.81048 0
M  V30 3729 H 352.309 -1.16121 0.903013 0
M  V30 3730 H 354.267 -4.17059 0.108305 0
M  V30 3731 H 352.897 -3.19222 -0.479313 0
M  V30 3732 H 351.949 -3.27253 1.93931 0
M  V30 3733 H 353.261 -4.39881 2.35172 0
M  V30 3734 H 352.415 -6.03168 0.653739 0
M  V30 3735 H 351.154 -4.87495 0.141232 0
M  V30 3736 H 350.159 -4.92414 2.44557 0
M  V30 3737 H 351.384 -6.11505 2.95362 0
M  V30 3738 H 349.33 -6.51745 0.74598 0
M  V30 3739 H 349.247 -7.18811 2.34195 0
M  V30 3740 H 350.515 -7.69172 1.26468 0
M  V30 3741 N 354.744 -0.972509 -1.24016 0
M  V30 3742 C 355.707 -0.511403 -2.23422 0
M  V30 3743 C 356.707 0.394679 -1.55881 0
M  V30 3744 O 357.897 0.189469 -1.73167 0
M  V30 3745 C 355.029 0.258769 -3.39916 0
M  V30 3746 H 356.222 -1.39024 -2.6573 0
M  V30 3747 H 353.775 -0.757585 -1.36713 0
M  V30 3748 H 354.51 1.1545 -3.03054 0
M  V30 3749 H 354.295 -0.391522 -3.9014 0
M  V30 3750 H 355.785 0.570244 -4.13688 0
M  V30 3751 N 356.222 1.38976 -0.743202 0
M  V30 3752 C 357.152 2.33171 -0.123873 0
M  V30 3753 C 358.133 1.54336 0.71516 0
M  V30 3754 O 359.318 1.82696 0.658467 0
M  V30 3755 C 356.448 3.38474 0.777978 0
M  V30 3756 C 355.402 4.27979 0.0424758 0
M  V30 3757 C 354.728 5.2405 1.06189 0
M  V30 3758 C 356.028 5.10155 -1.1198 0
M  V30 3759 H 357.722 2.85213 -0.910709 0
M  V30 3760 H 355.268 1.37133 -0.439388 0
M  V30 3761 H 357.221 4.03328 1.22084 0
M  V30 3762 H 355.945 2.84891 1.59702 0
M  V30 3763 H 354.604 3.64616 -0.380853 0
M  V30 3764 H 354.252 4.66758 1.87472 0
M  V30 3765 H 353.952 5.84785 0.574485 0
M  V30 3766 H 355.476 5.9178 1.50428 0
M  V30 3767 H 356.89 5.68307 -0.75499 0
M  V30 3768 H 355.287 5.80073 -1.53738 0
M  V30 3769 H 356.357 4.44504 -1.93764 0
M  V30 3770 N 357.7 0.491464 1.49741 0
M  V30 3771 C 358.61 -0.296835 2.32715 0
M  V30 3772 C 359.626 -0.976536 1.44013 0
M  V30 3773 O 360.802 -0.960023 1.77047 0
M  V30 3774 C 357.867 -1.35288 3.19215 0
M  V30 3775 C 356.928 -0.687632 4.23757 0
M  V30 3776 C 356.161 -1.69336 5.06123 0
M  V30 3777 O 356.384 -2.92219 4.89861 0
M  V30 3778 O 355.318 -1.25394 5.88693 0
M  V30 3779 H 359.144 0.382048 3.01287 0
M  V30 3780 H 356.729 0.252953 1.47243 0
M  V30 3781 H 358.611 -1.96411 3.72828 0
M  V30 3782 H 357.286 -2.01487 2.53347 0
M  V30 3783 H 356.193 -0.0369159 3.74082 0
M  V30 3784 H 357.526 -0.0682566 4.92153 0
M  V30 3785 N 359.178 -1.55987 0.224894 0
M  V30 3786 C 360.594 -1.59066 -0.130426 0
M  V30 3787 C 360.794 -1.24176 -1.5869 0
M  V30 3788 O 359.85 -0.978592 -2.32766 0
M  V30 3789 C 361.163 -3.00042 0.198883 0
M  V30 3790 C 362.711 -3.1268 0.141391 0
M  V30 3791 C 363.186 -4.55839 0.444422 0
M  V30 3792 N 364.677 -4.6152 0.394115 0
M  V30 3793 C 365.412 -5.70231 0.602038 0
M  V30 3794 N 364.908 -6.87291 0.871914 0
M  V30 3795 N 366.701 -5.59555 0.534245 0
M  V30 3796 H 358.852 -1.76941 1.17497 0
M  V30 3797 H 361.115 -0.822604 0.471197 0
M  V30 3798 H 360.821 -3.30234 1.2099 0
M  V30 3799 H 360.695 -3.74075 -0.484535 0
M  V30 3800 H 363.082 -2.82283 -0.860265 0
M  V30 3801 H 363.163 -2.40969 0.858335 0
M  V30 3802 H 362.807 -4.86954 1.44353 0
M  V30 3803 H 362.737 -5.2578 -0.293752 0
M  V30 3804 H 365.228 -3.77405 0.193356 0
M  V30 3805 H 365.541 -7.66058 1.01858 0
M  V30 3806 H 363.886 -6.89028 0.909145 0
M  V30 3807 H 367.077 -4.6698 0.323612 0
M  V30 3808 H 367.25 -6.44211 0.699693 0
M  V30 3809 N 360.656 0.0484629 -1.57525 0
M  V30 3810 C 361.904 0.741657 -1.88 0
M  V30 3811 C 362.225 1.76918 -0.820054 0
M  V30 3812 O 361.495 1.95335 0.148661 0
M  V30 3813 H 360.075 0.276908 -0.69378 0
M  V30 3814 H 362.737 0.019013 -1.94891 0
M  V30 3815 H 361.833 1.24336 -2.86264 0
M  V30 3816 N 362.134 1.5431 0.320358 0
M  V30 3817 C 363.359 1.76954 1.08175 0
M  V30 3818 C 363.784 0.518193 1.80821 0
M  V30 3819 O 363.142 -0.530411 1.73368 0
M  V30 3820 C 363.19 2.96451 2.05303 0
M  V30 3821 O 362.294 2.68221 3.13259 0
M  V30 3822 H 361.635 0.586275 0.311733 0
M  V30 3823 H 364.165 2.01342 0.363676 0
M  V30 3824 H 364.175 3.23887 2.48116 0
M  V30 3825 H 362.85 3.87196 1.51829 0
M  V30 3826 H 361.427 2.51744 2.75099 0
M  V30 3827 N 363.613 -0.582584 1.46437 0
M  V30 3828 C 364.543 -1.70187 1.59871 0
M  V30 3829 C 365.524 -1.64066 0.449042 0
M  V30 3830 O 366.709 -1.82081 0.6753 0
M  V30 3831 C 363.839 -3.08827 1.58881 0
M  V30 3832 C 362.793 -3.29779 2.72819 0
M  V30 3833 C 362.119 -4.68947 2.5689 0
M  V30 3834 C 363.419 -3.17601 4.1464 0
M  V30 3835 H 365.113 -1.592 2.53566 0
M  V30 3836 H 362.659 -0.764472 1.22032 0
M  V30 3837 H 364.612 -3.86951 1.66873 0
M  V30 3838 H 363.336 -3.20713 0.617306 0
M  V30 3839 H 361.995 -2.54054 2.64296 0
M  V30 3840 H 361.643 -4.77599 1.57823 0
M  V30 3841 H 361.343 -4.83919 3.33312 0
M  V30 3842 H 362.867 -5.4924 2.66773 0
M  V30 3843 H 364.281 -3.8557 4.24274 0
M  V30 3844 H 362.678 -3.44094 4.9165 0
M  V30 3845 H 363.748 -2.14681 4.34788 0
M  V30 3846 N 365.091 -1.34144 -0.827227 0
M  V30 3847 C 366.021 -1.28005 -1.95287 0
M  V30 3848 C 367.002 -0.158321 -1.69362 0
M  V30 3849 O 368.187 -0.349987 -1.9102 0
M  V30 3850 C 365.317 -1.03036 -3.31664 0
M  V30 3851 C 364.271 -2.11628 -3.72019 0
M  V30 3852 C 363.597 -1.71854 -5.0633 0
M  V30 3853 C 364.897 -3.53417 -3.8457 0
M  V30 3854 H 366.591 -2.22187 -2.00682 0
M  V30 3855 H 364.137 -1.0696 -0.964135 0
M  V30 3856 H 366.09 -0.973863 -4.09993 0
M  V30 3857 H 364.814 -0.0529391 -3.26557 0
M  V30 3858 H 363.473 -2.16339 -2.95961 0
M  V30 3859 H 363.121 -0.727841 -4.97706 0
M  V30 3860 H 362.821 -2.44531 -5.34302 0
M  V30 3861 H 364.345 -1.67692 -5.87122 0
M  V30 3862 H 365.759 -3.51142 -4.5318 0
M  V30 3863 H 364.156 -4.24679 -4.2399 0
M  V30 3864 H 365.226 -3.91072 -2.86689 0
M  V30 3865 N 366.569 1.04691 -1.17803 0
M  V30 3866 C 367.817 1.7743 -0.967617 0
M  V30 3867 C 368.138 1.88359 0.504574 0
M  V30 3868 O 367.408 1.40402 1.36617 0
M  V30 3869 H 365.988 0.657242 -0.355024 0
M  V30 3870 H 368.65 1.2638 -1.48371 0
M  V30 3871 H 367.746 2.78924 -1.40027 0
M  V30 3872 N 368.047 0.979072 1.23499 0
M  V30 3873 C 369.287 0.655228 1.93613 0
M  V30 3874 C 369.651 -0.796336 1.74707 0
M  V30 3875 O 370.852 -1.23094 2.38959 0
M  V30 3876 C 369.123 1.03337 3.42135 0
M  V30 3877 S 370.682 0.825793 4.3096 0
M  V30 3878 H 367.5 0.240004 0.669267 0
M  V30 3879 H 370.102 1.25843 1.49612 0
M  V30 3880 H 368.806 2.08646 3.53405 0
M  V30 3881 H 368.337 0.421397 3.91137 0
M  V30 3882 H 370.352 -0.290991 4.95346 0
M  V30 3883 N 369.525 -1.3858 0.750561 0
M  V30 3884 C 370.75 -2.04997 0.314812 0
M  V30 3885 C 371.175 -1.56235 -1.04749 0
M  V30 3886 O 370.533 -0.712981 -1.66692 0
M  V30 3887 C 370.581 -3.58961 0.343415 0
M  V30 3888 O 369.685 -4.07025 -0.663628 0
M  V30 3889 H 369.026 -0.649081 0.139962 0
M  V30 3890 H 371.556 -1.77313 1.02084 0
M  V30 3891 H 371.566 -4.07542 0.193233 0
M  V30 3892 H 370.241 -3.93811 1.33738 0
M  V30 3893 H 368.818 -3.6982 -0.478307 0
M  V30 3894 N 371.003 -0.499398 -1.49478 0
M  V30 3895 C 372.252 0.0475259 -2.01644 0
M  V30 3896 C 372.565 1.38195 -1.38425 0
M  V30 3897 O 373.771 2.01547 -1.8191 0
M  V30 3898 C 372.227 0.135164 -3.59646 0
M  V30 3899 C 371.835 -1.19252 -4.31837 0
M  V30 3900 C 373.579 0.632538 -4.19761 0
M  V30 3901 C 371.486 -1.06713 -5.81693 0
M  V30 3902 H 370.416 0.0215349 -0.753692 0
M  V30 3903 H 373.067 -0.638577 -1.7203 0
M  V30 3904 H 371.449 0.885681 -3.85969 0
M  V30 3905 H 372.623 -1.9562 -4.17216 0
M  V30 3906 H 370.938 -1.62321 -3.83459 0
M  V30 3907 H 373.535 0.743833 -5.29501 0
M  V30 3908 H 373.878 1.63098 -3.83021 0
M  V30 3909 H 374.411 -0.0613987 -3.97753 0
M  V30 3910 H 371.15 -2.03979 -6.22955 0
M  V30 3911 H 370.67 -0.344307 -5.98811 0
M  V30 3912 H 372.349 -0.745208 -6.42694 0
M  V30 3913 N 372.481 1.55866 -0.233164 0
M  V30 3914 C 373.758 1.90471 0.444988 0
M  V30 3915 C 374.138 1.15209 1.7689 0
M  V30 3916 O 373.486 0.265119 2.26957 0
M  V30 3917 C 373.696 3.4333 0.626559 0
M  V30 3918 C 375.044 4.14319 0.92871 0
M  V30 3919 O 376.068 3.48993 0.712926 0
M  V30 3920 O 374.927 5.29846 1.33887 0
M  V30 3921 H 372.021 0.792347 0.236885 0
M  V30 3922 H 374.567 1.67437 -0.276211 0
M  V30 3923 H 373.339 3.90095 -0.306822 0
M  V30 3924 H 372.962 3.72181 1.39881 0
M  V30 3925 N 373.959 -0.0401083 1.57549 0
M  V30 3926 C 375.208 -0.732108 1.87944 0
M  V30 3927 C 375.521 -1.77107 0.830206 0
M  V30 3928 O 376.727 -2.51488 1.02302 0
M  V30 3929 C 375.183 -1.35315 3.33494 0
M  V30 3930 C 374.791 -0.351105 4.46622 0
M  V30 3931 C 376.535 -2.02566 3.73051 0
M  V30 3932 C 374.442 -0.979859 5.83226 0
M  V30 3933 H 373.372 -0.277188 0.701201 0
M  V30 3934 H 376.023 0.0138501 1.83495 0
M  V30 3935 H 374.405 -2.14844 3.32653 0
M  V30 3936 H 375.579 0.416674 4.58912 0
M  V30 3937 H 373.894 0.218708 4.15825 0
M  V30 3938 H 376.491 -2.50441 4.72423 0
M  V30 3939 H 376.834 -2.83904 3.04474 0
M  V30 3940 H 377.367 -1.29827 3.76018 0
M  V30 3941 H 374.106 -0.206135 6.55176 0
M  V30 3942 H 373.626 -1.71774 5.74677 0
M  V30 3943 H 375.305 -1.49046 6.29599 0
M  V30 3944 N 375.437 -1.54477 -0.31217 0
M  V30 3945 C 376.662 -1.77526 -1.07235 0
M  V30 3946 C 377.087 -0.527775 -1.80544 0
M  V30 3947 O 376.445 0.52121 -1.73646 0
M  V30 3948 C 376.493 -2.97535 -2.03728 0
M  V30 3949 O 375.597 -2.69878 -3.11833 0
M  V30 3950 H 374.938 -0.58792 -0.30862 0
M  V30 3951 H 377.468 -2.01532 -0.352993 0
M  V30 3952 H 377.478 -3.25198 -2.46395 0
M  V30 3953 H 376.153 -3.87996 -1.49774 0
M  V30 3954 H 374.73 -2.53199 -2.7376 0
M  V30 3955 N 376.915 0.57481 -1.46744 0
M  V30 3956 C 378.14 1.36341 -1.56288 0
M  V30 3957 C 378.565 1.86954 -0.207347 0
M  V30 3958 O 377.923 1.62006 0.813871 0
M  V30 3959 C 377.971 2.52147 -2.57787 0
M  V30 3960 O 377.075 3.53834 -2.11838 0
M  V30 3961 H 376.416 0.405713 -0.525636 0
M  V30 3962 H 378.946 0.696453 -1.92382 0
M  V30 3963 H 378.956 2.98958 -2.77648 0
M  V30 3964 H 377.631 2.14663 -3.5622 0
M  V30 3965 H 376.208 3.1345 -2.01999 0
M  V30 3966 N 378.394 1.34581 0.820102 0
M  V30 3967 C 379.64 1.27285 1.57881 0
M  V30 3968 C 379.973 -0.156137 1.93571 0
M  V30 3969 O 379.248 -1.10222 1.60254 0
M  V30 3970 C 379.531 2.16639 2.87645 0
M  V30 3971 C 379.384 3.68088 2.58517 0
M  V30 3972 C 380.703 2.05378 3.8924 0
M  V30 3973 H 377.822 0.463714 0.572833 0
M  V30 3974 H 380.464 1.64859 0.944539 0
M  V30 3975 H 378.614 1.84725 3.41773 0
M  V30 3976 H 380.286 4.10382 2.10676 0
M  V30 3977 H 378.529 3.89038 1.91917 0
M  V30 3978 H 379.2 4.2598 3.51063 0
M  V30 3979 H 381.676 2.33404 3.44473 0
M  V30 3980 H 380.552 2.7012 4.77835 0
M  V30 3981 H 380.813 1.0316 4.29896 0
M  V30 3982 N 379.872 -1.04064 1.18357 0
M  V30 3983 C 380.802 -2.14001 0.934113 0
M  V30 3984 C 381.783 -1.69616 -0.128186 0
M  V30 3985 O 382.968 -1.94185 0.0244093 0
M  V30 3986 C 380.098 -3.44253 0.459066 0
M  V30 3987 C 379.052 -4.02261 1.46185 0
M  V30 3988 C 378.378 -5.27992 0.844322 0
M  V30 3989 C 379.678 -4.38432 2.83856 0
M  V30 3990 H 381.372 -2.35127 1.85352 0
M  V30 3991 H 378.918 -1.12998 0.892604 0
M  V30 3992 H 380.871 -4.20522 0.271907 0
M  V30 3993 H 379.595 -3.22813 -0.495912 0
M  V30 3994 H 378.254 -3.28074 1.63595 0
M  V30 3995 H 377.902 -5.02862 -0.117845 0
M  V30 3996 H 377.602 -5.67765 1.51384 0
M  V30 3997 H 379.126 -6.06938 0.667693 0
M  V30 3998 H 380.54 -5.05688 2.70098 0
M  V30 3999 H 378.937 -4.89254 3.47491 0
M  V30 4000 H 380.007 -3.4826 3.37406 0
M  V30 4001 N 381.35 -0.985608 -1.22978 0
M  V30 4002 C 382.627 -0.573599 -1.87001 0
M  V30 4003 C 383.007 0.949213 -1.88555 0
M  V30 4004 O 382.355 1.82811 -1.37086 0
M  V30 4005 C 382.565 -1.18564 -3.28243 0
M  V30 4006 C 383.913 -1.28163 -4.04796 0
M  V30 4007 O 384.937 -1.13949 -3.37482 0
M  V30 4008 O 383.796 -1.50832 -5.25273 0
M  V30 4009 H 380.89 -0.193868 -0.803955 0
M  V30 4010 H 383.436 -1.08102 -1.30813 0
M  V30 4011 H 382.208 -2.22758 -3.21706 0
M  V30 4012 H 381.831 -0.663363 -3.92027 0
M  V30 4013 N 382.828 1.3818 -0.7579 0
M  V30 4014 C 383.761 2.28055 -0.0814093 0
M  V30 4015 C 384.739 1.45603 0.723779 0
M  V30 4016 O 385.923 1.74961 0.701491 0
M  V30 4017 C 383.05 3.2676 0.891394 0
M  V30 4018 C 382.096 4.26153 0.171909 0
M  V30 4019 S 382.929 5.23434 -1.13035 0
M  V30 4020 C 384.085 6.25694 -0.160727 0
M  V30 4021 H 384.318 2.85082 -0.84353 0
M  V30 4022 H 381.851 1.44246 -0.550671 0
M  V30 4023 H 383.809 3.8414 1.44731 0
M  V30 4024 H 382.47 2.68706 1.62652 0
M  V30 4025 H 381.663 4.95738 0.908843 0
M  V30 4026 H 381.265 3.72691 -0.312606 0
M  V30 4027 H 383.557 6.74161 0.671773 0
M  V30 4028 H 384.5 7.03285 -0.824353 0
M  V30 4029 H 384.908 5.64064 0.221892 0
M  V30 4030 N 384.306 0.507319 1.49211 0
M  V30 4031 C 385.216 -0.272136 2.33016 0
M  V30 4032 C 386.232 -0.961206 1.45041 0
M  V30 4033 O 387.408 -0.941191 1.78055 0
M  V30 4034 C 384.473 -1.31895 3.20631 0
M  V30 4035 C 383.534 -0.642648 4.24463 0
M  V30 4036 C 382.767 -1.63959 5.07891 0
M  V30 4037 O 382.99 -2.87007 4.92933 0
M  V30 4038 O 381.924 -1.19143 5.8999 0
M  V30 4039 H 385.75 0.413982 3.00865 0
M  V30 4040 H 383.335 0.268556 1.46966 0
M  V30 4041 H 385.217 -1.92446 3.7489 0
M  V30 4042 H 383.892 -1.98788 2.5547 0
M  V30 4043 H 382.799 0.00276252 3.741 0
M  V30 4044 H 384.132 -0.0160534 4.92197 0
M  V30 4045 N 385.784 -1.5574 0.241426 0
M  V30 4046 C 386.747 -2.19877 -0.647063 0
M  V30 4047 C 387.747 -1.16642 -1.10686 0
M  V30 4048 O 388.937 -1.41757 -1.01245 0
M  V30 4049 C 386.069 -2.83797 -1.88871 0
M  V30 4050 H 387.262 -2.99772 -0.087574 0
M  V30 4051 H 384.815 -1.56298 -0.00813574 0
M  V30 4052 H 385.55 -2.07824 -2.48957 0
M  V30 4053 H 385.335 -3.59414 -1.56728 0
M  V30 4054 H 386.825 -3.32898 -2.52129 0
M  V30 4055 N 387.262 0.0317525 -1.57568 0
M  V30 4056 C 388.511 0.722131 -1.8833 0
M  V30 4057 C 388.824 1.76664 -0.839587 0
M  V30 4058 O 390.03 2.50942 -1.03635 0
M  V30 4059 C 388.486 1.33544 -3.34207 0
M  V30 4060 C 388.094 0.327415 -4.46802 0
M  V30 4061 C 389.838 2.00585 -3.7412 0
M  V30 4062 C 387.745 0.948915 -5.83738 0
M  V30 4063 H 386.675 0.273466 -0.702661 0
M  V30 4064 H 389.326 -0.0235811 -1.83485 0
M  V30 4065 H 387.708 2.13077 -3.33788 0
M  V30 4066 H 388.882 -0.441006 -4.58685 0
M  V30 4067 H 387.197 -0.240758 -4.15703 0
M  V30 4068 H 389.794 2.47932 -4.73744 0
M  V30 4069 H 390.137 2.82285 -3.05975 0
M  V30 4070 H 390.67 1.27831 -3.76702 0
M  V30 4071 H 387.409 0.171387 -6.55276 0
M  V30 4072 H 386.929 1.68724 -5.7558 0
M  V30 4073 H 388.608 1.45705 -6.3038 0
M  V30 4074 N 388.74 1.54641 0.303973 0
M  V30 4075 C 389.968 1.77768 1.05858 0
M  V30 4076 C 390.383 0.535722 1.8104 0
M  V30 4077 O 389.74 -0.494337 1.75677 0
M  V30 4078 C 389.791 2.9834 2.04146 0
M  V30 4079 O 389.512 4.17736 1.32015 0
M  V30 4080 C 391.013 3.33832 2.91669 0
M  V30 4081 H 388.233 0.592961 0.314067 0
M  V30 4082 H 390.777 2.01583 0.344149 0
M  V30 4083 H 388.932 2.76742 2.71096 0
M  V30 4084 H 389.346 4.85693 1.97998 0
M  V30 4085 H 390.82 4.21448 3.56491 0
M  V30 4086 H 391.297 2.51857 3.59812 0
M  V30 4087 H 391.903 3.57579 2.30254 0
M  V30 4088 N 390.218 -0.567019 1.47046 0
M  V30 4089 C 391.465 -1.32462 1.53167 0
M  V30 4090 C 391.793 -1.93571 0.189841 0
M  V30 4091 O 391.048 -1.77865 -0.816243 0
M  V30 4092 C 391.347 -2.4623 2.59047 0
M  V30 4093 C 391.013 -2.03014 4.02612 0
M  V30 4094 C 389.675 -1.90944 4.41694 0
M  V30 4095 C 392.027 -1.69895 4.92732 0
M  V30 4096 C 389.355 -1.44035 5.68745 0
M  V30 4097 C 391.707 -1.2446 6.20236 0
M  V30 4098 C 390.371 -1.10979 6.5821 0
M  V30 4099 H 389.641 -0.484713 0.560477 0
M  V30 4100 H 392.288 -0.636888 1.80599 0
M  V30 4101 H 390.593 -3.20517 2.25335 0
M  V30 4102 H 392.29 -3.04427 2.61008 0
M  V30 4103 H 388.88 -2.13348 3.71726 0
M  V30 4104 H 393.064 -1.78098 4.63244 0
M  V30 4105 H 388.32 -1.32254 5.96925 0
M  V30 4106 H 392.494 -0.978924 6.89485 0
M  V30 4107 H 390.121 -0.744078 7.5655 0
M  V30 4108 N 391.696 -1.35014 -0.812953 0
M  V30 4109 C 392.643 -1.27412 -1.92444 0
M  V30 4110 C 393.613 -0.14733 -1.65445 0
M  V30 4111 O 394.798 -0.329974 -1.87925 0
M  V30 4112 C 391.938 -1.04558 -3.28879 0
M  V30 4113 C 391.051 -2.26101 -3.68106 0
M  V30 4114 C 390.186 -1.96449 -4.9354 0
M  V30 4115 C 389.225 -3.14081 -5.25376 0
M  V30 4116 N 388.362 -2.84246 -6.41988 0
M  V30 4117 H 393.202 -2.22463 -1.98278 0
M  V30 4118 H 390.739 -1.10593 -0.969933 0
M  V30 4119 H 392.697 -0.893413 -4.07522 0
M  V30 4120 H 391.327 -0.131719 -3.22531 0
M  V30 4121 H 390.379 -2.52204 -2.84775 0
M  V30 4122 H 391.691 -3.13959 -3.87597 0
M  V30 4123 H 390.845 -1.78026 -5.79993 0
M  V30 4124 H 389.584 -1.05867 -4.76071 0
M  V30 4125 H 388.589 -3.33089 -4.37415 0
M  V30 4126 H 389.814 -4.05455 -5.44778 0
M  V30 4127 H 387.76 -1.96252 -6.25956 0
M  V30 4128 H 387.677 -3.65637 -6.61699 0
M  V30 4129 H 388.945 -2.6935 -7.31485 0
M  V30 4130 N 393.175 1.03435 -1.18907 0
M  V30 4131 C 394.122 2.11591 -0.921837 0
M  V30 4132 C 395.092 1.65499 0.141226 0
M  V30 4133 O 396.277 1.908 0.000242829 0
M  V30 4134 C 393.417 3.42012 -0.460616 0
M  V30 4135 C 392.53 4.01682 -1.58982 0
M  V30 4136 C 391.665 5.20091 -1.08069 0
M  V30 4137 C 390.704 5.71805 -2.18416 0
M  V30 4138 N 389.841 6.81494 -1.68849 0
M  V30 4139 H 394.681 2.33787 -1.8479 0
M  V30 4140 H 392.218 1.1467 -0.921373 0
M  V30 4141 H 394.176 4.16834 -0.174642 0
M  V30 4142 H 392.806 3.19944 0.428467 0
M  V30 4143 H 391.858 3.24127 -1.99113 0
M  V30 4144 H 393.17 4.36084 -2.4214 0
M  V30 4145 H 392.324 6.02051 -0.749615 0
M  V30 4146 H 391.063 4.87209 -0.218771 0
M  V30 4147 H 390.068 4.88461 -2.5236 0
M  V30 4148 H 391.293 6.06728 -3.05054 0
M  V30 4149 H 389.239 6.50475 -0.849572 0
M  V30 4150 H 389.156 7.14994 -2.45601 0
M  V30 4151 H 390.424 7.67063 -1.38689 0
M  V30 4152 N 394.653 0.992116 1.22453 0
M  V30 4153 C 395.583 0.561677 2.26644 0
M  V30 4154 C 396.564 -0.411055 1.65059 0
M  V30 4155 O 397.749 -0.301861 1.9184 0
M  V30 4156 C 394.879 -0.125247 3.47074 0
M  V30 4157 C 393.833 0.765948 4.21091 0
M  V30 4158 C 393.159 -0.0538484 5.34673 0
M  V30 4159 C 394.459 2.06242 4.79856 0
M  V30 4160 H 396.153 1.43259 2.62902 0
M  V30 4161 H 393.699 0.690283 1.26377 0
M  V30 4162 H 395.652 -0.437764 4.1912 0
M  V30 4163 H 394.376 -1.03069 3.0991 0
M  V30 4164 H 393.035 1.0621 3.50878 0
M  V30 4165 H 392.683 -0.960188 4.9375 0
M  V30 4166 H 392.383 0.539415 5.85119 0
M  V30 4167 H 393.907 -0.360477 6.09535 0
M  V30 4168 H 395.321 1.8139 5.43848 0
M  V30 4169 H 393.718 2.60444 5.40638 0
M  V30 4170 H 394.788 2.74167 3.99951 0
M  V30 4171 N 396.131 -1.37776 0.765217 0
M  V30 4172 C 397.377 -2.00145 0.327072 0
M  V30 4173 C 397.71 -1.60607 -1.09175 0
M  V30 4174 O 396.985 -0.849127 -1.74986 0
M  V30 4175 C 397.268 -3.57109 0.46319 0
M  V30 4176 C 397.121 -4.06576 1.92395 0
M  V30 4177 C 398.44 -4.39888 -0.136473 0
M  V30 4178 H 395.559 -0.727113 0.120316 0
M  V30 4179 H 398.201 -1.63549 0.967039 0
M  V30 4180 H 396.351 -3.88414 -0.0816358 0
M  V30 4181 H 398.023 -3.85864 2.52798 0
M  V30 4182 H 396.266 -3.59011 2.43503 0
M  V30 4183 H 396.937 -5.15639 1.97028 0
M  V30 4184 H 399.413 -4.14803 0.328317 0
M  V30 4185 H 398.289 -5.48899 -0.0110582 0
M  V30 4186 H 398.55 -4.24758 -1.22608 0
M  V30 4187 N 397.609 -0.515225 -1.4894 0
M  V30 4188 C 398.556 0.255567 -2.29381 0
M  V30 4189 C 399.526 0.947387 -1.36432 0
M  V30 4190 O 400.711 0.951288 -1.65394 0
M  V30 4191 C 397.851 1.30551 -3.19453 0
M  V30 4192 C 396.964 0.624029 -4.27469 0
M  V30 4193 C 396.099 1.65563 -5.0474 0
M  V30 4194 C 395.138 0.956802 -6.04576 0
M  V30 4195 N 394.275 1.93326 -6.74959 0
M  V30 4196 H 399.115 -0.436607 -2.94784 0
M  V30 4197 H 396.652 -0.227154 -1.45336 0
M  V30 4198 H 398.61 1.92639 -3.70062 0
M  V30 4199 H 397.24 1.96626 -2.56004 0
M  V30 4200 H 396.292 -0.110459 -3.8024 0
M  V30 4201 H 397.604 0.0746092 -4.98744 0
M  V30 4202 H 396.758 2.35119 -5.59289 0
M  V30 4203 H 395.497 2.23893 -4.3327 0
M  V30 4204 H 394.502 0.247097 -5.49244 0
M  V30 4205 H 395.727 0.379814 -6.78037 0
M  V30 4206 H 393.673 2.50591 -6.06251 0
M  V30 4207 H 393.59 1.43489 -7.42258 0
M  V30 4208 H 394.858 2.62126 -7.34105 0
M  V30 4209 N 399.087 1.5561 -0.249682 0
M  V30 4210 C 400.335 1.98618 0.373548 0
M  V30 4211 C 400.656 1.13919 1.58264 0
M  V30 4212 O 399.926 0.222637 1.94631 0
M  V30 4213 H 398.506 0.733571 0.141006 0
M  V30 4214 H 401.168 1.91748 -0.349117 0
M  V30 4215 H 400.264 3.04584 0.680796 0
M  V30 4216 N 400.565 -0.0233959 1.57583 0
M  V30 4217 C 401.515 -1.03023 2.03397 0
M  V30 4218 C 402.499 -1.31701 0.924315 0
M  V30 4219 O 403.691 -1.31191 1.18819 0
M  V30 4220 C 400.82 -2.32961 2.52159 0
M  V30 4221 C 399.906 -2.07349 3.69956 0
M  V30 4222 N 400.297 -1.51814 4.82479 0
M  V30 4223 C 398.595 -2.37606 3.77438 0
M  V30 4224 C 399.296 -1.42136 5.64068 0
M  V30 4225 N 398.272 -1.89891 5.09355 0
M  V30 4226 H 402.074 -0.594962 2.87815 0
M  V30 4227 H 399.588 -0.229586 1.60769 0
M  V30 4228 H 401.585 -3.05906 2.83244 0
M  V30 4229 H 400.245 -2.77162 1.69149 0
M  V30 4230 H 401.256 -1.20008 5.03804 0
M  V30 4231 H 397.933 -2.84842 3.05239 0
M  V30 4232 H 399.323 -0.996405 6.64471 0
M  V30 4233 N 402.043 -1.548 -0.295768 0
M  V30 4234 C 403.006 -1.85363 -1.34808 0
M  V30 4235 C 404.006 -0.726817 -1.43436 0
M  V30 4236 O 405.196 -0.995088 -1.42981 0
M  V30 4237 C 402.328 -2.03859 -2.73229 0
M  V30 4238 H 403.521 -2.7941 -1.08949 0
M  V30 4239 H 401.074 -1.46942 -0.532702 0
M  V30 4240 H 401.809 -1.12117 -3.04303 0
M  V30 4241 H 401.594 -2.8588 -2.68356 0
M  V30 4242 H 403.084 -2.28857 -3.49305 0
M  V30 4243 N 403.521 0.559213 -1.47345 0
M  V30 4244 C 404.751 1.33999 -1.57251 0
M  V30 4245 C 405.159 1.87905 -0.220978 0
M  V30 4246 O 404.502 1.65577 0.795617 0
M  V30 4247 C 404.564 2.54798 -2.53611 0
M  V30 4248 C 404.228 2.22192 -3.99349 0
M  V30 4249 C 405.225 1.79607 -4.87891 0
M  V30 4250 C 402.91 2.33613 -4.44669 0
M  V30 4251 C 404.904 1.48868 -6.19772 0
M  V30 4252 C 402.591 2.02487 -5.76578 0
M  V30 4253 C 403.589 1.60183 -6.63951 0
M  V30 4254 O 403.277 1.29451 -7.93409 0
M  V30 4255 H 403.009 0.414858 -0.533731 0
M  V30 4256 H 405.563 0.684465 -1.9366 0
M  V30 4257 H 403.793 3.23235 -2.12265 0
M  V30 4258 H 405.482 3.16873 -2.53666 0
M  V30 4259 H 406.248 1.70278 -4.54126 0
M  V30 4260 H 402.127 2.65501 -3.76869 0
M  V30 4261 H 405.671 1.15775 -6.87926 0
M  V30 4262 H 401.568 2.11448 -6.09885 0
M  V30 4263 H 402.336 1.43098 -8.05894 0
M  V30 4264 N 404.999 1.35443 0.805782 0
M  V30 4265 C 406.224 1.32037 1.59941 0
M  V30 4266 C 406.649 -0.0994215 1.87837 0
M  V30 4267 O 406.007 -1.06648 1.46615 0
M  V30 4268 C 406.055 2.13354 2.90711 0
M  V30 4269 O 405.159 1.5148 3.83572 0
M  V30 4270 H 404.5 0.452666 0.485787 0
M  V30 4271 H 407.03 1.78496 1.00002 0
M  V30 4272 H 407.04 2.25338 3.40128 0
M  V30 4273 H 405.715 3.16572 2.69732 0
M  V30 4274 H 404.292 1.4834 3.42125 0
M  V30 4275 N 406.477 -1.02803 1.19454 0
M  V30 4276 C 407.723 -1.76478 0.999171 0
M  V30 4277 C 408.056 -1.88456 -0.468828 0
M  V30 4278 O 407.331 -1.40198 -1.34814 0
M  V30 4279 C 407.614 -3.19044 1.66981 0
M  V30 4280 C 407.467 -3.14932 3.21151 0
M  V30 4281 C 408.786 -4.17456 1.39349 0
M  V30 4282 H 405.905 -0.640614 0.364393 0
M  V30 4283 H 408.547 -1.20005 1.47305 0
M  V30 4284 H 406.697 -3.67263 1.2669 0
M  V30 4285 H 408.369 -2.74605 3.70661 0
M  V30 4286 H 406.612 -2.52625 3.52652 0
M  V30 4287 H 407.283 -4.1566 3.63223 0
M  V30 4288 H 409.759 -3.77842 1.74283 0
M  V30 4289 H 408.635 -5.154 1.88823 0
M  V30 4290 H 408.896 -4.40949 0.318813 0
M  V30 4291 N 407.956 -0.998596 -1.21925 0
M  V30 4292 C 409.184 -0.696286 -1.94832 0
M  V30 4293 C 409.599 0.740032 -1.73692 0
M  V30 4294 O 408.956 1.5 -1.03953 0
M  V30 4295 C 409.007 -0.999833 -3.47398 0
M  V30 4296 O 408.728 -2.37972 -3.67833 0
M  V30 4297 C 410.229 -0.716025 -4.37479 0
M  V30 4298 H 407.449 -0.257111 -0.619786 0
M  V30 4299 H 409.993 -1.33491 -1.54921 0
M  V30 4300 H 408.148 -0.406918 -3.85257 0
M  V30 4301 H 408.562 -2.48338 -4.61983 0
M  V30 4302 H 410.036 -0.978642 -5.43256 0
M  V30 4303 H 410.513 0.349968 -4.37803 0
M  V30 4304 H 411.119 -1.29025 -4.05256 0
M  V30 4305 N 409.434 1.37368 -0.772513 0
M  V30 4306 C 410.682 1.99279 -0.336516 0
M  V30 4307 C 411.003 1.6163 1.09091 0
M  V30 4308 O 410.273 0.882109 1.74916 0
M  V30 4309 H 408.853 0.737063 -0.121435 0
M  V30 4310 H 411.515 1.67836 -0.990809 0
M  V30 4311 H 410.611 3.09332 -0.414763 0
M  V30 4312 N 410.912 0.523116 1.48665 0
M  V30 4313 C 411.875 -0.232592 2.28017 0
M  V30 4314 C 412.875 -0.874021 1.34972 0
M  V30 4315 O 414.065 -0.735132 1.57929 0
M  V30 4316 C 411.197 -1.33586 3.13636 0
M  V30 4317 H 412.39 0.464008 2.96289 0
M  V30 4318 H 409.943 0.278816 1.53793 0
M  V30 4319 H 410.678 -2.06593 2.4998 0
M  V30 4320 H 410.463 -0.881125 3.82071 0
M  V30 4321 H 411.953 -1.86759 3.73511 0
M  V30 4322 N 412.39 -1.55475 0.257931 0
M  V30 4323 C 413.337 -2.21837 -0.636939 0
M  V30 4324 C 414.307 -1.18596 -1.16294 0
M  V30 4325 O 415.492 -1.47081 -1.21539 0
M  V30 4326 C 412.632 -2.9301 -1.82317 0
M  V30 4327 C 411.745 -4.10931 -1.33265 0
M  V30 4328 C 410.88 -4.69791 -2.47931 0
M  V30 4329 C 409.919 -5.7994 -1.95796 0
M  V30 4330 N 409.056 -6.32935 -3.0387 0
M  V30 4331 H 413.896 -2.9793 -0.0643591 0
M  V30 4332 H 411.433 -1.47086 -0.0200031 0
M  V30 4333 H 413.391 -3.3248 -2.52018 0
M  V30 4334 H 412.021 -2.1937 -2.36805 0
M  V30 4335 H 411.073 -3.76699 -0.52931 0
M  V30 4336 H 412.385 -4.90417 -0.910654 0
M  V30 4337 H 411.539 -5.11892 -3.25656 0
M  V30 4338 H 410.278 -3.89545 -2.93438 0
M  V30 4339 H 409.283 -5.37305 -1.16546 0
M  V30 4340 H 410.508 -6.62043 -1.51246 0
M  V30 4341 H 408.454 -5.55591 -3.48791 0
M  V30 4342 H 408.371 -7.07645 -2.66035 0
M  V30 4343 H 409.639 -6.79695 -3.81621 0
M  V30 4344 N 413.868 0.0150385 -1.57593 0
M  V30 4345 C 414.8 1.03912 -2.04291 0
M  V30 4346 C 415.813 1.31618 -0.958146 0
M  V30 4347 O 417.002 1.28859 -1.23522 0
M  V30 4348 C 414.102 2.37749 -2.41514 0
M  V30 4349 C 413.275 2.29198 -3.72541 0
M  V30 4350 C 412.334 3.45598 -3.96797 0
M  V30 4351 O 411.36 3.24461 -4.67668 0
M  V30 4352 N 412.562 4.67945 -3.43523 0
M  V30 4353 H 415.327 0.64099 -2.92765 0
M  V30 4354 H 412.888 0.20272 -1.60626 0
M  V30 4355 H 414.88 3.14364 -2.54867 0
M  V30 4356 H 413.45 2.69357 -1.58637 0
M  V30 4357 H 412.67 1.3759 -3.69408 0
M  V30 4358 H 413.958 2.20642 -4.5847 0
M  V30 4359 H 413.356 4.88017 -2.86104 0
M  V30 4360 H 411.913 5.41878 -3.62232 0
M  V30 4361 N 415.346 1.54954 0.287554 0
M  V30 4362 C 416.592 1.75132 1.02257 0
M  V30 4363 C 416.925 0.542858 1.86458 0
M  V30 4364 O 416.2 -0.459856 1.88986 0
M  V30 4365 C 416.483 3.04812 1.91733 0
M  V30 4366 C 416.336 4.35985 1.10622 0
M  V30 4367 C 417.655 3.30438 2.90687 0
M  V30 4368 H 414.774 0.637194 0.370341 0
M  V30 4369 H 417.416 1.87678 0.296111 0
M  V30 4370 H 415.566 2.94247 2.53675 0
M  V30 4371 H 417.238 4.58487 0.508636 0
M  V30 4372 H 415.481 4.31865 0.409271 0
M  V30 4373 H 416.152 5.23017 1.76513 0
M  V30 4374 H 418.628 3.40701 2.38877 0
M  V30 4375 H 417.504 4.22467 3.50447 0
M  V30 4376 H 417.765 2.49377 3.65053 0
M  V30 4377 N 416.824 -0.551391 1.4764 0
M  V30 4378 C 417.772 -1.67896 1.60978 0
M  V30 4379 C 418.766 -1.62549 0.476877 0
M  V30 4380 O 419.972 -1.67664 0.654878 0
M  V30 4381 H 416.347 -0.555649 0.506713 0
M  V30 4382 H 418.318 -1.53784 2.55721 0
M  V30 4383 C 417.067 -3.06234 1.64669 0
M  V30 4384 H 416.39 -3.11033 2.51194 0
M  V30 4385 H 417.83 -3.84804 1.7805 0
M  V30 4386 C 416.289 -3.34737 0.381115 0
M  V30 4387 O 416.819 -3.98381 -0.515297 0
M  V30 4388 N 415.025 -2.8944 0.259354 0
M  V30 4389 H 414.572 -2.37827 0.98976 0
M  V30 4390 H 414.53 -3.08882 -0.586464 0
M  V30 4391 N 418.302 -1.35869 -0.798587 0
M  V30 4392 C 419.532 -1.32529 -1.58491 0
M  V30 4393 C 419.94 0.0975405 -1.88948 0
M  V30 4394 O 419.283 1.06224 -1.49874 0
M  V30 4395 C 419.345 -2.07247 -2.9375 0
M  V30 4396 C 419.009 -3.56391 -2.86068 0
M  V30 4397 C 420.006 -4.50824 -2.58947 0
M  V30 4398 C 417.691 -3.9915 -3.04933 0
M  V30 4399 C 419.685 -5.85993 -2.5078 0
M  V30 4400 C 417.372 -5.34413 -2.96389 0
M  V30 4401 C 418.37 -6.27646 -2.69349 0
M  V30 4402 O 418.058 -7.60426 -2.60782 0
M  V30 4403 H 417.79 -0.456529 -0.498556 0
M  V30 4404 H 420.344 -1.79425 -0.999799 0
M  V30 4405 H 418.574 -1.55001 -3.54276 0
M  V30 4406 H 420.263 -1.96883 -3.54954 0
M  V30 4407 H 421.029 -4.19104 -2.44084 0
M  V30 4408 H 416.908 -3.26961 -3.24989 0
M  V30 4409 H 420.452 -6.58735 -2.29595 0
M  V30 4410 H 416.349 -5.65743 -3.10813 0
M  V30 4411 H 417.117 -7.70444 -2.76331 0
M  V30 4412 N 419.78 1.02168 -1.19998 0
M  V30 4413 C 421.196 1.27969 -0.953737 0
M  V30 4414 C 421.396 1.98079 0.369703 0
M  V30 4415 O 420.452 2.27306 1.09947 0
M  V30 4416 C 421.765 2.11971 -2.13281 0
M  V30 4417 C 423.313 2.25255 -2.17323 0
M  V30 4418 C 423.788 3.12632 -3.34702 0
M  V30 4419 N 425.279 3.2022 -3.34684 0
M  V30 4420 C 426.014 3.88039 -4.22153 0
M  V30 4421 N 425.51 4.58027 -5.19791 0
M  V30 4422 N 427.303 3.84511 -4.10009 0
M  V30 4423 H 419.454 0.550794 -2.05134 0
M  V30 4424 H 421.717 0.305683 -0.897364 0
M  V30 4425 H 421.423 1.67785 -3.09097 0
M  V30 4426 H 421.297 3.12699 -2.10949 0
M  V30 4427 H 423.684 2.68667 -1.22073 0
M  V30 4428 H 423.765 1.24053 -2.23706 0
M  V30 4429 H 423.409 2.69926 -4.30235 0
M  V30 4430 H 423.339 4.13909 -3.25556 0
M  V30 4431 H 425.83 2.70382 -2.64012 0
M  V30 4432 H 426.143 5.07429 -5.82868 0
M  V30 4433 H 424.488 4.56869 -5.23733 0
M  V30 4434 H 427.679 3.28978 -3.33003 0
M  V30 4435 H 427.852 4.3709 -4.78389 0
M  V30 4436 N 421.258 1.00505 1.21394 0
M  V30 4437 C 422.506 0.686415 1.90086 0
M  V30 4438 C 422.827 -0.785264 1.7849 0
M  V30 4439 O 422.097 -1.56387 1.17983 0
M  V30 4440 H 420.677 0.2509 0.703604 0
M  V30 4441 H 423.339 1.27417 1.47482 0
M  V30 4442 H 422.435 0.959621 2.96981 0
M  V30 4443 N 422.737 -1.36956 0.779787 0
M  V30 4444 C 423.669 -2.28833 0.129639 0
M  V30 4445 C 424.682 -1.4902 -0.655511 0
M  V30 4446 O 425.871 -1.71578 -0.492279 0
M  V30 4447 C 422.971 -3.2833 -0.839792 0
M  V30 4448 C 422.144 -4.3727 -0.10675 0
M  V30 4449 C 421.203 -5.16789 -0.990717 0
M  V30 4450 O 420.229 -5.67406 -0.451516 0
M  V30 4451 N 421.431 -5.32294 -2.3161 0
M  V30 4452 H 424.196 -2.85268 0.918803 0
M  V30 4453 H 421.757 -1.49019 0.632841 0
M  V30 4454 H 423.749 -3.78413 -1.43477 0
M  V30 4455 H 422.319 -2.72605 -1.52988 0
M  V30 4456 H 421.539 -3.88478 0.669216 0
M  V30 4457 H 422.827 -5.07229 0.399464 0
M  V30 4458 H 422.225 -4.92768 -2.77843 0
M  V30 4459 H 420.782 -5.85656 -2.86095 0
M  V30 4460 N 424.215 -0.530993 -1.48385 0
M  V30 4461 C 425.461 0.00274135 -2.028 0
M  V30 4462 C 425.794 1.33838 -1.40716 0
M  V30 4463 O 425.069 1.86465 -0.553277 0
M  V30 4464 C 425.352 0.123676 -3.59888 0
M  V30 4465 C 425.205 -1.2372 -4.3245 0
M  V30 4466 C 426.524 0.849967 -4.31814 0
M  V30 4467 H 423.643 -0.000477758 -0.737 0
M  V30 4468 H 426.285 -0.688217 -1.77098 0
M  V30 4469 H 424.435 0.712157 -3.81917 0
M  V30 4470 H 426.107 -1.86687 -4.21836 0
M  V30 4471 H 424.35 -1.81882 -3.93829 0
M  V30 4472 H 425.021 -1.10557 -5.40815 0
M  V30 4473 H 427.497 0.350572 -4.14621 0
M  V30 4474 H 426.373 0.903486 -5.41413 0
M  V30 4475 H 426.634 1.90047 -3.99167 0
M  V30 4476 N 425.693 1.55336 -0.266172 0
M  V30 4477 C 426.939 1.99692 0.353681 0
M  V30 4478 C 427.272 1.1543 1.56172 0
M  V30 4479 O 426.547 0.222218 1.93226 0
M  V30 4480 C 426.83 3.52316 0.74466 0
M  V30 4481 C 426.683 4.47337 -0.470101 0
M  V30 4482 C 428.002 4.10588 1.58447 0
M  V30 4483 H 425.121 0.725961 0.12708 0
M  V30 4484 H 427.763 1.86336 -0.371333 0
M  V30 4485 H 425.913 3.63829 1.36239 0
M  V30 4486 H 427.585 4.4778 -1.10864 0
M  V30 4487 H 425.828 4.19364 -1.10978 0
M  V30 4488 H 426.499 5.51788 -0.15291 0
M  V30 4489 H 428.975 4.02297 1.06286 0
M  V30 4490 H 427.851 5.17607 1.82686 0
M  V30 4491 H 428.112 3.60253 2.56262 0
M  V30 4492 N 427.171 -0.0066808 1.57599 0
M  V30 4493 C 428.396 -0.707738 1.94951 0
M  V30 4494 C 428.821 -1.66882 0.867868 0
M  V30 4495 O 428.179 -1.80457 -0.17458 0
M  V30 4496 C 428.227 -1.42162 3.31394 0
M  V30 4497 O 427.331 -2.53578 3.25226 0
M  V30 4498 H 426.672 -0.188752 0.636607 0
M  V30 4499 H 429.202 0.0445193 2.04552 0
M  V30 4500 H 429.212 -1.78655 3.66806 0
M  V30 4501 H 427.887 -0.716903 4.09675 0
M  V30 4502 H 426.464 -2.19463 3.01481 0
M  V30 4503 N 428.649 -1.55105 -0.279332 0
M  V30 4504 C 429.579 -1.90557 -1.34945 0
M  V30 4505 C 430.56 -0.766738 -1.51839 0
M  V30 4506 O 431.745 -1.02434 -1.64988 0
M  V30 4507 C 428.875 -2.17193 -2.71006 0
M  V30 4508 C 427.829 -3.33021 -2.68851 0
M  V30 4509 C 427.155 -3.45123 -4.08405 0
M  V30 4510 C 428.455 -4.69578 -2.28678 0
M  V30 4511 H 430.149 -2.80188 -1.05522 0
M  V30 4512 H 427.695 -1.34811 -0.506173 0
M  V30 4513 H 429.648 -2.40581 -3.45975 0
M  V30 4514 H 428.372 -1.24355 -3.01999 0
M  V30 4515 H 427.031 -3.0959 -1.9634 0
M  V30 4516 H 426.679 -2.49762 -4.3661 0
M  V30 4517 H 426.379 -4.22995 -4.07859 0
M  V30 4518 H 427.903 -3.70796 -4.85121 0
M  V30 4519 H 429.317 -4.92553 -2.93368 0
M  V30 4520 H 427.714 -5.5032 -2.39306 0
M  V30 4521 H 428.784 -4.68828 -1.23807 0
M  V30 4522 N 430.127 0.543554 -1.4793 0
M  V30 4523 C 431.376 1.29649 -1.54512 0
M  V30 4524 C 431.689 1.94382 -0.217973 0
M  V30 4525 O 432.895 2.71017 -0.161908 0
M  V30 4526 C 431.351 2.35175 -2.72435 0
M  V30 4527 C 430.959 1.76572 -4.11736 0
M  V30 4528 C 432.703 3.11564 -2.8832 0
M  V30 4529 C 430.61 2.79958 -5.20939 0
M  V30 4530 H 429.54 0.487541 -0.57517 0
M  V30 4531 H 432.191 0.575708 -1.74235 0
M  V30 4532 H 430.573 3.10229 -2.46118 0
M  V30 4533 H 431.747 1.07799 -4.48013 0
M  V30 4534 H 430.062 1.12722 -4.00852 0
M  V30 4535 H 432.659 3.88794 -3.67074 0
M  V30 4536 H 433.002 3.66594 -1.97268 0
M  V30 4537 H 433.535 2.43623 -3.14472 0
M  V30 4538 H 430.274 2.29766 -6.13912 0
M  V30 4539 H 429.794 3.47101 -4.89164 0
M  V30 4540 H 431.473 3.43198 -5.48474 0
M  V30 4541 N 431.605 1.3629 0.791371 0
M  V30 4542 C 433.021 1.16661 1.08914 0
M  V30 4543 C 433.221 -0.0106266 2.01497 0
M  V30 4544 O 432.277 -0.676596 2.43266 0
M  V30 4545 C 433.59 2.47656 1.70549 0
M  V30 4546 C 435.138 2.54002 1.82899 0
M  V30 4547 C 435.613 3.85078 2.47949 0
M  V30 4548 N 437.104 3.86413 2.5542 0
M  V30 4549 C 437.839 4.84572 3.06557 0
M  V30 4550 N 437.335 5.93124 3.58016 0
M  V30 4551 N 439.128 4.71994 3.05251 0
M  V30 4552 H 431.279 2.11668 0.176238 0
M  V30 4553 H 433.542 0.937486 0.140796 0
M  V30 4554 H 433.248 3.34059 1.09989 0
M  V30 4555 H 433.122 2.63319 2.70079 0
M  V30 4556 H 435.509 1.68018 2.42598 0
M  V30 4557 H 435.59 2.42239 0.821808 0
M  V30 4558 H 435.234 4.71467 1.88895 0
M  V30 4559 H 435.164 3.94135 3.49235 0
M  V30 4560 H 437.655 3.07988 2.18979 0
M  V30 4561 H 437.968 6.63999 3.95381 0
M  V30 4562 H 436.313 5.96796 3.56173 0
M  V30 4563 H 439.504 3.86321 2.64336 0
M  V30 4564 H 439.677 5.48653 3.44796 0
M  V30 4565 N 433.083 -1.0153 1.20538 0
M  V30 4566 C 434.016 -2.09759 0.898695 0
M  V30 4567 C 434.994 -1.61909 -0.149733 0
M  V30 4568 O 436.178 -1.88486 -0.0230293 0
M  V30 4569 C 433.305 -3.36913 0.347512 0
M  V30 4570 C 432.351 -4.03655 1.37713 0
M  V30 4571 S 433.184 -4.47402 2.94265 0
M  V30 4572 C 434.34 -5.77756 2.40726 0
M  V30 4573 H 434.573 -2.3545 1.81523 0
M  V30 4574 H 432.106 -1.14665 1.03399 0
M  V30 4575 H 434.064 -4.10484 0.0360518 0
M  V30 4576 H 432.725 -3.09291 -0.547546 0
M  V30 4577 H 431.918 -4.9514 0.940872 0
M  V30 4578 H 431.52 -3.36313 1.63614 0
M  V30 4579 H 433.812 -6.52994 1.80569 0
M  V30 4580 H 434.755 -6.2618 3.30612 0
M  V30 4581 H 435.163 -5.34081 1.82806 0
M  V30 4582 N 434.561 -1.01147 -1.20859 0
M  V30 4583 C 435.977 -0.725422 -1.42161 0
M  V30 4584 C 436.177 0.696919 -1.89064 0
M  V30 4585 O 435.233 1.46539 -2.05627 0
M  V30 4586 C 436.546 -1.74678 -2.44761 0
M  V30 4587 C 438.094 -1.76433 -2.58535 0
M  V30 4588 C 438.569 -2.77481 -3.64374 0
M  V30 4589 N 440.06 -2.76189 -3.71852 0
M  V30 4590 C 440.795 -3.51035 -4.53389 0
M  V30 4591 N 440.291 -4.35541 -5.38773 0
M  V30 4592 N 442.084 -3.39655 -4.47873 0
M  V30 4593 H 434.235 -1.92979 -0.887282 0
M  V30 4594 H 436.498 -0.833327 -0.451962 0
M  V30 4595 H 436.204 -2.76551 -2.17285 0
M  V30 4596 H 436.078 -1.55472 -3.43669 0
M  V30 4597 H 438.465 -0.75248 -2.85345 0
M  V30 4598 H 438.546 -1.99712 -1.5984 0
M  V30 4599 H 438.19 -3.78827 -3.38308 0
M  V30 4600 H 438.12 -2.51466 -4.6268 0
M  V30 4601 H 440.611 -2.14885 -3.10858 0
M  V30 4602 H 440.924 -4.89432 -5.98061 0
M  V30 4603 H 439.269 -4.39621 -5.38292 0
M  V30 4604 H 442.46 -2.73063 -3.80203 0
M  V30 4605 H 442.633 -3.9824 -5.11184 0
M  V30 4606 N 436.039 1.36541 -0.78704 0
M  V30 4607 C 436.987 2.31965 -0.171724 0
M  V30 4608 C 437.981 1.55689 0.667631 0
M  V30 4609 O 439.187 1.70969 0.562981 0
M  V30 4610 H 435.562 0.751101 -0.0367545 0
M  V30 4611 H 437.533 2.81428 -0.992017 0
M  V30 4612 C 436.282 3.40968 0.680904 0
M  V30 4613 H 435.605 3.99775 0.0443961 0
M  V30 4614 H 437.045 4.10063 1.07815 0
M  V30 4615 C 435.504 2.82338 1.83813 0
M  V30 4616 O 436.034 2.74311 2.93456 0
M  V30 4617 N 434.24 2.39661 1.6435 0
M  V30 4618 H 433.787 2.46389 0.751668 0
M  V30 4619 H 433.745 2.00779 2.4194 0
M  V30 4620 N 437.518 0.538854 1.48102 0
M  V30 4621 C 438.929 0.100679 1.86428 0
M  V30 4622 C 439.28 -1.32447 1.44749 0
M  V30 4623 O 438.405 -1.99339 0.842199 0
M  V30 4624 C 439 0.175933 3.38343 0
M  V30 4625 C 437.559 -0.207098 3.7583 0
M  V30 4626 C 436.706 0.531741 2.72154 0
M  V30 4627 H 439.657 0.749614 1.3988 0
M  V30 4628 H 439.678 -0.610144 3.75576 0
M  V30 4629 H 439.19 1.21328 3.68648 0
M  V30 4630 H 437.291 -1.24626 3.5114 0
M  V30 4631 H 437.404 0.138687 4.78899 0
M  V30 4632 H 435.768 -0.0230462 2.5469 0
M  V30 4633 H 436.551 1.56989 3.05302 0
M  V30 4634 N 438.996 -1.55193 0.274407 0
M  V30 4635 C 440.242 -2.00604 -0.33608 0
M  V30 4636 C 440.597 -1.15948 -1.53538 0
M  V30 4637 O 439.89 -0.221385 -1.90317 0
M  V30 4638 C 440.084 -3.49019 -0.769458 0
M  V30 4639 C 439.913 -4.48038 0.386301 0
M  V30 4640 C 438.683 -4.97757 0.869854 0
M  V30 4641 C 440.881 -4.99558 1.22254 0
M  V30 4642 N 438.863 -5.80575 1.99515 0
M  V30 4643 C 440.234 -5.79816 2.19575 0
M  V30 4644 C 442.289 -4.81799 1.25597 0
M  V30 4645 C 440.992 -6.44208 3.19981 0
M  V30 4646 C 443.018 -5.46989 2.24848 0
M  V30 4647 C 442.38 -6.27058 3.20901 0
M  V30 4648 H 438.479 -0.777013 -0.088172 0
M  V30 4649 H 441.063 -1.90583 0.398266 0
M  V30 4650 H 439.234 -3.59383 -1.47303 0
M  V30 4651 H 440.966 -3.81263 -1.35722 0
M  V30 4652 H 437.721 -4.71464 0.449281 0
M  V30 4653 H 438.145 -6.26675 2.5614 0
M  V30 4654 H 442.787 -4.19501 0.527158 0
M  V30 4655 H 440.505 -7.05656 3.93796 0
M  V30 4656 H 444.091 -5.35189 2.28174 0
M  V30 4657 H 442.971 -6.7661 3.96445 0
M  V30 4658 N 440.474 -0.00167713 -1.576 0
M  V30 4659 C 441.722 0.681471 -1.90264 0
M  V30 4660 C 442.043 1.7422 -0.875924 0
M  V30 4661 O 441.313 1.95709 0.0864412 0
M  V30 4662 H 439.893 0.254696 -0.702239 0
M  V30 4663 H 442.555 -0.0429996 -1.94853 0
M  V30 4664 H 441.651 1.15166 -2.90075 0
M  V30 4665 N 441.952 1.55251 0.271103 0
M  V30 4666 C 442.862 1.9136 1.35714 0
M  V30 4667 C 443.878 0.811075 1.5394 0
M  V30 4668 O 445.054 1.11031 1.6803 0
M  V30 4669 C 442.119 2.1798 2.69603 0
M  V30 4670 C 441.18 3.4153 2.60107 0
M  V30 4671 C 440.413 3.66871 3.8761 0
M  V30 4672 O 440.636 2.94689 4.8838 0
M  V30 4673 O 439.57 4.60405 3.87699 0
M  V30 4674 H 443.396 2.83815 1.08088 0
M  V30 4675 H 440.981 1.41821 0.469792 0
M  V30 4676 H 442.863 2.36518 3.48765 0
M  V30 4677 H 441.538 1.28708 2.97012 0
M  V30 4678 H 440.445 3.28325 1.79314 0
M  V30 4679 H 441.778 4.31027 2.37647 0
M  V30 4680 N 443.43 -0.535701 1.48216 0
M  V30 4681 C 444.676 -1.29375 1.56173 0
M  V30 4682 C 445.009 -1.92804 0.232429 0
M  V30 4683 O 444.284 -1.78992 -0.761048 0
M  V30 4684 C 444.567 -2.38747 2.69577 0
M  V30 4685 C 444.42 -1.80046 4.12193 0
M  V30 4686 C 445.739 -3.40551 2.78771 0
M  V30 4687 H 442.858 -0.469027 0.568491 0
M  V30 4688 H 445.5 -0.597358 1.80365 0
M  V30 4689 H 443.65 -2.98147 2.4908 0
M  V30 4690 H 445.322 -1.24742 4.44114 0
M  V30 4691 H 443.565 -1.10609 4.19462 0
M  V30 4692 H 444.236 -2.59212 4.87353 0
M  V30 4693 H 446.712 -2.91099 2.97322 0
M  V30 4694 H 445.588 -4.1448 3.59857 0
M  V30 4695 H 445.849 -4.00746 1.86696 0
M  V30 4696 N 444.908 -1.36708 -0.784132 0
M  V30 4697 C 445.818 -1.3363 -1.92822 0
M  V30 4698 C 446.834 -0.237686 -1.72369 0
M  V30 4699 O 448.01 -0.470962 -1.95816 0
M  V30 4700 C 445.075 -1.13011 -3.27764 0
M  V30 4701 C 444.136 -2.32397 -3.60957 0
M  V30 4702 C 443.369 -2.12752 -4.89461 0
M  V30 4703 O 443.592 -1.10541 -5.59586 0
M  V30 4704 O 442.526 -3.00653 -5.21432 0
M  V30 4705 H 446.352 -2.29964 -1.98369 0
M  V30 4706 H 443.937 -1.1731 -0.925136 0
M  V30 4707 H 445.819 -1.03451 -4.08504 0
M  V30 4708 H 444.494 -0.19743 -3.23097 0
M  V30 4709 H 443.401 -2.47527 -2.80502 0
M  V30 4710 H 444.734 -3.2419 -3.70354 0
M  V30 4711 N 446.386 1.0089 -1.21074 0
M  V30 4712 C 447.632 1.7497 -1.03717 0
M  V30 4713 C 447.987 1.8764 0.425344 0
M  V30 4714 O 447.28 1.39679 1.3115 0
M  V30 4715 C 447.474 3.16335 -1.66334 0
M  V30 4716 C 447.303 3.17449 -3.18522 0
M  V30 4717 C 446.073 3.2425 -3.87543 0
M  V30 4718 C 448.271 3.02877 -4.15656 0
M  V30 4719 N 446.253 3.14949 -5.26954 0
M  V30 4720 C 447.624 3.0143 -5.41793 0
M  V30 4721 C 449.679 2.8715 -4.06755 0
M  V30 4722 C 448.382 2.85869 -6.60054 0
M  V30 4723 C 450.408 2.72944 -5.24648 0
M  V30 4724 C 449.77 2.72171 -6.49694 0
M  V30 4725 H 445.869 0.650627 -0.43383 0
M  V30 4726 H 448.453 1.19944 -1.53367 0
M  V30 4727 H 446.624 3.69638 -1.19256 0
M  V30 4728 H 448.356 3.78888 -1.42219 0
M  V30 4729 H 445.111 3.31288 -3.38446 0
M  V30 4730 H 445.535 3.13651 -5.9996 0
M  V30 4731 H 450.177 2.86557 -3.10878 0
M  V30 4732 H 447.895 2.8521 -7.56096 0
M  V30 4733 H 451.481 2.61782 -5.19578 0
M  V30 4734 H 450.361 2.61307 -7.39384 0
M  V30 4735 N 447.864 1.01787 1.20321 0
M  V30 4736 C 449.092 0.727194 1.937 0
M  V30 4737 C 449.507 -0.712305 1.74848 0
M  V30 4738 O 448.864 -1.48327 1.06327 0
M  V30 4739 C 448.915 1.05497 3.45764 0
M  V30 4740 O 448.636 2.43794 3.64 0
M  V30 4741 C 450.137 0.785534 4.36285 0
M  V30 4742 H 447.357 0.266939 0.615617 0
M  V30 4743 H 449.901 1.35939 1.52777 0
M  V30 4744 H 448.056 0.468158 3.84561 0
M  V30 4745 H 448.47 2.55656 4.57974 0
M  V30 4746 H 449.944 1.06495 5.4163 0
M  V30 4747 H 450.421 -0.280273 4.38305 0
M  V30 4748 H 451.027 1.35456 4.03152 0
M  V30 4749 N 449.342 -1.36122 0.79427 0
M  V30 4750 C 450.59 -1.98718 0.368177 0
M  V30 4751 C 450.911 -1.63345 -1.06506 0
M  V30 4752 O 450.181 -0.909825 -1.73491 0
M  V30 4753 H 448.761 -0.735038 0.133146 0
M  V30 4754 H 451.423 -1.66239 1.01739 0
M  V30 4755 H 450.519 -3.08633 0.463923 0
M  V30 4756 N 450.82 -0.546701 -1.47814 0
M  V30 4757 C 451.783 0.196287 -2.28358 0
M  V30 4758 C 452.783 0.852437 -1.36346 0
M  V30 4759 O 453.973 0.709913 -1.59078 0
M  V30 4760 C 451.105 1.28579 -3.15722 0
M  V30 4761 H 452.298 -0.511086 -2.95513 0
M  V30 4762 H 449.851 -0.303248 -1.5333 0
M  V30 4763 H 450.586 2.0259 -2.53235 0
M  V30 4764 H 450.371 0.820229 -3.83425 0
M  V30 4765 H 451.861 1.80793 -3.76435 0
M  V30 4766 N 452.299 1.55045 -0.282633 0
M  V30 4767 C 453.545 2.0078 0.325436 0
M  V30 4768 C 453.9 1.1676 1.52921 0
M  V30 4769 O 453.193 0.231475 1.90197 0
M  V30 4770 C 453.387 3.49422 0.750938 0
M  V30 4771 C 453.216 4.47827 -0.410056 0
M  V30 4772 C 451.986 4.97288 -0.896239 0
M  V30 4773 C 454.184 4.98903 -1.24902 0
M  V30 4774 N 452.166 5.79508 -2.02591 0
M  V30 4775 C 453.537 5.78644 -2.22646 0
M  V30 4776 C 455.592 4.81126 -1.2815 0
M  V30 4777 C 454.295 6.42502 -3.23393 0
M  V30 4778 C 456.321 5.45789 -2.27745 0
M  V30 4779 C 455.683 6.25348 -3.24222 0
M  V30 4780 H 451.782 0.77747 0.08405 0
M  V30 4781 H 454.366 1.90369 -0.408368 0
M  V30 4782 H 452.537 3.60159 1.45395 0
M  V30 4783 H 454.269 3.81978 1.33698 0
M  V30 4784 H 451.024 4.71219 -0.474277 0
M  V30 4785 H 451.448 6.25308 -2.59459 0
M  V30 4786 H 456.09 4.19215 -0.549397 0
M  V30 4787 H 453.808 7.03558 -3.97533 0
M  V30 4788 H 457.394 5.33972 -2.31009 0
M  V30 4789 H 456.274 6.74498 -4.00027 0
M  V30 4790 N 453.777 0.010035 1.57597 0
M  V30 4791 C 455.002 -0.687021 1.95691 0
M  V30 4792 C 455.427 -1.65952 0.885519 0
M  V30 4793 O 454.785 -1.80633 -0.15543 0
M  V30 4794 C 454.833 -1.3864 3.32884 0
M  V30 4795 O 453.937 -2.50115 3.27897 0
M  V30 4796 H 453.278 -0.181989 0.638573 0
M  V30 4797 H 455.808 0.0662122 2.04493 0
M  V30 4798 H 455.818 -1.74754 3.6868 0
M  V30 4799 H 454.493 -0.673411 4.10412 0
M  V30 4800 H 453.07 -2.16253 3.03791 0
M  V30 4801 N 455.255 -1.55392 -0.262866 0
M  V30 4802 C 456.532 -1.67204 -1.01499 0
M  V30 4803 C 456.912 -0.545186 -2.03939 0
M  V30 4804 O 456.26 0.453467 -2.23955 0
M  V30 4805 C 456.47 -3.06847 -1.6627 0
M  V30 4806 C 457.818 -3.64928 -2.17054 0
M  V30 4807 O 458.842 -3.09545 -1.76239 0
M  V30 4808 O 457.701 -4.61984 -2.91947 0
M  V30 4809 H 454.795 -0.679467 -0.471438 0
M  V30 4810 H 457.341 -1.67729 -0.257918 0
M  V30 4811 H 456.113 -3.80309 -0.920915 0
M  V30 4812 H 455.736 -3.10266 -2.48638 0
M  V30 4813 N 456.733 0.527833 -1.48498 0
M  V30 4814 C 457.958 1.313 -1.60546 0
M  V30 4815 C 458.383 1.86199 -0.26672 0
M  V30 4816 O 457.741 1.64513 0.761918 0
M  V30 4817 C 457.789 2.43818 -2.65678 0
M  V30 4818 O 456.893 3.46916 -2.22987 0
M  V30 4819 H 456.234 0.388784 -0.538277 0
M  V30 4820 H 458.764 0.634896 -1.945 0
M  V30 4821 H 458.774 2.89973 -2.87018 0
M  V30 4822 H 457.449 2.03222 -3.62869 0
M  V30 4823 H 456.026 3.06864 -2.11869 0
M  V30 4824 N 458.211 1.37122 0.776871 0
M  V30 4825 C 459.436 1.354 1.57104 0
M  V30 4826 C 459.861 -0.0595562 1.88006 0
M  V30 4827 O 459.219 -1.03514 1.48844 0
M  V30 4828 C 459.267 2.19472 2.8612 0
M  V30 4829 O 458.371 1.59582 3.80273 0
M  V30 4830 H 457.712 0.462869 0.476076 0
M  V30 4831 H 460.242 1.80577 0.961932 0
M  V30 4832 H 460.252 2.32502 3.35271 0
M  V30 4833 H 458.927 3.22222 2.62956 0
M  V30 4834 H 457.504 1.55564 3.38902 0
M  V30 4835 N 459.689 -1.00246 1.21608 0
M  V30 4836 C 460.914 -1.78167 1.06167 0
M  V30 4837 C 461.339 -1.84138 -0.384035 0
M  V30 4838 O 460.697 -1.28683 -1.27712 0
M  V30 4839 C 460.745 -3.19786 1.66642 0
M  V30 4840 O 459.849 -4.02153 0.913613 0
M  V30 4841 H 459.19 -0.549 0.37349 0
M  V30 4842 H 461.72 -1.25994 1.61204 0
M  V30 4843 H 461.73 -3.70451 1.70969 0
M  V30 4844 H 460.405 -3.14754 2.7185 0
M  V30 4845 H 458.982 -3.60711 0.945635 0
M  V30 4846 N 461.167 -1.02423 -1.1978 0
M  V30 4847 C 462.077 -0.610919 -2.26506 0
M  V30 4848 C 463.093 0.355152 -1.70337 0
M  V30 4849 O 464.269 0.214195 -2.00258 0
M  V30 4850 C 461.334 0.0365921 -3.46681 0
M  V30 4851 C 460.395 -0.976389 -4.18049 0
M  V30 4852 C 459.628 -0.359683 -5.32487 0
M  V30 4853 O 459.851 0.838601 -5.64202 0
M  V30 4854 O 458.785 -1.08022 -5.92127 0
M  V30 4855 H 462.611 -1.49965 -2.64091 0
M  V30 4856 H 460.196 -0.794156 -1.26545 0
M  V30 4857 H 462.078 0.39786 -4.19518 0
M  V30 4858 H 460.753 0.899398 -3.10954 0
M  V30 4859 H 459.66 -1.38916 -3.47352 0
M  V30 4860 H 460.993 -1.80941 -4.57735 0
M  V30 4861 N 462.645 1.35699 -0.801477 0
M  V30 4862 C 463.891 1.99643 -0.389135 0
M  V30 4863 C 464.246 1.62447 1.03095 0
M  V30 4864 O 463.539 0.875064 1.7045 0
M  V30 4865 C 463.733 3.53828 -0.504041 0
M  V30 4866 C 463.562 4.06 -1.93375 0
M  V30 4867 C 462.332 4.35592 -2.561 0
M  V30 4868 C 464.53 4.24905 -2.89759 0
M  V30 4869 N 462.512 4.73663 -3.90534 0
M  V30 4870 C 463.883 4.65914 -4.09052 0
M  V30 4871 C 465.938 4.07101 -2.86658 0
M  V30 4872 C 464.641 4.90984 -5.25669 0
M  V30 4873 C 466.667 4.33324 -4.02472 0
M  V30 4874 C 466.029 4.74601 -5.20512 0
M  V30 4875 H 462.128 0.758552 -0.19006 0
M  V30 4876 H 464.712 1.64493 -1.04164 0
M  V30 4877 H 462.883 3.88219 0.118437 0
M  V30 4878 H 464.615 4.04645 -0.0667794 0
M  V30 4879 H 461.37 4.25728 -2.07492 0
M  V30 4880 H 461.794 4.96965 -4.59734 0
M  V30 4881 H 466.436 3.74335 -1.96552 0
M  V30 4882 H 464.154 5.22626 -6.1635 0
M  V30 4883 H 467.74 4.21107 -4.01447 0
M  V30 4884 H 466.62 4.94497 -6.08639 0
M  V30 4885 N 464.123 0.554532 1.47522 0
M  V30 4886 C 465.071 -0.207765 2.3167 0
M  V30 4887 C 466.065 -0.911914 1.4276 0
M  V30 4888 O 467.271 -0.833504 1.59539 0
M  V30 4889 H 463.646 -0.0858726 0.747081 0
M  V30 4890 H 465.617 0.521178 2.93813 0
M  V30 4891 C 464.366 -1.2263 3.25357 0
M  V30 4892 H 463.689 -0.693887 3.93732 0
M  V30 4893 H 465.129 -1.73062 3.87073 0
M  V30 4894 C 463.588 -2.27278 2.4869 0
M  V30 4895 O 464.118 -3.34156 2.22941 0
M  V30 4896 N 462.324 -2.01134 2.09746 0
M  V30 4897 H 461.871 -1.14232 2.30887 0
M  V30 4898 H 461.829 -2.71369 1.58765 0
M  V30 4899 N 465.601 -1.54893 0.290851 0
M  V30 4900 C 466.549 -2.24579 -0.605576 0
M  V30 4901 C 467.543 -1.24824 -1.14522 0
M  V30 4902 O 468.749 -1.42706 -1.09704 0
M  V30 4903 H 465.124 -0.720946 -0.213872 0
M  V30 4904 H 467.095 -2.984 0.0048173 0
M  V30 4905 C 465.844 -2.99224 -1.77088 0
M  V30 4906 H 465.167 -3.75782 -1.36484 0
M  V30 4907 H 466.607 -3.51281 -2.3744 0
M  V30 4908 C 465.066 -2.05602 -2.66888 0
M  V30 4909 O 465.596 -1.61745 -3.67698 0
M  V30 4910 N 463.802 -1.71771 -2.34399 0
M  V30 4911 H 463.349 -2.07633 -1.52468 0
M  V30 4912 H 463.307 -1.09403 -2.94751 0
M  V30 4913 N 467.08 -0.0183926 -1.57589 0
M  V30 4914 C 468.326 0.663543 -1.91638 0
M  V30 4915 C 468.659 1.72392 -0.894134 0
M  V30 4916 O 467.934 1.94316 0.0846449 0
M  V30 4917 C 468.217 1.28984 -3.36207 0
M  V30 4918 C 468.07 0.239761 -4.49161 0
M  V30 4919 C 469.389 2.2109 -3.80536 0
M  V30 4920 H 466.508 0.239746 -0.696915 0
M  V30 4921 H 469.15 -0.073456 -1.89858 0
M  V30 4922 H 467.3 1.91799 -3.37854 0
M  V30 4923 H 468.972 -0.390119 -4.59647 0
M  V30 4924 H 467.215 -0.435972 -4.31604 0
M  V30 4925 H 467.886 0.717383 -5.47319 0
M  V30 4926 H 470.362 1.68273 -3.80557 0
M  V30 4927 H 469.238 2.61869 -4.82406 0
M  V30 4928 H 469.499 3.09764 -3.15434 0
M  V30 4929 N 468.558 1.5553 0.254621 0
M  V30 4930 C 469.835 1.6774 1.00611 0
M  V30 4931 C 470.215 0.555993 2.03647 0
M  V30 4932 O 469.563 -0.441583 2.24193 0
M  V30 4933 C 469.773 3.07725 1.6464 0
M  V30 4934 C 471.121 3.66074 2.15116 0
M  V30 4935 O 472.145 3.10476 1.74595 0
M  V30 4936 O 471.004 4.63526 2.89493 0
M  V30 4937 H 468.098 0.681958 0.467828 0
M  V30 4938 H 470.644 1.67863 0.24902 0
M  V30 4939 H 469.416 3.80792 0.900734 0
M  V30 4940 H 469.039 3.1158 2.46989 0
M  V30 4941 N 470.036 -0.519951 1.48776 0
M  V30 4942 C 471.447 -1.10177 1.50725 0
M  V30 4943 C 471.798 -1.94153 0.282678 0
M  V30 4944 O 470.923 -2.07645 -0.609298 0
M  V30 4945 C 471.518 -2.00482 2.73116 0
M  V30 4946 C 470.077 -2.53862 2.77905 0
M  V30 4947 C 469.224 -1.31047 2.44381 0
M  V30 4948 H 472.175 -0.30473 1.55747 0
M  V30 4949 H 472.196 -2.8491 2.52203 0
M  V30 4950 H 471.708 -1.39335 3.62225 0
M  V30 4951 H 469.809 -3.18702 1.93029 0
M  V30 4952 H 469.922 -2.9231 3.79594 0
M  V30 4953 H 468.286 -1.62953 1.95751 0
M  V30 4954 H 469.069 -0.71637 3.35743 0
M  V30 4955 N 471.514 -1.37532 -0.769588 0
M  V30 4956 C 472.744 -1.35861 -1.55645 0
M  V30 4957 C 473.152 0.0574398 -1.89113 0
M  V30 4958 O 472.495 1.03021 -1.52093 0
M  V30 4959 C 472.557 -2.13431 -2.89288 0
M  V30 4960 C 472.221 -3.62378 -2.78444 0
M  V30 4961 C 473.218 -4.56215 -2.49326 0
M  V30 4962 C 470.903 -4.05529 -2.96398 0
M  V30 4963 C 472.897 -5.91181 -2.38294 0
M  V30 4964 C 470.584 -5.40579 -2.84987 0
M  V30 4965 C 471.582 -6.33218 -2.55975 0
M  V30 4966 O 471.27 -7.65787 -2.44594 0
M  V30 4967 H 471.002 -0.467001 -0.48876 0
M  V30 4968 H 473.556 -1.81505 -0.961515 0
M  V30 4969 H 471.786 -1.62481 -3.50909 0
M  V30 4970 H 473.475 -2.04368 -3.50697 0
M  V30 4971 H 474.241 -4.24187 -2.35139 0
M  V30 4972 H 470.12 -3.33781 -3.1798 0
M  V30 4973 H 473.664 -6.63457 -2.15571 0
M  V30 4974 H 469.561 -5.72209 -2.98743 0
M  V30 4975 H 470.329 -7.76132 -2.59927 0
M  V30 4976 N 472.992 0.995999 -1.22138 0
M  V30 4977 C 473.902 2.11985 -1.00496 0
M  V30 4978 C 474.918 1.7394 0.0457701 0
M  V30 4979 O 476.094 2.00868 -0.146273 0
M  V30 4980 C 473.159 3.41779 -0.582086 0
M  V30 4981 C 472.22 3.93943 -1.70608 0
M  V30 4982 C 471.453 5.17542 -1.30328 0
M  V30 4983 O 471.676 5.70114 -0.180743 0
M  V30 4984 O 470.61 5.63382 -2.11861 0
M  V30 4985 H 474.436 2.33123 -1.94647 0
M  V30 4986 H 472.021 1.10358 -1.00705 0
M  V30 4987 H 473.903 4.1989 -0.356467 0
M  V30 4988 H 472.578 3.22007 0.330592 0
M  V30 4989 H 471.485 3.17019 -1.98619 0
M  V30 4990 H 472.818 4.18141 -2.59651 0
M  V30 4991 N 474.47 1.03057 1.19235 0
M  V30 4992 C 475.886 0.747947 1.40989 0
M  V30 4993 C 476.086 -0.666752 1.90149 0
M  V30 4994 O 475.142 -1.43249 2.07933 0
M  V30 4995 C 476.455 1.7855 2.41951 0
M  V30 4996 C 478.003 1.80524 2.55695 0
M  V30 4997 C 478.478 2.83243 3.59913 0
M  V30 4998 N 479.969 2.8207 3.67411 0
M  V30 4999 C 480.704 3.58204 4.47747 0
M  V30 5000 N 480.2 4.44057 5.31775 0
M  V30 5001 N 481.993 3.46738 4.42413 0
M  V30 5002 H 474.144 1.94367 0.856468 0
M  V30 5003 H 476.407 0.840412 0.438647 0
M  V30 5004 H 476.113 2.79973 2.12857 0
M  V30 5005 H 475.987 1.6092 3.41152 0
M  V30 5006 H 478.374 0.79778 2.84112 0
M  V30 5007 H 478.455 2.02229 1.56643 0
M  V30 5008 H 478.099 3.84161 3.32239 0
M  V30 5009 H 478.029 2.58795 4.5862 0
M  V30 5010 H 480.52 2.19803 3.074 0
M  V30 5011 H 480.833 4.98884 5.90199 0
M  V30 5012 H 479.178 4.48129 5.3123 0
M  V30 5013 H 482.369 2.79077 3.75811 0
M  V30 5014 H 482.542 4.06322 5.04783 0
M  V30 5015 N 475.948 -1.35272 0.808662 0
M  V30 5016 C 477.225 -1.93077 0.313181 0
M  V30 5017 C 477.605 -1.73847 -1.19752 0
M  V30 5018 O 476.953 -1.1087 -1.998 0
M  V30 5019 C 477.163 -3.41347 0.726859 0
M  V30 5020 C 478.511 -4.18493 0.717532 0
M  V30 5021 O 479.535 -3.4987 0.668535 0
M  V30 5022 O 478.394 -5.40937 0.777779 0
M  V30 5023 H 475.488 -0.822885 0.0824018 0
M  V30 5024 H 478.034 -1.44335 0.892499 0
M  V30 5025 H 476.806 -3.49082 1.76797 0
M  V30 5026 H 476.429 -3.97411 0.122461 0
M  V30 5027 N 477.426 -0.562348 -1.47226 0
M  V30 5028 C 478.358 0.220011 -2.28142 0
M  V30 5029 C 479.371 0.874596 -1.37312 0
M  V30 5030 O 480.56 0.747583 -1.62091 0
M  V30 5031 C 477.66 1.32953 -3.11732 0
M  V30 5032 C 476.833 0.770759 -4.30556 0
M  V30 5033 C 475.892 1.76541 -4.95701 0
M  V30 5034 O 474.918 1.3095 -5.53932 0
M  V30 5035 N 476.12 3.09896 -4.90861 0
M  V30 5036 H 478.885 -0.474107 -2.95926 0
M  V30 5037 H 476.446 -0.398761 -1.56912 0
M  V30 5038 H 478.438 1.99378 -3.5218 0
M  V30 5039 H 477.008 1.92681 -2.46156 0
M  V30 5040 H 476.228 -0.0704056 -3.94137 0
M  V30 5041 H 477.516 0.376872 -5.07402 0
M  V30 5042 H 476.914 3.49577 -4.44761 0
M  V30 5043 H 475.471 3.71865 -5.35313 0
M  V30 5044 N 478.904 1.54736 -0.299062 0
M  V30 5045 C 479.834 2.26409 0.571085 0
M  V30 5046 C 480.815 1.2629 1.13951 0
M  V30 5047 O 482 1.55059 1.16921 0
M  V30 5048 C 479.13 3.00338 1.74396 0
M  V30 5049 C 478.084 4.07588 1.30599 0
M  V30 5050 C 477.41 4.69222 2.56387 0
M  V30 5051 C 478.71 5.20455 0.438645 0
M  V30 5052 H 480.404 2.99388 -0.0266991 0
M  V30 5053 H 477.95 1.43993 -0.0142812 0
M  V30 5054 H 479.903 3.49198 2.35878 0
M  V30 5055 H 478.627 2.24934 2.36796 0
M  V30 5056 H 477.286 3.59575 0.71424 0
M  V30 5057 H 476.934 3.9046 3.17097 0
M  V30 5058 H 476.634 5.41653 2.27784 0
M  V30 5059 H 478.158 5.20844 3.18675 0
M  V30 5060 H 479.572 5.65221 0.959085 0
M  V30 5061 H 477.969 5.99594 0.246466 0
M  V30 5062 H 479.039 4.8192 -0.536738 0
M  V30 5063 N 480.382 0.0267497 1.57577 0
M  V30 5064 C 481.798 -0.32962 1.56159 0
M  V30 5065 C 481.998 -1.73059 1.03213 0
M  V30 5066 O 481.054 -2.43233 0.677804 0
M  V30 5067 C 482.367 -0.18039 3.00158 0
M  V30 5068 C 483.915 -0.253334 3.11973 0
M  V30 5069 C 484.39 -0.132921 4.57807 0
M  V30 5070 N 485.881 -0.189979 4.6281 0
M  V30 5071 C 486.616 -0.120554 5.73273 0
M  V30 5072 N 486.112 -0.000180315 6.928 0
M  V30 5073 N 487.905 -0.174369 5.61829 0
M  V30 5074 H 480.056 0.942896 1.90324 0
M  V30 5075 H 482.319 0.3639 0.875375 0
M  V30 5076 H 482.025 0.784576 3.42837 0
M  V30 5077 H 481.899 -0.951565 3.65 0
M  V30 5078 H 484.286 -1.20876 2.69208 0
M  V30 5079 H 484.367 0.548177 2.49857 0
M  V30 5080 H 484.011 0.819073 5.01252 0
M  V30 5081 H 483.941 -0.953264 5.179 0
M  V30 5082 H 486.432 -0.283257 3.76837 0
M  V30 5083 H 486.745 0.0461666 7.72786 0
M  V30 5084 H 485.09 0.034569 6.94991 0
M  V30 5085 H 488.281 -0.266794 4.67339 0
M  V30 5086 H 488.454 -0.116802 6.47895 0
M  V30 5087 N 481.861 -1.55662 -0.24637 0
M  V30 5088 C 483.107 -1.77782 -0.975779 0
M  V30 5089 C 483.44 -0.592103 -1.84953 0
M  V30 5090 O 482.715 0.409588 -1.90138 0
M  V30 5091 C 482.998 -3.09788 -1.83584 0
M  V30 5092 C 482.851 -4.38764 -0.990241 0
M  V30 5093 C 484.17 -3.38029 -2.81823 0
M  V30 5094 H 481.289 -0.646789 -0.353317 0
M  V30 5095 H 483.931 -1.88398 -0.246248 0
M  V30 5096 H 482.081 -3.00869 -2.45784 0
M  V30 5097 H 483.753 -4.59675 -0.386897 0
M  V30 5098 H 481.996 -4.32798 -0.294626 0
M  V30 5099 H 482.667 -5.27514 -1.62584 0
M  V30 5100 H 485.143 -3.46915 -2.2976 0
M  V30 5101 H 484.019 -4.3161 -3.39122 0
M  V30 5102 H 484.28 -2.58968 -3.58313 0
M  V30 5103 N 483.339 0.512053 -1.4905 0
M  V30 5104 C 484.286 1.6148 -1.64902 0
M  V30 5105 C 485.256 1.58687 -0.490673 0
M  V30 5106 O 486.441 1.76842 -0.71636 0
M  V30 5107 C 483.581 2.99676 -1.71139 0
M  V30 5108 C 482.694 3.12568 -2.98203 0
M  V30 5109 C 481.829 4.4143 -2.95487 0
M  V30 5110 C 480.868 4.47916 -4.17179 0
M  V30 5111 N 480.005 5.68191 -4.12437 0
M  V30 5112 H 484.845 1.47271 -2.59066 0
M  V30 5113 H 482.382 0.716713 -1.28459 0
M  V30 5114 H 484.34 3.79761 -1.72736 0
M  V30 5115 H 482.97 3.12614 -0.804508 0
M  V30 5116 H 482.022 2.25618 -3.06269 0
M  V30 5117 H 483.334 3.1322 -3.88194 0
M  V30 5118 H 482.488 5.29825 -2.95585 0
M  V30 5119 H 481.227 4.43326 -2.03256 0
M  V30 5120 H 480.232 3.57925 -4.17337 0
M  V30 5121 H 481.457 4.47744 -5.1059 0
M  V30 5122 H 479.403 5.7095 -3.23036 0
M  V30 5123 H 479.32 5.70413 -4.96151 0
M  V30 5124 H 480.588 6.58823 -4.16621 0
M  V30 5125 N 484.817 1.37938 0.762283 0
M  V30 5126 C 485.75 1.2884 1.88349 0
M  V30 5127 C 486.728 0.167084 1.61739 0
M  V30 5128 O 487.912 0.34292 1.85355 0
M  V30 5129 C 485.039 0.994257 3.23778 0
M  V30 5130 C 484.085 2.13376 3.69287 0
M  V30 5131 S 484.918 3.75439 3.81845 0
M  V30 5132 C 486.074 3.48195 5.20107 0
M  V30 5133 H 486.307 2.23736 1.95779 0
M  V30 5134 H 483.84 1.23672 0.924368 0
M  V30 5135 H 485.798 0.83138 4.01993 0
M  V30 5136 H 484.459 0.0626251 3.14038 0
M  V30 5137 H 483.652 1.88319 4.67495 0
M  V30 5138 H 483.254 2.25726 2.98201 0
M  V30 5139 H 485.546 3.0377 6.05583 0
M  V30 5140 H 486.489 4.45765 5.50181 0
M  V30 5141 H 486.897 2.82905 4.88493 0
M  V30 5142 N 486.295 -0.989507 1.22664 0
M  V30 5143 C 487.205 -2.11449 1.01619 0
M  V30 5144 C 488.221 -1.73962 -0.036545 0
M  V30 5145 O 489.397 -2.00788 0.156924 0
M  V30 5146 C 486.462 -3.41465 0.600204 0
M  V30 5147 C 485.523 -3.93033 1.72695 0
M  V30 5148 C 484.756 -5.16844 1.33071 0
M  V30 5149 O 484.979 -5.7001 0.210975 0
M  V30 5150 O 483.913 -5.6225 2.14845 0
M  V30 5151 H 487.739 -2.32088 1.9588 0
M  V30 5152 H 485.324 -1.09823 1.01289 0
M  V30 5153 H 487.206 -4.19695 0.37873 0
M  V30 5154 H 485.881 -3.22178 -0.313511 0
M  V30 5155 H 484.788 -3.15961 2.00298 0
M  V30 5156 H 486.121 -4.16758 2.61865 0
M  V30 5157 N 487.773 -1.03688 -1.18687 0
M  V30 5158 C 489.05 -0.652397 -1.84399 0
M  V30 5159 C 489.43 0.868386 -1.92412 0
M  V30 5160 O 488.778 1.76832 -1.44716 0
M  V30 5161 C 488.988 -1.3238 -3.22919 0
M  V30 5162 C 490.336 -1.45216 -3.98996 0
M  V30 5163 O 491.36 -1.2816 -3.32345 0
M  V30 5164 O 490.219 -1.72975 -5.18403 0
M  V30 5165 H 487.313 -0.227793 -0.795009 0
M  V30 5166 H 489.859 -1.13553 -1.2611 0
M  V30 5167 H 488.631 -2.36202 -3.11968 0
M  V30 5168 H 488.254 -0.829039 -3.88861 0
M  V30 5169 N 489.251 1.34841 -0.815825 0
M  V30 5170 C 490.499 1.98107 -0.399744 0
M  V30 5171 C 490.82 1.65019 1.03894 0
M  V30 5172 O 490.09 0.937311 1.72021 0
M  V30 5173 H 488.67 0.732827 -0.144823 0
M  V30 5174 H 491.332 1.64599 -1.0437 0
M  V30 5175 H 490.428 3.07856 -0.512965 0
M  V30 5176 N 490.729 0.570148 1.46925 0
M  V30 5177 C 491.639 -0.173061 2.33961 0
M  V30 5178 C 492.655 -0.898825 1.48987 0
M  V30 5179 O 493.831 -0.864825 1.81887 0
M  V30 5180 C 490.896 -1.18177 3.25937 0
M  V30 5181 C 489.957 -0.462041 4.26806 0
M  V30 5182 C 489.19 -1.4227 5.14388 0
M  V30 5183 O 489.413 -2.65842 5.04662 0
M  V30 5184 O 488.347 -0.940127 5.94513 0
M  V30 5185 H 492.173 0.541216 2.98839 0
M  V30 5186 H 489.758 0.330647 1.45695 0
M  V30 5187 H 491.64 -1.76372 3.82715 0
M  V30 5188 H 490.315 -1.87774 2.63671 0
M  V30 5189 H 489.222 0.161429 3.73752 0
M  V30 5190 H 490.555 0.192719 4.91823 0
M  V30 5191 N 492.207 -1.54576 0.307264 0
M  V30 5192 C 493.454 -2.00263 -0.300167 0
M  V30 5193 C 493.782 -1.19561 -1.53413 0
M  V30 5194 O 493.037 -0.261487 -1.93945 0
M  V30 5195 C 493.336 -3.50572 -0.695253 0
M  V30 5196 C 493.002 -4.48771 0.437679 0
M  V30 5197 C 491.664 -4.7534 0.748681 0
M  V30 5198 C 494.016 -5.0721 1.19949 0
M  V30 5199 C 491.344 -5.5761 1.8245 0
M  V30 5200 C 493.696 -5.90651 2.26527 0
M  V30 5201 C 492.36 -6.15528 2.58227 0
M  V30 5202 H 491.63 -0.732814 -0.109839 0
M  V30 5203 H 494.277 -1.86664 0.427661 0
M  V30 5204 H 492.582 -3.61814 -1.50326 0
M  V30 5205 H 494.279 -3.83352 -1.17653 0
M  V30 5206 H 490.869 -4.282 0.185187 0
M  V30 5207 H 495.053 -4.86679 0.972474 0
M  V30 5208 H 490.309 -5.75121 2.07476 0
M  V30 5209 H 494.483 -6.34957 2.86011 0
M  V30 5210 H 492.11 -6.79066 3.4172 0
M  V30 5211 N 493.685 -0.035106 -1.57561 0
M  V30 5212 C 494.931 0.637362 -1.93156 0
M  V30 5213 C 495.286 1.69391 -0.912392 0
M  V30 5214 O 494.579 1.91469 0.070735 0
M  V30 5215 C 494.773 1.29149 -3.3325 0
M  V30 5216 C 494.602 0.29983 -4.48699 0
M  V30 5217 C 493.372 -0.102454 -5.05196 0
M  V30 5218 C 495.57 -0.448297 -5.12342 0
M  V30 5219 N 493.552 -1.08866 -6.0417 0
M  V30 5220 C 494.923 -1.28807 -6.06472 0
M  V30 5221 C 496.978 -0.508351 -4.95298 0
M  V30 5222 C 495.681 -2.18248 -6.85391 0
M  V30 5223 C 497.707 -1.39013 -5.7483 0
M  V30 5224 C 497.069 -2.21766 -6.6858 0
M  V30 5225 H 493.168 0.205358 -0.754554 0
M  V30 5226 H 495.752 -0.103682 -1.94424 0
M  V30 5227 H 493.923 2.00264 -3.3279 0
M  V30 5228 H 495.655 1.92147 -3.56177 0
M  V30 5229 H 492.41 0.273223 -4.72811 0
M  V30 5230 H 492.834 -1.57817 -6.58348 0
M  V30 5231 H 497.476 0.117197 -4.22638 0
M  V30 5232 H 495.194 -2.81855 -7.57353 0
M  V30 5233 H 498.78 -1.44096 -5.63673 0
M  V30 5234 H 497.66 -2.88892 -7.29048 0
M  V30 5235 N 495.163 1.55791 0.238111 0
M  V30 5236 C 496.096 1.86036 1.32158 0
M  V30 5237 C 497.074 0.716216 1.45976 0
M  V30 5238 O 498.258 0.962882 1.62052 0
M  V30 5239 C 495.385 2.05281 2.69402 0
M  V30 5240 C 494.431 3.27939 2.72687 0
M  V30 5241 S 495.264 4.84342 2.28413 0
M  V30 5242 C 496.42 5.06604 3.67565 0
M  V30 5243 H 496.653 2.77644 1.06306 0
M  V30 5244 H 494.186 1.48012 0.439537 0
M  V30 5245 H 496.144 2.17053 3.48423 0
M  V30 5246 H 494.805 1.14499 2.92487 0
M  V30 5247 H 493.998 3.38398 3.73501 0
M  V30 5248 H 493.6 3.14938 2.01717 0
M  V30 5249 H 495.892 4.94486 4.6313 0
M  V30 5250 H 496.835 6.08554 3.62033 0
M  V30 5251 H 497.243 4.34409 3.60485 0
M  V30 5252 N 496.642 -0.504142 1.49319 0
M  V30 5253 C 497.867 -1.28729 1.62615 0
M  V30 5254 C 498.292 -1.85752 0.296309 0
M  V30 5255 O 497.65 -1.65704 -0.735649 0
M  V30 5256 C 497.698 -2.39561 2.69524 0
M  V30 5257 O 496.802 -3.43324 2.28478 0
M  V30 5258 H 496.143 -0.380172 0.544395 0
M  V30 5259 H 498.673 -0.603872 1.95485 0
M  V30 5260 H 498.683 -2.8537 2.91595 0
M  V30 5261 H 497.358 -1.97423 3.66056 0
M  V30 5262 H 495.935 -3.03455 2.16725 0
M  V30 5263 N 498.12 -1.38341 -0.754957 0
M  V30 5264 C 499.367 -1.34473 -1.51404 0
M  V30 5265 C 499.695 0.0656458 -1.94389 0
M  V30 5266 O 498.95 1.04244 -1.65625 0
M  V30 5267 C 499.249 -2.2452 -2.78075 0
M  V30 5268 C 498.915 -3.72512 -2.54059 0
M  V30 5269 C 497.577 -4.1284 -2.47218 0
M  V30 5270 C 499.929 -4.66197 -2.33044 0
M  V30 5271 C 497.257 -5.44945 -2.17376 0
M  V30 5272 C 499.609 -5.98558 -2.04723 0
M  V30 5273 C 498.273 -6.37972 -1.96337 0
M  V30 5274 H 497.543 -0.492072 -0.554027 0
M  V30 5275 H 500.19 -1.70687 -0.868223 0
M  V30 5276 H 498.495 -1.81357 -3.473 0
M  V30 5277 H 500.192 -2.18832 -3.36026 0
M  V30 5278 H 496.782 -3.40538 -2.60253 0
M  V30 5279 H 500.966 -4.35888 -2.37309 0
M  V30 5280 H 496.222 -5.74426 -2.09391 0
M  V30 5281 H 500.396 -6.70693 -1.87465 0
M  V30 5282 H 498.023 -7.40258 -1.72978 0
M  V30 5283 N 499.598 0.982988 -1.23187 0
M  V30 5284 C 501.014 1.2487 -0.993967 0
M  V30 5285 C 501.214 1.99155 0.306498 0
M  V30 5286 O 500.27 2.30688 1.0266 0
M  V30 5287 C 501.583 2.05078 -2.19917 0
M  V30 5288 C 503.131 2.18227 -2.2438 0
M  V30 5289 C 503.606 3.01825 -3.44479 0
M  V30 5290 N 505.097 3.09411 -3.44702 0
M  V30 5291 C 505.832 3.74412 -4.34285 0
M  V30 5292 N 505.328 4.41259 -5.341 0
M  V30 5293 N 507.121 3.71273 -4.22035 0
M  V30 5294 H 499.272 0.485253 -2.06783 0
M  V30 5295 H 501.535 0.276979 -0.906635 0
M  V30 5296 H 501.241 1.57867 -3.14279 0
M  V30 5297 H 501.115 3.05829 -2.2079 0
M  V30 5298 H 503.502 2.64648 -1.30559 0
M  V30 5299 H 503.583 1.16873 -2.2754 0
M  V30 5300 H 503.227 2.56102 -4.38605 0
M  V30 5301 H 503.157 4.03342 -3.38559 0
M  V30 5302 H 505.648 2.61845 -2.7248 0
M  V30 5303 H 505.961 4.88629 -5.98717 0
M  V30 5304 H 504.306 4.39975 -5.38002 0
M  V30 5305 H 507.497 3.18217 -3.43301 0
M  V30 5306 H 507.67 4.21649 -4.92053 0
M  V30 5307 N 501.076 1.04316 1.18135 0
M  V30 5308 C 502.353 0.662166 1.84051 0
M  V30 5309 C 502.733 -0.858169 1.9287 0
M  V30 5310 O 502.081 -1.76062 1.45652 0
M  V30 5311 C 502.291 1.3409 3.22212 0
M  V30 5312 C 503.639 1.4733 3.9822 0
M  V30 5313 O 504.663 1.29921 3.31661 0
M  V30 5314 O 503.522 1.75722 5.17479 0
M  V30 5315 H 500.616 0.232005 0.79379 0
M  V30 5316 H 503.162 1.1422 1.25506 0
M  V30 5317 H 501.934 2.37853 3.10711 0
M  V30 5318 H 501.557 0.849649 3.88416 0
M  V30 5319 N 502.554 -1.34406 0.822964 0
M  V30 5320 C 503.801 -1.98284 0.411057 0
M  V30 5321 C 504.129 -1.65245 -1.02588 0
M  V30 5322 O 503.384 -0.91619 -1.72929 0
M  V30 5323 C 503.683 -3.52981 0.560268 0
M  V30 5324 C 503.349 -4.05931 1.96293 0
M  V30 5325 C 502.011 -4.20103 2.34664 0
M  V30 5326 C 504.363 -4.34412 2.87985 0
M  V30 5327 C 501.691 -4.60082 3.64062 0
M  V30 5328 C 504.043 -4.75838 4.16847 0
M  V30 5329 C 502.707 -4.88215 4.55195 0
M  V30 5330 H 501.977 -0.725573 0.150416 0
M  V30 5331 H 504.624 -1.60349 1.04692 0
M  V30 5332 H 502.929 -3.91477 -0.158982 0
M  V30 5333 H 504.626 -4.00385 0.222087 0
M  V30 5334 H 501.216 -3.95363 1.65487 0
M  V30 5335 H 505.4 -4.23001 2.59584 0
M  V30 5336 H 500.656 -4.67856 3.93599 0
M  V30 5337 H 504.83 -4.96834 4.87984 0
M  V30 5338 H 502.457 -5.18952 5.55512 0
M  V30 5339 N 504.032 -0.577932 -1.46621 0
M  V30 5340 C 504.965 0.206312 -2.27265 0
M  V30 5341 C 505.943 0.901306 -1.35334 0
M  V30 5342 O 507.127 0.916151 -1.64739 0
M  V30 5343 C 504.254 1.29563 -3.1294 0
M  V30 5344 C 503.3 0.706981 -4.206 0
M  V30 5345 S 504.133 -0.462459 -5.33499 0
M  V30 5346 C 505.289 0.628171 -6.2274 0
M  V30 5347 H 505.522 -0.477961 -2.93433 0
M  V30 5348 H 503.055 -0.364715 -1.50031 0
M  V30 5349 H 505.013 1.91935 -3.62865 0
M  V30 5350 H 503.674 1.95183 -2.46095 0
M  V30 5351 H 502.867 1.52565 -4.80354 0
M  V30 5352 H 502.469 0.159022 -3.73662 0
M  V30 5353 H 504.761 1.51506 -6.60342 0
M  V30 5354 H 505.704 0.0674961 -7.08068 0
M  V30 5355 H 506.112 0.930167 -5.56784 0
M  V30 5356 N 505.51 1.54411 -0.315457 0
M  V30 5357 C 506.926 1.59556 0.037464 0
M  V30 5358 C 507.126 1.33217 1.5118 0
M  V30 5359 O 506.182 1.11264 2.26664 0
M  V30 5360 C 507.495 2.98372 -0.373477 0
M  V30 5361 C 509.043 3.11324 -0.323452 0
M  V30 5362 C 509.518 4.52472 -0.709433 0
M  V30 5363 N 511.009 4.58437 -0.662524 0
M  V30 5364 C 511.744 5.65751 -0.933474 0
M  V30 5365 N 511.24 6.81039 -1.27114 0
M  V30 5366 N 513.033 5.55489 -0.859573 0
M  V30 5367 H 505.184 1.6979 -1.27614 0
M  V30 5368 H 507.447 0.793732 -0.518356 0
M  V30 5369 H 507.153 3.22618 -1.40037 0
M  V30 5370 H 507.027 3.76264 0.265615 0
M  V30 5371 H 509.414 2.86818 0.694223 0
M  V30 5372 H 509.495 2.35555 -0.997367 0
M  V30 5373 H 509.139 4.7771 -1.72498 0
M  V30 5374 H 509.069 5.26598 -0.0132923 0
M  V30 5375 H 511.56 3.75636 -0.413065 0
M  V30 5376 H 511.873 7.58816 -1.46348 0
M  V30 5377 H 510.218 6.82555 -1.30932 0
M  V30 5378 H 513.409 4.64299 -0.595324 0
M  V30 5379 H 513.582 6.39036 -1.0741 0
M  V30 5380 N 506.988 0.0434614 1.5754 0
M  V30 5381 C 507.898 -0.94893 2.14552 0
M  V30 5382 C 508.914 -1.34707 1.10136 0
M  V30 5383 O 510.09 -1.42557 1.42266 0
M  V30 5384 C 507.155 -2.208 2.67298 0
M  V30 5385 C 506.216 -1.86893 3.86484 0
M  V30 5386 C 505.449 -3.06797 4.36705 0
M  V30 5387 O 505.672 -4.19921 3.86034 0
M  V30 5388 O 504.606 -2.8826 5.28384 0
M  V30 5389 H 508.432 -0.494099 2.99654 0
M  V30 5390 H 506.017 -0.177989 1.48336 0
M  V30 5391 H 507.899 -2.94686 3.01228 0
M  V30 5392 H 506.574 -2.65436 1.85272 0
M  V30 5393 H 505.481 -1.10347 3.57455 0
M  V30 5394 H 506.814 -1.47062 4.69716 0
M  V30 5395 N 508.466 -1.55915 -0.229846 0
M  V30 5396 C 509.713 -1.78542 -0.955452 0
M  V30 5397 C 510.041 -0.610785 -1.84661 0
M  V30 5398 O 509.296 0.405213 -1.91459 0
M  V30 5399 C 509.595 -3.06845 -1.8325 0
M  V30 5400 C 509.261 -4.37395 -1.09528 0
M  V30 5401 C 507.923 -4.72868 -0.891598 0
M  V30 5402 C 510.275 -5.18029 -0.574046 0
M  V30 5403 C 507.603 -5.86496 -0.154655 0
M  V30 5404 C 509.955 -6.32423 0.149513 0
M  V30 5405 C 508.619 -6.66504 0.364519 0
M  V30 5406 H 507.889 -0.653333 -0.349625 0
M  V30 5407 H 510.536 -1.90183 -0.224235 0
M  V30 5408 H 508.841 -2.90291 -2.63132 0
M  V30 5409 H 510.538 -3.21553 -2.39592 0
M  V30 5410 H 507.128 -4.09538 -1.26399 0
M  V30 5411 H 511.312 -4.91066 -0.718899 0
M  V30 5412 H 506.568 -6.11396 0.0222356 0
M  V30 5413 H 510.742 -6.94137 0.560947 0
M  V30 5414 H 508.369 -7.54397 0.937495 0
M  V30 5415 N 509.944 0.496216 -1.49584 0
M  V30 5416 C 511.172 1.27394 -1.63029 0
M  V30 5417 C 511.587 1.86344 -0.303569 0
M  V30 5418 O 510.944 1.68057 0.711547 0
M  V30 5419 C 510.995 2.40077 -2.70269 0
M  V30 5420 O 510.716 1.83549 -3.97796 0
M  V30 5421 C 512.217 3.31372 -2.94462 0
M  V30 5422 H 509.437 0.386211 -0.54871 0
M  V30 5423 H 511.981 0.595163 -1.95648 0
M  V30 5424 H 510.136 3.03775 -2.40415 0
M  V30 5425 H 510.55 2.57561 -4.56905 0
M  V30 5426 H 512.024 4.06707 -3.73221 0
M  V30 5427 H 512.501 3.88654 -2.0456 0
M  V30 5428 H 513.107 2.73435 -3.25751 0
M  V30 5429 N 511.423 1.38739 0.74761 0
M  V30 5430 C 512.839 1.20067 1.05148 0
M  V30 5431 C 513.039 0.0534835 2.01429 0
M  V30 5432 O 512.095 -0.59886 2.45296 0
M  V30 5433 C 513.408 2.52957 1.62584 0
M  V30 5434 C 514.956 2.59692 1.74726 0
M  V30 5435 C 515.431 3.92772 2.35573 0
M  V30 5436 N 516.922 3.94343 2.42997 0
M  V30 5437 C 517.657 4.9408 2.90985 0
M  V30 5438 N 517.153 6.04214 3.38965 0
M  V30 5439 N 518.946 4.81466 2.9008 0
M  V30 5440 H 511.097 2.12121 0.108808 0
M  V30 5441 H 513.36 0.941491 0.110899 0
M  V30 5442 H 513.066 3.37389 0.993051 0
M  V30 5443 H 512.94 2.71779 2.61565 0
M  V30 5444 H 515.327 1.75651 2.3713 0
M  V30 5445 H 515.408 2.44731 0.744326 0
M  V30 5446 H 515.052 4.77238 1.738 0
M  V30 5447 H 514.982 4.05046 3.36519 0
M  V30 5448 H 517.473 3.14799 2.0907 0
M  V30 5449 H 517.786 6.76241 3.74056 0
M  V30 5450 H 516.131 6.07825 3.37007 0
M  V30 5451 H 519.322 3.94535 2.51912 0
M  V30 5452 H 519.495 5.59344 3.27166 0
M  V30 5453 N 512.901 -0.976442 1.23707 0
M  V30 5454 C 513.831 -2.08749 1.04624 0
M  V30 5455 C 514.812 -1.70057 -0.0380956 0
M  V30 5456 O 515.997 -1.93782 0.127308 0
M  V30 5457 C 513.127 -3.41335 0.640902 0
M  V30 5458 C 512.081 -3.93947 1.67302 0
M  V30 5459 C 511.407 -5.22774 1.12301 0
M  V30 5460 C 512.707 -4.22769 3.06697 0
M  V30 5461 H 514.401 -2.24972 1.97555 0
M  V30 5462 H 511.947 -1.08108 0.951247 0
M  V30 5463 H 513.9 -4.18489 0.494434 0
M  V30 5464 H 512.624 -3.24988 -0.324099 0
M  V30 5465 H 511.283 -3.18941 1.80755 0
M  V30 5466 H 510.931 -5.0278 0.148877 0
M  V30 5467 H 510.631 -5.58942 1.81267 0
M  V30 5468 H 512.155 -6.02546 0.988479 0
M  V30 5469 H 513.569 -4.90659 2.96524 0
M  V30 5470 H 511.966 -4.70147 3.72937 0
M  V30 5471 H 513.036 -3.29885 3.55392 0
M  V30 5472 N 514.379 -1.04941 -1.1758 0
M  V30 5473 C 515.289 -0.658826 -2.25159 0
M  V30 5474 C 516.305 0.318941 -1.71052 0
M  V30 5475 O 517.481 0.171669 -2.00667 0
M  V30 5476 C 514.546 -0.0369522 -3.4668 0
M  V30 5477 C 513.607 -1.06484 -4.15884 0
M  V30 5478 C 512.84 -0.472551 -5.31604 0
M  V30 5479 O 513.063 0.718736 -5.65854 0
M  V30 5480 O 511.997 -1.20557 -5.89703 0
M  V30 5481 H 515.823 -1.55533 -2.60851 0
M  V30 5482 H 513.408 -0.820819 -1.24832 0
M  V30 5483 H 515.29 0.308784 -4.20267 0
M  V30 5484 H 513.965 0.833238 -3.12792 0
M  V30 5485 H 512.872 -1.46253 -3.44327 0
M  V30 5486 H 514.205 -1.9061 -4.53794 0
M  V30 5487 N 515.857 1.33968 -0.830081 0
M  V30 5488 C 517.106 1.97323 -0.417928 0
M  V30 5489 C 517.419 1.6652 1.02618 0
M  V30 5490 O 518.625 2.2342 1.54259 0
M  V30 5491 C 517.081 3.53099 -0.696359 0
M  V30 5492 C 516.689 3.92788 -2.15457 0
M  V30 5493 C 518.433 4.23049 -0.350724 0
M  V30 5494 C 516.34 5.41506 -2.37751 0
M  V30 5495 H 515.27 0.738409 -0.152541 0
M  V30 5496 H 517.921 1.52711 -1.01744 0
M  V30 5497 H 516.303 3.95991 -0.0265904 0
M  V30 5498 H 517.477 3.6098 -2.86408 0
M  V30 5499 H 515.792 3.35795 -2.46232 0
M  V30 5500 H 518.389 5.32403 -0.495036 0
M  V30 5501 H 518.732 4.10279 0.705476 0
M  V30 5502 H 519.265 3.85657 -0.975362 0
M  V30 5503 H 516.004 5.5927 -3.41903 0
M  V30 5504 H 515.524 5.74804 -1.7135 0
M  V30 5505 H 517.203 6.0828 -2.20465 0
M  V30 5506 N 517.335 0.585699 1.46312 0
M  V30 5507 C 518.575 0.0751432 2.04262 0
M  V30 5508 C 518.939 -1.26201 1.44697 0
M  V30 5509 O 520.14 -1.86198 1.93865 0
M  V30 5510 C 518.411 0.013478 3.57397 0
M  V30 5511 S 519.97 -0.439068 4.36598 0
M  V30 5512 H 516.788 0.0389228 0.709934 0
M  V30 5513 H 519.39 0.778871 1.79315 0
M  V30 5514 H 518.094 0.990558 3.98266 0
M  V30 5515 H 517.625 -0.712927 3.86886 0
M  V30 5516 H 519.64 -1.6932 4.66417 0
M  V30 5517 N 518.813 -1.54241 0.323641 0
M  V30 5518 C 519.761 -2.25813 -0.557804 0
M  V30 5519 C 520.755 -1.27225 -1.11849 0
M  V30 5520 O 521.961 -1.45001 -1.06652 0
M  V30 5521 H 518.336 -0.72532 -0.198532 0
M  V30 5522 H 520.307 -2.98322 0.0681112 0
M  V30 5523 C 519.056 -3.02913 -1.70701 0
M  V30 5524 H 518.379 -3.78593 -1.28482 0
M  V30 5525 H 519.819 -3.56238 -2.29935 0
M  V30 5526 C 518.278 -2.11217 -2.62467 0
M  V30 5527 O 518.808 -1.69508 -3.64184 0
M  V30 5528 N 517.014 -1.76704 -2.30703 0
M  V30 5529 H 516.561 -2.1082 -1.48029 0
M  V30 5530 H 516.519 -1.15631 -2.92364 0
M  V30 5531 N 520.291 -0.0518155 -1.57515 0
M  V30 5532 C 521.221 0.920283 -2.146 0
M  V30 5533 C 522.202 1.32406 -1.06783 0
M  V30 5534 O 523.387 1.39866 -1.34726 0
M  V30 5535 C 520.517 2.1949 -2.6915 0
M  V30 5536 C 519.471 1.93116 -3.81956 0
M  V30 5537 C 518.797 3.27037 -4.23026 0
M  V30 5538 C 520.097 1.25225 -5.07066 0
M  V30 5539 H 521.791 0.444801 -2.96077 0
M  V30 5540 H 519.337 0.212508 -1.42423 0
M  V30 5541 H 521.29 2.87894 -3.07725 0
M  V30 5542 H 520.014 2.69244 -1.84865 0
M  V30 5543 H 518.673 1.27123 -3.43854 0
M  V30 5544 H 518.321 3.74595 -3.3569 0
M  V30 5545 H 518.021 3.10189 -4.99056 0
M  V30 5546 H 519.545 3.96673 -4.64202 0
M  V30 5547 H 520.959 1.83666 -5.43083 0
M  V30 5548 H 519.356 1.18702 -5.88243 0
M  V30 5549 H 520.426 0.228382 -4.84362 0
M  V30 5550 N 521.769 1.56035 0.221574 0
M  V30 5551 C 522.997 1.8313 0.962864 0
M  V30 5552 C 523.412 0.630934 1.77946 0
M  V30 5553 O 522.769 -0.400519 1.78051 0
M  V30 5554 C 522.82 3.08742 1.88045 0
M  V30 5555 O 522.541 4.24147 1.09686 0
M  V30 5556 C 524.042 3.48824 2.73563 0
M  V30 5557 H 521.262 0.608775 0.282194 0
M  V30 5558 H 523.806 2.03124 0.23681 0
M  V30 5559 H 521.961 2.90723 2.56045 0
M  V30 5560 H 522.375 4.95505 1.71974 0
M  V30 5561 H 523.849 4.39752 3.3365 0
M  V30 5562 H 524.326 2.70575 3.45956 0
M  V30 5563 H 524.932 3.69282 2.10976 0
M  V30 5564 N 523.247 -0.488276 1.49845 0
M  V30 5565 C 524.658 -1.06955 1.53028 0
M  V30 5566 C 525.009 -1.9351 0.323797 0
M  V30 5567 O 524.134 -2.08891 -0.565116 0
M  V30 5568 C 524.729 -1.94643 2.77307 0
M  V30 5569 C 523.288 -2.4791 2.83227 0
M  V30 5570 C 522.435 -1.25833 2.47106 0
M  V30 5571 H 525.386 -0.271626 1.56358 0
M  V30 5572 H 525.407 -2.79496 2.5819 0
M  V30 5573 H 524.919 -1.31621 3.65099 0
M  V30 5574 H 523.02 -3.14535 1.99745 0
M  V30 5575 H 523.133 -2.84193 3.85709 0
M  V30 5576 H 521.497 -1.58764 1.99163 0
M  V30 5577 H 522.28 -0.644993 3.37186 0
M  V30 5578 N 524.725 -1.39134 -0.740242 0
M  V30 5579 C 526.002 -1.26584 -1.49117 0
M  V30 5580 C 526.382 0.126902 -2.10718 0
M  V30 5581 O 525.73 1.13765 -1.98166 0
M  V30 5582 C 525.94 -2.38619 -2.54681 0
M  V30 5583 C 527.288 -2.77685 -3.21211 0
M  V30 5584 O 528.312 -2.38029 -2.64991 0
M  V30 5585 O 527.171 -3.46115 -4.22926 0
M  V30 5586 H 524.265 -0.495769 -0.661923 0
M  V30 5587 H 526.811 -1.50995 -0.774514 0
M  V30 5588 H 525.583 -3.3175 -2.07504 0
M  V30 5589 H 525.206 -2.15845 -3.33911 0
M  V30 5590 N 526.204 0.969867 -1.24223 0
M  V30 5591 C 527.167 2.04564 -1.03373 0
M  V30 5592 C 528.167 1.60798 0.00819206 0
M  V30 5593 O 529.357 1.72641 -0.232567 0
M  V30 5594 C 526.489 3.36163 -0.566343 0
M  V30 5595 H 527.682 2.24494 -1.98853 0
M  V30 5596 H 525.235 1.1448 -1.06415 0
M  V30 5597 H 525.97 3.21925 0.391751 0
M  V30 5598 H 525.755 3.69273 -1.31834 0
M  V30 5599 H 527.245 4.1526 -0.441435 0
M  V30 5600 N 527.682 1.05563 1.17022 0
M  V30 5601 C 528.612 0.681026 2.23348 0
M  V30 5602 C 529.593 -0.322983 1.67005 0
M  V30 5603 O 530.778 -0.199746 1.9317 0
M  V30 5604 C 527.908 0.0589053 3.4725 0
M  V30 5605 C 526.862 0.988082 4.16438 0
M  V30 5606 C 526.188 0.229646 5.34207 0
M  V30 5607 C 527.488 2.31388 4.68249 0
M  V30 5608 H 529.182 1.56993 2.54938 0
M  V30 5609 H 526.728 0.756302 1.2254 0
M  V30 5610 H 528.681 -0.214982 4.20851 0
M  V30 5611 H 527.405 -0.864968 3.14938 0
M  V30 5612 H 526.064 1.24659 3.44754 0
M  V30 5613 H 525.712 -0.697111 4.98146 0
M  V30 5614 H 525.412 0.848815 5.81437 0
M  V30 5615 H 526.936 -0.0368694 6.10589 0
M  V30 5616 H 528.35 2.09964 5.33468 0
M  V30 5617 H 526.747 2.88736 5.26072 0
M  V30 5618 H 527.817 2.94982 3.84855 0
M  V30 5619 N 529.16 -1.33526 0.837174 0
M  V30 5620 C 530.107 -2.29248 0.267169 0
M  V30 5621 C 531.077 -1.54252 -0.616071 0
M  V30 5622 O 532.262 -1.82559 -0.554699 0
M  V30 5623 C 529.402 -3.40638 -0.553152 0
M  V30 5624 C 528.515 -4.30548 0.353921 0
M  V30 5625 C 527.65 -5.29051 -0.477339 0
M  V30 5626 C 526.689 -6.106 0.42823 0
M  V30 5627 N 525.826 -7.01152 -0.364801 0
M  V30 5628 H 530.666 -2.77398 1.08877 0
M  V30 5629 H 528.203 -1.36496 0.54838 0
M  V30 5630 H 530.161 -4.03921 -1.04422 0
M  V30 5631 H 528.791 -2.93685 -1.33973 0
M  V30 5632 H 527.843 -3.68001 0.963289 0
M  V30 5633 H 529.155 -4.87631 1.04964 0
M  V30 5634 H 528.309 -5.97853 -1.0323 0
M  V30 5635 H 527.048 -4.72541 -1.2065 0
M  V30 5636 H 526.053 -5.40718 0.995219 0
M  V30 5637 H 527.278 -6.69193 1.15573 0
M  V30 5638 H 525.224 -6.47092 -1.07738 0
M  V30 5639 H 525.141 -7.5551 0.272238 0
M  V30 5640 H 526.409 -7.74263 -0.902054 0
M  V30 5641 N 530.638 -0.59345 -1.46 0
M  V30 5642 C 531.863 -0.0872365 -2.07216 0
M  V30 5643 C 532.288 1.2131 -1.43755 0
M  V30 5644 O 531.646 1.73528 -0.525152 0
M  V30 5645 C 531.694 0.0538197 -3.6056 0
M  V30 5646 O 530.798 1.10765 -3.97247 0
M  V30 5647 H 530.139 -0.0676598 -0.660544 0
M  V30 5648 H 532.669 -0.819445 -1.87473 0
M  V30 5649 H 532.679 0.256567 -4.07193 0
M  V30 5650 H 531.354 -0.895739 -4.0614 0
M  V30 5651 H 529.931 0.882501 -3.62307 0
M  V30 5652 N 532.116 1.54067 -0.331816 0
M  V30 5653 C 533.532 1.59587 0.0205388 0
M  V30 5654 C 533.732 1.34813 1.49759 0
M  V30 5655 O 532.788 1.13661 2.25471 0
M  V30 5656 C 534.101 2.97959 -0.405103 0
M  V30 5657 C 535.649 3.10964 -0.356454 0
M  V30 5658 C 536.124 4.51694 -0.757384 0
M  V30 5659 N 537.615 4.57709 -0.71111 0
M  V30 5660 C 538.35 5.64729 -0.993427 0
M  V30 5661 N 537.846 6.79652 -1.3433 0
M  V30 5662 N 539.639 5.54546 -0.918442 0
M  V30 5663 H 531.79 1.68426 -1.29407 0
M  V30 5664 H 534.053 0.78819 -0.526745 0
M  V30 5665 H 533.759 3.21115 -1.43451 0
M  V30 5666 H 533.633 3.76524 0.225692 0
M  V30 5667 H 536.02 2.87538 0.663763 0
M  V30 5668 H 536.101 2.34484 -1.02229 0
M  V30 5669 H 535.745 4.75853 -1.77555 0
M  V30 5670 H 535.675 5.26555 -0.0691444 0
M  V30 5671 H 538.166 3.75176 -0.452883 0
M  V30 5672 H 538.479 7.57221 -1.54388 0
M  V30 5673 H 536.824 6.81128 -1.38164 0
M  V30 5674 H 540.015 4.63641 -0.644536 0
M  V30 5675 H 540.188 6.37861 -1.14181 0
M  V30 5676 N 533.594 0.0601682 1.57485 0
M  V30 5677 C 534.822 -0.620937 1.97363 0
M  V30 5678 C 535.237 -1.63846 0.938082 0
M  V30 5679 O 534.594 -1.82339 -0.0766578 0
M  V30 5680 C 534.645 -1.29987 3.37321 0
M  V30 5681 O 534.366 -0.323081 4.36907 0
M  V30 5682 C 535.867 -2.06989 3.92008 0
M  V30 5683 H 533.087 -0.169135 0.649334 0
M  V30 5684 H 535.631 0.129132 2.04092 0
M  V30 5685 H 533.786 -2.0011 3.31715 0
M  V30 5686 H 534.2 -0.808754 5.18227 0
M  V30 5687 H 535.674 -2.49901 4.92192 0
M  V30 5688 H 536.151 -2.92173 3.2792 0
M  V30 5689 H 536.757 -1.41757 4.0098 0
M  V30 5690 N 535.072 -1.5615 -0.213296 0
M  V30 5691 C 536.321 -1.78743 -0.93455 0
M  V30 5692 C 536.634 -0.630199 -1.8517 0
M  V30 5693 O 537.84 -0.739966 -2.61222 0
M  V30 5694 C 536.296 -3.16571 -1.71203 0
M  V30 5695 C 535.904 -4.40043 -0.840617 0
M  V30 5696 C 537.648 -3.48485 -2.42401 0
M  V30 5697 C 535.555 -5.68895 -1.61592 0
M  V30 5698 H 534.485 -0.666426 -0.352692 0
M  V30 5699 H 537.136 -1.82532 -0.188227 0
M  V30 5700 H 535.518 -3.06981 -2.50157 0
M  V30 5701 H 536.692 -4.6071 -0.0910326 0
M  V30 5702 H 535.007 -4.15706 -0.240365 0
M  V30 5703 H 537.604 -4.41983 -3.00924 0
M  V30 5704 H 537.947 -2.71371 -3.15695 0
M  V30 5705 H 538.48 -3.59442 -1.7043 0
M  V30 5706 H 535.219 -6.48925 -0.926106 0
M  V30 5707 H 534.739 -5.52275 -2.33991 0
M  V30 5708 H 536.418 -6.09365 -2.17447 0
M  V30 5709 N 536.55 0.480323 -1.50102 0
M  V30 5710 C 537.966 0.813295 -1.37323 0
M  V30 5711 C 538.166 1.97027 -0.422206 0
M  V30 5712 O 537.222 2.5212 0.138563 0
M  V30 5713 C 538.535 1.13404 -2.78496 0
M  V30 5714 C 540.083 1.24104 -2.87345 0
M  V30 5715 C 540.558 1.59497 -4.29331 0
M  V30 5716 N 542.049 1.66507 -4.32238 0
M  V30 5717 C 542.784 1.95378 -5.39087 0
M  V30 5718 N 542.28 2.22333 -6.56155 0
M  V30 5719 N 544.073 1.96803 -5.26522 0
M  V30 5720 H 536.224 -0.282291 -2.10516 0
M  V30 5721 H 538.487 -0.063752 -0.945854 0
M  V30 5722 H 538.193 0.357064 -3.49883 0
M  V30 5723 H 538.067 2.07251 -3.15162 0
M  V30 5724 H 540.454 2.00871 -2.16183 0
M  V30 5725 H 540.535 0.282593 -2.54234 0
M  V30 5726 H 540.179 0.832736 -5.01027 0
M  V30 5727 H 540.109 2.56477 -4.59921 0
M  V30 5728 H 542.6 1.47753 -3.47818 0
M  V30 5729 H 542.913 2.43611 -7.33399 0
M  V30 5730 H 541.258 2.19745 -6.59346 0
M  V30 5731 H 544.449 1.75235 -4.34062 0
M  V30 5732 H 544.622 2.18969 -6.09883 0
M  V30 5733 N 538.028 1.39524 0.732853 0
M  V30 5734 C 538.975 1.38416 1.84688 0
M  V30 5735 C 539.945 0.243539 1.64305 0
M  V30 5736 O 541.13 0.438979 1.85681 0
M  V30 5737 C 538.27 1.23555 3.22224 0
M  V30 5738 C 537.383 2.47179 3.54298 0
M  V30 5739 C 536.518 2.2489 4.81246 0
M  V30 5740 C 535.557 3.44178 5.0617 0
M  V30 5741 N 534.694 3.21192 6.24323 0
M  V30 5742 H 539.534 2.33645 1.84971 0
M  V30 5743 H 537.071 1.16059 0.903804 0
M  V30 5744 H 539.029 1.12949 4.0162 0
M  V30 5745 H 537.659 0.31954 3.21215 0
M  V30 5746 H 536.711 2.68379 2.69587 0
M  V30 5747 H 538.023 3.36022 3.68633 0
M  V30 5748 H 537.177 2.11538 5.68627 0
M  V30 5749 H 535.916 1.33443 4.69089 0
M  V30 5750 H 534.921 3.58025 4.17251 0
M  V30 5751 H 536.146 4.36528 5.20212 0
M  V30 5752 H 534.092 2.32413 6.1345 0
M  V30 5753 H 534.009 4.03594 6.39256 0
M  V30 5754 H 535.277 3.1154 7.14537 0
M  V30 5755 N 539.506 -0.963266 1.24736 0
M  V30 5756 C 540.752 -1.71 1.10139 0
M  V30 5757 C 541.107 -1.89089 -0.35541 0
M  V30 5758 O 540.4 -1.44451 -1.25875 0
M  V30 5759 C 540.594 -3.09944 1.7796 0
M  V30 5760 C 540.423 -3.05408 3.30085 0
M  V30 5761 C 539.193 -3.09643 3.99311 0
M  V30 5762 C 541.391 -2.87241 4.26611 0
M  V30 5763 N 539.373 -2.95174 5.3828 0
M  V30 5764 C 540.744 -2.81114 5.52607 0
M  V30 5765 C 542.799 -2.71856 4.17132 0
M  V30 5766 C 541.502 -2.61174 6.70209 0
M  V30 5767 C 543.528 -2.53284 5.34417 0
M  V30 5768 C 542.89 -2.4787 6.59348 0
M  V30 5769 H 538.989 -0.634078 0.457678 0
M  V30 5770 H 541.573 -1.14169 1.57713 0
M  V30 5771 H 539.744 -3.64958 1.32893 0
M  V30 5772 H 541.476 -3.73348 1.56183 0
M  V30 5773 H 538.231 -3.18498 3.50508 0
M  V30 5774 H 538.655 -2.91168 6.11188 0
M  V30 5775 H 543.297 -2.74821 3.21299 0
M  V30 5776 H 541.015 -2.56952 7.6616 0
M  V30 5777 H 544.601 -2.42317 5.28936 0
M  V30 5778 H 543.481 -2.33685 7.48573 0
M  V30 5779 N 540.985 -1.06182 -1.16461 0
M  V30 5780 C 541.933 -0.665716 -2.2287 0
M  V30 5781 C 542.927 0.317822 -1.66392 0
M  V30 5782 O 544.133 0.182807 -1.79069 0
M  V30 5783 H 540.508 -0.197148 -0.725697 0
M  V30 5784 H 542.479 -1.57307 -2.53569 0
M  V30 5785 C 541.228 -0.0669803 -3.47635 0
M  V30 5786 H 540.551 -0.814899 -3.91407 0
M  V30 5787 H 541.991 0.172669 -4.23648 0
M  V30 5788 C 540.45 1.18913 -3.15216 0
M  V30 5789 O 540.98 2.27723 -3.30916 0
M  V30 5790 N 539.186 1.09066 -2.69357 0
M  V30 5791 H 538.733 0.20518 -2.56782 0
M  V30 5792 H 538.691 1.93195 -2.48039 0
M  V30 5793 N 542.463 1.3308 -0.844243 0
M  V30 5794 C 543.691 2.01808 -0.456203 0
M  V30 5795 C 544.106 1.63498 0.944131 0
M  V30 5796 O 543.463 0.85102 1.61443 0
M  V30 5797 C 543.514 3.56922 -0.573513 0
M  V30 5798 O 543.235 3.93851 -1.91868 0
M  V30 5799 C 544.736 4.42922 -0.183125 0
M  V30 5800 H 541.956 0.646273 -0.180477 0
M  V30 5801 H 544.5 1.69891 -1.1383 0
M  V30 5802 H 542.655 3.87352 0.0607367 0
M  V30 5803 H 543.069 4.88564 -1.90802 0
M  V30 5804 H 544.543 5.51093 -0.316241 0
M  V30 5805 H 545.02 4.30386 0.875477 0
M  V30 5806 H 545.626 4.1786 -0.792027 0
M  V30 5807 N 543.941 0.601185 1.45683 0
M  V30 5808 C 545.169 0.100054 2.06658 0
M  V30 5809 C 545.584 -1.21285 1.44691 0
M  V30 5810 O 544.941 -1.73735 0.558772 0
M  V30 5811 C 544.992 -0.0528579 3.61461 0
M  V30 5812 O 544.713 1.20809 4.21114 0
M  V30 5813 C 546.214 -0.586193 4.39407 0
M  V30 5814 H 543.434 0.065905 0.667756 0
M  V30 5815 H 545.978 0.827101 1.87028 0
M  V30 5816 H 544.133 -0.730203 3.80456 0
M  V30 5817 H 544.547 1.03368 5.14213 0
M  V30 5818 H 546.021 -0.642297 5.4825 0
M  V30 5819 H 546.498 -1.60713 4.0874 0
M  V30 5820 H 547.104 0.0568935 4.25262 0
M  V30 5821 N 545.419 -1.53889 0.339982 0
M  V30 5822 C 546.349 -2.27843 -0.510856 0
M  V30 5823 C 547.33 -1.29267 -1.10563 0
M  V30 5824 O 548.515 -1.58104 -1.12768 0
M  V30 5825 C 545.645 -3.04857 -1.66372 0
M  V30 5826 C 544.599 -4.10907 -1.19746 0
M  V30 5827 C 543.925 -4.75855 -2.43857 0
M  V30 5828 C 545.225 -5.21435 -0.300501 0
M  V30 5829 H 546.919 -2.99212 0.106067 0
M  V30 5830 H 544.465 -1.43904 0.0524533 0
M  V30 5831 H 546.418 -3.5533 -2.26537 0
M  V30 5832 H 545.142 -2.31133 -2.30749 0
M  V30 5833 H 543.801 -3.61342 -0.618654 0
M  V30 5834 H 543.449 -3.9873 -3.06633 0
M  V30 5835 H 543.149 -5.47502 -2.13343 0
M  V30 5836 H 544.673 -5.2911 -3.04754 0
M  V30 5837 H 546.087 -5.67565 -0.80889 0
M  V30 5838 H 544.484 -6.00036 -0.0874076 0
M  V30 5839 H 545.554 -4.80328 0.664321 0
M  V30 5840 N 546.897 -0.0685191 -1.57451 0
M  V30 5841 C 548.127 0.609577 -1.97402 0
M  V30 5842 C 548.535 1.63882 -0.945489 0
M  V30 5843 O 547.878 1.8354 0.0766052 0
M  V30 5844 C 547.94 1.3385 -3.33653 0
M  V30 5845 C 547.604 0.463103 -4.54648 0
M  V30 5846 C 548.601 -0.277964 -5.19156 0
M  V30 5847 C 546.286 0.388941 -5.00792 0
M  V30 5848 C 548.28 -1.08145 -6.28159 0
M  V30 5849 C 545.967 -0.418217 -6.09667 0
M  V30 5850 C 546.965 -1.15208 -6.73213 0
M  V30 5851 O 546.653 -1.94594 -7.79993 0
M  V30 5852 H 546.385 0.170197 -0.654224 0
M  V30 5853 H 548.939 -0.13647 -2.04946 0
M  V30 5854 H 547.169 2.13055 -3.22714 0
M  V30 5855 H 548.858 1.90851 -3.58233 0
M  V30 5856 H 549.624 -0.230241 -4.84453 0
M  V30 5857 H 545.503 0.949769 -4.5111 0
M  V30 5858 H 549.047 -1.65476 -6.7769 0
M  V30 5859 H 544.944 -0.467515 -6.43805 0
M  V30 5860 H 545.712 -1.8699 -7.96854 0
M  V30 5861 N 548.375 1.56261 0.205012 0
M  V30 5862 C 549.285 1.96944 1.27476 0
M  V30 5863 C 550.301 0.875636 1.50362 0
M  V30 5864 O 551.477 1.18058 1.6317 0
M  V30 5865 C 548.542 2.29219 2.60115 0
M  V30 5866 C 547.603 3.52255 2.45387 0
M  V30 5867 C 546.836 3.8298 3.71701 0
M  V30 5868 O 547.059 3.15138 4.75441 0
M  V30 5869 O 545.993 4.76435 3.67823 0
M  V30 5870 H 549.819 2.88144 0.959527 0
M  V30 5871 H 547.404 1.43686 0.409217 0
M  V30 5872 H 549.286 2.51098 3.3842 0
M  V30 5873 H 547.961 1.4119 2.91285 0
M  V30 5874 H 546.868 3.35635 1.65227 0
M  V30 5875 H 548.201 4.40719 2.19152 0
M  V30 5876 N 549.853 -0.472356 1.50355 0
M  V30 5877 C 551.101 -1.22211 1.60962 0
M  V30 5878 C 551.422 -1.92497 0.311439 0
M  V30 5879 O 550.692 -1.8405 -0.671002 0
M  V30 5880 H 549.272 -0.454092 0.593135 0
M  V30 5881 H 551.934 -0.544977 1.87126 0
M  V30 5882 H 551.03 -1.9707 2.42012 0
M  V30 5883 N 551.331 -1.39911 -0.725443 0
M  V30 5884 C 552.559 -1.40949 -1.51463 0
M  V30 5885 C 552.974 -0.0065242 -1.88799 0
M  V30 5886 O 552.331 0.967163 -1.54765 0
M  V30 5887 C 552.382 -2.29119 -2.79619 0
M  V30 5888 O 552.103 -3.63952 -2.43866 0
M  V30 5889 C 553.604 -2.38642 -3.73584 0
M  V30 5890 H 550.824 -0.481091 -0.467752 0
M  V30 5891 H 553.368 -1.83843 -0.895651 0
M  V30 5892 H 551.523 -1.89612 -3.37826 0
M  V30 5893 H 551.937 -4.10677 -3.26258 0
M  V30 5894 H 553.411 -3.04563 -4.60375 0
M  V30 5895 H 553.888 -1.40846 -4.16004 0
M  V30 5896 H 554.494 -2.78659 -3.21293 0
M  V30 5897 N 552.809 0.956637 -1.25245 0
M  V30 5898 C 554.055 1.70413 -1.11044 0
M  V30 5899 C 554.41 1.89275 0.345377 0
M  V30 5900 O 553.703 1.45116 1.25107 0
M  V30 5901 C 553.897 3.08996 -1.79601 0
M  V30 5902 C 553.726 3.03654 -3.317 0
M  V30 5903 C 552.496 3.07521 -4.00947 0
M  V30 5904 C 554.694 2.84975 -4.28128 0
M  V30 5905 N 552.676 2.92316 -5.39838 0
M  V30 5906 C 554.047 2.7818 -5.5409 0
M  V30 5907 C 556.102 2.6964 -4.18568 0
M  V30 5908 C 554.805 2.57616 -6.71585 0
M  V30 5909 C 556.831 2.50447 -5.35752 0
M  V30 5910 C 556.193 2.4437 -6.60653 0
M  V30 5911 H 552.292 0.631642 -0.461035 0
M  V30 5912 H 554.876 1.13331 -1.58317 0
M  V30 5913 H 553.047 3.64248 -1.34826 0
M  V30 5914 H 554.779 3.72515 -1.58161 0
M  V30 5915 H 551.534 3.16635 -3.52192 0
M  V30 5916 H 551.958 2.87923 -6.12723 0
M  V30 5917 H 556.6 2.73113 -3.22752 0
M  V30 5918 H 554.318 2.52885 -7.67512 0
M  V30 5919 H 557.904 2.39509 -5.30214 0
M  V30 5920 H 556.784 2.29712 -7.49801 0
M  V30 5921 N 554.287 1.06798 1.15896 0
M  V30 5922 C 555.703 0.792423 1.38538 0
M  V30 5923 C 555.903 -0.60592 1.92174 0
M  V30 5924 O 554.959 -1.36561 2.12385 0
M  V30 5925 C 556.272 1.86157 2.36149 0
M  V30 5926 C 557.82 1.88567 2.49823 0
M  V30 5927 C 558.295 2.9455 3.5072 0
M  V30 5928 N 559.786 2.93616 3.58251 0
M  V30 5929 C 560.521 3.72267 4.36125 0
M  V30 5930 N 560.017 4.60751 5.17379 0
M  V30 5931 N 561.81 3.60637 4.31158 0
M  V30 5932 H 553.961 1.96993 0.794198 0
M  V30 5933 H 556.224 0.853942 0.411688 0
M  V30 5934 H 555.93 2.86603 2.03843 0
M  V30 5935 H 555.804 1.71692 3.3586 0
M  V30 5936 H 558.191 0.887765 2.8143 0
M  V30 5937 H 558.272 2.0711 1.5013 0
M  V30 5938 H 557.916 3.94537 3.19849 0
M  V30 5939 H 557.846 2.73255 4.50155 0
M  V30 5940 H 560.337 2.29472 3.00252 0
M  V30 5941 H 560.65 5.17408 5.74028 0
M  V30 5942 H 558.995 4.64803 5.16704 0
M  V30 5943 H 562.186 2.90892 3.66742 0
M  V30 5944 H 562.359 4.22176 4.91601 0
M  V30 5945 N 555.766 -1.3263 0.851289 0
M  V30 5946 C 557.182 -1.50162 0.5407 0
M  V30 5947 C 557.382 -1.78788 -0.929369 0
M  V30 5948 O 556.438 -1.85545 -1.71258 0
M  V30 5949 C 557.751 -2.64803 1.42478 0
M  V30 5950 C 559.299 -2.78688 1.42485 0
M  V30 5951 C 559.774 -3.96405 2.29407 0
M  V30 5952 N 561.265 -4.0366 2.27184 0
M  V30 5953 C 562 -4.93971 2.9117 0
M  V30 5954 N 561.496 -5.89313 3.64256 0
M  V30 5955 N 563.289 -4.87066 2.80576 0
M  V30 5956 H 555.44 -1.12315 1.80275 0
M  V30 5957 H 557.703 -0.553266 0.769806 0
M  V30 5958 H 557.409 -2.50368 2.46999 0
M  V30 5959 H 557.283 -3.60506 1.10974 0
M  V30 5960 H 559.67 -2.92547 0.387304 0
M  V30 5961 H 559.751 -1.83708 1.78002 0
M  V30 5962 H 559.395 -3.83304 3.33228 0
M  V30 5963 H 559.325 -4.90654 1.91224 0
M  V30 5964 H 561.816 -3.35435 1.74045 0
M  V30 5965 H 562.129 -6.54913 4.10255 0
M  V30 5966 H 560.474 -5.8935 3.68364 0
M  V30 5967 H 563.665 -4.11552 2.23031 0
M  V30 5968 H 563.838 -5.57248 3.30725 0
M  V30 5969 N 557.244 -0.608902 -1.45362 0
M  V30 5970 C 558.492 -0.104401 -2.0183 0
M  V30 5971 C 558.813 1.27007 -1.47967 0
M  V30 5972 O 558.083 1.83924 -0.674455 0
M  V30 5973 H 556.663 -0.0356042 -0.746151 0
M  V30 5974 H 559.325 -0.790596 -1.78145 0
M  V30 5975 H 558.421 -0.0551793 -3.12051 0
M  V30 5976 N 558.722 1.53707 -0.348139 0
M  V30 5977 C 559.947 2.05877 0.250883 0
M  V30 5978 C 560.372 1.22115 1.43072 0
M  V30 5979 O 559.73 0.235986 1.79758 0
M  V30 5980 C 559.778 3.54886 0.639416 0
M  V30 5981 O 558.882 3.73948 1.73888 0
M  V30 5982 H 558.223 0.662754 0.040653 0
M  V30 5983 H 560.753 1.98303 -0.503685 0
M  V30 5984 H 560.763 3.97601 0.915295 0
M  V30 5985 H 559.438 4.153 -0.223386 0
M  V30 5986 H 558.015 3.43134 1.45991 0
M  V30 5987 N 560.2 0.0768682 1.57412 0
M  V30 5988 C 561.428 -0.59997 1.9801 0
M  V30 5989 C 561.843 -1.62842 0.955408 0
M  V30 5990 O 561.2 -1.8241 -0.057314 0
M  V30 5991 C 561.251 -1.26401 3.38681 0
M  V30 5992 O 560.972 -0.276723 4.37225 0
M  V30 5993 C 562.473 -2.0282 3.94182 0
M  V30 5994 H 559.693 -0.162239 0.651091 0
M  V30 5995 H 562.237 0.150771 2.03943 0
M  V30 5996 H 560.392 -1.96581 3.33819 0
M  V30 5997 H 560.806 -0.753744 5.19056 0
M  V30 5998 H 562.28 -2.44667 4.94815 0
M  V30 5999 H 562.757 -2.88678 3.31001 0
M  V30 6000 H 563.363 -1.37496 4.02461 0
M  V30 6001 N 561.678 -1.56367 -0.196722 0
M  V30 6002 C 562.641 -1.93561 -1.22746 0
M  V30 6003 C 563.641 -0.816566 -1.38524 0
M  V30 6004 O 564.831 -1.084 -1.36363 0
M  V30 6005 C 561.963 -2.20823 -2.59712 0
M  V30 6006 H 563.156 -2.85774 -0.909586 0
M  V30 6007 H 560.709 -1.50032 -0.438174 0
M  V30 6008 H 561.444 -1.31243 -2.96557 0
M  V30 6009 H 561.229 -3.02368 -2.49632 0
M  V30 6010 H 562.719 -2.50608 -3.34044 0
M  V30 6011 N 563.156 0.464375 -1.50603 0
M  V30 6012 C 564.404 1.21356 -1.61608 0
M  V30 6013 C 564.725 1.92329 -0.321643 0
M  V30 6014 O 563.995 1.84403 0.661232 0
M  V30 6015 H 562.575 0.45094 -0.595535 0
M  V30 6016 H 565.237 0.535046 -1.87412 0
M  V30 6017 H 564.333 1.95783 -2.43054 0
M  V30 6018 N 564.634 1.40294 0.718013 0
M  V30 6019 C 565.882 1.38167 1.47494 0
M  V30 6020 C 566.203 -0.01607 1.94993 0
M  V30 6021 O 565.473 -0.970396 1.70177 0
M  V30 6022 H 564.053 0.508505 0.547203 0
M  V30 6023 H 566.715 1.75324 0.851322 0
M  V30 6024 H 565.811 2.05503 2.34894 0
M  V30 6025 N 566.112 -0.949982 1.2575 0
M  V30 6026 C 567.352 -1.70994 1.11984 0
M  V30 6027 C 567.716 -1.89095 -0.332746 0
M  V30 6028 O 568.917 -2.62192 -0.592331 0
M  V30 6029 C 567.188 -3.05286 1.85837 0
M  V30 6030 S 568.747 -3.96477 1.88019 0
M  V30 6031 H 565.565 -0.587689 0.400178 0
M  V30 6032 H 568.167 -1.13271 1.59342 0
M  V30 6033 H 566.871 -2.89785 2.90608 0
M  V30 6034 H 566.402 -3.68069 1.38885 0
M  V30 6035 H 568.417 -4.86814 0.96057 0
M  V30 6036 N 567.59 -1.07411 -1.15328 0
M  V30 6037 C 569.006 -0.799759 -1.38116 0
M  V30 6038 C 569.206 0.59572 -1.92493 0
M  V30 6039 O 568.262 1.35433 -2.13106 0
M  V30 6040 C 569.575 -1.87407 -2.35158 0
M  V30 6041 C 571.123 -1.89889 -2.48819 0
M  V30 6042 C 571.598 -2.96406 -3.49153 0
M  V30 6043 N 573.089 -2.95512 -3.56689 0
M  V30 6044 C 573.824 -3.74575 -4.34144 0
M  V30 6045 N 573.32 -4.63488 -5.14928 0
M  V30 6046 N 575.113 -3.62919 -4.29239 0
M  V30 6047 H 567.264 -1.97411 -0.78374 0
M  V30 6048 H 569.527 -0.856113 -0.407154 0
M  V30 6049 H 569.233 -2.8768 -2.0232 0
M  V30 6050 H 569.107 -1.73471 -3.34944 0
M  V30 6051 H 571.494 -0.902677 -2.80955 0
M  V30 6052 H 571.575 -2.07904 -1.49029 0
M  V30 6053 H 571.219 -3.96227 -3.17752 0
M  V30 6054 H 571.149 -2.75638 -4.48699 0
M  V30 6055 H 573.64 -2.31061 -2.99031 0
M  V30 6056 H 573.953 -5.20445 -5.71276 0
M  V30 6057 H 572.298 -4.67537 -5.14232 0
M  V30 6058 H 575.489 -2.92833 -3.65194 0
M  V30 6059 H 575.662 -4.24777 -4.89355 0
M  V30 6060 N 569.068 1.32177 -0.85831 0
M  V30 6061 C 570.016 2.30729 -0.294442 0
M  V30 6062 C 571.01 1.59009 0.584165 0
M  V30 6063 O 572.216 1.73713 0.471562 0
M  V30 6064 H 568.591 0.748097 -0.0765171 0
M  V30 6065 H 570.562 2.75774 -1.1398 0
M  V30 6066 C 569.311 3.44098 0.499208 0
M  V30 6067 H 568.634 3.99449 -0.167579 0
M  V30 6068 H 570.074 4.15202 0.859273 0
M  V30 6069 C 568.533 2.91684 1.68588 0
M  V30 6070 O 569.063 2.89481 2.78503 0
M  V30 6071 N 567.269 2.48036 1.51415 0
M  V30 6072 H 566.816 2.50027 0.620006 0
M  V30 6073 H 566.774 2.13322 2.30957 0
M  V30 6074 N 570.547 0.616602 1.45037 0
M  V30 6075 C 571.777 0.121791 2.06241 0
M  V30 6076 C 572.185 -1.20289 1.46038 0
M  V30 6077 O 571.528 -1.7456 0.572242 0
M  V30 6078 C 571.59 -0.0827345 3.59405 0
M  V30 6079 C 571.254 1.16153 4.41993 0
M  V30 6080 C 572.251 2.08183 4.76399 0
M  V30 6081 C 569.936 1.39288 4.82601 0
M  V30 6082 C 571.93 3.21668 5.5028 0
M  V30 6083 C 569.617 2.53073 5.56235 0
M  V30 6084 C 570.615 3.44091 5.89992 0
M  V30 6085 O 570.303 4.55894 6.6213 0
M  V30 6086 H 570.035 0.0701667 0.672349 0
M  V30 6087 H 572.589 0.846877 1.87129 0
M  V30 6088 H 570.819 -0.862812 3.76952 0
M  V30 6089 H 572.508 -0.530273 4.02421 0
M  V30 6090 H 573.274 1.91538 4.45576 0
M  V30 6091 H 569.153 0.693396 4.55755 0
M  V30 6092 H 572.697 3.92733 5.76547 0
M  V30 6093 H 568.594 2.69667 5.86472 0
M  V30 6094 H 569.362 4.5469 6.80587 0
M  V30 6095 N 572.025 -1.5352 0.356285 0
M  V30 6096 C 573.436 -1.86282 -0.12492 0
M  V30 6097 C 573.787 -1.27717 -1.48939 0
M  V30 6098 O 572.912 -0.595614 -2.08042 0
M  V30 6099 C 573.507 -3.37995 -0.23345 0
M  V30 6100 C 572.066 -3.70588 -0.658899 0
M  V30 6101 C 571.213 -2.76581 0.199596 0
M  V30 6102 H 574.164 -1.47901 0.575423 0
M  V30 6103 H 574.185 -3.65475 -1.0587 0
M  V30 6104 H 573.697 -3.8059 0.759776 0
M  V30 6105 H 571.798 -3.33544 -1.66069 0
M  V30 6106 H 571.911 -4.77076 -0.439957 0
M  V30 6107 H 570.275 -2.52552 -0.330076 0
M  V30 6108 H 571.058 -3.22008 1.19019 0
M  V30 6109 N 573.503 -0.0852151 -1.57369 0
M  V30 6110 C 574.466 0.8627 -2.12344 0
M  V30 6111 C 575.466 1.21746 -1.05046 0
M  V30 6112 O 576.656 1.14852 -1.30976 0
M  V30 6113 C 573.788 2.1618 -2.63589 0
M  V30 6114 H 574.981 0.385511 -2.97412 0
M  V30 6115 H 572.534 0.163663 -1.55441 0
M  V30 6116 H 573.269 2.68406 -1.82013 0
M  V30 6117 H 573.054 1.91723 -3.4203 0
M  V30 6118 H 574.544 2.84011 -3.06149 0
M  V30 6119 N 574.981 1.5647 0.188427 0
M  V30 6120 C 576.209 1.85131 0.923803 0
M  V30 6121 C 576.624 0.668537 1.76567 0
M  V30 6122 O 575.981 -0.362662 1.7886 0
M  V30 6123 C 576.032 3.12661 1.81453 0
M  V30 6124 O 575.753 4.26378 1.00665 0
M  V30 6125 C 577.254 3.54548 2.66103 0
M  V30 6126 H 574.474 0.614624 0.269218 0
M  V30 6127 H 577.018 2.03581 0.193671 0
M  V30 6128 H 575.173 2.96088 2.49821 0
M  V30 6129 H 575.587 4.99041 1.61425 0
M  V30 6130 H 577.061 4.4673 3.24247 0
M  V30 6131 H 577.538 2.77853 3.40139 0
M  V30 6132 H 578.144 3.73674 2.03096 0
M  V30 6133 N 576.459 -0.456382 1.50847 0
M  V30 6134 C 577.706 -1.20736 1.62571 0
M  V30 6135 C 578.034 -1.9163 0.332904 0
M  V30 6136 O 577.289 -1.8343 -0.682058 0
M  V30 6137 C 577.588 -2.26336 2.76599 0
M  V30 6138 C 577.254 -1.7259 4.16562 0
M  V30 6139 C 575.916 -1.57654 4.54641 0
M  V30 6140 C 578.268 -1.32877 5.03977 0
M  V30 6141 C 575.596 -1.0145 5.77862 0
M  V30 6142 C 577.948 -0.7811 6.27759 0
M  V30 6143 C 576.612 -0.618488 6.64628 0
M  V30 6144 H 575.882 -0.441803 0.594888 0
M  V30 6145 H 578.529 -0.501169 1.84826 0
M  V30 6146 H 576.834 -3.0292 2.48489 0
M  V30 6147 H 578.531 -2.84227 2.82871 0
M  V30 6148 H 575.121 -1.85187 3.86528 0
M  V30 6149 H 579.305 -1.43245 4.75179 0
M  V30 6150 H 574.561 -0.876109 6.0509 0
M  V30 6151 H 578.735 -0.464783 6.94847 0
M  V30 6152 H 576.362 -0.180838 7.59985 0
M  V30 6153 N 577.937 -1.40673 -0.710563 0
M  V30 6154 C 579.183 -1.4043 -1.47142 0
M  V30 6155 C 579.538 -0.00781557 -1.92398 0
M  V30 6156 O 578.831 0.963535 -1.6561 0
M  V30 6157 C 579.025 -2.33253 -2.70791 0
M  V30 6158 C 578.854 -3.81789 -2.37629 0
M  V30 6159 C 577.624 -4.5057 -2.28724 0
M  V30 6160 C 579.822 -4.73152 -2.01572 0
M  V30 6161 N 577.804 -5.84312 -1.88289 0
M  V30 6162 C 579.175 -5.95728 -1.71778 0
M  V30 6163 C 581.23 -4.6094 -1.88252 0
M  V30 6164 C 579.933 -7.07454 -1.30003 0
M  V30 6165 C 581.959 -5.72613 -1.47881 0
M  V30 6166 C 581.321 -6.94278 -1.18987 0
M  V30 6167 H 577.42 -0.569115 -0.536314 0
M  V30 6168 H 580.004 -1.76425 -0.823547 0
M  V30 6169 H 578.175 -1.99378 -3.33321 0
M  V30 6170 H 579.907 -2.23833 -3.37166 0
M  V30 6171 H 576.662 -4.04315 -2.46629 0
M  V30 6172 H 577.086 -6.55153 -1.70596 0
M  V30 6173 H 581.728 -3.67389 -2.09249 0
M  V30 6174 H 579.446 -8.00884 -1.07749 0
M  V30 6175 H 583.032 -5.65161 -1.38145 0
M  V30 6176 H 581.912 -7.79222 -0.88219 0
M  V30 6177 N 579.415 0.9433 -1.26252 0
M  V30 6178 C 580.661 1.69175 -1.11837 0
M  V30 6179 C 580.994 1.91238 0.337891 0
M  V30 6180 O 580.269 1.49152 1.24836 0
M  V30 6181 C 580.552 3.06783 -1.88563 0
M  V30 6182 C 580.405 2.9206 -3.42083 0
M  V30 6183 C 581.724 4.06865 -1.67776 0
M  V30 6184 H 578.843 0.61399 -0.407658 0
M  V30 6185 H 581.485 1.09572 -1.55222 0
M  V30 6186 H 579.635 3.57663 -1.51689 0
M  V30 6187 H 581.307 2.48419 -3.88698 0
M  V30 6188 H 579.55 2.27731 -3.69217 0
M  V30 6189 H 580.221 3.89651 -3.90994 0
M  V30 6190 H 582.697 3.64939 -1.99897 0
M  V30 6191 H 581.573 5.01168 -2.23879 0
M  V30 6192 H 581.834 4.37705 -0.621816 0
M  V30 6193 N 580.893 1.08022 1.14757 0
M  V30 6194 C 581.841 0.701088 2.21783 0
M  V30 6195 C 582.835 -0.291311 1.66876 0
M  V30 6196 O 584.041 -0.154296 1.79337 0
M  V30 6197 H 580.416 0.208668 0.722469 0
M  V30 6198 H 582.387 1.61321 2.51034 0
M  V30 6199 C 581.136 0.122278 3.47485 0
M  V30 6200 H 580.459 0.877065 3.90061 0
M  V30 6201 H 581.899 -0.105248 4.23869 0
M  V30 6202 C 580.358 -1.13883 3.17068 0
M  V30 6203 O 580.888 -2.22429 3.34497 0
M  V30 6204 N 579.094 -1.04767 2.71058 0
M  V30 6205 H 578.641 -0.164302 2.57075 0
M  V30 6206 H 578.599 -1.89224 2.51081 0
M  V30 6207 N 582.371 -1.3172 0.865308 0
M  V30 6208 C 583.782 -1.79104 0.527126 0
M  V30 6209 C 584.133 -1.7135 -0.955695 0
M  V30 6210 O 583.258 -1.27845 -1.74598 0
M  V30 6211 C 583.853 -3.25207 0.950061 0
M  V30 6212 C 582.412 -3.70504 0.663611 0
M  V30 6213 C 581.559 -2.52605 1.14395 0
M  V30 6214 H 584.51 -1.18868 1.05148 0
M  V30 6215 H 584.531 -3.79535 0.270805 0
M  V30 6216 H 584.043 -3.30818 2.02931 0
M  V30 6217 H 582.144 -3.70398 -0.404474 0
M  V30 6218 H 582.257 -4.62845 1.23737 0
M  V30 6219 H 580.621 -2.4838 0.563859 0
M  V30 6220 H 581.404 -2.60964 2.23053 0
M  V30 6221 N 583.85 -0.624285 -1.44708 0
M  V30 6222 C 584.782 0.12305 -2.28869 0
M  V30 6223 C 585.795 0.81557 -1.40898 0
M  V30 6224 O 586.984 0.678162 -1.65116 0
M  V30 6225 C 584.084 1.19612 -3.1709 0
M  V30 6226 C 583.257 0.587452 -4.33437 0
M  V30 6227 C 582.316 1.55358 -5.02743 0
M  V30 6228 O 581.341 1.07338 -5.58988 0
M  V30 6229 N 582.543 2.88798 -5.03563 0
M  V30 6230 H 585.308 -0.599193 -2.93649 0
M  V30 6231 H 582.87 -0.464954 -1.5508 0
M  V30 6232 H 584.861 1.84261 -3.60319 0
M  V30 6233 H 583.432 1.82067 -2.54107 0
M  V30 6234 H 582.652 -0.237509 -3.93484 0
M  V30 6235 H 583.94 0.161326 -5.08544 0
M  V30 6236 H 583.338 3.30399 -4.59188 0
M  V30 6237 H 581.894 3.48826 -5.50603 0
M  V30 6238 N 585.328 1.53329 -0.364422 0
M  V30 6239 C 586.575 2.01239 0.225634 0
M  V30 6240 C 586.903 1.25172 1.48869 0
M  V30 6241 O 586.158 0.333289 1.92841 0
M  V30 6242 C 586.457 3.52911 0.564661 0
M  V30 6243 C 586.123 4.46837 -0.603936 0
M  V30 6244 C 584.785 4.72234 -0.924585 0
M  V30 6245 C 587.137 5.02409 -1.38691 0
M  V30 6246 C 584.465 5.50454 -2.0302 0
M  V30 6247 C 586.817 5.81836 -2.48293 0
M  V30 6248 C 585.481 6.0552 -2.80894 0
M  V30 6249 H 584.751 0.736386 0.0825654 0
M  V30 6250 H 587.398 1.84948 -0.496645 0
M  V30 6251 H 585.703 3.67144 1.36794 0
M  V30 6252 H 587.4 3.87455 1.03344 0
M  V30 6253 H 583.99 4.27217 -0.343983 0
M  V30 6254 H 588.174 4.82735 -1.15243 0
M  V30 6255 H 583.43 5.67024 -2.28678 0
M  V30 6256 H 587.604 6.23905 -3.0938 0
M  V30 6257 H 585.231 6.65916 -3.66688 0
M  V30 6258 N 586.806 0.0935595 1.57322 0
M  V30 6259 C 587.753 -0.865935 2.1394 0
M  V30 6260 C 588.723 -1.28083 1.05754 0
M  V30 6261 O 589.908 -1.36285 1.33533 0
M  V30 6262 C 587.048 -2.12023 2.72287 0
M  V30 6263 C 586.161 -1.756 3.94701 0
M  V30 6264 C 585.296 -2.95804 4.41218 0
M  V30 6265 C 584.335 -2.555 5.56225 0
M  V30 6266 N 583.472 -3.68534 5.97601 0
M  V30 6267 H 588.312 -0.376261 2.95615 0
M  V30 6268 H 585.849 -0.174052 1.46067 0
M  V30 6269 H 587.807 -2.85477 3.04235 0
M  V30 6270 H 586.437 -2.58492 1.93343 0
M  V30 6271 H 585.489 -0.921208 3.69077 0
M  V30 6272 H 586.801 -1.41964 4.78171 0
M  V30 6273 H 585.955 -3.77513 4.74941 0
M  V30 6274 H 584.694 -3.32649 3.56645 0
M  V30 6275 H 583.699 -1.72218 5.22131 0
M  V30 6276 H 584.924 -2.19801 6.42545 0
M  V30 6277 H 582.87 -4.051 5.15974 0
M  V30 6278 H 582.787 -3.38737 6.75865 0
M  V30 6279 H 584.055 -4.50757 6.35955 0
M  V30 6280 N 588.284 -1.56567 -0.180126 0
M  V30 6281 C 589.533 -1.80685 -0.896426 0
M  V30 6282 C 589.846 -0.669335 -1.83791 0
M  V30 6283 O 591.052 -0.795209 -2.59593 0
M  V30 6284 C 589.508 -3.20132 -1.6445 0
M  V30 6285 C 589.116 -4.41727 -0.747088 0
M  V30 6286 C 590.86 -3.53549 -2.34955 0
M  V30 6287 C 588.767 -5.72195 -1.49489 0
M  V30 6288 H 587.697 -0.673758 -0.338477 0
M  V30 6289 H 590.348 -1.8289 -0.149467 0
M  V30 6290 H 588.73 -3.12218 -2.43589 0
M  V30 6291 H 589.904 -4.608 0.00671129 0
M  V30 6292 H 588.219 -4.16122 -0.152134 0
M  V30 6293 H 590.816 -4.48267 -2.91481 0
M  V30 6294 H 591.159 -2.78006 -3.09868 0
M  V30 6295 H 591.692 -3.62976 -1.62768 0
M  V30 6296 H 588.431 -6.50743 -0.788251 0
M  V30 6297 H 587.951 -5.57115 -2.22224 0
M  V30 6298 H 589.63 -6.1384 -2.04472 0
M  V30 6299 N 589.762 0.448376 -1.51087 0
M  V30 6300 C 591.178 0.783984 -1.39017 0
M  V30 6301 C 591.378 1.96087 -0.463904 0
M  V30 6302 O 590.434 2.52357 0.0850534 0
M  V30 6303 C 591.747 1.07471 -2.80839 0
M  V30 6304 C 593.295 1.17981 -2.89913 0
M  V30 6305 C 593.77 1.50354 -4.32617 0
M  V30 6306 N 595.261 1.57301 -4.35673 0
M  V30 6307 C 595.996 1.839 -5.4311 0
M  V30 6308 N 595.492 2.08365 -6.60724 0
M  V30 6309 N 597.285 1.8559 -5.30578 0
M  V30 6310 H 589.436 -0.326881 -2.0987 0
M  V30 6311 H 591.699 -0.0838006 -0.944289 0
M  V30 6312 H 591.405 0.282768 -3.50561 0
M  V30 6313 H 591.279 2.00519 -3.19487 0
M  V30 6314 H 593.666 1.9624 -2.20395 0
M  V30 6315 H 593.747 0.228603 -2.54776 0
M  V30 6316 H 593.391 0.726273 -5.0268 0
M  V30 6317 H 593.321 2.46663 -4.65258 0
M  V30 6318 H 595.812 1.40342 -3.50874 0
M  V30 6319 H 596.125 2.27999 -7.38401 0
M  V30 6320 H 594.47 2.0571 -6.63859 0
M  V30 6321 H 597.661 1.65989 -4.37682 0
M  V30 6322 H 597.834 2.05983 -6.1439 0
M  V30 6323 N 591.24 1.41047 0.703093 0
M  V30 6324 C 592.17 1.45067 1.82969 0
M  V30 6325 C 593.151 0.31016 1.67248 0
M  V30 6326 O 594.336 0.520548 1.87093 0
M  V30 6327 C 591.466 1.32478 3.2104 0
M  V30 6328 C 590.42 2.44262 3.51454 0
M  V30 6329 C 589.746 2.16742 4.88801 0
M  V30 6330 C 591.046 3.86606 3.51189 0
M  V30 6331 H 592.74 2.39353 1.79863 0
M  V30 6332 H 590.286 1.15206 0.863919 0
M  V30 6333 H 592.239 1.33904 3.99559 0
M  V30 6334 H 590.963 0.346735 3.24754 0
M  V30 6335 H 589.622 2.42107 2.75282 0
M  V30 6336 H 589.27 1.17299 4.89132 0
M  V30 6337 H 588.97 2.91643 5.10116 0
M  V30 6338 H 590.494 2.19872 5.69639 0
M  V30 6339 H 591.908 3.90517 4.19725 0
M  V30 6340 H 590.305 4.61128 3.84033 0
M  V30 6341 H 591.375 4.15296 2.50315 0
M  V30 6342 N 592.718 -0.936591 1.26751 0
M  V30 6343 C 593.995 -1.66094 1.03306 0
M  V30 6344 C 594.375 -2.06568 -0.435058 0
M  V30 6345 O 593.723 -1.79305 -1.41641 0
M  V30 6346 C 593.933 -2.86969 1.98619 0
M  V30 6347 C 595.281 -3.58516 2.27489 0
M  V30 6348 O 596.305 -2.97082 1.96522 0
M  V30 6349 O 595.164 -4.69181 2.80235 0
M  V30 6350 H 592.258 -0.727568 0.393158 0
M  V30 6351 H 594.804 -0.987914 1.3798 0
M  V30 6352 H 593.576 -2.53985 2.9767 0
M  V30 6353 H 593.199 -3.61996 1.64454 0
M  V30 6354 N 594.196 -1.08629 -1.14182 0
M  V30 6355 C 595.106 -0.730126 -2.22949 0
M  V30 6356 C 596.122 0.26436 -1.7198 0
M  V30 6357 O 597.298 0.107742 -2.01112 0
M  V30 6358 C 594.363 -0.147227 -3.46387 0
M  V30 6359 C 593.424 -1.19662 -4.12286 0
M  V30 6360 C 592.657 -0.641437 -5.29831 0
M  V30 6361 O 592.88 0.538351 -5.67854 0
M  V30 6362 O 591.814 -1.39257 -5.85569 0
M  V30 6363 H 595.64 -1.63753 -2.55771 0
M  V30 6364 H 593.225 -0.860118 -1.22157 0
M  V30 6365 H 595.107 0.174923 -4.21037 0
M  V30 6366 H 593.782 0.733304 -3.15285 0
M  V30 6367 H 592.689 -1.57133 -3.395 0
M  V30 6368 H 594.022 -2.0495 -4.475 0
M  V30 6369 N 595.674 1.31259 -0.872281 0
M  V30 6370 C 596.902 2.00795 -0.498907 0
M  V30 6371 C 597.317 1.65464 0.909238 0
M  V30 6372 O 596.674 0.885073 1.59602 0
M  V30 6373 C 596.725 3.55625 -0.649092 0
M  V30 6374 O 596.446 3.89692 -2.00179 0
M  V30 6375 C 597.947 4.42434 -0.277034 0
M  V30 6376 H 595.167 0.642299 -0.194145 0
M  V30 6377 H 597.711 1.67438 -1.17408 0
M  V30 6378 H 595.866 3.87394 -0.0214402 0
M  V30 6379 H 596.28 4.84407 -2.01122 0
M  V30 6380 H 597.754 5.50299 -0.433064 0
M  V30 6381 H 598.231 4.32146 0.783989 0
M  V30 6382 H 598.837 4.16086 -0.880483 0
M  V30 6383 N 597.152 0.631951 1.44375 0
M  V30 6384 C 598.429 0.067646 1.95483 0
M  V30 6385 C 598.809 -1.40683 1.57389 0
M  V30 6386 O 598.157 -2.12167 0.848375 0
M  V30 6387 C 598.367 0.291392 3.47781 0
M  V30 6388 C 599.715 0.185028 4.24197 0
M  V30 6389 O 600.739 0.222803 3.55503 0
M  V30 6390 O 599.598 0.0906642 5.46425 0
M  V30 6391 H 596.692 -0.0218379 0.826712 0
M  V30 6392 H 599.238 0.703711 1.54421 0
M  V30 6393 H 598.01 1.31449 3.68561 0
M  V30 6394 H 597.633 -0.378772 3.95792 0
M  V30 6395 N 598.631 -1.53133 0.372548 0
M  V30 6396 C 599.908 -1.93704 -0.271693 0
M  V30 6397 C 600.288 -1.30667 -1.65799 0
M  V30 6398 O 599.636 -0.46838 -2.23648 0
M  V30 6399 C 599.846 -3.47576 -0.314903 0
M  V30 6400 C 601.194 -4.20998 -0.551912 0
M  V30 6401 O 602.218 -3.53994 -0.39582 0
M  V30 6402 O 601.077 -5.39748 -0.85639 0
M  V30 6403 H 598.171 -0.810457 -0.164586 0
M  V30 6404 H 600.717 -1.6427 0.425838 0
M  V30 6405 H 599.489 -3.85749 0.656792 0
M  V30 6406 H 599.112 -3.83264 -1.05804 0
M  V30 6407 N 600.109 -0.101901 -1.5727 0
M  V30 6408 C 601.52 0.426173 -1.81771 0
M  V30 6409 C 601.871 1.67725 -1.01797 0
M  V30 6410 O 600.996 2.14958 -0.249386 0
M  V30 6411 C 601.591 0.779962 -3.297 0
M  V30 6412 C 600.15 1.25275 -3.54941 0
M  V30 6413 C 599.297 0.252814 -2.76145 0
M  V30 6414 H 602.248 -0.32726 -1.55289 0
M  V30 6415 H 602.269 1.63891 -3.43395 0
M  V30 6416 H 601.781 -0.130778 -3.8788 0
M  V30 6417 H 599.882 2.18097 -3.021 0
M  V30 6418 H 599.995 1.20988 -4.63572 0
M  V30 6419 H 598.359 0.736362 -2.43823 0
M  V30 6420 H 599.142 -0.650724 -3.37076 0
M  V30 6421 N 601.587 1.56661 0.17182 0
M  V30 6422 C 602.864 1.72838 0.915778 0
M  V30 6423 C 603.244 0.66316 2.00413 0
M  V30 6424 O 602.592 -0.322123 2.26218 0
M  V30 6425 C 602.802 3.16019 1.48097 0
M  V30 6426 C 604.15 3.76962 1.95408 0
M  V30 6427 O 605.174 3.19294 1.57892 0
M  V30 6428 O 604.033 4.78219 2.64516 0
M  V30 6429 H 601.127 0.705797 0.431021 0
M  V30 6430 H 603.673 1.68947 0.159689 0
M  V30 6431 H 602.445 3.85031 0.697618 0
M  V30 6432 H 602.068 3.24234 2.30126 0
M  V30 6433 N 603.065 -0.440357 1.51323 0
M  V30 6434 C 604.342 -1.20109 1.5438 0
M  V30 6435 C 604.722 -2.08866 0.306303 0
M  V30 6436 O 604.07 -2.1723 -0.708773 0
M  V30 6437 C 604.28 -2.00555 2.8562 0
M  V30 6438 C 605.628 -2.577 3.37455 0
M  V30 6439 O 606.652 -2.10769 2.8715 0
M  V30 6440 O 605.511 -3.43289 4.25224 0
M  V30 6441 H 602.605 -0.546668 0.620551 0
M  V30 6442 H 605.151 -0.449672 1.63634 0
M  V30 6443 H 603.923 -1.35346 3.67147 0
M  V30 6444 H 603.546 -2.82768 2.79514 0
M  V30 6445 N 604.543 -1.41418 -0.695603 0
M  V30 6446 C 605.773 -1.43921 -1.48224 0
M  V30 6447 C 606.181 -0.0428855 -1.89151 0
M  V30 6448 O 605.524 0.948138 -1.5734 0
M  V30 6449 C 605.586 -2.28466 -2.77567 0
M  V30 6450 C 605.25 -3.76629 -2.58844 0
M  V30 6451 C 606.247 -4.6879 -2.24793 0
M  V30 6452 C 603.932 -4.2067 -2.74485 0
M  V30 6453 C 605.926 -6.02981 -2.06622 0
M  V30 6454 C 603.613 -5.54926 -2.55931 0
M  V30 6455 C 604.611 -6.45897 -2.2205 0
M  V30 6456 O 604.299 -7.77675 -2.03657 0
M  V30 6457 H 604.031 -0.492252 -0.463318 0
M  V30 6458 H 606.585 -1.86347 -0.863952 0
M  V30 6459 H 604.815 -1.80853 -3.41802 0
M  V30 6460 H 606.504 -2.2267 -3.39371 0
M  V30 6461 H 607.27 -4.36055 -2.12323 0
M  V30 6462 H 603.149 -3.50167 -2.9984 0
M  V30 6463 H 606.693 -6.73951 -1.80099 0
M  V30 6464 H 602.59 -5.8724 -2.67991 0
M  V30 6465 H 603.358 -7.88819 -2.1842 0
M  V30 6466 N 606.021 0.929856 -1.27246 0
M  V30 6467 C 607.269 1.674 -1.13233 0
M  V30 6468 C 607.59 1.92311 0.322744 0
M  V30 6469 O 606.86 1.52784 1.22612 0
M  V30 6470 H 605.44 0.620411 -0.416052 0
M  V30 6471 H 608.102 1.11663 -1.59741 0
M  V30 6472 H 607.198 2.64308 -1.65975 0
M  V30 6473 N 607.499 1.09233 1.13605 0
M  V30 6474 C 608.776 0.739633 1.81077 0
M  V30 6475 C 609.156 -0.775595 1.96336 0
M  V30 6476 O 608.504 -1.69726 1.52988 0
M  V30 6477 C 608.714 1.47636 3.16235 0
M  V30 6478 C 610.062 1.64087 3.91613 0
M  V30 6479 O 611.086 1.43871 3.25852 0
M  V30 6480 O 609.945 1.97511 5.0956 0
M  V30 6481 H 607.039 0.265464 0.783236 0
M  V30 6482 H 609.585 1.19441 1.20549 0
M  V30 6483 H 608.357 2.50818 3.00344 0
M  V30 6484 H 607.98 1.01362 3.84462 0
M  V30 6485 N 608.977 -1.30795 0.87923 0
M  V30 6486 C 610.393 -1.48981 0.57243 0
M  V30 6487 C 610.593 -1.80719 -0.891236 0
M  V30 6488 O 609.649 -1.89136 -1.67283 0
M  V30 6489 C 610.962 -2.61721 1.48063 0
M  V30 6490 C 612.51 -2.75603 1.48365 0
M  V30 6491 C 612.985 -3.91449 2.37763 0
M  V30 6492 N 614.476 -3.98751 2.35695 0
M  V30 6493 C 615.211 -4.87684 3.01583 0
M  V30 6494 N 614.707 -5.81454 3.76674 0
M  V30 6495 N 616.5 -4.81005 2.90844 0
M  V30 6496 H 608.651 -1.08465 1.82617 0
M  V30 6497 H 610.914 -0.536813 0.781368 0
M  V30 6498 H 610.62 -2.45073 2.52254 0
M  V30 6499 H 610.494 -3.58071 1.18596 0
M  V30 6500 H 612.881 -2.9166 0.44927 0
M  V30 6501 H 612.962 -1.79891 1.81859 0
M  V30 6502 H 612.606 -3.76149 3.41283 0
M  V30 6503 H 612.536 -4.86487 2.01589 0
M  V30 6504 H 615.027 -3.31668 1.81121 0
M  V30 6505 H 615.34 -6.46063 4.24054 0
M  V30 6506 H 613.685 -5.81403 3.80782 0
M  V30 6507 H 616.876 -4.06728 2.31711 0
M  V30 6508 H 617.049 -5.50107 3.42471 0
M  V30 6509 N 610.455 -0.639598 -1.44038 0
M  V30 6510 C 611.365 0.0612377 -2.3452 0
M  V30 6511 C 612.381 0.826717 -1.53106 0
M  V30 6512 O 613.557 0.777059 -1.85806 0
M  V30 6513 C 610.622 1.02492 -3.31204 0
M  V30 6514 C 609.683 0.25788 -4.28525 0
M  V30 6515 C 608.916 1.17566 -5.2059 0
M  V30 6516 O 609.139 2.41461 -5.16771 0
M  V30 6517 O 608.073 0.655407 -5.98321 0
M  V30 6518 H 611.899 -0.68318 -2.95916 0
M  V30 6519 H 609.484 -0.399784 -1.43952 0
M  V30 6520 H 611.366 1.57911 -3.90694 0
M  V30 6521 H 610.041 1.7498 -2.7233 0
M  V30 6522 H 608.948 -0.339566 -3.72556 0
M  V30 6523 H 610.281 -0.427154 -4.90343 0
M  V30 6524 N 611.933 1.52934 -0.380664 0
M  V30 6525 C 613.158 2.06363 0.207157 0
M  V30 6526 C 613.583 1.25122 1.4045 0
M  V30 6527 O 612.941 0.274062 1.79217 0
M  V30 6528 C 612.989 3.56162 0.563996 0
M  V30 6529 O 612.093 3.77552 1.65917 0
M  V30 6530 H 611.434 0.663468 0.0265859 0
M  V30 6531 H 613.964 1.9719 -0.545635 0
M  V30 6532 H 613.974 3.99453 0.830752 0
M  V30 6533 H 612.649 4.14732 -0.311427 0
M  V30 6534 H 611.226 3.46154 1.3868 0
M  V30 6535 N 613.412 0.11024 1.57214 0
M  V30 6536 C 614.66 -0.548783 1.94506 0
M  V30 6537 C 614.981 -1.67772 0.99386 0
M  V30 6538 O 614.251 -1.9584 0.0485841 0
M  V30 6539 H 612.831 -0.205715 0.718116 0
M  V30 6540 H 615.493 0.177127 1.94093 0
M  V30 6541 H 614.589 -0.949096 2.97319 0
M  V30 6542 N 614.89 -1.56749 -0.16351 0
M  V30 6543 C 616.13 -1.84234 -0.885271 0
M  V30 6544 C 616.494 -0.692259 -1.79086 0
M  V30 6545 O 617.695 -0.847747 -2.55082 0
M  V30 6546 C 615.966 -3.16857 -1.65337 0
M  V30 6547 S 617.525 -3.65848 -2.42282 0
M  V30 6548 H 614.343 -0.646293 -0.296354 0
M  V30 6549 H 616.945 -1.94951 -0.146365 0
M  V30 6550 H 615.649 -3.98546 -0.979266 0
M  V30 6551 H 615.18 -3.09102 -2.4335 0
M  V30 6552 H 617.195 -3.33796 -3.67143 0
M  V30 6553 N 616.368 0.432326 -1.51554 0
M  V30 6554 C 617.593 1.20824 -1.68571 0
M  V30 6555 C 618.018 1.84126 -0.384596 0
M  V30 6556 O 617.376 1.69025 0.655751 0
M  V30 6557 C 617.424 2.26429 -2.80646 0
M  V30 6558 O 616.528 3.32032 -2.44598 0
M  V30 6559 H 615.869 0.353765 -0.561913 0
M  V30 6560 H 618.399 0.509916 -1.98144 0
M  V30 6561 H 618.409 2.71133 -3.04878 0
M  V30 6562 H 617.084 1.79733 -3.75058 0
M  V30 6563 H 615.661 2.92769 -2.30956 0
M  V30 6564 N 617.846 1.41785 0.688094 0
M  V30 6565 C 619.093 1.41544 1.44816 0
M  V30 6566 C 619.421 0.0271746 1.94481 0
M  V30 6567 O 618.676 -0.962235 1.7041 0
M  V30 6568 C 618.975 2.37532 2.67046 0
M  V30 6569 C 618.641 3.84209 2.35996 0
M  V30 6570 C 617.303 4.24165 2.27239 0
M  V30 6571 C 619.655 4.76785 2.10536 0
M  V30 6572 C 616.983 5.54695 1.91128 0
M  V30 6573 C 619.335 6.07644 1.75931 0
M  V30 6574 C 617.999 6.46613 1.65675 0
M  V30 6575 H 617.269 0.517945 0.529919 0
M  V30 6576 H 619.916 1.74635 0.785797 0
M  V30 6577 H 618.221 1.9772 3.38251 0
M  V30 6578 H 619.918 2.34615 3.25203 0
M  V30 6579 H 616.508 3.52567 2.4371 0
M  V30 6580 H 620.692 4.46714 2.16242 0
M  V30 6581 H 615.948 5.83762 1.81746 0
M  V30 6582 H 620.122 6.78874 1.55252 0
M  V30 6583 H 617.749 7.47668 1.37463 0
M  V30 6584 N 619.324 -0.923095 1.27737 0
M  V30 6585 C 620.57 -1.67375 1.14514 0
M  V30 6586 C 620.903 -1.91751 -0.307424 0
M  V30 6587 O 620.178 -1.51119 -1.22447 0
M  V30 6588 C 620.461 -3.03745 1.9342 0
M  V30 6589 C 620.314 -2.86581 3.46686 0
M  V30 6590 C 621.633 -4.04144 1.74228 0
M  V30 6591 H 618.752 -0.607427 0.417374 0
M  V30 6592 H 621.394 -1.07089 1.56946 0
M  V30 6593 H 619.544 -3.55204 1.5736 0
M  V30 6594 H 621.216 -2.42203 3.92601 0
M  V30 6595 H 619.459 -2.21829 3.72793 0
M  V30 6596 H 620.13 -3.83381 3.97143 0
M  V30 6597 H 622.606 -3.61712 2.05678 0
M  V30 6598 H 621.482 -4.97543 2.31824 0
M  V30 6599 H 621.743 -4.36661 0.691373 0
M  V30 6600 N 620.802 -1.09834 -1.13024 0
M  V30 6601 C 621.732 -0.763451 -2.20666 0
M  V30 6602 C 622.713 0.260778 -1.68089 0
M  V30 6603 O 623.898 0.127915 -1.93778 0
M  V30 6604 C 621.028 -0.187744 -3.46792 0
M  V30 6605 C 619.982 -1.14196 -4.12484 0
M  V30 6606 C 619.308 -0.427755 -5.32986 0
M  V30 6607 C 620.608 -2.48607 -4.59338 0
M  V30 6608 H 622.302 -1.66347 -2.48936 0
M  V30 6609 H 619.848 -0.801261 -1.19649 0
M  V30 6610 H 621.801 0.0586375 -4.21359 0
M  V30 6611 H 620.525 0.747485 -3.17931 0
M  V30 6612 H 619.184 -1.37369 -3.3989 0
M  V30 6613 H 618.832 0.511747 -5.0039 0
M  V30 6614 H 618.532 -1.06403 -5.77886 0
M  V30 6615 H 620.056 -0.189772 -6.10305 0
M  V30 6616 H 621.47 -2.29618 -5.25308 0
M  V30 6617 H 619.867 -3.08062 -5.14993 0
M  V30 6618 H 620.937 -3.09062 -3.73642 0
M  V30 6619 N 622.28 1.30327 -0.886154 0
M  V30 6620 C 623.243 2.26376 -0.358687 0
M  V30 6621 C 624.243 1.52845 0.499498 0
M  V30 6622 O 625.433 1.71483 0.306485 0
M  V30 6623 C 622.565 3.37379 0.488726 0
M  V30 6624 H 623.758 2.74547 -1.20681 0
M  V30 6625 H 621.311 1.41536 -0.663113 0
M  V30 6626 H 622.046 2.94526 1.35739 0
M  V30 6627 H 621.831 3.91897 -0.126003 0
M  V30 6628 H 623.321 4.08868 0.84952 0
M  V30 6629 N 623.758 0.647228 1.43697 0
M  V30 6630 C 624.688 -0.0345631 2.33474 0
M  V30 6631 C 625.669 -0.818193 1.4913 0
M  V30 6632 O 626.854 -0.780867 1.77809 0
M  V30 6633 C 623.984 -1.00576 3.32418 0
M  V30 6634 C 622.938 -0.33266 4.26705 0
M  V30 6635 C 622.264 -1.41489 5.1564 0
M  V30 6636 C 623.564 0.771204 5.16575 0
M  V30 6637 H 625.258 0.715163 2.90733 0
M  V30 6638 H 622.804 0.345364 1.39797 0
M  V30 6639 H 624.757 -1.49159 3.94119 0
M  V30 6640 H 623.481 -1.78657 2.73403 0
M  V30 6641 H 622.14 0.13267 3.6636 0
M  V30 6642 H 621.788 -2.18698 4.52968 0
M  V30 6643 H 621.488 -0.969799 5.79542 0
M  V30 6644 H 623.012 -1.9022 5.80214 0
M  V30 6645 H 624.426 0.36779 5.72119 0
M  V30 6646 H 622.823 1.1404 5.89165 0
M  V30 6647 H 623.893 1.63169 4.56622 0
M  V30 6648 N 625.236 -1.5273 0.388769 0
M  V30 6649 C 626.169 -2.22861 -0.490752 0
M  V30 6650 C 627.147 -1.22912 -1.06449 0
M  V30 6651 O 628.331 -1.51896 -1.11624 0
M  V30 6652 C 625.458 -2.94141 -1.67925 0
M  V30 6653 C 624.504 -4.08355 -1.23081 0
M  V30 6654 S 625.337 -5.35077 -0.212786 0
M  V30 6655 C 626.493 -6.09879 -1.40708 0
M  V30 6656 H 626.726 -2.97115 0.104787 0
M  V30 6657 H 624.259 -1.53428 0.172956 0
M  V30 6658 H 626.217 -3.35818 -2.36085 0
M  V30 6659 H 624.878 -2.19568 -2.24608 0
M  V30 6660 H 624.071 -4.57328 -2.11818 0
M  V30 6661 H 623.673 -3.68688 -0.628121 0
M  V30 6662 H 625.965 -6.36018 -2.33424 0
M  V30 6663 H 626.908 -7.01586 -0.958271 0
M  V30 6664 H 627.316 -5.40646 -1.62364 0
M  V30 6665 N 626.714 -0.118576 -1.57153 0
M  V30 6666 C 627.646 0.862247 -2.12363 0
M  V30 6667 C 628.659 1.23025 -1.06625 0
M  V30 6668 O 629.848 1.17927 -1.33998 0
M  V30 6669 C 626.948 2.16425 -2.60794 0
M  V30 6670 C 626.121 1.96801 -3.90626 0
M  V30 6671 C 625.18 3.10726 -4.2466 0
M  V30 6672 O 624.206 2.83659 -4.93484 0
M  V30 6673 N 625.408 4.37147 -3.81946 0
M  V30 6674 H 628.173 0.390564 -2.97144 0
M  V30 6675 H 625.734 0.0658591 -1.61766 0
M  V30 6676 H 627.726 2.91633 -2.80593 0
M  V30 6677 H 626.296 2.54943 -1.80895 0
M  V30 6678 H 625.516 1.05787 -3.7974 0
M  V30 6679 H 626.804 1.80993 -4.7552 0
M  V30 6680 H 626.202 4.62014 -3.26435 0
M  V30 6681 H 624.759 5.09229 -4.06853 0
M  V30 6682 N 628.193 1.56834 0.155195 0
M  V30 6683 C 629.14 1.97646 1.19184 0
M  V30 6684 C 630.11 0.842788 1.4313 0
M  V30 6685 O 631.295 1.1042 1.55602 0
M  V30 6686 C 628.435 2.35527 2.52232 0
M  V30 6687 C 627.548 3.62147 2.35529 0
M  V30 6688 C 626.683 3.89167 3.61555 0
M  V30 6689 C 625.722 5.09084 3.39853 0
M  V30 6690 N 624.859 5.32156 4.5799 0
M  V30 6691 H 629.699 2.8601 0.836802 0
M  V30 6692 H 627.236 1.41507 0.401758 0
M  V30 6693 H 629.194 2.55516 3.29799 0
M  V30 6694 H 627.824 1.50253 2.85699 0
M  V30 6695 H 626.876 3.4998 1.49057 0
M  V30 6696 H 628.188 4.49871 2.15448 0
M  V30 6697 H 627.342 4.09611 4.47553 0
M  V30 6698 H 626.081 2.9985 3.84632 0
M  V30 6699 H 625.086 4.88522 2.52243 0
M  V30 6700 H 626.311 5.99947 3.18183 0
M  V30 6701 H 624.257 4.45791 4.81255 0
M  V30 6702 H 624.174 6.14133 4.40882 0
M  V30 6703 H 625.442 5.57091 5.45225 0
M  V30 6704 N 629.671 -0.424282 1.51781 0
M  V30 6705 C 630.621 -1.51464 1.70419 0
M  V30 6706 C 631.605 -1.50911 0.558094 0
M  V30 6707 O 632.797 -1.57143 0.814552 0
M  V30 6708 C 629.926 -2.89539 1.84451 0
M  V30 6709 C 629.012 -2.94798 3.04886 0
M  V30 6710 N 629.403 -2.69778 4.27848 0
M  V30 6711 C 627.701 -3.25962 3.04408 0
M  V30 6712 C 628.402 -2.81216 5.09208 0
M  V30 6713 N 627.378 -3.13447 4.44131 0
M  V30 6714 H 631.18 -1.30892 2.63144 0
M  V30 6715 H 628.694 -0.631783 1.49607 0
M  V30 6716 H 630.691 -3.67998 1.95917 0
M  V30 6717 H 629.351 -3.11121 0.929168 0
M  V30 6718 H 630.362 -2.44458 4.56575 0
M  V30 6719 H 627.039 -3.53236 2.22555 0
M  V30 6720 H 628.429 -2.65715 6.17127 0
M  V30 6721 N 631.149 -1.42148 -0.680565 0
M  V30 6722 C 632.565 -1.24947 -0.992995 0
M  V30 6723 C 632.765 -0.149527 -2.00944 0
M  V30 6724 O 631.821 0.481145 -2.47873 0
M  V30 6725 C 633.134 -2.60426 -1.5033 0
M  V30 6726 C 634.682 -2.67733 -1.62137 0
M  V30 6727 C 635.157 -4.03564 -2.16565 0
M  V30 6728 N 636.648 -4.05488 -2.23905 0
M  V30 6729 C 637.383 -5.07401 -2.67081 0
M  V30 6730 N 636.879 -6.19698 -3.09751 0
M  V30 6731 N 638.672 -4.94758 -2.66778 0
M  V30 6732 H 630.823 -2.12399 -0.0074788 0
M  V30 6733 H 633.086 -0.94571 -0.0658529 0
M  V30 6734 H 632.792 -3.41743 -0.830947 0
M  V30 6735 H 632.666 -2.83949 -2.483 0
M  V30 6736 H 635.053 -1.86765 -2.2848 0
M  V30 6737 H 635.134 -2.48004 -0.626713 0
M  V30 6738 H 634.778 -4.84987 -1.50833 0
M  V30 6739 H 634.708 -4.20641 -3.1681 0
M  V30 6740 H 637.199 -3.24415 -1.93812 0
M  V30 6741 H 637.512 -6.93318 -3.41365 0
M  V30 6742 H 635.857 -6.23212 -3.07623 0
M  V30 6743 H 639.048 -4.06105 -2.32801 0
M  V30 6744 H 639.221 -5.74317 -3.00107 0
M  V30 6745 N 632.627 0.916307 -1.28225 0
M  V30 6746 C 634.043 1.19425 -1.05876 0
M  V30 6747 C 634.243 2.005 0.2005 0
M  V30 6748 O 633.299 2.35806 0.902873 0
M  V30 6749 C 634.612 1.93133 -2.30478 0
M  V30 6750 C 636.16 2.06026 -2.35632 0
M  V30 6751 C 636.635 2.83141 -3.59994 0
M  V30 6752 N 638.126 2.90704 -3.60618 0
M  V30 6753 C 638.861 3.50865 -4.53521 0
M  V30 6754 N 638.357 4.12327 -5.56739 0
M  V30 6755 N 640.15 3.48379 -4.41122 0
M  V30 6756 H 632.301 0.37496 -2.09064 0
M  V30 6757 H 634.564 0.228531 -0.920042 0
M  V30 6758 H 634.27 1.40985 -3.22205 0
M  V30 6759 H 634.144 2.93696 -2.36691 0
M  V30 6760 H 636.531 2.57355 -1.44404 0
M  V30 6761 H 636.612 1.04647 -2.33415 0
M  V30 6762 H 636.256 2.32492 -4.51564 0
M  V30 6763 H 636.186 3.84829 -3.59464 0
M  V30 6764 H 638.677 2.47034 -2.85977 0
M  V30 6765 H 638.99 4.56205 -6.23776 0
M  V30 6766 H 637.335 4.10839 -5.60568 0
M  V30 6767 H 640.526 2.99572 -3.59686 0
M  V30 6768 H 640.699 3.94974 -5.13712 0
M  V30 6769 N 634.105 1.10431 1.1244 0
M  V30 6770 C 635.521 0.836096 1.35947 0
M  V30 6771 C 635.721 -0.544475 1.94004 0
M  V30 6772 O 634.777 -1.29735 2.16622 0
M  V30 6773 C 636.09 1.93575 2.30107 0
M  V30 6774 C 637.638 1.9642 2.43697 0
M  V30 6775 C 638.113 3.05559 3.41171 0
M  V30 6776 N 639.604 3.04865 3.48728 0
M  V30 6777 C 640.339 3.85954 4.24061 0
M  V30 6778 N 639.835 4.76977 5.02458 0
M  V30 6779 N 641.628 3.74172 4.19466 0
M  V30 6780 H 633.779 1.9942 0.731124 0
M  V30 6781 H 636.042 0.866607 0.384312 0
M  V30 6782 H 635.748 2.92943 1.94621 0
M  V30 6783 H 635.622 1.8229 3.30227 0
M  V30 6784 H 638.009 0.97685 2.78463 0
M  V30 6785 H 638.09 2.11782 1.43465 0
M  V30 6786 H 637.734 4.04513 3.07135 0
M  V30 6787 H 637.664 2.87438 4.41234 0
M  V30 6788 H 640.155 2.38908 2.92799 0
M  V30 6789 H 640.468 5.35409 5.57277 0
M  V30 6790 H 638.813 4.81006 5.01655 0
M  V30 6791 H 642.004 3.02412 3.57302 0
M  V30 6792 H 642.177 4.37602 4.77921 0
M  V30 6793 N 635.583 -1.29855 0.893053 0
M  V30 6794 C 636.493 -2.31661 0.370157 0
M  V30 6795 C 637.509 -1.65677 -0.531723 0
M  V30 6796 O 638.685 -1.9691 -0.422902 0
M  V30 6797 C 635.75 -3.44388 -0.399741 0
M  V30 6798 C 634.811 -4.2598 0.532861 0
M  V30 6799 C 634.044 -5.33324 -0.200388 0
M  V30 6800 O 634.267 -5.52305 -1.42531 0
M  V30 6801 O 633.201 -6.00188 0.453668 0
M  V30 6802 H 637.027 -2.78354 1.2146 0
M  V30 6803 H 634.612 -1.34171 0.657153 0
M  V30 6804 H 636.494 -4.13037 -0.835358 0
M  V30 6805 H 635.169 -2.99815 -1.22035 0
M  V30 6806 H 634.076 -3.59998 1.01746 0
M  V30 6807 H 635.409 -4.74178 1.3197 0
M  V30 6808 N 637.061 -0.65484 -1.43351 0
M  V30 6809 C 638.477 -0.32255 -1.56307 0
M  V30 6810 C 638.677 1.17324 -1.63821 0
M  V30 6811 O 637.733 1.95813 -1.59417 0
M  V30 6812 C 639.046 -1.03533 -2.82314 0
M  V30 6813 C 640.594 -1.01574 -2.9606 0
M  V30 6814 C 641.069 -1.70945 -4.24902 0
M  V30 6815 N 642.56 -1.67716 -4.3177 0
M  V30 6816 C 643.295 -2.18265 -5.30234 0
M  V30 6817 N 642.791 -2.7711 -6.34966 0
M  V30 6818 N 644.584 -2.08756 -5.21898 0
M  V30 6819 H 636.735 -1.62549 -1.36717 0
M  V30 6820 H 638.998 -0.683676 -0.656727 0
M  V30 6821 H 638.704 -2.09045 -2.8283 0
M  V30 6822 H 638.578 -0.587913 -3.7259 0
M  V30 6823 H 640.965 0.0309834 -2.95084 0
M  V30 6824 H 641.046 -1.50186 -2.07069 0
M  V30 6825 H 640.69 -2.75574 -4.26639 0
M  V30 6826 H 640.62 -1.19797 -5.12793 0
M  V30 6827 H 643.111 -1.24777 -3.56706 0
M  V30 6828 H 643.424 -3.13353 -7.06421 0
M  V30 6829 H 641.769 -2.81171 -6.35585 0
M  V30 6830 H 644.96 -1.62488 -4.38994 0
M  V30 6831 H 645.133 -2.48459 -5.98475 0
M  V30 6832 N 638.539 1.52521 -0.396863 0
M  V30 6833 C 639.955 1.5953 -0.0471659 0
M  V30 6834 C 640.155 1.41044 1.43906 0
M  V30 6835 O 639.211 1.23122 2.20448 0
M  V30 6836 C 640.524 2.95972 -0.531113 0
M  V30 6837 C 642.072 3.09172 -0.488024 0
M  V30 6838 C 642.547 4.48075 -0.948281 0
M  V30 6839 N 644.038 4.54281 -0.9046 0
M  V30 6840 C 644.773 5.60007 -1.23205 0
M  V30 6841 N 644.269 6.73343 -1.63036 0
M  V30 6842 N 646.062 5.50151 -1.15282 0
M  V30 6843 H 638.213 1.62786 -1.36435 0
M  V30 6844 H 640.476 0.76514 -0.559701 0
M  V30 6845 H 640.182 3.14741 -1.56942 0
M  V30 6846 H 640.056 3.77143 0.0657922 0
M  V30 6847 H 642.443 2.90095 0.541211 0
M  V30 6848 H 642.524 2.29937 -1.12083 0
M  V30 6849 H 642.168 4.67894 -1.97578 0
M  V30 6850 H 642.098 5.25788 -0.292412 0
M  V30 6851 H 644.589 3.72918 -0.6116 0
M  V30 6852 H 644.902 7.49992 -1.86365 0
M  V30 6853 H 643.247 6.74655 -1.66929 0
M  V30 6854 H 646.438 4.6049 -0.840602 0
M  V30 6855 H 646.611 6.32444 -1.41133 0
M  V30 6856 N 640.017 0.126909 1.57088 0
M  V30 6857 C 641.264 -0.529168 1.95464 0
M  V30 6858 C 641.592 -1.6618 1.01067 0
M  V30 6859 O 640.847 -1.95667 0.0360254 0
M  V30 6860 C 641.146 -1.095 3.40212 0
M  V30 6861 C 640.812 -0.0829015 4.50824 0
M  V30 6862 C 639.474 0.195377 4.80803 0
M  V30 6863 C 641.826 0.606411 5.1766 0
M  V30 6864 C 639.154 1.16912 5.74933 0
M  V30 6865 C 641.506 1.56884 6.12838 0
M  V30 6866 C 640.17 1.85502 6.41206 0
M  V30 6867 H 639.44 -0.193636 0.715252 0
M  V30 6868 H 642.087 0.209489 1.90351 0
M  V30 6869 H 640.392 -1.91058 3.42059 0
M  V30 6870 H 642.089 -1.61087 3.67222 0
M  V30 6871 H 638.679 -0.309979 4.27478 0
M  V30 6872 H 642.863 0.404597 4.94648 0
M  V30 6873 H 638.119 1.3975 5.95214 0
M  V30 6874 H 642.293 2.10859 6.6371 0
M  V30 6875 H 639.92 2.61109 7.13951 0
M  V30 6876 N 641.495 -1.56914 -0.146875 0
M  V30 6877 C 642.743 -1.82994 -0.85777 0
M  V30 6878 C 643.064 -0.707814 -1.817 0
M  V30 6879 O 642.334 0.270521 -1.94023 0
M  V30 6880 H 640.914 -0.675106 -0.319751 0
M  V30 6881 H 643.576 -1.9439 -0.140849 0
M  V30 6882 H 642.672 -2.77928 -1.41994 0
M  V30 6883 N 642.974 0.416227 -1.52004 0
M  V30 6884 C 644.39 0.754319 -1.40649 0
M  V30 6885 C 644.59 1.95059 -0.505392 0
M  V30 6886 O 643.646 2.5248 0.0315057 0
M  V30 6887 C 644.959 1.0149 -2.83055 0
M  V30 6888 C 646.507 1.11805 -2.9235 0
M  V30 6889 C 646.982 1.41144 -4.35709 0
M  V30 6890 N 648.473 1.48024 -4.38911 0
M  V30 6891 C 649.208 1.72338 -5.46889 0
M  V30 6892 N 648.704 1.94303 -6.64995 0
M  V30 6893 N 650.497 1.74294 -5.34395 0
M  V30 6894 H 642.648 -0.371324 -2.09129 0
M  V30 6895 H 644.911 -0.103811 -0.942299 0
M  V30 6896 H 644.617 0.208345 -3.51082 0
M  V30 6897 H 644.491 1.93697 -3.23668 0
M  V30 6898 H 646.878 1.91521 -2.24508 0
M  V30 6899 H 646.959 0.17451 -2.55204 0
M  V30 6900 H 646.603 0.619484 -5.04108 0
M  V30 6901 H 646.533 2.36739 -4.70385 0
M  V30 6902 H 649.024 1.32868 -3.53772 0
M  V30 6903 H 649.337 2.12286 -7.43071 0
M  V30 6904 H 647.682 1.91582 -6.68073 0
M  V30 6905 H 650.873 1.56667 -4.41104 0
M  V30 6906 H 651.046 1.92904 -6.18621 0
M  V30 6907 N 644.452 1.42507 0.673017 0
M  V30 6908 C 645.729 1.33554 1.42908 0
M  V30 6909 C 646.109 -0.0262211 2.11084 0
M  V30 6910 O 645.457 -1.04181 2.03368 0
M  V30 6911 C 645.667 2.50498 2.43006 0
M  V30 6912 C 647.015 2.92694 3.07596 0
M  V30 6913 O 648.039 2.50401 2.53333 0
M  V30 6914 O 646.898 3.65899 4.05931 0
M  V30 6915 H 643.992 0.526785 0.637516 0
M  V30 6916 H 646.538 1.54518 0.701591 0
M  V30 6917 H 645.31 3.41272 1.9144 0
M  V30 6918 H 644.933 2.3153 3.23233 0
M  V30 6919 N 645.93 -0.909495 1.28709 0
M  V30 6920 C 646.863 -2.01388 1.07323 0
M  V30 6921 C 647.841 -1.62596 -0.0119757 0
M  V30 6922 O 649.025 -1.88003 0.136796 0
M  V30 6923 C 646.152 -3.32755 0.631797 0
M  V30 6924 C 645.198 -3.90532 1.71428 0
M  V30 6925 S 646.031 -4.20853 3.31124 0
M  V30 6926 C 647.187 -5.55276 2.88825 0
M  V30 6927 H 647.42 -2.19219 2.00824 0
M  V30 6928 H 644.953 -1.05489 1.12745 0
M  V30 6929 H 646.911 -4.08702 0.38381 0
M  V30 6930 H 645.572 -3.12818 -0.283451 0
M  V30 6931 H 644.765 -4.85385 1.35712 0
M  V30 6932 H 644.367 -3.21237 1.91528 0
M  V30 6933 H 646.659 -6.35341 2.3526 0
M  V30 6934 H 647.602 -5.95907 3.82492 0
M  V30 6935 H 648.01 -5.16666 2.27412 0
M  V30 6936 N 647.408 -1.11026 -1.11852 0
M  V30 6937 C 648.318 -0.777252 -2.2135 0
M  V30 6938 C 649.334 0.227821 -1.72502 0
M  V30 6939 O 650.51 0.0650587 -2.01295 0
M  V30 6940 C 647.575 -0.220668 -3.45997 0
M  V30 6941 C 646.636 -1.2838 -4.09655 0
M  V30 6942 C 645.869 -0.753678 -5.28352 0
M  V30 6943 O 646.092 0.417779 -5.68868 0
M  V30 6944 O 645.026 -1.51647 -5.82483 0
M  V30 6945 H 648.852 -1.69141 -2.5224 0
M  V30 6946 H 646.437 -0.885836 -1.20305 0
M  V30 6947 H 648.319 0.0855756 -4.21313 0
M  V30 6948 H 646.994 0.666262 -3.16769 0
M  V30 6949 H 645.901 -1.64299 -3.3609 0
M  V30 6950 H 647.234 -2.14396 -4.43052 0
M  V30 6951 N 648.886 1.2938 -0.899927 0
M  V30 6952 C 650.114 1.99691 -0.541386 0
M  V30 6953 C 650.529 1.67355 0.873936 0
M  V30 6954 O 649.886 0.918728 1.57688 0
M  V30 6955 C 649.937 3.54168 -0.72438 0
M  V30 6956 O 649.658 3.85359 -2.08399 0
M  V30 6957 C 651.159 4.41746 -0.370819 0
M  V30 6958 H 648.379 0.638037 -0.207726 0
M  V30 6959 H 650.923 1.6491 -1.20934 0
M  V30 6960 H 649.078 3.87261 -0.103607 0
M  V30 6961 H 649.492 4.80032 -2.11352 0
M  V30 6962 H 650.966 5.49256 -0.549693 0
M  V30 6963 H 651.443 4.33712 0.692148 0
M  V30 6964 H 652.049 4.14125 -0.968543 0
M  V30 6965 N 650.364 0.662433 1.43002 0
M  V30 6966 C 651.613 0.176873 2.00923 0
M  V30 6967 C 651.926 -1.21954 1.52927 0
M  V30 6968 O 653.132 -1.80081 2.03182 0
M  V30 6969 C 651.588 0.265379 3.5892 0
M  V30 6970 C 651.196 1.66507 4.15908 0
M  V30 6971 C 652.94 -0.162103 4.2419 0
M  V30 6972 C 650.847 1.707 5.66229 0
M  V30 6973 H 649.777 0.0623627 0.751417 0
M  V30 6974 H 652.428 0.825813 1.63868 0
M  V30 6975 H 650.81 -0.451235 3.93421 0
M  V30 6976 H 651.984 2.40777 3.92891 0
M  V30 6977 H 650.299 2.03932 3.63044 0
M  V30 6978 H 652.896 -0.150745 5.34487 0
M  V30 6979 H 653.239 -1.19519 3.98774 0
M  V30 6980 H 653.772 0.503075 3.94606 0
M  V30 6981 H 650.511 2.7195 5.96426 0
M  V30 6982 H 650.031 1.00768 5.91275 0
M  V30 6983 H 651.71 1.45487 6.3043 0
M  V30 6984 N 651.842 -1.52309 0.404946 0
M  V30 6985 C 653.09 -2.01368 -0.17186 0
M  V30 6986 C 653.411 -1.29261 -1.46002 0
M  V30 6987 O 652.681 -0.41729 -1.91404 0
M  V30 6988 H 651.261 -0.744034 -0.0664993 0
M  V30 6989 H 653.923 -1.87263 0.540228 0
M  V30 6990 H 653.019 -3.09888 -0.370957 0
M  V30 6991 N 653.32 -0.135238 -1.57019 0
M  V30 6992 C 654.567 0.518794 -1.95742 0
M  V30 6993 C 654.895 1.65642 -1.01947 0
M  V30 6994 O 654.15 1.95645 -0.0464016 0
M  V30 6995 C 654.449 1.07694 -3.40788 0
M  V30 6996 C 654.115 0.058992 -4.50861 0
M  V30 6997 C 652.777 -0.220872 -4.80693 0
M  V30 6998 C 655.129 -0.633856 -5.17331 0
M  V30 6999 C 652.457 -1.19959 -5.74305 0
M  V30 7000 C 654.809 -1.60131 -6.11997 0
M  V30 7001 C 653.473 -1.889 -6.40213 0
M  V30 7002 H 652.743 0.18984 -0.716269 0
M  V30 7003 H 655.39 -0.219581 -1.90237 0
M  V30 7004 H 653.695 1.89241 -3.43067 0
M  V30 7005 H 655.392 1.59137 -3.68071 0
M  V30 7006 H 651.982 0.287304 -4.27636 0
M  V30 7007 H 656.166 -0.430823 -4.94427 0
M  V30 7008 H 651.422 -1.42905 -5.94465 0
M  V30 7009 H 655.596 -2.14376 -6.62583 0
M  V30 7010 H 653.223 -2.64891 -7.12556 0
M  V30 7011 N 654.798 1.5699 0.138552 0
M  V30 7012 C 655.761 1.97984 1.15478 0
M  V30 7013 C 656.761 0.867416 1.35398 0
M  V30 7014 O 657.951 1.13387 1.32246 0
M  V30 7015 C 655.083 2.3031 2.51337 0
M  V30 7016 H 656.276 2.88953 0.802896 0
M  V30 7017 H 653.829 1.51555 0.382189 0
M  V30 7018 H 654.564 1.42159 2.91481 0
M  V30 7019 H 654.349 3.11425 2.38237 0
M  V30 7020 H 655.839 2.62834 3.24512 0
M  V30 7021 N 656.276 -0.40816 1.52223 0
M  V30 7022 C 657.522 -1.15673 1.66576 0
M  V30 7023 C 657.855 -1.90141 0.394996 0
M  V30 7024 O 657.13 -1.84798 -0.606613 0
M  V30 7025 C 657.413 -2.15042 2.88841 0
M  V30 7026 C 657.266 -1.44465 4.25969 0
M  V30 7027 C 658.585 -3.15699 3.0663 0
M  V30 7028 H 655.704 -0.41916 0.606196 0
M  V30 7029 H 658.346 -0.442348 1.84779 0
M  V30 7030 H 656.496 -2.75964 2.73452 0
M  V30 7031 H 658.168 -0.866544 4.53088 0
M  V30 7032 H 656.411 -0.746612 4.27327 0
M  V30 7033 H 657.082 -2.16976 5.07568 0
M  V30 7034 H 659.558 -2.64854 3.20923 0
M  V30 7035 H 658.434 -3.82491 3.9369 0
M  V30 7036 H 658.695 -3.83481 2.19987 0
M  V30 7037 N 657.755 -1.42862 -0.66545 0
M  V30 7038 C 658.985 -1.47032 -1.45138 0
M  V30 7039 C 659.393 -0.0829977 -1.89018 0
M  V30 7040 O 658.736 0.914551 -1.59316 0
M  V30 7041 C 658.798 -2.34302 -2.72659 0
M  V30 7042 C 658.462 -3.82034 -2.50796 0
M  V30 7043 C 659.459 -4.73453 -2.14799 0
M  V30 7044 C 657.144 -4.26397 -2.655 0
M  V30 7045 C 659.138 -6.07228 -1.93785 0
M  V30 7046 C 656.825 -5.6023 -2.44103 0
M  V30 7047 C 657.823 -6.50462 -2.08299 0
M  V30 7048 O 657.511 -7.8182 -1.87116 0
M  V30 7049 H 657.243 -0.501969 -0.452772 0
M  V30 7050 H 659.797 -1.88137 -0.82423 0
M  V30 7051 H 658.027 -1.88063 -3.37889 0
M  V30 7052 H 659.716 -2.29818 -3.34572 0
M  V30 7053 H 660.482 -4.4046 -2.03026 0
M  V30 7054 H 656.361 -3.56448 -2.92345 0
M  V30 7055 H 659.905 -6.7762 -1.65763 0
M  V30 7056 H 655.802 -5.92793 -2.55475 0
M  V30 7057 H 656.57 -7.93274 -2.01639 0
M  V30 7058 N 659.233 0.902656 -1.29189 0
M  V30 7059 C 660.143 2.03946 -1.15944 0
M  V30 7060 C 661.159 1.738 -0.0833803 0
M  V30 7061 O 662.335 1.9923 -0.29487 0
M  V30 7062 C 659.4 3.36519 -0.834006 0
M  V30 7063 C 658.461 3.80203 -1.9936 0
M  V30 7064 C 657.694 5.06449 -1.68359 0
M  V30 7065 O 657.917 5.67202 -0.603141 0
M  V30 7066 O 656.851 5.46114 -2.53067 0
M  V30 7067 H 660.677 2.18043 -2.11403 0
M  V30 7068 H 658.262 1.02584 -1.08613 0
M  V30 7069 H 660.144 4.16089 -0.666949 0
M  V30 7070 H 658.819 3.23573 0.0908245 0
M  V30 7071 H 657.726 3.01413 -2.21588 0
M  V30 7072 H 659.059 3.97729 -2.89952 0
M  V30 7073 N 660.711 1.11618 1.11262 0
M  V30 7074 C 661.957 0.867463 1.83311 0
M  V30 7075 C 662.29 -0.605366 1.84524 0
M  V30 7076 O 661.565 -1.44704 1.29965 0
M  V30 7077 C 661.848 1.43207 3.30399 0
M  V30 7078 C 661.701 2.97265 3.3757 0
M  V30 7079 C 663.02 1.08454 4.26528 0
M  V30 7080 H 660.139 0.316578 0.665543 0
M  V30 7081 H 662.781 1.38137 1.30454 0
M  V30 7082 H 660.931 0.994982 3.75543 0
M  V30 7083 H 662.603 3.49591 3.00971 0
M  V30 7084 H 660.846 3.33237 2.77733 0
M  V30 7085 H 661.517 3.31859 4.41105 0
M  V30 7086 H 663.993 1.4619 3.89574 0
M  V30 7087 H 662.869 1.50633 5.27826 0
M  V30 7088 H 663.13 -0.00444568 4.421 0
M  V30 7089 N 662.189 -1.289 0.906776 0
M  V30 7090 C 663.6 -1.77336 0.58384 0
M  V30 7091 C 663.951 -1.74304 -0.900697 0
M  V30 7092 O 663.076 -1.33335 -1.70443 0
M  V30 7093 C 663.671 -3.22019 1.05304 0
M  V30 7094 C 662.23 -3.68205 0.781148 0
M  V30 7095 C 661.377 -2.48837 1.22373 0
M  V30 7096 H 664.328 -1.15462 1.08877 0
M  V30 7097 H 664.349 -3.78481 0.391414 0
M  V30 7098 H 663.861 -3.24194 2.13353 0
M  V30 7099 H 661.962 -3.71497 -0.28643 0
M  V30 7100 H 662.075 -4.58675 1.384 0
M  V30 7101 H 660.439 -2.46461 0.642594 0
M  V30 7102 H 661.222 -2.53736 2.31242 0
M  V30 7103 N 663.667 -0.670007 -1.42649 0
M  V30 7104 C 665.078 -0.268118 -1.84765 0
M  V30 7105 C 665.429 1.18877 -1.56086 0
M  V30 7106 O 664.554 1.90947 -1.01825 0
M  V30 7107 C 665.149 -0.47984 -3.35385 0
M  V30 7108 C 663.708 -0.132116 -3.76168 0
M  V30 7109 C 662.855 -0.774611 -2.66261 0
M  V30 7110 H 665.806 -0.872509 -1.32563 0
M  V30 7111 H 665.827 0.269522 -3.79544 0
M  V30 7112 H 665.339 -1.54026 -3.56227 0
M  V30 7113 H 663.44 0.92505 -3.60934 0
M  V30 7114 H 663.553 -0.569294 -4.75706 0
M  V30 7115 H 661.917 -0.206353 -2.53863 0
M  V30 7116 H 662.7 -1.83839 -2.89928 0
M  V30 7117 N 665.145 1.52092 -0.413018 0
M  V30 7118 C 666.055 2.30858 0.417318 0
M  V30 7119 C 667.071 1.38746 1.05003 0
M  V30 7120 O 668.247 1.71821 1.05069 0
M  V30 7121 C 665.312 3.11756 1.51687 0
M  V30 7122 C 664.373 4.19613 0.906825 0
M  V30 7123 C 663.606 4.96644 1.95399 0
M  V30 7124 O 663.829 4.7402 3.17271 0
M  V30 7125 O 662.763 5.81385 1.55805 0
M  V30 7126 H 666.589 3.02865 -0.225028 0
M  V30 7127 H 664.174 1.48358 -0.176126 0
M  V30 7128 H 666.056 3.62122 2.15512 0
M  V30 7129 H 664.731 2.42539 2.14375 0
M  V30 7130 H 663.638 3.73385 0.231183 0
M  V30 7131 H 664.971 4.91134 0.323814 0
M  V30 7132 N 666.623 0.143563 1.56945 0
M  V30 7133 C 667.553 -0.7936 2.196 0
M  V30 7134 C 668.534 -1.25955 1.14321 0
M  V30 7135 O 669.719 -1.31773 1.42651 0
M  V30 7136 C 666.849 -2.03424 2.81489 0
M  V30 7137 C 665.803 -1.70519 3.92565 0
M  V30 7138 C 665.129 -3.01817 4.41373 0
M  V30 7139 C 666.429 -0.95449 5.13504 0
M  V30 7140 H 668.123 -0.271423 2.98167 0
M  V30 7141 H 665.669 -0.12911 1.4342 0
M  V30 7142 H 667.622 -2.69463 3.23987 0
M  V30 7143 H 666.346 -2.58008 2.00248 0
M  V30 7144 H 665.005 -1.06859 3.5068 0
M  V30 7145 H 664.653 -3.54386 3.56959 0
M  V30 7146 H 664.353 -2.80565 5.16292 0
M  V30 7147 H 665.877 -3.68934 4.86539 0
M  V30 7148 H 667.291 -1.5169 5.52868 0
M  V30 7149 H 665.688 -0.842035 5.94163 0
M  V30 7150 H 666.758 0.0544033 4.84869 0
M  V30 7151 N 668.101 -1.57061 -0.130224 0
M  V30 7152 C 669.347 -1.8453 -0.841216 0
M  V30 7153 C 669.68 -0.727666 -1.80052 0
M  V30 7154 O 668.955 0.267419 -1.92653 0
M  V30 7155 C 669.238 -3.22553 -1.60099 0
M  V30 7156 C 669.091 -4.44901 -0.662048 0
M  V30 7157 C 670.41 -3.58003 -2.55973 0
M  V30 7158 H 667.529 -0.671215 -0.304366 0
M  V30 7159 H 670.171 -1.89705 -0.105821 0
M  V30 7160 H 668.321 -3.18272 -2.22789 0
M  V30 7161 H 669.993 -4.61278 -0.0448559 0
M  V30 7162 H 668.236 -4.33791 0.0272253 0
M  V30 7163 H 668.907 -5.3812 -1.23006 0
M  V30 7164 H 671.383 -3.63002 -2.03393 0
M  V30 7165 H 670.259 -4.55576 -3.06172 0
M  V30 7166 H 670.52 -2.84833 -3.38116 0
M  V30 7167 N 669.579 0.400081 -1.52437 0
M  V30 7168 C 670.827 1.14392 -1.6661 0
M  V30 7169 C 671.148 1.90792 -0.402927 0
M  V30 7170 O 670.418 1.87042 0.582425 0
M  V30 7171 H 668.998 0.425275 -0.614125 0
M  V30 7172 H 671.66 0.455076 -1.89513 0
M  V30 7173 H 670.756 1.85298 -2.51139 0
M  V30 7174 N 671.057 1.43213 0.657864 0
M  V30 7175 C 671.989 1.43974 1.78337 0
M  V30 7176 C 673.002 0.336482 1.59285 0
M  V30 7177 O 674.191 0.600631 1.68091 0
M  V30 7178 C 671.291 1.23242 3.15697 0
M  V30 7179 C 670.464 2.46319 3.61449 0
M  V30 7180 C 669.523 2.2088 4.77597 0
M  V30 7181 O 668.549 2.942 4.87273 0
M  V30 7182 N 669.751 1.22251 5.67481 0
M  V30 7183 H 672.516 2.40993 1.78164 0
M  V30 7184 H 670.077 1.3831 0.841549 0
M  V30 7185 H 672.069 1.04113 3.91079 0
M  V30 7186 H 670.639 0.346849 3.1067 0
M  V30 7187 H 669.859 2.80904 2.76563 0
M  V30 7188 H 671.147 3.28239 3.88763 0
M  V30 7189 H 670.545 0.616433 5.62331 0
M  V30 7190 H 669.102 1.09107 6.42603 0
M  V30 7191 N 672.536 -0.895792 1.29666 0
M  V30 7192 C 673.947 -1.46195 1.1612 0
M  V30 7193 C 674.298 -1.94699 -0.242195 0
M  V30 7194 O 673.423 -1.8406 -1.13802 0
M  V30 7195 C 674.018 -2.65718 2.10189 0
M  V30 7196 C 672.577 -3.18458 2.00653 0
M  V30 7197 C 671.724 -1.91149 2.00891 0
M  V30 7198 H 674.675 -0.706756 1.42094 0
M  V30 7199 H 674.696 -3.4158 1.6764 0
M  V30 7200 H 674.208 -2.30386 3.12321 0
M  V30 7201 H 672.309 -3.58474 1.01623 0
M  V30 7202 H 672.422 -3.82491 2.88509 0
M  V30 7203 H 670.786 -2.09021 1.45542 0
M  V30 7204 H 671.569 -1.58089 3.04734 0
M  V30 7205 N 674.014 -1.12206 -1.10668 0
M  V30 7206 C 674.977 -0.790867 -2.15123 0
M  V30 7207 C 675.977 0.193618 -1.5963 0
M  V30 7208 O 677.167 -0.0318728 -1.74171 0
M  V30 7209 C 674.299 -0.174797 -3.40452 0
M  V30 7210 H 675.492 -1.7163 -2.45933 0
M  V30 7211 H 673.045 -0.924993 -1.2599 0
M  V30 7212 H 673.78 0.760478 -3.15257 0
M  V30 7213 H 673.565 -0.88358 -3.82015 0
M  V30 7214 H 675.055 0.0405162 -4.1758 0
M  V30 7215 N 675.492 1.28418 -0.913599 0
M  V30 7216 C 676.738 1.9527 -0.547484 0
M  V30 7217 C 677.071 1.71745 0.906486 0
M  V30 7218 O 676.346 1.03834 1.64465 0
M  V30 7219 C 676.629 3.49748 -0.857205 0
M  V30 7220 C 676.482 3.82675 -2.3639 0
M  V30 7221 C 677.801 4.3868 -0.353258 0
M  V30 7222 H 674.92 0.709236 -0.200381 0
M  V30 7223 H 677.562 1.51789 -1.14281 0
M  V30 7224 H 675.712 3.86915 -0.350548 0
M  V30 7225 H 677.384 3.55378 -2.94116 0
M  V30 7226 H 675.627 3.29724 -2.81894 0
M  V30 7227 H 676.298 4.90547 -2.53115 0
M  V30 7228 H 678.774 4.08584 -0.787288 0
M  V30 7229 H 677.65 5.45621 -0.599049 0
M  V30 7230 H 677.911 4.35753 0.746413 0
M  V30 7231 N 676.97 0.677563 1.42291 0
M  V30 7232 C 677.92 -0.0218641 2.2799 0
M  V30 7233 C 678.904 -0.770816 1.41235 0
M  V30 7234 O 680.096 -0.649273 1.64662 0
M  V30 7235 C 677.225 -0.970449 3.29298 0
M  V30 7236 C 676.311 -0.218695 4.23536 0
M  V30 7237 N 676.702 0.777908 4.99782 0
M  V30 7238 C 675 -0.456748 4.43655 0
M  V30 7239 C 675.701 1.22632 5.68627 0
M  V30 7240 N 674.677 0.55573 5.40752 0
M  V30 7241 H 678.479 0.742516 2.84366 0
M  V30 7242 H 675.993 0.506862 1.54288 0
M  V30 7243 H 677.99 -1.48652 3.89497 0
M  V30 7244 H 676.65 -1.73463 2.74483 0
M  V30 7245 H 677.661 1.15754 5.04798 0
M  V30 7246 H 674.338 -1.20021 3.99877 0
M  V30 7247 H 675.728 2.05231 6.39789 0
M  V30 7248 N 678.448 -1.51871 0.421078 0
M  V30 7249 C 679.378 -2.30231 -0.389363 0
M  V30 7250 C 680.359 -1.34946 -1.03555 0
M  V30 7251 O 681.544 -1.63859 -1.04229 0
M  V30 7252 C 678.674 -3.13247 -1.49979 0
M  V30 7253 C 677.628 -4.16677 -0.977966 0
M  V30 7254 C 676.954 -4.88112 -2.1829 0
M  V30 7255 C 678.254 -5.22295 -0.0236775 0
M  V30 7256 H 679.948 -2.98229 0.264524 0
M  V30 7257 H 677.494 -1.43424 0.12866 0
M  V30 7258 H 679.447 -3.66838 -2.07383 0
M  V30 7259 H 678.171 -2.4304 -2.18173 0
M  V30 7260 H 676.83 -3.64114 -0.426245 0
M  V30 7261 H 676.478 -4.14423 -2.85066 0
M  V30 7262 H 676.178 -5.58041 -1.84021 0
M  V30 7263 H 677.702 -5.44521 -2.76278 0
M  V30 7264 H 679.116 -5.71055 -0.506899 0
M  V30 7265 H 677.513 -5.99656 0.230782 0
M  V30 7266 H 678.583 -4.76131 0.917999 0
M  V30 7267 N 679.926 -0.151884 -1.56866 0
M  V30 7268 C 680.873 0.785936 -2.17006 0
M  V30 7269 C 681.843 1.2407 -1.10435 0
M  V30 7270 O 683.028 1.31235 -1.38499 0
M  V30 7271 C 680.168 2.01771 -2.79969 0
M  V30 7272 C 679.281 1.6083 -4.00946 0
M  V30 7273 C 678.416 2.79224 -4.51893 0
M  V30 7274 C 677.455 2.3468 -5.65324 0
M  V30 7275 N 676.592 3.461 -6.10867 0
M  V30 7276 H 681.432 0.266286 -2.96808 0
M  V30 7277 H 678.969 0.11972 -1.46612 0
M  V30 7278 H 680.927 2.73989 -3.14621 0
M  V30 7279 H 679.557 2.51139 -2.02803 0
M  V30 7280 H 678.609 0.783592 -3.72242 0
M  V30 7281 H 679.921 1.24119 -4.83111 0
M  V30 7282 H 679.075 3.59625 -4.88625 0
M  V30 7283 H 677.814 3.19183 -3.68746 0
M  V30 7284 H 676.819 1.52721 -5.28163 0
M  V30 7285 H 678.044 1.95801 -6.5026 0
M  V30 7286 H 675.99 3.85671 -5.30654 0
M  V30 7287 H 675.907 3.1342 -6.87971 0
M  V30 7288 H 677.175 4.26844 -6.52246 0
M  V30 7289 N 681.404 1.57128 0.121893 0
M  V30 7290 C 682.82 1.52357 0.47534 0
M  V30 7291 C 683.02 0.864417 1.82017 0
M  V30 7292 O 682.076 0.445529 2.48538 0
M  V30 7293 C 683.389 2.97122 0.4625 0
M  V30 7294 C 684.937 3.08196 0.546255 0
M  V30 7295 C 685.412 4.54516 0.563833 0
M  V30 7296 N 686.903 4.58959 0.625353 0
M  V30 7297 C 687.638 5.69585 0.660354 0
M  V30 7298 N 687.134 6.89714 0.653175 0
M  V30 7299 N 688.927 5.57685 0.703143 0
M  V30 7300 H 681.078 1.98364 -0.75931 0
M  V30 7301 H 683.341 0.905777 -0.279772 0
M  V30 7302 H 683.047 3.48706 -0.457943 0
M  V30 7303 H 682.921 3.54406 1.29136 0
M  V30 7304 H 685.308 2.56617 1.45712 0
M  V30 7305 H 685.389 2.53912 -0.310234 0
M  V30 7306 H 685.033 5.06741 -0.342974 0
M  V30 7307 H 684.963 5.06609 1.43716 0
M  V30 7308 H 687.454 3.72489 0.637182 0
M  V30 7309 H 687.767 7.69781 0.682425 0
M  V30 7310 H 686.112 6.92223 0.620646 0
M  V30 7311 H 689.303 4.62744 0.706095 0
M  V30 7312 H 689.476 6.43909 0.726952 0
M  V30 7313 N 682.882 -0.391992 1.52647 0
M  V30 7314 C 684.159 -1.15136 1.58123 0
M  V30 7315 C 684.539 -2.07786 0.372597 0
M  V30 7316 O 683.887 -2.19374 -0.639304 0
M  V30 7317 C 684.097 -1.91367 2.91856 0
M  V30 7318 C 685.445 -2.46833 3.45483 0
M  V30 7319 O 686.469 -2.01527 2.9371 0
M  V30 7320 O 685.328 -3.29587 4.3593 0
M  V30 7321 H 682.422 -0.526649 0.637629 0
M  V30 7322 H 684.968 -0.397386 1.64982 0
M  V30 7323 H 683.74 -1.23597 3.71268 0
M  V30 7324 H 683.363 -2.73732 2.88369 0
M  V30 7325 N 684.36 -1.4356 -0.65026 0
M  V30 7326 C 685.607 -1.45333 -1.41012 0
M  V30 7327 C 685.935 -0.0787282 -1.94341 0
M  V30 7328 O 685.19 0.916715 -1.72901 0
M  V30 7329 C 685.489 -2.44528 -2.60654 0
M  V30 7330 C 685.155 -3.90331 -2.25727 0
M  V30 7331 C 683.817 -4.3004 -2.15914 0
M  V30 7332 C 686.169 -4.822 -1.97821 0
M  V30 7333 C 683.497 -5.59568 -1.76354 0
M  V30 7334 C 685.849 -6.12095 -1.59759 0
M  V30 7335 C 684.513 -6.50778 -1.48473 0
M  V30 7336 H 683.783 -0.531813 -0.516 0
M  V30 7337 H 686.43 -1.76657 -0.739219 0
M  V30 7338 H 684.735 -2.06619 -3.3289 0
M  V30 7339 H 686.432 -2.43155 -3.18868 0
M  V30 7340 H 683.022 -3.58905 -2.34276 0
M  V30 7341 H 687.206 -4.5229 -2.04322 0
M  V30 7342 H 682.462 -5.88376 -1.66205 0
M  V30 7343 H 686.636 -6.82751 -1.37198 0
M  V30 7344 H 684.263 -7.5105 -1.17591 0
M  V30 7345 N 685.838 0.888903 -1.30139 0
M  V30 7346 C 687.085 1.64037 -1.18736 0
M  V30 7347 C 687.413 1.92771 0.258801 0
M  V30 7348 O 686.668 1.54427 1.20212 0
M  V30 7349 C 686.967 2.99041 -1.95728 0
M  V30 7350 C 686.633 2.89874 -3.45375 0
M  V30 7351 C 685.295 2.87082 -3.86183 0
M  V30 7352 C 687.647 2.78289 -4.40687 0
M  V30 7353 C 684.975 2.70536 -5.20603 0
M  V30 7354 C 687.327 2.63282 -5.75209 0
M  V30 7355 C 685.991 2.58861 -6.15262 0
M  V30 7356 H 685.261 0.600253 -0.434485 0
M  V30 7357 H 687.908 1.0338 -1.61198 0
M  V30 7358 H 686.213 3.63626 -1.45888 0
M  V30 7359 H 687.91 3.56139 -1.843 0
M  V30 7360 H 684.5 2.92856 -3.12943 0
M  V30 7361 H 688.684 2.79516 -4.10103 0
M  V30 7362 H 683.94 2.65526 -5.50732 0
M  V30 7363 H 688.114 2.5329 -6.48704 0
M  V30 7364 H 685.741 2.45799 -7.19366 0
M  V30 7365 N 687.317 1.12792 1.10072 0
M  V30 7366 C 688.247 0.821688 2.18565 0
M  V30 7367 C 689.228 -0.21612 1.68721 0
M  V30 7368 O 690.413 -0.0764932 1.94049 0
M  V30 7369 C 687.543 0.279624 3.46172 0
M  V30 7370 C 686.497 1.25092 4.09312 0
M  V30 7371 C 685.823 0.568916 5.31665 0
M  V30 7372 C 687.123 2.60699 4.52585 0
M  V30 7373 H 688.817 1.72888 2.44438 0
M  V30 7374 H 686.363 0.832702 1.17482 0
M  V30 7375 H 688.316 0.053099 4.21367 0
M  V30 7376 H 687.04 -0.662929 3.19801 0
M  V30 7377 H 685.699 1.46332 3.36129 0
M  V30 7378 H 685.347 -0.378898 5.01571 0
M  V30 7379 H 685.047 1.21687 5.74862 0
M  V30 7380 H 686.571 0.351517 6.09587 0
M  V30 7381 H 687.985 2.43465 5.19035 0
M  V30 7382 H 686.382 3.21608 5.06644 0
M  V30 7383 H 687.452 3.1886 3.65317 0
M  V30 7384 N 688.795 -1.27931 0.920396 0
M  V30 7385 C 689.758 -2.25345 0.41858 0
M  V30 7386 C 690.758 -1.54116 -0.458798 0
M  V30 7387 O 691.948 -1.72235 -0.260912 0
M  V30 7388 C 689.08 -3.38556 -0.399104 0
M  V30 7389 H 690.273 -2.71251 1.27918 0
M  V30 7390 H 687.826 -1.39728 0.700406 0
M  V30 7391 H 688.561 -2.98021 -1.27882 0
M  V30 7392 H 688.346 -3.91426 0.229863 0
M  V30 7393 H 689.836 -4.10976 -0.740817 0
M  V30 7394 N 690.273 -0.685099 -1.4193 0
M  V30 7395 C 691.221 -0.00165985 -2.326 0
M  V30 7396 C 692.215 0.779678 -1.50391 0
M  V30 7397 O 693.421 0.68648 -1.66395 0
M  V30 7398 H 689.796 0.0182616 -0.751778 0
M  V30 7399 H 691.767 -0.783592 -2.87928 0
M  V30 7400 C 690.516 0.928385 -3.35077 0
M  V30 7401 H 689.839 0.336578 -3.98381 0
M  V30 7402 H 691.279 1.37509 -4.01083 0
M  V30 7403 C 689.738 2.03964 -2.68142 0
M  V30 7404 O 690.268 3.12727 -2.5212 0
M  V30 7405 N 688.474 1.81433 -2.27003 0
M  V30 7406 H 688.021 0.929807 -2.40234 0
M  V30 7407 H 687.979 2.55973 -1.82552 0
M  V30 7408 N 691.751 1.51645 -0.429126 0
M  V30 7409 C 692.714 2.26116 0.374726 0
M  V30 7410 C 693.714 1.29242 0.956714 0
M  V30 7411 O 694.904 1.53022 0.832452 0
M  V30 7412 C 692.036 3.04669 1.52937 0
M  V30 7413 H 693.229 2.9861 -0.277818 0
M  V30 7414 H 690.782 1.55236 -0.182097 0
M  V30 7415 H 691.517 2.36571 2.21821 0
M  V30 7416 H 691.302 3.75814 1.11833 0
M  V30 7417 H 692.792 3.61102 2.09751 0
M  V30 7418 N 693.229 0.160201 1.56784 0
M  V30 7419 C 694.454 -0.497373 2.01348 0
M  V30 7420 C 694.879 -1.56757 1.03966 0
M  V30 7421 O 694.237 -1.81292 0.0174455 0
M  V30 7422 C 694.285 -1.0628 3.44582 0
M  V30 7423 O 693.389 -2.17723 3.50244 0
M  V30 7424 H 692.73 -0.120295 0.653012 0
M  V30 7425 H 695.26 0.260821 2.02931 0
M  V30 7426 H 695.27 -1.38819 3.83658 0
M  V30 7427 H 693.945 -0.279166 4.14962 0
M  V30 7428 H 692.522 -1.86313 3.2302 0
M  V30 7429 N 694.707 -1.5719 -0.113559 0
M  V30 7430 C 696.123 -1.52607 -0.467253 0
M  V30 7431 C 696.323 -0.874058 -1.81556 0
M  V30 7432 O 695.379 -0.458703 -2.48299 0
M  V30 7433 C 696.692 -2.97363 -0.446736 0
M  V30 7434 C 698.24 -3.08482 -0.529903 0
M  V30 7435 C 698.715 -4.54809 -0.539721 0
M  V30 7436 N 700.206 -4.59284 -0.601005 0
M  V30 7437 C 700.941 -5.69927 -0.630138 0
M  V30 7438 N 700.437 -6.90051 -0.616589 0
M  V30 7439 N 702.23 -5.5805 -0.673558 0
M  V30 7440 H 694.381 -1.97958 0.769819 0
M  V30 7441 H 696.644 -0.90428 0.284572 0
M  V30 7442 H 696.35 -3.48458 0.47643 0
M  V30 7443 H 696.224 -3.55086 -1.27254 0
M  V30 7444 H 698.611 -2.57386 -1.44349 0
M  V30 7445 H 698.692 -2.53744 0.323695 0
M  V30 7446 H 698.336 -5.06552 0.369843 0
M  V30 7447 H 698.266 -5.07364 -1.41028 0
M  V30 7448 H 700.757 -3.72822 -0.617419 0
M  V30 7449 H 701.07 -7.70132 -0.641592 0
M  V30 7450 H 699.415 -6.92543 -0.583927 0
M  V30 7451 H 702.606 -4.63112 -0.681544 0
M  V30 7452 H 702.779 -6.44286 -0.692794 0
M  V30 7453 N 696.185 0.383891 -1.52853 0
M  V30 7454 C 697.148 1.45197 -1.77343 0
M  V30 7455 C 698.148 1.47362 -0.643522 0
M  V30 7456 O 699.338 1.48443 -0.911613 0
M  V30 7457 C 696.47 2.8445 -1.87885 0
M  V30 7458 H 697.663 1.24764 -2.72716 0
M  V30 7459 H 695.216 0.615939 -1.43652 0
M  V30 7460 H 695.951 3.10222 -0.94515 0
M  V30 7461 H 695.736 2.8428 -2.70051 0
M  V30 7462 H 697.226 3.61832 -2.08488 0
M  V30 7463 N 697.663 1.43903 0.642637 0
M  V30 7464 C 699.079 1.27536 0.959519 0
M  V30 7465 C 699.279 0.202751 2.00477 0
M  V30 7466 O 698.335 -0.415256 2.49062 0
M  V30 7467 C 699.648 2.6432 1.43372 0
M  V30 7468 C 701.196 2.71937 1.54981 0
M  V30 7469 C 701.671 4.09164 2.05789 0
M  V30 7470 N 703.162 4.11282 2.13076 0
M  V30 7471 C 703.897 5.14303 2.53534 0
M  V30 7472 N 703.393 6.27693 2.93212 0
M  V30 7473 N 705.186 5.01657 2.53567 0
M  V30 7474 H 697.337 2.12344 -0.0488376 0
M  V30 7475 H 699.6 0.947124 0.0407559 0
M  V30 7476 H 699.306 3.43826 0.740048 0
M  V30 7477 H 699.18 2.90432 2.40685 0
M  V30 7478 H 701.567 1.92757 2.23448 0
M  V30 7479 H 701.648 2.49578 0.560739 0
M  V30 7480 H 701.292 4.88815 1.37921 0
M  V30 7481 H 701.222 4.28893 3.05546 0
M  V30 7482 H 703.713 3.2944 1.85143 0
M  V30 7483 H 704.026 7.02125 3.22863 0
M  V30 7484 H 702.371 6.31149 2.90991 0
M  V30 7485 H 705.562 4.12134 2.21952 0
M  V30 7486 H 705.735 5.82072 2.84774 0
M  V30 7487 N 699.141 -0.881989 1.30609 0
M  V30 7488 C 700.366 -1.67236 1.22665 0
M  V30 7489 C 700.791 -1.8696 -0.206777 0
M  V30 7490 O 700.149 -1.4027 -1.14865 0
M  V30 7491 C 700.197 -3.02446 1.96363 0
M  V30 7492 O 699.301 -3.91614 1.29276 0
M  V30 7493 H 698.642 -0.510902 0.424117 0
M  V30 7494 H 701.172 -1.10055 1.72479 0
M  V30 7495 H 701.182 -3.52468 2.055 0
M  V30 7496 H 699.857 -2.8741 3.00613 0
M  V30 7497 H 698.434 -3.50055 1.28514 0
M  V30 7498 N 700.619 -1.13374 -1.09472 0
M  V30 7499 C 701.529 -0.824029 -2.19652 0
M  V30 7500 C 702.545 0.19118 -1.72947 0
M  V30 7501 O 703.721 0.0223464 -2.01388 0
M  V30 7502 C 700.786 -0.294009 -3.45451 0
M  V30 7503 C 699.847 -1.3704 -4.0684 0
M  V30 7504 C 699.08 -0.86558 -5.26634 0
M  V30 7505 O 699.303 0.29702 -5.69626 0
M  V30 7506 O 698.237 -1.63968 -5.79136 0
M  V30 7507 H 702.063 -1.74454 -2.48595 0
M  V30 7508 H 699.648 -0.911155 -1.18399 0
M  V30 7509 H 701.53 -0.00381039 -4.214 0
M  V30 7510 H 700.205 0.598921 -3.18111 0
M  V30 7511 H 699.112 -1.71391 -3.3253 0
M  V30 7512 H 700.445 -2.23746 -4.38405 0
M  V30 7513 N 702.098 1.27442 -0.927168 0
M  V30 7514 C 703.03 2.25975 -0.383158 0
M  V30 7515 C 704.043 1.55382 0.485832 0
M  V30 7516 O 705.232 1.75986 0.298541 0
M  V30 7517 C 702.332 3.35629 0.469688 0
M  V30 7518 C 701.505 4.35747 -0.379886 0
M  V30 7519 C 700.564 5.24598 0.410227 0
M  V30 7520 O 699.59 5.68909 -0.181888 0
M  V30 7521 N 700.792 5.54737 1.71017 0
M  V30 7522 H 703.557 2.7329 -1.23015 0
M  V30 7523 H 701.118 1.41063 -0.794539 0
M  V30 7524 H 703.11 3.92015 1.00532 0
M  V30 7525 H 701.68 2.87919 1.21744 0
M  V30 7526 H 700.9 3.78634 -1.09682 0
M  V30 7527 H 702.188 4.99648 -0.960717 0
M  V30 7528 H 701.586 5.20594 2.21356 0
M  V30 7529 H 700.143 6.13824 2.19234 0
M  V30 7530 N 703.576 0.692616 1.41565 0
M  V30 7531 C 704.823 0.222335 2.01276 0
M  V30 7532 C 705.151 -1.17706 1.5484 0
M  V30 7533 O 704.406 -1.80795 0.749118 0
M  V30 7534 C 704.705 0.225073 3.56691 0
M  V30 7535 C 704.371 1.57158 4.22625 0
M  V30 7536 C 703.033 1.94022 4.40351 0
M  V30 7537 C 705.385 2.45758 4.59622 0
M  V30 7538 C 702.713 3.19076 4.92349 0
M  V30 7539 C 705.065 3.70141 5.13009 0
M  V30 7540 C 703.729 4.07152 5.28946 0
M  V30 7541 H 702.999 0.0813581 0.73652 0
M  V30 7542 H 705.646 0.891123 1.69503 0
M  V30 7543 H 703.951 -0.527259 3.88236 0
M  V30 7544 H 705.648 -0.156283 4.00695 0
M  V30 7545 H 702.238 1.27486 4.09201 0
M  V30 7546 H 706.422 2.18558 4.45585 0
M  V30 7547 H 701.678 3.4775 5.02872 0
M  V30 7548 H 705.852 4.38983 5.40617 0
M  V30 7549 H 703.479 5.04125 5.69001 0
M  V30 7550 N 705.054 -1.51416 0.437162 0
M  V30 7551 C 706.303 -2.01275 -0.130865 0
M  V30 7552 C 706.616 -1.32593 -1.438 0
M  V30 7553 O 707.822 -1.7342 -2.08897 0
M  V30 7554 C 706.278 -3.5878 -0.283763 0
M  V30 7555 C 705.886 -4.36399 1.01293 0
M  V30 7556 C 707.63 -4.16786 -0.805569 0
M  V30 7557 C 705.537 -5.85608 0.825687 0
M  V30 7558 H 704.467 -0.752157 -0.0526818 0
M  V30 7559 H 707.118 -1.74524 0.566896 0
M  V30 7560 H 705.5 -3.81976 -1.04452 0
M  V30 7561 H 706.674 -4.24948 1.78201 0
M  V30 7562 H 704.989 -3.89843 1.46326 0
M  V30 7563 H 707.586 -5.25972 -0.962146 0
M  V30 7564 H 707.929 -3.75949 -1.78796 0
M  V30 7565 H 708.462 -3.97666 -0.103125 0
M  V30 7566 H 705.201 -6.30857 1.78045 0
M  V30 7567 H 704.721 -5.99723 0.0964029 0
M  V30 7568 H 706.4 -6.45226 0.478815 0
M  V30 7569 N 706.532 -0.168513 -1.56696 0
M  V30 7570 C 707.48 0.779791 -2.19139 0
M  V30 7571 C 708.474 1.23957 -1.1546 0
M  V30 7572 O 709.68 1.20555 -1.33666 0
M  V30 7573 H 706.055 0.269739 -0.701958 0
M  V30 7574 H 708.026 0.229156 -2.97519 0
M  V30 7575 C 706.775 2.00003 -2.84419 0
M  V30 7576 H 706.098 1.65527 -3.63924 0
M  V30 7577 H 707.538 2.64251 -3.31583 0
M  V30 7578 C 705.997 2.82187 -1.84044 0
M  V30 7579 O 706.527 3.79247 -1.32418 0
M  V30 7580 N 704.733 2.47145 -1.52864 0
M  V30 7581 H 704.28 1.68277 -1.9504 0
M  V30 7582 H 704.238 3.02422 -0.859569 0
M  V30 7583 N 708.01 1.57248 0.105221 0
M  V30 7584 C 708.94 2.04374 1.12931 0
M  V30 7585 C 709.921 0.93074 1.42377 0
M  V30 7586 O 711.106 1.20136 1.52581 0
M  V30 7587 C 708.236 2.45967 2.45189 0
M  V30 7588 C 707.19 3.60838 2.30174 0
M  V30 7589 C 706.516 3.88374 3.67518 0
M  V30 7590 C 707.816 4.92084 1.75073 0
M  V30 7591 H 709.51 2.9018 0.737287 0
M  V30 7592 H 707.056 1.39601 0.353211 0
M  V30 7593 H 709.009 2.77542 3.17094 0
M  V30 7594 H 707.733 1.57148 2.86308 0
M  V30 7595 H 706.392 3.29493 1.60716 0
M  V30 7596 H 706.04 2.96739 4.06147 0
M  V30 7597 H 705.74 4.65703 3.58321 0
M  V30 7598 H 707.264 4.22415 4.40906 0
M  V30 7599 H 708.678 5.22106 2.36809 0
M  V30 7600 H 707.075 5.73507 1.76662 0
M  V30 7601 H 708.145 4.79684 0.709347 0
M  V30 7602 N 709.488 -0.375779 1.53054 0
M  V30 7603 C 710.904 -0.716764 1.426 0
M  V30 7604 C 711.104 -1.93651 0.556931 0
M  V30 7605 O 710.16 -2.52475 0.0354461 0
M  V30 7606 C 711.473 -0.939499 2.85646 0
M  V30 7607 C 713.021 -1.04015 2.95212 0
M  V30 7608 C 713.496 -1.29543 4.39298 0
M  V30 7609 N 714.987 -1.36335 4.42682 0
M  V30 7610 C 715.722 -1.57778 5.51266 0
M  V30 7611 N 715.218 -1.76604 6.69913 0
M  V30 7612 N 717.011 -1.60065 5.38828 0
M  V30 7613 H 709.162 0.42664 2.08071 0
M  V30 7614 H 711.425 0.128758 0.939215 0
M  V30 7615 H 711.131 -0.115189 3.51511 0
M  V30 7616 H 711.005 -1.85048 3.2869 0
M  V30 7617 H 713.392 -1.85501 2.29507 0
M  V30 7618 H 713.473 -0.106785 2.55577 0
M  V30 7619 H 713.117 -0.485611 5.05573 0
M  V30 7620 H 713.047 -2.24184 4.76497 0
M  V30 7621 H 715.538 -1.23441 3.5717 0
M  V30 7622 H 715.851 -1.9251 7.48438 0
M  V30 7623 H 714.196 -1.73802 6.72917 0
M  V30 7624 H 717.387 -1.44917 4.45103 0
M  V30 7625 H 717.56 -1.76435 6.23518 0
M  V30 7626 N 710.966 -1.44241 -0.634997 0
M  V30 7627 C 711.876 -1.53293 -1.77591 0
M  V30 7628 C 712.892 -0.418831 -1.68884 0
M  V30 7629 O 714.068 -0.675619 -1.8973 0
M  V30 7630 C 711.133 -1.47075 -3.13958 0
M  V30 7631 C 710.194 -2.69304 -3.34326 0
M  V30 7632 C 709.427 -2.63374 -4.64187 0
M  V30 7633 O 709.65 -1.69161 -5.44739 0
M  V30 7634 O 708.584 -3.54166 -4.86673 0
M  V30 7635 H 712.41 -2.49673 -1.72908 0
M  V30 7636 H 709.995 -1.26445 -0.795745 0
M  V30 7637 H 711.877 -1.46117 -3.95257 0
M  V30 7638 H 710.552 -0.538373 -3.19192 0
M  V30 7639 H 709.459 -2.75831 -2.52721 0
M  V30 7640 H 710.792 -3.61576 -3.33951 0
M  V30 7641 N 712.444 0.87505 -1.31075 0
M  V30 7642 C 713.69 1.63009 -1.20647 0
M  V30 7643 C 714.023 1.9276 0.236045 0
M  V30 7644 O 713.298 1.55559 1.16754 0
M  V30 7645 C 713.581 2.96357 -2.0456 0
M  V30 7646 C 713.434 2.73516 -3.57084 0
M  V30 7647 C 714.753 3.974 -1.89107 0
M  V30 7648 H 711.872 0.591518 -0.439631 0
M  V30 7649 H 714.514 1.0119 -1.60812 0
M  V30 7650 H 712.664 3.49119 -1.70435 0
M  V30 7651 H 714.336 2.27465 -4.01319 0
M  V30 7652 H 712.579 2.0784 -3.80769 0
M  V30 7653 H 713.25 3.68377 -4.11099 0
M  V30 7654 H 715.726 3.5383 -2.18961 0
M  V30 7655 H 714.602 4.88596 -2.5013 0
M  V30 7656 H 714.863 4.33794 -0.85296 0
M  V30 7657 N 713.922 1.13953 1.08869 0
M  V30 7658 C 715.147 0.928559 1.85452 0
M  V30 7659 C 715.572 -0.517642 1.80837 0
M  V30 7660 O 714.93 -1.36779 1.19001 0
M  V30 7661 C 714.978 1.42814 3.31114 0
M  V30 7662 O 714.082 0.617129 4.07756 0
M  V30 7663 H 713.423 0.33235 0.574839 0
M  V30 7664 H 715.953 1.5156 1.37443 0
M  V30 7665 H 715.963 1.43425 3.8196 0
M  V30 7666 H 714.638 2.48109 3.33788 0
M  V30 7667 H 713.215 0.679365 3.66659 0
M  V30 7668 N 715.4 -1.26948 0.933913 0
M  V30 7669 C 716.628 -1.98186 0.59414 0
M  V30 7670 C 717.043 -1.69614 -0.829257 0
M  V30 7671 O 716.4 -0.960213 -1.55197 0
M  V30 7672 C 716.451 -3.52123 0.818026 0
M  V30 7673 O 716.172 -3.79698 2.18543 0
M  V30 7674 C 717.673 -4.40608 0.48781 0
M  V30 7675 H 714.893 -0.632305 0.224569 0
M  V30 7676 H 717.437 -1.61646 1.25263 0
M  V30 7677 H 715.592 -3.86851 0.206246 0
M  V30 7678 H 716.006 -4.7426 2.24005 0
M  V30 7679 H 717.48 -5.47606 0.695126 0
M  V30 7680 H 717.957 -4.35394 -0.576913 0
M  V30 7681 H 718.563 -4.11411 1.078 0
M  V30 7682 N 716.879 -0.700114 -1.41195 0
M  V30 7683 C 718.295 -0.372114 -1.55201 0
M  V30 7684 C 718.495 1.12053 -1.6747 0
M  V30 7685 O 717.551 1.90642 -1.65566 0
M  V30 7686 C 718.864 -1.12462 -2.78878 0
M  V30 7687 C 720.412 -1.10941 -2.92679 0
M  V30 7688 C 720.887 -1.84376 -4.19249 0
M  V30 7689 N 722.378 -1.81368 -4.26216 0
M  V30 7690 C 723.113 -2.35024 -5.23021 0
M  V30 7691 N 722.609 -2.9717 -6.25829 0
M  V30 7692 N 724.402 -2.25254 -5.14992 0
M  V30 7693 H 716.553 -1.66816 -1.31477 0
M  V30 7694 H 718.816 -0.704223 -0.634644 0
M  V30 7695 H 718.522 -2.17937 -2.76037 0
M  V30 7696 H 718.396 -0.706152 -3.70531 0
M  V30 7697 H 720.783 -0.062911 -2.95033 0
M  V30 7698 H 720.864 -1.56698 -2.02187 0
M  V30 7699 H 720.508 -2.89008 -4.17656 0
M  V30 7700 H 720.438 -1.3605 -5.08722 0
M  V30 7701 H 722.929 -1.36062 -3.52556 0
M  V30 7702 H 723.242 -3.35668 -6.96094 0
M  V30 7703 H 721.587 -3.01249 -6.26318 0
M  V30 7704 H 724.778 -1.76372 -4.33602 0
M  V30 7705 H 724.951 -2.67373 -5.90268 0
M  V30 7706 N 718.357 1.51182 -0.445186 0
M  V30 7707 C 719.604 2.02152 0.118645 0
M  V30 7708 C 719.932 1.32888 1.42025 0
M  V30 7709 O 719.187 0.435041 1.90803 0
M  V30 7710 C 719.486 3.55408 0.376797 0
M  V30 7711 C 719.152 4.43008 -0.839945 0
M  V30 7712 C 717.814 4.66669 -1.17361 0
M  V30 7713 C 720.166 4.9435 -1.65127 0
M  V30 7714 C 717.494 5.38919 -2.31913 0
M  V30 7715 C 719.846 5.67857 -2.78786 0
M  V30 7716 C 718.51 5.89779 -3.12597 0
M  V30 7717 H 717.78 0.739727 0.0434152 0
M  V30 7718 H 720.427 1.82055 -0.593984 0
M  V30 7719 H 718.732 3.73879 1.1714 0
M  V30 7720 H 720.429 3.92388 0.826602 0
M  V30 7721 H 717.019 4.24793 -0.569958 0
M  V30 7722 H 721.203 4.75947 -1.4067 0
M  V30 7723 H 716.459 5.54105 -2.58413 0
M  V30 7724 H 720.633 6.06628 -3.42017 0
M  V30 7725 H 718.26 6.45542 -4.01471 0
M  V30 7726 N 719.835 0.176821 1.56605 0
M  V30 7727 C 721.251 -0.179278 1.5859 0
M  V30 7728 C 721.451 -1.62433 1.19238 0
M  V30 7729 O 720.507 -2.35665 0.906552 0
M  V30 7730 C 721.82 0.106524 3.00511 0
M  V30 7731 C 723.368 0.0451731 3.12967 0
M  V30 7732 C 723.843 0.304038 4.5699 0
M  V30 7733 N 725.334 0.252008 4.62514 0
M  V30 7734 C 726.069 0.426404 5.71812 0
M  V30 7735 N 725.565 0.660155 6.89648 0
M  V30 7736 N 727.358 0.361926 5.60934 0
M  V30 7737 H 719.509 1.12001 1.8047 0
M  V30 7738 H 721.772 0.445679 0.836704 0
M  V30 7739 H 721.478 1.10778 3.33798 0
M  V30 7740 H 721.352 -0.599337 3.72408 0
M  V30 7741 H 723.739 -0.946662 2.79504 0
M  V30 7742 H 723.82 0.78383 2.43495 0
M  V30 7743 H 723.464 1.29311 4.91163 0
M  V30 7744 H 723.394 -0.455294 5.24628 0
M  V30 7745 H 725.885 0.0772102 3.77821 0
M  V30 7746 H 726.198 0.782529 7.68828 0
M  V30 7747 H 724.543 0.696835 6.91498 0
M  V30 7748 H 727.734 0.17986 4.67754 0
M  V30 7749 H 727.907 0.501263 6.46058 0
M  V30 7750 N 721.313 -1.57302 -0.09688 0
M  V30 7751 C 722.243 -2.0497 -1.11846 0
M  V30 7752 C 723.224 -0.938278 -1.41882 0
M  V30 7753 O 724.409 -1.20943 -1.51942 0
M  V30 7754 C 721.539 -2.47264 -2.43881 0
M  V30 7755 C 720.493 -3.62053 -2.28257 0
M  V30 7756 C 719.819 -3.90318 -3.65453 0
M  V30 7757 C 721.119 -4.93005 -1.72461 0
M  V30 7758 H 722.813 -2.90567 -0.721888 0
M  V30 7759 H 720.359 -1.39786 -0.345803 0
M  V30 7760 H 722.312 -2.7922 -3.15617 0
M  V30 7761 H 721.036 -1.58664 -2.8547 0
M  V30 7762 H 719.695 -3.30341 -1.58967 0
M  V30 7763 H 719.343 -2.98889 -4.04567 0
M  V30 7764 H 719.043 -4.67597 -3.55846 0
M  V30 7765 H 720.567 -4.24747 -4.3866 0
M  V30 7766 H 721.981 -5.23354 -2.34036 0
M  V30 7767 H 720.378 -5.74436 -1.73618 0
M  V30 7768 H 721.448 -4.80053 -0.683898 0
M  V30 7769 N 722.791 0.367657 -1.53252 0
M  V30 7770 C 724.202 0.944563 -1.61043 0
M  V30 7771 C 724.553 1.90325 -0.476546 0
M  V30 7772 O 723.678 2.12721 0.397333 0
M  V30 7773 C 724.273 1.71992 -2.91898 0
M  V30 7774 C 722.832 2.2462 -3.02031 0
M  V30 7775 C 721.979 1.05799 -2.56324 0
M  V30 7776 H 724.93 0.146516 -1.58022 0
M  V30 7777 H 724.951 2.58095 -2.79584 0
M  V30 7778 H 724.463 1.02192 -3.74404 0
M  V30 7779 H 722.564 2.97668 -2.24108 0
M  V30 7780 H 722.677 2.52644 -4.07073 0
M  V30 7781 H 721.041 1.42435 -2.1115 0
M  V30 7782 H 721.824 0.375008 -3.41246 0
M  V30 7783 N 724.269 1.44576 0.627338 0
M  V30 7784 C 725.68 1.42266 1.20902 0
M  V30 7785 C 726.031 0.139964 1.957 0
M  V30 7786 O 725.156 -0.759489 2.02634 0
M  V30 7787 C 725.751 2.57727 2.19914 0
M  V30 7788 C 724.31 2.58599 2.73502 0
M  V30 7789 C 723.457 2.34145 1.48564 0
M  V30 7790 H 726.408 1.53102 0.417791 0
M  V30 7791 H 726.429 2.30697 3.02588 0
M  V30 7792 H 725.941 3.51068 1.65447 0
M  V30 7793 H 724.042 1.6921 3.31962 0
M  V30 7794 H 724.155 3.57205 3.19282 0
M  V30 7795 H 722.519 1.83313 1.76829 0
M  V30 7796 H 723.302 3.29606 0.959935 0
M  V30 7797 N 725.747 -0.868086 1.31537 0
M  V30 7798 C 726.995 -1.61807 1.21091 0
M  V30 7799 C 727.316 -1.93631 -0.230623 0
M  V30 7800 O 726.586 -1.5846 -1.15183 0
M  V30 7801 H 725.166 -0.599854 0.445178 0
M  V30 7802 H 727.828 -1.03915 1.64887 0
M  V30 7803 H 726.924 -2.56088 1.78396 0
M  V30 7804 N 727.225 -1.14528 -1.08264 0
M  V30 7805 C 728.135 -0.84728 -2.18765 0
M  V30 7806 C 729.151 0.172826 -1.7314 0
M  V30 7807 O 730.327 0.000985336 -2.014 0
M  V30 7808 C 727.392 -0.330633 -3.4512 0
M  V30 7809 C 726.453 -1.41348 -4.05363 0
M  V30 7810 C 725.686 -0.921387 -5.25686 0
M  V30 7811 O 725.909 0.236587 -5.69909 0
M  V30 7812 O 724.843 -1.70101 -5.77364 0
M  V30 7813 H 728.669 -1.7708 -2.46731 0
M  V30 7814 H 726.254 -0.923661 -1.17426 0
M  V30 7815 H 728.136 -0.0485053 -4.21372 0
M  V30 7816 H 726.811 0.565147 -3.18728 0
M  V30 7817 H 725.718 -1.74908 -3.30693 0
M  V30 7818 H 727.051 -2.28383 -4.36007 0
M  V30 7819 N 728.703 1.26451 -0.940633 0
M  V30 7820 C 729.933 1.97581 -0.603766 0
M  V30 7821 C 730.341 1.70246 0.825395 0
M  V30 7822 O 729.684 0.967001 1.56188 0
M  V30 7823 C 729.746 3.51256 -0.765463 0
M  V30 7824 C 729.41 4.0224 -2.16915 0
M  V30 7825 C 730.407 4.1402 -3.14457 0
M  V30 7826 C 728.092 4.36263 -2.48958 0
M  V30 7827 C 730.086 4.59117 -4.42143 0
M  V30 7828 C 727.773 4.81048 -3.76877 0
M  V30 7829 C 728.771 4.92436 -4.73282 0
M  V30 7830 O 728.459 5.36234 -5.98923 0
M  V30 7831 H 728.191 0.636948 -0.226436 0
M  V30 7832 H 730.745 1.61941 -1.2635 0
M  V30 7833 H 728.975 3.86669 -0.0485956 0
M  V30 7834 H 730.664 4.03597 -0.431738 0
M  V30 7835 H 731.43 3.87981 -2.91026 0
M  V30 7836 H 727.309 4.26634 -1.74656 0
M  V30 7837 H 730.853 4.6792 -5.17394 0
M  V30 7838 H 726.75 5.06531 -4.00121 0
M  V30 7839 H 727.518 5.54456 -6.02097 0
M  V30 7840 N 730.181 0.707592 1.40822 0
M  V30 7841 C 731.427 0.244031 2.01326 0
M  V30 7842 C 731.76 -1.15722 1.55955 0
M  V30 7843 O 731.035 -1.78347 0.776044 0
M  V30 7844 C 731.318 0.315128 3.58718 0
M  V30 7845 C 731.171 1.75419 4.14184 0
M  V30 7846 C 732.49 -0.318251 4.38948 0
M  V30 7847 H 729.609 0.0901471 0.731466 0
M  V30 7848 H 732.251 0.898584 1.67408 0
M  V30 7849 H 730.401 -0.242176 3.87744 0
M  V30 7850 H 732.073 2.36626 3.95987 0
M  V30 7851 H 730.316 2.28449 3.68773 0
M  V30 7852 H 730.987 1.75538 5.23345 0
M  V30 7853 H 733.463 0.156514 4.15806 0
M  V30 7854 H 732.339 -0.238019 5.48384 0
M  V30 7855 H 732.6 -1.40067 4.19325 0
M  V30 7856 N 731.66 -1.50943 0.453197 0
M  V30 7857 C 732.906 -2.02512 -0.108082 0
M  V30 7858 C 733.239 -1.33574 -1.40967 0
M  V30 7859 O 732.514 -0.455671 -1.89087 0
M  V30 7860 C 732.797 -3.58759 -0.310453 0
M  V30 7861 C 732.65 -4.38293 1.0109 0
M  V30 7862 C 733.969 -4.26816 -1.07313 0
M  V30 7863 H 731.088 -0.73603 -0.0378064 0
M  V30 7864 H 733.73 -1.80433 0.595295 0
M  V30 7865 H 731.88 -3.77702 -0.909582 0
M  V30 7866 H 733.552 -4.30964 1.64523 0
M  V30 7867 H 731.795 -4.02745 1.61179 0
M  V30 7868 H 732.466 -5.45828 0.82315 0
M  V30 7869 H 734.942 -4.1224 -0.565473 0
M  V30 7870 H 733.818 -5.35989 -1.1835 0
M  V30 7871 H 734.079 -3.88757 -2.10525 0
M  V30 7872 N 733.138 -0.185124 -1.56509 0
M  V30 7873 C 734.384 0.456934 -1.97585 0
M  V30 7874 C 734.717 1.61957 -1.07161 0
M  V30 7875 O 733.992 1.9412 -0.121546 0
M  V30 7876 C 734.275 0.926666 -3.47973 0
M  V30 7877 C 734.128 -0.237097 -4.49175 0
M  V30 7878 C 735.447 1.79561 -4.01803 0
M  V30 7879 H 732.566 0.164619 -0.71838 0
M  V30 7880 H 735.208 -0.274039 -1.88013 0
M  V30 7881 H 733.358 1.54954 -3.56261 0
M  V30 7882 H 735.03 -0.87454 -4.52934 0
M  V30 7883 H 733.273 -0.890446 -4.24563 0
M  V30 7884 H 733.944 0.133924 -5.51838 0
M  V30 7885 H 736.42 1.27039 -3.96232 0
M  V30 7886 H 735.296 2.09327 -5.07418 0
M  V30 7887 H 735.557 2.74629 -3.46455 0
M  V30 7888 N 734.616 1.57351 0.0885366 0
M  V30 7889 C 736.027 1.75303 0.642308 0
M  V30 7890 C 736.378 0.808238 1.78779 0
M  V30 7891 O 735.503 -0.01171 2.16397 0
M  V30 7892 C 736.098 3.17885 1.17194 0
M  V30 7893 C 734.657 3.37239 1.67172 0
M  V30 7894 C 733.804 2.7108 0.584045 0
M  V30 7895 H 736.755 1.58103 -0.137567 0
M  V30 7896 H 736.776 3.2112 2.04114 0
M  V30 7897 H 736.288 3.86625 0.338024 0
M  V30 7898 H 734.389 2.73588 2.52943 0
M  V30 7899 H 734.502 4.45594 1.76019 0
M  V30 7900 H 732.866 2.33161 1.02508 0
M  V30 7901 H 733.649 3.42464 -0.239403 0
M  V30 7902 N 736.094 -0.359525 1.53444 0
M  V30 7903 C 737.319 -1.12644 1.74144 0
M  V30 7904 C 737.744 -1.82082 0.472007 0
M  V30 7905 O 737.102 -1.71962 -0.57436 0
M  V30 7906 C 737.15 -2.12781 2.9113 0
M  V30 7907 O 736.254 -3.19984 2.60162 0
M  V30 7908 H 735.595 -0.326553 0.578152 0
M  V30 7909 H 738.125 -0.414798 2.00351 0
M  V30 7910 H 738.135 -2.56278 3.17467 0
M  V30 7911 H 736.81 -1.61634 3.83207 0
M  V30 7912 H 735.387 -2.81417 2.44661 0
M  V30 7913 N 737.572 -1.44907 -0.619662 0
M  V30 7914 C 738.8 -1.51795 -1.40591 0
M  V30 7915 C 739.215 -0.146553 -1.8823 0
M  V30 7916 O 738.572 0.849698 -1.61513 0
M  V30 7917 C 738.623 -2.49229 -2.61853 0
M  V30 7918 O 738.344 -3.81039 -2.16197 0
M  V30 7919 C 739.845 -2.65696 -3.54853 0
M  V30 7920 H 737.065 -0.514463 -0.430777 0
M  V30 7921 H 739.609 -1.8998 -0.756813 0
M  V30 7922 H 737.764 -2.14149 -3.2283 0
M  V30 7923 H 738.178 -4.33747 -2.94896 0
M  V30 7924 H 739.652 -3.37874 -4.36515 0
M  V30 7925 H 740.129 -1.71316 -4.0441 0
M  V30 7926 H 740.735 -3.01724 -2.99737 0
M  V30 7927 N 739.05 0.861098 -1.31996 0
M  V30 7928 C 740.297 1.61481 -1.22188 0
M  V30 7929 C 740.625 1.93276 0.217853 0
M  V30 7930 O 739.88 1.56942 1.16909 0
M  V30 7931 C 740.179 2.94822 -2.02027 0
M  V30 7932 C 739.845 2.82483 -3.51446 0
M  V30 7933 C 738.507 2.78825 -3.92186 0
M  V30 7934 C 740.859 2.68878 -4.46491 0
M  V30 7935 C 738.187 2.59433 -5.26224 0
M  V30 7936 C 740.539 2.51022 -5.80664 0
M  V30 7937 C 739.203 2.45753 -6.20614 0
M  V30 7938 H 738.473 0.590902 -0.447119 0
M  V30 7939 H 741.12 0.999376 -1.63355 0
M  V30 7940 H 739.425 3.6045 -1.53569 0
M  V30 7941 H 741.122 3.52149 -1.91812 0
M  V30 7942 H 737.712 2.86152 -3.19085 0
M  V30 7943 H 741.896 2.70754 -4.1594 0
M  V30 7944 H 737.152 2.53784 -5.5624 0
M  V30 7945 H 741.326 2.39473 -6.53931 0
M  V30 7946 H 738.953 2.30485 -7.24417 0
M  V30 7947 N 740.528 1.15101 1.07655 0
M  V30 7948 C 741.438 0.858869 2.18313 0
M  V30 7949 C 742.454 -0.163641 1.73229 0
M  V30 7950 O 743.63 0.00969541 2.01398 0
M  V30 7951 C 740.695 0.34893 3.4494 0
M  V30 7952 C 739.756 1.43495 4.04608 0
M  V30 7953 C 738.989 0.949253 5.2519 0
M  V30 7954 O 739.212 -0.20636 5.70027 0
M  V30 7955 O 738.146 1.73161 5.76454 0
M  V30 7956 H 741.972 1.78386 2.45788 0
M  V30 7957 H 739.557 0.929876 1.16934 0
M  V30 7958 H 741.439 0.070851 4.2134 0
M  V30 7959 H 740.114 -0.548237 3.19024 0
M  V30 7960 H 739.021 1.7666 3.29761 0
M  V30 7961 H 740.354 2.30692 4.3479 0
M  V30 7962 N 742.006 -1.2595 0.947325 0
M  V30 7963 C 743.417 -1.75389 0.639963 0
M  V30 7964 C 743.768 -1.77081 -0.844788 0
M  V30 7965 O 742.893 -1.3869 -1.66114 0
M  V30 7966 C 743.488 -3.18506 1.15496 0
M  V30 7967 C 742.047 -3.65534 0.897894 0
M  V30 7968 C 741.194 -2.44818 1.30228 0
M  V30 7969 H 744.145 -1.1194 1.12495 0
M  V30 7970 H 744.166 -3.77045 0.511627 0
M  V30 7971 H 743.678 -3.17243 2.23559 0
M  V30 7972 H 741.779 -3.72221 -0.168096 0
M  V30 7973 H 741.892 -4.54039 1.52922 0
M  V30 7974 H 740.256 -2.44291 0.720678 0
M  V30 7975 H 741.039 -2.46251 2.39198 0
M  V30 7976 N 743.484 -0.715051 -1.40445 0
M  V30 7977 C 744.432 -0.0509974 -2.32544 0
M  V30 7978 C 745.426 0.747602 -1.52011 0
M  V30 7979 O 746.632 0.651031 -1.67814 0
M  V30 7980 H 743.007 0.00231113 -0.751996 0
M  V30 7981 H 744.978 -0.84449 -2.86201 0
M  V30 7982 C 743.727 0.857101 -3.3697 0
M  V30 7983 H 743.05 0.252 -3.99005 0
M  V30 7984 H 744.49 1.28971 -4.03909 0
M  V30 7985 C 742.949 1.98231 -2.72408 0
M  V30 7986 O 743.479 3.07309 -2.58697 0
M  V30 7987 N 741.685 1.76577 -2.308 0
M  V30 7988 H 741.232 0.878641 -2.42152 0
M  V30 7989 H 741.19 2.52043 -1.87941 0
M  V30 7990 N 744.962 1.50701 -0.461195 0
M  V30 7991 C 745.909 2.2831 0.338094 0
M  V30 7992 C 746.879 1.32928 0.995957 0
M  V30 7993 O 748.064 1.61857 1.0103 0
M  V30 7994 C 745.204 3.14539 1.41983 0
M  V30 7995 C 744.317 4.24942 0.77773 0
M  V30 7996 C 743.452 4.98443 1.83652 0
M  V30 7997 C 742.491 6.00733 1.17413 0
M  V30 7998 N 741.628 6.6755 2.17533 0
M  V30 7999 H 746.468 2.96167 -0.330051 0
M  V30 8000 H 744.005 1.4606 -0.174611 0
M  V30 8001 H 745.963 3.62877 2.05855 0
M  V30 8002 H 744.593 2.48749 2.05727 0
M  V30 8003 H 743.645 3.80391 0.0266924 0
M  V30 8004 H 744.957 4.98151 0.254362 0
M  V30 8005 H 744.111 5.50449 2.55129 0
M  V30 8006 H 742.85 4.24917 2.39367 0
M  V30 8007 H 741.855 5.47997 0.444944 0
M  V30 8008 H 743.08 6.76227 0.624006 0
M  V30 8009 H 741.026 5.96823 2.72284 0
M  V30 8010 H 740.943 7.36603 1.70154 0
M  V30 8011 H 742.211 7.24178 2.88421 0
M  V30 8012 N 746.441 0.193421 1.56409 0
M  V30 8013 C 747.351 -0.740112 2.2262 0
M  V30 8014 C 748.367 -1.23597 1.22474 0
M  V30 8015 O 749.543 -1.28348 1.55206 0
M  V30 8016 C 746.608 -1.94317 2.87127 0
M  V30 8017 C 745.669 -1.49205 4.02538 0
M  V30 8018 C 744.902 -2.63776 4.63959 0
M  V30 8019 O 745.125 -3.81215 4.24301 0
M  V30 8020 O 744.059 -2.36585 5.53454 0
M  V30 8021 H 747.885 -0.206238 3.02999 0
M  V30 8022 H 745.47 -0.0357938 1.49357 0
M  V30 8023 H 747.352 -2.64633 3.27944 0
M  V30 8024 H 746.027 -2.46568 2.09728 0
M  V30 8025 H 744.934 -0.757738 3.66346 0
M  V30 8026 H 746.267 -1.01622 4.81595 0
M  V30 8027 N 747.919 -1.57396 -0.0801906 0
M  V30 8028 C 749.167 -1.86467 -0.779384 0
M  V30 8029 C 749.488 -0.784243 -1.78535 0
M  V30 8030 O 748.758 0.187986 -1.94996 0
M  V30 8031 H 747.338 -0.68806 -0.29083 0
M  V30 8032 H 750 -1.94813 -0.0582749 0
M  V30 8033 H 749.096 -2.83701 -1.30078 0
M  V30 8034 N 749.397 0.351382 -1.53633 0
M  V30 8035 C 750.674 1.10903 -1.6112 0
M  V30 8036 C 751.054 2.06725 -0.427556 0
M  V30 8037 O 750.402 2.20992 0.580916 0
M  V30 8038 C 750.612 1.83561 -2.96827 0
M  V30 8039 C 751.96 2.37587 -3.51906 0
M  V30 8040 O 752.984 1.93669 -2.9895 0
M  V30 8041 O 751.843 3.17913 -4.44515 0
M  V30 8042 H 748.937 0.509558 -0.651368 0
M  V30 8043 H 751.483 0.353504 -1.65977 0
M  V30 8044 H 750.255 1.1371 -3.74414 0
M  V30 8045 H 749.878 2.6599 -2.95525 0
M  V30 8046 N 750.875 1.45233 0.611969 0
M  V30 8047 C 752.122 1.49021 1.37109 0
M  V30 8048 C 752.45 0.130227 1.94064 0
M  V30 8049 O 751.705 -0.870551 1.75271 0
M  V30 8050 C 752.004 2.51353 2.54079 0
M  V30 8051 C 751.67 3.96178 2.15299 0
M  V30 8052 C 750.332 4.35614 2.04436 0
M  V30 8053 C 752.684 4.87275 1.84966 0
M  V30 8054 C 750.012 5.64047 1.61456 0
M  V30 8055 C 752.364 6.16115 1.43474 0
M  V30 8056 C 751.028 6.54486 1.31167 0
M  V30 8057 H 750.298 0.545307 0.501719 0
M  V30 8058 H 752.945 1.78555 0.692122 0
M  V30 8059 H 751.25 2.15372 3.27295 0
M  V30 8060 H 752.947 2.51523 3.12309 0
M  V30 8061 H 749.537 3.6499 2.24678 0
M  V30 8062 H 753.721 4.57548 1.92258 0
M  V30 8063 H 748.977 5.92575 1.50547 0
M  V30 8064 H 753.151 6.86149 1.19048 0
M  V30 8065 H 750.778 7.53904 0.97637 0
M  V30 8066 N 752.353 -0.854086 1.3245 0
M  V30 8067 C 753.599 -1.61069 1.23225 0
M  V30 8068 C 753.932 -1.93111 -0.205349 0
M  V30 8069 O 753.207 -1.57397 -1.14265 0
M  V30 8070 C 753.49 -2.93065 2.09249 0
M  V30 8071 C 753.343 -2.67801 3.6139 0
M  V30 8072 C 754.662 -3.94341 1.95406 0
M  V30 8073 H 751.781 -0.584449 0.448986 0
M  V30 8074 H 754.423 -0.986189 1.62402 0
M  V30 8075 H 752.573 -3.46364 1.75967 0
M  V30 8076 H 754.245 -2.21052 4.04887 0
M  V30 8077 H 752.488 -2.01756 3.84027 0
M  V30 8078 H 753.159 -3.6179 4.16907 0
M  V30 8079 H 755.635 -3.50301 2.24562 0
M  V30 8080 H 754.511 -4.84555 2.57872 0
M  V30 8081 H 754.772 -4.32382 0.921865 0
M  V30 8082 N 753.831 -1.1567 -1.07043 0
M  V30 8083 C 754.761 -0.879348 -2.16309 0
M  V30 8084 C 755.742 0.171311 -1.69235 0
M  V30 8085 O 756.927 0.0250175 -1.94184 0
M  V30 8086 C 754.057 -0.371307 -3.45309 0
M  V30 8087 C 753.011 -1.359 -4.05851 0
M  V30 8088 C 752.337 -0.709678 -5.29969 0
M  V30 8089 C 753.637 -2.72606 -4.45514 0
M  V30 8090 H 755.331 -1.79308 -2.39768 0
M  V30 8091 H 752.877 -0.863558 -1.15233 0
M  V30 8092 H 754.83 -0.164798 -4.21078 0
M  V30 8093 H 753.554 0.577906 -3.21446 0
M  V30 8094 H 752.213 -1.55193 -3.32131 0
M  V30 8095 H 751.861 0.245782 -5.02399 0
M  V30 8096 H 751.561 -1.36886 -5.71433 0
M  V30 8097 H 753.085 -0.513015 -6.08441 0
M  V30 8098 H 754.499 -2.57141 -5.12398 0
M  V30 8099 H 752.896 -3.34927 -4.97939 0
M  V30 8100 H 753.966 -3.28434 -3.56734 0
M  V30 8101 N 755.309 1.25446 -0.953992 0
M  V30 8102 C 756.725 1.4539 -0.658316 0
M  V30 8103 C 756.925 1.85607 0.784356 0
M  V30 8104 O 755.981 1.98568 1.55972 0
M  V30 8105 C 757.294 2.52643 -1.6307 0
M  V30 8106 C 758.842 2.66484 -1.64181 0
M  V30 8107 C 759.317 3.76921 -2.60182 0
M  V30 8108 N 760.808 3.84331 -2.58542 0
M  V30 8109 C 761.543 4.69271 -3.29503 0
M  V30 8110 N 761.039 5.58503 -4.09934 0
M  V30 8111 N 762.832 4.6323 -3.18393 0
M  V30 8112 H 754.983 0.976337 -1.8863 0
M  V30 8113 H 757.246 0.490343 -0.811337 0
M  V30 8114 H 756.952 2.29949 -2.66114 0
M  V30 8115 H 756.826 3.50547 -1.39271 0
M  V30 8116 H 759.213 2.88545 -0.618552 0
M  V30 8117 H 759.294 1.68982 -1.92038 0
M  V30 8118 H 758.938 3.55612 -3.62633 0
M  V30 8119 H 758.868 4.73906 -2.29609 0
M  V30 8120 H 761.359 3.20544 -2.0015 0
M  V30 8121 H 761.672 6.20241 -4.61 0
M  V30 8122 H 760.017 5.58214 -4.14032 0
M  V30 8123 H 763.208 3.92527 -2.5503 0
M  V30 8124 H 763.381 5.29204 -3.73961 0
M  V30 8125 N 756.787 0.722489 1.40064 0
M  V30 8126 C 758.034 0.264979 2.00759 0
M  V30 8127 C 758.362 -1.14395 1.57302 0
M  V30 8128 O 757.617 -1.79165 0.787298 0
M  V30 8129 C 757.916 0.300682 3.56133 0
M  V30 8130 C 757.582 1.66087 4.19197 0
M  V30 8131 C 756.244 2.03319 4.36136 0
M  V30 8132 C 758.596 2.55452 4.54306 0
M  V30 8133 C 755.924 3.29448 4.8547 0
M  V30 8134 C 758.276 3.8094 5.05042 0
M  V30 8135 C 756.94 4.1828 5.2019 0
M  V30 8136 H 756.21 0.0969625 0.734629 0
M  V30 8137 H 758.857 0.926877 1.67575 0
M  V30 8138 H 757.162 -0.44479 3.89267 0
M  V30 8139 H 758.859 -0.0712542 4.00937 0
M  V30 8140 H 755.449 1.36137 4.06405 0
M  V30 8141 H 759.633 2.27961 4.40849 0
M  V30 8142 H 754.889 3.58338 4.95382 0
M  V30 8143 H 759.063 4.50351 5.31184 0
M  V30 8144 H 756.69 5.16081 5.58179 0
M  V30 8145 N 758.265 -1.50454 0.469181 0
M  V30 8146 C 759.512 -2.02315 -0.086469 0
M  V30 8147 C 759.84 -1.3513 -1.39893 0
M  V30 8148 O 759.095 -0.465341 -1.90087 0
M  V30 8149 C 759.394 -3.55963 -0.320207 0
M  V30 8150 C 759.06 -4.41615 0.910318 0
M  V30 8151 C 757.722 -4.64743 1.2477 0
M  V30 8152 C 760.074 -4.91661 1.72971 0
M  V30 8153 C 757.402 -5.35161 2.40457 0
M  V30 8154 C 759.754 -5.6335 2.87785 0
M  V30 8155 C 758.418 -5.84732 3.2194 0
M  V30 8156 H 757.688 -0.740324 -0.0316412 0
M  V30 8157 H 760.335 -1.81087 0.622872 0
M  V30 8158 H 758.64 -3.75695 -1.11177 0
M  V30 8159 H 760.337 -3.93653 -0.764071 0
M  V30 8160 H 756.927 -4.23833 0.637467 0
M  V30 8161 H 761.111 -4.73649 1.48224 0
M  V30 8162 H 756.367 -5.49924 2.67196 0
M  V30 8163 H 760.541 -6.0111 3.51624 0
M  V30 8164 H 758.168 -6.39074 4.1169 0
M  V30 8165 N 759.743 -0.201713 -1.56304 0
M  V30 8166 C 760.968 0.443815 -2.02596 0
M  V30 8167 C 761.393 1.53945 -1.08086 0
M  V30 8168 O 760.751 1.81182 -0.0655056 0
M  V30 8169 C 760.799 0.971066 -3.47279 0
M  V30 8170 O 759.903 2.0836 -3.55893 0
M  V30 8171 H 759.244 0.10294 -0.655972 0
M  V30 8172 H 761.774 -0.314533 -2.02168 0
M  V30 8173 H 761.784 1.28598 -3.87204 0
M  V30 8174 H 760.459 0.169048 -4.15556 0
M  V30 8175 H 759.036 1.77683 -3.27846 0
M  V30 8176 N 761.222 1.57436 0.0718424 0
M  V30 8177 C 762.132 2.07039 1.10326 0
M  V30 8178 C 763.148 0.999918 1.424 0
M  V30 8179 O 764.324 1.31462 1.52577 0
M  V30 8180 C 761.389 2.50439 2.39752 0
M  V30 8181 C 760.45 3.71784 2.14651 0
M  V30 8182 C 759.683 4.13104 3.37906 0
M  V30 8183 O 759.906 3.54298 4.47023 0
M  V30 8184 O 758.84 5.05894 3.26121 0
M  V30 8185 H 762.666 2.95239 0.711872 0
M  V30 8186 H 760.251 1.46638 0.28597 0
M  V30 8187 H 762.133 2.78876 3.15921 0
M  V30 8188 H 760.808 1.65368 2.78271 0
M  V30 8189 H 759.715 3.48431 1.36187 0
M  V30 8190 H 761.048 4.57707 1.81012 0
M  V30 8191 N 762.7 -0.34323 1.53817 0
M  V30 8192 C 763.647 -1.42153 1.81827 0
M  V30 8193 C 764.617 -1.52251 0.663996 0
M  V30 8194 O 765.802 -1.67784 0.908461 0
M  V30 8195 C 762.942 -2.78799 2.03384 0
M  V30 8196 C 762.055 -2.7749 3.31094 0
M  V30 8197 C 761.19 -4.05856 3.42717 0
M  V30 8198 C 760.229 -3.98776 4.64375 0
M  V30 8199 N 759.366 -5.18833 4.73029 0
M  V30 8200 H 764.206 -1.17567 2.73829 0
M  V30 8201 H 761.743 -0.569506 1.35628 0
M  V30 8202 H 763.701 -3.58211 2.13872 0
M  V30 8203 H 762.331 -3.01736 1.14696 0
M  V30 8204 H 761.383 -1.90182 3.29446 0
M  V30 8205 H 762.695 -2.68137 4.206 0
M  V30 8206 H 761.849 -4.93691 3.52638 0
M  V30 8207 H 760.588 -4.1799 2.51267 0
M  V30 8208 H 759.593 -3.09325 4.5453 0
M  V30 8209 H 760.818 -3.88224 5.57189 0
M  V30 8210 H 758.764 -5.31511 3.84489 0
M  V30 8211 H 758.681 -5.11737 5.56472 0
M  V30 8212 H 759.949 -6.08439 4.87261 0
M  V30 8213 N 764.178 -1.45556 -0.604258 0
M  V30 8214 C 765.403 -1.53509 -1.39462 0
M  V30 8215 C 765.828 -0.169638 -1.87333 0
M  V30 8216 O 765.186 0.846346 -1.60333 0
M  V30 8217 C 765.234 -2.52654 -2.5729 0
M  V30 8218 O 764.338 -2.04666 -3.5803 0
M  V30 8219 H 763.679 -0.517355 -0.416221 0
M  V30 8220 H 766.209 -1.90939 -0.735072 0
M  V30 8221 H 766.219 -2.71568 -3.04491 0
M  V30 8222 H 764.894 -3.51823 -2.21797 0
M  V30 8223 H 763.471 -1.95643 -3.17456 0
M  V30 8224 N 765.656 0.84705 -1.32902 0
M  V30 8225 C 766.619 1.9378 -1.224 0
M  V30 8226 C 767.619 1.60144 -0.145108 0
M  V30 8227 O 768.809 1.69638 -0.396058 0
M  V30 8228 C 765.941 3.29234 -0.884174 0
M  V30 8229 H 767.134 2.04518 -2.19345 0
M  V30 8230 H 764.687 1.03816 -1.16842 0
M  V30 8231 H 765.422 3.24193 0.0831277 0
M  V30 8232 H 765.207 3.55026 -1.6643 0
M  V30 8233 H 766.697 4.09162 -0.835226 0
M  V30 8234 N 767.134 1.16236 1.06428 0
M  V30 8235 C 768.382 0.941171 1.78847 0
M  V30 8236 C 768.703 -0.53248 1.87589 0
M  V30 8237 O 767.973 -1.38686 1.38358 0
M  V30 8238 H 766.553 0.345228 0.66244 0
M  V30 8239 H 769.215 1.46479 1.28569 0
M  V30 8240 H 768.311 1.35871 2.80972 0
M  V30 8241 N 768.612 -1.24939 0.960631 0
M  V30 8242 C 769.84 -1.96881 0.636045 0
M  V30 8243 C 770.255 -1.71334 -0.793093 0
M  V30 8244 O 769.612 -0.992917 -1.53125 0
M  V30 8245 C 769.663 -3.50309 0.892533 0
M  V30 8246 O 769.384 -3.74977 2.26548 0
M  V30 8247 C 770.885 -4.39474 0.581159 0
M  V30 8248 H 768.105 -0.627399 0.237931 0
M  V30 8249 H 770.649 -1.58952 1.28664 0
M  V30 8250 H 768.804 -3.86326 0.288257 0
M  V30 8251 H 769.218 -4.69401 2.34014 0
M  V30 8252 H 770.692 -5.46008 0.811125 0
M  V30 8253 H 771.169 -4.3652 -0.48443 0
M  V30 8254 H 771.775 -4.09032 1.16502 0
M  V30 8255 N 770.09 -0.729906 -1.39679 0
M  V30 8256 C 771.336 -0.27603 -2.00913 0
M  V30 8257 C 771.669 1.13227 -1.57776 0
M  V30 8258 O 770.944 1.7709 -0.804319 0
M  V30 8259 C 771.227 -0.372157 -3.58172 0
M  V30 8260 C 771.08 -1.81986 -4.11341 0
M  V30 8261 C 772.399 0.248378 -4.39399 0
M  V30 8262 H 769.518 -0.101773 -0.729939 0
M  V30 8263 H 772.16 -0.925104 -1.65957 0
M  V30 8264 H 770.31 0.180459 -3.88081 0
M  V30 8265 H 771.982 -2.42896 -3.92172 0
M  V30 8266 H 770.225 -2.34287 -3.65092 0
M  V30 8267 H 770.896 -1.83842 -5.20486 0
M  V30 8268 H 773.372 -0.222645 -4.15504 0
M  V30 8269 H 772.248 0.150746 -5.48693 0
M  V30 8270 H 772.509 1.33378 -4.21501 0
M  V30 8271 N 771.568 1.50203 -0.477153 0
M  V30 8272 C 772.478 2.32421 0.319027 0
M  V30 8273 C 773.494 1.43075 0.990233 0
M  V30 8274 O 774.67 1.76123 0.976873 0
M  V30 8275 C 771.735 3.17909 1.38328 0
M  V30 8276 C 770.796 4.23082 0.728036 0
M  V30 8277 C 770.029 5.04484 1.74158 0
M  V30 8278 O 770.252 4.8705 2.96881 0
M  V30 8279 O 769.186 5.8747 1.31006 0
M  V30 8280 H 773.012 3.01638 -0.353281 0
M  V30 8281 H 770.597 1.47478 -0.238891 0
M  V30 8282 H 772.479 3.70937 1.9996 0
M  V30 8283 H 771.154 2.51413 2.03895 0
M  V30 8284 H 770.061 3.7403 0.07261 0
M  V30 8285 H 771.394 4.92065 0.115216 0
M  V30 8286 N 773.046 0.209999 1.56195 0
M  V30 8287 C 773.976 -0.699746 2.22769 0
M  V30 8288 C 774.957 -1.20993 1.1956 0
M  V30 8289 O 776.142 -1.25605 1.48112 0
M  V30 8290 C 773.272 -1.91302 2.89863 0
M  V30 8291 C 772.226 -1.53715 3.99444 0
M  V30 8292 C 771.552 -2.82826 4.53777 0
M  V30 8293 C 772.852 -0.735836 5.17091 0
M  V30 8294 H 774.546 -0.144716 2.9905 0
M  V30 8295 H 772.092 -0.0681645 1.43839 0
M  V30 8296 H 774.045 -2.5548 3.35124 0
M  V30 8297 H 772.769 -2.49283 2.11011 0
M  V30 8298 H 771.428 -0.918892 3.54897 0
M  V30 8299 H 771.076 -3.38927 3.71669 0
M  V30 8300 H 770.776 -2.58415 5.27727 0
M  V30 8301 H 772.3 -3.47966 5.01749 0
M  V30 8302 H 773.714 -1.28105 5.58804 0
M  V30 8303 H 772.111 -0.589272 5.972 0
M  V30 8304 H 773.181 0.260004 4.84202 0
M  V30 8305 N 774.524 -1.57472 -0.0634922 0
M  V30 8306 C 775.801 -1.78736 -0.794538 0
M  V30 8307 C 776.181 -0.799645 -1.95369 0
M  V30 8308 O 775.529 0.165521 -2.279 0
M  V30 8309 C 775.739 -3.25471 -1.25975 0
M  V30 8310 C 777.087 -3.89528 -1.68976 0
M  V30 8311 O 778.111 -3.29412 -1.35521 0
M  V30 8312 O 776.97 -4.95305 -2.30944 0
M  V30 8313 H 774.064 -0.733813 -0.381376 0
M  V30 8314 H 776.61 -1.69646 -0.0429258 0
M  V30 8315 H 775.382 -3.88922 -0.430721 0
M  V30 8316 H 775.005 -3.39317 -2.07243 0
M  V30 8317 N 776.003 0.335068 -1.53997 0
M  V30 8318 C 777.28 1.09188 -1.62288 0
M  V30 8319 C 777.66 2.0626 -0.449458 0
M  V30 8320 O 777.008 2.21596 0.557444 0
M  V30 8321 C 777.218 1.80403 -2.98757 0
M  V30 8322 C 778.566 2.33841 -3.54406 0
M  V30 8323 O 779.59 1.90487 -3.00987 0
M  V30 8324 O 778.449 3.1318 -4.47862 0
M  V30 8325 H 775.543 0.502621 -0.656736 0
M  V30 8326 H 778.089 0.33588 -1.66343 0
M  V30 8327 H 776.861 1.09732 -3.75599 0
M  V30 8328 H 776.484 2.62841 -2.9833 0
M  V30 8329 N 777.481 1.45874 0.596531 0
M  V30 8330 C 778.413 1.51408 1.7207 0
M  V30 8331 C 779.426 0.403738 1.57714 0
M  V30 8332 O 780.615 0.671384 1.65393 0
M  V30 8333 C 777.715 1.3652 3.10186 0
M  V30 8334 C 776.888 2.61428 3.50677 0
M  V30 8335 C 775.947 2.40937 4.67799 0
M  V30 8336 O 774.973 3.14602 4.74357 0
M  V30 8337 N 776.175 1.4621 5.61785 0
M  V30 8338 H 778.94 2.48333 1.67782 0
M  V30 8339 H 776.501 1.41755 0.782129 0
M  V30 8340 H 778.493 1.20606 3.86311 0
M  V30 8341 H 777.063 0.478302 3.08919 0
M  V30 8342 H 776.283 2.92381 2.644 0
M  V30 8343 H 777.571 3.44432 3.74491 0
M  V30 8344 H 776.969 0.854382 5.59211 0
M  V30 8345 H 775.526 1.36264 6.37397 0
M  V30 8346 N 778.959 -0.83999 1.33349 0
M  V30 8347 C 780.208 -1.59011 1.2409 0
M  V30 8348 C 780.521 -1.94655 -0.192029 0
M  V30 8349 O 781.727 -2.68438 -0.406617 0
M  V30 8350 C 780.183 -2.86801 2.17425 0
M  V30 8351 C 779.791 -2.58525 3.65881 0
M  V30 8352 C 781.535 -3.64823 2.17036 0
M  V30 8353 C 779.442 -3.82404 4.51133 0
M  V30 8354 H 778.372 -0.596731 0.460899 0
M  V30 8355 H 781.023 -0.926274 1.58406 0
M  V30 8356 H 779.405 -3.54719 1.7604 0
M  V30 8357 H 780.579 -1.98824 4.15699 0
M  V30 8358 H 778.894 -1.93808 3.68548 0
M  V30 8359 H 781.491 -4.56774 2.7796 0
M  V30 8360 H 781.834 -3.99663 1.16513 0
M  V30 8361 H 782.367 -3.03826 2.56777 0
M  V30 8362 H 779.106 -3.52696 5.52527 0
M  V30 8363 H 778.626 -4.41447 4.0606 0
M  V30 8364 H 780.305 -4.49995 4.6488 0
M  V30 8365 N 780.437 -1.16799 -1.0581 0
M  V30 8366 C 781.369 -0.836774 -2.13379 0
M  V30 8367 C 782.382 0.158116 -1.6203 0
M  V30 8368 O 783.571 -0.0673211 -1.78373 0
M  V30 8369 C 780.671 -0.225959 -3.38146 0
M  V30 8370 C 779.844 -1.26217 -4.18794 0
M  V30 8371 C 778.903 -0.670257 -5.21914 0
M  V30 8372 O 777.929 -1.34042 -5.53192 0
M  V30 8373 N 779.131 0.540683 -5.77977 0
M  V30 8374 H 781.896 -1.76257 -2.42391 0
M  V30 8375 H 779.457 -1.06599 -1.21853 0
M  V30 8376 H 781.449 0.18317 -4.04285 0
M  V30 8377 H 780.019 0.603494 -3.06719 0
M  V30 8378 H 779.239 -1.84729 -3.48237 0
M  V30 8379 H 780.527 -1.9613 -4.69479 0
M  V30 8380 H 779.925 1.10322 -5.54838 0
M  V30 8381 H 778.482 0.891958 -6.45668 0
M  V30 8382 N 781.915 1.24427 -0.967243 0
M  V30 8383 C 782.878 2.23637 -0.501927 0
M  V30 8384 C 783.878 1.55712 0.401283 0
M  V30 8385 O 785.068 1.73085 0.196808 0
M  V30 8386 C 782.2 3.39804 0.273176 0
M  V30 8387 H 783.393 2.66317 -1.37897 0
M  V30 8388 H 780.946 1.37033 -0.751783 0
M  V30 8389 H 781.681 3.02562 1.16733 0
M  V30 8390 H 781.466 3.90303 -0.37498 0
M  V30 8391 H 782.956 4.13443 0.587776 0
M  V30 8392 N 783.393 0.737304 1.3929 0
M  V30 8393 C 784.341 0.0879867 2.32434 0
M  V30 8394 C 785.335 -0.723324 1.53181 0
M  V30 8395 O 786.541 -0.624251 1.68829 0
M  V30 8396 H 782.916 0.00965277 0.751938 0
M  V30 8397 H 784.887 0.889915 2.84821 0
M  V30 8398 C 783.636 -0.803384 3.38291 0
M  V30 8399 H 782.959 -0.18849 3.99355 0
M  V30 8400 H 784.399 -1.22528 4.0591 0
M  V30 8401 C 782.858 -1.93872 2.75527 0
M  V30 8402 O 783.388 -3.03154 2.63553 0
M  V30 8403 N 781.594 -1.72883 2.3358 0
M  V30 8404 H 781.141 -0.840005 2.43519 0
M  V30 8405 H 781.099 -2.49021 1.91927 0
M  V30 8406 N 784.871 -1.49948 0.485112 0
M  V30 8407 C 785.801 -2.31675 -0.291364 0
M  V30 8408 C 786.782 -1.39216 -0.977383 0
M  V30 8409 O 787.967 -1.68133 -0.971855 0
M  V30 8410 C 785.097 -3.19326 -1.36558 0
M  V30 8411 C 784.051 -4.2045 -0.800359 0
M  V30 8412 C 783.377 -4.96931 -1.97391 0
M  V30 8413 C 784.677 -5.21925 0.197867 0
M  V30 8414 H 786.371 -2.96839 0.390775 0
M  V30 8415 H 783.917 -1.42749 0.189375 0
M  V30 8416 H 785.87 -3.75304 -1.91638 0
M  V30 8417 H 784.594 -2.52074 -2.07668 0
M  V30 8418 H 783.253 -3.65594 -0.271428 0
M  V30 8419 H 782.901 -4.26141 -2.67232 0
M  V30 8420 H 782.601 -5.65344 -1.60187 0
M  V30 8421 H 784.125 -5.55749 -2.52935 0
M  V30 8422 H 785.539 -5.72691 -0.264239 0
M  V30 8423 H 783.936 -5.98138 0.484908 0
M  V30 8424 H 785.006 -4.71809 1.11912 0
M  V30 8425 N 786.349 -0.21828 -1.56081 0
M  V30 8426 C 787.76 0.290166 -1.84431 0
M  V30 8427 C 788.111 1.59712 -1.13958 0
M  V30 8428 O 787.236 2.12516 -0.40815 0
M  V30 8429 C 787.831 0.53325 -3.34577 0
M  V30 8430 C 786.39 0.986011 -3.63256 0
M  V30 8431 C 785.537 0.0472798 -2.7726 0
M  V30 8432 H 788.488 -0.441548 -1.52434 0
M  V30 8433 H 788.509 1.37967 -3.54606 0
M  V30 8434 H 788.021 -0.418137 -3.85841 0
M  V30 8435 H 786.122 1.95087 -3.17446 0
M  V30 8436 H 786.235 0.862684 -4.71269 0
M  V30 8437 H 784.599 0.553471 -2.48614 0
M  V30 8438 H 785.382 -0.898966 -3.31321 0
M  V30 8439 N 787.827 1.57504 0.0551401 0
M  V30 8440 C 789.104 1.79155 0.785048 0
M  V30 8441 C 789.484 0.809995 1.94942 0
M  V30 8442 O 788.832 -0.153432 2.27984 0
M  V30 8443 C 789.042 3.26134 1.24247 0
M  V30 8444 C 790.39 3.90419 1.66908 0
M  V30 8445 O 791.414 3.30126 1.33772 0
M  V30 8446 O 790.273 4.96523 2.28314 0
M  V30 8447 H 787.367 0.735825 0.377479 0
M  V30 8448 H 789.913 1.69666 0.0339285 0
M  V30 8449 H 788.685 3.89145 0.410089 0
M  V30 8450 H 788.308 3.40411 2.05441 0
M  V30 8451 N 789.305 -0.326896 1.54172 0
M  V30 8452 C 790.215 -1.42525 1.86343 0
M  V30 8453 C 791.231 -1.56764 0.75505 0
M  V30 8454 O 792.407 -1.71924 1.04901 0
M  V30 8455 C 789.472 -2.77286 2.08119 0
M  V30 8456 C 788.533 -2.7225 3.31931 0
M  V30 8457 C 787.766 -4.00584 3.52659 0
M  V30 8458 O 787.989 -4.98686 2.76891 0
M  V30 8459 O 786.923 -4.04045 4.46129 0
M  V30 8460 H 790.749 -1.18249 2.79734 0
M  V30 8461 H 788.334 -0.520614 1.40036 0
M  V30 8462 H 790.216 -3.57065 2.23791 0
M  V30 8463 H 788.891 -3.01459 1.17917 0
M  V30 8464 H 787.798 -1.91033 3.21647 0
M  V30 8465 H 789.131 -2.53032 4.2218 0
M  V30 8466 N 790.784 -1.46188 -0.588786 0
M  V30 8467 C 791.716 -1.52319 -1.71265 0
M  V30 8468 C 792.729 -0.412096 -1.57498 0
M  V30 8469 O 793.918 -0.680146 -1.65034 0
M  V30 8470 C 791.018 -1.38164 -3.09458 0
M  V30 8471 C 790.191 -2.63284 -3.49286 0
M  V30 8472 C 789.25 -2.43415 -4.66514 0
M  V30 8473 O 788.276 -3.17113 -4.72682 0
M  V30 8474 N 789.478 -1.49187 -5.61002 0
M  V30 8475 H 792.243 -2.49219 -1.66463 0
M  V30 8476 H 789.804 -1.42167 -0.774601 0
M  V30 8477 H 791.796 -1.22653 -3.85666 0
M  V30 8478 H 790.366 -0.494678 -3.08661 0
M  V30 8479 H 789.586 -2.93779 -2.62845 0
M  V30 8480 H 790.874 -3.46413 -3.7266 0
M  V30 8481 H 790.272 -0.884027 -5.5875 0
M  V30 8482 H 788.829 -1.39642 -6.36666 0
M  V30 8483 N 792.262 0.832906 -1.33792 0
M  V30 8484 C 793.508 1.59089 -1.25772 0
M  V30 8485 C 793.841 1.93414 0.174601 0
M  V30 8486 O 793.116 1.59195 1.11746 0
M  V30 8487 C 793.399 2.89699 -2.13885 0
M  V30 8488 C 793.252 2.62017 -3.65605 0
M  V30 8489 C 794.571 3.91182 -2.01654 0
M  V30 8490 H 791.69 0.577232 -0.458227 0
M  V30 8491 H 794.332 0.960227 -1.6395 0
M  V30 8492 H 792.482 3.4352 -1.81456 0
M  V30 8493 H 794.154 2.14582 -4.08353 0
M  V30 8494 H 792.397 1.95621 -3.87189 0
M  V30 8495 H 793.068 3.55112 -4.2261 0
M  V30 8496 H 795.544 3.46684 -2.30107 0
M  V30 8497 H 794.42 4.80391 -2.65548 0
M  V30 8498 H 794.681 4.30861 -0.990536 0
M  V30 8499 N 793.74 1.17359 1.05189 0
M  V30 8500 C 794.67 0.91365 2.14883 0
M  V30 8501 C 795.651 -0.144365 1.69486 0
M  V30 8502 O 796.836 0.00587861 1.94199 0
M  V30 8503 C 793.966 0.426196 3.44675 0
M  V30 8504 C 792.92 1.4234 4.03638 0
M  V30 8505 C 792.246 0.793902 5.28773 0
M  V30 8506 C 793.546 2.7966 4.41121 0
M  V30 8507 H 795.24 1.831 2.36885 0
M  V30 8508 H 792.786 0.881781 1.13845 0
M  V30 8509 H 794.739 0.231767 4.20762 0
M  V30 8510 H 793.463 -0.526693 3.22325 0
M  V30 8511 H 792.122 1.60457 3.2962 0
M  V30 8512 H 791.77 -0.165824 5.02727 0
M  V30 8513 H 791.47 1.45959 5.69183 0
M  V30 8514 H 792.994 0.609747 6.07548 0
M  V30 8515 H 794.408 2.6526 5.08242 0
M  V30 8516 H 792.805 3.42807 4.92548 0
M  V30 8517 H 793.875 3.34068 3.51464 0
M  V30 8518 N 795.218 -1.23913 0.973828 0
M  V30 8519 C 796.443 -1.96735 0.656511 0
M  V30 8520 C 796.868 -1.71682 -0.768571 0
M  V30 8521 O 796.226 -0.984267 -1.52256 0
M  V30 8522 C 796.274 -3.48004 0.944735 0
M  V30 8523 O 795.378 -4.12387 0.0333357 0
M  V30 8524 H 794.719 -0.616119 0.247575 0
M  V30 8525 H 797.249 -1.57525 1.30564 0
M  V30 8526 H 797.259 -3.98424 0.87876 0
M  V30 8527 H 795.934 -3.65567 1.98328 0
M  V30 8528 H 794.511 -3.72585 0.153157 0
M  V30 8529 N 796.696 -0.74468 -1.38897 0
M  V30 8530 C 797.606 -0.112892 -2.34328 0
M  V30 8531 C 798.622 0.71087 -1.58816 0
M  V30 8532 O 799.798 0.637092 -1.91058 0
M  V30 8533 C 796.863 0.776417 -3.37894 0
M  V30 8534 C 795.924 -0.0606999 -4.29257 0
M  V30 8535 C 795.157 0.786258 -5.27877 0
M  V30 8536 O 795.38 2.02463 -5.33259 0
M  V30 8537 O 794.314 0.209781 -6.01534 0
M  V30 8538 H 798.14 -0.900801 -2.90033 0
M  V30 8539 H 795.725 -0.505462 -1.4059 0
M  V30 8540 H 797.607 1.28496 -4.01331 0
M  V30 8541 H 796.282 1.54297 -2.84559 0
M  V30 8542 H 795.189 -0.614984 -3.69011 0
M  V30 8543 H 796.522 -0.789702 -4.85824 0
M  V30 8544 N 798.174 1.49689 -0.493057 0
M  V30 8545 C 799.084 2.32746 0.294358 0
M  V30 8546 C 800.1 1.44117 0.975003 0
M  V30 8547 O 801.276 1.77149 0.958138 0
M  V30 8548 C 798.341 3.19358 1.34949 0
M  V30 8549 C 797.402 4.2383 0.683122 0
M  V30 8550 C 796.635 5.06303 1.68798 0
M  V30 8551 O 796.858 4.90172 2.91698 0
M  V30 8552 O 795.792 5.88826 1.24768 0
M  V30 8553 H 799.618 3.01247 -0.385254 0
M  V30 8554 H 797.203 1.47216 -0.254519 0
M  V30 8555 H 799.085 3.73037 1.96014 0
M  V30 8556 H 797.76 2.53561 2.01217 0
M  V30 8557 H 796.667 3.74086 0.0329351 0
M  V30 8558 H 798 4.9216 0.0630192 0
M  V30 8559 N 799.652 0.226554 1.55963 0
M  V30 8560 C 800.562 -0.692725 2.24139 0
M  V30 8561 C 801.578 -1.20971 1.25068 0
M  V30 8562 O 802.754 -1.25027 1.57893 0
M  V30 8563 C 799.819 -1.88183 2.91184 0
M  V30 8564 C 798.88 -1.40633 4.05612 0
M  V30 8565 C 798.113 -2.53875 4.6945 0
M  V30 8566 O 798.336 -3.72129 4.32292 0
M  V30 8567 O 797.27 -2.24792 5.58348 0
M  V30 8568 H 801.096 -0.141921 3.03368 0
M  V30 8569 H 798.681 -0.0041049 1.49399 0
M  V30 8570 H 800.563 -2.57617 3.33484 0
M  V30 8571 H 799.238 -2.42064 2.14911 0
M  V30 8572 H 798.145 -0.67986 3.67871 0
M  V30 8573 H 799.478 -0.913838 4.83642 0
M  V30 8574 N 801.13 -1.57531 -0.0467866 0
M  V30 8575 C 802.379 -1.87632 -0.740069 0
M  V30 8576 C 802.692 -0.822691 -1.77457 0
M  V30 8577 O 803.898 -1.01235 -2.5192 0
M  V30 8578 C 802.354 -3.32917 -1.36727 0
M  V30 8579 C 801.962 -4.46469 -0.370035 0
M  V30 8580 C 803.706 -3.72189 -2.04146 0
M  V30 8581 C 801.613 -5.82806 -1.00457 0
M  V30 8582 H 800.543 -0.70002 -0.280158 0
M  V30 8583 H 803.194 -1.83499 0.00607151 0
M  V30 8584 H 801.576 -3.31739 -2.16252 0
M  V30 8585 H 802.75 -4.59085 0.397217 0
M  V30 8586 H 801.065 -4.15914 0.201079 0
M  V30 8587 H 803.662 -4.71357 -2.52441 0
M  V30 8588 H 804.005 -3.03268 -2.85192 0
M  V30 8589 H 804.538 -3.75465 -1.3142 0
M  V30 8590 H 801.277 -6.55083 -0.233907 0
M  V30 8591 H 800.797 -5.73944 -1.74209 0
M  V30 8592 H 802.476 -6.28961 -1.51713 0
M  V30 8593 N 802.608 0.318715 -1.54344 0
M  V30 8594 C 803.885 1.07461 -1.63437 0
M  V30 8595 C 804.265 2.05771 -0.47131 0
M  V30 8596 O 803.613 2.22175 0.53391 0
M  V30 8597 C 803.823 1.77224 -3.00654 0
M  V30 8598 C 805.171 2.30069 -3.56866 0
M  V30 8599 O 806.195 1.87284 -3.0299 0
M  V30 8600 O 805.054 3.08412 -4.51159 0
M  V30 8601 H 802.148 0.495627 -0.66203 0
M  V30 8602 H 804.694 0.318218 -1.6669 0
M  V30 8603 H 803.466 1.05742 -3.76742 0
M  V30 8604 H 803.089 2.59662 -3.01101 0
M  V30 8605 N 804.086 1.46499 0.581025 0
M  V30 8606 C 804.996 1.59778 1.71779 0
M  V30 8607 C 806.012 0.481223 1.67213 0
M  V30 8608 O 807.188 0.74557 1.87091 0
M  V30 8609 C 804.253 1.58626 3.08283 0
M  V30 8610 C 803.314 2.81527 3.241 0
M  V30 8611 C 802.547 2.80421 4.54092 0
M  V30 8612 O 802.77 1.89262 5.38085 0
M  V30 8613 O 801.704 3.71984 4.73193 0
M  V30 8614 H 805.53 2.55918 1.63523 0
M  V30 8615 H 803.115 1.29311 0.748267 0
M  V30 8616 H 804.997 1.60686 3.89561 0
M  V30 8617 H 803.672 0.656467 3.16973 0
M  V30 8618 H 802.579 2.85021 2.42309 0
M  V30 8619 H 803.912 3.73721 3.20302 0
M  V30 8620 N 805.565 -0.825799 1.34232 0
M  V30 8621 C 806.513 -1.95792 1.25572 0
M  V30 8622 C 807.507 -1.68695 0.154404 0
M  V30 8623 O 808.713 -1.77147 0.319196 0
M  V30 8624 H 805.088 -0.642949 0.390027 0
M  V30 8625 H 807.059 -2.00219 2.21258 0
M  V30 8626 C 805.808 -3.32245 1.02511 0
M  V30 8627 H 805.131 -3.53642 1.86487 0
M  V30 8628 H 806.571 -4.1192 1.00487 0
M  V30 8629 C 805.03 -3.35803 -0.27167 0
M  V30 8630 O 805.56 -3.80962 -1.274 0
M  V30 8631 N 803.766 -2.89008 -0.303778 0
M  V30 8632 H 803.313 -2.52451 0.512464 0
M  V30 8633 H 803.271 -2.9177 -1.17121 0
M  V30 8634 N 807.043 -1.17915 -1.04565 0
M  V30 8635 C 808.29 -0.971424 -1.77678 0
M  V30 8636 C 808.618 0.499401 -1.87979 0
M  V30 8637 O 807.873 1.38695 -1.38066 0
M  V30 8638 C 808.172 -1.56528 -3.213 0
M  V30 8639 C 807.838 -3.06138 -3.31044 0
M  V30 8640 C 806.5 -3.46974 -3.33411 0
M  V30 8641 C 808.852 -4.02151 -3.31548 0
M  V30 8642 C 806.18 -4.82406 -3.33918 0
M  V30 8643 C 808.532 -5.37492 -3.33595 0
M  V30 8644 C 807.196 -5.77782 -3.34251 0
M  V30 8645 H 806.466 -0.355469 -0.650171 0
M  V30 8646 H 809.113 -1.46902 -1.22849 0
M  V30 8647 H 807.418 -0.98955 -3.79098 0
M  V30 8648 H 809.115 -1.38003 -3.76505 0
M  V30 8649 H 805.705 -2.73589 -3.29919 0
M  V30 8650 H 809.889 -3.71656 -3.28916 0
M  V30 8651 H 805.145 -5.12927 -3.3274 0
M  V30 8652 H 809.319 -6.1166 -3.32934 0
M  V30 8653 H 806.946 -6.82702 -3.34397 0
M  V30 8654 N 808.521 1.23394 -0.980386 0
M  V30 8655 C 809.468 2.24859 -0.520298 0
M  V30 8656 C 810.438 1.60144 0.440821 0
M  V30 8657 O 811.623 1.87593 0.348369 0
M  V30 8658 C 808.763 3.44675 0.171145 0
M  V30 8659 C 807.876 4.23947 -0.830233 0
M  V30 8660 C 807.011 5.31079 -0.113597 0
M  V30 8661 C 806.05 6.02058 -1.10419 0
M  V30 8662 N 805.187 7.00862 -0.416709 0
M  V30 8663 H 810.027 2.63579 -1.39032 0
M  V30 8664 H 807.564 1.29556 -0.696682 0
M  V30 8665 H 809.522 4.13024 0.588838 0
M  V30 8666 H 808.152 3.06755 1.00504 0
M  V30 8667 H 807.204 3.55016 -1.36631 0
M  V30 8668 H 808.516 4.72945 -1.58508 0
M  V30 8669 H 807.67 6.05622 0.36146 0
M  V30 8670 H 806.409 4.83022 0.673854 0
M  V30 8671 H 805.414 5.26307 -1.59 0
M  V30 8672 H 806.639 6.52203 -1.8923 0
M  V30 8673 H 804.585 6.55057 0.351535 0
M  V30 8674 H 804.502 7.47804 -1.11021 0
M  V30 8675 H 805.77 7.79492 0.0359606 0
M  V30 8676 N 809.999 0.752036 1.385 0
M  V30 8677 C 810.962 0.131587 2.28822 0
M  V30 8678 C 811.962 -0.649149 1.47115 0
M  V30 8679 O 813.152 -0.475645 1.67581 0
M  V30 8680 C 810.284 -0.822101 3.30839 0
M  V30 8681 H 811.477 0.927551 2.85196 0
M  V30 8682 H 809.03 0.518945 1.47434 0
M  V30 8683 H 809.765 -1.6438 2.79553 0
M  V30 8684 H 809.55 -0.264689 3.91206 0
M  V30 8685 H 811.04 -1.25226 3.98382 0
M  V30 8686 N 811.477 -1.49425 0.500989 0
M  V30 8687 C 812.407 -2.31971 -0.266775 0
M  V30 8688 C 813.388 -1.40245 -0.962563 0
M  V30 8689 O 814.573 -1.69154 -0.953968 0
M  V30 8690 C 811.703 -3.20757 -1.33163 0
M  V30 8691 C 810.657 -4.21275 -0.75572 0
M  V30 8692 C 809.983 -4.98997 -1.92109 0
M  V30 8693 C 811.283 -5.21686 0.253213 0
M  V30 8694 H 812.977 -2.96408 0.422237 0
M  V30 8695 H 810.523 -1.4254 0.204505 0
M  V30 8696 H 812.476 -3.77315 -1.87646 0
M  V30 8697 H 811.2 -2.54263 -2.04983 0
M  V30 8698 H 809.859 -3.65861 -0.232637 0
M  V30 8699 H 809.507 -4.28951 -2.62698 0
M  V30 8700 H 809.207 -5.67011 -1.54182 0
M  V30 8701 H 810.731 -5.584 -2.47026 0
M  V30 8702 H 812.145 -5.72939 -0.203483 0
M  V30 8703 H 810.542 -5.9759 0.548322 0
M  V30 8704 H 811.612 -4.70596 1.16909 0
M  V30 8705 N 812.955 -0.234822 -1.55841 0
M  V30 8706 C 814.202 0.39326 -1.98645 0
M  V30 8707 C 814.53 1.58823 -1.12274 0
M  V30 8708 O 813.785 1.94954 -0.170731 0
M  V30 8709 C 814.084 0.858032 -3.46947 0
M  V30 8710 C 813.75 -0.227858 -4.50324 0
M  V30 8711 C 812.412 -0.526128 -4.78315 0
M  V30 8712 C 814.764 -0.961576 -5.12253 0
M  V30 8713 C 812.092 -1.5624 -5.65514 0
M  V30 8714 C 814.444 -1.98728 -6.00575 0
M  V30 8715 C 813.108 -2.29233 -6.26904 0
M  V30 8716 H 812.378 0.143904 -0.726892 0
M  V30 8717 H 815.025 -0.34012 -1.88455 0
M  V30 8718 H 813.33 1.67041 -3.54408 0
M  V30 8719 H 815.027 1.35407 -3.77447 0
M  V30 8720 H 811.617 0.0147624 -4.28597 0
M  V30 8721 H 815.801 -0.744388 -4.90686 0
M  V30 8722 H 811.057 -1.80422 -5.84173 0
M  V30 8723 H 815.231 -2.5608 -6.47608 0
M  V30 8724 H 812.858 -3.09671 -6.94268 0
M  V30 8725 N 814.433 1.57553 0.0384317 0
M  V30 8726 C 815.849 1.54663 0.39391 0
M  V30 8727 C 816.049 0.959685 1.77179 0
M  V30 8728 O 815.105 0.576647 2.45827 0
M  V30 8729 C 816.418 2.99156 0.304352 0
M  V30 8730 C 817.966 3.10659 0.382119 0
M  V30 8731 C 818.441 4.56866 0.322111 0
M  V30 8732 N 819.932 4.61629 0.38119 0
M  V30 8733 C 820.667 5.72284 0.357501 0
M  V30 8734 N 820.163 6.92207 0.286654 0
M  V30 8735 N 821.956 5.60628 0.406538 0
M  V30 8736 H 814.107 1.9406 -0.86339 0
M  V30 8737 H 816.37 0.889673 -0.327392 0
M  V30 8738 H 816.076 3.45788 -0.642141 0
M  V30 8739 H 815.95 3.60753 1.10168 0
M  V30 8740 H 818.337 2.6398 1.31904 0
M  V30 8741 H 818.418 2.5191 -0.444391 0
M  V30 8742 H 818.062 5.0421 -0.611104 0
M  V30 8743 H 817.992 5.13515 1.1666 0
M  V30 8744 H 820.483 3.75343 0.438838 0
M  V30 8745 H 820.796 7.72316 0.273421 0
M  V30 8746 H 819.141 6.9454 0.252841 0
M  V30 8747 H 822.332 4.65836 0.459812 0
M  V30 8748 H 822.505 6.46858 0.384608 0
M  V30 8749 N 815.911 -0.310526 1.54511 0
M  V30 8750 C 816.843 -1.40405 1.8116 0
M  V30 8751 C 817.856 -1.47261 0.694114 0
M  V30 8752 O 819.045 -1.49751 0.971441 0
M  V30 8753 C 816.145 -2.78849 1.92604 0
M  V30 8754 C 815.318 -2.95041 3.22908 0
M  V30 8755 C 814.377 -4.13925 3.24889 0
M  V30 8756 O 813.403 -4.06463 3.98467 0
M  V30 8757 N 814.605 -5.24099 2.496 0
M  V30 8758 H 817.37 -1.17903 2.75534 0
M  V30 8759 H 814.931 -0.500564 1.53967 0
M  V30 8760 H 816.923 -3.5661 1.91342 0
M  V30 8761 H 815.493 -2.94342 1.05268 0
M  V30 8762 H 814.713 -2.04472 3.37023 0
M  V30 8763 H 816.001 -3.02763 4.08916 0
M  V30 8764 H 815.399 -5.33039 1.89435 0
M  V30 8765 H 813.956 -6.0023 2.54102 0
M  V30 8766 N 817.389 -1.46805 -0.573248 0
M  V30 8767 C 818.319 -1.60951 -1.69165 0
M  V30 8768 C 819.3 -0.45948 -1.63777 0
M  V30 8769 O 820.485 -0.68688 -1.81647 0
M  V30 8770 C 817.615 -1.60844 -3.07809 0
M  V30 8771 C 816.569 -2.74913 -3.28035 0
M  V30 8772 C 815.895 -2.59871 -4.67302 0
M  V30 8773 C 817.195 -4.16654 -3.14955 0
M  V30 8774 H 818.889 -2.54574 -1.57582 0
M  V30 8775 H 816.435 -1.22516 -0.756686 0
M  V30 8776 H 818.388 -1.69334 -3.85881 0
M  V30 8777 H 817.112 -0.637714 -3.20314 0
M  V30 8778 H 815.771 -2.65908 -2.52366 0
M  V30 8779 H 815.419 -1.60861 -4.76585 0
M  V30 8780 H 815.119 -3.36386 -4.81786 0
M  V30 8781 H 816.643 -2.70265 -5.4753 0
M  V30 8782 H 818.057 -4.26721 -3.82861 0
M  V30 8783 H 816.454 -4.93831 -3.40956 0
M  V30 8784 H 817.524 -4.36146 -2.11908 0
M  V30 8785 N 818.867 0.818669 -1.34668 0
M  V30 8786 C 819.83 1.9114 -1.26483 0
M  V30 8787 C 820.83 1.598 -0.179044 0
M  V30 8788 O 822.02 1.6876 -0.431952 0
M  V30 8789 C 819.152 3.27285 -0.95381 0
M  V30 8790 H 820.345 1.9982 -2.23634 0
M  V30 8791 H 817.898 1.01314 -1.19018 0
M  V30 8792 H 818.633 3.24297 0.0143428 0
M  V30 8793 H 818.418 3.51416 -1.73924 0
M  V30 8794 H 819.908 4.07299 -0.921827 0
M  V30 8795 N 820.346 1.18468 1.03938 0
M  V30 8796 C 821.594 0.978895 1.76811 0
M  V30 8797 C 821.915 -0.49257 1.88676 0
M  V30 8798 O 821.185 -1.3572 1.41269 0
M  V30 8799 H 819.765 0.359201 0.654968 0
M  V30 8800 H 822.427 1.49173 1.25433 0
M  V30 8801 H 821.523 1.418 2.78027 0
M  V30 8802 N 821.824 -1.22873 0.986916 0
M  V30 8803 C 822.734 -2.28277 0.540978 0
M  V30 8804 C 823.75 -1.69164 -0.407363 0
M  V30 8805 O 824.926 -1.99504 -0.275674 0
M  V30 8806 C 821.991 -3.46404 -0.143181 0
M  V30 8807 C 821.052 -4.20854 0.847375 0
M  V30 8808 C 820.285 -5.33341 0.19577 0
M  V30 8809 O 820.508 -5.61356 -1.0117 0
M  V30 8810 O 819.442 -5.95169 0.897623 0
M  V30 8811 H 823.268 -2.68578 1.41773 0
M  V30 8812 H 820.853 -1.28927 0.754867 0
M  V30 8813 H 822.735 -4.18096 -0.526676 0
M  V30 8814 H 821.41 -3.08041 -0.994593 0
M  V30 8815 H 820.317 -3.51459 1.28169 0
M  V30 8816 H 821.65 -4.63082 1.6678 0
M  V30 8817 N 823.302 -0.75937 -1.38099 0
M  V30 8818 C 824.579 -0.243371 -1.9408 0
M  V30 8819 C 824.959 1.25942 -1.69416 0
M  V30 8820 O 824.307 2.03667 -1.03595 0
M  V30 8821 C 824.517 -0.603328 -3.43745 0
M  V30 8822 C 825.865 -0.566195 -4.20808 0
M  V30 8823 O 826.889 -0.541969 -3.52053 0
M  V30 8824 O 825.748 -0.582261 -5.43389 0
M  V30 8825 H 822.842 -0.0526825 -0.82532 0
M  V30 8826 H 825.388 -0.839884 -1.47459 0
M  V30 8827 H 824.16 -1.64098 -3.55229 0
M  V30 8828 H 823.783 0.0208887 -3.97595 0
M  V30 8829 N 824.78 1.49157 -0.508906 0
M  V30 8830 C 825.713 2.26056 0.312103 0
M  V30 8831 C 826.691 1.30982 0.963456 0
M  V30 8832 O 827.875 1.60286 0.992002 0
M  V30 8833 C 825.002 3.06555 1.4402 0
M  V30 8834 C 824.048 4.16844 0.902414 0
M  V30 8835 S 824.881 5.35076 -0.213087 0
M  V30 8836 C 826.037 6.19132 0.917985 0
M  V30 8837 H 826.27 2.95343 -0.340559 0
M  V30 8838 H 823.803 1.51569 -0.294331 0
M  V30 8839 H 825.761 3.53517 2.08653 0
M  V30 8840 H 824.422 2.36722 2.0645 0
M  V30 8841 H 823.615 4.72714 1.74806 0
M  V30 8842 H 823.217 3.72513 0.333156 0
M  V30 8843 H 825.509 6.52556 1.82145 0
M  V30 8844 H 826.452 7.06982 0.397724 0
M  V30 8845 H 826.86 5.51839 1.18889 0
M  V30 8846 N 826.258 0.243083 1.55714 0
M  V30 8847 C 827.168 -0.668913 2.24862 0
M  V30 8848 C 828.184 -1.19638 1.26344 0
M  V30 8849 O 829.36 -1.23345 1.5921 0
M  V30 8850 C 826.425 -1.85084 2.93163 0
M  V30 8851 C 825.486 -1.36323 4.07081 0
M  V30 8852 C 824.719 -2.48882 4.72116 0
M  V30 8853 O 824.942 -3.67523 4.36214 0
M  V30 8854 O 823.876 -2.18857 5.60701 0
M  V30 8855 H 827.702 -0.109737 3.03502 0
M  V30 8856 H 825.287 0.0117411 1.49395 0
M  V30 8857 H 827.169 -2.54065 3.36197 0
M  V30 8858 H 825.844 -2.39771 2.17466 0
M  V30 8859 H 824.751 -0.640804 3.68571 0
M  V30 8860 H 826.084 -0.86249 4.84584 0
M  V30 8861 N 827.736 -1.57571 -0.0300757 0
M  V30 8862 C 828.985 -1.88407 -0.720126 0
M  V30 8863 C 829.298 -0.841466 -1.76575 0
M  V30 8864 O 830.504 -1.03902 -2.50832 0
M  V30 8865 C 828.96 -3.34348 -1.33188 0
M  V30 8866 C 828.568 -4.46837 -0.32266 0
M  V30 8867 C 830.312 -3.74333 -2.00187 0
M  V30 8868 C 828.219 -5.83838 -0.942703 0
M  V30 8869 H 827.149 -0.702952 -0.272718 0
M  V30 8870 H 829.8 -1.83482 0.0255337 0
M  V30 8871 H 828.182 -3.34014 -2.12721 0
M  V30 8872 H 829.356 -4.58638 0.445887 0
M  V30 8873 H 827.671 -4.15678 0.245181 0
M  V30 8874 H 830.268 -4.74008 -2.47428 0
M  V30 8875 H 830.611 -3.06275 -2.81959 0
M  V30 8876 H 831.144 -3.76837 -1.2743 0
M  V30 8877 H 827.883 -6.55294 -0.164413 0
M  V30 8878 H 827.403 -5.75759 -1.68111 0
M  V30 8879 H 829.082 -6.30535 -1.45034 0
M  V30 8880 N 829.214 0.302327 -1.54673 0
M  V30 8881 C 830.439 1.06103 -1.78205 0
M  V30 8882 C 830.864 1.80204 -0.53926 0
M  V30 8883 O 830.222 1.73975 0.510142 0
M  V30 8884 C 830.27 2.01829 -2.98827 0
M  V30 8885 O 829.374 3.10108 -2.71858 0
M  V30 8886 H 828.715 0.30487 -0.589873 0
M  V30 8887 H 831.245 0.340153 -2.01753 0
M  V30 8888 H 831.255 2.44319 -3.2676 0
M  V30 8889 H 829.93 1.473 -3.88942 0
M  V30 8890 H 828.507 2.72142 -2.54937 0
M  V30 8891 N 830.692 1.47107 0.565454 0
M  V30 8892 C 831.938 1.53535 1.32495 0
M  V30 8893 C 832.271 0.193537 1.93233 0
M  V30 8894 O 831.546 -0.796956 1.77423 0
M  V30 8895 C 831.829 2.64712 2.4413 0
M  V30 8896 C 831.682 4.08482 1.88314 0
M  V30 8897 C 833.001 2.71853 3.46098 0
M  V30 8898 H 830.12 0.558926 0.480386 0
M  V30 8899 H 832.762 1.79125 0.633575 0
M  V30 8900 H 830.912 2.43023 3.03104 0
M  V30 8901 H 832.584 4.4151 1.33665 0
M  V30 8902 H 830.827 4.17148 1.19037 0
M  V30 8903 H 831.498 4.82032 2.68978 0
M  V30 8904 H 833.974 2.91397 2.97031 0
M  V30 8905 H 832.85 3.51433 4.21646 0
M  V30 8906 H 833.111 1.78584 4.04426 0
M  V30 8907 N 832.17 -0.811516 1.35101 0
M  V30 8908 C 833.117 -1.92308 1.27617 0
M  V30 8909 C 834.087 -1.6543 0.149091 0
M  V30 8910 O 835.272 -1.8789 0.331974 0
M  V30 8911 C 832.412 -3.28768 1.04908 0
M  V30 8912 C 831.525 -3.67865 2.26493 0
M  V30 8913 C 830.66 -4.9333 1.96974 0
M  V30 8914 C 829.699 -5.25041 3.1464 0
M  V30 8915 N 828.836 -6.41685 2.84929 0
M  V30 8916 H 833.676 -1.98041 2.22674 0
M  V30 8917 H 831.213 -0.968755 1.10696 0
M  V30 8918 H 833.171 -4.07426 0.897749 0
M  V30 8919 H 831.801 -3.22517 0.135151 0
M  V30 8920 H 830.853 -2.84507 2.52507 0
M  V30 8921 H 832.165 -3.87263 3.14371 0
M  V30 8922 H 831.319 -5.79803 1.78643 0
M  V30 8923 H 830.058 -4.75958 1.06374 0
M  V30 8924 H 829.063 -4.3706 3.33554 0
M  V30 8925 H 830.288 -5.44346 4.06035 0
M  V30 8926 H 828.234 -6.25747 1.96918 0
M  V30 8927 H 828.151 -6.6131 3.66341 0
M  V30 8928 H 829.419 -7.31198 2.70128 0
M  V30 8929 N 833.648 -1.19017 -1.03309 0
M  V30 8930 C 834.558 -0.939303 -2.14975 0
M  V30 8931 C 835.574 0.0992359 -1.73717 0
M  V30 8932 O 836.75 -0.0844362 -2.01223 0
M  V30 8933 C 833.815 -0.476712 -3.43407 0
M  V30 8934 C 832.876 -1.58413 -3.99003 0
M  V30 8935 C 832.109 -1.14352 -5.21305 0
M  V30 8936 O 832.332 -0.00534408 -5.704 0
M  V30 8937 O 831.266 -1.94436 -5.6963 0
M  V30 8938 H 835.092 -1.87386 -2.38998 0
M  V30 8939 H 832.677 -0.972635 -1.13403 0
M  V30 8940 H 834.559 -0.22718 -4.20787 0
M  V30 8941 H 833.234 0.429455 -3.20839 0
M  V30 8942 H 832.141 -1.88777 -3.22977 0
M  V30 8943 H 833.474 -2.4667 -4.25928 0
M  V30 8944 N 835.127 1.22348 -0.993418 0
M  V30 8945 C 836.057 2.26584 -0.564088 0
M  V30 8946 C 837.038 1.65102 0.409298 0
M  V30 8947 O 838.223 1.91872 0.299819 0
M  V30 8948 C 835.353 3.47087 0.121554 0
M  V30 8949 C 834.307 4.21009 -0.770429 0
M  V30 8950 C 833.633 5.34678 0.0481586 0
M  V30 8951 C 834.933 4.79636 -2.06752 0
M  V30 8952 H 836.627 2.62749 -1.43538 0
M  V30 8953 H 834.173 1.26303 -0.691628 0
M  V30 8954 H 836.126 4.19166 0.433303 0
M  V30 8955 H 834.85 3.1002 1.0274 0
M  V30 8956 H 833.509 3.50764 -1.06583 0
M  V30 8957 H 833.157 4.93852 0.954933 0
M  V30 8958 H 832.857 5.85061 -0.545641 0
M  V30 8959 H 834.381 6.09573 0.353991 0
M  V30 8960 H 835.795 5.43654 -1.81969 0
M  V30 8961 H 834.192 5.4036 -2.61019 0
M  V30 8962 H 835.262 3.99659 -2.74592 0
M  V30 8963 N 836.605 0.766683 1.37694 0
M  V30 8964 C 838.021 0.445739 1.53249 0
M  V30 8965 C 838.221 -1.03935 1.72626 0
M  V30 8966 O 837.277 -1.82525 1.74473 0
M  V30 8967 C 838.59 1.2564 2.73194 0
M  V30 8968 C 840.138 1.24779 2.87053 0
M  V30 8969 C 840.613 2.04169 4.09974 0
M  V30 8970 N 842.104 2.01497 4.17077 0
M  V30 8971 C 842.839 2.5971 5.11212 0
M  V30 8972 N 842.335 3.26691 6.10938 0
M  V30 8973 N 844.128 2.49568 5.03659 0
M  V30 8974 H 836.279 1.72899 1.23368 0
M  V30 8975 H 838.542 0.733701 0.600322 0
M  V30 8976 H 838.248 2.30859 2.65324 0
M  V30 8977 H 838.122 0.882133 3.6674 0
M  V30 8978 H 840.509 0.203603 2.94397 0
M  V30 8979 H 840.59 1.66166 1.9448 0
M  V30 8980 H 840.234 3.08606 4.03392 0
M  V30 8981 H 840.164 1.60167 5.01651 0
M  V30 8982 H 842.655 1.52728 3.45662 0
M  V30 8983 H 842.968 3.68497 6.79286 0
M  V30 8984 H 841.313 3.30789 6.11231 0
M  V30 8985 H 844.504 1.96859 4.24693 0
M  V30 8986 H 844.677 2.95231 5.76839 0
M  V30 8987 N 838.083 -1.48885 0.516809 0
M  V30 8988 C 839.311 -2.06892 -0.0184017 0
M  V30 8989 C 839.726 -1.37511 -1.29368 0
M  V30 8990 O 839.083 -0.458409 -1.76649 0
M  V30 8991 C 839.134 -3.60566 -0.259673 0
M  V30 8992 O 838.855 -4.27338 0.965065 0
M  V30 8993 C 840.356 -4.35331 -0.836751 0
M  V30 8994 H 837.576 -0.670433 0.0275743 0
M  V30 8995 H 840.12 -1.91455 0.718689 0
M  V30 8996 H 838.275 -3.75653 -0.94678 0
M  V30 8997 H 838.689 -5.19287 0.737647 0
M  V30 8998 H 840.163 -5.43675 -0.955065 0
M  V30 8999 H 840.64 -3.9887 -1.83845 0
M  V30 9000 H 841.246 -4.2489 -0.186622 0
M  V30 9001 N 839.561 -0.251338 -1.55583 0
M  V30 9002 C 840.81 0.372681 -1.98227 0
M  V30 9003 C 841.123 1.58743 -1.1428 0
M  V30 9004 O 842.329 2.28289 -1.46957 0
M  V30 9005 C 840.785 0.714439 -3.52738 0
M  V30 9006 C 840.393 -0.479168 -4.4543 0
M  V30 9007 C 842.137 1.3024 -4.04027 0
M  V30 9008 C 840.044 -0.113318 -5.91291 0
M  V30 9009 H 838.974 0.14302 -0.740312 0
M  V30 9010 H 841.625 -0.352253 -1.80087 0
M  V30 9011 H 840.007 1.49762 -3.66589 0
M  V30 9012 H 841.181 -1.25644 -4.4334 0
M  V30 9013 H 839.496 -0.982359 -4.04646 0
M  V30 9014 H 842.093 1.58953 -5.10527 0
M  V30 9015 H 842.436 2.22837 -3.51638 0
M  V30 9016 H 842.969 0.582024 -3.93519 0
M  V30 9017 H 839.708 -1.00654 -6.47726 0
M  V30 9018 H 839.228 0.627666 -5.96507 0
M  V30 9019 H 840.907 0.30293 -6.4629 0
M  V30 9020 N 841.039 1.57585 0.0217189 0
M  V30 9021 C 841.969 2.10073 1.01939 0
M  V30 9022 C 842.95 1.0049 1.37243 0
M  V30 9023 O 844.135 1.28055 1.45999 0
M  V30 9024 C 841.265 2.58618 2.31806 0
M  V30 9025 C 840.219 3.72531 2.10724 0
M  V30 9026 C 839.545 4.07309 3.46415 0
M  V30 9027 C 840.845 5.00672 1.48743 0
M  V30 9028 H 842.539 2.9368 0.582432 0
M  V30 9029 H 840.085 1.41277 0.278715 0
M  V30 9030 H 842.038 2.9396 3.01936 0
M  V30 9031 H 840.762 1.72104 2.77575 0
M  V30 9032 H 839.421 3.37549 1.43025 0
M  V30 9033 H 839.069 3.17851 3.89846 0
M  V30 9034 H 838.769 4.84042 3.33132 0
M  V30 9035 H 840.293 4.45192 4.17895 0
M  V30 9036 H 841.707 5.33925 2.088 0
M  V30 9037 H 840.104 5.82065 1.46013 0
M  V30 9038 H 841.174 4.82769 0.45408 0
M  V30 9039 N 842.517 -0.29412 1.54831 0
M  V30 9040 C 843.465 -1.38296 1.87021 0
M  V30 9041 C 844.459 -1.5216 0.744557 0
M  V30 9042 O 845.665 -1.54196 0.92864 0
M  V30 9043 H 842.04 -0.462088 0.593278 0
M  V30 9044 H 844.011 -1.08386 2.7802 0
M  V30 9045 C 842.76 -2.74024 2.14023 0
M  V30 9046 H 842.083 -2.6414 3.00117 0
M  V30 9047 H 843.523 -3.49205 2.40482 0
M  V30 9048 C 841.982 -3.23492 0.940982 0
M  V30 9049 O 842.512 -4.01361 0.164937 0
M  V30 9050 N 840.718 -2.80902 0.744467 0
M  V30 9051 H 840.265 -2.17694 1.37721 0
M  V30 9052 H 840.223 -3.14349 -0.0563652 0
M  V30 9053 N 843.995 -1.47404 -0.557645 0
M  V30 9054 C 845.411 -1.32913 -0.88353 0
M  V30 9055 C 845.611 -0.31929 -1.98954 0
M  V30 9056 O 844.667 0.26934 -2.51059 0
M  V30 9057 C 845.98 -2.72229 -1.27718 0
M  V30 9058 C 847.528 -2.8051 -1.38863 0
M  V30 9059 C 848.003 -4.20466 -1.81583 0
M  V30 9060 N 849.494 -4.23005 -1.88735 0
M  V30 9061 C 850.229 -5.2821 -2.23118 0
M  V30 9062 N 849.725 -6.4372 -2.56117 0
M  V30 9063 N 851.518 -5.15588 -2.23888 0
M  V30 9064 H 843.669 -2.11698 0.172557 0
M  V30 9065 H 845.932 -0.947889 0.0145334 0
M  V30 9066 H 845.638 -3.47556 -0.538329 0
M  V30 9067 H 845.512 -3.03971 -2.23342 0
M  V30 9068 H 847.899 -2.05457 -2.11829 0
M  V30 9069 H 847.98 -2.52423 -0.414274 0
M  V30 9070 H 847.624 -4.96025 -1.09187 0
M  V30 9071 H 847.554 -4.45977 -2.80021 0
M  V30 9072 H 850.045 -3.39674 -1.65621 0
M  V30 9073 H 850.358 -7.19754 -2.81378 0
M  V30 9074 H 848.703 -6.47041 -2.53698 0
M  V30 9075 H 851.894 -4.24374 -1.97546 0
M  V30 9076 H 852.067 -5.97685 -2.50353 0
M  V30 9077 N 845.473 0.80434 -1.35529 0
M  V30 9078 C 846.722 1.55665 -1.28263 0
M  V30 9079 C 847.035 1.95096 0.140352 0
M  V30 9080 O 848.241 2.69422 0.335303 0
M  V30 9081 C 846.697 2.80935 -2.24952 0
M  V30 9082 C 846.305 2.48733 -3.72607 0
M  V30 9083 C 848.049 3.5894 -2.26632 0
M  V30 9084 C 845.956 3.70308 -4.61114 0
M  V30 9085 H 844.886 0.584301 -0.476559 0
M  V30 9086 H 847.537 0.88395 -1.60806 0
M  V30 9087 H 845.919 3.49927 -1.85383 0
M  V30 9088 H 847.093 1.87733 -4.20824 0
M  V30 9089 H 845.408 1.83969 -3.73557 0
M  V30 9090 H 848.005 4.49244 -2.89973 0
M  V30 9091 H 848.348 3.96433 -1.27069 0
M  V30 9092 H 848.881 2.96912 -2.64742 0
M  V30 9093 H 845.62 3.37922 -5.61684 0
M  V30 9094 H 845.14 4.30526 -4.17621 0
M  V30 9095 H 846.819 4.37511 -4.76648 0
M  V30 9096 N 846.951 1.19563 1.02676 0
M  V30 9097 C 848.2 0.993864 1.75514 0
M  V30 9098 C 848.513 -0.475882 1.89723 0
M  V30 9099 O 849.719 -0.796525 2.59553 0
M  V30 9100 C 848.175 1.72937 3.15628 0
M  V30 9101 C 847.783 3.23937 3.09466 0
M  V30 9102 C 849.527 1.61092 3.92746 0
M  V30 9103 C 847.434 3.90067 4.44524 0
M  V30 9104 H 846.364 0.368244 0.657961 0
M  V30 9105 H 849.015 1.43081 1.14891 0
M  V30 9106 H 847.397 1.22025 3.76731 0
M  V30 9107 H 848.571 3.81983 2.57731 0
M  V30 9108 H 846.886 3.3608 2.45843 0
M  V30 9109 H 849.483 2.07848 4.92649 0
M  V30 9110 H 849.826 0.565415 4.12442 0
M  V30 9111 H 850.359 2.09361 3.3825 0
M  V30 9112 H 847.098 4.94725 4.30032 0
M  V30 9113 H 846.618 3.36809 4.96306 0
M  V30 9114 H 848.297 3.93736 5.13401 0
M  V30 9115 N 848.429 -1.21819 0.999893 0
M  V30 9116 C 849.654 -1.95298 0.698094 0
M  V30 9117 C 850.079 -1.73273 -0.731982 0
M  V30 9118 O 849.437 -1.01634 -1.50134 0
M  V30 9119 C 849.485 -3.45922 1.01834 0
M  V30 9120 O 848.589 -4.12223 0.120801 0
M  V30 9121 H 847.93 -0.610729 0.260588 0
M  V30 9122 H 850.46 -1.5472 1.33876 0
M  V30 9123 H 850.47 -3.96471 0.963074 0
M  V30 9124 H 849.145 -3.61278 2.06037 0
M  V30 9125 H 847.722 -3.72177 0.232153 0
M  V30 9126 N 849.908 -0.773975 -1.37286 0
M  V30 9127 C 850.855 -0.159938 -2.30245 0
M  V30 9128 C 851.825 0.687356 -1.51211 0
M  V30 9129 O 853.01 0.639255 -1.79773 0
M  V30 9130 C 850.15 0.711452 -3.37687 0
M  V30 9131 C 849.263 -0.152692 -4.3173 0
M  V30 9132 C 848.398 0.723613 -5.26248 0
M  V30 9133 C 847.437 -0.14293 -6.11933 0
M  V30 9134 N 846.574 0.691479 -6.98687 0
M  V30 9135 H 851.414 -0.958182 -2.82175 0
M  V30 9136 H 848.951 -0.48411 -1.38906 0
M  V30 9137 H 850.909 1.2315 -3.9861 0
M  V30 9138 H 849.539 1.47528 -2.87116 0
M  V30 9139 H 848.591 -0.790574 -3.72094 0
M  V30 9140 H 849.903 -0.821027 -4.91997 0
M  V30 9141 H 849.057 1.31006 -5.92387 0
M  V30 9142 H 847.796 1.42562 -4.66398 0
M  V30 9143 H 846.801 -0.7419 -5.44771 0
M  V30 9144 H 848.026 -0.842305 -6.73856 0
M  V30 9145 H 845.972 1.37806 -6.41362 0
M  V30 9146 H 845.889 0.0804911 -7.55957 0
M  V30 9147 H 847.157 1.26225 -7.69212 0
M  V30 9148 N 851.386 1.48609 -0.524698 0
M  V30 9149 C 852.336 2.26505 0.260696 0
M  V30 9150 C 853.32 1.32378 0.914597 0
M  V30 9151 O 854.512 1.5695 0.818277 0
M  V30 9152 C 851.641 3.17313 1.31024 0
M  V30 9153 C 850.727 4.18911 0.661391 0
M  V30 9154 N 851.118 5.05183 -0.24981 0
M  V30 9155 C 849.416 4.36425 0.91922 0
M  V30 9156 C 850.117 5.78348 -0.623598 0
M  V30 9157 N 849.093 5.43598 0.0140839 0
M  V30 9158 H 852.895 2.90582 -0.440388 0
M  V30 9159 H 850.409 1.5875 -0.342364 0
M  V30 9160 H 852.406 3.71772 1.88656 0
M  V30 9161 H 851.066 2.54791 2.01275 0
M  V30 9162 H 852.077 5.1415 -0.622093 0
M  V30 9163 H 848.754 3.85095 1.6127 0
M  V30 9164 H 850.144 6.57775 -1.37046 0
M  V30 9165 N 852.864 0.259585 1.55447 0
M  V30 9166 C 853.811 -0.634578 2.21905 0
M  V30 9167 C 854.781 -1.16168 1.18719 0
M  V30 9168 O 855.966 -1.21383 1.4721 0
M  V30 9169 C 853.106 -1.82005 2.93203 0
M  V30 9170 C 852.219 -1.32828 4.11073 0
M  V30 9171 C 851.354 -2.47431 4.70055 0
M  V30 9172 C 850.393 -1.95179 5.80148 0
M  V30 9173 N 849.53 -3.03197 6.33258 0
M  V30 9174 H 854.37 -0.0611886 2.97937 0
M  V30 9175 H 851.907 -0.0184378 1.47088 0
M  V30 9176 H 853.865 -2.51664 3.32748 0
M  V30 9177 H 852.495 -2.36571 2.19622 0
M  V30 9178 H 851.547 -0.525301 3.76756 0
M  V30 9179 H 852.859 -0.905435 4.90513 0
M  V30 9180 H 852.013 -3.25111 5.12238 0
M  V30 9181 H 850.752 -2.93023 3.89857 0
M  V30 9182 H 849.757 -1.15974 5.37429 0
M  V30 9183 H 850.982 -1.50541 6.62204 0
M  V30 9184 H 848.928 -3.48199 5.55961 0
M  V30 9185 H 848.845 -2.65282 7.07928 0
M  V30 9186 H 850.113 -3.80898 6.80101 0
M  V30 9187 N 854.342 -1.57594 -0.0133615 0
M  V30 9188 C 855.619 -1.81173 -0.737273 0
M  V30 9189 C 855.999 -0.861395 -1.92726 0
M  V30 9190 O 855.347 0.0929324 -2.28311 0
M  V30 9191 C 855.557 -3.29314 -1.15557 0
M  V30 9192 C 856.905 -3.94707 -1.56498 0
M  V30 9193 O 857.929 -3.33557 -1.24973 0
M  V30 9194 O 856.788 -5.02402 -2.15069 0
M  V30 9195 H 853.882 -0.745575 -0.357837 0
M  V30 9196 H 856.428 -1.69696 0.0110674 0
M  V30 9197 H 855.2 -3.90096 -0.30677 0
M  V30 9198 H 854.823 -3.45739 -1.96343 0
M  V30 9199 N 855.82 0.285905 -1.54985 0
M  V30 9200 C 856.75 1.35752 -1.89983 0
M  V30 9201 C 857.731 1.52163 -0.760295 0
M  V30 9202 O 858.916 1.65421 -1.01733 0
M  V30 9203 C 856.046 2.71925 -2.16042 0
M  V30 9204 C 855 2.70261 -3.31878 0
M  V30 9205 C 854.326 4.09864 -3.43388 0
M  V30 9206 C 855.626 2.30667 -4.68604 0
M  V30 9207 H 857.32 1.06709 -2.79738 0
M  V30 9208 H 854.866 0.511884 -1.34595 0
M  V30 9209 H 856.819 3.46992 -2.39113 0
M  V30 9210 H 855.543 3.02523 -1.23074 0
M  V30 9211 H 854.202 1.97651 -3.08755 0
M  V30 9212 H 853.85 4.37664 -2.47909 0
M  V30 9213 H 853.55 4.09648 -4.21262 0
M  V30 9214 H 855.074 4.86689 -3.68736 0
M  V30 9215 H 856.488 2.95453 -4.91305 0
M  V30 9216 H 854.885 2.41637 -5.49301 0
M  V30 9217 H 855.955 1.25793 -4.68299 0
M  V30 9218 N 857.298 1.47698 0.54982 0
M  V30 9219 C 858.714 1.3338 0.876468 0
M  V30 9220 C 858.914 0.329837 1.98782 0
M  V30 9221 O 857.97 -0.256022 2.51199 0
M  V30 9222 C 859.283 2.72903 1.26272 0
M  V30 9223 C 860.831 2.81243 1.37373 0
M  V30 9224 C 861.306 4.21423 1.79351 0
M  V30 9225 N 862.797 4.24 1.86489 0
M  V30 9226 C 863.532 5.29386 2.20313 0
M  V30 9227 N 863.028 6.4507 2.527 0
M  V30 9228 N 864.821 5.16768 2.2115 0
M  V30 9229 H 856.972 2.11603 -0.183781 0
M  V30 9230 H 859.235 0.947798 -0.0195601 0
M  V30 9231 H 858.941 3.47836 0.519889 0
M  V30 9232 H 858.815 3.05151 2.21727 0
M  V30 9233 H 861.202 2.06577 2.10737 0
M  V30 9234 H 861.283 2.52639 0.400882 0
M  V30 9235 H 860.927 4.96597 1.06555 0
M  V30 9236 H 860.857 4.47456 2.77652 0
M  V30 9237 H 863.348 3.40547 1.63817 0
M  V30 9238 H 863.661 7.21236 2.77557 0
M  V30 9239 H 862.006 6.48377 2.50263 0
M  V30 9240 H 865.197 4.25416 1.95293 0
M  V30 9241 H 865.37 5.99004 2.4718 0
M  V30 9242 N 858.776 -0.797141 1.35954 0
M  V30 9243 C 860.004 -1.5858 1.32891 0
M  V30 9244 C 860.419 -1.88578 -0.0915564 0
M  V30 9245 O 859.776 -1.49532 -1.04625 0
M  V30 9246 C 859.827 -2.91143 2.14284 0
M  V30 9247 O 859.548 -2.62442 3.50793 0
M  V30 9248 C 861.049 -3.85476 2.18914 0
M  V30 9249 H 858.269 -0.492111 0.456144 0
M  V30 9250 H 860.813 -0.98994 1.78943 0
M  V30 9251 H 858.968 -3.47219 1.71807 0
M  V30 9252 H 859.382 -3.4715 3.93175 0
M  V30 9253 H 860.856 -4.75574 2.80238 0
M  V30 9254 H 861.333 -4.22758 1.19047 0
M  V30 9255 H 861.939 -3.35334 2.61593 0
M  V30 9256 N 860.254 -1.20106 -1.0204 0
M  V30 9257 C 861.201 -0.946468 -2.10501 0
M  V30 9258 C 862.171 0.121902 -1.65652 0
M  V30 9259 O 863.356 -0.0220244 -1.90787 0
M  V30 9260 C 860.496 -0.500499 -3.41451 0
M  V30 9261 C 859.609 -1.63659 -3.998 0
M  V30 9262 C 858.744 -1.14131 -5.18794 0
M  V30 9263 C 857.783 -2.25074 -5.69217 0
M  V30 9264 N 856.92 -1.76791 -6.79477 0
M  V30 9265 H 861.76 -1.87506 -2.31615 0
M  V30 9266 H 859.297 -0.934693 -1.13587 0
M  V30 9267 H 861.255 -0.223276 -4.16602 0
M  V30 9268 H 859.885 0.391099 -3.20422 0
M  V30 9269 H 858.937 -2.02882 -3.21781 0
M  V30 9270 H 860.249 -2.47213 -4.33229 0
M  V30 9271 H 859.403 -0.819826 -6.01135 0
M  V30 9272 H 858.142 -0.275615 -4.86921 0
M  V30 9273 H 857.147 -2.58043 -4.85483 0
M  V30 9274 H 858.372 -3.12114 -6.03127 0
M  V30 9275 H 856.318 -0.925428 -6.4944 0
M  V30 9276 H 856.235 -2.53928 -7.12079 0
M  V30 9277 H 857.503 -1.47631 -7.65392 0
M  V30 9278 N 861.732 1.21287 -1.00634 0
M  V30 9279 C 862.98 1.90013 -0.688438 0
M  V30 9280 C 863.301 1.78573 0.783365 0
M  V30 9281 O 862.571 1.1815 1.56261 0
M  V30 9282 H 861.151 0.703336 -0.251648 0
M  V30 9283 H 863.813 1.47346 -1.27574 0
M  V30 9284 H 862.909 2.96879 -0.962781 0
M  V30 9285 N 863.21 0.781244 1.36873 0
M  V30 9286 C 864.457 0.349889 1.99454 0
M  V30 9287 C 864.785 -1.07621 1.62013 0
M  V30 9288 O 864.04 -1.75665 0.86258 0
M  V30 9289 C 864.339 0.45146 3.54537 0
M  V30 9290 C 864.005 1.83718 4.11775 0
M  V30 9291 C 862.667 2.21634 4.2712 0
M  V30 9292 C 865.019 2.7449 4.43063 0
M  V30 9293 C 862.347 3.49742 4.7106 0
M  V30 9294 C 864.699 4.02017 4.88431 0
M  V30 9295 C 863.363 4.39967 5.01982 0
M  V30 9296 H 862.633 0.128033 0.729855 0
M  V30 9297 H 865.28 0.997117 1.63493 0
M  V30 9298 H 863.585 -0.279288 3.90803 0
M  V30 9299 H 865.282 0.0988609 4.00878 0
M  V30 9300 H 861.872 1.53251 4.00265 0
M  V30 9301 H 866.056 2.46453 4.30783 0
M  V30 9302 H 861.312 3.79026 4.79738 0
M  V30 9303 H 865.486 4.72475 5.11605 0
M  V30 9304 H 863.113 5.39291 5.35788 0
M  V30 9305 N 864.689 -1.48329 0.532571 0
M  V30 9306 C 865.914 -2.074 0.00147755 0
M  V30 9307 C 866.339 -1.38615 -1.27151 0
M  V30 9308 O 865.697 -0.452949 -1.75551 0
M  V30 9309 C 865.745 -3.60029 -0.202866 0
M  V30 9310 O 864.849 -3.92327 -1.27097 0
M  V30 9311 H 864.19 -0.662777 0.0402883 0
M  V30 9312 H 866.72 -1.90701 0.741224 0
M  V30 9313 H 866.73 -4.05783 -0.424722 0
M  V30 9314 H 865.405 -4.09496 0.727033 0
M  V30 9315 H 863.982 -3.58348 -1.03156 0
M  V30 9316 N 866.167 -0.267825 -1.55308 0
M  V30 9317 C 867.097 0.616585 -2.25212 0
M  V30 9318 C 868.078 1.16472 -1.23969 0
M  V30 9319 O 869.263 1.20021 -1.52672 0
M  V30 9320 C 866.393 1.80412 -2.96764 0
M  V30 9321 C 865.347 1.38784 -4.04874 0
M  V30 9322 C 864.673 2.65789 -4.63961 0
M  V30 9323 C 865.973 0.543415 -5.19465 0
M  V30 9324 H 867.667 0.0336257 -2.99381 0
M  V30 9325 H 865.213 0.0147328 -1.43992 0
M  V30 9326 H 867.166 2.42866 -3.44375 0
M  V30 9327 H 865.89 2.4128 -2.20118 0
M  V30 9328 H 864.549 0.786541 -3.58063 0
M  V30 9329 H 864.197 3.24899 -3.83992 0
M  V30 9330 H 863.897 2.38651 -5.36954 0
M  V30 9331 H 865.421 3.29104 -5.14318 0
M  V30 9332 H 866.835 1.07277 -5.63174 0
M  V30 9333 H 865.232 0.367219 -5.98975 0
M  V30 9334 H 866.302 -0.439534 -4.82904 0
M  V30 9335 N 867.645 1.57599 0.00500368 0
M  V30 9336 C 868.555 2.11532 1.01446 0
M  V30 9337 C 869.571 1.05941 1.3803 0
M  V30 9338 O 870.747 1.37815 1.46864 0
M  V30 9339 C 867.812 2.60382 2.28915 0
M  V30 9340 C 866.873 3.80554 1.98689 0
M  V30 9341 C 866.106 4.27064 3.20081 0
M  V30 9342 O 866.329 3.72939 4.31593 0
M  V30 9343 O 865.263 5.1927 3.04371 0
M  V30 9344 H 869.089 2.97993 0.586011 0
M  V30 9345 H 866.674 1.47718 0.223519 0
M  V30 9346 H 868.556 2.92024 3.03809 0
M  V30 9347 H 867.231 1.77022 2.71007 0
M  V30 9348 H 866.138 3.53893 1.21286 0
M  V30 9349 H 867.471 4.64972 1.61437 0
M  V30 9350 N 869.123 -0.277682 1.55134 0
M  V30 9351 C 870.348 -1.03254 1.7987 0
M  V30 9352 C 870.773 -1.79324 0.567861 0
M  V30 9353 O 870.131 -1.74764 -0.4824 0
M  V30 9354 C 870.179 -1.9705 3.02 0
M  V30 9355 O 869.283 -3.05744 2.76757 0
M  V30 9356 H 868.624 -0.295447 0.594649 0
M  V30 9357 H 871.154 -0.308013 2.02268 0
M  V30 9358 H 871.164 -2.3909 3.30606 0
M  V30 9359 H 869.839 -1.41094 3.91236 0
M  V30 9360 H 868.416 -2.68052 2.59235 0
M  V30 9361 N 870.601 -1.47988 -0.541979 0
M  V30 9362 C 871.841 -1.56982 -1.30905 0
M  V30 9363 C 872.205 -0.233153 -1.90579 0
M  V30 9364 O 873.406 -0.198018 -2.6807 0
M  V30 9365 C 871.677 -2.66787 -2.37823 0
M  V30 9366 S 873.236 -2.95467 -3.24414 0
M  V30 9367 H 870.054 -0.554165 -0.445446 0
M  V30 9368 H 872.656 -1.85448 -0.618803 0
M  V30 9369 H 871.36 -3.62483 -1.92443 0
M  V30 9370 H 870.891 -2.40184 -3.11569 0
M  V30 9371 H 872.906 -2.33846 -4.37642 0
M  V30 9372 N 872.079 0.78992 -1.36375 0
M  V30 9373 C 873.495 1.0879 -1.16777 0
M  V30 9374 C 873.695 2.01498 0.00848236 0
M  V30 9375 O 872.751 2.43338 0.674007 0
M  V30 9376 C 874.064 1.70285 -2.47837 0
M  V30 9377 C 875.612 1.82629 -2.54196 0
M  V30 9378 C 876.087 2.47539 -3.85342 0
M  V30 9379 N 877.578 2.55008 -3.86685 0
M  V30 9380 C 878.313 3.06041 -4.84898 0
M  V30 9381 N 877.809 3.57385 -5.93505 0
M  V30 9382 N 879.602 3.04748 -4.72319 0
M  V30 9383 H 871.753 0.173985 -2.11686 0
M  V30 9384 H 874.016 0.139798 -0.937636 0
M  V30 9385 H 873.722 1.09633 -3.34176 0
M  V30 9386 H 873.596 2.69799 -2.63607 0
M  V30 9387 H 875.983 2.42419 -1.68276 0
M  V30 9388 H 876.064 0.81923 -2.42327 0
M  V30 9389 H 875.708 1.88393 -4.71668 0
M  V30 9390 H 875.638 3.48815 -3.94507 0
M  V30 9391 H 878.129 2.18651 -3.08221 0
M  V30 9392 H 878.442 3.94674 -6.64419 0
M  V30 9393 H 876.787 3.55538 -5.97175 0
M  V30 9394 H 879.978 2.63925 -3.86602 0
M  V30 9395 H 880.151 3.44212 -5.49019 0
M  V30 9396 N 873.557 1.20646 1.01402 0
M  V30 9397 C 874.782 1.04462 1.79172 0
M  V30 9398 C 875.207 -0.401588 1.83763 0
M  V30 9399 O 874.565 -1.28934 1.27459 0
M  V30 9400 C 874.613 1.63583 3.21361 0
M  V30 9401 O 873.717 0.875198 4.03006 0
M  V30 9402 H 873.058 0.368235 0.552539 0
M  V30 9403 H 875.588 1.59994 1.27526 0
M  V30 9404 H 875.598 1.67426 3.72065 0
M  V30 9405 H 874.273 2.68835 3.17334 0
M  V30 9406 H 872.85 0.911172 3.61597 0
M  V30 9407 N 875.035 -1.20752 1.01276 0
M  V30 9408 C 875.968 -2.22091 0.524472 0
M  V30 9409 C 876.946 -1.5692 -0.426017 0
M  V30 9410 O 878.13 -1.8528 -0.346919 0
M  V30 9411 C 875.257 -3.37868 -0.237224 0
M  V30 9412 C 874.303 -4.21327 0.662236 0
M  V30 9413 S 875.136 -4.91352 2.12916 0
M  V30 9414 C 876.292 -6.10553 1.37752 0
M  V30 9415 H 876.525 -2.63166 1.38315 0
M  V30 9416 H 874.058 -1.30742 0.821332 0
M  V30 9417 H 876.016 -4.04985 -0.670599 0
M  V30 9418 H 874.677 -2.95261 -1.07143 0
M  V30 9419 H 873.87 -5.03944 0.0751085 0
M  V30 9420 H 873.472 -3.59445 1.03322 0
M  V30 9421 H 875.764 -6.74322 0.655491 0
M  V30 9422 H 876.707 -6.73717 2.17969 0
M  V30 9423 H 877.115 -5.57566 0.882088 0
M  V30 9424 N 876.513 -0.788492 -1.36457 0
M  V30 9425 C 877.759 -0.360995 -1.99561 0
M  V30 9426 C 878.092 1.06433 -1.62437 0
M  V30 9427 O 877.367 1.7352 -0.878705 0
M  V30 9428 C 877.65 -0.523735 -3.56271 0
M  V30 9429 C 877.503 -1.99268 -4.03252 0
M  V30 9430 C 878.822 0.0617908 -4.40057 0
M  V30 9431 H 875.941 -0.13264 -0.724966 0
M  V30 9432 H 878.583 -0.994659 -1.61884 0
M  V30 9433 H 876.733 0.0156979 -3.88497 0
M  V30 9434 H 878.405 -2.59311 -3.81518 0
M  V30 9435 H 876.648 -2.49561 -3.54826 0
M  V30 9436 H 877.319 -2.05752 -5.12221 0
M  V30 9437 H 879.795 -0.398674 -4.14186 0
M  V30 9438 H 878.671 -0.0821089 -5.48839 0
M  V30 9439 H 878.932 1.15381 -4.26778 0
M  V30 9440 N 877.991 1.48044 -0.54043 0
M  V30 9441 C 878.939 2.31461 0.229862 0
M  V30 9442 C 879.933 1.41884 0.925495 0
M  V30 9443 O 881.139 1.58736 0.848689 0
M  V30 9444 H 877.514 0.746227 0.0929975 0
M  V30 9445 H 879.485 2.94297 -0.493118 0
M  V30 9446 C 878.234 3.24172 1.25729 0
M  V30 9447 H 877.557 3.93052 0.731426 0
M  V30 9448 H 878.997 3.85404 1.76747 0
M  V30 9449 C 877.456 2.4651 2.2964 0
M  V30 9450 O 877.986 2.19742 3.36268 0
M  V30 9451 N 876.192 2.07817 2.03127 0
M  V30 9452 H 875.739 2.29786 1.1643 0
M  V30 9453 H 875.697 1.56168 2.72872 0
M  V30 9454 N 879.47 0.276058 1.55163 0
M  V30 9455 C 880.4 -0.604633 2.25536 0
M  V30 9456 C 881.381 -1.15813 1.24585 0
M  V30 9457 O 882.566 -1.1921 1.53306 0
M  V30 9458 C 879.696 -1.78836 2.97716 0
M  V30 9459 C 878.65 -1.36635 4.05604 0
M  V30 9460 C 877.976 -2.63325 4.65364 0
M  V30 9461 C 879.276 -0.515858 5.19746 0
M  V30 9462 H 880.97 -0.0177483 2.99395 0
M  V30 9463 H 878.516 -0.00709627 1.43998 0
M  V30 9464 H 880.469 -2.41036 3.45658 0
M  V30 9465 H 879.193 -2.40109 2.21394 0
M  V30 9466 H 877.852 -0.767541 3.58475 0
M  V30 9467 H 877.5 -3.22858 3.85709 0
M  V30 9468 H 877.2 -2.358 5.38212 0
M  V30 9469 H 878.724 -3.26372 5.16056 0
M  V30 9470 H 880.138 -1.04289 5.63735 0
M  V30 9471 H 878.535 -0.335449 5.99162 0
M  V30 9472 H 879.605 0.465137 4.82664 0
M  V30 9473 N 880.948 -1.576 0.00335426 0
M  V30 9474 C 881.881 -2.04085 -1.021 0
M  V30 9475 C 882.859 -0.931382 -1.33282 0
M  V30 9476 O 884.043 -1.19976 -1.45389 0
M  V30 9477 C 881.17 -2.44128 -2.34775 0
M  V30 9478 C 880.216 -3.65841 -2.19232 0
M  V30 9479 S 881.049 -5.13616 -1.51521 0
M  V30 9480 C 882.205 -5.56931 -2.8562 0
M  V30 9481 H 882.438 -2.90652 -0.625192 0
M  V30 9482 H 879.971 -1.52998 -0.207611 0
M  V30 9483 H 881.929 -2.67866 -3.1106 0
M  V30 9484 H 880.59 -1.57954 -2.71495 0
M  V30 9485 H 879.783 -3.9162 -3.17253 0
M  V30 9486 H 879.385 -3.42122 -1.51091 0
M  V30 9487 H 881.677 -5.59596 -3.81914 0
M  V30 9488 H 882.62 -6.5683 -2.64536 0
M  V30 9489 H 883.028 -4.84504 -2.89683 0
M  V30 9490 N 882.426 0.269451 -1.5528 0
M  V30 9491 C 883.703 1.02207 -1.66773 0
M  V30 9492 C 884.083 2.04168 -0.536536 0
M  V30 9493 O 883.431 2.23761 0.462956 0
M  V30 9494 C 883.641 1.67569 -3.0614 0
M  V30 9495 C 884.989 2.18599 -3.64005 0
M  V30 9496 O 886.013 1.7755 -3.08795 0
M  V30 9497 O 884.872 2.93903 -4.60742 0
M  V30 9498 H 881.966 0.474314 -0.677462 0
M  V30 9499 H 884.512 0.265026 -1.67618 0
M  V30 9500 H 883.284 0.937029 -3.79915 0
M  V30 9501 H 882.907 2.49951 -3.09209 0
M  V30 9502 N 883.904 1.48273 0.534124 0
M  V30 9503 C 885.32 1.34302 0.862272 0
M  V30 9504 C 885.52 0.350902 1.98421 0
M  V30 9505 O 884.576 -0.229364 2.51456 0
M  V30 9506 C 885.889 2.74227 1.23371 0
M  V30 9507 C 887.437 2.82684 1.34383 0
M  V30 9508 C 887.912 4.23301 1.74871 0
M  V30 9509 N 889.403 4.25954 1.81981 0
M  V30 9510 C 890.138 5.31693 2.14686 0
M  V30 9511 N 889.634 6.47714 2.45844 0
M  V30 9512 N 891.427 5.19084 2.15657 0
M  V30 9513 H 883.578 2.11397 -0.206215 0
M  V30 9514 H 885.841 0.947537 -0.0296116 0
M  V30 9515 H 885.547 3.48368 0.482967 0
M  V30 9516 H 885.421 3.07485 2.18478 0
M  V30 9517 H 887.808 2.08801 2.08534 0
M  V30 9518 H 887.889 2.5305 0.374063 0
M  V30 9519 H 887.533 4.97699 1.01282 0
M  V30 9520 H 887.463 4.50376 2.7289 0
M  V30 9521 H 889.954 3.42266 1.60196 0
M  V30 9522 H 890.267 7.2414 2.69892 0
M  V30 9523 H 888.612 6.50995 2.43372 0
M  V30 9524 H 891.803 4.27463 1.9077 0
M  V30 9525 H 891.976 6.01592 2.40813 0
M  V30 9526 N 885.382 -0.782676 1.36792 0
M  V30 9527 C 886.659 -1.52939 1.21939 0
M  V30 9528 C 887.039 -2.10228 -0.191639 0
M  V30 9529 O 886.387 -1.94574 -1.19805 0
M  V30 9530 C 886.597 -2.61898 2.30674 0
M  V30 9531 C 887.945 -3.29598 2.67676 0
M  V30 9532 O 888.969 -2.72186 2.29768 0
M  V30 9533 O 887.828 -4.3337 3.32946 0
M  V30 9534 H 884.922 -0.676856 0.47518 0
M  V30 9535 H 887.468 -0.82058 1.48542 0
M  V30 9536 H 886.24 -2.17607 3.25212 0
M  V30 9537 H 885.863 -3.40391 2.05475 0
M  V30 9538 N 886.86 -1.21182 -1.00761 0
M  V30 9539 C 888.108 -1.02543 -1.74153 0
M  V30 9540 C 888.429 0.442372 -1.89916 0
M  V30 9541 O 887.699 1.31927 -1.44818 0
M  V30 9542 H 886.279 -0.37644 -0.645214 0
M  V30 9543 H 888.941 -1.52446 -1.21434 0
M  V30 9544 H 888.037 -1.49122 -2.7417 0
M  V30 9545 N 888.338 1.20213 -1.01915 0
M  V30 9546 C 889.286 2.25125 -0.584936 0
M  V30 9547 C 890.28 1.65138 0.377602 0
M  V30 9548 O 891.486 1.78294 0.247245 0
M  V30 9549 H 887.861 0.732333 -0.170858 0
M  V30 9550 H 889.832 2.59075 -1.48063 0
M  V30 9551 C 888.581 3.47651 0.058389 0
M  V30 9552 H 887.904 3.9409 -0.673263 0
M  V30 9553 H 889.344 4.2275 0.325285 0
M  V30 9554 C 887.803 3.10725 1.30199 0
M  V30 9555 O 888.333 3.22491 2.39505 0
M  V30 9556 N 886.539 2.6525 1.18706 0
M  V30 9557 H 886.086 2.55875 0.297618 0
M  V30 9558 H 886.044 2.40913 2.02011 0
M  V30 9559 N 889.816 0.795718 1.36037 0
M  V30 9560 C 891.064 0.370291 1.98679 0
M  V30 9561 C 891.385 -1.06332 1.63458 0
M  V30 9562 O 890.655 -1.73394 0.911671 0
M  V30 9563 H 889.235 0.133928 0.734896 0
M  V30 9564 H 891.897 1.01915 1.6613 0
M  V30 9565 H 890.993 0.467207 3.08583 0
M  V30 9566 N 891.294 -1.47756 0.548274 0
M  V30 9567 C 892.241 -2.29893 -0.204408 0
M  V30 9568 C 893.211 -1.38509 -0.916761 0
M  V30 9569 O 894.396 -1.67472 -0.91421 0
M  V30 9570 C 891.536 -3.22282 -1.23403 0
M  V30 9571 C 890.649 -4.28753 -0.528654 0
M  V30 9572 C 889.784 -5.08303 -1.54279 0
M  V30 9573 C 888.823 -6.06557 -0.821893 0
M  V30 9574 N 887.96 -6.79098 -1.78243 0
M  V30 9575 H 892.8 -2.93739 0.502163 0
M  V30 9576 H 890.337 -1.44793 0.259471 0
M  V30 9577 H 892.295 -3.74262 -1.84348 0
M  V30 9578 H 890.925 -2.6032 -1.90875 0
M  V30 9579 H 889.977 -3.79899 0.195132 0
M  V30 9580 H 891.289 -4.98787 0.0365066 0
M  V30 9581 H 890.443 -5.64388 -2.22602 0
M  V30 9582 H 889.182 -4.3815 -2.14186 0
M  V30 9583 H 888.187 -5.49659 -0.12469 0
M  V30 9584 H 889.412 -6.78715 -0.228685 0
M  V30 9585 H 887.358 -6.11682 -2.37025 0
M  V30 9586 H 887.275 -7.4527 -1.26919 0
M  V30 9587 H 888.543 -7.39762 -2.45709 0
M  V30 9588 N 892.772 -0.284283 -1.55015 0
M  V30 9589 C 893.702 0.592663 -2.25853 0
M  V30 9590 C 894.683 1.15151 -1.25197 0
M  V30 9591 O 895.868 1.18395 -1.53936 0
M  V30 9592 C 892.998 1.77254 -2.98661 0
M  V30 9593 C 891.952 1.34482 -4.06323 0
M  V30 9594 C 891.278 2.60853 -4.66754 0
M  V30 9595 C 892.578 0.488288 -5.20013 0
M  V30 9596 H 894.272 0.00187041 -2.994 0
M  V30 9597 H 891.818 -0.000540402 -1.44 0
M  V30 9598 H 893.771 2.39199 -3.46932 0
M  V30 9599 H 892.495 2.38931 -2.22664 0
M  V30 9600 H 891.154 0.748519 -3.58877 0
M  V30 9601 H 890.802 3.20808 -3.87416 0
M  V30 9602 H 890.502 2.32942 -5.39455 0
M  V30 9603 H 892.026 3.23631 -5.1778 0
M  V30 9604 H 893.44 1.01298 -5.6428 0
M  V30 9605 H 891.837 0.303669 -5.99331 0
M  V30 9606 H 892.907 -0.490727 -4.8241 0
M  V30 9607 N 894.251 1.57596 -0.0117121 0
M  V30 9608 C 895.499 1.90694 0.669342 0
M  V30 9609 C 895.82 0.886999 1.73659 0
M  V30 9610 O 895.09 -0.0739779 1.9576 0
M  V30 9611 H 893.67 0.703846 0.250219 0
M  V30 9612 H 896.332 1.94821 -0.0554057 0
M  V30 9613 H 895.428 2.90802 1.13316 0
M  V30 9614 N 895.729 -0.261212 1.5542 0
M  V30 9615 C 896.659 -1.32712 1.92119 0
M  V30 9616 C 897.64 -1.50934 0.784406 0
M  V30 9617 O 898.825 -1.63781 1.04352 0
M  V30 9618 C 895.955 -2.68453 2.20341 0
M  V30 9619 C 894.909 -2.64947 3.36136 0
M  V30 9620 C 894.235 -4.04349 3.49865 0
M  V30 9621 C 895.535 -2.23182 4.72215 0
M  V30 9622 H 897.229 -1.02245 2.81401 0
M  V30 9623 H 894.775 -0.490406 1.35392 0
M  V30 9624 H 896.728 -3.43144 2.44603 0
M  V30 9625 H 895.452 -3.00527 1.27871 0
M  V30 9626 H 894.111 -1.92714 3.11861 0
M  V30 9627 H 893.759 -4.33665 2.5484 0
M  V30 9628 H 893.459 -4.02895 4.27726 0
M  V30 9629 H 894.983 -4.80761 3.76432 0
M  V30 9630 H 896.397 -2.87599 4.95943 0
M  V30 9631 H 894.794 -2.32867 5.53076 0
M  V30 9632 H 895.864 -1.18327 4.70241 0
M  V30 9633 N 897.207 -1.48554 -0.526253 0
M  V30 9634 C 898.453 -1.56994 -1.28378 0
M  V30 9635 C 898.786 -0.244701 -1.92652 0
M  V30 9636 O 898.061 0.749636 -1.79473 0
M  V30 9637 C 898.344 -2.71092 -2.37026 0
M  V30 9638 C 898.197 -4.13331 -1.77418 0
M  V30 9639 C 899.516 -2.80934 -3.38769 0
M  V30 9640 H 896.635 -0.571466 -0.465398 0
M  V30 9641 H 899.277 -1.80742 -0.585861 0
M  V30 9642 H 897.427 -2.50973 -2.96555 0
M  V30 9643 H 899.099 -4.44899 -1.21912 0
M  V30 9644 H 897.342 -4.20158 -1.07936 0
M  V30 9645 H 898.013 -4.88994 -2.56104 0
M  V30 9646 H 900.489 -2.9917 -2.892 0
M  V30 9647 H 899.365 -3.62489 -4.12181 0
M  V30 9648 H 899.626 -1.89244 -3.99549 0
M  V30 9649 N 898.685 0.775411 -1.37205 0
M  V30 9650 C 899.595 1.91967 -1.34855 0
M  V30 9651 C 900.611 1.72214 -0.248656 0
M  V30 9652 O 901.787 1.95512 -0.483421 0
M  V30 9653 C 898.852 3.27038 -1.15096 0
M  V30 9654 C 897.913 3.5947 -2.34691 0
M  V30 9655 C 897.146 4.88097 -2.15865 0
M  V30 9656 O 897.369 5.58871 -1.14102 0
M  V30 9657 O 896.303 5.19507 -3.03967 0
M  V30 9658 H 900.129 1.969 -2.31223 0
M  V30 9659 H 897.714 0.917647 -1.17897 0
M  V30 9660 H 899.596 4.07837 -1.0605 0
M  V30 9661 H 898.271 3.22965 -0.217999 0
M  V30 9662 H 897.178 2.7892 -2.49308 0
M  V30 9663 H 898.511 3.68282 -3.26541 0
M  V30 9664 N 900.163 1.21714 1.00117 0
M  V30 9665 C 901.41 1.0367 1.73951 0
M  V30 9666 C 901.738 -0.429289 1.89703 0
M  V30 9667 O 900.993 -1.33475 1.43119 0
M  V30 9668 C 901.292 1.68345 3.15269 0
M  V30 9669 C 900.958 3.18214 3.19454 0
M  V30 9670 C 899.62 3.59109 3.20303 0
M  V30 9671 C 901.972 4.14179 3.16394 0
M  V30 9672 C 899.3 4.94467 3.15783 0
M  V30 9673 C 901.652 5.49502 3.13416 0
M  V30 9674 C 900.316 5.8979 3.12577 0
M  V30 9675 H 899.586 0.379355 0.63653 0
M  V30 9676 H 902.233 1.51361 1.17312 0
M  V30 9677 H 900.538 1.12957 3.75164 0
M  V30 9678 H 902.235 1.51882 3.71124 0
M  V30 9679 H 898.825 2.85646 3.19538 0
M  V30 9680 H 903.009 3.83607 3.14895 0
M  V30 9681 H 898.265 5.24923 3.13473 0
M  V30 9682 H 902.439 6.23595 3.10003 0
M  V30 9683 H 900.066 6.94643 3.08829 0
M  V30 9684 N 901.641 -1.19671 1.02551 0
M  V30 9685 C 902.589 -2.24812 0.596867 0
M  V30 9686 C 903.583 -1.65336 -0.368839 0
M  V30 9687 O 904.789 -1.78422 -0.237786 0
M  V30 9688 H 901.164 -0.731417 0.174739 0
M  V30 9689 H 903.135 -2.58286 1.49435 0
M  V30 9690 C 901.884 -3.47677 -0.0399514 0
M  V30 9691 H 901.207 -3.93728 0.694153 0
M  V30 9692 H 902.647 -4.22917 -0.302861 0
M  V30 9693 C 901.106 -3.11411 -1.2855 0
M  V30 9694 O 901.636 -3.23757 -2.37791 0
M  V30 9695 N 899.842 -2.65875 -1.17297 0
M  V30 9696 H 899.389 -2.56029 -0.284045 0
M  V30 9697 H 899.347 -2.41981 -2.00731 0
M  V30 9698 N 903.119 -0.802921 -1.35613 0
M  V30 9699 C 904.368 -0.378087 -1.98125 0
M  V30 9700 C 904.681 1.05953 -1.64418 0
M  V30 9701 O 905.887 1.58729 -2.20266 0
M  V30 9702 C 904.343 -0.625077 -3.5443 0
M  V30 9703 C 903.951 -2.07499 -3.97049 0
M  V30 9704 C 905.695 -0.265419 -4.23669 0
M  V30 9705 C 903.602 -2.26793 -5.46186 0
M  V30 9706 H 902.532 -0.137633 -0.741332 0
M  V30 9707 H 905.183 -0.986461 -1.54729 0
M  V30 9708 H 903.565 0.0531975 -3.95964 0
M  V30 9709 H 904.739 -2.79077 -3.66678 0
M  V30 9710 H 903.054 -2.39417 -3.40688 0
M  V30 9711 H 905.651 -0.387669 -5.33293 0
M  V30 9712 H 905.994 0.787994 -4.08774 0
M  V30 9713 H 906.527 -0.897464 -3.87544 0
M  V30 9714 H 903.266 -3.30566 -5.66045 0
M  V30 9715 H 902.786 -1.59735 -5.78139 0
M  V30 9716 H 904.465 -2.08165 -6.12598 0
M  V30 9717 N 904.597 1.47463 -0.556102 0
M  V30 9718 C 905.527 2.32801 0.180497 0
M  V30 9719 C 906.508 1.43721 0.909848 0
M  V30 9720 O 907.693 1.72578 0.89053 0
M  V30 9721 C 904.823 3.25478 1.21167 0
M  V30 9722 C 903.777 4.2379 0.598846 0
M  V30 9723 C 903.103 5.05783 1.73457 0
M  V30 9724 C 904.403 5.20387 -0.446659 0
M  V30 9725 H 906.097 2.94636 -0.531956 0
M  V30 9726 H 903.643 1.41683 -0.257267 0
M  V30 9727 H 905.596 3.8402 1.73513 0
M  V30 9728 H 904.32 2.61695 1.95405 0
M  V30 9729 H 902.979 3.66472 0.0966897 0
M  V30 9730 H 902.627 4.38405 2.46596 0
M  V30 9731 H 902.327 5.72343 1.33031 0
M  V30 9732 H 903.851 5.67183 2.26131 0
M  V30 9733 H 905.265 5.73299 -0.00930019 0
M  V30 9734 H 903.662 5.95143 -0.769735 0
M  V30 9735 H 904.732 4.65932 -1.34295 0
M  V30 9736 N 906.075 0.2925 1.54862 0
M  V30 9737 C 907.321 -0.312645 2.00983 0
M  V30 9738 C 907.676 -1.52174 1.17732 0
M  V30 9739 O 906.969 -1.90045 0.243581 0
M  V30 9740 C 907.163 -0.728674 3.49893 0
M  V30 9741 C 906.992 0.438562 4.47556 0
M  V30 9742 C 905.762 0.927885 4.96708 0
M  V30 9743 C 907.96 1.28076 4.98097 0
M  V30 9744 N 905.942 2.06277 5.78207 0
M  V30 9745 C 907.313 2.26326 5.77214 0
M  V30 9746 C 909.368 1.31211 4.803 0
M  V30 9747 C 908.071 3.27478 6.4043 0
M  V30 9748 C 910.097 2.31216 5.44328 0
M  V30 9749 C 909.459 3.28197 6.23271 0
M  V30 9750 H 905.558 -0.0790979 0.777989 0
M  V30 9751 H 908.142 0.420481 1.90105 0
M  V30 9752 H 906.313 -1.43099 3.61078 0
M  V30 9753 H 908.045 -1.31263 3.82821 0
M  V30 9754 H 904.8 0.504272 4.70908 0
M  V30 9755 H 905.224 2.63436 6.23643 0
M  V30 9756 H 909.866 0.576079 4.18857 0
M  V30 9757 H 907.584 4.02005 7.01012 0
M  V30 9758 H 911.17 2.34405 5.3249 0
M  V30 9759 H 910.05 4.04314 6.71937 0
M  V30 9760 N 907.553 -1.57587 0.0200696 0
M  V30 9761 C 908.501 -2.10814 -0.982868 0
M  V30 9762 C 909.495 -1.03263 -1.34287 0
M  V30 9763 O 910.701 -1.21708 -1.32617 0
M  V30 9764 H 907.076 -0.673409 -0.334701 0
M  V30 9765 H 909.047 -2.94034 -0.50856 0
M  V30 9766 C 907.796 -2.64301 -2.25921 0
M  V30 9767 H 907.119 -3.46703 -1.99091 0
M  V30 9768 H 908.559 -3.052 -2.94328 0
M  V30 9769 C 907.018 -1.56628 -2.98277 0
M  V30 9770 O 907.548 -0.960825 -3.9004 0
M  V30 9771 N 905.754 -1.28889 -2.60453 0
M  V30 9772 H 905.301 -1.7831 -1.85912 0
M  V30 9773 H 905.259 -0.570697 -3.09177 0
M  V30 9774 N 909.032 0.252966 -1.55557 0
M  V30 9775 C 910.448 0.60118 -1.47844 0
M  V30 9776 C 910.648 1.88612 -0.709055 0
M  V30 9777 O 909.704 2.51395 -0.235964 0
M  V30 9778 C 911.017 0.709539 -2.92209 0
M  V30 9779 C 912.565 0.802269 -3.02544 0
M  V30 9780 C 913.04 0.94224 -4.48203 0
M  V30 9781 N 914.531 1.00726 -4.52116 0
M  V30 9782 C 915.266 1.13472 -5.6206 0
M  V30 9783 N 914.762 1.22811 -6.81828 0
M  V30 9784 N 916.555 1.1674 -5.49844 0
M  V30 9785 H 908.706 -0.590635 -2.04023 0
M  V30 9786 H 910.969 -0.202986 -0.926013 0
M  V30 9787 H 910.675 -0.164505 -3.51315 0
M  V30 9788 H 910.549 1.58343 -3.42356 0
M  V30 9789 H 912.936 1.66677 -2.43522 0
M  V30 9790 H 913.017 -0.0966469 -2.55617 0
M  V30 9791 H 912.661 0.0823209 -5.07833 0
M  V30 9792 H 912.591 1.85611 -4.92805 0
M  V30 9793 H 915.082 0.946684 -3.6585 0
M  V30 9794 H 915.395 1.32426 -7.61369 0
M  V30 9795 H 913.74 1.19779 -6.84601 0
M  V30 9796 H 916.931 1.09089 -4.55211 0
M  V30 9797 H 917.104 1.26329 -6.35567 0
M  V30 9798 N 910.51 1.48831 0.518367 0
M  V30 9799 C 911.759 1.5669 1.27008 0
M  V30 9800 C 912.072 0.250934 1.93984 0
M  V30 9801 O 913.278 0.207884 2.70703 0
M  V30 9802 C 911.734 2.76387 2.30517 0
M  V30 9803 C 911.342 4.14673 1.69559 0
M  V30 9804 C 913.086 2.93566 3.06625 0
M  V30 9805 C 910.993 5.25616 2.71076 0
M  V30 9806 H 909.923 0.583362 0.477708 0
M  V30 9807 H 912.574 1.75187 0.546052 0
M  V30 9808 H 910.956 2.51348 3.06006 0
M  V30 9809 H 912.13 4.49779 1.00179 0
M  V30 9810 H 910.445 4.02708 1.05902 0
M  V30 9811 H 913.042 3.7362 3.82508 0
M  V30 9812 H 913.385 2.03462 3.63193 0
M  V30 9813 H 913.918 3.18562 2.38251 0
M  V30 9814 H 910.657 6.17723 2.19313 0
M  V30 9815 H 910.177 4.94985 3.38748 0
M  V30 9816 H 911.856 5.5422 3.3384 0
M  V30 9817 N 911.988 -0.768124 1.37614 0
M  V30 9818 C 913.404 -1.06919 1.18493 0
M  V30 9819 C 913.604 -2.01486 0.0235753 0
M  V30 9820 O 912.66 -2.4438 -0.635209 0
M  V30 9821 C 913.973 -1.66321 2.50515 0
M  V30 9822 C 915.521 -1.78562 2.57069 0
M  V30 9823 C 915.996 -2.41377 3.89231 0
M  V30 9824 N 917.487 -2.48824 3.90693 0
M  V30 9825 C 918.222 -2.98288 4.89706 0
M  V30 9826 N 917.718 -3.47897 5.99115 0
M  V30 9827 N 919.511 -2.97196 4.77107 0
M  V30 9828 H 911.662 -0.140286 2.11936 0
M  V30 9829 H 913.925 -0.124863 0.939741 0
M  V30 9830 H 913.631 -1.04303 3.35878 0
M  V30 9831 H 913.505 -2.65571 2.67866 0
M  V30 9832 H 915.892 -2.39712 1.72111 0
M  V30 9833 H 915.973 -0.780574 2.43599 0
M  V30 9834 H 915.617 -1.80866 4.74605 0
M  V30 9835 H 915.547 -3.42495 4.00006 0
M  V30 9836 H 918.038 -2.1372 3.1166 0
M  V30 9837 H 918.351 -3.84053 6.70614 0
M  V30 9838 H 916.696 -3.45993 6.02755 0
M  V30 9839 H 919.887 -2.57741 3.90752 0
M  V30 9840 H 920.06 -3.35434 5.54426 0
M  V30 9841 N 913.466 -1.22244 -0.994698 0
M  V30 9842 C 914.414 -0.988118 -2.10568 0
M  V30 9843 C 915.408 0.0681541 -1.69263 0
M  V30 9844 O 916.614 -0.0841311 -1.79803 0
M  V30 9845 H 912.989 -0.302343 -0.688544 0
M  V30 9846 H 914.96 -1.93091 -2.27505 0
M  V30 9847 C 913.709 -0.580557 -3.42819 0
M  V30 9848 H 913.032 -1.385 -3.75044 0
M  V30 9849 H 914.472 -0.456004 -4.21541 0
M  V30 9850 C 912.931 0.709692 -3.2934 0
M  V30 9851 O 913.461 1.76259 -3.60965 0
M  V30 9852 N 911.667 0.680155 -2.82528 0
M  V30 9853 H 911.214 -0.176977 -2.56991 0
M  V30 9854 H 911.172 1.54372 -2.73892 0
M  V30 9855 N 914.944 1.19125 -1.03184 0
M  V30 9856 C 916.174 1.92558 -0.748663 0
M  V30 9857 C 916.582 1.759 0.696837 0
M  V30 9858 O 915.925 1.08019 1.48585 0
M  V30 9859 C 915.987 3.4461 -1.02391 0
M  V30 9860 C 915.651 3.85041 -2.46155 0
M  V30 9861 C 916.648 3.89554 -3.44302 0
M  V30 9862 C 914.333 4.16594 -2.80633 0
M  V30 9863 C 916.327 4.25055 -4.74981 0
M  V30 9864 C 914.014 4.51767 -4.11521 0
M  V30 9865 C 915.012 4.55972 -5.08506 0
M  V30 9866 O 914.7 4.9033 -6.37049 0
M  V30 9867 H 914.432 0.618397 -0.273059 0
M  V30 9868 H 916.986 1.52122 -1.38015 0
M  V30 9869 H 915.216 3.85244 -0.335284 0
M  V30 9870 H 916.905 3.99283 -0.729927 0
M  V30 9871 H 917.671 3.65324 -3.19003 0
M  V30 9872 H 913.55 4.12503 -2.05821 0
M  V30 9873 H 917.094 4.28252 -5.50678 0
M  V30 9874 H 912.991 4.75455 -4.36592 0
M  V30 9875 H 913.759 5.08266 -6.41566 0
M  V30 9876 N 916.422 0.810101 1.35185 0
M  V30 9877 C 917.352 0.237453 2.32289 0
M  V30 9878 C 918.333 -0.639032 1.5764 0
M  V30 9879 O 919.518 -0.568575 1.8569 0
M  V30 9880 C 916.648 -0.611964 3.41866 0
M  V30 9881 C 915.602 0.166318 4.27677 0
M  V30 9882 C 914.928 -0.805024 5.28605 0
M  V30 9883 C 916.228 1.36729 5.04086 0
M  V30 9884 H 917.922 1.04874 2.80432 0
M  V30 9885 H 915.468 0.505751 1.34826 0
M  V30 9886 H 917.421 -1.02267 4.08802 0
M  V30 9887 H 916.145 -1.45617 2.92341 0
M  V30 9888 H 914.804 0.558238 3.62325 0
M  V30 9889 H 914.452 -1.64483 4.75347 0
M  V30 9890 H 914.152 -0.288577 5.86891 0
M  V30 9891 H 915.676 -1.21386 5.98413 0
M  V30 9892 H 917.09 1.03128 5.63948 0
M  V30 9893 H 915.487 1.81848 5.71884 0
M  V30 9894 H 916.557 2.15214 4.34524 0
M  V30 9895 N 917.9 -1.47166 0.563914 0
M  V30 9896 C 919.125 -2.0735 0.0454698 0
M  V30 9897 C 919.55 -1.41281 -1.24182 0
M  V30 9898 O 918.908 -0.490084 -1.7455 0
M  V30 9899 C 918.956 -3.60378 -0.126453 0
M  V30 9900 O 918.06 -3.94934 -1.18746 0
M  V30 9901 H 917.401 -0.661773 0.0543377 0
M  V30 9902 H 919.931 -1.89086 0.781508 0
M  V30 9903 H 919.941 -4.06593 -0.338554 0
M  V30 9904 H 918.616 -4.07862 0.81373 0
M  V30 9905 H 917.193 -3.60455 -0.955318 0
M  V30 9906 N 919.378 -0.300708 -1.54705 0
M  V30 9907 C 920.627 0.309428 -1.99312 0
M  V30 9908 C 920.94 1.55027 -1.19272 0
M  V30 9909 O 922.146 2.23498 -1.54146 0
M  V30 9910 C 920.602 0.601856 -3.54832 0
M  V30 9911 C 920.21 -0.620636 -4.4368 0
M  V30 9912 C 921.954 1.1732 -4.07966 0
M  V30 9913 C 919.861 -0.301376 -5.90632 0
M  V30 9914 H 918.791 0.119395 -0.744487 0
M  V30 9915 H 921.442 -0.409368 -1.78875 0
M  V30 9916 H 919.824 1.38024 -3.71168 0
M  V30 9917 H 920.998 -1.39685 -4.39118 0
M  V30 9918 H 919.313 -1.1106 -4.01316 0
M  V30 9919 H 921.91 1.42631 -5.15326 0
M  V30 9920 H 922.253 2.11537 -3.5855 0
M  V30 9921 H 922.786 0.456534 -3.95172 0
M  V30 9922 H 919.525 -1.21209 -6.44196 0
M  V30 9923 H 919.045 0.437574 -5.98202 0
M  V30 9924 H 920.724 0.097164 -6.46927 0
M  V30 9925 N 920.856 1.57574 -0.0284266 0
M  V30 9926 C 922.103 1.91772 0.650364 0
M  V30 9927 C 922.431 0.904769 1.72175 0
M  V30 9928 O 921.686 -0.0864038 1.95509 0
M  V30 9929 C 921.985 3.32699 1.3056 0
M  V30 9930 C 921.651 4.49423 0.364658 0
M  V30 9931 C 920.313 4.81084 0.105672 0
M  V30 9932 C 922.665 5.20439 -0.28151 0
M  V30 9933 C 919.993 5.81119 -0.8073 0
M  V30 9934 C 922.345 6.21449 -1.18253 0
M  V30 9935 C 921.009 6.51551 -1.45042 0
M  V30 9936 H 920.279 0.701744 0.237985 0
M  V30 9937 H 922.926 1.91288 -0.0900448 0
M  V30 9938 H 921.231 3.29441 2.12075 0
M  V30 9939 H 922.928 3.5643 1.83736 0
M  V30 9940 H 919.518 4.24703 0.576692 0
M  V30 9941 H 923.702 4.9621 -0.0944806 0
M  V30 9942 H 918.958 6.02788 -1.02256 0
M  V30 9943 H 923.132 6.75597 -1.68942 0
M  V30 9944 H 920.759 7.28882 -2.15951 0
M  V30 9945 N 922.334 -0.244713 1.55689 0
M  V30 9946 C 923.75 -0.593331 1.48161 0
M  V30 9947 C 923.95 -1.88234 0.719047 0
M  V30 9948 O 923.006 -2.51266 0.249292 0
M  V30 9949 C 924.319 -0.694032 2.92581 0
M  V30 9950 C 925.867 -0.786213 3.02965 0
M  V30 9951 C 926.342 -0.918457 4.48696 0
M  V30 9952 N 927.833 -0.983272 4.52643 0
M  V30 9953 C 928.568 -1.1049 5.62654 0
M  V30 9954 N 928.064 -1.19193 6.8247 0
M  V30 9955 N 929.857 -1.13823 5.50455 0
M  V30 9956 H 922.008 0.601446 2.03707 0
M  V30 9957 H 924.271 0.207894 0.924924 0
M  V30 9958 H 923.977 0.183133 3.51223 0
M  V30 9959 H 923.851 -1.56525 3.4319 0
M  V30 9960 H 926.238 -1.65383 2.44402 0
M  V30 9961 H 926.319 0.110202 2.55563 0
M  V30 9962 H 925.963 -0.0553881 5.0787 0
M  V30 9963 H 925.893 -1.82994 4.93782 0
M  V30 9964 H 928.384 -0.927269 3.66347 0
M  V30 9965 H 928.697 -1.28387 7.62061 0
M  V30 9966 H 927.042 -1.16147 6.85226 0
M  V30 9967 H 930.233 -1.06673 4.55783 0
M  V30 9968 H 930.406 -1.22957 6.36228 0
M  V30 9969 N 923.813 -1.49104 -0.510467 0
M  V30 9970 C 924.76 -1.65074 -1.61305 0
M  V30 9971 C 925.73 -0.492362 -1.58635 0
M  V30 9972 O 926.915 -0.718241 -1.76765 0
M  V30 9973 C 924.055 -1.71457 -2.99493 0
M  V30 9974 C 923.168 -2.98536 -3.12251 0
M  V30 9975 C 922.303 -2.95957 -4.41116 0
M  V30 9976 C 921.342 -4.17655 -4.47471 0
M  V30 9977 N 920.479 -4.13041 -5.67751 0
M  V30 9978 H 925.319 -2.59222 -1.46996 0
M  V30 9979 H 922.856 -1.28535 -0.715346 0
M  V30 9980 H 924.814 -1.7314 -3.79577 0
M  V30 9981 H 923.444 -0.807834 -3.12528 0
M  V30 9982 H 922.496 -3.06509 -2.25292 0
M  V30 9983 H 923.808 -3.88527 -3.12807 0
M  V30 9984 H 922.962 -2.96149 -5.2951 0
M  V30 9985 H 921.701 -2.03728 -4.4311 0
M  V30 9986 H 920.706 -4.17717 -3.57481 0
M  V30 9987 H 921.931 -5.11066 -4.472 0
M  V30 9988 H 919.877 -3.23643 -5.70606 0
M  V30 9989 H 919.794 -4.96757 -5.69884 0
M  V30 9990 H 921.062 -4.17322 -6.58379 0
M  V30 9991 N 925.291 0.760815 -1.38019 0
M  V30 9992 C 926.538 1.51973 -1.3383 0
M  V30 9993 C 926.866 1.9436 0.0738855 0
M  V30 9994 O 926.121 1.65181 1.04946 0
M  V30 9995 C 926.42 2.79024 -2.23339 0
M  V30 9996 C 926.086 2.55636 -3.71431 0
M  V30 9997 C 924.748 2.48966 -4.11788 0
M  V30 9998 C 927.1 2.35018 -4.65205 0
M  V30 9999 C 924.428 2.19684 -5.44018 0
M  V30 10000 C 926.78 2.07258 -5.97685 0
M  V30 10001 C 925.444 1.9904 -6.37134 0
M  V30 10002 H 924.714 0.556108 -0.489719 0
M  V30 10003 H 927.361 0.87545 -1.70318 0
M  V30 10004 H 925.666 3.48065 -1.79883 0
M  V30 10005 H 927.363 3.36951 -2.17405 0
M  V30 10006 H 923.953 2.61695 -3.39432 0
M  V30 10007 H 928.137 2.39154 -4.34878 0
M  V30 10008 H 923.393 2.11825 -5.73533 0
M  V30 10009 H 927.567 1.90307 -6.69893 0
M  V30 10010 H 925.194 1.76115 -7.39519 0
M  V30 10011 N 926.769 1.22769 0.988202 0
M  V30 10012 C 928.046 0.9635 1.70223 0
M  V30 10013 C 928.426 -0.520102 2.04593 0
M  V30 10014 O 927.774 -1.48934 1.73295 0
M  V30 10015 C 927.984 1.86583 2.94937 0
M  V30 10016 C 929.332 2.12469 3.67616 0
M  V30 10017 O 930.356 1.84069 3.04954 0
M  V30 10018 O 929.215 2.60595 4.80367 0
M  V30 10019 H 926.309 0.362737 0.743203 0
M  V30 10020 H 928.855 1.33776 1.04412 0
M  V30 10021 H 927.627 2.86913 2.66077 0
M  V30 10022 H 927.25 1.49344 3.68486 0
M  V30 10023 N 928.247 -1.18576 1.03814 0
M  V30 10024 C 929.177 -2.24334 0.647795 0
M  V30 10025 C 930.158 -1.66508 -0.34774 0
M  V30 10026 O 931.343 -1.92852 -0.228401 0
M  V30 10027 C 928.473 -3.47299 0.00734922 0
M  V30 10028 C 927.427 -4.17859 0.926152 0
M  V30 10029 C 926.753 -5.34489 0.150317 0
M  V30 10030 C 928.053 -4.71632 2.24411 0
M  V30 10031 H 929.747 -2.57241 1.53191 0
M  V30 10032 H 927.293 -1.23649 0.738028 0
M  V30 10033 H 929.246 -4.20486 -0.277434 0
M  V30 10034 H 927.97 -3.13619 -0.911626 0
M  V30 10035 H 926.629 -3.46567 1.19528 0
M  V30 10036 H 926.277 -4.97056 -0.770985 0
M  V30 10037 H 925.977 -5.82633 0.762407 0
M  V30 10038 H 927.501 -6.10467 -0.127508 0
M  V30 10039 H 928.915 -5.36526 2.02021 0
M  V30 10040 H 927.312 -5.303 2.80894 0
M  V30 10041 H 928.382 -3.89192 2.89236 0
M  V30 10042 N 929.725 -0.817259 -1.34754 0
M  V30 10043 C 931.002 -0.325468 -1.92873 0
M  V30 10044 C 931.382 1.18643 -1.74606 0
M  V30 10045 O 930.73 1.9909 -1.1214 0
M  V30 10046 C 930.94 -0.74858 -3.40877 0
M  V30 10047 C 932.288 -0.744165 -4.18028 0
M  V30 10048 O 933.312 -0.690799 -3.49437 0
M  V30 10049 O 932.171 -0.812207 -5.40431 0
M  V30 10050 H 929.265 -0.0876397 -0.822343 0
M  V30 10051 H 931.811 -0.901671 -1.43764 0
M  V30 10052 H 930.583 -1.79017 -3.47949 0
M  V30 10053 H 930.206 -0.147764 -3.97325 0
M  V30 10054 N 931.203 1.46865 -0.571711 0
M  V30 10055 C 932.15 2.30189 0.167808 0
M  V30 10056 C 933.12 1.3995 0.89461 0
M  V30 10057 O 934.305 1.68905 0.887451 0
M  V30 10058 C 931.445 3.24205 1.1826 0
M  V30 10059 C 930.558 4.2954 0.460376 0
M  V30 10060 C 929.693 5.10693 1.46173 0
M  V30 10061 C 928.732 6.07788 0.725291 0
M  V30 10062 N 927.869 6.81847 1.67417 0
M  V30 10063 H 932.709 2.92902 -0.548831 0
M  V30 10064 H 930.246 1.44362 -0.282474 0
M  V30 10065 H 932.204 3.77147 1.7837 0
M  V30 10066 H 930.834 2.63324 1.86709 0
M  V30 10067 H 929.886 3.79541 -0.255546 0
M  V30 10068 H 931.198 4.98665 -0.115855 0
M  V30 10069 H 930.352 5.67857 2.13595 0
M  V30 10070 H 929.091 4.41502 2.07188 0
M  V30 10071 H 928.096 5.49787 0.037228 0
M  V30 10072 H 929.321 6.78993 0.120678 0
M  V30 10073 H 927.267 6.15376 2.27263 0
M  V30 10074 H 927.184 7.47195 1.15046 0
M  V30 10075 H 928.452 7.43577 2.33908 0
M  V30 10076 N 932.681 0.308908 1.54543 0
M  V30 10077 C 933.906 -0.303196 2.05172 0
M  V30 10078 C 934.331 -1.46133 1.18434 0
M  V30 10079 O 933.689 -1.803 0.190162 0
M  V30 10080 C 933.737 -0.729526 3.53143 0
M  V30 10081 O 932.841 -1.83348 3.69401 0
M  V30 10082 H 932.182 -0.0575066 0.661505 0
M  V30 10083 H 934.712 0.453055 1.99521 0
M  V30 10084 H 934.722 -1.01619 3.95143 0
M  V30 10085 H 933.397 0.117622 4.15734 0
M  V30 10086 H 931.974 -1.54676 3.39308 0
M  V30 10087 N 934.159 -1.57557 0.0367827 0
M  V30 10088 C 935.407 -1.91735 -0.63892 0
M  V30 10089 C 935.728 -0.914515 -1.72226 0
M  V30 10090 O 934.998 0.0428248 -1.95853 0
M  V30 10091 H 933.578 -0.707738 -0.23899 0
M  V30 10092 H 936.24 -1.94708 0.0863931 0
M  V30 10093 H 935.336 -2.92568 -1.08676 0
M  V30 10094 N 935.637 0.236453 -1.55816 0
M  V30 10095 C 936.862 0.98449 -1.82545 0
M  V30 10096 C 937.287 1.77755 -0.615206 0
M  V30 10097 O 936.645 1.75982 0.435895 0
M  V30 10098 C 936.693 1.88973 -3.07118 0
M  V30 10099 O 935.797 2.98298 -2.84766 0
M  V30 10100 H 935.138 0.279577 -0.602273 0
M  V30 10101 H 937.668 0.254277 -2.03014 0
M  V30 10102 H 937.678 2.3024 -3.36829 0
M  V30 10103 H 936.353 1.30671 -3.94839 0
M  V30 10104 H 934.93 2.61085 -2.6625 0
M  V30 10105 N 937.115 1.49373 0.502552 0
M  V30 10106 C 938.048 1.60529 1.6219 0
M  V30 10107 C 939.026 0.454431 1.56121 0
M  V30 10108 O 940.21 0.669768 1.762 0
M  V30 10109 C 937.337 1.55879 3.00698 0
M  V30 10110 C 936.383 2.76143 3.25034 0
M  V30 10111 S 937.216 4.37831 3.08325 0
M  V30 10112 C 938.372 4.35824 4.49231 0
M  V30 10113 H 938.605 2.55219 1.52482 0
M  V30 10114 H 936.138 1.38244 0.687594 0
M  V30 10115 H 938.096 1.53882 3.80566 0
M  V30 10116 H 936.757 0.624791 3.07823 0
M  V30 10117 H 935.95 2.69104 4.26144 0
M  V30 10118 H 935.552 2.75544 2.52886 0
M  V30 10119 H 937.844 4.07447 5.41288 0
M  V30 10120 H 938.787 5.37206 4.6132 0
M  V30 10121 H 939.195 3.65923 4.29838 0
M  V30 10122 N 938.594 -0.753485 1.38421 0
M  V30 10123 C 939.819 -1.54783 1.38047 0
M  V30 10124 C 940.244 -1.8808 -0.0276371 0
M  V30 10125 O 939.602 -1.5058 -1.00973 0
M  V30 10126 C 939.65 -2.82353 2.24297 0
M  V30 10127 O 938.754 -3.77509 1.66014 0
M  V30 10128 H 938.095 -0.468151 0.470883 0
M  V30 10129 H 940.625 -0.931144 1.82184 0
M  V30 10130 H 940.635 -3.31277 2.38159 0
M  V30 10131 H 939.31 -2.57449 3.26639 0
M  V30 10132 H 937.887 -3.36212 1.61294 0
M  V30 10133 N 940.072 -1.23292 -0.981677 0
M  V30 10134 C 941.035 -1.01417 -2.05542 0
M  V30 10135 C 942.035 0.0235354 -1.60783 0
M  V30 10136 O 943.225 -0.216082 -1.72855 0
M  V30 10137 C 940.357 -0.534239 -3.36688 0
M  V30 10138 H 941.55 -1.96702 -2.26381 0
M  V30 10139 H 939.103 -1.05318 -1.1549 0
M  V30 10140 H 939.838 0.422452 -3.21537 0
M  V30 10141 H 939.623 -1.28304 -3.70514 0
M  V30 10142 H 941.113 -0.40179 -4.15663 0
M  V30 10143 N 941.55 1.18024 -1.04442 0
M  V30 10144 C 942.78 1.91753 -0.769044 0
M  V30 10145 C 943.188 1.76629 0.678141 0
M  V30 10146 O 942.531 1.09589 1.47431 0
M  V30 10147 C 942.593 3.43505 -1.0604 0
M  V30 10148 C 942.257 3.82409 -2.50225 0
M  V30 10149 C 943.254 3.8588 -3.48414 0
M  V30 10150 C 940.939 4.13594 -2.85036 0
M  V30 10151 C 942.933 4.19993 -4.79463 0
M  V30 10152 C 940.62 4.47377 -4.1629 0
M  V30 10153 C 941.618 4.50553 -5.13314 0
M  V30 10154 O 941.306 4.83546 -6.42214 0
M  V30 10155 H 941.038 0.615466 -0.279603 0
M  V30 10156 H 943.592 1.5065 -1.3962 0
M  V30 10157 H 941.822 3.84866 -0.376125 0
M  V30 10158 H 943.511 3.98486 -0.772235 0
M  V30 10159 H 944.277 3.6192 -3.2286 0
M  V30 10160 H 940.156 4.10297 -2.10185 0
M  V30 10161 H 943.7 4.22387 -5.55189 0
M  V30 10162 H 939.597 4.70798 -4.4161 0
M  V30 10163 H 940.365 5.01433 -6.46921 0
M  V30 10164 N 943.028 0.824394 1.34319 0
M  V30 10165 C 943.938 0.24932 2.33271 0
M  V30 10166 C 944.954 -0.617066 1.62691 0
M  V30 10167 O 946.13 -0.524616 1.94447 0
M  V30 10168 C 943.195 -0.578094 3.41846 0
M  V30 10169 C 942.256 0.310866 4.28173 0
M  V30 10170 C 941.489 -0.477153 5.31563 0
M  V30 10171 O 941.712 -1.71028 5.44156 0
M  V30 10172 O 940.646 0.141287 6.01734 0
M  V30 10173 H 944.472 1.06837 2.84288 0
M  V30 10174 H 942.057 0.58657 1.37403 0
M  V30 10175 H 943.939 -1.04878 4.0814 0
M  V30 10176 H 942.614 -1.37444 2.93071 0
M  V30 10177 H 941.521 0.829081 3.64797 0
M  V30 10178 H 942.854 1.07161 4.80393 0
M  V30 10179 N 944.506 -1.46559 0.579492 0
M  V30 10180 C 945.439 -2.27287 -0.203894 0
M  V30 10181 C 946.417 -1.3543 -0.899865 0
M  V30 10182 O 947.601 -1.64836 -0.914398 0
M  V30 10183 C 944.728 -3.13077 -1.2923 0
M  V30 10184 C 943.774 -4.20675 -0.702505 0
M  V30 10185 S 944.607 -5.3345 0.468136 0
M  V30 10186 C 945.763 -6.22806 -0.621544 0
M  V30 10187 H 945.996 -2.93382 0.481083 0
M  V30 10188 H 943.529 -1.49992 0.366311 0
M  V30 10189 H 945.487 -3.63069 -1.91548 0
M  V30 10190 H 944.148 -2.46302 -1.94921 0
M  V30 10191 H 943.341 -4.80516 -1.52053 0
M  V30 10192 H 942.943 -3.73678 -0.155046 0
M  V30 10193 H 945.235 -6.60503 -1.50803 0
M  V30 10194 H 946.178 -7.08075 -0.059961 0
M  V30 10195 H 946.586 -5.56882 -0.924242 0
M  V30 10196 N 945.984 -0.3171 -1.54377 0
M  V30 10197 C 947.4 0.035766 -1.5956 0
M  V30 10198 C 947.6 1.51038 -1.33378 0
M  V30 10199 O 946.656 2.26546 -1.11505 0
M  V30 10200 C 947.969 -0.376652 -2.98332 0
M  V30 10201 C 949.517 -0.326765 -3.1129 0
M  V30 10202 C 949.992 -0.714247 -4.52396 0
M  V30 10203 N 951.483 -0.667402 -4.58367 0
M  V30 10204 C 952.218 -0.939494 -5.65651 0
M  V30 10205 N 951.714 -1.27839 -6.80903 0
M  V30 10206 N 953.507 -0.865484 -5.55397 0
M  V30 10207 H 945.658 -1.27794 -1.69654 0
M  V30 10208 H 947.921 -0.5192 -0.79318 0
M  V30 10209 H 947.627 -1.40381 -3.22469 0
M  V30 10210 H 947.501 0.261611 -3.76292 0
M  V30 10211 H 949.888 0.69117 -2.86892 0
M  V30 10212 H 949.969 -0.999873 -2.35449 0
M  V30 10213 H 949.613 -1.73007 -4.77526 0
M  V30 10214 H 949.543 -0.0188962 -5.26597 0
M  V30 10215 H 952.034 -0.417062 -3.75592 0
M  V30 10216 H 952.347 -1.47155 -7.5866 0
M  V30 10217 H 950.692 -1.31658 -6.82416 0
M  V30 10218 H 953.883 -0.600265 -4.64235 0
M  V30 10219 H 954.056 -1.0809 -6.38921 0
M  V30 10220 N 947.462 1.57535 -0.0451378 0
M  V30 10221 C 948.395 2.06721 0.96653 0
M  V30 10222 C 949.373 0.966392 1.30766 0
M  V30 10223 O 950.557 1.23789 1.42157 0
M  V30 10224 C 947.684 2.50266 2.2822 0
M  V30 10225 C 946.73 3.71525 2.09455 0
M  V30 10226 S 947.563 5.17453 1.37851 0
M  V30 10227 C 948.719 5.64308 2.70753 0
M  V30 10228 H 948.952 2.92207 0.547911 0
M  V30 10229 H 946.485 1.53494 0.166973 0
M  V30 10230 H 948.443 2.76019 3.03849 0
M  V30 10231 H 947.104 1.65097 2.67211 0
M  V30 10232 H 946.297 3.99894 3.06759 0
M  V30 10233 H 945.899 3.46008 1.41967 0
M  V30 10234 H 948.191 5.69525 3.66943 0
M  V30 10235 H 949.134 6.63613 2.47028 0
M  V30 10236 H 949.542 4.92014 2.76736 0
M  V30 10237 N 948.94 -0.228186 1.55939 0
M  V30 10238 C 949.903 -1.26621 1.91049 0
M  V30 10239 C 950.903 -1.40141 0.788491 0
M  V30 10240 O 952.093 -1.3852 1.05631 0
M  V30 10241 C 949.225 -2.64108 2.15545 0
M  V30 10242 H 950.418 -0.966978 2.83883 0
M  V30 10243 H 947.971 -0.468313 1.49119 0
M  V30 10244 H 948.706 -2.99141 1.25241 0
M  V30 10245 H 948.491 -2.55673 2.97277 0
M  V30 10246 H 949.981 -3.39025 2.43827 0
M  V30 10247 N 950.418 -1.49637 -0.494624 0
M  V30 10248 C 951.667 -1.58691 -1.24499 0
M  V30 10249 C 951.98 -0.281763 -1.9356 0
M  V30 10250 O 953.186 -0.250925 -2.70338 0
M  V30 10251 C 951.642 -2.8002 -2.26091 0
M  V30 10252 C 951.25 -4.17318 -1.6294 0
M  V30 10253 C 952.994 -2.98407 -3.01916 0
M  V30 10254 C 950.901 -5.29862 -2.62679 0
M  V30 10255 H 949.831 -0.590888 -0.468367 0
M  V30 10256 H 952.482 -1.76034 -0.518112 0
M  V30 10257 H 950.864 -2.56185 -3.01969 0
M  V30 10258 H 952.038 -4.51315 -0.930108 0
M  V30 10259 H 950.353 -4.04342 -0.994819 0
M  V30 10260 H 952.95 -3.79658 -3.76516 0
M  V30 10261 H 953.293 -2.09214 -3.5991 0
M  V30 10262 H 953.826 -3.22312 -2.33152 0
M  V30 10263 H 950.565 -6.21134 -2.09458 0
M  V30 10264 H 950.085 -5.00311 -3.3083 0
M  V30 10265 H 951.764 -5.59461 -3.2498 0
M  V30 10266 N 951.896 0.746133 -1.38819 0
M  V30 10267 C 952.806 1.89063 -1.38897 0
M  V30 10268 C 953.822 1.71648 -0.28513 0
M  V30 10269 O 954.998 1.94443 -0.524783 0
M  V30 10270 C 952.063 3.24523 -1.22007 0
M  V30 10271 C 951.124 3.54411 -2.42263 0
M  V30 10272 C 950.357 4.83408 -2.26169 0
M  V30 10273 O 950.58 5.56325 -1.25931 0
M  V30 10274 O 949.514 5.12943 -3.14918 0
M  V30 10275 H 953.34 1.91951 -2.35347 0
M  V30 10276 H 950.925 0.892433 -1.19816 0
M  V30 10277 H 952.807 4.05496 -1.14677 0
M  V30 10278 H 951.482 3.2243 -0.286455 0
M  V30 10279 H 950.389 2.73569 -2.55168 0
M  V30 10280 H 951.722 3.61273 -3.3428 0
M  V30 10281 N 953.375 1.23811 0.975125 0
M  V30 10282 C 954.6 1.10109 1.75757 0
M  V30 10283 C 955.025 -0.342922 1.84948 0
M  V30 10284 O 954.383 -1.24814 1.31496 0
M  V30 10285 C 954.431 1.73724 3.15994 0
M  V30 10286 O 953.535 1.00297 4.00018 0
M  V30 10287 H 952.876 0.385627 0.540544 0
M  V30 10288 H 955.406 1.63971 1.22372 0
M  V30 10289 H 955.416 1.79178 3.6655 0
M  V30 10290 H 954.091 2.78794 3.0862 0
M  V30 10291 H 952.668 1.02575 3.58515 0
M  V30 10292 N 954.853 -1.17469 1.05066 0
M  V30 10293 C 955.816 -2.19648 0.654793 0
M  V30 10294 C 956.816 -1.58107 -0.293063 0
M  V30 10295 O 958.006 -1.74029 -0.077106 0
M  V30 10296 C 955.138 -3.40878 -0.0384437 0
M  V30 10297 H 956.331 -2.56184 1.55915 0
M  V30 10298 H 953.884 -1.31528 0.844396 0
M  V30 10299 H 954.619 -3.09885 -0.956133 0
M  V30 10300 H 954.404 -3.86792 0.642961 0
M  V30 10301 H 955.894 -4.1651 -0.301568 0
M  V30 10302 N 956.331 -0.831506 -1.3388 0
M  V30 10303 C 957.579 -0.422837 -1.97627 0
M  V30 10304 C 957.9 1.01961 -1.6622 0
M  V30 10305 O 957.17 1.70916 -0.957323 0
M  V30 10306 H 955.75 -0.153365 -0.731087 0
M  V30 10307 H 958.412 -1.06284 -1.6337 0
M  V30 10308 H 957.508 -0.548858 -3.07236 0
M  V30 10309 N 957.809 1.4625 -0.587256 0
M  V30 10310 C 959.056 2.02363 -0.0745746 0
M  V30 10311 C 959.384 1.4582 1.28712 0
M  V30 10312 O 958.639 0.614922 1.85788 0
M  V30 10313 C 958.938 3.57382 0.036328 0
M  V30 10314 C 958.604 4.32985 -1.25837 0
M  V30 10315 C 957.266 4.53358 -1.61306 0
M  V30 10316 C 959.618 4.76361 -2.11494 0
M  V30 10317 C 956.946 5.14361 -2.82223 0
M  V30 10318 C 959.298 5.38699 -3.31641 0
M  V30 10319 C 957.962 5.57299 -3.67388 0
M  V30 10320 H 957.232 0.740497 -0.0272888 0
M  V30 10321 H 959.879 1.75565 -0.764804 0
M  V30 10322 H 958.184 3.83342 0.809712 0
M  V30 10323 H 959.881 3.9848 0.448838 0
M  V30 10324 H 956.471 4.17427 -0.972251 0
M  V30 10325 H 960.655 4.60372 -1.85394 0
M  V30 10326 H 955.911 5.26952 -3.10051 0
M  V30 10327 H 960.085 5.71267 -3.9828 0
M  V30 10328 H 957.712 6.04338 -4.61173 0
M  V30 10329 N 959.287 0.325282 1.54207 0
M  V30 10330 C 960.234 -0.539889 2.24397 0
M  V30 10331 C 961.204 -1.11028 1.2354 0
M  V30 10332 O 962.389 -1.1503 1.52226 0
M  V30 10333 C 959.529 -1.69405 3.00659 0
M  V30 10334 C 958.642 -1.15273 4.16337 0
M  V30 10335 C 957.777 -2.27272 4.80126 0
M  V30 10336 C 956.816 -1.70397 5.87904 0
M  V30 10337 N 955.953 -2.76065 6.45548 0
M  V30 10338 H 960.793 0.0652318 2.97929 0
M  V30 10339 H 958.33 0.043964 1.47034 0
M  V30 10340 H 960.288 -2.37325 3.43122 0
M  V30 10341 H 958.918 -2.27043 2.29458 0
M  V30 10342 H 957.97 -0.365034 3.78645 0
M  V30 10343 H 959.282 -0.696576 4.93912 0
M  V30 10344 H 958.436 -3.03092 5.25566 0
M  V30 10345 H 957.175 -2.76224 4.01935 0
M  V30 10346 H 956.18 -0.930752 5.41864 0
M  V30 10347 H 957.405 -1.22319 6.67993 0
M  V30 10348 H 955.351 -3.24306 5.7023 0
M  V30 10349 H 955.268 -2.35018 7.18542 0
M  V30 10350 H 956.536 -3.5171 6.95644 0
M  V30 10351 N 960.765 -1.57509 0.0534917 0
M  V30 10352 C 961.695 -2.14698 -0.917999 0
M  V30 10353 C 962.676 -1.06924 -1.32292 0
M  V30 10354 O 963.861 -1.34875 -1.39723 0
M  V30 10355 C 960.991 -2.69383 -2.19203 0
M  V30 10356 C 959.945 -3.82161 -1.9271 0
M  V30 10357 C 959.271 -4.23373 -3.26587 0
M  V30 10358 C 960.571 -5.07199 -1.24686 0
M  V30 10359 H 962.265 -2.96125 -0.44165 0
M  V30 10360 H 959.811 -1.42446 -0.210993 0
M  V30 10361 H 961.764 -3.08031 -2.87567 0
M  V30 10362 H 960.488 -1.85151 -2.69048 0
M  V30 10363 H 959.147 -3.43989 -1.26757 0
M  V30 10364 H 958.795 -3.36089 -3.74237 0
M  V30 10365 H 958.495 -4.99385 -3.09658 0
M  V30 10366 H 960.019 -4.64623 -3.96178 0
M  V30 10367 H 961.433 -5.43279 -1.83088 0
M  V30 10368 H 959.83 -5.88369 -1.18076 0
M  V30 10369 H 960.9 -4.84386 -0.223227 0
M  V30 10370 N 962.243 0.219913 -1.56058 0
M  V30 10371 C 963.191 1.29215 -1.93407 0
M  V30 10372 C 964.185 1.48434 -0.816307 0
M  V30 10373 O 965.391 1.49589 -1.00115 0
M  V30 10374 H 961.766 0.433256 -0.614649 0
M  V30 10375 H 963.737 0.949977 -2.82875 0
M  V30 10376 C 962.486 2.63501 -2.26854 0
M  V30 10377 H 961.809 2.4952 -3.12377 0
M  V30 10378 H 963.249 3.37334 -2.56869 0
M  V30 10379 C 961.708 3.18634 -1.09425 0
M  V30 10380 O 962.238 4.00117 -0.356243 0
M  V30 10381 N 960.444 2.7703 -0.877642 0
M  V30 10382 H 959.991 2.10875 -1.47951 0
M  V30 10383 H 959.949 3.1426 -0.0936792 0
M  V30 10384 N 963.721 1.49897 0.486681 0
M  V30 10385 C 964.668 1.67619 1.58658 0
M  V30 10386 C 965.638 0.517537 1.57831 0
M  V30 10387 O 966.823 0.746272 1.756 0
M  V30 10388 C 963.963 1.762 2.96728 0
M  V30 10389 C 963.076 3.03465 3.07462 0
M  V30 10390 C 962.211 3.02937 4.36351 0
M  V30 10391 C 961.25 4.24721 4.4077 0
M  V30 10392 N 960.387 4.22021 5.61108 0
M  V30 10393 H 965.227 2.61528 1.42853 0
M  V30 10394 H 962.764 1.29657 0.694807 0
M  V30 10395 H 964.722 1.79156 3.76774 0
M  V30 10396 H 963.352 0.857452 3.11203 0
M  V30 10397 H 962.404 3.10054 2.20387 0
M  V30 10398 H 963.716 3.93454 3.06586 0
M  V30 10399 H 962.87 3.04536 5.24731 0
M  V30 10400 H 961.609 2.10751 4.39813 0
M  V30 10401 H 960.614 4.23352 3.5079 0
M  V30 10402 H 961.839 5.18116 4.39013 0
M  V30 10403 H 959.785 3.3268 5.65385 0
M  V30 10404 H 959.702 5.05761 5.61909 0
M  V30 10405 H 960.97 4.27743 6.51656 0
M  V30 10406 N 965.199 -0.738761 1.39212 0
M  V30 10407 C 966.146 -1.85273 1.37631 0
M  V30 10408 C 967.116 -1.64407 0.236572 0
M  V30 10409 O 968.301 -1.85866 0.431104 0
M  V30 10410 C 965.441 -3.22745 1.22188 0
M  V30 10411 C 964.554 -3.55342 2.45674 0
M  V30 10412 C 963.689 -4.82195 2.22847 0
M  V30 10413 C 962.728 -5.07625 3.42029 0
M  V30 10414 N 961.865 -6.25679 3.18543 0
M  V30 10415 H 966.705 -1.85959 2.32859 0
M  V30 10416 H 964.242 -0.908716 1.15675 0
M  V30 10417 H 966.2 -4.02095 1.11245 0
M  V30 10418 H 964.83 -3.21347 0.30592 0
M  V30 10419 H 963.882 -2.70722 2.67233 0
M  V30 10420 H 965.194 -3.70054 3.34457 0
M  V30 10421 H 964.348 -5.69518 2.09126 0
M  V30 10422 H 963.087 -4.6965 1.31454 0
M  V30 10423 H 962.092 -4.18765 3.56253 0
M  V30 10424 H 963.317 -5.22058 4.34319 0
M  V30 10425 H 961.263 -6.14429 2.2981 0
M  V30 10426 H 961.18 -6.40961 4.0088 0
M  V30 10427 H 962.448 -7.15851 3.08508 0
M  V30 10428 N 966.677 -1.24326 -0.968545 0
M  V30 10429 C 967.607 -1.05951 -2.08079 0
M  V30 10430 C 968.588 0.0272666 -1.70078 0
M  V30 10431 O 969.773 -0.139644 -1.93697 0
M  V30 10432 C 966.903 -0.662623 -3.4092 0
M  V30 10433 C 965.857 -1.69807 -3.92873 0
M  V30 10434 C 965.183 -1.15628 -5.22048 0
M  V30 10435 C 966.483 -3.09383 -4.20808 0
M  V30 10436 H 968.177 -1.98984 -2.23709 0
M  V30 10437 H 965.723 -0.958112 -1.075 0
M  V30 10438 H 967.676 -0.521071 -4.18166 0
M  V30 10439 H 966.4 0.303399 -3.25188 0
M  V30 10440 H 965.059 -1.82783 -3.17783 0
M  V30 10441 H 964.707 -0.180888 -5.02675 0
M  V30 10442 H 964.407 -1.84822 -5.57776 0
M  V30 10443 H 965.931 -1.02683 -6.01904 0
M  V30 10444 H 967.345 -2.99642 -4.88761 0
M  V30 10445 H 965.742 -3.75923 -4.67763 0
M  V30 10446 H 966.812 -3.57486 -3.27616 0
M  V30 10447 N 968.156 1.1691 -1.05688 0
M  V30 10448 C 969.386 1.90927 -0.789339 0
M  V30 10449 C 969.794 1.77339 0.659369 0
M  V30 10450 O 969.137 1.11147 1.4626 0
M  V30 10451 C 969.199 3.42361 -1.09677 0
M  V30 10452 C 968.863 3.79733 -2.54267 0
M  V30 10453 C 969.86 3.82163 -3.52487 0
M  V30 10454 C 967.545 4.10547 -2.89406 0
M  V30 10455 C 969.539 4.14884 -4.8389 0
M  V30 10456 C 967.226 4.42936 -4.21011 0
M  V30 10457 C 968.224 4.45084 -5.18063 0
M  V30 10458 O 967.912 4.76707 -6.47307 0
M  V30 10459 H 967.644 0.612466 -0.286115 0
M  V30 10460 H 970.198 1.4916 -1.4121 0
M  V30 10461 H 968.428 3.84446 -0.416924 0
M  V30 10462 H 970.117 3.97645 -0.814456 0
M  V30 10463 H 970.883 3.58476 -3.26681 0
M  V30 10464 H 966.762 4.08044 -2.14525 0
M  V30 10465 H 970.306 4.16475 -5.59638 0
M  V30 10466 H 966.203 4.66088 -4.46579 0
M  V30 10467 H 966.971 4.94544 -6.52203 0
M  V30 10468 N 969.634 0.838594 1.33437 0
M  V30 10469 C 970.544 0.274048 2.32994 0
M  V30 10470 C 971.56 -0.599776 1.63336 0
M  V30 10471 O 972.736 -0.503963 1.94993 0
M  V30 10472 C 969.801 -0.541804 3.4244 0
M  V30 10473 C 968.862 0.356262 4.27819 0
M  V30 10474 C 968.095 -0.420747 5.32039 0
M  V30 10475 O 968.318 -1.65247 5.45939 0
M  V30 10476 O 967.252 0.205101 6.0155 0
M  V30 10477 H 971.078 1.09846 2.83139 0
M  V30 10478 H 968.663 0.601111 1.36774 0
M  V30 10479 H 970.545 -1.00544 4.0923 0
M  V30 10480 H 969.22 -1.34328 2.94513 0
M  V30 10481 H 968.127 0.867726 3.63897 0
M  V30 10482 H 969.46 1.1225 4.79229 0
M  V30 10483 N 971.112 -1.45937 0.595003 0
M  V30 10484 C 972.042 -2.33198 -0.11871 0
M  V30 10485 C 973.023 -1.46083 -0.871423 0
M  V30 10486 O 974.208 -1.74879 -0.844461 0
M  V30 10487 C 971.338 -3.28576 -1.12495 0
M  V30 10488 C 970.292 -4.25229 -0.486275 0
M  V30 10489 C 969.618 -5.10204 -1.59986 0
M  V30 10490 C 970.918 -5.19019 0.584473 0
M  V30 10491 H 972.612 -2.93122 0.609886 0
M  V30 10492 H 970.158 -1.40951 0.294742 0
M  V30 10493 H 972.111 -3.88485 -1.6327 0
M  V30 10494 H 970.835 -2.66784 -1.88398 0
M  V30 10495 H 969.494 -3.666 0.000507962 0
M  V30 10496 H 969.142 -4.44789 -2.34886 0
M  V30 10497 H 968.842 -5.75669 -1.1781 0
M  V30 10498 H 970.366 -5.7298 -2.11014 0
M  V30 10499 H 971.78 -5.73073 0.161297 0
M  V30 10500 H 970.177 -5.92893 0.927256 0
M  V30 10501 H 971.247 -4.62208 1.46601 0
M  V30 10502 N 972.59 -0.333456 -1.54032 0
M  V30 10503 C 973.839 0.267081 -1.99924 0
M  V30 10504 C 974.152 1.52463 -1.22534 0
M  V30 10505 O 975.358 2.20178 -1.58852 0
M  V30 10506 C 973.814 0.526456 -3.56029 0
M  V30 10507 C 973.422 -0.714607 -4.42264 0
M  V30 10508 C 975.166 1.0864 -4.10363 0
M  V30 10509 C 973.073 -0.42659 -5.89859 0
M  V30 10510 H 972.003 0.103577 -0.746852 0
M  V30 10511 H 974.654 -0.447218 -1.77967 0
M  V30 10512 H 973.036 1.3012 -3.74012 0
M  V30 10513 H 974.21 -1.48968 -4.36056 0
M  V30 10514 H 972.525 -1.19547 -3.9887 0
M  V30 10515 H 975.122 1.31668 -5.18235 0
M  V30 10516 H 975.465 2.03884 -3.62956 0
M  V30 10517 H 975.998 0.37261 -3.96051 0
M  V30 10518 H 972.737 -1.34847 -6.4148 0
M  V30 10519 H 972.257 0.310588 -5.98995 0
M  V30 10520 H 973.936 -0.0400807 -6.46988 0
M  V30 10521 N 974.068 1.57479 -0.061844 0
M  V30 10522 C 975.317 1.92285 0.609055 0
M  V30 10523 C 975.63 0.942983 1.71369 0
M  V30 10524 O 976.836 1.18349 2.44348 0
M  V30 10525 C 975.292 3.41545 1.13468 0
M  V30 10526 C 974.9 4.47958 0.0615926 0
M  V30 10527 C 976.644 3.85368 1.78022 0
M  V30 10528 C 974.551 5.88341 0.600705 0
M  V30 10529 H 973.481 0.717656 0.23127 0
M  V30 10530 H 976.132 1.83021 -0.132466 0
M  V30 10531 H 974.514 3.45848 1.92886 0
M  V30 10532 H 975.688 4.55258 -0.712527 0
M  V30 10533 H 974.003 4.13541 -0.487116 0
M  V30 10534 H 976.6 4.87627 2.19371 0
M  V30 10535 H 976.943 3.22193 2.63623 0
M  V30 10536 H 977.476 3.83626 1.05242 0
M  V30 10537 H 974.215 6.55138 -0.217922 0
M  V30 10538 H 973.735 5.84581 1.34257 0
M  V30 10539 H 975.414 6.37918 1.08025 0
M  V30 10540 N 975.546 -0.211634 1.56173 0
M  V30 10541 C 976.774 -0.951184 1.83739 0
M  V30 10542 C 977.189 -1.7754 0.642252 0
M  V30 10543 O 976.546 -1.78302 -0.389174 0
M  V30 10544 C 976.597 -1.86075 3.09933 0
M  V30 10545 O 976.318 -1.06983 4.24837 0
M  V30 10546 C 977.819 -2.71337 3.50559 0
M  V30 10547 H 975.039 -0.278312 0.61056 0
M  V30 10548 H 977.583 -0.223871 2.03271 0
M  V30 10549 H 975.738 -2.54189 2.92347 0
M  V30 10550 H 976.152 -1.68815 4.9659 0
M  V30 10551 H 977.626 -3.30843 4.41868 0
M  V30 10552 H 978.103 -3.44226 2.72773 0
M  V30 10553 H 978.709 -2.0862 3.70618 0
M  V30 10554 N 977.024 -1.50153 -0.478725 0
M  V30 10555 C 978.44 -1.3741 -0.811833 0
M  V30 10556 C 978.64 -0.424303 -1.96982 0
M  V30 10557 O 977.696 0.13588 -2.52134 0
M  V30 10558 C 979.009 -2.78616 -1.13108 0
M  V30 10559 C 980.557 -2.87477 -1.23798 0
M  V30 10560 C 981.032 -4.295 -1.5904 0
M  V30 10561 N 982.523 -4.32415 -1.66047 0
M  V30 10562 C 983.258 -5.39295 -1.94805 0
M  V30 10563 N 982.754 -6.56392 -2.21635 0
M  V30 10564 N 984.547 -5.26731 -1.96243 0
M  V30 10565 H 976.698 -2.10486 0.284531 0
M  V30 10566 H 978.961 -0.945786 0.0647585 0
M  V30 10567 H 978.667 -3.49921 -0.35334 0
M  V30 10568 H 978.541 -3.15382 -2.06915 0
M  V30 10569 H 980.928 -2.16396 -2.00641 0
M  V30 10570 H 981.009 -2.54264 -0.279888 0
M  V30 10571 H 980.653 -5.01115 -0.827404 0
M  V30 10572 H 980.583 -4.60194 -2.55987 0
M  V30 10573 H 983.074 -3.47975 -1.47383 0
M  V30 10574 H 983.387 -7.33658 -2.4283 0
M  V30 10575 H 981.732 -6.59579 -2.19043 0
M  V30 10576 H 984.923 -4.34249 -1.74773 0
M  V30 10577 H 985.096 -6.10115 -2.1832 0
M  V30 10578 N 978.502 0.731368 -1.39602 0
M  V30 10579 C 979.732 1.51839 -1.40102 0
M  V30 10580 C 980.14 1.89199 0.00526634 0
M  V30 10581 O 979.483 1.54877 0.987874 0
M  V30 10582 C 979.545 2.83292 -2.21328 0
M  V30 10583 C 979.209 2.68345 -3.69919 0
M  V30 10584 C 980.206 2.36651 -4.62917 0
M  V30 10585 C 977.891 2.85102 -4.13548 0
M  V30 10586 C 979.885 2.21901 -5.97527 0
M  V30 10587 C 977.572 2.69971 -5.48233 0
M  V30 10588 C 978.57 2.38416 -6.40037 0
M  V30 10589 O 978.258 2.23383 -7.72241 0
M  V30 10590 H 977.99 0.475695 -0.480302 0
M  V30 10591 H 980.544 0.911096 -1.84087 0
M  V30 10592 H 978.774 3.46294 -1.72096 0
M  V30 10593 H 980.463 3.44928 -2.13961 0
M  V30 10594 H 981.229 2.23352 -4.3051 0
M  V30 10595 H 977.108 3.08655 -3.42423 0
M  V30 10596 H 980.652 1.97193 -6.69149 0
M  V30 10597 H 976.549 2.82849 -5.8023 0
M  V30 10598 H 977.317 2.38425 -7.83004 0
M  V30 10599 N 979.98 1.24838 0.961938 0
M  V30 10600 C 981.205 1.11967 1.7458 0
M  V30 10601 C 981.63 -0.323287 1.85301 0
M  V30 10602 O 980.988 -1.23412 1.32812 0
M  V30 10603 C 981.036 1.77066 3.14134 0
M  V30 10604 O 980.14 1.04534 3.98932 0
M  V30 10605 H 979.481 0.391338 0.536424 0
M  V30 10606 H 982.011 1.65259 1.20626 0
M  V30 10607 H 982.021 1.83056 3.64629 0
M  V30 10608 H 980.696 2.82052 3.05646 0
M  V30 10609 H 979.273 1.06372 3.57407 0
M  V30 10610 N 981.458 -1.16348 1.06306 0
M  V30 10611 C 982.368 -2.24375 0.685059 0
M  V30 10612 C 983.384 -1.71413 -0.298956 0
M  V30 10613 O 984.56 -2.00854 -0.148239 0
M  V30 10614 C 981.625 -3.46614 0.0774088 0
M  V30 10615 C 980.686 -4.14613 1.11331 0
M  V30 10616 C 979.919 -5.31016 0.534559 0
M  V30 10617 O 980.142 -5.66654 -0.65265 0
M  V30 10618 O 979.076 -5.88256 1.27431 0
M  V30 10619 H 982.902 -2.59018 1.58566 0
M  V30 10620 H 980.487 -1.23865 0.835332 0
M  V30 10621 H 982.369 -4.20599 -0.259716 0
M  V30 10622 H 981.044 -3.13743 -0.796677 0
M  V30 10623 H 979.951 -3.42597 1.50261 0
M  V30 10624 H 981.284 -4.51538 1.95893 0
M  V30 10625 N 982.937 -0.845659 -1.3299 0
M  V30 10626 C 984.348 -0.50048 -1.79867 0
M  V30 10627 C 984.699 0.981027 -1.69913 0
M  V30 10628 O 983.824 1.76477 -1.25239 0
M  V30 10629 C 984.419 -0.901679 -3.26581 0
M  V30 10630 C 982.978 -0.608536 -3.71448 0
M  V30 10631 C 982.125 -1.10632 -2.54275 0
M  V30 10632 H 985.076 -1.03372 -1.20416 0
M  V30 10633 H 985.097 -0.214433 -3.79895 0
M  V30 10634 H 984.609 -1.97998 -3.33794 0
M  V30 10635 H 982.71 0.459416 -3.69757 0
M  V30 10636 H 982.823 -1.16853 -4.64631 0
M  V30 10637 H 981.187 -0.526925 -2.4919 0
M  V30 10638 H 981.97 -2.19154 -2.64247 0
M  V30 10639 N 984.415 1.45619 -0.602734 0
M  V30 10640 C 985.692 1.9558 -0.0282472 0
M  V30 10641 C 986.072 1.54523 1.43826 0
M  V30 10642 O 985.42 0.805456 2.13833 0
M  V30 10643 C 985.63 3.48298 -0.221263 0
M  V30 10644 C 986.978 4.24483 -0.0995249 0
M  V30 10645 O 988.002 3.55879 -0.151132 0
M  V30 10646 O 986.861 5.46497 0.0194454 0
M  V30 10647 H 983.955 0.826104 0.0384897 0
M  V30 10648 H 986.501 1.55808 -0.672456 0
M  V30 10649 H 985.273 3.71134 -1.23997 0
M  V30 10650 H 984.896 3.94948 0.458437 0
M  V30 10651 N 985.893 0.34162 1.53853 0
M  V30 10652 C 986.823 -0.508431 2.27897 0
M  V30 10653 C 987.804 -1.10425 1.29384 0
M  V30 10654 O 988.989 -1.126 1.58224 0
M  V30 10655 C 986.119 -1.66048 3.05034 0
M  V30 10656 C 985.073 -1.19309 4.11035 0
M  V30 10657 C 984.399 -2.4335 4.76114 0
M  V30 10658 C 985.699 -0.294952 5.21467 0
M  V30 10659 H 987.393 0.109251 2.99201 0
M  V30 10660 H 984.939 0.0539847 1.43899 0
M  V30 10661 H 986.892 -2.26158 3.5557 0
M  V30 10662 H 985.616 -2.30503 2.31379 0
M  V30 10663 H 984.275 -0.614809 3.61408 0
M  V30 10664 H 983.923 -3.06208 3.99056 0
M  V30 10665 H 983.623 -2.1276 5.47729 0
M  V30 10666 H 985.147 -3.0419 5.29434 0
M  V30 10667 H 986.561 -0.80285 5.67651 0
M  V30 10668 H 984.958 -0.0810221 6.00045 0
M  V30 10669 H 986.028 0.669433 4.80257 0
M  V30 10670 N 987.371 -1.57444 0.0701946 0
M  V30 10671 C 988.334 -2.11511 -0.882923 0
M  V30 10672 C 989.334 -1.03879 -1.22743 0
M  V30 10673 O 990.524 -1.29874 -1.16097 0
M  V30 10674 C 987.656 -2.61514 -2.18686 0
M  V30 10675 H 988.849 -2.9703 -0.413873 0
M  V30 10676 H 986.402 -1.55278 -0.178488 0
M  V30 10677 H 987.137 -1.79443 -2.70131 0
M  V30 10678 H 986.922 -3.40185 -1.94978 0
M  V30 10679 H 988.412 -3.03425 -2.86919 0
M  V30 10680 N 988.849 0.203349 -1.56283 0
M  V30 10681 C 990.095 0.926381 -1.80405 0
M  V30 10682 C 990.428 1.8325 -0.642883 0
M  V30 10683 O 989.703 1.91196 0.356998 0
M  V30 10684 C 989.986 1.74972 -3.14733 0
M  V30 10685 C 989.839 0.868866 -4.41328 0
M  V30 10686 C 991.158 2.72394 -3.45672 0
M  V30 10687 H 988.277 0.335346 -0.656286 0
M  V30 10688 H 990.919 0.1942 -1.89005 0
M  V30 10689 H 989.069 2.37394 -3.07533 0
M  V30 10690 H 990.741 0.259986 -4.60567 0
M  V30 10691 H 988.984 0.175161 -4.33446 0
M  V30 10692 H 989.655 1.47975 -5.31796 0
M  V30 10693 H 992.131 2.20105 -3.53119 0
M  V30 10694 H 991.007 3.27091 -4.40798 0
M  V30 10695 H 991.268 3.51035 -2.6875 0
M  V30 10696 N 990.327 1.50405 0.470755 0
M  V30 10697 C 991.604 1.51929 1.23195 0
M  V30 10698 C 991.984 0.264159 2.09441 0
M  V30 10699 O 991.332 -0.752395 2.15757 0
M  V30 10700 C 991.542 2.81521 2.06269 0
M  V30 10701 C 992.89 3.32195 2.64446 0
M  V30 10702 O 993.914 2.82845 2.16511 0
M  V30 10703 O 992.773 4.18221 3.51786 0
M  V30 10704 H 989.867 0.609411 0.559059 0
M  V30 10705 H 992.413 1.62695 0.482549 0
M  V30 10706 H 991.185 3.64346 1.42715 0
M  V30 10707 H 990.808 2.7376 2.88342 0
M  V30 10708 N 991.805 -0.723954 1.39988 0
M  V30 10709 C 993.052 -1.48371 1.37812 0
M  V30 10710 C 993.38 -1.94487 -0.0223285 0
M  V30 10711 O 992.635 -1.67906 -1.00529 0
M  V30 10712 C 992.934 -2.73004 2.30659 0
M  V30 10713 C 992.6 -2.45698 3.78078 0
M  V30 10714 C 991.262 -2.37961 4.18244 0
M  V30 10715 C 993.614 -2.22601 4.71273 0
M  V30 10716 C 990.942 -2.05183 5.49652 0
M  V30 10717 C 993.294 -1.91339 6.0297 0
M  V30 10718 C 991.958 -1.82078 6.42187 0
M  V30 10719 H 991.228 -0.542929 0.504291 0
M  V30 10720 H 993.875 -0.829986 1.72579 0
M  V30 10721 H 992.18 -3.43174 1.89048 0
M  V30 10722 H 993.877 -3.31068 2.26263 0
M  V30 10723 H 990.467 -2.52603 3.46251 0
M  V30 10724 H 994.651 -2.2754 4.41066 0
M  V30 10725 H 989.907 -1.96544 5.78948 0
M  V30 10726 H 994.081 -1.72479 6.74703 0
M  V30 10727 H 991.708 -1.56446 7.43928 0
M  V30 10728 N 993.283 -1.25346 -0.955304 0
M  V30 10729 C 994.56 -1.00829 -1.67609 0
M  V30 10730 C 994.94 0.465675 -2.059 0
M  V30 10731 O 994.288 1.44287 -1.77182 0
M  V30 10732 C 994.498 -1.94337 -2.89886 0
M  V30 10733 C 995.846 -2.22142 -3.61854 0
M  V30 10734 O 996.87 -1.9209 -2.99967 0
M  V30 10735 O 995.729 -2.73239 -4.73289 0
M  V30 10736 H 992.823 -0.382314 -0.733325 0
M  V30 10737 H 995.369 -1.36498 -1.00829 0
M  V30 10738 H 994.141 -2.93867 -2.58376 0
M  V30 10739 H 993.764 -1.59062 -3.64397 0
M  V30 10740 N 994.761 1.15782 -1.06922 0
M  V30 10741 C 995.709 2.22441 -0.679893 0
M  V30 10742 C 996.703 1.66591 0.307221 0
M  V30 10743 O 997.909 1.79182 0.171402 0
M  V30 10744 H 994.284 0.724427 -0.201765 0
M  V30 10745 H 996.255 2.52562 -1.58918 0
M  V30 10746 C 995.004 3.47586 -0.0891142 0
M  V30 10747 H 994.327 3.9088 -0.839805 0
M  V30 10748 H 995.767 4.2375 0.14569 0
M  V30 10749 C 994.226 3.15967 1.16903 0
M  V30 10750 O 994.756 3.32359 2.25611 0
M  V30 10751 N 992.962 2.70046 1.07349 0
M  V30 10752 H 992.509 2.56907 0.188825 0
M  V30 10753 H 992.467 2.49264 1.91611 0
M  V30 10754 N 996.239 0.8527 1.3254 0
M  V30 10755 C 997.486 0.455123 1.97319 0
M  V30 10756 C 997.814 -0.988814 1.67489 0
M  V30 10757 O 997.069 -1.70845 0.954483 0
M  V30 10758 C 997.368 0.638757 3.51646 0
M  V30 10759 C 997.034 2.05287 4.01458 0
M  V30 10760 C 995.696 2.43963 4.14771 0
M  V30 10761 C 998.048 2.9759 4.27889 0
M  V30 10762 C 995.376 3.7422 4.51859 0
M  V30 10763 C 997.728 4.27343 4.66434 0
M  V30 10764 C 996.392 4.65957 4.77954 0
M  V30 10765 H 995.662 0.166541 0.722042 0
M  V30 10766 H 998.309 1.08238 1.57977 0
M  V30 10767 H 996.614 -0.0717394 3.91734 0
M  V30 10768 H 998.311 0.311219 3.9979 0
M  V30 10769 H 994.901 1.74253 3.91579 0
M  V30 10770 H 999.085 2.68942 4.17114 0
M  V30 10771 H 994.341 4.03923 4.58973 0
M  V30 10772 H 998.515 4.9893 4.85841 0
M  V30 10773 H 996.142 5.66934 5.06449 0
M  V30 10774 N 997.718 -1.45297 0.610449 0
M  V30 10775 C 998.964 -2.02518 0.106917 0
M  V30 10776 C 999.297 -1.47747 -1.26034 0
M  V30 10777 O 998.572 -0.65329 -1.832 0
M  V30 10778 C 998.855 -3.6003 0.0710975 0
M  V30 10779 C 998.708 -4.25128 1.46922 0
M  V30 10780 C 1000.03 -4.35778 -0.61524 0
M  V30 10781 H 997.146 -0.735896 0.040327 0
M  V30 10782 H 999.788 -1.73117 0.782968 0
M  V30 10783 H 997.938 -3.85209 -0.504611 0
M  V30 10784 H 999.61 -4.11125 2.09223 0
M  V30 10785 H 997.853 -3.83418 2.02911 0
M  V30 10786 H 998.524 -5.34046 1.39637 0
M  V30 10787 H 1001 -4.1591 -0.125871 0
M  V30 10788 H 999.876 -5.45506 -0.609419 0
M  V30 10789 H 1000.14 -4.08859 -1.68186 0
M  V30 10790 N 999.196 -0.349774 -1.5367 0
M  V30 10791 C 1000.44 0.245095 -2.02925 0
M  V30 10792 C 1000.8 1.4727 -1.23189 0
M  V30 10793 O 1002 2.14215 -1.62374 0
M  V30 10794 C 1000.27 0.545392 -3.53214 0
M  V30 10795 S 1001.83 1.11619 -4.24366 0
M  V30 10796 H 998.649 0.0725368 -0.70729 0
M  V30 10797 H 1001.25 -0.488979 -1.89286 0
M  V30 10798 H 999.955 -0.355786 -4.08855 0
M  V30 10799 H 999.486 1.30897 -3.70985 0
M  V30 10800 H 1001.5 2.40151 -4.34214 0
M  V30 10801 N 1000.67 1.57404 -0.0785433 0
M  V30 10802 C 1001.91 1.95621 0.592595 0
M  V30 10803 C 1002.28 0.958429 1.66367 0
M  V30 10804 O 1003.48 1.2285 2.39084 0
M  V30 10805 C 1001.75 3.38445 1.14846 0
M  V30 10806 S 1003.31 3.98645 1.83378 0
M  V30 10807 H 1000.13 0.684063 0.193851 0
M  V30 10808 H 1002.73 1.94892 -0.154007 0
M  V30 10809 H 1001.43 4.08843 0.357179 0
M  V30 10810 H 1000.96 3.42733 1.93127 0
M  V30 10811 H 1002.98 3.86099 3.11676 0
M  V30 10812 N 1002.15 -0.195058 1.56388 0
M  V30 10813 C 1003.08 -1.24444 1.97575 0
M  V30 10814 C 1004.06 -1.47471 0.847717 0
M  V30 10815 O 1005.25 -1.59208 1.11205 0
M  V30 10816 C 1002.38 -2.58866 2.31529 0
M  V30 10817 C 1001.33 -2.50451 3.47071 0
M  V30 10818 C 1000.66 -3.89146 3.667 0
M  V30 10819 C 1001.96 -2.02953 4.81256 0
M  V30 10820 H 1003.65 -0.902178 2.85484 0
M  V30 10821 H 1001.2 -0.43254 1.3735 0
M  V30 10822 H 1003.15 -3.3246 2.58936 0
M  V30 10823 H 1001.87 -2.94833 1.40502 0
M  V30 10824 H 1000.53 -1.79313 3.19754 0
M  V30 10825 H 1000.18 -4.22466 2.73004 0
M  V30 10826 H 999.882 -3.84391 4.44429 0
M  V30 10827 H 1001.41 -4.64363 3.96484 0
M  V30 10828 H 1002.82 -2.66306 5.07695 0
M  V30 10829 H 1001.22 -2.092 5.62455 0
M  V30 10830 H 1002.29 -0.982757 4.74837 0
M  V30 10831 N 1003.63 -1.50653 -0.462772 0
M  V30 10832 C 1004.88 -1.62297 -1.21603 0
M  V30 10833 C 1005.21 -0.326191 -1.91441 0
M  V30 10834 O 1004.48 0.67284 -1.82491 0
M  V30 10835 C 1004.77 -2.80901 -2.25315 0
M  V30 10836 C 1004.62 -4.20484 -1.59728 0
M  V30 10837 C 1005.94 -2.95049 -3.26549 0
M  V30 10838 H 1003.06 -0.590691 -0.440741 0
M  V30 10839 H 1005.7 -1.83064 -0.508675 0
M  V30 10840 H 1003.85 -2.63325 -2.85643 0
M  V30 10841 H 1005.52 -4.49669 -1.02932 0
M  V30 10842 H 1003.76 -4.24357 -0.900181 0
M  V30 10843 H 1004.44 -4.99416 -2.35133 0
M  V30 10844 H 1006.91 -3.11166 -2.76251 0
M  V30 10845 H 1005.79 -3.79645 -3.96435 0
M  V30 10846 H 1006.05 -2.06019 -3.91163 0
M  V30 10847 N 1005.11 0.71652 -1.4037 0
M  V30 10848 C 1006.52 1.02447 -1.22379 0
M  V30 10849 C 1006.72 2.0126 -0.0983394 0
M  V30 10850 O 1005.78 2.46569 0.544071 0
M  V30 10851 C 1007.09 1.56909 -2.56515 0
M  V30 10852 C 1008.64 1.68898 -2.6352 0
M  V30 10853 C 1009.12 2.26765 -3.97922 0
M  V30 10854 N 1010.61 2.34152 -3.99658 0
M  V30 10855 C 1011.34 2.79907 -5.00439 0
M  V30 10856 N 1010.84 3.25422 -6.11615 0
M  V30 10857 N 1012.63 2.79283 -4.87809 0
M  V30 10858 H 1004.78 0.0615306 -2.12311 0
M  V30 10859 H 1007.05 0.0898994 -0.943728 0
M  V30 10860 H 1006.75 0.917649 -3.39517 0
M  V30 10861 H 1006.63 2.55446 -2.77538 0
M  V30 10862 H 1009.01 2.33159 -1.8089 0
M  V30 10863 H 1009.09 0.689626 -2.46329 0
M  V30 10864 H 1008.74 1.63126 -4.80991 0
M  V30 10865 H 1008.67 3.27413 -4.12442 0
M  V30 10866 H 1011.16 2.02006 -3.19378 0
M  V30 10867 H 1011.47 3.58899 -6.84406 0
M  V30 10868 H 1009.82 3.23383 -6.15181 0
M  V30 10869 H 1013.01 2.43061 -4.00049 0
M  V30 10870 H 1013.18 3.14626 -5.66493 0
M  V30 10871 N 1006.59 1.25851 0.948643 0
M  V30 10872 C 1007.52 1.09248 2.06367 0
M  V30 10873 C 1008.5 -0.000205168 1.701 0
M  V30 10874 O 1009.68 0.170442 1.93451 0
M  V30 10875 C 1006.81 0.716777 3.39823 0
M  V30 10876 C 1005.77 1.76036 3.90122 0
M  V30 10877 C 1005.09 1.23918 5.20143 0
M  V30 10878 C 1006.39 3.16039 4.15833 0
M  V30 10879 H 1008.09 2.02518 2.20515 0
M  V30 10880 H 1005.63 0.975093 1.05962 0
M  V30 10881 H 1007.59 0.587531 4.17284 0
M  V30 10882 H 1006.31 -0.251626 3.25629 0
M  V30 10883 H 1004.97 1.87815 3.14835 0
M  V30 10884 H 1004.62 0.260836 5.02323 0
M  V30 10885 H 1004.32 1.93673 5.54765 0
M  V30 10886 H 1005.84 1.12245 6.00194 0
M  V30 10887 H 1007.25 3.0738 4.83933 0
M  V30 10888 H 1005.65 3.83317 4.61723 0
M  V30 10889 H 1006.72 3.62652 3.21887 0
M  V30 10890 N 1008.06 -1.15214 1.07534 0
M  V30 10891 C 1008.97 -2.23636 0.708818 0
M  V30 10892 C 1009.99 -1.7172 -0.280759 0
M  V30 10893 O 1011.17 -2.01 -0.126927 0
M  V30 10894 C 1008.23 -3.46512 0.114167 0
M  V30 10895 C 1007.29 -4.13409 1.15722 0
M  V30 10896 C 1006.53 -5.30419 0.59085 0
M  V30 10897 O 1006.75 -5.67314 -0.592512 0
M  V30 10898 O 1005.68 -5.86871 1.33663 0
M  V30 10899 H 1009.51 -2.57322 1.61305 0
M  V30 10900 H 1007.09 -1.22972 0.848422 0
M  V30 10901 H 1008.98 -4.20851 -0.215091 0
M  V30 10902 H 1007.65 -3.1457 -0.763356 0
M  V30 10903 H 1006.56 -3.40984 1.53886 0
M  V30 10904 H 1007.89 -4.49435 2.00671 0
M  V30 10905 N 1009.54 -0.859717 -1.32086 0
M  V30 10906 C 1010.77 -0.479724 -2.01262 0
M  V30 10907 C 1011.19 0.924985 -1.64589 0
M  V30 10908 O 1010.54 1.60439 -0.869803 0
M  V30 10909 C 1010.59 -0.615128 -3.56228 0
M  V30 10910 O 1010.31 -1.96451 -3.91585 0
M  V30 10911 C 1011.82 -0.234804 -4.42678 0
M  V30 10912 H 1009.04 -0.188007 -0.644123 0
M  V30 10913 H 1011.58 -1.15805 -1.68551 0
M  V30 10914 H 1009.73 0.0155268 -3.87397 0
M  V30 10915 H 1010.15 -1.96491 -4.86304 0
M  V30 10916 H 1011.62 -0.380534 -5.50687 0
M  V30 10917 H 1012.1 0.825189 -4.31378 0
M  V30 10918 H 1012.71 -0.840739 -4.16907 0
M  V30 10919 N 1011.02 1.44971 -0.618145 0
M  V30 10920 C 1011.95 2.27748 0.143561 0
M  V30 10921 C 1012.93 1.37768 0.863642 0
M  V30 10922 O 1014.12 1.67203 0.870373 0
M  V30 10923 C 1011.24 3.16394 1.20883 0
M  V30 10924 C 1010.29 4.22389 0.590724 0
M  V30 10925 S 1011.12 5.32021 -0.609406 0
M  V30 10926 C 1012.28 6.24235 0.456199 0
M  V30 10927 H 1012.51 2.92003 -0.558699 0
M  V30 10928 H 1010.04 1.48968 -0.40595 0
M  V30 10929 H 1012 3.6802 1.81855 0
M  V30 10930 H 1010.66 2.51384 1.88322 0
M  V30 10931 H 1009.86 4.84379 1.3926 0
M  V30 10932 H 1009.46 3.73958 0.055917 0
M  V30 10933 H 1011.75 6.64269 1.33238 0
M  V30 10934 H 1012.69 7.07985 -0.127794 0
M  V30 10935 H 1013.1 5.59137 0.776269 0
M  V30 10936 N 1012.5 0.357919 1.53482 0
M  V30 10937 C 1013.75 -0.234163 2.01142 0
M  V30 10938 C 1014.07 -1.49399 1.2454 0
M  V30 10939 O 1013.33 -1.92981 0.325111 0
M  V30 10940 C 1013.63 -0.579617 3.52669 0
M  V30 10941 C 1013.29 0.584988 4.47089 0
M  V30 10942 C 1011.96 0.904558 4.72622 0
M  V30 10943 C 1014.31 1.3656 5.02992 0
M  V30 10944 C 1011.64 2.00685 5.5131 0
M  V30 10945 C 1013.99 2.45824 5.82884 0
M  V30 10946 C 1012.65 2.78325 6.06706 0
M  V30 10947 H 1011.92 -0.0856863 0.736029 0
M  V30 10948 H 1014.57 0.488801 1.85157 0
M  V30 10949 H 1012.87 -1.38349 3.66561 0
M  V30 10950 H 1014.57 -1.04985 3.87013 0
M  V30 10951 H 1011.16 0.32587 4.27359 0
M  V30 10952 H 1015.34 1.13196 4.83219 0
M  V30 10953 H 1010.6 2.26272 5.67988 0
M  V30 10954 H 1014.77 3.06732 6.25211 0
M  V30 10955 H 1012.4 3.63862 6.67464 0
M  V30 10956 N 1013.98 -1.5736 0.0868897 0
M  V30 10957 C 1015.39 -1.57304 -0.269762 0
M  V30 10958 C 1015.59 -1.09745 -1.68992 0
M  V30 10959 O 1014.65 -0.77017 -2.40468 0
M  V30 10960 C 1015.96 -3.00628 -0.0656646 0
M  V30 10961 C 1017.51 -3.12713 -0.134045 0
M  V30 10962 C 1017.98 -4.57981 0.0419569 0
M  V30 10963 N 1019.48 -4.63198 -0.0131501 0
M  V30 10964 C 1020.21 -5.73316 0.0983964 0
M  V30 10965 N 1019.71 -6.92296 0.264315 0
M  V30 10966 N 1021.5 -5.62086 0.0402517 0
M  V30 10967 H 1013.65 -1.86585 1.01487 0
M  V30 10968 H 1015.91 -0.860843 0.397055 0
M  V30 10969 H 1015.62 -3.39592 0.914891 0
M  V30 10970 H 1015.49 -3.68367 -0.811522 0
M  V30 10971 H 1017.88 -2.73627 -1.1051 0
M  V30 10972 H 1017.96 -2.47582 0.643167 0
M  V30 10973 H 1017.61 -4.9776 1.00984 0
M  V30 10974 H 1017.54 -5.21162 -0.754847 0
M  V30 10975 H 1020.03 -3.77644 -0.139183 0
M  V30 10976 H 1020.34 -7.72047 0.341165 0
M  V30 10977 H 1018.68 -6.94353 0.299876 0
M  V30 10978 H 1021.88 -4.68017 -0.0881801 0
M  V30 10979 H 1022.05 -6.47868 0.130635 0
M  V30 10980 N 1015.45 0.186762 -1.56489 0
M  V30 10981 C 1016.7 0.905852 -1.81109 0
M  V30 10982 C 1017.03 1.82906 -0.661477 0
M  V30 10983 O 1016.28 1.92504 0.35226 0
M  V30 10984 C 1016.58 1.74719 -3.11782 0
M  V30 10985 C 1016.25 0.974238 -4.40249 0
M  V30 10986 C 1014.91 0.760856 -4.75147 0
M  V30 10987 C 1017.26 0.430971 -5.19415 0
M  V30 10988 C 1014.59 -0.00714216 -5.867 0
M  V30 10989 C 1016.94 -0.323859 -6.3177 0
M  V30 10990 C 1015.61 -0.548183 -6.65245 0
M  V30 10991 H 1014.88 0.331475 -0.662726 0
M  V30 10992 H 1017.52 0.171703 -1.90729 0
M  V30 10993 H 1015.83 2.55027 -2.97437 0
M  V30 10994 H 1017.53 2.30634 -3.28038 0
M  V30 10995 H 1014.12 1.15057 -4.12868 0
M  V30 10996 H 1018.3 0.583205 -4.92861 0
M  V30 10997 H 1013.56 -0.190832 -6.11102 0
M  V30 10998 H 1017.73 -0.752155 -6.92326 0
M  V30 10999 H 1015.36 -1.14518 -7.51525 0
M  V30 11000 N 1016.93 1.50896 0.454776 0
M  V30 11001 C 1018.18 1.62699 1.20562 0
M  V30 11002 C 1018.51 0.334943 1.91594 0
M  V30 11003 O 1017.76 -0.680106 1.83502 0
M  V30 11004 C 1018.06 2.76839 2.26042 0
M  V30 11005 C 1017.73 4.16745 1.72147 0
M  V30 11006 C 1016.39 4.54809 1.5717 0
M  V30 11007 C 1018.74 5.04118 1.32341 0
M  V30 11008 C 1016.07 5.7797 1.00835 0
M  V30 11009 C 1018.42 6.27842 0.774419 0
M  V30 11010 C 1017.09 6.64694 0.611415 0
M  V30 11011 H 1016.36 0.595358 0.441169 0
M  V30 11012 H 1019 1.84879 0.499202 0
M  V30 11013 H 1017.31 2.48812 3.02655 0
M  V30 11014 H 1019 2.83173 2.83926 0
M  V30 11015 H 1015.59 3.86725 1.84775 0
M  V30 11016 H 1019.78 4.75331 1.42739 0
M  V30 11017 H 1015.03 6.05183 0.869669 0
M  V30 11018 H 1019.21 6.94896 0.457389 0
M  V30 11019 H 1016.84 7.60004 0.172751 0
M  V30 11020 N 1018.41 -0.709066 1.40748 0
M  V30 11021 C 1019.36 -1.82312 1.4153 0
M  V30 11022 C 1020.33 -1.63868 0.271392 0
M  V30 11023 O 1021.51 -1.8491 0.470431 0
M  V30 11024 C 1018.65 -3.2008 1.29006 0
M  V30 11025 C 1017.77 -3.50051 2.53156 0
M  V30 11026 C 1016.9 -4.7736 2.33025 0
M  V30 11027 C 1015.94 -5.00255 3.52719 0
M  V30 11028 N 1015.08 -6.18782 3.31743 0
M  V30 11029 H 1019.92 -1.80978 2.36751 0
M  V30 11030 H 1017.45 -0.883975 1.17577 0
M  V30 11031 H 1019.41 -3.99645 1.19749 0
M  V30 11032 H 1018.04 -3.20626 0.374014 0
M  V30 11033 H 1017.09 -2.64993 2.72916 0
M  V30 11034 H 1018.41 -3.62877 3.42231 0
M  V30 11035 H 1017.56 -5.64954 2.21159 0
M  V30 11036 H 1016.3 -4.66756 1.41386 0
M  V30 11037 H 1015.3 -4.11114 3.65055 0
M  V30 11038 H 1016.53 -5.12728 4.45295 0
M  V30 11039 H 1014.47 -6.09416 2.42791 0
M  V30 11040 H 1014.39 -6.32313 4.14386 0
M  V30 11041 H 1015.66 -7.09146 3.23623 0
M  V30 11042 N 1019.89 -1.26353 -0.941956 0
M  V30 11043 C 1021.12 -1.14626 -1.72245 0
M  V30 11044 C 1021.53 0.298588 -1.86424 0
M  V30 11045 O 1020.89 1.2045 -1.37106 0
M  V30 11046 C 1020.94 -1.80933 -3.12963 0
M  V30 11047 O 1020.66 -3.19771 -2.99463 0
M  V30 11048 C 1022.16 -1.7515 -4.07231 0
M  V30 11049 H 1019.38 -0.3992 -0.539333 0
M  V30 11050 H 1021.93 -1.66958 -1.1809 0
M  V30 11051 H 1020.08 -1.32541 -3.64021 0
M  V30 11052 H 1020.5 -3.52571 -3.88322 0
M  V30 11053 H 1021.97 -2.26183 -5.03533 0
M  V30 11054 H 1022.45 -0.717855 -4.33294 0
M  V30 11055 H 1023.05 -2.2309 -3.62093 0
M  V30 11056 N 1021.37 1.14642 -1.08144 0
M  V30 11057 C 1022.3 2.21775 -0.730609 0
M  V30 11058 C 1023.28 1.67683 0.285702 0
M  V30 11059 O 1024.46 1.93567 0.156667 0
M  V30 11060 C 1021.59 3.47033 -0.136242 0
M  V30 11061 C 1020.55 4.14134 -1.0806 0
M  V30 11062 C 1019.87 5.33563 -0.348585 0
M  V30 11063 C 1021.17 4.62978 -2.41761 0
M  V30 11064 H 1022.87 2.51378 -1.62633 0
M  V30 11065 H 1020.41 1.20825 -0.783411 0
M  V30 11066 H 1022.37 4.21226 0.121182 0
M  V30 11067 H 1021.09 3.16786 0.7946 0
M  V30 11068 H 1019.75 3.41892 -1.32308 0
M  V30 11069 H 1019.4 4.99575 0.585974 0
M  V30 11070 H 1019.1 5.79402 -0.978122 0
M  V30 11071 H 1020.62 6.10519 -0.0991508 0
M  V30 11072 H 1022.04 5.28659 -2.21795 0
M  V30 11073 H 1020.43 5.1951 -3.00383 0
M  V30 11074 H 1021.5 3.78189 -3.03482 0
M  V30 11075 N 1022.85 0.866709 1.31628 0
M  V30 11076 C 1024.12 0.396828 1.91532 0
M  V30 11077 C 1024.5 -1.12081 1.78889 0
M  V30 11078 O 1023.85 -1.94791 1.19452 0
M  V30 11079 C 1024.06 0.874578 3.37864 0
M  V30 11080 C 1025.41 0.8988 4.14978 0
M  V30 11081 O 1026.43 0.820014 3.46633 0
M  V30 11082 O 1025.29 1.01223 5.37044 0
M  V30 11083 H 1022.39 0.1181 0.818524 0
M  V30 11084 H 1024.93 0.954407 1.40318 0
M  V30 11085 H 1023.7 1.91807 3.41066 0
M  V30 11086 H 1023.33 0.295126 3.96503 0
M  V30 11087 N 1024.32 -1.44642 0.625825 0
M  V30 11088 C 1025.55 -2.06458 0.135116 0
M  V30 11089 C 1025.97 -1.46729 -1.18811 0
M  V30 11090 O 1025.32 -0.58818 -1.72762 0
M  V30 11091 C 1025.37 -3.61499 0.00850114 0
M  V30 11092 O 1025.1 -4.19002 1.2794 0
M  V30 11093 C 1026.6 -4.40339 -0.511527 0
M  V30 11094 H 1023.82 -0.666541 0.0772294 0
M  V30 11095 H 1026.36 -1.85597 0.858726 0
M  V30 11096 H 1024.52 -3.81641 -0.665522 0
M  V30 11097 H 1024.93 -5.12385 1.12081 0
M  V30 11098 H 1026.4 -5.49262 -0.549149 0
M  V30 11099 H 1026.88 -4.11409 -1.53752 0
M  V30 11100 H 1027.49 -4.25104 0.129066 0
M  V30 11101 N 1025.8 -0.366053 -1.5329 0
M  V30 11102 C 1027.08 0.279902 -1.93587 0
M  V30 11103 C 1027.46 1.66352 -1.29963 0
M  V30 11104 O 1026.81 2.23845 -0.458895 0
M  V30 11105 C 1027.02 0.329634 -3.4744 0
M  V30 11106 C 1028.36 0.569754 -4.2076 0
M  V30 11107 O 1029.39 0.410823 -3.53823 0
M  V30 11108 O 1028.25 0.879262 -5.3938 0
M  V30 11109 H 1025.34 0.16802 -0.809752 0
M  V30 11110 H 1027.89 -0.418871 -1.64449 0
M  V30 11111 H 1026.66 -0.640434 -3.86023 0
M  V30 11112 H 1026.28 1.07428 -3.82812 0
M  V30 11113 N 1027.28 1.57312 -0.0952337 0
M  V30 11114 C 1028.21 2.17056 0.860753 0
M  V30 11115 C 1029.19 1.10394 1.29411 0
M  V30 11116 O 1030.38 1.38532 1.36098 0
M  V30 11117 C 1027.51 2.751 2.11984 0
M  V30 11118 C 1026.46 3.87136 1.8251 0
M  V30 11119 C 1025.79 4.31883 3.15247 0
M  V30 11120 C 1027.09 5.10326 1.11194 0
M  V30 11121 H 1028.78 2.97192 0.362983 0
M  V30 11122 H 1026.33 1.42955 0.173151 0
M  V30 11123 H 1028.28 3.15547 2.79299 0
M  V30 11124 H 1027 1.92219 2.64044 0
M  V30 11125 H 1025.66 3.47229 1.17592 0
M  V30 11126 H 1025.31 3.45893 3.65195 0
M  V30 11127 H 1025.01 5.0742 2.96309 0
M  V30 11128 H 1026.53 4.74964 3.83721 0
M  V30 11129 H 1027.95 5.47942 1.6862 0
M  V30 11130 H 1026.34 5.91293 1.02435 0
M  V30 11131 H 1027.41 4.84807 0.0947227 0
M  V30 11132 N 1028.76 -0.17846 1.56586 0
M  V30 11133 C 1030.03 -0.923096 1.72448 0
M  V30 11134 C 1030.41 -2.00692 0.654659 0
M  V30 11135 O 1029.76 -2.26079 -0.33171 0
M  V30 11136 C 1029.97 -1.49435 3.15389 0
M  V30 11137 C 1031.32 -1.97005 3.76131 0
M  V30 11138 O 1032.34 -1.59244 3.18622 0
M  V30 11139 O 1031.2 -2.66541 4.77094 0
M  V30 11140 H 1028.3 -0.434009 0.703964 0
M  V30 11141 H 1030.84 -0.16685 1.68878 0
M  V30 11142 H 1029.62 -0.713933 3.84732 0
M  V30 11143 H 1029.24 -2.31498 3.23256 0
M  V30 11144 N 1030.24 -1.51135 -0.446768 0
M  V30 11145 C 1031.48 -1.63013 -1.19461 0
M  V30 11146 C 1031.8 -0.344067 -1.91941 0
M  V30 11147 O 1031.07 0.639666 -1.85162 0
M  V30 11148 H 1029.65 -0.600757 -0.443959 0
M  V30 11149 H 1032.32 -1.88024 -0.513137 0
M  V30 11150 H 1031.41 -2.45322 -1.92933 0
M  V30 11151 N 1031.71 0.701592 -1.41122 0
M  V30 11152 C 1032.96 1.46376 -1.40363 0
M  V30 11153 C 1033.29 1.94197 -0.0105442 0
M  V30 11154 O 1032.57 1.69121 0.960637 0
M  V30 11155 C 1032.85 2.67994 -2.40523 0
M  V30 11156 C 1032.7 2.25977 -3.88914 0
M  V30 11157 C 1034.02 3.70181 -2.38022 0
M  V30 11158 H 1031.14 0.530929 -0.511159 0
M  V30 11159 H 1033.78 0.799588 -1.72356 0
M  V30 11160 H 1031.93 3.24661 -2.13372 0
M  V30 11161 H 1033.61 1.74684 -4.26946 0
M  V30 11162 H 1031.85 1.57826 -4.04071 0
M  V30 11163 H 1032.52 3.13215 -4.54533 0
M  V30 11164 H 1035 3.23174 -2.62103 0
M  V30 11165 H 1033.87 4.52894 -3.10127 0
M  V30 11166 H 1034.13 4.19458 -1.3967 0
M  V30 11167 N 1033.19 1.2685 0.935242 0
M  V30 11168 C 1034.44 1.12912 1.6846 0
M  V30 11169 C 1034.77 -0.325708 1.91449 0
M  V30 11170 O 1034.05 -1.23884 1.49944 0
M  V30 11171 C 1034.33 1.90513 3.05576 0
M  V30 11172 C 1034.18 3.43936 2.89876 0
M  V30 11173 C 1035.5 1.70363 4.05789 0
M  V30 11174 H 1032.62 0.411559 0.611382 0
M  V30 11175 H 1035.26 1.55917 1.08582 0
M  V30 11176 H 1033.41 1.53963 3.5669 0
M  V30 11177 H 1035.08 3.90272 2.45939 0
M  V30 11178 H 1033.33 3.70659 2.25376 0
M  V30 11179 H 1034 3.93467 3.87153 0
M  V30 11180 H 1036.47 2.02217 3.63659 0
M  V30 11181 H 1035.35 2.27066 4.99732 0
M  V30 11182 H 1035.61 0.649674 4.373 0
M  V30 11183 N 1034.67 -1.14067 1.0875 0
M  V30 11184 C 1035.9 -1.89041 0.840902 0
M  V30 11185 C 1036.31 -1.78768 -0.60725 0
M  V30 11186 O 1035.67 -1.14945 -1.41753 0
M  V30 11187 C 1035.72 -3.38891 1.25838 0
M  V30 11188 O 1035.44 -3.48886 2.64972 0
M  V30 11189 C 1036.94 -4.30852 1.04315 0
M  V30 11190 H 1034.16 -0.598685 0.303014 0
M  V30 11191 H 1036.71 -1.44438 1.44769 0
M  V30 11192 H 1034.86 -3.81103 0.695627 0
M  V30 11193 H 1035.28 -4.41989 2.82393 0
M  V30 11194 H 1036.75 -5.34353 1.38461 0
M  V30 11195 H 1037.23 -4.39196 -0.0195784 0
M  V30 11196 H 1037.83 -3.944 1.59151 0
M  V30 11197 N 1036.15 -0.873678 -1.31166 0
M  V30 11198 C 1037.4 -0.486457 -1.9657 0
M  V30 11199 C 1037.72 0.962042 -1.69041 0
M  V30 11200 O 1036.98 1.69305 -0.981543 0
M  V30 11201 C 1037.28 -0.69462 -3.50585 0
M  V30 11202 C 1036.94 -2.11647 -3.98141 0
M  V30 11203 C 1035.61 -2.50531 -4.10838 0
M  V30 11204 C 1037.96 -3.0436 -4.23101 0
M  V30 11205 C 1035.29 -3.81361 -4.45848 0
M  V30 11206 C 1037.64 -4.34709 -4.59577 0
M  V30 11207 C 1036.3 -4.73502 -4.70481 0
M  V30 11208 H 1035.57 -0.178007 -0.719301 0
M  V30 11209 H 1038.22 -1.10737 -1.56235 0
M  V30 11210 H 1036.52 0.00940878 -3.91799 0
M  V30 11211 H 1038.22 -0.374782 -3.99245 0
M  V30 11212 H 1034.81 -1.8046 -3.88757 0
M  V30 11213 H 1038.99 -2.75544 -4.12782 0
M  V30 11214 H 1034.25 -4.11174 -4.52488 0
M  V30 11215 H 1038.42 -5.06596 -4.77842 0
M  V30 11216 H 1036.05 -5.74919 -4.97365 0
M  V30 11217 N 1037.63 1.44308 -0.633487 0
M  V30 11218 C 1038.9 1.95476 -0.0697262 0
M  V30 11219 C 1039.28 1.57539 1.40516 0
M  V30 11220 O 1038.63 0.850632 2.12077 0
M  V30 11221 C 1038.84 3.4775 -0.295093 0
M  V30 11222 C 1040.19 4.24177 -0.189542 0
M  V30 11223 O 1041.21 3.55479 -0.226586 0
M  V30 11224 O 1040.07 5.46415 -0.096479 0
M  V30 11225 H 1037.17 0.826734 0.0209582 0
M  V30 11226 H 1039.71 1.54347 -0.705354 0
M  V30 11227 H 1038.48 3.6842 -1.31841 0
M  V30 11228 H 1038.11 3.95832 0.37456 0
M  V30 11229 N 1039.1 0.374177 1.53094 0
M  V30 11230 C 1040.03 -0.459976 2.28925 0
M  V30 11231 C 1041.02 -1.07656 1.31698 0
M  V30 11232 O 1042.2 -1.09219 1.60577 0
M  V30 11233 C 1039.33 -1.5954 3.08487 0
M  V30 11234 C 1038.28 -1.10563 4.13473 0
M  V30 11235 C 1037.61 -2.33196 4.81169 0
M  V30 11236 C 1038.91 -0.184275 5.21975 0
M  V30 11237 H 1040.6 0.172692 2.98902 0
M  V30 11238 H 1038.15 0.0844956 1.43752 0
M  V30 11239 H 1040.1 -2.18565 3.60288 0
M  V30 11240 H 1038.83 -2.25543 2.36216 0
M  V30 11241 H 1037.49 -0.53801 3.62631 0
M  V30 11242 H 1037.13 -2.97675 4.05461 0
M  V30 11243 H 1036.83 -2.01094 5.52119 0
M  V30 11244 H 1038.36 -2.92892 5.35767 0
M  V30 11245 H 1039.77 -0.682262 5.69226 0
M  V30 11246 H 1038.17 0.0462746 6.00082 0
M  V30 11247 H 1039.24 0.771152 4.78729 0
M  V30 11248 N 1040.58 -1.57259 0.103575 0
M  V30 11249 C 1041.83 -1.94657 -0.558126 0
M  V30 11250 C 1042.16 -0.985886 -1.67662 0
M  V30 11251 O 1041.41 -0.0069745 -1.95699 0
M  V30 11252 C 1041.71 -3.38549 -1.14538 0
M  V30 11253 C 1041.38 -4.50651 -0.149818 0
M  V30 11254 C 1040.04 -4.8104 0.12398 0
M  V30 11255 C 1042.39 -5.18503 0.529497 0
M  V30 11256 C 1039.72 -5.76606 1.08364 0
M  V30 11257 C 1042.07 -6.15099 1.47769 0
M  V30 11258 C 1040.74 -6.43889 1.75963 0
M  V30 11259 H 1040.01 -0.712299 -0.204233 0
M  V30 11260 H 1042.65 -1.90641 0.181208 0
M  V30 11261 H 1040.96 -3.39185 -1.96115 0
M  V30 11262 H 1042.65 -3.6479 -1.66521 0
M  V30 11263 H 1039.24 -4.2697 -0.373404 0
M  V30 11264 H 1043.43 -4.95194 0.331121 0
M  V30 11265 H 1038.68 -5.97223 1.30899 0
M  V30 11266 H 1042.86 -6.66767 2.00983 0
M  V30 11267 H 1040.49 -7.17749 2.50481 0
M  V30 11268 N 1042.06 0.170153 -1.56679 0
M  V30 11269 C 1043.01 1.21064 -1.965 0
M  V30 11270 C 1043.98 1.43928 -0.829092 0
M  V30 11271 O 1045.16 1.56649 -1.08931 0
M  V30 11272 C 1042.3 2.54468 -2.33109 0
M  V30 11273 C 1041.42 2.38974 -3.59883 0
M  V30 11274 C 1040.55 3.65252 -3.857 0
M  V30 11275 C 1039.59 3.44696 -5.05817 0
M  V30 11276 N 1038.73 4.63047 -5.27761 0
M  V30 11277 H 1043.57 0.864055 -2.85198 0
M  V30 11278 H 1041.1 0.415243 -1.41117 0
M  V30 11279 H 1043.06 3.32222 -2.52358 0
M  V30 11280 H 1041.69 2.8712 -1.4752 0
M  V30 11281 H 1040.74 1.5239 -3.48542 0
M  V30 11282 H 1042.06 2.19731 -4.47794 0
M  V30 11283 H 1041.21 4.51441 -4.05322 0
M  V30 11284 H 1039.95 3.87475 -2.96166 0
M  V30 11285 H 1038.95 2.56893 -4.86092 0
M  V30 11286 H 1040.18 3.23894 -5.96883 0
M  V30 11287 H 1038.12 4.85487 -4.41179 0
M  V30 11288 H 1038.04 4.46722 -6.09898 0
M  V30 11289 H 1039.31 5.50516 -5.51863 0
M  V30 11290 N 1043.54 1.5137 0.438746 0
M  V30 11291 C 1044.78 1.65173 1.18698 0
M  V30 11292 C 1045.14 0.362753 1.88949 0
M  V30 11293 O 1044.43 -0.641351 1.80547 0
M  V30 11294 C 1044.63 2.79221 2.23093 0
M  V30 11295 C 1044.46 4.19085 1.63088 0
M  V30 11296 C 1043.23 4.85042 1.41642 0
M  V30 11297 C 1045.42 5.02225 1.10789 0
M  V30 11298 N 1043.41 6.09024 0.772198 0
M  V30 11299 C 1044.78 6.17197 0.588854 0
M  V30 11300 C 1046.83 4.87764 0.999516 0
M  V30 11301 C 1045.53 7.19295 -0.0279103 0
M  V30 11302 C 1047.56 5.90068 0.396648 0
M  V30 11303 C 1046.92 7.04311 -0.111855 0
M  V30 11304 H 1043.02 0.658316 0.422071 0
M  V30 11305 H 1045.61 1.88593 0.483808 0
M  V30 11306 H 1043.78 2.57468 2.908 0
M  V30 11307 H 1045.51 2.82213 2.90066 0
M  V30 11308 H 1042.26 4.42886 1.67776 0
M  V30 11309 H 1042.69 6.75383 0.467568 0
M  V30 11310 H 1047.33 3.99695 1.37853 0
M  V30 11311 H 1045.05 8.07013 -0.419056 0
M  V30 11312 H 1048.63 5.80948 0.314715 0
M  V30 11313 H 1047.51 7.82118 -0.571021 0
M  V30 11314 N 1045.02 -0.694098 1.41492 0
M  V30 11315 C 1045.95 -1.82042 1.46229 0
M  V30 11316 C 1046.93 -1.67047 0.320803 0
M  V30 11317 O 1048.11 -1.86758 0.53245 0
M  V30 11318 C 1045.24 -3.2019 1.34519 0
M  V30 11319 C 1044.2 -3.49892 2.46495 0
M  V30 11320 C 1043.52 -4.87411 2.1985 0
M  V30 11321 C 1044.82 -3.4872 3.88834 0
M  V30 11322 H 1046.52 -1.78335 2.40493 0
M  V30 11323 H 1044.06 -0.856566 1.15754 0
M  V30 11324 H 1046.02 -3.98699 1.36445 0
M  V30 11325 H 1044.74 -3.24527 0.367406 0
M  V30 11326 H 1043.4 -2.73734 2.43854 0
M  V30 11327 H 1043.05 -4.88375 1.20411 0
M  V30 11328 H 1042.75 -5.08248 2.94885 0
M  V30 11329 H 1044.27 -5.68228 2.23494 0
M  V30 11330 H 1045.68 -4.1723 3.93182 0
M  V30 11331 H 1044.08 -3.81089 4.63564 0
M  V30 11332 H 1045.15 -2.47665 4.16881 0
M  V30 11333 N 1046.49 -1.27344 -0.928501 0
M  V30 11334 C 1047.43 -1.05797 -2.03322 0
M  V30 11335 C 1048.44 -0.0143086 -1.62794 0
M  V30 11336 O 1049.63 -0.25578 -1.76658 0
M  V30 11337 C 1046.73 -0.582673 -3.33853 0
M  V30 11338 C 1045.9 -1.69844 -4.03078 0
M  V30 11339 C 1044.96 -1.21902 -5.11885 0
M  V30 11340 O 1043.99 -1.91853 -5.35893 0
M  V30 11341 N 1045.19 -0.0742392 -5.80453 0
M  V30 11342 H 1047.95 -2.00928 -2.22369 0
M  V30 11343 H 1045.51 -1.189 -1.09883 0
M  V30 11344 H 1047.51 -0.245862 -4.03952 0
M  V30 11345 H 1046.08 0.27539 -3.11385 0
M  V30 11346 H 1045.3 -2.20557 -3.26723 0
M  V30 11347 H 1046.58 -2.4473 -4.46077 0
M  V30 11348 H 1045.98 0.509631 -5.634 0
M  V30 11349 H 1044.54 0.203399 -6.51483 0
M  V30 11350 N 1047.97 1.13488 -1.09353 0
M  V30 11351 C 1048.9 2.20988 -0.75409 0
M  V30 11352 C 1049.88 1.67977 0.267901 0
M  V30 11353 O 1051.07 1.93722 0.136128 0
M  V30 11354 C 1048.2 3.46869 -0.173042 0
M  V30 11355 C 1047.15 4.12965 -1.12446 0
M  V30 11356 C 1046.48 5.33163 -0.405157 0
M  V30 11357 C 1047.78 4.60388 -2.46658 0
M  V30 11358 H 1049.47 2.49639 -1.6529 0
M  V30 11359 H 1047.02 1.19987 -0.796182 0
M  V30 11360 H 1048.97 4.21331 0.0764988 0
M  V30 11361 H 1047.7 3.17611 0.760956 0
M  V30 11362 H 1046.35 3.40469 -1.35927 0
M  V30 11363 H 1046 5.00169 0.532955 0
M  V30 11364 H 1045.7 5.78332 -1.03952 0
M  V30 11365 H 1047.23 6.1038 -0.163899 0
M  V30 11366 H 1048.64 5.26276 -2.27389 0
M  V30 11367 H 1047.04 5.16294 -3.05876 0
M  V30 11368 H 1048.11 3.74949 -3.07476 0
M  V30 11369 N 1049.45 0.880621 1.30701 0
M  V30 11370 C 1050.68 0.511682 2.00473 0
M  V30 11371 C 1051.09 -0.898684 1.6604 0
M  V30 11372 O 1050.45 -1.59035 0.895218 0
M  V30 11373 C 1050.5 0.671723 3.55204 0
M  V30 11374 O 1050.22 2.02656 3.8841 0
M  V30 11375 C 1051.72 0.3052 4.42248 0
M  V30 11376 H 1048.94 0.198231 0.64105 0
M  V30 11377 H 1051.49 1.18472 1.66687 0
M  V30 11378 H 1049.64 0.0461066 3.87373 0
M  V30 11379 H 1050.06 2.04202 4.83117 0
M  V30 11380 H 1051.53 0.468095 5.50012 0
M  V30 11381 H 1052.01 -0.756456 4.32637 0
M  V30 11382 H 1052.61 0.906959 4.15517 0
M  V30 11383 N 1050.93 -1.4397 0.641131 0
M  V30 11384 C 1051.86 -2.27948 -0.10731 0
M  V30 11385 C 1052.84 -1.39124 -0.841615 0
M  V30 11386 O 1054.02 -1.68566 -0.843662 0
M  V30 11387 C 1051.15 -3.18277 -1.15835 0
M  V30 11388 C 1050.2 -4.23276 -0.52345 0
M  V30 11389 S 1051.03 -5.30984 0.693969 0
M  V30 11390 C 1052.19 -6.24882 -0.356831 0
M  V30 11391 H 1052.42 -2.91077 0.605083 0
M  V30 11392 H 1049.95 -1.48303 0.429598 0
M  V30 11393 H 1051.91 -3.70867 -1.75977 0
M  V30 11394 H 1050.57 -2.54348 -1.84299 0
M  V30 11395 H 1049.76 -4.86533 -1.31536 0
M  V30 11396 H 1049.37 -3.74 0.00358355 0
M  V30 11397 H 1051.66 -6.66305 -1.22653 0
M  V30 11398 H 1052.6 -7.07692 0.240412 0
M  V30 11399 H 1053.01 -5.60301 -0.687217 0
M  V30 11400 N 1052.41 -0.382291 -1.52893 0
M  V30 11401 C 1053.65 0.202133 -2.01489 0
M  V30 11402 C 1053.98 1.47399 -1.26901 0
M  V30 11403 O 1053.24 1.92439 -0.355771 0
M  V30 11404 C 1053.54 0.523437 -3.53546 0
M  V30 11405 C 1053.2 -0.656042 -4.46102 0
M  V30 11406 C 1051.86 -0.979633 -4.71123 0
M  V30 11407 C 1054.22 -1.44545 -5.00756 0
M  V30 11408 C 1051.54 -2.0943 -5.48047 0
M  V30 11409 C 1053.9 -2.55066 -5.78899 0
M  V30 11410 C 1052.56 -2.87942 -6.02201 0
M  V30 11411 H 1051.83 0.0739659 -0.737299 0
M  V30 11412 H 1054.48 -0.518196 -1.84356 0
M  V30 11413 H 1052.78 1.325 -3.68715 0
M  V30 11414 H 1054.48 0.988148 -3.88634 0
M  V30 11415 H 1051.07 -0.393818 -4.26787 0
M  V30 11416 H 1055.25 -1.20869 -4.81357 0
M  V30 11417 H 1050.51 -2.3528 -5.64317 0
M  V30 11418 H 1054.68 -3.1664 -6.20252 0
M  V30 11419 H 1052.31 -3.74435 -6.61591 0
M  V30 11420 N 1053.89 1.57202 -0.111913 0
M  V30 11421 C 1054.85 2.13778 0.826534 0
M  V30 11422 C 1055.85 1.07097 1.19945 0
M  V30 11423 O 1057.04 1.32906 1.12613 0
M  V30 11424 C 1054.17 2.6722 2.11675 0
M  V30 11425 H 1055.36 2.98023 0.334975 0
M  V30 11426 H 1052.92 1.55696 0.137256 0
M  V30 11427 H 1053.65 1.86542 2.65278 0
M  V30 11428 H 1053.44 3.45235 1.8589 0
M  V30 11429 H 1054.93 3.10926 2.78774 0
M  V30 11430 O 1055.4 -0.0276682 1.61476 0
M  V30 11431 H 1056.09 -0.648033 1.82538 0
M  V30 END ATOM
M  V30 BEGIN BOND
M  V30 END BOND
M  V30 END CTAB
M  END
$$$$
