drugbank_target|P35218 Carbonic anhydrase 5A, mitochondrial (DB00909; DB01194; DB03385; DB08846)
 OpenBabel12092120363D

  0  0  0     0  0            999 V3000
M  V30 BEGIN CTAB
M  V30 COUNTS 4830 4910 0 0 0
M  V30 BEGIN ATOM
M  V30 1 H -0.908 1.98254 -0.117106 0
M  V30 2 N 0 1.576 0 0
M  V30 3 C 0.933 2.03868 1.02534 0
M  V30 4 C 1.911 0.928543 1.3348 0
M  V30 5 O 3.095 1.19667 1.45644 0
M  V30 6 C 0.222 2.43627 2.35294 0
M  V30 7 C -0.732 3.65373 2.2001 0
M  V30 8 S 0.101 5.13292 1.52614 0
M  V30 9 C 1.257 5.56322 2.86805 0
M  V30 10 H 1.49 2.90518 0.631377 0
M  V30 11 H -0.977 1.52953 0.210867 0
M  V30 12 H 0.981 2.67203 3.11629 0
M  V30 13 H -0.358 1.57376 2.7183 0
M  V30 14 H -1.165 3.90944 3.18086 0
M  V30 15 H -1.563 3.418 1.51819 0
M  V30 16 H 0.729 5.58782 3.83104 0
M  V30 17 H 1.672 6.56266 2.65933 0
M  V30 18 H 2.08 4.83886 2.90714 0
M  V30 19 N 1.4781 -0.272755 1.55222 0
M  V30 20 C 2.4081 -1.34136 1.91127 0
M  V30 21 C 3.3891 -1.51513 0.773168 0
M  V30 22 O 4.5741 -1.64552 1.03132 0
M  V30 23 C 1.7041 -2.70083 2.1834 0
M  V30 24 C 0.6581 -2.67437 3.34158 0
M  V30 25 C -0.0159 -4.06938 3.46851 0
M  V30 26 C 1.2841 -2.26686 4.70543 0
M  V30 27 H 2.9781 -1.04333 2.80633 0
M  V30 28 H 0.5241 -0.500454 1.35024 0
M  V30 29 H 2.4771 -3.44952 2.42046 0
M  V30 30 H 1.2011 -3.01469 1.25634 0
M  V30 31 H -0.1399 -1.95026 3.1042 0
M  V30 32 H -0.4919 -4.35547 2.51611 0
M  V30 33 H -0.7919 -4.06062 4.2472 0
M  V30 34 H 0.7321 -4.83545 3.72849 0
M  V30 35 H 2.1461 -2.91277 4.93792 0
M  V30 36 H 0.5431 -2.36971 5.5133 0
M  V30 37 H 1.6131 -1.21818 4.69349 0
M  V30 38 N 2.9562 -1.48159 -0.537278 0
M  V30 39 C 4.2042 -1.55497 -1.29094 0
M  V30 40 C 4.5252 -0.227454 -1.93669 0
M  V30 41 O 3.7952 0.750386 -1.80959 0
M  V30 42 H 2.3752 -0.572832 -0.47945 0
M  V30 43 H 5.0372 -1.84579 -0.625818 0
M  V30 44 H 4.1332 -2.33216 -2.07405 0
M  V30 45 N 4.4343 0.785586 -1.36625 0
M  V30 46 C 5.8503 1.08419 -1.17122 0
M  V30 47 C 6.0503 2.015 0.00208491 0
M  V30 48 O 5.1063 2.43551 0.666278 0
M  V30 49 C 6.4193 1.69498 -2.48377 0
M  V30 50 C 7.9673 1.81821 -2.54775 0
M  V30 51 C 8.4423 2.46315 -3.86126 0
M  V30 52 N 9.9333 2.53779 -3.87492 0
M  V30 53 C 10.6683 3.045 -4.85868 0
M  V30 54 N 10.1643 3.55499 -5.94637 0
M  V30 55 N 11.9573 3.03247 -4.73284 0
M  V30 56 H 4.1083 0.167264 -2.1174 0
M  V30 57 H 6.3713 0.13682 -0.938075 0
M  V30 58 H 6.0773 1.08571 -3.34522 0
M  V30 59 H 5.9513 2.6896 -2.64462 0
M  V30 60 H 8.3383 2.41884 -1.69045 0
M  V30 61 H 8.4193 0.811532 -2.42586 0
M  V30 62 H 8.0633 1.86895 -4.72263 0
M  V30 63 H 7.9933 3.47561 -3.95612 0
M  V30 64 H 10.4843 2.17672 -3.08913 0
M  V30 65 H 10.7973 3.92562 -6.65669 0
M  V30 66 H 9.1423 3.5364 -5.98301 0
M  V30 67 H 12.3333 2.62696 -3.87438 0
M  V30 68 H 12.5063 3.42467 -5.50109 0
M  V30 69 N 5.9124 1.20967 1.01018 0
M  V30 70 C 6.8604 0.961223 2.1181 0
M  V30 71 C 7.8544 -0.0897034 1.69162 0
M  V30 72 O 9.0604 0.0612271 1.79896 0
M  V30 73 H 5.4354 0.29355 0.692338 0
M  V30 74 H 7.4064 1.90178 2.29946 0
M  V30 75 C 6.1554 0.536854 3.4353 0
M  V30 76 H 5.4784 1.33713 3.76777 0
M  V30 77 H 6.9184 0.402286 4.22087 0
M  V30 78 C 5.3774 -0.751574 3.2841 0
M  V30 79 O 5.9074 -1.80841 3.58691 0
M  V30 80 N 4.1134 -0.716079 2.81639 0
M  V30 81 H 3.6604 0.144236 2.57196 0
M  V30 82 H 3.6184 -1.57847 2.71904 0
M  V30 83 N 7.3905 -1.2043 1.01659 0
M  V30 84 C 8.6185 -1.93777 0.725132 0
M  V30 85 C 9.0335 -1.74772 -0.714166 0
M  V30 86 O 8.3905 -1.06169 -1.4844 0
M  V30 87 C 8.4415 -3.45876 1.05129 0
M  V30 88 O 8.1625 -3.6426 2.43406 0
M  V30 89 C 9.6635 -4.36368 0.780891 0
M  V30 90 H 6.8835 -0.615901 0.266284 0
M  V30 91 H 9.4275 -1.52922 1.35776 0
M  V30 92 H 7.5825 -3.8461 0.464065 0
M  V30 93 H 7.9965 -4.58246 2.55169 0
M  V30 94 H 9.4705 -5.41743 1.05918 0
M  V30 95 H 9.9475 -4.38275 -0.284937 0
M  V30 96 H 10.5535 -4.03296 1.35027 0
M  V30 97 N 8.8686 -0.792821 -1.36206 0
M  V30 98 C 10.1146 -0.376415 -1.99887 0
M  V30 99 C 10.4696 1.04127 -1.61788 0
M  V30 100 O 9.7626 1.71004 -0.864193 0
M  V30 101 C 9.9566 -0.481501 -3.54142 0
M  V30 102 C 9.7856 -1.90786 -4.07223 0
M  V30 103 C 8.5556 -2.53322 -4.37214 0
M  V30 104 C 10.7536 -2.87048 -4.26741 0
M  V30 105 N 8.7356 -3.8751 -4.7614 0
M  V30 106 C 10.1066 -4.06077 -4.6851 0
M  V30 107 C 12.1616 -2.8406 -4.08918 0
M  V30 108 C 10.8646 -5.22532 -4.94321 0
M  V30 109 C 12.8906 -3.99705 -4.35878 0
M  V30 110 C 12.2526 -5.1748 -4.77906 0
M  V30 111 H 8.3516 -0.185226 -0.759747 0
M  V30 112 H 10.9356 -1.03114 -1.65153 0
M  V30 113 H 9.1066 0.143154 -3.88136 0
M  V30 114 H 10.8386 -0.0410128 -4.04679 0
M  V30 115 H 7.5936 -2.04777 -4.2704 0
M  V30 116 H 8.0176 -4.5656 -4.99882 0
M  V30 117 H 12.6596 -1.94165 -3.75579 0
M  V30 118 H 10.3776 -6.1301 -5.2654 0
M  V30 119 H 13.9636 -3.98758 -4.23655 0
M  V30 120 H 12.8436 -6.05478 -4.98363 0
M  V30 121 N 10.3467 1.47872 -0.545128 0
M  V30 122 C 11.2937 2.29849 0.2093 0
M  V30 123 C 12.2637 1.38313 0.919707 0
M  V30 124 O 13.4487 1.67277 0.917772 0
M  V30 125 C 10.5887 3.22019 1.24088 0
M  V30 126 C 9.7017 4.2864 0.537778 0
M  V30 127 C 8.8367 5.07973 1.5536 0
M  V30 128 C 7.8757 6.06381 0.8348 0
M  V30 129 N 7.0127 6.78717 1.79688 0
M  V30 130 H 11.8527 2.93845 -0.49591 0
M  V30 131 H 9.3897 1.44848 -0.256389 0
M  V30 132 H 11.3477 3.73868 1.85144 0
M  V30 133 H 9.9777 2.59914 1.91428 0
M  V30 134 H 9.0297 3.7994 -0.187046 0
M  V30 135 H 10.3417 4.98793 -0.0258907 0
M  V30 136 H 9.4957 5.63912 2.23803 0
M  V30 137 H 8.2347 4.37693 2.15118 0
M  V30 138 H 7.2397 5.49631 0.136388 0
M  V30 139 H 8.4647 6.78665 0.24313 0
M  V30 140 H 6.4107 6.11177 2.38326 0
M  V30 141 H 6.3277 7.44998 1.28505 0
M  V30 142 H 7.5957 7.39237 2.47282 0
M  V30 143 N 11.8248 0.280983 1.55075 0
M  V30 144 C 13.0528 -0.337293 2.04132 0
M  V30 145 C 13.4678 -1.4903 1.15912 0
M  V30 146 O 12.8248 -1.81606 0.180459 0
M  V30 147 C 12.8758 -0.812706 3.52246 0
M  V30 148 O 12.5968 0.294387 4.3711 0
M  V30 149 C 14.0978 -1.4982 4.17216 0
M  V30 150 H 11.3178 -0.0761638 0.666663 0
M  V30 151 H 13.8618 0.414787 2.00249 0
M  V30 152 H 12.0168 -1.51486 3.56554 0
M  V30 153 H 12.4308 -0.0721325 5.2445 0
M  V30 154 H 13.9048 -1.7822 5.22438 0
M  V30 155 H 14.3818 -2.43168 3.65741 0
M  V30 156 H 14.9878 -0.839742 4.16927 0
M  V30 157 N 13.3029 -1.57598 0.00835791 0
M  V30 158 C 14.5279 -1.95617 -0.689103 0
M  V30 159 C 14.9529 -0.883753 -1.66046 0
M  V30 160 O 14.3109 0.157352 -1.80616 0
M  V30 161 C 14.3589 -3.32736 -1.38994 0
M  V30 162 O 13.4629 -3.27631 -2.50463 0
M  V30 163 H 12.8039 -0.638379 -0.182668 0
M  V30 164 H 15.3339 -2.045 0.064036 0
M  V30 165 H 15.3439 -3.68494 -1.75147 0
M  V30 166 H 14.0189 -4.1034 -0.677778 0
M  V30 167 H 12.5959 -3.03561 -2.16576 0
M  V30 168 N 14.781 0.264519 -1.55364 0
M  V30 169 C 15.744 1.31046 -1.88042 0
M  V30 170 C 16.744 1.41943 -0.755569 0
M  V30 171 O 17.934 1.40947 -1.02369 0
M  V30 172 C 15.066 2.69067 -2.09323 0
M  V30 173 H 16.259 1.03297 -2.81549 0
M  V30 174 H 13.812 0.502989 -1.47986 0
M  V30 175 H 14.547 3.01982 -1.18226 0
M  V30 176 H 14.332 2.62542 -2.91229 0
M  V30 177 H 15.822 3.44623 -2.35848 0
M  V30 178 N 16.2591 1.48442 0.529413 0
M  V30 179 C 17.5061 1.56488 1.28521 0
M  V30 180 C 17.8341 0.239042 1.93025 0
M  V30 181 O 17.0891 -0.770713 1.79885 0
M  V30 182 C 17.3881 2.6523 2.39558 0
M  V30 183 C 17.0541 4.07648 1.92702 0
M  V30 184 C 15.7161 4.46411 1.79641 0
M  V30 185 C 18.0681 4.96896 1.573 0
M  V30 186 C 15.3961 5.72226 1.29514 0
M  V30 187 C 17.7481 6.23202 1.08636 0
M  V30 188 C 16.4121 6.60821 0.941919 0
M  V30 189 H 15.6821 0.572631 0.470292 0
M  V30 190 H 18.3291 1.82161 0.59072 0
M  V30 191 H 16.6341 2.33419 3.14679 0
M  V30 192 H 18.3311 2.68671 2.97686 0
M  V30 193 H 14.9211 3.77036 2.03819 0
M  V30 194 H 19.1051 4.67626 1.66251 0
M  V30 195 H 14.3611 6.00097 1.17019 0
M  V30 196 H 18.5351 6.91753 0.803136 0
M  V30 197 H 16.1621 7.58198 0.5513 0
M  V30 198 N 17.7372 -0.778329 1.37039 0
M  V30 199 C 18.9622 -1.57248 1.35233 0
M  V30 200 C 19.3872 -1.87999 -0.0615568 0
M  V30 201 O 18.7452 -1.48734 -1.03672 0
M  V30 202 C 18.7932 -2.86353 2.19167 0
M  V30 203 O 17.8972 -3.80442 1.59178 0
M  V30 204 H 17.2382 -0.476569 0.462362 0
M  V30 205 H 19.7682 -0.963853 1.80474 0
M  V30 206 H 19.7782 -3.35519 2.32145 0
M  V30 207 H 18.4532 -2.63299 3.21942 0
M  V30 208 H 17.0302 -3.39067 1.55203 0
M  V30 209 N 19.2153 -1.21501 -1.00376 0
M  V30 210 C 20.4623 -1.03299 -1.74171 0
M  V30 211 C 20.7903 0.433326 -1.89612 0
M  V30 212 O 20.0453 1.33779 -1.42834 0
M  V30 213 C 20.3443 -1.67673 -3.15627 0
M  V30 214 C 20.0103 -3.17533 -3.2013 0
M  V30 215 C 18.6723 -3.58427 -3.21067 0
M  V30 216 C 21.0243 -4.13504 -3.17275 0
M  V30 217 C 18.3523 -4.93794 -3.16835 0
M  V30 218 C 20.7043 -5.48834 -3.14585 0
M  V30 219 C 19.3683 -5.89123 -3.13831 0
M  V30 220 H 18.6383 -0.377999 -0.637336 0
M  V30 221 H 21.2853 -1.51111 -1.17634 0
M  V30 222 H 19.5903 -1.12158 -3.75404 0
M  V30 223 H 21.2873 -1.51091 -3.71446 0
M  V30 224 H 17.8773 -2.84965 -3.20145 0
M  V30 225 H 22.0613 -3.82936 -3.15711 0
M  V30 226 H 17.3173 -5.24255 -3.1459 0
M  V30 227 H 21.4913 -6.22934 -3.1133 0
M  V30 228 H 19.1183 -6.93984 -3.10307 0
M  V30 229 N 20.6934 1.19889 -1.02296 0
M  V30 230 C 21.6234 2.25141 -0.619174 0
M  V30 231 C 22.6044 1.66051 0.368915 0
M  V30 232 O 23.7894 1.92546 0.252941 0
M  V30 233 C 20.9194 3.4728 0.0368783 0
M  V30 234 C 19.8734 4.19005 -0.872865 0
M  V30 235 C 19.1994 5.34637 -0.0822402 0
M  V30 236 C 20.4994 4.74452 -2.18387 0
M  V30 237 H 22.1934 2.59171 -1.49903 0
M  V30 238 H 19.7394 1.24579 -0.722222 0
M  V30 239 H 21.6924 4.20098 0.330958 0
M  V30 240 H 20.4164 3.12433 0.95149 0
M  V30 241 H 19.0754 3.48061 -1.15105 0
M  V30 242 H 18.7234 4.96034 0.83422 0
M  V30 243 H 18.4234 5.83557 -0.688149 0
M  V30 244 H 19.9474 6.10255 0.205238 0
M  V30 245 H 21.3614 5.39055 -1.95172 0
M  V30 246 H 19.7584 5.33834 -2.74119 0
M  V30 247 H 20.8284 3.92844 -2.84257 0
M  V30 248 N 22.1715 0.800033 1.35784 0
M  V30 249 C 23.4175 0.377901 1.99248 0
M  V30 250 C 23.7505 -1.05052 1.63333 0
M  V30 251 O 23.0255 -1.72768 0.893385 0
M  V30 252 C 23.3085 0.553922 3.55814 0
M  V30 253 C 23.1615 2.0268 4.01548 0
M  V30 254 C 24.4805 -0.0244802 4.40093 0
M  V30 255 H 21.5995 0.138782 0.723815 0
M  V30 256 H 24.2415 1.00835 1.61035 0
M  V30 257 H 22.3915 0.0172398 3.88496 0
M  V30 258 H 24.0635 2.62536 3.79305 0
M  V30 259 H 22.3065 2.5256 3.52698 0
M  V30 260 H 22.9775 2.10087 5.10458 0
M  V30 261 H 25.4535 0.433775 4.13833 0
M  V30 262 H 24.3295 0.128637 5.48749 0
M  V30 263 H 24.5905 -1.11758 4.27741 0
M  V30 264 N 23.6496 -1.47581 0.552962 0
M  V30 265 C 24.5596 -2.33743 -0.200353 0
M  V30 266 C 25.5756 -1.47928 -0.916151 0
M  V30 267 O 26.7516 -1.80865 -0.885993 0
M  V30 268 C 23.8166 -3.24536 -1.21973 0
M  V30 269 C 22.8776 -4.26238 -0.511819 0
M  V30 270 C 22.1106 -5.12693 -1.48263 0
M  V30 271 O 22.3336 -5.01525 -2.71714 0
M  V30 272 O 21.2676 -5.93375 -1.00945 0
M  V30 273 H 25.0936 -2.9945 0.506304 0
M  V30 274 H 22.6786 -1.46071 0.313622 0
M  V30 275 H 24.5606 -3.80631 -1.80827 0
M  V30 276 H 23.2356 -2.61462 -1.90839 0
M  V30 277 H 22.1426 -3.73914 0.117799 0
M  V30 278 H 23.4756 -4.92014 0.135308 0
M  V30 279 N 25.1277 -0.289203 -1.54924 0
M  V30 280 C 26.0597 0.625583 -2.20497 0
M  V30 281 C 27.0727 1.10667 -1.19402 0
M  V30 282 O 28.2617 1.02615 -1.46056 0
M  V30 283 C 25.3617 1.86702 -2.82835 0
M  V30 284 C 24.5347 1.5304 -4.09753 0
M  V30 285 C 23.5937 2.62576 -4.56005 0
M  V30 286 O 22.6197 2.28167 -5.21468 0
M  V30 287 N 23.8217 3.92901 -4.27328 0
M  V30 288 H 26.5867 0.0642801 -2.99631 0
M  V30 289 H 24.1477 -0.110896 -1.6152 0
M  V30 290 H 26.1397 2.59304 -3.10715 0
M  V30 291 H 24.7097 2.33702 -2.07611 0
M  V30 292 H 23.9297 0.637564 -3.8901 0
M  V30 293 H 25.2177 1.28072 -4.92418 0
M  V30 294 H 24.6157 4.23671 -3.74859 0
M  V30 295 H 23.1727 4.61837 -4.59946 0
M  V30 296 N 26.6058 1.57591 -0.0167156 0
M  V30 297 C 27.5388 2.04944 1.00366 0
M  V30 298 C 28.5168 0.942648 1.32487 0
M  V30 299 O 29.7008 1.21205 1.44367 0
M  V30 300 C 26.8278 2.46109 2.32697 0
M  V30 301 C 25.8738 3.67686 2.16123 0
M  V30 302 S 26.7068 5.14882 1.47161 0
M  V30 303 C 27.8628 5.59332 2.80888 0
M  V30 304 H 28.0958 2.91172 0.600528 0
M  V30 305 H 25.6288 1.53168 0.194632 0
M  V30 306 H 27.5868 2.70493 3.08778 0
M  V30 307 H 26.2478 1.6025 2.70146 0
M  V30 308 H 25.4408 3.94296 3.13922 0
M  V30 309 H 25.0428 3.43391 1.48185 0
M  V30 310 H 27.3348 5.62814 3.77156 0
M  V30 311 H 28.2778 6.5905 2.58958 0
M  V30 312 H 28.6858 4.86942 2.85565 0
M  V30 313 N 28.0839 -0.256276 1.55502 0
M  V30 314 C 29.3299 -0.982884 1.78076 0
M  V30 315 C 29.6849 -1.83319 0.584109 0
M  V30 316 O 28.9779 -1.86875 -0.422877 0
M  V30 317 C 29.1719 -1.88432 3.03691 0
M  V30 318 C 29.0009 -1.12276 4.35459 0
M  V30 319 C 27.7709 -0.831647 4.98409 0
M  V30 320 C 29.9689 -0.504933 5.11815 0
M  V30 321 N 27.9509 -0.0450423 6.13883 0
M  V30 322 C 29.3219 0.146696 6.19826 0
M  V30 323 C 31.3769 -0.414455 4.96172 0
M  V30 324 C 30.0799 0.880103 7.13895 0
M  V30 325 C 32.1059 0.305398 5.90611 0
M  V30 326 C 31.4679 0.945701 6.98023 0
M  V30 327 H 27.5669 -0.341084 0.703694 0
M  V30 328 H 30.1509 -0.256909 1.92998 0
M  V30 329 H 28.3219 -2.58241 2.90114 0
M  V30 330 H 30.0539 -2.54579 3.14598 0
M  V30 331 H 26.8089 -1.14111 4.59647 0
M  V30 332 H 27.2329 0.336079 6.76165 0
M  V30 333 H 31.8749 -0.895163 4.13215 0
M  V30 334 H 29.5929 1.37244 7.9636 0
M  V30 335 H 33.1789 0.375946 5.80584 0
M  V30 336 H 32.0589 1.49383 7.6984 0
M  V30 337 N 29.562 -1.4872 -0.521534 0
M  V30 338 C 30.525 -1.63379 -1.60748 0
M  V30 339 C 31.525 -0.50661 -1.52611 0
M  V30 340 O 32.715 -0.772601 -1.5613 0
M  V30 341 C 29.847 -1.61192 -3.00383 0
M  V30 342 H 31.04 -2.60217 -1.49087 0
M  V30 343 H 28.593 -1.37444 -0.744235 0
M  V30 344 H 29.328 -0.65863 -3.17541 0
M  V30 345 H 29.113 -2.43032 -3.07698 0
M  V30 346 H 30.603 -1.7466 -3.7932 0
M  V30 347 N 31.0401 0.771051 -1.3745 0
M  V30 348 C 32.4511 1.34737 -1.29239 0
M  V30 349 C 32.8021 1.96109 0.0596908 0
M  V30 350 O 31.9271 1.93865 0.961534 0
M  V30 351 C 32.5221 2.44973 -2.34037 0
M  V30 352 C 31.0811 2.98372 -2.29458 0
M  V30 353 C 30.2281 1.71595 -2.17831 0
M  V30 354 H 33.1791 0.571256 -1.48062 0
M  V30 355 H 33.2001 3.24471 -1.98744 0
M  V30 356 H 32.7121 2.00276 -3.32432 0
M  V30 357 H 30.8131 3.47443 -1.34589 0
M  V30 358 H 30.9261 3.53939 -3.229 0
M  V30 359 H 29.2901 1.94547 -1.64388 0
M  V30 360 H 30.0731 1.29001 -3.18141 0
M  V30 361 N 32.5182 1.22032 0.997298 0
M  V30 362 C 33.4482 1.01065 2.10495 0
M  V30 363 C 34.4292 -0.0669542 1.69968 0
M  V30 364 O 35.6142 0.0943987 1.9397 0
M  V30 365 C 32.7442 0.582874 3.42374 0
M  V30 366 C 31.6982 1.60592 3.96729 0
M  V30 367 C 31.0242 1.03412 5.24605 0
M  V30 368 C 32.3242 2.99478 4.27914 0
M  V30 369 H 34.0182 1.93708 2.28292 0
M  V30 370 H 31.5642 0.932761 1.09707 0
M  V30 371 H 33.5172 0.423332 4.19268 0
M  V30 372 H 32.2412 -0.379213 3.24391 0
M  V30 373 H 30.9002 1.75316 3.21963 0
M  V30 374 H 30.5482 0.063518 5.0296 0
M  V30 375 H 30.2482 1.71754 5.61938 0
M  V30 376 H 31.7722 0.886066 6.04137 0
M  V30 377 H 33.1862 2.88153 4.95622 0
M  V30 378 H 31.5832 3.64903 4.76409 0
M  V30 379 H 32.6532 3.49742 3.3587 0
M  V30 380 N 33.9963 -1.19345 1.0293 0
M  V30 381 C 35.2423 -1.89585 0.736824 0
M  V30 382 C 35.5973 -1.78148 -0.726703 0
M  V30 383 O 34.8903 -1.16332 -1.52242 0
M  V30 384 C 35.0843 -3.39292 1.12319 0
M  V30 385 C 34.9133 -3.65298 2.62273 0
M  V30 386 C 33.6833 -3.83304 3.29251 0
M  V30 387 C 35.8813 -3.6682 3.60482 0
M  V30 388 N 33.8633 -3.96944 4.68304 0
M  V30 389 C 35.2343 -3.86037 4.85155 0
M  V30 390 C 37.2893 -3.49848 3.54275 0
M  V30 391 C 35.9923 -3.9004 6.04369 0
M  V30 392 C 38.0183 -3.55129 4.72903 0
M  V30 393 C 37.3803 -3.74831 5.9639 0
M  V30 394 H 33.4793 -0.712856 0.321497 0
M  V30 395 H 36.0633 -1.43427 1.31669 0
M  V30 396 H 34.2343 -3.84172 0.571524 0
M  V30 397 H 35.9663 -3.97055 0.78292 0
M  V30 398 H 32.7213 -3.82211 2.79663 0
M  V30 399 H 33.1453 -4.07613 5.40538 0
M  V30 400 H 37.7873 -3.33572 2.59788 0
M  V30 401 H 35.5053 -4.05108 6.99223 0
M  V30 402 H 39.0913 -3.43287 4.69729 0
M  V30 403 H 37.9713 -3.78792 6.86649 0
M  V30 404 N 35.4744 -0.807222 -1.35358 0
M  V30 405 C 36.6994 -0.399309 -2.0352 0
M  V30 406 C 37.1244 0.981986 -1.60433 0
M  V30 407 O 36.4824 1.63601 -0.781299 0
M  V30 408 C 36.5304 -0.491552 -3.57234 0
M  V30 409 O 35.6344 0.494754 -4.09421 0
M  V30 410 H 34.9754 -0.166682 -0.642739 0
M  V30 411 H 37.5054 -1.09328 -1.72941 0
M  V30 412 H 37.5154 -0.361588 -4.06395 0
M  V30 413 H 36.1904 -1.49907 -3.87944 0
M  V30 414 H 34.7674 0.324977 -3.71481 0
M  V30 415 N 36.9525 1.47285 -0.560781 0
M  V30 416 C 38.3685 1.58065 -0.22081 0
M  V30 417 C 38.5685 1.55892 1.27671 0
M  V30 418 O 37.6245 1.46422 2.0571 0
M  V30 419 C 38.9375 2.88418 -0.850625 0
M  V30 420 C 40.4855 3.02009 -0.822184 0
M  V30 421 C 40.9605 4.35066 -1.43113 0
M  V30 422 N 42.4515 4.41711 -1.39448 0
M  V30 423 C 43.1865 5.43237 -1.83525 0
M  V30 424 N 42.6825 6.51555 -2.35474 0
M  V30 425 N 44.4755 5.34304 -1.74574 0
M  V30 426 H 36.6265 1.46941 -1.53369 0
M  V30 427 H 38.8895 0.699558 -0.639783 0
M  V30 428 H 38.5955 2.95755 -1.9032 0
M  V30 429 H 38.4695 3.75612 -0.345773 0
M  V30 430 H 40.8565 2.94266 0.221714 0
M  V30 431 H 40.9375 2.16347 -1.36483 0
M  V30 432 H 40.5815 4.43565 -2.47412 0
M  V30 433 H 40.5115 5.19465 -0.863899 0
M  V30 434 H 43.0025 3.64027 -1.01452 0
M  V30 435 H 43.3155 7.25203 -2.67021 0
M  V30 436 H 41.6605 6.52435 -2.39487 0
M  V30 437 H 44.8515 4.48581 -1.33763 0
M  V30 438 H 45.0245 6.13288 -2.09242 0
M  V30 439 N 38.4306 0.297415 1.54768 0
M  V30 440 C 39.6556 -0.318435 2.04941 0
M  V30 441 C 40.0806 -1.4701 1.17345 0
M  V30 442 O 39.4386 -1.80436 0.176758 0
M  V30 443 C 39.4866 -0.755749 3.52592 0
M  V30 444 O 38.5906 -1.86088 3.68028 0
M  V30 445 H 37.9316 -0.062421 0.661059 0
M  V30 446 H 40.4616 0.438215 1.99852 0
M  V30 447 H 40.4716 -1.04552 3.94376 0
M  V30 448 H 39.1466 0.0867233 4.1581 0
M  V30 449 H 37.7236 -1.57193 3.38149 0
M  V30 450 N 39.9087 -1.5758 0.0250728 0
M  V30 451 C 40.8417 -2.05473 -0.992777 0
M  V30 452 C 41.8197 -0.949661 -1.31986 0
M  V30 453 O 43.0037 -1.21969 -1.43722 0
M  V30 454 C 40.1307 -2.4734 -2.31389 0
M  V30 455 C 39.1767 -3.68827 -2.1417 0
M  V30 456 S 40.0097 -5.15655 -1.44429 0
M  V30 457 C 41.1657 -5.60814 -2.77918 0
M  V30 458 H 41.3987 -2.91486 -0.585078 0
M  V30 459 H 38.9317 -1.53269 -0.186507 0
M  V30 460 H 40.8897 -2.72127 -3.07339 0
M  V30 461 H 39.5507 -1.6168 -2.69292 0
M  V30 462 H 38.7437 -3.95955 -3.11826 0
M  V30 463 H 38.3457 -3.44172 -1.46362 0
M  V30 464 H 40.6377 -5.64806 -3.74166 0
M  V30 465 H 41.5807 -6.60414 -2.55459 0
M  V30 466 H 41.9887 -4.8845 -2.82979 0
M  V30 467 N 41.3868 0.248026 -1.55636 0
M  V30 468 C 42.8028 0.596483 -1.48035 0
M  V30 469 C 43.0028 1.88386 -0.715039 0
M  V30 470 O 42.0588 2.51319 -0.243944 0
M  V30 471 C 43.3718 0.700258 -2.92433 0
M  V30 472 C 44.9198 0.792659 -3.02797 0
M  V30 473 C 45.3948 0.928005 -4.485 0
M  V30 474 N 46.8858 0.992903 -4.52433 0
M  V30 475 C 47.6208 1.11687 -5.62418 0
M  V30 476 N 47.1168 1.20645 -6.82214 0
M  V30 477 N 48.9098 1.14994 -5.50212 0
M  V30 478 H 41.0608 -0.597109 -2.03834 0
M  V30 479 H 43.3238 -0.205925 -0.925364 0
M  V30 480 H 43.0298 -0.175658 -3.51261 0
M  V30 481 H 42.9038 1.57255 -3.42857 0
M  V30 482 H 45.2908 1.65903 -2.4405 0
M  V30 483 H 45.3718 -0.104762 -2.55585 0
M  V30 484 H 45.0158 0.0661971 -5.07857 0
M  V30 485 H 44.9458 1.84045 -4.93391 0
M  V30 486 H 47.4368 0.935064 -3.66149 0
M  V30 487 H 47.7498 1.30008 -7.61786 0
M  V30 488 H 46.0948 1.17605 -6.84977 0
M  V30 489 H 49.2858 1.07643 -4.55555 0
M  V30 490 H 49.4588 1.24311 -6.35965 0
M  V30 491 N 42.8649 1.48995 0.513639 0
M  V30 492 C 44.2759 1.5119 1.09537 0
M  V30 493 C 44.6269 0.290906 1.94031 0
M  V30 494 O 43.7519 -0.60049 2.07902 0
M  V30 495 C 44.3469 2.73964 1.99322 0
M  V30 496 C 42.9059 2.78978 2.52682 0
M  V30 497 C 42.0529 2.44934 1.30009 0
M  V30 498 H 45.0039 1.55875 0.298125 0
M  V30 499 H 45.0249 2.53409 2.83838 0
M  V30 500 H 44.5369 3.62813 1.37799 0
M  V30 501 H 42.6379 1.94378 3.1788 0
M  V30 502 H 42.7509 3.8083 2.90698 0
M  V30 503 H 41.1149 1.9644 1.62122 0
M  V30 504 H 41.8979 3.36043 0.702131 0
M  V30 505 N 44.343 -0.763751 1.37857 0
M  V30 506 C 45.591 -1.51957 1.33243 0
M  V30 507 C 45.912 -1.94835 -0.0801709 0
M  V30 508 O 45.182 -1.66894 -1.02582 0
M  V30 509 H 43.762 -0.563626 0.49024 0
M  V30 510 H 46.424 -0.908504 1.7243 0
M  V30 511 H 45.52 -2.41523 1.97669 0
M  V30 512 N 45.8211 -1.22559 -0.990812 0
M  V30 513 C 47.2371 -0.985996 -1.255 0
M  V30 514 C 47.4371 0.319173 -1.98956 0
M  V30 515 O 46.4931 1.04127 -2.3003 0
M  V30 516 C 47.8061 -2.18607 -2.06474 0
M  V30 517 C 49.3541 -2.22985 -2.19651 0
M  V30 518 C 49.8291 -3.4255 -3.04012 0
M  V30 519 N 51.3201 -3.42725 -3.11599 0
M  V30 520 C 52.0551 -4.31892 -3.7717 0
M  V30 521 N 51.5511 -5.31279 -4.44651 0
M  V30 522 N 53.3441 -4.19662 -3.73952 0
M  V30 523 H 45.4951 -2.06469 -0.49841 0
M  V30 524 H 47.7581 -0.904853 -0.282747 0
M  V30 525 H 47.4641 -3.13267 -1.59865 0
M  V30 526 H 47.3381 -2.18838 -3.07229 0
M  V30 527 H 49.7251 -1.28871 -2.65474 0
M  V30 528 H 49.8061 -2.26791 -1.18319 0
M  V30 529 H 49.4501 -4.36965 -2.58889 0
M  V30 530 H 49.3801 -3.35984 -4.0549 0
M  V30 531 H 51.8711 -2.70807 -2.63575 0
M  V30 532 H 52.1841 -5.95593 -4.92431 0
M  V30 533 H 50.5291 -5.3519 -4.43392 0
M  V30 534 H 53.7201 -3.41268 -3.20396 0
M  V30 535 H 53.8931 -4.89358 -4.24774 0
M  V30 536 N 47.2992 1.18797 -1.03562 0
M  V30 537 C 48.5452 1.89192 -0.746867 0
M  V30 538 C 48.9002 1.78531 0.717245 0
M  V30 539 O 48.1932 1.17137 1.51622 0
M  V30 540 C 48.3872 3.38692 -1.14117 0
M  V30 541 C 48.2162 3.63902 -2.64207 0
M  V30 542 C 46.9862 3.81553 -3.31279 0
M  V30 543 C 49.1842 3.64903 -3.62423 0
M  V30 544 N 47.1662 3.94455 -4.70402 0
M  V30 545 C 48.5372 3.83458 -4.87196 0
M  V30 546 C 50.5922 3.47965 -3.56125 0
M  V30 547 C 49.2952 3.86829 -6.06429 0
M  V30 548 C 51.3212 3.52616 -4.7478 0
M  V30 549 C 50.6832 3.71663 -5.9837 0
M  V30 550 H 46.7822 0.711141 -0.325273 0
M  V30 551 H 49.3662 1.42727 -1.32428 0
M  V30 552 H 47.5372 3.83864 -0.591889 0
M  V30 553 H 49.2692 3.96634 -0.803966 0
M  V30 554 H 46.0242 3.80723 -2.81686 0
M  V30 555 H 46.4482 4.0474 -5.42692 0
M  V30 556 H 51.0902 3.32189 -2.61553 0
M  V30 557 H 48.8082 4.01395 -7.01362 0
M  V30 558 H 52.3942 3.40791 -4.71543 0
M  V30 559 H 51.2742 3.75145 -6.88648 0
M  V30 560 N 48.7773 0.814389 1.34928 0
M  V30 561 C 50.0173 0.404165 2.00364 0
M  V30 562 C 50.3813 -1.01166 1.63185 0
M  V30 563 O 51.5823 -1.52431 2.21401 0
M  V30 564 C 49.8533 0.590718 3.52484 0
M  V30 565 S 51.4123 0.272075 4.37956 0
M  V30 566 H 48.2303 0.15311 0.694319 0
M  V30 567 H 50.8323 1.05834 1.64376 0
M  V30 568 H 49.5363 1.62099 3.77031 0
M  V30 569 H 49.0673 -0.0785013 3.93322 0
M  V30 570 H 51.0823 -0.917405 4.87645 0
M  V30 571 N 50.2554 -1.46986 0.568584 0
M  V30 572 C 51.4804 -2.07335 0.0520528 0
M  V30 573 C 51.9054 -1.41675 -1.23733 0
M  V30 574 O 51.2634 -0.495623 -1.74394 0
M  V30 575 C 51.3114 -3.60417 -0.11501 0
M  V30 576 O 50.4154 -3.95309 -1.17492 0
M  V30 577 H 49.7564 -0.661597 0.0564385 0
M  V30 578 H 52.2864 -1.88837 0.787507 0
M  V30 579 H 52.2964 -4.06698 -0.325644 0
M  V30 580 H 50.9714 -4.07601 0.826675 0
M  V30 581 H 49.5484 -3.60757 -0.943869 0
M  V30 582 N 51.7335 -0.305618 -1.54608 0
M  V30 583 C 52.6655 0.602161 -2.21149 0
M  V30 584 C 53.6785 1.09394 -1.20569 0
M  V30 585 O 54.8675 1.0106 -1.47136 0
M  V30 586 C 51.9675 1.83692 -2.84799 0
M  V30 587 C 51.1405 1.48686 -4.11353 0
M  V30 588 C 50.1995 2.57725 -4.58764 0
M  V30 589 O 49.2255 2.22623 -5.23858 0
M  V30 590 N 50.4275 3.88346 -4.31471 0
M  V30 591 H 53.1925 0.0324966 -2.99682 0
M  V30 592 H 50.7535 -0.128021 -1.61393 0
M  V30 593 H 52.7455 2.55994 -3.13448 0
M  V30 594 H 51.3155 2.31486 -2.10078 0
M  V30 595 H 50.5355 0.596269 -3.89664 0
M  V30 596 H 51.8235 1.22842 -4.93748 0
M  V30 597 H 51.2215 4.19671 -3.79331 0
M  V30 598 H 49.7785 4.56932 -4.64818 0
M  V30 599 N 53.2116 1.57565 -0.0334293 0
M  V30 600 C 54.6276 1.56297 0.322997 0
M  V30 601 C 54.8276 1.03945 1.7262 0
M  V30 602 O 53.8836 0.688109 2.42943 0
M  V30 603 C 55.1966 3.00232 0.167664 0
M  V30 604 C 56.7446 3.12078 0.240107 0
M  V30 605 C 57.2196 4.57859 0.113513 0
M  V30 606 N 58.7106 4.62887 0.170359 0
M  V30 607 C 59.4456 5.73319 0.0962517 0
M  V30 608 N 58.9416 6.92794 -0.0291881 0
M  V30 609 N 60.7346 5.61898 0.150551 0
M  V30 610 H 52.8856 1.89923 -0.950956 0
M  V30 611 H 55.1486 0.873824 -0.367608 0
M  V30 612 H 54.8546 3.42501 -0.799102 0
M  V30 613 H 54.7286 3.654 0.936083 0
M  V30 614 H 57.1156 2.69718 1.19733 0
M  V30 615 H 57.1966 2.49623 -0.558763 0
M  V30 616 H 56.8406 5.009 -0.840314 0
M  V30 617 H 56.7706 5.18299 0.931302 0
M  V30 618 H 59.2616 3.76954 0.26728 0
M  V30 619 H 59.5746 7.7276 -0.0789252 0
M  V30 620 H 57.9196 6.94971 -0.0640299 0
M  V30 621 H 61.1106 4.67448 0.246981 0
M  V30 622 H 61.2836 6.47938 0.0893365 0
M  V30 623 N 54.6897 -0.239769 1.55765 0
M  V30 624 C 55.9147 -0.988373 1.82335 0
M  V30 625 C 56.3397 -1.77886 0.611421 0
M  V30 626 O 55.6977 -1.75889 -0.439639 0
M  V30 627 C 55.7457 -1.89627 3.06715 0
M  V30 628 O 54.8497 -2.98904 2.84131 0
M  V30 629 H 54.1907 -0.280858 0.601677 0
M  V30 630 H 56.7207 -0.258597 2.02959 0
M  V30 631 H 56.7307 -2.30957 3.36338 0
M  V30 632 H 55.4057 -1.31511 3.9456 0
M  V30 633 H 53.9827 -2.61651 2.65694 0
M  V30 634 N 56.1678 -1.49265 -0.50573 0
M  V30 635 C 57.4078 -1.60128 -1.27038 0
M  V30 636 C 57.7718 -0.279557 -1.89954 0
M  V30 637 O 58.9728 -0.263329 -2.67507 0
M  V30 638 C 57.2438 -2.72507 -2.31246 0
M  V30 639 S 58.8028 -3.0329 -3.17113 0
M  V30 640 H 55.6208 -0.564863 -0.4318 0
M  V30 641 H 58.2228 -1.86902 -0.573397 0
M  V30 642 H 56.9268 -3.67068 -1.83546 0
M  V30 643 H 56.4578 -2.4771 -3.05619 0
M  V30 644 H 58.4728 -2.44448 -4.31809 0
M  V30 645 N 57.6459 0.756429 -1.3826 0
M  V30 646 C 58.6089 1.85176 -1.35065 0
M  V30 647 C 59.6089 1.58818 -0.251703 0
M  V30 648 O 60.7989 1.66615 -0.508433 0
M  V30 649 C 57.9309 3.22596 -1.10201 0
M  V30 650 H 59.1239 1.89417 -2.3251 0
M  V30 651 H 56.6769 0.95783 -1.23512 0
M  V30 652 H 57.4119 3.24025 -0.133504 0
M  V30 653 H 57.1969 3.43122 -1.89762 0
M  V30 654 H 58.6869 4.02673 -1.10654 0
M  V30 655 N 59.124 1.23083 0.984299 0
M  V30 656 C 60.37 1.07221 1.72845 0
M  V30 657 C 60.725 -0.387453 1.88458 0
M  V30 658 O 60.018 -1.28309 1.42293 0
M  V30 659 C 60.212 1.72673 3.1292 0
M  V30 660 C 60.041 3.24853 3.10967 0
M  V30 661 C 58.811 3.93998 3.16376 0
M  V30 662 C 61.009 4.21674 2.94441 0
M  V30 663 N 58.991 5.33192 3.04268 0
M  V30 664 C 60.362 5.47756 2.90453 0
M  V30 665 C 62.417 4.12457 2.78897 0
M  V30 666 C 61.12 6.6568 2.72512 0
M  V30 667 C 63.146 5.3004 2.62319 0
M  V30 668 C 62.508 6.55046 2.59026 0
M  V30 669 H 58.607 0.44685 0.641755 0
M  V30 670 H 61.191 1.55753 1.16829 0
M  V30 671 H 59.362 1.26679 3.67161 0
M  V30 672 H 61.094 1.49824 3.75945 0
M  V30 673 H 57.849 3.45052 3.24401 0
M  V30 674 H 58.273 6.06157 3.015 0
M  V30 675 H 62.915 3.16588 2.80235 0
M  V30 676 H 60.633 7.61689 2.69919 0
M  V30 677 H 64.219 5.24747 2.5126 0
M  V30 678 H 63.099 7.44498 2.46357 0
M  V30 679 N 60.6021 -1.18246 1.0419 0
M  V30 680 C 61.5341 -2.2142 0.592088 0
M  V30 681 C 62.5471 -1.59233 -0.338909 0
M  V30 682 O 63.7361 -1.78002 -0.133231 0
M  V30 683 C 60.8361 -3.38546 -0.154854 0
M  V30 684 C 60.0091 -4.3031 0.784328 0
M  V30 685 C 59.0681 -5.26138 0.0804583 0
M  V30 686 O 58.0941 -5.64738 0.711292 0
M  V30 687 N 59.2961 -5.68261 -1.18574 0
M  V30 688 H 62.0611 -2.60636 1.47949 0
M  V30 689 H 59.6221 -1.33044 0.922544 0
M  V30 690 H 61.6141 -3.99678 -0.635606 0
M  V30 691 H 60.1841 -2.98012 -0.943811 0
M  V30 692 H 59.4041 -3.66764 1.44491 0
M  V30 693 H 60.6921 -4.8852 1.42218 0
M  V30 694 H 60.0901 -5.38957 -1.71876 0
M  V30 695 H 58.6471 -6.31584 -1.61074 0
M  V30 696 N 62.0802 -0.821533 -1.34494 0
M  V30 697 C 63.3082 -0.421884 -2.02553 0
M  V30 698 C 63.7232 0.971745 -1.61872 0
M  V30 699 O 63.0802 1.62864 -0.823496 0
M  V30 700 C 63.1312 -0.51285 -3.57844 0
M  V30 701 O 62.8522 -1.85155 -3.97051 0
M  V30 702 C 64.3532 -0.107921 -4.43169 0
M  V30 703 H 61.5732 -0.169482 -0.649243 0
M  V30 704 H 64.1172 -1.1093 -1.71798 0
M  V30 705 H 62.2722 0.126474 -3.87193 0
M  V30 706 H 62.6862 -1.82482 -4.91732 0
M  V30 707 H 64.1602 -0.222657 -5.51551 0
M  V30 708 H 64.6372 0.948401 -4.28838 0
M  V30 709 H 65.2432 -0.720989 -4.19144 0
M  V30 710 N 63.5583 1.46682 -0.576371 0
M  V30 711 C 64.7833 2.07304 -0.0630475 0
M  V30 712 C 65.2083 1.42329 1.2298 0
M  V30 713 O 64.5663 0.504865 1.74129 0
M  V30 714 C 64.6143 3.60472 0.095895 0
M  V30 715 O 63.7183 3.95927 1.15394 0
M  V30 716 H 63.0593 0.661288 -0.0599463 0
M  V30 717 H 65.5893 1.88417 -0.797511 0
M  V30 718 H 65.5993 4.06865 0.304071 0
M  V30 719 H 64.2743 4.07157 -0.84828 0
M  V30 720 H 62.8513 3.61252 0.924724 0
M  V30 721 N 65.0364 0.313813 1.54444 0
M  V30 722 C 65.9844 -0.572171 2.25453 0
M  V30 723 C 66.9784 -1.12657 1.2651 0
M  V30 724 O 68.1844 -1.07573 1.44319 0
M  V30 725 H 64.5594 -0.203146 0.724041 0
M  V30 726 H 66.5304 0.0491145 2.9836 0
M  V30 727 C 65.2794 -1.72626 3.0182 0
M  V30 728 H 64.6024 -1.30891 3.77767 0
M  V30 729 H 66.0424 -2.32199 3.54767 0
M  V30 730 C 64.5014 -2.63806 2.09542 0
M  V30 731 O 65.0314 -3.65256 1.67185 0
M  V30 732 N 63.2374 -2.31824 1.75232 0
M  V30 733 H 62.7844 -1.49368 2.09873 0
M  V30 734 H 62.7424 -2.93095 1.13767 0
M  V30 735 N 66.5145 -1.57545 0.0417849 0
M  V30 736 C 67.4625 -2.12148 -0.953723 0
M  V30 737 C 68.4565 -1.05104 -1.32852 0
M  V30 738 O 69.6625 -1.23524 -1.30927 0
M  V30 739 H 66.0375 -0.677957 -0.325389 0
M  V30 740 H 68.0085 -2.94707 -0.467991 0
M  V30 741 C 66.7575 -2.6739 -2.22257 0
M  V30 742 H 66.0805 -3.49413 -1.94295 0
M  V30 743 H 67.5205 -3.09227 -2.90094 0
M  V30 744 C 65.9795 -1.60723 -2.96091 0
M  V30 745 O 66.5095 -1.01449 -3.88679 0
M  V30 746 N 64.7155 -1.32466 -2.58652 0
M  V30 747 H 64.2625 -1.80856 -1.83437 0
M  V30 748 H 64.2205 -0.61325 -3.08361 0
M  V30 749 N 67.9926 0.231505 -1.5589 0
M  V30 750 C 69.2206 0.974505 -1.82513 0
M  V30 751 C 69.6356 1.78344 -0.619591 0
M  V30 752 O 68.9926 1.77792 0.411848 0
M  V30 753 C 69.0436 1.90007 -3.07538 0
M  V30 754 O 68.7646 1.12385 -4.2344 0
M  V30 755 C 70.2656 2.75779 -3.47075 0
M  V30 756 H 67.4856 0.286065 -0.606966 0
M  V30 757 H 70.0296 0.249739 -2.02969 0
M  V30 758 H 68.1846 2.57891 -2.89086 0
M  V30 759 H 68.5986 1.75125 -4.944 0
M  V30 760 H 70.0726 3.36443 -4.37619 0
M  V30 761 H 70.5496 3.47672 -2.68367 0
M  V30 762 H 71.1556 2.13323 -3.67931 0
M  V30 763 N 69.4707 1.49531 0.497807 0
M  V30 764 C 70.4007 1.6935 1.60757 0
M  V30 765 C 71.3817 0.542218 1.61227 0
M  V30 766 O 72.5667 0.778417 1.77917 0
M  V30 767 C 69.6967 1.76298 2.99226 0
M  V30 768 C 68.6507 2.91248 3.13622 0
M  V30 769 C 67.9767 2.83312 4.53474 0
M  V30 770 C 69.2767 4.3214 2.93346 0
M  V30 771 H 70.9707 2.62263 1.44425 0
M  V30 772 H 68.5167 1.26208 0.693367 0
M  V30 773 H 70.4697 1.88749 3.76765 0
M  V30 774 H 69.1937 0.799871 3.16654 0
M  V30 775 H 67.8527 2.78404 2.38509 0
M  V30 776 H 67.5007 1.84902 4.67782 0
M  V30 777 H 67.2007 3.60465 4.64046 0
M  V30 778 H 68.7247 2.97775 5.33069 0
M  V30 779 H 70.1387 4.45649 3.60652 0
M  V30 780 H 68.5357 5.1054 3.15387 0
M  V30 781 H 69.6057 4.46363 1.89441 0
M  V30 782 N 70.9488 -0.749086 1.3866 0
M  V30 783 C 71.8988 -1.85368 1.32751 0
M  V30 784 C 72.8828 -1.59511 0.210945 0
M  V30 785 O 74.0748 -1.71255 0.447299 0
M  V30 786 C 71.2038 -3.23131 1.15935 0
M  V30 787 C 70.2898 -3.54864 2.32233 0
M  V30 788 N 70.6808 -3.57625 3.57684 0
M  V30 789 C 68.9788 -3.85154 2.24883 0
M  V30 790 C 69.6798 -3.86753 4.34508 0
M  V30 791 N 68.6558 -4.03812 3.63918 0
M  V30 792 H 72.4578 -1.85787 2.27729 0
M  V30 793 H 69.9718 -0.946658 1.31955 0
M  V30 794 H 71.9688 -4.02185 1.09786 0
M  V30 795 H 70.6288 -3.23961 0.218947 0
M  V30 796 H 71.6398 -3.39276 3.91295 0
M  V30 797 H 68.3168 -3.93672 1.39027 0
M  V30 798 H 69.7068 -3.95474 5.43185 0
M  V30 799 N 72.4269 -1.23603 -0.977757 0
M  V30 800 C 73.8379 -1.06424 -1.53398 0
M  V30 801 C 74.1889 0.367578 -1.92726 0
M  V30 802 O 73.3139 1.25465 -1.76316 0
M  V30 803 C 73.9089 -1.92568 -2.78753 0
M  V30 804 C 72.4679 -1.79642 -3.30765 0
M  V30 805 C 71.6149 -1.88111 -2.03739 0
M  V30 806 H 74.5659 -1.37227 -0.797152 0
M  V30 807 H 74.5869 -1.45203 -3.51705 0
M  V30 808 H 74.0989 -2.96771 -2.50098 0
M  V30 809 H 72.1999 -0.782325 -3.64294 0
M  V30 810 H 72.3129 -2.63174 -4.00345 0
M  V30 811 H 70.6769 -1.31723 -2.17994 0
M  V30 812 H 71.4599 -2.93875 -1.77461 0
M  V30 813 N 73.905 1.17692 -1.04816 0
M  V30 814 C 74.835 2.23777 -0.666791 0
M  V30 815 C 75.816 1.66796 0.33361 0
M  V30 816 O 77.001 1.93039 0.212042 0
M  V30 817 C 74.131 3.47281 -0.0367933 0
M  V30 818 C 73.085 4.17059 -0.961546 0
M  V30 819 C 72.411 5.34342 -0.195626 0
M  V30 820 C 73.711 4.69713 -2.28402 0
M  V30 821 H 75.405 2.55933 -1.55367 0
M  V30 822 H 72.951 1.23019 -0.748484 0
M  V30 823 H 74.904 4.20706 0.241775 0
M  V30 824 H 73.628 3.14381 0.885004 0
M  V30 825 H 72.287 3.45541 -1.22462 0
M  V30 826 H 71.935 4.97692 0.728816 0
M  V30 827 H 71.635 5.81966 -0.811775 0
M  V30 828 H 73.159 6.10553 0.0757473 0
M  V30 829 H 74.573 5.34794 -2.06563 0
M  V30 830 H 72.97 5.279 -2.8538 0
M  V30 831 H 74.04 3.86726 -2.92525 0
M  V30 832 N 75.3831 0.828654 1.34056 0
M  V30 833 C 76.6291 0.429279 1.98818 0
M  V30 834 C 76.9841 -0.998011 1.64492 0
M  V30 835 O 76.2771 -1.68652 0.909228 0
M  V30 836 C 76.4711 0.575226 3.52741 0
M  V30 837 C 76.3001 2.01515 4.02022 0
M  V30 838 C 75.0701 2.64825 4.30344 0
M  V30 839 C 77.2681 2.98261 4.18981 0
M  V30 840 N 75.2501 3.99998 4.65698 0
M  V30 841 C 76.6211 4.18356 4.57578 0
M  V30 842 C 78.6761 2.94802 4.01243 0
M  V30 843 C 77.3791 5.35454 4.80293 0
M  V30 844 C 79.4051 4.11121 4.25128 0
M  V30 845 C 78.7671 5.29969 4.64018 0
M  V30 846 H 74.8661 0.205304 0.754569 0
M  V30 847 H 77.4501 1.07457 1.62361 0
M  V30 848 H 75.6211 -0.0401962 3.88379 0
M  V30 849 H 77.3531 0.148292 4.04428 0
M  V30 850 H 74.1081 2.16027 4.21461 0
M  V30 851 H 74.5321 4.69653 4.87601 0
M  V30 852 H 79.1741 2.04054 3.70299 0
M  V30 853 H 76.8921 6.26755 5.10102 0
M  V30 854 H 80.4781 4.0985 4.12934 0
M  V30 855 H 79.3581 6.18479 4.82134 0
M  V30 856 N 76.8612 -1.46375 0.584142 0
M  V30 857 C 78.0892 -2.06761 0.0759296 0
M  V30 858 C 78.5042 -1.43266 -1.22965 0
M  V30 859 O 77.8612 -0.538458 -1.74376 0
M  V30 860 C 77.9122 -3.61375 -0.0950384 0
M  V30 861 O 77.6332 -4.22495 1.15887 0
M  V30 862 C 79.1342 -4.38693 -0.637434 0
M  V30 863 H 76.3542 -0.668479 0.0581075 0
M  V30 864 H 78.8982 -1.8798 0.805218 0
M  V30 865 H 77.0532 -3.79578 -0.774554 0
M  V30 866 H 77.4672 -5.15385 0.973598 0
M  V30 867 H 78.9412 -5.47464 -0.706237 0
M  V30 868 H 79.4182 -4.06836 -1.65472 0
M  V30 869 H 80.0242 -4.25299 0.00725967 0
M  V30 870 N 78.3393 -0.321999 -1.54275 0
M  V30 871 C 79.5853 0.281461 -2.00837 0
M  V30 872 C 79.9183 1.51909 -1.20985 0
M  V30 873 O 79.1933 1.923 -0.291733 0
M  V30 874 C 79.4763 0.617162 -3.54772 0
M  V30 875 C 79.3293 -0.631064 -4.45351 0
M  V30 876 C 80.6483 1.43542 -4.16033 0
M  V30 877 H 77.7673 0.100826 -0.730071 0
M  V30 878 H 80.4093 -0.438268 -1.84876 0
M  V30 879 H 78.5593 1.23034 -3.68504 0
M  V30 880 H 80.2313 -1.26934 -4.43492 0
M  V30 881 H 78.4743 -1.26025 -4.15091 0
M  V30 882 H 79.1453 -0.351735 -5.50878 0
M  V30 883 H 81.6213 0.917134 -4.05867 0
M  V30 884 H 80.4973 1.63907 -5.23856 0
M  V30 885 H 80.7583 2.43108 -3.69257 0
M  V30 886 N 79.8174 1.5752 -0.0501392 0
M  V30 887 C 81.2284 1.80271 0.485705 0
M  V30 888 C 81.5794 0.96228 1.70981 0
M  V30 889 O 80.7044 0.178578 2.15662 0
M  V30 890 C 81.2994 3.26957 0.887938 0
M  V30 891 C 79.8584 3.5063 1.36877 0
M  V30 892 C 79.0054 2.75165 0.343468 0
M  V30 893 H 81.9564 1.56281 -0.276028 0
M  V30 894 H 81.9774 3.37821 1.75093 0
M  V30 895 H 81.4894 3.881 -0.0031809 0
M  V30 896 H 79.5904 2.94766 2.27911 0
M  V30 897 H 79.7034 4.59343 1.36164 0
M  V30 898 H 78.0674 2.4127 0.816128 0
M  V30 899 H 78.8504 3.39034 -0.539548 0
M  V30 900 N 81.2955 -0.223234 1.56011 0
M  V30 901 C 82.5415 -0.949279 1.79211 0
M  V30 902 C 82.8745 -1.84054 0.619494 0
M  V30 903 O 82.1495 -1.90726 -0.381317 0
M  V30 904 C 82.4325 -1.78965 3.12479 0
M  V30 905 C 82.2855 -0.924997 4.40186 0
M  V30 906 C 83.6045 -2.76774 3.42175 0
M  V30 907 H 80.7235 -0.343676 0.651963 0
M  V30 908 H 83.3655 -0.218253 1.88742 0
M  V30 909 H 81.5155 -2.41291 3.04485 0
M  V30 910 H 83.1875 -0.318615 4.60198 0
M  V30 911 H 81.4305 -0.230344 4.33188 0
M  V30 912 H 82.1015 -1.54735 5.29869 0
M  V30 913 H 84.5775 -2.24584 3.50287 0
M  V30 914 H 83.4535 -3.32678 4.36597 0
M  V30 915 H 83.7145 -3.54429 2.64258 0
M  V30 916 N 82.7736 -1.49793 -0.48987 0
M  V30 917 C 83.9986 -1.63836 -1.27172 0
M  V30 918 C 84.4236 -0.31402 -1.8546 0
M  V30 919 O 83.7816 0.719803 -1.66399 0
M  V30 920 C 83.8296 -2.71797 -2.36978 0
M  V30 921 O 82.9336 -2.31744 -3.41128 0
M  V30 922 H 82.2746 -0.547997 -0.37496 0
M  V30 923 H 84.8046 -1.96053 -0.585191 0
M  V30 924 H 84.8146 -2.94305 -2.82575 0
M  V30 925 H 83.4896 -3.67923 -1.93921 0
M  V30 926 H 82.0666 -2.1961 -3.01373 0
M  V30 927 N 84.2517 0.741722 -1.39055 0
M  V30 928 C 85.4977 1.50336 -1.36113 0
M  V30 929 C 85.8307 1.94148 0.0450796 0
M  V30 930 O 85.1057 1.66301 1.00868 0
M  V30 931 C 85.3887 2.74773 -2.32749 0
M  V30 932 C 85.2417 2.37023 -3.82283 0
M  V30 933 C 86.5607 3.76846 -2.27322 0
M  V30 934 H 83.6797 0.545351 -0.495743 0
M  V30 935 H 86.3217 0.848624 -1.69995 0
M  V30 936 H 84.4717 3.30639 -2.03986 0
M  V30 937 H 86.1437 1.8684 -4.21768 0
M  V30 938 H 84.3867 1.69334 -3.99385 0
M  V30 939 H 85.0577 3.26104 -4.45376 0
M  V30 940 H 87.5337 3.30548 -2.5274 0
M  V30 941 H 86.4097 4.6159 -2.97028 0
M  V30 942 H 86.6707 4.23286 -1.27599 0
M  V30 943 N 85.7298 1.2412 0.971189 0
M  V30 944 C 87.1408 1.07236 1.52831 0
M  V30 945 C 87.4918 -0.357352 1.92918 0
M  V30 946 O 86.6168 -1.24528 1.76979 0
M  V30 947 C 87.2118 1.94043 2.77728 0
M  V30 948 C 85.7708 1.81394 3.29808 0
M  V30 949 C 84.9178 1.89189 2.02738 0
M  V30 950 H 87.8688 1.37648 0.789864 0
M  V30 951 H 87.8898 1.47066 3.5093 0
M  V30 952 H 87.4018 2.98093 2.4852 0
M  V30 953 H 85.5028 0.801634 3.63874 0
M  V30 954 H 85.6158 2.65294 3.98944 0
M  V30 955 H 83.9798 1.32877 2.17292 0
M  V30 956 H 84.7628 2.94812 1.759 0
M  V30 957 N 87.2079 -1.17134 1.05439 0
M  V30 958 C 88.4559 -1.87085 0.764429 0
M  V30 959 C 88.7769 -1.81584 -0.710787 0
M  V30 960 O 88.0469 -1.24349 -1.51374 0
M  V30 961 H 86.6269 -0.692627 0.279779 0
M  V30 962 H 89.2889 -1.42087 1.33406 0
M  V30 963 H 88.3849 -2.92759 1.0816 0
M  V30 964 N 88.686 -0.835752 -1.33615 0
M  V30 965 C 89.934 -0.429109 -1.97492 0
M  V30 966 C 90.255 1.01433 -1.66543 0
M  V30 967 O 89.525 1.70611 -0.962744 0
M  V30 968 H 88.105 -0.155686 -0.730596 0
M  V30 969 H 90.767 -1.06802 -1.63031 0
M  V30 970 H 89.863 -0.55861 -3.0706 0
M  V30 971 N 90.1641 1.46063 -0.591896 0
M  V30 972 C 91.3921 2.06717 -0.0868936 0
M  V30 973 C 91.8071 1.43916 1.22203 0
M  V30 974 O 91.1641 0.547698 1.74088 0
M  V30 975 C 91.2151 3.6142 0.0758725 0
M  V30 976 O 90.9361 4.21874 -1.18126 0
M  V30 977 C 92.4371 4.39025 0.61416 0
M  V30 978 H 89.6571 0.668162 -0.0616518 0
M  V30 979 H 92.2011 1.8755 -0.815175 0
M  V30 980 H 90.3561 3.79983 0.754413 0
M  V30 981 H 90.7701 5.14861 -1.00092 0
M  V30 982 H 92.2441 5.4783 0.677193 0
M  V30 983 H 92.7211 4.07708 1.63312 0
M  V30 984 H 93.3271 4.2529 -0.0298142 0
M  V30 985 N 91.6422 0.330177 1.54103 0
M  V30 986 C 93.0582 -0.0222371 1.59585 0
M  V30 987 C 93.2582 -1.49902 1.34654 0
M  V30 988 O 92.3142 -2.25592 1.13421 0
M  V30 989 C 93.6272 0.401932 2.98002 0
M  V30 990 C 95.1752 0.353145 3.11001 0
M  V30 991 C 95.6502 0.752576 4.51775 0
M  V30 992 N 97.1412 0.706239 4.57784 0
M  V30 993 C 97.8762 0.987417 5.64834 0
M  V30 994 N 97.3722 1.33607 6.79795 0
M  V30 995 N 99.1652 0.91254 5.54643 0
M  V30 996 H 91.3162 1.29228 1.68564 0
M  V30 997 H 93.5792 0.525906 0.78875 0
M  V30 998 H 93.2852 1.4311 3.21267 0
M  V30 999 H 93.1592 -0.229699 3.765 0
M  V30 1000 H 95.5462 -0.666822 2.87467 0
M  V30 1001 H 95.6272 1.0198 2.34593 0
M  V30 1002 H 95.2712 1.77049 4.76042 0
M  V30 1003 H 95.2012 0.0635409 5.26562 0
M  V30 1004 H 97.6922 0.44889 3.75224 0
M  V30 1005 H 98.0052 1.53582 7.57385 0
M  V30 1006 H 96.3502 1.37439 6.81275 0
M  V30 1007 H 99.5412 0.639601 4.6371 0
M  V30 1008 H 99.7142 1.13503 6.37982 0
M  V30 1009 N 93.1203 -1.57491 0.0584922 0
M  V30 1010 C 94.0523 -2.08916 -0.942694 0
M  V30 1011 C 95.0653 -1.0185 -1.27006 0
M  V30 1012 O 96.2543 -1.29398 -1.22957 0
M  V30 1013 C 93.3543 -2.52341 -2.26224 0
M  V30 1014 C 92.5273 -3.82827 -2.1157 0
M  V30 1015 C 91.5863 -4.12487 -3.26712 0
M  V30 1016 O 90.6123 -4.82295 -3.02292 0
M  V30 1017 N 91.8143 -3.64978 -4.5141 0
M  V30 1018 H 94.5793 -2.95437 -0.503722 0
M  V30 1019 H 92.1403 -1.61397 -0.12757 0
M  V30 1020 H 94.1323 -2.69254 -3.02133 0
M  V30 1021 H 92.7023 -1.7103 -2.61663 0
M  V30 1022 H 91.9223 -3.75425 -1.20208 0
M  V30 1023 H 93.2103 -4.68263 -1.99015 0
M  V30 1024 H 92.6083 -3.08558 -4.7414 0
M  V30 1025 H 91.1653 -3.87115 -5.2439 0
M  V30 1026 N 94.5984 0.214957 -1.56127 0
M  V30 1027 C 95.8234 0.95924 -1.83884 0
M  V30 1028 C 96.2484 1.7689 -0.639644 0
M  V30 1029 O 95.6064 1.76566 0.411601 0
M  V30 1030 C 95.6544 1.84723 -3.09693 0
M  V30 1031 O 94.7584 2.94346 -2.8885 0
M  V30 1032 H 94.0994 0.27125 -0.606069 0
M  V30 1033 H 96.6294 0.226276 -2.03345 0
M  V30 1034 H 96.6394 2.25576 -3.39969 0
M  V30 1035 H 95.3144 1.25218 -3.96602 0
M  V30 1036 H 93.8914 2.57391 -2.69823 0
M  V30 1037 N 96.0765 1.50051 0.48192 0
M  V30 1038 C 97.4875 1.5348 1.06305 0
M  V30 1039 C 97.8385 0.331997 1.93371 0
M  V30 1040 O 96.9635 -0.556256 2.09129 0
M  V30 1041 C 97.5585 2.7813 1.93466 0
M  V30 1042 C 96.1175 2.84275 2.46707 0
M  V30 1043 C 95.2645 2.47637 1.24785 0
M  V30 1044 H 98.2155 1.56472 0.264995 0
M  V30 1045 H 98.2365 2.59372 2.78399 0
M  V30 1046 H 97.7485 3.65654 1.30072 0
M  V30 1047 H 95.8495 2.01077 3.13686 0
M  V30 1048 H 95.9625 3.8691 2.82555 0
M  V30 1049 H 94.3265 1.99835 1.57918 0
M  V30 1050 H 95.1095 3.37457 0.630694 0
M  V30 1051 N 97.5546 -0.734337 1.39446 0
M  V30 1052 C 98.8036 -1.48937 1.36017 0
M  V30 1053 C 99.1166 -1.95557 -0.0409005 0
M  V30 1054 O 100.323 -2.70779 -0.19778 0
M  V30 1055 C 98.7786 -2.69125 2.38955 0
M  V30 1056 C 98.3866 -2.29452 3.8478 0
M  V30 1057 C 100.131 -3.46944 2.44603 0
M  V30 1058 C 98.0376 -3.46366 4.79358 0
M  V30 1059 H 96.9676 -0.559296 0.505672 0
M  V30 1060 H 99.6186 -0.800983 1.65095 0
M  V30 1061 H 98.0006 -3.40041 2.02948 0
M  V30 1062 H 99.1746 -1.66077 4.29831 0
M  V30 1063 H 97.4896 -1.64723 3.82433 0
M  V30 1064 H 100.087 -4.33907 3.12456 0
M  V30 1065 H 100.43 -3.89454 1.47076 0
M  V30 1066 H 100.963 -2.83056 2.79507 0
M  V30 1067 H 97.7016 -3.08905 5.78151 0
M  V30 1068 H 97.2216 -4.08719 4.38986 0
M  V30 1069 H 98.9006 -4.12691 4.98292 0
M  V30 1070 N 99.0327 -1.24633 -0.964593 0
M  V30 1071 C 99.9807 -1.03917 -2.08096 0
M  V30 1072 C 100.975 0.0268581 -1.69379 0
M  V30 1073 O 102.181 -0.127952 -1.79545 0
M  V30 1074 H 98.5557 -0.319044 -0.680966 0
M  V30 1075 H 100.527 -1.98581 -2.22729 0
M  V30 1076 C 99.2757 -0.663983 -3.41301 0
M  V30 1077 H 98.5987 -1.47605 -3.71555 0
M  V30 1078 H 100.039 -0.558663 -4.20303 0
M  V30 1079 C 98.4977 0.629169 -3.30973 0
M  V30 1080 O 99.0277 1.67404 -3.65156 0
M  V30 1081 N 97.2337 0.611057 -2.84103 0
M  V30 1082 H 96.7807 -0.239593 -2.56483 0
M  V30 1083 H 96.7387 1.47647 -2.77575 0
M  V30 1084 N 100.511 1.16574 -1.06058 0
M  V30 1085 C 101.76 1.86385 -0.770944 0
M  V30 1086 C 102.073 1.82448 0.705129 0
M  V30 1087 O 103.279 2.47815 1.10905 0
M  V30 1088 C 101.735 3.34466 -1.32893 0
M  V30 1089 C 101.343 3.46883 -2.83507 0
M  V30 1090 C 103.087 4.09548 -1.11672 0
M  V30 1091 C 100.994 4.89036 -3.32562 0
M  V30 1092 H 99.9238 0.698181 -0.284709 0
M  V30 1093 H 102.575 1.31583 -1.27899 0
M  V30 1094 H 100.957 3.88859 -0.748662 0
M  V30 1095 H 102.131 3.02663 -3.47465 0
M  V30 1096 H 100.446 2.85232 -3.03368 0
M  V30 1097 H 103.043 5.14434 -1.45814 0
M  V30 1098 H 103.386 4.16264 -0.0549535 0
M  V30 1099 H 103.919 3.61387 -1.66265 0
M  V30 1100 H 100.658 4.87499 -4.38207 0
M  V30 1101 H 100.178 5.3389 -2.73351 0
M  V30 1102 H 101.857 5.57843 -3.2775 0
M  V30 1103 N 101.989 0.842826 1.3317 0
M  V30 1104 C 102.921 0.236245 2.27979 0
M  V30 1105 C 103.934 -0.585282 1.51915 0
M  V30 1106 O 105.123 -0.411705 1.73687 0
M  V30 1107 C 102.223 -0.685717 3.3189 0
M  V30 1108 C 101.396 0.0973448 4.37292 0
M  V30 1109 C 100.455 -0.748565 5.20848 0
M  V30 1110 O 99.4809 -0.186339 5.68895 0
M  V30 1111 N 100.683 -2.06527 5.42519 0
M  V30 1112 H 103.448 1.05088 2.80672 0
M  V30 1113 H 101.009 0.701667 1.45905 0
M  V30 1114 H 103.001 -1.25669 3.84694 0
M  V30 1115 H 101.571 -1.40105 2.79445 0
M  V30 1116 H 100.791 0.849706 3.84933 0
M  V30 1117 H 102.079 0.635643 5.04814 0
M  V30 1118 H 101.477 -2.54554 5.05192 0
M  V30 1119 H 100.034 -2.58464 5.98364 0
M  V30 1120 N 103.467 -1.45747 0.599634 0
M  V30 1121 C 104.713 -2.03153 0.100263 0
M  V30 1122 C 105.068 -1.46073 -1.25221 0
M  V30 1123 O 104.361 -0.622878 -1.81193 0
M  V30 1124 C 104.555 -3.57399 -0.00602758 0
M  V30 1125 C 104.384 -4.2944 1.3346 0
M  V30 1126 C 103.154 -4.6768 1.91321 0
M  V30 1127 C 105.352 -4.61905 2.2616 0
M  V30 1128 N 103.334 -5.24544 3.18946 0
M  V30 1129 C 104.705 -5.19518 3.3838 0
M  V30 1130 C 106.76 -4.43841 2.25631 0
M  V30 1131 C 105.463 -5.60972 4.50226 0
M  V30 1132 C 107.489 -4.86322 3.36518 0
M  V30 1133 C 106.851 -5.44021 4.4746 0
M  V30 1134 H 102.95 -0.777911 0.0798696 0
M  V30 1135 H 105.534 -1.77674 0.796244 0
M  V30 1136 H 103.705 -3.82556 -0.671212 0
M  V30 1137 H 105.437 -4.01457 -0.51133 0
M  V30 1138 H 102.192 -4.5098 1.44617 0
M  V30 1139 H 102.616 -5.57483 3.84112 0
M  V30 1140 H 107.258 -3.98552 1.41123 0
M  V30 1141 H 104.976 -6.0523 5.35464 0
M  V30 1142 H 108.562 -4.74084 3.37247 0
M  V30 1143 H 107.442 -5.76289 5.31846 0
M  V30 1144 N 104.945 -0.338344 -1.53925 0
M  V30 1145 C 106.361 0.0137736 -1.59594 0
M  V30 1146 C 106.561 1.49186 -1.35447 0
M  V30 1147 O 105.617 2.24987 -1.14616 0
M  V30 1148 C 106.93 -0.41773 -2.97784 0
M  V30 1149 C 108.478 -0.369633 -3.1081 0
M  V30 1150 C 108.953 -0.776524 -4.51369 0
M  V30 1151 N 110.444 -0.730506 -4.57403 0
M  V30 1152 C 111.179 -1.01736 -5.64303 0
M  V30 1153 N 110.675 -1.3721 -6.79077 0
M  V30 1154 N 112.468 -0.941942 -5.54151 0
M  V30 1155 H 104.619 -1.3012 -1.67876 0
M  V30 1156 H 106.882 -0.530082 -0.78595 0
M  V30 1157 H 106.588 -1.44811 -3.20504 0
M  V30 1158 H 106.462 0.209729 -3.76616 0
M  V30 1159 H 108.849 0.651568 -2.87817 0
M  V30 1160 H 108.93 -1.03223 -2.34049 0
M  V30 1161 H 108.574 -1.79571 -4.75096 0
M  V30 1162 H 108.504 -0.0914649 -5.26521 0
M  V30 1163 H 110.995 -0.468783 -3.74981 0
M  V30 1164 H 111.308 -1.57597 -7.5656 0
M  V30 1165 H 109.653 -1.4105 -6.80536 0
M  V30 1166 H 112.844 -0.664184 -4.63364 0
M  V30 1167 H 113.017 -1.16884 -6.37371 0
M  V30 1168 N 106.423 1.57458 -0.0668435 0
M  V30 1169 C 107.7 1.8469 0.644132 0
M  V30 1170 C 108.08 0.958343 1.88093 0
M  V30 1171 O 107.428 0.0233579 2.28488 0
M  V30 1172 C 107.638 3.34767 0.986509 0
M  V30 1173 C 108.986 4.02159 1.36212 0
M  V30 1174 O 110.01 3.39484 1.07839 0
M  V30 1175 O 108.869 5.12694 1.89227 0
M  V30 1176 H 105.963 0.762816 0.319437 0
M  V30 1177 H 108.509 1.6942 -0.0973986 0
M  V30 1178 H 107.281 3.91151 0.107883 0
M  V30 1179 H 106.904 3.55281 1.78497 0
M  V30 1180 N 107.901 -0.206675 1.56239 0
M  V30 1181 C 109.126 -0.949474 1.8439 0
M  V30 1182 C 109.551 -1.76549 0.649016 0
M  V30 1183 O 108.909 -1.76782 -0.402231 0
M  V30 1184 C 108.957 -1.83078 3.10668 0
M  V30 1185 O 108.061 -2.9281 2.90407 0
M  V30 1186 H 107.402 -0.268033 0.607499 0
M  V30 1187 H 109.932 -0.215488 2.03462 0
M  V30 1188 H 109.942 -2.2377 3.41161 0
M  V30 1189 H 108.617 -1.23112 3.97261 0
M  V30 1190 H 107.194 -2.55956 2.71184 0
M  V30 1191 N 109.379 -1.50304 -0.473955 0
M  V30 1192 C 110.625 -1.61389 -1.22806 0
M  V30 1193 C 110.958 -0.311955 -1.91678 0
M  V30 1194 O 110.233 0.686384 -1.81986 0
M  V30 1195 C 110.516 -2.79219 -2.27396 0
M  V30 1196 C 110.369 -4.19286 -1.62848 0
M  V30 1197 C 111.688 -2.92614 -3.28732 0
M  V30 1198 H 108.807 -0.587399 -0.445119 0
M  V30 1199 H 111.449 -1.82681 -0.522265 0
M  V30 1200 H 109.599 -2.61195 -2.87592 0
M  V30 1201 H 111.271 -4.48892 -1.06271 0
M  V30 1202 H 109.514 -4.23677 -0.931693 0
M  V30 1203 H 110.185 -4.97655 -2.38838 0
M  V30 1204 H 112.661 -3.09105 -2.78556 0
M  V30 1205 H 111.537 -3.76688 -3.99246 0
M  V30 1206 H 111.798 -2.03107 -3.92683 0
M  V30 1207 N 110.857 0.726932 -1.39834 0
M  V30 1208 C 112.087 1.51393 -1.40583 0
M  V30 1209 C 112.495 1.892 -0.000740625 0
M  V30 1210 O 111.838 1.55189 0.982951 0
M  V30 1211 C 111.9 2.82588 -2.22226 0
M  V30 1212 C 111.564 2.67169 -3.70769 0
M  V30 1213 C 112.561 2.3518 -4.63666 0
M  V30 1214 C 110.246 2.83788 -4.14451 0
M  V30 1215 C 112.24 2.20002 -5.98229 0
M  V30 1216 C 109.927 2.68229 -5.49087 0
M  V30 1217 C 110.925 2.36382 -6.4079 0
M  V30 1218 O 110.613 2.2093 -7.72946 0
M  V30 1219 H 110.345 0.474168 -0.48181 0
M  V30 1220 H 112.899 0.905247 -1.84376 0
M  V30 1221 H 111.129 3.45746 -1.73195 0
M  V30 1222 H 112.818 3.44247 -2.15055 0
M  V30 1223 H 113.584 2.21984 -4.31217 0
M  V30 1224 H 109.463 3.07566 -3.43401 0
M  V30 1225 H 113.007 1.95067 -6.69772 0
M  V30 1226 H 108.904 2.81006 -5.81125 0
M  V30 1227 H 109.672 2.35937 -7.83757 0
M  V30 1228 N 112.336 1.25143 0.95797 0
M  V30 1229 C 113.613 1.00472 1.67823 0
M  V30 1230 C 113.993 -0.470056 2.058 0
M  V30 1231 O 113.341 -1.44663 1.76875 0
M  V30 1232 C 113.551 1.9372 2.90299 0
M  V30 1233 C 114.899 2.21371 3.62326 0
M  V30 1234 O 115.923 1.91451 3.00375 0
M  V30 1235 O 114.782 2.72231 4.7387 0
M  V30 1236 H 111.876 0.380752 0.734137 0
M  V30 1237 H 114.422 1.36283 1.01119 0
M  V30 1238 H 113.194 2.93316 2.59001 0
M  V30 1239 H 112.817 1.58286 3.64735 0
M  V30 1240 N 113.814 -1.1601 1.06675 0
M  V30 1241 C 115.225 -1.68235 0.809565 0
M  V30 1242 C 115.576 -1.8454 -0.666303 0
M  V30 1243 O 114.701 -1.54374 -1.5165 0
M  V30 1244 C 115.296 -3.05585 1.46299 0
M  V30 1245 C 113.855 -3.54915 1.25349 0
M  V30 1246 C 113.002 -2.30804 1.53703 0
M  V30 1247 H 115.953 -1.00318 1.22971 0
M  V30 1248 H 115.974 -3.70174 0.880431 0
M  V30 1249 H 115.486 -2.93686 2.53713 0
M  V30 1250 H 113.587 -3.72067 0.199261 0
M  V30 1251 H 113.7 -4.36774 1.9689 0
M  V30 1252 H 112.064 -2.36007 0.957739 0
M  V30 1253 H 112.847 -2.21499 2.62284 0
M  V30 1254 N 115.292 -0.849877 -1.32721 0
M  V30 1255 C 116.224 -0.248332 -2.27851 0
M  V30 1256 C 117.237 0.577218 -1.52224 0
M  V30 1257 O 118.426 0.402489 -1.73903 0
M  V30 1258 C 115.526 0.668107 -3.32249 0
M  V30 1259 C 114.699 -0.120534 -4.37234 0
M  V30 1260 C 113.758 0.720932 -5.21238 0
M  V30 1261 O 112.784 0.156166 -5.68986 0
M  V30 1262 N 113.986 2.03647 -5.43607 0
M  V30 1263 H 116.751 -1.06575 -2.80111 0
M  V30 1264 H 114.312 -0.709395 -1.45531 0
M  V30 1265 H 116.304 1.23627 -3.85355 0
M  V30 1266 H 114.874 1.38621 -2.80184 0
M  V30 1267 H 114.094 -0.870108 -3.84477 0
M  V30 1268 H 115.382 -0.662406 -5.0447 0
M  V30 1269 H 114.78 2.51871 -5.06535 0
M  V30 1270 H 113.337 2.55287 -5.99727 0
M  V30 1271 N 116.77 1.45427 -0.607355 0
M  V30 1272 C 117.7 2.3329 0.0989352 0
M  V30 1273 C 118.681 1.46816 0.859007 0
M  V30 1274 O 119.866 1.75588 0.829604 0
M  V30 1275 C 116.996 3.29518 1.09705 0
M  V30 1276 C 115.95 4.25626 0.450206 0
M  V30 1277 C 115.276 5.11542 1.55655 0
M  V30 1278 C 116.576 5.18505 -0.628455 0
M  V30 1279 H 118.27 2.92595 -0.634716 0
M  V30 1280 H 115.816 1.40696 -0.306681 0
M  V30 1281 H 117.769 3.89855 1.59971 0
M  V30 1282 H 116.493 2.68372 1.86129 0
M  V30 1283 H 115.152 3.66586 -0.0315886 0
M  V30 1284 H 114.8 4.46765 2.31107 0
M  V30 1285 H 114.5 5.76647 1.12925 0
M  V30 1286 H 116.024 5.74748 2.06148 0
M  V30 1287 H 117.438 5.72916 -0.209877 0
M  V30 1288 H 115.835 5.92085 -0.977489 0
M  V30 1289 H 116.905 4.60948 -1.50514 0
M  V30 1290 N 118.248 0.346503 1.53744 0
M  V30 1291 C 119.195 -0.508914 2.25119 0
M  V30 1292 C 120.165 -1.09315 1.25058 0
M  V30 1293 O 121.35 -1.12921 1.53797 0
M  V30 1294 C 118.49 -1.65246 3.02965 0
M  V30 1295 C 117.603 -1.09525 4.17886 0
M  V30 1296 C 116.738 -2.20634 4.83212 0
M  V30 1297 C 115.777 -1.62279 5.90196 0
M  V30 1298 N 114.914 -2.67143 6.49291 0
M  V30 1299 H 119.754 0.106283 2.9781 0
M  V30 1300 H 117.291 0.0642227 1.4696 0
M  V30 1301 H 119.249 -2.32574 3.4636 0
M  V30 1302 H 117.879 -2.2386 2.32565 0
M  V30 1303 H 116.931 -0.312818 3.79112 0
M  V30 1304 H 118.243 -0.628444 4.94825 0
M  V30 1305 H 117.397 -2.95821 5.29693 0
M  V30 1306 H 116.136 -2.70659 4.05703 0
M  V30 1307 H 115.141 -0.855989 5.43096 0
M  V30 1308 H 116.366 -1.13102 6.69615 0
M  V30 1309 H 114.312 -3.16417 5.74645 0
M  V30 1310 H 114.229 -2.25093 7.21713 0
M  V30 1311 H 115.497 -3.4209 7.00425 0
M  V30 1312 N 119.726 -1.57421 0.075193 0
M  V30 1313 C 121.137 -1.81021 -0.456964 0
M  V30 1314 C 121.488 -0.98936 -1.69429 0
M  V30 1315 O 120.613 -0.212865 -2.15351 0
M  V30 1316 C 121.208 -3.28329 -0.83581 0
M  V30 1317 C 119.767 -3.52764 -1.31281 0
M  V30 1318 C 118.914 -2.75676 -0.299648 0
M  V30 1319 H 121.865 -1.55822 0.300856 0
M  V30 1320 H 121.886 -3.40564 -1.69696 0
M  V30 1321 H 121.398 -3.88046 0.0649238 0
M  V30 1322 H 119.499 -2.98355 -2.23193 0
M  V30 1323 H 119.612 -4.61451 -1.28839 0
M  V30 1324 H 117.976 -2.42538 -0.777641 0
M  V30 1325 H 118.759 -3.38132 0.593417 0
M  V30 1326 N 121.204 0.198386 -1.56346 0
M  V30 1327 C 122.134 1.24865 -1.9731 0
M  V30 1328 C 123.115 1.47651 -0.844576 0
M  V30 1329 O 124.3 1.59444 -1.10866 0
M  V30 1330 C 121.43 2.59358 -2.30977 0
M  V30 1331 C 120.384 2.5119 -3.46537 0
M  V30 1332 C 119.71 3.89926 -3.65871 0
M  V30 1333 C 121.01 2.03977 -4.80823 0
M  V30 1334 H 122.704 0.908252 -2.85291 0
M  V30 1335 H 120.25 0.435462 -1.37258 0
M  V30 1336 H 122.203 3.33011 -2.58228 0
M  V30 1337 H 120.927 2.95132 -1.39874 0
M  V30 1338 H 119.586 1.79993 -3.19371 0
M  V30 1339 H 119.234 4.23046 -2.72105 0
M  V30 1340 H 118.934 3.85336 -4.4361 0
M  V30 1341 H 120.458 4.65205 -3.95495 0
M  V30 1342 H 121.872 2.67386 -5.07127 0
M  V30 1343 H 120.269 2.10397 -5.62008 0
M  V30 1344 H 121.339 0.992861 -4.74626 0
M  V30 1345 N 122.682 1.50554 0.465978 0
M  V30 1346 C 124.098 1.38093 0.800154 0
M  V30 1347 C 124.298 0.440988 1.96615 0
M  V30 1348 O 123.354 -0.114499 2.5224 0
M  V30 1349 C 124.667 2.79565 1.10742 0
M  V30 1350 C 126.215 2.88516 1.21357 0
M  V30 1351 C 126.69 4.30833 1.55393 0
M  V30 1352 N 128.181 4.33807 1.62375 0
M  V30 1353 C 128.916 5.40927 1.90225 0
M  V30 1354 N 128.412 6.58247 2.16062 0
M  V30 1355 N 130.205 5.28376 1.9177 0
M  V30 1356 H 122.356 2.10237 -0.302366 0
M  V30 1357 H 124.619 0.945203 -0.0727746 0
M  V30 1358 H 124.325 3.50208 0.323661 0
M  V30 1359 H 124.199 3.17125 2.04234 0
M  V30 1360 H 126.586 2.1809 1.98799 0
M  V30 1361 H 126.667 2.54492 0.258321 0
M  V30 1362 H 126.311 5.01799 0.784889 0
M  V30 1363 H 126.241 4.62347 2.52076 0
M  V30 1364 H 128.732 3.49212 1.44427 0
M  V30 1365 H 129.045 7.3569 2.36601 0
M  V30 1366 H 127.39 6.61413 2.13444 0
M  V30 1367 H 130.581 4.35715 1.71085 0
M  V30 1368 H 130.754 6.11944 2.13139 0
M  V30 1369 N 124.16 -0.719506 1.40217 0
M  V30 1370 C 125.406 -1.48152 1.38488 0
M  V30 1371 C 125.739 -1.94195 -0.0141867 0
M  V30 1372 O 125.014 -1.67884 -0.982096 0
M  V30 1373 C 125.297 -2.71035 2.37091 0
M  V30 1374 C 125.15 -2.30912 3.86005 0
M  V30 1375 C 126.469 -3.73182 2.33288 0
M  V30 1376 H 123.588 -0.537395 0.504357 0
M  V30 1377 H 126.23 -0.821472 1.71324 0
M  V30 1378 H 124.38 -3.27352 2.0922 0
M  V30 1379 H 126.052 -1.80107 4.24687 0
M  V30 1380 H 124.295 -1.62958 4.02029 0
M  V30 1381 H 124.966 -3.18978 4.50508 0
M  V30 1382 H 127.442 -3.26485 2.57966 0
M  V30 1383 H 126.318 -4.56806 3.04334 0
M  V30 1384 H 126.579 -4.21202 1.34317 0
M  V30 1385 N 125.638 -1.25649 -0.95132 0
M  V30 1386 C 126.863 -1.13443 -1.73624 0
M  V30 1387 C 127.288 0.307565 -1.85568 0
M  V30 1388 O 126.646 1.22282 -1.33854 0
M  V30 1389 C 126.694 -1.79723 -3.12621 0
M  V30 1390 O 125.798 -1.07912 -3.98031 0
M  V30 1391 H 125.139 -0.395872 -0.533086 0
M  V30 1392 H 127.669 -1.66276 -1.1922 0
M  V30 1393 H 127.679 -1.86141 -3.63064 0
M  V30 1394 H 126.354 -2.84633 -3.03244 0
M  V30 1395 H 124.931 -1.09398 -3.56492 0
M  V30 1396 N 127.117 1.15442 -1.07289 0
M  V30 1397 C 128.347 1.89821 -0.815576 0
M  V30 1398 C 128.755 1.7823 0.634867 0
M  V30 1399 O 128.098 1.13152 1.44715 0
M  V30 1400 C 128.16 3.40817 -1.14385 0
M  V30 1401 C 127.824 3.76193 -2.59476 0
M  V30 1402 C 128.821 3.77269 -3.57721 0
M  V30 1403 C 126.506 4.0652 -2.95037 0
M  V30 1404 C 128.5 4.08176 -4.89562 0
M  V30 1405 C 126.187 4.37092 -4.27076 0
M  V30 1406 C 127.185 4.37902 -5.24148 0
M  V30 1407 O 126.873 4.67741 -6.53815 0
M  V30 1408 H 126.605 0.608465 -0.294528 0
M  V30 1409 H 129.159 1.472 -1.43252 0
M  V30 1410 H 127.389 3.83835 -0.469865 0
M  V30 1411 H 129.078 3.96485 -0.869179 0
M  V30 1412 H 129.844 3.5394 -3.3159 0
M  V30 1413 H 125.723 4.05049 -2.20128 0
M  V30 1414 H 129.267 4.08723 -5.65324 0
M  V30 1415 H 125.164 4.59889 -4.5296 0
M  V30 1416 H 125.932 4.85509 -6.58957 0
M  V30 1417 N 128.595 0.856903 1.32268 0
M  V30 1418 C 129.505 0.306131 2.32594 0
M  V30 1419 C 130.521 -0.577209 1.64147 0
M  V30 1420 O 131.697 -0.477043 1.95669 0
M  V30 1421 C 128.762 -0.494561 3.43154 0
M  V30 1422 C 127.823 0.415186 4.27288 0
M  V30 1423 C 127.056 -0.347387 5.32568 0
M  V30 1424 O 127.279 -1.57708 5.48165 0
M  V30 1425 O 126.213 0.287982 6.01211 0
M  V30 1426 H 130.039 1.13737 2.81598 0
M  V30 1427 H 127.624 0.619902 1.35932 0
M  V30 1428 H 129.506 -0.948944 4.10576 0
M  V30 1429 H 128.181 -1.30257 2.96336 0
M  V30 1430 H 127.088 0.917793 3.62667 0
M  V30 1431 H 128.421 1.18844 4.77637 0
M  V30 1432 N 130.073 -1.45103 0.615059 0
M  V30 1433 C 131.036 -2.29025 -0.0895485 0
M  V30 1434 C 132.036 -1.40174 -0.787906 0
M  V30 1435 O 133.226 -1.62217 -0.634933 0
M  V30 1436 C 130.358 -3.21376 -1.13711 0
M  V30 1437 H 131.551 -2.92807 0.648382 0
M  V30 1438 H 129.104 -1.51749 0.374444 0
M  V30 1439 H 129.839 -2.6241 -1.90556 0
M  V30 1440 H 129.624 -3.86834 -0.640475 0
M  V30 1441 H 131.114 -3.84459 -1.63036 0
M  V30 1442 N 131.551 -0.354651 -1.53558 0
M  V30 1443 C 132.514 0.484566 -2.24019 0
M  V30 1444 C 133.514 1.01861 -1.24422 0
M  V30 1445 O 134.704 0.906097 -1.4878 0
M  V30 1446 C 131.836 1.67615 -2.96847 0
M  V30 1447 H 133.029 -0.131843 -2.9961 0
M  V30 1448 H 130.582 -0.106165 -1.55939 0
M  V30 1449 H 131.317 2.33095 -2.25471 0
M  V30 1450 H 131.102 1.30029 -3.69912 0
M  V30 1451 H 132.592 2.27114 -3.50441 0
M  V30 1452 N 133.029 1.57378 -0.0835403 0
M  V30 1453 C 134.254 1.98682 0.594987 0
M  V30 1454 C 134.679 0.961969 1.61641 0
M  V30 1455 O 134.037 -0.0709989 1.81161 0
M  V30 1456 C 134.085 3.38988 1.2296 0
M  V30 1457 O 133.189 3.39208 2.34546 0
M  V30 1458 H 132.53 0.646368 0.152002 0
M  V30 1459 H 135.06 2.03961 -0.161533 0
M  V30 1460 H 135.07 3.76431 1.57366 0
M  V30 1461 H 133.745 4.13107 0.481228 0
M  V30 1462 H 132.322 3.13548 2.01846 0
M  V30 1463 N 134.507 -0.190092 1.56449 0
M  V30 1464 C 135.747 -0.916414 1.82705 0
M  V30 1465 C 136.111 -1.80235 0.661763 0
M  V30 1466 O 137.312 -2.56484 0.80433 0
M  V30 1467 C 135.583 -1.70691 3.14005 0
M  V30 1468 S 137.142 -2.48457 3.61683 0
M  V30 1469 H 133.96 -0.307281 0.64117 0
M  V30 1470 H 136.562 -0.179433 1.94675 0
M  V30 1471 H 135.266 -1.04677 3.96826 0
M  V30 1472 H 134.797 -2.48562 3.04927 0
M  V30 1473 H 136.812 -3.72756 3.27517 0
M  V30 1474 N 135.985 -1.50799 -0.457987 0
M  V30 1475 C 136.915 -1.73553 -1.5621 0
M  V30 1476 C 137.896 -0.584774 -1.59732 0
M  V30 1477 O 139.081 -0.825314 -1.7579 0
M  V30 1478 C 136.211 -1.84169 -2.94447 0
M  V30 1479 C 135.165 -2.99461 -3.0579 0
M  V30 1480 C 134.491 -2.95235 -4.45803 0
M  V30 1481 C 135.791 -4.39766 -2.81786 0
M  V30 1482 H 137.485 -2.66 -1.37421 0
M  V30 1483 H 135.031 -1.28002 -0.659662 0
M  V30 1484 H 136.984 -1.98672 -3.71628 0
M  V30 1485 H 135.708 -0.883545 -3.14422 0
M  V30 1486 H 134.367 -2.8463 -2.31044 0
M  V30 1487 H 134.015 -1.97239 -4.62715 0
M  V30 1488 H 133.715 -3.72642 -4.54326 0
M  V30 1489 H 135.239 -3.11803 -5.24987 0
M  V30 1490 H 136.653 -4.55054 -3.4871 0
M  V30 1491 H 135.05 -5.18722 -3.0174 0
M  V30 1492 H 136.12 -4.51229 -1.7754 0
M  V30 1493 N 137.463 0.71206 -1.40597 0
M  V30 1494 C 138.693 1.49894 -1.42181 0
M  V30 1495 C 139.101 1.89189 -0.0208078 0
M  V30 1496 O 138.444 1.56223 0.966436 0
M  V30 1497 C 138.506 2.80215 -2.25211 0
M  V30 1498 C 138.17 2.63221 -3.73582 0
M  V30 1499 C 139.167 2.30249 -4.66135 0
M  V30 1500 C 136.852 2.79376 -4.17438 0
M  V30 1501 C 138.846 2.13645 -6.00529 0
M  V30 1502 C 136.533 2.6239 -5.51901 0
M  V30 1503 C 137.531 2.29573 -6.43262 0
M  V30 1504 O 137.219 2.12719 -7.75246 0
M  V30 1505 H 136.951 0.469031 -0.486812 0
M  V30 1506 H 139.505 0.88564 -1.85326 0
M  V30 1507 H 137.735 3.4389 -1.76852 0
M  V30 1508 H 139.424 3.41947 -2.18694 0
M  V30 1509 H 140.19 2.17398 -4.33547 0
M  V30 1510 H 136.069 3.03906 -3.46644 0
M  V30 1511 H 139.613 1.87953 -6.71803 0
M  V30 1512 H 135.51 2.74826 -5.84073 0
M  V30 1513 H 136.278 2.27611 -7.86216 0
M  V30 1514 N 138.941 1.26152 0.944643 0
M  V30 1515 C 140.19 1.10883 1.68487 0
M  V30 1516 C 140.503 -0.348153 1.92477 0
M  V30 1517 O 141.709 -0.621459 2.64292 0
M  V30 1518 C 140.165 1.93624 3.03377 0
M  V30 1519 C 139.773 3.43875 2.87148 0
M  V30 1520 C 141.517 1.86954 3.81115 0
M  V30 1521 C 139.424 4.18875 4.1749 0
M  V30 1522 H 138.354 0.41135 0.631907 0
M  V30 1523 H 141.005 1.50433 1.05082 0
M  V30 1524 H 139.387 1.46904 3.67743 0
M  V30 1525 H 140.561 3.98338 2.31653 0
M  V30 1526 H 138.876 3.51744 2.22856 0
M  V30 1527 H 141.473 2.40275 4.77673 0
M  V30 1528 H 141.816 0.839518 4.07747 0
M  V30 1529 H 142.349 2.31477 3.23517 0
M  V30 1530 H 139.088 5.22332 3.96043 0
M  V30 1531 H 138.608 3.69193 4.72712 0
M  V30 1532 H 140.287 4.27134 4.85968 0
M  V30 1533 N 140.419 -1.14872 1.07899 0
M  V30 1534 C 141.665 -1.86289 0.81657 0
M  V30 1535 C 142.02 -1.8107 -0.65049 0
M  V30 1536 O 141.313 -1.22684 -1.47171 0
M  V30 1537 C 141.507 -3.34223 1.26609 0
M  V30 1538 C 141.336 -3.53846 2.77531 0
M  V30 1539 C 140.106 -3.68995 3.45212 0
M  V30 1540 C 142.304 -3.51201 3.75716 0
M  V30 1541 N 140.286 -3.76725 4.84718 0
M  V30 1542 C 141.657 -3.65112 5.01092 0
M  V30 1543 C 143.712 -3.34507 3.68794 0
M  V30 1544 C 142.415 -3.64056 6.20368 0
M  V30 1545 C 144.441 -3.34752 4.8754 0
M  V30 1546 C 143.803 -3.49199 6.11751 0
M  V30 1547 H 139.902 -0.698579 0.351443 0
M  V30 1548 H 142.486 -1.37713 1.37634 0
M  V30 1549 H 140.657 -3.81402 0.73395 0
M  V30 1550 H 142.389 -3.93377 0.95062 0
M  V30 1551 H 139.144 -3.70006 2.95622 0
M  V30 1552 H 139.568 -3.8432 5.5734 0
M  V30 1553 H 144.21 -3.22253 2.73702 0
M  V30 1554 H 141.928 -3.75087 7.15776 0
M  V30 1555 H 145.514 -3.23055 4.83866 0
M  V30 1556 H 144.394 -3.49328 7.02097 0
M  V30 1557 N 141.898 -0.863906 -1.31812 0
M  V30 1558 C 142.846 -0.30422 -2.30602 0
M  V30 1559 C 143.84 0.577419 -1.59255 0
M  V30 1560 O 145.046 0.464194 -1.73912 0
M  V30 1561 H 141.421 -0.0796877 -0.747766 0
M  V30 1562 H 143.392 -1.15148 -2.75288 0
M  V30 1563 C 142.141 0.484617 -3.44306 0
M  V30 1564 H 141.464 -0.18451 -3.99374 0
M  V30 1565 H 142.904 0.841664 -4.15562 0
M  V30 1566 C 141.363 1.6735 -2.92396 0
M  V30 1567 O 141.893 2.77273 -2.90659 0
M  V30 1568 N 140.099 1.50362 -2.48676 0
M  V30 1569 H 139.646 0.609402 -2.50288 0
M  V30 1570 H 139.604 2.30051 -2.14299 0
M  V30 1571 N 143.376 1.44774 -0.622745 0
M  V30 1572 C 144.604 2.06487 -0.130722 0
M  V30 1573 C 145.019 1.46476 1.19123 0
M  V30 1574 O 144.376 0.584502 1.72887 0
M  V30 1575 C 144.427 3.615 -0.000807207 0
M  V30 1576 O 144.148 4.19274 -1.27048 0
M  V30 1577 C 145.649 4.40229 0.520898 0
M  V30 1578 H 142.869 0.666704 -0.0758106 0
M  V30 1579 H 145.413 1.85779 -0.854774 0
M  V30 1580 H 143.568 3.81498 0.673643 0
M  V30 1581 H 143.982 5.12622 -1.1099 0
M  V30 1582 H 145.456 5.49144 0.560838 0
M  V30 1583 H 145.933 4.1108 1.54627 0
M  V30 1584 H 146.539 4.25131 -0.120018 0
M  V30 1585 N 144.854 0.36279 1.53368 0
M  V30 1586 C 146.102 -0.227326 2.00817 0
M  V30 1587 C 146.423 -1.49511 1.25186 0
M  V30 1588 O 145.693 -1.92482 0.364348 0
M  V30 1589 H 144.273 -0.0869923 0.741917 0
M  V30 1590 H 146.935 0.488381 1.88682 0
M  V30 1591 H 146.031 -0.456273 3.08747 0
M  V30 1592 N 146.332 -1.57332 0.0918853 0
M  V30 1593 C 147.562 -1.98286 -0.580205 0
M  V30 1594 C 147.97 -0.969713 -1.6246 0
M  V30 1595 O 147.313 0.0493501 -1.83634 0
M  V30 1596 C 147.375 -3.35603 -1.28882 0
M  V30 1597 C 147.039 -4.55285 -0.395559 0
M  V30 1598 C 148.036 -5.18687 0.355002 0
M  V30 1599 C 145.721 -5.01314 -0.314556 0
M  V30 1600 C 147.715 -6.26484 1.17458 0
M  V30 1601 C 145.402 -6.08979 0.508677 0
M  V30 1602 C 146.4 -6.71429 1.2519 0
M  V30 1603 O 146.088 -7.77018 2.06151 0
M  V30 1604 H 145.82 -0.656678 -0.160466 0
M  V30 1605 H 148.374 -2.04721 0.16688 0
M  V30 1606 H 146.604 -3.25842 -2.08241 0
M  V30 1607 H 148.293 -3.61026 -1.85512 0
M  V30 1608 H 149.059 -4.84058 0.302134 0
M  V30 1609 H 144.938 -4.5247 -0.882697 0
M  V30 1610 H 148.482 -6.75159 1.75518 0
M  V30 1611 H 144.379 -6.4304 0.563037 0
M  V30 1612 H 145.147 -7.93991 1.98799 0
M  V30 1613 N 147.81 0.181792 -1.56548 0
M  V30 1614 C 148.74 1.22765 -1.98623 0
M  V30 1615 C 149.721 1.46747 -0.860189 0
M  V30 1616 O 150.906 1.58259 -1.12551 0
M  V30 1617 C 148.036 2.56894 -2.33715 0
M  V30 1618 C 146.99 2.475 -3.49182 0
M  V30 1619 C 146.316 3.86023 -3.69986 0
M  V30 1620 C 147.616 1.98866 -4.82959 0
M  V30 1621 H 149.31 0.877942 -2.86239 0
M  V30 1622 H 146.856 0.42088 -1.37712 0
M  V30 1623 H 148.809 3.30253 -2.61746 0
M  V30 1624 H 147.533 2.93632 -1.42997 0
M  V30 1625 H 146.192 1.76596 -3.21262 0
M  V30 1626 H 145.84 4.20136 -2.76576 0
M  V30 1627 H 145.54 3.80609 -4.47672 0
M  V30 1628 H 147.064 4.60984 -4.00407 0
M  V30 1629 H 148.478 2.61992 -5.09934 0
M  V30 1630 H 146.875 2.04424 -5.64208 0
M  V30 1631 H 147.945 0.942465 -4.75653 0
M  V30 1632 N 149.288 1.51039 0.449983 0
M  V30 1633 C 150.535 1.63081 1.20045 0
M  V30 1634 C 150.863 0.341024 1.91487 0
M  V30 1635 O 150.118 -0.674276 1.83717 0
M  V30 1636 C 150.417 2.77556 2.25161 0
M  V30 1637 C 150.083 4.17289 1.70823 0
M  V30 1638 C 148.745 4.55305 1.55725 0
M  V30 1639 C 151.097 5.04536 1.3074 0
M  V30 1640 C 148.425 5.78287 0.989999 0
M  V30 1641 C 150.777 6.28085 0.754482 0
M  V30 1642 C 149.441 6.64885 0.590308 0
M  V30 1643 H 148.711 0.596755 0.439277 0
M  V30 1644 H 151.358 1.85037 0.49333 0
M  V30 1645 H 149.663 2.49771 3.01863 0
M  V30 1646 H 151.36 2.84073 2.83026 0
M  V30 1647 H 147.95 3.8731 1.83546 0
M  V30 1648 H 152.134 4.75782 1.41229 0
M  V30 1649 H 147.39 6.05456 0.850451 0
M  V30 1650 H 151.564 6.95038 0.435324 0
M  V30 1651 H 149.191 7.60055 0.14862 0
M  V30 1652 N 150.766 -0.704594 1.40972 0
M  V30 1653 C 151.698 -1.82974 1.38033 0
M  V30 1654 C 152.711 -1.60305 0.283931 0
M  V30 1655 O 153.9 -1.69975 0.545042 0
M  V30 1656 C 151 -3.19578 1.12795 0
M  V30 1657 C 150.173 -3.69352 2.34302 0
M  V30 1658 C 149.232 -4.84601 2.05058 0
M  V30 1659 O 148.258 -4.96682 2.7802 0
M  V30 1660 N 149.46 -5.71194 1.03528 0
M  V30 1661 H 152.225 -1.85991 2.35005 0
M  V30 1662 H 149.786 -0.886567 1.35468 0
M  V30 1663 H 151.778 -3.9429 0.911987 0
M  V30 1664 H 150.348 -3.11642 0.24452 0
M  V30 1665 H 149.568 -2.85649 2.71659 0
M  V30 1666 H 150.856 -3.99345 3.1528 0
M  V30 1667 H 150.254 -5.64054 0.431217 0
M  V30 1668 H 148.811 -6.45843 0.879205 0
M  V30 1669 N 152.244 -1.26651 -0.937939 0
M  V30 1670 C 153.49 -1.12553 -1.687 0
M  V30 1671 C 153.823 0.329782 -1.91379 0
M  V30 1672 O 153.098 1.24202 -1.4968 0
M  V30 1673 C 153.381 -1.89862 -3.05981 0
M  V30 1674 C 153.234 -3.43318 -2.90607 0
M  V30 1675 C 154.553 -1.69499 -4.0615 0
M  V30 1676 H 151.672 -0.410257 -0.612257 0
M  V30 1677 H 154.314 -1.55685 -1.08913 0
M  V30 1678 H 152.464 -1.53204 -3.57017 0
M  V30 1679 H 154.136 -3.89747 -2.46769 0
M  V30 1680 H 152.379 -3.70179 -2.26164 0
M  V30 1681 H 153.05 -3.92642 -3.8799 0
M  V30 1682 H 155.526 -2.01442 -3.64088 0
M  V30 1683 H 154.402 -2.26002 -5.00214 0
M  V30 1684 H 154.663 -0.640365 -4.37438 0
M  V30 1685 N 153.722 1.14298 -1.08507 0
M  V30 1686 C 154.632 2.23027 -0.727753 0
M  V30 1687 C 155.648 1.71952 0.26619 0
M  V30 1688 O 156.824 2.011 0.109882 0
M  V30 1689 C 153.889 3.46403 -0.143541 0
M  V30 1690 C 152.95 4.12413 -1.19223 0
M  V30 1691 C 152.183 5.29899 -0.635798 0
M  V30 1692 O 152.406 5.67796 0.544393 0
M  V30 1693 O 151.34 5.85717 -1.38634 0
M  V30 1694 H 155.166 2.55945 -1.63481 0
M  V30 1695 H 152.751 1.22248 -0.858817 0
M  V30 1696 H 154.633 4.21018 0.179404 0
M  V30 1697 H 153.308 3.15206 0.736659 0
M  V30 1698 H 152.215 3.39667 -1.56772 0
M  V30 1699 H 153.548 4.47718 -2.04474 0
M  V30 1700 N 155.201 0.870884 1.31352 0
M  V30 1701 C 156.448 0.482273 1.96673 0
M  V30 1702 C 156.776 -0.965638 1.68836 0
M  V30 1703 O 156.031 -1.69514 0.977937 0
M  V30 1704 C 156.33 0.687157 3.50732 0
M  V30 1705 C 155.996 2.108 3.9859 0
M  V30 1706 C 154.658 2.49656 4.1137 0
M  V30 1707 C 157.01 3.03459 4.23748 0
M  V30 1708 C 154.338 3.80412 4.46659 0
M  V30 1709 C 156.69 4.3373 4.60501 0
M  V30 1710 C 155.354 4.725 4.71487 0
M  V30 1711 H 154.624 0.176476 0.719679 0
M  V30 1712 H 157.271 1.10405 1.56471 0
M  V30 1713 H 155.576 -0.0177476 3.91796 0
M  V30 1714 H 157.273 0.366284 3.99324 0
M  V30 1715 H 153.863 1.79633 3.8914 0
M  V30 1716 H 158.047 2.74665 4.13368 0
M  V30 1717 H 153.303 4.1021 4.53362 0
M  V30 1718 H 157.477 5.05578 4.78919 0
M  V30 1719 H 155.104 5.73859 4.98588 0
M  V30 1720 N 156.679 -1.44442 0.630414 0
M  V30 1721 C 157.956 -1.9549 0.0655657 0
M  V30 1722 C 158.336 -1.5724 -1.40851 0
M  V30 1723 O 157.684 -0.846116 -2.12257 0
M  V30 1724 C 157.894 -3.47812 0.287691 0
M  V30 1725 C 159.242 -4.24216 0.180513 0
M  V30 1726 O 160.266 -3.55526 0.219019 0
M  V30 1727 O 159.125 -5.46434 0.0848493 0
M  V30 1728 H 156.219 -0.826688 -0.0227177 0
M  V30 1729 H 158.765 -1.54496 0.702068 0
M  V30 1730 H 157.537 -3.687 1.31056 0
M  V30 1731 H 157.16 -3.95751 -0.382984 0
M  V30 1732 N 158.157 -0.370918 -1.53173 0
M  V30 1733 C 159.434 0.273754 -1.93675 0
M  V30 1734 C 159.814 1.65938 -1.3049 0
M  V30 1735 O 159.162 2.23698 -0.465999 0
M  V30 1736 C 159.372 0.318602 -3.47543 0
M  V30 1737 C 160.72 0.556392 -4.20939 0
M  V30 1738 O 161.744 0.399587 -3.53952 0
M  V30 1739 O 160.603 0.862133 -5.39657 0
M  V30 1740 H 157.697 0.165448 -0.810281 0
M  V30 1741 H 160.243 -0.42409 -1.64315 0
M  V30 1742 H 159.015 -0.652687 -3.85818 0
M  V30 1743 H 158.638 1.06212 -3.83151 0
M  V30 1744 N 159.635 1.57281 -0.100228 0
M  V30 1745 C 160.598 2.13158 0.842398 0
M  V30 1746 C 161.598 1.06202 1.20738 0
M  V30 1747 O 162.788 1.32066 1.13597 0
M  V30 1748 C 159.92 2.65639 2.13655 0
M  V30 1749 H 161.113 2.97766 0.357114 0
M  V30 1750 H 158.666 1.5559 0.148823 0
M  V30 1751 H 159.401 1.84566 2.66657 0
M  V30 1752 H 159.186 3.43844 1.88451 0
M  V30 1753 H 160.676 3.08846 2.81077 0
M  V30 1754 N 161.113 -0.173488 1.56642 0
M  V30 1755 C 162.341 -0.906095 1.86004 0
M  V30 1756 C 162.756 -1.75921 0.685355 0
M  V30 1757 O 162.113 -1.79198 -0.345578 0
M  V30 1758 C 162.164 -1.78462 3.14378 0
M  V30 1759 O 161.885 -0.965914 4.27319 0
M  V30 1760 C 163.386 -2.62707 3.57071 0
M  V30 1761 H 160.606 -0.263341 0.617165 0
M  V30 1762 H 163.15 -0.174236 2.03756 0
M  V30 1763 H 161.305 -2.46984 2.98459 0
M  V30 1764 H 161.719 -1.56655 5.00559 0
M  V30 1765 H 163.193 -3.19969 4.49804 0
M  V30 1766 H 163.67 -3.37472 2.81086 0
M  V30 1767 H 164.276 -1.99521 3.75595 0
M  V30 1768 N 162.591 -1.51276 -0.441967 0
M  V30 1769 C 163.501 -1.75092 -1.56141 0
M  V30 1770 C 164.517 -0.634963 -1.62001 0
M  V30 1771 O 165.693 -0.916686 -1.79329 0
M  V30 1772 C 162.758 -1.86666 -2.92158 0
M  V30 1773 C 161.819 -3.10506 -2.96453 0
M  V30 1774 C 161.052 -3.21519 -4.25982 0
M  V30 1775 O 161.275 -2.38586 -5.18105 0
M  V30 1776 O 160.209 -4.14465 -4.36466 0
M  V30 1777 H 164.035 -2.70044 -1.38961 0
M  V30 1778 H 161.62 -1.35722 -0.624499 0
M  V30 1779 H 163.502 -1.96292 -3.72891 0
M  V30 1780 H 162.177 -0.949014 -3.09476 0
M  V30 1781 H 161.084 -3.06363 -2.14692 0
M  V30 1782 H 162.417 -4.01945 -2.84079 0
M  V30 1783 N 164.069 0.697108 -1.41344 0
M  V30 1784 C 165.032 1.79281 -1.42797 0
M  V30 1785 C 166.032 1.57607 -0.318837 0
M  V30 1786 O 167.222 1.64309 -0.578642 0
M  V30 1787 C 164.354 3.17632 -1.23785 0
M  V30 1788 H 165.547 1.79385 -2.40335 0
M  V30 1789 H 163.1 0.904582 -1.27464 0
M  V30 1790 H 163.835 3.23167 -0.270814 0
M  V30 1791 H 163.62 3.34765 -2.04144 0
M  V30 1792 H 165.11 3.97617 -1.27633 0
M  V30 1793 N 165.547 1.27147 0.931209 0
M  V30 1794 C 166.772 1.16191 1.71797 0
M  V30 1795 C 167.197 -0.278004 1.86034 0
M  V30 1796 O 166.555 -1.20137 1.35782 0
M  V30 1797 C 166.603 1.84673 3.09723 0
M  V30 1798 O 165.707 1.14231 3.96264 0
M  V30 1799 H 165.048 0.404303 0.526721 0
M  V30 1800 H 167.578 1.68152 1.1656 0
M  V30 1801 H 167.588 1.91893 3.60057 0
M  V30 1802 H 166.263 2.89421 2.98677 0
M  V30 1803 H 164.84 1.15056 3.54706 0
M  V30 1804 N 167.025 -1.13721 1.09112 0
M  V30 1805 C 168.273 -1.84559 0.823562 0
M  V30 1806 C 168.594 -1.83754 -0.652658 0
M  V30 1807 O 167.864 -1.29102 -1.47342 0
M  V30 1808 H 166.444 -0.683376 0.301673 0
M  V30 1809 H 169.106 -1.37771 1.37859 0
M  V30 1810 H 168.202 -2.8917 1.17419 0
M  V30 1811 N 168.503 -0.877838 -1.30888 0
M  V30 1812 C 169.752 -0.488793 -1.95688 0
M  V30 1813 C 170.065 0.965485 -1.70111 0
M  V30 1814 O 171.271 1.46104 -2.28836 0
M  V30 1815 C 169.727 -0.823201 -3.50359 0
M  V30 1816 C 169.335 -2.29477 -3.84765 0
M  V30 1817 C 171.079 -0.503009 -4.21509 0
M  V30 1818 C 168.986 -2.57118 -5.32583 0
M  V30 1819 H 167.916 -0.179062 -0.732429 0
M  V30 1820 H 170.567 -1.07183 -1.48943 0
M  V30 1821 H 168.949 -0.169331 -3.95638 0
M  V30 1822 H 170.123 -2.99236 -3.5042 0
M  V30 1823 H 168.438 -2.58178 -3.267 0
M  V30 1824 H 171.035 -0.68665 -5.30273 0
M  V30 1825 H 171.378 0.557109 -4.12555 0
M  V30 1826 H 171.911 -1.11376 -3.8189 0
M  V30 1827 H 168.65 -3.61843 -5.4658 0
M  V30 1828 H 168.17 -1.91961 -5.68253 0
M  V30 1829 H 169.849 -2.42251 -5.99936 0
M  V30 1830 N 169.982 1.44106 -0.638065 0
M  V30 1831 C 171.207 2.0685 -0.150916 0
M  V30 1832 C 171.632 1.47417 1.16833 0
M  V30 1833 O 170.99 0.578264 1.71831 0
M  V30 1834 C 171.038 3.60555 -0.05708 0
M  V30 1835 O 170.142 4.00465 0.984972 0
M  V30 1836 H 169.483 0.658151 -0.0879399 0
M  V30 1837 H 172.013 1.84865 -0.876707 0
M  V30 1838 H 172.023 4.07789 0.131232 0
M  V30 1839 H 170.698 4.03193 -1.02021 0
M  V30 1840 H 169.275 3.64849 0.770672 0
M  V30 1841 N 171.46 0.379036 1.52974 0
M  V30 1842 C 172.708 -0.206014 2.01047 0
M  V30 1843 C 173.029 -1.48175 1.26765 0
M  V30 1844 O 172.299 -1.92085 0.384743 0
M  V30 1845 H 170.879 -0.0791184 0.742798 0
M  V30 1846 H 173.541 0.508366 1.88153 0
M  V30 1847 H 172.637 -0.423501 3.09213 0
M  V30 1848 N 172.938 -1.57226 0.108567 0
M  V30 1849 C 174.186 -1.94448 -0.550853 0
M  V30 1850 C 174.507 -0.992074 -1.67878 0
M  V30 1851 O 173.777 -0.0465 -1.95845 0
M  V30 1852 H 172.357 -0.717897 -0.206479 0
M  V30 1853 H 175.019 -1.94112 0.175062 0
M  V30 1854 H 174.115 -2.97218 -0.952259 0
M  V30 1855 N 174.416 0.165178 -1.56732 0
M  V30 1856 C 175.827 0.727046 -1.71962 0
M  V30 1857 C 176.178 1.82508 -0.720078 0
M  V30 1858 O 175.303 2.16082 0.117242 0
M  V30 1859 C 175.898 1.32559 -3.11791 0
M  V30 1860 C 174.457 1.83422 -3.28684 0
M  V30 1861 C 173.604 0.715567 -2.67908 0
M  V30 1862 H 176.555 -0.0602896 -1.58585 0
M  V30 1863 H 176.576 2.19533 -3.10782 0
M  V30 1864 H 176.088 0.526195 -3.84516 0
M  V30 1865 H 174.189 2.65986 -2.60926 0
M  V30 1866 H 174.302 1.97543 -4.36478 0
M  V30 1867 H 172.666 1.13758 -2.27884 0
M  V30 1868 H 173.449 -0.0720836 -3.43224 0
M  V30 1869 N 175.894 1.51508 0.433938 0
M  V30 1870 C 176.824 1.76016 1.53429 0
M  V30 1871 C 177.805 0.610112 1.58782 0
M  V30 1872 O 178.99 0.853177 1.74455 0
M  V30 1873 C 176.12 1.88831 2.9148 0
M  V30 1874 C 175.074 3.04288 3.00987 0
M  V30 1875 C 174.4 3.0229 4.4105 0
M  V30 1876 C 175.7 4.44193 2.74754 0
M  V30 1877 H 177.394 2.68152 1.33171 0
M  V30 1878 H 174.94 1.29035 0.639214 0
M  V30 1879 H 176.893 2.04559 3.6842 0
M  V30 1880 H 175.617 0.933455 3.12976 0
M  V30 1881 H 174.276 2.8827 2.26486 0
M  V30 1882 H 173.924 2.04576 4.59519 0
M  V30 1883 H 173.624 3.79822 4.4834 0
M  V30 1884 H 175.148 3.20116 5.1996 0
M  V30 1885 H 176.562 4.60544 3.41426 0
M  V30 1886 H 174.959 5.23457 2.9345 0
M  V30 1887 H 176.029 4.53996 1.70339 0
M  V30 1888 N 177.372 -0.689602 1.41712 0
M  V30 1889 C 178.282 -1.83314 1.46401 0
M  V30 1890 C 179.298 -1.7036 0.35405 0
M  V30 1891 O 180.474 -1.92171 0.602692 0
M  V30 1892 C 177.539 -3.19344 1.34982 0
M  V30 1893 C 176.6 -3.44363 2.56344 0
M  V30 1894 C 175.833 -4.73904 2.45461 0
M  V30 1895 O 176.056 -5.508 1.48241 0
M  V30 1896 O 174.99 -4.99839 3.35328 0
M  V30 1897 H 178.816 -1.82314 2.42889 0
M  V30 1898 H 176.401 -0.843438 1.23315 0
M  V30 1899 H 178.283 -4.00547 1.3092 0
M  V30 1900 H 176.958 -3.21014 0.41612 0
M  V30 1901 H 175.865 -2.63067 2.65982 0
M  V30 1902 H 177.198 -3.47512 3.48563 0
M  V30 1903 N 178.85 -1.27639 -0.924453 0
M  V30 1904 C 179.798 -1.10485 -2.04685 0
M  V30 1905 C 180.792 -0.0270421 -1.69378 0
M  V30 1906 O 181.998 -0.185008 -1.79047 0
M  V30 1907 H 178.373 -0.340546 -0.670472 0
M  V30 1908 H 180.344 -2.05566 -2.16298 0
M  V30 1909 C 179.093 -0.772229 -3.39016 0
M  V30 1910 H 178.416 -1.59351 -3.66671 0
M  V30 1911 H 179.856 -0.692097 -4.18313 0
M  V30 1912 C 178.315 0.523554 -3.32807 0
M  V30 1913 O 178.845 1.55702 -3.70297 0
M  V30 1914 N 177.051 0.520363 -2.85903 0
M  V30 1915 H 176.598 -0.32107 -2.55591 0
M  V30 1916 H 176.556 1.38742 -2.82131 0
M  V30 1917 N 180.328 1.1314 -1.09713 0
M  V30 1918 C 181.278 2.16709 -0.708593 0
M  V30 1919 C 182.262 1.58471 0.278523 0
M  V30 1920 O 183.454 1.76779 0.088427 0
M  V30 1921 C 180.583 3.43039 -0.133923 0
M  V30 1922 C 179.669 4.08277 -1.14763 0
M  V30 1923 N 180.06 4.48637 -2.33577 0
M  V30 1924 C 178.358 4.34954 -0.986446 0
M  V30 1925 C 179.059 4.9952 -2.98085 0
M  V30 1926 N 178.035 4.94561 -2.25632 0
M  V30 1927 H 181.837 2.45672 -1.61315 0
M  V30 1928 H 179.351 1.29967 -0.973775 0
M  V30 1929 H 181.348 4.16583 0.162465 0
M  V30 1930 H 180.008 3.15549 0.765447 0
M  V30 1931 H 181.019 4.41246 -2.7115 0
M  V30 1932 H 177.696 4.17258 -0.142008 0
M  V30 1933 H 179.086 5.40521 -3.99108 0
M  V30 1934 N 181.806 0.884767 1.30421 0
M  V30 1935 C 183.036 0.517293 2.00019 0
M  V30 1936 C 183.444 -0.898632 1.66497 0
M  V30 1937 O 182.787 -1.60245 0.898181 0
M  V30 1938 C 182.849 0.612025 3.54252 0
M  V30 1939 C 182.513 1.99222 4.1129 0
M  V30 1940 C 183.51 2.9616 4.273 0
M  V30 1941 C 181.195 2.29755 4.46674 0
M  V30 1942 C 183.189 4.21764 4.77906 0
M  V30 1943 C 180.876 3.55606 4.96979 0
M  V30 1944 C 181.874 4.51425 5.12547 0
M  V30 1945 O 181.562 5.75043 5.61766 0
M  V30 1946 H 181.294 0.198529 0.64619 0
M  V30 1947 H 183.848 1.1919 1.67281 0
M  V30 1948 H 182.078 -0.119561 3.86515 0
M  V30 1949 H 183.767 0.255859 4.05093 0
M  V30 1950 H 184.533 2.73882 4.00267 0
M  V30 1951 H 180.412 1.55942 4.33824 0
M  V30 1952 H 183.956 4.96561 4.89972 0
M  V30 1953 H 179.853 3.7772 5.23448 0
M  V30 1954 H 180.621 5.77422 5.80109 0
M  V30 1955 N 183.284 -1.43765 0.645699 0
M  V30 1956 C 184.7 -1.56509 0.312591 0
M  V30 1957 C 184.9 -1.6307 -1.18365 0
M  V30 1958 O 183.956 -1.58167 -1.96824 0
M  V30 1959 C 185.269 -2.82968 1.01733 0
M  V30 1960 C 186.817 -2.96701 0.996865 0
M  V30 1961 C 187.292 -4.25982 1.68236 0
M  V30 1962 N 188.783 -4.32829 1.64964 0
M  V30 1963 C 189.518 -5.31613 2.14885 0
M  V30 1964 N 189.014 -6.36718 2.73061 0
M  V30 1965 N 190.807 -5.23217 2.05428 0
M  V30 1966 H 182.958 -1.3775 1.61675 0
M  V30 1967 H 185.221 -0.661067 0.679481 0
M  V30 1968 H 184.927 -2.84156 2.0724 0
M  V30 1969 H 184.801 -3.72957 0.564177 0
M  V30 1970 H 187.188 -2.95058 -0.0497719 0
M  V30 1971 H 187.269 -2.08022 1.48865 0
M  V30 1972 H 186.913 -4.28386 2.72852 0
M  V30 1973 H 186.843 -5.13545 1.16529 0
M  V30 1974 H 189.334 -3.57493 1.22503 0
M  V30 1975 H 189.647 -7.08401 3.08848 0
M  V30 1976 H 187.992 -6.37362 2.77118 0
M  V30 1977 H 191.183 -4.40019 1.59689 0
M  V30 1978 H 191.356 -6.00045 2.44643 0
M  V30 1979 N 184.763 -0.387143 -1.52771 0
M  V30 1980 C 185.693 0.440551 -2.29306 0
M  V30 1981 C 186.674 1.06535 -1.32606 0
M  V30 1982 O 187.859 1.07853 -1.61497 0
M  V30 1983 C 184.989 1.56919 -3.09829 0
M  V30 1984 C 183.943 1.07054 -4.14395 0
M  V30 1985 C 183.269 2.29109 -4.83129 0
M  V30 1986 C 184.569 0.140015 -5.22112 0
M  V30 1987 H 186.263 -0.198026 -2.98744 0
M  V30 1988 H 183.809 -0.09668 -1.43675 0
M  V30 1989 H 185.762 2.15503 -3.62128 0
M  V30 1990 H 184.486 2.23532 -2.3812 0
M  V30 1991 H 183.145 0.507247 -3.63074 0
M  V30 1992 H 182.793 2.94227 -4.0797 0
M  V30 1993 H 182.493 1.96406 -5.53804 0
M  V30 1994 H 184.017 2.88339 -5.38231 0
M  V30 1995 H 185.431 0.633978 -5.69784 0
M  V30 1996 H 183.828 -0.0971485 -6.00021 0
M  V30 1997 H 184.898 -0.811711 -4.78058 0
M  V30 1998 N 186.241 1.57166 -0.116904 0
M  V30 1999 C 187.188 2.15202 0.83408 0
M  V30 2000 C 188.158 1.07644 1.26499 0
M  V30 2001 O 189.343 1.35541 1.34288 0
M  V30 2002 C 186.483 2.75405 2.07957 0
M  V30 2003 C 185.596 3.97264 1.69721 0
M  V30 2004 C 184.731 4.45561 2.89221 0
M  V30 2005 C 183.77 5.59956 2.47215 0
M  V30 2006 N 182.907 6.03006 3.59622 0
M  V30 2007 H 187.747 2.96141 0.332335 0
M  V30 2008 H 185.284 1.46309 0.152349 0
M  V30 2009 H 187.242 3.08439 2.80929 0
M  V30 2010 H 185.872 1.97159 2.55594 0
M  V30 2011 H 184.924 3.70404 0.866316 0
M  V30 2012 H 186.236 4.80226 1.34849 0
M  V30 2013 H 185.39 4.80493 3.7042 0
M  V30 2014 H 184.129 3.61544 3.27318 0
M  V30 2015 H 183.134 5.2463 1.64448 0
M  V30 2016 H 184.359 6.45738 2.10238 0
M  V30 2017 H 182.305 5.21931 3.97396 0
M  V30 2018 H 182.222 6.80819 3.28667 0
M  V30 2019 H 183.49 6.42576 4.41267 0
M  V30 2020 N 187.719 -0.156864 1.56817 0
M  V30 2021 C 188.651 -1.21883 1.94106 0
M  V30 2022 C 189.664 -1.3971 0.835754 0
M  V30 2023 O 190.853 -1.39457 1.11418 0
M  V30 2024 C 187.953 -2.58527 2.19127 0
M  V30 2025 C 187.126 -2.61809 3.50393 0
M  V30 2026 C 186.185 -3.7992 3.64071 0
M  V30 2027 O 185.211 -3.65249 4.36557 0
M  V30 2028 N 186.413 -4.96973 2.99997 0
M  V30 2029 H 189.178 -0.901974 2.85805 0
M  V30 2030 H 186.739 -0.346513 1.58148 0
M  V30 2031 H 188.731 -3.36034 2.25529 0
M  V30 2032 H 187.301 -2.82545 1.33742 0
M  V30 2033 H 186.521 -1.7029 3.5552 0
M  V30 2034 H 187.809 -2.61024 4.36742 0
M  V30 2035 H 187.207 -5.11794 2.41004 0
M  V30 2036 H 185.764 -5.7229 3.11974 0
M  V30 2037 N 189.197 -1.51736 -0.425897 0
M  V30 2038 C 190.444 -1.6497 -1.17436 0
M  V30 2039 C 190.772 -0.371445 -1.9092 0
M  V30 2040 O 190.027 0.644963 -1.84767 0
M  V30 2041 C 190.326 -2.81103 -2.20717 0
M  V30 2042 C 189.992 -4.19954 -1.64162 0
M  V30 2043 C 188.654 -4.57725 -1.48462 0
M  V30 2044 C 191.006 -5.06552 -1.22696 0
M  V30 2045 C 188.334 -5.79789 -0.897873 0
M  V30 2046 C 190.686 -6.29205 -0.654464 0
M  V30 2047 C 189.35 -6.6574 -0.484456 0
M  V30 2048 H 188.62 -0.603668 -0.429727 0
M  V30 2049 H 191.267 -1.85798 -0.463829 0
M  V30 2050 H 189.572 -2.54542 -2.97852 0
M  V30 2051 H 191.269 -2.8854 -2.78471 0
M  V30 2052 H 187.859 -3.90181 -1.77361 0
M  V30 2053 H 192.043 -4.77968 -1.33642 0
M  V30 2054 H 187.299 -6.06733 -0.75402 0
M  V30 2055 H 191.473 -6.95643 -0.324694 0
M  V30 2056 H 189.1 -7.60195 -0.0276833 0
M  V30 2057 N 190.675 0.682077 -1.42076 0
M  V30 2058 C 191.625 1.78823 -1.41444 0
M  V30 2059 C 192.609 1.58323 -0.28681 0
M  V30 2060 O 193.801 1.68926 -0.528498 0
M  V30 2061 C 190.93 3.17232 -1.3122 0
M  V30 2062 C 190.016 3.4338 -2.489 0
M  V30 2063 N 190.407 3.40152 -3.7434 0
M  V30 2064 C 188.705 3.73986 -2.43003 0
M  V30 2065 C 189.406 3.65581 -4.52466 0
M  V30 2066 N 188.382 3.85989 -3.8277 0
M  V30 2067 H 192.184 1.7471 -2.36334 0
M  V30 2068 H 189.698 0.882622 -1.36321 0
M  V30 2069 H 191.695 3.96489 -1.2885 0
M  V30 2070 H 190.355 3.22547 -0.373263 0
M  V30 2071 H 191.366 3.20221 -4.07037 0
M  V30 2072 H 188.043 3.86591 -1.57651 0
M  V30 2073 H 189.433 3.69108 -5.61435 0
M  V30 2074 N 192.153 1.28127 0.917671 0
M  V30 2075 C 193.4 1.15052 1.66641 0
M  V30 2076 C 193.728 -0.301677 1.92146 0
M  V30 2077 O 192.983 -1.23622 1.51711 0
M  V30 2078 C 193.282 1.89018 3.03327 0
M  V30 2079 C 192.948 3.38832 2.97496 0
M  V30 2080 C 191.61 3.79693 2.95613 0
M  V30 2081 C 193.962 4.34378 2.88036 0
M  V30 2082 C 191.29 5.14447 2.82066 0
M  V30 2083 C 193.642 5.69201 2.7603 0
M  V30 2084 C 192.306 6.09343 2.72502 0
M  V30 2085 H 191.576 0.421006 0.609783 0
M  V30 2086 H 194.223 1.58855 1.06945 0
M  V30 2087 H 192.528 1.37752 3.66785 0
M  V30 2088 H 194.225 1.76321 3.60156 0
M  V30 2089 H 190.815 3.06342 2.99754 0
M  V30 2090 H 194.999 4.03775 2.88581 0
M  V30 2091 H 190.255 5.44681 2.77728 0
M  V30 2092 H 194.429 6.42901 2.67678 0
M  V30 2093 H 192.056 7.13712 2.61762 0
M  V30 2094 N 193.631 -1.12557 1.10312 0
M  V30 2095 C 194.581 -2.16331 0.720076 0
M  V30 2096 C 195.565 -1.58616 -0.270115 0
M  V30 2097 O 196.757 -1.76823 -0.0790507 0
M  V30 2098 C 193.886 -3.42963 0.152113 0
M  V30 2099 C 192.972 -4.07663 1.16927 0
M  V30 2100 N 193.363 -4.47392 2.35953 0
M  V30 2101 C 191.661 -4.34425 1.0095 0
M  V30 2102 C 192.362 -4.97932 3.0073 0
M  V30 2103 N 191.338 -4.93358 2.28252 0
M  V30 2104 H 195.14 -2.44813 1.62616 0
M  V30 2105 H 192.654 -1.29449 0.980654 0
M  V30 2106 H 194.651 -4.16664 -0.14037 0
M  V30 2107 H 193.311 -3.1595 -0.748701 0
M  V30 2108 H 194.322 -4.39802 2.73486 0
M  V30 2109 H 190.999 -4.17177 0.164134 0
M  V30 2110 H 192.389 -5.38397 4.01969 0
M  V30 2111 N 195.109 -0.891671 -1.2995 0
M  V30 2112 C 196.355 -0.523649 -1.96544 0
M  V30 2113 C 196.71 0.918394 -1.69066 0
M  V30 2114 O 196.003 1.64122 -0.988659 0
M  V30 2115 C 196.197 -0.742868 -3.49594 0
M  V30 2116 C 196.026 -2.20467 -3.9195 0
M  V30 2117 C 194.796 -2.85055 -4.17219 0
M  V30 2118 C 196.994 -3.17912 -4.04273 0
M  V30 2119 N 194.976 -4.21762 -4.46083 0
M  V30 2120 C 196.347 -4.39712 -4.37097 0
M  V30 2121 C 198.402 -3.1361 -3.86721 0
M  V30 2122 C 197.105 -5.5776 -4.54199 0
M  V30 2123 C 199.131 -4.30936 -4.05028 0
M  V30 2124 C 198.493 -5.51504 -4.38204 0
M  V30 2125 H 194.592 -0.241072 -0.743914 0
M  V30 2126 H 197.176 -1.15081 -1.5705 0
M  V30 2127 H 195.347 -0.14515 -3.88129 0
M  V30 2128 H 197.079 -0.341081 -4.0326 0
M  V30 2129 H 193.834 -2.35889 -4.10674 0
M  V30 2130 H 194.258 -4.92382 -4.64638 0
M  V30 2131 H 198.9 -2.21489 -3.60142 0
M  V30 2132 H 196.618 -6.50379 -4.79618 0
M  V30 2133 H 200.204 -4.29085 -3.92909 0
M  V30 2134 H 199.084 -6.40778 -4.52077 0
M  V30 2135 N 196.587 1.43421 -0.653314 0
M  V30 2136 C 197.835 2.01414 -0.166415 0
M  V30 2137 C 198.156 1.51803 1.22397 0
M  V30 2138 O 197.426 0.730693 1.81763 0
M  V30 2139 H 196.006 0.744703 -0.0585319 0
M  V30 2140 H 198.668 1.75629 -0.845003 0
M  V30 2141 H 197.764 3.11734 -0.151111 0
M  V30 2142 N 198.065 0.39524 1.52563 0
M  V30 2143 C 199.028 -0.425001 2.25225 0
M  V30 2144 C 200.028 -0.985266 1.27079 0
M  V30 2145 O 201.218 -0.866332 1.5113 0
M  V30 2146 C 198.35 -1.59686 3.01186 0
M  V30 2147 H 199.543 0.211233 2.99155 0
M  V30 2148 H 197.096 0.147472 1.55603 0
M  V30 2149 H 197.831 -2.27035 2.31572 0
M  V30 2150 H 197.616 -1.20176 3.73229 0
M  V30 2151 H 199.106 -2.17743 3.5634 0
M  V30 2152 N 199.544 -1.57102 0.125237 0
M  V30 2153 C 200.79 -1.95697 -0.532035 0
M  V30 2154 C 201.123 -1.009 -1.6593 0
M  V30 2155 O 200.398 -0.047347 -1.94442 0
M  V30 2156 C 200.681 -3.44181 -1.05884 0
M  V30 2157 C 200.534 -4.49752 0.0654392 0
M  V30 2158 C 201.853 -3.94655 -1.9477 0
M  V30 2159 H 198.972 -0.711571 -0.191925 0
M  V30 2160 H 201.614 -1.88923 0.20206 0
M  V30 2161 H 199.764 -3.50085 -1.68442 0
M  V30 2162 H 201.436 -4.55943 0.700982 0
M  V30 2163 H 199.679 -4.27653 0.727709 0
M  V30 2164 H 200.35 -5.50924 -0.344505 0
M  V30 2165 H 202.826 -3.91094 -1.42074 0
M  V30 2166 H 201.702 -4.99057 -2.28546 0
M  V30 2167 H 201.963 -3.35718 -2.87656 0
M  V30 2168 N 201.022 0.148545 -1.56898 0
M  V30 2169 C 201.97 1.20265 -1.99096 0
M  V30 2170 C 202.964 1.44559 -0.883123 0
M  V30 2171 O 204.17 1.4487 -1.0683 0
M  V30 2172 H 200.545 0.404786 -0.63376 0
M  V30 2173 H 202.516 0.82004 -2.86911 0
M  V30 2174 C 201.265 2.52886 -2.3863 0
M  V30 2175 H 200.588 2.35021 -3.23427 0
M  V30 2176 H 202.028 3.25274 -2.7198 0
M  V30 2177 C 200.487 3.13315 -1.23837 0
M  V30 2178 O 201.017 3.98077 -0.538268 0
M  V30 2179 N 199.223 2.72742 -1.00301 0
M  V30 2180 H 198.77 2.03912 -1.5741 0
M  V30 2181 H 198.728 3.13507 -0.236838 0
M  V30 2182 N 202.5 1.5196 0.417844 0
M  V30 2183 C 203.41 1.77554 1.53336 0
M  V30 2184 C 204.426 0.660655 1.6097 0
M  V30 2185 O 205.602 0.945099 1.77848 0
M  V30 2186 C 202.667 1.91291 2.89152 0
M  V30 2187 C 201.728 3.15183 2.91475 0
M  V30 2188 C 200.961 3.28256 4.20813 0
M  V30 2189 O 201.184 2.46798 5.14244 0
M  V30 2190 O 200.118 4.21356 4.29817 0
M  V30 2191 H 203.944 2.7222 1.34647 0
M  V30 2192 H 201.529 1.36698 0.602828 0
M  V30 2193 H 203.411 2.02199 3.69721 0
M  V30 2194 H 202.086 0.998129 3.07927 0
M  V30 2195 H 200.993 3.09739 2.09791 0
M  V30 2196 H 202.326 4.06414 2.77648 0
M  V30 2197 N 203.978 -0.674533 1.42435 0
M  V30 2198 C 205.226 -1.43175 1.42637 0
M  V30 2199 C 205.547 -1.94951 0.0438992 0
M  V30 2200 O 204.817 -1.7308 -0.917607 0
M  V30 2201 H 203.397 -0.531307 0.525092 0
M  V30 2202 H 206.059 -0.797006 1.77859 0
M  V30 2203 H 205.155 -2.28463 2.12629 0
M  V30 2204 N 205.456 -1.28612 -0.910864 0
M  V30 2205 C 206.704 -1.15705 -1.65701 0
M  V30 2206 C 207.025 0.29416 -1.92769 0
M  V30 2207 O 206.295 1.20331 -1.54588 0
M  V30 2208 H 204.875 -0.425216 -0.614167 0
M  V30 2209 H 207.537 -1.61381 -1.0928 0
M  V30 2210 H 206.633 -1.6988 -2.61815 0
M  V30 2211 N 206.934 1.1197 -1.10907 0
M  V30 2212 C 208.159 1.87942 -0.877064 0
M  V30 2213 C 208.584 1.79341 0.567314 0
M  V30 2214 O 207.942 1.15184 1.40009 0
M  V30 2215 C 207.99 3.34926 -1.33629 0
M  V30 2216 O 207.094 4.09303 -0.504447 0
M  V30 2217 H 206.435 0.583785 -0.316371 0
M  V30 2218 H 208.965 1.4157 -1.47712 0
M  V30 2219 H 208.975 3.8577 -1.32837 0
M  V30 2220 H 207.65 3.40504 -2.3881 0
M  V30 2221 H 206.227 3.68393 -0.577993 0
M  V30 2222 N 208.412 0.89855 1.29475 0
M  V30 2223 C 209.322 0.379974 2.31502 0
M  V30 2224 C 210.338 -0.524695 1.659 0
M  V30 2225 O 211.514 -0.414551 1.97087 0
M  V30 2226 C 208.579 -0.385138 3.44554 0
M  V30 2227 C 207.64 0.550914 4.2575 0
M  V30 2228 C 206.873 -0.177778 5.33404 0
M  V30 2229 O 207.096 -1.40189 5.52904 0
M  V30 2230 O 206.03 0.479106 5.9999 0
M  V30 2231 H 209.856 1.22639 2.77837 0
M  V30 2232 H 207.441 0.662834 1.33891 0
M  V30 2233 H 209.323 -0.817841 4.13388 0
M  V30 2234 H 207.998 -1.20763 3.0033 0
M  V30 2235 H 206.905 1.03271 3.59564 0
M  V30 2236 H 208.238 1.33979 4.73614 0
M  V30 2237 N 209.89 -1.43072 0.660911 0
M  V30 2238 C 210.84 -2.27948 -0.04847 0
M  V30 2239 C 211.824 -1.40325 -0.787246 0
M  V30 2240 O 213.016 -1.63893 -0.668446 0
M  V30 2241 C 210.145 -3.28143 -1.00881 0
M  V30 2242 C 209.231 -4.23252 -0.268108 0
M  V30 2243 N 209.622 -5.00656 0.719528 0
M  V30 2244 C 207.92 -4.43092 -0.508493 0
M  V30 2245 C 208.621 -5.70019 1.15988 0
M  V30 2246 N 207.597 -5.41364 0.492584 0
M  V30 2247 H 211.399 -2.85213 0.709279 0
M  V30 2248 H 208.913 -1.54869 0.488822 0
M  V30 2249 H 210.91 -3.87736 -1.53188 0
M  V30 2250 H 209.57 -2.7244 -1.76654 0
M  V30 2251 H 210.581 -5.06115 1.09855 0
M  V30 2252 H 207.258 -3.98449 -1.24679 0
M  V30 2253 H 208.648 -6.4214 1.97751 0
M  V30 2254 N 211.368 -0.403325 -1.52352 0
M  V30 2255 C 212.596 0.174012 -2.06167 0
M  V30 2256 C 213.011 1.39347 -1.27388 0
M  V30 2257 O 212.368 1.79597 -0.324201 0
M  V30 2258 C 212.419 0.530223 -3.5759 0
M  V30 2259 O 212.14 -0.640806 -4.33388 0
M  V30 2260 C 213.641 1.16192 -4.27802 0
M  V30 2261 H 210.861 0.0229464 -0.670608 0
M  V30 2262 H 213.405 -0.572604 -1.9632 0
M  V30 2263 H 211.56 1.22673 -3.67464 0
M  V30 2264 H 211.974 -0.344851 -5.23365 0
M  V30 2265 H 213.448 1.36141 -5.34948 0
M  V30 2266 H 213.925 2.13335 -3.83907 0
M  V30 2267 H 214.531 0.505775 -4.22282 0
M  V30 2268 N 212.846 1.57033 -0.133567 0
M  V30 2269 C 214.092 1.95976 0.521649 0
M  V30 2270 C 214.425 1.01779 1.65393 0
M  V30 2271 O 213.7 0.0576581 1.94415 0
M  V30 2272 C 213.983 3.44738 1.04057 0
M  V30 2273 C 213.836 4.49711 -0.0892897 0
M  V30 2274 C 215.155 3.95682 1.92675 0
M  V30 2275 H 212.274 0.712579 0.188149 0
M  V30 2276 H 214.916 1.88813 -0.212076 0
M  V30 2277 H 213.066 3.50973 1.66583 0
M  V30 2278 H 214.738 4.55565 -0.725152 0
M  V30 2279 H 212.981 4.27261 -0.750378 0
M  V30 2280 H 213.652 5.51099 0.315284 0
M  V30 2281 H 216.128 3.91841 1.39998 0
M  V30 2282 H 215.004 5.00262 2.25897 0
M  V30 2283 H 215.265 3.37239 2.85872 0
M  V30 2284 N 214.325 -0.140222 1.56975 0
M  V30 2285 C 215.602 -0.880769 1.74648 0
M  V30 2286 C 215.982 -1.99036 0.703404 0
M  V30 2287 O 215.33 -2.26821 -0.27648 0
M  V30 2288 C 215.54 -1.417 3.18939 0
M  V30 2289 C 216.888 -1.87774 3.80823 0
M  V30 2290 O 217.912 -1.51427 3.2241 0
M  V30 2291 O 216.771 -2.54827 4.83452 0
M  V30 2292 H 213.865 -0.416713 0.714338 0
M  V30 2293 H 216.411 -0.125618 1.69234 0
M  V30 2294 H 215.183 -0.619902 3.86359 0
M  V30 2295 H 214.806 -2.23546 3.28805 0
M  V30 2296 N 215.803 -1.52179 -0.40978 0
M  V30 2297 C 217.051 -1.65878 -1.15451 0
M  V30 2298 C 217.372 -0.390771 -1.91044 0
M  V30 2299 O 216.642 0.594323 -1.86667 0
M  V30 2300 H 215.222 -0.611405 -0.429177 0
M  V30 2301 H 217.884 -1.89219 -0.467134 0
M  V30 2302 H 216.98 -2.49954 -1.86894 0
M  V30 2303 N 217.281 0.66697 -1.42791 0
M  V30 2304 C 218.231 1.77313 -1.43332 0
M  V30 2305 C 219.215 1.5801 -0.303586 0
M  V30 2306 O 220.407 1.68356 -0.546385 0
M  V30 2307 C 217.536 3.15822 -1.34578 0
M  V30 2308 C 216.622 3.40721 -2.52528 0
M  V30 2309 N 217.013 3.36162 -3.77927 0
M  V30 2310 C 215.311 3.71387 -2.46956 0
M  V30 2311 C 216.012 3.60762 -4.56318 0
M  V30 2312 N 214.988 3.81908 -3.86843 0
M  V30 2313 H 218.79 1.72193 -2.38174 0
M  V30 2314 H 216.304 0.868114 -1.3725 0
M  V30 2315 H 218.301 3.951 -1.33048 0
M  V30 2316 H 216.961 3.22133 -0.407453 0
M  V30 2317 H 217.972 3.15885 -4.10411 0
M  V30 2318 H 214.649 3.84897 -1.61743 0
M  V30 2319 H 216.039 3.63132 -5.65318 0
M  V30 2320 N 218.759 1.29093 0.90403 0
M  V30 2321 C 219.722 1.1386 1.98919 0
M  V30 2322 C 220.722 0.0753457 1.60623 0
M  V30 2323 O 221.912 0.321931 1.71199 0
M  V30 2324 C 219.044 0.740198 3.32767 0
M  V30 2325 H 220.237 2.10246 2.13861 0
M  V30 2326 H 217.79 1.12218 1.08797 0
M  V30 2327 H 218.525 -0.223997 3.23525 0
M  V30 2328 H 218.31 1.50838 3.61926 0
M  V30 2329 H 219.8 0.656546 4.12407 0
M  V30 2330 N 220.237 -1.11381 1.11499 0
M  V30 2331 C 221.467 -1.86663 0.885464 0
M  V30 2332 C 221.875 -1.80464 -0.568281 0
M  V30 2333 O 221.218 -1.18445 -1.40415 0
M  V30 2334 C 221.28 -3.36337 1.26956 0
M  V30 2335 C 220.944 -3.66304 2.73259 0
M  V30 2336 C 221.941 -3.63733 3.71476 0
M  V30 2337 C 219.626 -3.9529 3.09921 0
M  V30 2338 C 221.62 -3.89725 5.04374 0
M  V30 2339 C 219.307 -4.20941 4.43004 0
M  V30 2340 C 220.305 -4.18147 5.40039 0
M  V30 2341 O 219.993 -4.43153 6.70724 0
M  V30 2342 H 219.725 -0.597114 0.316908 0
M  V30 2343 H 222.279 -1.41782 1.48617 0
M  V30 2344 H 220.509 -3.81826 0.611999 0
M  V30 2345 H 222.198 -3.92986 1.01573 0
M  V30 2346 H 222.964 -3.41389 3.44498 0
M  V30 2347 H 218.843 -3.966 2.35009 0
M  V30 2348 H 222.387 -3.8746 5.80104 0
M  V30 2349 H 218.284 -4.42761 4.69716 0
M  V30 2350 H 219.052 -4.60717 6.76522 0
M  V30 2351 N 221.715 -0.905404 -1.28997 0
M  V30 2352 C 223.126 -0.581953 -1.77398 0
M  V30 2353 C 223.477 0.902552 -1.74208 0
M  V30 2354 O 222.602 1.70584 -1.33154 0
M  V30 2355 C 223.197 -1.04961 -3.22131 0
M  V30 2356 C 221.756 -0.777229 -3.68288 0
M  V30 2357 C 220.903 -1.22109 -2.48967 0
M  V30 2358 H 223.854 -1.08754 -1.15578 0
M  V30 2359 H 223.875 -0.387387 -3.78523 0
M  V30 2360 H 223.387 -2.13008 -3.24421 0
M  V30 2361 H 221.488 0.290383 -3.71467 0
M  V30 2362 H 221.601 -1.37911 -4.58822 0
M  V30 2363 H 219.965 -0.639971 -2.46529 0
M  V30 2364 H 220.748 -2.30972 -2.53982 0
M  V30 2365 N 223.193 1.4272 -0.668489 0
M  V30 2366 C 224.156 2.292 0.00448567 0
M  V30 2367 C 225.156 1.43001 0.735339 0
M  V30 2368 O 226.346 1.64461 0.57429 0
M  V30 2369 C 223.478 3.25375 1.01705 0
M  V30 2370 H 224.671 2.90199 -0.756608 0
M  V30 2371 H 222.224 1.50254 -0.430506 0
M  V30 2372 H 222.959 2.69301 1.80686 0
M  V30 2373 H 222.744 3.88944 0.496463 0
M  V30 2374 H 224.234 3.90245 1.48655 0
M  V30 2375 N 224.671 0.411399 1.52136 0
M  V30 2376 C 225.581 -0.419774 2.30814 0
M  V30 2377 C 226.597 -1.0515 1.38634 0
M  V30 2378 O 227.773 -1.05252 1.71709 0
M  V30 2379 C 224.838 -1.52019 3.11594 0
M  V30 2380 C 223.899 -0.91129 4.19516 0
M  V30 2381 C 223.132 -1.95927 4.96436 0
M  V30 2382 O 223.355 -3.17775 4.73683 0
M  V30 2383 O 222.289 -1.56423 5.81219 0
M  V30 2384 H 226.115 0.221805 3.02889 0
M  V30 2385 H 223.7 0.174547 1.48377 0
M  V30 2386 H 225.582 -2.15898 3.61892 0
M  V30 2387 H 224.257 -2.14633 2.42311 0
M  V30 2388 H 223.164 -0.235157 3.7336 0
M  V30 2389 H 224.497 -0.32904 4.91099 0
M  V30 2390 N 226.149 -1.5696 0.141893 0
M  V30 2391 C 227.079 -2.19516 -0.795936 0
M  V30 2392 C 228.06 -1.14187 -1.26077 0
M  V30 2393 O 229.245 -1.42511 -1.31925 0
M  V30 2394 C 226.375 -2.81272 -2.03723 0
M  V30 2395 C 225.329 -3.92384 -1.70936 0
M  V30 2396 C 224.655 -4.41052 -3.02287 0
M  V30 2397 C 225.955 -5.13403 -0.959954 0
M  V30 2398 H 227.649 -2.98138 -0.274596 0
M  V30 2399 H 225.195 -1.43406 -0.130636 0
M  V30 2400 H 227.148 -3.237 -2.69808 0
M  V30 2401 H 225.872 -1.99973 -2.58221 0
M  V30 2402 H 224.531 -3.50566 -1.07232 0
M  V30 2403 H 224.179 -3.56582 -3.54765 0
M  V30 2404 H 223.879 -5.15993 -2.81114 0
M  V30 2405 H 225.403 -4.86146 -3.69451 0
M  V30 2406 H 226.817 -5.52706 -1.52279 0
M  V30 2407 H 225.214 -5.94073 -0.848357 0
M  V30 2408 H 226.284 -4.84875 0.0492434 0
M  V30 2409 N 227.627 0.131896 -1.57047 0
M  V30 2410 C 228.577 1.1679 -1.95816 0
M  V30 2411 C 229.561 1.37756 -0.831393 0
M  V30 2412 O 230.753 1.39065 -1.09499 0
M  V30 2413 C 227.882 2.49778 -2.35512 0
M  V30 2414 C 226.968 2.32342 -3.54793 0
M  V30 2415 N 227.359 1.8469 -4.70875 0
M  V30 2416 C 225.657 2.63043 -3.60173 0
M  V30 2417 C 226.358 1.80656 -5.52936 0
M  V30 2418 N 225.334 2.24528 -4.95064 0
M  V30 2419 H 229.136 0.791818 -2.83033 0
M  V30 2420 H 226.65 0.339791 -1.58805 0
M  V30 2421 H 228.647 3.24692 -2.61498 0
M  V30 2422 H 227.307 2.88156 -1.49654 0
M  V30 2423 H 228.318 1.54429 -4.9434 0
M  V30 2424 H 224.995 3.05193 -2.84892 0
M  V30 2425 H 226.385 1.45178 -6.56028 0
M  V30 2426 N 229.106 1.52395 0.401703 0
M  V30 2427 C 230.036 1.79231 1.49661 0
M  V30 2428 C 231.017 0.643654 1.57452 0
M  V30 2429 O 232.202 0.889989 1.72606 0
M  V30 2430 C 229.332 1.94971 2.87409 0
M  V30 2431 C 228.286 3.10604 2.94465 0
M  V30 2432 C 227.612 3.11577 4.34538 0
M  V30 2433 C 228.912 4.49921 2.6527 0
M  V30 2434 H 230.606 2.70917 1.27454 0
M  V30 2435 H 228.152 1.30362 0.6117 0
M  V30 2436 H 230.105 2.12328 3.63999 0
M  V30 2437 H 228.829 0.999632 3.10926 0
M  V30 2438 H 227.488 2.93009 2.20321 0
M  V30 2439 H 227.136 2.14277 4.55076 0
M  V30 2440 H 226.836 3.89247 4.40183 0
M  V30 2441 H 228.36 3.31073 5.13053 0
M  V30 2442 H 229.774 4.67683 3.31581 0
M  V30 2443 H 228.171 5.29564 2.82281 0
M  V30 2444 H 229.241 4.57507 1.60671 0
M  V30 2445 N 230.584 -0.659388 1.43143 0
M  V30 2446 C 231.83 -1.42145 1.44647 0
M  V30 2447 C 232.163 -1.9408 0.0681907 0
M  V30 2448 O 231.438 -1.71899 -0.910007 0
M  V30 2449 C 231.721 -2.60735 2.48373 0
M  V30 2450 C 231.574 -2.14332 3.95451 0
M  V30 2451 C 232.893 -3.62951 2.48906 0
M  V30 2452 H 230.012 -0.51552 0.526696 0
M  V30 2453 H 232.654 -0.748069 1.74654 0
M  V30 2454 H 230.804 -3.18184 2.22916 0
M  V30 2455 H 232.476 -1.61932 4.31944 0
M  V30 2456 H 230.719 -1.4576 4.08578 0
M  V30 2457 H 231.39 -2.99583 4.63631 0
M  V30 2458 H 233.866 -3.1525 2.71582 0
M  V30 2459 H 232.742 -4.43487 3.23435 0
M  V30 2460 H 233.003 -4.15126 1.52061 0
M  V30 2461 N 232.062 -1.29571 -0.897171 0
M  V30 2462 C 233.012 -1.11539 -1.98855 0
M  V30 2463 C 233.996 -0.0340716 -1.60864 0
M  V30 2464 O 235.188 -0.256062 -1.75138 0
M  V30 2465 C 232.317 -0.796603 -3.3393 0
M  V30 2466 C 231.403 -1.91758 -3.78272 0
M  V30 2467 N 231.794 -3.16143 -3.94826 0
M  V30 2468 C 230.092 -1.81119 -4.07568 0
M  V30 2469 C 230.793 -3.89293 -4.32233 0
M  V30 2470 N 229.769 -3.17255 -4.41419 0
M  V30 2471 H 233.571 -2.05894 -2.09726 0
M  V30 2472 H 231.085 -1.20732 -1.08616 0
M  V30 2473 H 233.082 -0.648459 -4.11826 0
M  V30 2474 H 231.742 0.139003 -3.24402 0
M  V30 2475 H 232.753 -3.5157 -3.80288 0
M  V30 2476 H 229.43 -0.948461 -4.06584 0
M  V30 2477 H 230.82 -4.9635 -4.52865 0
M  V30 2478 N 233.54 1.10788 -1.12088 0
M  V30 2479 C 234.786 1.8313 -0.885148 0
M  V30 2480 C 235.141 1.8336 0.582839 0
M  V30 2481 O 234.434 1.28062 1.42516 0
M  V30 2482 C 234.628 3.29294 -1.38926 0
M  V30 2483 C 234.457 3.43302 -2.90472 0
M  V30 2484 C 233.227 3.55928 -3.58669 0
M  V30 2485 C 235.425 3.37014 -3.88492 0
M  V30 2486 N 233.407 3.58475 -4.98366 0
M  V30 2487 C 234.778 3.46263 -5.14298 0
M  V30 2488 C 236.833 3.20589 -3.80955 0
M  V30 2489 C 235.536 3.4078 -6.33452 0
M  V30 2490 C 237.562 3.16427 -4.99628 0
M  V30 2491 C 236.924 3.26253 -6.2429 0
M  V30 2492 H 233.023 0.685054 -0.377128 0
M  V30 2493 H 235.607 1.3251 -1.4265 0
M  V30 2494 H 233.778 3.78416 -0.874999 0
M  V30 2495 H 235.51 3.89578 -1.09596 0
M  V30 2496 H 232.265 3.58779 -3.09151 0
M  V30 2497 H 232.689 3.6337 -5.71219 0
M  V30 2498 H 237.331 3.11873 -2.85474 0
M  V30 2499 H 235.049 3.48263 -7.29204 0
M  V30 2500 H 238.635 3.04874 -4.95523 0
M  V30 2501 H 237.515 3.2303 -7.14578 0
M  V30 2502 N 235.018 0.912232 1.28515 0
M  V30 2503 C 235.966 0.389597 2.29314 0
M  V30 2504 C 236.96 -0.517915 1.61289 0
M  V30 2505 O 238.166 -0.399328 1.75515 0
M  V30 2506 H 234.541 0.107386 0.744293 0
M  V30 2507 H 236.512 1.25286 2.70825 0
M  V30 2508 C 235.261 -0.356496 3.45868 0
M  V30 2509 H 234.584 0.332608 3.98414 0
M  V30 2510 H 236.024 -0.686851 4.184 0
M  V30 2511 C 234.483 -1.56383 2.98406 0
M  V30 2512 O 235.013 -2.66294 3.00749 0
M  V30 2513 N 233.219 -1.41029 2.54085 0
M  V30 2514 H 232.766 -0.516089 2.52377 0
M  V30 2515 H 232.724 -2.21939 2.22689 0
M  V30 2516 N 236.496 -1.42363 0.676048 0
M  V30 2517 C 237.721 -2.06377 0.205705 0
M  V30 2518 C 238.146 -1.50463 -1.12883 0
M  V30 2519 O 237.504 -0.623619 -1.70237 0
M  V30 2520 C 237.552 -3.60277 0.152655 0
M  V30 2521 O 236.656 -4.02935 -0.87845 0
M  V30 2522 H 235.997 -0.655588 0.105359 0
M  V30 2523 H 238.527 -1.82475 0.925412 0
M  V30 2524 H 238.537 -4.07993 -0.0230675 0
M  V30 2525 H 237.212 -4.00346 1.12675 0
M  V30 2526 H 235.789 -3.66764 -0.673668 0
M  V30 2527 N 237.974 -0.419461 -1.51915 0
M  V30 2528 C 239.22 0.153166 -2.02221 0
M  V30 2529 C 239.553 1.43907 -1.30401 0
M  V30 2530 O 238.828 1.90055 -0.413438 0
M  V30 2531 C 239.111 0.390291 -3.57979 0
M  V30 2532 C 238.964 -0.913014 -4.40436 0
M  V30 2533 C 240.283 1.16794 -4.2432 0
M  V30 2534 H 237.402 0.0541924 -0.735005 0
M  V30 2535 H 240.044 -0.554955 -1.81715 0
M  V30 2536 H 238.194 0.993491 -3.75582 0
M  V30 2537 H 239.866 -1.54882 -4.34522 0
M  V30 2538 H 238.109 -1.52168 -4.06236 0
M  V30 2539 H 238.78 -0.701361 -5.47526 0
M  V30 2540 H 241.256 0.657161 -4.10878 0
M  V30 2541 H 240.132 1.3026 -5.3322 0
M  V30 2542 H 240.393 2.19132 -3.83971 0
M  V30 2543 N 239.452 1.56882 -0.150215 0
M  V30 2544 C 240.399 2.16922 0.788244 0
M  V30 2545 C 241.369 1.10303 1.24187 0
M  V30 2546 O 242.554 1.38359 1.31383 0
M  V30 2547 C 239.694 2.79754 2.02068 0
M  V30 2548 C 238.807 4.00775 1.61257 0
M  V30 2549 C 237.942 4.51595 2.79705 0
M  V30 2550 C 236.981 5.65074 2.35282 0
M  V30 2551 N 236.118 6.10499 3.4675 0
M  V30 2552 H 240.958 2.96779 0.269444 0
M  V30 2553 H 238.495 1.46599 0.12128 0
M  V30 2554 H 240.453 3.14329 2.74323 0
M  V30 2555 H 239.083 2.02536 2.51354 0
M  V30 2556 H 238.135 3.72158 0.787553 0
M  V30 2557 H 239.447 4.82978 1.24633 0
M  V30 2558 H 238.601 4.88242 3.60145 0
M  V30 2559 H 237.34 3.68406 3.19576 0
M  V30 2560 H 236.345 5.28 1.53283 0
M  V30 2561 H 237.57 6.50052 1.96493 0
M  V30 2562 H 235.516 5.30243 3.86236 0
M  V30 2563 H 235.433 6.87637 3.14152 0
M  V30 2564 H 236.701 6.51791 4.27537 0
M  V30 2565 N 240.93 -0.123565 1.57115 0
M  V30 2566 C 242.16 -0.845233 1.88519 0
M  V30 2567 C 242.568 -1.74168 0.739064 0
M  V30 2568 O 241.911 -1.81244 -0.299355 0
M  V30 2569 C 241.973 -1.73452 3.14888 0
M  V30 2570 C 241.637 -1.01285 4.45635 0
M  V30 2571 C 242.634 -0.355774 5.18681 0
M  V30 2572 C 240.319 -0.99538 4.92339 0
M  V30 2573 C 242.313 0.309114 6.3665 0
M  V30 2574 C 240 -0.32669 6.10226 0
M  V30 2575 C 240.998 0.324406 6.82229 0
M  V30 2576 O 240.686 0.982437 7.97874 0
M  V30 2577 H 240.418 -0.248534 0.628655 0
M  V30 2578 H 242.972 -0.113907 2.05084 0
M  V30 2579 H 241.202 -2.50737 2.94394 0
M  V30 2580 H 242.891 -2.33021 3.32349 0
M  V30 2581 H 243.657 -0.360918 4.83655 0
M  V30 2582 H 239.536 -1.49159 4.36202 0
M  V30 2583 H 243.08 0.8179 6.92789 0
M  V30 2584 H 238.977 -0.319294 6.4471 0
M  V30 2585 H 239.745 0.886454 8.13686 0
M  V30 2586 N 242.408 -1.52605 -0.393616 0
M  V30 2587 C 243.34 -1.73303 -1.49995 0
M  V30 2588 C 244.353 -0.613473 -1.50799 0
M  V30 2589 O 245.542 -0.889049 -1.54784 0
M  V30 2590 C 242.642 -1.77245 -2.88855 0
M  V30 2591 C 241.815 -3.06483 -3.12069 0
M  V30 2592 C 240.874 -3.02033 -4.30886 0
M  V30 2593 O 239.9 -3.75907 -4.27414 0
M  V30 2594 N 241.102 -2.20897 -5.36828 0
M  V30 2595 H 243.867 -2.68756 -1.32629 0
M  V30 2596 H 241.428 -1.51036 -0.583083 0
M  V30 2597 H 243.42 -1.7178 -3.66434 0
M  V30 2598 H 241.99 -0.891993 -2.99603 0
M  V30 2599 H 241.21 -3.25474 -2.22396 0
M  V30 2600 H 242.498 -3.91947 -3.2443 0
M  V30 2601 H 241.896 -1.60336 -5.42502 0
M  V30 2602 H 240.453 -2.21275 -6.13091 0
M  V30 2603 N 243.887 0.651787 -1.4349 0
M  V30 2604 C 244.835 1.78586 -1.49029 0
M  V30 2605 C 245.829 1.65448 -0.363767 0
M  V30 2606 O 247.035 1.71777 -0.537821 0
M  V30 2607 H 243.41 0.589236 -0.467231 0
M  V30 2608 H 245.381 1.71035 -2.44519 0
M  V30 2609 C 244.13 3.16851 -1.43181 0
M  V30 2610 H 243.453 3.27598 -2.29171 0
M  V30 2611 H 244.893 3.96156 -1.51118 0
M  V30 2612 C 243.352 3.36568 -0.149616 0
M  V30 2613 O 243.882 3.93885 0.788509 0
M  V30 2614 N 242.088 2.90539 -0.0593484 0
M  V30 2615 H 241.635 2.4408 -0.823575 0
M  V30 2616 H 241.593 3.04108 0.797853 0
M  V30 2617 N 245.365 1.30045 0.890287 0
M  V30 2618 C 246.595 1.21296 1.67245 0
M  V30 2619 C 247.003 -0.227471 1.87828 0
M  V30 2620 O 246.346 -1.16296 1.422 0
M  V30 2621 C 246.408 1.86519 3.07329 0
M  V30 2622 C 246.072 3.35837 3.09939 0
M  V30 2623 C 247.069 4.31915 2.89389 0
M  V30 2624 C 244.754 3.77196 3.31706 0
M  V30 2625 C 246.748 5.67325 2.90552 0
M  V30 2626 C 244.435 5.12725 3.32499 0
M  V30 2627 C 245.433 6.076 3.11947 0
M  V30 2628 O 245.121 7.40655 3.12547 0
M  V30 2629 H 244.853 0.4211 0.528821 0
M  V30 2630 H 247.407 1.72111 1.12103 0
M  V30 2631 H 245.637 1.30228 3.64112 0
M  V30 2632 H 247.326 1.71963 3.67673 0
M  V30 2633 H 248.092 4.01294 2.72375 0
M  V30 2634 H 243.971 3.03796 3.4674 0
M  V30 2635 H 247.515 6.41354 2.74429 0
M  V30 2636 H 243.412 5.42988 3.49047 0
M  V30 2637 H 244.18 7.49577 3.28749 0
M  V30 2638 N 246.843 -1.10192 1.12674 0
M  V30 2639 C 247.79 -2.16606 0.796906 0
M  V30 2640 C 248.76 -1.64394 -0.237476 0
M  V30 2641 O 249.945 -1.90474 -0.111484 0
M  V30 2642 C 247.085 -3.44116 0.26043 0
M  V30 2643 C 246.198 -4.10268 1.35293 0
M  V30 2644 C 245.333 -5.25507 0.775621 0
M  V30 2645 C 244.372 -5.83567 1.84706 0
M  V30 2646 N 243.509 -6.90179 1.28829 0
M  V30 2647 H 248.349 -2.44163 1.70846 0
M  V30 2648 H 245.886 -1.19846 0.85295 0
M  V30 2649 H 247.844 -4.17143 -0.0686814 0
M  V30 2650 H 246.474 -3.16901 -0.614274 0
M  V30 2651 H 245.526 -3.35184 1.79877 0
M  V30 2652 H 246.838 -4.4946 2.16303 0
M  V30 2653 H 245.992 -6.05398 0.397327 0
M  V30 2654 H 244.731 -4.87656 -0.0656581 0
M  V30 2655 H 243.736 -5.02344 2.23452 0
M  V30 2656 H 244.961 -6.23482 2.69161 0
M  V30 2657 H 242.907 -6.54322 0.468881 0
M  V30 2658 H 242.824 -7.28097 2.03497 0
M  V30 2659 H 244.092 -7.73844 0.937311 0
M  V30 2660 N 248.321 -0.919034 -1.28029 0
M  V30 2661 C 249.231 -0.416756 -2.30869 0
M  V30 2662 C 250.247 0.498235 -1.66714 0
M  V30 2663 O 251.423 0.383144 -1.97722 0
M  V30 2664 C 248.488 0.330274 -3.45123 0
M  V30 2665 C 247.549 -0.618578 -4.2482 0
M  V30 2666 C 246.782 0.0928959 -5.33619 0
M  V30 2667 O 247.005 1.31375 -5.55065 0
M  V30 2668 O 245.939 -0.574499 -5.99152 0
M  V30 2669 H 249.765 -1.27043 -2.75851 0
M  V30 2670 H 247.35 -0.684052 -1.3282 0
M  V30 2671 H 249.232 0.751972 -4.14636 0
M  V30 2672 H 247.907 1.1597 -3.02213 0
M  V30 2673 H 246.814 -1.08978 -3.57875 0
M  V30 2674 H 248.147 -1.41497 -4.71423 0
M  V30 2675 N 249.799 1.42003 -0.683588 0
M  V30 2676 C 250.762 2.29191 -0.0198243 0
M  V30 2677 C 251.762 1.43773 0.72013 0
M  V30 2678 O 252.952 1.65061 0.556815 0
M  V30 2679 C 250.084 3.26435 0.982487 0
M  V30 2680 H 251.277 2.8938 -0.787345 0
M  V30 2681 H 248.83 1.49789 -0.446418 0
M  V30 2682 H 249.565 2.71203 1.77819 0
M  V30 2683 H 249.35 3.89449 0.455182 0
M  V30 2684 H 250.84 3.918 1.44508 0
M  V30 2685 N 251.277 0.427512 1.51691 0
M  V30 2686 C 252.523 -0.142439 2.02299 0
M  V30 2687 C 252.856 -1.43214 1.31162 0
M  V30 2688 O 252.131 -1.89833 0.423511 0
M  V30 2689 C 252.414 -0.371301 3.58181 0
M  V30 2690 C 252.267 0.936358 4.39946 0
M  V30 2691 C 253.586 -1.14542 4.24933 0
M  V30 2692 H 250.705 -0.0502937 0.735282 0
M  V30 2693 H 253.347 0.564584 1.81418 0
M  V30 2694 H 251.497 -0.973559 3.76104 0
M  V30 2695 H 253.169 1.57184 4.33694 0
M  V30 2696 H 251.412 1.5432 4.05423 0
M  V30 2697 H 252.083 0.730388 5.47147 0
M  V30 2698 H 254.559 -0.635362 4.11221 0
M  V30 2699 H 253.435 -1.27431 5.33903 0
M  V30 2700 H 253.696 -2.17093 3.85127 0
M  V30 2701 N 252.755 -1.56801 0.158532 0
M  V30 2702 C 254.001 -1.96781 -0.490405 0
M  V30 2703 C 254.334 -1.04397 -1.63753 0
M  V30 2704 O 253.609 -0.0885805 -1.94298 0
M  V30 2705 C 253.892 -3.4635 -0.985594 0
M  V30 2706 C 253.745 -4.49512 0.160824 0
M  V30 2707 C 255.064 -3.98697 -1.86355 0
M  V30 2708 H 252.183 -0.715482 -0.176788 0
M  V30 2709 H 254.825 -1.88451 0.242088 0
M  V30 2710 H 252.975 -3.53579 -1.60978 0
M  V30 2711 H 254.647 -4.54353 0.797537 0
M  V30 2712 H 252.89 -4.26013 0.818256 0
M  V30 2713 H 253.561 -5.51531 -0.227569 0
M  V30 2714 H 256.037 -3.94019 -1.33746 0
M  V30 2715 H 254.913 -5.03792 -2.17909 0
M  V30 2716 H 255.174 -3.41744 -2.8047 0
M  V30 2717 N 254.233 0.115231 -1.57178 0
M  V30 2718 C 255.481 0.820727 -1.84685 0
M  V30 2719 C 255.802 1.80237 -0.744279 0
M  V30 2720 O 255.072 1.94529 0.231375 0
M  V30 2721 H 253.652 0.306084 -0.681411 0
M  V30 2722 H 256.314 0.101656 -1.94635 0
M  V30 2723 H 255.41 1.36366 -2.80733 0
M  V30 2724 N 255.711 1.52812 0.385517 0
M  V30 2725 C 256.621 1.80766 1.49535 0
M  V30 2726 C 257.637 0.694651 1.59532 0
M  V30 2727 O 258.813 0.982611 1.75803 0
M  V30 2728 C 255.878 1.97381 2.85029 0
M  V30 2729 C 254.939 3.21295 2.84724 0
M  V30 2730 C 254.172 3.37108 4.13756 0
M  V30 2731 O 254.395 2.5765 5.08893 0
M  V30 2732 O 253.329 4.30378 4.20783 0
M  V30 2733 H 257.155 2.75015 1.28842 0
M  V30 2734 H 254.74 1.37946 0.573697 0
M  V30 2735 H 256.622 2.09996 3.65349 0
M  V30 2736 H 255.297 1.06322 3.05741 0
M  V30 2737 H 254.204 3.1412 2.03174 0
M  V30 2738 H 255.537 4.12212 2.68965 0
M  V30 2739 N 257.189 -0.644168 1.43834 0
M  V30 2740 C 258.137 -1.77793 1.49974 0
M  V30 2741 C 259.131 -1.65253 0.372536 0
M  V30 2742 O 260.337 -1.7149 0.546924 0
M  V30 2743 H 256.712 -0.58675 0.47035 0
M  V30 2744 H 258.683 -1.69736 2.45423 0
M  V30 2745 C 257.432 -3.16087 1.4486 0
M  V30 2746 H 256.755 -3.26378 2.30905 0
M  V30 2747 H 258.195 -3.95349 1.53217 0
M  V30 2748 C 256.654 -3.36484 0.167463 0
M  V30 2749 O 257.184 -3.94298 -0.767609 0
M  V30 2750 N 255.39 -2.90504 0.0747556 0
M  V30 2751 H 254.937 -2.4364 0.836507 0
M  V30 2752 H 254.895 -3.04527 -0.781714 0
M  V30 2753 N 258.668 -1.30515 -0.883378 0
M  V30 2754 C 259.916 -1.19194 -1.63209 0
M  V30 2755 C 260.237 0.253205 -1.93349 0
M  V30 2756 O 259.507 1.17025 -1.57105 0
M  V30 2757 H 258.087 -0.438148 -0.605009 0
M  V30 2758 H 260.749 -1.63663 -1.05832 0
M  V30 2759 H 259.845 -1.75396 -2.58153 0
M  V30 2760 N 260.146 1.09593 -1.13257 0
M  V30 2761 C 261.076 2.18214 -0.830946 0
M  V30 2762 C 262.057 1.68812 0.208966 0
M  V30 2763 O 263.242 1.9408 0.0682666 0
M  V30 2764 C 260.372 3.46051 -0.294296 0
M  V30 2765 C 259.326 4.08778 -1.26826 0
M  V30 2766 C 258.652 5.31419 -0.591449 0
M  V30 2767 C 259.952 4.51476 -2.62615 0
M  V30 2768 H 261.646 2.43703 -1.73923 0
M  V30 2769 H 259.192 1.17128 -0.837675 0
M  V30 2770 H 261.145 4.2134 -0.0709606 0
M  V30 2771 H 259.869 3.20079 0.649366 0
M  V30 2772 H 258.528 3.35505 -1.47756 0
M  V30 2773 H 258.176 5.01727 0.357633 0
M  V30 2774 H 257.876 5.74341 -1.24123 0
M  V30 2775 H 259.4 6.09433 -0.377355 0
M  V30 2776 H 260.814 5.17999 -2.45663 0
M  V30 2777 H 259.211 5.05277 -3.23752 0
M  V30 2778 H 260.281 3.63962 -3.20406 0
M  V30 2779 N 261.624 0.925811 1.2754 0
M  V30 2780 C 262.587 0.428129 2.25166 0
M  V30 2781 C 263.587 -0.452261 1.54309 0
M  V30 2782 O 264.777 -0.253608 1.72344 0
M  V30 2783 C 261.909 -0.384749 3.38722 0
M  V30 2784 H 263.102 1.29066 2.70706 0
M  V30 2785 H 260.655 0.706323 1.3943 0
M  V30 2786 H 261.39 -1.26618 2.98561 0
M  V30 2787 H 261.175 0.246454 3.91325 0
M  V30 2788 H 262.665 -0.723389 4.11287 0
M  V30 2789 N 263.102 -1.41638 0.69111 0
M  V30 2790 C 264.348 -2.01598 0.220519 0
M  V30 2791 C 264.681 -1.54594 -1.17535 0
M  V30 2792 O 263.956 -0.755177 -1.79241 0
M  V30 2793 C 264.239 -3.59062 0.273243 0
M  V30 2794 C 264.092 -4.16203 1.70573 0
M  V30 2795 C 265.411 -4.38546 -0.369457 0
M  V30 2796 H 262.53 -0.732468 0.0816045 0
M  V30 2797 H 265.172 -1.68445 0.878986 0
M  V30 2798 H 263.322 -3.87435 -0.287411 0
M  V30 2799 H 264.994 -3.98722 2.31989 0
M  V30 2800 H 263.237 -3.71414 2.2413 0
M  V30 2801 H 263.908 -5.25358 1.69419 0
M  V30 2802 H 266.384 -4.1596 0.107977 0
M  V30 2803 H 265.26 -5.48069 -0.302002 0
M  V30 2804 H 265.521 -4.17662 -1.44951 0
M  V30 2805 N 264.58 -0.43555 -1.51462 0
M  V30 2806 C 265.829 0.133007 -2.01261 0
M  V30 2807 C 266.142 1.43942 -1.32439 0
M  V30 2808 O 267.348 2.09081 -1.73198 0
M  V30 2809 C 265.804 0.287581 -3.58749 0
M  V30 2810 C 265.412 -1.00829 -4.36506 0
M  V30 2811 C 267.156 0.810004 -4.167 0
M  V30 2812 C 265.063 -0.819454 -5.85695 0
M  V30 2813 H 263.993 0.0534822 -0.752101 0
M  V30 2814 H 266.644 -0.565038 -1.74584 0
M  V30 2815 H 265.026 1.04859 -3.81865 0
M  V30 2816 H 266.2 -1.77749 -4.25138 0
M  V30 2817 H 264.515 -1.45911 -3.89999 0
M  V30 2818 H 267.112 0.967743 -5.2587 0
M  V30 2819 H 267.455 1.79196 -3.75758 0
M  V30 2820 H 267.988 0.107357 -3.97655 0
M  V30 2821 H 264.727 -1.77374 -6.31046 0
M  V30 2822 H 264.247 -0.0900208 -5.99732 0
M  V30 2823 H 265.926 -0.471949 -6.45276 0
M  V30 2824 N 266.058 1.56714 -0.166846 0
M  V30 2825 C 267.306 1.96358 0.478305 0
M  V30 2826 C 267.627 1.0537 1.6408 0
M  V30 2827 O 266.897 0.119154 1.95537 0
M  V30 2828 H 265.477 0.725065 0.179692 0
M  V30 2829 H 268.139 1.93329 -0.246985 0
M  V30 2830 H 267.235 3.00547 0.841292 0
M  V30 2831 N 267.536 -0.106894 1.57237 0
M  V30 2832 C 268.782 -0.81373 1.85759 0
M  V30 2833 C 269.115 -1.78952 0.754315 0
M  V30 2834 O 268.39 -1.93029 -0.23879 0
M  V30 2835 C 268.673 -1.55293 3.24894 0
M  V30 2836 C 268.526 -0.595929 4.45835 0
M  V30 2837 C 269.845 -2.5063 3.61763 0
M  V30 2838 H 266.964 -0.294369 0.67566 0
M  V30 2839 H 269.606 -0.0776472 1.89841 0
M  V30 2840 H 267.756 -2.1804 3.21544 0
M  V30 2841 H 269.428 0.0236262 4.61294 0
M  V30 2842 H 267.671 0.0916191 4.33703 0
M  V30 2843 H 268.342 -1.15004 5.39887 0
M  V30 2844 H 270.818 -1.97982 3.65981 0
M  V30 2845 H 269.694 -2.99376 4.60071 0
M  V30 2846 H 269.955 -3.3385 2.89821 0
M  V30 2847 N 269.014 -1.53014 -0.377408 0
M  V30 2848 C 270.261 -1.68623 -1.12128 0
M  V30 2849 C 270.589 -0.431997 -1.89642 0
M  V30 2850 O 269.844 0.585855 -1.86725 0
M  V30 2851 C 270.143 -2.87982 -2.11663 0
M  V30 2852 C 269.809 -4.24964 -1.50719 0
M  V30 2853 C 268.471 -4.62217 -1.33825 0
M  V30 2854 C 270.823 -5.10199 -1.06519 0
M  V30 2855 C 268.151 -5.82352 -0.712963 0
M  V30 2856 C 270.503 -6.30969 -0.453955 0
M  V30 2857 C 269.167 -6.66944 -0.272411 0
M  V30 2858 H 268.437 -0.617034 -0.410305 0
M  V30 2859 H 271.084 -1.8718 -0.404484 0
M  V30 2860 H 269.389 -2.63889 -2.89603 0
M  V30 2861 H 271.086 -2.97253 -2.6915 0
M  V30 2862 H 267.676 -3.95626 -1.64858 0
M  V30 2863 H 271.86 -4.81978 -1.18368 0
M  V30 2864 H 267.116 -6.08824 -0.560611 0
M  V30 2865 H 271.29 -6.96324 -0.103217 0
M  V30 2866 H 268.917 -7.59898 0.214181 0
M  V30 2867 N 270.492 0.636531 -1.44174 0
M  V30 2868 C 271.422 1.76003 -1.53444 0
M  V30 2869 C 272.403 1.65619 -0.387841 0
M  V30 2870 O 273.588 1.84461 -0.607257 0
M  V30 2871 C 270.718 3.14511 -1.4731 0
M  V30 2872 C 269.672 3.39677 -2.60391 0
M  V30 2873 C 268.998 4.78159 -2.39308 0
M  V30 2874 C 270.298 3.32772 -4.02567 0
M  V30 2875 H 271.992 1.68501 -2.47483 0
M  V30 2876 H 269.538 0.809237 -1.19111 0
M  V30 2877 H 271.491 3.92878 -1.52397 0
M  V30 2878 H 270.215 3.22783 -0.49785 0
M  V30 2879 H 268.874 2.63688 -2.54684 0
M  V30 2880 H 268.522 4.83128 -1.39988 0
M  V30 2881 H 268.222 4.95956 -3.15122 0
M  V30 2882 H 269.746 5.58762 -2.46205 0
M  V30 2883 H 271.16 4.01051 -4.09672 0
M  V30 2884 H 269.557 3.62104 -4.7854 0
M  V30 2885 H 270.627 2.30669 -4.2652 0
M  V30 2886 N 271.97 1.30982 0.876444 0
M  V30 2887 C 272.917 1.18085 1.98304 0
M  V30 2888 C 273.887 0.0682263 1.6596 0
M  V30 2889 O 275.072 0.239937 1.89285 0
M  V30 2890 C 272.212 0.887475 3.33493 0
M  V30 2891 C 271.325 2.08281 3.78475 0
M  V30 2892 C 270.46 1.72678 5.0235 0
M  V30 2893 C 269.499 2.88657 5.39762 0
M  V30 2894 N 268.636 2.53292 6.54819 0
M  V30 2895 H 273.476 2.1275 2.08666 0
M  V30 2896 H 271.013 1.05839 1.02159 0
M  V30 2897 H 272.971 0.697961 4.1132 0
M  V30 2898 H 271.601 -0.022315 3.22792 0
M  V30 2899 H 270.653 2.3833 2.96484 0
M  V30 2900 H 271.965 2.95108 4.02135 0
M  V30 2901 H 271.119 1.50151 5.87826 0
M  V30 2902 H 269.858 0.830327 4.8058 0
M  V30 2903 H 268.863 3.1184 4.52809 0
M  V30 2904 H 270.088 3.79002 5.63502 0
M  V30 2905 H 268.034 1.66163 6.34607 0
M  V30 2906 H 267.951 3.3365 6.7839 0
M  V30 2907 H 269.219 2.34143 7.43503 0
M  V30 2908 N 273.449 -1.08991 1.13837 0
M  V30 2909 C 274.379 -2.17771 0.842507 0
M  V30 2910 C 275.36 -1.6892 -0.20001 0
M  V30 2911 O 276.545 -1.94113 -0.0579731 0
M  V30 2912 C 273.675 -3.4589 0.312644 0
M  V30 2913 C 272.629 -4.08099 1.28992 0
M  V30 2914 C 271.955 -5.31098 0.619623 0
M  V30 2915 C 273.255 -4.50077 2.65005 0
M  V30 2916 H 274.949 -2.42777 1.75213 0
M  V30 2917 H 272.495 -1.16682 0.843875 0
M  V30 2918 H 274.448 -4.21297 0.0933043 0
M  V30 2919 H 273.172 -3.20419 -0.632382 0
M  V30 2920 H 271.831 -3.34717 1.49533 0
M  V30 2921 H 271.479 -5.0191 -0.33102 0
M  V30 2922 H 271.179 -5.73674 1.27167 0
M  V30 2923 H 272.703 -6.09224 0.409669 0
M  V30 2924 H 274.117 -5.16688 2.48407 0
M  V30 2925 H 272.514 -5.03553 3.26427 0
M  V30 2926 H 273.584 -3.62257 3.22332 0
M  V30 2927 N 274.927 -0.932562 -1.27047 0
M  V30 2928 C 276.175 -0.574422 -1.93765 0
M  V30 2929 C 276.496 0.887993 -1.73608 0
M  V30 2930 O 275.766 1.62999 -1.08665 0
M  V30 2931 H 274.346 -0.209451 -0.717035 0
M  V30 2932 H 277.008 -1.18601 -1.5466 0
M  V30 2933 H 276.104 -0.784841 -3.02071 0
M  V30 2934 N 276.405 1.4127 -0.698611 0
M  V30 2935 C 277.368 2.29158 -0.044132 0
M  V30 2936 C 278.368 1.44529 0.704841 0
M  V30 2937 O 279.558 1.65643 0.539276 0
M  V30 2938 C 276.69 3.27459 0.947809 0
M  V30 2939 H 277.883 2.88529 -0.817994 0
M  V30 2940 H 275.436 1.49307 -0.46228 0
M  V30 2941 H 276.171 2.73073 1.74933 0
M  V30 2942 H 275.956 3.8991 0.41385 0
M  V30 2943 H 277.446 3.93311 1.40344 0
M  V30 2944 N 277.883 0.443576 1.51229 0
M  V30 2945 C 278.833 -0.382787 2.24764 0
M  V30 2946 C 279.817 -0.984836 1.27239 0
M  V30 2947 O 281.009 -0.901943 1.52296 0
M  V30 2948 C 278.138 -1.47989 3.09765 0
M  V30 2949 C 277.224 -0.886931 4.14722 0
M  V30 2950 N 277.615 -0.0237103 5.05794 0
M  V30 2951 C 275.913 -1.15385 4.30816 0
M  V30 2952 C 276.614 0.309971 5.80874 0
M  V30 2953 N 275.59 -0.307989 5.42727 0
M  V30 2954 H 279.392 0.282624 2.92538 0
M  V30 2955 H 276.906 0.256027 1.60369 0
M  V30 2956 H 278.903 -2.08482 3.61027 0
M  V30 2957 H 277.563 -2.14758 2.43535 0
M  V30 2958 H 278.574 0.34318 5.16762 0
M  V30 2959 H 275.251 -1.81857 3.75812 0
M  V30 2960 H 276.641 1.01279 6.64223 0
M  V30 2961 N 279.361 -1.56624 0.175154 0
M  V30 2962 C 280.311 -2.14747 -0.766004 0
M  V30 2963 C 281.295 -1.08275 -1.19018 0
M  V30 2964 O 282.487 -1.34388 -1.15191 0
M  V30 2965 C 279.616 -2.79478 -1.99366 0
M  V30 2966 C 278.702 -3.93114 -1.5913 0
M  V30 2967 N 279.093 -4.97752 -0.89872 0
M  V30 2968 C 277.391 -4.04345 -1.88204 0
M  V30 2969 C 278.092 -5.77473 -0.700012 0
M  V30 2970 N 277.068 -5.29207 -1.24263 0
M  V30 2971 H 280.87 -2.93015 -0.22793 0
M  V30 2972 H 278.384 -1.6238 -0.0253843 0
M  V30 2973 H 280.381 -3.19498 -2.67818 0
M  V30 2974 H 279.041 -2.02692 -2.53665 0
M  V30 2975 H 280.052 -5.14903 -0.556347 0
M  V30 2976 H 276.729 -3.38667 -2.44153 0
M  V30 2977 H 278.119 -6.71728 -0.152047 0
M  V30 2978 N 280.839 0.0985539 -1.57292 0
M  V30 2979 C 281.771 1.14595 -1.98496 0
M  V30 2980 C 282.784 1.36512 -0.887031 0
M  V30 2981 O 283.973 1.35225 -1.16518 0
M  V30 2982 C 281.073 2.50216 -2.28572 0
M  V30 2983 C 280.246 2.48624 -3.59868 0
M  V30 2984 C 279.305 3.66146 -3.7792 0
M  V30 2985 O 278.331 3.48795 -4.49812 0
M  V30 2986 N 279.533 4.85496 -3.18235 0
M  V30 2987 H 282.298 0.795277 -2.88956 0
M  V30 2988 H 279.859 0.287579 -1.59325 0
M  V30 2989 H 281.851 3.27432 -2.37845 0
M  V30 2990 H 280.421 2.77387 -1.44136 0
M  V30 2991 H 279.641 1.56978 -3.61596 0
M  V30 2992 H 280.929 2.44635 -4.46129 0
M  V30 2993 H 280.327 5.02497 -2.59833 0
M  V30 2994 H 278.884 5.60317 -3.32999 0
M  V30 2995 N 282.317 1.53212 0.369288 0
M  V30 2996 C 283.545 1.73119 1.13303 0
M  V30 2997 C 283.96 0.458455 1.83149 0
M  V30 2998 O 283.317 -0.568403 1.73423 0
M  V30 2999 C 283.368 2.89413 2.16616 0
M  V30 3000 O 283.089 4.11761 1.49614 0
M  V30 3001 C 284.59 3.21161 3.05566 0
M  V30 3002 H 281.81 0.579107 0.338934 0
M  V30 3003 H 284.354 1.99942 0.429338 0
M  V30 3004 H 282.509 2.64994 2.82589 0
M  V30 3005 H 282.923 4.76858 2.18419 0
M  V30 3006 H 284.397 4.05949 3.74045 0
M  V30 3007 H 284.874 2.36369 3.70171 0
M  V30 3008 H 285.48 3.47492 2.45213 0
M  V30 3009 N 283.795 -0.628877 1.44509 0
M  V30 3010 C 284.725 -1.75187 1.54376 0
M  V30 3011 C 285.706 -1.65411 0.396618 0
M  V30 3012 O 286.891 -1.84137 0.617031 0
M  V30 3013 C 284.021 -3.13725 1.48976 0
M  V30 3014 C 282.975 -3.38291 2.62189 0
M  V30 3015 C 282.301 -4.76883 2.41841 0
M  V30 3016 C 283.601 -3.30632 4.04326 0
M  V30 3017 H 285.295 -1.67187 2.48373 0
M  V30 3018 H 282.841 -0.802909 1.19538 0
M  V30 3019 H 284.794 -3.92064 1.54478 0
M  V30 3020 H 283.518 -3.22515 0.514961 0
M  V30 3021 H 282.177 -2.62334 2.56079 0
M  V30 3022 H 281.825 -4.82378 1.42548 0
M  V30 3023 H 281.525 -4.94278 3.17747 0
M  V30 3024 H 283.049 -5.57449 2.49165 0
M  V30 3025 H 284.463 -3.98873 4.11793 0
M  V30 3026 H 282.86 -3.59561 4.80454 0
M  V30 3027 H 283.93 -2.28404 4.27738 0
M  V30 3028 N 285.273 -1.31445 -0.869486 0
M  V30 3029 C 286.205 -1.14955 -1.98287 0
M  V30 3030 C 287.218 -0.0885037 -1.62559 0
M  V30 3031 O 288.407 -0.336044 -1.75308 0
M  V30 3032 C 285.507 -0.734255 -3.3085 0
M  V30 3033 C 284.68 -1.88042 -3.94917 0
M  V30 3034 C 283.739 -1.4511 -5.05796 0
M  V30 3035 O 282.765 -2.16082 -5.2659 0
M  V30 3036 N 283.967 -0.338763 -5.79511 0
M  V30 3037 H 286.732 -2.10856 -2.12979 0
M  V30 3038 H 284.293 -1.23786 -1.04349 0
M  V30 3039 H 286.285 -0.42975 -4.02412 0
M  V30 3040 H 284.855 0.133158 -3.12316 0
M  V30 3041 H 284.075 -2.35222 -3.1633 0
M  V30 3042 H 285.363 -2.6481 -4.34457 0
M  V30 3043 H 284.761 0.252274 -5.65137 0
M  V30 3044 H 283.318 -0.0937925 -6.51733 0
M  V30 3045 N 286.751 1.08385 -1.14413 0
M  V30 3046 C 288.167 1.32844 -0.884563 0
M  V30 3047 C 288.367 1.95841 0.474181 0
M  V30 3048 O 287.423 2.21158 1.21842 0
M  V30 3049 C 288.736 2.22978 -2.01745 0
M  V30 3050 C 290.284 2.36458 -2.05077 0
M  V30 3051 C 290.759 3.29934 -3.1766 0
M  V30 3052 N 292.25 3.37511 -3.17239 0
M  V30 3053 C 292.985 4.09871 -4.0099 0
M  V30 3054 N 292.481 4.84936 -4.94781 0
M  V30 3055 N 294.274 4.05704 -3.89051 0
M  V30 3056 H 286.425 0.658756 -2.01926 0
M  V30 3057 H 288.688 0.352821 -0.879899 0
M  V30 3058 H 288.394 1.83934 -2.99769 0
M  V30 3059 H 288.268 3.23441 -1.94077 0
M  V30 3060 H 290.655 2.7476 -1.0766 0
M  V30 3061 H 290.736 1.35736 -2.16816 0
M  V30 3062 H 290.38 2.92352 -4.15322 0
M  V30 3063 H 290.31 4.30584 -3.03158 0
M  V30 3064 H 292.801 2.83996 -2.49308 0
M  V30 3065 H 293.114 5.37612 -5.55151 0
M  V30 3066 H 291.459 4.83988 -4.98779 0
M  V30 3067 H 294.65 3.46167 -3.15097 0
M  V30 3068 H 294.823 4.61834 -4.54547 0
M  V30 3069 N 288.23 0.939286 1.26551 0
M  V30 3070 C 289.16 0.465044 2.28822 0
M  V30 3071 C 290.141 -0.480692 1.63167 0
M  V30 3072 O 291.326 -0.382955 1.90387 0
M  V30 3073 C 288.456 -0.27234 3.46231 0
M  V30 3074 C 287.41 0.58666 4.2396 0
M  V30 3075 C 286.736 -0.280573 5.33963 0
M  V30 3076 C 288.036 1.85704 4.88171 0
M  V30 3077 H 289.73 1.31979 2.68741 0
M  V30 3078 H 287.276 0.636061 1.29191 0
M  V30 3079 H 289.229 -0.615133 4.16886 0
M  V30 3080 H 287.953 -1.16121 3.0526 0
M  V30 3081 H 286.612 0.91232 3.55067 0
M  V30 3082 H 286.26 -1.16874 4.89234 0
M  V30 3083 H 285.96 0.29076 5.8688 0
M  V30 3084 H 287.484 -0.618678 6.07458 0
M  V30 3085 H 288.898 1.58161 5.51052 0
M  V30 3086 H 287.295 2.37279 5.51197 0
M  V30 3087 H 288.365 2.56957 4.11219 0
M  V30 3088 N 289.708 -1.40897 0.706093 0
M  V30 3089 C 290.954 -2.01352 0.241889 0
M  V30 3090 C 291.287 -1.55832 -1.15888 0
M  V30 3091 O 290.562 -0.774145 -1.7843 0
M  V30 3092 C 290.845 -3.58752 0.311311 0
M  V30 3093 C 290.698 -4.1437 1.74978 0
M  V30 3094 C 292.017 -4.38914 -0.322922 0
M  V30 3095 H 289.136 -0.731562 0.0893687 0
M  V30 3096 H 291.778 -1.67504 0.896802 0
M  V30 3097 H 289.928 -3.87718 -0.246302 0
M  V30 3098 H 291.6 -3.96239 2.36205 0
M  V30 3099 H 289.843 -3.69016 2.28057 0
M  V30 3100 H 290.514 -5.23532 1.74981 0
M  V30 3101 H 292.99 -4.15822 0.152089 0
M  V30 3102 H 291.866 -5.48358 -0.243855 0
M  V30 3103 H 292.127 -4.19176 -1.40513 0
M  V30 3104 N 291.186 -0.45159 -1.50991 0
M  V30 3105 C 292.463 0.170707 -1.94854 0
M  V30 3106 C 292.843 1.58788 -1.39103 0
M  V30 3107 O 292.191 2.20913 -0.583921 0
M  V30 3108 C 292.401 0.133929 -3.48743 0
M  V30 3109 C 293.749 0.33248 -4.23296 0
M  V30 3110 O 294.773 0.211403 -3.55572 0
M  V30 3111 O 293.632 0.57486 -5.43468 0
M  V30 3112 H 290.726 0.122264 -0.817912 0
M  V30 3113 H 293.272 -0.510594 -1.61836 0
M  V30 3114 H 292.044 -0.856283 -3.81816 0
M  V30 3115 H 291.667 0.857529 -3.88242 0
M  V30 3116 N 292.664 1.56529 -0.183458 0
M  V30 3117 C 293.913 1.96419 0.458511 0
M  V30 3118 C 294.226 1.0727 1.63562 0
M  V30 3119 O 295.432 1.36893 2.34462 0
M  V30 3120 C 293.888 3.49298 0.867122 0
M  V30 3121 C 293.496 4.47092 -0.285057 0
M  V30 3122 C 295.24 3.97983 1.47683 0
M  V30 3123 C 293.147 5.91225 0.143862 0
M  V30 3124 H 292.077 0.733394 0.175071 0
M  V30 3125 H 294.728 1.81448 -0.273624 0
M  V30 3126 H 293.11 3.59731 1.65559 0
M  V30 3127 H 294.284 4.48383 -1.0625 0
M  V30 3128 H 292.599 4.08535 -0.805503 0
M  V30 3129 H 295.196 5.03134 1.80999 0
M  V30 3130 H 295.539 3.41618 2.37914 0
M  V30 3131 H 296.072 3.90617 0.752562 0
M  V30 3132 H 292.811 6.5149 -0.723974 0
M  V30 3133 H 292.331 5.93214 0.886413 0
M  V30 3134 H 294.01 6.44362 0.583628 0
M  V30 3135 N 294.142 -0.090211 1.57342 0
M  V30 3136 C 295.072 -1.10976 2.05443 0
M  V30 3137 C 296.053 -1.41482 0.944284 0
M  V30 3138 O 297.238 -1.51428 1.21586 0
M  V30 3139 C 294.368 -2.42831 2.48295 0
M  V30 3140 C 293.322 -2.26721 3.63018 0
M  V30 3141 C 292.648 -3.63796 3.91863 0
M  V30 3142 C 293.948 -1.7037 4.93732 0
M  V30 3143 H 295.642 -0.709564 2.9087 0
M  V30 3144 H 293.188 -0.339874 1.39932 0
M  V30 3145 H 295.141 -3.14431 2.80555 0
M  V30 3146 H 293.865 -2.84795 1.59873 0
M  V30 3147 H 292.524 -1.57565 3.31012 0
M  V30 3148 H 292.172 -4.03297 3.00601 0
M  V30 3149 H 291.872 -3.53861 4.69101 0
M  V30 3150 H 293.396 -4.36855 4.26603 0
M  V30 3151 H 294.81 -2.31816 5.24342 0
M  V30 3152 H 293.207 -1.71181 5.75167 0
M  V30 3153 H 294.277 -0.663542 4.80339 0
M  V30 3154 N 295.62 -1.53406 -0.361157 0
M  V30 3155 C 297.031 -1.61442 -0.937728 0
M  V30 3156 C 297.382 -0.48461 -1.90121 0
M  V30 3157 O 296.507 0.388312 -2.12888 0
M  V30 3158 C 297.102 -2.92624 -1.70753 0
M  V30 3159 C 295.661 -3.02981 -2.23337 0
M  V30 3160 C 294.808 -2.5677 -1.04712 0
M  V30 3161 H 297.759 -1.58083 -0.139816 0
M  V30 3162 H 297.78 -2.80675 -2.56908 0
M  V30 3163 H 297.292 -3.74834 -1.00604 0
M  V30 3164 H 295.393 -2.25368 -2.96715 0
M  V30 3165 H 295.506 -4.0814 -2.50916 0
M  V30 3166 H 293.87 -2.11752 -1.41539 0
M  V30 3167 H 294.653 -3.41402 -0.360539 0
M  V30 3168 N 297.098 0.621204 -1.44841 0
M  V30 3169 C 298.008 1.7612 -1.5498 0
M  V30 3170 C 299.024 1.68477 -0.434927 0
M  V30 3171 O 300.2 1.89076 -0.693693 0
M  V30 3172 C 297.265 3.1254 -1.50065 0
M  V30 3173 C 296.326 3.31741 -2.72482 0
M  V30 3174 C 295.559 4.61653 -2.67792 0
M  V30 3175 O 295.782 5.431 -1.74352 0
M  V30 3176 O 294.716 4.83271 -3.58794 0
M  V30 3177 H 298.542 1.70518 -2.51311 0
M  V30 3178 H 296.127 0.783643 -1.27198 0
M  V30 3179 H 298.009 3.93844 -1.49882 0
M  V30 3180 H 296.684 3.18663 -0.568806 0
M  V30 3181 H 295.591 2.50077 -2.7823 0
M  V30 3182 H 296.924 3.30486 -3.64746 0
M  V30 3183 N 298.576 1.31904 0.862503 0
M  V30 3184 C 299.825 1.21373 1.61094 0
M  V30 3185 C 300.138 -0.22504 1.94301 0
M  V30 3186 O 301.344 -0.452121 2.67709 0
M  V30 3187 C 299.8 2.12525 2.9045 0
M  V30 3188 C 299.408 3.61441 2.64697 0
M  V30 3189 C 301.152 2.10813 3.68454 0
M  V30 3190 C 299.059 4.44578 3.90006 0
M  V30 3191 H 297.989 0.450705 0.604468 0
M  V30 3192 H 300.64 1.56811 0.953027 0
M  V30 3193 H 299.022 1.69994 3.57656 0
M  V30 3194 H 300.196 4.12264 2.05851 0
M  V30 3195 H 298.511 3.65205 2.00036 0
M  V30 3196 H 301.108 2.70167 4.61426 0
M  V30 3197 H 301.451 1.09713 4.01583 0
M  V30 3198 H 301.984 2.51583 3.08141 0
M  V30 3199 H 298.723 5.46461 3.62023 0
M  V30 3200 H 298.243 3.98508 4.48276 0
M  V30 3201 H 299.922 4.57176 4.5782 0
M  V30 3202 N 300.054 -1.07777 1.14986 0
M  V30 3203 C 301.001 -2.14867 0.842672 0
M  V30 3204 C 301.971 -1.6486 -0.202552 0
M  V30 3205 O 303.156 -1.90668 -0.0710568 0
M  V30 3206 C 300.296 -3.43486 0.333363 0
M  V30 3207 C 299.409 -4.07306 1.43965 0
M  V30 3208 C 298.544 -5.23744 0.886914 0
M  V30 3209 C 297.583 -5.79517 1.97043 0
M  V30 3210 N 296.72 -6.87291 1.4344 0
M  V30 3211 H 301.56 -2.40485 1.75986 0
M  V30 3212 H 299.097 -1.1801 0.878179 0
M  V30 3213 H 301.055 -4.17195 0.0198163 0
M  V30 3214 H 299.685 -3.18133 -0.546916 0
M  V30 3215 H 298.737 -3.31293 1.86946 0
M  V30 3216 H 300.049 -4.44771 2.25788 0
M  V30 3217 H 299.203 -6.04419 0.525651 0
M  V30 3218 H 297.942 -4.87685 0.0377957 0
M  V30 3219 H 296.947 -4.97491 2.34057 0
M  V30 3220 H 298.172 -6.17632 2.82325 0
M  V30 3221 H 296.118 -6.5318 0.607567 0
M  V30 3222 H 296.035 -7.23617 2.18895 0
M  V30 3223 H 297.303 -7.71682 1.10124 0
M  V30 3224 N 301.532 -0.945985 -1.26051 0
M  V30 3225 C 302.482 -0.430164 -2.23905 0
M  V30 3226 C 303.466 0.47579 -1.53704 0
M  V30 3227 O 304.658 0.310252 -1.7426 0
M  V30 3228 C 301.787 0.298957 -3.41996 0
M  V30 3229 C 300.873 -0.624566 -4.19476 0
M  V30 3230 N 301.264 -1.75245 -4.74471 0
M  V30 3231 C 299.562 -0.431082 -4.43912 0
M  V30 3232 C 300.263 -2.32834 -5.3307 0
M  V30 3233 N 299.239 -1.61583 -5.1903 0
M  V30 3234 H 303.041 -1.29107 -2.64024 0
M  V30 3235 H 300.555 -0.802428 -1.41191 0
M  V30 3236 H 302.552 0.685565 -4.11225 0
M  V30 3237 H 301.212 1.15657 -3.03403 0
M  V30 3238 H 302.223 -2.13449 -4.71868 0
M  V30 3239 H 298.9 0.384364 -4.15727 0
M  V30 3240 H 300.29 -3.27893 -5.86461 0
M  V30 3241 N 303.011 1.40521 -0.713556 0
M  V30 3242 C 303.958 2.30723 -0.059684 0
M  V30 3243 C 304.928 1.48079 0.752448 0
M  V30 3244 O 306.113 1.76823 0.71681 0
M  V30 3245 C 303.253 3.34274 0.857594 0
M  V30 3246 C 302.366 4.31986 0.0351536 0
M  V30 3247 C 301.501 5.22605 0.951724 0
M  V30 3248 C 300.54 6.11976 0.123253 0
M  V30 3249 N 299.677 6.9502 0.99459 0
M  V30 3250 H 304.517 2.86074 -0.834596 0
M  V30 3251 H 302.054 1.40879 -0.42326 0
M  V30 3252 H 304.012 3.92879 1.40364 0
M  V30 3253 H 302.642 2.8043 1.59871 0
M  V30 3254 H 301.694 3.7518 -0.628052 0
M  V30 3255 H 303.006 4.95101 -0.606347 0
M  V30 3256 H 302.16 5.86131 1.56638 0
M  V30 3257 H 300.899 4.59759 1.62705 0
M  V30 3258 H 299.904 5.47482 -0.50435 0
M  V30 3259 H 301.129 6.76881 -0.548539 0
M  V30 3260 H 299.075 6.34764 1.6556 0
M  V30 3261 H 298.992 7.54892 0.40908 0
M  V30 3262 H 300.26 7.62997 1.59549 0
M  V30 3263 N 304.489 0.459591 1.5075 0
M  V30 3264 C 305.766 -0.160371 1.94941 0
M  V30 3265 C 306.146 -1.58048 1.39943 0
M  V30 3266 O 305.494 -2.206 0.595629 0
M  V30 3267 C 305.704 -0.115432 3.48809 0
M  V30 3268 C 307.052 -0.310026 4.23467 0
M  V30 3269 O 308.076 -0.192543 3.55679 0
M  V30 3270 O 306.935 -0.546031 5.43765 0
M  V30 3271 H 304.029 -0.117925 0.818549 0
M  V30 3272 H 306.575 0.519169 1.61563 0
M  V30 3273 H 305.347 0.87652 3.81357 0
M  V30 3274 H 304.97 -0.836928 3.88692 0
M  V30 3275 N 305.967 -1.56429 0.191757 0
M  V30 3276 C 306.93 -2.17707 -0.716688 0
M  V30 3277 C 307.93 -1.13061 -1.14341 0
M  V30 3278 O 309.12 -1.38464 -1.05704 0
M  V30 3279 C 306.252 -2.77644 -1.97804 0
M  V30 3280 H 307.445 -2.99342 -0.1829 0
M  V30 3281 H 304.998 -1.56193 -0.0578566 0
M  V30 3282 H 305.733 -1.99799 -2.55443 0
M  V30 3283 H 305.518 -3.54246 -1.68083 0
M  V30 3284 H 307.008 -3.24708 -2.62592 0
M  V30 3285 N 307.445 0.0818655 -1.57387 0
M  V30 3286 C 308.861 0.436412 -1.53517 0
M  V30 3287 C 309.061 1.79758 -0.910459 0
M  V30 3288 O 308.117 2.47324 -0.508636 0
M  V30 3289 C 309.43 0.386734 -2.98203 0
M  V30 3290 C 310.978 0.467644 -3.09487 0
M  V30 3291 C 311.453 0.447978 -4.55804 0
M  V30 3292 N 312.944 0.508348 -4.60402 0
M  V30 3293 C 313.679 0.515184 -5.71081 0
M  V30 3294 N 313.175 0.477435 -6.91153 0
M  V30 3295 N 314.968 0.560988 -5.59294 0
M  V30 3296 H 307.119 -0.809546 -1.96367 0
M  V30 3297 H 309.382 -0.302733 -0.898363 0
M  V30 3298 H 309.088 -0.546539 -3.47427 0
M  V30 3299 H 308.962 1.20075 -3.57578 0
M  V30 3300 H 311.349 1.39134 -2.60242 0
M  V30 3301 H 311.43 -0.374753 -2.5304 0
M  V30 3302 H 311.074 -0.471826 -5.05704 0
M  V30 3303 H 311.004 1.30777 -5.10103 0
M  V30 3304 H 313.495 0.54218 -3.7399 0
M  V30 3305 H 313.808 0.486299 -7.71268 0
M  V30 3306 H 312.153 0.444278 -6.93579 0
M  V30 3307 H 315.344 0.5881 -4.64391 0
M  V30 3308 H 315.517 0.562846 -6.45551 0
M  V30 3309 N 308.923 1.53595 0.353017 0
M  V30 3310 C 309.886 1.80232 1.41594 0
M  V30 3311 C 310.886 0.673081 1.46035 0
M  V30 3312 O 312.076 0.941335 1.46576 0
M  V30 3313 C 309.208 1.93578 2.80607 0
M  V30 3314 H 310.401 2.75174 1.19244 0
M  V30 3315 H 307.954 1.44864 0.586872 0
M  V30 3316 H 308.689 1.00746 3.08254 0
M  V30 3317 H 308.474 2.75724 2.78781 0
M  V30 3318 H 309.964 2.15735 3.57558 0
M  V30 3319 N 310.401 -0.613514 1.45168 0
M  V30 3320 C 311.364 -1.7065 1.53007 0
M  V30 3321 C 312.364 -1.5548 0.410184 0
M  V30 3322 O 313.554 -1.60656 0.673455 0
M  V30 3323 C 310.686 -3.09875 1.42093 0
M  V30 3324 H 311.879 -1.65068 2.50385 0
M  V30 3325 H 309.432 -0.828728 1.32521 0
M  V30 3326 H 310.167 -3.21039 0.458769 0
M  V30 3327 H 309.952 -3.22293 2.23315 0
M  V30 3328 H 311.442 -3.895 1.50598 0
M  V30 3329 N 311.879 -1.3236 -0.855495 0
M  V30 3330 C 312.812 -1.15559 -1.96777 0
M  V30 3331 C 313.79 -0.0552681 -1.62506 0
M  V30 3332 O 314.974 -0.214419 -1.87277 0
M  V30 3333 C 312.101 -0.768851 -3.29858 0
M  V30 3334 C 311.147 -1.87429 -3.83109 0
M  V30 3335 S 311.98 -3.48243 -4.06801 0
M  V30 3336 C 313.136 -3.11539 -5.42858 0
M  V30 3337 H 313.369 -2.09717 -2.10727 0
M  V30 3338 H 310.902 -1.17011 -1.00737 0
M  V30 3339 H 312.86 -0.55248 -4.06765 0
M  V30 3340 H 311.521 0.153857 -3.13723 0
M  V30 3341 H 310.714 -1.55667 -4.79358 0
M  V30 3342 H 310.316 -2.04647 -3.13042 0
M  V30 3343 H 312.608 -2.61331 -6.2507 0
M  V30 3344 H 313.551 -4.06806 -5.79582 0
M  V30 3345 H 313.959 -2.48582 -5.06821 0
M  V30 3346 N 313.357 1.07166 -1.15556 0
M  V30 3347 C 314.773 1.31899 -0.898603 0
M  V30 3348 C 314.973 1.96333 0.453383 0
M  V30 3349 O 314.029 2.22438 1.19489 0
M  V30 3350 C 315.342 2.20826 -2.04099 0
M  V30 3351 C 316.89 2.34269 -2.07574 0
M  V30 3352 C 317.365 3.26546 -3.21141 0
M  V30 3353 N 318.856 3.34127 -3.20801 0
M  V30 3354 C 319.591 4.05595 -4.05315 0
M  V30 3355 N 319.087 4.79661 -4.99897 0
M  V30 3356 N 320.88 4.01555 -3.93332 0
M  V30 3357 H 313.031 0.637302 -2.02613 0
M  V30 3358 H 315.294 0.343468 -0.883591 0
M  V30 3359 H 315 1.80744 -3.01703 0
M  V30 3360 H 314.874 3.21364 -1.97496 0
M  V30 3361 H 317.261 2.73603 -1.10568 0
M  V30 3362 H 317.342 1.33429 -2.18244 0
M  V30 3363 H 316.986 2.87931 -4.184 0
M  V30 3364 H 316.916 4.27345 -3.07708 0
M  V30 3365 H 319.407 2.81336 -2.52306 0
M  V30 3366 H 319.72 5.31694 -5.60822 0
M  V30 3367 H 318.065 4.78671 -5.03884 0
M  V30 3368 H 321.256 3.42806 -3.18751 0
M  V30 3369 H 321.429 4.56987 -4.5942 0
M  V30 3370 N 314.835 0.952656 1.25548 0
M  V30 3371 C 316.246 0.647392 1.75116 0
M  V30 3372 C 316.597 -0.837274 1.77438 0
M  V30 3373 O 315.722 -1.65525 1.39393 0
M  V30 3374 C 316.317 1.16845 3.18014 0
M  V30 3375 C 314.876 0.913382 3.6515 0
M  V30 3376 C 314.023 1.31265 2.44264 0
M  V30 3377 H 316.974 1.12968 1.11462 0
M  V30 3378 H 316.995 0.527606 3.76824 0
M  V30 3379 H 316.507 2.24902 3.16292 0
M  V30 3380 H 314.608 -0.152316 3.72289 0
M  V30 3381 H 314.721 1.54845 4.53387 0
M  V30 3382 H 313.085 0.731028 2.43984 0
M  V30 3383 H 313.868 2.40239 2.45234 0
M  V30 3384 N 316.313 -1.40141 0.720998 0
M  V30 3385 C 317.56 -2.00787 0.262842 0
M  V30 3386 C 317.888 -1.5718 -1.14563 0
M  V30 3387 O 317.143 -0.785391 -1.79249 0
M  V30 3388 C 317.442 -3.56165 0.296892 0
M  V30 3389 C 317.108 -4.19373 1.65641 0
M  V30 3390 C 315.77 -4.36352 2.02855 0
M  V30 3391 C 318.122 -4.54578 2.54968 0
M  V30 3392 C 315.45 -4.8582 3.28931 0
M  V30 3393 C 317.802 -5.05447 3.80402 0
M  V30 3394 C 316.466 -5.20635 4.17726 0
M  V30 3395 H 315.736 -0.734731 0.0961807 0
M  V30 3396 H 318.383 -1.67673 0.925093 0
M  V30 3397 H 316.688 -3.8922 -0.448932 0
M  V30 3398 H 318.385 -4.00929 -0.0755208 0
M  V30 3399 H 314.975 -4.06549 1.35704 0
M  V30 3400 H 319.159 -4.41091 2.27491 0
M  V30 3401 H 314.415 -4.95764 3.57811 0
M  V30 3402 H 318.589 -5.31663 4.49786 0
M  V30 3403 H 316.216 -5.58728 5.15487 0
M  V30 3404 N 317.792 -0.46758 -1.50504 0
M  V30 3405 C 319.069 0.15003 -1.95024 0
M  V30 3406 C 319.449 1.57304 -1.40779 0
M  V30 3407 O 318.797 2.20281 -0.607319 0
M  V30 3408 C 319.007 0.0969324 -3.48865 0
M  V30 3409 C 320.355 0.287565 -4.23625 0
M  V30 3410 O 321.379 0.173678 -3.55776 0
M  V30 3411 O 320.238 0.517186 -5.44047 0
M  V30 3412 H 317.332 0.113582 -0.819163 0
M  V30 3413 H 319.878 -0.52773 -1.61286 0
M  V30 3414 H 318.65 -0.896732 -3.80886 0
M  V30 3415 H 318.273 0.816303 -3.8913 0
M  V30 3416 N 319.27 1.56325 -0.20005 0
M  V30 3417 C 320.681 1.8408 0.31167 0
M  V30 3418 C 321.032 1.12087 1.61031 0
M  V30 3419 O 320.157 0.38332 2.12978 0
M  V30 3420 C 320.752 3.33932 0.57226 0
M  V30 3421 C 319.311 3.6208 1.02834 0
M  V30 3422 C 318.458 2.77186 0.079634 0
M  V30 3423 H 321.409 1.52939 -0.423729 0
M  V30 3424 H 321.43 3.52971 1.42096 0
M  V30 3425 H 320.942 3.86303 -0.37308 0
M  V30 3426 H 319.043 3.15147 1.98778 0
M  V30 3427 H 319.156 4.7023 0.917624 0
M  V30 3428 H 317.52 2.47951 0.582448 0
M  V30 3429 H 318.303 3.32347 -0.860238 0
M  V30 3430 N 320.748 -0.0735177 1.57428 0
M  V30 3431 C 321.973 -0.789787 1.91774 0
M  V30 3432 C 322.398 -1.70413 0.796306 0
M  V30 3433 O 321.756 -1.79555 -0.250961 0
M  V30 3434 C 321.804 -1.5609 3.25067 0
M  V30 3435 O 320.908 -2.67144 3.14178 0
M  V30 3436 H 320.249 -0.215582 0.628029 0
M  V30 3437 H 322.779 -0.0422781 2.04556 0
M  V30 3438 H 322.789 -1.94052 3.58898 0
M  V30 3439 H 321.464 -0.890015 4.06265 0
M  V30 3440 H 320.041 -2.32052 2.91901 0
M  V30 3441 N 322.226 -1.5378 -0.344866 0
M  V30 3442 C 323.454 -1.74899 -1.10534 0
M  V30 3443 C 323.869 -0.487534 -1.82397 0
M  V30 3444 O 323.226 0.540741 -1.74305 0
M  V30 3445 C 323.277 -2.92822 -2.11984 0
M  V30 3446 O 322.998 -4.14089 -1.43044 0
M  V30 3447 C 324.499 -3.25982 -3.00417 0
M  V30 3448 H 321.719 -0.584426 -0.329678 0
M  V30 3449 H 324.263 -2.006 -0.397474 0
M  V30 3450 H 322.418 -2.69457 -2.78338 0
M  V30 3451 H 322.832 -4.80272 -2.10805 0
M  V30 3452 H 324.306 -4.11848 -3.67539 0
M  V30 3453 H 324.783 -2.42228 -3.66363 0
M  V30 3454 H 325.389 -3.51349 -2.39654 0
M  V30 3455 N 323.704 0.605807 -1.45491 0
M  V30 3456 C 324.634 1.72709 -1.57143 0
M  V30 3457 C 325.615 1.6476 -0.422884 0
M  V30 3458 O 326.8 1.83132 -0.646247 0
M  V30 3459 C 323.93 3.11316 -1.53948 0
M  V30 3460 C 322.884 3.34077 -2.67537 0
M  V30 3461 C 322.21 4.72975 -2.49397 0
M  V30 3462 C 323.51 3.24158 -4.09535 0
M  V30 3463 H 325.204 1.63214 -2.51001 0
M  V30 3464 H 322.75 0.78379 -1.208 0
M  V30 3465 H 324.703 3.89557 -1.60696 0
M  V30 3466 H 323.427 3.21655 -0.566205 0
M  V30 3467 H 322.086 2.58227 -2.6022 0
M  V30 3468 H 321.734 4.8005 -1.50205 0
M  V30 3469 H 321.434 4.8916 -3.25571 0
M  V30 3470 H 322.958 5.53414 -2.58002 0
M  V30 3471 H 324.372 3.92271 -4.18086 0
M  V30 3472 H 322.769 3.51872 -4.86113 0
M  V30 3473 H 323.839 2.2157 -4.31317 0
M  V30 3474 N 325.182 1.32811 0.848464 0
M  V30 3475 C 326.112 1.24882 1.97299 0
M  V30 3476 C 327.093 0.131357 1.69592 0
M  V30 3477 O 328.278 0.319553 1.91553 0
M  V30 3478 C 325.408 0.97746 3.33261 0
M  V30 3479 C 324.362 2.05682 3.75338 0
M  V30 3480 C 323.688 1.63777 5.09 0
M  V30 3481 C 324.988 3.47254 3.90144 0
M  V30 3482 H 326.682 2.18966 2.04191 0
M  V30 3483 H 324.228 1.05413 0.981029 0
M  V30 3484 H 326.181 0.908513 4.1149 0
M  V30 3485 H 324.905 0.000980011 3.266 0
M  V30 3486 H 323.564 2.11603 2.99366 0
M  V30 3487 H 323.212 0.648569 4.98801 0
M  V30 3488 H 322.912 2.36 5.38124 0
M  V30 3489 H 324.436 1.5833 5.89715 0
M  V30 3490 H 325.85 3.43888 4.58709 0
M  V30 3491 H 324.247 4.1788 4.30693 0
M  V30 3492 H 325.317 3.86462 2.92874 0
M  V30 3493 N 326.66 -1.06551 1.16123 0
M  V30 3494 C 328.071 -1.60768 0.949232 0
M  V30 3495 C 328.422 -1.89523 -0.507508 0
M  V30 3496 O 327.547 -1.66671 -1.38021 0
M  V30 3497 C 328.142 -2.92086 1.71671 0
M  V30 3498 C 326.701 -3.43015 1.54977 0
M  V30 3499 C 325.848 -2.16947 1.72711 0
M  V30 3500 H 328.799 -0.895354 1.31031 0
M  V30 3501 H 328.82 -3.6138 1.19099 0
M  V30 3502 H 328.332 -2.71127 2.7769 0
M  V30 3503 H 326.433 -3.69039 0.513873 0
M  V30 3504 H 326.546 -4.18516 2.33198 0
M  V30 3505 H 324.91 -2.27041 1.15431 0
M  V30 3506 H 325.693 -1.98473 2.80113 0
M  V30 3507 N 328.138 -0.959301 -1.25041 0
M  V30 3508 C 329.366 -0.633949 -1.96948 0
M  V30 3509 C 329.781 0.794916 -1.7125 0
M  V30 3510 O 329.138 1.53231 -0.991287 0
M  V30 3511 C 329.189 -0.888805 -3.50403 0
M  V30 3512 O 328.91 -2.26149 -3.75218 0
M  V30 3513 C 330.411 -0.576482 -4.39536 0
M  V30 3514 H 327.631 -0.237263 -0.627652 0
M  V30 3515 H 330.175 -1.28495 -1.59089 0
M  V30 3516 H 328.33 -0.284145 -3.86357 0
M  V30 3517 H 328.744 -2.33514 -4.6965 0
M  V30 3518 H 330.218 -0.805314 -5.46094 0
M  V30 3519 H 330.695 0.489075 -4.36468 0
M  V30 3520 H 331.301 -1.16067 -4.09156 0
M  V30 3521 N 329.616 1.39756 -0.72842 0
M  V30 3522 C 330.856 2.025 -0.278078 0
M  V30 3523 C 331.22 1.5654 1.11173 0
M  V30 3524 O 332.421 2.11435 1.65978 0
M  V30 3525 C 330.692 3.55489 -0.369139 0
M  V30 3526 S 332.251 4.388 0.00232983 0
M  V30 3527 H 329.069 0.702534 -0.109391 0
M  V30 3528 H 331.671 1.70672 -0.95348 0
M  V30 3529 H 330.375 3.86429 -1.38204 0
M  V30 3530 H 329.906 3.92061 0.324308 0
M  V30 3531 H 331.921 4.80954 1.22055 0
M  V30 3532 N 331.094 0.475555 1.50254 0
M  V30 3533 C 332.34 -0.0701075 2.03279 0
M  V30 3534 C 332.695 -1.37007 1.35081 0
M  V30 3535 O 331.988 -1.8577 0.469052 0
M  V30 3536 C 332.182 -0.305114 3.56095 0
M  V30 3537 C 332.011 0.970515 4.39103 0
M  V30 3538 C 330.781 1.51509 4.82051 0
M  V30 3539 C 332.979 1.8671 4.79212 0
M  V30 3540 N 330.961 2.73928 5.49397 0
M  V30 3541 C 332.332 2.93715 5.46014 0
M  V30 3542 C 334.387 1.87695 4.61167 0
M  V30 3543 C 333.09 4.01699 5.96683 0
M  V30 3544 C 335.116 2.94637 5.12779 0
M  V30 3545 C 334.478 4.00361 5.79561 0
M  V30 3546 H 330.577 0.014486 0.781866 0
M  V30 3547 H 333.161 0.644755 1.83714 0
M  V30 3548 H 331.332 -0.989019 3.75597 0
M  V30 3549 H 333.064 -0.845516 3.95769 0
M  V30 3550 H 329.819 1.06367 4.61501 0
M  V30 3551 H 330.243 3.36109 5.87673 0
M  V30 3552 H 334.885 1.07273 4.08965 0
M  V30 3553 H 332.603 4.82934 6.4792 0
M  V30 3554 H 336.189 2.96388 5.00645 0
M  V30 3555 H 335.069 4.81751 6.18778 0
M  V30 3556 N 332.573 -1.56217 0.208337 0
M  V30 3557 C 333.85 -1.89739 -0.475234 0
M  V30 3558 C 334.23 -1.1238 -1.78701 0
M  V30 3559 O 333.578 -0.228979 -2.2735 0
M  V30 3560 C 333.788 -3.42289 -0.681101 0
M  V30 3561 C 335.136 -4.12789 -0.994507 0
M  V30 3562 O 336.16 -3.47814 -0.768357 0
M  V30 3563 O 335.019 -5.27649 -1.42299 0
M  V30 3564 H 332.113 -0.788478 -0.249461 0
M  V30 3565 H 334.659 -1.67855 0.249538 0
M  V30 3566 H 333.431 -3.90534 0.244722 0
M  V30 3567 H 333.054 -3.69909 -1.45785 0
M  V30 3568 N 334.051 0.0651679 -1.57465 0
M  V30 3569 C 335.281 0.774683 -1.91526 0
M  V30 3570 C 335.689 1.71305 -0.803196 0
M  V30 3571 O 335.032 1.82231 0.231881 0
M  V30 3572 C 335.094 1.61645 -3.21109 0
M  V30 3573 C 334.758 0.846753 -4.49087 0
M  V30 3574 C 335.755 0.163024 -5.19644 0
M  V30 3575 C 333.44 0.811966 -4.95694 0
M  V30 3576 C 335.434 -0.54519 -6.35064 0
M  V30 3577 C 333.121 0.0999836 -6.11018 0
M  V30 3578 C 334.119 -0.577388 -6.80555 0
M  V30 3579 O 333.807 -1.27789 -7.93678 0
M  V30 3580 H 333.539 0.225031 -0.637446 0
M  V30 3581 H 336.093 0.0377134 -2.05365 0
M  V30 3582 H 334.323 2.39638 -3.03497 0
M  V30 3583 H 336.012 2.20525 -3.40769 0
M  V30 3584 H 336.778 0.181163 -4.84662 0
M  V30 3585 H 332.657 1.32867 -4.41438 0
M  V30 3586 H 336.201 -1.07446 -6.89276 0
M  V30 3587 H 332.098 0.0797945 -6.45451 0
M  V30 3588 H 332.866 -1.18784 -8.09835 0
M  V30 3589 N 335.529 1.53961 0.336706 0
M  V30 3590 C 336.775 1.7273 1.07406 0
M  V30 3591 C 337.13 0.488095 1.86106 0
M  V30 3592 O 336.423 -0.519379 1.84426 0
M  V30 3593 C 336.617 2.93493 2.03953 0
M  V30 3594 C 336.446 4.29039 1.34744 0
M  V30 3595 C 335.216 4.93416 1.08942 0
M  V30 3596 C 337.414 5.08501 0.770115 0
M  V30 3597 N 335.396 6.12821 0.363864 0
M  V30 3598 C 336.767 6.19752 0.175472 0
M  V30 3599 C 338.822 4.93349 0.671633 0
M  V30 3600 C 337.525 7.17503 -0.508081 0
M  V30 3601 C 339.551 5.914 0.0018076 0
M  V30 3602 C 338.913 7.01993 -0.581835 0
M  V30 3603 H 335.012 0.685026 0.377177 0
M  V30 3604 H 337.596 1.91403 0.356815 0
M  V30 3605 H 335.767 2.76308 2.72962 0
M  V30 3606 H 337.499 3.00949 2.70577 0
M  V30 3607 H 334.254 4.53099 1.37833 0
M  V30 3608 H 334.678 6.76998 0.0156092 0
M  V30 3609 H 339.32 4.08007 1.1086 0
M  V30 3610 H 337.038 8.02414 -0.956918 0
M  V30 3611 H 340.624 5.81753 -0.0738538 0
M  V30 3612 H 339.504 7.76561 -1.09192 0
M  V30 3613 N 337.007 -0.598083 1.45811 0
M  V30 3614 C 338.235 -1.38322 1.53866 0
M  V30 3615 C 338.65 -1.87992 0.174479 0
M  V30 3616 O 338.007 -1.62756 -0.825627 0
M  V30 3617 C 338.058 -2.58125 2.53089 0
M  V30 3618 O 337.779 -2.10516 3.84206 0
M  V30 3619 C 339.28 -3.50869 2.70935 0
M  V30 3620 H 336.5 -0.423093 0.520801 0
M  V30 3621 H 339.044 -0.728527 1.91083 0
M  V30 3622 H 337.199 -3.19615 2.18917 0
M  V30 3623 H 337.613 -2.88425 4.38077 0
M  V30 3624 H 339.087 -4.31451 3.44317 0
M  V30 3625 H 339.564 -4.01822 1.77301 0
M  V30 3626 H 340.17 -2.95225 3.06141 0
M  V30 3627 N 338.485 -1.33259 -0.841409 0
M  V30 3628 C 339.715 -1.2742 -1.62628 0
M  V30 3629 C 340.123 0.157604 -1.88542 0
M  V30 3630 O 339.466 1.10938 -1.46419 0
M  V30 3631 C 339.528 -1.97797 -3.00194 0
M  V30 3632 C 339.192 -3.47109 -2.97261 0
M  V30 3633 C 340.189 -4.42358 -2.73159 0
M  V30 3634 C 337.874 -3.89247 -3.17478 0
M  V30 3635 C 339.868 -5.77718 -2.69296 0
M  V30 3636 C 337.555 -5.24713 -3.13241 0
M  V30 3637 C 338.553 -6.1876 -2.89181 0
M  V30 3638 O 338.241 -7.51745 -2.84843 0
M  V30 3639 H 337.973 -0.440436 -0.512827 0
M  V30 3640 H 340.527 -1.76153 -1.05638 0
M  V30 3641 H 338.757 -1.43652 -3.59028 0
M  V30 3642 H 340.446 -1.8549 -3.61038 0
M  V30 3643 H 341.212 -4.11127 -2.57294 0
M  V30 3644 H 337.091 -3.16456 -3.35226 0
M  V30 3645 H 340.635 -6.51097 -2.50436 0
M  V30 3646 H 336.532 -5.55569 -3.28654 0
M  V30 3647 H 337.3 -7.61262 -3.00702 0
M  V30 3648 N 339.963 1.05934 -1.16686 0
M  V30 3649 C 340.926 2.11669 -0.879144 0
M  V30 3650 C 341.926 1.60294 0.127445 0
M  V30 3651 O 343.116 1.7389 -0.103865 0
M  V30 3652 C 340.248 3.39438 -0.315425 0
M  V30 3653 H 341.441 2.38626 -1.81653 0
M  V30 3654 H 338.994 1.22058 -0.976299 0
M  V30 3655 H 339.729 3.18132 0.629468 0
M  V30 3656 H 339.514 3.78034 -1.04079 0
M  V30 3657 H 341.004 4.17391 -0.132189 0
M  V30 3658 N 341.441 0.965919 1.2453 0
M  V30 3659 C 342.689 0.625593 1.92174 0
M  V30 3660 C 343.01 -0.841652 1.75901 0
M  V30 3661 O 342.28 -1.60061 1.12948 0
M  V30 3662 H 340.86 0.228388 0.71123 0
M  V30 3663 H 343.522 1.2266 1.51461 0
M  V30 3664 H 342.618 0.864653 2.99884 0
M  V30 3665 N 342.919 -1.39368 0.735821 0
M  V30 3666 C 344.144 -2.05319 0.293052 0
M  V30 3667 C 344.569 -1.55115 -1.064 0
M  V30 3668 O 343.927 -0.695261 -1.67439 0
M  V30 3669 C 343.975 -3.59305 0.305323 0
M  V30 3670 O 343.079 -4.06299 -0.706761 0
M  V30 3671 H 342.42 -0.650529 0.13307 0
M  V30 3672 H 344.95 -1.78386 1.00197 0
M  V30 3673 H 344.96 -4.07724 0.149997 0
M  V30 3674 H 343.635 -3.95207 1.29553 0
M  V30 3675 H 342.212 -3.69292 -0.517504 0
M  V30 3676 N 344.397 -0.483516 -1.5 0
M  V30 3677 C 345.327 0.293829 -2.31644 0
M  V30 3678 C 346.308 0.978864 -1.39112 0
M  V30 3679 O 347.493 0.973644 -1.68029 0
M  V30 3680 C 344.623 1.36897 -3.19181 0
M  V30 3681 C 343.577 0.804833 -4.20365 0
M  V30 3682 C 342.903 1.9792 -4.96721 0
M  V30 3683 C 344.203 -0.192313 -5.21946 0
M  V30 3684 H 345.897 -0.387616 -2.9688 0
M  V30 3685 H 343.443 -0.187856 -1.42769 0
M  V30 3686 H 345.396 1.92037 -3.751 0
M  V30 3687 H 344.12 2.07936 -2.51853 0
M  V30 3688 H 342.779 0.275319 -3.65565 0
M  V30 3689 H 342.427 2.67686 -4.25856 0
M  V30 3690 H 342.127 1.60789 -5.65173 0
M  V30 3691 H 343.651 2.53526 -5.55479 0
M  V30 3692 H 345.065 0.270333 -5.72662 0
M  V30 3693 H 343.462 -0.478543 -5.98189 0
M  V30 3694 H 344.532 -1.11409 -4.71928 0
M  V30 3695 N 345.875 1.56104 -0.216619 0
M  V30 3696 C 347.103 2.02563 0.421413 0
M  V30 3697 C 347.518 1.0965 1.53695 0
M  V30 3698 O 346.875 0.10521 1.82196 0
M  V30 3699 C 346.926 3.48584 0.957665 0
M  V30 3700 O 346.647 4.37953 -0.113389 0
M  V30 3701 C 348.148 4.10664 1.66943 0
M  V30 3702 H 345.368 0.662944 0.103665 0
M  V30 3703 H 347.912 2.01793 -0.331629 0
M  V30 3704 H 346.067 3.49985 1.661 0
M  V30 3705 H 346.481 5.23704 0.288932 0
M  V30 3706 H 347.955 5.14622 1.99671 0
M  V30 3707 H 348.432 3.55373 2.58083 0
M  V30 3708 H 349.038 4.13098 1.01142 0
M  V30 3709 N 347.353 -0.0568162 1.57498 0
M  V30 3710 C 348.581 -0.765626 1.92213 0
M  V30 3711 C 348.996 -1.70353 0.813961 0
M  V30 3712 O 348.353 -1.81268 -0.211701 0
M  V30 3713 C 348.404 -1.5465 3.2675 0
M  V30 3714 O 348.125 -0.646278 4.33307 0
M  V30 3715 C 349.626 -2.35497 3.75574 0
M  V30 3716 H 346.846 -0.216835 0.634999 0
M  V30 3717 H 349.39 -0.0226146 2.04487 0
M  V30 3718 H 347.545 -2.24165 3.15957 0
M  V30 3719 H 347.959 -1.19093 5.108 0
M  V30 3720 H 349.433 -2.85722 4.72299 0
M  V30 3721 H 349.91 -3.15692 3.05344 0
M  V30 3722 H 350.516 -1.7111 3.8936 0
M  V30 3723 N 348.832 -1.54138 -0.328536 0
M  V30 3724 C 350.243 -1.63395 -0.903272 0
M  V30 3725 C 350.594 -0.524828 -1.8905 0
M  V30 3726 O 349.719 0.343068 -2.13663 0
M  V30 3727 C 350.314 -2.9618 -1.64507 0
M  V30 3728 C 348.873 -3.0765 -2.1686 0
M  V30 3729 C 348.02 -2.58933 -0.992416 0
M  V30 3730 H 350.971 -1.58344 -0.106253 0
M  V30 3731 H 350.992 -2.86061 -2.50897 0
M  V30 3732 H 350.504 -3.76884 -0.926302 0
M  V30 3733 H 348.605 -2.31611 -2.91868 0
M  V30 3734 H 348.718 -4.1337 -2.42202 0
M  V30 3735 H 347.082 -2.14706 -1.37016 0
M  V30 3736 H 347.865 -3.42089 -0.288041 0
M  V30 3737 N 350.31 0.590341 -1.46126 0
M  V30 3738 C 351.721 1.17243 -1.45296 0
M  V30 3739 C 352.072 1.95281 -0.189723 0
M  V30 3740 O 351.197 2.04502 0.707674 0
M  V30 3741 C 351.792 2.13284 -2.6324 0
M  V30 3742 C 350.351 2.66832 -2.65476 0
M  V30 3743 C 349.498 1.42557 -2.3785 0
M  V30 3744 H 352.449 0.378692 -1.54116 0
M  V30 3745 H 352.47 2.96619 -2.38323 0
M  V30 3746 H 351.982 1.56459 -3.55165 0
M  V30 3747 H 350.083 3.27548 -1.77603 0
M  V30 3748 H 350.196 3.10088 -3.65215 0
M  V30 3749 H 348.56 1.72107 -1.87753 0
M  V30 3750 H 349.343 0.875741 -3.31942 0
M  V30 3751 N 351.788 1.33704 0.83433 0
M  V30 3752 C 352.718 1.26967 1.95963 0
M  V30 3753 C 353.699 0.149337 1.69443 0
M  V30 3754 O 354.884 0.339852 1.91203 0
M  V30 3755 C 352.014 1.01275 3.32206 0
M  V30 3756 C 350.968 2.09652 3.73136 0
M  V30 3757 C 350.294 1.69166 5.07235 0
M  V30 3758 C 351.594 3.51372 3.86439 0
M  V30 3759 H 353.288 2.2112 2.01857 0
M  V30 3760 H 350.834 1.06447 0.969793 0
M  V30 3761 H 352.787 0.952106 4.10503 0
M  V30 3762 H 351.511 0.0356203 3.26581 0
M  V30 3763 H 350.17 2.14766 2.97104 0
M  V30 3764 H 349.818 0.701437 4.98085 0
M  V30 3765 H 349.518 2.41694 5.35591 0
M  V30 3766 H 351.042 1.64576 5.88003 0
M  V30 3767 H 352.456 3.48734 4.55036 0
M  V30 3768 H 350.853 4.22425 4.26236 0
M  V30 3769 H 351.923 3.89546 2.88759 0
M  V30 3770 N 353.266 -1.05314 1.17247 0
M  V30 3771 C 354.494 -1.81971 0.984593 0
M  V30 3772 C 354.909 -1.82929 -0.467166 0
M  V30 3773 O 354.266 -1.25564 -1.32438 0
M  V30 3774 C 354.317 -3.28143 1.51672 0
M  V30 3775 O 354.038 -3.27347 2.91163 0
M  V30 3776 C 355.539 -4.21493 1.37326 0
M  V30 3777 H 352.759 -0.573455 0.348411 0
M  V30 3778 H 355.303 -1.32808 1.55506 0
M  V30 3779 H 353.458 -3.74582 0.988302 0
M  V30 3780 H 353.872 -4.18824 3.15732 0
M  V30 3781 H 355.346 -5.22043 1.79375 0
M  V30 3782 H 355.823 -4.38031 0.320169 0
M  V30 3783 H 356.429 -3.80909 1.89178 0
M  V30 3784 N 354.744 -0.972509 -1.24016 0
M  V30 3785 C 355.654 -0.5143 -2.28893 0
M  V30 3786 C 356.67 0.427078 -1.68677 0
M  V30 3787 O 357.846 0.298939 -1.99169 0
M  V30 3788 C 354.911 0.183598 -3.46214 0
M  V30 3789 C 353.972 -0.798202 -4.21814 0
M  V30 3790 C 353.205 -0.133514 -5.33533 0
M  V30 3791 O 353.428 1.07714 -5.60137 0
M  V30 3792 O 352.362 -0.828103 -5.96176 0
M  V30 3793 H 356.188 -1.38629 -2.70214 0
M  V30 3794 H 353.773 -0.739769 -1.29799 0
M  V30 3795 H 355.655 0.575433 -4.17453 0
M  V30 3796 H 354.33 1.03048 -3.0686 0
M  V30 3797 H 353.237 -1.24059 -3.52931 0
M  V30 3798 H 354.57 -1.61364 -4.64997 0
M  V30 3799 N 356.222 1.38976 -0.743202 0
M  V30 3800 C 357.447 2.05161 -0.303936 0
M  V30 3801 C 357.872 1.55677 1.05576 0
M  V30 3802 O 357.23 0.704131 1.67068 0
M  V30 3803 C 357.278 3.59138 -0.324373 0
M  V30 3804 O 356.382 4.06668 0.685204 0
M  V30 3805 H 355.723 0.649815 -0.136518 0
M  V30 3806 H 358.253 1.77852 -1.01142 0
M  V30 3807 H 358.263 4.07639 -0.171618 0
M  V30 3808 H 356.938 3.94515 -1.31647 0
M  V30 3809 H 355.515 3.69561 0.497913 0
M  V30 3810 N 357.7 0.491464 1.49741 0
M  V30 3811 C 358.946 -0.0565092 2.02721 0
M  V30 3812 C 359.279 -1.37522 1.37118 0
M  V30 3813 O 358.554 -1.87866 0.503645 0
M  V30 3814 C 358.837 -0.219051 3.59433 0
M  V30 3815 C 358.69 1.12211 4.35579 0
M  V30 3816 C 360.009 -0.964157 4.29409 0
M  V30 3817 H 357.128 -0.0190627 0.736753 0
M  V30 3818 H 359.77 0.641021 1.7886 0
M  V30 3819 H 357.92 -0.813165 3.79895 0
M  V30 3820 H 359.592 1.75437 4.26637 0
M  V30 3821 H 357.835 1.71377 3.98513 0
M  V30 3822 H 358.506 0.961794 5.43556 0
M  V30 3823 H 360.982 -0.460378 4.13545 0
M  V30 3824 H 359.858 -1.04671 5.38828 0
M  V30 3825 H 360.119 -2.00563 3.93988 0
M  V30 3826 N 359.178 -1.55987 0.224894 0
M  V30 3827 C 360.406 -2.02784 -0.410665 0
M  V30 3828 C 360.821 -1.10464 -1.53112 0
M  V30 3829 O 360.178 -0.114871 -1.82138 0
M  V30 3830 C 360.229 -3.49087 -0.939165 0
M  V30 3831 O 359.95 -4.37887 0.136614 0
M  V30 3832 C 361.451 -4.11543 -1.64763 0
M  V30 3833 H 358.671 -0.663484 -0.100148 0
M  V30 3834 H 361.215 -2.01614 0.342326 0
M  V30 3835 H 359.37 -3.50861 -1.64242 0
M  V30 3836 H 359.784 -5.23849 -0.261155 0
M  V30 3837 H 361.258 -5.15673 -1.96939 0
M  V30 3838 H 361.735 -3.56736 -2.56195 0
M  V30 3839 H 362.341 -4.13629 -0.989503 0
M  V30 3840 N 360.656 0.0484629 -1.57525 0
M  V30 3841 C 361.902 0.738854 -1.89506 0
M  V30 3842 C 362.257 1.73989 -0.821319 0
M  V30 3843 O 361.55 1.90825 0.172129 0
M  V30 3844 C 361.744 1.46632 -3.25935 0
M  V30 3845 C 361.573 0.537254 -4.46479 0
M  V30 3846 C 360.343 0.165484 -5.05029 0
M  V30 3847 C 362.541 -0.176085 -5.13998 0
M  V30 3848 N 360.523 -0.766868 -6.09091 0
M  V30 3849 C 361.894 -0.96478 -6.12448 0
M  V30 3850 C 363.949 -0.24509 -4.97296 0
M  V30 3851 C 362.652 -1.8161 -6.95996 0
M  V30 3852 C 364.678 -1.08347 -5.81391 0
M  V30 3853 C 364.04 -1.86014 -6.79395 0
M  V30 3854 H 360.139 0.245067 -0.742608 0
M  V30 3855 H 362.723 -0.000476161 -1.947 0
M  V30 3856 H 360.894 2.17623 -3.21706 0
M  V30 3857 H 362.626 2.10757 -3.45491 0
M  V30 3858 H 359.381 0.523466 -4.70698 0
M  V30 3859 H 359.805 -1.22698 -6.65788 0
M  V30 3860 H 364.447 0.341063 -4.21422 0
M  V30 3861 H 362.165 -2.41313 -7.71229 0
M  V30 3862 H 365.751 -1.14014 -5.70519 0
M  V30 3863 H 364.631 -2.4984 -7.43337 0
M  V30 3864 N 362.134 1.5431 0.320358 0
M  V30 3865 C 363.383 1.7188 1.05546 0
M  V30 3866 C 363.696 0.501143 1.89071 0
M  V30 3867 O 364.902 0.558258 2.65699 0
M  V30 3868 C 363.358 3.04025 1.92605 0
M  V30 3869 C 362.966 4.33207 1.14176 0
M  V30 3870 C 364.71 3.30959 2.65832 0
M  V30 3871 C 362.617 5.56412 2.00399 0
M  V30 3872 H 361.547 0.640547 0.397763 0
M  V30 3873 H 364.198 1.80802 0.313522 0
M  V30 3874 H 362.58 2.89019 2.7071 0
M  V30 3875 H 363.754 4.58989 0.40819 0
M  V30 3876 H 362.069 4.13062 0.526165 0
M  V30 3877 H 364.666 4.20203 3.30656 0
M  V30 3878 H 365.009 2.48979 3.33639 0
M  V30 3879 H 365.542 3.46847 1.94787 0
M  V30 3880 H 362.281 6.41004 1.37094 0
M  V30 3881 H 361.801 5.34844 2.7148 0
M  V30 3882 H 363.48 5.92938 2.58908 0
M  V30 3883 N 363.613 -0.582584 1.46437 0
M  V30 3884 C 364.862 -1.337 1.5102 0
M  V30 3885 C 365.175 -1.94891 0.166359 0
M  V30 3886 O 366.381 -2.71351 0.0899954 0
M  V30 3887 C 364.837 -2.42315 2.66104 0
M  V30 3888 C 364.445 -1.87427 4.06909 0
M  V30 3889 C 366.189 -3.19099 2.79958 0
M  V30 3890 C 364.096 -2.93672 5.13333 0
M  V30 3891 H 363.026 -0.502619 0.562041 0
M  V30 3892 H 365.677 -0.621701 1.72647 0
M  V30 3893 H 364.059 -3.16645 2.37807 0
M  V30 3894 H 365.233 -1.19639 4.44998 0
M  V30 3895 H 363.548 -1.2331 3.97723 0
M  V30 3896 H 366.145 -3.9839 3.56636 0
M  V30 3897 H 366.488 -3.71695 1.87479 0
M  V30 3898 H 367.021 -2.51875 3.07902 0
M  V30 3899 H 363.76 -2.45962 6.07604 0
M  V30 3900 H 363.28 -3.59948 4.79789 0
M  V30 3901 H 364.959 -3.5762 5.39182 0
M  V30 3902 N 365.091 -1.34144 -0.827227 0
M  V30 3903 C 366.023 -1.21206 -1.9453 0
M  V30 3904 C 367.036 -0.140176 -1.62195 0
M  V30 3905 O 368.225 -0.391647 -1.7415 0
M  V30 3906 C 365.325 -0.839141 -3.28347 0
M  V30 3907 C 364.498 -2.0051 -3.88734 0
M  V30 3908 C 363.557 -1.61128 -5.00923 0
M  V30 3909 O 362.583 -2.32726 -5.19449 0
M  V30 3910 N 363.785 -0.522958 -5.7814 0
M  V30 3911 H 366.55 -2.17525 -2.06162 0
M  V30 3912 H 364.111 -1.27043 -1.00358 0
M  V30 3913 H 366.103 -0.557556 -4.00841 0
M  V30 3914 H 364.673 0.0337293 -3.12582 0
M  V30 3915 H 363.893 -2.45166 -3.08686 0
M  V30 3916 H 365.181 -2.78498 -4.25812 0
M  V30 3917 H 364.579 0.0723518 -5.65654 0
M  V30 3918 H 363.136 -0.301089 -6.51104 0
M  V30 3919 N 366.569 1.04691 -1.17803 0
M  V30 3920 C 367.516 2.12557 -0.899343 0
M  V30 3921 C 368.486 1.65339 0.158771 0
M  V30 3922 O 369.671 1.90789 0.0204797 0
M  V30 3923 C 366.811 3.42481 -0.424315 0
M  V30 3924 C 365.924 4.03346 -1.54713 0
M  V30 3925 C 365.059 5.21208 -1.02546 0
M  V30 3926 C 364.098 5.74089 -2.12339 0
M  V30 3927 N 363.235 6.83247 -1.61612 0
M  V30 3928 H 368.075 2.35734 -1.823 0
M  V30 3929 H 365.612 1.1564 -0.909159 0
M  V30 3930 H 367.57 4.16996 -0.130421 0
M  V30 3931 H 366.2 3.19471 0.462377 0
M  V30 3932 H 365.252 3.2622 -1.95664 0
M  V30 3933 H 366.564 4.38628 -2.37501 0
M  V30 3934 H 365.718 6.02812 -0.685718 0
M  V30 3935 H 364.457 4.87414 -0.167084 0
M  V30 3936 H 363.462 4.91111 -2.47165 0
M  V30 3937 H 364.687 6.0993 -2.98601 0
M  V30 3938 H 362.633 6.5134 -0.780533 0
M  V30 3939 H 362.55 7.17559 -2.38003 0
M  V30 3940 H 363.818 7.68491 -1.30545 0
M  V30 3941 N 368.047 0.979072 1.23499 0
M  V30 3942 C 368.957 0.526431 2.28617 0
M  V30 3943 C 369.973 -0.418126 1.68901 0
M  V30 3944 O 371.149 -0.288372 1.99325 0
M  V30 3945 C 368.214 -0.165235 3.46306 0
M  V30 3946 C 367.275 0.82056 4.21385 0
M  V30 3947 C 366.508 0.161807 5.33455 0
M  V30 3948 O 366.731 -1.04742 5.60701 0
M  V30 3949 O 365.665 0.859708 5.95729 0
M  V30 3950 H 369.491 1.4006 2.69475 0
M  V30 3951 H 367.076 0.746643 1.29405 0
M  V30 3952 H 368.958 -0.553287 4.17752 0
M  V30 3953 H 367.633 -1.01419 3.07402 0
M  V30 3954 H 366.54 1.25929 3.52268 0
M  V30 3955 H 367.873 1.63828 4.64135 0
M  V30 3956 N 369.525 -1.3858 0.750561 0
M  V30 3957 C 370.936 -1.82927 0.373438 0
M  V30 3958 C 371.287 -1.62634 -1.09748 0
M  V30 3959 O 370.412 -1.12588 -1.84805 0
M  V30 3960 C 371.007 -3.32088 0.671029 0
M  V30 3961 C 369.566 -3.74795 0.34722 0
M  V30 3962 C 368.713 -2.61391 0.92575 0
M  V30 3963 H 371.664 -1.27351 0.946958 0
M  V30 3964 H 371.685 -3.80465 -0.0518269 0
M  V30 3965 H 371.197 -3.46826 1.74164 0
M  V30 3966 H 369.298 -3.65638 -0.716933 0
M  V30 3967 H 369.411 -4.71667 0.840656 0
M  V30 3968 H 367.775 -2.52265 0.351327 0
M  V30 3969 H 368.558 -2.78929 2.00133 0
M  V30 3970 N 371.003 -0.499398 -1.49478 0
M  V30 3971 C 372.249 0.0457576 -2.02748 0
M  V30 3972 C 372.582 1.36793 -1.37846 0
M  V30 3973 O 371.857 1.87596 -0.513601 0
M  V30 3974 C 372.14 0.199986 -3.59544 0
M  V30 3975 C 371.993 -1.1452 -4.34977 0
M  V30 3976 C 373.312 0.94137 -4.29914 0
M  V30 3977 H 370.431 0.0151552 -0.736844 0
M  V30 3978 H 373.073 -0.650498 -1.78518 0
M  V30 3979 H 371.223 0.793007 -3.8032 0
M  V30 3980 H 372.895 -1.77697 -4.25701 0
M  V30 3981 H 371.138 -1.73488 -3.97598 0
M  V30 3982 H 371.809 -0.990607 -5.43039 0
M  V30 3983 H 374.285 0.43844 -4.13784 0
M  V30 3984 H 373.161 1.01812 -5.39375 0
M  V30 3985 H 373.422 1.98471 -3.95046 0
M  V30 3986 N 372.481 1.55866 -0.233164 0
M  V30 3987 C 373.391 2.24431 0.683217 0
M  V30 3988 C 374.407 1.2558 1.2044 0
M  V30 3989 O 375.583 1.58422 1.24356 0
M  V30 3990 C 372.648 2.91979 1.86947 0
M  V30 3991 C 371.709 4.06204 1.38912 0
M  V30 3992 C 370.942 4.70522 2.51883 0
M  V30 3993 O 371.165 4.33865 3.70293 0
M  V30 3994 O 370.099 5.59296 2.22423 0
M  V30 3995 H 373.925 3.03426 0.129059 0
M  V30 3996 H 371.51 1.494 -0.0022283 0
M  V30 3997 H 373.392 3.34573 2.56201 0
M  V30 3998 H 372.067 2.15935 2.41151 0
M  V30 3999 H 370.974 3.68155 0.664259 0
M  V30 4000 H 372.307 4.84025 0.893328 0
M  V30 4001 N 373.959 -0.0401083 1.57549 0
M  V30 4002 C 375.205 -0.734211 1.89043 0
M  V30 4003 C 375.538 -1.75591 0.829535 0
M  V30 4004 O 374.813 -1.93868 -0.156706 0
M  V30 4005 C 375.096 -1.41374 3.31188 0
M  V30 4006 C 374.949 -0.406299 4.47961 0
M  V30 4007 C 376.268 -2.35061 3.72068 0
M  V30 4008 H 373.387 -0.265447 0.687537 0
M  V30 4009 H 376.029 0.00294087 1.9 0
M  V30 4010 H 374.179 -2.04206 3.30503 0
M  V30 4011 H 375.851 0.219255 4.60779 0
M  V30 4012 H 374.094 0.275485 4.32924 0
M  V30 4013 H 374.765 -0.920022 5.44279 0
M  V30 4014 H 377.241 -1.82282 3.74049 0
M  V30 4015 H 376.117 -2.79593 4.72355 0
M  V30 4016 H 376.378 -3.21258 3.0372 0
M  V30 4017 N 375.437 -1.54477 -0.31217 0
M  V30 4018 C 376.4 -1.83923 -1.36766 0
M  V30 4019 C 377.4 -0.711563 -1.44199 0
M  V30 4020 O 378.59 -0.979866 -1.44029 0
M  V30 4021 C 375.722 -2.0095 -2.75376 0
M  V30 4022 H 376.915 -2.78239 -1.11906 0
M  V30 4023 H 374.468 -1.46369 -0.548257 0
M  V30 4024 H 375.203 -1.08883 -3.05475 0
M  V30 4025 H 374.988 -2.83018 -2.71373 0
M  V30 4026 H 376.478 -2.2514 -3.51713 0
M  V30 4027 N 376.915 0.57481 -1.46744 0
M  V30 4028 C 378.326 1.15695 -1.46532 0
M  V30 4029 C 378.677 1.95068 -0.210425 0
M  V30 4030 O 377.802 2.05241 0.685944 0
M  V30 4031 C 378.397 2.1048 -2.65487 0
M  V30 4032 C 376.956 2.64002 -2.68291 0
M  V30 4033 C 376.103 1.40026 -2.39349 0
M  V30 4034 H 379.054 0.362325 -1.54509 0
M  V30 4035 H 379.075 2.94074 -2.41455 0
M  V30 4036 H 378.587 1.52683 -3.56805 0
M  V30 4037 H 376.688 3.25646 -1.81067 0
M  V30 4038 H 376.801 3.06197 -3.68483 0
M  V30 4039 H 375.165 1.70106 -1.89568 0
M  V30 4040 H 375.948 0.840485 -3.32852 0
M  V30 4041 N 378.394 1.34581 0.820102 0
M  V30 4042 C 379.619 1.30333 1.61332 0
M  V30 4043 C 380.044 -0.119339 1.87721 0
M  V30 4044 O 379.402 -1.08197 1.45475 0
M  V30 4045 C 379.45 2.10258 2.92957 0
M  V30 4046 O 378.554 1.47404 3.85157 0
M  V30 4047 H 377.895 0.447488 0.490561 0
M  V30 4048 H 380.425 1.77425 1.01889 0
M  V30 4049 H 380.435 2.21718 3.42498 0
M  V30 4050 H 379.11 3.13693 2.73074 0
M  V30 4051 H 377.687 1.44703 3.43679 0
M  V30 4052 N 379.872 -1.04064 1.18357 0
M  V30 4053 C 380.804 -2.12114 0.868358 0
M  V30 4054 C 381.817 -1.62247 -0.134045 0
M  V30 4055 O 383.006 -1.78253 0.0937933 0
M  V30 4056 C 380.106 -3.37773 0.276132 0
M  V30 4057 C 379.279 -4.16874 1.3242 0
M  V30 4058 C 378.338 -5.20861 0.747662 0
M  V30 4059 O 377.364 -5.51141 1.42239 0
M  V30 4060 N 378.566 -5.78715 -0.454823 0
M  V30 4061 H 381.331 -2.39748 1.79836 0
M  V30 4062 H 378.892 -1.20258 1.08396 0
M  V30 4063 H 380.884 -4.04513 -0.123133 0
M  V30 4064 H 379.454 -3.07581 -0.557895 0
M  V30 4065 H 378.674 -3.45456 1.89878 0
M  V30 4066 H 379.962 -4.66516 2.03078 0
M  V30 4067 H 379.36 -5.56415 -1.02073 0
M  V30 4068 H 377.917 -6.46921 -0.79601 0
M  V30 4069 N 381.35 -0.985608 -1.22978 0
M  V30 4070 C 382.28 -0.549649 -2.26939 0
M  V30 4071 C 383.261 0.419803 -1.64838 0
M  V30 4072 O 384.446 0.31203 -1.91677 0
M  V30 4073 C 381.576 0.143652 -3.47003 0
M  V30 4074 C 380.53 -0.743606 -4.21491 0
M  V30 4075 C 379.856 0.0822027 -5.34637 0
M  V30 4076 C 381.156 -2.03694 -4.80943 0
M  V30 4077 H 382.85 -1.41862 -2.63658 0
M  V30 4078 H 380.396 -0.683571 -1.26741 0
M  V30 4079 H 382.349 0.459985 -4.18882 0
M  V30 4080 H 381.073 1.04711 -3.09359 0
M  V30 4081 H 379.732 -1.04347 -3.51436 0
M  V30 4082 H 379.38 0.986359 -4.93234 0
M  V30 4083 H 379.08 -0.508377 -5.85397 0
M  V30 4084 H 380.604 0.392797 -6.09335 0
M  V30 4085 H 382.018 -1.78504 -5.44802 0
M  V30 4086 H 380.415 -2.57573 -5.42011 0
M  V30 4087 H 381.485 -2.72042 -4.01399 0
M  V30 4088 N 382.828 1.3818 -0.7579 0
M  V30 4089 C 384.053 2.04827 -0.325679 0
M  V30 4090 C 384.478 1.56788 1.03919 0
M  V30 4091 O 383.836 0.721811 1.66312 0
M  V30 4092 C 383.884 3.58774 -0.362447 0
M  V30 4093 O 382.988 4.07372 0.642033 0
M  V30 4094 H 382.329 0.64833 -0.143402 0
M  V30 4095 H 384.859 1.7677 -1.03023 0
M  V30 4096 H 384.869 4.07434 -0.214844 0
M  V30 4097 H 383.544 3.93096 -1.35824 0
M  V30 4098 H 382.121 3.70068 0.458688 0
M  V30 4099 N 384.306 0.507319 1.49211 0
M  V30 4100 C 385.269 -0.256763 2.27757 0
M  V30 4101 C 386.269 -0.888287 1.34038 0
M  V30 4102 O 387.459 -0.751841 1.5714 0
M  V30 4103 C 384.591 -1.36905 3.12202 0
M  V30 4104 H 385.784 0.432557 2.96764 0
M  V30 4105 H 383.337 0.262488 1.5408 0
M  V30 4106 H 384.072 -2.09233 2.47775 0
M  V30 4107 H 383.857 -0.921599 3.81115 0
M  V30 4108 H 385.347 -1.9071 3.7151 0
M  V30 4109 N 385.784 -1.5574 0.241426 0
M  V30 4110 C 387.031 -1.9881 -0.384836 0
M  V30 4111 C 387.359 -1.12947 -1.58346 0
M  V30 4112 O 386.614 -0.178993 -1.9488 0
M  V30 4113 C 386.913 -3.47308 -0.843317 0
M  V30 4114 C 386.579 -4.50223 0.246946 0
M  V30 4115 C 385.241 -4.78088 0.546399 0
M  V30 4116 C 387.593 -5.11841 0.983282 0
M  V30 4117 C 384.921 -5.64846 1.58636 0
M  V30 4118 C 387.273 -5.99727 2.01272 0
M  V30 4119 C 385.937 -6.25927 2.31888 0
M  V30 4120 H 385.207 -0.727496 -0.140821 0
M  V30 4121 H 387.854 -1.8831 0.348106 0
M  V30 4122 H 386.159 -3.55112 -1.65537 0
M  V30 4123 H 387.856 -3.78017 -1.33806 0
M  V30 4124 H 384.446 -4.286 0.00340639 0
M  V30 4125 H 388.63 -4.90366 0.765182 0
M  V30 4126 H 383.886 -5.83403 1.82896 0
M  V30 4127 H 388.06 -6.46517 2.58823 0
M  V30 4128 H 385.687 -6.92949 3.12611 0
M  V30 4129 N 387.262 0.0317525 -1.57568 0
M  V30 4130 C 388.678 0.38735 -1.54828 0
M  V30 4131 C 388.878 1.7677 -0.967187 0
M  V30 4132 O 387.934 2.45581 -0.587063 0
M  V30 4133 C 389.247 0.291667 -2.99282 0
M  V30 4134 C 390.795 0.368946 -3.10818 0
M  V30 4135 C 391.27 0.302741 -4.56998 0
M  V30 4136 N 392.761 0.361617 -4.61786 0
M  V30 4137 C 393.496 0.333238 -5.72431 0
M  V30 4138 N 392.992 0.257308 -6.92322 0
M  V30 4139 N 394.785 0.382769 -5.60795 0
M  V30 4140 H 386.936 -0.871609 -1.93692 0
M  V30 4141 H 389.199 -0.331161 -0.888277 0
M  V30 4142 H 388.905 -0.656794 -3.45513 0
M  V30 4143 H 388.779 1.08638 -3.61217 0
M  V30 4144 H 391.166 1.30784 -2.64536 0
M  V30 4145 H 391.247 -0.455066 -2.5172 0
M  V30 4146 H 390.891 -0.632473 -5.03947 0
M  V30 4147 H 390.821 1.14482 -5.14005 0
M  V30 4148 H 393.312 0.422923 -3.75526 0
M  V30 4149 H 393.625 0.24068 -7.72425 0
M  V30 4150 H 391.97 0.223396 -6.94641 0
M  V30 4151 H 395.161 0.44006 -4.66027 0
M  V30 4152 H 395.334 0.357184 -6.47015 0
M  V30 4153 N 388.74 1.54641 0.303973 0
M  V30 4154 C 389.968 1.77768 1.05858 0
M  V30 4155 C 390.383 0.535722 1.8104 0
M  V30 4156 O 389.74 -0.494337 1.75677 0
M  V30 4157 C 389.791 2.9834 2.04146 0
M  V30 4158 O 389.512 4.17736 1.32015 0
M  V30 4159 C 391.013 3.33832 2.91669 0
M  V30 4160 H 388.233 0.592961 0.314067 0
M  V30 4161 H 390.777 2.01583 0.344149 0
M  V30 4162 H 388.932 2.76742 2.71096 0
M  V30 4163 H 389.346 4.85693 1.97998 0
M  V30 4164 H 390.82 4.21448 3.56491 0
M  V30 4165 H 391.297 2.51857 3.59812 0
M  V30 4166 H 391.903 3.57579 2.30254 0
M  V30 4167 N 390.218 -0.567019 1.47046 0
M  V30 4168 C 391.148 -1.68482 1.61667 0
M  V30 4169 C 392.129 -1.6358 0.466418 0
M  V30 4170 O 393.314 -1.81354 0.694574 0
M  V30 4171 C 390.444 -3.07124 1.62148 0
M  V30 4172 C 389.398 -3.26867 2.76301 0
M  V30 4173 C 388.724 -4.66196 2.61849 0
M  V30 4174 C 390.024 -3.13186 4.17986 0
M  V30 4175 H 391.718 -1.56502 2.5524 0
M  V30 4176 H 389.264 -0.751486 1.22836 0
M  V30 4177 H 391.217 -3.8516 1.70968 0
M  V30 4178 H 389.941 -3.2004 0.651287 0
M  V30 4179 H 388.6 -2.51237 2.66975 0
M  V30 4180 H 388.248 -4.75898 1.62879 0
M  V30 4181 H 387.948 -4.80356 3.38425 0
M  V30 4182 H 389.472 -5.46379 2.72584 0
M  V30 4183 H 390.886 -3.81049 4.2834 0
M  V30 4184 H 389.283 -3.3886 4.95272 0
M  V30 4185 H 390.353 -2.10057 4.3704 0
M  V30 4186 N 391.696 -1.35014 -0.812953 0
M  V30 4187 C 392.626 -1.30069 -1.93919 0
M  V30 4188 C 393.607 -0.176275 -1.69184 0
M  V30 4189 O 394.792 -0.370227 -1.90638 0
M  V30 4190 C 391.922 -1.06547 -3.30552 0
M  V30 4191 C 390.876 -2.15561 -3.69753 0
M  V30 4192 C 390.202 -1.77214 -5.04479 0
M  V30 4193 C 391.502 -3.57476 -3.808 0
M  V30 4194 H 393.196 -2.24303 -1.98314 0
M  V30 4195 H 390.742 -1.07977 -0.952736 0
M  V30 4196 H 392.695 -1.01729 -4.08937 0
M  V30 4197 H 391.419 -0.0875719 -3.26483 0
M  V30 4198 H 390.078 -2.19466 -2.9365 0
M  V30 4199 H 389.726 -0.780589 -4.96906 0
M  V30 4200 H 389.426 -2.50184 -5.31678 0
M  V30 4201 H 390.95 -1.7391 -5.8531 0
M  V30 4202 H 392.364 -3.55929 -4.4943 0
M  V30 4203 H 390.761 -4.29152 -4.19462 0
M  V30 4204 H 391.831 -3.94091 -2.82525 0
M  V30 4205 N 393.175 1.03435 -1.18907 0
M  V30 4206 C 394.422 1.76743 -0.988334 0
M  V30 4207 C 394.75 1.88447 0.481441 0
M  V30 4208 O 394.005 1.39383 1.37371 0
M  V30 4209 C 394.304 3.19792 -1.59586 0
M  V30 4210 C 393.97 3.28108 -3.09283 0
M  V30 4211 C 392.632 3.30084 -3.5014 0
M  V30 4212 C 394.984 3.27696 -4.05296 0
M  V30 4213 C 392.312 3.29299 -4.85571 0
M  V30 4214 C 394.664 3.28451 -5.4065 0
M  V30 4215 C 393.328 3.28723 -5.80946 0
M  V30 4216 H 392.598 0.64675 -0.361657 0
M  V30 4217 H 395.245 1.21442 -1.48068 0
M  V30 4218 H 393.55 3.78136 -1.02568 0
M  V30 4219 H 395.247 3.75171 -1.41589 0
M  V30 4220 H 391.837 3.27294 -2.76725 0
M  V30 4221 H 396.021 3.25354 -3.74778 0
M  V30 4222 H 391.277 3.2783 -5.16079 0
M  V30 4223 H 395.451 3.27082 -6.14809 0
M  V30 4224 H 393.078 3.27868 -6.85862 0
M  V30 4225 N 394.653 0.992116 1.22453 0
M  V30 4226 C 395.878 0.685644 1.95739 0
M  V30 4227 C 396.303 -0.743 1.72804 0
M  V30 4228 O 395.661 -1.50778 1.00676 0
M  V30 4229 C 395.709 0.996293 3.46564 0
M  V30 4230 O 394.813 0.0945512 4.12292 0
M  V30 4231 H 394.154 0.256694 0.612376 0
M  V30 4232 H 396.684 1.32888 1.5557 0
M  V30 4233 H 396.694 0.93781 3.97076 0
M  V30 4234 H 395.369 2.03733 3.62582 0
M  V30 4235 H 393.946 0.208451 3.72317 0
M  V30 4236 N 396.131 -1.37776 0.765217 0
M  V30 4237 C 397.094 -2.28686 0.153416 0
M  V30 4238 C 398.094 -1.47727 -0.635081 0
M  V30 4239 O 399.284 -1.68027 -0.459632 0
M  V30 4240 C 396.416 -3.31608 -0.790495 0
M  V30 4241 H 397.609 -2.84297 0.954723 0
M  V30 4242 H 395.162 -1.46932 0.53299 0
M  V30 4243 H 395.897 -2.81109 -1.61705 0
M  V30 4244 H 395.682 -3.9144 -0.227348 0
M  V30 4245 H 397.172 -3.99559 -1.21419 0
M  V30 4246 N 397.609 -0.515225 -1.4894 0
M  V30 4247 C 398.539 0.244628 -2.32215 0
M  V30 4248 C 399.52 0.949136 -1.41157 0
M  V30 4249 O 400.705 0.937783 -1.70057 0
M  V30 4250 C 397.835 1.30096 -3.22013 0
M  V30 4251 C 396.789 0.715486 -4.21977 0
M  V30 4252 C 396.115 1.87339 -5.00808 0
M  V30 4253 C 397.415 -0.302982 -5.2142 0
M  V30 4254 H 399.109 -0.450501 -2.95991 0
M  V30 4255 H 396.655 -0.218098 -1.42339 0
M  V30 4256 H 398.608 1.84037 -3.79089 0
M  V30 4257 H 397.332 2.02547 -2.56207 0
M  V30 4258 H 395.991 0.197715 -3.66066 0
M  V30 4259 H 395.639 2.58592 -4.31438 0
M  V30 4260 H 395.339 1.48764 -5.68457 0
M  V30 4261 H 396.863 2.41686 -5.60732 0
M  V30 4262 H 398.277 0.148802 -5.73107 0
M  V30 4263 H 396.674 -0.60532 -5.97039 0
M  V30 4264 H 397.744 -1.21395 -4.69459 0
M  V30 4265 N 399.087 1.5561 -0.249682 0
M  V30 4266 C 400.335 1.98618 0.373548 0
M  V30 4267 C 400.656 1.13919 1.58264 0
M  V30 4268 O 399.926 0.222637 1.94631 0
M  V30 4269 H 398.506 0.733571 0.141006 0
M  V30 4270 H 401.168 1.91748 -0.349117 0
M  V30 4271 H 400.264 3.04584 0.680796 0
M  V30 4272 N 400.565 -0.0233959 1.57583 0
M  V30 4273 C 401.475 -1.03907 2.10334 0
M  V30 4274 C 402.491 -1.39257 1.04323 0
M  V30 4275 O 403.667 -1.48462 1.36091 0
M  V30 4276 C 400.732 -2.31938 2.57693 0
M  V30 4277 C 399.793 -2.03117 3.78209 0
M  V30 4278 C 399.026 -3.25043 4.233 0
M  V30 4279 O 399.249 -4.35916 3.67876 0
M  V30 4280 O 398.183 -3.10411 5.15683 0
M  V30 4281 H 402.009 -0.620748 2.97288 0
M  V30 4282 H 399.594 -0.240743 1.47448 0
M  V30 4283 H 401.476 -3.07196 2.88458 0
M  V30 4284 H 400.151 -2.73055 1.73847 0
M  V30 4285 H 399.058 -1.25408 3.52454 0
M  V30 4286 H 400.391 -1.66852 4.63056 0
M  V30 4287 N 402.043 -1.548 -0.295768 0
M  V30 4288 C 402.953 -1.89177 -1.38742 0
M  V30 4289 C 403.969 -0.786481 -1.55211 0
M  V30 4290 O 405.145 -1.08344 -1.69775 0
M  V30 4291 C 402.21 -2.13663 -2.73036 0
M  V30 4292 C 401.271 -3.37349 -2.65508 0
M  V30 4293 C 400.504 -3.60658 -3.93398 0
M  V30 4294 O 400.727 -2.86882 -4.93006 0
M  V30 4295 O 399.661 -4.54179 -3.94975 0
M  V30 4296 H 403.487 -2.82059 -1.12589 0
M  V30 4297 H 401.072 -1.41056 -0.492295 0
M  V30 4298 H 402.954 -2.3094 -3.52484 0
M  V30 4299 H 401.629 -1.23967 -2.99022 0
M  V30 4300 H 400.536 -3.25431 -1.84514 0
M  V30 4301 H 401.869 -4.27192 -2.44474 0
M  V30 4302 N 403.521 0.559213 -1.47345 0
M  V30 4303 C 404.431 1.69388 -1.62311 0
M  V30 4304 C 405.447 1.6648 -0.505993 0
M  V30 4305 O 406.623 1.85964 -0.773262 0
M  V30 4306 C 403.688 3.05894 -1.63185 0
M  V30 4307 C 402.749 3.19885 -2.86307 0
M  V30 4308 C 401.982 4.49879 -2.87131 0
M  V30 4309 O 402.205 5.35217 -1.97229 0
M  V30 4310 O 401.139 4.67618 -3.78968 0
M  V30 4311 H 404.965 1.59706 -2.58317 0
M  V30 4312 H 402.55 0.728989 -1.30407 0
M  V30 4313 H 404.432 3.87133 -1.66451 0
M  V30 4314 H 403.107 3.15964 -0.70345 0
M  V30 4315 H 402.014 2.38052 -2.88587 0
M  V30 4316 H 403.347 3.14718 -3.78435 0
M  V30 4317 N 404.999 1.35443 0.805782 0
M  V30 4318 C 405.946 1.28431 1.91766 0
M  V30 4319 C 406.916 0.156102 1.65365 0
M  V30 4320 O 408.101 0.339936 1.87747 0
M  V30 4321 C 405.241 1.06301 3.2832 0
M  V30 4322 C 404.354 2.2805 3.66902 0
M  V30 4323 C 403.489 1.99064 4.92491 0
M  V30 4324 C 402.528 3.16863 5.23703 0
M  V30 4325 N 401.665 2.87647 6.40471 0
M  V30 4326 H 406.505 2.23511 1.97096 0
M  V30 4327 H 404.042 1.11105 0.964054 0
M  V30 4328 H 406 0.915012 4.07042 0
M  V30 4329 H 404.63 0.148822 3.22457 0
M  V30 4330 H 403.682 2.53711 2.83434 0
M  V30 4331 H 404.994 3.1601 3.85927 0
M  V30 4332 H 404.148 1.81099 5.7904 0
M  V30 4333 H 402.887 1.0839 4.75503 0
M  V30 4334 H 401.892 3.35404 4.35642 0
M  V30 4335 H 403.117 4.08339 5.4262 0
M  V30 4336 H 401.063 1.99568 6.24907 0
M  V30 4337 H 400.98 3.69141 6.59751 0
M  V30 4338 H 402.248 2.73226 7.30047 0
M  V30 4339 N 406.477 -1.02803 1.19454 0
M  V30 4340 C 407.41 -2.107 0.876396 0
M  V30 4341 C 408.388 -1.61741 -0.166897 0
M  V30 4342 O 409.572 -1.88451 -0.0430195 0
M  V30 4343 C 406.699 -3.37262 0.311758 0
M  V30 4344 C 405.745 -4.05093 1.33424 0
M  V30 4345 S 406.578 -4.50498 2.89503 0
M  V30 4346 C 407.734 -5.80277 2.34584 0
M  V30 4347 H 407.967 -2.37362 1.79016 0
M  V30 4348 H 405.5 -1.15755 1.02177 0
M  V30 4349 H 407.458 -4.10499 -0.00748752 0
M  V30 4350 H 406.119 -3.08693 -0.58032 0
M  V30 4351 H 405.312 -4.9611 0.888302 0
M  V30 4352 H 404.914 -3.3803 1.60037 0
M  V30 4353 H 407.206 -6.54873 1.73633 0
M  V30 4354 H 408.149 -6.29651 3.23952 0
M  V30 4355 H 408.557 -5.3599 1.77131 0
M  V30 4356 N 407.956 -0.998596 -1.21925 0
M  V30 4357 C 408.889 -0.498517 -2.22688 0
M  V30 4358 C 409.867 0.444301 -1.56412 0
M  V30 4359 O 411.051 0.368518 -1.84863 0
M  V30 4360 C 408.178 0.276639 -3.37568 0
M  V30 4361 C 407.224 -0.61302 -4.22071 0
M  V30 4362 S 408.057 -2.07168 -4.93803 0
M  V30 4363 C 409.213 -1.30617 -6.12119 0
M  V30 4364 H 409.446 -1.35234 -2.64762 0
M  V30 4365 H 406.979 -0.806018 -1.31692 0
M  V30 4366 H 408.937 0.717817 -4.04175 0
M  V30 4367 H 407.598 1.10581 -2.93991 0
M  V30 4368 H 406.791 -0.0162909 -5.03997 0
M  V30 4369 H 406.393 -0.991202 -3.60626 0
M  V30 4370 H 408.685 -0.57675 -6.75041 0
M  V30 4371 H 409.628 -2.10091 -6.76215 0
M  V30 4372 H 410.036 -0.816957 -5.58557 0
M  V30 4373 N 409.434 1.37368 -0.772513 0
M  V30 4374 C 410.68 1.99969 -0.337681 0
M  V30 4375 C 411.013 1.61184 1.08321 0
M  V30 4376 O 410.288 0.858395 1.74533 0
M  V30 4377 C 410.571 3.56858 -0.482121 0
M  V30 4378 C 410.424 4.0555 -1.94549 0
M  V30 4379 C 411.743 4.39955 0.113143 0
M  V30 4380 H 408.862 0.726464 -0.124171 0
M  V30 4381 H 411.504 1.63034 -0.975699 0
M  V30 4382 H 409.654 3.88452 0.0610361 0
M  V30 4383 H 411.326 3.84518 -2.54841 0
M  V30 4384 H 409.569 3.57715 -2.45403 0
M  V30 4385 H 410.24 5.14587 -1.9976 0
M  V30 4386 H 412.716 4.14623 -0.35031 0
M  V30 4387 H 411.592 5.48897 -0.0180514 0
M  V30 4388 H 411.853 4.25403 1.20354 0
M  V30 4389 N 410.912 0.523116 1.48665 0
M  V30 4390 C 411.86 -0.256859 2.31177 0
M  V30 4391 C 412.854 -0.94199 1.40794 0
M  V30 4392 O 414.06 -0.867157 1.57735 0
M  V30 4393 H 410.435 -0.1017 0.745091 0
M  V30 4394 H 412.406 0.458739 2.94853 0
M  V30 4395 C 411.155 -1.29503 3.22683 0
M  V30 4396 H 410.478 -0.777248 3.92172 0
M  V30 4397 H 411.918 -1.81233 3.83315 0
M  V30 4398 C 410.377 -2.32501 2.43813 0
M  V30 4399 O 410.907 -3.3881 2.15803 0
M  V30 4400 N 409.113 -2.05538 2.05432 0
M  V30 4401 H 408.66 -1.19104 2.28412 0
M  V30 4402 H 408.618 -2.74676 1.52973 0
M  V30 4403 N 412.39 -1.55475 0.257931 0
M  V30 4404 C 413.338 -2.23244 -0.653076 0
M  V30 4405 C 414.332 -1.22366 -1.17144 0
M  V30 4406 O 415.538 -1.40347 -1.12706 0
M  V30 4407 H 411.913 -0.716247 -0.229117 0
M  V30 4408 H 413.884 -2.98343 -0.0584788 0
M  V30 4409 C 412.633 -2.95401 -1.83395 0
M  V30 4410 H 411.956 -3.72802 -1.44424 0
M  V30 4411 H 413.396 -3.46165 -2.44838 0
M  V30 4412 C 411.855 -1.99895 -2.71189 0
M  V30 4413 O 412.385 -1.53909 -3.71046 0
M  V30 4414 N 410.591 -1.6676 -2.3799 0
M  V30 4415 H 410.138 -2.04352 -1.56837 0
M  V30 4416 H 410.096 -1.03127 -2.97005 0
M  V30 4417 N 413.868 0.0150385 -1.57593 0
M  V30 4418 C 415.098 0.713359 -1.93894 0
M  V30 4419 C 415.506 1.68663 -0.857289 0
M  V30 4420 O 414.849 1.82876 0.173788 0
M  V30 4421 C 414.911 1.51348 -3.26089 0
M  V30 4422 C 414.575 0.703451 -4.51554 0
M  V30 4423 C 415.572 -0.00237924 -5.199 0
M  V30 4424 C 413.257 0.653854 -4.98026 0
M  V30 4425 C 415.251 -0.746955 -6.33008 0
M  V30 4426 C 412.938 -0.0944578 -6.11027 0
M  V30 4427 C 413.936 -0.793609 -6.78374 0
M  V30 4428 O 413.624 -1.52974 -7.89211 0
M  V30 4429 H 413.356 0.204637 -0.644282 0
M  V30 4430 H 415.91 -0.0276411 -2.05381 0
M  V30 4431 H 414.14 2.29862 -3.10967 0
M  V30 4432 H 415.829 2.09572 -3.47612 0
M  V30 4433 H 416.595 0.0268803 -4.84993 0
M  V30 4434 H 412.474 1.18756 -4.45441 0
M  V30 4435 H 416.018 -1.2932 -6.85509 0
M  V30 4436 H 411.915 -0.125591 -6.45378 0
M  V30 4437 H 412.683 -1.44488 -8.05646 0
M  V30 4438 N 415.346 1.54954 0.287554 0
M  V30 4439 C 416.762 1.46469 0.633964 0
M  V30 4440 C 416.962 0.666865 1.90145 0
M  V30 4441 O 416.018 0.179906 2.51858 0
M  V30 4442 C 417.331 2.90556 0.774454 0
M  V30 4443 C 418.879 3.00681 0.869462 0
M  V30 4444 C 419.354 4.45993 1.04184 0
M  V30 4445 N 420.845 4.4976 1.10772 0
M  V30 4446 C 421.58 5.59393 1.25964 0
M  V30 4447 N 421.076 6.78923 1.37968 0
M  V30 4448 N 422.869 5.47107 1.28959 0
M  V30 4449 H 415.02 2.05288 -0.545041 0
M  V30 4450 H 417.283 0.930305 -0.182308 0
M  V30 4451 H 416.989 3.51594 -0.086207 0
M  V30 4452 H 416.863 3.38743 1.6593 0
M  V30 4453 H 419.25 2.39749 1.7206 0
M  V30 4454 H 419.331 2.55769 -0.0396831 0
M  V30 4455 H 418.975 5.07524 0.195422 0
M  V30 4456 H 418.905 4.88548 1.96542 0
M  V30 4457 H 421.396 3.63651 1.02794 0
M  V30 4458 H 421.709 7.58231 1.49353 0
M  V30 4459 H 420.054 6.81763 1.34999 0
M  V30 4460 H 423.245 4.52668 1.19202 0
M  V30 4461 H 423.418 6.32595 1.40455 0
M  V30 4462 N 416.824 -0.551391 1.4764 0
M  V30 4463 C 418.235 -1.13349 1.48354 0
M  V30 4464 C 418.586 -1.94709 0.241432 0
M  V30 4465 O 417.711 -2.06306 -0.653205 0
M  V30 4466 C 418.306 -2.0623 2.68802 0
M  V30 4467 C 416.865 -2.597 2.72457 0
M  V30 4468 C 416.012 -1.36201 2.41546 0
M  V30 4469 H 418.963 -0.337698 1.55065 0
M  V30 4470 H 418.984 -2.90196 2.46103 0
M  V30 4471 H 418.496 -1.46987 3.59188 0
M  V30 4472 H 416.597 -3.22724 1.86225 0
M  V30 4473 H 416.71 -3.00296 3.73308 0
M  V30 4474 H 415.074 -1.67068 1.9225 0
M  V30 4475 H 415.857 -0.787425 3.34147 0
M  V30 4476 N 418.302 -1.35869 -0.798587 0
M  V30 4477 C 419.232 -1.32118 -1.92528 0
M  V30 4478 C 420.213 -0.194209 -1.68988 0
M  V30 4479 O 421.398 -0.390426 -1.90235 0
M  V30 4480 C 418.528 -1.10047 -3.29404 0
M  V30 4481 C 417.482 -2.19471 -3.67446 0
M  V30 4482 C 416.808 -1.82555 -5.02571 0
M  V30 4483 C 418.108 -3.61495 -3.76987 0
M  V30 4484 H 419.802 -2.26394 -1.95924 0
M  V30 4485 H 417.348 -1.08981 -0.94123 0
M  V30 4486 H 419.301 -1.06061 -4.07835 0
M  V30 4487 H 418.025 -0.122195 -3.26371 0
M  V30 4488 H 416.684 -2.22568 -2.91306 0
M  V30 4489 H 416.332 -0.833249 -4.9605 0
M  V30 4490 H 416.032 -2.5581 -5.28995 0
M  V30 4491 H 417.556 -1.80108 -5.83432 0
M  V30 4492 H 418.97 -3.60676 -4.4563 0
M  V30 4493 H 417.367 -4.33577 -4.14887 0
M  V30 4494 H 418.437 -3.97065 -2.78329 0
M  V30 4495 N 419.78 1.02168 -1.19998 0
M  V30 4496 C 420.712 2.10705 -0.901994 0
M  V30 4497 C 421.725 1.6244 0.108216 0
M  V30 4498 O 422.914 1.78082 -0.12214 0
M  V30 4499 C 420.014 3.37291 -0.329834 0
M  V30 4500 C 419.187 4.14714 -1.39035 0
M  V30 4501 C 418.246 5.19606 -0.830432 0
M  V30 4502 O 417.272 5.48809 -1.50989 0
M  V30 4503 N 418.474 5.79366 0.362696 0
M  V30 4504 H 421.239 2.36856 -1.83628 0
M  V30 4505 H 418.8 1.18518 -1.10296 0
M  V30 4506 H 420.792 4.04657 0.0587633 0
M  V30 4507 H 419.362 3.0843 0.508891 0
M  V30 4508 H 418.582 3.42392 -1.9535 0
M  V30 4509 H 419.87 4.63226 -2.10474 0
M  V30 4510 H 419.268 5.57968 0.932081 0
M  V30 4511 H 417.825 6.48106 0.69299 0
M  V30 4512 N 421.258 1.00505 1.21394 0
M  V30 4513 C 422.669 0.721082 1.72213 0
M  V30 4514 C 423.02 -0.761263 1.80829 0
M  V30 4515 O 422.145 -1.59464 1.46288 0
M  V30 4516 C 422.74 1.30228 3.12772 0
M  V30 4517 C 421.299 1.06743 3.60947 0
M  V30 4518 C 420.446 1.41507 2.38477 0
M  V30 4519 H 423.397 1.17594 1.06571 0
M  V30 4520 H 423.418 0.686955 3.74247 0
M  V30 4521 H 422.93 2.38115 3.06468 0
M  V30 4522 H 421.031 0.00572162 3.726 0
M  V30 4523 H 421.144 1.73936 4.46411 0
M  V30 4524 H 419.508 0.833852 2.40664 0
M  V30 4525 H 420.291 2.50424 2.34824 0
M  V30 4526 N 422.737 -1.36956 0.779787 0
M  V30 4527 C 423.667 -2.32761 0.185651 0
M  V30 4528 C 424.648 -1.56177 -0.673989 0
M  V30 4529 O 425.833 -1.84378 -0.609797 0
M  V30 4530 C 422.963 -3.40418 -0.687964 0
M  V30 4531 C 421.917 -4.27941 0.0710102 0
M  V30 4532 C 421.243 -5.26681 -0.922573 0
M  V30 4533 C 422.543 -5.07006 1.25467 0
M  V30 4534 H 424.237 -2.82698 0.986008 0
M  V30 4535 H 421.783 -1.3592 0.475592 0
M  V30 4536 H 423.736 -4.06423 -1.11348 0
M  V30 4537 H 422.46 -2.89025 -1.52093 0
M  V30 4538 H 421.119 -3.63478 0.47739 0
M  V30 4539 H 420.767 -4.71565 -1.7503 0
M  V30 4540 H 420.467 -5.86103 -0.419237 0
M  V30 4541 H 421.991 -5.9556 -1.34686 0
M  V30 4542 H 423.405 -5.66105 0.905401 0
M  V30 4543 H 421.802 -5.75793 1.69063 0
M  V30 4544 H 422.872 -4.3921 2.05481 0
M  V30 4545 N 424.215 -0.530993 -1.48385 0
M  V30 4546 C 425.148 0.278511 -2.26494 0
M  V30 4547 C 426.126 0.943905 -1.32398 0
M  V30 4548 O 427.31 0.968098 -1.61741 0
M  V30 4549 C 424.437 1.39453 -3.08659 0
M  V30 4550 C 423.483 0.840434 -4.18137 0
M  V30 4551 S 424.316 -0.292496 -5.34701 0
M  V30 4552 C 425.472 0.825973 -6.20426 0
M  V30 4553 H 425.705 -0.384365 -2.94805 0
M  V30 4554 H 423.238 -0.316799 -1.51115 0
M  V30 4555 H 425.196 2.03382 -3.56575 0
M  V30 4556 H 423.857 2.02913 -2.3976 0
M  V30 4557 H 423.05 1.67769 -4.75257 0
M  V30 4558 H 422.652 0.277819 -3.72967 0
M  V30 4559 H 424.944 1.72438 -6.55188 0
M  V30 4560 H 425.887 0.292728 -7.07495 0
M  V30 4561 H 426.295 1.10683 -5.53543 0
M  V30 4562 N 425.693 1.55336 -0.266172 0
M  V30 4563 C 426.641 2.23587 0.641228 0
M  V30 4564 C 427.635 1.22986 1.16494 0
M  V30 4565 O 428.841 1.40943 1.1196 0
M  V30 4566 H 425.216 0.717452 0.225315 0
M  V30 4567 H 427.187 2.9837 0.0426561 0
M  V30 4568 C 425.936 2.96369 1.81826 0
M  V30 4569 H 425.259 3.73563 1.42445 0
M  V30 4570 H 426.699 3.47459 2.42998 0
M  V30 4571 C 425.158 2.0133 2.70125 0
M  V30 4572 O 425.688 1.55875 3.70224 0
M  V30 4573 N 423.894 1.6802 2.37102 0
M  V30 4574 H 423.441 2.05181 1.55751 0
M  V30 4575 H 423.399 1.047 2.96454 0
M  V30 4576 N 427.171 -0.0066808 1.57599 0
M  V30 4577 C 428.587 -0.36267 1.55425 0
M  V30 4578 C 428.787 -1.75209 0.995187 0
M  V30 4579 O 427.843 -2.44616 0.626058 0
M  V30 4580 C 429.156 -0.244017 2.99708 0
M  V30 4581 C 430.704 -0.319451 3.11366 0
M  V30 4582 C 431.179 -0.229998 4.57422 0
M  V30 4583 N 432.67 -0.288105 4.62303 0
M  V30 4584 C 433.405 -0.242127 5.72889 0
M  V30 4585 N 432.901 -0.147133 6.92644 0
M  V30 4586 N 434.694 -0.293502 5.61333 0
M  V30 4587 H 426.845 0.902314 1.92281 0
M  V30 4588 H 429.108 0.34525 0.882896 0
M  V30 4589 H 428.814 0.711678 3.44424 0
M  V30 4590 H 428.688 -1.02877 3.629 0
M  V30 4591 H 431.075 -1.26559 2.66584 0
M  V30 4592 H 431.156 0.495055 2.50964 0
M  V30 4593 H 430.8 0.712566 5.02877 0
M  V30 4594 H 430.73 -1.0629 5.15761 0
M  V30 4595 H 433.221 -0.363126 3.76151 0
M  V30 4596 H 433.534 -0.117763 7.7271 0
M  V30 4597 H 431.879 -0.112857 6.94908 0
M  V30 4598 H 435.07 -0.365864 4.66668 0
M  V30 4599 H 435.243 -0.254204 6.47501 0
M  V30 4600 N 428.649 -1.55105 -0.279332 0
M  V30 4601 C 429.596 -1.8755 -1.34513 0
M  V30 4602 C 430.566 -0.726384 -1.49375 0
M  V30 4603 O 431.751 -0.977063 -1.63884 0
M  V30 4604 C 428.891 -2.14738 -2.70151 0
M  V30 4605 C 428.004 -3.42285 -2.63562 0
M  V30 4606 C 427.139 -3.59206 -3.91337 0
M  V30 4607 C 426.178 -4.80467 -3.79233 0
M  V30 4608 N 425.315 -4.94079 -4.98829 0
M  V30 4609 H 430.155 -2.78456 -1.06143 0
M  V30 4610 H 427.692 -1.37867 -0.512936 0
M  V30 4611 H 429.65 -2.28501 -3.49061 0
M  V30 4612 H 428.28 -1.27075 -2.96735 0
M  V30 4613 H 427.332 -3.37029 -1.76397 0
M  V30 4614 H 428.644 -4.31328 -2.50515 0
M  V30 4615 H 427.798 -3.72751 -4.78687 0
M  V30 4616 H 426.537 -2.68337 -4.07243 0
M  V30 4617 H 425.542 -4.66932 -2.90266 0
M  V30 4618 H 426.767 -5.72765 -3.64852 0
M  V30 4619 H 424.713 -4.06139 -5.15158 0
M  V30 4620 H 424.63 -5.77156 -4.8829 0
M  V30 4621 H 425.898 -5.12003 -5.8777 0
M  V30 4622 N 430.127 0.543554 -1.4793 0
M  V30 4623 C 431.373 1.30201 -1.55485 0
M  V30 4624 C 431.706 1.92925 -0.222201 0
M  V30 4625 O 430.981 1.78586 0.77053 0
M  V30 4626 C 431.264 2.40174 -2.68307 0
M  V30 4627 C 431.117 1.8223 -4.11233 0
M  V30 4628 C 432.436 3.42024 -2.76961 0
M  V30 4629 H 429.555 0.472036 -0.565996 0
M  V30 4630 H 432.197 0.606914 -1.80046 0
M  V30 4631 H 430.347 2.99463 -2.47495 0
M  V30 4632 H 432.019 1.27096 -4.43446 0
M  V30 4633 H 430.262 1.12832 -4.18869 0
M  V30 4634 H 430.933 2.61793 -4.85972 0
M  V30 4635 H 433.409 2.92672 -2.95774 0
M  V30 4636 H 432.285 4.16383 -3.57654 0
M  V30 4637 H 432.546 4.0173 -1.84568 0
M  V30 4638 N 431.605 1.3629 0.791371 0
M  V30 4639 C 432.851 1.31613 1.5508 0
M  V30 4640 C 433.206 -0.104372 1.92117 0
M  V30 4641 O 432.499 -1.05845 1.5971 0
M  V30 4642 C 432.693 2.17068 2.8393 0
M  V30 4643 C 432.522 3.67285 2.59484 0
M  V30 4644 C 431.292 4.36469 2.54604 0
M  V30 4645 C 433.49 4.60595 2.28816 0
M  V30 4646 N 431.472 5.7234 2.22036 0
M  V30 4647 C 432.843 5.847 2.06218 0
M  V30 4648 C 434.898 4.4918 2.14806 0
M  V30 4649 C 433.601 6.98671 1.71028 0
M  V30 4650 C 435.627 5.63017 1.81014 0
M  V30 4651 C 434.989 6.86159 1.59263 0
M  V30 4652 H 431.088 0.536878 0.568582 0
M  V30 4653 H 433.672 1.71323 0.925007 0
M  V30 4654 H 431.843 1.79605 3.44378 0
M  V30 4655 H 433.575 2.03795 3.49642 0
M  V30 4656 H 430.33 3.89249 2.69782 0
M  V30 4657 H 430.754 6.44093 2.08503 0
M  V30 4658 H 435.396 3.54564 2.30313 0
M  V30 4659 H 433.114 7.9324 1.54259 0
M  V30 4660 H 436.7 5.56146 1.70861 0
M  V30 4661 H 435.58 7.72753 1.335 0
M  V30 4662 N 433.083 -1.0153 1.20538 0
M  V30 4663 C 434.046 -2.0826 0.957098 0
M  V30 4664 C 435.046 -1.60657 -0.0678655 0
M  V30 4665 O 436.236 -1.73385 0.168332 0
M  V30 4666 C 433.368 -3.38033 0.441188 0
M  V30 4667 H 434.561 -2.31719 1.90384 0
M  V30 4668 H 432.114 -1.1835 1.02093 0
M  V30 4669 H 432.849 -3.20249 -0.510961 0
M  V30 4670 H 432.634 -3.73911 1.18038 0
M  V30 4671 H 434.124 -4.16613 0.287009 0
M  V30 4672 N 434.561 -1.01147 -1.20859 0
M  V30 4673 C 435.786 -0.716698 -1.94623 0
M  V30 4674 C 436.211 0.715415 -1.73964 0
M  V30 4675 O 435.569 1.49157 -1.03062 0
M  V30 4676 C 435.617 -1.0513 -3.44935 0
M  V30 4677 O 434.721 -0.160131 -4.12089 0
M  V30 4678 H 434.062 -0.266404 -0.608214 0
M  V30 4679 H 436.592 -1.35346 -1.53436 0
M  V30 4680 H 436.602 -1.00086 -3.95533 0
M  V30 4681 H 435.277 -2.09475 -3.59295 0
M  V30 4682 H 433.854 -0.267657 -3.71938 0
M  V30 4683 N 436.039 1.36541 -0.78704 0
M  V30 4684 C 437.286 1.99304 -0.358341 0
M  V30 4685 C 437.614 1.62467 1.06933 0
M  V30 4686 O 436.869 0.870019 1.75297 0
M  V30 4687 C 437.168 3.54343 -0.466485 0
M  V30 4688 C 436.834 4.10993 -1.85461 0
M  V30 4689 C 435.496 4.26177 -2.23443 0
M  V30 4690 C 437.848 4.41895 -2.76366 0
M  V30 4691 C 435.176 4.69573 -3.51736 0
M  V30 4692 C 437.528 4.86722 -4.04084 0
M  V30 4693 C 436.192 5.00112 -4.42091 0
M  V30 4694 H 435.462 0.729306 -0.131126 0
M  V30 4695 H 438.109 1.63068 -1.00404 0
M  V30 4696 H 436.414 3.90918 0.262719 0
M  V30 4697 H 438.111 4.00833 -0.115854 0
M  V30 4698 H 434.701 3.99612 -1.54946 0
M  V30 4699 H 438.885 4.29735 -2.48277 0
M  V30 4700 H 434.141 4.78127 -3.81057 0
M  V30 4701 H 438.315 5.09598 -4.7464 0
M  V30 4702 H 435.942 5.33498 -5.41557 0
M  V30 4703 N 437.518 0.538854 1.48102 0
M  V30 4704 C 438.45 -0.256278 2.27763 0
M  V30 4705 C 439.463 -0.89633 1.35904 0
M  V30 4706 O 440.652 -0.773275 1.60881 0
M  V30 4707 C 437.752 -1.37896 3.09577 0
M  V30 4708 C 436.925 -0.839159 4.29275 0
M  V30 4709 C 435.984 -1.84405 4.9283 0
M  V30 4710 O 435.01 -1.39746 5.51779 0
M  V30 4711 N 436.212 -3.17666 4.85869 0
M  V30 4712 H 438.977 0.426968 2.96643 0
M  V30 4713 H 436.538 0.373747 1.57527 0
M  V30 4714 H 438.53 -2.04955 3.48963 0
M  V30 4715 H 437.1 -1.96572 2.4306 0
M  V30 4716 H 436.32 0.00769287 3.94199 0
M  V30 4717 H 437.608 -0.457548 5.06739 0
M  V30 4718 H 437.006 -3.56609 4.39143 0
M  V30 4719 H 435.563 -3.80334 5.29329 0
M  V30 4720 N 438.996 -1.55193 0.274407 0
M  V30 4721 C 439.959 -2.212 -0.600279 0
M  V30 4722 C 440.959 -1.18963 -1.08187 0
M  V30 4723 O 442.149 -1.43873 -0.982158 0
M  V30 4724 C 439.281 -2.87739 -1.82809 0
M  V30 4725 H 440.474 -2.9989 -0.0239682 0
M  V30 4726 H 438.027 -1.5628 0.0250192 0
M  V30 4727 H 438.762 -2.13058 -2.44493 0
M  V30 4728 H 438.547 -3.62658 -1.49069 0
M  V30 4729 H 440.037 -3.38171 -2.45011 0
M  V30 4730 N 440.474 -0.00167713 -1.576 0
M  V30 4731 C 441.702 0.693759 -1.94922 0
M  V30 4732 C 442.117 1.67215 -0.876626 0
M  V30 4733 O 441.474 1.81929 0.144279 0
M  V30 4734 C 441.525 1.42416 -3.32265 0
M  V30 4735 O 441.246 0.485014 -4.35407 0
M  V30 4736 C 442.747 2.21395 -3.84056 0
M  V30 4737 H 439.967 0.193118 -0.642609 0
M  V30 4738 H 442.511 -0.0532952 -2.04431 0
M  V30 4739 H 440.666 2.12284 -3.24059 0
M  V30 4740 H 441.08 1.00053 -5.14868 0
M  V30 4741 H 442.554 2.67996 -4.82578 0
M  V30 4742 H 443.031 3.04142 -3.16851 0
M  V30 4743 H 443.637 1.56542 -3.95443 0
M  V30 4744 N 441.952 1.55251 0.271103 0
M  V30 4745 C 442.9 1.89054 1.35504 0
M  V30 4746 C 443.894 0.767064 1.51038 0
M  V30 4747 O 445.1 0.951429 1.528 0
M  V30 4748 H 441.475 0.600072 0.45323 0
M  V30 4749 H 443.446 2.79598 1.04247 0
M  V30 4750 C 442.195 2.18068 2.70817 0
M  V30 4751 H 441.518 3.04005 2.59656 0
M  V30 4752 H 442.958 2.4564 3.45597 0
M  V30 4753 C 441.417 0.988901 3.2206 0
M  V30 4754 O 441.947 0.224501 4.01072 0
M  V30 4755 N 440.153 0.786085 2.79766 0
M  V30 4756 H 439.7 1.40937 2.15626 0
M  V30 4757 H 439.658 -0.00969349 3.14399 0
M  V30 4758 N 443.43 -0.535701 1.48216 0
M  V30 4759 C 444.34 -1.66785 1.64985 0
M  V30 4760 C 445.356 -1.65654 0.532414 0
M  V30 4761 O 446.532 -1.8471 0.80275 0
M  V30 4762 C 443.597 -3.0326 1.68031 0
M  V30 4763 C 442.658 -3.1529 2.9136 0
M  V30 4764 C 441.891 -4.45255 2.94252 0
M  V30 4765 O 442.114 -5.32011 2.05719 0
M  V30 4766 O 441.048 -4.6153 3.86359 0
M  V30 4767 H 444.874 -1.55576 2.60825 0
M  V30 4768 H 442.459 -0.70815 1.31551 0
M  V30 4769 H 444.341 -3.84436 1.72589 0
M  V30 4770 H 443.016 -3.14805 0.753628 0
M  V30 4771 H 441.923 -2.3343 2.92337 0
M  V30 4772 H 443.256 -3.08658 3.83394 0
M  V30 4773 N 444.908 -1.36708 -0.784132 0
M  V30 4774 C 446.156 -1.30972 -1.53918 0
M  V30 4775 C 446.477 0.109086 -1.94695 0
M  V30 4776 O 445.747 1.05048 -1.65353 0
M  V30 4777 H 444.327 -0.481819 -0.570841 0
M  V30 4778 H 446.989 -1.71063 -0.934002 0
M  V30 4779 H 446.085 -1.94061 -2.44431 0
M  V30 4780 N 446.386 1.0089 -1.21074 0
M  V30 4781 C 447.614 1.78191 -1.05145 0
M  V30 4782 C 448.029 1.84537 0.398952 0
M  V30 4783 O 447.386 1.30393 1.27687 0
M  V30 4784 C 447.437 3.22288 -1.63746 0
M  V30 4785 O 447.158 3.16315 -3.03111 0
M  V30 4786 C 448.659 4.16106 -1.52875 0
M  V30 4787 H 445.879 0.560129 -0.369454 0
M  V30 4788 H 448.423 1.26945 -1.60328 0
M  V30 4789 H 446.578 3.70655 -1.12664 0
M  V30 4790 H 446.992 4.06817 -3.31059 0
M  V30 4791 H 448.466 5.15026 -1.98626 0
M  V30 4792 H 448.943 4.36541 -0.482521 0
M  V30 4793 H 449.549 3.73625 -2.03185 0
M  V30 4794 N 447.864 1.01787 1.20321 0
M  V30 4795 C 449.28 0.732951 1.41774 0
M  V30 4796 C 449.48 -0.686883 1.89431 0
M  V30 4797 O 448.536 -1.45446 2.06402 0
M  V30 4798 C 449.849 1.75973 2.43832 0
M  V30 4799 C 451.397 1.77802 2.57596 0
M  V30 4800 C 451.872 2.7941 3.62897 0
M  V30 4801 N 453.363 2.78157 3.70382 0
M  V30 4802 C 454.098 3.53434 4.51521 0
M  V30 4803 N 453.594 4.38392 5.36455 0
M  V30 4804 N 455.387 3.42026 4.46066 0
M  V30 4805 H 447.538 1.93447 0.877035 0
M  V30 4806 H 449.801 0.835712 0.447536 0
M  V30 4807 H 449.507 2.77699 2.15815 0
M  V30 4808 H 449.381 1.57292 3.4284 0
M  V30 4809 H 451.768 0.767602 2.84942 0
M  V30 4810 H 451.849 2.00557 1.58779 0
M  V30 4811 H 451.493 3.80616 3.36295 0
M  V30 4812 H 451.423 2.53916 4.61339 0
M  V30 4813 H 453.914 2.16531 3.09714 0
M  V30 4814 H 454.227 4.92596 5.95457 0
M  V30 4815 H 452.572 4.4247 5.35953 0
M  V30 4816 H 455.763 2.75075 3.78749 0
M  V30 4817 H 455.936 4.00946 5.09064 0
M  V30 4818 N 449.342 -1.36122 0.79427 0
M  V30 4819 C 450.567 -2.03891 0.379871 0
M  V30 4820 C 450.992 -1.59488 -0.997251 0
M  V30 4821 O 450.35 -0.765652 -1.64339 0
M  V30 4822 C 450.398 -3.57687 0.457442 0
M  V30 4823 O 449.502 -4.08931 -0.5338 0
M  V30 4824 H 448.843 -0.6443 0.160541 0
M  V30 4825 H 451.373 -1.73976 1.07673 0
M  V30 4826 H 451.383 -4.06721 0.322792 0
M  V30 4827 H 450.058 -3.89357 1.46199 0
M  V30 4828 H 448.635 -3.71154 -0.360409 0
M  V30 4829 O 450.859 -0.687885 -1.46118 0
M  V30 4830 H 451.55 -0.224178 -1.92398 0
M  V30 END ATOM
M  V30 BEGIN BOND
M  V30 END BOND
M  V30 END CTAB
M  END
$$$$
