drugbank_target|P25105 Platelet-activating factor receptor (DB02261; DB09166; DB11614)
 OpenBabel12092121023D

  0  0  0     0  0            999 V3000
M  V30 BEGIN CTAB
M  V30 COUNTS 5595 5669 0 0 0
M  V30 BEGIN ATOM
M  V30 1 H -0.908 1.98254 -0.117106 0
M  V30 2 N 0 1.576 0 0
M  V30 3 C 0.933 2.03868 1.02534 0
M  V30 4 C 1.911 0.928543 1.3348 0
M  V30 5 O 3.095 1.19667 1.45644 0
M  V30 6 C 0.222 2.43627 2.35294 0
M  V30 7 C -0.732 3.65373 2.2001 0
M  V30 8 S 0.101 5.13292 1.52614 0
M  V30 9 C 1.257 5.56322 2.86805 0
M  V30 10 H 1.49 2.90518 0.631377 0
M  V30 11 H -0.977 1.52953 0.210867 0
M  V30 12 H 0.981 2.67203 3.11629 0
M  V30 13 H -0.358 1.57376 2.7183 0
M  V30 14 H -1.165 3.90944 3.18086 0
M  V30 15 H -1.563 3.418 1.51819 0
M  V30 16 H 0.729 5.58782 3.83104 0
M  V30 17 H 1.672 6.56266 2.65933 0
M  V30 18 H 2.08 4.83886 2.90714 0
M  V30 19 N 1.4781 -0.272755 1.55222 0
M  V30 20 C 2.3881 -1.35918 1.91216 0
M  V30 21 C 3.4041 -1.54026 0.809436 0
M  V30 22 O 4.5801 -1.68148 1.10852 0
M  V30 23 C 1.6451 -2.69834 2.17693 0
M  V30 24 C 0.7061 -2.6047 3.41253 0
M  V30 25 C -0.0609 -3.88 3.66458 0
M  V30 26 O 0.1621 -4.88693 2.94169 0
M  V30 27 O -0.9039 -3.88189 4.59992 0
M  V30 28 H 2.9221 -1.0839 2.83699 0
M  V30 29 H 0.5071 -0.471301 1.41771 0
M  V30 30 H 2.3891 -3.49017 2.36147 0
M  V30 31 H 1.0641 -2.97148 1.28392 0
M  V30 32 H -0.0289 -1.79663 3.28134 0
M  V30 33 H 1.3041 -2.38106 4.30774 0
M  V30 34 N 2.9562 -1.48159 -0.537278 0
M  V30 35 C 4.3672 -1.49429 -1.11928 0
M  V30 36 C 4.7182 -0.26 -1.9447 0
M  V30 37 O 3.8432 0.633489 -2.0692 0
M  V30 38 C 4.4382 -2.70758 -2.03656 0
M  V30 39 C 2.9972 -2.74923 -2.57088 0
M  V30 40 C 2.1442 -2.42835 -1.3389 0
M  V30 41 H 5.0952 -1.55381 -0.322886 0
M  V30 42 H 5.1162 -2.48861 -2.87834 0
M  V30 43 H 4.6282 -3.60575 -1.43553 0
M  V30 44 H 2.7292 -1.89296 -3.20933 0
M  V30 45 H 2.8422 -3.76157 -2.9672 0
M  V30 46 H 1.2062 -1.93836 -1.65226 0
M  V30 47 H 1.9892 -3.34884 -0.755504 0
M  V30 48 N 4.4343 0.785586 -1.36625 0
M  V30 49 C 5.3843 1.88822 -1.27789 0
M  V30 50 C 6.3683 1.60014 -0.168579 0
M  V30 51 O 7.5603 1.72381 -0.401737 0
M  V30 52 C 4.6893 3.26092 -1.07327 0
M  V30 53 C 3.7753 3.60897 -2.22743 0
M  V30 54 N 4.1663 3.66982 -3.48077 0
M  V30 55 C 2.4643 3.90981 -2.14593 0
M  V30 56 C 3.1653 3.98137 -4.24101 0
M  V30 57 N 2.1413 4.13319 -3.53084 0
M  V30 58 H 5.9433 1.91759 -2.22723 0
M  V30 59 H 3.4573 0.981311 -1.29399 0
M  V30 60 H 5.4543 4.04954 -0.990842 0
M  V30 61 H 4.1143 3.24428 -0.132977 0
M  V30 62 H 5.1253 3.49531 -3.82163 0
M  V30 63 H 1.8023 3.9722 -1.2854 0
M  V30 64 H 3.1923 4.09737 -5.32509 0
M  V30 65 N 5.9124 1.20967 1.01018 0
M  V30 66 C 7.1894 0.93264 1.71934 0
M  V30 67 C 7.5694 -0.55692 2.03621 0
M  V30 68 O 6.9174 -1.52035 1.7058 0
M  V30 69 C 7.1274 1.81233 2.98254 0
M  V30 70 C 8.4754 2.05804 3.71389 0
M  V30 71 O 9.4994 1.78539 3.08225 0
M  V30 72 O 8.3584 2.51888 4.84989 0
M  V30 73 H 5.4524 0.349272 0.749625 0
M  V30 74 H 7.9984 1.31871 1.06808 0
M  V30 75 H 6.7704 2.82067 2.71208 0
M  V30 76 H 6.3934 1.42674 3.7112 0
M  V30 77 N 7.3905 -1.2043 1.01659 0
M  V30 78 C 8.6155 -1.94318 0.724942 0
M  V30 79 C 9.0405 -1.74266 -0.708034 0
M  V30 80 O 8.3985 -1.03694 -1.48719 0
M  V30 81 C 8.4465 -3.44486 1.06591 0
M  V30 82 O 7.5505 -4.12017 0.177599 0
M  V30 83 H 6.8915 -0.60708 0.26898 0
M  V30 84 H 9.4215 -1.52861 1.35995 0
M  V30 85 H 9.4315 -3.95106 1.01762 0
M  V30 86 H 8.1065 -3.58404 2.10997 0
M  V30 87 H 6.6835 -3.71821 0.283421 0
M  V30 88 N 8.8686 -0.792821 -1.36206 0
M  V30 89 C 10.0936 -0.377701 -2.03932 0
M  V30 90 C 10.5186 0.998947 -1.59382 0
M  V30 91 O 9.8766 1.64421 -0.763903 0
M  V30 92 C 9.9246 -0.453635 -3.57735 0
M  V30 93 O 9.0286 0.538151 -4.08874 0
M  V30 94 H 8.3696 -0.159855 -0.644471 0
M  V30 95 H 10.8996 -1.07488 -1.7409 0
M  V30 96 H 10.9096 -0.318464 -4.06755 0
M  V30 97 H 9.5846 -1.45784 -3.89512 0
M  V30 98 H 8.1616 0.364359 -3.71116 0
M  V30 99 N 10.3467 1.47872 -0.545128 0
M  V30 100 C 11.2967 2.26842 0.229456 0
M  V30 101 C 12.2807 1.33626 0.896267 0
M  V30 102 O 13.4727 1.58063 0.79657 0
M  V30 103 C 10.6017 3.19089 1.26638 0
M  V30 104 C 9.6877 4.19783 0.603598 0
M  V30 105 N 10.0787 5.0479 -0.319405 0
M  V30 106 C 8.3767 4.3765 0.858989 0
M  V30 107 C 9.0777 5.77433 -0.703241 0
M  V30 108 N 8.0537 5.43566 -0.0608309 0
M  V30 109 H 11.8557 2.89947 -0.480391 0
M  V30 110 H 9.3697 1.58263 -0.364209 0
M  V30 111 H 11.3667 3.74337 1.83515 0
M  V30 112 H 10.0267 2.5754 1.97745 0
M  V30 113 H 11.0377 5.13244 -0.692889 0
M  V30 114 H 7.7147 3.87281 1.55948 0
M  V30 115 H 9.1047 6.55824 -1.46098 0
M  V30 116 N 11.8248 0.280983 1.55075 0
M  V30 117 C 12.7578 -0.645439 2.18882 0
M  V30 118 C 13.7358 -1.14786 1.15165 0
M  V30 119 O 14.9198 -1.21975 1.43716 0
M  V30 120 C 12.0468 -1.88088 2.81674 0
M  V30 121 C 11.0928 -1.51343 3.98745 0
M  V30 122 S 11.9258 -0.586548 5.32278 0
M  V30 123 C 13.0818 -1.83024 5.98543 0
M  V30 124 H 13.3148 -0.1033 2.9712 0
M  V30 125 H 10.8478 0.0652099 1.54262 0
M  V30 126 H 12.8058 -2.58997 3.18482 0
M  V30 127 H 11.4668 -2.39417 2.03318 0
M  V30 128 H 10.6598 -2.43289 4.41392 0
M  V30 129 H 10.2618 -0.884477 3.63391 0
M  V30 130 H 12.5538 -2.77342 6.18133 0
M  V30 131 H 13.4968 -1.44668 6.93164 0
M  V30 132 H 13.9048 -1.99785 5.27964 0
M  V30 133 N 13.3029 -1.57598 0.00835791 0
M  V30 134 C 14.5799 -1.82172 -0.712235 0
M  V30 135 C 14.9599 -0.887873 -1.9152 0
M  V30 136 O 14.3079 0.06146 -2.28417 0
M  V30 137 C 14.5179 -3.30875 -1.11008 0
M  V30 138 C 15.8659 -3.96826 -1.51044 0
M  V30 139 O 16.8899 -3.35248 -1.20364 0
M  V30 140 O 15.7489 -5.05318 -2.08125 0
M  V30 141 H 12.8429 -0.750435 -0.347529 0
M  V30 142 H 15.3889 -1.69665 0.0344523 0
M  V30 143 H 14.1609 -3.90481 -0.252982 0
M  V30 144 H 13.7839 -3.48412 -1.9156 0
M  V30 145 N 14.781 0.264519 -1.55364 0
M  V30 146 C 16.006 1.01726 -1.80739 0
M  V30 147 C 16.431 1.78836 -0.583044 0
M  V30 148 O 15.789 1.75167 0.467566 0
M  V30 149 C 15.837 1.94482 -3.03659 0
M  V30 150 O 14.941 3.03386 -2.7934 0
M  V30 151 H 14.282 0.290395 -0.597132 0
M  V30 152 H 16.812 0.290854 -2.02522 0
M  V30 153 H 16.822 2.36278 -3.32621 0
M  V30 154 H 15.497 1.37772 -3.92418 0
M  V30 155 H 14.074 2.65844 -2.61498 0
M  V30 156 N 16.2591 1.48442 0.529413 0
M  V30 157 C 17.1691 1.6569 1.66084 0
M  V30 158 C 18.1851 0.539432 1.65427 0
M  V30 159 O 19.3611 0.810572 1.84368 0
M  V30 160 C 16.4261 1.69315 3.02545 0
M  V30 161 C 15.4871 2.92694 3.14052 0
M  V30 162 C 14.7201 2.96137 4.44003 0
M  V30 163 O 14.9431 2.07973 5.31134 0
M  V30 164 O 13.8771 3.88312 4.59888 0
M  V30 165 H 17.7031 2.61483 1.54469 0
M  V30 166 H 15.2881 1.3185 0.702567 0
M  V30 167 H 17.1701 1.74217 3.83701 0
M  V30 168 H 15.8451 0.766966 3.14483 0
M  V30 169 H 14.7521 2.93324 2.32189 0
M  V30 170 H 16.0851 3.84699 3.0703 0
M  V30 171 N 17.7372 -0.778329 1.37039 0
M  V30 172 C 18.9842 -1.53665 1.31884 0
M  V30 173 C 19.3122 -1.9425 -0.0986303 0
M  V30 174 O 18.5672 -1.63832 -1.07041 0
M  V30 175 C 18.8662 -2.81845 2.19768 0
M  V30 176 C 18.5322 -2.60345 3.68146 0
M  V30 177 C 17.1942 -2.5419 4.08584 0
M  V30 178 C 19.5462 -2.40923 4.62175 0
M  V30 179 C 16.8742 -2.26594 5.41177 0
M  V30 180 C 19.2262 -2.14852 5.94997 0
M  V30 181 C 17.8902 -2.07137 6.34547 0
M  V30 182 H 17.1602 -0.562299 0.482598 0
M  V30 183 H 19.8072 -0.897069 1.69189 0
M  V30 184 H 18.1122 -3.50328 1.75436 0
M  V30 185 H 19.8092 -3.39692 2.13097 0
M  V30 186 H 16.3992 -2.65996 3.36072 0
M  V30 187 H 20.5832 -2.44673 4.31797 0
M  V30 188 H 15.8392 -2.19111 5.70789 0
M  V30 189 H 20.0132 -1.98822 6.67415 0
M  V30 190 H 17.6402 -1.85518 7.37216 0
M  V30 191 N 19.2153 -1.21501 -1.00376 0
M  V30 192 C 20.6313 -0.972629 -1.26539 0
M  V30 193 C 20.8313 0.340257 -1.98606 0
M  V30 194 O 19.8873 1.06561 -2.28913 0
M  V30 195 C 21.2003 -2.16404 -2.08781 0
M  V30 196 C 22.7483 -2.20643 -2.22004 0
M  V30 197 C 23.2233 -3.39306 -3.07629 0
M  V30 198 N 24.7143 -3.39401 -3.15217 0
M  V30 199 C 25.4493 -4.27867 -3.81729 0
M  V30 200 N 24.9453 -5.26533 -4.5026 0
M  V30 201 N 26.7383 -4.15672 -3.78382 0
M  V30 202 H 18.8893 -2.05929 -0.520281 0
M  V30 203 H 21.1523 -0.901803 -0.292328 0
M  V30 204 H 20.8583 -3.11554 -1.63178 0
M  V30 205 H 20.7323 -2.15567 -3.09533 0
M  V30 206 H 23.1193 -1.26048 -2.66825 0
M  V30 207 H 23.2003 -2.25523 -1.20718 0
M  V30 208 H 22.8443 -4.34195 -2.63509 0
M  V30 209 H 22.7743 -3.31665 -4.09031 0
M  V30 210 H 25.2653 -2.67997 -2.66432 0
M  V30 211 H 25.5783 -5.90337 -4.98721 0
M  V30 212 H 23.9233 -5.30457 -4.49044 0
M  V30 213 H 27.1143 -3.3785 -3.23998 0
M  V30 214 H 27.2873 -4.84825 -4.2994 0
M  V30 215 N 20.6934 1.19889 -1.02296 0
M  V30 216 C 21.9234 1.93109 -0.734332 0
M  V30 217 C 22.3314 1.75377 0.709889 0
M  V30 218 O 21.6744 1.06912 1.49384 0
M  V30 219 C 21.7364 3.45362 -0.99827 0
M  V30 220 C 21.4004 3.8686 -2.43287 0
M  V30 221 C 22.3974 3.92102 -3.41397 0
M  V30 222 C 20.0824 4.18668 -2.77529 0
M  V30 223 C 22.0764 4.28573 -4.71809 0
M  V30 224 C 19.7634 4.54813 -4.08153 0
M  V30 225 C 20.7614 4.59739 -5.05103 0
M  V30 226 O 20.4494 4.95051 -6.33388 0
M  V30 227 H 20.1814 0.620409 -0.268456 0
M  V30 228 H 22.7354 1.53144 -1.3688 0
M  V30 229 H 20.9654 3.85482 -0.306645 0
M  V30 230 H 22.6544 3.99814 -0.700234 0
M  V30 231 H 23.4204 3.67685 -3.1628 0
M  V30 232 H 19.2994 4.14021 -2.0275 0
M  V30 233 H 22.8434 4.32333 -5.4748 0
M  V30 234 H 18.7404 4.78687 -4.33047 0
M  V30 235 H 19.5084 5.1302 -6.37772 0
M  V30 236 N 22.1715 0.800033 1.35784 0
M  V30 237 C 23.3995 0.389606 2.03199 0
M  V30 238 C 23.8145 -0.997375 1.60306 0
M  V30 239 O 23.1715 -1.64154 0.797481 0
M  V30 240 C 23.2225 0.455855 3.58614 0
M  V30 241 O 22.9435 1.78815 3.99946 0
M  V30 242 C 24.4445 0.0374032 4.43284 0
M  V30 243 H 21.6645 0.159132 0.651857 0
M  V30 244 H 24.2085 1.08183 1.73541 0
M  V30 245 H 22.3635 -0.188057 3.86943 0
M  V30 246 H 22.7775 1.74636 4.94573 0
M  V30 247 H 24.2515 0.134882 5.51835 0
M  V30 248 H 24.7285 -1.01651 4.27275 0
M  V30 249 H 25.3345 0.654215 4.20238 0
M  V30 250 N 23.6496 -1.47581 0.552962 0
M  V30 251 C 24.5796 -2.32762 -0.185451 0
M  V30 252 C 25.5606 -1.43527 -0.912905 0
M  V30 253 O 26.7456 -1.72388 -0.894201 0
M  V30 254 C 23.8756 -3.25219 -1.21859 0
M  V30 255 C 22.8296 -4.23661 -0.607864 0
M  V30 256 C 22.1556 -5.05413 -1.74533 0
M  V30 257 C 23.4556 -5.20481 0.435582 0
M  V30 258 H 25.1496 -2.94749 0.525684 0
M  V30 259 H 22.6956 -1.41738 0.254251 0
M  V30 260 H 24.6486 -3.8365 -1.7433 0
M  V30 261 H 23.3726 -2.61279 -1.95961 0
M  V30 262 H 22.0316 -3.66451 -0.104489 0
M  V30 263 H 21.6796 -4.3788 -2.47529 0
M  V30 264 H 21.3796 -5.72059 -1.34249 0
M  V30 265 H 22.9036 -5.66701 -2.27338 0
M  V30 266 H 24.3176 -5.733 -0.00290157 0
M  V30 267 H 22.7146 -5.95305 0.757067 0
M  V30 268 H 23.7846 -4.66217 1.33303 0
M  V30 269 N 25.1277 -0.289203 -1.54924 0
M  V30 270 C 26.3747 0.323519 -1.99899 0
M  V30 271 C 26.7027 1.54797 -1.17762 0
M  V30 272 O 25.9577 1.94237 -0.238835 0
M  V30 273 C 26.2567 0.736119 -3.49737 0
M  V30 274 C 25.9227 -0.385276 -4.49251 0
M  V30 275 C 24.5847 -0.693156 -4.76181 0
M  V30 276 C 26.9367 -1.14021 -5.08575 0
M  V30 277 C 24.2647 -1.7593 -5.59701 0
M  V30 278 C 26.6167 -2.19619 -5.93254 0
M  V30 279 C 25.2807 -2.51026 -6.185 0
M  V30 280 H 24.5507 0.118384 -0.731482 0
M  V30 281 H 27.1977 -0.405847 -1.8715 0
M  V30 282 H 25.5027 1.54539 -3.60035 0
M  V30 283 H 27.1997 1.22118 -3.81953 0
M  V30 284 H 23.7897 -0.135202 -4.28387 0
M  V30 285 H 27.9737 -0.915611 -4.87781 0
M  V30 286 H 23.2297 -2.0075 -5.77503 0
M  V30 287 H 27.4037 -2.78581 -6.38252 0
M  V30 288 H 25.0307 -3.33772 -6.83008 0
M  V30 289 N 26.6058 1.57591 -0.0167156 0
M  V30 290 C 28.0168 1.79201 0.523834 0
M  V30 291 C 28.3678 0.925796 1.72984 0
M  V30 292 O 27.4928 0.132792 2.15992 0
M  V30 293 C 28.0878 3.25 0.957091 0
M  V30 294 C 26.6468 3.47648 1.44283 0
M  V30 295 C 25.7938 2.74374 0.401757 0
M  V30 296 H 28.7448 1.56831 -0.242816 0
M  V30 297 H 28.7658 3.34031 1.82219 0
M  V30 298 H 28.2778 3.88019 0.0791415 0
M  V30 299 H 26.3788 2.89866 2.34113 0
M  V30 300 H 26.4918 4.56352 1.45877 0
M  V30 301 H 24.8558 2.39485 0.867121 0
M  V30 302 H 25.6388 3.40102 -0.467513 0
M  V30 303 N 28.0839 -0.256276 1.55502 0
M  V30 304 C 29.3329 -0.983486 1.76098 0
M  V30 305 C 29.6459 -1.86837 0.578896 0
M  V30 306 O 30.8519 -2.63163 0.667648 0
M  V30 307 C 29.3079 -1.79868 3.1173 0
M  V30 308 C 28.9159 -0.961648 4.37557 0
M  V30 309 C 30.6599 -2.51919 3.41668 0
M  V30 310 C 28.5669 -1.77219 5.64223 0
M  V30 311 H 27.4969 -0.370936 0.656447 0
M  V30 312 H 30.1479 -0.238492 1.81944 0
M  V30 313 H 28.5299 -2.58527 2.99966 0
M  V30 314 H 29.7039 -0.218048 4.60284 0
M  V30 315 H 28.0189 -0.354913 4.14885 0
M  V30 316 H 30.6159 -3.12998 4.33516 0
M  V30 317 H 30.9589 -3.23059 2.62562 0
M  V30 318 H 31.4919 -1.80278 3.54605 0
M  V30 319 H 28.2309 -1.10471 6.46124 0
M  V30 320 H 27.7509 -2.49132 5.45613 0
M  V30 321 H 29.4299 -2.34169 6.03137 0
M  V30 322 N 29.562 -1.4872 -0.521534 0
M  V30 323 C 30.808 -1.574 -1.27879 0
M  V30 324 C 31.141 -0.250817 -1.92573 0
M  V30 325 O 30.416 0.743934 -1.79711 0
M  V30 326 C 30.699 -2.71843 -2.36164 0
M  V30 327 C 30.552 -4.13893 -1.76105 0
M  V30 328 C 31.871 -2.82008 -3.37875 0
M  V30 329 H 28.99 -0.572941 -0.463581 0
M  V30 330 H 31.632 -1.80927 -0.580119 0
M  V30 331 H 29.782 -2.51914 -2.95756 0
M  V30 332 H 31.454 -4.45284 -1.20499 0
M  V30 333 H 29.697 -4.20498 -1.06601 0
M  V30 334 H 30.368 -4.89804 -2.5455 0
M  V30 335 H 32.844 -3.00086 -2.88249 0
M  V30 336 H 31.72 -3.63796 -4.11028 0
M  V30 337 H 31.981 -1.90511 -3.98946 0
M  V30 338 N 31.0401 0.771051 -1.3745 0
M  V30 339 C 32.2701 1.55789 -1.35696 0
M  V30 340 C 32.6781 1.89107 0.0594523 0
M  V30 341 O 32.0211 1.51984 1.03183 0
M  V30 342 C 32.0831 2.89515 -2.13123 0
M  V30 343 C 31.7471 2.78829 -3.62082 0
M  V30 344 C 32.7441 2.49812 -4.5595 0
M  V30 345 C 30.4291 2.9683 -4.05213 0
M  V30 346 C 32.4231 2.38923 -5.90927 0
M  V30 347 C 30.1101 2.85562 -5.40276 0
M  V30 348 C 31.1081 2.56649 -6.32946 0
M  V30 349 O 30.7961 2.45408 -7.65526 0
M  V30 350 H 30.5281 0.489257 -0.466481 0
M  V30 351 H 33.0821 0.963446 -1.81403 0
M  V30 352 H 31.3121 3.51081 -1.62107 0
M  V30 353 H 33.0011 3.50915 -2.03994 0
M  V30 354 H 33.7671 2.3559 -4.23937 0
M  V30 355 H 29.6461 3.18335 -3.33442 0
M  V30 356 H 33.1901 2.16277 -6.63227 0
M  V30 357 H 29.0871 2.99351 -5.71891 0
M  V30 358 H 29.8551 2.60753 -7.75855 0
M  V30 359 N 32.5182 1.22032 0.997298 0
M  V30 360 C 33.7432 1.06921 1.77715 0
M  V30 361 C 34.1682 -0.376226 1.84299 0
M  V30 362 O 33.5262 -1.27165 1.29223 0
M  V30 363 C 33.5742 1.67996 3.19076 0
M  V30 364 O 32.6782 0.930653 4.01762 0
M  V30 365 H 32.0192 0.375814 0.547412 0
M  V30 366 H 34.5492 1.61737 1.25309 0
M  V30 367 H 34.5592 1.72538 3.69723 0
M  V30 368 H 33.2342 2.73182 3.13599 0
M  V30 369 H 31.8112 0.960917 3.60307 0
M  V30 370 N 33.9963 -1.19345 1.0293 0
M  V30 371 C 35.2453 -1.88363 0.721256 0
M  V30 372 C 35.5583 -1.80514 -0.753254 0
M  V30 373 O 36.7643 -2.44788 -1.17436 0
M  V30 374 C 35.2203 -3.37872 1.23978 0
M  V30 375 C 34.8283 -3.54278 2.74211 0
M  V30 376 C 36.5723 -4.12365 1.00775 0
M  V30 377 C 34.4793 -4.97682 3.19479 0
M  V30 378 H 33.4093 -0.705484 0.266098 0
M  V30 379 H 36.0603 -1.34928 1.24365 0
M  V30 380 H 34.4423 -3.90707 0.6453 0
M  V30 381 H 35.6163 -3.11769 3.39318 0
M  V30 382 H 33.9313 -2.93174 2.95699 0
M  V30 383 H 36.5283 -5.18119 1.32123 0
M  V30 384 H 36.8713 -4.16263 -0.0554308 0
M  V30 385 H 37.4043 -3.65668 1.56625 0
M  V30 386 H 34.1433 -4.98945 4.25128 0
M  V30 387 H 33.6633 -5.4095 2.591 0
M  V30 388 H 35.3423 -5.66337 3.12845 0
M  V30 389 N 35.4744 -0.807222 -1.35358 0
M  V30 390 C 36.7234 -0.384376 -1.98004 0
M  V30 391 C 37.0364 1.0543 -1.64754 0
M  V30 392 O 38.2424 1.58029 -2.20769 0
M  V30 393 C 36.6984 -0.636326 -3.5423 0
M  V30 394 C 36.3064 -2.08759 -3.96388 0
M  V30 395 C 38.0504 -0.278869 -4.23583 0
M  V30 396 C 35.9574 -2.28525 -5.45463 0
M  V30 397 H 34.8874 -0.139986 -0.740891 0
M  V30 398 H 37.5384 -0.991369 -1.54415 0
M  V30 399 H 35.9204 0.0406256 -3.95979 0
M  V30 400 H 37.0944 -2.8024 -3.6579 0
M  V30 401 H 35.4094 -2.40497 -3.39926 0
M  V30 402 H 38.0064 -0.404599 -5.33167 0
M  V30 403 H 38.3494 0.775012 -4.09022 0
M  V30 404 H 38.8824 -0.909764 -3.87257 0
M  V30 405 H 35.6214 -3.32361 -5.64992 0
M  V30 406 H 35.1414 -1.61569 -5.77629 0
M  V30 407 H 36.8204 -2.10109 -6.11934 0
M  V30 408 N 36.9525 1.47285 -0.560781 0
M  V30 409 C 38.1995 2.02464 -0.038062 0
M  V30 410 C 38.5275 1.43474 1.31322 0
M  V30 411 O 37.7825 0.581311 1.86867 0
M  V30 412 C 38.0815 3.57258 0.100784 0
M  V30 413 C 37.7475 4.35184 -1.18007 0
M  V30 414 C 36.4095 4.56194 -1.53103 0
M  V30 415 C 38.7615 4.80098 -2.02867 0
M  V30 416 C 36.0895 5.19367 -2.729 0
M  V30 417 C 38.4415 5.44593 -3.21871 0
M  V30 418 C 37.1055 5.63835 -3.57276 0
M  V30 419 H 36.3755 0.740869 -0.0139279 0
M  V30 420 H 39.0225 1.76916 -0.733012 0
M  V30 421 H 37.3275 3.81819 0.878724 0
M  V30 422 H 39.0245 3.97606 0.520639 0
M  V30 423 H 35.6145 4.19113 -0.8968 0
M  V30 424 H 39.7985 4.63642 -1.7706 0
M  V30 425 H 35.0545 5.32459 -3.00496 0
M  V30 426 H 39.2285 5.78358 -3.87911 0
M  V30 427 H 36.8555 6.12557 -4.50197 0
M  V30 428 N 38.4306 0.297415 1.54768 0
M  V30 429 C 39.6766 -0.313376 2.00364 0
M  V30 430 C 40.0096 -1.53815 1.18553 0
M  V30 431 O 39.2846 -1.92739 0.261103 0
M  V30 432 C 39.5676 -0.673525 3.53745 0
M  V30 433 C 39.4206 0.560133 4.46299 0
M  V30 434 C 40.7396 -1.50143 4.13697 0
M  V30 435 H 37.8586 -0.112428 0.728374 0
M  V30 436 H 40.5006 0.4088 1.8555 0
M  V30 437 H 38.6506 -1.28881 3.665 0
M  V30 438 H 40.3226 1.19863 4.45455 0
M  V30 439 H 38.5656 1.19405 4.17043 0
M  V30 440 H 39.2366 0.26405 5.51368 0
M  V30 441 H 41.7126 -0.981588 4.04356 0
M  V30 442 H 40.5886 -1.72221 5.21182 0
M  V30 443 H 40.8496 -2.48952 3.65343 0
M  V30 444 N 39.9087 -1.5758 0.0250728 0
M  V30 445 C 40.8387 -2.13007 -0.956575 0
M  V30 446 C 41.8197 -1.0452 -1.342 0
M  V30 447 O 43.0047 -1.32332 -1.42133 0
M  V30 448 C 40.1347 -2.65386 -2.24026 0
M  V30 449 C 39.0887 -3.78623 -1.99571 0
M  V30 450 C 38.4147 -4.17414 -3.3417 0
M  V30 451 C 39.7147 -5.04867 -1.33814 0
M  V30 452 H 41.4087 -2.9528 -0.494991 0
M  V30 453 H 38.9547 -1.42042 -0.236651 0
M  V30 454 H 40.9077 -3.02794 -2.93076 0
M  V30 455 H 39.6317 -1.80268 -2.72343 0
M  V30 456 H 38.2907 -3.41646 -1.32941 0
M  V30 457 H 37.9387 -3.29284 -3.80238 0
M  V30 458 H 37.6387 -4.93719 -3.18615 0
M  V30 459 H 39.1627 -4.57402 -4.04495 0
M  V30 460 H 40.5767 -5.39888 -1.92857 0
M  V30 461 H 38.9737 -5.86144 -1.28669 0
M  V30 462 H 40.0437 -4.83904 -0.310561 0
M  V30 463 N 41.3868 0.248026 -1.55636 0
M  V30 464 C 42.6348 0.974295 -1.77065 0
M  V30 465 C 42.9558 1.85897 -0.588849 0
M  V30 466 O 42.2258 1.91868 0.395407 0
M  V30 467 H 40.8058 0.362733 -0.653019 0
M  V30 468 H 43.4678 0.266244 -1.93073 0
M  V30 469 H 42.5638 1.59667 -2.68166 0
M  V30 470 N 42.8649 1.48995 0.513639 0
M  V30 471 C 44.1109 1.58076 1.27042 0
M  V30 472 C 44.4439 0.261026 1.92438 0
M  V30 473 O 43.7189 -0.734393 1.80103 0
M  V30 474 C 44.0019 2.73091 2.34719 0
M  V30 475 C 43.8549 4.14821 1.73907 0
M  V30 476 C 45.1739 2.83796 3.36375 0
M  V30 477 H 42.2929 0.575391 0.460536 0
M  V30 478 H 44.9349 1.81232 0.570516 0
M  V30 479 H 43.0849 2.53479 2.94416 0
M  V30 480 H 44.7569 4.45917 1.18135 0
M  V30 481 H 42.9999 4.21058 1.0437 0
M  V30 482 H 43.6709 4.91147 2.51949 0
M  V30 483 H 46.1469 3.01611 2.86653 0
M  V30 484 H 45.0229 3.65971 4.09093 0
M  V30 485 H 45.2839 1.92624 3.9793 0
M  V30 486 N 44.343 -0.763751 1.37857 0
M  V30 487 C 45.592 -1.51789 1.32827 0
M  V30 488 C 45.905 -1.95426 -0.0823719 0
M  V30 489 O 47.111 -2.70298 -0.255172 0
M  V30 490 C 45.567 -2.74133 2.33193 0
M  V30 491 C 45.175 -2.37562 3.79827 0
M  V30 492 C 46.919 -3.52054 2.37188 0
M  V30 493 C 44.826 -3.56456 4.71904 0
M  V30 494 H 43.756 -0.569896 0.493695 0
M  V30 495 H 46.407 -0.835822 1.63359 0
M  V30 496 H 44.789 -3.4427 1.9569 0
M  V30 497 H 45.963 -1.75157 4.26212 0
M  V30 498 H 44.278 -1.72798 3.78853 0
M  V30 499 H 46.875 -4.40437 3.03182 0
M  V30 500 H 47.218 -3.92486 1.38782 0
M  V30 501 H 47.751 -2.88921 2.7344 0
M  V30 502 H 44.49 -3.21099 5.71468 0
M  V30 503 H 44.01 -4.17938 4.30218 0
M  V30 504 H 45.689 -4.23168 4.89426 0
M  V30 505 N 45.8211 -1.22559 -0.990812 0
M  V30 506 C 46.7841 -0.998863 -2.0629 0
M  V30 507 C 47.7841 0.0354834 -1.60761 0
M  V30 508 O 48.9741 -0.203231 -1.7301 0
M  V30 509 C 46.1061 -0.509203 -3.37076 0
M  V30 510 H 47.2991 -1.95014 -2.27837 0
M  V30 511 H 44.8521 -1.04456 -1.16269 0
M  V30 512 H 45.5871 0.446335 -3.21214 0
M  V30 513 H 45.3721 -1.25547 -3.71457 0
M  V30 514 H 46.8621 -0.370888 -4.1595 0
M  V30 515 N 47.2992 1.18797 -1.03562 0
M  V30 516 C 48.2472 2.24297 -0.615905 0
M  V30 517 C 49.2412 1.65643 0.354808 0
M  V30 518 O 50.4472 1.78618 0.22265 0
M  V30 519 H 46.8222 0.729909 -0.180934 0
M  V30 520 H 48.7932 2.5701 -1.5162 0
M  V30 521 C 47.5422 3.47698 0.0104735 0
M  V30 522 H 46.8652 3.93125 -0.727509 0
M  V30 523 H 48.3052 4.23159 0.266995 0
M  V30 524 C 46.7642 3.12489 1.25905 0
M  V30 525 O 47.2942 3.25761 2.35038 0
M  V30 526 N 45.5002 2.6686 1.15039 0
M  V30 527 H 45.0472 2.56261 0.262328 0
M  V30 528 H 45.0052 2.43674 1.98672 0
M  V30 529 N 48.7773 0.814389 1.34928 0
M  V30 530 C 50.0253 0.397636 1.9815 0
M  V30 531 C 50.3463 -1.04069 1.64908 0
M  V30 532 O 49.6163 -1.72121 0.93548 0
M  V30 533 H 48.1963 0.144043 0.732981 0
M  V30 534 H 50.8583 1.04195 1.6471 0
M  V30 535 H 49.9543 0.509688 3.0791 0
M  V30 536 N 50.2554 -1.46986 0.568584 0
M  V30 537 C 51.4854 -2.0653 0.0539173 0
M  V30 538 C 51.8934 -1.42004 -1.25026 0
M  V30 539 O 51.2364 -0.514541 -1.76347 0
M  V30 540 C 51.2984 -3.58938 -0.200854 0
M  V30 541 C 50.9624 -4.45572 1.01559 0
M  V30 542 C 51.9594 -4.82986 1.92407 0
M  V30 543 C 49.6444 -4.8692 1.23346 0
M  V30 544 C 51.6384 -5.60559 3.03402 0
M  V30 545 C 49.3254 -5.64255 2.34649 0
M  V30 546 C 50.3234 -6.00986 3.24507 0
M  V30 547 O 50.0114 -6.76761 4.33878 0
M  V30 548 H 49.7434 -0.674292 0.0480234 0
M  V30 549 H 52.2974 -1.89812 0.784896 0
M  V30 550 H 50.5274 -3.73911 -0.986279 0
M  V30 551 H 52.2164 -4.0046 -0.662294 0
M  V30 552 H 52.9824 -4.51633 1.76785 0
M  V30 553 H 48.8614 -4.57789 0.543178 0
M  V30 554 H 52.4054 -5.89147 3.73565 0
M  V30 555 H 48.3024 -5.95021 2.5024 0
M  V30 556 H 49.0704 -6.95168 4.32068 0
M  V30 557 N 51.7335 -0.305618 -1.54608 0
M  V30 558 C 52.9795 0.302746 -2.00528 0
M  V30 559 C 53.3125 1.53184 -1.19367 0
M  V30 560 O 52.5875 1.92598 -0.271321 0
M  V30 561 C 52.8705 0.654756 -3.54097 0
M  V30 562 C 52.7235 -0.583793 -4.45995 0
M  V30 563 C 54.0425 1.47947 -4.14487 0
M  V30 564 H 51.1615 0.108564 -0.72896 0
M  V30 565 H 53.8035 -0.418634 -1.85331 0
M  V30 566 H 51.9535 1.26935 -3.67178 0
M  V30 567 H 53.6255 -1.22224 -4.44814 0
M  V30 568 H 51.8685 -1.21615 -4.16404 0
M  V30 569 H 52.5395 -0.293287 -5.5122 0
M  V30 570 H 55.0155 0.96013 -4.04871 0
M  V30 571 H 53.8915 1.69454 -5.22088 0
M  V30 572 H 54.1525 2.47011 -3.66658 0
M  V30 573 N 53.2116 1.57565 -0.0334293 0
M  V30 574 C 54.1416 2.13511 0.945265 0
M  V30 575 C 55.1226 1.05231 1.33643 0
M  V30 576 O 56.3076 1.33084 1.41429 0
M  V30 577 C 53.4376 2.6657 2.22616 0
M  V30 578 C 52.3916 3.79676 1.97561 0
M  V30 579 C 51.7176 4.1918 3.31952 0
M  V30 580 C 53.0176 5.0557 1.31135 0
M  V30 581 H 54.7116 2.95538 0.479325 0
M  V30 582 H 52.2576 1.42166 0.229115 0
M  V30 583 H 54.2106 3.04344 2.91466 0
M  V30 584 H 52.9346 1.8171 2.71384 0
M  V30 585 H 51.5936 3.42347 1.31127 0
M  V30 586 H 51.2416 3.31296 3.78487 0
M  V30 587 H 50.9416 4.95402 3.15992 0
M  V30 588 H 52.4656 4.59541 4.02063 0
M  V30 589 H 53.8796 5.40903 1.89992 0
M  V30 590 H 52.2766 5.86818 1.25559 0
M  V30 591 H 53.3466 4.84062 0.284894 0
M  V30 592 N 54.6897 -0.239769 1.55765 0
M  V30 593 C 55.9357 -0.963942 1.79108 0
M  V30 594 C 56.2907 -1.82689 0.60352 0
M  V30 595 O 55.5837 -1.87313 -0.403033 0
M  V30 596 C 55.7777 -1.852 3.05672 0
M  V30 597 C 55.6067 -1.07651 4.36625 0
M  V30 598 C 54.3767 -0.778738 4.99263 0
M  V30 599 C 56.5747 -0.45062 5.12322 0
M  V30 600 N 54.5567 0.0200708 6.13897 0
M  V30 601 C 55.9277 0.212429 6.19636 0
M  V30 602 C 57.9827 -0.361806 4.96584 0
M  V30 603 C 56.6857 0.955772 7.12922 0
M  V30 604 C 58.7117 0.368023 5.90254 0
M  V30 605 C 58.0737 1.01968 6.96981 0
M  V30 606 H 54.1727 -0.333601 0.707272 0
M  V30 607 H 56.7567 -0.236425 1.93259 0
M  V30 608 H 54.9277 -2.55149 2.92837 0
M  V30 609 H 56.6597 -2.51228 3.1728 0
M  V30 610 H 53.4147 -1.09229 4.60832 0
M  V30 611 H 53.8387 0.407777 6.75771 0
M  V30 612 H 58.4807 -0.851286 4.14141 0
M  V30 613 H 56.1987 1.45683 7.9486 0
M  V30 614 H 59.7847 0.437504 5.80153 0
M  V30 615 H 58.6647 1.5754 7.68213 0
M  V30 616 N 56.1678 -1.49265 -0.50573 0
M  V30 617 C 57.4138 -1.58748 -1.26202 0
M  V30 618 C 57.7468 -0.271227 -1.92297 0
M  V30 619 O 57.0218 0.724831 -1.80489 0
M  V30 620 C 57.3048 -2.74332 -2.33268 0
M  V30 621 C 57.1578 -4.15737 -1.71705 0
M  V30 622 C 58.4768 -2.85576 -3.34865 0
M  V30 623 H 55.5958 -0.577826 -0.457478 0
M  V30 624 H 58.2378 -1.81532 -0.560897 0
M  V30 625 H 56.3878 -2.55036 -2.93068 0
M  V30 626 H 58.0598 -4.46537 -1.15769 0
M  V30 627 H 56.3028 -4.21605 -1.02135 0
M  V30 628 H 56.9738 -4.92477 -2.49341 0
M  V30 629 H 59.4498 -3.03127 -2.8505 0
M  V30 630 H 58.3258 -3.68135 -4.07146 0
M  V30 631 H 58.5868 -1.94732 -3.96903 0
M  V30 632 N 57.6459 0.756429 -1.3826 0
M  V30 633 C 58.8929 1.51547 -1.34312 0
M  V30 634 C 59.2209 1.94382 0.0677144 0
M  V30 635 O 58.4759 1.65514 1.04421 0
M  V30 636 C 58.7749 2.78313 -2.24224 0
M  V30 637 C 58.4409 2.54455 -3.72241 0
M  V30 638 C 57.1029 2.47657 -4.12576 0
M  V30 639 C 59.4549 2.3354 -4.65949 0
M  V30 640 C 56.7829 2.17956 -5.44713 0
M  V30 641 C 59.1349 2.05359 -5.9834 0
M  V30 642 C 57.7989 1.97016 -6.37762 0
M  V30 643 H 57.0689 0.55455 -0.491482 0
M  V30 644 H 59.7159 0.870039 -1.70595 0
M  V30 645 H 58.0209 3.47492 -1.80987 0
M  V30 646 H 59.7179 3.36259 -2.18474 0
M  V30 647 H 56.3079 2.60616 -3.40261 0
M  V30 648 H 60.4919 2.37772 -4.35635 0
M  V30 649 H 55.7479 2.10003 -5.74203 0
M  V30 650 H 59.9219 1.88179 -6.70494 0
M  V30 651 H 57.5489 1.73766 -7.40074 0
M  V30 652 N 59.124 1.23083 0.984299 0
M  V30 653 C 60.087 1.00979 2.05757 0
M  V30 654 C 61.087 -0.0269573 1.60777 0
M  V30 655 O 62.277 0.212403 1.729 0
M  V30 656 C 59.409 0.527072 3.36801 0
M  V30 657 H 60.602 1.9622 2.26799 0
M  V30 658 H 58.155 1.05072 1.15714 0
M  V30 659 H 58.89 -0.429294 3.21446 0
M  V30 660 H 58.675 1.27515 3.70786 0
M  V30 661 H 60.165 0.392942 4.15747 0
M  V30 662 N 60.6021 -1.18246 1.0419 0
M  V30 663 C 62.0181 -1.40269 0.761366 0
M  V30 664 C 62.2181 -1.90777 -0.648578 0
M  V30 665 O 61.2741 -2.0929 -1.41258 0
M  V30 666 C 62.5871 -2.40237 1.8085 0
M  V30 667 C 64.1351 -2.53961 1.82955 0
M  V30 668 C 64.6101 -3.57194 2.86664 0
M  V30 669 N 66.1011 -3.64702 2.85563 0
M  V30 670 C 66.8361 -4.44309 3.6246 0
M  V30 671 N 66.3321 -5.27514 4.49111 0
M  V30 672 N 68.1251 -4.39084 3.50944 0
M  V30 673 H 60.2761 -0.837882 1.95175 0
M  V30 674 H 62.5391 -0.430608 0.84456 0
M  V30 675 H 62.2451 -2.10176 2.81991 0
M  V30 676 H 62.1191 -3.39601 1.64168 0
M  V30 677 H 64.5061 -2.83338 0.824855 0
M  V30 678 H 64.5871 -1.54706 2.03715 0
M  V30 679 H 64.2311 -3.28558 3.87314 0
M  V30 680 H 64.1611 -4.5613 2.6316 0
M  V30 681 H 66.6521 -3.05289 2.22727 0
M  V30 682 H 66.9651 -5.85411 5.04493 0
M  V30 683 H 65.3101 -5.2693 4.53178 0
M  V30 684 H 68.5011 -3.7313 2.82651 0
M  V30 685 H 68.6741 -5.00883 4.11121 0
M  V30 686 N 62.0802 -0.821533 -1.34494 0
M  V30 687 C 63.0102 -0.257138 -2.3208 0
M  V30 688 C 63.9912 0.625645 -1.58176 0
M  V30 689 O 65.1762 0.552811 -1.86166 0
M  V30 690 C 62.3062 0.582958 -3.42372 0
M  V30 691 C 61.2602 -0.202571 -4.2752 0
M  V30 692 C 60.5862 0.760179 -5.29269 0
M  V30 693 C 61.8862 -1.40998 -5.02908 0
M  V30 694 H 63.5802 -1.07247 -2.79532 0
M  V30 695 H 61.1262 -0.517163 -1.34393 0
M  V30 696 H 63.0792 0.987972 -4.09655 0
M  V30 697 H 61.8032 1.43133 -2.93565 0
M  V30 698 H 60.4622 -0.588936 -3.61838 0
M  V30 699 H 60.1102 1.60447 -4.76724 0
M  V30 700 H 59.8102 0.238809 -5.87115 0
M  V30 701 H 61.3342 1.16308 -5.9942 0
M  V30 702 H 62.7482 -1.07905 -5.63054 0
M  V30 703 H 61.1452 -1.86689 -5.70322 0
M  V30 704 H 62.2152 -2.1889 -4.32684 0
M  V30 705 N 63.5583 1.46682 -0.576371 0
M  V30 706 C 64.7883 2.06498 -0.0648694 0
M  V30 707 C 65.1963 1.42665 1.24271 0
M  V30 708 O 64.5393 0.523886 1.76071 0
M  V30 709 C 64.6013 3.5904 0.181816 0
M  V30 710 C 64.2653 4.45028 -1.0392 0
M  V30 711 C 65.2623 4.81959 -1.94966 0
M  V30 712 C 62.9473 4.86259 -1.25927 0
M  V30 713 C 64.9413 5.58942 -3.06371 0
M  V30 714 C 62.6283 5.63002 -2.37638 0
M  V30 715 C 63.6263 5.99257 -3.2769 0
M  V30 716 O 63.3143 6.7445 -4.37461 0
M  V30 717 H 63.0463 0.674028 -0.0515987 0
M  V30 718 H 65.6003 1.89393 -0.794951 0
M  V30 719 H 63.8303 3.74429 0.966436 0
M  V30 720 H 65.5193 4.00806 0.641047 0
M  V30 721 H 66.2853 4.50689 -1.79177 0
M  V30 722 H 62.1643 4.57494 -0.567448 0
M  V30 723 H 65.7083 5.87158 -3.76684 0
M  V30 724 H 61.6053 5.93686 -2.53392 0
M  V30 725 H 62.3733 6.92867 -4.35749 0
M  V30 726 N 65.0364 0.313813 1.54444 0
M  V30 727 C 66.4474 -0.176243 1.85866 0
M  V30 728 C 66.7984 -1.52405 1.23561 0
M  V30 729 O 65.9234 -2.09605 0.538016 0
M  V30 730 C 66.5184 -0.32657 3.37222 0
M  V30 731 C 65.0774 -0.760846 3.6863 0
M  V30 732 C 64.2244 0.123247 2.77026 0
M  V30 733 H 67.1754 0.534418 1.49431 0
M  V30 734 H 67.1964 -1.15908 3.62416 0
M  V30 735 H 66.7084 0.654531 3.82541 0
M  V30 736 H 64.8094 -1.75204 3.28838 0
M  V30 737 H 64.9224 -0.571353 4.75681 0
M  V30 738 H 63.2864 -0.399597 2.51546 0
M  V30 739 H 64.0694 1.10094 3.25168 0
M  V30 740 N 66.5145 -1.57545 0.0417849 0
M  V30 741 C 67.7545 -1.94185 -0.63809 0
M  V30 742 C 68.1185 -0.919339 -1.68559 0
M  V30 743 O 69.3195 -1.17236 -2.41886 0
M  V30 744 C 67.5905 -3.35672 -1.22714 0
M  V30 745 S 69.1495 -3.94256 -1.92633 0
M  V30 746 H 65.9675 -0.679353 -0.209764 0
M  V30 747 H 68.5695 -1.95199 0.108479 0
M  V30 748 H 67.2735 -4.07898 -0.452503 0
M  V30 749 H 66.8045 -3.38132 -2.01073 0
M  V30 750 H 68.8195 -3.7872 -3.20602 0
M  V30 751 N 67.9926 0.231505 -1.5589 0
M  V30 752 C 68.9396 1.28682 -1.91598 0
M  V30 753 C 69.9096 1.47071 -0.771974 0
M  V30 754 O 71.0946 1.60802 -1.027 0
M  V30 755 C 68.2346 2.6342 -2.22944 0
M  V30 756 C 67.3476 2.52912 -3.50228 0
M  V30 757 C 66.4826 3.80106 -3.7107 0
M  V30 758 C 65.5216 3.64279 -4.91902 0
M  V30 759 N 64.6586 4.834 -5.09184 0
M  V30 760 H 69.4986 0.975305 -2.81588 0
M  V30 761 H 67.0356 0.470299 -1.39379 0
M  V30 762 H 68.9936 3.41869 -2.39126 0
M  V30 763 H 67.6236 2.92687 -1.36139 0
M  V30 764 H 66.6756 1.6595 -3.42294 0
M  V30 765 H 67.9876 2.37133 -4.38827 0
M  V30 766 H 67.1416 4.66999 -3.87295 0
M  V30 767 H 65.8806 3.98799 -2.80733 0
M  V30 768 H 64.8856 2.7577 -4.75637 0
M  V30 769 H 66.1106 3.47067 -5.83714 0
M  V30 770 H 64.0566 5.02425 -4.21788 0
M  V30 771 H 63.9736 4.70311 -5.91898 0
M  V30 772 H 65.2416 5.71747 -5.29835 0
M  V30 773 N 69.4707 1.49531 0.497807 0
M  V30 774 C 70.4177 1.66436 1.59899 0
M  V30 775 C 71.3877 0.505793 1.58212 0
M  V30 776 O 72.5727 0.733202 1.7615 0
M  V30 777 C 69.7127 1.7399 2.98029 0
M  V30 778 C 68.8257 3.01172 3.09708 0
M  V30 779 C 67.9607 2.99686 4.38591 0
M  V30 780 C 66.9997 4.21434 4.43914 0
M  V30 781 N 66.1367 4.1784 5.64229 0
M  V30 782 H 70.9767 2.60459 1.44793 0
M  V30 783 H 68.5137 1.29137 0.704423 0
M  V30 784 H 70.4717 1.76352 3.78095 0
M  V30 785 H 69.1017 0.834301 3.11832 0
M  V30 786 H 68.1537 3.08408 2.22685 0
M  V30 787 H 69.4657 3.91165 3.09502 0
M  V30 788 H 68.6197 3.00628 5.2698 0
M  V30 789 H 67.3587 2.07477 4.41367 0
M  V30 790 H 66.3637 4.20733 3.53926 0
M  V30 791 H 67.5887 5.14839 4.42851 0
M  V30 792 H 65.5347 3.28469 5.67841 0
M  V30 793 H 65.4517 5.01571 5.65652 0
M  V30 794 H 66.7197 4.22889 6.54817 0
M  V30 795 N 70.9488 -0.749086 1.3866 0
M  V30 796 C 72.1958 -1.50833 1.35114 0
M  V30 797 C 72.5238 -1.94415 -0.0574049 0
M  V30 798 O 71.7788 -1.66065 -1.03541 0
M  V30 799 C 72.0778 -2.7712 2.25697 0
M  V30 800 C 71.7438 -2.52477 3.73585 0
M  V30 801 C 70.4058 -2.45466 4.13884 0
M  V30 802 C 72.7578 -2.31066 4.67181 0
M  V30 803 C 70.0858 -2.15064 5.45861 0
M  V30 804 C 72.4378 -2.02183 5.9942 0
M  V30 805 C 71.1018 -1.93631 6.38798 0
M  V30 806 H 70.3718 -0.551936 0.494416 0
M  V30 807 H 73.0188 -0.860979 1.71054 0
M  V30 808 H 71.3238 -3.46528 1.82827 0
M  V30 809 H 73.0208 -3.35096 2.20254 0
M  V30 810 H 69.6108 -2.58807 3.41638 0
M  V30 811 H 73.7948 -2.35459 4.3689 0
M  V30 812 H 69.0508 -2.06954 5.75308 0
M  V30 813 H 73.2248 -1.8462 6.71482 0
M  V30 814 H 70.8518 -1.69839 7.40985 0
M  V30 815 N 72.4269 -1.23603 -0.977757 0
M  V30 816 C 73.3749 -1.01704 -2.09187 0
M  V30 817 C 74.3689 0.0448214 -1.69341 0
M  V30 818 O 75.5749 -0.108902 -1.7967 0
M  V30 819 H 71.9499 -0.311803 -0.684312 0
M  V30 820 H 73.9209 -1.96207 -2.24823 0
M  V30 821 C 72.6699 -0.627746 -3.41986 0
M  V30 822 H 71.9929 -1.43656 -3.73099 0
M  V30 823 H 73.4329 -0.514053 -4.20872 0
M  V30 824 C 71.8919 0.664238 -3.30287 0
M  V30 825 O 72.4219 1.71268 -3.6336 0
M  V30 826 N 70.6279 0.641156 -2.83439 0
M  V30 827 H 70.1749 -0.212376 -2.56723 0
M  V30 828 H 70.1329 1.50583 -2.75993 0
M  V30 829 N 73.905 1.17692 -1.04816 0
M  V30 830 C 74.815 2.25229 -0.65643 0
M  V30 831 C 75.831 1.71018 0.320761 0
M  V30 832 O 77.007 2.00649 0.173805 0
M  V30 833 C 74.072 3.46684 -0.0332629 0
M  V30 834 C 73.133 4.15997 -1.06042 0
M  V30 835 C 72.366 5.31654 -0.466893 0
M  V30 836 O 72.589 5.65777 0.724758 0
M  V30 837 O 71.523 5.89831 -1.1993 0
M  V30 838 H 75.349 2.61016 -1.55255 0
M  V30 839 H 72.934 1.24919 -0.81949 0
M  V30 840 H 74.816 4.20234 0.313256 0
M  V30 841 H 73.491 3.12703 0.836566 0
M  V30 842 H 72.398 3.44482 -1.45886 0
M  V30 843 H 73.731 4.53996 -1.90127 0
M  V30 844 N 75.3831 0.828654 1.34056 0
M  V30 845 C 76.6321 0.415828 1.97367 0
M  V30 846 C 76.9451 -1.02796 1.6641 0
M  V30 847 O 78.1511 -1.54497 2.23255 0
M  V30 848 C 76.6071 0.692601 3.53173 0
M  V30 849 C 76.2151 2.15038 3.93017 0
M  V30 850 C 77.9591 0.346222 4.23086 0
M  V30 851 C 75.8661 2.37174 5.41758 0
M  V30 852 H 74.7961 0.151755 0.738571 0
M  V30 853 H 77.4471 1.01581 1.52819 0
M  V30 854 H 75.8291 0.0223764 3.95994 0
M  V30 855 H 77.0031 2.86024 3.61285 0
M  V30 856 H 75.3181 2.45875 3.36057 0
M  V30 857 H 77.9151 0.48937 5.32456 0
M  V30 858 H 78.2581 -0.709842 4.10204 0
M  V30 859 H 78.7911 0.971258 3.85761 0
M  V30 860 H 75.5301 3.41308 5.59633 0
M  V30 861 H 75.0501 1.70738 5.74986 0
M  V30 862 H 76.7291 2.19818 6.08514 0
M  V30 863 N 76.8612 -1.46375 0.584142 0
M  V30 864 C 77.8082 -2.30323 -0.148286 0
M  V30 865 C 78.7782 -1.40703 -0.882713 0
M  V30 866 O 79.9632 -1.69651 -0.873099 0
M  V30 867 C 77.1032 -3.25196 -1.15507 0
M  V30 868 C 76.2162 -4.29915 -0.423943 0
M  V30 869 C 75.3512 -5.11914 -1.41838 0
M  V30 870 C 74.3902 -6.08381 -0.673736 0
M  V30 871 N 73.5272 -6.83242 -1.6163 0
M  V30 872 H 78.3672 -2.92427 0.573644 0
M  V30 873 H 75.9042 -1.44118 0.294703 0
M  V30 874 H 77.8622 -3.78646 -1.75166 0
M  V30 875 H 76.4922 -2.64898 -1.8447 0
M  V30 876 H 75.5442 -3.7931 0.287714 0
M  V30 877 H 76.8562 -4.98549 0.158128 0
M  V30 878 H 76.0102 -5.69648 -2.08773 0
M  V30 879 H 74.7492 -4.43243 -2.03438 0
M  V30 880 H 73.7542 -5.49799 0.00938483 0
M  V30 881 H 74.9792 -6.79071 -0.0631082 0
M  V30 882 H 72.9252 -6.1728 -2.22038 0
M  V30 883 H 72.8422 -7.48144 -1.08707 0
M  V30 884 H 74.1102 -7.45534 -2.27596 0
M  V30 885 N 78.3393 -0.321999 -1.54275 0
M  V30 886 C 79.5883 0.281931 -1.9972 0
M  V30 887 C 79.9013 1.53369 -1.21397 0
M  V30 888 O 81.1073 2.21352 -1.57211 0
M  V30 889 C 79.5633 0.5529 -3.55628 0
M  V30 890 C 79.1713 -0.681721 -4.42783 0
M  V30 891 C 80.9153 1.11687 -4.09544 0
M  V30 892 C 78.8223 -0.382742 -5.9016 0
M  V30 893 H 77.7523 0.109124 -0.746062 0
M  V30 894 H 80.4033 -0.43398 -1.78294 0
M  V30 895 H 78.7853 1.32896 -3.73035 0
M  V30 896 H 79.9593 -1.45723 -4.37151 0
M  V30 897 H 78.2743 -1.1658 -3.99748 0
M  V30 898 H 80.8713 1.35515 -5.17242 0
M  V30 899 H 81.2143 2.06575 -3.61431 0
M  V30 900 H 81.7473 0.402032 -3.95763 0
M  V30 901 H 78.4863 -1.30076 -6.42464 0
M  V30 902 H 78.0063 0.355094 -5.98748 0
M  V30 903 H 79.6853 0.00800157 -6.47 0
M  V30 904 N 79.8174 1.5752 -0.0501392 0
M  V30 905 C 81.0644 1.9265 0.623874 0
M  V30 906 C 81.3924 0.928411 1.70912 0
M  V30 907 O 80.6474 -0.0594525 1.9561 0
M  V30 908 C 80.9464 3.34467 1.25963 0
M  V30 909 C 80.6124 4.49883 0.302689 0
M  V30 910 C 79.2744 4.81184 0.0393636 0
M  V30 911 C 81.6264 5.20002 -0.353205 0
M  V30 912 C 78.9544 5.79951 -0.887308 0
M  V30 913 C 81.3064 6.1976 -1.26806 0
M  V30 914 C 79.9704 6.49491 -1.54007 0
M  V30 915 H 79.2404 0.704957 0.228292 0
M  V30 916 H 81.8874 1.91146 -0.116398 0
M  V30 917 H 80.1924 3.32333 2.07514 0
M  V30 918 H 81.8894 3.58928 1.78806 0
M  V30 919 H 78.4794 4.25457 0.518109 0
M  V30 920 H 82.6634 4.96033 -0.162854 0
M  V30 921 H 77.9194 6.01322 -1.10553 0
M  V30 922 H 82.0934 6.73205 -1.78236 0
M  V30 923 H 79.7204 7.25837 -2.25976 0
M  V30 924 N 81.2955 -0.223234 1.56011 0
M  V30 925 C 82.2285 -1.30377 1.87289 0
M  V30 926 C 83.2065 -1.45286 0.730112 0
M  V30 927 O 84.3905 -1.61126 0.978302 0
M  V30 928 C 81.5175 -2.67431 2.07843 0
M  V30 929 C 80.5635 -2.69546 3.30526 0
M  V30 930 S 81.3965 -2.23781 4.865 0
M  V30 931 C 82.5525 -3.62714 5.10088 0
M  V30 932 H 82.7855 -1.03652 2.78646 0
M  V30 933 H 80.3185 -0.425393 1.48424 0
M  V30 934 H 82.2765 -3.46336 2.20368 0
M  V30 935 H 80.9375 -2.91381 1.17285 0
M  V30 936 H 80.1305 -3.70255 3.41947 0
M  V30 937 H 79.7325 -1.98703 3.16849 0
M  V30 938 H 82.0245 -4.58391 4.98883 0
M  V30 939 H 82.9675 -3.5621 6.11981 0
M  V30 940 H 83.3755 -3.56323 4.37829 0
M  V30 941 N 82.7736 -1.49793 -0.48987 0
M  V30 942 C 84.0196 -1.60078 -1.24511 0
M  V30 943 C 84.3526 -0.291608 -1.91998 0
M  V30 944 O 83.6276 0.705647 -1.81248 0
M  V30 945 C 83.9106 -2.76791 -2.30345 0
M  V30 946 C 83.7636 -4.17535 -1.67286 0
M  V30 947 C 85.0826 -2.89111 -3.31817 0
M  V30 948 H 82.2016 -0.582645 -0.451324 0
M  V30 949 H 84.8436 -1.82117 -0.541612 0
M  V30 950 H 82.9936 -2.5813 -2.90346 0
M  V30 951 H 84.6656 -4.4774 -1.11026 0
M  V30 952 H 82.9086 -4.22665 -0.976577 0
M  V30 953 H 83.5796 -4.95094 -2.44103 0
M  V30 954 H 86.0556 -3.06133 -2.81819 0
M  V30 955 H 84.9316 -3.72433 -4.03219 0
M  V30 956 H 85.1926 -1.9893 -3.94815 0
M  V30 957 N 84.2517 0.741722 -1.39055 0
M  V30 958 C 85.1997 1.87702 -1.3737 0
M  V30 959 C 86.1937 1.67427 -0.257812 0
M  V30 960 O 87.3997 1.7485 -0.427489 0
M  V30 961 H 83.7747 0.617757 -0.428812 0
M  V30 962 H 85.7457 1.86239 -2.33147 0
M  V30 963 C 84.4947 3.25315 -1.22741 0
M  V30 964 H 83.8177 3.41509 -2.07873 0
M  V30 965 H 85.2577 4.04964 -1.25618 0
M  V30 966 C 83.7167 3.36838 0.0647316 0
M  V30 967 O 84.2467 3.88073 1.03741 0
M  V30 968 N 82.4527 2.90329 0.125544 0
M  V30 969 H 81.9997 2.48823 -0.666682 0
M  V30 970 H 81.9577 2.98418 0.989639 0
M  V30 971 N 85.7298 1.2412 0.971189 0
M  V30 972 C 86.6598 1.05508 2.08304 0
M  V30 973 C 87.6408 -0.0308864 1.70072 0
M  V30 974 O 88.8258 0.135521 1.93727 0
M  V30 975 C 85.9558 0.655365 3.4106 0
M  V30 976 C 84.9098 1.68971 3.93234 0
M  V30 977 C 84.2358 1.14516 5.22293 0
M  V30 978 C 85.5358 3.08487 4.21465 0
M  V30 979 H 87.2298 1.98507 2.24132 0
M  V30 980 H 84.7758 0.955821 1.07704 0
M  V30 981 H 86.7288 0.51217 4.18276 0
M  V30 982 H 85.4528 -0.31032 3.25122 0
M  V30 983 H 84.1118 1.82106 3.18171 0
M  V30 984 H 83.7598 0.170189 5.02712 0
M  V30 985 H 83.4598 1.83635 5.58168 0
M  V30 986 H 84.9838 1.01401 6.02121 0
M  V30 987 H 86.3978 2.98601 4.89398 0
M  V30 988 H 84.7948 3.74926 4.68562 0
M  V30 989 H 85.8648 3.56787 3.28376 0
M  V30 990 N 87.2079 -1.17134 1.05439 0
M  V30 991 C 88.4359 -1.91372 0.786414 0
M  V30 992 C 88.8509 -1.76955 -0.658202 0
M  V30 993 O 88.2079 -1.10838 -1.44987 0
M  V30 994 C 88.2589 -3.42356 1.1608 0
M  V30 995 O 87.9799 -3.56332 2.54871 0
M  V30 996 C 89.4809 -4.33663 0.919322 0
M  V30 997 H 86.7009 -0.607118 0.285743 0
M  V30 998 H 89.2449 -1.48525 1.40572 0
M  V30 999 H 87.3999 -3.82939 0.586191 0
M  V30 1000 H 87.8139 -4.49896 2.69618 0
M  V30 1001 H 89.2879 -5.38099 1.231 0
M  V30 1002 H 89.7649 -4.38959 -0.145359 0
M  V30 1003 H 90.3709 -3.98796 1.47789 0
M  V30 1004 N 88.686 -0.835752 -1.33615 0
M  V30 1005 C 89.619 -0.211815 -2.27215 0
M  V30 1006 C 90.597 0.639249 -1.49507 0
M  V30 1007 O 91.781 0.600193 -1.78689 0
M  V30 1008 C 88.908 0.702893 -3.31326 0
M  V30 1009 C 87.954 -0.0723049 -4.26439 0
M  V30 1010 S 88.787 -1.42811 -5.16106 0
M  V30 1011 C 89.943 -0.518613 -6.23748 0
M  V30 1012 H 90.176 -1.00533 -2.79786 0
M  V30 1013 H 87.709 -0.632336 -1.40858 0
M  V30 1014 H 89.667 1.22505 -3.91794 0
M  V30 1015 H 88.328 1.47004 -2.77576 0
M  V30 1016 H 87.521 0.62359 -5.00127 0
M  V30 1017 H 87.123 -0.525424 -3.70291 0
M  V30 1018 H 89.415 0.284778 -6.76901 0
M  V30 1019 H 90.358 -1.22556 -6.97413 0
M  V30 1020 H 90.766 -0.101344 -5.64409 0
M  V30 1021 N 90.1641 1.46063 -0.591896 0
M  V30 1022 C 91.1271 2.28854 0.125973 0
M  V30 1023 C 92.1271 1.38903 0.810107 0
M  V30 1024 O 93.3171 1.61186 0.66066 0
M  V30 1025 C 90.4491 3.19526 1.1881 0
M  V30 1026 H 91.6421 2.93802 -0.601717 0
M  V30 1027 H 89.1951 1.52325 -0.350254 0
M  V30 1028 H 89.9301 2.59345 1.94707 0
M  V30 1029 H 89.7151 3.85766 0.701936 0
M  V30 1030 H 91.2051 3.81817 1.69132 0
M  V30 1031 N 91.6422 0.330177 1.54103 0
M  V30 1032 C 92.9192 -0.325007 1.92881 0
M  V30 1033 C 93.2992 -1.6934 1.26045 0
M  V30 1034 O 92.6472 -2.24855 0.406526 0
M  V30 1035 C 92.8572 -0.410634 3.46576 0
M  V30 1036 C 94.2052 -0.667801 4.19316 0
M  V30 1037 O 95.2292 -0.49329 3.52768 0
M  V30 1038 O 94.0882 -1.00491 5.37181 0
M  V30 1039 H 91.1822 -0.186873 0.80561 0
M  V30 1040 H 93.7282 0.380376 1.65382 0
M  V30 1041 H 92.5002 0.550164 3.87413 0
M  V30 1042 H 92.1232 -1.16333 3.802 0
M  V30 1043 N 93.1203 -1.57491 0.0584922 0
M  V30 1044 C 94.0533 -2.07533 -0.948969 0
M  V30 1045 C 95.0313 -0.977444 -1.29942 0
M  V30 1046 O 96.2153 -1.2499 -1.41102 0
M  V30 1047 C 93.3423 -2.52192 -2.2609 0
M  V30 1048 C 92.3883 -3.73287 -2.06298 0
M  V30 1049 S 93.2213 -5.18603 -1.33459 0
M  V30 1050 C 94.3773 -5.66583 -2.65959 0
M  V30 1051 H 94.6103 -2.92662 -0.523118 0
M  V30 1052 H 92.1433 -1.53631 -0.153954 0
M  V30 1053 H 94.1013 -2.78585 -3.01498 0
M  V30 1054 H 92.7623 -1.67356 -2.65802 0
M  V30 1055 H 91.9553 -4.0248 -3.03357 0
M  V30 1056 H 91.5573 -3.47199 -1.39029 0
M  V30 1057 H 93.8493 -5.72616 -3.62101 0
M  V30 1058 H 94.7923 -6.65684 -2.41393 0
M  V30 1059 H 95.2003 -4.94342 -2.72554 0
M  V30 1060 N 94.5984 0.214957 -1.56127 0
M  V30 1061 C 95.5284 1.2695 -1.95974 0
M  V30 1062 C 96.5094 1.48539 -0.828868 0
M  V30 1063 O 97.6944 1.60611 -1.09168 0
M  V30 1064 C 94.8244 2.61794 -2.28214 0
M  V30 1065 C 93.7784 2.54851 -3.43853 0
M  V30 1066 C 93.1044 3.93785 -3.61715 0
M  V30 1067 C 94.4044 2.09065 -4.78632 0
M  V30 1068 H 96.0984 0.93846 -2.84312 0
M  V30 1069 H 93.6444 0.449996 -1.36788 0
M  V30 1070 H 95.5974 3.35731 -2.54682 0
M  V30 1071 H 94.3214 2.96599 -1.36736 0
M  V30 1072 H 92.9804 1.8337 -3.17444 0
M  V30 1073 H 92.6284 4.25908 -2.67602 0
M  V30 1074 H 92.3284 3.90019 -4.39498 0
M  V30 1075 H 93.8524 4.69374 -3.90539 0
M  V30 1076 H 95.2664 2.7275 -5.04262 0
M  V30 1077 H 93.6634 2.16346 -5.59745 0
M  V30 1078 H 94.7334 1.04315 -4.73547 0
M  V30 1079 N 96.0765 1.50051 0.48192 0
M  V30 1080 C 97.3235 1.60498 1.23477 0
M  V30 1081 C 97.6515 0.300331 1.92167 0
M  V30 1082 O 96.9065 -0.713094 1.82246 0
M  V30 1083 C 97.2055 2.72717 2.30998 0
M  V30 1084 C 96.8715 4.13572 1.79636 0
M  V30 1085 C 95.5335 4.519 1.65348 0
M  V30 1086 C 97.8855 5.01649 1.41412 0
M  V30 1087 C 95.2135 5.76057 1.11244 0
M  V30 1088 C 97.5655 6.26343 0.887538 0
M  V30 1089 C 96.2295 6.63483 0.731207 0
M  V30 1090 H 95.4995 0.587303 0.451836 0
M  V30 1091 H 98.1465 1.83948 0.532468 0
M  V30 1092 H 96.4515 2.43312 3.07094 0
M  V30 1093 H 98.1485 2.78006 2.88988 0
M  V30 1094 H 94.7385 3.83329 1.91721 0
M  V30 1095 H 98.9225 4.72679 1.51289 0
M  V30 1096 H 94.1785 6.03516 0.978686 0
M  V30 1097 H 98.3525 6.93958 0.582654 0
M  V30 1098 H 95.9795 7.59568 0.309806 0
M  V30 1099 N 97.5546 -0.734337 1.39446 0
M  V30 1100 C 98.4846 -1.86155 1.40955 0
M  V30 1101 C 99.4656 -1.67898 0.272827 0
M  V30 1102 O 100.651 -1.88207 0.478743 0
M  V30 1103 C 97.7806 -3.23912 1.25294 0
M  V30 1104 C 96.7346 -3.56808 2.36373 0
M  V30 1105 C 96.0606 -4.93508 2.058 0
M  V30 1106 C 97.3606 -3.59713 3.78687 0
M  V30 1107 H 99.0546 -1.8515 2.35287 0
M  V30 1108 H 96.6006 -0.889367 1.13253 0
M  V30 1109 H 98.5536 -4.02443 1.2497 0
M  V30 1110 H 97.2776 -3.25446 0.274308 0
M  V30 1111 H 95.9366 -2.80606 2.35914 0
M  V30 1112 H 95.5846 -4.91623 1.06374 0
M  V30 1113 H 95.2846 -5.16486 2.80208 0
M  V30 1114 H 96.8086 -5.74396 2.07128 0
M  V30 1115 H 98.2226 -4.2832 3.81071 0
M  V30 1116 H 96.6196 -3.94209 4.52459 0
M  V30 1117 H 97.6896 -2.59504 4.09617 0
M  V30 1118 N 99.0327 -1.24633 -0.964593 0
M  V30 1119 C 100.282 -1.08188 -1.7023 0
M  V30 1120 C 100.595 0.37873 -1.91898 0
M  V30 1121 O 101.801 0.663427 -2.6327 0
M  V30 1122 C 100.257 -1.88773 -3.06419 0
M  V30 1123 C 99.8647 -3.39263 -2.92582 0
M  V30 1124 C 101.609 -1.80867 -3.84041 0
M  V30 1125 C 99.5157 -4.1218 -4.24101 0
M  V30 1126 H 98.4457 -0.401245 -0.638372 0
M  V30 1127 H 101.097 -1.48742 -1.07462 0
M  V30 1128 H 99.4787 -1.41035 -3.70034 0
M  V30 1129 H 100.653 -3.94603 -2.37961 0
M  V30 1130 H 98.9677 -3.48154 -2.28424 0
M  V30 1131 H 101.565 -2.32646 -4.81435 0
M  V30 1132 H 101.908 -0.774543 -4.09031 0
M  V30 1133 H 102.441 -2.26301 -3.27159 0
M  V30 1134 H 99.1797 -5.15965 -4.04303 0
M  V30 1135 H 98.6997 -3.61626 -4.78526 0
M  V30 1136 H 100.379 -4.19349 -4.92702 0
M  V30 1137 N 100.511 1.16574 -1.06058 0
M  V30 1138 C 101.739 1.90952 -0.796552 0
M  V30 1139 C 102.154 1.77302 0.648808 0
M  V30 1140 O 101.511 1.11605 1.44397 0
M  V30 1141 C 101.562 3.41736 -1.17894 0
M  V30 1142 O 101.283 3.54975 -2.56758 0
M  V30 1143 C 102.784 4.33169 -0.942308 0
M  V30 1144 H 100.004 0.605594 -0.288959 0
M  V30 1145 H 102.548 1.47777 -1.41358 0
M  V30 1146 H 100.703 3.82623 -0.606491 0
M  V30 1147 H 101.117 4.4846 -2.72 0
M  V30 1148 H 102.591 5.37439 -1.25952 0
M  V30 1149 H 103.068 4.3903 0.122078 0
M  V30 1150 H 103.674 3.98007 -1.49902 0
M  V30 1151 N 101.989 0.842826 1.3317 0
M  V30 1152 C 102.919 0.294028 2.31641 0
M  V30 1153 C 103.9 -0.600401 1.59151 0
M  V30 1154 O 105.085 -0.523124 1.87022 0
M  V30 1155 C 102.215 -0.528416 3.43257 0
M  V30 1156 C 101.169 0.27056 4.27144 0
M  V30 1157 C 100.495 -0.675881 5.30411 0
M  V30 1158 C 101.795 1.48981 5.00602 0
M  V30 1159 H 103.489 1.11681 2.77791 0
M  V30 1160 H 101.035 0.538478 1.33553 0
M  V30 1161 H 102.988 -0.922674 4.11175 0
M  V30 1162 H 101.712 -1.38445 2.95805 0
M  V30 1163 H 100.371 0.646427 3.60856 0
M  V30 1164 H 100.019 -1.52842 4.79216 0
M  V30 1165 H 99.7189 -0.145374 5.8742 0
M  V30 1166 H 101.243 -1.06757 6.01195 0
M  V30 1167 H 102.657 1.16849 5.61266 0
M  V30 1168 H 101.054 1.95739 5.6728 0
M  V30 1169 H 102.124 2.25746 4.29147 0
M  V30 1170 N 103.467 -1.45747 0.599634 0
M  V30 1171 C 104.878 -1.85853 0.177681 0
M  V30 1172 C 105.229 -1.50102 -1.26348 0
M  V30 1173 O 104.354 -0.923905 -1.95686 0
M  V30 1174 C 104.949 -3.37326 0.315688 0
M  V30 1175 C 103.508 -3.76365 -0.0515144 0
M  V30 1176 C 102.655 -2.69722 0.643822 0
M  V30 1177 H 105.606 -1.36661 0.806814 0
M  V30 1178 H 105.627 -3.77778 -0.454321 0
M  V30 1179 H 105.139 -3.63315 1.36468 0
M  V30 1180 H 103.24 -3.55993 -1.09999 0
M  V30 1181 H 103.353 -4.77916 0.336594 0
M  V30 1182 H 101.717 -2.54567 0.0822881 0
M  V30 1183 H 102.5 -2.98549 1.6948 0
M  V30 1184 N 104.945 -0.338344 -1.53925 0
M  V30 1185 C 105.875 0.51328 -2.27789 0
M  V30 1186 C 106.856 1.107 -1.29149 0
M  V30 1187 O 108.041 1.12937 -1.57984 0
M  V30 1188 C 105.171 1.66697 -3.04679 0
M  V30 1189 C 104.125 1.20183 -4.1078 0
M  V30 1190 C 103.451 2.44363 -4.75595 0
M  V30 1191 C 104.751 0.30605 -5.21403 0
M  V30 1192 H 106.445 -0.102883 -2.99223 0
M  V30 1193 H 103.991 -0.0509219 -1.4391 0
M  V30 1194 H 105.944 2.26915 -3.55088 0
M  V30 1195 H 104.668 2.30995 -2.30887 0
M  V30 1196 H 103.327 0.622499 -3.61276 0
M  V30 1197 H 102.975 3.07057 -3.98403 0
M  V30 1198 H 102.675 2.13925 -5.47275 0
M  V30 1199 H 104.199 3.05317 -5.28786 0
M  V30 1200 H 105.613 0.814929 -5.67478 0
M  V30 1201 H 104.01 0.0937929 -6.00027 0
M  V30 1202 H 105.08 -0.65921 -4.80398 0
M  V30 1203 N 106.423 1.57458 -0.0668435 0
M  V30 1204 C 107.669 1.94401 0.598316 0
M  V30 1205 C 108.024 0.946335 1.67518 0
M  V30 1206 O 107.317 -0.0321442 1.91573 0
M  V30 1207 C 107.511 3.35784 1.22409 0
M  V30 1208 C 107.34 4.49212 0.209367 0
M  V30 1209 C 106.11 5.04887 -0.204218 0
M  V30 1210 C 108.308 5.11335 -0.551431 0
M  V30 1211 N 106.29 6.01854 -1.21016 0
M  V30 1212 C 107.661 6.03754 -1.41 0
M  V30 1213 C 109.716 4.94173 -0.608038 0
M  V30 1214 C 108.419 6.80854 -2.32013 0
M  V30 1215 C 110.445 5.71912 -1.50566 0
M  V30 1216 C 109.807 6.63976 -2.35191 0
M  V30 1217 H 105.906 0.758538 0.190114 0
M  V30 1218 H 108.49 1.94175 -0.142832 0
M  V30 1219 H 106.661 3.36757 1.93518 0
M  V30 1220 H 108.393 3.59976 1.84931 0
M  V30 1221 H 105.148 4.73266 0.177908 0
M  V30 1222 H 105.572 6.55035 -1.71049 0
M  V30 1223 H 110.214 4.22788 0.032022 0
M  V30 1224 H 107.932 7.5152 -2.97057 0
M  V30 1225 H 111.518 5.60656 -1.55423 0
M  V30 1226 H 110.398 7.2308 -3.03522 0
M  V30 1227 N 107.901 -0.206675 1.56239 0
M  V30 1228 C 109.15 -0.926964 1.79138 0
M  V30 1229 C 109.463 -1.84901 0.638043 0
M  V30 1230 O 110.669 -2.60906 0.751033 0
M  V30 1231 C 109.125 -1.6986 3.17294 0
M  V30 1232 C 108.733 -0.821956 4.40395 0
M  V30 1233 C 110.477 -2.40922 3.4951 0
M  V30 1234 C 108.384 -1.59179 5.69575 0
M  V30 1235 H 107.314 -0.349864 0.667915 0
M  V30 1236 H 109.965 -0.180487 1.8261 0
M  V30 1237 H 108.347 -2.48853 3.08039 0
M  V30 1238 H 109.521 -0.0715019 4.60745 0
M  V30 1239 H 107.836 -0.222741 4.15804 0
M  V30 1240 H 110.433 -2.99047 4.43255 0
M  V30 1241 H 110.776 -3.14542 2.72707 0
M  V30 1242 H 111.309 -1.68905 3.60161 0
M  V30 1243 H 108.048 -0.898589 6.49312 0
M  V30 1244 H 107.568 -2.31648 5.53262 0
M  V30 1245 H 109.247 -2.14862 6.10281 0
M  V30 1246 N 109.379 -1.50304 -0.473955 0
M  V30 1247 C 110.625 -1.61389 -1.22806 0
M  V30 1248 C 110.958 -0.311955 -1.91678 0
M  V30 1249 O 110.233 0.686384 -1.81986 0
M  V30 1250 C 110.516 -2.79219 -2.27396 0
M  V30 1251 C 110.369 -4.19286 -1.62848 0
M  V30 1252 C 111.688 -2.92614 -3.28732 0
M  V30 1253 H 108.807 -0.587399 -0.445119 0
M  V30 1254 H 111.449 -1.82681 -0.522265 0
M  V30 1255 H 109.599 -2.61195 -2.87592 0
M  V30 1256 H 111.271 -4.48892 -1.06271 0
M  V30 1257 H 109.514 -4.23677 -0.931693 0
M  V30 1258 H 110.185 -4.97655 -2.38838 0
M  V30 1259 H 112.661 -3.09105 -2.78556 0
M  V30 1260 H 111.537 -3.76688 -3.99246 0
M  V30 1261 H 111.798 -2.03107 -3.92683 0
M  V30 1262 N 110.857 0.726932 -1.39834 0
M  V30 1263 C 112.087 1.51393 -1.40583 0
M  V30 1264 C 112.495 1.892 -0.000740625 0
M  V30 1265 O 111.838 1.55189 0.982951 0
M  V30 1266 C 111.9 2.82588 -2.22226 0
M  V30 1267 C 111.564 2.67169 -3.70769 0
M  V30 1268 C 112.561 2.3518 -4.63666 0
M  V30 1269 C 110.246 2.83788 -4.14451 0
M  V30 1270 C 112.24 2.20002 -5.98229 0
M  V30 1271 C 109.927 2.68229 -5.49087 0
M  V30 1272 C 110.925 2.36382 -6.4079 0
M  V30 1273 O 110.613 2.2093 -7.72946 0
M  V30 1274 H 110.345 0.474168 -0.48181 0
M  V30 1275 H 112.899 0.905247 -1.84376 0
M  V30 1276 H 111.129 3.45746 -1.73195 0
M  V30 1277 H 112.818 3.44247 -2.15055 0
M  V30 1278 H 113.584 2.21984 -4.31217 0
M  V30 1279 H 109.463 3.07566 -3.43401 0
M  V30 1280 H 113.007 1.95067 -6.69772 0
M  V30 1281 H 108.904 2.81006 -5.81125 0
M  V30 1282 H 109.672 2.35937 -7.83757 0
M  V30 1283 N 112.336 1.25143 0.95797 0
M  V30 1284 C 113.566 1.12261 1.73439 0
M  V30 1285 C 113.974 -0.326715 1.86358 0
M  V30 1286 O 113.317 -1.2367 1.35836 0
M  V30 1287 C 113.379 1.69966 3.16784 0
M  V30 1288 C 113.043 3.18936 3.27305 0
M  V30 1289 C 114.04 4.15968 3.11877 0
M  V30 1290 C 111.725 3.59083 3.51234 0
M  V30 1291 C 113.719 5.51126 3.20217 0
M  V30 1292 C 111.406 4.9438 3.5921 0
M  V30 1293 C 112.404 5.90211 3.43716 0
M  V30 1294 O 112.092 7.23046 3.51368 0
M  V30 1295 H 111.824 0.392476 0.550399 0
M  V30 1296 H 114.378 1.65927 1.21068 0
M  V30 1297 H 112.608 1.10744 3.70503 0
M  V30 1298 H 114.297 1.52232 3.76272 0
M  V30 1299 H 115.063 3.86292 2.93264 0
M  V30 1300 H 110.942 2.84989 3.62356 0
M  V30 1301 H 114.486 6.25905 3.0804 0
M  V30 1302 H 110.383 5.23723 3.77339 0
M  V30 1303 H 111.151 7.31097 3.6802 0
M  V30 1304 N 113.814 -1.1601 1.06675 0
M  V30 1305 C 114.746 -2.20115 0.638921 0
M  V30 1306 C 115.759 -1.59916 -0.305057 0
M  V30 1307 O 116.948 -1.78245 -0.0954446 0
M  V30 1308 C 114.048 -3.38798 -0.0830083 0
M  V30 1309 C 113.221 -4.2855 0.875426 0
M  V30 1310 C 112.28 -5.25849 0.192042 0
M  V30 1311 O 111.306 -5.63102 0.830921 0
M  V30 1312 N 112.508 -5.70648 -1.06493 0
M  V30 1313 H 115.273 -2.57439 1.53444 0
M  V30 1314 H 112.834 -1.31057 0.950557 0
M  V30 1315 H 114.826 -4.00936 -0.550685 0
M  V30 1316 H 113.396 -2.99947 -0.880386 0
M  V30 1317 H 112.616 -3.63617 1.52238 0
M  V30 1318 H 113.904 -4.85393 1.52548 0
M  V30 1319 H 113.302 -5.42482 -1.60405 0
M  V30 1320 H 111.859 -6.34859 -1.47641 0
M  V30 1321 N 115.292 -0.849877 -1.32721 0
M  V30 1322 C 116.24 -0.279745 -2.30912 0
M  V30 1323 C 117.234 0.594278 -1.58634 0
M  V30 1324 O 118.44 0.482613 -1.73409 0
M  V30 1325 H 114.815 -0.0717521 -0.748569 0
M  V30 1326 H 116.786 -1.12222 -2.76494 0
M  V30 1327 C 115.535 0.521108 -3.43773 0
M  V30 1328 H 114.858 -0.142141 -3.99547 0
M  V30 1329 H 116.298 0.885693 -4.14646 0
M  V30 1330 C 114.757 1.70442 -2.90605 0
M  V30 1331 O 115.287 2.8034 -2.87702 0
M  V30 1332 N 113.493 1.52991 -2.47067 0
M  V30 1333 H 113.04 0.635914 -2.49628 0
M  V30 1334 H 112.998 2.32311 -2.11847 0
M  V30 1335 N 116.77 1.45427 -0.607355 0
M  V30 1336 C 117.702 2.2871 0.149752 0
M  V30 1337 C 118.715 1.39937 0.831958 0
M  V30 1338 O 119.904 1.64313 0.697385 0
M  V30 1339 C 117.004 3.15673 1.23304 0
M  V30 1340 C 116.177 4.32722 0.637996 0
M  V30 1341 C 115.236 5.00895 1.61215 0
M  V30 1342 O 114.262 5.57697 1.13854 0
M  V30 1343 N 115.464 5.00159 2.94655 0
M  V30 1344 H 118.229 2.94328 -0.564882 0
M  V30 1345 H 115.79 1.55612 -0.446823 0
M  V30 1346 H 117.782 3.58144 1.88454 0
M  V30 1347 H 116.352 2.51965 1.8502 0
M  V30 1348 H 115.572 3.93734 -0.191572 0
M  V30 1349 H 116.86 5.08321 0.220665 0
M  V30 1350 H 116.258 4.553 3.35735 0
M  V30 1351 H 114.815 5.46495 3.55228 0
M  V30 1352 N 118.248 0.346503 1.53744 0
M  V30 1353 C 119.496 -0.248612 2.00565 0
M  V30 1354 C 119.817 -1.5083 1.23593 0
M  V30 1355 O 119.087 -1.92858 0.343912 0
M  V30 1356 H 117.667 -0.0948564 0.740953 0
M  V30 1357 H 120.329 0.468341 1.89189 0
M  V30 1358 H 119.425 -0.488994 3.08245 0
M  V30 1359 N 119.726 -1.57421 0.075193 0
M  V30 1360 C 120.674 -2.14124 -0.908508 0
M  V30 1361 C 121.668 -1.07898 -1.30592 0
M  V30 1362 O 122.874 -1.26273 -1.28277 0
M  V30 1363 H 119.249 -0.684707 -0.310935 0
M  V30 1364 H 121.22 -2.95634 -0.405374 0
M  V30 1365 C 119.969 -2.72044 -2.16535 0
M  V30 1366 H 119.292 -3.53456 -1.86839 0
M  V30 1367 H 120.732 -3.15311 -2.83469 0
M  V30 1368 C 119.191 -1.66968 -2.92615 0
M  V30 1369 O 119.721 -1.0967 -3.86439 0
M  V30 1370 N 117.927 -1.37923 -2.55784 0
M  V30 1371 H 117.474 -1.84706 -1.79559 0
M  V30 1372 H 117.432 -0.67852 -3.06991 0
M  V30 1373 N 121.204 0.198386 -1.56346 0
M  V30 1374 C 122.45 0.916115 -1.81601 0
M  V30 1375 C 122.805 1.81025 -0.651744 0
M  V30 1376 O 122.098 1.88316 0.353229 0
M  V30 1377 C 122.292 1.77031 -3.10475 0
M  V30 1378 C 122.121 0.960365 -4.39326 0
M  V30 1379 C 120.891 0.646093 -5.01152 0
M  V30 1380 C 123.089 0.314628 -5.13337 0
M  V30 1381 N 121.071 -0.182828 -6.13628 0
M  V30 1382 C 122.442 -0.37664 -6.18855 0
M  V30 1383 C 124.497 0.230019 -4.97368 0
M  V30 1384 C 123.2 -1.14445 -7.10137 0
M  V30 1385 C 125.226 -0.524389 -5.89071 0
M  V30 1386 C 124.588 -1.20412 -6.94032 0
M  V30 1387 H 120.687 0.314732 -0.715868 0
M  V30 1388 H 123.271 0.185102 -1.93818 0
M  V30 1389 H 121.442 2.47295 -2.99499 0
M  V30 1390 H 123.174 2.42727 -3.2383 0
M  V30 1391 H 119.929 0.969724 -4.63566 0
M  V30 1392 H 120.353 -0.586802 -6.74452 0
M  V30 1393 H 124.995 0.741184 -4.16253 0
M  V30 1394 H 122.713 -1.66706 -7.90718 0
M  V30 1395 H 126.299 -0.591167 -5.78789 0
M  V30 1396 H 125.179 -1.77853 -7.63766 0
M  V30 1397 N 122.682 1.50554 0.465978 0
M  V30 1398 C 123.931 1.61038 1.21448 0
M  V30 1399 C 124.244 0.31865 1.92987 0
M  V30 1400 O 125.45 0.302469 2.6981 0
M  V30 1401 C 123.906 2.84283 2.20706 0
M  V30 1402 C 123.514 4.20352 1.54946 0
M  V30 1403 C 125.258 3.04115 2.96166 0
M  V30 1404 C 123.165 5.34778 2.5252 0
M  V30 1405 H 122.095 0.599718 0.457005 0
M  V30 1406 H 124.746 1.7699 0.484424 0
M  V30 1407 H 123.128 2.61901 2.97025 0
M  V30 1408 H 124.302 4.53008 0.843811 0
M  V30 1409 H 122.617 4.06167 0.917475 0
M  V30 1410 H 125.214 3.86774 3.69202 0
M  V30 1411 H 125.557 2.16045 3.55852 0
M  V30 1412 H 126.09 3.26702 2.26959 0
M  V30 1413 H 122.829 6.25018 1.97566 0
M  V30 1414 H 122.349 5.06534 3.21222 0
M  V30 1415 H 124.028 5.65561 3.14245 0
M  V30 1416 N 124.16 -0.719506 1.40217 0
M  V30 1417 C 125.09 -1.8465 1.42922 0
M  V30 1418 C 126.071 -1.67599 0.29062 0
M  V30 1419 O 127.256 -1.87688 0.498677 0
M  V30 1420 C 124.386 -3.22565 1.28722 0
M  V30 1421 C 123.34 -3.54281 2.40144 0
M  V30 1422 C 122.666 -4.91298 2.11023 0
M  V30 1423 C 123.966 -3.55676 3.82481 0
M  V30 1424 H 125.66 -1.82644 2.37237 0
M  V30 1425 H 123.206 -0.877305 1.1419 0
M  V30 1426 H 125.159 -4.01095 1.29232 0
M  V30 1427 H 123.883 -3.25137 0.308811 0
M  V30 1428 H 122.542 -2.78088 2.38877 0
M  V30 1429 H 122.19 -4.90468 1.11582 0
M  V30 1430 H 121.89 -5.13485 2.8567 0
M  V30 1431 H 123.414 -5.72166 2.13209 0
M  V30 1432 H 124.828 -4.24254 3.85592 0
M  V30 1433 H 123.225 -3.89388 4.56614 0
M  V30 1434 H 124.295 -2.55144 4.12346 0
M  V30 1435 N 125.638 -1.25649 -0.95132 0
M  V30 1436 C 127.049 -1.09654 -1.51106 0
M  V30 1437 C 127.4 0.326615 -1.93462 0
M  V30 1438 O 126.525 1.21697 -1.78938 0
M  V30 1439 C 127.12 -1.98437 -2.74605 0
M  V30 1440 C 125.679 -1.86618 -3.2688 0
M  V30 1441 C 124.826 -1.9239 -1.99703 0
M  V30 1442 H 127.777 -1.38887 -0.767865 0
M  V30 1443 H 127.798 -1.5263 -3.48546 0
M  V30 1444 H 127.31 -3.02009 -2.43746 0
M  V30 1445 H 125.411 -0.859421 -3.62553 0
M  V30 1446 H 125.524 -2.71607 -3.94673 0
M  V30 1447 H 123.888 -1.36317 -2.15151 0
M  V30 1448 H 124.671 -2.97573 -1.71188 0
M  V30 1449 N 127.117 1.15442 -1.07289 0
M  V30 1450 C 128.064 2.20161 -0.692653 0
M  V30 1451 C 129.034 1.63073 0.31564 0
M  V30 1452 O 130.219 1.89725 0.202235 0
M  V30 1453 C 127.359 3.44967 -0.0959509 0
M  V30 1454 C 126.472 4.16256 -1.15564 0
M  V30 1455 C 125.607 5.28609 -0.524011 0
M  V30 1456 C 124.646 5.91715 -1.56653 0
M  V30 1457 N 123.783 6.9554 -0.957531 0
M  V30 1458 H 128.623 2.52037 -1.59002 0
M  V30 1459 H 126.16 1.2378 -0.794798 0
M  V30 1460 H 128.118 4.16341 0.267628 0
M  V30 1461 H 126.748 3.1361 0.764772 0
M  V30 1462 H 125.8 3.43385 -1.6368 0
M  V30 1463 H 127.112 4.59268 -1.94613 0
M  V30 1464 H 126.266 6.06604 -0.108032 0
M  V30 1465 H 125.005 4.86787 0.29825 0
M  V30 1466 H 124.01 5.12433 -1.9923 0
M  V30 1467 H 125.235 6.35614 -2.39107 0
M  V30 1468 H 123.181 6.55814 -0.156162 0
M  V30 1469 H 123.098 7.36977 -1.68526 0
M  V30 1470 H 124.366 7.77435 -0.567032 0
M  V30 1471 N 128.595 0.856903 1.32268 0
M  V30 1472 C 129.842 0.461386 1.97174 0
M  V30 1473 C 130.17 -0.983491 1.67803 0
M  V30 1474 O 129.425 -1.70541 0.959903 0
M  V30 1475 C 129.724 0.649919 3.51441 0
M  V30 1476 C 129.39 2.0656 4.00804 0
M  V30 1477 C 128.052 2.45279 4.13995 0
M  V30 1478 C 130.404 2.98947 4.26943 0
M  V30 1479 C 127.732 3.75653 4.50668 0
M  V30 1480 C 130.084 4.28822 4.65075 0
M  V30 1481 C 128.748 4.67472 4.76472 0
M  V30 1482 H 128.018 0.168833 0.72151 0
M  V30 1483 H 130.665 1.08739 1.57633 0
M  V30 1484 H 128.97 -0.0593018 3.91755 0
M  V30 1485 H 130.667 0.32391 3.9969 0
M  V30 1486 H 127.257 1.75495 3.91024 0
M  V30 1487 H 131.441 2.70265 4.16258 0
M  V30 1488 H 126.697 4.05379 4.57688 0
M  V30 1489 H 130.871 5.0047 4.84255 0
M  V30 1490 H 128.498 5.68539 5.04646 0
M  V30 1491 N 130.073 -1.45103 0.615059 0
M  V30 1492 C 131.003 -2.33339 -0.0865619 0
M  V30 1493 C 131.984 -1.4727 -0.851209 0
M  V30 1494 O 133.169 -1.76026 -0.820281 0
M  V30 1495 C 130.299 -3.30095 -1.07956 0
M  V30 1496 C 129.253 -4.25858 -0.427628 0
M  V30 1497 C 128.579 -5.12361 -1.5294 0
M  V30 1498 C 129.879 -5.18165 0.655944 0
M  V30 1499 H 131.573 -2.92254 0.650224 0
M  V30 1500 H 129.119 -1.40532 0.314138 0
M  V30 1501 H 131.072 -3.90698 -1.57901 0
M  V30 1502 H 129.796 -2.69355 -1.84703 0
M  V30 1503 H 128.455 -3.66564 0.0510292 0
M  V30 1504 H 128.103 -4.47984 -2.28734 0
M  V30 1505 H 127.803 -5.77238 -1.09865 0
M  V30 1506 H 129.327 -5.75833 -2.03098 0
M  V30 1507 H 130.741 -5.72796 0.240257 0
M  V30 1508 H 129.138 -5.91559 1.00888 0
M  V30 1509 H 130.208 -4.60144 1.52957 0
M  V30 1510 N 131.551 -0.354651 -1.53558 0
M  V30 1511 C 132.791 0.238651 -2.03002 0
M  V30 1512 C 133.155 1.46878 -1.23656 0
M  V30 1513 O 134.356 2.13699 -1.63053 0
M  V30 1514 C 132.627 0.534175 -3.53386 0
M  V30 1515 S 134.186 1.10271 -4.24719 0
M  V30 1516 H 131.004 0.0702908 -0.707517 0
M  V30 1517 H 133.606 -0.494987 -1.8913 0
M  V30 1518 H 132.31 -0.368765 -4.0874 0
M  V30 1519 H 131.841 1.29718 -3.71398 0
M  V30 1520 H 133.856 2.38772 -4.34974 0
M  V30 1521 N 133.029 1.57378 -0.0835403 0
M  V30 1522 C 133.977 2.14602 0.89714 0
M  V30 1523 C 134.971 1.08589 1.30018 0
M  V30 1524 O 136.177 1.26952 1.27606 0
M  V30 1525 H 132.552 0.686346 0.3073 0
M  V30 1526 H 134.523 2.95845 0.38969 0
M  V30 1527 C 133.272 2.73188 2.15089 0
M  V30 1528 H 132.595 3.54442 1.84962 0
M  V30 1529 H 134.035 3.1681 2.81793 0
M  V30 1530 C 132.494 1.68517 2.91725 0
M  V30 1531 O 133.024 1.11718 3.85852 0
M  V30 1532 N 131.23 1.39277 2.55049 0
M  V30 1533 H 130.777 1.85655 1.78577 0
M  V30 1534 H 130.735 0.694791 3.06627 0
M  V30 1535 N 134.507 -0.190092 1.56449 0
M  V30 1536 C 135.753 -0.911052 1.81184 0
M  V30 1537 C 136.086 -1.82699 0.658396 0
M  V30 1538 O 135.361 -1.91491 -0.340775 0
M  V30 1539 C 135.644 -1.72297 3.16205 0
M  V30 1540 C 135.497 -0.831419 4.42049 0
M  V30 1541 C 136.816 -2.69454 3.47969 0
M  V30 1542 H 133.935 -0.32977 0.659106 0
M  V30 1543 H 136.577 -0.178169 1.89163 0
M  V30 1544 H 134.727 -2.34778 3.09534 0
M  V30 1545 H 136.399 -0.220929 4.60771 0
M  V30 1546 H 134.642 -0.138406 4.33579 0
M  V30 1547 H 135.313 -1.43461 5.33032 0
M  V30 1548 H 137.789 -2.17104 3.54972 0
M  V30 1549 H 136.665 -3.23342 4.43555 0
M  V30 1550 H 136.926 -3.48744 2.71717 0
M  V30 1551 N 135.985 -1.50799 -0.457987 0
M  V30 1552 C 136.948 -1.7005 -1.53674 0
M  V30 1553 C 137.948 -0.570881 -1.50325 0
M  V30 1554 O 139.138 -0.838126 -1.52712 0
M  V30 1555 C 136.27 -1.73788 -2.93276 0
M  V30 1556 H 137.463 -2.66306 -1.37917 0
M  V30 1557 H 135.016 -1.40477 -0.685271 0
M  V30 1558 H 135.751 -0.792717 -3.14462 0
M  V30 1559 H 135.536 -2.55864 -2.97113 0
M  V30 1560 H 137.026 -1.90591 -3.71571 0
M  V30 1561 N 137.463 0.71206 -1.40597 0
M  V30 1562 C 138.711 1.46907 -1.38791 0
M  V30 1563 C 139.032 1.94998 0.00780391 0
M  V30 1564 O 138.302 1.70587 0.963174 0
M  V30 1565 H 136.882 0.545043 -0.51082 0
M  V30 1566 H 139.544 0.843882 -1.75683 0
M  V30 1567 H 138.64 2.34021 -2.06496 0
M  V30 1568 N 138.941 1.26152 0.944643 0
M  V30 1569 C 140.181 1.12708 1.70517 0
M  V30 1570 C 140.545 -0.324727 1.89234 0
M  V30 1571 O 141.746 -0.581211 2.62441 0
M  V30 1572 C 140.017 1.8713 3.04495 0
M  V30 1573 S 141.576 1.89698 3.95677 0
M  V30 1574 H 138.394 0.402665 0.585988 0
M  V30 1575 H 140.996 1.59821 1.12594 0
M  V30 1576 H 139.7 2.91833 2.88551 0
M  V30 1577 H 139.231 1.40444 3.67477 0
M  V30 1578 H 141.246 0.981198 4.86402 0
M  V30 1579 N 140.419 -1.14872 1.07899 0
M  V30 1580 C 141.349 -2.2193 0.725887 0
M  V30 1581 C 142.33 -1.67622 -0.28927 0
M  V30 1582 O 143.515 -1.93533 -0.160787 0
M  V30 1583 C 140.645 -3.47061 0.128856 0
M  V30 1584 C 139.599 -4.14363 1.07178 0
M  V30 1585 C 138.925 -5.33636 0.337229 0
M  V30 1586 C 140.225 -4.63492 2.40775 0
M  V30 1587 H 141.919 -2.51724 1.62097 0
M  V30 1588 H 139.465 -1.20991 0.780838 0
M  V30 1589 H 141.418 -4.21199 -0.130147 0
M  V30 1590 H 140.142 -3.16617 -0.80134 0
M  V30 1591 H 138.801 -3.42173 1.3158 0
M  V30 1592 H 138.449 -4.99449 -0.596606 0
M  V30 1593 H 138.149 -5.79609 0.965788 0
M  V30 1594 H 139.673 -6.10539 0.0861567 0
M  V30 1595 H 141.087 -5.2913 2.20669 0
M  V30 1596 H 139.484 -5.20148 2.99276 0
M  V30 1597 H 140.554 -3.78834 3.02676 0
M  V30 1598 N 141.898 -0.863906 -1.31812 0
M  V30 1599 C 143.145 -0.471836 -1.96926 0
M  V30 1600 C 143.473 0.974578 -1.68322 0
M  V30 1601 O 142.728 1.7003 -0.968933 0
M  V30 1602 C 143.027 -0.668547 -3.51091 0
M  V30 1603 C 142.693 -2.08683 -3.99703 0
M  V30 1604 C 141.355 -2.47471 -4.12688 0
M  V30 1605 C 143.707 -3.01207 -4.25351 0
M  V30 1606 C 141.035 -3.78037 -4.4867 0
M  V30 1607 C 143.387 -4.31282 -4.62794 0
M  V30 1608 C 142.051 -4.69992 -4.73987 0
M  V30 1609 H 141.321 -0.172657 -0.720604 0
M  V30 1610 H 143.968 -1.09573 -1.57054 0
M  V30 1611 H 142.273 0.0385252 -3.91781 0
M  V30 1612 H 143.97 -0.345102 -3.99512 0
M  V30 1613 H 140.56 -1.77566 -3.90087 0
M  V30 1614 H 144.744 -2.72469 -4.14819 0
M  V30 1615 H 140 -4.078 -4.55532 0
M  V30 1616 H 144.174 -5.03031 -4.81594 0
M  V30 1617 H 141.801 -5.71207 -5.01624 0
M  V30 1618 N 143.376 1.44774 -0.622745 0
M  V30 1619 C 144.623 2.02121 -0.1239 0
M  V30 1620 C 144.951 1.48915 1.25118 0
M  V30 1621 O 144.206 0.660045 1.84233 0
M  V30 1622 C 144.505 3.57364 -0.0508323 0
M  V30 1623 C 144.171 4.29787 -1.36358 0
M  V30 1624 C 142.833 4.4929 -1.72314 0
M  V30 1625 C 145.185 4.71062 -2.23048 0
M  V30 1626 C 142.513 5.07325 -2.94682 0
M  V30 1627 C 144.865 5.30452 -3.44679 0
M  V30 1628 C 143.529 5.48175 -3.80868 0
M  V30 1629 H 142.799 0.739612 -0.0453381 0
M  V30 1630 H 145.446 1.73648 -0.807389 0
M  V30 1631 H 143.751 3.85202 0.715991 0
M  V30 1632 H 145.448 3.99456 0.351533 0
M  V30 1633 H 142.038 4.14932 -1.07375 0
M  V30 1634 H 146.222 4.55715 -1.96565 0
M  V30 1635 H 141.478 5.19235 -3.22809 0
M  V30 1636 H 145.652 5.61385 -4.12092 0
M  V30 1637 H 143.279 5.92912 -4.75773 0
M  V30 1638 N 144.854 0.36279 1.53368 0
M  V30 1639 C 146.103 -0.22888 2.00397 0
M  V30 1640 C 146.416 -1.50096 1.25421 0
M  V30 1641 O 147.622 -2.17106 1.63025 0
M  V30 1642 C 146.078 -0.458417 3.56969 0
M  V30 1643 C 145.686 0.798877 4.4082 0
M  V30 1644 C 147.43 -1.00789 4.12361 0
M  V30 1645 C 145.337 0.539078 5.88938 0
M  V30 1646 H 144.267 -0.089305 0.748693 0
M  V30 1647 H 146.918 0.481099 1.77081 0
M  V30 1648 H 145.3 -1.22959 3.76427 0
M  V30 1649 H 146.474 1.57262 4.33134 0
M  V30 1650 H 144.789 1.27137 3.96516 0
M  V30 1651 H 147.386 -1.21754 5.20653 0
M  V30 1652 H 147.729 -1.9692 3.66781 0
M  V30 1653 H 148.262 -0.296961 3.9669 0
M  V30 1654 H 145.001 1.47064 6.3879 0
M  V30 1655 H 144.521 -0.196222 5.99479 0
M  V30 1656 H 146.2 0.163542 6.46793 0
M  V30 1657 N 146.332 -1.57332 0.0918853 0
M  V30 1658 C 147.28 -2.15075 -0.885747 0
M  V30 1659 C 148.274 -1.09277 -1.29441 0
M  V30 1660 O 149.48 -1.27627 -1.26931 0
M  V30 1661 H 145.855 -0.687966 -0.303656 0
M  V30 1662 H 147.826 -2.96047 -0.373995 0
M  V30 1663 C 146.575 -2.74325 -2.13638 0
M  V30 1664 H 145.898 -3.55418 -1.8308 0
M  V30 1665 H 147.338 -3.183 -2.80109 0
M  V30 1666 C 145.797 -1.70062 -2.90827 0
M  V30 1667 O 146.327 -1.13763 -3.85254 0
M  V30 1668 N 144.533 -1.40628 -2.54307 0
M  V30 1669 H 144.08 -1.866 -1.7759 0
M  V30 1670 H 144.038 -0.711043 -3.06254 0
M  V30 1671 N 147.81 0.181792 -1.56548 0
M  V30 1672 C 149.038 0.915947 -1.85521 0
M  V30 1673 C 149.453 1.76282 -0.676016 0
M  V30 1674 O 148.81 1.79012 0.355077 0
M  V30 1675 C 148.861 1.80126 -3.13427 0
M  V30 1676 O 148.582 0.988562 -4.26801 0
M  V30 1677 C 150.083 2.64597 -3.55673 0
M  V30 1678 H 147.303 0.26661 -0.61576 0
M  V30 1679 H 149.847 0.185039 -2.03661 0
M  V30 1680 H 148.002 2.48563 -2.97145 0
M  V30 1681 H 148.416 1.59308 -4.99721 0
M  V30 1682 H 149.89 3.2235 -4.48101 0
M  V30 1683 H 150.367 3.38958 -2.79292 0
M  V30 1684 H 150.973 2.0151 -3.74532 0
M  V30 1685 N 149.288 1.51039 0.449983 0
M  V30 1686 C 150.518 1.66627 1.22143 0
M  V30 1687 C 150.926 0.357776 1.85786 0
M  V30 1688 O 150.269 -0.672424 1.70951 0
M  V30 1689 C 150.331 2.71562 2.35573 0
M  V30 1690 C 149.995 4.14526 1.92399 0
M  V30 1691 C 150.992 4.99717 1.43453 0
M  V30 1692 C 148.677 4.60559 2.00475 0
M  V30 1693 C 150.671 6.28998 1.03155 0
M  V30 1694 C 148.358 5.8984 1.59788 0
M  V30 1695 C 149.356 6.73886 1.11208 0
M  V30 1696 O 149.044 8.0075 0.710935 0
M  V30 1697 H 148.776 0.562635 0.374724 0
M  V30 1698 H 151.33 1.98146 0.541036 0
M  V30 1699 H 149.56 2.3533 3.06849 0
M  V30 1700 H 151.249 2.76156 2.97478 0
M  V30 1701 H 152.015 4.65361 1.36618 0
M  V30 1702 H 147.894 3.95273 2.37235 0
M  V30 1703 H 151.438 6.9455 0.651663 0
M  V30 1704 H 147.335 6.23713 1.66289 0
M  V30 1705 H 148.103 8.142 0.837913 0
M  V30 1706 N 150.766 -0.704594 1.40972 0
M  V30 1707 C 152.006 -1.47691 1.41304 0
M  V30 1708 C 152.37 -1.91992 0.0178582 0
M  V30 1709 O 153.571 -2.68599 -0.103996 0
M  V30 1710 C 151.842 -2.66254 2.38419 0
M  V30 1711 S 153.401 -3.55516 2.57204 0
M  V30 1712 H 150.219 -0.504808 0.500689 0
M  V30 1713 H 152.821 -0.822962 1.77335 0
M  V30 1714 H 151.525 -2.31897 3.38603 0
M  V30 1715 H 151.056 -3.3655 2.03711 0
M  V30 1716 H 153.071 -4.61115 1.83268 0
M  V30 1717 N 152.244 -1.26651 -0.937939 0
M  V30 1718 C 153.469 -1.15279 -1.72411 0
M  V30 1719 C 153.894 0.287866 -1.85884 0
M  V30 1720 O 153.252 1.20855 -1.35143 0
M  V30 1721 C 153.3 -1.83028 -3.10698 0
M  V30 1722 O 152.404 -1.12128 -3.96864 0
M  V30 1723 H 151.745 -0.401504 -0.528858 0
M  V30 1724 H 154.275 -1.67531 -1.1745 0
M  V30 1725 H 154.285 -1.89981 -3.6107 0
M  V30 1726 H 152.96 -2.87833 -3.00208 0
M  V30 1727 H 151.537 -1.13173 -3.55312 0
M  V30 1728 N 153.722 1.14298 -1.08507 0
M  V30 1729 C 154.968 1.85633 -0.816581 0
M  V30 1730 C 155.301 1.82784 0.656021 0
M  V30 1731 O 154.576 1.25926 1.48233 0
M  V30 1732 C 154.859 3.34223 -1.34041 0
M  V30 1733 C 154.712 3.45639 -2.87843 0
M  V30 1734 C 156.031 4.29356 -0.9665 0
M  V30 1735 H 153.15 0.67402 -0.298104 0
M  V30 1736 H 155.792 1.34214 -1.34487 0
M  V30 1737 H 153.942 3.78144 -0.89104 0
M  V30 1738 H 155.614 3.10498 -3.41158 0
M  V30 1739 H 153.857 2.86817 -3.25451 0
M  V30 1740 H 154.528 4.50089 -3.19569 0
M  V30 1741 H 157.004 3.93457 -1.35391 0
M  V30 1742 H 155.88 5.3178 -1.3602 0
M  V30 1743 H 156.141 4.41919 0.126362 0
M  V30 1744 N 155.201 0.870884 1.31352 0
M  V30 1745 C 156.164 0.332243 2.26779 0
M  V30 1746 C 157.164 -0.517302 1.52252 0
M  V30 1747 O 158.354 -0.326477 1.71113 0
M  V30 1748 C 155.486 -0.528066 3.36785 0
M  V30 1749 H 156.679 1.17469 2.75937 0
M  V30 1750 H 154.232 0.64655 1.423 0
M  V30 1751 H 154.967 -1.39167 2.92922 0
M  V30 1752 H 154.752 0.0802582 3.92018 0
M  V30 1753 H 156.242 -0.897179 4.07849 0
M  V30 1754 N 156.679 -1.44442 0.630414 0
M  V30 1755 C 157.926 -2.02052 0.134617 0
M  V30 1756 C 158.254 -1.49576 -1.24327 0
M  V30 1757 O 157.509 -0.669806 -1.83881 0
M  V30 1758 C 157.808 -3.57332 0.0697835 0
M  V30 1759 C 157.474 -4.29058 1.38635 0
M  V30 1760 C 156.136 -4.4837 1.74694 0
M  V30 1761 C 158.488 -4.69872 2.25543 0
M  V30 1762 C 155.816 -5.05756 2.97369 0
M  V30 1763 C 158.168 -5.28616 3.47487 0
M  V30 1764 C 156.832 -5.46147 3.8377 0
M  V30 1765 H 156.102 -0.739361 0.0492598 0
M  V30 1766 H 158.749 -1.73217 0.816586 0
M  V30 1767 H 157.054 -3.85577 -0.695553 0
M  V30 1768 H 158.751 -3.99637 -0.330344 0
M  V30 1769 H 155.341 -4.14357 1.09574 0
M  V30 1770 H 159.525 -4.54666 1.98979 0
M  V30 1771 H 154.781 -5.17515 3.25558 0
M  V30 1772 H 158.955 -5.59192 4.15063 0
M  V30 1773 H 156.582 -5.9038 4.7891 0
M  V30 1774 N 158.157 -0.370918 -1.53173 0
M  V30 1775 C 159.087 0.464847 -2.28826 0
M  V30 1776 C 160.068 1.07936 -1.31468 0
M  V30 1777 O 161.253 1.0956 -1.60344 0
M  V30 1778 C 158.383 1.60196 -3.08147 0
M  V30 1779 C 157.337 1.11443 -4.13237 0
M  V30 1780 C 156.663 2.3422 -4.80672 0
M  V30 1781 C 157.963 0.195384 -5.21934 0
M  V30 1782 H 159.657 -0.166329 -2.98938 0
M  V30 1783 H 157.203 -0.0814359 -1.4377 0
M  V30 1784 H 159.156 2.19332 -3.59822 0
M  V30 1785 H 157.88 2.26045 -2.35735 0
M  V30 1786 H 156.539 0.545727 -3.62515 0
M  V30 1787 H 156.187 2.98537 -4.04827 0
M  V30 1788 H 155.887 2.02269 -5.51689 0
M  V30 1789 H 157.411 2.94032 -5.35143 0
M  V30 1790 H 158.825 0.694375 -5.69079 0
M  V30 1791 H 157.222 -0.0335027 -6.00091 0
M  V30 1792 H 158.292 -0.760961 -4.78892 0
M  V30 1793 N 159.635 1.57281 -0.100228 0
M  V30 1794 C 160.883 1.94153 0.561157 0
M  V30 1795 C 161.204 0.983157 1.68401 0
M  V30 1796 O 160.474 0.0361132 1.95867 0
M  V30 1797 H 159.054 0.716791 0.210283 0
M  V30 1798 H 161.716 1.94202 -0.164765 0
M  V30 1799 H 160.812 2.96709 0.968008 0
M  V30 1800 N 161.113 -0.173488 1.56642 0
M  V30 1801 C 162.359 -0.891784 1.8214 0
M  V30 1802 C 162.692 -1.8199 0.677736 0
M  V30 1803 O 161.967 -1.91842 -0.320446 0
M  V30 1804 C 162.25 -1.68933 3.18015 0
M  V30 1805 C 162.103 -0.784487 4.42906 0
M  V30 1806 C 163.422 -2.65748 3.50808 0
M  V30 1807 H 160.541 -0.322761 0.662567 0
M  V30 1808 H 163.183 -0.158095 1.89341 0
M  V30 1809 H 161.333 -2.31482 3.12007 0
M  V30 1810 H 163.005 -0.172046 4.60979 0
M  V30 1811 H 161.248 -0.0924117 4.33702 0
M  V30 1812 H 161.919 -1.37799 5.34524 0
M  V30 1813 H 164.395 -2.13327 3.57255 0
M  V30 1814 H 163.271 -3.18619 4.4696 0
M  V30 1815 H 163.532 -3.45842 2.75401 0
M  V30 1816 N 162.591 -1.51276 -0.441967 0
M  V30 1817 C 163.84 -1.6295 -1.18871 0
M  V30 1818 C 164.153 -0.349312 -1.92456 0
M  V30 1819 O 165.359 -0.345355 -2.69295 0
M  V30 1820 C 163.815 -2.87759 -2.16155 0
M  V30 1821 C 163.423 -4.22764 -1.48239 0
M  V30 1822 C 165.167 -3.08788 -2.91291 0
M  V30 1823 C 163.074 -5.38728 -2.4398 0
M  V30 1824 H 162.004 -0.606913 -0.447406 0
M  V30 1825 H 164.655 -1.77739 -0.456205 0
M  V30 1826 H 163.037 -2.66593 -2.92821 0
M  V30 1827 H 164.211 -4.54293 -0.771635 0
M  V30 1828 H 162.526 -4.07575 -0.852741 0
M  V30 1829 H 165.123 -3.92599 -3.63002 0
M  V30 1830 H 165.466 -2.21679 -3.5237 0
M  V30 1831 H 165.999 -3.30272 -2.21733 0
M  V30 1832 H 162.738 -6.28082 -1.87598 0
M  V30 1833 H 162.258 -5.1158 -3.13123 0
M  V30 1834 H 163.937 -5.70489 -3.05207 0
M  V30 1835 N 164.069 0.697108 -1.41344 0
M  V30 1836 C 165.297 1.48593 -1.43972 0
M  V30 1837 C 165.712 1.88747 -0.0445612 0
M  V30 1838 O 165.069 1.56682 0.935785 0
M  V30 1839 C 165.12 2.74946 -2.34706 0
M  V30 1840 O 164.841 2.36484 -3.68791 0
M  V30 1841 C 166.342 3.687 -2.46121 0
M  V30 1842 H 163.562 0.457964 -0.490418 0
M  V30 1843 H 166.106 0.858429 -1.8561 0
M  V30 1844 H 164.261 3.33937 -1.9638 0
M  V30 1845 H 164.675 3.17918 -4.17167 0
M  V30 1846 H 166.149 4.54145 -3.13777 0
M  V30 1847 H 166.626 4.13081 -1.49199 0
M  V30 1848 H 167.232 3.15613 -2.85076 0
M  V30 1849 N 165.547 1.27147 0.931209 0
M  V30 1850 C 166.777 1.15914 1.71019 0
M  V30 1851 C 167.185 -0.287112 1.87009 0
M  V30 1852 O 166.528 -1.20761 1.38429 0
M  V30 1853 C 166.59 1.76647 3.13107 0
M  V30 1854 C 166.254 3.25807 3.20467 0
M  V30 1855 C 167.251 4.22489 3.02983 0
M  V30 1856 C 164.936 3.66452 3.43538 0
M  V30 1857 C 166.93 5.57794 3.08454 0
M  V30 1858 C 164.617 5.01888 3.48643 0
M  V30 1859 C 165.615 5.97369 3.31119 0
M  V30 1860 O 165.303 7.30337 3.35952 0
M  V30 1861 H 165.035 0.404062 0.54195 0
M  V30 1862 H 167.589 1.68457 1.17521 0
M  V30 1863 H 165.819 1.18578 3.68071 0
M  V30 1864 H 167.508 1.60179 3.72958 0
M  V30 1865 H 168.274 3.92425 2.85004 0
M  V30 1866 H 164.153 2.92611 3.5623 0
M  V30 1867 H 167.697 6.32298 2.94694 0
M  V30 1868 H 163.594 5.31609 3.66145 0
M  V30 1869 H 164.362 7.38739 3.5243 0
M  V30 1870 N 167.025 -1.13721 1.09112 0
M  V30 1871 C 167.973 -2.21103 0.722219 0
M  V30 1872 C 168.967 -1.67147 -0.275374 0
M  V30 1873 O 170.173 -1.79477 -0.137176 0
M  V30 1874 H 166.548 -0.720445 0.215553 0
M  V30 1875 H 168.519 -2.49483 1.63709 0
M  V30 1876 C 167.268 -3.47352 0.15543 0
M  V30 1877 H 166.591 -3.89206 0.914246 0
M  V30 1878 H 168.031 -4.2395 -0.0647967 0
M  V30 1879 C 166.49 -3.1814 -1.10852 0
M  V30 1880 O 167.02 -3.36604 -2.19227 0
M  V30 1881 N 165.226 -2.72045 -1.02176 0
M  V30 1882 H 164.773 -2.57221 -0.139764 0
M  V30 1883 H 164.731 -2.52875 -1.8682 0
M  V30 1884 N 168.503 -0.877838 -1.30888 0
M  V30 1885 C 169.919 -0.570844 -1.49042 0
M  V30 1886 C 170.119 0.893159 -1.80624 0
M  V30 1887 O 169.175 1.67485 -1.88958 0
M  V30 1888 C 170.488 -1.47784 -2.61878 0
M  V30 1889 C 172.036 -1.48071 -2.75761 0
M  V30 1890 C 172.511 -2.37347 -3.91702 0
M  V30 1891 N 174.002 -2.35271 -3.99001 0
M  V30 1892 C 174.737 -3.01063 -4.88004 0
M  V30 1893 N 174.233 -3.76055 -5.81854 0
M  V30 1894 N 176.026 -2.90332 -4.81315 0
M  V30 1895 H 168.177 -1.82502 -1.0866 0
M  V30 1896 H 170.44 -0.780797 -0.537644 0
M  V30 1897 H 170.146 -2.51993 -2.45341 0
M  V30 1898 H 170.02 -1.18215 -3.58197 0
M  V30 1899 H 172.407 -0.446166 -2.91708 0
M  V30 1900 H 172.488 -1.81668 -1.80085 0
M  V30 1901 H 172.132 -3.40883 -3.76512 0
M  V30 1902 H 172.062 -2.01071 -4.86701 0
M  V30 1903 H 174.553 -1.80768 -3.3186 0
M  V30 1904 H 174.866 -4.23366 -6.46514 0
M  V30 1905 H 173.211 -3.80163 -5.81808 0
M  V30 1906 H 176.402 -2.31278 -4.06974 0
M  V30 1907 H 176.575 -3.41885 -5.50471 0
M  V30 1908 N 169.982 1.44106 -0.638065 0
M  V30 1909 C 171.229 2.01978 -0.14533 0
M  V30 1910 C 171.557 1.50234 1.23532 0
M  V30 1911 O 170.812 0.679548 1.83523 0
M  V30 1912 C 171.111 3.5729 -0.0887327 0
M  V30 1913 C 170.777 4.28317 -1.40909 0
M  V30 1914 C 169.439 4.47437 -1.77069 0
M  V30 1915 C 171.791 4.6867 -2.28031 0
M  V30 1916 C 169.119 5.04171 -3.00047 0
M  V30 1917 C 171.471 5.26766 -3.50286 0
M  V30 1918 C 170.135 5.44104 -3.86661 0
M  V30 1919 H 169.405 0.739089 -0.0531801 0
M  V30 1920 H 172.052 1.72781 -0.825761 0
M  V30 1921 H 170.357 3.8594 0.675095 0
M  V30 1922 H 172.054 3.99807 0.309145 0
M  V30 1923 H 168.644 4.1377 -1.1177 0
M  V30 1924 H 172.828 4.53604 -2.01388 0
M  V30 1925 H 168.084 5.15782 -3.28298 0
M  V30 1926 H 172.258 5.56983 -4.18023 0
M  V30 1927 H 169.885 5.87832 -4.82034 0
M  V30 1928 N 171.46 0.379036 1.52974 0
M  V30 1929 C 172.392 -0.495963 2.2377 0
M  V30 1930 C 173.405 -1.03517 1.25651 0
M  V30 1931 O 174.594 -0.939249 1.51791 0
M  V30 1932 C 171.694 -1.69894 2.93239 0
M  V30 1933 C 170.867 -1.2889 4.17979 0
M  V30 1934 C 169.926 -2.35543 4.70538 0
M  V30 1935 O 168.952 -1.97375 5.33883 0
M  V30 1936 N 170.154 -3.67318 4.49508 0
M  V30 1937 H 172.919 0.110523 2.99496 0
M  V30 1938 H 170.48 0.204878 1.60598 0
M  V30 1939 H 172.472 -2.40747 3.25304 0
M  V30 1940 H 171.042 -2.212 2.20883 0
M  V30 1941 H 170.262 -0.409676 3.92065 0
M  V30 1942 H 171.55 -0.991443 4.99047 0
M  V30 1943 H 170.948 -4.01095 3.98923 0
M  V30 1944 H 169.505 -4.34235 4.8609 0
M  V30 1945 N 172.938 -1.57226 0.108567 0
M  V30 1946 C 173.901 -2.13602 -0.831082 0
M  V30 1947 C 174.901 -1.06841 -1.20173 0
M  V30 1948 O 176.091 -1.32666 -1.12895 0
M  V30 1949 C 173.223 -2.66769 -2.12243 0
M  V30 1950 H 174.416 -2.97951 -0.341317 0
M  V30 1951 H 171.969 -1.55667 -0.14057 0
M  V30 1952 H 172.704 -1.85977 -2.65675 0
M  V30 1953 H 172.489 -3.44839 -1.86625 0
M  V30 1954 H 173.979 -3.10332 -2.79435 0
M  V30 1955 N 174.416 0.165178 -1.56732 0
M  V30 1956 C 175.662 0.882112 -1.82611 0
M  V30 1957 C 175.995 1.81628 -0.687378 0
M  V30 1958 O 175.27 1.92009 0.310267 0
M  V30 1959 C 175.553 1.67245 -3.18906 0
M  V30 1960 C 175.406 0.760987 -4.43316 0
M  V30 1961 C 176.725 2.63884 -3.52212 0
M  V30 1962 H 173.844 0.319242 -0.664269 0
M  V30 1963 H 176.486 0.148052 -1.89422 0
M  V30 1964 H 174.636 2.29824 -3.1323 0
M  V30 1965 H 176.308 0.147596 -4.61064 0
M  V30 1966 H 174.551 0.0694102 -4.33744 0
M  V30 1967 H 175.222 1.34962 -5.35247 0
M  V30 1968 H 177.698 2.11429 -3.58381 0
M  V30 1969 H 176.574 3.16245 -4.48643 0
M  V30 1970 H 176.835 3.44377 -2.77231 0
M  V30 1971 N 175.894 1.51508 0.433938 0
M  V30 1972 C 177.122 1.68157 1.20543 0
M  V30 1973 C 177.537 0.380362 1.84929 0
M  V30 1974 O 176.894 -0.641446 1.70856 0
M  V30 1975 C 176.945 2.79965 2.28696 0
M  V30 1976 O 176.666 4.05045 1.66943 0
M  V30 1977 C 178.167 3.07912 3.18912 0
M  V30 1978 H 175.387 0.56421 0.363191 0
M  V30 1979 H 177.931 1.97941 0.513754 0
M  V30 1980 H 176.086 2.5277 2.93574 0
M  V30 1981 H 176.5 4.67165 2.38448 0
M  V30 1982 H 177.974 3.89719 3.90926 0
M  V30 1983 H 178.451 2.20456 3.79863 0
M  V30 1984 H 179.057 3.36779 2.59731 0
M  V30 1985 N 177.372 -0.689602 1.41712 0
M  V30 1986 C 178.788 -1.00093 1.24312 0
M  V30 1987 C 178.988 -2.01036 0.136729 0
M  V30 1988 O 178.044 -2.47562 -0.496918 0
M  V30 1989 C 179.357 -1.51985 2.59463 0
M  V30 1990 C 180.905 -1.63838 2.66695 0
M  V30 1991 C 181.38 -2.1913 4.02177 0
M  V30 1992 N 182.871 -2.26483 4.04054 0
M  V30 1993 C 183.606 -2.70306 5.0569 0
M  V30 1994 N 183.102 -3.13691 6.17713 0
M  V30 1995 N 184.895 -2.69923 4.9305 0
M  V30 1996 H 177.046 -0.0210029 2.1239 0
M  V30 1997 H 179.309 -0.0718733 0.945272 0
M  V30 1998 H 179.015 -0.85269 3.41207 0
M  V30 1999 H 178.889 -2.50103 2.82362 0
M  V30 2000 H 181.276 -2.29664 1.85306 0
M  V30 2001 H 181.357 -0.642492 2.476 0
M  V30 2002 H 181.001 -1.53918 4.84016 0
M  V30 2003 H 180.931 -3.19482 4.18615 0
M  V30 2004 H 183.422 -1.95874 3.23174 0
M  V30 2005 H 183.735 -3.45773 6.9113 0
M  V30 2006 H 182.08 -3.11585 6.21241 0
M  V30 2007 H 185.271 -2.35382 4.04614 0
M  V30 2008 H 185.444 -3.03758 5.72394 0
M  V30 2009 N 178.85 -1.27639 -0.924453 0
M  V30 2010 C 180.261 -1.12834 -1.48746 0
M  V30 2011 C 180.612 0.285505 -1.94112 0
M  V30 2012 O 179.737 1.17874 -1.81479 0
M  V30 2013 C 180.332 -2.04217 -2.70334 0
M  V30 2014 C 178.891 -1.93509 -3.22848 0
M  V30 2015 C 178.038 -1.96583 -1.95577 0
M  V30 2016 H 180.989 -1.40484 -0.738233 0
M  V30 2017 H 181.01 -1.59989 -3.4523 0
M  V30 2018 H 180.522 -3.07111 -2.37285 0
M  V30 2019 H 178.623 -0.936131 -3.60649 0
M  V30 2020 H 178.736 -2.79917 -3.88823 0
M  V30 2021 H 177.1 -1.4085 -2.12211 0
M  V30 2022 H 177.883 -3.01137 -1.64837 0
M  V30 2023 N 180.328 1.1314 -1.09713 0
M  V30 2024 C 181.577 1.83838 -0.829851 0
M  V30 2025 C 181.89 1.84599 0.646728 0
M  V30 2026 O 183.096 2.51218 1.02965 0
M  V30 2027 C 181.552 3.30069 -1.43466 0
M  V30 2028 C 181.16 3.37688 -2.94399 0
M  V30 2029 C 182.904 4.05788 -1.24645 0
M  V30 2030 C 180.811 4.78209 -3.47952 0
M  V30 2031 H 179.741 0.68877 -0.306777 0
M  V30 2032 H 182.392 1.27448 -1.3202 0
M  V30 2033 H 180.774 3.8628 -0.871996 0
M  V30 2034 H 181.948 2.91456 -3.56918 0
M  V30 2035 H 180.263 2.75436 -3.12289 0
M  V30 2036 H 182.86 5.09535 -1.62107 0
M  V30 2037 H 183.203 4.15878 -0.187357 0
M  V30 2038 H 183.736 3.55915 -1.77678 0
M  V30 2039 H 180.475 4.73311 -4.53495 0
M  V30 2040 H 179.995 5.24924 -2.90198 0
M  V30 2041 H 181.674 5.47133 -3.45332 0
M  V30 2042 N 181.806 0.884767 1.30421 0
M  V30 2043 C 182.753 0.349642 2.28136 0
M  V30 2044 C 183.723 -0.560061 1.56373 0
M  V30 2045 O 184.908 -0.488524 1.8444 0
M  V30 2046 C 182.048 -0.42999 3.42411 0
M  V30 2047 C 181.161 0.508907 4.28992 0
M  V30 2048 C 180.296 -0.286301 5.30428 0
M  V30 2049 C 179.335 0.648079 6.08659 0
M  V30 2050 N 178.472 -0.111792 7.02011 0
M  V30 2051 H 183.312 1.18807 2.73293 0
M  V30 2052 H 180.849 0.597231 1.3443 0
M  V30 2053 H 182.807 -0.897923 4.07423 0
M  V30 2054 H 181.437 -1.23299 2.98324 0
M  V30 2055 H 180.489 1.09533 3.64289 0
M  V30 2056 H 181.801 1.22475 4.8353 0
M  V30 2057 H 180.955 -0.816098 6.01186 0
M  V30 2058 H 179.694 -1.03536 4.76583 0
M  V30 2059 H 178.699 1.18951 5.36778 0
M  V30 2060 H 179.924 1.39623 6.64592 0
M  V30 2061 H 177.87 -0.843395 6.50556 0
M  V30 2062 H 177.787 0.544429 7.54037 0
M  V30 2063 H 179.055 -0.622339 7.77012 0
M  V30 2064 N 183.284 -1.43765 0.645699 0
M  V30 2065 C 184.512 -2.06253 0.163556 0
M  V30 2066 C 184.927 -1.48352 -1.16778 0
M  V30 2067 O 184.284 -0.611932 -1.71935 0
M  V30 2068 C 184.335 -3.61453 0.0583186 0
M  V30 2069 O 184.056 -4.172 1.33702 0
M  V30 2070 C 185.557 -4.41002 -0.450795 0
M  V30 2071 H 182.777 -0.665413 0.0864077 0
M  V30 2072 H 185.321 -1.84396 0.884222 0
M  V30 2073 H 183.476 -3.82522 -0.612865 0
M  V30 2074 H 183.89 -5.10791 1.19131 0
M  V30 2075 H 185.364 -5.49966 -0.473403 0
M  V30 2076 H 185.841 -4.13488 -1.48068 0
M  V30 2077 H 186.447 -4.24886 0.187637 0
M  V30 2078 N 184.763 -0.387143 -1.52771 0
M  V30 2079 C 185.726 0.436939 -2.24997 0
M  V30 2080 C 186.726 0.991991 -1.26555 0
M  V30 2081 O 187.916 0.874335 -1.50669 0
M  V30 2082 C 185.048 1.61281 -3.00335 0
M  V30 2083 H 186.241 -0.195365 -2.99263 0
M  V30 2084 H 183.794 -0.139218 -1.55679 0
M  V30 2085 H 184.529 2.2826 -2.30364 0
M  V30 2086 H 184.314 1.22154 -3.72587 0
M  V30 2087 H 185.804 2.19629 -3.5518 0
M  V30 2088 N 186.241 1.57166 -0.116904 0
M  V30 2089 C 187.173 2.12271 0.864507 0
M  V30 2090 C 188.186 1.06494 1.23138 0
M  V30 2091 O 189.375 1.33873 1.18069 0
M  V30 2092 C 186.475 2.60564 2.16702 0
M  V30 2093 C 185.648 3.90416 1.97216 0
M  V30 2094 C 184.707 4.24329 3.11178 0
M  V30 2095 O 183.733 4.93182 2.84184 0
M  V30 2096 N 184.935 3.8148 4.37554 0
M  V30 2097 H 187.7 2.97102 0.393726 0
M  V30 2098 H 185.261 1.61759 0.0675805 0
M  V30 2099 H 187.253 2.80282 2.91932 0
M  V30 2100 H 185.823 1.80623 2.55135 0
M  V30 2101 H 185.043 3.79627 1.06192 0
M  V30 2102 H 186.331 4.75327 1.81499 0
M  V30 2103 H 185.729 3.25943 4.62361 0
M  V30 2104 H 184.286 4.06311 5.09661 0
M  V30 2105 N 187.719 -0.156864 1.56817 0
M  V30 2106 C 188.682 -1.17781 1.96622 0
M  V30 2107 C 189.682 -1.36401 0.851555 0
M  V30 2108 O 190.872 -1.33561 1.11836 0
M  V30 2109 C 188.004 -2.54008 2.27361 0
M  V30 2110 H 189.197 -0.836564 2.87996 0
M  V30 2111 H 186.75 -0.39985 1.51099 0
M  V30 2112 H 187.485 -2.9312 1.38748 0
M  V30 2113 H 187.27 -2.41856 3.08623 0
M  V30 2114 H 188.76 -3.27558 2.59029 0
M  V30 2115 N 189.197 -1.51736 -0.425897 0
M  V30 2116 C 190.145 -1.74464 -1.53834 0
M  V30 2117 C 191.139 -0.611241 -1.57988 0
M  V30 2118 O 192.345 -0.792899 -1.61596 0
M  V30 2119 H 188.72 -0.551437 -0.511293 0
M  V30 2120 H 190.691 -2.67694 -1.31843 0
M  V30 2121 C 189.44 -1.8972 -2.91379 0
M  V30 2122 H 188.763 -2.76344 -2.88919 0
M  V30 2123 H 190.203 -2.09629 -3.68553 0
M  V30 2124 C 188.662 -0.65992 -3.30374 0
M  V30 2125 O 189.192 0.180083 -4.01296 0
M  V30 2126 N 187.398 -0.500677 -2.86254 0
M  V30 2127 H 186.945 -1.18532 -2.28709 0
M  V30 2128 H 186.903 0.325903 -3.12706 0
M  V30 2129 N 190.675 0.682077 -1.42076 0
M  V30 2130 C 191.903 1.47057 -1.4554 0
M  V30 2131 C 192.318 1.8869 -0.0645779 0
M  V30 2132 O 191.675 1.57666 0.919115 0
M  V30 2133 C 191.726 2.72442 -2.37609 0
M  V30 2134 O 191.447 2.32559 -3.71279 0
M  V30 2135 C 192.948 3.66069 -2.50017 0
M  V30 2136 H 190.168 0.452737 -0.495248 0
M  V30 2137 H 192.712 0.838695 -1.8651 0
M  V30 2138 H 190.867 3.31835 -1.9991 0
M  V30 2139 H 191.281 3.13475 -4.20516 0
M  V30 2140 H 192.755 4.50792 -3.18576 0
M  V30 2141 H 193.232 4.11476 -1.53572 0
M  V30 2142 H 193.838 3.12572 -2.88407 0
M  V30 2143 N 192.153 1.28127 0.917671 0
M  V30 2144 C 193.569 1.05749 1.19538 0
M  V30 2145 C 193.769 -0.202633 2.00479 0
M  V30 2146 O 192.825 -0.905382 2.3571 0
M  V30 2147 C 194.138 2.30273 1.93378 0
M  V30 2148 C 195.686 2.35412 2.06277 0
M  V30 2149 C 196.161 3.59692 2.83524 0
M  V30 2150 N 197.652 3.60309 2.91087 0
M  V30 2151 C 198.387 4.53147 3.51348 0
M  V30 2152 N 197.883 5.563 4.12919 0
M  V30 2153 N 199.676 4.40751 3.48849 0
M  V30 2154 H 191.827 2.09024 0.377184 0
M  V30 2155 H 194.09 0.919798 0.22951 0
M  V30 2156 H 193.796 3.22055 1.41328 0
M  V30 2157 H 193.67 2.36378 2.93947 0
M  V30 2158 H 196.057 1.4413 2.57508 0
M  V30 2159 H 196.138 2.33304 1.04895 0
M  V30 2160 H 195.782 4.51316 2.32973 0
M  V30 2161 H 195.712 3.59054 3.85211 0
M  V30 2162 H 198.203 2.85714 2.47338 0
M  V30 2163 H 198.516 6.2329 4.56869 0
M  V30 2164 H 196.861 5.60131 4.11435 0
M  V30 2165 H 200.052 3.59367 2.99955 0
M  V30 2166 H 200.225 5.13291 3.9552 0
M  V30 2167 N 193.631 -1.12557 1.10312 0
M  V30 2168 C 194.578 -2.18247 0.750781 0
M  V30 2169 C 195.548 -1.63853 -0.272293 0
M  V30 2170 O 196.733 -1.90195 -0.151862 0
M  V30 2171 C 193.873 -3.44591 0.187379 0
M  V30 2172 C 192.986 -4.13046 1.2656 0
M  V30 2173 C 192.121 -5.27034 0.663978 0
M  V30 2174 C 191.16 -5.87353 1.72287 0
M  V30 2175 N 190.297 -6.92757 1.1416 0
M  V30 2176 H 195.137 -2.47732 1.65628 0
M  V30 2177 H 192.674 -1.21629 0.827337 0
M  V30 2178 H 194.632 -4.16904 -0.157148 0
M  V30 2179 H 193.262 -3.15527 -0.681355 0
M  V30 2180 H 192.314 -3.38924 1.72727 0
M  V30 2181 H 193.626 -4.53947 2.06721 0
M  V30 2182 H 192.78 -6.06104 0.268824 0
M  V30 2183 H 191.519 -4.87407 -0.169082 0
M  V30 2184 H 190.524 -5.06971 2.12746 0
M  V30 2185 H 191.749 -6.29051 2.55875 0
M  V30 2186 H 189.695 -6.5517 0.329984 0
M  V30 2187 H 189.612 -7.3225 1.88007 0
M  V30 2188 H 190.88 -7.75658 0.772956 0
M  V30 2189 N 195.109 -0.891671 -1.2995 0
M  V30 2190 C 196.525 -0.58662 -1.48428 0
M  V30 2191 C 196.725 0.873951 -1.81561 0
M  V30 2192 O 195.781 1.65471 -1.90724 0
M  V30 2193 C 197.094 -1.50553 -2.60296 0
M  V30 2194 C 198.642 -1.50988 -2.74175 0
M  V30 2195 C 199.117 -2.41488 -3.89163 0
M  V30 2196 N 200.608 -2.39489 -3.96483 0
M  V30 2197 C 201.343 -3.06223 -4.84784 0
M  V30 2198 N 200.839 -3.82206 -5.77833 0
M  V30 2199 N 202.632 -2.95421 -4.78208 0
M  V30 2200 H 194.783 -1.83644 -1.06718 0
M  V30 2201 H 197.046 -0.786455 -0.529332 0
M  V30 2202 H 196.752 -2.54581 -2.42654 0
M  V30 2203 H 196.626 -1.22008 -3.56923 0
M  V30 2204 H 199.013 -0.47708 -2.91218 0
M  V30 2205 H 199.094 -1.83567 -1.78148 0
M  V30 2206 H 198.738 -3.44857 -3.72876 0
M  V30 2207 H 198.668 -2.06222 -4.84541 0
M  V30 2208 H 201.159 -1.84278 -3.29924 0
M  V30 2209 H 201.472 -4.302 -6.41988 0
M  V30 2210 H 199.817 -3.86313 -5.77743 0
M  V30 2211 H 203.008 -2.35581 -4.04499 0
M  V30 2212 H 203.181 -3.47704 -5.46814 0
M  V30 2213 N 196.587 1.43421 -0.653314 0
M  V30 2214 C 197.835 2.01414 -0.166415 0
M  V30 2215 C 198.156 1.51803 1.22397 0
M  V30 2216 O 197.426 0.730693 1.81763 0
M  V30 2217 H 196.006 0.744703 -0.0585319 0
M  V30 2218 H 198.668 1.75629 -0.845003 0
M  V30 2219 H 197.764 3.11734 -0.151111 0
M  V30 2220 N 198.065 0.39524 1.52563 0
M  V30 2221 C 199.314 -0.186321 2.00838 0
M  V30 2222 C 199.627 -1.47402 1.28577 0
M  V30 2223 O 200.833 -2.13599 1.67593 0
M  V30 2224 C 199.289 -0.382595 3.57861 0
M  V30 2225 C 198.897 0.892202 4.39026 0
M  V30 2226 C 200.641 -0.9202 4.14406 0
M  V30 2227 C 198.548 0.66388 5.87662 0
M  V30 2228 H 197.478 -0.0734041 0.750418 0
M  V30 2229 H 200.129 0.518552 1.76021 0
M  V30 2230 H 198.511 -1.14946 3.7895 0
M  V30 2231 H 199.685 1.66414 4.29701 0
M  V30 2232 H 198 1.35519 3.9373 0
M  V30 2233 H 200.597 -1.10683 5.23119 0
M  V30 2234 H 200.94 -1.89096 3.70875 0
M  V30 2235 H 201.473 -0.212751 3.97231 0
M  V30 2236 H 198.212 1.6058 6.35527 0
M  V30 2237 H 197.732 -0.0690193 5.9976 0
M  V30 2238 H 199.411 0.300699 6.46301 0
M  V30 2239 N 199.544 -1.57102 0.125237 0
M  V30 2240 C 200.769 -2.0019 -0.542101 0
M  V30 2241 C 201.194 -1.00449 -1.59034 0
M  V30 2242 O 200.552 0.0229423 -1.81285 0
M  V30 2243 C 200.6 -3.42129 -1.13929 0
M  V30 2244 O 199.704 -3.45307 -2.2547 0
M  V30 2245 H 199.045 -0.650171 -0.134812 0
M  V30 2246 H 201.575 -2.03461 0.215553 0
M  V30 2247 H 201.585 -3.80471 -1.4733 0
M  V30 2248 H 200.26 -4.14237 -0.371531 0
M  V30 2249 H 198.837 -3.1879 -1.93462 0
M  V30 2250 N 201.022 0.148545 -1.56898 0
M  V30 2251 C 201.952 1.18524 -2.01182 0
M  V30 2252 C 202.933 1.4489 -0.891123 0
M  V30 2253 O 204.118 1.55836 -1.15882 0
M  V30 2254 C 201.248 2.51879 -2.39112 0
M  V30 2255 C 200.202 2.40038 -3.54353 0
M  V30 2256 C 199.528 3.78089 -3.78091 0
M  V30 2257 C 200.828 1.88577 -4.87069 0
M  V30 2258 H 202.522 0.817029 -2.88036 0
M  V30 2259 H 200.068 0.391575 -1.38574 0
M  V30 2260 H 202.021 3.24627 -2.68692 0
M  V30 2261 H 200.745 2.90532 -1.49193 0
M  V30 2262 H 199.404 1.69742 -3.24936 0
M  V30 2263 H 199.052 4.14175 -2.85426 0
M  V30 2264 H 198.752 3.71028 -4.55645 0
M  V30 2265 H 200.276 4.52387 -4.10095 0
M  V30 2266 H 201.69 2.51117 -5.15377 0
M  V30 2267 H 200.087 1.9241 -5.68417 0
M  V30 2268 H 201.157 0.84136 -4.77545 0
M  V30 2269 N 202.5 1.5196 0.417844 0
M  V30 2270 C 203.725 1.69717 1.1921 0
M  V30 2271 C 204.15 0.402148 1.83751 0
M  V30 2272 O 203.508 -0.639593 1.69643 0
M  V30 2273 C 203.556 2.82794 2.2374 0
M  V30 2274 O 202.66 2.47756 3.29683 0
M  V30 2275 H 202.001 0.565263 0.348387 0
M  V30 2276 H 204.531 1.98621 0.490985 0
M  V30 2277 H 204.541 3.07452 2.68212 0
M  V30 2278 H 203.216 3.76756 1.76146 0
M  V30 2279 H 201.793 2.33739 2.90552 0
M  V30 2280 N 203.978 -0.674533 1.42435 0
M  V30 2281 C 204.908 -1.80009 1.48724 0
M  V30 2282 C 205.889 -1.6659 0.343793 0
M  V30 2283 O 207.074 -1.86007 0.558137 0
M  V30 2284 C 204.204 -3.18306 1.38919 0
M  V30 2285 C 203.158 -3.46461 2.51294 0
M  V30 2286 C 202.484 -4.84335 2.26547 0
M  V30 2287 C 203.784 -3.43328 3.93603 0
M  V30 2288 H 205.478 -1.75004 2.42928 0
M  V30 2289 H 203.024 -0.840533 1.16923 0
M  V30 2290 H 204.977 -3.9678 1.41927 0
M  V30 2291 H 203.701 -3.2399 0.412094 0
M  V30 2292 H 202.36 -2.70348 2.47604 0
M  V30 2293 H 202.008 -4.86669 1.2713 0
M  V30 2294 H 201.708 -5.04136 3.01861 0
M  V30 2295 H 203.232 -5.65094 2.31304 0
M  V30 2296 H 204.646 -4.11772 3.98894 0
M  V30 2297 H 203.043 -3.74664 4.68771 0
M  V30 2298 H 204.113 -2.41897 4.20255 0
M  V30 2299 N 205.456 -1.28612 -0.910864 0
M  V30 2300 C 206.702 -1.16106 -1.66274 0
M  V30 2301 C 207.035 0.289113 -1.92036 0
M  V30 2302 O 206.31 1.21 -1.52281 0
M  V30 2303 C 206.593 -1.96309 -3.01885 0
M  V30 2304 C 206.446 -3.49405 -2.8326 0
M  V30 2305 C 207.765 -1.78076 -4.02463 0
M  V30 2306 H 204.884 -0.423152 -0.603417 0
M  V30 2307 H 207.526 -1.57961 -1.05586 0
M  V30 2308 H 205.676 -1.60742 -3.53687 0
M  V30 2309 H 207.348 -3.94894 -2.38446 0
M  V30 2310 H 205.591 -3.74893 -2.18261 0
M  V30 2311 H 206.262 -4.00784 -3.79574 0
M  V30 2312 H 208.738 -2.0912 -3.59733 0
M  V30 2313 H 207.614 -2.36561 -4.95308 0
M  V30 2314 H 207.875 -0.733008 -4.35981 0
M  V30 2315 N 206.934 1.1197 -1.10907 0
M  V30 2316 C 208.183 1.82947 -0.849302 0
M  V30 2317 C 208.496 1.85275 0.627112 0
M  V30 2318 O 209.702 2.52296 1.00295 0
M  V30 2319 C 208.158 3.28529 -1.46959 0
M  V30 2320 C 207.766 3.34546 -2.97965 0
M  V30 2321 C 209.51 4.04443 -1.28942 0
M  V30 2322 C 207.417 4.74491 -3.53004 0
M  V30 2323 H 206.347 0.685477 -0.314065 0
M  V30 2324 H 208.998 1.2604 -1.33365 0
M  V30 2325 H 207.38 3.85333 -0.912917 0
M  V30 2326 H 208.554 2.87654 -3.59989 0
M  V30 2327 H 206.869 2.72108 -3.15192 0
M  V30 2328 H 209.466 5.07787 -1.67502 0
M  V30 2329 H 209.809 4.15656 -0.231456 0
M  V30 2330 H 210.342 3.5401 -1.81443 0
M  V30 2331 H 207.081 4.68474 -4.58489 0
M  V30 2332 H 206.601 5.21816 -2.9575 0
M  V30 2333 H 208.28 5.4344 -3.51115 0
M  V30 2334 N 208.412 0.89855 1.29475 0
M  V30 2335 C 209.658 0.534065 1.96263 0
M  V30 2336 C 210.013 -0.909415 1.69551 0
M  V30 2337 O 209.306 -1.63596 0.997349 0
M  V30 2338 C 209.5 0.761398 3.49195 0
M  V30 2339 C 209.329 2.22542 3.90775 0
M  V30 2340 C 208.099 2.87264 4.15701 0
M  V30 2341 C 210.297 3.20051 4.02581 0
M  V30 2342 N 208.279 4.24121 4.4384 0
M  V30 2343 C 209.65 4.42023 4.34759 0
M  V30 2344 C 211.705 3.15657 3.85052 0
M  V30 2345 C 210.408 5.60161 4.51235 0
M  V30 2346 C 212.434 4.33078 4.02737 0
M  V30 2347 C 211.796 5.5382 4.35273 0
M  V30 2348 H 207.895 0.245013 0.742625 0
M  V30 2349 H 210.479 1.15912 1.56437 0
M  V30 2350 H 208.65 0.165732 3.88046 0
M  V30 2351 H 210.382 0.362462 4.03074 0
M  V30 2352 H 207.137 2.38064 4.09417 0
M  V30 2353 H 207.561 4.94839 4.6202 0
M  V30 2354 H 212.203 2.23396 3.58962 0
M  V30 2355 H 209.921 6.52913 4.76162 0
M  V30 2356 H 213.507 4.31163 3.90628 0
M  V30 2357 H 212.387 6.43166 4.48672 0
M  V30 2358 N 209.89 -1.43072 0.660911 0
M  V30 2359 C 211.136 -2.0202 0.177708 0
M  V30 2360 C 211.469 -1.52066 -1.20787 0
M  V30 2361 O 210.744 -0.716987 -1.80802 0
M  V30 2362 C 211.027 -3.59561 0.197019 0
M  V30 2363 C 210.88 -4.19727 1.61706 0
M  V30 2364 C 212.199 -4.37664 -0.462396 0
M  V30 2365 H 209.318 -0.734034 0.0660494 0
M  V30 2366 H 211.96 -1.70272 0.843058 0
M  V30 2367 H 210.11 -3.86739 -0.369527 0
M  V30 2368 H 211.782 -4.03553 2.23479 0
M  V30 2369 H 210.025 -3.76084 2.16201 0
M  V30 2370 H 210.696 -5.28834 1.58237 0
M  V30 2371 H 213.172 -4.16095 0.0197215 0
M  V30 2372 H 212.048 -5.47305 -0.418188 0
M  V30 2373 H 212.309 -4.14493 -1.53778 0
M  V30 2374 N 211.368 -0.403325 -1.52352 0
M  V30 2375 C 212.331 0.413051 -2.25447 0
M  V30 2376 C 213.331 0.978513 -1.276 0
M  V30 2377 O 214.521 0.858305 -1.51587 0
M  V30 2378 C 211.653 1.58087 -3.02029 0
M  V30 2379 H 212.846 -0.227094 -2.99039 0
M  V30 2380 H 210.399 -0.155722 -1.55522 0
M  V30 2381 H 211.134 2.25804 -2.32772 0
M  V30 2382 H 210.919 1.18195 -3.73861 0
M  V30 2383 H 212.409 2.1585 -3.57489 0
M  V30 2384 N 212.846 1.57033 -0.133567 0
M  V30 2385 C 214.095 1.94861 0.520768 0
M  V30 2386 C 214.408 1.02012 1.66892 0
M  V30 2387 O 215.614 1.29365 2.38699 0
M  V30 2388 C 214.07 3.46362 0.977809 0
M  V30 2389 C 213.678 4.47773 -0.142674 0
M  V30 2390 C 215.422 3.93083 1.60269 0
M  V30 2391 C 213.329 5.90468 0.331883 0
M  V30 2392 H 212.259 0.727453 0.198315 0
M  V30 2393 H 214.91 1.82227 -0.215759 0
M  V30 2394 H 213.292 3.54282 1.7692 0
M  V30 2395 H 214.466 4.51536 -0.919317 0
M  V30 2396 H 212.781 4.10891 -0.675124 0
M  V30 2397 H 215.378 4.97121 1.96914 0
M  V30 2398 H 215.721 3.33876 2.48662 0
M  V30 2399 H 216.254 3.88025 0.876453 0
M  V30 2400 H 212.993 6.53463 -0.516341 0
M  V30 2401 H 212.513 5.90094 1.07469 0
M  V30 2402 H 214.192 6.42179 0.788332 0
M  V30 2403 N 214.325 -0.140222 1.56975 0
M  V30 2404 C 215.571 -0.852949 1.83991 0
M  V30 2405 C 215.904 -1.80512 0.716187 0
M  V30 2406 O 215.179 -1.92479 -0.279681 0
M  V30 2407 C 215.462 -1.6215 3.21527 0
M  V30 2408 C 215.315 -0.690363 4.4447 0
M  V30 2409 C 216.634 -2.58247 3.56366 0
M  V30 2410 H 213.753 -0.308634 0.669264 0
M  V30 2411 H 216.395 -0.117898 1.89634 0
M  V30 2412 H 214.545 -2.24812 3.16847 0
M  V30 2413 H 216.217 -0.0742264 4.6124 0
M  V30 2414 H 214.46 -0.000396433 4.338 0
M  V30 2415 H 215.131 -1.2643 5.37326 0
M  V30 2416 H 217.607 -2.05701 3.61699 0
M  V30 2417 H 216.483 -3.09067 4.53617 0
M  V30 2418 H 216.744 -3.39923 2.82674 0
M  V30 2419 N 215.803 -1.52179 -0.40978 0
M  V30 2420 C 217.051 -1.65878 -1.15451 0
M  V30 2421 C 217.372 -0.390771 -1.91044 0
M  V30 2422 O 216.642 0.594323 -1.86667 0
M  V30 2423 H 215.222 -0.611405 -0.429177 0
M  V30 2424 H 217.884 -1.89219 -0.467134 0
M  V30 2425 H 216.98 -2.49954 -1.86894 0
M  V30 2426 N 217.281 0.66697 -1.42791 0
M  V30 2427 C 218.244 1.76211 -1.46568 0
M  V30 2428 C 219.244 1.56896 -0.352196 0
M  V30 2429 O 220.434 1.63044 -0.613364 0
M  V30 2430 C 217.566 3.14935 -1.30494 0
M  V30 2431 H 218.759 1.74247 -2.44086 0
M  V30 2432 H 216.312 0.877342 -1.29354 0
M  V30 2433 H 217.047 3.2252 -0.339301 0
M  V30 2434 H 216.832 3.30359 -2.11199 0
M  V30 2435 H 218.322 3.94821 -1.36038 0
M  V30 2436 N 218.759 1.29093 0.90403 0
M  V30 2437 C 219.722 1.1386 1.98919 0
M  V30 2438 C 220.722 0.0753457 1.60623 0
M  V30 2439 O 221.912 0.321931 1.71199 0
M  V30 2440 C 219.044 0.740198 3.32767 0
M  V30 2441 H 220.237 2.10246 2.13861 0
M  V30 2442 H 217.79 1.12218 1.08797 0
M  V30 2443 H 218.525 -0.223997 3.23525 0
M  V30 2444 H 218.31 1.50838 3.61926 0
M  V30 2445 H 219.8 0.656546 4.12407 0
M  V30 2446 N 220.237 -1.11381 1.11499 0
M  V30 2447 C 221.462 -1.87475 0.887019 0
M  V30 2448 C 221.887 -1.79639 -0.557796 0
M  V30 2449 O 221.245 -1.15924 -1.39396 0
M  V30 2450 C 221.293 -3.34213 1.35403 0
M  V30 2451 O 220.397 -4.0903 0.526146 0
M  V30 2452 H 219.738 -0.582099 0.319463 0
M  V30 2453 H 222.268 -1.40785 1.48461 0
M  V30 2454 H 222.278 -3.8506 1.34881 0
M  V30 2455 H 220.953 -3.39232 2.40612 0
M  V30 2456 H 219.53 -3.68082 0.597522 0
M  V30 2457 N 221.715 -0.905404 -1.28997 0
M  V30 2458 C 222.945 -0.549049 -1.99171 0
M  V30 2459 C 223.353 0.87203 -1.67906 0
M  V30 2460 O 222.696 1.58796 -0.923561 0
M  V30 2461 C 222.758 -0.668306 -3.53234 0
M  V30 2462 C 222.422 -2.0574 -4.08069 0
M  V30 2463 C 223.419 -3.0292 -4.22534 0
M  V30 2464 C 221.104 -2.36833 -4.42962 0
M  V30 2465 C 223.098 -4.29314 -4.71135 0
M  V30 2466 C 220.785 -3.63467 -4.91258 0
M  V30 2467 C 221.783 -4.59522 -5.053 0
M  V30 2468 O 221.471 -5.83907 -5.52546 0
M  V30 2469 H 221.203 -0.208784 -0.64295 0
M  V30 2470 H 223.757 -1.21836 -1.65363 0
M  V30 2471 H 221.987 0.0580547 -3.86656 0
M  V30 2472 H 223.676 -0.320273 -4.04634 0
M  V30 2473 H 224.442 -2.80216 -3.95859 0
M  V30 2474 H 220.321 -1.62824 -4.31288 0
M  V30 2475 H 223.865 -5.04293 -4.8201 0
M  V30 2476 H 219.762 -3.86 -5.17372 0
M  V30 2477 H 220.53 -5.86578 -5.70849 0
M  V30 2478 N 223.193 1.4272 -0.668489 0
M  V30 2479 C 224.44 2.01624 -0.18814 0
M  V30 2480 C 224.768 1.5282 1.20317 0
M  V30 2481 O 224.023 0.718323 1.8204 0
M  V30 2482 C 224.322 3.57021 -0.164499 0
M  V30 2483 C 223.988 4.25232 -1.49962 0
M  V30 2484 C 222.65 4.4358 -1.8652 0
M  V30 2485 C 225.002 4.63727 -2.37921 0
M  V30 2486 C 222.33 4.97694 -3.10674 0
M  V30 2487 C 224.682 5.19218 -3.6138 0
M  V30 2488 C 223.346 5.3578 -3.98115 0
M  V30 2489 H 222.616 0.737795 -0.0688454 0
M  V30 2490 H 225.263 1.70991 -0.862225 0
M  V30 2491 H 223.568 3.87285 0.593079 0
M  V30 2492 H 225.265 4.00372 0.224271 0
M  V30 2493 H 221.855 4.11306 -1.20522 0
M  V30 2494 H 226.039 4.4923 -2.10964 0
M  V30 2495 H 221.295 5.08702 -3.39164 0
M  V30 2496 H 225.469 5.4799 -4.29743 0
M  V30 2497 H 223.096 5.77475 -4.94395 0
M  V30 2498 N 224.671 0.411399 1.52136 0
M  V30 2499 C 225.601 -0.404015 2.29978 0
M  V30 2500 C 226.582 -1.04412 1.34284 0
M  V30 2501 O 227.767 -1.0527 1.63192 0
M  V30 2502 C 224.897 -1.5197 3.12286 0
M  V30 2503 C 223.851 -1.00448 4.16046 0
M  V30 2504 C 223.177 -2.21393 4.86712 0
M  V30 2505 C 224.477 -0.0569336 5.22269 0
M  V30 2506 H 226.171 0.245529 2.98392 0
M  V30 2507 H 223.717 0.119525 1.43503 0
M  V30 2508 H 225.67 -2.09715 3.6551 0
M  V30 2509 H 224.394 -2.19716 2.41646 0
M  V30 2510 H 223.053 -0.449421 3.63835 0
M  V30 2511 H 222.701 -2.87699 4.12599 0
M  V30 2512 H 222.401 -1.87571 5.56858 0
M  V30 2513 H 223.925 -2.7974 5.4275 0
M  V30 2514 H 225.339 -0.54325 5.7072 0
M  V30 2515 H 223.736 0.192594 5.99791 0
M  V30 2516 H 224.806 0.887663 4.76706 0
M  V30 2517 N 226.149 -1.5696 0.141893 0
M  V30 2518 C 227.398 -1.95135 -0.510427 0
M  V30 2519 C 227.711 -1.02896 -1.66348 0
M  V30 2520 O 228.917 -1.30629 -2.38009 0
M  V30 2521 C 227.373 -3.46876 -0.959427 0
M  V30 2522 C 226.981 -4.47691 0.166419 0
M  V30 2523 C 228.725 -3.93927 -1.58183 0
M  V30 2524 C 226.632 -5.90636 -0.300565 0
M  V30 2525 H 225.562 -0.728494 -0.194454 0
M  V30 2526 H 228.213 -1.8211 0.22542 0
M  V30 2527 H 226.595 -3.55215 -1.75038 0
M  V30 2528 H 227.769 -4.51043 0.94325 0
M  V30 2529 H 226.084 -4.10527 0.696905 0
M  V30 2530 H 228.681 -4.98158 -1.94275 0
M  V30 2531 H 229.024 -3.3519 -2.46888 0
M  V30 2532 H 229.557 -3.88484 -0.855863 0
M  V30 2533 H 226.296 -6.5318 0.550989 0
M  V30 2534 H 225.816 -5.90655 -1.04338 0
M  V30 2535 H 227.495 -6.42588 -0.754265 0
M  V30 2536 N 227.627 0.131896 -1.57047 0
M  V30 2537 C 228.557 1.16384 -2.02428 0
M  V30 2538 C 229.538 1.43936 -0.90644 0
M  V30 2539 O 230.723 1.54599 -1.17528 0
M  V30 2540 C 227.853 2.49328 -2.4177 0
M  V30 2541 C 226.807 2.36266 -3.56879 0
M  V30 2542 C 226.133 3.74057 -3.8208 0
M  V30 2543 C 227.433 1.834 -4.89042 0
M  V30 2544 H 229.127 0.786433 -2.88887 0
M  V30 2545 H 226.673 0.376855 -1.38981 0
M  V30 2546 H 228.626 3.21759 -2.7212 0
M  V30 2547 H 227.35 2.88934 -1.52266 0
M  V30 2548 H 226.009 1.66286 -3.26718 0
M  V30 2549 H 225.657 4.11125 -2.89803 0
M  V30 2550 H 225.357 3.66174 -4.59554 0
M  V30 2551 H 226.881 4.48012 -4.1487 0
M  V30 2552 H 228.295 2.45636 -5.18011 0
M  V30 2553 H 226.692 1.8637 -5.70426 0
M  V30 2554 H 227.762 0.790662 -4.7841 0
M  V30 2555 N 229.106 1.52395 0.401703 0
M  V30 2556 C 230.383 1.57387 1.16141 0
M  V30 2557 C 230.763 0.359359 2.08019 0
M  V30 2558 O 230.111 -0.65326 2.18963 0
M  V30 2559 C 230.321 2.90631 1.93221 0
M  V30 2560 C 231.669 3.43904 2.49028 0
M  V30 2561 O 232.693 2.92421 2.03393 0
M  V30 2562 O 231.552 4.33823 3.32356 0
M  V30 2563 H 228.646 0.634262 0.530698 0
M  V30 2564 H 231.192 1.64725 0.407883 0
M  V30 2565 H 229.964 3.70473 1.25958 0
M  V30 2566 H 229.587 2.8662 2.75563 0
M  V30 2567 N 230.584 -0.659388 1.43143 0
M  V30 2568 C 231.809 -1.45221 1.48073 0
M  V30 2569 C 232.234 -1.87845 0.097995 0
M  V30 2570 O 231.592 -1.56985 -0.90694 0
M  V30 2571 C 231.64 -2.66748 2.42647 0
M  V30 2572 O 230.744 -3.65583 1.90848 0
M  V30 2573 H 230.085 -0.435669 0.501088 0
M  V30 2574 H 232.615 -0.807432 1.87994 0
M  V30 2575 H 232.625 -3.14637 2.59745 0
M  V30 2576 H 231.3 -2.35067 3.43098 0
M  V30 2577 H 229.877 -3.24693 1.83381 0
M  V30 2578 N 232.062 -1.29571 -0.897171 0
M  V30 2579 C 233.29 -1.20583 -1.68129 0
M  V30 2580 C 233.705 0.233181 -1.87354 0
M  V30 2581 O 233.062 1.15579 -1.41236 0
M  V30 2582 C 233.113 -1.91772 -3.06441 0
M  V30 2583 O 232.834 -3.30053 -2.88091 0
M  V30 2584 C 234.335 -1.89291 -4.00854 0
M  V30 2585 H 231.555 -0.417826 -0.525036 0
M  V30 2586 H 234.099 -1.70987 -1.12177 0
M  V30 2587 H 232.254 -1.45196 -3.59161 0
M  V30 2588 H 232.668 -3.65942 -3.75748 0
M  V30 2589 H 234.142 -2.43662 -4.95311 0
M  V30 2590 H 234.619 -0.869014 -4.30517 0
M  V30 2591 H 235.225 -2.35622 -3.54066 0
M  V30 2592 N 233.54 1.10788 -1.12088 0
M  V30 2593 C 234.488 2.19111 -0.780587 0
M  V30 2594 C 235.482 1.67818 0.230961 0
M  V30 2595 O 236.688 1.79777 0.0895427 0
M  V30 2596 H 233.063 0.714477 -0.234578 0
M  V30 2597 H 235.034 2.45055 -1.70266 0
M  V30 2598 C 233.783 3.46818 -0.24747 0
M  V30 2599 H 233.106 3.86646 -1.01712 0
M  V30 2600 H 234.546 4.23973 -0.0476291 0
M  V30 2601 C 233.005 3.20968 1.02378 0
M  V30 2602 O 233.535 3.42298 2.10226 0
M  V30 2603 N 231.741 2.74658 0.949271 0
M  V30 2604 H 231.288 2.57501 0.0715173 0
M  V30 2605 H 231.246 2.57739 1.80049 0
M  V30 2606 N 235.018 0.912232 1.28515 0
M  V30 2607 C 236.246 0.560416 1.99166 0
M  V30 2608 C 236.661 -0.857927 1.68182 0
M  V30 2609 O 236.018 -1.56805 0.933733 0
M  V30 2610 C 236.069 0.758142 3.53461 0
M  V30 2611 O 235.79 2.12067 3.83352 0
M  V30 2612 C 237.291 0.412954 4.41372 0
M  V30 2613 H 234.511 0.213805 0.636026 0
M  V30 2614 H 237.055 1.22502 1.63749 0
M  V30 2615 H 235.21 0.140556 3.87145 0
M  V30 2616 H 235.624 2.15923 4.77993 0
M  V30 2617 H 237.098 0.60208 5.48707 0
M  V30 2618 H 237.575 -0.65073 4.34353 0
M  V30 2619 H 238.181 1.00802 4.13182 0
M  V30 2620 N 236.496 -1.42363 0.676048 0
M  V30 2621 C 237.742 -2.0182 0.199125 0
M  V30 2622 C 238.075 -1.53339 -1.19168 0
M  V30 2623 O 237.35 -0.736124 -1.80032 0
M  V30 2624 C 237.633 -3.59331 0.235144 0
M  V30 2625 C 237.486 -4.17989 1.66149 0
M  V30 2626 C 238.805 -4.3813 -0.41595 0
M  V30 2627 H 235.924 -0.733293 0.0738311 0
M  V30 2628 H 238.566 -1.69368 0.86107 0
M  V30 2629 H 236.716 -3.87109 -0.328487 0
M  V30 2630 H 238.388 -4.0116 2.27747 0
M  V30 2631 H 236.631 -3.7377 2.20178 0
M  V30 2632 H 237.302 -5.27126 1.63837 0
M  V30 2633 H 239.778 -4.16051 0.0638529 0
M  V30 2634 H 238.654 -5.47717 -0.360115 0
M  V30 2635 H 238.915 -4.16101 -1.49373 0
M  V30 2636 N 237.974 -0.419461 -1.51915 0
M  V30 2637 C 239.385 0.0477853 -1.86639 0
M  V30 2638 C 239.736 1.43531 -1.33766 0
M  V30 2639 O 238.861 2.05401 -0.68113 0
M  V30 2640 C 239.456 0.0934885 -3.38671 0
M  V30 2641 C 238.015 0.505097 -3.72996 0
M  V30 2642 C 237.162 -0.313792 -2.75519 0
M  V30 2643 H 240.113 -0.636088 -1.45395 0
M  V30 2644 H 240.134 0.906667 -3.6954 0
M  V30 2645 H 239.646 -0.916501 -3.77123 0
M  V30 2646 H 237.747 1.52135 -3.40126 0
M  V30 2647 H 237.86 0.242309 -4.78487 0
M  V30 2648 H 236.224 0.225363 -2.53701 0
M  V30 2649 H 237.007 -1.32232 -3.16812 0
M  V30 2650 N 239.452 1.56882 -0.150215 0
M  V30 2651 C 240.729 1.87844 0.545327 0
M  V30 2652 C 241.109 1.0567 1.82749 0
M  V30 2653 O 240.457 0.144442 2.28043 0
M  V30 2654 C 240.667 3.39526 0.80767 0
M  V30 2655 C 242.015 4.08814 1.14703 0
M  V30 2656 O 243.039 3.44723 0.896917 0
M  V30 2657 O 241.898 5.22004 1.61784 0
M  V30 2658 H 238.992 0.778677 0.278553 0
M  V30 2659 H 241.538 1.68666 -0.187068 0
M  V30 2660 H 240.31 3.91173 -0.0996096 0
M  V30 2661 H 239.933 3.64243 1.59413 0
M  V30 2662 N 240.93 -0.123565 1.57115 0
M  V30 2663 C 242.155 -0.850398 1.89164 0
M  V30 2664 C 242.58 -1.7286 0.741688 0
M  V30 2665 O 241.938 -1.78665 -0.307958 0
M  V30 2666 C 241.986 -1.66353 3.19936 0
M  V30 2667 O 241.09 -2.77004 3.0552 0
M  V30 2668 H 240.431 -0.235454 0.620852 0
M  V30 2669 H 242.961 -0.107335 2.04318 0
M  V30 2670 H 242.971 -2.05372 3.52543 0
M  V30 2671 H 241.646 -1.01881 4.03228 0
M  V30 2672 H 240.223 -2.41221 2.84371 0
M  V30 2673 N 242.408 -1.52605 -0.393616 0
M  V30 2674 C 243.371 -1.76415 -1.46323 0
M  V30 2675 C 244.371 -0.634126 -1.47768 0
M  V30 2676 O 245.561 -0.902142 -1.4902 0
M  V30 2677 C 242.693 -1.8607 -2.85641 0
M  V30 2678 H 243.886 -2.71916 -1.26498 0
M  V30 2679 H 241.439 -1.43257 -0.625073 0
M  V30 2680 H 242.174 -0.925378 -3.10817 0
M  V30 2681 H 241.959 -2.68235 -2.85993 0
M  V30 2682 H 243.449 -2.06179 -3.63153 0
M  V30 2683 N 243.887 0.651787 -1.4349 0
M  V30 2684 C 245.135 1.40888 -1.44897 0
M  V30 2685 C 245.456 1.94856 -0.0749086 0
M  V30 2686 O 244.726 1.74518 0.889956 0
M  V30 2687 H 243.306 0.522887 -0.533478 0
M  V30 2688 H 245.968 0.768609 -1.79104 0
M  V30 2689 H 245.064 2.25052 -2.16236 0
M  V30 2690 N 245.365 1.30045 0.890287 0
M  V30 2691 C 246.59 1.21598 1.68014 0
M  V30 2692 C 247.015 -0.218678 1.86825 0
M  V30 2693 O 246.373 -1.15756 1.39536 0
M  V30 2694 C 246.421 1.94434 3.03691 0
M  V30 2695 O 245.525 1.2678 3.92429 0
M  V30 2696 H 244.866 0.420856 0.513592 0
M  V30 2697 H 247.396 1.71775 1.11151 0
M  V30 2698 H 247.406 2.03251 3.5377 0
M  V30 2699 H 246.081 2.98777 2.89318 0
M  V30 2700 H 244.658 1.26282 3.50866 0
M  V30 2701 N 246.843 -1.10192 1.12674 0
M  V30 2702 C 248.091 -1.81845 0.881861 0
M  V30 2703 C 248.412 -1.85737 -0.593867 0
M  V30 2704 O 247.682 -1.33724 -1.4316 0
M  V30 2705 H 246.262 -0.673432 0.323261 0
M  V30 2706 H 248.924 -1.33316 1.42172 0
M  V30 2707 H 248.02 -2.85288 1.2656 0
M  V30 2708 N 248.321 -0.919034 -1.28029 0
M  V30 2709 C 249.269 -0.401753 -2.29104 0
M  V30 2710 C 250.263 0.509354 -1.61561 0
M  V30 2711 O 251.469 0.390014 -1.75724 0
M  V30 2712 H 247.844 -0.111331 -0.743713 0
M  V30 2713 H 249.815 -1.2672 -2.70156 0
M  V30 2714 C 248.564 0.338148 -3.46052 0
M  V30 2715 H 247.887 -0.353732 -3.98232 0
M  V30 2716 H 249.327 0.664653 -4.18758 0
M  V30 2717 C 247.786 1.54798 -2.99231 0
M  V30 2718 O 248.316 2.64696 -3.02157 0
M  V30 2719 N 246.522 1.3968 -2.54829 0
M  V30 2720 H 246.069 0.502698 -2.52647 0
M  V30 2721 H 246.027 2.20755 -2.23863 0
M  V30 2722 N 249.799 1.42003 -0.683588 0
M  V30 2723 C 251.045 2.01712 -0.209825 0
M  V30 2724 C 251.378 1.53968 1.18353 0
M  V30 2725 O 250.653 0.745661 1.79639 0
M  V30 2726 C 250.936 3.59202 -0.254197 0
M  V30 2727 C 250.789 4.17102 -1.68363 0
M  V30 2728 C 252.108 4.38344 0.392709 0
M  V30 2729 H 249.227 0.732891 -0.0777189 0
M  V30 2730 H 251.869 1.68909 -0.87004 0
M  V30 2731 H 250.019 3.87278 0.307954 0
M  V30 2732 H 251.691 3.99946 -2.29871 0
M  V30 2733 H 249.934 3.72597 -2.22157 0
M  V30 2734 H 250.605 5.26249 -1.6663 0
M  V30 2735 H 253.081 4.16011 -0.0859162 0
M  V30 2736 H 251.957 5.47901 0.331063 0
M  V30 2737 H 252.218 4.16887 1.47164 0
M  V30 2738 N 251.277 0.427512 1.51691 0
M  V30 2739 C 252.505 -0.141191 2.06418 0
M  V30 2740 C 252.92 -1.37303 1.29589 0
M  V30 2741 O 252.277 -1.79059 0.352732 0
M  V30 2742 C 252.328 -0.473266 3.58389 0
M  V30 2743 O 252.049 0.709673 4.32314 0
M  V30 2744 C 253.55 -1.09371 4.29596 0
M  V30 2745 H 250.77 -0.0122747 0.670888 0
M  V30 2746 H 253.314 0.603764 1.95384 0
M  V30 2747 H 251.469 -1.16812 3.69369 0
M  V30 2748 H 251.883 0.42807 5.2275 0
M  V30 2749 H 253.357 -1.27613 5.37046 0
M  V30 2750 H 253.834 -2.072 3.87253 0
M  V30 2751 H 254.44 -0.43853 4.23033 0
M  V30 2752 N 252.755 -1.56801 0.158532 0
M  V30 2753 C 254.171 -1.5837 -0.197774 0
M  V30 2754 C 254.371 -1.17334 -1.63814 0
M  V30 2755 O 253.427 -0.878988 -2.36707 0
M  V30 2756 C 254.74 -3.00615 0.0714459 0
M  V30 2757 C 256.288 -3.12999 0.00864533 0
M  V30 2758 C 256.763 -4.57313 0.250685 0
M  V30 2759 N 258.254 -4.62777 0.198014 0
M  V30 2760 C 258.989 -5.72271 0.359642 0
M  V30 2761 N 258.485 -6.90371 0.579625 0
M  V30 2762 N 260.278 -5.61318 0.296438 0
M  V30 2763 H 252.429 -1.81765 1.09887 0
M  V30 2764 H 254.692 -0.841849 0.435884 0
M  V30 2765 H 254.398 -3.35068 1.06874 0
M  V30 2766 H 254.272 -3.71683 -0.642757 0
M  V30 2767 H 256.659 -2.7838 -0.979217 0
M  V30 2768 H 256.74 -2.44393 0.755359 0
M  V30 2769 H 256.384 -4.92639 1.2357 0
M  V30 2770 H 256.314 -5.24061 -0.516489 0
M  V30 2771 H 258.805 -3.77885 0.0331115 0
M  V30 2772 H 259.118 -7.69689 0.69275 0
M  V30 2773 H 257.463 -6.92264 0.616087 0
M  V30 2774 H 260.654 -4.67932 0.125258 0
M  V30 2775 H 260.827 -6.46599 0.425831 0
M  V30 2776 N 254.233 0.115231 -1.57178 0
M  V30 2777 C 255.473 0.828199 -1.8687 0
M  V30 2778 C 255.837 1.76873 -0.747002 0
M  V30 2779 O 257.038 2.52354 -0.925785 0
M  V30 2780 C 255.309 1.55515 -3.21792 0
M  V30 2781 S 256.868 2.30917 -3.73125 0
M  V30 2782 H 253.686 0.27634 -0.655101 0
M  V30 2783 H 256.288 0.0863469 -1.95309 0
M  V30 2784 H 254.992 0.856248 -4.01368 0
M  V30 2785 H 254.523 2.3373 -3.16439 0
M  V30 2786 H 256.538 3.56705 -3.44929 0
M  V30 2787 N 255.711 1.52812 0.385517 0
M  V30 2788 C 256.958 1.68026 1.1302 0
M  V30 2789 C 257.286 0.421934 1.89868 0
M  V30 2790 O 256.541 -0.595749 1.86412 0
M  V30 2791 C 256.84 2.86856 2.13187 0
M  V30 2792 C 256.506 4.24159 1.5297 0
M  V30 2793 C 255.168 4.61501 1.36274 0
M  V30 2794 C 257.52 5.09627 1.09223 0
M  V30 2795 C 254.848 5.81966 0.743837 0
M  V30 2796 C 257.2 6.30719 0.487411 0
M  V30 2797 C 255.864 6.6679 0.307777 0
M  V30 2798 H 255.134 0.614849 0.413571 0
M  V30 2799 H 257.781 1.86962 0.414405 0
M  V30 2800 H 256.086 2.6235 2.90998 0
M  V30 2801 H 257.783 2.95821 2.70722 0
M  V30 2802 H 254.373 3.94746 1.66954 0
M  V30 2803 H 258.557 4.81343 1.20922 0
M  V30 2804 H 253.813 6.08519 0.592891 0
M  V30 2805 H 257.987 6.96259 0.140143 0
M  V30 2806 H 255.614 7.60001 -0.173879 0
M  V30 2807 N 257.189 -0.644168 1.43834 0
M  V30 2808 C 258.099 -1.78563 1.52159 0
M  V30 2809 C 259.115 -1.69147 0.408069 0
M  V30 2810 O 260.291 -1.90156 0.663524 0
M  V30 2811 C 257.356 -3.14888 1.45073 0
M  V30 2812 C 256.417 -3.36034 2.6717 0
M  V30 2813 C 255.65 -4.65855 2.60413 0
M  V30 2814 O 255.873 -5.45805 1.65689 0
M  V30 2815 O 254.807 -4.88918 3.5106 0
M  V30 2816 H 258.633 -1.74494 2.48567 0
M  V30 2817 H 256.218 -0.80378 1.25935 0
M  V30 2818 H 258.1 -3.96179 1.43597 0
M  V30 2819 H 256.775 -3.19528 0.518037 0
M  V30 2820 H 255.682 -2.54472 2.74217 0
M  V30 2821 H 257.015 -3.36247 3.59442 0
M  V30 2822 N 258.668 -1.30515 -0.883378 0
M  V30 2823 C 259.618 -1.13641 -1.9766 0
M  V30 2824 C 260.602 -0.0511314 -1.60819 0
M  V30 2825 O 261.794 -0.274623 -1.74857 0
M  V30 2826 C 258.923 -0.831976 -3.33066 0
M  V30 2827 C 258.009 -1.95759 -3.76217 0
M  V30 2828 N 258.4 -3.20313 -3.9145 0
M  V30 2829 C 256.698 -1.85431 -4.05625 0
M  V30 2830 C 257.399 -3.93856 -4.2808 0
M  V30 2831 N 256.375 -3.21919 -4.38029 0
M  V30 2832 H 260.177 -2.08106 -2.07531 0
M  V30 2833 H 257.691 -1.21877 -1.0733 0
M  V30 2834 H 259.688 -0.692102 -4.11115 0
M  V30 2835 H 258.348 0.104588 -3.24532 0
M  V30 2836 H 259.359 -3.55583 -3.76538 0
M  V30 2837 H 256.036 -0.991531 -4.05555 0
M  V30 2838 H 257.426 -5.01125 -4.47575 0
M  V30 2839 N 260.146 1.09593 -1.13257 0
M  V30 2840 C 261.376 1.85231 -0.915049 0
M  V30 2841 C 261.784 1.81345 0.539498 0
M  V30 2842 O 261.127 1.20664 1.38513 0
M  V30 2843 C 261.189 3.34275 -1.3229 0
M  V30 2844 C 260.853 3.6191 -2.79052 0
M  V30 2845 C 261.85 3.57777 -3.77216 0
M  V30 2846 C 259.535 3.90309 -3.16171 0
M  V30 2847 C 261.529 3.81652 -5.1051 0
M  V30 2848 C 259.216 4.13839 -4.49644 0
M  V30 2849 C 260.214 4.09502 -5.46623 0
M  V30 2850 O 259.902 4.32426 -6.77689 0
M  V30 2851 H 259.634 0.591997 -0.326367 0
M  V30 2852 H 262.188 1.394 -1.50854 0
M  V30 2853 H 260.418 3.80805 -0.672667 0
M  V30 2854 H 262.107 3.9132 -1.07812 0
M  V30 2855 H 262.873 3.35865 -3.49885 0
M  V30 2856 H 258.752 3.92811 -2.41289 0
M  V30 2857 H 262.296 3.78182 -5.86195 0
M  V30 2858 H 258.193 4.35232 -4.767 0
M  V30 2859 H 258.961 4.49896 -6.83766 0
M  V30 2860 N 261.624 0.925811 1.2754 0
M  V30 2861 C 262.534 0.428993 2.30644 0
M  V30 2862 C 263.55 -0.489387 1.66976 0
M  V30 2863 O 264.726 -0.372653 1.97922 0
M  V30 2864 C 261.791 -0.311967 3.45294 0
M  V30 2865 C 260.852 0.641098 4.24486 0
M  V30 2866 C 260.085 -0.0645955 5.33661 0
M  V30 2867 O 260.308 -1.28429 5.55754 0
M  V30 2868 O 259.242 0.606265 5.98839 0
M  V30 2869 H 263.068 1.28504 2.75173 0
M  V30 2870 H 260.653 0.691086 1.32455 0
M  V30 2871 H 262.535 -0.729972 4.15029 0
M  V30 2872 H 261.21 -1.14365 3.02824 0
M  V30 2873 H 260.117 1.10874 3.57292 0
M  V30 2874 H 261.45 1.43995 4.70666 0
M  V30 2875 N 263.102 -1.41638 0.69111 0
M  V30 2876 C 264.049 -2.30789 0.0229705 0
M  V30 2877 C 265.019 -1.46863 -0.775911 0
M  V30 2878 O 266.204 -1.75661 -0.74485 0
M  V30 2879 C 263.344 -3.32868 -0.910666 0
M  V30 2880 C 262.457 -4.31875 -0.103874 0
M  V30 2881 C 261.592 -5.21024 -1.03475 0
M  V30 2882 C 260.631 -6.11702 -0.220598 0
M  V30 2883 N 259.768 -6.93349 -1.10504 0
M  V30 2884 H 264.608 -2.87366 0.788978 0
M  V30 2885 H 262.145 -1.41535 0.400794 0
M  V30 2886 H 264.103 -3.90596 -1.46597 0
M  V30 2887 H 262.733 -2.77851 -1.64312 0
M  V30 2888 H 261.785 -3.76131 0.568285 0
M  V30 2889 H 263.097 -4.96003 0.527504 0
M  V30 2890 H 262.251 -5.83565 -1.65943 0
M  V30 2891 H 260.99 -4.57112 -1.69999 0
M  V30 2892 H 259.995 -5.48215 0.417187 0
M  V30 2893 H 261.22 -6.77668 0.440784 0
M  V30 2894 H 259.166 -6.3205 -1.75638 0
M  V30 2895 H 259.083 -7.54146 -0.529125 0
M  V30 2896 H 260.351 -7.60362 -1.71667 0
M  V30 2897 N 264.58 -0.43555 -1.51462 0
M  V30 2898 C 265.828 0.131254 -2.01673 0
M  V30 2899 C 266.149 1.43368 -1.32177 0
M  V30 2900 O 265.419 1.90524 -0.455769 0
M  V30 2901 H 263.999 0.0514954 -0.745223 0
M  V30 2902 H 266.661 -0.577847 -1.86137 0
M  V30 2903 H 265.757 0.308446 -3.10572 0
M  V30 2904 N 266.058 1.56714 -0.166846 0
M  V30 2905 C 267.283 2.01557 0.488833 0
M  V30 2906 C 267.708 1.0463 1.56314 0
M  V30 2907 O 267.066 0.0251304 1.81283 0
M  V30 2908 C 267.114 3.4503 1.04818 0
M  V30 2909 O 266.218 3.51163 2.16236 0
M  V30 2910 H 265.559 0.653516 0.117526 0
M  V30 2911 H 268.089 2.02818 -0.269421 0
M  V30 2912 H 268.099 3.84243 1.37191 0
M  V30 2913 H 266.774 4.15077 0.261572 0
M  V30 2914 H 265.351 3.23807 1.84942 0
M  V30 2915 N 267.536 -0.106894 1.57237 0
M  V30 2916 C 268.782 -0.81373 1.85759 0
M  V30 2917 C 269.115 -1.78952 0.754315 0
M  V30 2918 O 268.39 -1.93029 -0.23879 0
M  V30 2919 C 268.673 -1.55293 3.24894 0
M  V30 2920 C 268.526 -0.595929 4.45835 0
M  V30 2921 C 269.845 -2.5063 3.61763 0
M  V30 2922 H 266.964 -0.294369 0.67566 0
M  V30 2923 H 269.606 -0.0776472 1.89841 0
M  V30 2924 H 267.756 -2.1804 3.21544 0
M  V30 2925 H 269.428 0.0236262 4.61294 0
M  V30 2926 H 267.671 0.0916191 4.33703 0
M  V30 2927 H 268.342 -1.15004 5.39887 0
M  V30 2928 H 270.818 -1.97982 3.65981 0
M  V30 2929 H 269.694 -2.99376 4.60071 0
M  V30 2930 H 269.955 -3.3385 2.89821 0
M  V30 2931 N 269.014 -1.53014 -0.377408 0
M  V30 2932 C 270.425 -1.60438 -0.954798 0
M  V30 2933 C 270.776 -0.464418 -1.90624 0
M  V30 2934 O 269.901 0.41087 -2.12464 0
M  V30 2935 C 270.496 -2.90797 -1.73847 0
M  V30 2936 C 269.055 -3.00595 -2.26538 0
M  V30 2937 C 268.202 -2.55645 -1.07429 0
M  V30 2938 H 271.153 -1.57926 -0.156575 0
M  V30 2939 H 271.174 -2.77935 -2.5987 0
M  V30 2940 H 270.686 -3.73746 -1.04574 0
M  V30 2941 H 268.787 -2.22208 -2.99089 0
M  V30 2942 H 268.9 -4.05456 -2.5523 0
M  V30 2943 H 267.264 -2.10239 -1.43777 0
M  V30 2944 H 268.047 -3.41 -0.396728 0
M  V30 2945 N 270.492 0.636531 -1.44174 0
M  V30 2946 C 271.738 1.39826 -1.4689 0
M  V30 2947 C 272.071 1.93947 -0.0990585 0
M  V30 2948 O 271.346 1.73325 0.882544 0
M  V30 2949 C 271.629 2.56751 -2.5249 0
M  V30 2950 C 271.482 2.08014 -3.98811 0
M  V30 2951 C 272.801 3.58946 -2.54649 0
M  V30 2952 H 269.92 0.507075 -0.53483 0
M  V30 2953 H 272.562 0.720188 -1.75822 0
M  V30 2954 H 270.712 3.14597 -2.2795 0
M  V30 2955 H 272.384 1.5504 -4.34466 0
M  V30 2956 H 270.627 1.39242 -4.10846 0
M  V30 2957 H 271.298 2.92169 -4.68339 0
M  V30 2958 H 273.774 3.1089 -2.76563 0
M  V30 2959 H 272.65 4.38286 -3.3045 0
M  V30 2960 H 272.911 4.12655 -1.58646 0
M  V30 2961 N 271.97 1.30982 0.876444 0
M  V30 2962 C 272.9 1.20668 1.99903 0
M  V30 2963 C 273.881 0.095354 1.69833 0
M  V30 2964 O 275.066 0.27885 1.92188 0
M  V30 2965 C 272.196 0.90655 3.3526 0
M  V30 2966 C 271.15 1.97675 3.79617 0
M  V30 2967 C 270.476 1.52943 5.1236 0
M  V30 2968 C 271.776 3.389 3.97422 0
M  V30 2969 H 273.47 2.14586 2.0879 0
M  V30 2970 H 271.016 1.03308 1.00317 0
M  V30 2971 H 272.969 0.821025 4.13324 0
M  V30 2972 H 271.693 -0.0682969 3.26529 0
M  V30 2973 H 270.352 2.05205 3.03787 0
M  V30 2974 H 270 0.54262 5.00065 0
M  V30 2975 H 269.7 2.24532 5.43009 0
M  V30 2976 H 271.224 1.45786 5.92941 0
M  V30 2977 H 272.638 3.34081 4.659 0
M  V30 2978 H 271.035 4.0865 4.3946 0
M  V30 2979 H 272.105 3.80163 3.01006 0
M  V30 2980 N 273.449 -1.08991 1.13837 0
M  V30 2981 C 274.698 -1.80631 0.897509 0
M  V30 2982 C 275.011 -1.86872 -0.57777 0
M  V30 2983 O 276.217 -2.54866 -0.935701 0
M  V30 2984 C 274.673 -3.24517 1.55618 0
M  V30 2985 C 274.281 -3.26529 3.0673 0
M  V30 2986 C 276.025 -4.00882 1.3962 0
M  V30 2987 C 273.932 -4.64965 3.65461 0
M  V30 2988 H 272.862 -0.67691 0.332129 0
M  V30 2989 H 275.513 -1.2246 1.3666 0
M  V30 2990 H 273.895 -3.82778 1.01476 0
M  V30 2991 H 275.069 -2.78008 3.67489 0
M  V30 2992 H 273.384 -2.63656 3.22296 0
M  V30 2993 H 275.981 -5.03167 1.80906 0
M  V30 2994 H 276.324 -4.14896 0.341578 0
M  V30 2995 H 276.857 -3.49075 1.90766 0
M  V30 2996 H 273.596 -4.56153 4.70749 0
M  V30 2997 H 273.116 -5.13792 3.09481 0
M  V30 2998 H 274.795 -5.3394 3.654 0
M  V30 2999 N 274.927 -0.932562 -1.27047 0
M  V30 3000 C 276.176 -0.571351 -1.93439 0
M  V30 3001 C 276.489 0.892467 -1.74053 0
M  V30 3002 O 277.695 1.36267 -2.34826 0
M  V30 3003 C 276.151 -0.97106 -3.46552 0
M  V30 3004 C 275.759 -2.4559 -3.74686 0
M  V30 3005 C 277.503 -0.681333 -4.18997 0
M  V30 3006 C 275.41 -2.79475 -5.21198 0
M  V30 3007 H 274.34 -0.209966 -0.724176 0
M  V30 3008 H 276.991 -1.13403 -1.44263 0
M  V30 3009 H 275.373 -0.336983 -3.94564 0
M  V30 3010 H 276.547 -3.13829 -3.37414 0
M  V30 3011 H 274.862 -2.71802 -3.15456 0
M  V30 3012 H 277.459 -0.910939 -5.26883 0
M  V30 3013 H 277.802 0.381628 -4.14547 0
M  V30 3014 H 278.335 -1.27473 -3.76823 0
M  V30 3015 H 275.074 -3.847 -5.30741 0
M  V30 3016 H 274.594 -2.1589 -5.596 0
M  V30 3017 H 276.273 -2.67478 -5.89122 0
M  V30 3018 N 276.405 1.4127 -0.698611 0
M  V30 3019 C 277.355 2.27997 -0.0119836 0
M  V30 3020 C 278.339 1.42363 0.749765 0
M  V30 3021 O 279.531 1.65607 0.624758 0
M  V30 3022 C 276.66 3.30702 0.921458 0
M  V30 3023 C 275.746 4.23814 0.155796 0
M  V30 3024 N 276.137 4.98572 -0.852015 0
M  V30 3025 C 274.435 4.44284 0.390836 0
M  V30 3026 C 275.136 5.66744 -1.3106 0
M  V30 3027 N 274.112 5.39867 -0.635944 0
M  V30 3028 H 277.914 2.83232 -0.784649 0
M  V30 3029 H 275.428 1.53518 -0.529711 0
M  V30 3030 H 277.425 3.91661 1.42854 0
M  V30 3031 H 276.085 2.77028 1.69369 0
M  V30 3032 H 277.096 5.03024 -1.23235 0
M  V30 3033 H 273.773 4.01614 1.14071 0
M  V30 3034 H 275.163 6.36672 -2.14707 0
M  V30 3035 N 277.883 0.443576 1.51229 0
M  V30 3036 C 279.132 -0.122332 2.01329 0
M  V30 3037 C 279.445 -1.43237 1.33201 0
M  V30 3038 O 280.651 -2.0816 1.74304 0
M  V30 3039 C 279.107 -0.268551 3.58897 0
M  V30 3040 C 278.715 1.03142 4.35965 0
M  V30 3041 C 280.459 -0.787894 4.17124 0
M  V30 3042 C 278.366 0.850504 5.85252 0
M  V30 3043 H 277.296 -0.0494929 0.752374 0
M  V30 3044 H 279.947 0.574289 1.74282 0
M  V30 3045 H 278.329 -1.02832 3.82415 0
M  V30 3046 H 279.503 1.80001 4.24189 0
M  V30 3047 H 277.818 1.47977 3.89219 0
M  V30 3048 H 280.415 -0.939841 5.26375 0
M  V30 3049 H 280.758 -1.77201 3.76703 0
M  V30 3050 H 281.291 -0.0862669 3.97706 0
M  V30 3051 H 278.03 1.80718 6.30096 0
M  V30 3052 H 277.55 0.121825 5.99676 0
M  V30 3053 H 279.229 0.506163 6.45017 0
M  V30 3054 N 279.361 -1.56624 0.175154 0
M  V30 3055 C 280.608 -1.96999 -0.468811 0
M  V30 3056 C 280.936 -1.06129 -1.62994 0
M  V30 3057 O 280.191 -0.0961771 -1.95464 0
M  V30 3058 C 280.49 -3.43419 -0.989864 0
M  V30 3059 C 280.156 -4.50866 0.0557687 0
M  V30 3060 C 278.818 -4.79975 0.343134 0
M  V30 3061 C 281.17 -5.15551 0.765308 0
M  V30 3062 C 278.498 -5.71066 1.34536 0
M  V30 3063 C 280.85 -6.07724 1.75654 0
M  V30 3064 C 279.514 -6.35199 2.05132 0
M  V30 3065 H 278.784 -0.720869 -0.17155 0
M  V30 3066 H 281.431 -1.89616 0.267924 0
M  V30 3067 H 279.736 -3.47772 -1.80449 0
M  V30 3068 H 281.433 -3.72002 -1.49719 0
M  V30 3069 H 278.023 -4.28229 -0.178381 0
M  V30 3070 H 282.207 -4.9317 0.556513 0
M  V30 3071 H 277.463 -5.90635 1.57988 0
M  V30 3072 H 281.637 -6.56912 2.31169 0
M  V30 3073 H 279.264 -7.05584 2.8294 0
M  V30 3074 N 280.839 0.0985539 -1.57292 0
M  V30 3075 C 282.088 0.801358 -1.85098 0
M  V30 3076 C 282.401 1.80066 -0.763902 0
M  V30 3077 O 283.607 2.55112 -0.928981 0
M  V30 3078 C 282.063 1.47599 -3.28242 0
M  V30 3079 C 281.671 0.516624 -4.45011 0
M  V30 3080 C 283.415 2.16272 -3.65276 0
M  V30 3081 C 281.322 1.19564 -5.79188 0
M  V30 3082 H 280.252 0.303022 -0.69043 0
M  V30 3083 H 282.903 0.0542623 -1.8342 0
M  V30 3084 H 281.285 2.27042 -3.2445 0
M  V30 3085 H 282.459 -0.246065 -4.60143 0
M  V30 3086 H 280.774 -0.064227 -4.1635 0
M  V30 3087 H 283.371 2.67802 -4.62803 0
M  V30 3088 H 283.714 2.95009 -2.93727 0
M  V30 3089 H 284.247 1.43693 -3.70941 0
M  V30 3090 H 280.986 0.449157 -6.53959 0
M  V30 3091 H 280.506 1.92984 -5.67906 0
M  V30 3092 H 282.185 1.7231 -6.23633 0
M  V30 3093 N 282.317 1.53212 0.369288 0
M  V30 3094 C 283.563 1.69466 1.11397 0
M  V30 3095 C 283.896 0.443257 1.89074 0
M  V30 3096 O 283.171 -0.559386 1.86282 0
M  V30 3097 C 283.454 2.9422 2.07621 0
M  V30 3098 C 283.307 4.29508 1.33577 0
M  V30 3099 C 284.626 3.14565 3.07794 0
M  V30 3100 H 281.745 0.616667 0.403597 0
M  V30 3101 H 284.387 1.85845 0.395179 0
M  V30 3102 H 282.537 2.80387 2.68916 0
M  V30 3103 H 284.209 4.55147 0.750955 0
M  V30 3104 H 282.452 4.29088 0.637618 0
M  V30 3105 H 283.123 5.12926 2.03989 0
M  V30 3106 H 285.599 3.2756 2.56601 0
M  V30 3107 H 284.475 4.03297 3.72348 0
M  V30 3108 H 284.736 2.29675 3.77759 0
M  V30 3109 N 283.795 -0.628877 1.44509 0
M  V30 3110 C 285.042 -1.38839 1.47411 0
M  V30 3111 C 285.37 -1.94202 0.10757 0
M  V30 3112 O 284.625 -1.74243 -0.890947 0
M  V30 3113 C 284.924 -2.56995 2.48371 0
M  V30 3114 C 284.59 -2.19908 3.93639 0
M  V30 3115 C 283.252 -2.09506 4.33198 0
M  V30 3116 C 285.604 -1.9064 4.85083 0
M  V30 3117 C 282.932 -1.68028 5.62124 0
M  V30 3118 C 285.284 -1.50655 6.14399 0
M  V30 3119 C 283.948 -1.38796 6.5291 0
M  V30 3120 H 283.218 -0.508048 0.539414 0
M  V30 3121 H 285.865 -0.712913 1.77735 0
M  V30 3122 H 284.17 -3.29786 2.11538 0
M  V30 3123 H 285.867 -3.15223 2.47861 0
M  V30 3124 H 282.457 -2.28922 3.62343 0
M  V30 3125 H 286.641 -1.97585 4.55273 0
M  V30 3126 H 281.897 -1.57452 5.90778 0
M  V30 3127 H 286.071 -1.27048 6.84713 0
M  V30 3128 H 283.698 -1.06429 7.52713 0
M  V30 3129 N 285.273 -1.31445 -0.869486 0
M  V30 3130 C 286.498 -1.24256 -1.66058 0
M  V30 3131 C 286.923 0.188928 -1.87149 0
M  V30 3132 O 286.281 1.13522 -1.4136 0
M  V30 3133 C 286.329 -1.9924 -3.00559 0
M  V30 3134 O 285.433 -1.33007 -3.90362 0
M  V30 3135 H 284.774 -0.428973 -0.506831 0
M  V30 3136 H 287.304 -1.73521 -1.08404 0
M  V30 3137 H 287.314 -2.08854 -3.50491 0
M  V30 3138 H 285.989 -3.03342 -2.84528 0
M  V30 3139 H 284.566 -1.31848 -3.48813 0
M  V30 3140 N 286.751 1.08385 -1.14413 0
M  V30 3141 C 287.998 1.80776 -0.912482 0
M  V30 3142 C 288.326 1.86236 0.560934 0
M  V30 3143 O 287.581 1.33431 1.43159 0
M  V30 3144 C 287.88 3.26273 -1.45879 0
M  V30 3145 C 287.546 3.4093 -2.95089 0
M  V30 3146 C 286.208 3.44638 -3.35824 0
M  V30 3147 C 288.56 3.44591 -3.91033 0
M  V30 3148 C 285.888 3.49597 -4.71167 0
M  V30 3149 C 288.24 3.51086 -5.26233 0
M  V30 3150 C 286.904 3.53067 -5.6648 0
M  V30 3151 H 286.174 0.661507 -0.333901 0
M  V30 3152 H 288.821 1.27613 -1.42784 0
M  V30 3153 H 287.126 3.82146 -0.864376 0
M  V30 3154 H 288.823 3.80839 -1.2555 0
M  V30 3155 H 285.413 3.38736 -2.62594 0
M  V30 3156 H 289.597 3.40957 -3.60641 0
M  V30 3157 H 284.853 3.49424 -5.0171 0
M  V30 3158 H 289.027 3.52864 -6.00383 0
M  V30 3159 H 286.654 3.56662 -6.71339 0
M  V30 3160 N 288.23 0.939286 1.26551 0
M  V30 3161 C 289.477 0.585847 1.9384 0
M  V30 3162 C 289.805 -0.874784 1.73718 0
M  V30 3163 O 289.06 -1.64092 1.06642 0
M  V30 3164 C 289.359 0.872106 3.46596 0
M  V30 3165 C 289.025 2.31632 3.86856 0
M  V30 3166 C 287.687 2.71111 3.97558 0
M  V30 3167 C 290.039 3.25494 4.07066 0
M  V30 3168 C 287.367 4.03553 4.25866 0
M  V30 3169 C 289.719 4.57531 4.36862 0
M  V30 3170 C 288.383 4.96828 4.45778 0
M  V30 3171 H 287.653 0.214377 0.709312 0
M  V30 3172 H 290.3 1.18544 1.50398 0
M  V30 3173 H 288.605 0.18996 3.91339 0
M  V30 3174 H 290.302 0.577442 3.96821 0
M  V30 3175 H 286.892 2.00008 3.79071 0
M  V30 3176 H 291.076 2.9619 3.98227 0
M  V30 3177 H 286.332 4.33665 4.30981 0
M  V30 3178 H 290.506 5.30254 4.51446 0
M  V30 3179 H 288.133 5.99482 4.67468 0
M  V30 3180 N 289.708 -1.40897 0.706093 0
M  V30 3181 C 290.638 -2.33418 0.0620085 0
M  V30 3182 C 291.619 -1.52385 -0.755827 0
M  V30 3183 O 292.804 -1.80886 -0.706674 0
M  V30 3184 C 289.934 -3.36293 -0.867445 0
M  V30 3185 C 288.888 -4.27716 -0.155932 0
M  V30 3186 C 288.214 -5.2105 -1.20046 0
M  V30 3187 C 289.514 -5.12944 0.984149 0
M  V30 3188 H 291.208 -2.87527 0.83477 0
M  V30 3189 H 288.754 -1.38249 0.402875 0
M  V30 3190 H 290.707 -3.99949 -1.32735 0
M  V30 3191 H 289.431 -2.80556 -1.67199 0
M  V30 3192 H 288.09 -3.65498 0.284047 0
M  V30 3193 H 287.738 -4.61624 -1.99781 0
M  V30 3194 H 287.438 -5.83056 -0.729328 0
M  V30 3195 H 288.962 -5.87584 -1.66066 0
M  V30 3196 H 290.376 -5.70109 0.604048 0
M  V30 3197 H 288.773 -5.83945 1.38304 0
M  V30 3198 H 289.843 -4.49485 1.81911 0
M  V30 3199 N 291.186 -0.45159 -1.50991 0
M  V30 3200 C 292.432 0.110237 -2.025 0
M  V30 3201 C 292.765 1.41109 -1.33424 0
M  V30 3202 O 292.04 1.89135 -0.453659 0
M  V30 3203 C 292.323 0.314271 -3.58726 0
M  V30 3204 C 292.176 -1.00623 -4.38401 0
M  V30 3205 C 293.495 1.07767 -4.26702 0
M  V30 3206 H 290.614 0.0385897 -0.735989 0
M  V30 3207 H 293.256 -0.593374 -1.80497 0
M  V30 3208 H 291.406 0.913601 -3.77605 0
M  V30 3209 H 293.078 -1.64064 -4.31139 0
M  V30 3210 H 291.321 -1.6075 -4.02917 0
M  V30 3211 H 291.992 -0.817341 -5.45915 0
M  V30 3212 H 294.468 0.56986 -4.12179 0
M  V30 3213 H 293.344 1.18921 -5.35863 0
M  V30 3214 H 293.605 2.10939 -3.88532 0
M  V30 3215 N 292.664 1.56529 -0.183458 0
M  V30 3216 C 293.911 1.97244 0.458357 0
M  V30 3217 C 294.239 1.06992 1.62428 0
M  V30 3218 O 293.494 0.106542 1.9541 0
M  V30 3219 C 293.793 3.43939 0.971637 0
M  V30 3220 C 293.459 4.5083 -0.0796784 0
M  V30 3221 C 292.121 4.79786 -0.368584 0
M  V30 3222 C 294.473 5.15138 -0.792638 0
M  V30 3223 C 291.801 5.70345 -1.37563 0
M  V30 3224 C 294.153 6.06784 -1.78875 0
M  V30 3225 C 292.817 6.34102 -2.08497 0
M  V30 3226 H 292.087 0.721768 0.167725 0
M  V30 3227 H 294.734 1.89472 -0.277976 0
M  V30 3228 H 293.039 3.48724 1.78602 0
M  V30 3229 H 294.736 3.72791 1.47744 0
M  V30 3230 H 291.326 4.28317 0.155668 0
M  V30 3231 H 295.51 4.92868 -0.582659 0
M  V30 3232 H 290.766 5.89789 -1.61118 0
M  V30 3233 H 294.94 6.55677 -2.3465 0
M  V30 3234 H 292.567 7.04074 -2.86678 0
M  V30 3235 N 294.142 -0.090211 1.57342 0
M  V30 3236 C 295.072 -1.10976 2.05443 0
M  V30 3237 C 296.053 -1.41482 0.944284 0
M  V30 3238 O 297.238 -1.51428 1.21586 0
M  V30 3239 C 294.368 -2.42831 2.48295 0
M  V30 3240 C 293.322 -2.26721 3.63018 0
M  V30 3241 C 292.648 -3.63796 3.91863 0
M  V30 3242 C 293.948 -1.7037 4.93732 0
M  V30 3243 H 295.642 -0.709564 2.9087 0
M  V30 3244 H 293.188 -0.339874 1.39932 0
M  V30 3245 H 295.141 -3.14431 2.80555 0
M  V30 3246 H 293.865 -2.84795 1.59873 0
M  V30 3247 H 292.524 -1.57565 3.31012 0
M  V30 3248 H 292.172 -4.03297 3.00601 0
M  V30 3249 H 291.872 -3.53861 4.69101 0
M  V30 3250 H 293.396 -4.36855 4.26603 0
M  V30 3251 H 294.81 -2.31816 5.24342 0
M  V30 3252 H 293.207 -1.71181 5.75167 0
M  V30 3253 H 294.277 -0.663542 4.80339 0
M  V30 3254 N 295.62 -1.53406 -0.361157 0
M  V30 3255 C 296.869 -1.69022 -1.10066 0
M  V30 3256 C 297.182 -0.450838 -1.90333 0
M  V30 3257 O 298.388 -0.487617 -2.67085 0
M  V30 3258 C 296.844 -2.98812 -2.00598 0
M  V30 3259 C 296.452 -4.30027 -1.25621 0
M  V30 3260 C 298.196 -3.23795 -2.74513 0
M  V30 3261 C 296.103 -5.50903 -2.1508 0
M  V30 3262 H 295.033 -0.629776 -0.414606 0
M  V30 3263 H 297.684 -1.79907 -0.361348 0
M  V30 3264 H 296.066 -2.8174 -2.78278 0
M  V30 3265 H 297.24 -4.57745 -0.529739 0
M  V30 3266 H 295.555 -4.11522 -0.635496 0
M  V30 3267 H 298.152 -4.11289 -3.41681 0
M  V30 3268 H 298.495 -2.40045 -3.40123 0
M  V30 3269 H 299.028 -3.41561 -2.03914 0
M  V30 3270 H 295.767 -6.37143 -1.54041 0
M  V30 3271 H 295.287 -5.27459 -2.85565 0
M  V30 3272 H 296.966 -5.85865 -2.74538 0
M  V30 3273 N 297.098 0.621204 -1.44841 0
M  V30 3274 C 298.347 1.37658 -1.47422 0
M  V30 3275 C 298.66 1.95264 -0.114629 0
M  V30 3276 O 299.866 2.71494 -0.0180199 0
M  V30 3277 C 298.322 2.49285 -2.59586 0
M  V30 3278 C 297.93 1.98149 -4.01797 0
M  V30 3279 C 299.674 3.26409 -2.71399 0
M  V30 3280 C 297.581 3.07178 -5.05367 0
M  V30 3281 H 296.511 0.517344 -0.548517 0
M  V30 3282 H 299.162 0.667257 -1.70938 0
M  V30 3283 H 297.544 3.22839 -2.29328 0
M  V30 3284 H 298.718 1.31395 -4.41669 0
M  V30 3285 H 297.033 1.33812 -3.94314 0
M  V30 3286 H 299.63 4.07706 -3.45948 0
M  V30 3287 H 299.973 3.76535 -1.77559 0
M  V30 3288 H 300.506 2.5995 -3.01116 0
M  V30 3289 H 297.245 2.61985 -6.00869 0
M  V30 3290 H 296.765 3.72542 -4.70077 0
M  V30 3291 H 298.444 3.71789 -5.29511 0
M  V30 3292 N 298.576 1.31904 0.862503 0
M  V30 3293 C 299.506 1.22782 1.98612 0
M  V30 3294 C 300.487 0.113362 1.69722 0
M  V30 3295 O 301.672 0.299218 1.91881 0
M  V30 3296 C 298.802 0.942058 3.34279 0
M  V30 3297 C 297.756 2.0169 3.77499 0
M  V30 3298 C 297.082 1.58369 5.10709 0
M  V30 3299 C 298.382 3.43096 3.93805 0
M  V30 3300 H 300.076 2.16788 2.06502 0
M  V30 3301 H 297.622 1.04366 0.992154 0
M  V30 3302 H 299.575 0.864818 4.1243 0
M  V30 3303 H 298.299 -0.0336603 3.26583 0
M  V30 3304 H 296.958 2.08416 3.01593 0
M  V30 3305 H 296.606 0.595628 4.99461 0
M  V30 3306 H 296.306 2.30279 5.40597 0
M  V30 3307 H 297.83 1.52067 5.91361 0
M  V30 3308 H 299.244 3.39003 4.62331 0
M  V30 3309 H 297.641 4.13288 4.35101 0
M  V30 3310 H 298.711 3.83334 2.96957 0
M  V30 3311 N 300.054 -1.07777 1.14986 0
M  V30 3312 C 301.301 -1.8029 0.922056 0
M  V30 3313 C 301.629 -1.86531 -0.55105 0
M  V30 3314 O 300.884 -1.34189 -1.42449 0
M  V30 3315 C 301.183 -3.25495 1.47608 0
M  V30 3316 C 300.849 -3.39361 2.96893 0
M  V30 3317 C 299.511 -3.42852 3.37647 0
M  V30 3318 C 301.863 -3.42512 3.92854 0
M  V30 3319 C 299.191 -3.47094 4.73015 0
M  V30 3320 C 301.543 -3.4829 5.28088 0
M  V30 3321 C 300.207 -3.50058 5.68345 0
M  V30 3322 H 299.477 -0.659727 0.337404 0
M  V30 3323 H 302.124 -1.26854 1.43459 0
M  V30 3324 H 300.429 -3.81683 0.88463 0
M  V30 3325 H 302.126 -3.80168 1.27568 0
M  V30 3326 H 298.716 -3.37339 2.64387 0
M  V30 3327 H 302.9 -3.3904 3.62444 0
M  V30 3328 H 298.156 -3.46758 5.03556 0
M  V30 3329 H 302.33 -3.49675 6.02246 0
M  V30 3330 H 299.957 -3.53097 6.73221 0
M  V30 3331 N 301.532 -0.945985 -1.26051 0
M  V30 3332 C 302.772 -0.603665 -1.95282 0
M  V30 3333 C 303.136 0.842377 -1.72534 0
M  V30 3334 O 304.337 1.29387 -2.35611 0
M  V30 3335 C 302.608 -0.942292 -3.44754 0
M  V30 3336 S 304.167 -0.711242 -4.32997 0
M  V30 3337 H 300.985 -0.222176 -0.675395 0
M  V30 3338 H 303.587 -1.21832 -1.52896 0
M  V30 3339 H 302.291 -1.99203 -3.58812 0
M  V30 3340 H 301.822 -0.317546 -3.92116 0
M  V30 3341 H 303.837 0.422221 -4.944 0
M  V30 3342 N 303.011 1.40521 -0.713556 0
M  V30 3343 C 303.959 2.32549 -0.0485227 0
M  V30 3344 C 304.953 1.51931 0.74922 0
M  V30 3345 O 306.159 1.67745 0.652816 0
M  V30 3346 H 302.534 0.751994 0.00311138 0
M  V30 3347 H 304.505 2.86291 -0.841443 0
M  V30 3348 C 303.254 3.36879 0.860687 0
M  V30 3349 H 302.577 3.98978 0.256246 0
M  V30 3350 H 304.017 4.03772 1.294 0
M  V30 3351 C 302.476 2.72197 1.9852 0
M  V30 3352 O 303.006 2.5837 3.07584 0
M  V30 3353 N 301.212 2.30612 1.76823 0
M  V30 3354 H 300.759 2.42059 0.881217 0
M  V30 3355 H 300.717 1.87672 2.52243 0
M  V30 3356 N 304.489 0.459591 1.5075 0
M  V30 3357 C 305.419 -0.330644 2.31147 0
M  V30 3358 C 306.4 -1.00087 1.37538 0
M  V30 3359 O 307.585 -1.00025 1.66459 0
M  V30 3360 C 304.715 -1.41958 3.16962 0
M  V30 3361 C 303.669 -0.871608 4.19031 0
M  V30 3362 C 302.995 -2.05797 4.9351 0
M  V30 3363 C 304.295 0.109251 5.22186 0
M  V30 3364 H 305.989 0.340336 2.97459 0
M  V30 3365 H 303.535 0.165119 1.4305 0
M  V30 3366 H 305.488 -1.9798 3.71997 0
M  V30 3367 H 304.212 -2.11917 2.48513 0
M  V30 3368 H 302.871 -0.333442 3.6508 0
M  V30 3369 H 302.519 -2.74427 4.21544 0
M  V30 3370 H 302.219 -1.6976 5.62544 0
M  V30 3371 H 303.743 -2.62331 5.51375 0
M  V30 3372 H 305.157 -0.361405 5.7216 0
M  V30 3373 H 303.554 0.383316 5.98875 0
M  V30 3374 H 304.624 1.03887 4.73641 0
M  V30 3375 N 305.967 -1.56429 0.191757 0
M  V30 3376 C 307.213 -1.97777 -0.448554 0
M  V30 3377 C 307.546 -1.07847 -1.61501 0
M  V30 3378 O 306.821 -0.129774 -1.94067 0
M  V30 3379 C 307.104 -3.48362 -0.911906 0
M  V30 3380 C 306.957 -4.4907 0.256136 0
M  V30 3381 C 308.276 -4.02561 -1.77857 0
M  V30 3382 H 305.395 -0.719071 -0.161572 0
M  V30 3383 H 308.037 -1.87896 0.282007 0
M  V30 3384 H 306.187 -3.56914 -1.53442 0
M  V30 3385 H 307.859 -4.5256 0.893733 0
M  V30 3386 H 306.102 -4.24181 0.908436 0
M  V30 3387 H 306.773 -5.51889 -0.11053 0
M  V30 3388 H 309.249 -3.96767 -1.25359 0
M  V30 3389 H 308.125 -5.08301 -2.07174 0
M  V30 3390 H 308.386 -3.47616 -2.73158 0
M  V30 3391 N 307.445 0.0818655 -1.57387 0
M  V30 3392 C 308.694 0.781681 -1.85937 0
M  V30 3393 C 309.007 1.79246 -0.782957 0
M  V30 3394 O 310.213 2.54112 -0.955987 0
M  V30 3395 C 308.669 1.44109 -3.29789 0
M  V30 3396 C 308.277 0.469396 -4.45534 0
M  V30 3397 C 310.021 2.12386 -3.67549 0
M  V30 3398 C 307.928 1.13415 -5.80423 0
M  V30 3399 H 306.858 0.295682 -0.693605 0
M  V30 3400 H 309.509 0.0348051 -1.83467 0
M  V30 3401 H 307.891 2.23588 -3.2684 0
M  V30 3402 H 309.065 -0.294856 -4.59856 0
M  V30 3403 H 307.38 -0.108383 -4.16259 0
M  V30 3404 H 309.977 2.62878 -4.65617 0
M  V30 3405 H 310.32 2.91877 -2.96839 0
M  V30 3406 H 310.853 1.39751 -3.72444 0
M  V30 3407 H 307.592 0.379771 -6.54399 0
M  V30 3408 H 307.112 1.8695 -5.69921 0
M  V30 3409 H 308.791 1.65686 -6.25426 0
M  V30 3410 N 308.923 1.53595 0.353017 0
M  V30 3411 C 310.172 1.69603 1.09168 0
M  V30 3412 C 310.485 0.460925 1.90092 0
M  V30 3413 O 311.691 0.501774 2.66823 0
M  V30 3414 C 310.147 2.99872 1.9901 0
M  V30 3415 C 309.755 4.30687 1.23339 0
M  V30 3416 C 311.499 3.25246 2.72792 0
M  V30 3417 C 309.406 5.52036 2.12156 0
M  V30 3418 H 308.336 0.631966 0.411261 0
M  V30 3419 H 310.987 1.80096 0.351802 0
M  V30 3420 H 309.369 2.83212 2.7678 0
M  V30 3421 H 310.543 4.58019 0.505456 0
M  V30 3422 H 308.858 4.11853 0.613663 0
M  V30 3423 H 311.455 4.13095 3.39495 0
M  V30 3424 H 311.798 2.41846 3.38846 0
M  V30 3425 H 312.331 3.42638 2.021 0
M  V30 3426 H 309.07 6.37951 1.50659 0
M  V30 3427 H 308.59 5.28966 2.82764 0
M  V30 3428 H 310.269 5.87313 2.71427 0
M  V30 3429 N 310.401 -0.613514 1.45168 0
M  V30 3430 C 311.817 -0.933629 1.29443 0
M  V30 3431 C 312.017 -2.00028 0.243101 0
M  V30 3432 O 311.073 -2.49848 -0.364992 0
M  V30 3433 C 312.386 -1.38018 2.67155 0
M  V30 3434 C 313.934 -1.49471 2.75004 0
M  V30 3435 C 314.409 -1.97503 4.13227 0
M  V30 3436 N 315.9 -2.04746 4.15491 0
M  V30 3437 C 316.635 -2.43121 5.19307 0
M  V30 3438 N 316.131 -2.80506 6.33473 0
M  V30 3439 N 317.924 -2.43408 5.06664 0
M  V30 3440 H 310.075 0.0916097 2.12202 0
M  V30 3441 H 312.338 -0.0216655 0.947752 0
M  V30 3442 H 312.044 -0.670625 3.45247 0
M  V30 3443 H 311.918 -2.34784 2.95222 0
M  V30 3444 H 314.305 -2.19519 1.9722 0
M  V30 3445 H 314.386 -0.510342 2.50657 0
M  V30 3446 H 314.03 -1.28045 4.91495 0
M  V30 3447 H 313.96 -2.96843 4.34962 0
M  V30 3448 H 316.451 -1.78468 3.33103 0
M  V30 3449 H 316.764 -3.08652 7.08487 0
M  V30 3450 H 315.109 -2.78216 6.36884 0
M  V30 3451 H 318.3 -2.13604 4.16523 0
M  V30 3452 H 318.473 -2.72989 5.87691 0
M  V30 3453 N 311.879 -1.3236 -0.855495 0
M  V30 3454 C 313.107 -1.2587 -1.64208 0
M  V30 3455 C 313.522 0.173457 -1.88002 0
M  V30 3456 O 312.879 1.11027 -1.44842 0
M  V30 3457 C 312.93 -2.01424 -3.00184 0
M  V30 3458 O 312.651 -3.39051 -2.77445 0
M  V30 3459 C 314.152 -2.01948 -3.94629 0
M  V30 3460 H 311.372 -0.434318 -0.511477 0
M  V30 3461 H 313.916 -1.74469 -1.0668 0
M  V30 3462 H 312.071 -1.56549 -3.5436 0
M  V30 3463 H 312.485 -3.77711 -3.63916 0
M  V30 3464 H 313.959 -2.59297 -4.87308 0
M  V30 3465 H 314.436 -1.00554 -4.27534 0
M  V30 3466 H 315.042 -2.46767 -3.4639 0
M  V30 3467 N 313.357 1.07166 -1.15556 0
M  V30 3468 C 314.287 2.16403 -0.877046 0
M  V30 3469 C 315.268 1.69217 0.173111 0
M  V30 3470 O 316.453 1.94181 0.027084 0
M  V30 3471 C 313.583 3.45349 -0.367632 0
M  V30 3472 C 312.537 4.05995 -1.35468 0
M  V30 3473 C 311.863 5.30045 -0.704038 0
M  V30 3474 C 313.163 4.45804 -2.72132 0
M  V30 3475 H 314.857 2.39959 -1.79053 0
M  V30 3476 H 312.403 1.15325 -0.862331 0
M  V30 3477 H 314.356 4.21095 -0.160317 0
M  V30 3478 H 313.08 3.21385 0.581326 0
M  V30 3479 H 311.739 3.32296 -1.54839 0
M  V30 3480 H 311.387 5.02373 0.251128 0
M  V30 3481 H 311.087 5.71579 -1.36277 0
M  V30 3482 H 312.611 6.08495 -0.50654 0
M  V30 3483 H 314.025 5.12671 -2.56595 0
M  V30 3484 H 312.422 4.98296 -3.34397 0
M  V30 3485 H 313.492 3.57083 -3.28054 0
M  V30 3486 N 314.835 0.952656 1.25548 0
M  V30 3487 C 315.765 0.489287 2.28316 0
M  V30 3488 C 316.746 -0.463359 1.63667 0
M  V30 3489 O 317.931 -0.36274 1.90782 0
M  V30 3490 C 315.061 -0.235603 3.465 0
M  V30 3491 C 314.015 0.631593 4.23314 0
M  V30 3492 C 313.341 -0.223923 5.34231 0
M  V30 3493 C 314.641 1.90871 4.86174 0
M  V30 3494 H 316.335 1.34822 2.67326 0
M  V30 3495 H 313.881 0.649728 1.28509 0
M  V30 3496 H 315.834 -0.570882 4.17515 0
M  V30 3497 H 314.558 -1.12877 3.06474 0
M  V30 3498 H 313.217 0.949929 3.54079 0
M  V30 3499 H 312.865 -1.11678 4.90446 0
M  V30 3500 H 312.565 0.35299 5.86539 0
M  V30 3501 H 314.089 -0.554214 6.0808 0
M  V30 3502 H 315.503 1.63997 5.49343 0
M  V30 3503 H 313.9 2.43112 5.4865 0
M  V30 3504 H 314.97 2.61304 4.08471 0
M  V30 3505 N 316.313 -1.40141 0.720998 0
M  V30 3506 C 317.246 -2.2819 0.020916 0
M  V30 3507 C 318.224 -1.43633 -0.762129 0
M  V30 3508 O 319.408 -1.7304 -0.747633 0
M  V30 3509 C 316.535 -3.24281 -0.977715 0
M  V30 3510 C 315.581 -4.25548 -0.284836 0
M  V30 3511 S 316.414 -5.26247 0.991169 0
M  V30 3512 C 317.57 -6.259 -0.0052214 0
M  V30 3513 H 317.803 -2.87218 0.767649 0
M  V30 3514 H 315.336 -1.45656 0.512233 0
M  V30 3515 H 317.294 -3.80167 -1.54865 0
M  V30 3516 H 315.955 -2.643 -1.69719 0
M  V30 3517 H 315.148 -4.93154 -1.03996 0
M  V30 3518 H 314.75 -3.73389 0.213684 0
M  V30 3519 H 317.042 -6.72143 -0.850279 0
M  V30 3520 H 317.985 -7.05224 0.637599 0
M  V30 3521 H 318.393 -5.63277 -0.371366 0
M  V30 3522 N 317.792 -0.46758 -1.50504 0
M  V30 3523 C 318.724 0.364655 -2.26281 0
M  V30 3524 C 319.737 0.960151 -1.31472 0
M  V30 3525 O 320.926 0.849153 -1.57008 0
M  V30 3526 C 318.026 1.52509 -3.02645 0
M  V30 3527 C 317.199 1.04302 -4.24782 0
M  V30 3528 C 316.258 2.07709 -4.8347 0
M  V30 3529 O 315.284 1.65913 -5.44483 0
M  V30 3530 N 316.486 3.40485 -4.70159 0
M  V30 3531 H 319.251 -0.28495 -2.98342 0
M  V30 3532 H 316.812 -0.298163 -1.59131 0
M  V30 3533 H 318.804 2.21371 -3.38787 0
M  V30 3534 H 317.374 2.07945 -2.33404 0
M  V30 3535 H 316.594 0.180393 -3.93787 0
M  V30 3536 H 317.882 0.698798 -5.03978 0
M  V30 3537 H 317.28 3.77155 -4.21629 0
M  V30 3538 H 315.837 4.05156 -5.1058 0
M  V30 3539 N 319.27 1.56325 -0.20005 0
M  V30 3540 C 320.681 1.8408 0.31167 0
M  V30 3541 C 321.032 1.12087 1.61031 0
M  V30 3542 O 320.157 0.38332 2.12978 0
M  V30 3543 C 320.752 3.33932 0.57226 0
M  V30 3544 C 319.311 3.6208 1.02834 0
M  V30 3545 C 318.458 2.77186 0.079634 0
M  V30 3546 H 321.409 1.52939 -0.423729 0
M  V30 3547 H 321.43 3.52971 1.42096 0
M  V30 3548 H 320.942 3.86303 -0.37308 0
M  V30 3549 H 319.043 3.15147 1.98778 0
M  V30 3550 H 319.156 4.7023 0.917624 0
M  V30 3551 H 317.52 2.47951 0.582448 0
M  V30 3552 H 318.303 3.32347 -0.860238 0
M  V30 3553 N 320.748 -0.0735177 1.57428 0
M  V30 3554 C 321.994 -0.774145 1.87443 0
M  V30 3555 C 322.327 -1.77311 0.792103 0
M  V30 3556 O 321.602 -1.93492 -0.197793 0
M  V30 3557 C 321.885 -1.48367 3.28115 0
M  V30 3558 C 321.738 -0.501227 4.46999 0
M  V30 3559 C 323.057 -2.429 3.66998 0
M  V30 3560 H 320.176 -0.279971 0.681752 0
M  V30 3561 H 322.818 -0.0373616 1.89963 0
M  V30 3562 H 320.968 -2.11171 3.26097 0
M  V30 3563 H 322.64 0.121468 4.6114 0
M  V30 3564 H 320.883 0.183593 4.33411 0
M  V30 3565 H 321.554 -1.03526 5.42205 0
M  V30 3566 H 324.03 -1.90175 3.70098 0
M  V30 3567 H 322.906 -2.89549 4.66318 0
M  V30 3568 H 323.167 -3.27628 2.96837 0
M  V30 3569 N 322.226 -1.5378 -0.344866 0
M  V30 3570 C 323.158 -1.77988 -1.44406 0
M  V30 3571 C 324.171 -0.661138 -1.48771 0
M  V30 3572 O 325.36 -0.937842 -1.51877 0
M  V30 3573 C 322.46 -1.86345 -2.8307 0
M  V30 3574 C 321.633 -3.16256 -3.0216 0
M  V30 3575 C 320.692 -3.15588 -4.21059 0
M  V30 3576 O 319.718 -3.89314 -4.15239 0
M  V30 3577 N 320.92 -2.37864 -5.29529 0
M  V30 3578 H 323.685 -2.72839 -1.24012 0
M  V30 3579 H 321.246 -1.52814 -0.534737 0
M  V30 3580 H 323.238 -1.83351 -3.60783 0
M  V30 3581 H 321.808 -0.986858 -2.96614 0
M  V30 3582 H 321.028 -3.32385 -2.11929 0
M  V30 3583 H 322.316 -4.0207 -3.11797 0
M  V30 3584 H 321.714 -1.77514 -5.37127 0
M  V30 3585 H 320.271 -2.40668 -6.05741 0
M  V30 3586 N 323.704 0.605807 -1.45491 0
M  V30 3587 C 324.636 1.73031 -1.5031 0
M  V30 3588 C 325.649 1.57968 -0.393687 0
M  V30 3589 O 326.838 1.65817 -0.660839 0
M  V30 3590 C 323.938 3.11049 -1.34543 0
M  V30 3591 C 323.111 3.52334 -2.59189 0
M  V30 3592 C 322.17 4.69323 -2.37954 0
M  V30 3593 O 321.196 4.7635 -3.11575 0
M  V30 3594 N 322.398 5.62705 -1.4263 0
M  V30 3595 H 325.163 1.6936 -2.4726 0
M  V30 3596 H 322.724 0.79114 -1.41254 0
M  V30 3597 H 324.716 3.87071 -1.18144 0
M  V30 3598 H 323.286 3.09217 -0.458623 0
M  V30 3599 H 322.506 2.66256 -2.90691 0
M  V30 3600 H 323.794 3.76677 -3.42041 0
M  V30 3601 H 323.192 5.59744 -0.818758 0
M  V30 3602 H 321.749 6.38252 -1.32202 0
M  V30 3603 N 325.182 1.32811 0.848464 0
M  V30 3604 C 326.114 1.18095 1.96433 0
M  V30 3605 C 327.127 0.114354 1.62398 0
M  V30 3606 O 328.316 0.363892 1.74751 0
M  V30 3607 C 325.416 0.786798 3.2964 0
M  V30 3608 C 324.589 1.943 3.91875 0
M  V30 3609 C 323.648 1.53138 5.03423 0
M  V30 3610 O 322.674 2.24432 5.23086 0
M  V30 3611 N 323.876 0.430915 5.78898 0
M  V30 3612 H 326.641 2.14218 2.09597 0
M  V30 3613 H 324.202 1.2543 1.02367 0
M  V30 3614 H 326.194 0.493715 4.01677 0
M  V30 3615 H 324.764 -0.0834541 3.12489 0
M  V30 3616 H 323.984 2.40224 3.12547 0
M  V30 3617 H 325.272 2.71689 4.30189 0
M  V30 3618 H 324.67 -0.162333 5.65467 0
M  V30 3619 H 323.227 0.197466 6.51501 0
M  V30 3620 N 326.66 -1.06551 1.16123 0
M  V30 3621 C 328.076 -1.3142 0.905585 0
M  V30 3622 C 328.276 -1.96571 -0.442964 0
M  V30 3623 O 327.332 -2.23068 -1.18308 0
M  V30 3624 C 328.645 -2.19741 2.05267 0
M  V30 3625 C 330.193 -2.33165 2.08813 0
M  V30 3626 C 330.668 -3.24838 3.22868 0
M  V30 3627 N 332.159 -3.32421 3.22568 0
M  V30 3628 C 332.894 -4.0344 4.0746 0
M  V30 3629 N 332.39 -4.77003 5.02434 0
M  V30 3630 N 334.183 -3.99464 3.95456 0
M  V30 3631 H 326.334 -0.626548 2.02949 0
M  V30 3632 H 328.597 -0.338777 0.8854 0
M  V30 3633 H 328.303 -1.79142 3.02657 0
M  V30 3634 H 328.177 -3.20313 1.99198 0
M  V30 3635 H 330.564 -2.73013 1.12018 0
M  V30 3636 H 330.645 -1.3227 2.18948 0
M  V30 3637 H 330.289 -2.85708 4.19921 0
M  V30 3638 H 330.219 -4.25707 3.0997 0
M  V30 3639 H 332.71 -2.79994 2.53795 0
M  V30 3640 H 333.023 -5.28712 5.63634 0
M  V30 3641 H 331.368 -4.75992 5.06415 0
M  V30 3642 H 334.559 -3.4111 3.20564 0
M  V30 3643 H 334.732 -4.54544 4.61837 0
M  V30 3644 N 328.138 -0.959301 -1.25041 0
M  V30 3645 C 329.086 -0.474437 -2.2771 0
M  V30 3646 C 330.08 0.457697 -1.631 0
M  V30 3647 O 331.286 0.333912 -1.76876 0
M  V30 3648 H 327.661 -0.134936 -0.739795 0
M  V30 3649 H 329.632 -1.35251 -2.65988 0
M  V30 3650 C 328.381 0.227884 -3.46952 0
M  V30 3651 H 327.704 -0.480248 -3.96905 0
M  V30 3652 H 329.144 0.531091 -4.20661 0
M  V30 3653 C 327.603 1.452 -3.04004 0
M  V30 3654 O 328.133 2.54949 -3.10426 0
M  V30 3655 N 326.339 1.31502 -2.59144 0
M  V30 3656 H 325.886 0.422065 -2.54119 0
M  V30 3657 H 325.844 2.13521 -2.30773 0
M  V30 3658 N 329.616 1.39756 -0.72842 0
M  V30 3659 C 330.579 2.29012 -0.0927297 0
M  V30 3660 C 331.579 1.45992 0.674025 0
M  V30 3661 O 332.769 1.66749 0.50402 0
M  V30 3662 C 329.901 3.29396 0.878137 0
M  V30 3663 H 331.094 2.86729 -0.879011 0
M  V30 3664 H 328.647 1.48293 -0.493847 0
M  V30 3665 H 329.382 2.76722 1.69101 0
M  V30 3666 H 329.167 3.907 0.331051 0
M  V30 3667 H 330.657 3.96199 1.3197 0
M  V30 3668 N 331.094 0.475555 1.50254 0
M  V30 3669 C 332.004 -0.321501 2.32387 0
M  V30 3670 C 333.02 -0.991755 1.42969 0
M  V30 3671 O 334.196 -0.978747 1.76018 0
M  V30 3672 C 331.261 -1.38667 3.17762 0
M  V30 3673 C 330.322 -0.732538 4.23004 0
M  V30 3674 C 329.555 -1.74695 5.04299 0
M  V30 3675 O 329.778 -2.97399 4.86734 0
M  V30 3676 O 328.712 -1.31631 5.8733 0
M  V30 3677 H 332.538 0.350071 3.01676 0
M  V30 3678 H 330.123 0.237321 1.47503 0
M  V30 3679 H 332.005 -2.00354 3.70724 0
M  V30 3680 H 330.68 -2.04163 2.51196 0
M  V30 3681 H 329.587 -0.0765902 3.74022 0
M  V30 3682 H 330.92 -0.120452 4.92053 0
M  V30 3683 N 332.573 -1.56217 0.208337 0
M  V30 3684 C 333.819 -1.98242 -0.427552 0
M  V30 3685 C 334.152 -1.09554 -1.60348 0
M  V30 3686 O 333.427 -0.15035 -1.93918 0
M  V30 3687 C 333.71 -3.4931 -0.874907 0
M  V30 3688 C 333.563 -4.48773 0.303751 0
M  V30 3689 C 334.882 -4.04424 -1.73577 0
M  V30 3690 H 332.001 -0.720744 -0.153936 0
M  V30 3691 H 334.643 -1.87586 0.30192 0
M  V30 3692 H 332.793 -3.58522 -1.49648 0
M  V30 3693 H 334.465 -4.51586 0.941682 0
M  V30 3694 H 332.708 -4.23194 0.953375 0
M  V30 3695 H 333.379 -5.51976 -0.0519883 0
M  V30 3696 H 335.855 -3.98075 -1.21143 0
M  V30 3697 H 334.731 -5.1047 -2.01771 0
M  V30 3698 H 334.992 -3.50494 -2.69456 0
M  V30 3699 N 334.051 0.0651679 -1.57465 0
M  V30 3700 C 334.998 1.07675 -2.04144 0
M  V30 3701 C 335.968 1.38071 -0.923335 0
M  V30 3702 O 337.153 1.49026 -1.19146 0
M  V30 3703 C 334.293 2.38337 -2.49579 0
M  V30 3704 C 333.406 2.14413 -3.75035 0
M  V30 3705 C 332.541 3.38686 -4.09225 0
M  V30 3706 C 331.58 3.10156 -5.27702 0
M  V30 3707 N 330.717 4.26778 -5.57499 0
M  V30 3708 H 335.557 0.671716 -2.90331 0
M  V30 3709 H 333.094 0.3201 -1.43575 0
M  V30 3710 H 335.052 3.14632 -2.73975 0
M  V30 3711 H 333.682 2.7663 -1.6636 0
M  V30 3712 H 332.734 1.2878 -3.57939 0
M  V30 3713 H 334.046 1.89344 -4.61466 0
M  V30 3714 H 333.2 4.23373 -4.34558 0
M  V30 3715 H 331.939 3.66837 -3.21374 0
M  V30 3716 H 330.944 2.23866 -5.02159 0
M  V30 3717 H 332.169 2.8332 -6.17176 0
M  V30 3718 H 330.115 4.54948 -4.72608 0
M  V30 3719 H 330.032 4.05005 -6.38362 0
M  V30 3720 H 331.3 5.12443 -5.87386 0
M  V30 3721 N 335.529 1.53961 0.336706 0
M  V30 3722 C 336.945 1.44378 0.680241 0
M  V30 3723 C 337.145 0.606034 1.9217 0
M  V30 3724 O 336.201 0.099688 2.52303 0
M  V30 3725 C 337.514 2.87945 0.8665 0
M  V30 3726 C 339.062 2.97763 0.964682 0
M  V30 3727 C 339.537 4.42453 1.18321 0
M  V30 3728 N 341.028 4.46008 1.25025 0
M  V30 3729 C 341.763 5.55102 1.43697 0
M  V30 3730 N 341.259 6.7419 1.59498 0
M  V30 3731 N 343.052 5.42727 1.463 0
M  V30 3732 H 335.203 2.06918 -0.479455 0
M  V30 3733 H 337.466 0.935634 -0.152619 0
M  V30 3734 H 337.172 3.51691 0.0256937 0
M  V30 3735 H 337.046 3.33293 1.76623 0
M  V30 3736 H 339.433 2.34153 1.796 0
M  V30 3737 H 339.514 2.55766 0.041708 0
M  V30 3738 H 339.158 5.06645 0.356788 0
M  V30 3739 H 339.088 4.82048 2.11985 0
M  V30 3740 H 341.579 3.60196 1.14312 0
M  V30 3741 H 341.892 7.53095 1.734 0
M  V30 3742 H 340.237 6.77123 1.56621 0
M  V30 3743 H 343.428 4.48647 1.33543 0
M  V30 3744 H 343.601 6.27806 1.6051 0
M  V30 3745 N 337.007 -0.598083 1.45811 0
M  V30 3746 C 338.423 -0.919847 1.30426 0
M  V30 3747 C 338.623 -1.99759 0.264303 0
M  V30 3748 O 337.679 -2.50221 -0.338472 0
M  V30 3749 C 338.992 -1.35176 2.68603 0
M  V30 3750 C 340.54 -1.46546 2.76574 0
M  V30 3751 C 341.015 -1.9311 4.15298 0
M  V30 3752 N 342.506 -2.00328 4.1764 0
M  V30 3753 C 343.241 -2.37599 5.21856 0
M  V30 3754 N 342.737 -2.73771 6.36413 0
M  V30 3755 N 344.53 -2.38021 5.09218 0
M  V30 3756 H 336.681 0.114111 2.12093 0
M  V30 3757 H 338.944 -0.0116121 0.947929 0
M  V30 3758 H 338.65 -0.633969 3.45939 0
M  V30 3759 H 338.524 -2.3164 2.97696 0
M  V30 3760 H 340.911 -2.17415 1.99537 0
M  V30 3761 H 340.992 -0.483727 2.51185 0
M  V30 3762 H 340.636 -1.22824 4.92825 0
M  V30 3763 H 340.566 -2.92213 4.38086 0
M  V30 3764 H 343.057 -1.74925 3.34977 0
M  V30 3765 H 343.37 -3.0112 7.11721 0
M  V30 3766 H 341.715 -2.71445 6.39799 0
M  V30 3767 H 344.906 -2.09174 4.18765 0
M  V30 3768 H 345.079 -2.66741 5.90554 0
M  V30 3769 N 338.485 -1.33259 -0.841409 0
M  V30 3770 C 339.448 -1.23221 -1.9326 0
M  V30 3771 C 340.448 -0.151895 -1.60081 0
M  V30 3772 O 341.638 -0.403246 -1.69468 0
M  V30 3773 C 338.77 -0.898123 -3.28856 0
M  V30 3774 H 339.963 -2.2021 -2.03587 0
M  V30 3775 H 337.516 -1.17281 -1.03319 0
M  V30 3776 H 338.251 0.0693841 -3.24226 0
M  V30 3777 H 338.036 -1.67934 -3.54317 0
M  V30 3778 H 339.526 -0.852563 -4.08805 0
M  V30 3779 N 339.963 1.05934 -1.16686 0
M  V30 3780 C 340.893 2.1546 -0.899949 0
M  V30 3781 C 341.874 1.69391 0.155154 0
M  V30 3782 O 343.059 1.94199 0.00648693 0
M  V30 3783 C 340.189 3.44939 -0.404241 0
M  V30 3784 C 339.143 4.04536 -1.39767 0
M  V30 3785 C 338.469 5.29268 -0.760216 0
M  V30 3786 C 339.769 4.42893 -2.76845 0
M  V30 3787 H 341.463 2.38046 -1.81588 0
M  V30 3788 H 339.009 1.14404 -0.874514 0
M  V30 3789 H 340.962 4.20901 -0.204971 0
M  V30 3790 H 339.686 3.21983 0.547206 0
M  V30 3791 H 338.345 3.30635 -1.58355 0
M  V30 3792 H 337.993 5.02611 0.197831 0
M  V30 3793 H 337.693 5.70101 -1.42332 0
M  V30 3794 H 339.217 6.07924 -0.57105 0
M  V30 3795 H 340.631 5.09921 -2.62019 0
M  V30 3796 H 339.028 4.94721 -3.39663 0
M  V30 3797 H 340.098 3.53584 -3.31823 0
M  V30 3798 N 341.441 0.965919 1.2453 0
M  V30 3799 C 342.687 0.637349 1.93156 0
M  V30 3800 C 343.042 -0.818261 1.74133 0
M  V30 3801 O 342.335 -1.58079 1.08266 0
M  V30 3802 C 342.529 0.945428 3.44669 0
M  V30 3803 C 342.358 2.42944 3.78429 0
M  V30 3804 C 341.128 3.08895 3.9989 0
M  V30 3805 C 343.326 3.40941 3.8505 0
M  V30 3806 N 341.308 4.47052 4.20735 0
M  V30 3807 C 342.679 4.64448 4.10717 0
M  V30 3808 C 344.734 3.35624 3.67779 0
M  V30 3809 C 343.437 5.83292 4.20907 0
M  V30 3810 C 345.463 4.53818 3.79214 0
M  V30 3811 C 344.825 5.76114 4.05304 0
M  V30 3812 H 340.924 0.284034 0.728594 0
M  V30 3813 H 343.508 1.24041 1.50073 0
M  V30 3814 H 341.679 0.371193 3.86622 0
M  V30 3815 H 343.411 0.575613 4.00586 0
M  V30 3816 H 340.166 2.59432 3.96222 0
M  V30 3817 H 340.59 5.18634 4.35141 0
M  V30 3818 H 345.232 2.4211 3.46616 0
M  V30 3819 H 342.95 6.77236 4.40883 0
M  V30 3820 H 346.536 4.51263 3.67224 0
M  V30 3821 H 345.416 6.66045 4.13949 0
M  V30 3822 N 342.919 -1.39368 0.735821 0
M  V30 3823 C 343.852 -2.28155 0.0451175 0
M  V30 3824 C 344.83 -1.44433 -0.746852 0
M  V30 3825 O 346.014 -1.73823 -0.729237 0
M  V30 3826 C 343.141 -3.253 -0.943266 0
M  V30 3827 C 342.187 -4.25826 -0.239685 0
M  V30 3828 S 343.02 -5.25166 1.04693 0
M  V30 3829 C 344.176 -6.2587 0.0611639 0
M  V30 3830 H 344.409 -2.86388 0.79807 0
M  V30 3831 H 341.942 -1.45104 0.527653 0
M  V30 3832 H 343.9 -3.81789 -1.50824 0
M  V30 3833 H 342.561 -2.66085 -1.66906 0
M  V30 3834 H 341.754 -4.94229 -0.987596 0
M  V30 3835 H 341.356 -3.73141 0.253274 0
M  V30 3836 H 343.648 -6.73007 -0.778941 0
M  V30 3837 H 344.591 -7.04508 0.712362 0
M  V30 3838 H 344.999 -5.63639 -0.311602 0
M  V30 3839 N 344.397 -0.483516 -1.5 0
M  V30 3840 C 345.643 0.0672592 -2.02688 0
M  V30 3841 C 345.976 1.38247 -1.36387 0
M  V30 3842 O 345.251 1.88131 -0.493675 0
M  V30 3843 C 345.534 0.238109 -3.59312 0
M  V30 3844 C 345.387 -1.099 -4.36168 0
M  V30 3845 C 346.706 0.986916 -4.28892 0
M  V30 3846 H 343.825 0.0229696 -0.736642 0
M  V30 3847 H 346.467 -0.631527 -1.79197 0
M  V30 3848 H 344.617 0.8333 -3.79458 0
M  V30 3849 H 346.289 -1.73172 -4.27562 0
M  V30 3850 H 344.532 -1.69261 -3.99416 0
M  V30 3851 H 345.203 -0.932954 -5.44059 0
M  V30 3852 H 347.679 0.482302 -4.13295 0
M  V30 3853 H 346.555 1.07527 -5.38265 0
M  V30 3854 H 346.816 2.0265 -3.92919 0
M  V30 3855 N 345.875 1.56104 -0.216619 0
M  V30 3856 C 347.115 2.00074 0.418322 0
M  V30 3857 C 347.479 1.10098 1.57297 0
M  V30 3858 O 348.68 1.43393 2.27359 0
M  V30 3859 C 346.951 3.47231 0.846477 0
M  V30 3860 S 348.51 4.13223 1.47622 0
M  V30 3861 H 345.328 0.698457 0.132962 0
M  V30 3862 H 347.93 1.92784 -0.324748 0
M  V30 3863 H 346.634 4.104 -0.0036319 0
M  V30 3864 H 346.165 3.58384 1.62248 0
M  V30 3865 H 348.18 4.12005 2.76526 0
M  V30 3866 N 347.353 -0.0568162 1.57498 0
M  V30 3867 C 348.581 -0.765626 1.92213 0
M  V30 3868 C 348.996 -1.70353 0.813961 0
M  V30 3869 O 348.353 -1.81268 -0.211701 0
M  V30 3870 C 348.404 -1.5465 3.2675 0
M  V30 3871 O 348.125 -0.646278 4.33307 0
M  V30 3872 C 349.626 -2.35497 3.75574 0
M  V30 3873 H 346.846 -0.216835 0.634999 0
M  V30 3874 H 349.39 -0.0226146 2.04487 0
M  V30 3875 H 347.545 -2.24165 3.15957 0
M  V30 3876 H 347.959 -1.19093 5.108 0
M  V30 3877 H 349.433 -2.85722 4.72299 0
M  V30 3878 H 349.91 -3.15692 3.05344 0
M  V30 3879 H 350.516 -1.7111 3.8936 0
M  V30 3880 N 348.832 -1.54138 -0.328536 0
M  V30 3881 C 350.078 -1.7236 -1.06865 0
M  V30 3882 C 350.411 -0.493231 -1.87832 0
M  V30 3883 O 349.686 0.5098 -1.877 0
M  V30 3884 C 349.969 -2.99621 -1.99747 0
M  V30 3885 C 349.822 -4.32899 -1.22143 0
M  V30 3886 C 351.141 -3.22615 -2.99345 0
M  V30 3887 H 348.26 -0.627151 -0.387105 0
M  V30 3888 H 350.902 -1.86827 -0.345767 0
M  V30 3889 H 349.052 -2.87418 -2.61387 0
M  V30 3890 H 350.724 -4.56978 -0.630017 0
M  V30 3891 H 348.967 -4.30628 -0.523628 0
M  V30 3892 H 349.638 -5.18154 -1.90318 0
M  V30 3893 H 352.114 -3.34248 -2.47826 0
M  V30 3894 H 350.99 -4.13027 -3.61524 0
M  V30 3895 H 351.251 -2.3961 -3.71536 0
M  V30 3896 N 350.31 0.590341 -1.46126 0
M  V30 3897 C 351.24 1.71032 -1.58966 0
M  V30 3898 C 352.221 1.64302 -0.440335 0
M  V30 3899 O 353.406 1.82436 -0.665634 0
M  V30 3900 C 350.536 3.09665 -1.57241 0
M  V30 3901 C 349.49 3.31221 -2.71066 0
M  V30 3902 C 348.816 4.70303 -2.54399 0
M  V30 3903 C 350.116 3.19796 -4.1295 0
M  V30 3904 H 351.81 1.60543 -2.52718 0
M  V30 3905 H 349.356 0.770933 -1.21625 0
M  V30 3906 H 351.309 3.87831 -1.64819 0
M  V30 3907 H 350.033 3.21036 -0.600289 0
M  V30 3908 H 348.692 2.55452 -2.62944 0
M  V30 3909 H 348.34 4.78429 -1.55288 0
M  V30 3910 H 348.04 4.85679 -3.30741 0
M  V30 3911 H 349.564 5.50647 -2.63857 0
M  V30 3912 H 350.978 3.87815 -4.22223 0
M  V30 3913 H 349.375 3.46696 -4.89818 0
M  V30 3914 H 350.445 2.16983 -4.33643 0
M  V30 3915 N 351.788 1.33704 0.83433 0
M  V30 3916 C 352.751 1.24244 1.92603 0
M  V30 3917 C 353.751 0.160383 1.59998 0
M  V30 3918 O 354.941 0.412228 1.69252 0
M  V30 3919 C 352.073 0.91555 3.28376 0
M  V30 3920 H 353.266 2.21287 2.02416 0
M  V30 3921 H 350.819 1.17827 1.02696 0
M  V30 3922 H 351.554 -0.0521886 3.24258 0
M  V30 3923 H 351.339 1.69811 3.53422 0
M  V30 3924 H 352.829 0.874231 4.08347 0
M  V30 3925 N 353.266 -1.05314 1.17247 0
M  V30 3926 C 354.512 -1.78557 0.961513 0
M  V30 3927 C 354.845 -1.87419 -0.508697 0
M  V30 3928 O 354.12 -1.37307 -1.37757 0
M  V30 3929 C 354.403 -3.22514 1.60176 0
M  V30 3930 C 354.256 -3.21673 3.14399 0
M  V30 3931 C 355.575 -4.20318 1.30463 0
M  V30 3932 H 352.694 -0.6482 0.350723 0
M  V30 3933 H 355.336 -1.23102 1.44727 0
M  V30 3934 H 353.486 -3.69867 1.18871 0
M  V30 3935 H 355.158 -2.82405 3.64753 0
M  V30 3936 H 353.401 -2.60048 3.47214 0
M  V30 3937 H 354.072 -4.23271 3.54324 0
M  V30 3938 H 356.548 -3.81454 1.66229 0
M  V30 3939 H 355.424 -5.19289 1.77848 0
M  V30 3940 H 355.685 -4.41526 0.22521 0
M  V30 3941 N 354.744 -0.972509 -1.24016 0
M  V30 3942 C 355.991 -0.637034 -1.92219 0
M  V30 3943 C 356.319 0.828418 -1.75976 0
M  V30 3944 O 355.574 1.61206 -1.10955 0
M  V30 3945 C 355.873 -0.963694 -3.44162 0
M  V30 3946 C 355.539 -2.41807 -3.80579 0
M  V30 3947 C 354.201 -2.81556 -3.9023 0
M  V30 3948 C 356.553 -3.36172 -3.98293 0
M  V30 3949 C 353.881 -4.14702 -4.15017 0
M  V30 3950 C 356.233 -4.68952 -4.24578 0
M  V30 3951 C 354.897 -5.08472 -4.32449 0
M  V30 3952 H 354.167 -0.233107 -0.703379 0
M  V30 3953 H 356.814 -1.2249 -1.47202 0
M  V30 3954 H 355.119 -0.29365 -3.90698 0
M  V30 3955 H 356.816 -0.682449 -3.9515 0
M  V30 3956 H 353.406 -2.09988 -3.73635 0
M  V30 3957 H 357.59 -3.06644 -3.90234 0
M  V30 3958 H 352.846 -4.4494 -4.19331 0
M  V30 3959 H 357.02 -5.42037 -4.37229 0
M  V30 3960 H 354.647 -6.11665 -4.51409 0
M  V30 3961 N 356.222 1.38976 -0.743202 0
M  V30 3962 C 357.471 1.99581 -0.291592 0
M  V30 3963 C 357.784 1.59656 1.13001 0
M  V30 3964 O 358.99 2.13157 1.68156 0
M  V30 3965 C 357.446 3.56813 -0.470391 0
M  V30 3966 C 357.054 4.05695 -1.90041 0
M  V30 3967 C 358.798 4.24423 -0.0809709 0
M  V30 3968 C 356.705 5.5553 -2.02832 0
M  V30 3969 H 355.635 0.746615 -0.105272 0
M  V30 3970 H 358.286 1.58872 -0.918258 0
M  V30 3971 H 356.668 3.95359 0.225299 0
M  V30 3972 H 357.842 3.78464 -2.62872 0
M  V30 3973 H 356.157 3.50775 -2.24379 0
M  V30 3974 H 358.754 5.34474 -0.155445 0
M  V30 3975 H 359.097 4.04962 0.96497 0
M  V30 3976 H 359.63 3.9108 -0.728124 0
M  V30 3977 H 356.369 5.79881 -3.05643 0
M  V30 3978 H 355.889 5.84537 -1.34448 0
M  V30 3979 H 357.568 6.21069 -1.81335 0
M  V30 3980 N 357.7 0.491464 1.49741 0
M  V30 3981 C 358.949 -0.0582189 2.01616 0
M  V30 3982 C 359.262 -1.38927 1.3769 0
M  V30 3983 O 360.468 -2.02509 1.80838 0
M  V30 3984 C 358.924 -0.154235 3.59569 0
M  V30 3985 C 358.532 1.1696 4.32463 0
M  V30 3986 C 360.276 -0.65479 4.1942 0
M  V30 3987 C 358.183 1.03627 5.8225 0
M  V30 3988 H 357.113 -0.0255317 0.753568 0
M  V30 3989 H 359.764 0.629445 1.72367 0
M  V30 3990 H 358.146 -0.906138 3.85493 0
M  V30 3991 H 359.32 1.93405 4.18248 0
M  V30 3992 H 357.635 1.60285 3.84315 0
M  V30 3993 H 360.232 -0.771903 5.29099 0
M  V30 3994 H 360.575 -1.65127 3.8215 0
M  V30 3995 H 361.108 0.040304 3.9778 0
M  V30 3996 H 357.847 2.00672 6.24028 0
M  V30 3997 H 357.367 0.312546 5.98985 0
M  V30 3998 H 359.046 0.711114 6.4308 0
M  V30 3999 N 359.178 -1.55987 0.224894 0
M  V30 4000 C 360.418 -2.00293 -0.407706 0
M  V30 4001 C 360.782 -1.1093 -1.56711 0
M  V30 4002 O 361.983 -1.44597 -2.26595 0
M  V30 4003 C 360.254 -3.47675 -0.82805 0
M  V30 4004 S 361.813 -4.14 -1.45429 0
M  V30 4005 H 358.631 -0.699152 -0.129256 0
M  V30 4006 H 361.233 -1.92609 0.334967 0
M  V30 4007 H 359.937 -4.10392 0.0253964 0
M  V30 4008 H 359.468 -3.59239 -1.60345 0
M  V30 4009 H 361.483 -4.13465 -2.74337 0
M  V30 4010 N 360.656 0.0484629 -1.57525 0
M  V30 4011 C 361.903 0.743125 -1.88372 0
M  V30 4012 C 362.231 1.76383 -0.819715 0
M  V30 4013 O 361.486 1.94855 0.181659 0
M  V30 4014 C 361.785 1.46632 -3.25935 0
M  V30 4015 C 361.451 0.583427 -4.4711 0
M  V30 4016 C 360.113 0.340191 -4.79996 0
M  V30 4017 C 362.465 -0.0273345 -5.21193 0
M  V30 4018 C 359.793 -0.522903 -5.84365 0
M  V30 4019 C 362.145 -0.878017 -6.26477 0
M  V30 4020 C 360.809 -1.1309 -6.5785 0
M  V30 4021 H 360.079 0.271929 -0.689301 0
M  V30 4022 H 362.726 0.00336166 -1.915 0
M  V30 4023 H 361.031 2.2789 -3.18706 0
M  V30 4024 H 362.728 2.00902 -3.47044 0
M  V30 4025 H 359.318 0.783151 -4.21384 0
M  V30 4026 H 363.502 0.147654 -4.9608 0
M  V30 4027 H 358.758 -0.727335 -6.07058 0
M  V30 4028 H 362.932 -1.35789 -6.83033 0
M  V30 4029 H 360.559 -1.80144 -7.38547 0
M  V30 4030 N 362.134 1.5431 0.320358 0
M  V30 4031 C 363.38 1.72924 1.05949 0
M  V30 4032 C 363.713 0.503185 1.87568 0
M  V30 4033 O 362.988 -0.499839 1.87968 0
M  V30 4034 C 363.271 3.00676 1.98156 0
M  V30 4035 C 363.124 4.3354 1.19845 0
M  V30 4036 C 364.443 3.24198 2.9763 0
M  V30 4037 H 361.562 0.629195 0.383774 0
M  V30 4038 H 364.204 1.87008 0.335854 0
M  V30 4039 H 362.354 2.888 2.59859 0
M  V30 4040 H 364.026 4.57305 0.605773 0
M  V30 4041 H 362.269 4.309 0.500784 0
M  V30 4042 H 362.94 5.19156 1.87567 0
M  V30 4043 H 365.416 3.35557 2.4605 0
M  V30 4044 H 364.292 4.14938 3.59329 0
M  V30 4045 H 364.553 2.41577 3.7026 0
M  V30 4046 N 363.613 -0.582584 1.46437 0
M  V30 4047 C 365.024 -1.1647 1.45916 0
M  V30 4048 C 365.375 -1.95177 0.200077 0
M  V30 4049 O 364.5 -2.04874 -0.696819 0
M  V30 4050 C 365.095 -2.11885 2.64367 0
M  V30 4051 C 363.654 -2.65421 2.66887 0
M  V30 4052 C 362.801 -1.41294 2.38603 0
M  V30 4053 H 365.752 -0.370514 1.54314 0
M  V30 4054 H 365.773 -2.9535 2.39892 0
M  V30 4055 H 365.285 -1.54573 3.5599 0
M  V30 4056 H 363.386 -3.26602 1.79338 0
M  V30 4057 H 363.499 -3.08147 3.66854 0
M  V30 4058 H 361.863 -1.71109 1.88663 0
M  V30 4059 H 362.646 -0.858125 3.32402 0
M  V30 4060 N 365.091 -1.34144 -0.827227 0
M  V30 4061 C 366.041 -1.21923 -1.92663 0
M  V30 4062 C 367.025 -0.119294 -1.60457 0
M  V30 4063 O 368.217 -0.348539 -1.73534 0
M  V30 4064 C 365.346 -0.972492 -3.29238 0
M  V30 4065 C 364.432 -2.1154 -3.67576 0
M  V30 4066 N 364.823 -3.36627 -3.77512 0
M  V30 4067 C 363.121 -2.02468 -3.97395 0
M  V30 4068 C 363.822 -4.11658 -4.1099 0
M  V30 4069 N 362.798 -3.40207 -4.23981 0
M  V30 4070 H 366.6 -2.16721 -1.98517 0
M  V30 4071 H 364.114 -1.2632 -1.02064 0
M  V30 4072 H 366.111 -0.865847 -4.0781 0
M  V30 4073 H 364.771 -0.0331509 -3.24683 0
M  V30 4074 H 365.782 -3.71234 -3.61118 0
M  V30 4075 H 362.459 -1.16265 -4.00985 0
M  V30 4076 H 363.849 -5.19657 -4.25918 0
M  V30 4077 N 366.569 1.04691 -1.17803 0
M  V30 4078 C 367.519 2.10856 -0.867391 0
M  V30 4079 C 368.503 1.601 0.160206 0
M  V30 4080 O 369.695 1.76948 -0.042947 0
M  V30 4081 C 366.824 3.411 -0.388012 0
M  V30 4082 C 365.91 3.9864 -1.44732 0
M  V30 4083 N 366.301 4.30075 -2.66212 0
M  V30 4084 C 364.599 4.26439 -1.30637 0
M  V30 4085 C 365.3 4.76033 -3.34317 0
M  V30 4086 N 364.276 4.76462 -2.61696 0
M  V30 4087 H 368.078 2.33029 -1.79094 0
M  V30 4088 H 365.592 1.22386 -1.0675 0
M  V30 4089 H 367.589 4.16641 -0.146994 0
M  V30 4090 H 366.249 3.20357 0.529271 0
M  V30 4091 H 367.26 4.19917 -3.03134 0
M  V30 4092 H 363.937 4.15056 -0.451129 0
M  V30 4093 H 365.327 5.09427 -4.38103 0
M  V30 4094 N 368.047 0.979072 1.23499 0
M  V30 4095 C 369.293 0.648178 1.92163 0
M  V30 4096 C 369.626 -0.816049 1.76222 0
M  V30 4097 O 368.901 -1.58849 1.12237 0
M  V30 4098 C 369.184 1.03773 3.44824 0
M  V30 4099 C 369.037 2.55948 3.69879 0
M  V30 4100 C 370.356 0.580653 4.36253 0
M  V30 4101 H 367.475 0.236952 0.69787 0
M  V30 4102 H 370.117 1.22012 1.45647 0
M  V30 4103 H 368.267 0.551058 3.84572 0
M  V30 4104 H 369.939 3.12179 3.3962 0
M  V30 4105 H 368.182 2.98641 3.14636 0
M  V30 4106 H 368.853 2.78255 4.76737 0
M  V30 4107 H 371.329 0.998465 4.03943 0
M  V30 4108 H 370.205 0.881663 5.41773 0
M  V30 4109 H 370.466 -0.519052 4.39042 0
M  V30 4110 N 369.525 -1.3858 0.750561 0
M  V30 4111 C 370.771 -2.00481 0.305825 0
M  V30 4112 C 371.104 -1.5944 -1.10872 0
M  V30 4113 O 370.379 -0.83052 -1.75877 0
M  V30 4114 C 370.662 -3.5758 0.425287 0
M  V30 4115 C 370.515 -4.08594 1.88072 0
M  V30 4116 C 371.834 -4.39719 -0.183122 0
M  V30 4117 H 368.953 -0.728348 0.112598 0
M  V30 4118 H 371.595 -1.64566 0.949638 0
M  V30 4119 H 369.745 -3.88306 -0.122828 0
M  V30 4120 H 371.417 -3.88523 2.48691 0
M  V30 4121 H 369.66 -3.61574 2.39681 0
M  V30 4122 H 370.331 -5.177 1.91548 0
M  V30 4123 H 372.807 -4.15128 0.284303 0
M  V30 4124 H 371.683 -5.48856 -0.0692757 0
M  V30 4125 H 371.944 -4.23434 -1.27106 0
M  V30 4126 N 371.003 -0.499398 -1.49478 0
M  V30 4127 C 371.935 0.316575 -2.27003 0
M  V30 4128 C 372.948 0.932047 -1.33479 0
M  V30 4129 O 374.137 0.815658 -1.58774 0
M  V30 4130 C 371.237 1.46055 -3.05812 0
M  V30 4131 C 370.41 0.952679 -4.26899 0
M  V30 4132 C 369.469 1.97407 -4.87767 0
M  V30 4133 O 368.495 1.54326 -5.4788 0
M  V30 4134 N 369.697 3.30436 -4.77276 0
M  V30 4135 H 372.462 -0.348168 -2.97671 0
M  V30 4136 H 370.023 -0.33185 -1.58463 0
M  V30 4137 H 372.015 2.14135 -3.43407 0
M  V30 4138 H 370.585 2.02948 -2.37762 0
M  V30 4139 H 369.805 0.0968248 -3.94081 0
M  V30 4140 H 371.093 0.59174 -5.05347 0
M  V30 4141 H 370.491 3.68126 -4.29534 0
M  V30 4142 H 369.048 3.94235 -5.19059 0
M  V30 4143 N 372.481 1.55866 -0.233164 0
M  V30 4144 C 373.411 2.23783 0.666599 0
M  V30 4145 C 374.392 1.21343 1.19205 0
M  V30 4146 O 375.577 1.4996 1.23392 0
M  V30 4147 C 372.707 2.92671 1.86978 0
M  V30 4148 C 371.661 4.01682 1.47768 0
M  V30 4149 C 370.987 4.57926 2.76058 0
M  V30 4150 C 372.287 5.18126 0.658993 0
M  V30 4151 H 373.981 2.99232 0.100306 0
M  V30 4152 H 371.527 1.43924 0.046804 0
M  V30 4153 H 373.48 3.3888 2.50476 0
M  V30 4154 H 372.204 2.14688 2.46123 0
M  V30 4155 H 370.863 3.56222 0.866106 0
M  V30 4156 H 370.511 3.76659 3.33372 0
M  V30 4157 H 370.211 5.31505 2.50552 0
M  V30 4158 H 371.735 5.06859 3.40479 0
M  V30 4159 H 373.149 5.60644 1.19795 0
M  V30 4160 H 371.546 5.98009 0.500552 0
M  V30 4161 H 372.616 4.83763 -0.331856 0
M  V30 4162 N 373.959 -0.0401083 1.57549 0
M  V30 4163 C 375.37 -0.588097 1.77196 0
M  V30 4164 C 375.721 -1.76209 0.862832 0
M  V30 4165 O 374.846 -2.16331 0.0548389 0
M  V30 4166 C 375.441 -1.07363 3.21339 0
M  V30 4167 C 374 -1.56723 3.42221 0
M  V30 4168 C 373.147 -0.50041 2.72747 0
M  V30 4169 H 376.098 0.186119 1.57605 0
M  V30 4170 H 376.119 -1.94143 3.27244 0
M  V30 4171 H 375.631 -0.218975 3.87482 0
M  V30 4172 H 373.732 -2.4441 2.81237 0
M  V30 4173 H 373.845 -1.62234 4.50796 0
M  V30 4174 H 372.209 -0.952894 2.36203 0
M  V30 4175 H 372.992 0.344599 3.41566 0
M  V30 4176 N 375.437 -1.54477 -0.31217 0
M  V30 4177 C 376.683 -1.74417 -1.04644 0
M  V30 4178 C 377.038 -0.517641 -1.85306 0
M  V30 4179 O 376.331 0.489973 -1.85229 0
M  V30 4180 C 376.525 -2.967 -1.99258 0
M  V30 4181 C 376.354 -4.31128 -1.27901 0
M  V30 4182 C 375.124 -4.95087 -1.01079 0
M  V30 4183 C 377.322 -5.09662 -0.689119 0
M  V30 4184 N 375.304 -6.13322 -0.266323 0
M  V30 4185 C 376.675 -6.19952 -0.0768523 0
M  V30 4186 C 378.73 -4.94355 -0.593061 0
M  V30 4187 C 377.433 -7.16604 0.622165 0
M  V30 4188 C 379.459 -5.91328 0.0922792 0
M  V30 4189 C 378.821 -7.00978 0.693443 0
M  V30 4190 H 374.92 -0.69094 -0.366231 0
M  V30 4191 H 377.504 -1.91946 -0.326319 0
M  V30 4192 H 375.675 -2.80616 -2.68532 0
M  V30 4193 H 377.407 -3.05216 -2.65755 0
M  V30 4194 H 374.162 -4.55235 -1.30607 0
M  V30 4195 H 374.586 -6.76937 0.0920973 0
M  V30 4196 H 379.228 -4.09719 -1.04355 0
M  V30 4197 H 376.946 -8.0079 1.08445 0
M  V30 4198 H 380.532 -5.81562 0.166396 0
M  V30 4199 H 379.412 -7.74725 1.21533 0
M  V30 4200 N 376.915 0.57481 -1.46744 0
M  V30 4201 C 378.143 1.35856 -1.56047 0
M  V30 4202 C 378.558 1.87691 -0.204365 0
M  V30 4203 O 377.915 1.64049 0.79963 0
M  V30 4204 C 377.966 2.54066 -2.57163 0
M  V30 4205 O 377.687 2.04377 -3.87507 0
M  V30 4206 C 379.188 3.46514 -2.76483 0
M  V30 4207 H 376.408 0.414754 -0.527466 0
M  V30 4208 H 378.952 0.698035 -1.92218 0
M  V30 4209 H 377.107 3.16092 -2.23974 0
M  V30 4210 H 377.521 2.81419 -4.4261 0
M  V30 4211 H 378.995 4.25919 -3.51137 0
M  V30 4212 H 379.472 3.98951 -1.83671 0
M  V30 4213 H 380.078 2.90318 -3.10799 0
M  V30 4214 N 378.394 1.34581 0.820102 0
M  V30 4215 C 379.324 1.29038 1.94606 0
M  V30 4216 C 380.305 0.1673 1.69275 0
M  V30 4217 O 381.49 0.360112 1.90832 0
M  V30 4218 C 378.62 1.04793 3.31113 0
M  V30 4219 C 377.574 2.13597 3.70891 0
M  V30 4220 C 376.9 1.74537 5.05412 0
M  V30 4221 C 378.2 3.55451 3.8269 0
M  V30 4222 H 379.894 2.23248 1.99501 0
M  V30 4223 H 377.44 1.0747 0.958449 0
M  V30 4224 H 379.393 0.995592 4.0947 0
M  V30 4225 H 378.117 0.0702565 3.26524 0
M  V30 4226 H 376.776 2.17905 2.9481 0
M  V30 4227 H 376.424 0.754226 4.97313 0
M  V30 4228 H 376.124 2.47361 5.32997 0
M  V30 4229 H 377.648 1.70803 5.86224 0
M  V30 4230 H 379.062 3.5354 4.51312 0
M  V30 4231 H 377.459 4.26922 4.21732 0
M  V30 4232 H 378.529 3.92587 2.84611 0
M  V30 4233 N 379.872 -1.04064 1.18357 0
M  V30 4234 C 380.835 -2.10243 0.912707 0
M  V30 4235 C 381.835 -1.60477 -0.101928 0
M  V30 4236 O 383.025 -1.73703 0.131517 0
M  V30 4237 C 380.157 -3.38893 0.369387 0
M  V30 4238 H 381.35 -2.35706 1.85426 0
M  V30 4239 H 378.903 -1.20489 0.995594 0
M  V30 4240 H 379.638 -3.19094 -0.578776 0
M  V30 4241 H 379.423 -3.76331 1.1008 0
M  V30 4242 H 380.913 -4.17128 0.198575 0
M  V30 4243 N 381.35 -0.985608 -1.22978 0
M  V30 4244 C 382.26 -0.538548 -2.28335 0
M  V30 4245 C 383.276 0.409163 -1.69121 0
M  V30 4246 O 384.452 0.277797 -1.99475 0
M  V30 4247 C 381.517 0.146867 -3.46389 0
M  V30 4248 C 380.578 -0.842896 -4.20944 0
M  V30 4249 C 379.811 -0.190095 -5.33361 0
M  V30 4250 O 380.034 1.01767 -5.61248 0
M  V30 4251 O 378.968 -0.891289 -5.95264 0
M  V30 4252 H 382.794 -1.41487 -2.68729 0
M  V30 4253 H 380.379 -0.753495 -1.29007 0
M  V30 4254 H 382.261 0.531125 -4.1804 0
M  V30 4255 H 380.936 0.997871 -3.07935 0
M  V30 4256 H 379.843 -1.27795 -3.51595 0
M  V30 4257 H 381.176 -1.66287 -4.6326 0
M  V30 4258 N 382.828 1.3818 -0.7579 0
M  V30 4259 C 383.758 2.33027 -0.148597 0
M  V30 4260 C 384.739 1.55085 0.69875 0
M  V30 4261 O 385.924 1.83384 0.639053 0
M  V30 4262 C 383.054 3.3928 0.742034 0
M  V30 4263 C 382.008 4.28 -0.00291946 0
M  V30 4264 C 381.334 5.25146 1.00625 0
M  V30 4265 C 382.634 5.08938 -1.17385 0
M  V30 4266 H 384.328 2.84231 -0.940909 0
M  V30 4267 H 381.874 1.36659 -0.453908 0
M  V30 4268 H 383.827 4.046 1.17799 0
M  V30 4269 H 382.551 2.86569 1.56671 0
M  V30 4270 H 381.21 3.64192 -0.419504 0
M  V30 4271 H 380.858 4.68721 1.8251 0
M  V30 4272 H 380.558 5.85361 0.512428 0
M  V30 4273 H 382.082 5.93342 1.44143 0
M  V30 4274 H 383.496 5.67474 -0.815224 0
M  V30 4275 H 381.893 5.7841 -1.59882 0
M  V30 4276 H 382.963 4.42424 -1.98468 0
M  V30 4277 N 384.306 0.507319 1.49211 0
M  V30 4278 C 385.554 -0.0348839 2.0207 0
M  V30 4279 C 385.875 -1.36898 1.38866 0
M  V30 4280 O 385.145 -1.88133 0.546151 0
M  V30 4281 H 383.725 -0.0158812 0.746831 0
M  V30 4282 H 386.387 0.665998 1.83168 0
M  V30 4283 H 385.483 -0.159917 3.1169 0
M  V30 4284 N 385.784 -1.5574 0.241426 0
M  V30 4285 C 387.031 -1.9881 -0.384836 0
M  V30 4286 C 387.359 -1.12947 -1.58346 0
M  V30 4287 O 386.614 -0.178993 -1.9488 0
M  V30 4288 C 386.913 -3.47308 -0.843317 0
M  V30 4289 C 386.579 -4.50223 0.246946 0
M  V30 4290 C 385.241 -4.78088 0.546399 0
M  V30 4291 C 387.593 -5.11841 0.983282 0
M  V30 4292 C 384.921 -5.64846 1.58636 0
M  V30 4293 C 387.273 -5.99727 2.01272 0
M  V30 4294 C 385.937 -6.25927 2.31888 0
M  V30 4295 H 385.207 -0.727496 -0.140821 0
M  V30 4296 H 387.854 -1.8831 0.348106 0
M  V30 4297 H 386.159 -3.55112 -1.65537 0
M  V30 4298 H 387.856 -3.78017 -1.33806 0
M  V30 4299 H 384.446 -4.286 0.00340639 0
M  V30 4300 H 388.63 -4.90366 0.765182 0
M  V30 4301 H 383.886 -5.83403 1.82896 0
M  V30 4302 H 388.06 -6.46517 2.58823 0
M  V30 4303 H 385.687 -6.92949 3.12611 0
M  V30 4304 N 387.262 0.0317525 -1.57568 0
M  V30 4305 C 388.194 1.06073 -2.03178 0
M  V30 4306 C 389.207 1.32627 -0.944132 0
M  V30 4307 O 390.396 1.30162 -1.22148 0
M  V30 4308 C 387.496 2.40297 -2.38978 0
M  V30 4309 C 386.669 2.33137 -3.70089 0
M  V30 4310 C 385.728 3.49787 -3.9311 0
M  V30 4311 O 384.754 3.29403 -4.64201 0
M  V30 4312 N 385.956 4.71562 -3.38541 0
M  V30 4313 H 388.721 0.672006 -2.92069 0
M  V30 4314 H 386.282 0.219745 -1.60402 0
M  V30 4315 H 388.274 3.1705 -2.51518 0
M  V30 4316 H 386.844 2.71024 -1.55771 0
M  V30 4317 H 386.064 1.415 -3.67928 0
M  V30 4318 H 387.352 2.25493 -4.56104 0
M  V30 4319 H 386.75 4.91024 -2.80912 0
M  V30 4320 H 385.307 5.45689 -3.56464 0
M  V30 4321 N 388.74 1.54641 0.303973 0
M  V30 4322 C 390.017 1.64455 1.05896 0
M  V30 4323 C 390.397 0.490923 2.05312 0
M  V30 4324 O 389.745 -0.512685 2.22674 0
M  V30 4325 C 389.955 3.02331 1.74347 0
M  V30 4326 C 391.303 3.59045 2.26653 0
M  V30 4327 O 392.327 3.04764 1.84384 0
M  V30 4328 O 391.186 4.54081 3.04093 0
M  V30 4329 H 388.28 0.666729 0.489287 0
M  V30 4330 H 390.826 1.66986 0.302298 0
M  V30 4331 H 389.598 3.77734 1.02142 0
M  V30 4332 H 389.221 3.03565 2.56777 0
M  V30 4333 N 390.218 -0.567019 1.47046 0
M  V30 4334 C 391.443 -1.3551 1.57009 0
M  V30 4335 C 391.868 -1.86841 0.217259 0
M  V30 4336 O 391.226 -1.62435 -0.805268 0
M  V30 4337 C 391.274 -2.50777 2.5912 0
M  V30 4338 O 390.378 -3.52706 2.13711 0
M  V30 4339 H 389.719 -0.402919 0.52778 0
M  V30 4340 H 392.249 -0.686241 1.92748 0
M  V30 4341 H 392.259 -2.97481 2.79229 0
M  V30 4342 H 390.934 -2.12771 3.57353 0
M  V30 4343 H 389.511 -3.12374 2.03659 0
M  V30 4344 N 391.696 -1.35014 -0.812953 0
M  V30 4345 C 392.643 -1.27412 -1.92444 0
M  V30 4346 C 393.613 -0.14733 -1.65445 0
M  V30 4347 O 394.798 -0.329974 -1.87925 0
M  V30 4348 C 391.938 -1.04558 -3.28879 0
M  V30 4349 C 391.051 -2.26101 -3.68106 0
M  V30 4350 C 390.186 -1.96449 -4.9354 0
M  V30 4351 C 389.225 -3.14081 -5.25376 0
M  V30 4352 N 388.362 -2.84246 -6.41988 0
M  V30 4353 H 393.202 -2.22463 -1.98278 0
M  V30 4354 H 390.739 -1.10593 -0.969933 0
M  V30 4355 H 392.697 -0.893413 -4.07522 0
M  V30 4356 H 391.327 -0.131719 -3.22531 0
M  V30 4357 H 390.379 -2.52204 -2.84775 0
M  V30 4358 H 391.691 -3.13959 -3.87597 0
M  V30 4359 H 390.845 -1.78026 -5.79993 0
M  V30 4360 H 389.584 -1.05867 -4.76071 0
M  V30 4361 H 388.589 -3.33089 -4.37415 0
M  V30 4362 H 389.814 -4.05455 -5.44778 0
M  V30 4363 H 387.76 -1.96252 -6.25956 0
M  V30 4364 H 387.677 -3.65637 -6.61699 0
M  V30 4365 H 388.945 -2.6935 -7.31485 0
M  V30 4366 N 393.175 1.03435 -1.18907 0
M  V30 4367 C 394.422 1.76743 -0.988334 0
M  V30 4368 C 394.75 1.88447 0.481441 0
M  V30 4369 O 394.005 1.39383 1.37371 0
M  V30 4370 C 394.304 3.19792 -1.59586 0
M  V30 4371 C 393.97 3.28108 -3.09283 0
M  V30 4372 C 392.632 3.30084 -3.5014 0
M  V30 4373 C 394.984 3.27696 -4.05296 0
M  V30 4374 C 392.312 3.29299 -4.85571 0
M  V30 4375 C 394.664 3.28451 -5.4065 0
M  V30 4376 C 393.328 3.28723 -5.80946 0
M  V30 4377 H 392.598 0.64675 -0.361657 0
M  V30 4378 H 395.245 1.21442 -1.48068 0
M  V30 4379 H 393.55 3.78136 -1.02568 0
M  V30 4380 H 395.247 3.75171 -1.41589 0
M  V30 4381 H 391.837 3.27294 -2.76725 0
M  V30 4382 H 396.021 3.25354 -3.74778 0
M  V30 4383 H 391.277 3.2783 -5.16079 0
M  V30 4384 H 395.451 3.27082 -6.14809 0
M  V30 4385 H 393.078 3.27868 -6.85862 0
M  V30 4386 N 394.653 0.992116 1.22453 0
M  V30 4387 C 395.603 0.512969 2.22155 0
M  V30 4388 C 396.587 -0.418416 1.55364 0
M  V30 4389 O 397.779 -0.245363 1.75291 0
M  V30 4390 C 394.908 -0.171822 3.4287 0
M  V30 4391 C 393.994 0.779822 4.16869 0
M  V30 4392 N 394.385 1.92734 4.6764 0
M  V30 4393 C 392.683 0.59554 4.42006 0
M  V30 4394 C 393.384 2.52458 5.24061 0
M  V30 4395 N 392.36 1.80735 5.12675 0
M  V30 4396 H 396.162 1.38817 2.5905 0
M  V30 4397 H 393.676 0.854277 1.38115 0
M  V30 4398 H 395.673 -0.532469 4.13486 0
M  V30 4399 H 394.333 -1.04317 3.07487 0
M  V30 4400 H 395.344 2.30816 4.63621 0
M  V30 4401 H 392.021 -0.229805 4.16867 0
M  V30 4402 H 393.411 3.49433 5.73887 0
M  V30 4403 N 396.131 -1.37776 0.765217 0
M  V30 4404 C 397.063 -2.28958 0.105361 0
M  V30 4405 C 398.076 -1.48316 -0.67128 0
M  V30 4406 O 399.265 -1.71046 -0.51045 0
M  V30 4407 C 396.365 -3.27421 -0.874569 0
M  V30 4408 C 395.538 -4.37132 -0.153123 0
M  V30 4409 C 394.597 -5.1571 -1.04547 0
M  V30 4410 O 393.623 -5.66896 -0.511672 0
M  V30 4411 N 394.825 -5.29808 -2.37243 0
M  V30 4412 H 397.59 -2.86227 0.888495 0
M  V30 4413 H 395.151 -1.49682 0.617 0
M  V30 4414 H 397.143 -3.7687 -1.47483 0
M  V30 4415 H 395.713 -2.70967 -1.55871 0
M  V30 4416 H 394.933 -3.89166 0.627975 0
M  V30 4417 H 396.221 -5.07625 0.345643 0
M  V30 4418 H 395.619 -4.89793 -2.83054 0
M  V30 4419 H 394.176 -5.82589 -2.9229 0
M  V30 4420 N 397.609 -0.515225 -1.4894 0
M  V30 4421 C 398.572 0.244681 -2.2789 0
M  V30 4422 C 399.572 0.881166 -1.34507 0
M  V30 4423 O 400.762 0.743497 -1.57537 0
M  V30 4424 C 397.894 1.35247 -3.12923 0
M  V30 4425 H 399.087 -0.448289 -2.96531 0
M  V30 4426 H 396.64 -0.270656 -1.53939 0
M  V30 4427 H 397.375 2.07916 -2.48881 0
M  V30 4428 H 397.16 0.901374 -3.81599 0
M  V30 4429 H 398.65 1.88737 -3.72516 0
M  V30 4430 N 399.087 1.5561 -0.249682 0
M  V30 4431 C 400.336 1.98187 0.37479 0
M  V30 4432 C 400.649 1.14111 1.58865 0
M  V30 4433 O 401.855 1.46714 2.28445 0
M  V30 4434 C 400.311 3.52661 0.718192 0
M  V30 4435 C 399.919 4.45481 -0.474428 0
M  V30 4436 C 401.663 4.03888 1.3067 0
M  V30 4437 C 399.57 5.91303 -0.107026 0
M  V30 4438 H 398.5 0.740159 0.143808 0
M  V30 4439 H 401.151 1.80125 -0.350336 0
M  V30 4440 H 399.533 3.66429 1.50152 0
M  V30 4441 H 400.707 4.43473 -1.25172 0
M  V30 4442 H 399.022 4.04751 -0.978052 0
M  V30 4443 H 401.619 5.10358 1.59496 0
M  V30 4444 H 401.962 3.51401 2.23211 0
M  V30 4445 H 402.495 3.93457 0.586211 0
M  V30 4446 H 399.234 6.47833 -0.999642 0
M  V30 4447 H 398.754 5.9644 0.634013 0
M  V30 4448 H 400.433 6.46258 0.309807 0
M  V30 4449 N 400.565 -0.0233959 1.57583 0
M  V30 4450 C 401.513 -1.04063 2.08023 0
M  V30 4451 C 402.507 -1.37084 0.995204 0
M  V30 4452 O 403.713 -1.35923 1.18004 0
M  V30 4453 H 400.088 -0.353144 0.663922 0
M  V30 4454 H 402.059 -0.589453 2.9252 0
M  V30 4455 C 400.808 -2.33123 2.57971 0
M  V30 4456 H 400.131 -2.08577 3.4108 0
M  V30 4457 H 401.571 -3.02632 2.96967 0
M  V30 4458 C 400.03 -3.02483 1.48342 0
M  V30 4459 O 400.56 -3.92541 0.852898 0
M  V30 4460 N 398.766 -2.63909 1.21658 0
M  V30 4461 H 398.313 -1.90758 1.73116 0
M  V30 4462 H 398.271 -3.10633 0.485218 0
M  V30 4463 N 402.043 -1.548 -0.295768 0
M  V30 4464 C 403.32 -1.65014 -1.05023 0
M  V30 4465 C 403.7 -0.501805 -2.05049 0
M  V30 4466 O 403.048 0.500869 -2.22943 0
M  V30 4467 C 403.258 -3.03252 -1.72741 0
M  V30 4468 C 404.606 -3.60242 -2.24746 0
M  V30 4469 O 405.63 -3.05737 -1.82765 0
M  V30 4470 O 404.489 -4.55687 -3.01681 0
M  V30 4471 H 401.583 -0.669314 -0.485744 0
M  V30 4472 H 404.129 -1.67144 -0.293438 0
M  V30 4473 H 402.901 -3.7827 -1.00138 0
M  V30 4474 H 402.524 -3.04922 -2.55163 0
M  V30 4475 N 403.521 0.559213 -1.47345 0
M  V30 4476 C 404.484 1.64854 -1.59235 0
M  V30 4477 C 405.484 1.53851 -0.467607 0
M  V30 4478 O 406.674 1.58045 -0.732617 0
M  V30 4479 C 403.806 3.04388 -1.53496 0
M  V30 4480 H 404.999 1.55662 -2.56339 0
M  V30 4481 H 402.552 0.778973 -1.35505 0
M  V30 4482 H 403.287 3.19115 -0.577604 0
M  V30 4483 H 403.072 3.13783 -2.35123 0
M  V30 4484 H 404.562 3.83642 -1.6495 0
M  V30 4485 N 404.999 1.35443 0.805782 0
M  V30 4486 C 405.949 1.24972 1.90699 0
M  V30 4487 C 406.933 0.144806 1.60247 0
M  V30 4488 O 408.125 0.376102 1.72958 0
M  V30 4489 C 405.254 1.02475 3.27649 0
M  V30 4490 C 404.34 2.17361 3.64164 0
M  V30 4491 N 404.731 3.42591 3.72109 0
M  V30 4492 C 403.029 2.08765 3.94123 0
M  V30 4493 C 403.73 4.18144 4.04389 0
M  V30 4494 N 402.706 3.4691 4.18515 0
M  V30 4495 H 406.508 2.19852 1.95044 0
M  V30 4496 H 404.022 1.27928 1.00041 0
M  V30 4497 H 406.019 0.930617 4.06381 0
M  V30 4498 H 404.679 0.0848009 3.24589 0
M  V30 4499 H 405.69 3.76932 3.55166 0
M  V30 4500 H 402.367 1.22629 3.99084 0
M  V30 4501 H 403.757 5.26367 4.17597 0
M  V30 4502 N 406.477 -1.02803 1.19454 0
M  V30 4503 C 407.409 -2.11181 0.890807 0
M  V30 4504 C 408.422 -1.6238 -0.116829 0
M  V30 4505 O 409.611 -1.78144 0.112694 0
M  V30 4506 C 406.711 -3.37461 0.311942 0
M  V30 4507 C 405.884 -4.15446 1.36834 0
M  V30 4508 C 404.943 -5.20039 0.802864 0
M  V30 4509 O 403.969 -5.49602 1.48077 0
M  V30 4510 N 405.171 -5.79165 -0.393417 0
M  V30 4511 H 407.936 -2.37827 1.82369 0
M  V30 4512 H 405.497 -1.19101 1.09666 0
M  V30 4513 H 407.489 -4.0462 -0.0802225 0
M  V30 4514 H 406.059 -3.08156 -0.52524 0
M  V30 4515 H 405.279 -3.43423 1.93531 0
M  V30 4516 H 406.567 -4.64335 2.08015 0
M  V30 4517 H 405.965 -5.57466 -0.961658 0
M  V30 4518 H 404.522 -6.47729 -0.727351 0
M  V30 4519 N 407.956 -0.998596 -1.21925 0
M  V30 4520 C 409.202 -0.678667 -1.91107 0
M  V30 4521 C 409.535 0.78791 -1.77498 0
M  V30 4522 O 408.81 1.57043 -1.1475 0
M  V30 4523 C 409.093 -1.09245 -3.43129 0
M  V30 4524 C 408.946 -2.61801 -3.6576 0
M  V30 4525 C 410.265 -0.649984 -4.35274 0
M  V30 4526 H 407.384 -0.248025 -0.694012 0
M  V30 4527 H 410.026 -1.24314 -1.43688 0
M  V30 4528 H 408.176 -0.612171 -3.83647 0
M  V30 4529 H 409.848 -3.17543 -3.34611 0
M  V30 4530 H 408.091 -3.03609 -3.09845 0
M  V30 4531 H 408.762 -2.85804 -4.7225 0
M  V30 4532 H 411.238 -1.0626 -4.02303 0
M  V30 4533 H 410.114 -0.967743 -5.40302 0
M  V30 4534 H 410.375 0.449139 -4.39813 0
M  V30 4535 N 409.434 1.37368 -0.772513 0
M  V30 4536 C 410.662 2.03942 -0.348588 0
M  V30 4537 C 411.077 1.58264 1.02947 0
M  V30 4538 O 410.434 0.764246 1.65727 0
M  V30 4539 C 410.485 3.5946 -0.38351 0
M  V30 4540 O 410.206 4.03468 -1.70721 0
M  V30 4541 C 411.707 4.4327 0.0519152 0
M  V30 4542 H 408.927 0.654931 -0.145966 0
M  V30 4543 H 411.471 1.75686 -1.04665 0
M  V30 4544 H 409.626 3.86486 0.265978 0
M  V30 4545 H 410.04 4.97991 -1.64636 0
M  V30 4546 H 411.514 5.51995 -0.0236733 0
M  V30 4547 H 411.991 4.2514 1.10238 0
M  V30 4548 H 412.597 4.21471 -0.569415 0
M  V30 4549 N 410.912 0.523116 1.48665 0
M  V30 4550 C 411.842 -0.23231 2.32342 0
M  V30 4551 C 412.823 -0.941637 1.41659 0
M  V30 4552 O 414.008 -0.928751 1.70552 0
M  V30 4553 C 411.138 -1.28387 3.22698 0
M  V30 4554 C 410.092 -0.693098 4.22351 0
M  V30 4555 C 409.418 -1.8468 5.01794 0
M  V30 4556 C 410.718 0.33063 5.21252 0
M  V30 4557 H 412.412 0.466192 2.95748 0
M  V30 4558 H 409.958 0.225643 1.42221 0
M  V30 4559 H 411.911 -1.82024 3.80059 0
M  V30 4560 H 410.635 -2.01186 2.57278 0
M  V30 4561 H 409.294 -0.178299 3.66166 0
M  V30 4562 H 408.942 -2.56301 4.32804 0
M  V30 4563 H 408.642 -1.45747 5.69238 0
M  V30 4564 H 410.166 -2.38709 5.62006 0
M  V30 4565 H 411.58 -0.118407 5.73178 0
M  V30 4566 H 409.977 0.636974 5.9671 0
M  V30 4567 H 411.047 1.23883 4.68808 0
M  V30 4568 N 412.39 -1.55475 0.257931 0
M  V30 4569 C 413.63 -2.01112 -0.365129 0
M  V30 4570 C 413.994 -1.1423 -1.54323 0
M  V30 4571 O 415.195 -1.49371 -2.23477 0
M  V30 4572 C 413.466 -3.49353 -0.754117 0
M  V30 4573 S 415.025 -4.16992 -1.36614 0
M  V30 4574 H 411.843 -0.701737 -0.114397 0
M  V30 4575 H 414.445 -1.91855 0.375747 0
M  V30 4576 H 413.149 -4.10246 0.112441 0
M  V30 4577 H 412.68 -3.6256 -1.52689 0
M  V30 4578 H 414.695 -4.19191 -2.65505 0
M  V30 4579 N 413.868 0.0150385 -1.57593 0
M  V30 4580 C 414.798 1.01047 -2.10503 0
M  V30 4581 C 415.779 1.36816 -1.01071 0
M  V30 4582 O 416.964 1.45455 -1.28672 0
M  V30 4583 C 414.094 2.30708 -2.59598 0
M  V30 4584 C 413.048 2.09142 -3.73421 0
M  V30 4585 C 412.374 3.44685 -4.08774 0
M  V30 4586 C 413.674 1.46619 -5.01298 0
M  V30 4587 H 415.368 0.569978 -2.93925 0
M  V30 4588 H 412.914 0.272724 -1.41394 0
M  V30 4589 H 414.867 3.00687 -2.95238 0
M  V30 4590 H 413.591 2.76843 -1.73279 0
M  V30 4591 H 412.25 1.41592 -3.38153 0
M  V30 4592 H 411.898 3.88495 -3.195 0
M  V30 4593 H 411.598 3.31077 -4.8545 0
M  V30 4594 H 413.122 4.16004 -4.4696 0
M  V30 4595 H 414.536 2.06535 -5.34805 0
M  V30 4596 H 412.933 1.43544 -5.82679 0
M  V30 4597 H 414.003 0.433611 -4.82957 0
M  V30 4598 N 415.346 1.54954 0.287554 0
M  V30 4599 C 416.276 1.89839 1.35954 0
M  V30 4600 C 417.257 0.758675 1.52244 0
M  V30 4601 O 418.442 1.01557 1.65529 0
M  V30 4602 C 415.572 2.15753 2.72154 0
M  V30 4603 C 414.526 3.3159 2.70614 0
M  V30 4604 C 413.852 3.42952 4.10229 0
M  V30 4605 C 415.152 4.68359 2.31165 0
M  V30 4606 H 416.846 2.79625 1.07007 0
M  V30 4607 H 414.392 1.3454 0.513316 0
M  V30 4608 H 416.345 2.38743 3.47246 0
M  V30 4609 H 415.069 1.22752 3.02654 0
M  V30 4610 H 413.728 3.08545 1.97979 0
M  V30 4611 H 413.376 2.47443 4.37928 0
M  V30 4612 H 413.076 4.20826 4.10097 0
M  V30 4613 H 414.6 3.68218 4.87081 0
M  V30 4614 H 416.014 4.9099 2.95976 0
M  V30 4615 H 414.411 5.49044 2.42221 0
M  V30 4616 H 415.481 4.68165 1.26291 0
M  V30 4617 N 416.824 -0.551391 1.4764 0
M  V30 4618 C 418.049 -1.33837 1.58437 0
M  V30 4619 C 418.474 -1.866 0.237063 0
M  V30 4620 O 417.832 -1.6328 -0.787994 0
M  V30 4621 C 417.88 -2.48014 2.61766 0
M  V30 4622 O 416.984 -3.50419 2.1744 0
M  V30 4623 H 416.325 -0.397299 0.532024 0
M  V30 4624 H 418.855 -0.665759 1.93465 0
M  V30 4625 H 418.865 -2.94503 2.82369 0
M  V30 4626 H 417.54 -2.08969 3.5959 0
M  V30 4627 H 416.117 -3.10196 2.06961 0
M  V30 4628 N 418.302 -1.35869 -0.798587 0
M  V30 4629 C 419.53 -1.32722 -1.58722 0
M  V30 4630 C 419.945 0.0935631 -1.88568 0
M  V30 4631 O 419.302 1.04784 -1.49421 0
M  V30 4632 C 419.353 -2.13974 -2.91371 0
M  V30 4633 O 419.074 -3.50514 -2.62815 0
M  V30 4634 C 420.575 -2.18504 -3.85708 0
M  V30 4635 H 417.795 -0.45562 -0.492596 0
M  V30 4636 H 420.339 -1.78837 -0.991843 0
M  V30 4637 H 418.494 -1.71438 -3.47402 0
M  V30 4638 H 418.908 -3.92806 -3.47568 0
M  V30 4639 H 420.382 -2.79732 -4.75872 0
M  V30 4640 H 420.859 -1.18597 -4.22885 0
M  V30 4641 H 421.465 -2.61236 -3.35612 0
M  V30 4642 N 419.78 1.02168 -1.19998 0
M  V30 4643 C 420.728 2.12717 -0.940967 0
M  V30 4644 C 421.722 1.69069 0.105841 0
M  V30 4645 O 422.928 1.79946 -0.0440583 0
M  V30 4646 H 419.303 0.695108 -0.28693 0
M  V30 4647 H 421.274 2.3175 -1.87975 0
M  V30 4648 C 420.023 3.44027 -0.504049 0
M  V30 4649 H 419.346 3.78036 -1.30112 0
M  V30 4650 H 420.786 4.22452 -0.361991 0
M  V30 4651 C 419.245 3.27678 0.782878 0
M  V30 4652 O 419.775 3.56949 1.84256 0
M  V30 4653 N 417.981 2.80943 0.742921 0
M  V30 4654 H 417.528 2.57322 -0.119687 0
M  V30 4655 H 417.486 2.70385 1.60435 0
M  V30 4656 N 421.258 1.00505 1.21394 0
M  V30 4657 C 422.498 0.696149 1.9218 0
M  V30 4658 C 422.862 -0.759099 1.76357 0
M  V30 4659 O 424.063 -1.17998 2.41516 0
M  V30 4660 C 422.334 1.10571 3.39866 0
M  V30 4661 S 423.893 0.91702 4.29111 0
M  V30 4662 H 420.711 0.254147 0.664026 0
M  V30 4663 H 423.313 1.28988 1.46909 0
M  V30 4664 H 422.017 2.16096 3.489 0
M  V30 4665 H 421.548 0.504268 3.90155 0
M  V30 4666 H 423.563 -0.185855 4.95852 0
M  V30 4667 N 422.737 -1.36956 0.779787 0
M  V30 4668 C 423.983 -1.99787 0.348281 0
M  V30 4669 C 424.316 -1.61756 -1.07465 0
M  V30 4670 O 423.591 -0.867639 -1.74075 0
M  V30 4671 C 423.874 -3.56597 0.50104 0
M  V30 4672 C 423.727 -4.04513 1.96697 0
M  V30 4673 C 425.046 -4.40008 -0.0898097 0
M  V30 4674 H 422.165 -0.725796 0.128022 0
M  V30 4675 H 424.807 -1.62514 0.984331 0
M  V30 4676 H 422.957 -3.88479 -0.0404347 0
M  V30 4677 H 424.629 -3.83161 2.56876 0
M  V30 4678 H 422.872 -3.56408 2.47297 0
M  V30 4679 H 423.543 -5.1352 2.02486 0
M  V30 4680 H 426.019 -4.14431 0.372293 0
M  V30 4681 H 424.895 -5.4888 0.0471605 0
M  V30 4682 H 425.156 -4.26035 -1.18096 0
M  V30 4683 N 424.215 -0.530993 -1.48385 0
M  V30 4684 C 425.145 0.219985 -2.32461 0
M  V30 4685 C 426.126 0.934111 -1.42156 0
M  V30 4686 O 427.311 0.919694 -1.71042 0
M  V30 4687 C 424.441 1.26674 -3.23375 0
M  V30 4688 C 423.395 0.67069 -4.22712 0
M  V30 4689 C 422.721 1.82017 -5.02766 0
M  V30 4690 C 424.021 -0.358268 -5.2107 0
M  V30 4691 H 425.715 -0.48187 -2.95497 0
M  V30 4692 H 423.261 -0.233182 -1.42099 0
M  V30 4693 H 425.214 1.80006 -3.81019 0
M  V30 4694 H 423.938 1.99818 -2.58341 0
M  V30 4695 H 422.597 0.158878 -3.66256 0
M  V30 4696 H 422.245 2.54002 -4.34157 0
M  V30 4697 H 421.945 1.42727 -5.70003 0
M  V30 4698 H 423.469 2.35725 -5.63264 0
M  V30 4699 H 424.883 0.0880081 -5.73232 0
M  V30 4700 H 423.28 -0.66861 -5.96364 0
M  V30 4701 H 424.35 -1.26367 -4.68145 0
M  V30 4702 N 425.693 1.55336 -0.266172 0
M  V30 4703 C 426.97 1.91372 0.404486 0
M  V30 4704 C 427.35 1.18935 1.74407 0
M  V30 4705 O 426.698 0.3132 2.26343 0
M  V30 4706 C 426.908 3.44581 0.553593 0
M  V30 4707 C 428.256 4.16196 0.840618 0
M  V30 4708 O 429.28 3.50426 0.638739 0
M  V30 4709 O 428.139 5.32567 1.22618 0
M  V30 4710 H 425.233 0.797194 0.220025 0
M  V30 4711 H 427.779 1.66813 -0.311664 0
M  V30 4712 H 426.551 3.89357 -0.389498 0
M  V30 4713 H 426.174 3.75065 1.31955 0
M  V30 4714 N 427.171 -0.0066808 1.57599 0
M  V30 4715 C 428.582 -0.550379 1.78403 0
M  V30 4716 C 428.933 -1.74339 0.900014 0
M  V30 4717 O 428.058 -2.16166 0.100713 0
M  V30 4718 C 428.653 -1.00523 3.23544 0
M  V30 4719 C 427.212 -1.49428 3.45468 0
M  V30 4720 C 426.359 -0.442444 2.73748 0
M  V30 4721 H 429.31 0.219508 1.57175 0
M  V30 4722 H 429.331 -1.87157 3.31289 0
M  V30 4723 H 428.843 -0.136735 3.87859 0
M  V30 4724 H 426.944 -2.3839 2.86358 0
M  V30 4725 H 427.057 -1.52635 4.54136 0
M  V30 4726 H 425.421 -0.902578 2.38171 0
M  V30 4727 H 426.204 0.416973 3.40758 0
M  V30 4728 N 428.649 -1.55105 -0.279332 0
M  V30 4729 C 429.895 -1.75672 -1.01327 0
M  V30 4730 C 430.228 -0.552739 -1.86168 0
M  V30 4731 O 429.503 0.449827 -1.89227 0
M  V30 4732 C 429.786 -3.05825 -1.90114 0
M  V30 4733 C 429.639 -4.36565 -1.08309 0
M  V30 4734 C 430.958 -3.31975 -2.8893 0
M  V30 4735 H 428.077 -0.639149 -0.366957 0
M  V30 4736 H 430.719 -1.87833 -0.286154 0
M  V30 4737 H 428.869 -2.95588 -2.52111 0
M  V30 4738 H 430.541 -4.58751 -0.484314 0
M  V30 4739 H 428.784 -4.32076 -0.386362 0
M  V30 4740 H 429.455 -5.23946 -1.73737 0
M  V30 4741 H 431.931 -3.41963 -2.37067 0
M  V30 4742 H 430.807 -4.2432 -3.48201 0
M  V30 4743 H 431.068 -2.51309 -3.63725 0
M  V30 4744 N 430.127 0.543554 -1.4793 0
M  V30 4745 C 431.376 1.29649 -1.54512 0
M  V30 4746 C 431.689 1.94382 -0.217973 0
M  V30 4747 O 432.895 2.71017 -0.161908 0
M  V30 4748 C 431.351 2.35175 -2.72435 0
M  V30 4749 C 430.959 1.76572 -4.11736 0
M  V30 4750 C 432.703 3.11564 -2.8832 0
M  V30 4751 C 430.61 2.79958 -5.20939 0
M  V30 4752 H 429.54 0.487541 -0.57517 0
M  V30 4753 H 432.191 0.575708 -1.74235 0
M  V30 4754 H 430.573 3.10229 -2.46118 0
M  V30 4755 H 431.747 1.07799 -4.48013 0
M  V30 4756 H 430.062 1.12722 -4.00852 0
M  V30 4757 H 432.659 3.88794 -3.67074 0
M  V30 4758 H 433.002 3.66594 -1.97268 0
M  V30 4759 H 433.535 2.43623 -3.14472 0
M  V30 4760 H 430.274 2.29766 -6.13912 0
M  V30 4761 H 429.794 3.47101 -4.89164 0
M  V30 4762 H 431.473 3.43198 -5.48474 0
M  V30 4763 N 431.605 1.3629 0.791371 0
M  V30 4764 C 432.835 1.33368 1.57786 0
M  V30 4765 C 433.243 -0.0875188 1.88997 0
M  V30 4766 O 432.586 -1.05427 1.50435 0
M  V30 4767 C 432.648 2.08802 2.92646 0
M  V30 4768 C 432.312 3.57903 2.84174 0
M  V30 4769 C 433.309 4.52191 2.56553 0
M  V30 4770 C 430.994 4.00762 3.02812 0
M  V30 4771 C 432.988 5.87315 2.47669 0
M  V30 4772 C 430.675 5.35977 2.93551 0
M  V30 4773 C 431.673 6.29066 2.66017 0
M  V30 4774 O 431.361 7.61798 2.56746 0
M  V30 4775 H 431.093 0.459166 0.496128 0
M  V30 4776 H 433.647 1.79952 0.990269 0
M  V30 4777 H 431.877 1.56878 3.53449 0
M  V30 4778 H 433.566 1.98762 3.53904 0
M  V30 4779 H 434.332 4.20393 2.41858 0
M  V30 4780 H 430.211 3.2868 3.2325 0
M  V30 4781 H 433.755 6.59943 2.26099 0
M  V30 4782 H 429.652 5.67384 3.07808 0
M  V30 4783 H 430.42 7.71898 2.72242 0
M  V30 4784 N 433.083 -1.0153 1.20538 0
M  V30 4785 C 434.323 -1.76689 1.02763 0
M  V30 4786 C 434.687 -1.87065 -0.432513 0
M  V30 4787 O 435.888 -2.58684 -0.730481 0
M  V30 4788 C 434.159 -3.14707 1.69393 0
M  V30 4789 S 435.718 -4.05886 1.66738 0
M  V30 4790 H 432.536 -0.608076 0.368463 0
M  V30 4791 H 435.138 -1.21558 1.53114 0
M  V30 4792 H 433.842 -3.04782 2.74838 0
M  V30 4793 H 433.373 -3.74913 1.19179 0
M  V30 4794 H 435.388 -4.91221 0.70117 0
M  V30 4795 N 434.561 -1.01147 -1.20859 0
M  V30 4796 C 435.808 -0.697865 -1.90095 0
M  V30 4797 C 436.136 0.772014 -1.78522 0
M  V30 4798 O 435.391 1.57595 -1.16027 0
M  V30 4799 C 435.69 -1.0727 -3.40922 0
M  V30 4800 C 435.356 -2.53792 -3.72693 0
M  V30 4801 C 434.018 -2.93829 -3.81075 0
M  V30 4802 C 436.37 -3.48674 -3.87397 0
M  V30 4803 C 433.698 -4.27696 -4.01613 0
M  V30 4804 C 436.05 -4.82223 -4.09444 0
M  V30 4805 C 434.714 -5.21973 -4.16054 0
M  V30 4806 H 433.984 -0.255367 -0.695607 0
M  V30 4807 H 436.631 -1.27111 -1.43231 0
M  V30 4808 H 434.936 -0.417799 -3.89566 0
M  V30 4809 H 436.633 -0.807818 -3.92779 0
M  V30 4810 H 433.223 -2.21768 -3.66765 0
M  V30 4811 H 437.407 -3.18904 -3.80281 0
M  V30 4812 H 432.663 -4.58055 -4.04964 0
M  V30 4813 H 436.837 -5.55672 -4.19763 0
M  V30 4814 H 434.464 -6.25717 -4.31721 0
M  V30 4815 N 436.039 1.36541 -0.78704 0
M  V30 4816 C 436.969 2.32659 -0.197992 0
M  V30 4817 C 437.95 1.56533 0.665697 0
M  V30 4818 O 439.135 1.84698 0.60001 0
M  V30 4819 C 436.265 3.40778 0.669901 0
M  V30 4820 C 435.219 4.27897 -0.0937039 0
M  V30 4821 C 434.545 5.27163 0.894629 0
M  V30 4822 C 435.845 5.06334 -1.28154 0
M  V30 4823 H 437.539 2.82171 -1.00099 0
M  V30 4824 H 435.085 1.35665 -0.482793 0
M  V30 4825 H 437.038 4.07008 1.09191 0
M  V30 4826 H 435.762 2.89827 1.50558 0
M  V30 4827 H 434.421 3.6322 -0.49666 0
M  V30 4828 H 434.069 4.72486 1.72527 0
M  V30 4829 H 433.769 5.86317 0.388149 0
M  V30 4830 H 435.293 5.96266 1.31525 0
M  V30 4831 H 436.707 5.65617 -0.93541 0
M  V30 4832 H 435.104 5.74888 -1.72115 0
M  V30 4833 H 436.174 4.38114 -2.07807 0
M  V30 4834 N 437.518 0.538854 1.48102 0
M  V30 4835 C 438.746 0.0123136 2.06896 0
M  V30 4836 C 439.161 -1.27312 1.39417 0
M  V30 4837 O 438.518 -1.75949 0.484582 0
M  V30 4838 C 438.569 -0.206118 3.60912 0
M  V30 4839 O 438.29 1.0284 4.25859 0
M  V30 4840 C 439.791 -0.772033 4.36526 0
M  V30 4841 H 437.011 0.0375239 0.66995 0
M  V30 4842 H 439.555 0.747032 1.90367 0
M  V30 4843 H 437.71 -0.89091 3.77017 0
M  V30 4844 H 438.124 0.814654 5.18135 0
M  V30 4845 H 439.598 -0.874251 5.45033 0
M  V30 4846 H 440.075 -1.77904 4.01555 0
M  V30 4847 H 440.681 -0.123526 4.25121 0
M  V30 4848 N 438.996 -1.55193 0.274407 0
M  V30 4849 C 439.943 -2.225 -0.613374 0
M  V30 4850 C 440.913 -1.19823 -1.15029 0
M  V30 4851 O 442.098 -1.48362 -1.19973 0
M  V30 4852 C 439.238 -2.94927 -1.79199 0
M  V30 4853 C 438.351 -4.12322 -1.28899 0
M  V30 4854 C 437.486 -4.72394 -2.42934 0
M  V30 4855 C 436.525 -5.81984 -1.89634 0
M  V30 4856 N 435.662 -6.36123 -2.9714 0
M  V30 4857 H 440.502 -2.97982 -0.032756 0
M  V30 4858 H 438.039 -1.47099 -0.00440146 0
M  V30 4859 H 439.997 -3.35134 -2.48478 0
M  V30 4860 H 438.627 -2.2187 -2.34465 0
M  V30 4861 H 437.679 -3.7724 -0.489327 0
M  V30 4862 H 438.991 -4.91355 -0.858587 0
M  V30 4863 H 438.145 -5.15317 -3.20208 0
M  V30 4864 H 436.884 -3.92636 -2.8929 0
M  V30 4865 H 435.889 -5.38511 -1.1084 0
M  V30 4866 H 437.114 -6.6361 -1.44215 0
M  V30 4867 H 435.06 -5.59259 -3.42878 0
M  V30 4868 H 434.977 -7.10427 -2.58515 0
M  V30 4869 H 436.245 -6.83704 -3.74391 0
M  V30 4870 N 440.474 -0.00167713 -1.576 0
M  V30 4871 C 441.421 0.989195 -2.08527 0
M  V30 4872 C 442.391 1.34031 -0.981065 0
M  V30 4873 O 443.576 1.43839 -1.2536 0
M  V30 4874 C 440.716 2.27537 -2.59463 0
M  V30 4875 C 439.829 1.98314 -3.83791 0
M  V30 4876 C 438.964 3.21025 -4.23222 0
M  V30 4877 C 438.003 2.87495 -5.40382 0
M  V30 4878 N 437.14 4.02749 -5.75098 0
M  V30 4879 H 441.98 0.547973 -2.92919 0
M  V30 4880 H 439.517 0.258917 -1.44803 0
M  V30 4881 H 441.475 3.02729 -2.87073 0
M  V30 4882 H 440.105 2.69325 -1.77943 0
M  V30 4883 H 439.157 1.13482 -3.63078 0
M  V30 4884 H 440.469 1.69601 -4.69081 0
M  V30 4885 H 439.623 4.04561 -4.52123 0
M  V30 4886 H 438.362 3.52877 -3.36644 0
M  V30 4887 H 437.367 2.02367 -5.11202 0
M  V30 4888 H 438.592 2.56889 -6.28637 0
M  V30 4889 H 436.538 4.34494 -4.91478 0
M  V30 4890 H 436.455 3.77566 -6.54966 0
M  V30 4891 H 437.723 4.87068 -6.08592 0
M  V30 4892 N 441.952 1.55251 0.271103 0
M  V30 4893 C 443.199 1.75946 1.00245 0
M  V30 4894 C 443.527 0.561611 1.86215 0
M  V30 4895 O 442.782 -0.455832 1.90317 0
M  V30 4896 C 443.081 3.01879 1.91321 0
M  V30 4897 C 442.747 4.34337 1.21086 0
M  V30 4898 C 441.409 4.70338 1.01666 0
M  V30 4899 C 443.761 5.16325 0.71119 0
M  V30 4900 C 441.089 5.8588 0.310099 0
M  V30 4901 C 443.441 6.32597 0.0182157 0
M  V30 4902 C 442.105 6.67236 -0.18768 0
M  V30 4903 H 441.375 0.643833 0.366824 0
M  V30 4904 H 444.022 1.89521 0.27458 0
M  V30 4905 H 442.327 2.83212 2.70736 0
M  V30 4906 H 444.024 3.15088 2.48033 0
M  V30 4907 H 440.614 4.06043 1.37213 0
M  V30 4908 H 444.798 4.88987 0.848844 0
M  V30 4909 H 440.054 6.1124 0.139873 0
M  V30 4910 H 444.228 6.9538 -0.376711 0
M  V30 4911 H 441.855 7.56618 -0.73715 0
M  V30 4912 N 443.43 -0.535701 1.48216 0
M  V30 4913 C 444.846 -0.863701 1.3421 0
M  V30 4914 C 445.046 -1.98458 0.34879 0
M  V30 4915 O 444.102 -2.51432 -0.23204 0
M  V30 4916 C 445.415 -1.23662 2.74095 0
M  V30 4917 C 446.963 -1.34683 2.82541 0
M  V30 4918 C 447.438 -1.75322 4.23115 0
M  V30 4919 N 448.929 -1.82434 4.2576 0
M  V30 4920 C 449.664 -2.15252 5.31464 0
M  V30 4921 N 449.16 -2.46533 6.47452 0
M  V30 4922 N 450.953 -2.16209 5.18855 0
M  V30 4923 H 443.104 0.203965 2.11418 0
M  V30 4924 H 445.367 0.0286033 0.947568 0
M  V30 4925 H 445.073 -0.486674 3.48316 0
M  V30 4926 H 444.947 -2.18805 3.07253 0
M  V30 4927 H 447.334 -2.08756 2.08579 0
M  V30 4928 H 447.415 -0.376756 2.5301 0
M  V30 4929 H 447.059 -1.01812 4.97591 0
M  V30 4930 H 446.989 -2.7337 4.50085 0
M  V30 4931 H 449.48 -1.6056 3.42095 0
M  V30 4932 H 449.793 -2.70662 7.23852 0
M  V30 4933 H 448.138 -2.44065 6.50736 0
M  V30 4934 H 451.329 -1.91224 4.2726 0
M  V30 4935 H 451.502 -2.41453 6.01335 0
M  V30 4936 N 444.908 -1.36708 -0.784132 0
M  V30 4937 C 445.855 -1.31466 -1.89698 0
M  V30 4938 C 446.825 -0.18239 -1.65096 0
M  V30 4939 O 448.01 -0.369762 -1.87183 0
M  V30 4940 C 445.15 -1.1151 -3.26588 0
M  V30 4941 C 444.263 -2.33859 -3.63227 0
M  V30 4942 C 443.398 -2.06873 -4.89262 0
M  V30 4943 C 442.437 -3.25154 -5.18595 0
M  V30 4944 N 441.574 -2.978 -6.35814 0
M  V30 4945 H 446.414 -2.26619 -1.93515 0
M  V30 4946 H 443.951 -1.12625 -0.946256 0
M  V30 4947 H 445.909 -0.979653 -4.05535 0
M  V30 4948 H 444.539 -0.200103 -3.22179 0
M  V30 4949 H 443.591 -2.58188 -2.79362 0
M  V30 4950 H 444.903 -3.22109 -3.8085 0
M  V30 4951 H 444.057 -1.90289 -5.76086 0
M  V30 4952 H 442.796 -1.15942 -4.73718 0
M  V30 4953 H 441.801 -3.42292 -4.30251 0
M  V30 4954 H 443.026 -4.1692 -5.36055 0
M  V30 4955 H 440.972 -2.09485 -6.21653 0
M  V30 4956 H 440.889 -3.7959 -6.53794 0
M  V30 4957 H 442.157 -2.84805 -7.25607 0
M  V30 4958 N 446.386 1.0089 -1.21074 0
M  V30 4959 C 447.336 2.0799 -0.934034 0
M  V30 4960 C 448.32 1.60529 0.10919 0
M  V30 4961 O 449.512 1.76722 -0.0992198 0
M  V30 4962 C 446.641 3.39693 -0.496334 0
M  V30 4963 C 445.727 3.93833 -1.57341 0
M  V30 4964 N 446.118 4.21388 -2.7976 0
M  V30 4965 C 444.416 4.22067 -1.44137 0
M  V30 4966 C 445.117 4.65156 -3.49292 0
M  V30 4967 N 444.093 4.67895 -2.76722 0
M  V30 4968 H 447.895 2.27213 -1.86417 0
M  V30 4969 H 445.409 1.18927 -1.10589 0
M  V30 4970 H 447.406 4.15962 -0.279471 0
M  V30 4971 H 446.066 3.21879 0.427084 0
M  V30 4972 H 447.077 4.10061 -3.1634 0
M  V30 4973 H 443.754 4.1341 -0.582947 0
M  V30 4974 H 445.144 4.95231 -4.54088 0
M  V30 4975 N 447.864 1.01787 1.20321 0
M  V30 4976 C 448.794 0.609625 2.25401 0
M  V30 4977 C 449.775 -0.375951 1.65893 0
M  V30 4978 O 450.96 -0.261101 1.92437 0
M  V30 4979 C 448.09 -0.0515995 3.47262 0
M  V30 4980 C 447.044 0.855095 4.19371 0
M  V30 4981 C 446.37 0.0595757 5.34667 0
M  V30 4982 C 447.67 2.16374 4.75373 0
M  V30 4983 H 449.364 1.48803 2.59804 0
M  V30 4984 H 446.91 0.716934 1.24884 0
M  V30 4985 H 448.863 -0.348764 4.19954 0
M  V30 4986 H 447.587 -0.964726 3.12027 0
M  V30 4987 H 446.246 1.13628 3.48546 0
M  V30 4988 H 445.894 -0.85524 4.95676 0
M  V30 4989 H 445.594 0.663406 5.83843 0
M  V30 4990 H 447.118 -0.231105 6.10162 0
M  V30 4991 H 448.532 1.92885 5.39878 0
M  V30 4992 H 446.929 2.71853 5.34991 0
M  V30 4993 H 447.999 2.82589 3.94045 0
M  V30 4994 N 449.342 -1.36122 0.79427 0
M  V30 4995 C 450.57 -2.03362 0.380989 0
M  V30 4996 C 450.985 -1.59881 -1.00416 0
M  V30 4997 O 450.342 -0.790515 -1.6449 0
M  V30 4998 C 450.393 -3.58804 0.440649 0
M  V30 4999 O 450.114 -4.007 1.77118 0
M  V30 5000 C 451.615 -4.43296 0.0186117 0
M  V30 5001 H 448.835 -0.652526 0.156367 0
M  V30 5002 H 451.379 -1.73998 1.07447 0
M  V30 5003 H 449.534 -3.8686 -0.204458 0
M  V30 5004 H 449.948 -4.95309 1.72538 0
M  V30 5005 H 451.422 -5.51887 0.111488 0
M  V30 5006 H 451.899 -4.2684 -1.03461 0
M  V30 5007 H 452.505 -4.20512 0.636395 0
M  V30 5008 N 450.82 -0.546701 -1.47814 0
M  V30 5009 C 451.73 0.21026 -2.33656 0
M  V30 5010 C 452.746 0.922413 -1.47538 0
M  V30 5011 O 453.922 0.893652 -1.80488 0
M  V30 5012 C 450.987 1.23348 -3.24016 0
M  V30 5013 C 450.048 0.529883 -4.26017 0
M  V30 5014 C 449.281 1.50435 -5.12059 0
M  V30 5015 O 449.504 2.73837 -5.00369 0
M  V30 5016 O 448.438 1.03459 -5.92942 0
M  V30 5017 H 452.264 -0.493605 -2.99662 0
M  V30 5018 H 449.849 -0.307427 -1.46203 0
M  V30 5019 H 451.731 1.82438 -3.79861 0
M  V30 5020 H 450.406 1.91945 -2.60651 0
M  V30 5021 H 449.313 -0.101948 -3.73961 0
M  V30 5022 H 450.646 -0.11445 -4.92067 0
M  V30 5023 N 452.299 1.55045 -0.282633 0
M  V30 5024 C 453.246 2.22822 0.601566 0
M  V30 5025 C 454.216 1.20431 1.14392 0
M  V30 5026 O 455.401 1.48996 1.19184 0
M  V30 5027 C 452.541 2.95873 1.77632 0
M  V30 5028 C 451.654 4.12999 1.26711 0
M  V30 5029 C 450.789 4.73676 2.40426 0
M  V30 5030 C 449.828 5.82981 1.86545 0
M  V30 5031 N 448.965 6.3769 2.93762 0
M  V30 5032 H 453.805 2.97995 0.0169528 0
M  V30 5033 H 451.342 1.471 -0.00339964 0
M  V30 5034 H 453.3 3.36447 2.46697 0
M  V30 5035 H 451.93 2.2311 2.33285 0
M  V30 5036 H 450.982 3.77494 0.469314 0
M  V30 5037 H 452.294 4.91803 0.832518 0
M  V30 5038 H 451.448 5.17008 3.17471 0
M  V30 5039 H 450.187 3.94164 2.87203 0
M  V30 5040 H 449.192 5.39092 1.07983 0
M  V30 5041 H 450.417 6.64366 1.40694 0
M  V30 5042 H 448.363 5.61069 3.39908 0
M  V30 5043 H 448.28 7.11788 2.54744 0
M  V30 5044 H 449.548 6.8568 3.7076 0
M  V30 5045 N 453.777 0.010035 1.57597 0
M  V30 5046 C 455.024 -0.6727 1.91 0
M  V30 5047 C 455.352 -1.73219 0.884614 0
M  V30 5048 O 454.607 -1.95395 -0.109215 0
M  V30 5049 C 454.906 -1.34434 3.31153 0
M  V30 5050 C 454.572 -0.417083 4.48967 0
M  V30 5051 C 453.234 -0.161809 4.80928 0
M  V30 5052 C 455.586 0.220753 5.20732 0
M  V30 5053 C 452.914 0.739426 5.82022 0
M  V30 5054 C 455.266 1.10993 6.22787 0
M  V30 5055 C 453.93 1.37428 6.532 0
M  V30 5056 H 453.2 -0.246158 0.698918 0
M  V30 5057 H 455.847 0.0677145 1.9138 0
M  V30 5058 H 454.152 -2.15905 3.26944 0
M  V30 5059 H 455.849 -1.87883 3.54261 0
M  V30 5060 H 452.439 -0.626217 4.24001 0
M  V30 5061 H 456.623 0.0365643 4.96287 0
M  V30 5062 H 451.879 0.952139 6.03941 0
M  V30 5063 H 456.053 1.61046 6.77523 0
M  V30 5064 H 453.68 2.0743 7.31353 0
M  V30 5065 N 455.255 -1.55392 -0.262866 0
M  V30 5066 C 456.485 -1.80251 -1.00961 0
M  V30 5067 C 456.893 -0.58117 -1.80053 0
M  V30 5068 O 456.236 0.459427 -1.77862 0
M  V30 5069 C 456.298 -2.98207 -2.00781 0
M  V30 5070 C 455.962 -4.34856 -1.40533 0
M  V30 5071 C 456.959 -5.13459 -0.815853 0
M  V30 5072 C 454.644 -4.8153 -1.42948 0
M  V30 5073 C 456.638 -6.36875 -0.258562 0
M  V30 5074 C 454.325 -6.04899 -0.868334 0
M  V30 5075 C 455.323 -6.8241 -0.283884 0
M  V30 5076 O 455.011 -8.03451 0.268644 0
M  V30 5077 H 454.743 -0.604049 -0.303482 0
M  V30 5078 H 457.297 -2.03257 -0.295926 0
M  V30 5079 H 455.527 -2.70917 -2.75936 0
M  V30 5080 H 457.216 -3.10299 -2.61667 0
M  V30 5081 H 457.982 -4.78526 -0.789812 0
M  V30 5082 H 453.861 -4.21201 -1.87378 0
M  V30 5083 H 457.405 -6.97318 0.198257 0
M  V30 5084 H 453.302 -6.39312 -0.891649 0
M  V30 5085 H 454.07 -8.18346 0.158974 0
M  V30 5086 N 456.733 0.527833 -1.48498 0
M  V30 5087 C 457.958 1.313 -1.60546 0
M  V30 5088 C 458.383 1.86199 -0.26672 0
M  V30 5089 O 457.741 1.64513 0.761918 0
M  V30 5090 C 457.789 2.43818 -2.65678 0
M  V30 5091 O 456.893 3.46916 -2.22987 0
M  V30 5092 H 456.234 0.388784 -0.538277 0
M  V30 5093 H 458.764 0.634896 -1.945 0
M  V30 5094 H 458.774 2.89973 -2.87018 0
M  V30 5095 H 457.449 2.03222 -3.62869 0
M  V30 5096 H 456.026 3.06864 -2.11869 0
M  V30 5097 N 458.211 1.37122 0.776871 0
M  V30 5098 C 459.144 1.26835 1.89705 0
M  V30 5099 C 460.122 0.14992 1.61907 0
M  V30 5100 O 461.306 0.323242 1.85708 0
M  V30 5101 C 458.433 0.95986 3.24814 0
M  V30 5102 C 457.479 2.09447 3.7153 0
M  V30 5103 S 458.312 3.71368 3.85806 0
M  V30 5104 C 459.468 3.42659 5.23771 0
M  V30 5105 H 459.701 2.21647 1.98141 0
M  V30 5106 H 457.234 1.22685 0.937433 0
M  V30 5107 H 459.192 0.788696 4.02852 0
M  V30 5108 H 457.853 0.0293137 3.14086 0
M  V30 5109 H 457.046 1.8335 4.69467 0
M  V30 5110 H 456.648 2.2255 3.00578 0
M  V30 5111 H 458.94 2.9733 6.0877 0
M  V30 5112 H 459.883 4.39905 5.54878 0
M  V30 5113 H 460.291 2.77708 4.91466 0
M  V30 5114 N 459.689 -1.00246 1.21608 0
M  V30 5115 C 461.105 -1.26435 0.973975 0
M  V30 5116 C 461.305 -1.98642 -0.338143 0
M  V30 5117 O 460.361 -2.29026 -1.06317 0
M  V30 5118 C 461.674 -2.08551 2.16626 0
M  V30 5119 C 463.222 -2.21769 2.20879 0
M  V30 5120 C 463.697 -3.07267 3.39633 0
M  V30 5121 N 465.188 -3.14855 3.39736 0
M  V30 5122 C 465.923 -3.81274 4.28273 0
M  V30 5123 N 465.419 -4.497 5.27012 0
M  V30 5124 N 467.212 -3.7794 4.16074 0
M  V30 5125 H 459.363 -0.518089 2.05984 0
M  V30 5126 H 461.626 -0.291368 0.902113 0
M  V30 5127 H 461.332 -1.62847 3.11727 0
M  V30 5128 H 461.206 -3.09303 2.15897 0
M  V30 5129 H 463.593 -2.66691 1.26332 0
M  V30 5130 H 463.674 -1.20478 2.25652 0
M  V30 5131 H 463.318 -2.63047 4.34475 0
M  V30 5132 H 463.248 -4.08678 3.321 0
M  V30 5133 H 465.739 -2.66147 2.6828 0
M  V30 5134 H 466.052 -4.98092 5.90867 0
M  V30 5135 H 464.397 -4.48479 5.30935 0
M  V30 5136 H 467.588 -3.23638 3.38195 0
M  V30 5137 H 467.761 -4.29424 4.85282 0
M  V30 5138 N 461.167 -1.02423 -1.1978 0
M  V30 5139 C 462.392 -0.7373 -1.93852 0
M  V30 5140 C 462.817 0.696923 -1.74713 0
M  V30 5141 O 462.175 1.48056 -1.04638 0
M  V30 5142 C 462.223 -1.08783 -3.438 0
M  V30 5143 O 461.327 -0.20383 -4.11896 0
M  V30 5144 H 460.668 -0.27284 -0.605355 0
M  V30 5145 H 463.198 -1.36966 -1.51992 0
M  V30 5146 H 463.208 -1.04276 -3.9445 0
M  V30 5147 H 461.883 -2.13274 -3.57053 0
M  V30 5148 H 460.46 -0.307091 -3.71633 0
M  V30 5149 N 462.645 1.35699 -0.801477 0
M  V30 5150 C 463.87 2.03687 -0.390678 0
M  V30 5151 C 464.295 1.60015 0.988778 0
M  V30 5152 O 463.653 0.774357 1.63931 0
M  V30 5153 C 463.701 3.57439 -0.476404 0
M  V30 5154 O 462.805 4.09208 0.512106 0
M  V30 5155 H 462.146 0.64344 -0.163956 0
M  V30 5156 H 464.676 1.73403 -1.08594 0
M  V30 5157 H 464.686 4.06544 -0.344357 0
M  V30 5158 H 463.361 3.88576 -1.48262 0
M  V30 5159 H 461.938 3.7134 0.340721 0
M  V30 5160 N 464.123 0.554532 1.47522 0
M  V30 5161 C 465.539 0.214107 1.58157 0
M  V30 5162 C 465.739 -1.28331 1.55349 0
M  V30 5163 O 464.795 -2.06329 1.45549 0
M  V30 5164 C 466.108 0.838391 2.88776 0
M  V30 5165 C 467.656 0.809374 3.02354 0
M  V30 5166 C 468.131 1.41268 4.35669 0
M  V30 5167 N 469.622 1.37574 4.42298 0
M  V30 5168 C 470.357 1.8122 5.4401 0
M  V30 5169 N 469.853 2.3271 6.52547 0
M  V30 5170 N 471.646 1.72307 5.35039 0
M  V30 5171 H 463.797 1.52744 1.4759 0
M  V30 5172 H 466.06 0.636812 0.702264 0
M  V30 5173 H 465.766 1.89065 2.96559 0
M  V30 5174 H 465.64 0.329847 3.75755 0
M  V30 5175 H 468.027 -0.234187 2.94169 0
M  V30 5176 H 468.108 1.35565 2.16924 0
M  V30 5177 H 467.752 2.45529 4.4461 0
M  V30 5178 H 467.682 0.841871 5.19827 0
M  V30 5179 H 470.173 0.999081 3.64454 0
M  V30 5180 H 470.486 2.63944 7.26329 0
M  V30 5181 H 468.831 2.36719 6.53444 0
M  V30 5182 H 472.022 1.3186 4.49144 0
M  V30 5183 H 472.195 2.06641 6.14169 0
M  V30 5184 N 465.601 -1.54893 0.290851 0
M  V30 5185 C 466.548 -2.23138 -0.58974 0
M  V30 5186 C 467.518 -1.21036 -1.13752 0
M  V30 5187 O 468.703 -1.49626 -1.18392 0
M  V30 5188 C 465.843 -2.96811 -1.76061 0
M  V30 5189 C 464.956 -4.13665 -1.24519 0
M  V30 5190 C 464.091 -4.74944 -2.3791 0
M  V30 5191 C 463.13 -5.83963 -1.83451 0
M  V30 5192 N 462.267 -6.39239 -2.90376 0
M  V30 5193 H 467.107 -2.98 -0.00114915 0
M  V30 5194 H 464.644 -1.47096 0.0112006 0
M  V30 5195 H 466.602 -3.37751 -2.44909 0
M  V30 5196 H 465.232 -2.24344 -2.32098 0
M  V30 5197 H 464.284 -3.77737 -0.449288 0
M  V30 5198 H 465.596 -4.92238 -0.806424 0
M  V30 5199 H 464.75 -5.18684 -3.14724 0
M  V30 5200 H 463.489 -3.95682 -2.85109 0
M  V30 5201 H 462.494 -5.39657 -1.05122 0
M  V30 5202 H 463.719 -6.65103 -1.37169 0
M  V30 5203 H 461.665 -5.62864 -3.36927 0
M  V30 5204 H 461.582 -7.13129 -2.50965 0
M  V30 5205 H 462.85 -6.87637 -3.67118 0
M  V30 5206 N 467.08 -0.0183926 -1.57589 0
M  V30 5207 C 468.32 0.666846 -1.93216 0
M  V30 5208 C 468.684 1.69905 -0.894215 0
M  V30 5209 O 469.885 2.436 -1.13633 0
M  V30 5210 C 468.156 1.27684 -3.33814 0
M  V30 5211 S 469.715 1.98464 -3.91353 0
M  V30 5212 H 466.533 0.219826 -0.676164 0
M  V30 5213 H 469.135 -0.0794893 -1.95338 0
M  V30 5214 H 467.839 0.513006 -4.07181 0
M  V30 5215 H 467.37 2.06071 -3.3511 0
M  V30 5216 H 469.385 3.26189 -3.73918 0
M  V30 5217 N 468.558 1.5553 0.254621 0
M  V30 5218 C 469.783 1.81383 1.00573 0
M  V30 5219 C 470.208 0.594419 1.78461 0
M  V30 5220 O 469.566 -0.456403 1.75461 0
M  V30 5221 C 469.614 3.04892 1.92545 0
M  V30 5222 O 468.718 2.81266 3.01601 0
M  V30 5223 H 468.059 0.598969 0.286587 0
M  V30 5224 H 470.589 2.02703 0.277952 0
M  V30 5225 H 470.599 3.34119 2.34155 0
M  V30 5226 H 469.274 3.93287 1.3527 0
M  V30 5227 H 467.851 2.63185 2.64174 0
M  V30 5228 N 470.036 -0.519951 1.48776 0
M  V30 5229 C 471.452 -0.849418 1.35119 0
M  V30 5230 C 471.652 -1.98077 0.36982 0
M  V30 5231 O 470.708 -2.51664 -0.205359 0
M  V30 5232 C 472.021 -1.20748 2.75391 0
M  V30 5233 C 473.569 -1.31679 2.83954 0
M  V30 5234 C 474.044 -1.70824 4.24951 0
M  V30 5235 N 475.535 -1.77908 4.27672 0
M  V30 5236 C 476.27 -2.09603 5.33717 0
M  V30 5237 N 475.766 -2.39652 6.5003 0
M  V30 5238 N 477.559 -2.10694 5.21119 0
M  V30 5239 H 469.71 0.226377 2.1119 0
M  V30 5240 H 471.973 0.0386519 0.947212 0
M  V30 5241 H 471.679 -0.449703 3.48813 0
M  V30 5242 H 471.553 -2.15534 3.09556 0
M  V30 5243 H 473.94 -2.06532 2.10781 0
M  V30 5244 H 474.021 -0.3499 2.53396 0
M  V30 5245 H 473.665 -0.965282 4.98643 0
M  V30 5246 H 473.595 -2.6858 4.52959 0
M  V30 5247 H 476.086 -1.56923 3.43779 0
M  V30 5248 H 476.399 -2.6297 7.26682 0
M  V30 5249 H 474.744 -2.37149 6.53288 0
M  V30 5250 H 477.935 -1.86682 4.29264 0
M  V30 5251 H 478.108 -2.35062 6.03863 0
M  V30 5252 N 471.514 -1.37532 -0.769588 0
M  V30 5253 C 472.477 -1.33292 -1.86456 0
M  V30 5254 C 473.477 -0.236537 -1.59051 0
M  V30 5255 O 474.667 -0.492511 -1.67093 0
M  V30 5256 C 471.799 -1.07118 -3.23633 0
M  V30 5257 H 472.992 -2.30692 -1.91628 0
M  V30 5258 H 470.545 -1.22593 -0.969572 0
M  V30 5259 H 471.28 -0.102578 -3.24138 0
M  V30 5260 H 471.065 -1.86479 -3.44917 0
M  V30 5261 H 472.555 -1.06806 -4.03711 0
M  V30 5262 N 472.992 0.995999 -1.22138 0
M  V30 5263 C 474.22 1.77066 -1.07029 0
M  V30 5264 C 474.635 1.8495 0.379357 0
M  V30 5265 O 473.992 1.3174 1.26297 0
M  V30 5266 C 474.043 3.20533 -1.67155 0
M  V30 5267 O 473.764 3.13082 -3.06449 0
M  V30 5268 C 475.265 4.14461 -1.5728 0
M  V30 5269 H 472.485 0.556179 -0.375374 0
M  V30 5270 H 475.029 1.25238 -1.61666 0
M  V30 5271 H 473.184 3.6944 -1.16589 0
M  V30 5272 H 473.598 4.03283 -3.35355 0
M  V30 5273 H 475.072 5.1289 -2.04078 0
M  V30 5274 H 475.549 4.36005 -0.528795 0
M  V30 5275 H 476.155 3.71449 -2.07136 0
M  V30 5276 N 474.47 1.03057 1.19235 0
M  V30 5277 C 475.698 0.747697 1.92917 0
M  V30 5278 C 476.113 -0.69372 1.75593 0
M  V30 5279 O 475.47 -1.47191 1.07894 0
M  V30 5280 C 475.521 1.09159 3.44625 0
M  V30 5281 O 475.242 2.47641 3.61394 0
M  V30 5282 C 476.743 0.831763 4.35427 0
M  V30 5283 H 473.963 0.273453 0.612751 0
M  V30 5284 H 476.507 1.37552 1.51327 0
M  V30 5285 H 474.662 0.508919 3.84043 0
M  V30 5286 H 475.076 2.60499 4.55237 0
M  V30 5287 H 476.55 1.12233 5.4047 0
M  V30 5288 H 477.027 -0.233769 4.38577 0
M  V30 5289 H 477.633 1.39725 4.01693 0
M  V30 5290 N 475.948 -1.35272 0.808662 0
M  V30 5291 C 477.225 -1.93077 0.313181 0
M  V30 5292 C 477.605 -1.73847 -1.19752 0
M  V30 5293 O 476.953 -1.1087 -1.998 0
M  V30 5294 C 477.163 -3.41347 0.726859 0
M  V30 5295 C 478.511 -4.18493 0.717532 0
M  V30 5296 O 479.535 -3.4987 0.668535 0
M  V30 5297 O 478.394 -5.40937 0.777779 0
M  V30 5298 H 475.488 -0.822885 0.0824018 0
M  V30 5299 H 478.034 -1.44335 0.892499 0
M  V30 5300 H 476.806 -3.49082 1.76797 0
M  V30 5301 H 476.429 -3.97411 0.122461 0
M  V30 5302 N 477.426 -0.562348 -1.47226 0
M  V30 5303 C 478.654 -0.0452275 -2.06851 0
M  V30 5304 C 479.069 1.25078 -1.41424 0
M  V30 5305 O 478.426 1.75156 -0.512513 0
M  V30 5306 C 478.477 0.148674 -3.61194 0
M  V30 5307 O 478.198 -1.09602 -4.24169 0
M  V30 5308 C 479.699 0.702488 -4.37699 0
M  V30 5309 H 476.919 -0.0481775 -0.669268 0
M  V30 5310 H 479.463 -0.777223 -1.89155 0
M  V30 5311 H 477.618 0.830817 -3.78386 0
M  V30 5312 H 478.032 -0.896982 -5.16773 0
M  V30 5313 H 479.506 0.78743 -5.46355 0
M  V30 5314 H 479.983 1.71493 -4.04335 0
M  V30 5315 H 480.589 0.0558772 -4.25263 0
M  V30 5316 N 478.904 1.54736 -0.299062 0
M  V30 5317 C 480.15 2.00397 0.311244 0
M  V30 5318 C 480.483 1.18716 1.53688 0
M  V30 5319 O 479.758 0.263154 1.92712 0
M  V30 5320 C 480.041 3.53817 0.669761 0
M  V30 5321 C 479.894 4.46239 -0.564882 0
M  V30 5322 C 481.213 4.13856 1.49702 0
M  V30 5323 H 478.332 0.728493 0.111653 0
M  V30 5324 H 480.974 1.85506 -0.410774 0
M  V30 5325 H 479.124 3.66637 1.28491 0
M  V30 5326 H 480.796 4.45328 -1.20337 0
M  V30 5327 H 479.039 4.16916 -1.19849 0
M  V30 5328 H 479.71 5.5134 -0.269918 0
M  V30 5329 H 482.186 4.04461 0.977284 0
M  V30 5330 H 481.062 5.21365 1.71666 0
M  V30 5331 H 481.323 3.65608 2.48563 0
M  V30 5332 N 480.382 0.0267497 1.57577 0
M  V30 5333 C 481.61 -0.662661 1.96001 0
M  V30 5334 C 482.025 -1.65799 0.903117 0
M  V30 5335 O 481.382 -1.82135 -0.115317 0
M  V30 5336 C 481.433 -1.37112 3.34488 0
M  V30 5337 O 481.154 -0.415683 4.36123 0
M  V30 5338 C 482.655 -2.15257 3.8753 0
M  V30 5339 H 479.875 -0.18287 0.6456 0
M  V30 5340 H 482.419 0.0858116 2.0432 0
M  V30 5341 H 480.574 -2.07101 3.27395 0
M  V30 5342 H 480.988 -0.918496 5.16395 0
M  V30 5343 H 482.462 -2.60285 4.86781 0
M  V30 5344 H 482.939 -2.99063 3.21649 0
M  V30 5345 H 483.545 -1.50231 3.97883 0
M  V30 5346 N 481.861 -1.55662 -0.24637 0
M  V30 5347 C 482.771 -1.93495 -1.32653 0
M  V30 5348 C 483.787 -0.835462 -1.5263 0
M  V30 5349 O 484.963 -1.1369 -1.66242 0
M  V30 5350 C 482.028 -2.22242 -2.66101 0
M  V30 5351 C 481.089 -3.45625 -2.54641 0
M  V30 5352 C 480.322 -3.72991 -3.81724 0
M  V30 5353 O 480.545 -3.02421 -4.8363 0
M  V30 5354 O 479.479 -4.66515 -3.80325 0
M  V30 5355 H 483.305 -2.85498 -1.03559 0
M  V30 5356 H 480.89 -1.42551 -0.44717 0
M  V30 5357 H 482.772 -2.42037 -3.44958 0
M  V30 5358 H 481.447 -1.33417 -2.94926 0
M  V30 5359 H 480.354 -3.31136 -1.74067 0
M  V30 5360 H 481.687 -4.34754 -2.3076 0
M  V30 5361 N 483.339 0.512053 -1.4905 0
M  V30 5362 C 484.585 1.26874 -1.58212 0
M  V30 5363 C 484.918 1.9241 -0.263073 0
M  V30 5364 O 484.193 1.80181 0.732476 0
M  V30 5365 C 484.476 2.34428 -2.73341 0
M  V30 5366 C 484.329 1.73466 -4.15006 0
M  V30 5367 C 485.648 3.36073 -2.84154 0
M  V30 5368 H 482.767 0.459924 -0.575881 0
M  V30 5369 H 485.409 0.568587 -1.81293 0
M  V30 5370 H 483.559 2.94146 -2.53792 0
M  V30 5371 H 485.231 1.17661 -4.46042 0
M  V30 5372 H 483.474 1.03921 -4.21168 0
M  V30 5373 H 484.145 2.51426 -4.91415 0
M  V30 5374 H 486.621 2.86332 -3.01916 0
M  V30 5375 H 485.497 4.08703 -3.66406 0
M  V30 5376 H 485.758 3.97725 -1.93048 0
M  V30 5377 N 484.817 1.37938 0.762283 0
M  V30 5378 C 486.063 1.33866 1.52341 0
M  V30 5379 C 486.396 -0.0738961 1.94059 0
M  V30 5380 O 485.671 -1.03326 1.64785 0
M  V30 5381 C 485.954 2.28644 2.78197 0
M  V30 5382 C 485.807 3.78722 2.42672 0
M  V30 5383 C 487.126 2.21702 3.80179 0
M  V30 5384 H 484.245 0.487593 0.55265 0
M  V30 5385 H 486.887 1.68717 0.873767 0
M  V30 5386 H 485.037 1.99055 3.33631 0
M  V30 5387 H 486.709 4.18948 1.93081 0
M  V30 5388 H 484.952 3.96827 1.75244 0
M  V30 5389 H 485.623 4.40486 3.3268 0
M  V30 5390 H 488.099 2.47805 3.34263 0
M  V30 5391 H 486.975 2.90143 4.65949 0
M  V30 5392 H 487.236 1.21301 4.25133 0
M  V30 5393 N 486.295 -0.989507 1.22664 0
M  V30 5394 C 487.541 -1.7321 1.05481 0
M  V30 5395 C 487.874 -1.89852 -0.408635 0
M  V30 5396 O 487.149 -1.44416 -1.30285 0
M  V30 5397 C 487.432 -3.1357 1.77047 0
M  V30 5398 C 487.285 -3.04555 3.31008 0
M  V30 5399 C 488.604 -4.12812 1.5256 0
M  V30 5400 H 485.723 -0.628697 0.384589 0
M  V30 5401 H 488.365 -1.15258 1.51049 0
M  V30 5402 H 486.515 -3.63046 1.3831 0
M  V30 5403 H 488.187 -2.62674 3.7921 0
M  V30 5404 H 486.43 -2.41278 3.6051 0
M  V30 5405 H 487.101 -4.03894 3.76263 0
M  V30 5406 H 489.577 -3.72106 1.86215 0
M  V30 5407 H 488.453 -5.09132 2.05124 0
M  V30 5408 H 488.714 -4.39711 0.458936 0
M  V30 5409 N 487.773 -1.03688 -1.18687 0
M  V30 5410 C 489.184 -0.766488 -1.70241 0
M  V30 5411 C 489.535 0.713052 -1.82784 0
M  V30 5412 O 488.66 1.55529 -1.50465 0
M  V30 5413 C 489.255 -1.38475 -3.09209 0
M  V30 5414 C 487.814 -1.16276 -3.5799 0
M  V30 5415 C 486.961 -1.4778 -2.34641 0
M  V30 5416 H 489.912 -1.20378 -1.03415 0
M  V30 5417 H 489.933 -0.785939 -3.72295 0
M  V30 5418 H 489.445 -2.46157 -3.00048 0
M  V30 5419 H 487.546 -0.104508 -3.72453 0
M  V30 5420 H 487.659 -1.8571 -4.41643 0
M  V30 5421 H 486.023 -0.897366 -2.38368 0
M  V30 5422 H 486.806 -2.56562 -2.28102 0
M  V30 5423 N 489.251 1.34841 -0.815825 0
M  V30 5424 C 490.498 1.98499 -0.400535 0
M  V30 5425 C 490.826 1.64699 1.03463 0
M  V30 5426 O 490.081 0.907006 1.73412 0
M  V30 5427 C 490.38 3.53273 -0.541541 0
M  V30 5428 C 490.046 4.06966 -1.94138 0
M  V30 5429 C 488.708 4.21341 -2.32433 0
M  V30 5430 C 491.06 4.35933 -2.85677 0
M  V30 5431 C 488.388 4.62007 -3.61617 0
M  V30 5432 C 490.74 4.78042 -4.14317 0
M  V30 5433 C 489.404 4.90622 -4.52599 0
M  V30 5434 H 488.674 0.72636 -0.146566 0
M  V30 5435 H 491.321 1.60902 -1.0384 0
M  V30 5436 H 489.626 3.91387 0.179741 0
M  V30 5437 H 491.323 4.00497 -0.20085 0
M  V30 5438 H 487.913 3.96235 -1.63388 0
M  V30 5439 H 492.097 4.24372 -2.57337 0
M  V30 5440 H 487.353 4.69937 -3.91113 0
M  V30 5441 H 491.527 4.99415 -4.85342 0
M  V30 5442 H 489.154 5.2189 -5.52752 0
M  V30 5443 N 490.729 0.570148 1.46925 0
M  V30 5444 C 491.677 -0.183181 2.31878 0
M  V30 5445 C 492.671 -0.896721 1.43719 0
M  V30 5446 O 493.877 -0.816536 1.60414 0
M  V30 5447 H 490.252 -0.077944 0.74795 0
M  V30 5448 H 492.223 0.552312 2.93244 0
M  V30 5449 C 490.972 -1.19172 3.2664 0
M  V30 5450 H 490.295 -0.652088 3.94446 0
M  V30 5451 H 491.735 -1.68946 3.88887 0
M  V30 5452 C 490.194 -2.24627 2.51086 0
M  V30 5453 O 490.724 -3.31773 2.26472 0
M  V30 5454 N 488.93 -1.98898 2.11867 0
M  V30 5455 H 488.477 -1.11777 2.32086 0
M  V30 5456 H 488.435 -2.6967 1.61634 0
M  V30 5457 N 492.207 -1.54576 0.307264 0
M  V30 5458 C 493.139 -2.21212 -0.599807 0
M  V30 5459 C 494.152 -1.20685 -1.09266 0
M  V30 5460 O 495.341 -1.47244 -1.00903 0
M  V30 5461 C 492.441 -2.84994 -1.83389 0
M  V30 5462 C 491.614 -4.11511 -1.48248 0
M  V30 5463 C 490.673 -4.59038 -2.57237 0
M  V30 5464 O 489.699 -5.24095 -2.22065 0
M  V30 5465 N 490.901 -4.31884 -3.87887 0
M  V30 5466 H 493.666 -2.99686 -0.0293075 0
M  V30 5467 H 491.227 -1.61379 0.129738 0
M  V30 5468 H 493.219 -3.1372 -2.5566 0
M  V30 5469 H 491.789 -2.10324 -2.31263 0
M  V30 5470 H 491.009 -3.89728 -0.592122 0
M  V30 5471 H 492.297 -4.93879 -1.22316 0
M  V30 5472 H 491.695 -3.79778 -4.19268 0
M  V30 5473 H 490.252 -4.65304 -4.56438 0
M  V30 5474 N 493.685 -0.035106 -1.57561 0
M  V30 5475 C 494.934 0.641604 -1.91223 0
M  V30 5476 C 495.247 1.72944 -0.913761 0
M  V30 5477 O 496.453 2.46321 -1.14185 0
M  V30 5478 C 494.909 1.19249 -3.3957 0
M  V30 5479 C 494.517 0.137616 -4.47789 0
M  V30 5480 C 496.261 1.84537 -3.82291 0
M  V30 5481 C 494.168 0.700478 -5.87237 0
M  V30 5482 H 493.098 0.243417 -0.713627 0
M  V30 5483 H 495.749 -0.101382 -1.8322 0
M  V30 5484 H 494.131 1.98728 -3.42525 0
M  V30 5485 H 495.305 -0.635153 -4.56402 0
M  V30 5486 H 493.62 -0.416855 -4.14308 0
M  V30 5487 H 496.217 2.27616 -4.83834 0
M  V30 5488 H 496.56 2.69054 -3.17672 0
M  V30 5489 H 497.093 1.11739 -3.81784 0
M  V30 5490 H 493.832 -0.106693 -6.55413 0
M  V30 5491 H 493.352 1.4416 -5.82218 0
M  V30 5492 H 495.031 1.18837 -6.35993 0
M  V30 5493 N 495.163 1.55791 0.238111 0
M  V30 5494 C 496.574 1.68383 0.806472 0
M  V30 5495 C 496.925 0.634157 1.85669 0
M  V30 5496 O 496.05 -0.217913 2.153 0
M  V30 5497 C 496.645 3.05268 1.46959 0
M  V30 5498 C 495.204 3.1977 1.98555 0
M  V30 5499 C 494.351 2.64279 0.839763 0
M  V30 5500 H 497.302 1.58694 0.0137535 0
M  V30 5501 H 497.323 3.00203 2.33792 0
M  V30 5502 H 496.835 3.81643 0.704993 0
M  V30 5503 H 494.936 2.48234 2.77868 0
M  V30 5504 H 495.049 4.26788 2.17689 0
M  V30 5505 H 493.413 2.22329 1.24265 0
M  V30 5506 H 494.196 3.43187 0.0881032 0
M  V30 5507 N 496.642 -0.504142 1.49319 0
M  V30 5508 C 497.89 -1.25598 1.58334 0
M  V30 5509 C 498.211 -1.93114 0.270538 0
M  V30 5510 O 497.481 -1.82585 -0.709891 0
M  V30 5511 H 496.061 -0.466571 0.58337 0
M  V30 5512 H 498.723 -0.584547 1.85928 0
M  V30 5513 H 497.819 -2.02159 2.37778 0
M  V30 5514 N 498.12 -1.38341 -0.754957 0
M  V30 5515 C 499.068 -1.35573 -1.89005 0
M  V30 5516 C 500.062 -0.241824 -1.67665 0
M  V30 5517 O 501.268 -0.410785 -1.7525 0
M  V30 5518 H 497.643 -0.422898 -0.621821 0
M  V30 5519 H 499.614 -2.31359 -1.88455 0
M  V30 5520 C 498.363 -1.19631 -3.26471 0
M  V30 5521 H 497.686 -2.04605 -3.43477 0
M  V30 5522 H 499.126 -1.21748 -4.06144 0
M  V30 5523 C 497.585 0.0968705 -3.36761 0
M  V30 5524 O 498.115 1.07439 -3.87066 0
M  V30 5525 N 496.321 0.153242 -2.90196 0
M  V30 5526 H 495.868 -0.642908 -2.49448 0
M  V30 5527 H 495.826 1.01807 -2.9746 0
M  V30 5528 N 499.598 0.982988 -1.23187 0
M  V30 5529 C 500.823 1.76455 -1.08988 0
M  V30 5530 C 501.248 1.84726 0.354691 0
M  V30 5531 O 500.606 1.30699 1.25649 0
M  V30 5532 C 500.654 3.17094 -1.71708 0
M  V30 5533 O 499.758 4.00648 -0.977477 0
M  V30 5534 H 499.099 0.542988 -0.382177 0
M  V30 5535 H 501.629 1.23413 -1.63188 0
M  V30 5536 H 501.639 3.67684 -1.76841 0
M  V30 5537 H 500.314 3.10389 -2.76823 0
M  V30 5538 H 498.891 3.59161 -1.0029 0
M  V30 5539 N 501.076 1.04316 1.18135 0
M  V30 5540 C 502.006 0.657299 2.24058 0
M  V30 5541 C 502.987 -0.340678 1.66654 0
M  V30 5542 O 504.172 -0.220223 1.92947 0
M  V30 5543 C 501.302 0.0220715 3.47293 0
M  V30 5544 C 500.256 0.943857 4.17463 0
M  V30 5545 C 499.582 0.172973 5.3442 0
M  V30 5546 C 500.882 2.26409 4.70677 0
M  V30 5547 H 502.576 1.5428 2.56589 0
M  V30 5548 H 500.122 0.743263 1.23335 0
M  V30 5549 H 502.075 -0.259607 4.206 0
M  V30 5550 H 500.799 -0.898323 3.14003 0
M  V30 5551 H 499.458 1.20996 3.46057 0
M  V30 5552 H 499.106 -0.749907 4.97379 0
M  V30 5553 H 498.806 0.787098 5.82304 0
M  V30 5554 H 500.33 -0.101628 6.10515 0
M  V30 5555 H 501.744 2.04294 5.35665 0
M  V30 5556 H 500.141 2.8314 5.29105 0
M  V30 5557 H 501.211 2.90883 3.87962 0
M  V30 5558 N 502.554 -1.34406 0.822964 0
M  V30 5559 C 503.501 -2.29519 0.24284 0
M  V30 5560 C 504.471 -1.5359 -0.632397 0
M  V30 5561 O 505.656 -1.8196 -0.57403 0
M  V30 5562 C 502.796 -3.40032 -0.58925 0
M  V30 5563 C 501.909 -4.30899 0.308236 0
M  V30 5564 C 501.044 -5.28515 -0.533425 0
M  V30 5565 C 500.083 -6.1102 0.363444 0
M  V30 5566 N 499.22 -7.00725 -0.439147 0
M  V30 5567 H 504.06 -2.78537 1.05929 0
M  V30 5568 H 501.597 -1.3707 0.533872 0
M  V30 5569 H 503.555 -4.0279 -1.087 0
M  V30 5570 H 502.185 -2.92248 -1.37081 0
M  V30 5571 H 501.237 -3.69002 0.924203 0
M  V30 5572 H 502.549 -4.88717 0.997862 0
M  V30 5573 H 501.703 -5.96725 -1.09565 0
M  V30 5574 H 500.442 -4.71235 -1.25656 0
M  V30 5575 H 499.447 -5.41743 0.937812 0
M  V30 5576 H 500.672 -6.70381 1.08469 0
M  V30 5577 H 498.618 -6.45913 -1.14595 0
M  V30 5578 H 498.535 -7.55756 0.19209 0
M  V30 5579 H 499.803 -7.73263 -0.984124 0
M  V30 5580 N 504.032 -0.577932 -1.46621 0
M  V30 5581 C 504.98 0.170882 -2.31971 0
M  V30 5582 C 505.974 0.889086 -1.44193 0
M  V30 5583 O 507.18 0.808017 -1.60845 0
M  V30 5584 H 503.555 0.0739763 -0.748353 0
M  V30 5585 H 505.526 -0.567856 -2.92947 0
M  V30 5586 C 504.275 1.17438 -3.27267 0
M  V30 5587 H 503.598 0.63116 -3.94787 0
M  V30 5588 H 505.038 1.66882 -3.89778 0
M  V30 5589 C 503.497 2.23292 -2.52274 0
M  V30 5590 O 504.027 3.30567 -2.28229 0
M  V30 5591 N 502.233 1.97772 -2.12919 0
M  V30 5592 H 501.78 1.10545 -2.32675 0
M  V30 5593 H 501.738 2.68809 -1.63062 0
M  V30 5594 O 505.549 1.54882 -0.457577 0
M  V30 5595 H 506.24 1.93569 0.0711413 0
M  V30 END ATOM
M  V30 BEGIN BOND
M  V30 END BOND
M  V30 END CTAB
M  END
$$$$
