drugbank_target|P84098 60S ribosomal protein L19 (DB02494; DB07374; DB08437)
 OpenBabel12092120423D

  0  0  0     0  0            999 V3000
M  V30 BEGIN CTAB
M  V30 COUNTS 3452 3468 0 0 0
M  V30 BEGIN ATOM
M  V30 1 H -0.908 1.98254 -0.117106 0
M  V30 2 N 0 1.576 0 0
M  V30 3 C 0.933 2.03868 1.02534 0
M  V30 4 C 1.911 0.928543 1.3348 0
M  V30 5 O 3.095 1.19667 1.45644 0
M  V30 6 C 0.222 2.43627 2.35294 0
M  V30 7 C -0.732 3.65373 2.2001 0
M  V30 8 S 0.101 5.13292 1.52614 0
M  V30 9 C 1.257 5.56322 2.86805 0
M  V30 10 H 1.49 2.90518 0.631377 0
M  V30 11 H -0.977 1.52953 0.210867 0
M  V30 12 H 0.981 2.67203 3.11629 0
M  V30 13 H -0.358 1.57376 2.7183 0
M  V30 14 H -1.165 3.90944 3.18086 0
M  V30 15 H -1.563 3.418 1.51819 0
M  V30 16 H 0.729 5.58782 3.83104 0
M  V30 17 H 1.672 6.56266 2.65933 0
M  V30 18 H 2.08 4.83886 2.90714 0
M  V30 19 N 1.4781 -0.272755 1.55222 0
M  V30 20 C 2.7031 -1.02683 1.80197 0
M  V30 21 C 3.1281 -1.79142 0.573551 0
M  V30 22 O 2.4861 -1.74917 -0.476849 0
M  V30 23 C 2.5341 -1.9609 3.02624 0
M  V30 24 O 1.6381 -3.04863 2.77727 0
M  V30 25 H 0.9791 -0.293557 0.595584 0
M  V30 26 H 3.5091 -0.30159 2.02365 0
M  V30 27 H 3.5191 -2.38039 3.31363 0
M  V30 28 H 2.1941 -1.39851 3.91682 0
M  V30 29 H 0.7711 -2.67228 2.60084 0
M  V30 30 N 2.9562 -1.48159 -0.537278 0
M  V30 31 C 3.8892 -1.567 -1.65893 0
M  V30 32 C 4.8672 -0.41787 -1.57139 0
M  V30 33 O 6.0512 -0.628461 -1.77715 0
M  V30 34 C 3.1782 -1.48818 -3.04255 0
M  V30 35 C 2.2242 -2.68482 -3.31391 0
M  V30 36 S 3.0572 -4.30516 -3.1846 0
M  V30 37 C 4.2132 -4.2522 -4.59281 0
M  V30 38 H 4.4462 -2.5159 -1.58397 0
M  V30 39 H 1.9792 -1.36602 -0.719672 0
M  V30 40 H 3.9372 -1.44958 -3.84054 0
M  V30 41 H 2.5982 -0.552777 -3.09198 0
M  V30 42 H 1.7912 -2.59085 -4.32309 0
M  V30 43 H 1.3932 -2.69567 -2.59248 0
M  V30 44 H 3.6852 -3.94703 -5.5065 0
M  V30 45 H 4.6282 -5.26292 -4.73732 0
M  V30 46 H 5.0362 -3.55791 -4.38261 0
M  V30 47 N 4.4343 0.785586 -1.36625 0
M  V30 48 C 5.3643 1.91259 -1.33949 0
M  V30 49 C 6.3453 1.68795 -0.210325 0
M  V30 50 O 7.5303 1.89854 -0.408561 0
M  V30 51 C 4.6603 3.28339 -1.13186 0
M  V30 52 C 3.6143 3.65335 -2.22967 0
M  V30 53 C 2.9403 5.00806 -1.87342 0
M  V30 54 C 4.2403 3.7352 -3.65075 0
M  V30 55 H 5.9343 1.93755 -2.28253 0
M  V30 56 H 3.4803 0.930788 -1.09874 0
M  V30 57 H 5.4333 4.06804 -1.09948 0
M  V30 58 H 4.1573 3.2624 -0.153332 0
M  V30 59 H 2.8163 2.89169 -2.25337 0
M  V30 60 H 2.4643 4.95233 -0.880545 0
M  V30 61 H 2.1643 5.26529 -2.60846 0
M  V30 62 H 3.6883 5.81687 -1.85667 0
M  V30 63 H 5.1023 4.42168 -3.64911 0
M  V30 64 H 3.4993 4.10731 -4.37516 0
M  V30 65 H 4.5693 2.74527 -3.99703 0
M  V30 66 N 5.9124 1.20967 1.01018 0
M  V30 67 C 7.3284 0.965905 1.27053 0
M  V30 68 C 7.5284 -0.350785 1.98423 0
M  V30 69 O 6.5844 -1.07773 2.28344 0
M  V30 70 C 7.8974 2.15294 2.09926 0
M  V30 71 C 9.4454 2.19463 2.23171 0
M  V30 72 C 9.9204 3.3767 3.09424 0
M  V30 73 N 11.4114 3.37724 3.17012 0
M  V30 74 C 12.1464 4.25837 3.83993 0
M  V30 75 N 11.6424 5.24138 4.53047 0
M  V30 76 N 13.4354 4.1366 3.80581 0
M  V30 77 H 5.5864 2.0565 0.531194 0
M  V30 78 H 7.8494 0.90024 0.297106 0
M  V30 79 H 7.5554 3.10684 1.64828 0
M  V30 80 H 7.4294 2.13923 3.10672 0
M  V30 81 H 9.8164 1.24632 2.6749 0
M  V30 82 H 9.8974 2.2488 1.21912 0
M  V30 83 H 9.5414 4.32791 2.65808 0
M  V30 84 H 9.4714 3.29491 4.10784 0
M  V30 85 H 11.9624 2.6658 2.6785 0
M  V30 86 H 12.2754 5.87684 5.01844 0
M  V30 87 H 10.6204 5.28068 4.5185 0
M  V30 88 H 13.8114 3.36127 3.25785 0
M  V30 89 H 13.9844 4.82538 4.32505 0
M  V30 90 N 7.3905 -1.2043 1.01659 0
M  V30 91 C 8.3205 -2.25466 0.607226 0
M  V30 92 C 9.3015 -1.65853 -0.377716 0
M  V30 93 O 10.4865 -1.92409 -0.263149 0
M  V30 94 C 7.6165 -3.47256 -0.0552949 0
M  V30 95 C 6.5705 -4.19462 0.850632 0
M  V30 96 C 5.8965 -5.34673 0.0538859 0
M  V30 97 C 7.1965 -4.75603 2.15868 0
M  V30 98 H 8.8905 -2.59962 1.48526 0
M  V30 99 H 6.4365 -1.2496 0.715605 0
M  V30 100 H 8.3895 -4.19917 -0.353233 0
M  V30 101 H 7.1135 -3.11924 -0.968045 0
M  V30 102 H 5.7725 -3.48667 1.13257 0
M  V30 103 H 5.4205 -4.95585 -0.860514 0
M  V30 104 H 5.1205 -5.83913 0.657192 0
M  V30 105 H 6.6445 -6.10138 -0.237598 0
M  V30 106 H 8.0585 -5.40083 1.92311 0
M  V30 107 H 6.4555 -5.3528 2.71284 0
M  V30 108 H 7.5255 -3.94346 2.82169 0
M  V30 109 N 8.8686 -0.792821 -1.36206 0
M  V30 110 C 9.8006 -0.151469 -2.28699 0
M  V30 111 C 10.8136 0.641262 -1.49638 0
M  V30 112 O 12.0026 0.475885 -1.72039 0
M  V30 113 C 9.1026 0.808424 -3.29117 0
M  V30 114 C 8.2756 0.0650202 -4.37352 0
M  V30 115 C 7.3346 0.941358 -5.17711 0
M  V30 116 O 6.3606 0.397352 -5.67811 0
M  V30 117 N 7.5626 2.2652 -5.3448 0
M  V30 118 H 10.3276 -0.945982 -2.84379 0
M  V30 119 H 7.8886 -0.647032 -1.48409 0
M  V30 120 H 9.8806 1.3986 -3.79765 0
M  V30 121 H 8.4506 1.5038 -2.74052 0
M  V30 122 H 7.6706 -0.706255 -3.87822 0
M  V30 123 H 8.9586 -0.447847 -5.06825 0
M  V30 124 H 8.3566 2.73128 -4.95396 0
M  V30 125 H 6.9136 2.80493 -5.88359 0
M  V30 126 N 10.3467 1.47872 -0.545128 0
M  V30 127 C 11.2937 2.29849 0.2093 0
M  V30 128 C 12.2637 1.38313 0.919707 0
M  V30 129 O 13.4487 1.67277 0.917772 0
M  V30 130 C 10.5887 3.22019 1.24088 0
M  V30 131 C 9.7017 4.2864 0.537778 0
M  V30 132 C 8.8367 5.07973 1.5536 0
M  V30 133 C 7.8757 6.06381 0.8348 0
M  V30 134 N 7.0127 6.78717 1.79688 0
M  V30 135 H 11.8527 2.93845 -0.49591 0
M  V30 136 H 9.3897 1.44848 -0.256389 0
M  V30 137 H 11.3477 3.73868 1.85144 0
M  V30 138 H 9.9777 2.59914 1.91428 0
M  V30 139 H 9.0297 3.7994 -0.187046 0
M  V30 140 H 10.3417 4.98793 -0.0258907 0
M  V30 141 H 9.4957 5.63912 2.23803 0
M  V30 142 H 8.2347 4.37693 2.15118 0
M  V30 143 H 7.2397 5.49631 0.136388 0
M  V30 144 H 8.4647 6.78665 0.24313 0
M  V30 145 H 6.4107 6.11177 2.38326 0
M  V30 146 H 6.3277 7.44998 1.28505 0
M  V30 147 H 7.5957 7.39237 2.47282 0
M  V30 148 N 11.8248 0.280983 1.55075 0
M  V30 149 C 13.2408 -0.0729964 1.59433 0
M  V30 150 C 13.4408 -1.5411 1.29817 0
M  V30 151 O 12.4968 -2.29086 1.06187 0
M  V30 152 C 13.8098 0.306921 2.9913 0
M  V30 153 C 15.3578 0.254023 3.11968 0
M  V30 154 C 15.8328 0.608467 4.5394 0
M  V30 155 N 17.3238 0.560241 4.59799 0
M  V30 156 C 18.0588 0.80722 5.6769 0
M  V30 157 N 17.5548 1.11912 6.83701 0
M  V30 158 N 19.3478 0.735623 5.57266 0
M  V30 159 H 11.4988 1.238 1.7259 0
M  V30 160 H 13.7618 0.500547 0.805082 0
M  V30 161 H 13.4678 1.32816 3.25657 0
M  V30 162 H 13.3418 -0.349363 3.75579 0
M  V30 163 H 15.7288 -0.75794 2.852 0
M  V30 164 H 15.8098 0.944649 2.37718 0
M  V30 165 H 15.4538 1.61814 4.81434 0
M  V30 166 H 15.3838 -0.104013 5.26497 0
M  V30 167 H 17.8748 0.329288 3.76463 0
M  V30 168 H 18.1878 1.29409 7.61888 0
M  V30 169 H 16.5328 1.15695 6.85303 0
M  V30 170 H 19.7238 0.491752 4.6551 0
M  V30 171 H 19.8968 0.931482 6.4127 0
M  V30 172 N 13.3029 -1.57598 0.00835791 0
M  V30 173 C 14.2329 -2.1198 -0.979113 0
M  V30 174 C 15.2139 -1.03091 -1.35301 0
M  V30 175 O 16.3989 -1.30818 -1.43528 0
M  V30 176 C 13.5289 -2.62995 -2.26828 0
M  V30 177 C 12.4829 -3.76485 -2.03576 0
M  V30 178 C 11.8089 -4.13846 -3.38579 0
M  V30 179 C 13.1089 -5.0342 -1.39161 0
M  V30 180 H 14.8029 -2.94738 -0.526281 0
M  V30 181 H 12.3489 -1.41783 -0.251704 0
M  V30 182 H 14.3019 -2.99669 -2.96271 0
M  V30 183 H 13.0259 -1.7737 -2.7424 0
M  V30 184 H 11.6849 -3.40217 -1.36557 0
M  V30 185 H 11.3329 -3.25232 -3.83709 0
M  V30 186 H 11.0329 -4.90312 -3.23834 0
M  V30 187 H 12.5569 -4.53086 -4.09323 0
M  V30 188 H 13.9709 -5.37812 -1.98573 0
M  V30 189 H 12.3679 -5.84746 -1.34878 0
M  V30 190 H 13.4379 -4.83548 -0.361868 0
M  V30 191 N 14.781 0.264519 -1.55364 0
M  V30 192 C 15.744 1.31046 -1.88042 0
M  V30 193 C 16.744 1.41943 -0.755569 0
M  V30 194 O 17.934 1.40947 -1.02369 0
M  V30 195 C 15.066 2.69067 -2.09323 0
M  V30 196 H 16.259 1.03297 -2.81549 0
M  V30 197 H 13.812 0.502989 -1.47986 0
M  V30 198 H 14.547 3.01982 -1.18226 0
M  V30 199 H 14.332 2.62542 -2.91229 0
M  V30 200 H 15.822 3.44623 -2.35848 0
M  V30 201 N 16.2591 1.48442 0.529413 0
M  V30 202 C 17.4841 1.60406 1.31471 0
M  V30 203 C 17.9091 0.264738 1.86228 0
M  V30 204 O 17.2671 -0.763668 1.64432 0
M  V30 205 C 17.3151 2.65419 2.44101 0
M  V30 206 O 16.4191 2.22618 3.47153 0
M  V30 207 H 15.7601 0.537863 0.389357 0
M  V30 208 H 18.2901 1.94432 0.636965 0
M  V30 209 H 18.3001 2.86709 2.90279 0
M  V30 210 H 16.9751 3.62652 2.03608 0
M  V30 211 H 15.5521 2.11543 3.0709 0
M  V30 212 N 17.7372 -0.778329 1.37039 0
M  V30 213 C 18.9622 -1.57248 1.35233 0
M  V30 214 C 19.3872 -1.87999 -0.0615568 0
M  V30 215 O 18.7452 -1.48734 -1.03672 0
M  V30 216 C 18.7932 -2.86353 2.19167 0
M  V30 217 O 17.8972 -3.80442 1.59178 0
M  V30 218 H 17.2382 -0.476569 0.462362 0
M  V30 219 H 19.7682 -0.963853 1.80474 0
M  V30 220 H 19.7782 -3.35519 2.32145 0
M  V30 221 H 18.4532 -2.63299 3.21942 0
M  V30 222 H 17.0302 -3.39067 1.55203 0
M  V30 223 N 19.2153 -1.21501 -1.00376 0
M  V30 224 C 20.4613 -1.03452 -1.74429 0
M  V30 225 C 20.7943 0.430764 -1.89362 0
M  V30 226 O 20.0693 1.31962 -1.42886 0
M  V30 227 C 20.3523 -1.73375 -3.15615 0
M  V30 228 C 20.2053 -3.27431 -3.08397 0
M  V30 229 C 21.5243 -1.47732 -4.14564 0
M  V30 230 H 18.6433 -0.377226 -0.633143 0
M  V30 231 H 21.2853 -1.49693 -1.17013 0
M  V30 232 H 19.4353 -1.34064 -3.64636 0
M  V30 233 H 21.1073 -3.76119 -2.67081 0
M  V30 234 H 19.3503 -3.5767 -2.45468 0
M  V30 235 H 20.0213 -3.71524 -4.08258 0
M  V30 236 H 22.4973 -1.8186 -3.74254 0
M  V30 237 H 21.3733 -1.99169 -5.11491 0
M  V30 238 H 21.6343 -0.407589 -4.40217 0
M  V30 239 N 20.6934 1.19889 -1.02296 0
M  V30 240 C 21.6234 2.25141 -0.619174 0
M  V30 241 C 22.6044 1.66051 0.368915 0
M  V30 242 O 23.7894 1.92546 0.252941 0
M  V30 243 C 20.9194 3.4728 0.0368783 0
M  V30 244 C 19.8734 4.19005 -0.872865 0
M  V30 245 C 19.1994 5.34637 -0.0822402 0
M  V30 246 C 20.4994 4.74452 -2.18387 0
M  V30 247 H 22.1934 2.59171 -1.49903 0
M  V30 248 H 19.7394 1.24579 -0.722222 0
M  V30 249 H 21.6924 4.20098 0.330958 0
M  V30 250 H 20.4164 3.12433 0.95149 0
M  V30 251 H 19.0754 3.48061 -1.15105 0
M  V30 252 H 18.7234 4.96034 0.83422 0
M  V30 253 H 18.4234 5.83557 -0.688149 0
M  V30 254 H 19.9474 6.10255 0.205238 0
M  V30 255 H 21.3614 5.39055 -1.95172 0
M  V30 256 H 19.7584 5.33834 -2.74119 0
M  V30 257 H 20.8284 3.92844 -2.84257 0
M  V30 258 N 22.1715 0.800033 1.35784 0
M  V30 259 C 23.5875 0.482977 1.52117 0
M  V30 260 C 23.7875 -0.996948 1.75109 0
M  V30 261 O 22.8435 -1.78216 1.78872 0
M  V30 262 C 24.1565 1.32264 2.70049 0
M  V30 263 C 25.7045 1.31742 2.83924 0
M  V30 264 C 26.1795 2.14106 4.04874 0
M  V30 265 N 27.6705 2.11607 4.12039 0
M  V30 266 C 28.4055 2.72099 5.04727 0
M  V30 267 N 27.9015 3.41492 6.02789 0
M  V30 268 N 29.6945 2.61776 4.97423 0
M  V30 269 H 21.8455 1.75856 1.19115 0
M  V30 270 H 24.1085 0.748122 0.582252 0
M  V30 271 H 23.8145 2.37261 2.59616 0
M  V30 272 H 23.6885 0.971303 3.6448 0
M  V30 273 H 26.0755 0.275333 2.93813 0
M  V30 274 H 26.1565 1.70859 1.9037 0
M  V30 275 H 25.8005 3.18351 3.95746 0
M  V30 276 H 25.7305 1.72353 4.97596 0
M  V30 277 H 28.2215 1.61112 3.41835 0
M  V30 278 H 28.5345 3.84953 6.70098 0
M  V30 279 H 26.8795 3.45596 6.02983 0
M  V30 280 H 30.0705 2.07157 4.19766 0
M  V30 281 H 30.2435 3.0921 5.69468 0
M  V30 282 N 23.6496 -1.47581 0.552962 0
M  V30 283 C 24.8896 -2.04379 0.0296245 0
M  V30 284 C 25.2536 -1.4185 -1.29393 0
M  V30 285 O 26.4546 -1.89669 -1.90471 0
M  V30 286 C 24.7256 -3.57339 -0.0661371 0
M  V30 287 S 26.2846 -4.35511 -0.536213 0
M  V30 288 H 23.1026 -0.710625 0.0230991 0
M  V30 289 H 25.7046 -1.81005 0.738734 0
M  V30 290 H 24.4086 -4.00374 0.901596 0
M  V30 291 H 23.9396 -3.85202 -0.798931 0
M  V30 292 H 25.9546 -4.6253 -1.79668 0
M  V30 293 N 25.1277 -0.289203 -1.54924 0
M  V30 294 C 26.3757 0.322879 -1.99504 0
M  V30 295 C 26.6967 1.55313 -1.1791 0
M  V30 296 O 25.9667 1.94001 -0.272097 0
M  V30 297 H 24.5467 0.122291 -0.736922 0
M  V30 298 H 27.2087 -0.397802 -1.90797 0
M  V30 299 H 26.3047 0.603061 -3.06218 0
M  V30 300 N 26.6058 1.57591 -0.0167156 0
M  V30 301 C 27.5528 2.09462 0.969251 0
M  V30 302 C 28.5228 0.99381 1.33089 0
M  V30 303 O 29.7078 1.26726 1.42636 0
M  V30 304 C 26.8478 2.61622 2.25051 0
M  V30 305 C 25.9608 3.85666 1.94642 0
M  V30 306 C 25.0958 4.26266 3.16972 0
M  V30 307 C 24.1348 5.43101 2.82326 0
M  V30 308 N 23.2718 5.78915 3.97243 0
M  V30 309 H 28.1118 2.93428 0.519997 0
M  V30 310 H 25.6488 1.45044 0.245087 0
M  V30 311 H 27.6068 2.89949 2.99976 0
M  V30 312 H 26.2368 1.80505 2.67615 0
M  V30 313 H 25.2888 3.64145 1.10013 0
M  V30 314 H 26.6008 4.70678 1.65117 0
M  V30 315 H 25.7548 4.55963 4.00228 0
M  V30 316 H 24.4938 3.39996 3.49648 0
M  V30 317 H 23.4988 5.1311 1.97479 0
M  V30 318 H 24.7238 6.3106 2.50879 0
M  V30 319 H 22.6698 4.95602 4.29785 0
M  V30 320 H 22.5868 6.58539 3.71299 0
M  V30 321 H 23.8548 6.13212 4.81239 0
M  V30 322 N 28.0839 -0.256276 1.55502 0
M  V30 323 C 29.0309 -1.31714 1.89526 0
M  V30 324 C 30.0009 -1.4828 0.748479 0
M  V30 325 O 31.1859 -1.62416 1.00128 0
M  V30 326 C 28.3259 -2.66933 2.18725 0
M  V30 327 C 27.4389 -2.58452 3.4616 0
M  V30 328 C 26.5739 -3.85961 3.64976 0
M  V30 329 C 25.6129 -3.72059 4.86044 0
M  V30 330 N 24.7499 -4.9144 5.01429 0
M  V30 331 H 29.5899 -1.01998 2.80001 0
M  V30 332 H 27.1269 -0.492413 1.38613 0
M  V30 333 H 29.0849 -3.4563 2.33657 0
M  V30 334 H 27.7149 -2.94816 1.31466 0
M  V30 335 H 26.7669 -1.71374 3.3961 0
M  V30 336 H 28.0789 -2.44085 4.34999 0
M  V30 337 H 27.2329 -4.73101 3.79816 0
M  V30 338 H 25.9719 -4.03215 2.74353 0
M  V30 339 H 24.9769 -2.83302 4.7119 0
M  V30 340 H 26.2019 -3.56309 5.78118 0
M  V30 341 H 24.1479 -5.09072 4.13741 0
M  V30 342 H 24.0649 -4.79668 5.84341 0
M  V30 343 H 25.3329 -5.80104 5.20672 0
M  V30 344 N 29.562 -1.4872 -0.521534 0
M  V30 345 C 30.509 -1.63871 -1.62527 0
M  V30 346 C 31.479 -0.480559 -1.58996 0
M  V30 347 O 32.664 -0.705085 -1.77294 0
M  V30 348 C 29.804 -1.69227 -3.00759 0
M  V30 349 C 28.917 -2.96207 -3.14461 0
M  V30 350 C 28.052 -2.92671 -4.43303 0
M  V30 351 C 27.091 -4.14318 -4.50563 0
M  V30 352 N 26.228 -4.0881 -5.70805 0
M  V30 353 H 31.068 -2.58123 -1.48918 0
M  V30 354 H 28.605 -1.28 -0.724878 0
M  V30 355 H 30.563 -1.70314 -3.80853 0
M  V30 356 H 29.193 -0.784586 -3.1312 0
M  V30 357 H 28.245 -3.04826 -2.27564 0
M  V30 358 H 29.557 -3.86192 -3.15686 0
M  V30 359 H 28.711 -2.92206 -5.31696 0
M  V30 360 H 27.45 -2.00429 -4.44612 0
M  V30 361 H 26.455 -4.15049 -3.60575 0
M  V30 362 H 27.68 -5.07729 -4.50986 0
M  V30 363 H 25.626 -3.19394 -5.72995 0
M  V30 364 H 25.543 -4.92509 -5.7356 0
M  V30 365 H 26.811 -4.12418 -6.61462 0
M  V30 366 N 31.0401 0.771051 -1.3745 0
M  V30 367 C 32.2861 1.5319 -1.32894 0
M  V30 368 C 32.6191 1.94008 0.0862511 0
M  V30 369 O 31.8941 1.64124 1.04373 0
M  V30 370 C 32.1771 2.79648 -2.26868 0
M  V30 371 C 32.0301 2.45079 -3.77169 0
M  V30 372 C 33.3491 3.81583 -2.19277 0
M  V30 373 H 30.4681 0.555744 -0.484064 0
M  V30 374 H 33.1101 0.884492 -1.68157 0
M  V30 375 H 31.2601 3.34891 -1.96926 0
M  V30 376 H 32.9321 1.95745 -4.1771 0
M  V30 377 H 31.1751 1.77767 -3.95704 0
M  V30 378 H 31.8461 3.35478 -4.38359 0
M  V30 379 H 34.3221 3.35835 -2.45671 0
M  V30 380 H 33.1981 4.67787 -2.87171 0
M  V30 381 H 33.4591 4.25897 -1.18592 0
M  V30 382 N 32.5182 1.22032 0.997298 0
M  V30 383 C 33.7642 1.05382 1.73972 0
M  V30 384 C 34.1192 -0.407419 1.88037 0
M  V30 385 O 33.4122 -1.29811 1.40924 0
M  V30 386 C 33.6062 1.69345 3.14733 0
M  V30 387 C 33.4352 3.21537 3.14395 0
M  V30 388 C 32.2052 3.9062 3.20537 0
M  V30 389 C 34.4032 4.18527 2.98897 0
M  V30 390 N 32.3852 5.29935 3.09906 0
M  V30 391 C 33.7562 5.44645 2.96247 0
M  V30 392 C 35.8112 4.09476 2.83255 0
M  V30 393 C 34.5142 6.62752 2.79557 0
M  V30 394 C 36.5402 5.27228 2.67926 0
M  V30 395 C 35.9022 6.52262 2.65959 0
M  V30 396 H 32.0012 0.440018 0.646458 0
M  V30 397 H 34.5852 1.54505 1.18475 0
M  V30 398 H 32.7562 1.22778 3.68484 0
M  V30 399 H 34.4882 1.45828 3.77513 0
M  V30 400 H 31.2432 3.41592 3.28043 0
M  V30 401 H 31.6672 6.02926 3.07912 0
M  V30 402 H 36.3092 3.13598 2.83577 0
M  V30 403 H 34.0272 7.58783 2.77982 0
M  V30 404 H 37.6132 5.22053 2.56812 0
M  V30 405 H 36.4932 7.41844 2.54239 0
M  V30 406 N 33.9963 -1.19345 1.0293 0
M  V30 407 C 34.9263 -2.2481 0.631105 0
M  V30 408 C 35.9073 -1.66245 -0.360104 0
M  V30 409 O 37.0923 -1.92677 -0.242726 0
M  V30 410 C 34.2223 -3.47295 -0.0184607 0
M  V30 411 C 33.1763 -4.18536 0.895073 0
M  V30 412 C 32.5023 -5.34586 0.110592 0
M  V30 413 C 33.8023 -4.73287 2.209 0
M  V30 414 H 35.4963 -2.58372 1.51275 0
M  V30 415 H 33.0423 -1.24194 0.728818 0
M  V30 416 H 34.9953 -4.20268 -0.308675 0
M  V30 417 H 33.7193 -3.12933 -0.934907 0
M  V30 418 H 32.3783 -3.47446 1.16949 0
M  V30 419 H 32.0263 -4.96469 -0.807902 0
M  V30 420 H 31.7263 -5.83183 0.719087 0
M  V30 421 H 33.2503 -6.10355 -0.172871 0
M  V30 422 H 34.6643 -5.38013 1.98028 0
M  V30 423 H 33.0613 -5.32373 2.76946 0
M  V30 424 H 34.1313 -3.91331 2.86336 0
M  V30 425 N 35.4744 -0.807222 -1.35358 0
M  V30 426 C 36.7514 -0.311126 -1.9311 0
M  V30 427 C 37.1314 1.19937 -1.73719 0
M  V30 428 O 36.4794 1.99918 -1.10657 0
M  V30 429 C 36.6894 -0.723226 -3.41424 0
M  V30 430 C 38.0374 -0.713078 -4.18569 0
M  V30 431 O 39.0614 -0.664811 -3.49941 0
M  V30 432 O 37.9204 -0.772022 -5.41019 0
M  V30 433 H 35.0144 -0.081526 -0.822972 0
M  V30 434 H 37.5604 -0.890962 -1.4443 0
M  V30 435 H 36.3324 -1.76426 -3.4927 0
M  V30 436 H 35.9554 -0.118232 -3.97424 0
M  V30 437 N 36.9525 1.47285 -0.560781 0
M  V30 438 C 38.3635 1.86258 -0.128343 0
M  V30 439 C 38.7145 1.46699 1.30284 0
M  V30 440 O 37.8395 0.871698 1.98067 0
M  V30 441 C 38.4345 3.38044 -0.22614 0
M  V30 442 C 36.9935 3.76096 0.151283 0
M  V30 443 C 36.1405 2.71335 -0.572084 0
M  V30 444 H 39.0915 1.38752 -0.770297 0
M  V30 445 H 39.1125 3.76441 0.554322 0
M  V30 446 H 38.6245 3.66806 -1.26788 0
M  V30 447 H 36.7255 3.52951 1.19399 0
M  V30 448 H 36.8385 4.78641 -0.209765 0
M  V30 449 H 35.2025 2.54696 -0.0147653 0
M  V30 450 H 35.9855 3.02938 -1.61504 0
M  V30 451 N 38.4306 0.297415 1.54768 0
M  V30 452 C 39.3786 -0.596051 2.24833 0
M  V30 453 C 40.3726 -1.13992 1.25308 0
M  V30 454 O 41.5786 -1.09098 1.4317 0
M  V30 455 H 37.9536 -0.210814 0.721846 0
M  V30 456 H 39.9246 0.0174667 2.98395 0
M  V30 457 C 38.6736 -1.75818 2.99972 0
M  V30 458 H 37.9966 -1.3489 3.76357 0
M  V30 459 H 39.4366 -2.35949 3.52284 0
M  V30 460 C 37.8956 -2.66014 2.06732 0
M  V30 461 O 38.4256 -3.67009 1.63302 0
M  V30 462 N 36.6316 -2.33669 1.72763 0
M  V30 463 H 36.1786 -1.51586 2.08277 0
M  V30 464 H 36.1366 -2.94285 1.10652 0
M  V30 465 N 39.9087 -1.5758 0.0250728 0
M  V30 466 C 40.8187 -2.1343 -0.973905 0
M  V30 467 C 41.8347 -1.08556 -1.35984 0
M  V30 468 O 43.0107 -1.40592 -1.44207 0
M  V30 469 C 40.0757 -2.64703 -2.23904 0
M  V30 470 C 39.1367 -3.84276 -1.91391 0
M  V30 471 C 38.3697 -4.33095 -3.11873 0
M  V30 472 O 38.5927 -3.81107 -4.24398 0
M  V30 473 O 37.5267 -5.24984 -2.94406 0
M  V30 474 H 41.3527 -2.99057 -0.529036 0
M  V30 475 H 38.9377 -1.48118 -0.195288 0
M  V30 476 H 40.8197 -2.97769 -2.98181 0
M  V30 477 H 39.4947 -1.82161 -2.6758 0
M  V30 478 H 38.4017 -3.56143 -1.14511 0
M  V30 479 H 39.7347 -4.67968 -1.52534 0
M  V30 480 N 41.3868 0.248026 -1.55636 0
M  V30 481 C 42.6148 0.993808 -1.81469 0
M  V30 482 C 43.0298 1.78991 -0.60064 0
M  V30 483 O 42.3868 1.77345 0.430682 0
M  V30 484 C 42.4378 1.93258 -3.05506 0
M  V30 485 O 42.1588 1.16869 -4.22224 0
M  V30 486 C 43.6598 2.79444 -3.4413 0
M  V30 487 H 40.8798 0.292486 -0.603898 0
M  V30 488 H 43.4238 0.271253 -2.02693 0
M  V30 489 H 41.5788 2.60943 -2.86335 0
M  V30 490 H 41.9928 1.80359 -4.92515 0
M  V30 491 H 43.4668 3.41066 -4.34026 0
M  V30 492 H 43.9438 3.50499 -2.64665 0
M  V30 493 H 44.5498 2.17214 -3.65648 0
M  V30 494 N 42.8649 1.48995 0.513639 0
M  V30 495 C 43.8129 1.65199 1.63744 0
M  V30 496 C 44.8069 0.51809 1.61283 0
M  V30 497 O 46.0129 0.697335 1.65943 0
M  V30 498 H 42.3879 0.52069 0.542574 0
M  V30 499 H 44.3589 2.59552 1.47226 0
M  V30 500 C 43.1079 1.72409 3.01945 0
M  V30 501 H 42.4309 2.59029 3.04539 0
M  V30 502 H 43.8709 1.87785 3.80148 0
M  V30 503 C 42.3299 0.46618 3.33659 0
M  V30 504 O 42.8599 -0.413744 3.99564 0
M  V30 505 N 41.0659 0.332931 2.88687 0
M  V30 506 H 40.6129 1.04996 2.35231 0
M  V30 507 H 40.5709 -0.507665 3.10274 0
M  V30 508 N 44.343 -0.763751 1.37857 0
M  V30 509 C 45.253 -1.90817 1.36478 0
M  V30 510 C 46.269 -1.71997 0.263248 0
M  V30 511 O 47.445 -1.95095 0.499979 0
M  V30 512 C 44.51 -3.2605 1.17864 0
M  V30 513 C 43.571 -3.57467 2.3773 0
M  V30 514 C 42.804 -4.86249 2.19995 0
M  V30 515 O 43.027 -5.57884 1.18836 0
M  V30 516 O 41.961 -5.16911 3.08361 0
M  V30 517 H 45.787 -1.94933 2.32884 0
M  V30 518 H 43.372 -0.907619 1.1867 0
M  V30 519 H 45.254 -4.06924 1.09504 0
M  V30 520 H 43.929 -3.22769 0.245372 0
M  V30 521 H 42.836 -2.76796 2.51664 0
M  V30 522 H 44.169 -3.655 3.29652 0
M  V30 523 N 45.8211 -1.22559 -0.990812 0
M  V30 524 C 47.0701 -1.04553 -1.72486 0
M  V30 525 C 47.3831 0.419349 -1.91052 0
M  V30 526 O 48.5891 0.719121 -2.61803 0
M  V30 527 C 47.0451 -1.82231 -3.10355 0
M  V30 528 C 46.6531 -3.32981 -2.99713 0
M  V30 529 C 48.3971 -1.7268 -3.87791 0
M  V30 530 C 46.3041 -4.03091 -4.32748 0
M  V30 531 H 45.2341 -0.387614 -0.646739 0
M  V30 532 H 47.8851 -1.46429 -1.10593 0
M  V30 533 H 46.2671 -1.33155 -3.72942 0
M  V30 534 H 47.4411 -3.89466 -2.46278 0
M  V30 535 H 45.7561 -3.43231 -2.35758 0
M  V30 536 H 48.3531 -2.22381 -4.86262 0
M  V30 537 H 48.6961 -0.687607 -4.10582 0
M  V30 538 H 49.2291 -2.1931 -3.31885 0
M  V30 539 H 45.9681 -5.07273 -4.15156 0
M  V30 540 H 45.4881 -3.51394 -4.86089 0
M  V30 541 H 47.1671 -4.08804 -5.01486 0
M  V30 542 N 47.2992 1.18797 -1.03562 0
M  V30 543 C 48.2622 2.20464 -0.626769 0
M  V30 544 C 49.2622 1.57721 0.313173 0
M  V30 545 O 50.4522 1.73917 0.0992615 0
M  V30 546 C 47.5842 3.40802 0.0818498 0
M  V30 547 H 48.7772 2.58149 -1.5264 0
M  V30 548 H 46.3302 1.32593 -0.827578 0
M  V30 549 H 47.0652 3.08642 0.995518 0
M  V30 550 H 46.8502 3.8758 -0.593652 0
M  V30 551 H 48.3402 4.16092 0.354584 0
M  V30 552 N 48.7773 0.814389 1.34928 0
M  V30 553 C 49.7253 0.218424 2.31572 0
M  V30 554 C 50.7193 -0.636128 1.57002 0
M  V30 555 O 51.9253 -0.52842 1.72069 0
M  V30 556 H 48.3003 0.0518799 0.750208 0
M  V30 557 H 50.2713 1.04852 2.79372 0
M  V30 558 C 49.0203 -0.61207 3.4227 0
M  V30 559 H 48.3433 0.0361578 3.99784 0
M  V30 560 H 49.7833 -0.995317 4.12152 0
M  V30 561 C 48.2423 -1.78087 2.85984 0
M  V30 562 O 48.7723 -2.8787 2.80168 0
M  V30 563 N 46.9783 -1.59488 2.42924 0
M  V30 564 H 46.5253 -0.701874 2.47854 0
M  V30 565 H 46.4833 -2.37846 2.05613 0
M  V30 566 N 50.2554 -1.46986 0.568584 0
M  V30 567 C 51.2184 -2.28624 -0.162366 0
M  V30 568 C 52.2184 -1.37596 -0.832103 0
M  V30 569 O 53.4084 -1.60115 -0.68622 0
M  V30 570 C 50.5404 -3.17596 -1.23878 0
M  V30 571 H 51.7334 -2.94722 0.554899 0
M  V30 572 H 49.2864 -1.52863 0.325976 0
M  V30 573 H 50.0214 -2.56214 -1.98808 0
M  V30 574 H 49.8064 -3.846 -0.763219 0
M  V30 575 H 51.2964 -3.79078 -1.75185 0
M  V30 576 N 51.7335 -0.305618 -1.54608 0
M  V30 577 C 52.6815 0.584119 -2.25146 0
M  V30 578 C 53.6755 1.13326 -1.25911 0
M  V30 579 O 54.8815 1.08337 -1.43747 0
M  V30 580 H 51.2565 0.206983 -0.722954 0
M  V30 581 H 53.2275 -0.033291 -2.98381 0
M  V30 582 C 51.9765 1.74225 -3.009 0
M  V30 583 H 51.2995 1.32892 -3.77067 0
M  V30 584 H 52.7395 2.34077 -3.53531 0
M  V30 585 C 51.1985 2.64914 -2.0814 0
M  V30 586 O 51.7285 3.66137 -1.65246 0
M  V30 587 N 49.9345 2.3275 -1.74 0
M  V30 588 H 49.4815 1.50479 -2.09078 0
M  V30 589 H 49.4395 2.93694 -1.12211 0
M  V30 590 N 53.2116 1.57565 -0.0334293 0
M  V30 591 C 54.4366 1.96689 0.657895 0
M  V30 592 C 54.8616 0.910057 1.64619 0
M  V30 593 O 54.2196 -0.128598 1.80843 0
M  V30 594 C 54.2676 3.34905 1.33683 0
M  V30 595 O 53.3716 3.31574 2.45219 0
M  V30 596 H 52.7126 0.641205 0.172489 0
M  V30 597 H 55.2426 2.04372 -0.0965621 0
M  V30 598 H 55.2526 3.71234 1.69262 0
M  V30 599 H 53.9276 4.11366 0.612411 0
M  V30 600 H 52.5046 3.06968 2.11719 0
M  V30 601 N 54.6897 -0.239769 1.55765 0
M  V30 602 C 56.1057 -0.588624 1.48349 0
M  V30 603 C 56.3057 -1.88005 0.72502 0
M  V30 604 O 55.3617 -2.51186 0.257269 0
M  V30 605 C 56.6747 -0.68474 2.928 0
M  V30 606 C 58.2227 -0.77659 3.03213 0
M  V30 607 C 58.6977 -0.904207 4.48986 0
M  V30 608 N 60.1887 -0.968896 4.52953 0
M  V30 609 C 60.9237 -1.08703 5.63002 0
M  V30 610 N 60.4197 -1.17026 6.82845 0
M  V30 611 N 62.2127 -1.12074 5.50814 0
M  V30 612 H 54.3637 0.607911 2.03515 0
M  V30 613 H 56.6267 0.21083 0.924259 0
M  V30 614 H 56.3327 0.194284 3.51163 0
M  V30 615 H 56.2067 -1.55435 3.43686 0
M  V30 616 H 58.5937 -1.64606 2.44926 0
M  V30 617 H 58.6747 0.118315 2.55526 0
M  V30 618 H 58.3187 -0.0392633 5.07885 0
M  V30 619 H 58.2487 -1.81426 4.9436 0
M  V30 620 H 60.7397 -0.915633 3.6664 0
M  V30 621 H 61.0527 -1.25966 7.62465 0
M  V30 622 H 59.3977 -1.13971 6.85591 0
M  V30 623 H 62.5887 -1.05226 4.5612 0
M  V30 624 H 62.7617 -1.20936 6.36615 0
M  V30 625 N 56.1678 -1.49265 -0.50573 0
M  V30 626 C 57.0998 -1.617 -1.62437 0
M  V30 627 C 58.1128 -0.499924 -1.54934 0
M  V30 628 O 59.3018 -0.771785 -1.60953 0
M  V30 629 C 56.4018 -1.5533 -3.01207 0
M  V30 630 C 55.5748 -2.8249 -3.33943 0
M  V30 631 C 54.6338 -2.69238 -4.52103 0
M  V30 632 O 53.6598 -3.43167 -4.5412 0
M  V30 633 N 54.8618 -1.80468 -5.51735 0
M  V30 634 H 57.6268 -2.58177 -1.52199 0
M  V30 635 H 55.1878 -1.46294 -0.693511 0
M  V30 636 H 57.1798 -1.44125 -3.78167 0
M  V30 637 H 55.7498 -0.667297 -3.05395 0
M  V30 638 H 54.9698 -3.08081 -2.45926 0
M  V30 639 H 56.2578 -3.66802 -3.5261 0
M  V30 640 H 55.6558 -1.19653 -5.52901 0
M  V30 641 H 54.2128 -1.75188 -6.27816 0
M  V30 642 N 57.6459 0.756429 -1.3826 0
M  V30 643 C 58.5779 1.87971 -1.31147 0
M  V30 644 C 59.5909 1.61248 -0.224239 0
M  V30 645 O 60.7799 1.71881 -0.481581 0
M  V30 646 C 57.8799 3.23545 -1.00857 0
M  V30 647 C 57.0529 3.77794 -2.20432 0
M  V30 648 C 56.1119 4.91877 -1.86931 0
M  V30 649 O 55.1379 5.06659 -2.59395 0
M  V30 650 N 56.3399 5.74643 -0.822568 0
M  V30 651 H 59.1049 1.94585 -2.2794 0
M  V30 652 H 56.6659 0.936234 -1.32084 0
M  V30 653 H 58.6579 3.97403 -0.765021 0
M  V30 654 H 57.2279 3.12335 -0.128687 0
M  V30 655 H 56.4479 2.95534 -2.6087 0
M  V30 656 H 57.7359 4.10771 -3.00241 0
M  V30 657 H 57.1339 5.65266 -0.221575 0
M  V30 658 H 55.6909 6.48661 -0.638899 0
M  V30 659 N 59.124 1.23083 0.984299 0
M  V30 660 C 60.373 1.05466 1.71929 0
M  V30 661 C 60.686 -0.409211 1.91272 0
M  V30 662 O 61.892 -0.705226 2.62181 0
M  V30 663 C 60.348 1.83874 3.09384 0
M  V30 664 C 59.956 3.34566 2.97943 0
M  V30 665 C 61.7 1.74734 3.8687 0
M  V30 666 C 59.607 4.05381 4.30605 0
M  V30 667 H 58.537 0.391039 0.644674 0
M  V30 668 H 61.188 1.47013 1.09815 0
M  V30 669 H 59.57 1.35131 3.72231 0
M  V30 670 H 60.744 3.90767 2.44209 0
M  V30 671 H 59.059 3.44476 2.33934 0
M  V30 672 H 61.656 2.24957 4.85076 0
M  V30 673 H 61.999 0.709372 4.10212 0
M  V30 674 H 62.532 2.21067 3.30717 0
M  V30 675 H 59.271 5.09467 4.1246 0
M  V30 676 H 58.791 3.53967 4.84218 0
M  V30 677 H 60.47 4.11458 4.99311 0
M  V30 678 N 60.6021 -1.18246 1.0419 0
M  V30 679 C 62.0181 -1.40269 0.761366 0
M  V30 680 C 62.2181 -1.90777 -0.648578 0
M  V30 681 O 61.2741 -2.0929 -1.41258 0
M  V30 682 C 62.5871 -2.40237 1.8085 0
M  V30 683 C 64.1351 -2.53961 1.82955 0
M  V30 684 C 64.6101 -3.57194 2.86664 0
M  V30 685 N 66.1011 -3.64702 2.85563 0
M  V30 686 C 66.8361 -4.44309 3.6246 0
M  V30 687 N 66.3321 -5.27514 4.49111 0
M  V30 688 N 68.1251 -4.39084 3.50944 0
M  V30 689 H 60.2761 -0.837882 1.95175 0
M  V30 690 H 62.5391 -0.430608 0.84456 0
M  V30 691 H 62.2451 -2.10176 2.81991 0
M  V30 692 H 62.1191 -3.39601 1.64168 0
M  V30 693 H 64.5061 -2.83338 0.824855 0
M  V30 694 H 64.5871 -1.54706 2.03715 0
M  V30 695 H 64.2311 -3.28558 3.87314 0
M  V30 696 H 64.1611 -4.5613 2.6316 0
M  V30 697 H 66.6521 -3.05289 2.22727 0
M  V30 698 H 66.9651 -5.85411 5.04493 0
M  V30 699 H 65.3101 -5.2693 4.53178 0
M  V30 700 H 68.5011 -3.7313 2.82651 0
M  V30 701 H 68.6741 -5.00883 4.11121 0
M  V30 702 N 62.0802 -0.821533 -1.34494 0
M  V30 703 C 63.0272 -0.240397 -2.29545 0
M  V30 704 C 63.9972 0.634031 -1.53523 0
M  V30 705 O 65.1822 0.575966 -1.81899 0
M  V30 706 C 62.3222 0.592869 -3.39969 0
M  V30 707 C 61.4352 -0.30365 -4.30932 0
M  V30 708 C 60.5702 0.539049 -5.28458 0
M  V30 709 C 59.6092 -0.356942 -6.11058 0
M  V30 710 N 58.7462 0.446603 -7.00678 0
M  V30 711 H 63.5862 -1.05632 -2.7865 0
M  V30 712 H 61.1232 -0.532413 -1.37127 0
M  V30 713 H 63.0812 1.09129 -4.02675 0
M  V30 714 H 61.7112 1.37392 -2.92102 0
M  V30 715 H 60.7632 -0.920276 -3.691 0
M  V30 716 H 62.0752 -0.992661 -4.88823 0
M  V30 717 H 61.2292 1.102 -5.96608 0
M  V30 718 H 59.9682 1.26157 -4.71101 0
M  V30 719 H 58.9732 -0.932047 -5.41842 0
M  V30 720 H 60.1982 -1.07755 -6.70497 0
M  V30 721 H 58.1442 1.15282 -6.45791 0
M  V30 722 H 58.0612 -0.184048 -7.55776 0
M  V30 723 H 59.3292 0.992352 -7.73158 0
M  V30 724 N 63.5583 1.46682 -0.576371 0
M  V30 725 C 64.4883 2.33028 0.148397 0
M  V30 726 C 65.4693 1.44961 0.889956 0
M  V30 727 O 66.6543 1.73789 0.866662 0
M  V30 728 C 63.7843 3.27117 1.1667 0
M  V30 729 C 62.7383 4.24575 0.540386 0
M  V30 730 C 62.0643 5.08126 1.6647 0
M  V30 731 C 63.3643 5.19722 -0.518331 0
M  V30 732 H 65.0583 2.93875 -0.572509 0
M  V30 733 H 62.6043 1.41315 -0.276768 0
M  V30 734 H 64.5573 3.86374 1.68204 0
M  V30 735 H 63.2813 2.64364 1.9178 0
M  V30 736 H 61.9403 3.66571 0.0461769 0
M  V30 737 H 61.5883 4.41762 2.40531 0
M  V30 738 H 61.2883 5.74122 1.25131 0
M  V30 739 H 62.8123 5.70246 2.18293 0
M  V30 740 H 64.2263 5.73232 -0.0883058 0
M  V30 741 H 62.6233 5.94026 -0.851679 0
M  V30 742 H 63.6933 4.64037 -1.40703 0
M  V30 743 N 65.0364 0.313813 1.54444 0
M  V30 744 C 66.2854 -0.292519 1.99568 0
M  V30 745 C 66.5984 -1.54011 1.20582 0
M  V30 746 O 67.8044 -2.22183 1.56035 0
M  V30 747 C 66.2604 -0.571752 3.55329 0
M  V30 748 C 65.8684 0.658229 4.43138 0
M  V30 749 C 67.6124 -1.13857 4.08946 0
M  V30 750 C 65.5194 0.351439 5.90355 0
M  V30 751 H 64.4494 -0.113079 0.745472 0
M  V30 752 H 67.1004 0.424518 1.78522 0
M  V30 753 H 65.4824 -1.34872 3.72325 0
M  V30 754 H 66.6564 1.43403 4.37918 0
M  V30 755 H 64.9714 1.14458 4.0036 0
M  V30 756 H 67.5684 -1.38257 5.16516 0
M  V30 757 H 67.9114 -2.08489 3.6033 0
M  V30 758 H 68.4444 -0.423015 3.95544 0
M  V30 759 H 65.1834 1.26667 6.43145 0
M  V30 760 H 64.7034 -0.386842 5.98551 0
M  V30 761 H 66.3824 -0.0423134 6.46986 0
M  V30 762 N 66.5145 -1.57545 0.0417849 0
M  V30 763 C 67.4615 -2.10977 -0.935805 0
M  V30 764 C 68.4315 -1.01486 -1.31491 0
M  V30 765 O 69.6165 -1.2898 -1.40602 0
M  V30 766 C 66.7565 -2.65169 -2.2086 0
M  V30 767 C 65.8695 -3.88714 -1.88482 0
M  V30 768 C 65.0045 -4.31254 -3.1015 0
M  V30 769 C 64.0435 -5.47524 -2.7365 0
M  V30 770 N 63.1805 -5.85162 -3.87982 0
M  V30 771 H 68.0205 -2.94218 -0.473249 0
M  V30 772 H 65.5575 -1.45415 -0.221981 0
M  V30 773 H 67.5155 -2.94685 -2.95325 0
M  V30 774 H 66.1455 -1.8474 -2.64709 0
M  V30 775 H 65.1975 -3.65849 -1.04205 0
M  V30 776 H 66.5095 -4.73245 -1.57608 0
M  V30 777 H 65.6635 -4.62273 -3.92923 0
M  V30 778 H 64.4025 -3.45516 -3.44195 0
M  V30 779 H 63.4075 -5.16187 -1.89291 0
M  V30 780 H 64.6325 -6.34971 -2.40807 0
M  V30 781 H 62.5785 -5.02377 -4.21846 0
M  V30 782 H 62.4955 -6.64362 -3.60775 0
M  V30 783 H 63.7635 -6.20791 -4.71422 0
M  V30 784 N 67.9926 0.231505 -1.5589 0
M  V30 785 C 69.2696 0.981096 -1.69215 0
M  V30 786 C 69.6496 2.02799 -0.586164 0
M  V30 787 O 68.9976 2.24823 0.408253 0
M  V30 788 C 69.2076 1.60054 -3.10135 0
M  V30 789 C 70.5556 2.09658 -3.69227 0
M  V30 790 O 71.5796 1.69967 -3.13033 0
M  V30 791 O 70.4386 2.8258 -4.67772 0
M  V30 792 H 67.5326 0.457653 -0.688827 0
M  V30 793 H 70.0786 0.224073 -1.68214 0
M  V30 794 H 68.8506 0.844105 -3.82087 0
M  V30 795 H 68.4736 2.42336 -3.15212 0
M  V30 796 N 69.4707 1.49531 0.497807 0
M  V30 797 C 70.7187 1.58865 1.24926 0
M  V30 798 C 71.0397 0.278721 1.92998 0
M  V30 799 O 70.3097 -0.702144 1.82885 0
M  V30 800 H 68.8897 0.585343 0.464094 0
M  V30 801 H 71.5517 1.86174 0.57666 0
M  V30 802 H 70.6477 2.38633 2.01149 0
M  V30 803 N 70.9488 -0.749086 1.3866 0
M  V30 804 C 71.8788 -1.8764 1.38973 0
M  V30 805 C 72.8598 -1.68178 0.255004 0
M  V30 806 O 74.0448 -1.88704 0.458754 0
M  V30 807 C 71.1748 -3.25222 1.21851 0
M  V30 808 C 70.1288 -3.59295 2.32575 0
M  V30 809 C 69.4548 -4.95663 2.00555 0
M  V30 810 C 70.7548 -3.63709 3.7485 0
M  V30 811 H 72.4488 -1.87635 2.3331 0
M  V30 812 H 69.9948 -0.901329 1.12303 0
M  V30 813 H 71.9478 -4.03746 1.20695 0
M  V30 814 H 70.6718 -3.25719 0.239775 0
M  V30 815 H 69.3308 -2.83093 2.32925 0
M  V30 816 H 68.9788 -4.92724 1.01154 0
M  V30 817 H 68.6788 -5.19429 2.74714 0
M  V30 818 H 70.2028 -5.7656 2.01024 0
M  V30 819 H 71.6168 -4.32338 3.76506 0
M  V30 820 H 70.0138 -3.98986 4.48252 0
M  V30 821 H 71.0838 -2.63834 4.06841 0
M  V30 822 N 72.4269 -1.23603 -0.977757 0
M  V30 823 C 73.6759 -1.06377 -1.71368 0
M  V30 824 C 73.9889 0.399062 -1.91486 0
M  V30 825 O 75.1949 0.691312 -2.62551 0
M  V30 826 C 73.6509 -1.85512 -3.08404 0
M  V30 827 C 73.2589 -3.36141 -2.96164 0
M  V30 828 C 75.0029 -1.76783 -3.85938 0
M  V30 829 C 72.9099 -4.07659 -4.28449 0
M  V30 830 H 71.8399 -0.394452 -0.642591 0
M  V30 831 H 74.4909 -1.47594 -1.09034 0
M  V30 832 H 72.8729 -1.37103 -3.71509 0
M  V30 833 H 74.0469 -3.92056 -2.42133 0
M  V30 834 H 72.3619 -3.45712 -2.32104 0
M  V30 835 H 74.9589 -2.27526 -4.83876 0
M  V30 836 H 75.3019 -0.731116 -4.0983 0
M  V30 837 H 75.8349 -2.22818 -3.2954 0
M  V30 838 H 72.5739 -5.11648 -4.09752 0
M  V30 839 H 72.0939 -3.5653 -4.82334 0
M  V30 840 H 73.7729 -4.141 -4.97122 0
M  V30 841 N 73.905 1.17692 -1.04816 0
M  V30 842 C 75.154 1.87192 -0.751132 0
M  V30 843 C 75.467 1.8169 0.724441 0
M  V30 844 O 76.673 2.46625 1.13527 0
M  V30 845 C 75.129 3.35857 -1.29338 0
M  V30 846 C 74.737 3.4987 -2.79812 0
M  V30 847 C 76.481 4.10709 -1.07322 0
M  V30 848 C 74.388 4.92536 -3.27356 0
M  V30 849 H 73.318 0.701162 -0.277288 0
M  V30 850 H 75.969 1.32932 -1.26496 0
M  V30 851 H 74.351 3.89631 -0.707376 0
M  V30 852 H 75.525 3.06332 -3.44235 0
M  V30 853 H 73.84 2.88433 -3.00325 0
M  V30 854 H 76.437 5.15952 -1.4035 0
M  V30 855 H 76.78 4.16299 -0.0108001 0
M  V30 856 H 77.313 3.6313 -1.62423 0
M  V30 857 H 74.052 4.92119 -4.33012 0
M  V30 858 H 73.572 5.3676 -2.67673 0
M  V30 859 H 75.251 5.61288 -3.21815 0
M  V30 860 N 75.3831 0.828654 1.34056 0
M  V30 861 C 76.7991 0.515135 1.51058 0
M  V30 862 C 76.9991 -0.959581 1.77184 0
M  V30 863 O 76.0551 -1.74382 1.82612 0
M  V30 864 C 77.3681 1.37963 2.67183 0
M  V30 865 C 78.9161 1.37735 2.81066 0
M  V30 866 C 79.3911 2.22645 4.00241 0
M  V30 867 N 80.8821 2.203 4.07458 0
M  V30 868 C 81.6171 2.82744 4.98842 0
M  V30 869 N 81.1131 3.54201 5.9541 0
M  V30 870 N 82.9061 2.72268 4.91759 0
M  V30 871 H 75.0571 1.78343 1.15358 0
M  V30 872 H 77.3201 0.760304 0.566252 0
M  V30 873 H 77.0261 2.42714 2.54525 0
M  V30 874 H 76.9001 1.0484 3.62338 0
M  V30 875 H 79.2871 0.337593 2.93163 0
M  V30 876 H 79.3681 1.74859 1.86703 0
M  V30 877 H 79.0121 3.26674 3.88905 0
M  V30 878 H 78.9421 1.82869 4.93829 0
M  V30 879 H 81.4331 1.68327 3.38341 0
M  V30 880 H 81.7461 3.9908 6.61782 0
M  V30 881 H 80.0911 3.58308 5.95517 0
M  V30 882 H 83.2821 2.16014 4.15278 0
M  V30 883 H 83.4551 3.21219 5.62781 0
M  V30 884 N 76.8612 -1.46375 0.584142 0
M  V30 885 C 77.8082 -2.30323 -0.148286 0
M  V30 886 C 78.7782 -1.40703 -0.882713 0
M  V30 887 O 79.9632 -1.69651 -0.873099 0
M  V30 888 C 77.1032 -3.25196 -1.15507 0
M  V30 889 C 76.2162 -4.29915 -0.423943 0
M  V30 890 C 75.3512 -5.11914 -1.41838 0
M  V30 891 C 74.3902 -6.08381 -0.673736 0
M  V30 892 N 73.5272 -6.83242 -1.6163 0
M  V30 893 H 78.3672 -2.92427 0.573644 0
M  V30 894 H 75.9042 -1.44118 0.294703 0
M  V30 895 H 77.8622 -3.78646 -1.75166 0
M  V30 896 H 76.4922 -2.64898 -1.8447 0
M  V30 897 H 75.5442 -3.7931 0.287714 0
M  V30 898 H 76.8562 -4.98549 0.158128 0
M  V30 899 H 76.0102 -5.69648 -2.08773 0
M  V30 900 H 74.7492 -4.43243 -2.03438 0
M  V30 901 H 73.7542 -5.49799 0.00938483 0
M  V30 902 H 74.9792 -6.79071 -0.0631082 0
M  V30 903 H 72.9252 -6.1728 -2.22038 0
M  V30 904 H 72.8422 -7.48144 -1.08707 0
M  V30 905 H 74.1102 -7.45534 -2.27596 0
M  V30 906 N 78.3393 -0.321999 -1.54275 0
M  V30 907 C 79.7503 0.166384 -1.85957 0
M  V30 908 C 80.1013 1.51747 -1.24367 0
M  V30 909 O 79.2263 2.09317 -0.549124 0
M  V30 910 C 79.8213 0.308681 -3.37391 0
M  V30 911 C 78.3803 0.741286 -3.69028 0
M  V30 912 C 77.5273 -0.137937 -2.76957 0
M  V30 913 H 80.4783 -0.542335 -1.49146 0
M  V30 914 H 80.4993 1.13984 -3.63026 0
M  V30 915 H 80.0113 -0.674809 -3.82188 0
M  V30 916 H 78.1123 1.73458 -3.29762 0
M  V30 917 H 78.2253 0.546118 -4.75977 0
M  V30 918 H 76.5893 0.386251 -2.51754 0
M  V30 919 H 77.3723 -1.11816 -3.2458 0
M  V30 920 N 79.8174 1.5752 -0.0501392 0
M  V30 921 C 81.0634 1.92936 0.624798 0
M  V30 922 C 81.3964 0.928685 1.70555 0
M  V30 923 O 80.6714 -0.0454779 1.94447 0
M  V30 924 C 80.9544 3.38737 1.22185 0
M  V30 925 C 80.8074 4.49552 0.149218 0
M  V30 926 C 82.1264 3.84913 2.13378 0
M  V30 927 H 79.2454 0.701604 0.225657 0
M  V30 928 H 81.8874 1.89671 -0.111693 0
M  V30 929 H 80.0374 3.4165 1.84953 0
M  V30 930 H 81.7094 4.58768 -0.482648 0
M  V30 931 H 79.9524 4.30638 -0.522841 0
M  V30 932 H 80.6234 5.48653 0.606966 0
M  V30 933 H 83.0994 3.8387 1.60572 0
M  V30 934 H 81.9754 4.87584 2.52097 0
M  V30 935 H 82.2364 3.21611 3.03346 0
M  V30 936 N 81.2955 -0.223234 1.56011 0
M  V30 937 C 82.5235 -0.964812 1.83027 0
M  V30 938 C 82.9385 -1.78013 0.62904 0
M  V30 939 O 82.2955 -1.78008 -0.402414 0
M  V30 940 C 82.3465 -1.88373 3.08542 0
M  V30 941 O 82.0675 -1.10137 4.2403 0
M  V30 942 C 83.5685 -2.73934 3.48533 0
M  V30 943 H 80.7885 -0.282842 0.608475 0
M  V30 944 H 83.3325 -0.238971 2.03099 0
M  V30 945 H 81.4875 -2.56354 2.9045 0
M  V30 946 H 81.9015 -1.72501 4.95322 0
M  V30 947 H 83.3755 -3.34117 4.39397 0
M  V30 948 H 83.8525 -3.46244 2.70207 0
M  V30 949 H 84.4585 -2.11369 3.69057 0
M  V30 950 N 82.7736 -1.49793 -0.48987 0
M  V30 951 C 84.0196 -1.60078 -1.24511 0
M  V30 952 C 84.3526 -0.291608 -1.91998 0
M  V30 953 O 83.6276 0.705647 -1.81248 0
M  V30 954 C 83.9106 -2.76791 -2.30345 0
M  V30 955 C 83.7636 -4.17535 -1.67286 0
M  V30 956 C 85.0826 -2.89111 -3.31817 0
M  V30 957 H 82.2016 -0.582645 -0.451324 0
M  V30 958 H 84.8436 -1.82117 -0.541612 0
M  V30 959 H 82.9936 -2.5813 -2.90346 0
M  V30 960 H 84.6656 -4.4774 -1.11026 0
M  V30 961 H 82.9086 -4.22665 -0.976577 0
M  V30 962 H 83.5796 -4.95094 -2.44103 0
M  V30 963 H 86.0556 -3.06133 -2.81819 0
M  V30 964 H 84.9316 -3.72433 -4.03219 0
M  V30 965 H 85.1926 -1.9893 -3.94815 0
M  V30 966 N 84.2517 0.741722 -1.39055 0
M  V30 967 C 85.2017 1.84661 -1.33732 0
M  V30 968 C 86.1857 1.59397 -0.219401 0
M  V30 969 O 87.3777 1.71015 -0.456375 0
M  V30 970 C 84.5067 3.22512 -1.17647 0
M  V30 971 C 83.5927 3.53628 -2.34112 0
M  V30 972 N 83.9837 3.55723 -3.59576 0
M  V30 973 C 82.2817 3.83956 -2.26923 0
M  V30 974 C 82.9827 3.84443 -4.36553 0
M  V30 975 N 81.9587 4.01877 -3.66055 0
M  V30 976 H 85.7607 1.84576 -2.28711 0
M  V30 977 H 83.2747 0.939647 -1.32455 0
M  V30 978 H 85.2717 4.01597 -1.11917 0
M  V30 979 H 83.9317 3.2384 -0.236124 0
M  V30 980 H 84.9427 3.37196 -3.93089 0
M  V30 981 H 81.6197 3.92929 -1.41113 0
M  V30 982 H 83.0097 3.92588 -5.45274 0
M  V30 983 N 85.7298 1.2412 0.971189 0
M  V30 984 C 86.9548 1.10667 1.75407 0
M  V30 985 C 87.3798 -0.337048 1.85056 0
M  V30 986 O 86.7378 -1.24396 1.31892 0
M  V30 987 C 86.7858 1.74726 3.15441 0
M  V30 988 O 85.8898 1.01566 3.99697 0
M  V30 989 H 85.2308 0.387341 0.539317 0
M  V30 990 H 87.7608 1.64358 1.2185 0
M  V30 991 H 87.7708 1.80341 3.6598 0
M  V30 992 H 86.4458 2.79773 3.07734 0
M  V30 993 H 85.0228 1.03713 3.58187 0
M  V30 994 N 87.2079 -1.17134 1.05439 0
M  V30 995 C 88.6239 -1.39454 0.776201 0
M  V30 996 C 88.8239 -1.91454 -0.628307 0
M  V30 997 O 87.8799 -2.10777 -1.39031 0
M  V30 998 C 89.1929 -2.38305 1.83388 0
M  V30 999 C 90.7409 -2.52006 1.85639 0
M  V30 1000 C 91.2159 -3.54133 2.90437 0
M  V30 1001 N 92.7069 -3.61653 2.89415 0
M  V30 1002 C 93.4419 -4.4044 3.67152 0
M  V30 1003 N 92.9379 -5.22721 4.54681 0
M  V30 1004 N 94.7309 -4.35337 3.55581 0
M  V30 1005 H 86.8819 -0.817134 1.96053 0
M  V30 1006 H 89.1449 -0.421626 0.849079 0
M  V30 1007 H 88.8509 -2.07173 2.84204 0
M  V30 1008 H 88.7249 -3.37841 1.67761 0
M  V30 1009 H 91.1119 -2.82447 0.85486 0
M  V30 1010 H 91.1929 -1.52537 2.05344 0
M  V30 1011 H 90.8369 -3.24431 3.90777 0
M  V30 1012 H 90.7669 -4.53313 2.67983 0
M  V30 1013 H 93.2579 -3.02909 2.25952 0
M  V30 1014 H 93.5709 -5.80027 5.10674 0
M  V30 1015 H 91.9159 -5.22093 4.58741 0
M  V30 1016 H 95.1069 -3.70112 2.86592 0
M  V30 1017 H 95.2799 -4.96494 4.1641 0
M  V30 1018 N 88.686 -0.835752 -1.33615 0
M  V30 1019 C 89.649 -0.272 -2.2758 0
M  V30 1020 C 90.649 0.557487 -1.50827 0
M  V30 1021 O 91.839 0.37173 -1.70188 0
M  V30 1022 C 88.971 0.617173 -3.35267 0
M  V30 1023 H 90.164 -1.10111 -2.78954 0
M  V30 1024 H 87.717 -0.608594 -1.43965 0
M  V30 1025 H 88.452 1.46884 -2.89129 0
M  V30 1026 H 88.237 0.0237066 -3.92093 0
M  V30 1027 H 89.727 1.005 -4.05326 0
M  V30 1028 N 90.1641 1.46063 -0.591896 0
M  V30 1029 C 91.5801 1.57561 -0.254288 0
M  V30 1030 C 91.7801 1.58565 1.24336 0
M  V30 1031 O 90.8361 1.50753 2.02558 0
M  V30 1032 C 92.1491 2.86549 -0.911611 0
M  V30 1033 C 93.6971 3.00197 -0.886059 0
M  V30 1034 C 94.1721 4.31933 -1.5231 0
M  V30 1035 N 95.6631 4.38654 -1.48786 0
M  V30 1036 C 96.3981 5.39222 -1.95006 0
M  V30 1037 N 95.8941 6.46414 -2.49241 0
M  V30 1038 N 97.6871 5.3048 -1.85868 0
M  V30 1039 H 89.8381 1.43655 -1.56451 0
M  V30 1040 H 92.1011 0.68583 -0.654478 0
M  V30 1041 H 91.8071 2.91651 -1.96551 0
M  V30 1042 H 91.6811 3.74794 -0.425368 0
M  V30 1043 H 94.0681 2.9467 0.159246 0
M  V30 1044 H 94.1491 2.13403 -1.41041 0
M  V30 1045 H 93.7931 4.38217 -2.56765 0
M  V30 1046 H 93.7231 5.17516 -0.973891 0
M  V30 1047 H 96.2141 3.61793 -1.09151 0
M  V30 1048 H 96.5271 7.19376 -2.82344 0
M  V30 1049 H 94.8721 6.47208 -2.53272 0
M  V30 1050 H 98.0631 4.45643 -1.43248 0
M  V30 1051 H 98.2361 6.08711 -2.22204 0
M  V30 1052 N 91.6422 0.330177 1.54103 0
M  V30 1053 C 92.8822 -0.270916 2.02597 0
M  V30 1054 C 93.2462 -1.48826 1.21304 0
M  V30 1055 O 94.4472 -2.16266 1.59633 0
M  V30 1056 C 92.7182 -0.590328 3.52491 0
M  V30 1057 S 94.2772 -1.17014 4.2291 0
M  V30 1058 H 91.0952 -0.0815379 0.706309 0
M  V30 1059 H 93.6972 0.464835 1.89893 0
M  V30 1060 H 92.4012 0.303691 4.09275 0
M  V30 1061 H 91.9322 -1.3561 3.69288 0
M  V30 1062 H 93.9472 -2.45662 4.3112 0
M  V30 1063 N 93.1203 -1.57491 0.0584922 0
M  V30 1064 C 94.5363 -1.56792 -0.298091 0
M  V30 1065 C 94.7363 -1.06679 -1.70944 0
M  V30 1066 O 93.7923 -0.726672 -2.41818 0
M  V30 1067 C 95.1053 -3.00461 -0.119879 0
M  V30 1068 C 96.6533 -3.1242 -0.190428 0
M  V30 1069 C 97.1283 -4.57982 -0.0406567 0
M  V30 1070 N 98.6193 -4.63099 -0.0966958 0
M  V30 1071 C 99.3543 -5.734 -0.00502943 0
M  V30 1072 N 98.8503 -6.9266 0.139402 0
M  V30 1073 N 100.643 -5.62067 -0.0611391 0
M  V30 1074 H 92.7943 -1.88386 0.98105 0
M  V30 1075 H 95.0573 -0.867865 0.381463 0
M  V30 1076 H 94.7633 -3.41187 0.85349 0
M  V30 1077 H 94.6373 -3.66843 -0.877833 0
M  V30 1078 H 97.0243 -2.71589 -1.15427 0
M  V30 1079 H 97.1053 -2.48702 0.598405 0
M  V30 1080 H 96.7493 -4.995 0.919897 0
M  V30 1081 H 96.6793 -5.19715 -0.848727 0
M  V30 1082 H 99.1703 -3.77331 -0.207277 0
M  V30 1083 H 99.4833 -7.72536 0.201855 0
M  V30 1084 H 97.8283 -6.94781 0.174586 0
M  V30 1085 H 101.019 -4.67782 -0.172583 0
M  V30 1086 H 101.192 -6.47999 0.0137562 0
M  V30 1087 N 94.5984 0.214957 -1.56127 0
M  V30 1088 C 95.5454 1.26642 -1.92952 0
M  V30 1089 C 96.5154 1.46244 -0.78753 0
M  V30 1090 O 97.7004 1.59704 -1.04399 0
M  V30 1091 C 94.8404 2.6104 -2.25726 0
M  V30 1092 C 93.9534 2.49183 -3.52891 0
M  V30 1093 C 93.0884 3.76149 -3.7508 0
M  V30 1094 C 92.1274 3.59041 -4.95738 0
M  V30 1095 N 91.2644 4.77972 -5.14283 0
M  V30 1096 H 96.1044 0.945384 -2.82607 0
M  V30 1097 H 93.6414 0.455489 -1.3987 0
M  V30 1098 H 95.5994 3.39313 -2.42739 0
M  V30 1099 H 94.2294 2.91227 -1.39236 0
M  V30 1100 H 93.2814 1.6231 -3.44034 0
M  V30 1101 H 94.5934 2.32466 -4.41318 0
M  V30 1102 H 93.7474 4.62865 -3.92226 0
M  V30 1103 H 92.4864 3.95799 -2.84947 0
M  V30 1104 H 91.4914 2.7071 -4.78535 0
M  V30 1105 H 92.7164 3.40856 -5.87362 0
M  V30 1106 H 90.6624 4.97923 -4.27093 0
M  V30 1107 H 90.5794 4.64006 -5.96853 0
M  V30 1108 H 91.8474 5.66096 -5.35869 0
M  V30 1109 N 96.0765 1.50051 0.48192 0
M  V30 1110 C 97.0245 1.68635 1.60203 0
M  V30 1111 C 98.0185 0.552184 1.60148 0
M  V30 1112 O 99.2245 0.732377 1.64427 0
M  V30 1113 H 95.5995 0.532081 0.531407 0
M  V30 1114 H 97.5705 2.62616 1.41688 0
M  V30 1115 C 96.3195 1.78775 2.9822 0
M  V30 1116 H 95.6425 2.6543 2.98976 0
M  V30 1117 H 97.0825 1.95806 3.7608 0
M  V30 1118 C 95.5415 0.536849 3.32595 0
M  V30 1119 O 96.0715 -0.328897 4.00351 0
M  V30 1120 N 94.2775 0.394091 2.87915 0
M  V30 1121 H 93.8245 1.09962 2.32951 0
M  V30 1122 H 93.7825 -0.441737 3.11281 0
M  V30 1123 N 97.5546 -0.734337 1.39446 0
M  V30 1124 C 98.7826 -1.52358 1.39981 0
M  V30 1125 C 99.1976 -1.88799 -0.0054975 0
M  V30 1126 O 98.5546 -1.54146 -0.976998 0
M  V30 1127 C 98.6056 -2.81072 2.27333 0
M  V30 1128 O 98.3266 -2.46178 3.62392 0
M  V30 1129 C 99.8276 -3.75096 2.36259 0
M  V30 1130 H 97.0476 -0.470806 0.478103 0
M  V30 1131 H 99.5916 -0.907339 1.83269 0
M  V30 1132 H 97.7466 -3.39026 1.87457 0
M  V30 1133 H 98.1606 -3.28866 4.08592 0
M  V30 1134 H 99.6346 -4.62305 3.01626 0
M  V30 1135 H 100.112 -4.16892 1.38194 0
M  V30 1136 H 100.718 -3.23061 2.76608 0
M  V30 1137 N 99.0327 -1.24633 -0.964593 0
M  V30 1138 C 99.9627 -1.06611 -2.07741 0
M  V30 1139 C 100.944 0.0218666 -1.70086 0
M  V30 1140 O 102.129 -0.145793 -1.93652 0
M  V30 1141 C 99.2587 -0.673444 -3.40708 0
M  V30 1142 C 98.2127 -1.71054 -3.92332 0
M  V30 1143 C 97.5387 -1.17285 -5.21678 0
M  V30 1144 C 98.8387 -3.10718 -4.19824 0
M  V30 1145 H 100.533 -1.99693 -2.23076 0
M  V30 1146 H 98.0787 -0.96152 -1.07195 0
M  V30 1147 H 100.032 -0.534345 -4.17998 0
M  V30 1148 H 98.7557 0.293073 -3.25282 0
M  V30 1149 H 97.4147 -1.83791 -3.17201 0
M  V30 1150 H 97.0627 -0.196847 -5.02615 0
M  V30 1151 H 96.7627 -1.86592 -5.57187 0
M  V30 1152 H 98.2867 -1.04593 -6.01575 0
M  V30 1153 H 99.7007 -3.01192 -4.87808 0
M  V30 1154 H 98.0977 -3.77406 -4.66567 0
M  V30 1155 H 99.1677 -3.58524 -3.26479 0
M  V30 1156 N 100.511 1.16574 -1.06058 0
M  V30 1157 C 101.474 2.19085 -0.673392 0
M  V30 1158 C 102.474 1.5835 0.279648 0
M  V30 1159 O 103.664 1.74088 0.0623488 0
M  V30 1160 C 100.796 3.40899 0.00954234 0
M  V30 1161 H 101.989 2.54853 -1.58081 0
M  V30 1162 H 99.5418 1.30808 -0.855516 0
M  V30 1163 H 100.277 3.10684 0.929826 0
M  V30 1164 H 100.062 3.86233 -0.67573 0
M  V30 1165 H 101.552 4.1675 0.266245 0
M  V30 1166 N 101.989 0.842826 1.3317 0
M  V30 1167 C 103.405 0.531128 1.50503 0
M  V30 1168 C 103.605 -0.940734 1.78192 0
M  V30 1169 O 102.661 -1.72436 1.84451 0
M  V30 1170 C 103.974 1.40789 2.65705 0
M  V30 1171 C 105.522 1.40708 2.79589 0
M  V30 1172 C 105.997 2.26878 3.97857 0
M  V30 1173 N 107.488 2.24609 4.05099 0
M  V30 1174 C 108.223 2.88019 4.95815 0
M  V30 1175 N 107.719 3.60496 5.9162 0
M  V30 1176 N 109.512 2.77469 4.88843 0
M  V30 1177 H 101.663 1.79557 1.1346 0
M  V30 1178 H 103.926 0.766267 0.558156 0
M  V30 1179 H 103.632 2.454 2.51936 0
M  V30 1180 H 103.506 1.08677 3.61205 0
M  V30 1181 H 105.893 0.368668 2.92788 0
M  V30 1182 H 105.974 1.76829 1.84838 0
M  V30 1183 H 105.618 3.3078 3.85418 0
M  V30 1184 H 105.548 1.88096 4.91861 0
M  V30 1185 H 108.039 1.71906 3.36536 0
M  V30 1186 H 108.352 4.06076 6.57512 0
M  V30 1187 H 106.697 3.64604 5.91683 0
M  V30 1188 H 109.888 2.20406 4.12963 0
M  V30 1189 H 110.061 3.2717 5.59342 0
M  V30 1190 N 103.467 -1.45747 0.599634 0
M  V30 1191 C 104.883 -1.57424 0.26264 0
M  V30 1192 C 105.083 -1.59222 -1.23493 0
M  V30 1193 O 104.139 -1.51825 -2.01756 0
M  V30 1194 C 105.452 -2.86061 0.926795 0
M  V30 1195 C 107 -2.99722 0.901967 0
M  V30 1196 C 107.475 -4.31119 1.54598 0
M  V30 1197 N 108.966 -4.37858 1.5111 0
M  V30 1198 C 109.701 -5.3818 1.97863 0
M  V30 1199 N 109.197 -6.45083 2.52666 0
M  V30 1200 N 110.99 -5.29487 1.88679 0
M  V30 1201 H 103.141 -1.42823 1.57211 0
M  V30 1202 H 105.404 -0.68235 0.658105 0
M  V30 1203 H 105.11 -2.90605 1.98095 0
M  V30 1204 H 104.984 -3.74563 0.445238 0
M  V30 1205 H 107.371 -2.9475 -0.143617 0
M  V30 1206 H 107.452 -2.12652 1.42171 0
M  V30 1207 H 107.096 -4.36849 2.59085 0
M  V30 1208 H 107.026 -5.16992 1.00132 0
M  V30 1209 H 109.517 -3.61209 1.11068 0
M  V30 1210 H 109.83 -7.17869 2.86155 0
M  V30 1211 H 108.175 -6.45856 2.56701 0
M  V30 1212 H 111.366 -4.44877 1.4561 0
M  V30 1213 H 111.539 -6.07524 2.25429 0
M  V30 1214 N 104.945 -0.338344 -1.53925 0
M  V30 1215 C 105.892 0.520845 -2.24846 0
M  V30 1216 C 106.862 1.09976 -1.24477 0
M  V30 1217 O 108.047 1.13735 -1.53196 0
M  V30 1218 C 105.187 1.6685 -3.02084 0
M  V30 1219 C 104.3 1.11739 -4.17299 0
M  V30 1220 C 103.435 2.23193 -4.82036 0
M  V30 1221 C 102.474 1.65407 -5.89328 0
M  V30 1222 N 101.611 2.70582 -6.47866 0
M  V30 1223 H 106.451 -0.0904881 -2.97863 0
M  V30 1224 H 103.988 -0.0564282 -1.46992 0
M  V30 1225 H 105.946 2.34407 -3.45122 0
M  V30 1226 H 104.576 2.2509 -2.31375 0
M  V30 1227 H 103.628 0.332919 -3.7894 0
M  V30 1228 H 104.94 0.654677 -4.94485 0
M  V30 1229 H 104.094 2.98626 -5.28117 0
M  V30 1230 H 102.833 2.72807 -4.04262 0
M  V30 1231 H 101.838 0.884779 -5.42634 0
M  V30 1232 H 103.063 1.16652 -6.69006 0
M  V30 1233 H 101.009 3.1946 -5.72959 0
M  V30 1234 H 100.926 2.28917 -7.20509 0
M  V30 1235 H 102.194 3.45799 -6.98601 0
M  V30 1236 N 106.423 1.57458 -0.0668435 0
M  V30 1237 C 107.671 1.92919 0.602214 0
M  V30 1238 C 107.992 0.947215 1.70449 0
M  V30 1239 O 107.262 -0.00544117 1.95899 0
M  V30 1240 H 105.842 0.71217 0.22544 0
M  V30 1241 H 108.504 1.94508 -0.123535 0
M  V30 1242 H 107.6 2.94589 1.03073 0
M  V30 1243 N 107.901 -0.206675 1.56239 0
M  V30 1244 C 109.317 -0.557025 1.49564 0
M  V30 1245 C 109.517 -1.86424 0.764735 0
M  V30 1246 O 108.573 -2.50584 0.310491 0
M  V30 1247 C 109.886 -0.622478 2.94186 0
M  V30 1248 C 111.434 -0.712099 3.04792 0
M  V30 1249 C 111.909 -0.808767 4.50803 0
M  V30 1250 N 113.4 -0.8726 4.54907 0
M  V30 1251 C 114.135 -0.967365 5.65181 0
M  V30 1252 N 113.631 -1.02515 6.85173 0
M  V30 1253 N 115.424 -1.00366 5.53067 0
M  V30 1254 H 107.575 0.650943 2.02179 0
M  V30 1255 H 109.838 0.230387 0.919579 0
M  V30 1256 H 109.544 0.268727 3.50672 0
M  V30 1257 H 109.418 -1.4811 3.46905 0
M  V30 1258 H 111.805 -1.59374 2.48363 0
M  V30 1259 H 111.886 0.172489 2.55218 0
M  V30 1260 H 111.53 0.0684754 5.07854 0
M  V30 1261 H 111.46 -1.70899 4.98098 0
M  V30 1262 H 113.951 -0.837657 3.68499 0
M  V30 1263 H 114.264 -1.09765 7.64965 0
M  V30 1264 H 112.609 -0.994026 6.87855 0
M  V30 1265 H 115.8 -0.95527 4.58249 0
M  V30 1266 H 115.973 -1.07405 6.39037 0
M  V30 1267 N 109.379 -1.50304 -0.473955 0
M  V30 1268 C 110.329 -1.65347 -1.56985 0
M  V30 1269 C 111.313 -0.508176 -1.52664 0
M  V30 1270 O 112.505 -0.762446 -1.59737 0
M  V30 1271 C 109.634 -1.74832 -2.95447 0
M  V30 1272 C 108.72 -2.95028 -3.04662 0
M  V30 1273 N 109.111 -4.18747 -2.83698 0
M  V30 1274 C 107.409 -2.93527 -3.35795 0
M  V30 1275 C 108.11 -4.99687 -2.97805 0
M  V30 1276 N 107.086 -4.33585 -3.2788 0
M  V30 1277 H 110.888 -2.58698 -1.39472 0
M  V30 1278 H 108.402 -1.47449 -0.680629 0
M  V30 1279 H 110.399 -1.83712 -3.7424 0
M  V30 1280 H 109.059 -0.826376 -3.14008 0
M  V30 1281 H 110.07 -4.48291 -2.59337 0
M  V30 1282 H 106.747 -2.10821 -3.60362 0
M  V30 1283 H 108.137 -6.08057 -2.85861 0
M  V30 1284 N 110.857 0.726932 -1.39834 0
M  V30 1285 C 111.79 1.8501 -1.33592 0
M  V30 1286 C 112.768 1.61262 -0.208191 0
M  V30 1287 O 113.952 1.84422 -0.389981 0
M  V30 1288 C 111.079 3.21143 -1.07633 0
M  V30 1289 C 110.125 3.63737 -2.22705 0
M  V30 1290 S 110.958 3.72167 -3.85035 0
M  V30 1291 C 112.114 5.11077 -3.61318 0
M  V30 1292 H 112.347 1.90022 -2.28646 0
M  V30 1293 H 109.88 0.892595 -1.25985 0
M  V30 1294 H 111.838 3.99747 -0.933415 0
M  V30 1295 H 110.499 3.13776 -0.142526 0
M  V30 1296 H 109.692 4.62551 -2.00155 0
M  V30 1297 H 109.294 2.9236 -2.33242 0
M  V30 1298 H 111.586 5.97656 -3.19083 0
M  V30 1299 H 112.529 5.38658 -4.59623 0
M  V30 1300 H 112.937 4.81135 -2.95245 0
M  V30 1301 N 112.336 1.25143 0.95797 0
M  V30 1302 C 113.584 1.09476 1.69881 0
M  V30 1303 C 113.905 -0.365502 1.91544 0
M  V30 1304 O 113.175 -1.25985 1.50015 0
M  V30 1305 H 111.755 0.402128 0.629525 0
M  V30 1306 H 114.417 1.57214 1.15194 0
M  V30 1307 H 113.513 1.60046 2.6794 0
M  V30 1308 N 113.814 -1.1601 1.06675 0
M  V30 1309 C 115.063 -1.85973 0.780818 0
M  V30 1310 C 115.376 -1.82819 -0.695444 0
M  V30 1311 O 116.582 -2.484 -1.09589 0
M  V30 1312 C 115.038 -3.33757 1.34665 0
M  V30 1313 C 114.646 -3.45374 2.85343 0
M  V30 1314 C 116.39 -4.0895 1.13843 0
M  V30 1315 C 114.297 -4.87266 3.35151 0
M  V30 1316 H 113.227 -0.696661 0.288407 0
M  V30 1317 H 115.878 -1.30903 1.28595 0
M  V30 1318 H 114.26 -3.88456 0.769274 0
M  V30 1319 H 115.434 -3.00816 3.49065 0
M  V30 1320 H 113.749 -2.83619 3.04876 0
M  V30 1321 H 116.346 -5.13654 1.4854 0
M  V30 1322 H 116.689 -4.16229 0.0770282 0
M  V30 1323 H 117.222 -3.605 1.68179 0
M  V30 1324 H 113.961 -4.85168 4.40786 0
M  V30 1325 H 113.481 -5.32433 2.76179 0
M  V30 1326 H 115.16 -5.56097 3.30704 0
M  V30 1327 N 115.292 -0.849877 -1.32721 0
M  V30 1328 C 116.54 -0.450032 -1.97026 0
M  V30 1329 C 116.861 0.996604 -1.67609 0
M  V30 1330 O 116.131 1.6958 -0.980786 0
M  V30 1331 H 114.711 -0.163426 -0.728904 0
M  V30 1332 H 117.373 -1.08526 -1.6189 0
M  V30 1333 H 116.469 -0.591146 -3.0645 0
M  V30 1334 N 116.77 1.45427 -0.607355 0
M  V30 1335 C 117.717 2.3053 0.111625 0
M  V30 1336 C 118.687 1.4209 0.860216 0
M  V30 1337 O 119.872 1.71019 0.845998 0
M  V30 1338 C 117.012 3.26992 1.10319 0
M  V30 1339 C 116.125 4.30535 0.355493 0
M  V30 1340 C 115.26 5.14105 1.33676 0
M  V30 1341 C 114.299 6.09376 0.576862 0
M  V30 1342 N 113.436 6.85727 1.5074 0
M  V30 1343 H 118.276 2.91477 -0.620093 0
M  V30 1344 H 115.813 1.43631 -0.317594 0
M  V30 1345 H 117.771 3.81385 1.6912 0
M  V30 1346 H 116.401 2.67799 1.80232 0
M  V30 1347 H 115.453 3.78805 -0.348023 0
M  V30 1348 H 116.765 4.98235 -0.237423 0
M  V30 1349 H 115.919 5.72897 1.99684 0
M  V30 1350 H 114.658 4.46423 1.9636 0
M  V30 1351 H 113.663 5.49715 -0.0968519 0
M  V30 1352 H 114.888 6.79085 -0.0449341 0
M  V30 1353 H 112.834 6.20735 2.12189 0
M  V30 1354 H 112.751 7.49778 0.967913 0
M  V30 1355 H 114.019 7.4906 2.15706 0
M  V30 1356 N 118.248 0.346503 1.53744 0
M  V30 1357 C 119.664 -0.00530975 1.59599 0
M  V30 1358 C 119.864 -1.48465 1.36236 0
M  V30 1359 O 118.92 -2.24376 1.15808 0
M  V30 1360 C 120.233 0.433516 2.97559 0
M  V30 1361 C 121.781 0.386111 3.10609 0
M  V30 1362 C 122.256 0.800451 4.50951 0
M  V30 1363 N 123.747 0.754753 4.5701 0
M  V30 1364 C 124.482 1.04727 5.63755 0
M  V30 1365 N 123.978 1.4081 6.7834 0
M  V30 1366 N 125.771 0.971316 5.53644 0
M  V30 1367 H 117.922 1.31009 1.67184 0
M  V30 1368 H 120.185 0.534242 0.783128 0
M  V30 1369 H 119.891 1.46509 3.19731 0
M  V30 1370 H 119.765 -0.189753 3.76722 0
M  V30 1371 H 122.152 -0.636295 2.88158 0
M  V30 1372 H 122.233 1.04462 2.33498 0
M  V30 1373 H 121.877 1.82088 4.74137 0
M  V30 1374 H 121.807 0.119386 5.26465 0
M  V30 1375 H 124.298 0.488662 3.74727 0
M  V30 1376 H 124.611 1.61607 7.55714 0
M  V30 1377 H 122.956 1.44657 6.79779 0
M  V30 1378 H 126.147 0.688748 4.63005 0
M  V30 1379 H 126.32 1.20263 6.36742 0
M  V30 1380 N 119.726 -1.57421 0.075193 0
M  V30 1381 C 120.673 -2.12915 -0.890843 0
M  V30 1382 C 121.643 -1.04252 -1.29309 0
M  V30 1383 O 122.828 -1.31933 -1.37834 0
M  V30 1384 C 119.968 -2.69795 -2.15186 0
M  V30 1385 C 119.081 -3.92624 -1.80194 0
M  V30 1386 C 118.216 -4.37736 -3.00933 0
M  V30 1387 C 117.255 -5.53205 -2.61974 0
M  V30 1388 N 116.392 -5.9326 -3.75483 0
M  V30 1389 H 121.232 -2.95156 -0.410735 0
M  V30 1390 H 118.769 -1.45854 -0.191086 0
M  V30 1391 H 120.727 -3.00883 -2.89008 0
M  V30 1392 H 119.357 -1.90313 -2.60731 0
M  V30 1393 H 118.409 -3.67977 -0.964218 0
M  V30 1394 H 119.721 -4.76482 -1.47534 0
M  V30 1395 H 118.875 -4.70503 -3.8303 0
M  V30 1396 H 117.614 -3.52739 -3.36789 0
M  V30 1397 H 116.619 -5.20086 -1.783 0
M  V30 1398 H 117.844 -6.39936 -2.27284 0
M  V30 1399 H 115.79 -5.11212 -4.11094 0
M  V30 1400 H 115.707 -6.71865 -3.46602 0
M  V30 1401 H 116.975 -6.30651 -4.58148 0
M  V30 1402 N 121.204 0.198386 -1.56346 0
M  V30 1403 C 122.452 0.91747 -1.80075 0
M  V30 1404 C 122.773 1.83929 -0.647692 0
M  V30 1405 O 122.043 1.93029 0.334166 0
M  V30 1406 H 120.623 0.341774 -0.664228 0
M  V30 1407 H 123.285 0.204684 -1.93822 0
M  V30 1408 H 122.381 1.51055 -2.7311 0
M  V30 1409 N 122.682 1.50554 0.465978 0
M  V30 1410 C 123.91 1.65563 1.24083 0
M  V30 1411 C 124.325 0.341051 1.85694 0
M  V30 1412 O 123.682 -0.677543 1.69457 0
M  V30 1413 C 123.733 2.75051 2.34583 0
M  V30 1414 O 123.454 4.01413 1.75497 0
M  V30 1415 C 124.955 3.01078 3.25372 0
M  V30 1416 H 122.175 0.55638 0.375077 0
M  V30 1417 H 124.719 1.96807 0.555624 0
M  V30 1418 H 122.874 2.46486 2.9887 0
M  V30 1419 H 123.288 4.62002 2.48303 0
M  V30 1420 H 124.762 3.81339 3.99105 0
M  V30 1421 H 125.239 2.12349 3.84453 0
M  V30 1422 H 125.845 3.31194 2.66816 0
M  V30 1423 N 124.16 -0.719506 1.40217 0
M  V30 1424 C 125.123 -1.8153 1.39927 0
M  V30 1425 C 126.123 -1.58095 0.293723 0
M  V30 1426 O 127.313 -1.65209 0.552429 0
M  V30 1427 C 124.445 -3.19561 1.18716 0
M  V30 1428 H 125.638 -1.83186 2.37451 0
M  V30 1429 H 123.191 -0.924746 1.26008 0
M  V30 1430 H 123.926 -3.23557 0.219366 0
M  V30 1431 H 123.711 -3.3797 1.98793 0
M  V30 1432 H 125.201 -3.99598 1.21291 0
M  V30 1433 N 125.638 -1.25649 -0.95132 0
M  V30 1434 C 126.586 -1.06118 -2.06982 0
M  V30 1435 C 127.58 0.00889169 -1.69398 0
M  V30 1436 O 128.786 -0.146988 -1.79399 0
M  V30 1437 H 125.161 -0.326248 -0.677544 0
M  V30 1438 H 127.132 -2.00932 -2.2061 0
M  V30 1439 C 125.881 -0.700145 -3.40578 0
M  V30 1440 H 125.204 -1.51537 -3.69968 0
M  V30 1441 H 126.644 -0.603211 -4.19687 0
M  V30 1442 C 125.103 0.59403 -3.31622 0
M  V30 1443 O 125.633 1.63522 -3.66911 0
M  V30 1444 N 123.839 0.58089 -2.84735 0
M  V30 1445 H 123.386 -0.266783 -2.56215 0
M  V30 1446 H 123.344 1.44695 -2.79125 0
M  V30 1447 N 127.117 1.15442 -1.07289 0
M  V30 1448 C 128.08 2.18358 -0.696591 0
M  V30 1449 C 129.08 1.58637 0.262837 0
M  V30 1450 O 130.27 1.74145 0.0438809 0
M  V30 1451 C 127.402 3.4089 -0.0266151 0
M  V30 1452 H 128.595 2.53162 -1.60776 0
M  V30 1453 H 126.148 1.29893 -0.869342 0
M  V30 1454 H 126.883 3.11653 0.896822 0
M  V30 1455 H 126.668 3.85495 -0.716657 0
M  V30 1456 H 128.158 4.17009 0.222028 0
M  V30 1457 N 128.595 0.856903 1.32268 0
M  V30 1458 C 130.011 0.547061 1.49931 0
M  V30 1459 C 130.211 -0.921781 1.7918 0
M  V30 1460 O 129.267 -1.70469 1.8627 0
M  V30 1461 C 130.58 1.43599 2.64196 0
M  V30 1462 C 132.128 1.43665 2.78081 0
M  V30 1463 C 132.603 2.31085 3.95428 0
M  V30 1464 N 134.094 2.28893 4.02694 0
M  V30 1465 C 134.829 2.93262 4.92732 0
M  V30 1466 N 134.325 3.66751 5.87763 0
M  V30 1467 N 136.118 2.82638 4.85873 0
M  V30 1468 H 128.269 1.8075 1.11549 0
M  V30 1469 H 130.532 0.772144 0.549997 0
M  V30 1470 H 130.238 2.48058 2.49319 0
M  V30 1471 H 130.112 1.12502 3.60032 0
M  V30 1472 H 132.499 0.399701 2.92381 0
M  V30 1473 H 132.58 1.7878 1.82952 0
M  V30 1474 H 132.224 3.34849 3.81888 0
M  V30 1475 H 132.154 1.93302 4.89839 0
M  V30 1476 H 134.645 1.75466 3.34694 0
M  V30 1477 H 134.958 4.13027 6.53168 0
M  V30 1478 H 133.303 3.70859 5.87783 0
M  V30 1479 H 136.494 2.24774 4.10602 0
M  V30 1480 H 136.667 3.33084 5.55841 0
M  V30 1481 N 130.073 -1.45103 0.615059 0
M  V30 1482 C 131.006 -2.27717 -0.148408 0
M  V30 1483 C 131.984 -1.37584 -0.866572 0
M  V30 1484 O 133.168 -1.67017 -0.87393 0
M  V30 1485 C 130.295 -3.16136 -1.21557 0
M  V30 1486 C 129.341 -4.22263 -0.599712 0
M  V30 1487 S 130.174 -5.3215 0.598081 0
M  V30 1488 C 131.33 -6.24137 -0.469484 0
M  V30 1489 H 131.563 -2.92121 0.552483 0
M  V30 1490 H 129.096 -1.49054 0.402778 0
M  V30 1491 H 131.054 -3.67633 -1.82638 0
M  V30 1492 H 129.715 -2.50982 -1.88857 0
M  V30 1493 H 128.908 -4.84081 -1.4029 0
M  V30 1494 H 128.51 -3.73945 -0.063876 0
M  V30 1495 H 130.802 -6.63984 -1.34652 0
M  V30 1496 H 131.745 -7.0801 0.112725 0
M  V30 1497 H 132.153 -5.58971 -0.788168 0
M  V30 1498 N 131.551 -0.354651 -1.53558 0
M  V30 1499 C 132.962 0.126902 -1.86268 0
M  V30 1500 C 133.313 1.49075 -1.27558 0
M  V30 1501 O 132.438 2.08105 -0.5934 0
M  V30 1502 C 133.033 0.237046 -3.3797 0
M  V30 1503 C 131.592 0.662842 -3.70518 0
M  V30 1504 C 130.739 -0.196652 -2.76602 0
M  V30 1505 H 133.69 -0.573849 -1.47962 0
M  V30 1506 H 133.711 1.06259 -3.65362 0
M  V30 1507 H 133.223 -0.755725 -3.80671 0
M  V30 1508 H 131.324 1.66424 -3.33367 0
M  V30 1509 H 131.437 0.445034 -4.77029 0
M  V30 1510 H 129.801 0.332763 -2.52517 0
M  V30 1511 H 130.584 -1.18676 -3.22135 0
M  V30 1512 N 133.029 1.57378 -0.0835403 0
M  V30 1513 C 133.939 2.16897 0.894021 0
M  V30 1514 C 134.955 1.13528 1.31861 0
M  V30 1515 O 136.131 1.45848 1.3889 0
M  V30 1516 C 133.196 2.72831 2.13925 0
M  V30 1517 C 132.257 3.91115 1.76997 0
M  V30 1518 C 131.49 4.44371 2.95584 0
M  V30 1519 O 131.713 3.96596 4.09961 0
M  V30 1520 O 130.647 5.35549 2.74719 0
M  V30 1521 H 134.473 3.00814 0.417679 0
M  V30 1522 H 132.058 1.48741 0.140181 0
M  V30 1523 H 133.94 3.0863 2.86924 0
M  V30 1524 H 132.615 1.91967 2.60635 0
M  V30 1525 H 131.522 3.60148 1.01214 0
M  V30 1526 H 132.855 4.73307 1.3506 0
M  V30 1527 N 134.507 -0.190092 1.56449 0
M  V30 1528 C 135.454 -1.23557 1.94942 0
M  V30 1529 C 136.424 -1.44972 0.810696 0
M  V30 1530 O 137.609 -1.58023 1.06927 0
M  V30 1531 C 134.749 -2.57416 2.2985 0
M  V30 1532 C 133.862 -2.43537 3.5681 0
M  V30 1533 C 132.997 -3.70134 3.81017 0
M  V30 1534 C 132.036 -3.51109 5.01387 0
M  V30 1535 N 131.173 -4.6973 5.21822 0
M  V30 1536 H 136.013 -0.900304 2.84075 0
M  V30 1537 H 133.55 -0.43318 1.40577 0
M  V30 1538 H 135.508 -3.35409 2.48106 0
M  V30 1539 H 134.138 -2.88975 1.43852 0
M  V30 1540 H 133.19 -1.56816 3.46573 0
M  V30 1541 H 134.502 -2.25415 4.4496 0
M  V30 1542 H 133.656 -4.56566 3.9954 0
M  V30 1543 H 132.395 -3.91215 2.91207 0
M  V30 1544 H 131.4 -2.63063 4.82782 0
M  V30 1545 H 132.625 -3.31468 5.9271 0
M  V30 1546 H 130.571 -4.91065 4.34961 0
M  V30 1547 H 130.488 -4.54452 6.0416 0
M  V30 1548 H 131.756 -5.57499 5.44808 0
M  V30 1549 N 135.985 -1.50799 -0.457987 0
M  V30 1550 C 137.231 -1.62683 -1.21088 0
M  V30 1551 C 137.564 -0.332268 -1.91336 0
M  V30 1552 O 136.839 0.667043 -1.82704 0
M  V30 1553 C 137.122 -2.81615 -2.24422 0
M  V30 1554 C 136.975 -4.20989 -1.58392 0
M  V30 1555 C 138.294 -2.96085 -3.2561 0
M  V30 1556 H 135.413 -0.592087 -0.438864 0
M  V30 1557 H 138.055 -1.83225 -0.50286 0
M  V30 1558 H 136.205 -2.64231 -2.84806 0
M  V30 1559 H 137.877 -4.49994 -1.01504 0
M  V30 1560 H 136.12 -4.24641 -0.886704 0
M  V30 1561 H 136.791 -5.0016 -2.33547 0
M  V30 1562 H 139.267 -3.12042 -2.75262 0
M  V30 1563 H 138.143 -3.80902 -3.95228 0
M  V30 1564 H 138.404 -2.0726 -3.90507 0
M  V30 1565 N 137.463 0.71206 -1.40597 0
M  V30 1566 C 138.691 1.50111 -1.42388 0
M  V30 1567 C 139.106 1.88784 -0.0245395 0
M  V30 1568 O 138.463 1.55681 0.952351 0
M  V30 1569 C 138.514 2.7742 -2.31776 0
M  V30 1570 O 138.235 2.40382 -3.66262 0
M  V30 1571 C 139.736 3.7129 -2.42196 0
M  V30 1572 H 136.956 0.46314 -0.485533 0
M  V30 1573 H 139.5 0.878068 -1.8469 0
M  V30 1574 H 137.655 3.36001 -1.92827 0
M  V30 1575 H 138.069 3.22324 -4.13772 0
M  V30 1576 H 139.543 4.57448 -3.08943 0
M  V30 1577 H 140.02 4.14641 -1.44809 0
M  V30 1578 H 140.626 3.18619 -2.81712 0
M  V30 1579 N 138.941 1.26152 0.944643 0
M  V30 1580 C 140.187 1.12665 1.69346 0
M  V30 1581 C 140.542 -0.3273 1.89596 0
M  V30 1582 O 139.835 -1.23717 1.46303 0
M  V30 1583 C 140.029 1.82541 3.07268 0
M  V30 1584 C 139.858 3.34582 3.00475 0
M  V30 1585 C 138.628 4.03863 3.03681 0
M  V30 1586 C 140.826 4.30828 2.80877 0
M  V30 1587 N 138.808 5.42603 2.87151 0
M  V30 1588 C 140.179 5.5672 2.7288 0
M  V30 1589 C 142.234 4.21122 2.65633 0
M  V30 1590 C 140.937 6.74013 2.51196 0
M  V30 1591 C 142.963 5.38118 2.45323 0
M  V30 1592 C 142.325 6.62955 2.38055 0
M  V30 1593 H 138.424 0.467041 0.627214 0
M  V30 1594 H 141.008 1.59391 1.11815 0
M  V30 1595 H 139.179 1.38296 3.62945 0
M  V30 1596 H 140.911 1.61708 3.70989 0
M  V30 1597 H 137.666 3.55198 3.1326 0
M  V30 1598 H 138.09 6.15443 2.82063 0
M  V30 1599 H 142.732 3.25344 2.70021 0
M  V30 1600 H 140.45 7.6989 2.4555 0
M  V30 1601 H 144.036 5.32475 2.34439 0
M  V30 1602 H 142.916 7.51959 2.22546 0
M  V30 1603 N 140.419 -1.14872 1.07899 0
M  V30 1604 C 141.352 -2.18794 0.64841 0
M  V30 1605 C 142.33 -1.59065 -0.337189 0
M  V30 1606 O 143.514 -1.86936 -0.242284 0
M  V30 1607 C 140.641 -3.38667 -0.0470417 0
M  V30 1608 C 139.687 -4.16942 0.897884 0
M  V30 1609 S 140.52 -4.78615 2.40183 0
M  V30 1610 C 141.676 -6.0185 1.71834 0
M  V30 1611 H 141.909 -2.5498 1.52881 0
M  V30 1612 H 139.442 -1.25922 0.893484 0
M  V30 1613 H 141.4 -4.08113 -0.442027 0
M  V30 1614 H 140.061 -3.00814 -0.903861 0
M  V30 1615 H 139.254 -5.02726 0.358096 0
M  V30 1616 H 138.856 -3.53073 1.23352 0
M  V30 1617 H 141.148 -6.69574 1.03328 0
M  V30 1618 H 142.091 -6.60408 2.55473 0
M  V30 1619 H 142.499 -5.5173 1.19392 0
M  V30 1620 N 141.898 -0.863906 -1.31812 0
M  V30 1621 C 143.314 -0.555004 -1.49639 0
M  V30 1622 C 143.514 0.912266 -1.79666 0
M  V30 1623 O 142.57 1.69479 -1.87171 0
M  V30 1624 C 143.883 -1.44998 -2.63431 0
M  V30 1625 C 145.431 -1.45138 -2.77316 0
M  V30 1626 C 145.906 -2.33179 -3.94197 0
M  V30 1627 N 147.397 -2.31025 -4.01474 0
M  V30 1628 C 148.132 -2.95871 -4.9117 0
M  V30 1629 N 147.628 -3.69863 -5.8581 0
M  V30 1630 N 149.421 -2.85211 -4.84367 0
M  V30 1631 H 141.572 -1.81339 -1.10589 0
M  V30 1632 H 143.835 -0.77505 -0.545895 0
M  V30 1633 H 143.541 -2.49377 -2.48 0
M  V30 1634 H 143.415 -1.14409 -3.59431 0
M  V30 1635 H 145.802 -0.415201 -2.92164 0
M  V30 1636 H 145.883 -1.79747 -1.82001 0
M  V30 1637 H 145.527 -3.3687 -3.80107 0
M  V30 1638 H 145.457 -1.95897 -4.88807 0
M  V30 1639 H 147.948 -1.77238 -3.33759 0
M  V30 1640 H 148.261 -4.16486 -6.50968 0
M  V30 1641 H 146.606 -3.73971 -5.85808 0
M  V30 1642 H 149.797 -2.26948 -4.09405 0
M  V30 1643 H 149.97 -3.36027 -5.54066 0
M  V30 1644 N 143.376 1.44774 -0.622745 0
M  V30 1645 C 144.792 1.56986 -0.287652 0
M  V30 1646 C 144.992 1.61167 1.20944 0
M  V30 1647 O 144.048 1.55015 1.99315 0
M  V30 1648 C 145.361 2.84551 -0.972188 0
M  V30 1649 C 146.909 2.9825 -0.949536 0
M  V30 1650 C 147.384 4.28605 -1.61437 0
M  V30 1651 N 148.875 4.35399 -1.58057 0
M  V30 1652 C 149.61 5.34964 -2.064 0
M  V30 1653 N 149.106 6.40981 -2.62897 0
M  V30 1654 N 150.899 5.26419 -1.97078 0
M  V30 1655 H 143.05 1.40304 -1.59463 0
M  V30 1656 H 145.313 0.671794 -0.668878 0
M  V30 1657 H 145.019 2.87417 -2.02693 0
M  V30 1658 H 144.893 3.73807 -0.504771 0
M  V30 1659 H 147.28 2.94941 0.0967067 0
M  V30 1660 H 147.361 2.10364 -1.45536 0
M  V30 1661 H 147.005 4.32672 -2.66002 0
M  V30 1662 H 146.935 5.15334 -1.08344 0
M  V30 1663 H 149.426 3.59397 -1.16801 0
M  V30 1664 H 149.739 7.13225 -2.97539 0
M  V30 1665 H 148.084 6.4169 -2.66943 0
M  V30 1666 H 151.275 4.42504 -1.52669 0
M  V30 1667 H 151.448 6.03861 -2.35066 0
M  V30 1668 N 144.854 0.36279 1.53368 0
M  V30 1669 C 145.787 -0.528507 2.21996 0
M  V30 1670 C 146.765 -1.0852 1.21087 0
M  V30 1671 O 147.949 -1.14186 1.4998 0
M  V30 1672 C 145.076 -1.72893 2.91249 0
M  V30 1673 C 144.122 -1.29994 4.06207 0
M  V30 1674 S 144.955 -0.303575 5.34639 0
M  V30 1675 C 146.111 -1.51039 6.07403 0
M  V30 1676 H 146.344 0.0543423 2.9725 0
M  V30 1677 H 143.877 0.146889 1.537 0
M  V30 1678 H 145.835 -2.41751 3.31763 0
M  V30 1679 H 144.496 -2.28303 2.15724 0
M  V30 1680 H 143.689 -2.19549 4.53667 0
M  V30 1681 H 143.291 -0.690608 3.67569 0
M  V30 1682 H 145.583 -2.44186 6.31965 0
M  V30 1683 H 146.526 -1.07721 6.99858 0
M  V30 1684 H 146.934 -1.71518 5.37812 0
M  V30 1685 N 146.332 -1.57332 0.0918853 0
M  V30 1686 C 147.748 -1.57389 -0.264766 0
M  V30 1687 C 147.948 -1.10281 -1.68643 0
M  V30 1688 O 147.004 -0.777801 -2.40222 0
M  V30 1689 C 148.317 -3.00648 -0.0561195 0
M  V30 1690 C 149.865 -3.12754 -0.124116 0
M  V30 1691 C 150.34 -4.57965 0.0564972 0
M  V30 1692 N 151.831 -4.632 0.00155611 0
M  V30 1693 C 152.566 -5.73281 0.116598 0
M  V30 1694 N 152.062 -6.92208 0.286294 0
M  V30 1695 N 153.855 -5.6207 0.0580973 0
M  V30 1696 H 146.006 -1.86262 1.02079 0
M  V30 1697 H 148.269 -0.859579 0.399786 0
M  V30 1698 H 147.975 -3.393 0.925669 0
M  V30 1699 H 147.849 -3.68623 -0.799823 0
M  V30 1700 H 150.236 -2.73976 -1.09641 0
M  V30 1701 H 150.317 -2.47377 0.651024 0
M  V30 1702 H 149.961 -4.97436 1.02564 0
M  V30 1703 H 149.891 -5.21399 -0.738297 0
M  V30 1704 H 152.382 -3.77686 -0.127192 0
M  V30 1705 H 152.695 -7.71934 0.365676 0
M  V30 1706 H 151.04 -6.94254 0.32192 0
M  V30 1707 H 154.231 -4.68043 -0.0733204 0
M  V30 1708 H 154.404 -6.47824 0.151203 0
M  V30 1709 N 147.81 0.181792 -1.56548 0
M  V30 1710 C 149.059 0.898348 -1.8059 0
M  V30 1711 C 149.372 1.83862 -0.667379 0
M  V30 1712 O 150.578 2.59678 -0.792446 0
M  V30 1713 C 149.034 1.64791 -3.19956 0
M  V30 1714 C 148.642 0.751789 -4.41647 0
M  V30 1715 C 150.386 2.35331 -3.53298 0
M  V30 1716 C 148.293 1.50098 -5.72035 0
M  V30 1717 H 147.223 0.339194 -0.673397 0
M  V30 1718 H 149.874 0.151413 -1.82874 0
M  V30 1719 H 148.256 2.43921 -3.11959 0
M  V30 1720 H 149.43 -0.0018076 -4.608 0
M  V30 1721 H 147.745 0.156562 -4.16106 0
M  V30 1722 H 150.342 2.91958 -4.47956 0
M  V30 1723 H 150.685 3.10164 -2.77676 0
M  V30 1724 H 151.218 1.63154 -3.62803 0
M  V30 1725 H 147.957 0.795175 -6.50659 0
M  V30 1726 H 147.477 2.22817 -5.56878 0
M  V30 1727 H 149.156 2.05125 -6.13622 0
M  V30 1728 N 149.288 1.51039 0.449983 0
M  V30 1729 C 150.218 1.74379 1.55288 0
M  V30 1730 C 151.199 0.593236 1.5942 0
M  V30 1731 O 152.384 0.834625 1.7535 0
M  V30 1732 C 149.514 1.85728 2.93466 0
M  V30 1733 C 148.468 3.01078 3.04197 0
M  V30 1734 C 147.794 2.97595 4.44231 0
M  V30 1735 C 149.094 4.41254 2.7945 0
M  V30 1736 H 150.788 2.66725 1.36008 0
M  V30 1737 H 148.334 1.2835 0.652864 0
M  V30 1738 H 150.287 2.0064 3.70569 0
M  V30 1739 H 149.011 0.900207 3.13949 0
M  V30 1740 H 147.67 2.85851 2.29531 0
M  V30 1741 H 147.318 1.99691 4.61663 0
M  V30 1742 H 147.018 3.75046 4.52343 0
M  V30 1743 H 148.542 3.14583 5.23326 0
M  V30 1744 H 149.956 4.56897 3.46292 0
M  V30 1745 H 148.353 5.20315 2.98985 0
M  V30 1746 H 149.423 4.52164 1.75144 0
M  V30 1747 N 150.766 -0.704594 1.40972 0
M  V30 1748 C 152.182 -1.01406 1.23244 0
M  V30 1749 C 152.382 -2.01169 0.115399 0
M  V30 1750 O 151.438 -2.47021 -0.523147 0
M  V30 1751 C 152.751 -1.54728 2.57836 0
M  V30 1752 C 154.299 -1.66658 2.64942 0
M  V30 1753 C 154.774 -2.23383 3.9983 0
M  V30 1754 N 156.265 -2.30756 4.01629 0
M  V30 1755 C 157 -2.75655 5.02794 0
M  V30 1756 N 156.496 -3.20225 6.14352 0
M  V30 1757 N 158.289 -2.75138 4.90159 0
M  V30 1758 H 150.44 -0.0435285 2.12355 0
M  V30 1759 H 152.703 -0.0818951 0.944456 0
M  V30 1760 H 152.409 -0.888832 3.40283 0
M  V30 1761 H 152.283 -2.53084 2.79693 0
M  V30 1762 H 154.67 -2.31617 1.8286 0
M  V30 1763 H 154.751 -0.668717 2.46904 0
M  V30 1764 H 154.395 -1.59043 4.82357 0
M  V30 1765 H 154.325 -3.23904 4.15203 0
M  V30 1766 H 156.816 -1.99291 3.21079 0
M  V30 1767 H 157.129 -3.53084 6.87424 0
M  V30 1768 H 155.474 -3.18156 6.17901 0
M  V30 1769 H 158.665 -2.39661 4.02095 0
M  V30 1770 H 158.838 -3.09812 5.6914 0
M  V30 1771 N 152.244 -1.26651 -0.937939 0
M  V30 1772 C 153.66 -1.03834 -1.21205 0
M  V30 1773 C 153.86 0.234502 -2.00131 0
M  V30 1774 O 152.916 0.942767 -2.3424 0
M  V30 1775 C 154.229 -2.27167 -1.97017 0
M  V30 1776 C 155.777 -2.32101 -2.09996 0
M  V30 1777 C 156.252 -3.55136 -2.8921 0
M  V30 1778 N 157.743 -3.55632 -2.96783 0
M  V30 1779 C 158.478 -4.475 -3.58512 0
M  V30 1780 N 157.974 -5.4966 -4.21717 0
M  V30 1781 N 159.767 -4.35145 -3.55816 0
M  V30 1782 H 151.918 -2.08398 -0.410391 0
M  V30 1783 H 154.181 -0.916031 -0.244114 0
M  V30 1784 H 153.887 -3.19765 -1.46434 0
M  V30 1785 H 153.761 -2.31672 -2.97671 0
M  V30 1786 H 156.148 -1.40015 -2.59769 0
M  V30 1787 H 156.229 -2.31605 -1.08594 0
M  V30 1788 H 155.873 -4.47553 -2.40123 0
M  V30 1789 H 155.803 -3.5288 -3.90875 0
M  V30 1790 H 158.294 -2.81743 -2.51852 0
M  V30 1791 H 158.607 -6.15943 -4.66727 0
M  V30 1792 H 156.952 -5.53514 -4.20294 0
M  V30 1793 H 160.143 -3.5455 -3.05634 0
M  V30 1794 H 160.316 -5.06934 -4.03636 0
M  V30 1795 N 153.722 1.14298 -1.08507 0
M  V30 1796 C 154.652 2.21542 -0.737646 0
M  V30 1797 C 155.633 1.67773 0.280377 0
M  V30 1798 O 156.818 1.93616 0.150521 0
M  V30 1799 C 153.948 3.46988 -0.147259 0
M  V30 1800 C 152.902 4.13789 -1.09374 0
M  V30 1801 C 152.228 5.33449 -0.365524 0
M  V30 1802 C 153.528 4.62208 -2.4323 0
M  V30 1803 H 155.222 2.5086 -1.6343 0
M  V30 1804 H 152.768 1.20576 -0.787243 0
M  V30 1805 H 154.721 4.21262 0.107808 0
M  V30 1806 H 153.445 3.17037 0.784538 0
M  V30 1807 H 152.104 3.4147 -1.33393 0
M  V30 1808 H 151.752 4.99759 0.57011 0
M  V30 1809 H 151.452 5.79088 -0.996512 0
M  V30 1810 H 152.976 6.10485 -0.118534 0
M  V30 1811 H 154.39 5.27952 -2.23472 0
M  V30 1812 H 152.787 5.18553 -3.02031 0
M  V30 1813 H 153.857 3.77224 -3.04681 0
M  V30 1814 N 155.201 0.870884 1.31352 0
M  V30 1815 C 156.131 0.343096 2.30966 0
M  V30 1816 C 157.112 -0.566507 1.60389 0
M  V30 1817 O 158.297 -0.483336 1.88089 0
M  V30 1818 C 155.427 -0.455487 3.443 0
M  V30 1819 C 154.381 0.361103 4.26474 0
M  V30 1820 C 153.707 -0.563221 5.31725 0
M  V30 1821 C 155.007 1.59566 4.97329 0
M  V30 1822 H 156.701 1.17548 2.75359 0
M  V30 1823 H 154.247 0.566686 1.32381 0
M  V30 1824 H 156.2 -0.83525 4.13039 0
M  V30 1825 H 154.924 -1.32139 2.98675 0
M  V30 1826 H 153.583 0.722825 3.59403 0
M  V30 1827 H 153.231 -1.42643 4.82351 0
M  V30 1828 H 152.931 -0.0207409 5.87596 0
M  V30 1829 H 154.455 -0.939808 6.03324 0
M  V30 1830 H 155.869 1.28728 5.58661 0
M  V30 1831 H 154.266 2.07728 5.63 0
M  V30 1832 H 155.336 2.34798 4.24262 0
M  V30 1833 N 156.679 -1.44442 0.630414 0
M  V30 1834 C 158.095 -1.56832 0.295973 0
M  V30 1835 C 158.295 -1.61806 -1.20088 0
M  V30 1836 O 157.351 -1.5607 -1.9849 0
M  V30 1837 C 158.664 -2.84031 0.987264 0
M  V30 1838 C 160.212 -2.97742 0.96534 0
M  V30 1839 C 160.687 -4.27743 1.63708 0
M  V30 1840 N 162.178 -4.34555 1.60364 0
M  V30 1841 C 162.913 -5.33862 2.09234 0
M  V30 1842 N 162.409 -6.39578 2.66292 0
M  V30 1843 N 164.202 -5.25366 1.99867 0
M  V30 1844 H 156.353 -1.39457 1.60205 0
M  V30 1845 H 158.616 -0.668237 0.672431 0
M  V30 1846 H 158.322 -2.86338 2.04215 0
M  V30 1847 H 158.196 -3.73534 0.524588 0
M  V30 1848 H 160.583 -2.94989 -0.0810639 0
M  V30 1849 H 160.664 -2.09589 1.4665 0
M  V30 1850 H 160.308 -4.31255 2.68293 0
M  V30 1851 H 160.238 -5.14752 1.11076 0
M  V30 1852 H 162.729 -3.58772 1.18705 0
M  V30 1853 H 163.042 -7.11637 3.01317 0
M  V30 1854 H 161.387 -6.40265 2.70343 0
M  V30 1855 H 164.578 -4.41688 1.55013 0
M  V30 1856 H 164.751 -6.02606 2.38265 0
M  V30 1857 N 158.157 -0.370918 -1.53173 0
M  V30 1858 C 159.573 -0.0200818 -1.59587 0
M  V30 1859 C 159.773 1.46279 -1.38581 0
M  V30 1860 O 158.829 2.22506 -1.19363 0
M  V30 1861 C 160.142 -0.4808 -2.96831 0
M  V30 1862 C 161.69 -0.435477 -3.09956 0
M  V30 1863 C 162.165 -0.872092 -4.4962 0
M  V30 1864 N 163.656 -0.827364 -4.55751 0
M  V30 1865 C 164.391 -1.13683 -5.62018 0
M  V30 1866 N 163.887 -1.51584 -6.76014 0
M  V30 1867 N 165.68 -1.05927 -5.52029 0
M  V30 1868 H 157.831 -1.33652 -1.65079 0
M  V30 1869 H 160.094 -0.546634 -0.774529 0
M  V30 1870 H 159.8 -1.51577 -3.1736 0
M  V30 1871 H 159.674 0.129796 -3.76977 0
M  V30 1872 H 162.061 0.590371 -2.89134 0
M  V30 1873 H 162.142 -1.08164 -2.31806 0
M  V30 1874 H 161.786 -1.89608 -4.71181 0
M  V30 1875 H 161.716 -0.203127 -5.26208 0
M  V30 1876 H 164.207 -0.548216 -3.73902 0
M  V30 1877 H 164.52 -1.73609 -7.53047 0
M  V30 1878 H 162.865 -1.55454 -6.77391 0
M  V30 1879 H 166.056 -0.762321 -4.61851 0
M  V30 1880 H 166.229 -1.30378 -6.34749 0
M  V30 1881 N 159.635 1.57281 -0.100228 0
M  V30 1882 C 160.865 1.98591 0.569681 0
M  V30 1883 C 161.273 0.978315 1.61943 0
M  V30 1884 O 160.616 -0.0396108 1.83657 0
M  V30 1885 C 160.678 3.36282 1.271 0
M  V30 1886 C 160.342 4.55488 0.371409 0
M  V30 1887 C 161.339 5.18491 -0.382504 0
M  V30 1888 C 159.024 5.01474 0.287965 0
M  V30 1889 C 161.018 6.25852 -1.20779 0
M  V30 1890 C 158.705 6.08701 -0.540965 0
M  V30 1891 C 159.703 6.70755 -1.28749 0
M  V30 1892 O 159.391 7.75914 -2.10269 0
M  V30 1893 H 159.123 0.65752 0.156982 0
M  V30 1894 H 161.677 2.0463 -0.177734 0
M  V30 1895 H 159.907 3.26941 2.0651 0
M  V30 1896 H 161.596 3.62005 1.83595 0
M  V30 1897 H 162.362 4.83891 -0.3278 0
M  V30 1898 H 158.241 4.52932 0.858689 0
M  V30 1899 H 161.785 6.74218 -1.79096 0
M  V30 1900 H 157.682 6.42732 -0.597131 0
M  V30 1901 H 158.45 7.92925 -2.03007 0
M  V30 1902 N 161.113 -0.173488 1.56642 0
M  V30 1903 C 162.529 -0.525174 1.50712 0
M  V30 1904 C 162.729 -1.8476 0.804107 0
M  V30 1905 O 161.785 -2.49869 0.363574 0
M  V30 1906 C 163.098 -0.559937 2.95441 0
M  V30 1907 C 164.646 -0.647288 3.06234 0
M  V30 1908 C 165.121 -0.712963 4.52417 0
M  V30 1909 N 166.612 -0.775911 4.56655 0
M  V30 1910 C 167.347 -0.847264 5.67106 0
M  V30 1911 N 166.843 -0.879585 6.87194 0
M  V30 1912 N 168.636 -0.886117 5.55071 0
M  V30 1913 H 160.787 0.693681 2.00753 0
M  V30 1914 H 163.05 0.249841 0.914485 0
M  V30 1915 H 162.756 0.343049 3.50023 0
M  V30 1916 H 162.63 -1.40718 3.49969 0
M  V30 1917 H 165.017 -1.5407 2.51687 0
M  V30 1918 H 165.098 0.226586 2.54794 0
M  V30 1919 H 164.742 0.176183 5.07594 0
M  V30 1920 H 164.672 -1.60295 5.0161 0
M  V30 1921 H 167.163 -0.759304 3.70193 0
M  V30 1922 H 167.476 -0.935144 7.67121 0
M  V30 1923 H 165.821 -0.847898 6.89808 0
M  V30 1924 H 169.012 -0.857853 4.60172 0
M  V30 1925 H 169.185 -0.938263 6.41171 0
M  V30 1926 N 162.591 -1.51276 -0.441967 0
M  V30 1927 C 163.501 -1.75092 -1.56141 0
M  V30 1928 C 164.517 -0.634963 -1.62001 0
M  V30 1929 O 165.693 -0.916686 -1.79329 0
M  V30 1930 C 162.758 -1.86666 -2.92158 0
M  V30 1931 C 161.819 -3.10506 -2.96453 0
M  V30 1932 C 161.052 -3.21519 -4.25982 0
M  V30 1933 O 161.275 -2.38586 -5.18105 0
M  V30 1934 O 160.209 -4.14465 -4.36466 0
M  V30 1935 H 164.035 -2.70044 -1.38961 0
M  V30 1936 H 161.62 -1.35722 -0.624499 0
M  V30 1937 H 163.502 -1.96292 -3.72891 0
M  V30 1938 H 162.177 -0.949014 -3.09476 0
M  V30 1939 H 161.084 -3.06363 -2.14692 0
M  V30 1940 H 162.417 -4.01945 -2.84079 0
M  V30 1941 N 164.069 0.697108 -1.41344 0
M  V30 1942 C 165.294 1.49096 -1.44171 0
M  V30 1943 C 165.719 1.88038 -0.0481568 0
M  V30 1944 O 165.077 1.54525 0.948243 0
M  V30 1945 C 165.125 2.73088 -2.3549 0
M  V30 1946 O 164.229 3.70514 -1.81088 0
M  V30 1947 H 163.57 0.448801 -0.489361 0
M  V30 1948 H 166.1 0.856992 -1.85787 0
M  V30 1949 H 166.11 3.21413 -2.51312 0
M  V30 1950 H 164.785 2.44081 -3.36745 0
M  V30 1951 H 163.362 3.29441 -1.74708 0
M  V30 1952 N 165.547 1.27147 0.931209 0
M  V30 1953 C 166.494 1.09568 2.03134 0
M  V30 1954 C 167.464 -0.00222433 1.661 0
M  V30 1955 O 168.649 0.159439 1.90133 0
M  V30 1956 C 165.789 0.745231 3.36957 0
M  V30 1957 C 164.902 1.92041 3.86968 0
M  V30 1958 C 164.037 1.51216 5.09222 0
M  V30 1959 C 163.076 2.65504 5.5152 0
M  V30 1960 N 162.213 2.25291 6.64972 0
M  V30 1961 H 167.053 2.03708 2.17502 0
M  V30 1962 H 164.59 1.01411 1.06556 0
M  V30 1963 H 166.548 0.522878 4.1391 0
M  V30 1964 H 165.178 -0.159202 3.22407 0
M  V30 1965 H 164.23 2.25541 3.06326 0
M  V30 1966 H 165.542 2.77787 4.1429 0
M  V30 1967 H 164.696 1.25084 5.93666 0
M  V30 1968 H 163.435 0.625749 4.83669 0
M  V30 1969 H 162.44 2.92354 4.65628 0
M  V30 1970 H 163.665 3.54761 5.7907 0
M  V30 1971 H 161.611 1.39098 6.41083 0
M  V30 1972 H 161.528 3.04577 6.91931 0
M  V30 1973 H 162.796 2.02398 7.52765 0
M  V30 1974 N 167.025 -1.13721 1.09112 0
M  V30 1975 C 167.972 -2.19031 0.727591 0
M  V30 1976 C 168.942 -1.63555 -0.289656 0
M  V30 1977 O 170.127 -1.90023 -0.172026 0
M  V30 1978 C 167.267 -3.4477 0.15082 0
M  V30 1979 C 166.38 -4.14365 1.22172 0
M  V30 1980 C 165.515 -5.27709 0.608042 0
M  V30 1981 C 164.554 -5.89147 1.66047 0
M  V30 1982 N 163.691 -6.93929 1.06806 0
M  V30 1983 H 168.531 -2.49475 1.62991 0
M  V30 1984 H 166.068 -1.22499 0.81439 0
M  V30 1985 H 168.026 -4.16714 -0.201358 0
M  V30 1986 H 166.656 -3.14787 -0.714783 0
M  V30 1987 H 165.708 -3.40737 1.69122 0
M  V30 1988 H 167.02 -4.56114 2.01895 0
M  V30 1989 H 166.174 -6.06355 0.204523 0
M  V30 1990 H 164.913 -4.872 -0.220769 0
M  V30 1991 H 163.918 -5.09198 2.07357 0
M  V30 1992 H 165.143 -6.31729 2.49189 0
M  V30 1993 H 163.089 -6.55483 0.260476 0
M  V30 1994 H 163.006 -7.34202 1.8023 0
M  V30 1995 H 164.274 -7.76434 0.690644 0
M  V30 1996 N 168.503 -0.877838 -1.30888 0
M  V30 1997 C 169.752 -0.488793 -1.95688 0
M  V30 1998 C 170.065 0.965485 -1.70111 0
M  V30 1999 O 171.271 1.46104 -2.28836 0
M  V30 2000 C 169.727 -0.823201 -3.50359 0
M  V30 2001 C 169.335 -2.29477 -3.84765 0
M  V30 2002 C 171.079 -0.503009 -4.21509 0
M  V30 2003 C 168.986 -2.57118 -5.32583 0
M  V30 2004 H 167.916 -0.179062 -0.732429 0
M  V30 2005 H 170.567 -1.07183 -1.48943 0
M  V30 2006 H 168.949 -0.169331 -3.95638 0
M  V30 2007 H 170.123 -2.99236 -3.5042 0
M  V30 2008 H 168.438 -2.58178 -3.267 0
M  V30 2009 H 171.035 -0.68665 -5.30273 0
M  V30 2010 H 171.378 0.557109 -4.12555 0
M  V30 2011 H 171.911 -1.11376 -3.8189 0
M  V30 2012 H 168.65 -3.61843 -5.4658 0
M  V30 2013 H 168.17 -1.91961 -5.68253 0
M  V30 2014 H 169.849 -2.42251 -5.99936 0
M  V30 2015 N 169.982 1.44106 -0.638065 0
M  V30 2016 C 171.259 1.95453 -0.0759321 0
M  V30 2017 C 171.639 1.57984 1.40015 0
M  V30 2018 O 170.987 0.857361 2.11806 0
M  V30 2019 C 171.197 3.47655 -0.306132 0
M  V30 2020 C 172.545 4.24114 -0.203008 0
M  V30 2021 O 173.569 3.55405 -0.237871 0
M  V30 2022 O 172.428 5.46381 -0.113827 0
M  V30 2023 H 169.522 0.826797 0.0183332 0
M  V30 2024 H 172.068 1.54122 -0.710251 0
M  V30 2025 H 170.84 3.68 -1.3301 0
M  V30 2026 H 170.463 3.95949 0.361991 0
M  V30 2027 N 171.46 0.379036 1.52974 0
M  V30 2028 C 172.876 0.0285448 1.59574 0
M  V30 2029 C 173.076 -1.45542 1.39355 0
M  V30 2030 O 172.132 -2.2187 1.20541 0
M  V30 2031 C 173.445 0.496535 2.96572 0
M  V30 2032 C 174.993 0.451909 3.0972 0
M  V30 2033 C 175.468 0.895924 4.49152 0
M  V30 2034 N 176.959 0.851522 4.55306 0
M  V30 2035 C 177.694 1.16661 5.61407 0
M  V30 2036 N 177.19 1.55166 6.752 0
M  V30 2037 N 178.983 1.08853 5.51459 0
M  V30 2038 H 171.134 1.34525 1.64367 0
M  V30 2039 H 173.397 0.550733 0.771619 0
M  V30 2040 H 173.103 1.53258 3.16552 0
M  V30 2041 H 172.977 -0.109802 3.7704 0
M  V30 2042 H 175.364 -0.575029 2.89443 0
M  V30 2043 H 175.445 1.09392 2.3123 0
M  V30 2044 H 175.089 1.92104 4.70168 0
M  V30 2045 H 175.019 0.23103 5.26093 0
M  V30 2046 H 177.51 0.568038 3.73606 0
M  V30 2047 H 177.823 1.776 7.52116 0
M  V30 2048 H 176.168 1.59044 6.76557 0
M  V30 2049 H 179.359 0.786803 4.6144 0
M  V30 2050 H 179.532 1.33742 6.34048 0
M  V30 2051 N 172.938 -1.57226 0.108567 0
M  V30 2052 C 173.888 -2.11305 -0.856396 0
M  V30 2053 C 174.872 -1.03129 -1.23504 0
M  V30 2054 O 176.064 -1.29381 -1.20787 0
M  V30 2055 C 173.193 -2.70771 -2.11041 0
M  V30 2056 C 172.279 -3.86011 -1.7566 0
M  V30 2057 N 172.67 -4.93492 -1.10902 0
M  V30 2058 C 170.968 -3.95999 -2.05185 0
M  V30 2059 C 171.669 -5.73984 -0.944308 0
M  V30 2060 N 170.645 -5.2346 -1.46596 0
M  V30 2061 H 174.447 -2.91784 -0.352002 0
M  V30 2062 H 171.961 -1.62126 -0.0942324 0
M  V30 2063 H 173.958 -3.07851 -2.81128 0
M  V30 2064 H 172.618 -1.91751 -2.62034 0
M  V30 2065 H 173.629 -5.1208 -0.774235 0
M  V30 2066 H 170.306 -3.28007 -2.58298 0
M  V30 2067 H 171.696 -6.70479 -0.436813 0
M  V30 2068 N 174.416 0.165178 -1.56732 0
M  V30 2069 C 175.349 1.23336 -1.91998 0
M  V30 2070 C 176.327 1.42476 -0.783531 0
M  V30 2071 O 177.511 1.57384 -1.03743 0
M  V30 2072 C 174.638 2.59533 -2.17625 0
M  V30 2073 C 173.684 2.57093 -3.40302 0
M  V30 2074 S 174.517 2.05571 -4.9447 0
M  V30 2075 C 175.673 3.43532 -5.23198 0
M  V30 2076 H 175.906 0.932387 -2.82301 0
M  V30 2077 H 173.439 0.370013 -1.49901 0
M  V30 2078 H 175.397 3.37918 -2.3307 0
M  V30 2079 H 174.058 2.86827 -1.28019 0
M  V30 2080 H 173.251 3.57308 -3.55453 0
M  V30 2081 H 172.853 1.86806 -3.24005 0
M  V30 2082 H 175.145 4.39559 -5.15552 0
M  V30 2083 H 176.088 3.33251 -6.2478 0
M  V30 2084 H 176.496 3.39828 -4.50752 0
M  V30 2085 N 175.894 1.51508 0.433938 0
M  V30 2086 C 177.124 1.67914 1.20369 0
M  V30 2087 C 177.532 0.377461 1.85397 0
M  V30 2088 O 176.875 -0.654255 1.71654 0
M  V30 2089 C 176.937 2.74045 2.32679 0
M  V30 2090 C 176.601 4.16543 1.87991 0
M  V30 2091 C 177.598 5.01211 1.38145 0
M  V30 2092 C 175.283 4.6266 1.95579 0
M  V30 2093 C 177.277 6.30056 0.964774 0
M  V30 2094 C 174.964 5.91501 1.53523 0
M  V30 2095 C 175.962 6.75027 1.04055 0
M  V30 2096 O 175.65 8.01459 0.625964 0
M  V30 2097 H 175.382 0.566578 0.368735 0
M  V30 2098 H 177.936 1.98709 0.51999 0
M  V30 2099 H 176.166 2.38572 3.04336 0
M  V30 2100 H 177.855 2.79295 2.94532 0
M  V30 2101 H 178.621 4.66783 1.31675 0
M  V30 2102 H 174.5 3.97767 2.33029 0
M  V30 2103 H 178.044 6.95202 0.57796 0
M  V30 2104 H 173.941 6.25442 1.59665 0
M  V30 2105 H 174.709 8.15043 0.751509 0
M  V30 2106 N 177.372 -0.689602 1.41712 0
M  V30 2107 C 178.322 -1.79571 1.40493 0
M  V30 2108 C 179.306 -1.58473 0.278409 0
M  V30 2109 O 180.498 -1.69204 0.519532 0
M  V30 2110 C 177.627 -3.17923 1.29536 0
M  V30 2111 C 176.713 -3.44695 2.47075 0
M  V30 2112 N 177.104 -3.42132 3.72531 0
M  V30 2113 C 175.402 -3.75269 2.41017 0
M  V30 2114 C 176.103 -3.67976 4.50521 0
M  V30 2115 N 175.079 -3.88014 3.80718 0
M  V30 2116 H 178.881 -1.75961 2.35404 0
M  V30 2117 H 176.395 -0.889839 1.35851 0
M  V30 2118 H 178.392 -3.97167 1.26745 0
M  V30 2119 H 177.052 -3.22741 0.356153 0
M  V30 2120 H 178.063 -3.22375 4.05333 0
M  V30 2121 H 174.74 -3.87421 1.55599 0
M  V30 2122 H 176.13 -3.7208 5.59469 0
M  V30 2123 N 178.85 -1.27639 -0.924453 0
M  V30 2124 C 180.075 -1.17101 -1.71179 0
M  V30 2125 C 180.5 0.268134 -1.86179 0
M  V30 2126 O 179.858 1.19415 -1.36418 0
M  V30 2127 C 179.906 -1.86313 -3.08739 0
M  V30 2128 O 179.01 -1.16331 -3.95652 0
M  V30 2129 H 178.351 -0.407091 -0.524569 0
M  V30 2130 H 180.881 -1.68767 -1.15666 0
M  V30 2131 H 180.891 -1.938 -3.59034 0
M  V30 2132 H 179.566 -2.91001 -2.97138 0
M  V30 2133 H 178.143 -1.16935 -3.54091 0
M  V30 2134 N 180.328 1.1314 -1.09713 0
M  V30 2135 C 181.258 2.20748 -0.761102 0
M  V30 2136 C 182.239 1.68061 0.262566 0
M  V30 2137 O 183.424 1.93765 0.129977 0
M  V30 2138 C 180.554 3.46812 -0.184054 0
M  V30 2139 C 179.508 4.12606 -1.13757 0
M  V30 2140 C 178.834 5.33031 -0.422083 0
M  V30 2141 C 180.134 4.59603 -2.48118 0
M  V30 2142 H 181.828 2.49113 -1.66082 0
M  V30 2143 H 179.374 1.19734 -0.799987 0
M  V30 2144 H 181.327 4.21353 0.0631215 0
M  V30 2145 H 180.051 3.17851 0.750868 0
M  V30 2146 H 178.71 3.40036 -1.37007 0
M  V30 2147 H 178.358 5.00335 0.517072 0
M  V30 2148 H 178.058 5.77999 -1.05788 0
M  V30 2149 H 179.582 6.10325 -0.183277 0
M  V30 2150 H 180.996 5.25552 -2.29059 0
M  V30 2151 H 179.393 5.15321 -3.07514 0
M  V30 2152 H 180.463 3.73971 -3.08665 0
M  V30 2153 N 181.806 0.884767 1.30421 0
M  V30 2154 C 183.036 0.517293 2.00019 0
M  V30 2155 C 183.444 -0.898632 1.66497 0
M  V30 2156 O 182.787 -1.60245 0.898181 0
M  V30 2157 C 182.849 0.612025 3.54252 0
M  V30 2158 C 182.513 1.99222 4.1129 0
M  V30 2159 C 183.51 2.9616 4.273 0
M  V30 2160 C 181.195 2.29755 4.46674 0
M  V30 2161 C 183.189 4.21764 4.77906 0
M  V30 2162 C 180.876 3.55606 4.96979 0
M  V30 2163 C 181.874 4.51425 5.12547 0
M  V30 2164 O 181.562 5.75043 5.61766 0
M  V30 2165 H 181.294 0.198529 0.64619 0
M  V30 2166 H 183.848 1.1919 1.67281 0
M  V30 2167 H 182.078 -0.119561 3.86515 0
M  V30 2168 H 183.767 0.255859 4.05093 0
M  V30 2169 H 184.533 2.73882 4.00267 0
M  V30 2170 H 180.412 1.55942 4.33824 0
M  V30 2171 H 183.956 4.96561 4.89972 0
M  V30 2172 H 179.853 3.7772 5.23448 0
M  V30 2173 H 180.621 5.77422 5.80109 0
M  V30 2174 N 183.284 -1.43765 0.645699 0
M  V30 2175 C 184.214 -2.33471 -0.0370477 0
M  V30 2176 C 185.195 -1.49042 -0.819779 0
M  V30 2177 O 186.38 -1.77726 -0.782758 0
M  V30 2178 C 183.51 -3.32311 -1.0093 0
M  V30 2179 C 182.464 -4.2667 -0.337201 0
M  V30 2180 C 181.79 -5.1549 -1.42037 0
M  V30 2181 C 183.09 -5.16657 0.765706 0
M  V30 2182 H 184.784 -2.90809 0.712069 0
M  V30 2183 H 182.33 -1.39834 0.343876 0
M  V30 2184 H 184.283 -3.9396 -1.49578 0
M  V30 2185 H 183.007 -2.73213 -1.78948 0
M  V30 2186 H 181.666 -3.66374 0.128771 0
M  V30 2187 H 181.314 -4.52735 -2.1918 0
M  V30 2188 H 181.014 -5.79438 -0.975966 0
M  V30 2189 H 182.538 -5.80012 -1.90838 0
M  V30 2190 H 183.952 -5.72158 0.361702 0
M  V30 2191 H 182.349 -5.89286 1.13413 0
M  V30 2192 H 183.419 -4.56796 1.62683 0
M  V30 2193 N 184.763 -0.387143 -1.52771 0
M  V30 2194 C 185.71 0.449048 -2.26389 0
M  V30 2195 C 186.68 1.05961 -1.27912 0
M  V30 2196 O 187.865 1.08804 -1.56737 0
M  V30 2197 C 185.005 1.57155 -3.0724 0
M  V30 2198 C 184.118 0.984066 -4.20643 0
M  V30 2199 C 183.253 2.07745 -4.88892 0
M  V30 2200 C 182.292 1.46574 -5.94292 0
M  V30 2201 N 181.429 2.49834 -6.56146 0
M  V30 2202 H 186.269 -0.185205 -2.97424 0
M  V30 2203 H 183.806 -0.103164 -1.46738 0
M  V30 2204 H 185.764 2.23309 -3.52405 0
M  V30 2205 H 184.394 2.17615 -2.38419 0
M  V30 2206 H 183.446 0.212193 -3.79808 0
M  V30 2207 H 184.758 0.497029 -4.96318 0
M  V30 2208 H 183.912 2.81673 -5.3735 0
M  V30 2209 H 182.651 2.59807 -4.12737 0
M  V30 2210 H 181.656 0.711696 -5.45174 0
M  V30 2211 H 182.881 0.953088 -6.72379 0
M  V30 2212 H 180.827 3.0107 -5.82832 0
M  V30 2213 H 180.744 2.05879 -7.27427 0
M  V30 2214 H 182.012 3.23399 -7.09249 0
M  V30 2215 N 186.241 1.57166 -0.116904 0
M  V30 2216 C 187.487 1.95412 0.542405 0
M  V30 2217 C 187.82 1.00019 1.66463 0
M  V30 2218 O 187.095 0.0370346 1.94465 0
M  V30 2219 C 187.378 3.43615 1.07708 0
M  V30 2220 C 187.231 4.49781 -0.0415868 0
M  V30 2221 C 188.55 3.93616 1.96861 0
M  V30 2222 H 185.669 0.710543 0.195696 0
M  V30 2223 H 188.311 1.89027 -0.192038 0
M  V30 2224 H 186.461 3.49187 1.70296 0
M  V30 2225 H 188.133 4.56308 -0.676793 0
M  V30 2226 H 186.376 4.28033 -0.705019 0
M  V30 2227 H 187.047 5.50733 0.373717 0
M  V30 2228 H 189.523 3.90335 1.44146 0
M  V30 2229 H 188.399 4.97838 2.3119 0
M  V30 2230 H 188.66 3.34188 2.89432 0
M  V30 2231 N 187.719 -0.156864 1.56817 0
M  V30 2232 C 188.666 -1.19394 1.97519 0
M  V30 2233 C 189.636 -1.4322 0.841265 0
M  V30 2234 O 190.821 -1.55719 1.10255 0
M  V30 2235 C 187.961 -2.52483 2.35258 0
M  V30 2236 C 187.074 -2.35914 3.61896 0
M  V30 2237 C 186.209 -3.61969 3.88782 0
M  V30 2238 C 185.248 -3.40395 5.08722 0
M  V30 2239 N 184.385 -4.58556 5.31668 0
M  V30 2240 H 189.225 -0.839845 2.85921 0
M  V30 2241 H 186.762 -0.403264 1.41464 0
M  V30 2242 H 188.72 -3.30071 2.55165 0
M  V30 2243 H 187.35 -2.85859 1.49949 0
M  V30 2244 H 186.402 -1.49429 3.49821 0
M  V30 2245 H 187.714 -2.15926 4.49641 0
M  V30 2246 H 186.868 -4.47989 4.09135 0
M  V30 2247 H 185.607 -3.84951 2.9944 0
M  V30 2248 H 184.612 -2.52763 4.88253 0
M  V30 2249 H 185.837 -3.18822 5.99608 0
M  V30 2250 H 183.783 -4.81729 4.45279 0
M  V30 2251 H 183.7 -4.41535 6.13664 0
M  V30 2252 H 184.968 -5.45817 5.5651 0
M  V30 2253 N 189.197 -1.51736 -0.425897 0
M  V30 2254 C 190.445 -1.64644 -1.17204 0
M  V30 2255 C 190.766 -0.370486 -1.91448 0
M  V30 2256 O 190.036 0.614088 -1.86026 0
M  V30 2257 H 188.616 -0.606819 -0.435638 0
M  V30 2258 H 191.278 -1.88713 -0.487177 0
M  V30 2259 H 190.374 -2.47958 -1.89534 0
M  V30 2260 N 190.675 0.682077 -1.42076 0
M  V30 2261 C 191.623 1.81707 -1.45208 0
M  V30 2262 C 192.617 1.66183 -0.328591 0
M  V30 2263 O 193.823 1.7288 -0.501264 0
M  V30 2264 H 190.198 0.599014 -0.454628 0
M  V30 2265 H 192.169 1.76183 -2.40836 0
M  V30 2266 C 190.918 3.19816 -1.36428 0
M  V30 2267 H 190.241 3.32385 -2.22171 0
M  V30 2268 H 191.681 3.99272 -1.42681 0
M  V30 2269 C 190.14 3.36809 -0.078191 0
M  V30 2270 O 190.67 3.92124 0.87188 0
M  V30 2271 N 188.876 2.906 0.00229266 0
M  V30 2272 H 188.423 2.45772 -0.771616 0
M  V30 2273 H 188.381 3.02347 0.862179 0
M  V30 2274 N 192.153 1.28127 0.917671 0
M  V30 2275 C 193.399 1.15223 1.66888 0
M  V30 2276 C 193.732 -0.299293 1.9188 0
M  V30 2277 O 193.007 -1.21805 1.51637 0
M  V30 2278 C 193.29 1.94706 3.02922 0
M  V30 2279 C 193.143 3.47898 2.85109 0
M  V30 2280 C 194.462 1.75939 4.03402 0
M  V30 2281 H 191.581 0.419946 0.605652 0
M  V30 2282 H 194.223 1.57398 1.06423 0
M  V30 2283 H 192.373 1.58864 3.54534 0
M  V30 2284 H 194.045 3.93624 2.40537 0
M  V30 2285 H 192.288 3.7373 2.20246 0
M  V30 2286 H 192.959 3.98765 3.81694 0
M  V30 2287 H 195.435 2.07209 3.60837 0
M  V30 2288 H 194.311 2.33931 4.96556 0
M  V30 2289 H 194.572 0.709877 4.36364 0
M  V30 2290 N 193.631 -1.12557 1.10312 0
M  V30 2291 C 194.878 -1.84038 0.844759 0
M  V30 2292 C 195.206 -1.84026 -0.629668 0
M  V30 2293 O 194.461 -1.28026 -1.48013 0
M  V30 2294 C 194.76 -3.31462 1.33669 0
M  V30 2295 C 194.426 -3.51647 2.82232 0
M  V30 2296 C 193.088 -3.56864 3.22802 0
M  V30 2297 C 195.44 -3.58867 3.77974 0
M  V30 2298 C 192.768 -3.66844 4.57867 0
M  V30 2299 C 195.12 -3.70375 5.1284 0
M  V30 2300 C 193.784 -3.73848 5.52986 0
M  V30 2301 H 193.054 -0.673444 0.309119 0
M  V30 2302 H 195.701 -1.32824 1.37949 0
M  V30 2303 H 194.006 -3.85091 0.721949 0
M  V30 2304 H 195.703 -3.85236 1.11329 0
M  V30 2305 H 192.293 -3.48249 2.49842 0
M  V30 2306 H 196.477 -3.54107 3.47738 0
M  V30 2307 H 191.733 -3.67804 4.88396 0
M  V30 2308 H 195.907 -3.74904 5.86873 0
M  V30 2309 H 193.534 -3.81333 6.57639 0
M  V30 2310 N 195.109 -0.891671 -1.2995 0
M  V30 2311 C 196.056 -0.361736 -2.27948 0
M  V30 2312 C 197.026 0.551761 -1.56668 0
M  V30 2313 O 198.211 0.478736 -1.84696 0
M  V30 2314 C 195.351 0.411825 -3.42634 0
M  V30 2315 C 194.464 -0.531651 -4.28716 0
M  V30 2316 C 193.599 0.258167 -5.30572 0
M  V30 2317 C 192.638 -0.680349 -6.08307 0
M  V30 2318 N 191.775 0.0745613 -7.0206 0
M  V30 2319 H 196.615 -1.20254 -2.72659 0
M  V30 2320 H 194.152 -0.604352 -1.34112 0
M  V30 2321 H 196.11 0.876304 -4.07893 0
M  V30 2322 H 194.74 1.21715 -2.98974 0
M  V30 2323 H 193.792 -1.11463 -3.63703 0
M  V30 2324 H 195.104 -1.25038 -4.82874 0
M  V30 2325 H 194.258 0.784204 -6.0161 0
M  V30 2326 H 192.997 1.01008 -4.77126 0
M  V30 2327 H 192.002 -1.21796 -5.3614 0
M  V30 2328 H 193.227 -1.43145 -6.63842 0
M  V30 2329 H 191.173 0.808883 -6.50994 0
M  V30 2330 H 191.09 -0.584409 -7.53738 0
M  V30 2331 H 192.358 0.581123 -7.77331 0
M  V30 2332 N 196.587 1.43421 -0.653314 0
M  V30 2333 C 197.535 2.32546 0.0501531 0
M  V30 2334 C 198.529 1.48617 0.812985 0
M  V30 2335 O 199.735 1.64825 0.723375 0
M  V30 2336 H 196.11 0.751185 0.0350032 0
M  V30 2337 H 198.081 2.89602 -0.719261 0
M  V30 2338 C 196.83 3.32925 1.00279 0
M  V30 2339 H 196.153 3.97532 0.425236 0
M  V30 2340 H 197.593 3.9792 1.46409 0
M  V30 2341 C 196.052 2.63532 2.09886 0
M  V30 2342 O 196.582 2.45092 3.18265 0
M  V30 2343 N 194.788 2.22905 1.86445 0
M  V30 2344 H 194.335 2.38103 0.98309 0
M  V30 2345 H 194.293 1.76805 2.59976 0
M  V30 2346 N 198.065 0.39524 1.52563 0
M  V30 2347 C 199.012 -0.437036 2.26624 0
M  V30 2348 C 199.982 -1.05281 1.28472 0
M  V30 2349 O 201.167 -1.07971 1.57311 0
M  V30 2350 C 198.307 -1.55524 3.08069 0
M  V30 2351 C 197.42 -0.961745 4.21158 0
M  V30 2352 C 196.555 -2.05149 4.89987 0
M  V30 2353 C 195.594 -1.4342 5.95061 0
M  V30 2354 N 194.731 -2.46351 6.57462 0
M  V30 2355 H 199.571 0.200976 2.97322 0
M  V30 2356 H 197.108 0.110944 1.46681 0
M  V30 2357 H 199.066 -2.21437 3.53584 0
M  V30 2358 H 197.696 -2.16348 2.3957 0
M  V30 2359 H 196.748 -0.192048 3.79915 0
M  V30 2360 H 198.06 -0.470701 4.96574 0
M  V30 2361 H 197.214 -2.78819 5.38837 0
M  V30 2362 H 195.953 -2.57615 4.14109 0
M  V30 2363 H 194.958 -0.682774 5.45544 0
M  V30 2364 H 196.183 -0.917416 6.72875 0
M  V30 2365 H 194.129 -2.97975 5.8442 0
M  V30 2366 H 194.046 -2.02019 7.28508 0
M  V30 2367 H 195.314 -3.19633 7.10954 0
M  V30 2368 N 199.544 -1.57102 0.125237 0
M  V30 2369 C 200.96 -1.57915 -0.231322 0
M  V30 2370 C 201.16 -1.13833 -1.66266 0
M  V30 2371 O 200.216 -0.828581 -2.38518 0
M  V30 2372 C 201.529 -3.00699 0.00766489 0
M  V30 2373 C 203.077 -3.12947 -0.0577483 0
M  V30 2374 C 203.552 -4.57742 0.153626 0
M  V30 2375 N 205.043 -4.63092 0.0998073 0
M  V30 2376 C 205.778 -5.72905 0.238174 0
M  V30 2377 N 205.274 -6.91445 0.433057 0
M  V30 2378 N 207.067 -5.6182 0.177308 0
M  V30 2379 H 199.218 -1.84055 1.06007 0
M  V30 2380 H 201.481 -0.850905 0.417929 0
M  V30 2381 H 201.187 -3.3726 0.997431 0
M  V30 2382 H 201.061 -3.70236 -0.721452 0
M  V30 2383 H 203.448 -2.7624 -1.03804 0
M  V30 2384 H 203.529 -2.4594 0.70335 0
M  V30 2385 H 203.173 -4.95149 1.13092 0
M  V30 2386 H 203.103 -5.22848 -0.627534 0
M  V30 2387 H 205.594 -3.77871 -0.047051 0
M  V30 2388 H 205.907 -7.70985 0.529332 0
M  V30 2389 H 204.252 -6.93415 0.469109 0
M  V30 2390 H 207.443 -4.68093 0.0259748 0
M  V30 2391 H 207.616 -6.47357 0.288582 0
M  V30 2392 N 201.022 0.148545 -1.56898 0
M  V30 2393 C 202.271 0.85984 -1.82454 0
M  V30 2394 C 202.584 1.82406 -0.706229 0
M  V30 2395 O 203.79 2.57938 -0.847349 0
M  V30 2396 C 202.246 1.57967 -3.2338 0
M  V30 2397 C 201.854 0.65794 -4.43142 0
M  V30 2398 C 203.598 2.27784 -3.58211 0
M  V30 2399 C 201.505 1.3793 -5.75091 0
M  V30 2400 H 200.435 0.324834 -0.68044 0
M  V30 2401 H 203.086 0.112588 -1.83154 0
M  V30 2402 H 201.468 2.37249 -3.17063 0
M  V30 2403 H 202.642 -0.0995497 -4.60692 0
M  V30 2404 H 200.957 0.0682643 -4.16344 0
M  V30 2405 H 203.554 2.8239 -4.54048 0
M  V30 2406 H 203.897 3.04204 -2.84193 0
M  V30 2407 H 204.43 1.55421 -3.66182 0
M  V30 2408 H 201.169 0.656982 -6.52199 0
M  V30 2409 H 200.689 2.10954 -5.61479 0
M  V30 2410 H 202.368 1.92063 -6.17835 0
M  V30 2411 N 202.5 1.5196 0.417844 0
M  V30 2412 C 203.43 1.77634 1.51554 0
M  V30 2413 C 204.411 0.626918 1.58126 0
M  V30 2414 O 205.596 0.871632 1.7354 0
M  V30 2415 C 202.726 1.91911 2.8946 0
M  V30 2416 C 201.68 3.07463 2.97743 0
M  V30 2417 C 201.006 3.06951 4.37819 0
M  V30 2418 C 202.306 4.47082 2.70027 0
M  V30 2419 H 204 2.6955 1.3032 0
M  V30 2420 H 201.546 1.29706 0.625492 0
M  V30 2421 H 203.499 2.08455 3.6623 0
M  V30 2422 H 202.223 0.966598 3.11969 0
M  V30 2423 H 200.882 2.90656 2.23416 0
M  V30 2424 H 200.53 2.09438 4.57323 0
M  V30 2425 H 200.23 3.84556 4.44286 0
M  V30 2426 H 201.754 3.25613 5.16535 0
M  V30 2427 H 203.168 4.6414 3.36522 0
M  V30 2428 H 201.565 5.2654 2.87881 0
M  V30 2429 H 202.635 4.55777 1.65514 0
M  V30 2430 N 203.978 -0.674533 1.42435 0
M  V30 2431 C 204.911 -1.79924 1.40366 0
M  V30 2432 C 205.889 -1.60378 0.267899 0
M  V30 2433 O 207.073 -1.82847 0.458159 0
M  V30 2434 C 204.2 -3.16927 1.19478 0
M  V30 2435 C 203.246 -3.55221 2.36051 0
M  V30 2436 S 204.079 -3.5762 3.98583 0
M  V30 2437 C 205.235 -4.97315 3.80038 0
M  V30 2438 H 205.468 -1.81405 2.35541 0
M  V30 2439 H 203.001 -0.845221 1.29211 0
M  V30 2440 H 204.959 -3.96007 1.08114 0
M  V30 2441 H 203.62 -3.13031 0.258883 0
M  V30 2442 H 202.813 -4.54804 2.17185 0
M  V30 2443 H 202.415 -2.83502 2.43932 0
M  V30 2444 H 204.707 -5.85401 3.41045 0
M  V30 2445 H 205.65 -5.21228 4.79298 0
M  V30 2446 H 206.058 -4.69845 3.12899 0
M  V30 2447 N 205.456 -1.28612 -0.910864 0
M  V30 2448 C 206.366 -1.14643 -2.0468 0
M  V30 2449 C 207.382 -0.0723121 -1.7385 0
M  V30 2450 O 208.558 -0.282178 -1.99413 0
M  V30 2451 C 205.623 -0.812561 -3.37044 0
M  V30 2452 C 204.684 -1.96935 -3.81465 0
M  V30 2453 C 203.917 -1.65131 -5.07511 0
M  V30 2454 O 204.14 -0.567013 -5.67575 0
M  V30 2455 O 203.074 -2.49585 -5.47714 0
M  V30 2456 H 206.9 -2.1001 -2.19384 0
M  V30 2457 H 204.485 -1.07958 -1.03274 0
M  V30 2458 H 206.367 -0.640441 -4.16505 0
M  V30 2459 H 205.042 0.111426 -3.23508 0
M  V30 2460 H 203.949 -2.19664 -3.02818 0
M  V30 2461 H 205.282 -2.87414 -3.99567 0
M  V30 2462 N 206.934 1.1197 -1.10907 0
M  V30 2463 C 207.884 2.15946 -0.731538 0
M  V30 2464 C 208.868 1.58758 0.261699 0
M  V30 2465 O 210.06 1.76863 0.0696722 0
M  V30 2466 C 207.189 3.42877 -0.170299 0
M  V30 2467 C 206.275 4.07037 -1.19087 0
M  V30 2468 N 206.666 4.46135 -2.38322 0
M  V30 2469 C 204.964 4.33884 -1.03252 0
M  V30 2470 C 205.665 4.96331 -3.03366 0
M  V30 2471 N 204.641 4.9214 -2.30865 0
M  V30 2472 H 208.443 2.43947 -1.63912 0
M  V30 2473 H 205.957 1.28927 -0.987505 0
M  V30 2474 H 207.954 4.16732 0.118271 0
M  V30 2475 H 206.614 3.16343 0.731935 0
M  V30 2476 H 207.625 4.38345 -2.75815 0
M  V30 2477 H 204.302 4.17084 -0.186256 0
M  V30 2478 H 205.692 5.36257 -4.04818 0
M  V30 2479 N 208.412 0.89855 1.29475 0
M  V30 2480 C 209.661 0.519863 1.94885 0
M  V30 2481 C 209.974 -0.9383 1.71625 0
M  V30 2482 O 211.18 -1.42445 2.31131 0
M  V30 2483 C 209.636 0.878836 3.49005 0
M  V30 2484 C 209.244 2.35569 3.81066 0
M  V30 2485 C 210.988 0.570004 4.20656 0
M  V30 2486 C 208.895 2.65558 5.28425 0
M  V30 2487 H 207.825 0.190692 0.729488 0
M  V30 2488 H 210.476 1.09539 1.47219 0
M  V30 2489 H 208.858 0.232253 3.95318 0
M  V30 2490 H 210.032 3.04773 3.45616 0
M  V30 2491 H 208.347 2.63343 3.22552 0
M  V30 2492 H 210.944 0.770925 5.29113 0
M  V30 2493 H 211.287 -0.491404 4.1339 0
M  V30 2494 H 211.82 1.17438 3.8007 0
M  V30 2495 H 208.559 3.70493 5.40754 0
M  V30 2496 H 208.079 2.00977 5.65127 0
M  V30 2497 H 209.758 2.51765 5.96006 0
M  V30 2498 N 209.89 -1.43072 0.660911 0
M  V30 2499 C 210.84 -2.27948 -0.04847 0
M  V30 2500 C 211.824 -1.40325 -0.787246 0
M  V30 2501 O 213.016 -1.63893 -0.668446 0
M  V30 2502 C 210.145 -3.28143 -1.00881 0
M  V30 2503 C 209.231 -4.23252 -0.268108 0
M  V30 2504 N 209.622 -5.00656 0.719528 0
M  V30 2505 C 207.92 -4.43092 -0.508493 0
M  V30 2506 C 208.621 -5.70019 1.15988 0
M  V30 2507 N 207.597 -5.41364 0.492584 0
M  V30 2508 H 211.399 -2.85213 0.709279 0
M  V30 2509 H 208.913 -1.54869 0.488822 0
M  V30 2510 H 210.91 -3.87736 -1.53188 0
M  V30 2511 H 209.57 -2.7244 -1.76654 0
M  V30 2512 H 210.581 -5.06115 1.09855 0
M  V30 2513 H 207.258 -3.98449 -1.24679 0
M  V30 2514 H 208.648 -6.4214 1.97751 0
M  V30 2515 N 211.368 -0.403325 -1.52352 0
M  V30 2516 C 212.315 0.425011 -2.26853 0
M  V30 2517 C 213.285 1.04598 -1.29029 0
M  V30 2518 O 214.47 1.07135 -1.57882 0
M  V30 2519 C 211.61 1.53888 -3.08889 0
M  V30 2520 C 210.723 0.939396 -4.21663 0
M  V30 2521 C 209.858 2.02547 -4.91068 0
M  V30 2522 C 208.897 1.40263 -5.95813 0
M  V30 2523 N 208.034 2.4286 -6.58759 0
M  V30 2524 H 212.874 -0.21674 -2.97211 0
M  V30 2525 H 210.411 -0.118722 -1.4662 0
M  V30 2526 H 212.369 2.19558 -3.54753 0
M  V30 2527 H 210.999 2.15074 -2.40714 0
M  V30 2528 H 210.051 0.171898 -3.80011 0
M  V30 2529 H 211.363 0.44436 -4.96817 0
M  V30 2530 H 210.517 2.75958 -5.40308 0
M  V30 2531 H 209.256 2.55415 -4.15469 0
M  V30 2532 H 208.261 0.653833 -5.45898 0
M  V30 2533 H 209.486 0.881719 -6.73352 0
M  V30 2534 H 207.432 2.94871 -5.85992 0
M  V30 2535 H 207.349 1.98152 -7.2957 0
M  V30 2536 H 208.617 3.15858 -7.12639 0
M  V30 2537 N 212.846 1.57033 -0.133567 0
M  V30 2538 C 213.776 2.1909 0.807567 0
M  V30 2539 C 214.757 1.13517 1.26681 0
M  V30 2540 O 215.942 1.41809 1.32679 0
M  V30 2541 C 213.072 2.80188 2.05212 0
M  V30 2542 C 212.026 3.91471 1.73015 0
M  V30 2543 C 211.352 4.39443 3.04622 0
M  V30 2544 C 212.652 5.12886 0.987168 0
M  V30 2545 H 214.346 2.97988 0.290403 0
M  V30 2546 H 211.892 1.43335 0.138239 0
M  V30 2547 H 213.845 3.22264 2.71521 0
M  V30 2548 H 212.569 1.98601 2.59278 0
M  V30 2549 H 211.228 3.49993 1.0909 0
M  V30 2550 H 210.876 3.54695 3.56651 0
M  V30 2551 H 210.576 5.14495 2.83847 0
M  V30 2552 H 212.1 4.8418 3.72024 0
M  V30 2553 H 213.514 5.51891 1.55208 0
M  V30 2554 H 211.911 5.93615 0.87985 0
M  V30 2555 H 212.981 4.84894 -0.0235286 0
M  V30 2556 N 214.325 -0.140222 1.56975 0
M  V30 2557 C 215.272 -1.17292 1.98774 0
M  V30 2558 C 216.242 -1.4232 0.856408 0
M  V30 2559 O 217.427 -1.54541 1.119 0
M  V30 2560 C 214.567 -2.49973 2.37923 0
M  V30 2561 C 213.68 -2.32062 3.64378 0
M  V30 2562 C 212.815 -3.57825 3.926 0
M  V30 2563 C 211.854 -3.3498 5.12303 0
M  V30 2564 N 210.991 -4.52891 5.36502 0
M  V30 2565 H 215.831 -0.809472 2.86795 0
M  V30 2566 H 213.368 -0.388237 1.41884 0
M  V30 2567 H 215.326 -3.27346 2.58652 0
M  V30 2568 H 213.956 -2.84252 1.52972 0
M  V30 2569 H 213.008 -1.45711 3.51387 0
M  V30 2570 H 214.32 -2.11145 4.51906 0
M  V30 2571 H 213.474 -4.43624 4.13863 0
M  V30 2572 H 212.213 -3.81753 3.03506 0
M  V30 2573 H 211.218 -2.4757 4.90906 0
M  V30 2574 H 212.443 -3.12444 6.02956 0
M  V30 2575 H 210.389 -4.76979 4.50363 0
M  V30 2576 H 210.306 -4.35001 6.18312 0
M  V30 2577 H 211.574 -5.39884 5.62268 0
M  V30 2578 N 215.803 -1.52179 -0.40978 0
M  V30 2579 C 216.766 -1.74853 -1.48186 0
M  V30 2580 C 217.766 -0.618417 -1.48433 0
M  V30 2581 O 218.956 -0.886286 -1.49969 0
M  V30 2582 C 216.088 -1.8303 -2.87598 0
M  V30 2583 H 217.281 -2.70559 -1.29374 0
M  V30 2584 H 214.834 -1.42586 -0.640233 0
M  V30 2585 H 215.569 -0.89236 -3.11781 0
M  V30 2586 H 215.354 -2.65187 -2.88822 0
M  V30 2587 H 216.844 -2.02316 -3.65319 0
M  V30 2588 N 217.281 0.66697 -1.42791 0
M  V30 2589 C 218.558 1.4234 -1.34159 0
M  V30 2590 C 218.938 2.11093 0.0172729 0
M  V30 2591 O 218.286 2.03808 1.03318 0
M  V30 2592 C 218.496 2.41942 -2.51526 0
M  V30 2593 C 219.844 3.06353 -2.93995 0
M  V30 2594 O 220.868 2.52269 -2.51473 0
M  V30 2595 O 219.727 4.04376 -3.67617 0
M  V30 2596 H 216.821 0.635277 -0.529483 0
M  V30 2597 H 219.367 0.695034 -1.54814 0
M  V30 2598 H 218.139 1.89991 -3.42081 0
M  V30 2599 H 217.762 3.22249 -2.32898 0
M  V30 2600 N 218.759 1.29093 0.90403 0
M  V30 2601 C 219.706 1.13853 2.00764 0
M  V30 2602 C 220.676 0.0330084 1.66067 0
M  V30 2603 O 221.861 0.199733 1.89752 0
M  V30 2604 C 219.001 0.816537 3.35301 0
M  V30 2605 C 218.114 2.00206 3.82807 0
M  V30 2606 C 217.249 1.61983 5.059 0
M  V30 2607 C 216.288 2.77143 5.45764 0
M  V30 2608 N 215.425 2.39346 6.60044 0
M  V30 2609 H 220.265 2.08276 2.13132 0
M  V30 2610 H 217.802 1.03648 1.04381 0
M  V30 2611 H 219.76 0.610557 4.12708 0
M  V30 2612 H 218.39 -0.090779 3.22672 0
M  V30 2613 H 217.442 2.31988 3.01473 0
M  V30 2614 H 218.754 2.86512 4.08304 0
M  V30 2615 H 217.908 1.37649 5.90879 0
M  V30 2616 H 216.647 0.728202 4.82233 0
M  V30 2617 H 215.652 3.02165 4.59322 0
M  V30 2618 H 216.877 3.66964 5.71414 0
M  V30 2619 H 214.823 1.52665 6.37989 0
M  V30 2620 H 214.74 3.19185 6.85315 0
M  V30 2621 H 216.008 2.1832 7.48303 0
M  V30 2622 N 220.237 -1.11381 1.11499 0
M  V30 2623 C 221.2 -2.15622 0.777153 0
M  V30 2624 C 222.2 -1.59504 -0.203779 0
M  V30 2625 O 223.39 -1.74188 0.020782 0
M  V30 2626 C 220.522 -3.40556 0.153116 0
M  V30 2627 H 221.715 -2.47021 1.70061 0
M  V30 2628 H 219.268 -1.26577 0.916952 0
M  V30 2629 H 220.003 -3.14767 -0.780536 0
M  V30 2630 H 219.788 -3.8257 0.859238 0
M  V30 2631 H 221.278 -4.17546 -0.0671044 0
M  V30 2632 N 221.715 -0.905404 -1.28997 0
M  V30 2633 C 223.131 -0.60233 -1.47798 0
M  V30 2634 C 223.331 0.854645 -1.82478 0
M  V30 2635 O 222.387 1.63439 -1.92468 0
M  V30 2636 C 223.7 -1.53306 -2.58685 0
M  V30 2637 C 225.248 -1.53887 -2.72558 0
M  V30 2638 C 225.723 -2.45602 -3.86579 0
M  V30 2639 N 227.214 -2.43681 -3.93921 0
M  V30 2640 C 227.949 -3.11347 -4.81509 0
M  V30 2641 N 227.445 -3.88313 -5.73746 0
M  V30 2642 N 229.238 -3.00476 -4.75048 0
M  V30 2643 H 221.389 -1.84765 -1.04764 0
M  V30 2644 H 223.652 -0.792025 -0.520961 0
M  V30 2645 H 223.358 -2.57141 -2.39941 0
M  V30 2646 H 223.232 -1.25787 -3.55609 0
M  V30 2647 H 225.619 -0.507941 -2.90696 0
M  V30 2648 H 225.7 -1.85447 -1.76191 0
M  V30 2649 H 225.344 -3.48792 -3.69197 0
M  V30 2650 H 225.274 -2.11349 -4.82327 0
M  V30 2651 H 227.765 -1.87767 -3.27951 0
M  V30 2652 H 228.078 -4.36985 -6.37389 0
M  V30 2653 H 226.423 -3.92419 -5.73614 0
M  V30 2654 H 229.614 -2.39858 -4.01977 0
M  V30 2655 H 229.787 -3.53485 -5.43095 0
M  V30 2656 N 223.193 1.4272 -0.668489 0
M  V30 2657 C 224.14 2.30796 0.0137489 0
M  V30 2658 C 225.11 1.4561 0.799177 0
M  V30 2659 O 226.295 1.74453 0.772702 0
M  V30 2660 C 223.435 3.31377 0.963507 0
M  V30 2661 C 222.548 4.31655 0.172569 0
M  V30 2662 C 221.683 5.19312 1.1175 0
M  V30 2663 C 220.722 6.11274 0.317886 0
M  V30 2664 N 219.859 6.91504 1.2152 0
M  V30 2665 H 224.699 2.88585 -0.743161 0
M  V30 2666 H 222.236 1.42154 -0.378226 0
M  V30 2667 H 224.194 3.88214 1.52792 0
M  V30 2668 H 222.824 2.75202 1.68712 0
M  V30 2669 H 221.876 3.76988 -0.508374 0
M  V30 2670 H 223.188 4.96779 -0.448527 0
M  V30 2671 H 222.342 5.80851 1.75206 0
M  V30 2672 H 221.081 4.5435 1.77249 0
M  V30 2673 H 220.086 5.48809 -0.329918 0
M  V30 2674 H 221.311 6.78283 -0.332917 0
M  V30 2675 H 219.257 6.29176 1.85671 0
M  V30 2676 H 219.174 7.53209 0.649036 0
M  V30 2677 H 220.442 7.57535 1.83742 0
M  V30 2678 N 224.671 0.411399 1.52136 0
M  V30 2679 C 225.618 -0.412975 2.27075 0
M  V30 2680 C 226.588 -1.03912 1.29582 0
M  V30 2681 O 227.773 -1.06296 1.58448 0
M  V30 2682 C 224.913 -1.52247 3.09701 0
M  V30 2683 C 224.026 -0.917021 4.22155 0
M  V30 2684 C 223.161 -1.9994 4.92135 0
M  V30 2685 C 222.2 -1.37101 5.96548 0
M  V30 2686 N 221.337 -2.39364 6.60038 0
M  V30 2687 H 226.177 0.232499 2.97092 0
M  V30 2688 H 223.714 0.126496 1.46555 0
M  V30 2689 H 225.672 -2.17674 3.55913 0
M  V30 2690 H 224.302 -2.13794 2.41851 0
M  V30 2691 H 223.354 -0.151742 3.80097 0
M  V30 2692 H 224.666 -0.418006 4.97045 0
M  V30 2693 H 223.82 -2.73088 5.41763 0
M  V30 2694 H 222.559 -2.53208 4.16818 0
M  V30 2695 H 221.564 -0.624873 5.46237 0
M  V30 2696 H 222.789 -0.845998 6.7381 0
M  V30 2697 H 220.735 -2.91759 5.87548 0
M  V30 2698 H 220.652 -1.9428 7.3061 0
M  V30 2699 H 221.92 -3.12074 7.14304 0
M  V30 2700 N 226.149 -1.5696 0.141893 0
M  V30 2701 C 227.079 -2.19516 -0.795936 0
M  V30 2702 C 228.06 -1.14187 -1.26077 0
M  V30 2703 O 229.245 -1.42511 -1.31925 0
M  V30 2704 C 226.375 -2.81272 -2.03723 0
M  V30 2705 C 225.329 -3.92384 -1.70936 0
M  V30 2706 C 224.655 -4.41052 -3.02287 0
M  V30 2707 C 225.955 -5.13403 -0.959954 0
M  V30 2708 H 227.649 -2.98138 -0.274596 0
M  V30 2709 H 225.195 -1.43406 -0.130636 0
M  V30 2710 H 227.148 -3.237 -2.69808 0
M  V30 2711 H 225.872 -1.99973 -2.58221 0
M  V30 2712 H 224.531 -3.50566 -1.07232 0
M  V30 2713 H 224.179 -3.56582 -3.54765 0
M  V30 2714 H 223.879 -5.15993 -2.81114 0
M  V30 2715 H 225.403 -4.86146 -3.69451 0
M  V30 2716 H 226.817 -5.52706 -1.52279 0
M  V30 2717 H 225.214 -5.94073 -0.848357 0
M  V30 2718 H 226.284 -4.84875 0.0492434 0
M  V30 2719 N 227.627 0.131896 -1.57047 0
M  V30 2720 C 228.557 1.16384 -2.02428 0
M  V30 2721 C 229.538 1.43936 -0.90644 0
M  V30 2722 O 230.723 1.54599 -1.17528 0
M  V30 2723 C 227.853 2.49328 -2.4177 0
M  V30 2724 C 226.807 2.36266 -3.56879 0
M  V30 2725 C 226.133 3.74057 -3.8208 0
M  V30 2726 C 227.433 1.834 -4.89042 0
M  V30 2727 H 229.127 0.786433 -2.88887 0
M  V30 2728 H 226.673 0.376855 -1.38981 0
M  V30 2729 H 228.626 3.21759 -2.7212 0
M  V30 2730 H 227.35 2.88934 -1.52266 0
M  V30 2731 H 226.009 1.66286 -3.26718 0
M  V30 2732 H 225.657 4.11125 -2.89803 0
M  V30 2733 H 225.357 3.66174 -4.59554 0
M  V30 2734 H 226.881 4.48012 -4.1487 0
M  V30 2735 H 228.295 2.45636 -5.18011 0
M  V30 2736 H 226.692 1.8637 -5.70426 0
M  V30 2737 H 227.762 0.790662 -4.7841 0
M  V30 2738 N 229.106 1.52395 0.401703 0
M  V30 2739 C 230.069 1.75636 1.47257 0
M  V30 2740 C 231.069 0.62628 1.48103 0
M  V30 2741 O 232.259 0.894227 1.49497 0
M  V30 2742 C 229.391 1.84553 2.86624 0
M  V30 2743 H 230.584 2.71241 1.27938 0
M  V30 2744 H 228.137 1.42923 0.632662 0
M  V30 2745 H 228.872 0.908882 3.11303 0
M  V30 2746 H 228.657 2.66715 2.87412 0
M  V30 2747 H 230.147 2.04251 3.64241 0
M  V30 2748 N 230.584 -0.659388 1.43143 0
M  V30 2749 C 231.861 -1.41627 1.34912 0
M  V30 2750 C 232.241 -2.11099 -0.00607785 0
M  V30 2751 O 231.589 -2.04353 -1.02236 0
M  V30 2752 C 231.799 -2.40604 2.52805 0
M  V30 2753 C 233.147 -3.04789 2.95616 0
M  V30 2754 O 234.171 -2.50932 2.52807 0
M  V30 2755 O 233.03 -4.02421 3.69756 0
M  V30 2756 H 230.124 -0.63246 0.532844 0
M  V30 2757 H 232.67 -0.686814 1.5518 0
M  V30 2758 H 231.442 -1.88174 3.43083 0
M  V30 2759 H 231.065 -3.21009 2.34604 0
M  V30 2760 N 232.062 -1.29571 -0.897171 0
M  V30 2761 C 232.994 -1.10724 -2.00681 0
M  V30 2762 C 234.007 -0.0540026 -1.6271 0
M  V30 2763 O 235.196 -0.298783 -1.75982 0
M  V30 2764 C 232.296 -0.663912 -3.32333 0
M  V30 2765 C 231.469 -1.79622 -3.98816 0
M  V30 2766 C 230.528 -1.34349 -5.0876 0
M  V30 2767 O 229.554 -2.04864 -5.31055 0
M  V30 2768 N 230.756 -0.215764 -5.80099 0
M  V30 2769 H 233.521 -2.06291 -2.17403 0
M  V30 2770 H 231.082 -1.21544 -1.06951 0
M  V30 2771 H 233.074 -0.344295 -4.03233 0
M  V30 2772 H 231.644 0.199375 -3.11964 0
M  V30 2773 H 230.864 -2.28459 -3.21248 0
M  V30 2774 H 232.152 -2.55535 -4.39976 0
M  V30 2775 H 231.55 0.372091 -5.64475 0
M  V30 2776 H 230.107 0.0444707 -6.51785 0
M  V30 2777 N 233.54 1.10788 -1.12088 0
M  V30 2778 C 234.503 2.15207 -0.788577 0
M  V30 2779 C 235.503 1.59609 0.195317 0
M  V30 2780 O 236.693 1.74174 -0.0300193 0
M  V30 2781 C 233.825 3.4047 -0.171174 0
M  V30 2782 H 235.018 2.46116 -1.71368 0
M  V30 2783 H 232.571 1.26089 -0.923652 0
M  V30 2784 H 233.306 3.15176 0.763832 0
M  V30 2785 H 233.091 3.82109 -0.879514 0
M  V30 2786 H 234.581 4.17576 0.04496 0
M  V30 2787 N 235.018 0.912232 1.28515 0
M  V30 2788 C 235.928 0.404506 2.31086 0
M  V30 2789 C 236.944 -0.50707 1.66448 0
M  V30 2790 O 238.12 -0.393624 1.97516 0
M  V30 2791 C 235.185 -0.348572 3.44943 0
M  V30 2792 C 234.246 0.59604 4.25142 0
M  V30 2793 C 233.479 -0.121194 5.33562 0
M  V30 2794 O 233.702 -1.34317 5.5436 0
M  V30 2795 O 232.636 0.542716 5.99448 0
M  V30 2796 H 236.462 1.25579 2.76521 0
M  V30 2797 H 234.047 0.676998 1.33181 0
M  V30 2798 H 235.929 -0.77395 4.14232 0
M  V30 2799 H 234.604 -1.17571 3.01594 0
M  V30 2800 H 233.511 1.07079 3.58448 0
M  V30 2801 H 234.844 1.38995 4.72167 0
M  V30 2802 N 236.496 -1.42363 0.676048 0
M  V30 2803 C 237.459 -2.29199 0.00766941 0
M  V30 2804 C 238.459 -1.43389 -0.727745 0
M  V30 2805 O 239.649 -1.64764 -0.56556 0
M  V30 2806 C 236.781 -3.2591 -0.999785 0
M  V30 2807 H 237.974 -2.89794 0.771988 0
M  V30 2808 H 235.527 -1.50024 0.438468 0
M  V30 2809 H 236.262 -2.70256 -1.79255 0
M  V30 2810 H 236.047 -3.89202 -0.475829 0
M  V30 2811 H 237.537 -3.91028 -1.46583 0
M  V30 2812 N 237.974 -0.419461 -1.51915 0
M  V30 2813 C 239.39 -0.0708431 -1.59443 0
M  V30 2814 C 239.59 1.41796 -1.43164 0
M  V30 2815 O 238.646 2.18596 -1.26381 0
M  V30 2816 C 239.959 -0.574991 -2.95151 0
M  V30 2817 C 241.507 -0.533867 -3.08413 0
M  V30 2818 C 241.982 -1.01469 -4.46618 0
M  V30 2819 N 243.473 -0.971939 -4.52888 0
M  V30 2820 C 244.208 -1.31505 -5.58116 0
M  V30 2821 N 243.704 -1.73014 -6.70849 0
M  V30 2822 N 245.497 -1.23436 -5.48379 0
M  V30 2823 H 237.648 -1.38836 -1.60743 0
M  V30 2824 H 239.911 -0.570998 -0.756747 0
M  V30 2825 H 239.617 -1.61597 -3.12377 0
M  V30 2826 H 239.491 0.00979777 -3.77199 0
M  V30 2827 H 241.878 0.498086 -2.90866 0
M  V30 2828 H 241.959 -1.15484 -2.28248 0
M  V30 2829 H 241.603 -2.04502 -4.6491 0
M  V30 2830 H 241.533 -0.370433 -5.25295 0
M  V30 2831 H 244.024 -0.666893 -3.71969 0
M  V30 2832 H 244.337 -1.97479 -7.47143 0
M  V30 2833 H 242.682 -1.76926 -6.72103 0
M  V30 2834 H 245.873 -0.908869 -4.59192 0
M  V30 2835 H 246.046 -1.50506 -6.30279 0
M  V30 2836 N 239.452 1.56882 -0.150215 0
M  V30 2837 C 240.868 1.58263 0.20617 0
M  V30 2838 C 241.068 1.16464 1.64434 0
M  V30 2839 O 240.124 0.866422 2.3717 0
M  V30 2840 C 241.437 3.00649 -0.0555025 0
M  V30 2841 C 242.985 3.12999 0.00795388 0
M  V30 2842 C 243.46 4.5744 -0.226429 0
M  V30 2843 N 244.951 4.62875 -0.173469 0
M  V30 2844 C 245.686 5.72454 -0.329288 0
M  V30 2845 N 245.182 6.90669 -0.543005 0
M  V30 2846 N 246.975 5.61467 -0.266666 0
M  V30 2847 H 239.126 1.82345 -1.08922 0
M  V30 2848 H 241.389 0.844149 -0.431413 0
M  V30 2849 H 241.095 3.3563 -1.05096 0
M  V30 2850 H 240.969 3.71337 0.66246 0
M  V30 2851 H 243.356 2.77857 0.993966 0
M  V30 2852 H 243.437 2.4479 -0.742388 0
M  V30 2853 H 243.081 4.93287 -1.20956 0
M  V30 2854 H 243.011 5.2378 0.544274 0
M  V30 2855 H 245.502 3.77898 -0.0130709 0
M  V30 2856 H 245.815 7.70045 -0.651922 0
M  V30 2857 H 244.16 6.92581 -0.579366 0
M  V30 2858 H 247.351 4.67992 -0.100441 0
M  V30 2859 H 247.524 6.46816 -0.391535 0
M  V30 2860 N 240.93 -0.123565 1.57115 0
M  V30 2861 C 242.155 -0.850398 1.89164 0
M  V30 2862 C 242.58 -1.7286 0.741688 0
M  V30 2863 O 241.938 -1.78665 -0.307958 0
M  V30 2864 C 241.986 -1.66353 3.19936 0
M  V30 2865 O 241.09 -2.77004 3.0552 0
M  V30 2866 H 240.431 -0.235454 0.620852 0
M  V30 2867 H 242.961 -0.107335 2.04318 0
M  V30 2868 H 242.971 -2.05372 3.52543 0
M  V30 2869 H 241.646 -1.01881 4.03228 0
M  V30 2870 H 240.223 -2.41221 2.84371 0
M  V30 2871 N 242.408 -1.52605 -0.393616 0
M  V30 2872 C 243.355 -1.77055 -1.48054 0
M  V30 2873 C 244.325 -0.61358 -1.54352 0
M  V30 2874 O 245.51 -0.852806 -1.70681 0
M  V30 2875 C 242.65 -1.94108 -2.85335 0
M  V30 2876 C 241.763 -3.21792 -2.88226 0
M  V30 2877 C 240.898 -3.29188 -4.16904 0
M  V30 2878 C 239.937 -4.51013 -4.13828 0
M  V30 2879 N 239.074 -4.55716 -5.34105 0
M  V30 2880 H 243.914 -2.69815 -1.26506 0
M  V30 2881 H 241.451 -1.33683 -0.61379 0
M  V30 2882 H 243.409 -2.01979 -3.65049 0
M  V30 2883 H 242.039 -1.04713 -3.05344 0
M  V30 2884 H 241.091 -3.23015 -2.00911 0
M  V30 2885 H 242.403 -4.11557 -2.8182 0
M  V30 2886 H 241.557 -3.36216 -5.05018 0
M  V30 2887 H 240.296 -2.37389 -4.26026 0
M  V30 2888 H 239.301 -4.44115 -3.24102 0
M  V30 2889 H 240.526 -5.44123 -4.06333 0
M  V30 2890 H 238.472 -3.66807 -5.43865 0
M  V30 2891 H 238.389 -5.39346 -5.29756 0
M  V30 2892 H 239.657 -4.66993 -6.2413 0
M  V30 2893 N 243.887 0.651787 -1.4349 0
M  V30 2894 C 245.115 1.43937 -1.48626 0
M  V30 2895 C 245.53 1.8851 -0.104587 0
M  V30 2896 O 244.887 1.5958 0.885464 0
M  V30 2897 C 244.938 2.6734 -2.43334 0
M  V30 2898 O 244.659 2.24631 -3.76128 0
M  V30 2899 C 246.16 3.60683 -2.57726 0
M  V30 2900 H 243.38 0.44213 -0.504739 0
M  V30 2901 H 245.924 0.798944 -1.88248 0
M  V30 2902 H 244.079 3.2752 -2.06904 0
M  V30 2903 H 244.493 3.04485 -4.2707 0
M  V30 2904 H 245.967 4.43933 -3.28067 0
M  V30 2905 H 246.444 4.08126 -1.62265 0
M  V30 2906 H 247.05 3.06384 -2.94973 0
M  V30 2907 N 245.365 1.30045 0.890287 0
M  V30 2908 C 246.312 1.15976 1.99545 0
M  V30 2909 C 247.282 0.0506202 1.66023 0
M  V30 2910 O 248.467 0.219847 1.89529 0
M  V30 2911 C 245.607 0.852054 3.34416 0
M  V30 2912 C 244.72 2.04255 3.80662 0
M  V30 2913 C 243.855 1.6734 5.04154 0
M  V30 2914 C 242.894 2.82916 5.42794 0
M  V30 2915 N 242.031 2.46333 6.57468 0
M  V30 2916 H 246.871 2.10524 2.10911 0
M  V30 2917 H 244.408 1.04749 1.03276 0
M  V30 2918 H 246.366 0.654296 4.12037 0
M  V30 2919 H 244.996 -0.0565502 3.2275 0
M  V30 2920 H 244.048 2.35172 2.98995 0
M  V30 2921 H 245.36 2.90826 4.05242 0
M  V30 2922 H 244.514 1.43908 5.89386 0
M  V30 2923 H 243.253 0.779308 4.81433 0
M  V30 2924 H 242.258 3.0702 4.56091 0
M  V30 2925 H 243.483 3.73004 5.6749 0
M  V30 2926 H 241.429 1.59423 6.36334 0
M  V30 2927 H 241.346 3.26436 6.81891 0
M  V30 2928 H 242.614 2.26244 7.45945 0
M  V30 2929 N 246.843 -1.10192 1.12674 0
M  V30 2930 C 247.753 -2.20172 0.810026 0
M  V30 2931 C 248.769 -1.72821 -0.202188 0
M  V30 2932 O 249.945 -2.01369 -0.0351691 0
M  V30 2933 C 247.01 -3.45631 0.272007 0
M  V30 2934 C 246.071 -4.07704 1.34447 0
M  V30 2935 C 245.304 -5.27175 0.832029 0
M  V30 2936 O 245.527 -5.69425 -0.333284 0
M  V30 2937 O 244.461 -5.80168 1.60277 0
M  V30 2938 H 248.287 -2.49701 1.72867 0
M  V30 2939 H 245.872 -1.18977 0.903597 0
M  V30 2940 H 247.754 -4.21394 -0.0230219 0
M  V30 2941 H 246.429 -3.17723 -0.619164 0
M  V30 2942 H 245.336 -3.33614 1.6927 0
M  V30 2943 H 246.669 -4.3982 2.2095 0
M  V30 2944 N 248.321 -0.919034 -1.28029 0
M  V30 2945 C 249.284 -0.416182 -2.2539 0
M  V30 2946 C 250.284 0.460438 -1.54067 0
M  V30 2947 O 251.474 0.262744 -1.72207 0
M  V30 2948 C 248.606 0.402707 -3.38513 0
M  V30 2949 H 249.799 -1.27629 -2.71387 0
M  V30 2950 H 247.352 -0.698919 -1.39803 0
M  V30 2951 H 248.087 1.282 -2.97885 0
M  V30 2952 H 247.872 -0.225698 -3.9145 0
M  V30 2953 H 249.362 0.745191 -4.10897 0
M  V30 2954 N 249.799 1.42003 -0.683588 0
M  V30 2955 C 251.215 1.55625 -0.353976 0
M  V30 2956 C 251.415 1.66151 1.14 0
M  V30 2957 O 250.471 1.63329 1.92561 0
M  V30 2958 C 251.784 2.80171 -1.092 0
M  V30 2959 C 253.332 2.93954 -1.07518 0
M  V30 2960 C 253.807 4.21372 -1.79471 0
M  V30 2961 N 255.298 4.28303 -1.76381 0
M  V30 2962 C 256.033 5.25729 -2.28904 0
M  V30 2963 N 255.529 6.29254 -2.89846 0
M  V30 2964 N 257.322 5.17586 -2.19228 0
M  V30 2965 H 249.473 1.33415 -1.6527 0
M  V30 2966 H 251.736 0.64282 -0.696769 0
M  V30 2967 H 251.442 2.78561 -2.14701 0
M  V30 2968 H 251.316 3.7133 -0.662862 0
M  V30 2969 H 253.703 2.95086 -0.028475 0
M  V30 2970 H 253.784 2.04002 -1.54328 0
M  V30 2971 H 253.428 4.21001 -2.84114 0
M  V30 2972 H 253.358 5.10275 -1.30104 0
M  V30 2973 H 255.849 3.54119 -1.31939 0
M  V30 2974 H 256.162 6.99964 -3.27522 0
M  V30 2975 H 254.507 6.29791 -2.93919 0
M  V30 2976 H 257.698 4.35631 -1.71299 0
M  V30 2977 H 257.871 5.93348 -2.60466 0
M  V30 2978 N 251.277 0.427512 1.51691 0
M  V30 2979 C 252.224 -0.388867 2.275 0
M  V30 2980 C 253.194 -1.02532 1.30677 0
M  V30 2981 O 254.379 -1.0461 1.59566 0
M  V30 2982 C 251.519 -1.48954 3.11298 0
M  V30 2983 C 250.632 -0.872194 4.23104 0
M  V30 2984 C 249.767 -1.94709 4.94228 0
M  V30 2985 C 248.806 -1.30766 5.97969 0
M  V30 2986 N 247.943 -2.32349 6.62539 0
M  V30 2987 H 252.783 0.263997 2.96828 0
M  V30 2988 H 250.32 0.142033 1.46413 0
M  V30 2989 H 252.278 -2.13887 3.58201 0
M  V30 2990 H 250.908 -2.11217 2.44105 0
M  V30 2991 H 249.96 -0.111419 3.80237 0
M  V30 2992 H 251.272 -0.365264 4.97461 0
M  V30 2993 H 250.426 -2.67327 5.44629 0
M  V30 2994 H 249.165 -2.48773 4.1948 0
M  V30 2995 H 248.17 -0.566902 5.4687 0
M  V30 2996 H 249.395 -0.774483 6.74669 0
M  V30 2997 H 247.341 -2.85511 5.90609 0
M  V30 2998 H 247.258 -1.8652 7.3263 0
M  V30 2999 H 248.526 -3.04481 7.17574 0
M  V30 3000 N 252.755 -1.56801 0.158532 0
M  V30 3001 C 254.171 -1.5837 -0.197774 0
M  V30 3002 C 254.371 -1.17334 -1.63814 0
M  V30 3003 O 253.427 -0.878988 -2.36707 0
M  V30 3004 C 254.74 -3.00615 0.0714459 0
M  V30 3005 C 256.288 -3.12999 0.00864533 0
M  V30 3006 C 256.763 -4.57313 0.250685 0
M  V30 3007 N 258.254 -4.62777 0.198014 0
M  V30 3008 C 258.989 -5.72271 0.359642 0
M  V30 3009 N 258.485 -6.90371 0.579625 0
M  V30 3010 N 260.278 -5.61318 0.296438 0
M  V30 3011 H 252.429 -1.81765 1.09887 0
M  V30 3012 H 254.692 -0.841849 0.435884 0
M  V30 3013 H 254.398 -3.35068 1.06874 0
M  V30 3014 H 254.272 -3.71683 -0.642757 0
M  V30 3015 H 256.659 -2.7838 -0.979217 0
M  V30 3016 H 256.74 -2.44393 0.755359 0
M  V30 3017 H 256.384 -4.92639 1.2357 0
M  V30 3018 H 256.314 -5.24061 -0.516489 0
M  V30 3019 H 258.805 -3.77885 0.0331115 0
M  V30 3020 H 259.118 -7.69689 0.69275 0
M  V30 3021 H 257.463 -6.92264 0.616087 0
M  V30 3022 H 260.654 -4.67932 0.125258 0
M  V30 3023 H 260.827 -6.46599 0.425831 0
M  V30 3024 N 254.233 0.115231 -1.57178 0
M  V30 3025 C 255.649 0.468877 -1.52557 0
M  V30 3026 C 255.849 1.81649 -0.872125 0
M  V30 3027 O 254.905 2.48347 -0.45606 0
M  V30 3028 C 256.218 0.4499 -2.97315 0
M  V30 3029 C 257.766 0.533185 -3.08425 0
M  V30 3030 C 258.241 0.54456 -4.54751 0
M  V30 3031 N 259.732 0.605892 -4.5922 0
M  V30 3032 C 260.467 0.636203 -5.6986 0
M  V30 3033 N 259.963 0.623931 -6.89985 0
M  V30 3034 N 261.756 0.679496 -5.57978 0
M  V30 3035 H 253.907 -0.767712 -1.9804 0
M  V30 3036 H 256.17 -0.283609 -0.904583 0
M  V30 3037 H 255.876 -0.472721 -3.48509 0
M  V30 3038 H 255.75 1.27632 -3.5495 0
M  V30 3039 H 258.137 1.44623 -2.57232 0
M  V30 3040 H 258.218 -0.320995 -2.53778 0
M  V30 3041 H 257.862 -0.364452 -5.06591 0
M  V30 3042 H 257.792 1.41568 -5.07214 0
M  V30 3043 H 260.283 0.621386 -3.72756 0
M  V30 3044 H 260.596 0.649787 -7.70063 0
M  V30 3045 H 258.941 0.591296 -6.9248 0
M  V30 3046 H 262.132 0.686472 -4.63039 0
M  V30 3047 H 262.305 0.69965 -6.44212 0
M  V30 3048 N 255.711 1.52812 0.385517 0
M  V30 3049 C 256.621 1.80766 1.49535 0
M  V30 3050 C 257.637 0.694651 1.59532 0
M  V30 3051 O 258.813 0.982611 1.75803 0
M  V30 3052 C 255.878 1.97381 2.85029 0
M  V30 3053 C 254.939 3.21295 2.84724 0
M  V30 3054 C 254.172 3.37108 4.13756 0
M  V30 3055 O 254.395 2.5765 5.08893 0
M  V30 3056 O 253.329 4.30378 4.20783 0
M  V30 3057 H 257.155 2.75015 1.28842 0
M  V30 3058 H 254.74 1.37946 0.573697 0
M  V30 3059 H 256.622 2.09996 3.65349 0
M  V30 3060 H 255.297 1.06322 3.05741 0
M  V30 3061 H 254.204 3.1412 2.03174 0
M  V30 3062 H 255.537 4.12212 2.68965 0
M  V30 3063 N 257.189 -0.644168 1.43834 0
M  V30 3064 C 258.099 -1.78563 1.52159 0
M  V30 3065 C 259.115 -1.69147 0.408069 0
M  V30 3066 O 260.291 -1.90156 0.663524 0
M  V30 3067 C 257.356 -3.14888 1.45073 0
M  V30 3068 C 256.417 -3.36034 2.6717 0
M  V30 3069 C 255.65 -4.65855 2.60413 0
M  V30 3070 O 255.873 -5.45805 1.65689 0
M  V30 3071 O 254.807 -4.88918 3.5106 0
M  V30 3072 H 258.633 -1.74494 2.48567 0
M  V30 3073 H 256.218 -0.80378 1.25935 0
M  V30 3074 H 258.1 -3.96179 1.43597 0
M  V30 3075 H 256.775 -3.19528 0.518037 0
M  V30 3076 H 255.682 -2.54472 2.74217 0
M  V30 3077 H 257.015 -3.36247 3.59442 0
M  V30 3078 N 258.668 -1.30515 -0.883378 0
M  V30 3079 C 260.084 -1.08881 -1.16692 0
M  V30 3080 C 260.284 0.149409 -2.00945 0
M  V30 3081 O 259.34 0.84257 -2.38027 0
M  V30 3082 C 260.653 -2.35319 -1.87204 0
M  V30 3083 C 262.201 -2.40799 -1.99962 0
M  V30 3084 C 262.676 -3.67083 -2.73887 0
M  V30 3085 N 264.167 -3.679 -2.81432 0
M  V30 3086 C 264.902 -4.62303 -3.3921 0
M  V30 3087 N 264.398 -5.67052 -3.98025 0
M  V30 3088 N 266.191 -4.49845 -3.3704 0
M  V30 3089 H 258.342 -2.09951 -0.321633 0
M  V30 3090 H 260.605 -0.92556 -0.205043 0
M  V30 3091 H 260.311 -3.25689 -1.3274 0
M  V30 3092 H 260.185 -2.44089 -2.87577 0
M  V30 3093 H 262.572 -1.50907 -2.53597 0
M  V30 3094 H 262.653 -2.36003 -0.98673 0
M  V30 3095 H 262.297 -4.57334 -2.20925 0
M  V30 3096 H 262.227 -3.69141 -3.75556 0
M  V30 3097 H 264.718 -2.92171 -2.39676 0
M  V30 3098 H 265.031 -6.35184 -4.40183 0
M  V30 3099 H 263.376 -5.70842 -3.96439 0
M  V30 3100 H 266.567 -3.67194 -2.90321 0
M  V30 3101 H 266.74 -5.23597 -3.81772 0
M  V30 3102 N 260.146 1.09593 -1.13257 0
M  V30 3103 C 261.076 2.18214 -0.830946 0
M  V30 3104 C 262.057 1.68812 0.208966 0
M  V30 3105 O 263.242 1.9408 0.0682666 0
M  V30 3106 C 260.372 3.46051 -0.294296 0
M  V30 3107 C 259.326 4.08778 -1.26826 0
M  V30 3108 C 258.652 5.31419 -0.591449 0
M  V30 3109 C 259.952 4.51476 -2.62615 0
M  V30 3110 H 261.646 2.43703 -1.73923 0
M  V30 3111 H 259.192 1.17128 -0.837675 0
M  V30 3112 H 261.145 4.2134 -0.0709606 0
M  V30 3113 H 259.869 3.20079 0.649366 0
M  V30 3114 H 258.528 3.35505 -1.47756 0
M  V30 3115 H 258.176 5.01727 0.357633 0
M  V30 3116 H 257.876 5.74341 -1.24123 0
M  V30 3117 H 259.4 6.09433 -0.377355 0
M  V30 3118 H 260.814 5.17999 -2.45663 0
M  V30 3119 H 259.211 5.05277 -3.23752 0
M  V30 3120 H 260.281 3.63962 -3.20406 0
M  V30 3121 N 261.624 0.925811 1.2754 0
M  V30 3122 C 262.556 0.380753 2.26015 0
M  V30 3123 C 263.569 -0.487485 1.5533 0
M  V30 3124 O 264.758 -0.300413 1.75954 0
M  V30 3125 C 261.858 -0.473259 3.35579 0
M  V30 3126 C 261.031 0.375249 4.35787 0
M  V30 3127 C 260.09 -0.415809 5.24555 0
M  V30 3128 O 259.116 0.175834 5.68928 0
M  V30 3129 N 260.318 -1.71607 5.54555 0
M  V30 3130 H 263.083 1.22725 2.73421 0
M  V30 3131 H 260.644 0.793037 1.41147 0
M  V30 3132 H 262.636 -1.00949 3.91907 0
M  V30 3133 H 261.206 -1.2205 2.87789 0
M  V30 3134 H 260.426 1.09279 3.7875 0
M  V30 3135 H 261.714 0.955399 4.99749 0
M  V30 3136 H 261.112 -2.2191 5.20358 0
M  V30 3137 H 259.669 -2.19887 6.1359 0
M  V30 3138 N 263.102 -1.41638 0.69111 0
M  V30 3139 C 264.065 -2.29178 0.0319786 0
M  V30 3140 C 265.065 -1.44153 -0.712496 0
M  V30 3141 O 266.255 -1.65354 -0.548053 0
M  V30 3142 C 263.387 -3.26952 -0.965161 0
M  V30 3143 H 264.58 -2.88959 0.802681 0
M  V30 3144 H 262.133 -1.4955 0.454356 0
M  V30 3145 H 262.868 -2.72142 -1.76378 0
M  V30 3146 H 262.653 -3.89685 -0.434522 0
M  V30 3147 H 264.143 -3.92561 -1.42428 0
M  V30 3148 N 264.58 -0.43555 -1.51462 0
M  V30 3149 C 265.527 0.376797 -2.27703 0
M  V30 3150 C 266.497 1.01838 -1.31219 0
M  V30 3151 O 267.682 1.03762 -1.60119 0
M  V30 3152 C 264.822 1.47301 -3.12084 0
M  V30 3153 C 263.935 0.849744 -4.2356 0
M  V30 3154 C 263.07 1.92086 -4.95254 0
M  V30 3155 C 262.109 1.27593 -5.98654 0
M  V30 3156 N 261.246 2.28833 -6.63762 0
M  V30 3157 H 266.086 -0.279734 -2.96684 0
M  V30 3158 H 263.623 -0.149795 -1.46335 0
M  V30 3159 H 265.581 2.11984 -3.59331 0
M  V30 3160 H 264.211 2.0992 -2.45221 0
M  V30 3161 H 263.263 0.0912529 -3.80291 0
M  V30 3162 H 264.575 0.338878 -4.97648 0
M  V30 3163 H 263.729 2.64435 -5.46039 0
M  V30 3164 H 262.468 2.46545 -4.20793 0
M  V30 3165 H 261.473 0.537893 -5.47162 0
M  V30 3166 H 262.698 0.738693 -6.7507 0
M  V30 3167 H 260.644 2.82375 -5.92115 0
M  V30 3168 H 260.561 1.82632 -7.33608 0
M  V30 3169 H 261.829 3.00671 -7.19178 0
M  V30 3170 N 266.058 1.56714 -0.166846 0
M  V30 3171 C 267.005 2.17746 0.765193 0
M  V30 3172 C 267.975 1.11614 1.23011 0
M  V30 3173 O 269.16 1.39745 1.29908 0
M  V30 3174 C 266.3 2.81882 1.9909 0
M  V30 3175 C 265.413 4.02462 1.56997 0
M  V30 3176 C 264.548 4.54537 2.749 0
M  V30 3177 C 263.587 5.67538 2.29275 0
M  V30 3178 N 262.724 6.14142 3.40255 0
M  V30 3179 H 267.564 2.97048 0.237952 0
M  V30 3180 H 265.101 1.4672 0.105725 0
M  V30 3181 H 267.059 3.17221 2.70974 0
M  V30 3182 H 265.689 2.05191 2.49192 0
M  V30 3183 H 264.741 3.72973 0.748037 0
M  V30 3184 H 266.053 4.84273 1.19503 0
M  V30 3185 H 265.207 4.92035 3.54946 0
M  V30 3186 H 263.946 3.71774 3.1565 0
M  V30 3187 H 262.951 5.29597 1.47674 0
M  V30 3188 H 264.176 6.52099 1.89588 0
M  V30 3189 H 262.122 5.3431 3.8059 0
M  V30 3190 H 262.039 6.9093 3.06841 0
M  V30 3191 H 263.307 6.56289 4.206 0
M  V30 3192 N 267.536 -0.106894 1.57237 0
M  V30 3193 C 268.446 -1.14911 2.0453 0
M  V30 3194 C 269.462 -1.44592 0.96795 0
M  V30 3195 O 270.638 -1.55468 1.2803 0
M  V30 3196 C 267.703 -2.45272 2.45036 0
M  V30 3197 C 266.764 -2.22879 3.66911 0
M  V30 3198 C 265.997 -3.47024 4.05475 0
M  V30 3199 O 266.22 -4.54804 3.44252 0
M  V30 3200 O 265.154 -3.3731 4.98504 0
M  V30 3201 H 268.98 -0.777461 2.9358 0
M  V30 3202 H 266.565 -0.318563 1.45964 0
M  V30 3203 H 268.447 -3.22055 2.71769 0
M  V30 3204 H 267.122 -2.81886 1.59129 0
M  V30 3205 H 266.029 -1.43915 3.45311 0
M  V30 3206 H 267.362 -1.91163 4.53561 0
M  V30 3207 N 269.014 -1.53014 -0.377408 0
M  V30 3208 C 269.924 -1.81557 -1.48574 0
M  V30 3209 C 270.94 -0.703102 -1.59162 0
M  V30 3210 O 272.116 -0.99192 -1.75279 0
M  V30 3211 C 269.181 -1.9889 -2.83978 0
M  V30 3212 C 268.242 -3.22801 -2.83016 0
M  V30 3213 C 267.475 -3.39298 -4.11962 0
M  V30 3214 O 267.698 -2.60345 -5.0752 0
M  V30 3215 O 266.632 -4.32604 -4.18494 0
M  V30 3216 H 270.458 -2.75695 -1.27382 0
M  V30 3217 H 268.043 -1.38248 -0.566373 0
M  V30 3218 H 269.925 -2.11931 -3.6423 0
M  V30 3219 H 268.6 -1.07942 -3.05172 0
M  V30 3220 H 267.507 -3.15193 -2.01505 0
M  V30 3221 H 268.84 -4.13632 -2.66775 0
M  V30 3222 N 270.492 0.636531 -1.44174 0
M  V30 3223 C 271.741 1.39213 -1.45954 0
M  V30 3224 C 272.054 1.95374 -0.0939119 0
M  V30 3225 O 273.26 2.71498 0.0107767 0
M  V30 3226 C 271.716 2.52025 -2.56927 0
M  V30 3227 C 271.324 2.024 -3.99673 0
M  V30 3228 C 273.068 3.29269 -2.67922 0
M  V30 3229 C 270.975 3.12521 -5.0208 0
M  V30 3230 H 269.905 0.523132 -0.542999 0
M  V30 3231 H 272.556 0.685349 -1.70221 0
M  V30 3232 H 270.938 3.25253 -2.25891 0
M  V30 3233 H 272.112 1.36073 -4.40251 0
M  V30 3234 H 270.427 1.37987 -3.92872 0
M  V30 3235 H 273.024 4.11352 -3.41605 0
M  V30 3236 H 273.367 3.78397 -1.73555 0
M  V30 3237 H 273.9 2.63129 -2.98342 0
M  V30 3238 H 270.639 2.68343 -5.98057 0
M  V30 3239 H 270.159 3.77507 -4.66099 0
M  V30 3240 H 271.838 3.77385 -5.25538 0
M  V30 3241 N 271.97 1.30982 0.876444 0
M  V30 3242 C 273.219 1.19658 1.62373 0
M  V30 3243 C 273.532 -0.245636 1.94052 0
M  V30 3244 O 274.738 -0.48049 2.67214 0
M  V30 3245 C 273.194 2.09433 2.92687 0
M  V30 3246 C 272.802 3.58613 2.68516 0
M  V30 3247 C 274.546 2.06893 3.70669 0
M  V30 3248 C 272.453 4.40416 3.94699 0
M  V30 3249 H 271.383 0.444268 0.609214 0
M  V30 3250 H 274.034 1.55791 0.969605 0
M  V30 3251 H 272.416 1.66191 3.59439 0
M  V30 3252 H 273.59 4.10058 2.10212 0
M  V30 3253 H 271.905 3.63063 2.03898 0
M  V30 3254 H 274.502 2.65258 4.64265 0
M  V30 3255 H 274.845 1.05448 4.02724 0
M  V30 3256 H 275.378 2.48301 3.10792 0
M  V30 3257 H 272.117 5.42591 3.67798 0
M  V30 3258 H 271.637 3.93731 4.52477 0
M  V30 3259 H 273.316 4.52294 4.62644 0
M  V30 3260 N 273.449 -1.08991 1.13837 0
M  V30 3261 C 274.396 -2.15748 0.819835 0
M  V30 3262 C 275.366 -1.64636 -0.220026 0
M  V30 3263 O 276.551 -1.90582 -0.0912757 0
M  V30 3264 C 273.691 -3.4382 0.296913 0
M  V30 3265 C 272.804 -4.0881 1.39636 0
M  V30 3266 C 271.939 -5.24655 0.831314 0
M  V30 3267 C 270.978 -5.81575 1.90886 0
M  V30 3268 N 270.115 -6.88774 1.36142 0
M  V30 3269 H 274.955 -2.42338 1.73426 0
M  V30 3270 H 272.492 -1.18935 0.865613 0
M  V30 3271 H 274.45 -4.17193 -0.0244339 0
M  V30 3272 H 273.08 -3.17535 -0.580628 0
M  V30 3273 H 272.132 -3.33258 1.83422 0
M  V30 3274 H 273.444 -4.47141 2.21058 0
M  V30 3275 H 272.598 -6.04942 0.461515 0
M  V30 3276 H 271.337 -4.87698 -0.013932 0
M  V30 3277 H 270.342 -4.99946 2.28767 0
M  V30 3278 H 271.567 -6.20592 2.75758 0
M  V30 3279 H 269.513 -6.53788 0.538254 0
M  V30 3280 H 269.43 -7.25898 2.11208 0
M  V30 3281 H 270.698 -7.72806 1.01933 0
M  V30 3282 N 274.927 -0.932562 -1.27047 0
M  V30 3283 C 276.155 -0.592031 -1.98249 0
M  V30 3284 C 276.57 0.831062 -1.69525 0
M  V30 3285 O 275.927 1.55299 -0.958561 0
M  V30 3286 C 275.978 -0.814279 -3.5221 0
M  V30 3287 O 275.699 -2.18139 -3.7993 0
M  V30 3288 C 277.2 -0.483121 -4.4066 0
M  V30 3289 H 274.42 -0.223896 -0.632544 0
M  V30 3290 H 276.964 -1.25091 -1.61779 0
M  V30 3291 H 275.119 -0.20213 -3.86872 0
M  V30 3292 H 275.533 -2.235 -4.74498 0
M  V30 3293 H 277.007 -0.689298 -5.47679 0
M  V30 3294 H 277.484 0.581546 -4.35333 0
M  V30 3295 H 278.09 -1.07362 -4.11526 0
M  V30 3296 N 276.405 1.4127 -0.698611 0
M  V30 3297 C 277.335 2.33447 -0.049629 0
M  V30 3298 C 278.316 1.51982 0.763898 0
M  V30 3299 O 279.501 1.80509 0.716257 0
M  V30 3300 C 276.631 3.35828 0.885267 0
M  V30 3301 C 275.585 4.27627 0.178613 0
M  V30 3302 C 274.911 5.20406 1.22807 0
M  V30 3303 C 276.211 5.13459 -0.956933 0
M  V30 3304 H 277.905 2.87966 -0.81951 0
M  V30 3305 H 275.451 1.38461 -0.395538 0
M  V30 3306 H 277.404 3.9924 1.34854 0
M  V30 3307 H 276.128 2.79666 1.68685 0
M  V30 3308 H 274.787 3.65643 -0.26466 0
M  V30 3309 H 274.435 4.60558 2.02226 0
M  V30 3310 H 274.135 5.82661 0.760239 0
M  V30 3311 H 275.659 5.86695 1.69179 0
M  V30 3312 H 277.073 5.70421 -0.573805 0
M  V30 3313 H 275.47 5.8467 -1.35205 0
M  V30 3314 H 276.54 4.50443 -1.79524 0
M  V30 3315 N 277.883 0.443576 1.51229 0
M  V30 3316 C 279.108 -0.121648 2.07043 0
M  V30 3317 C 279.533 -1.35156 1.30823 0
M  V30 3318 O 278.891 -1.7793 0.347934 0
M  V30 3319 C 278.939 -0.41624 3.5819 0
M  V30 3320 O 278.043 -1.50163 3.8409 0
M  V30 3321 H 277.384 0.000871367 0.663999 0
M  V30 3322 H 279.914 0.626706 1.94765 0
M  V30 3323 H 279.924 -0.664867 4.02546 0
M  V30 3324 H 278.599 0.482653 4.1309 0
M  V30 3325 H 277.176 -1.24248 3.51592 0
M  V30 3326 N 279.361 -1.56624 0.175154 0
M  V30 3327 C 280.308 -2.18149 -0.753634 0
M  V30 3328 C 281.278 -1.12265 -1.22417 0
M  V30 3329 O 282.463 -1.40432 -1.29165 0
M  V30 3330 C 279.603 -2.82933 -1.97592 0
M  V30 3331 C 278.716 -4.03289 -1.5486 0
M  V30 3332 C 277.851 -4.55988 -2.72485 0
M  V30 3333 C 276.89 -5.68746 -2.26262 0
M  V30 3334 N 276.027 -6.15938 -3.36994 0
M  V30 3335 H 280.867 -2.9717 -0.222195 0
M  V30 3336 H 278.404 -1.46774 -0.0979422 0
M  V30 3337 H 280.362 -3.18653 -2.69288 0
M  V30 3338 H 278.992 -2.06509 -2.481 0
M  V30 3339 H 278.044 -3.73364 -0.728246 0
M  V30 3340 H 279.356 -4.849 -1.16933 0
M  V30 3341 H 278.51 -4.9391 -3.52332 0
M  V30 3342 H 277.249 -3.73443 -3.13674 0
M  V30 3343 H 276.254 -5.30372 -1.44863 0
M  V30 3344 H 277.479 -6.53095 -1.86127 0
M  V30 3345 H 275.425 -5.36321 -3.77751 0
M  V30 3346 H 275.342 -6.92548 -3.03172 0
M  V30 3347 H 276.61 -6.58511 -4.17114 0
M  V30 3348 N 280.839 0.0985539 -1.57292 0
M  V30 3349 C 281.749 1.13824 -2.05137 0
M  V30 3350 C 282.765 1.44076 -0.975604 0
M  V30 3351 O 283.941 1.54786 -1.28853 0
M  V30 3352 C 281.006 2.43969 -2.46333 0
M  V30 3353 C 280.067 2.2093 -3.68087 0
M  V30 3354 C 279.3 3.44869 -4.0731 0
M  V30 3355 O 279.523 4.52972 -3.46659 0
M  V30 3356 O 278.457 3.34661 -5.00285 0
M  V30 3357 H 282.283 0.761881 -2.93988 0
M  V30 3358 H 279.868 0.310818 -1.46131 0
M  V30 3359 H 281.75 3.20609 -2.73473 0
M  V30 3360 H 280.425 2.81038 -1.60621 0
M  V30 3361 H 279.332 1.42081 -3.46069 0
M  V30 3362 H 280.665 1.88755 -4.54568 0
M  V30 3363 N 282.317 1.53212 0.369288 0
M  V30 3364 C 283.227 1.82342 1.47609 0
M  V30 3365 C 284.243 0.711532 1.58787 0
M  V30 3366 O 285.419 1.0012 1.74751 0
M  V30 3367 C 282.484 2.00393 2.8292 0
M  V30 3368 C 281.545 3.24297 2.81301 0
M  V30 3369 C 280.778 3.41478 4.10157 0
M  V30 3370 O 281.001 2.63033 5.06132 0
M  V30 3371 O 279.935 4.34817 4.16194 0
M  V30 3372 H 283.761 2.76366 1.25918 0
M  V30 3373 H 281.346 1.38547 0.559034 0
M  V30 3374 H 283.228 2.13859 3.63101 0
M  V30 3375 H 281.903 1.09559 3.04596 0
M  V30 3376 H 280.81 3.16257 1.99831 0
M  V30 3377 H 282.143 4.15041 2.64578 0
M  V30 3378 N 283.795 -0.628877 1.44509 0
M  V30 3379 C 284.705 -1.7694 1.54044 0
M  V30 3380 C 285.721 -1.68705 0.425987 0
M  V30 3381 O 286.897 -1.89442 0.683656 0
M  V30 3382 C 283.962 -3.13332 1.48405 0
M  V30 3383 C 283.023 -3.33181 2.70719 0
M  V30 3384 C 282.256 -4.63067 2.6534 0
M  V30 3385 O 282.479 -5.44017 1.71469 0
M  V30 3386 O 281.413 -4.85167 3.56226 0
M  V30 3387 H 285.239 -1.71848 2.50403 0
M  V30 3388 H 282.824 -0.790378 1.26781 0
M  V30 3389 H 284.706 -3.94634 1.47791 0
M  V30 3390 H 283.381 -3.1896 0.551898 0
M  V30 3391 H 282.288 -2.51549 2.769 0
M  V30 3392 H 283.621 -3.32416 3.62988 0
M  V30 3393 N 285.273 -1.31445 -0.869486 0
M  V30 3394 C 286.501 -1.24122 -1.65534 0
M  V30 3395 C 286.916 0.193387 -1.87807 0
M  V30 3396 O 286.273 1.12557 -1.43656 0
M  V30 3397 C 286.324 -1.98229 -3.02304 0
M  V30 3398 O 286.045 -3.3609 -2.81026 0
M  V30 3399 C 287.546 -1.97751 -3.96749 0
M  V30 3400 H 284.766 -0.428868 -0.516055 0
M  V30 3401 H 287.31 -1.73328 -1.08525 0
M  V30 3402 H 285.465 -1.52782 -3.56001 0
M  V30 3403 H 285.879 -3.7383 -3.67902 0
M  V30 3404 H 287.353 -2.54114 -4.90031 0
M  V30 3405 H 287.83 -0.960137 -4.28577 0
M  V30 3406 H 288.436 -2.43079 -3.48988 0
M  V30 3407 N 286.751 1.08385 -1.14413 0
M  V30 3408 C 287.698 2.15311 -0.831265 0
M  V30 3409 C 288.668 1.64751 0.211292 0
M  V30 3410 O 289.853 1.90627 0.0811674 0
M  V30 3411 C 286.993 3.43658 -0.315143 0
M  V30 3412 C 286.106 4.08064 -1.41802 0
M  V30 3413 C 285.241 5.24207 -0.859126 0
M  V30 3414 C 284.28 5.80554 -1.93967 0
M  V30 3415 N 283.417 6.88042 -1.39793 0
M  V30 3416 H 288.257 2.41415 -1.74708 0
M  V30 3417 H 285.794 1.18474 -0.871909 0
M  V30 3418 H 287.752 4.172 0.00230884 0
M  V30 3419 H 286.382 3.17839 0.56378 0
M  V30 3420 H 285.434 3.3228 -1.85187 0
M  V30 3421 H 286.746 4.45962 -2.23427 0
M  V30 3422 H 285.9 6.04689 -0.49359 0
M  V30 3423 H 284.639 4.87699 -0.011932 0
M  V30 3424 H 283.644 4.98725 -2.31415 0
M  V30 3425 H 284.869 6.19121 -2.79046 0
M  V30 3426 H 282.815 6.53493 -0.572919 0
M  V30 3427 H 282.732 7.24767 -2.15054 0
M  V30 3428 H 284 7.72255 -1.0603 0
M  V30 3429 N 288.23 0.939286 1.26551 0
M  V30 3430 C 289.177 0.446088 2.26448 0
M  V30 3431 C 290.147 -0.493234 1.58608 0
M  V30 3432 O 291.332 -0.409857 1.86346 0
M  V30 3433 C 288.472 -0.284375 3.43926 0
M  V30 3434 C 287.585 0.690399 4.26448 0
M  V30 3435 C 286.72 -0.0610712 5.31165 0
M  V30 3436 C 285.759 0.905649 6.05363 0
M  V30 3437 N 284.896 0.186055 7.01853 0
M  V30 3438 H 289.736 1.30291 2.68008 0
M  V30 3439 H 287.273 0.65371 1.31776 0
M  V30 3440 H 289.231 -0.724313 4.10864 0
M  V30 3441 H 287.861 -1.10535 3.03285 0
M  V30 3442 H 286.913 1.24885 3.59316 0
M  V30 3443 H 288.225 1.42873 4.779 0
M  V30 3444 H 287.379 -0.56038 6.04106 0
M  V30 3445 H 286.118 -0.832297 4.80546 0
M  V30 3446 H 285.123 1.4161 5.3125 0
M  V30 3447 H 286.348 1.67685 6.58072 0
M  V30 3448 H 284.294 -0.566714 6.53548 0
M  V30 3449 H 284.211 0.863752 7.51049 0
M  V30 3450 H 285.479 -0.292221 7.78952 0
M  V30 3451 O 289.747 -1.37657 0.844552 0
M  V30 3452 H 290.438 -1.88761 0.43461 0
M  V30 END ATOM
M  V30 BEGIN BOND
M  V30 END BOND
M  V30 END CTAB
M  END
$$$$
