drugbank_target|P09601 Heme oxygenase 1 (DB00157; DB01942; DB02073; DB02468; DB03906; DB04803; DB04912; DB06914; DB07342)
 OpenBabel12092119383D

  0  0  0     0  0            999 V3000
M  V30 BEGIN CTAB
M  V30 COUNTS 4639 4693 0 0 0
M  V30 BEGIN ATOM
M  V30 1 H -0.908 1.98254 -0.117106 0
M  V30 2 N 0 1.576 0 0
M  V30 3 C 0.933 2.03868 1.02534 0
M  V30 4 C 1.911 0.928543 1.3348 0
M  V30 5 O 3.095 1.19667 1.45644 0
M  V30 6 C 0.222 2.43627 2.35294 0
M  V30 7 C -0.732 3.65373 2.2001 0
M  V30 8 S 0.101 5.13292 1.52614 0
M  V30 9 C 1.257 5.56322 2.86805 0
M  V30 10 H 1.49 2.90518 0.631377 0
M  V30 11 H -0.977 1.52953 0.210867 0
M  V30 12 H 0.981 2.67203 3.11629 0
M  V30 13 H -0.358 1.57376 2.7183 0
M  V30 14 H -1.165 3.90944 3.18086 0
M  V30 15 H -1.563 3.418 1.51819 0
M  V30 16 H 0.729 5.58782 3.83104 0
M  V30 17 H 1.672 6.56266 2.65933 0
M  V30 18 H 2.08 4.83886 2.90714 0
M  V30 19 N 1.4781 -0.272755 1.55222 0
M  V30 20 C 2.3881 -1.35918 1.91216 0
M  V30 21 C 3.4041 -1.54026 0.809436 0
M  V30 22 O 4.5801 -1.68148 1.10852 0
M  V30 23 C 1.6451 -2.69834 2.17693 0
M  V30 24 C 0.7061 -2.6047 3.41253 0
M  V30 25 C -0.0609 -3.88 3.66458 0
M  V30 26 O 0.1621 -4.88693 2.94169 0
M  V30 27 O -0.9039 -3.88189 4.59992 0
M  V30 28 H 2.9221 -1.0839 2.83699 0
M  V30 29 H 0.5071 -0.471301 1.41771 0
M  V30 30 H 2.3891 -3.49017 2.36147 0
M  V30 31 H 1.0641 -2.97148 1.28392 0
M  V30 32 H -0.0289 -1.79663 3.28134 0
M  V30 33 H 1.3041 -2.38106 4.30774 0
M  V30 34 N 2.9562 -1.48159 -0.537278 0
M  V30 35 C 4.3722 -1.34118 -0.865129 0
M  V30 36 C 4.5722 -0.346678 -1.98495 0
M  V30 37 O 3.6282 0.234715 -2.51407 0
M  V30 38 C 4.9412 -2.73963 -1.23954 0
M  V30 39 C 6.4892 -2.82397 -1.34984 0
M  V30 40 C 6.9642 -4.22928 -1.75772 0
M  V30 41 N 8.4552 -4.25566 -1.82887 0
M  V30 42 C 9.1902 -5.31235 -2.15817 0
M  V30 43 N 8.6862 -6.47189 -2.47222 0
M  V30 44 N 10.4792 -5.18624 -2.16761 0
M  V30 45 H 2.6302 -2.1144 0.201715 0
M  V30 46 H 4.8932 -0.947598 0.0275949 0
M  V30 47 H 4.5992 -3.48264 -0.490381 0
M  V30 48 H 4.4732 -3.0702 -2.19132 0
M  V30 49 H 6.8602 -2.08356 -2.08978 0
M  V30 50 H 6.9412 -2.5297 -0.379448 0
M  V30 51 H 6.5852 -4.97482 -1.02341 0
M  V30 52 H 6.5152 -4.49794 -2.73848 0
M  V30 53 H 9.0062 -3.41924 -1.60924 0
M  V30 54 H 9.3192 -7.23564 -2.71433 0
M  V30 55 H 7.6642 -6.50476 -2.44757 0
M  V30 56 H 10.8552 -4.27056 -1.91679 0
M  V30 57 H 11.0282 -6.01078 -2.42093 0
M  V30 58 N 4.4343 0.785586 -1.36625 0
M  V30 59 C 5.8453 1.36101 -1.27803 0
M  V30 60 C 6.1963 1.96035 0.0804875 0
M  V30 61 O 5.3213 1.92834 0.982042 0
M  V30 62 C 5.9163 2.47442 -2.31426 0
M  V30 63 C 4.4753 3.00789 -2.26281 0
M  V30 64 C 3.6223 1.73896 -2.15999 0
M  V30 65 H 6.5733 0.586928 -1.47448 0
M  V30 66 H 6.5943 3.2656 -1.95291 0
M  V30 67 H 6.1063 2.03791 -3.30289 0
M  V30 68 H 4.2073 3.48851 -1.30896 0
M  V30 69 H 4.3203 3.57343 -3.19128 0
M  V30 70 H 2.6843 1.9628 -1.62316 0
M  V30 71 H 3.4673 1.32368 -3.16755 0
M  V30 72 N 5.9124 1.20967 1.01018 0
M  V30 73 C 6.8444 0.922059 2.09835 0
M  V30 74 C 7.8574 -0.0927106 1.62536 0
M  V30 75 O 9.0464 0.139127 1.77957 0
M  V30 76 C 6.1464 0.362004 3.36961 0
M  V30 77 C 5.3194 1.42986 4.13369 0
M  V30 78 C 4.3784 0.879976 5.1879 0
M  V30 79 O 3.4044 1.56219 5.47343 0
M  V30 80 N 4.6064 -0.307396 5.79686 0
M  V30 81 H 7.3714 1.8588 2.35093 0
M  V30 82 H 4.9324 1.11422 1.1746 0
M  V30 83 H 6.9244 -0.0201474 4.04695 0
M  V30 84 H 5.4944 -0.479437 3.08902 0
M  V30 85 H 4.7144 1.98608 3.40512 0
M  V30 86 H 6.0024 2.14885 4.61196 0
M  V30 87 H 5.4004 -0.878796 5.58832 0
M  V30 88 H 3.9574 -0.631115 6.48737 0
M  V30 89 N 7.3905 -1.2043 1.01659 0
M  V30 90 C 8.8015 -1.71517 0.737482 0
M  V30 91 C 9.1525 -1.81547 -0.743973 0
M  V30 92 O 8.2775 -1.47803 -1.58061 0
M  V30 93 C 8.8725 -3.11515 1.33206 0
M  V30 94 C 7.4315 -3.59912 1.10183 0
M  V30 95 C 6.5785 -2.37116 1.43776 0
M  V30 96 H 9.5295 -1.05444 1.18606 0
M  V30 97 H 9.5505 -3.73575 0.722636 0
M  V30 98 H 9.0625 -3.04182 2.41028 0
M  V30 99 H 7.1635 -3.72577 0.0412756 0
M  V30 100 H 7.2765 -4.44731 1.78188 0
M  V30 101 H 5.6405 -2.39857 0.856778 0
M  V30 102 H 6.4235 -2.32424 2.52654 0
M  V30 103 N 8.8686 -0.792821 -1.36206 0
M  V30 104 C 10.1456 -0.290627 -1.93429 0
M  V30 105 C 10.5256 1.21773 -1.72437 0
M  V30 106 O 9.8736 2.0108 -1.08531 0
M  V30 107 C 10.0836 -0.686973 -3.42172 0
M  V30 108 C 11.4316 -0.668643 -4.19302 0
M  V30 109 O 12.4556 -0.627658 -3.50626 0
M  V30 110 O 11.3146 -0.714597 -5.41808 0
M  V30 111 H 8.4086 -0.0727927 -0.82379 0
M  V30 112 H 10.9546 -0.875593 -1.45367 0
M  V30 113 H 9.7266 -1.72711 -3.51122 0
M  V30 114 H 9.3496 -0.0760733 -3.97527 0
M  V30 115 N 10.3467 1.47872 -0.545128 0
M  V30 116 C 11.5717 2.07391 -0.0190611 0
M  V30 117 C 11.9967 1.39688 1.25971 0
M  V30 118 O 11.3547 0.467816 1.7516 0
M  V30 119 C 11.4027 3.60188 0.172335 0
M  V30 120 O 10.5067 3.9339 1.23766 0
M  V30 121 H 9.8477 0.662411 -0.0459059 0
M  V30 122 H 12.3777 1.90066 -0.757365 0
M  V30 123 H 12.3877 4.06129 0.390305 0
M  V30 124 H 11.0627 4.08865 -0.761725 0
M  V30 125 H 9.6397 3.5921 1.00114 0
M  V30 126 N 11.8248 0.280983 1.55075 0
M  V30 127 C 12.7578 -0.645439 2.18882 0
M  V30 128 C 13.7358 -1.14786 1.15165 0
M  V30 129 O 14.9198 -1.21975 1.43716 0
M  V30 130 C 12.0468 -1.88088 2.81674 0
M  V30 131 C 11.0928 -1.51343 3.98745 0
M  V30 132 S 11.9258 -0.586548 5.32278 0
M  V30 133 C 13.0818 -1.83024 5.98543 0
M  V30 134 H 13.3148 -0.1033 2.9712 0
M  V30 135 H 10.8478 0.0652099 1.54262 0
M  V30 136 H 12.8058 -2.58997 3.18482 0
M  V30 137 H 11.4668 -2.39417 2.03318 0
M  V30 138 H 10.6598 -2.43289 4.41392 0
M  V30 139 H 10.2618 -0.884477 3.63391 0
M  V30 140 H 12.5538 -2.77342 6.18133 0
M  V30 141 H 13.4968 -1.44668 6.93164 0
M  V30 142 H 13.9048 -1.99785 5.27964 0
M  V30 143 N 13.3029 -1.57598 0.00835791 0
M  V30 144 C 14.7139 -1.7892 -0.53333 0
M  V30 145 C 15.0649 -0.916609 -1.73473 0
M  V30 146 O 14.1899 -0.121336 -2.1606 0
M  V30 147 C 14.7849 -3.24488 -0.974313 0
M  V30 148 C 13.3439 -3.46878 -1.46125 0
M  V30 149 C 12.4909 -2.74157 -0.416302 0
M  V30 150 H 15.4419 -1.56958 0.234495 0
M  V30 151 H 15.4629 -3.3306 -1.83988 0
M  V30 152 H 14.9749 -3.87972 -0.099718 0
M  V30 153 H 13.0759 -2.8862 -2.35646 0
M  V30 154 H 13.1889 -4.55572 -1.48295 0
M  V30 155 H 11.5529 -2.39022 -0.87981 0
M  V30 156 H 12.3359 -3.40345 0.44947 0
M  V30 157 N 14.781 0.264519 -1.55364 0
M  V30 158 C 15.713 1.34965 -1.85248 0
M  V30 159 C 16.726 1.45136 -0.737525 0
M  V30 160 O 17.915 1.46801 -1.01547 0
M  V30 161 C 15.015 2.73008 -2.00797 0
M  V30 162 C 14.188 2.85324 -3.31525 0
M  V30 163 C 13.247 4.04097 -3.37034 0
M  V30 164 O 12.273 3.94455 -4.10358 0
M  V30 165 N 13.475 5.16458 -2.65049 0
M  V30 166 H 16.24 1.09672 -2.78913 0
M  V30 167 H 13.801 0.454635 -1.55386 0
M  V30 168 H 15.793 3.50772 -2.01844 0
M  V30 169 H 14.363 2.91087 -1.1396 0
M  V30 170 H 13.583 1.94377 -3.42945 0
M  V30 171 H 14.871 2.9049 -4.17724 0
M  V30 172 H 14.269 5.27181 -2.05175 0
M  V30 173 H 12.826 5.92422 -2.71809 0
M  V30 174 N 16.2591 1.48442 0.529413 0
M  V30 175 C 17.5361 1.46978 1.29062 0
M  V30 176 C 17.9161 0.181769 2.10316 0
M  V30 177 O 17.2641 -0.836481 2.12639 0
M  V30 178 C 17.4741 2.7321 2.17157 0
M  V30 179 C 18.8221 3.21562 2.77278 0
M  V30 180 O 19.8461 2.74131 2.27444 0
M  V30 181 O 18.7051 4.04094 3.67927 0
M  V30 182 H 15.7991 0.587003 0.582543 0
M  V30 183 H 18.3451 1.60676 0.546021 0
M  V30 184 H 17.1171 3.58465 1.56903 0
M  V30 185 H 16.7401 2.62235 2.98862 0
M  V30 186 N 17.7372 -0.778329 1.37039 0
M  V30 187 C 18.6672 -1.90546 1.34962 0
M  V30 188 C 19.6482 -1.68681 0.219274 0
M  V30 189 O 20.8332 -1.89634 0.418624 0
M  V30 190 C 17.9632 -3.27734 1.14925 0
M  V30 191 C 16.9172 -3.64147 2.24902 0
M  V30 192 C 16.2432 -4.99806 1.89996 0
M  V30 193 C 17.5432 -3.71579 3.67051 0
M  V30 194 H 19.2372 -1.92541 2.29277 0
M  V30 195 H 16.7832 -0.924948 1.10366 0
M  V30 196 H 18.7362 -4.06215 1.12104 0
M  V30 197 H 17.4602 -3.26154 0.170631 0
M  V30 198 H 16.1192 -2.8797 2.26868 0
M  V30 199 H 15.7672 -4.94759 0.906796 0
M  V30 200 H 15.4672 -5.25139 2.63634 0
M  V30 201 H 16.9912 -5.80694 1.88749 0
M  V30 202 H 18.4052 -4.40227 3.67251 0
M  V30 203 H 16.8022 -4.08405 4.39688 0
M  V30 204 H 17.8722 -2.72404 4.01154 0
M  V30 205 N 19.2153 -1.21501 -1.00376 0
M  V30 206 C 20.4403 -1.05977 -1.78279 0
M  V30 207 C 20.8653 0.385994 -1.84097 0
M  V30 208 O 20.2233 1.27849 -1.28547 0
M  V30 209 C 20.2713 -1.66302 -3.19963 0
M  V30 210 O 19.3753 -0.909333 -4.0225 0
M  V30 211 H 18.7163 -0.372906 -0.549397 0
M  V30 212 H 21.2463 -1.6107 -1.26165 0
M  V30 213 H 21.2563 -1.70574 -3.70632 0
M  V30 214 H 19.9313 -2.71515 -3.15043 0
M  V30 215 H 18.5083 -0.941795 -3.60811 0
M  V30 216 N 20.6934 1.19889 -1.02296 0
M  V30 217 C 21.6034 2.26571 -0.608508 0
M  V30 218 C 22.6194 1.70299 0.356964 0
M  V30 219 O 23.7954 2.00235 0.216326 0
M  V30 220 C 20.8604 3.46677 0.0402814 0
M  V30 221 C 19.9214 4.18153 -0.97194 0
M  V30 222 C 19.1544 5.32525 -0.354016 0
M  V30 223 O 19.3774 5.64112 0.844604 0
M  V30 224 O 18.3114 5.92242 -1.07391 0
M  V30 225 H 22.1374 2.64251 -1.49684 0
M  V30 226 H 19.7224 1.26629 -0.792809 0
M  V30 227 H 21.6044 4.19475 0.402324 0
M  V30 228 H 20.2794 3.10858 0.902707 0
M  V30 229 H 19.1864 3.47499 -1.38546 0
M  V30 230 H 20.5194 4.57927 -1.80454 0
M  V30 231 N 22.1715 0.800033 1.35784 0
M  V30 232 C 23.1345 0.211565 2.28221 0
M  V30 233 C 24.1345 -0.59728 1.49296 0
M  V30 234 O 25.3245 -0.416721 1.69142 0
M  V30 235 C 22.4565 -0.705846 3.33513 0
M  V30 236 H 23.6495 1.02677 2.81776 0
M  V30 237 H 21.2025 0.570211 1.45528 0
M  V30 238 H 21.9375 -1.54498 2.85133 0
M  V30 239 H 21.7225 -0.127655 3.91892 0
M  V30 240 H 23.2125 -1.11211 4.02519 0
M  V30 241 N 23.6496 -1.47581 0.552962 0
M  V30 242 C 24.5796 -2.32762 -0.185451 0
M  V30 243 C 25.5606 -1.43527 -0.912905 0
M  V30 244 O 26.7456 -1.72388 -0.894201 0
M  V30 245 C 23.8756 -3.25219 -1.21859 0
M  V30 246 C 22.8296 -4.23661 -0.607864 0
M  V30 247 C 22.1556 -5.05413 -1.74533 0
M  V30 248 C 23.4556 -5.20481 0.435582 0
M  V30 249 H 25.1496 -2.94749 0.525684 0
M  V30 250 H 22.6956 -1.41738 0.254251 0
M  V30 251 H 24.6486 -3.8365 -1.7433 0
M  V30 252 H 23.3726 -2.61279 -1.95961 0
M  V30 253 H 22.0316 -3.66451 -0.104489 0
M  V30 254 H 21.6796 -4.3788 -2.47529 0
M  V30 255 H 21.3796 -5.72059 -1.34249 0
M  V30 256 H 22.9036 -5.66701 -2.27338 0
M  V30 257 H 24.3176 -5.733 -0.00290157 0
M  V30 258 H 22.7146 -5.95305 0.757067 0
M  V30 259 H 23.7846 -4.66217 1.33303 0
M  V30 260 N 25.1277 -0.289203 -1.54924 0
M  V30 261 C 26.0747 0.592115 -2.23075 0
M  V30 262 C 27.0447 1.13881 -1.20915 0
M  V30 263 O 28.2297 1.18551 -1.495 0
M  V30 264 C 25.3697 1.76376 -2.96623 0
M  V30 265 C 24.4827 1.24959 -4.13533 0
M  V30 266 C 23.6177 2.38416 -4.74691 0
M  V30 267 C 22.6567 1.84072 -5.83767 0
M  V30 268 N 21.7937 2.91057 -6.38929 0
M  V30 269 H 26.6337 0.00432038 -2.98 0
M  V30 270 H 24.1707 -0.00963529 -1.47097 0
M  V30 271 H 26.1287 2.45268 -3.3749 0
M  V30 272 H 24.7587 2.32337 -2.24097 0
M  V30 273 H 23.8107 0.453307 -3.77689 0
M  V30 274 H 25.1227 0.811662 -4.92152 0
M  V30 275 H 24.2767 3.15276 -5.18349 0
M  V30 276 H 23.0157 2.8553 -3.95378 0
M  V30 277 H 22.0207 1.05697 -5.39545 0
M  V30 278 H 23.2457 1.37877 -6.64956 0
M  V30 279 H 21.1917 3.37526 -5.62505 0
M  V30 280 H 21.1087 2.51724 -7.12861 0
M  V30 281 H 22.3767 3.6785 -6.87246 0
M  V30 282 N 26.6058 1.57591 -0.0167156 0
M  V30 283 C 27.5158 2.1291 0.98521 0
M  V30 284 C 28.5318 1.07834 1.36557 0
M  V30 285 O 29.7078 1.39826 1.44951 0
M  V30 286 C 26.7728 2.63512 2.25305 0
M  V30 287 C 25.8338 3.83256 1.93426 0
M  V30 288 C 25.0668 4.31435 3.14165 0
M  V30 289 O 25.2898 3.78851 4.26413 0
M  V30 290 O 24.2238 5.23416 2.97186 0
M  V30 291 H 28.0498 2.98772 0.544888 0
M  V30 292 H 25.6348 1.48012 0.203141 0
M  V30 293 H 27.5168 2.96183 2.99756 0
M  V30 294 H 26.1918 1.8074 2.68542 0
M  V30 295 H 25.0988 3.55531 1.16398 0
M  V30 296 H 26.4318 4.67153 1.55013 0
M  V30 297 N 28.0839 -0.256276 1.55502 0
M  V30 298 C 29.0469 -1.30047 1.88734 0
M  V30 299 C 30.0469 -1.4154 0.763086 0
M  V30 300 O 31.2369 -1.40403 1.03115 0
M  V30 301 C 28.3689 -2.67953 2.10747 0
M  V30 302 H 29.5619 -1.01802 2.82093 0
M  V30 303 H 27.1149 -0.495134 1.4825 0
M  V30 304 H 27.8499 -3.01351 1.19825 0
M  V30 305 H 27.6349 -2.60993 2.92617 0
M  V30 306 H 29.1249 -3.43368 2.37673 0
M  V30 307 N 29.562 -1.4872 -0.521534 0
M  V30 308 C 30.79 -1.60843 -1.30142 0
M  V30 309 C 31.205 -0.271897 -1.86832 0
M  V30 310 O 30.562 0.739969 -1.66825 0
M  V30 311 C 30.613 -2.66155 -2.4463 0
M  V30 312 O 30.334 -3.94623 -1.90275 0
M  V30 313 C 31.835 -2.88795 -3.36322 0
M  V30 314 H 29.055 -0.542075 -0.395468 0
M  V30 315 H 31.599 -1.94609 -0.628285 0
M  V30 316 H 29.754 -2.35224 -3.07812 0
M  V30 317 H 30.168 -4.52468 -2.65279 0
M  V30 318 H 31.642 -3.66264 -4.12983 0
M  V30 319 H 32.119 -1.97934 -3.9207 0
M  V30 320 H 32.725 -3.21063 -2.78924 0
M  V30 321 N 31.0401 0.771051 -1.3745 0
M  V30 322 C 31.9871 1.88435 -1.3327 0
M  V30 323 C 32.9571 1.64914 -0.198136 0
M  V30 324 O 34.1421 1.86821 -0.387606 0
M  V30 325 C 31.2821 3.25509 -1.14622 0
M  V30 326 C 30.3951 3.60979 -2.37314 0
M  V30 327 C 29.5301 4.87265 -2.11533 0
M  V30 328 C 28.5691 5.15469 -3.30088 0
M  V30 329 N 27.7061 6.32944 -3.03853 0
M  V30 330 H 32.5461 1.91344 -2.28455 0
M  V30 331 H 30.0831 0.935466 -1.13523 0
M  V30 332 H 32.0411 4.04582 -1.01831 0
M  V30 333 H 30.6711 3.21974 -0.230837 0
M  V30 334 H 29.7231 2.76885 -2.60842 0
M  V30 335 H 31.0351 3.77759 -3.25729 0
M  V30 336 H 30.1891 5.74244 -1.95777 0
M  V30 337 H 28.9281 4.7259 -1.20457 0
M  V30 338 H 27.9331 4.26966 -3.46382 0
M  V30 339 H 29.1581 5.32052 -4.22016 0
M  V30 340 H 27.1041 6.19625 -2.15407 0
M  V30 341 H 27.0211 6.50143 -3.85812 0
M  V30 342 H 28.2891 7.22857 -2.91716 0
M  V30 343 N 32.5182 1.22032 0.997298 0
M  V30 344 C 33.4282 1.00271 2.12092 0
M  V30 345 C 34.4442 -0.047621 1.73935 0
M  V30 346 O 35.6202 0.144136 2.00884 0
M  V30 347 C 32.6852 0.578449 3.4184 0
M  V30 348 C 31.7462 1.70189 3.94125 0
M  V30 349 C 30.9792 1.29778 5.17681 0
M  V30 350 O 31.2022 0.174676 5.70132 0
M  V30 351 O 30.1362 2.11261 5.63607 0
M  V30 352 H 33.9622 1.94398 2.3333 0
M  V30 353 H 31.5472 1.00587 1.10465 0
M  V30 354 H 33.4292 0.351998 4.19927 0
M  V30 355 H 32.1042 -0.334019 3.21972 0
M  V30 356 H 31.0112 1.98282 3.1723 0
M  V30 357 H 32.3442 2.59206 4.18417 0
M  V30 358 N 33.9963 -1.19345 1.0293 0
M  V30 359 C 35.2423 -1.89318 0.727083 0
M  V30 360 C 35.5753 -1.79446 -0.742483 0
M  V30 361 O 34.8503 -1.1871 -1.54072 0
M  V30 362 C 35.1333 -3.40238 1.17942 0
M  V30 363 C 34.9863 -3.58979 2.71024 0
M  V30 364 C 36.3053 -4.33479 0.760548 0
M  V30 365 H 33.4243 -0.687475 0.265606 0
M  V30 366 H 36.0663 -1.40477 1.2793 0
M  V30 367 H 34.2163 -3.81964 0.709608 0
M  V30 368 H 35.8883 -3.26421 3.25955 0
M  V30 369 H 34.1313 -3.02018 3.11396 0
M  V30 370 H 34.8023 -4.64823 2.9773 0
M  V30 371 H 37.2783 -3.99469 1.16464 0
M  V30 372 H 36.1543 -5.37664 1.10493 0
M  V30 373 H 36.4153 -4.40813 -0.337063 0
M  V30 374 N 35.4744 -0.807222 -1.35358 0
M  V30 375 C 36.4244 -0.190706 -2.27201 0
M  V30 376 C 37.4084 0.635838 -1.47804 0
M  V30 377 O 38.6004 0.492991 -1.69996 0
M  V30 378 C 35.7294 0.659337 -3.36909 0
M  V30 379 C 34.8154 -0.176971 -4.23731 0
M  V30 380 N 35.2064 -1.24029 -4.90357 0
M  V30 381 C 33.5044 0.0412953 -4.45981 0
M  V30 382 C 34.2054 -1.75092 -5.54723 0
M  V30 383 N 33.1814 -1.05727 -5.33219 0
M  V30 384 H 36.9834 -1.0043 -2.76208 0
M  V30 385 H 34.4974 -0.648445 -1.48892 0
M  V30 386 H 36.4944 1.11706 -4.01656 0
M  V30 387 H 35.1544 1.47127 -2.89454 0
M  V30 388 H 36.1654 -1.62295 -4.91814 0
M  V30 389 H 32.8424 0.82232 -4.09322 0
M  V30 390 H 34.2324 -2.63963 -6.17878 0
M  V30 391 N 36.9525 1.47285 -0.560781 0
M  V30 392 C 38.1805 2.06855 -0.0430262 0
M  V30 393 C 38.5955 1.41291 1.25229 0
M  V30 394 O 37.9525 0.510648 1.7521 0
M  V30 395 C 38.0035 3.61178 0.152518 0
M  V30 396 O 37.7245 4.24285 -1.0915 0
M  V30 397 C 39.2255 4.37624 0.707145 0
M  V30 398 H 36.4455 0.669319 -0.0474652 0
M  V30 399 H 38.9895 1.89237 -0.77521 0
M  V30 400 H 37.1445 3.78298 0.834843 0
M  V30 401 H 37.5585 5.16868 -0.891482 0
M  V30 402 H 39.0325 5.46271 0.793244 0
M  V30 403 H 39.5095 4.04152 1.71923 0
M  V30 404 H 40.1155 4.25257 0.0604027 0
M  V30 405 N 38.4306 0.297415 1.54768 0
M  V30 406 C 39.3626 -0.613881 2.20826 0
M  V30 407 C 40.3756 -1.10032 1.19987 0
M  V30 408 O 41.5646 -1.01839 1.46598 0
M  V30 409 C 38.6646 -1.852 2.83821 0
M  V30 410 C 37.8376 -1.50865 4.10559 0
M  V30 411 C 36.8966 -2.60154 4.57391 0
M  V30 412 O 35.9226 -2.25398 5.2267 0
M  V30 413 N 37.1246 -3.90629 4.29406 0
M  V30 414 H 39.8896 -0.048389 2.99661 0
M  V30 415 H 37.4506 0.11946 1.61459 0
M  V30 416 H 39.4426 -2.57652 3.12086 0
M  V30 417 H 38.0126 -2.32597 2.08847 0
M  V30 418 H 37.2326 -0.616925 3.89343 0
M  V30 419 H 38.5206 -1.25458 4.9309 0
M  V30 420 H 37.9186 -4.21677 3.77101 0
M  V30 421 H 36.4756 -4.59391 4.62388 0
M  V30 422 N 39.9087 -1.5758 0.0250728 0
M  V30 423 C 40.8717 -2.08896 -0.943139 0
M  V30 424 C 41.8717 -1.00321 -1.25668 0
M  V30 425 O 43.0617 -1.26495 -1.19769 0
M  V30 426 C 40.1937 -2.55143 -2.26086 0
M  V30 427 H 41.3867 -2.95723 -0.498775 0
M  V30 428 H 38.9397 -1.54703 -0.222888 0
M  V30 429 H 39.6747 -1.71633 -2.75159 0
M  V30 430 H 39.4597 -3.34461 -2.04641 0
M  V30 431 H 40.9497 -2.95083 -2.95492 0
M  V30 432 N 41.3868 0.248026 -1.55636 0
M  V30 433 C 42.2968 1.32859 -1.93354 0
M  V30 434 C 43.3128 1.52719 -0.833838 0
M  V30 435 O 44.4888 1.66363 -1.13513 0
M  V30 436 C 41.5538 2.66337 -2.21958 0
M  V30 437 C 40.6148 2.55008 -3.45354 0
M  V30 438 C 39.8478 3.82121 -3.72584 0
M  V30 439 O 40.0708 4.83951 -3.01907 0
M  V30 440 O 39.0048 3.80822 -4.6611 0
M  V30 441 H 42.8308 1.03862 -2.85388 0
M  V30 442 H 40.4158 0.448686 -1.42503 0
M  V30 443 H 42.2978 3.45216 -2.4167 0
M  V30 444 H 40.9728 2.95068 -1.33103 0
M  V30 445 H 39.8798 1.7442 -3.30951 0
M  V30 446 H 41.2128 2.31222 -4.34508 0
M  V30 447 N 42.8649 1.48995 0.513639 0
M  V30 448 C 43.8129 1.65199 1.63744 0
M  V30 449 C 44.8069 0.51809 1.61283 0
M  V30 450 O 46.0129 0.697335 1.65943 0
M  V30 451 H 42.3879 0.52069 0.542574 0
M  V30 452 H 44.3589 2.59552 1.47226 0
M  V30 453 C 43.1079 1.72409 3.01945 0
M  V30 454 H 42.4309 2.59029 3.04539 0
M  V30 455 H 43.8709 1.87785 3.80148 0
M  V30 456 C 42.3299 0.46618 3.33659 0
M  V30 457 O 42.8599 -0.413744 3.99564 0
M  V30 458 N 41.0659 0.332931 2.88687 0
M  V30 459 H 40.6129 1.04996 2.35231 0
M  V30 460 H 40.5709 -0.507665 3.10274 0
M  V30 461 N 44.343 -0.763751 1.37857 0
M  V30 462 C 45.306 -1.85889 1.34081 0
M  V30 463 C 46.306 -1.58949 0.243277 0
M  V30 464 O 47.496 -1.66882 0.499589 0
M  V30 465 C 44.628 -3.23176 1.08489 0
M  V30 466 H 45.821 -1.90648 2.31502 0
M  V30 467 H 43.374 -0.964367 1.23003 0
M  V30 468 H 44.109 -3.24091 0.116318 0
M  V30 469 H 43.894 -3.44124 1.8794 0
M  V30 470 H 45.384 -4.03254 1.08517 0
M  V30 471 N 45.8211 -1.22559 -0.990812 0
M  V30 472 C 46.7311 -1.01394 -2.11557 0
M  V30 473 C 47.7471 0.0383962 -1.73958 0
M  V30 474 O 48.9231 -0.154787 -2.00804 0
M  V30 475 C 45.9881 -0.596569 -3.41529 0
M  V30 476 C 45.0491 -1.72276 -3.93217 0
M  V30 477 C 44.2821 -1.32521 -5.16985 0
M  V30 478 O 44.5051 -0.204909 -5.70032 0
M  V30 479 O 43.4391 -2.14247 -5.62478 0
M  V30 480 H 47.2651 -1.95633 -2.32296 0
M  V30 481 H 44.8501 -1.01172 -1.0993 0
M  V30 482 H 46.7321 -0.374263 -4.19735 0
M  V30 483 H 45.4071 0.316939 -3.22145 0
M  V30 484 H 44.3141 -1.99961 -3.16174 0
M  V30 485 H 45.6471 -2.61421 -4.17037 0
M  V30 486 N 47.2992 1.18797 -1.03562 0
M  V30 487 C 48.5462 1.8865 -0.736023 0
M  V30 488 C 48.8742 1.80041 0.735889 0
M  V30 489 O 48.1292 1.19179 1.55225 0
M  V30 490 C 48.4282 3.38692 -1.14117 0
M  V30 491 C 48.0942 3.67504 -2.6125 0
M  V30 492 C 46.7562 3.75078 -3.01447 0
M  V30 493 C 49.1082 3.80293 -3.56408 0
M  V30 494 C 46.4362 3.92915 -4.35701 0
M  V30 495 C 48.7882 3.99645 -4.90374 0
M  V30 496 C 47.4522 4.05453 -5.30249 0
M  V30 497 H 46.7222 0.690321 -0.26933 0
M  V30 498 H 49.3692 1.40641 -1.29971 0
M  V30 499 H 47.6742 3.88645 -0.496202 0
M  V30 500 H 49.3712 3.91072 -0.886789 0
M  V30 501 H 45.9612 3.62223 -2.29113 0
M  V30 502 H 50.1452 3.73779 -3.26501 0
M  V30 503 H 45.4012 3.95653 -4.66121 0
M  V30 504 H 49.5752 4.08482 -5.64017 0
M  V30 505 H 47.2022 4.19027 -6.34288 0
M  V30 506 N 48.7773 0.814389 1.34928 0
M  V30 507 C 49.7103 0.175641 2.27523 0
M  V30 508 C 50.6883 -0.662953 1.48471 0
M  V30 509 O 51.8723 -0.628545 1.77712 0
M  V30 510 C 48.9993 -0.755516 3.30166 0
M  V30 511 C 48.0453 0.00445305 4.265 0
M  V30 512 S 48.8783 1.34582 5.18313 0
M  V30 513 C 50.0343 0.419315 6.24494 0
M  V30 514 H 50.2673 0.960691 2.8135 0
M  V30 515 H 47.8003 0.609846 1.41846 0
M  V30 516 H 49.7583 -1.28723 3.89796 0
M  V30 517 H 48.4193 -1.51402 2.75202 0
M  V30 518 H 47.6123 -0.703077 4.99072 0
M  V30 519 H 47.2143 0.466447 3.7108 0
M  V30 520 H 49.5063 -0.392432 6.76362 0
M  V30 521 H 50.4493 1.11446 6.99275 0
M  V30 522 H 50.8573 0.0115389 5.64499 0
M  V30 523 N 50.2554 -1.46986 0.568584 0
M  V30 524 C 51.6714 -1.57946 0.229189 0
M  V30 525 C 51.8714 -1.56567 -1.26843 0
M  V30 526 O 50.9274 -1.47511 -2.04931 0
M  V30 527 C 52.2404 -2.87963 0.865909 0
M  V30 528 C 53.7884 -3.01568 0.838188 0
M  V30 529 C 54.2634 -4.34301 1.45419 0
M  V30 530 N 55.7544 -4.40965 1.41788 0
M  V30 531 C 56.4894 -5.42256 1.86403 0
M  V30 532 N 55.9854 -6.50297 2.38926 0
M  V30 533 N 57.7784 -5.3337 1.77405 0
M  V30 534 H 49.9294 -1.46126 1.54146 0
M  V30 535 H 52.1924 -0.696156 0.643484 0
M  V30 536 H 51.8984 -2.94742 1.91886 0
M  V30 537 H 51.7724 -3.75423 0.365687 0
M  V30 538 H 54.1594 -2.94379 -0.206106 0
M  V30 539 H 54.2404 -2.1562 1.37629 0
M  V30 540 H 53.8844 -4.42247 2.49761 0
M  V30 541 H 53.8144 -5.19 0.891435 0
M  V30 542 H 56.3054 -3.63484 1.03381 0
M  V30 543 H 56.6184 -7.23777 2.70863 0
M  V30 544 H 54.9634 -6.51155 2.42944 0
M  V30 545 H 58.1544 -4.47865 1.3614 0
M  V30 546 H 58.3274 -6.12169 2.12492 0
M  V30 547 N 51.7335 -0.305618 -1.54608 0
M  V30 548 C 52.6815 0.584119 -2.25146 0
M  V30 549 C 53.6755 1.13326 -1.25911 0
M  V30 550 O 54.8815 1.08337 -1.43747 0
M  V30 551 H 51.2565 0.206983 -0.722954 0
M  V30 552 H 53.2275 -0.033291 -2.98381 0
M  V30 553 C 51.9765 1.74225 -3.009 0
M  V30 554 H 51.2995 1.32892 -3.77067 0
M  V30 555 H 52.7395 2.34077 -3.53531 0
M  V30 556 C 51.1985 2.64914 -2.0814 0
M  V30 557 O 51.7285 3.66137 -1.65246 0
M  V30 558 N 49.9345 2.3275 -1.74 0
M  V30 559 H 49.4815 1.50479 -2.09078 0
M  V30 560 H 49.4395 2.93694 -1.12211 0
M  V30 561 N 53.2116 1.57565 -0.0334293 0
M  V30 562 C 54.4586 1.91978 0.644272 0
M  V30 563 C 54.7866 0.910231 1.71887 0
M  V30 564 O 54.0416 -0.0801961 1.95536 0
M  V30 565 C 54.3406 3.33112 1.29504 0
M  V30 566 C 54.0066 4.49537 0.350388 0
M  V30 567 C 52.6686 4.81115 0.0903974 0
M  V30 568 C 55.0206 5.20347 -0.298032 0
M  V30 569 C 52.3486 5.8086 -0.825746 0
M  V30 570 C 54.7006 6.2107 -1.20226 0
M  V30 571 C 53.3646 6.51088 -1.4711 0
M  V30 572 H 52.6346 0.702496 0.235756 0
M  V30 573 H 55.2816 1.91259 -0.0961176 0
M  V30 574 H 53.5866 3.30113 2.11028 0
M  V30 575 H 55.2836 3.57011 1.82603 0
M  V30 576 H 51.8736 4.24883 0.563205 0
M  V30 577 H 56.0576 4.96178 -0.110234 0
M  V30 578 H 51.3136 6.02461 -1.04169 0
M  V30 579 H 55.4876 6.75057 -1.71086 0
M  V30 580 H 53.1146 7.28193 -2.18264 0
M  V30 581 N 54.6897 -0.239769 1.55765 0
M  V30 582 C 55.6217 -1.32001 1.87372 0
M  V30 583 C 56.6347 -1.43944 0.760522 0
M  V30 584 O 57.8237 -1.45167 1.0387 0
M  V30 585 C 54.9237 -2.69779 2.05115 0
M  V30 586 C 54.0967 -2.80014 3.36022 0
M  V30 587 C 53.1557 -3.98684 3.4342 0
M  V30 588 O 52.1817 -3.87877 4.16582 0
M  V30 589 N 53.3837 -5.12176 2.73232 0
M  V30 590 H 56.1487 -1.0522 2.80622 0
M  V30 591 H 53.7097 -0.429857 1.56089 0
M  V30 592 H 55.7017 -3.47517 2.07399 0
M  V30 593 H 54.2717 -2.89237 1.18577 0
M  V30 594 H 53.4917 -1.88896 3.45994 0
M  V30 595 H 54.7797 -2.83808 4.22292 0
M  V30 596 H 54.1777 -5.2385 2.13536 0
M  V30 597 H 52.7347 -5.88022 2.81199 0
M  V30 598 N 56.1678 -1.49265 -0.50573 0
M  V30 599 C 57.1148 -1.65585 -1.6078 0
M  V30 600 C 58.0848 -0.497396 -1.58478 0
M  V30 601 O 59.2698 -0.72385 -1.76536 0
M  V30 602 C 56.4098 -1.72408 -2.98948 0
M  V30 603 C 55.5228 -2.99525 -3.11301 0
M  V30 604 C 54.6578 -2.97356 -4.40174 0
M  V30 605 C 53.6968 -4.19074 -4.46143 0
M  V30 606 N 52.8338 -4.14841 -5.66437 0
M  V30 607 H 57.6738 -2.59688 -1.46172 0
M  V30 608 H 55.2108 -1.28761 -0.711261 0
M  V30 609 H 57.1688 -1.74344 -3.79025 0
M  V30 610 H 55.7988 -0.817753 -3.1227 0
M  V30 611 H 54.8508 -3.07222 -2.24318 0
M  V30 612 H 56.1628 -3.89518 -3.11572 0
M  V30 613 H 55.3168 -2.97829 -5.28567 0
M  V30 614 H 54.0558 -2.05133 -4.42461 0
M  V30 615 H 53.0608 -4.1885 -3.56153 0
M  V30 616 H 54.2858 -5.12483 -4.45575 0
M  V30 617 H 52.2318 -3.25453 -5.69575 0
M  V30 618 H 52.1488 -4.98564 -5.68304 0
M  V30 619 H 53.4168 -4.1941 -6.57051 0
M  V30 620 N 57.6459 0.756429 -1.3826 0
M  V30 621 C 58.8939 1.51248 -1.34047 0
M  V30 622 C 59.2149 1.94875 0.0698372 0
M  V30 623 O 58.4849 1.67436 1.01696 0
M  V30 624 H 57.0649 0.561018 -0.493222 0
M  V30 625 H 59.7269 0.899347 -1.7291 0
M  V30 626 H 58.8229 2.40472 -1.98947 0
M  V30 627 N 59.124 1.23083 0.984299 0
M  V30 628 C 60.056 0.96636 2.07832 0
M  V30 629 C 61.069 -0.0582135 1.62696 0
M  V30 630 O 62.258 0.176843 1.77622 0
M  V30 631 C 59.358 0.433397 3.36117 0
M  V30 632 C 58.531 1.51722 4.10243 0
M  V30 633 C 57.59 0.989821 5.16807 0
M  V30 634 O 56.616 1.67794 5.43906 0
M  V30 635 N 57.818 -0.184367 5.80207 0
M  V30 636 H 60.583 1.90824 2.31098 0
M  V30 637 H 58.144 1.13888 1.1507 0
M  V30 638 H 60.136 0.065699 4.04647 0
M  V30 639 H 58.706 -0.413806 3.09849 0
M  V30 640 H 57.926 2.05786 3.36223 0
M  V30 641 H 59.214 2.24619 4.56534 0
M  V30 642 H 58.612 -0.760062 5.60571 0
M  V30 643 H 57.169 -0.493366 6.4993 0
M  V30 644 N 60.6021 -1.18246 1.0419 0
M  V30 645 C 61.8481 -1.88536 0.747122 0
M  V30 646 C 62.1811 -1.80223 -0.723409 0
M  V30 647 O 61.4561 -1.20337 -1.52804 0
M  V30 648 C 61.7391 -3.38968 1.21544 0
M  V30 649 C 61.5921 -3.56084 2.74816 0
M  V30 650 C 62.9111 -4.32648 0.806482 0
M  V30 651 H 60.0301 -0.684619 0.272883 0
M  V30 652 H 62.6721 -1.39113 1.29413 0
M  V30 653 H 60.8221 -3.8119 0.750081 0
M  V30 654 H 62.4941 -3.22946 3.29399 0
M  V30 655 H 60.7371 -2.98699 3.14582 0
M  V30 656 H 61.4081 -4.61639 3.02644 0
M  V30 657 H 63.8841 -3.98211 1.20695 0
M  V30 658 H 62.7601 -5.36462 1.1619 0
M  V30 659 H 63.0211 -4.41146 -0.29029 0
M  V30 660 N 62.0802 -0.821533 -1.34494 0
M  V30 661 C 63.3082 -0.421884 -2.02553 0
M  V30 662 C 63.7232 0.971745 -1.61872 0
M  V30 663 O 63.0802 1.62864 -0.823496 0
M  V30 664 C 63.1312 -0.51285 -3.57844 0
M  V30 665 O 62.8522 -1.85155 -3.97051 0
M  V30 666 C 64.3532 -0.107921 -4.43169 0
M  V30 667 H 61.5732 -0.169482 -0.649243 0
M  V30 668 H 64.1172 -1.1093 -1.71798 0
M  V30 669 H 62.2722 0.126474 -3.87193 0
M  V30 670 H 62.6862 -1.82482 -4.91732 0
M  V30 671 H 64.1602 -0.222657 -5.51551 0
M  V30 672 H 64.6372 0.948401 -4.28838 0
M  V30 673 H 65.2432 -0.720989 -4.19144 0
M  V30 674 N 63.5583 1.46682 -0.576371 0
M  V30 675 C 64.9743 1.57822 -0.237562 0
M  V30 676 C 65.1743 1.57237 1.26011 0
M  V30 677 O 64.2303 1.48596 2.04146 0
M  V30 678 C 65.5433 2.87499 -0.881168 0
M  V30 679 C 67.0913 3.01119 -0.85417 0
M  V30 680 C 67.5663 4.33524 -1.4772 0
M  V30 681 N 69.0573 4.40207 -1.44125 0
M  V30 682 C 69.7923 5.4126 -1.89276 0
M  V30 683 N 69.2883 6.49021 -2.42371 0
M  V30 684 N 71.0813 5.32422 -1.80231 0
M  V30 685 H 63.2323 1.45306 -1.54919 0
M  V30 686 H 65.4953 0.692733 -0.647167 0
M  V30 687 H 65.2013 2.9372 -1.93447 0
M  V30 688 H 65.0753 3.75224 -0.385592 0
M  V30 689 H 67.4623 2.94485 0.190491 0
M  V30 690 H 67.5433 2.14887 -1.3877 0
M  V30 691 H 67.1873 4.40916 -2.52103 0
M  V30 692 H 67.1173 5.1852 -0.918947 0
M  V30 693 H 69.6083 3.62931 -1.05307 0
M  V30 694 H 69.9213 7.2233 -2.74698 0
M  V30 695 H 68.2663 6.49858 -2.46393 0
M  V30 696 H 71.4573 4.47137 -1.38514 0
M  V30 697 H 71.6303 6.11034 -2.15735 0
M  V30 698 N 65.0364 0.313813 1.54444 0
M  V30 699 C 66.3134 -0.345447 1.92525 0
M  V30 700 C 66.6934 -1.70667 1.24242 0
M  V30 701 O 66.0414 -2.25273 0.382654 0
M  V30 702 C 66.2514 -0.44737 3.46121 0
M  V30 703 C 67.5994 -0.712238 4.18584 0
M  V30 704 O 68.6234 -0.530678 3.52225 0
M  V30 705 O 67.4824 -1.06183 5.36085 0
M  V30 706 H 64.5764 -0.195407 0.803583 0
M  V30 707 H 67.1224 0.362813 1.65776 0
M  V30 708 H 65.8944 0.509043 3.87975 0
M  V30 709 H 65.5174 -1.20359 3.78945 0
M  V30 710 N 66.5145 -1.57545 0.0417849 0
M  V30 711 C 67.7625 -1.91937 -0.632829 0
M  V30 712 C 68.0835 -0.919978 -1.71934 0
M  V30 713 O 67.3535 0.0366064 -1.95866 0
M  V30 714 H 65.9335 -0.708493 -0.236742 0
M  V30 715 H 68.5955 -1.9468 0.0925745 0
M  V30 716 H 67.6915 -2.92912 -1.07746 0
M  V30 717 N 67.9926 0.231505 -1.5589 0
M  V30 718 C 69.2396 0.957352 -1.78441 0
M  V30 719 C 69.5676 1.84726 -0.60882 0
M  V30 720 O 68.8226 1.91416 0.40725 0
M  V30 721 C 69.1216 1.83577 -3.0665 0
M  V30 722 C 68.7876 1.09993 -4.37278 0
M  V30 723 C 67.4496 0.896629 -4.72773 0
M  V30 724 C 69.8016 0.579558 -5.17968 0
M  V30 725 C 67.1296 0.160896 -5.86479 0
M  V30 726 C 69.4816 -0.142783 -6.32439 0
M  V30 727 C 68.1456 -0.357427 -6.66542 0
M  V30 728 H 67.4156 0.35032 -0.65296 0
M  V30 729 H 70.0626 0.226259 -1.90159 0
M  V30 730 H 68.3676 2.63441 -2.90011 0
M  V30 731 H 70.0646 2.39934 -3.21298 0
M  V30 732 H 66.6546 1.26835 -4.09403 0
M  V30 733 H 70.8386 0.724125 -4.90989 0
M  V30 734 H 66.0946 -0.0157293 -6.11398 0
M  V30 735 H 70.2686 -0.553559 -6.94196 0
M  V30 736 H 67.8956 -0.929466 -7.54497 0
M  V30 737 N 69.4707 1.49531 0.497807 0
M  V30 738 C 70.4177 1.66436 1.59899 0
M  V30 739 C 71.3877 0.505793 1.58212 0
M  V30 740 O 72.5727 0.733202 1.7615 0
M  V30 741 C 69.7127 1.7399 2.98029 0
M  V30 742 C 68.8257 3.01172 3.09708 0
M  V30 743 C 67.9607 2.99686 4.38591 0
M  V30 744 C 66.9997 4.21434 4.43914 0
M  V30 745 N 66.1367 4.1784 5.64229 0
M  V30 746 H 70.9767 2.60459 1.44793 0
M  V30 747 H 68.5137 1.29137 0.704423 0
M  V30 748 H 70.4717 1.76352 3.78095 0
M  V30 749 H 69.1017 0.834301 3.11832 0
M  V30 750 H 68.1537 3.08408 2.22685 0
M  V30 751 H 69.4657 3.91165 3.09502 0
M  V30 752 H 68.6197 3.00628 5.2698 0
M  V30 753 H 67.3587 2.07477 4.41367 0
M  V30 754 H 66.3637 4.20733 3.53926 0
M  V30 755 H 67.5887 5.14839 4.42851 0
M  V30 756 H 65.5347 3.28469 5.67841 0
M  V30 757 H 65.4517 5.01571 5.65652 0
M  V30 758 H 66.7197 4.22889 6.54817 0
M  V30 759 N 70.9488 -0.749086 1.3866 0
M  V30 760 C 71.8788 -1.8764 1.38973 0
M  V30 761 C 72.8598 -1.68178 0.255004 0
M  V30 762 O 74.0448 -1.88704 0.458754 0
M  V30 763 C 71.1748 -3.25222 1.21851 0
M  V30 764 C 70.1288 -3.59295 2.32575 0
M  V30 765 C 69.4548 -4.95663 2.00555 0
M  V30 766 C 70.7548 -3.63709 3.7485 0
M  V30 767 H 72.4488 -1.87635 2.3331 0
M  V30 768 H 69.9948 -0.901329 1.12303 0
M  V30 769 H 71.9478 -4.03746 1.20695 0
M  V30 770 H 70.6718 -3.25719 0.239775 0
M  V30 771 H 69.3308 -2.83093 2.32925 0
M  V30 772 H 68.9788 -4.92724 1.01154 0
M  V30 773 H 68.6788 -5.19429 2.74714 0
M  V30 774 H 70.2028 -5.7656 2.01024 0
M  V30 775 H 71.6168 -4.32338 3.76506 0
M  V30 776 H 70.0138 -3.98986 4.48252 0
M  V30 777 H 71.0838 -2.63834 4.06841 0
M  V30 778 N 72.4269 -1.23603 -0.977757 0
M  V30 779 C 73.6729 -1.07129 -1.72195 0
M  V30 780 C 74.0059 0.390501 -1.90233 0
M  V30 781 O 73.2809 1.28902 -1.45653 0
M  V30 782 C 73.5639 -1.80031 -3.11867 0
M  V30 783 C 73.4169 -3.33899 -3.01383 0
M  V30 784 C 74.7359 -1.56492 -4.11337 0
M  V30 785 H 71.8549 -0.390571 -0.624999 0
M  V30 786 H 74.4969 -1.52142 -1.13811 0
M  V30 787 H 72.6469 -1.41768 -3.6171 0
M  V30 788 H 74.3189 -3.81699 -2.59043 0
M  V30 789 H 72.5619 -3.62796 -2.37827 0
M  V30 790 H 73.2329 -3.801 -4.00285 0
M  V30 791 H 75.7089 -1.89757 -3.70313 0
M  V30 792 H 74.5849 -2.09973 -5.07151 0
M  V30 793 H 74.8459 -0.500874 -4.39254 0
M  V30 794 N 73.905 1.17692 -1.04816 0
M  V30 795 C 74.838 2.20436 -0.590173 0
M  V30 796 C 75.816 1.58115 0.379244 0
M  V30 797 O 77 1.86228 0.291762 0
M  V30 798 C 74.127 3.38424 0.136817 0
M  V30 799 C 73.173 4.19176 -0.787023 0
M  V30 800 S 74.006 4.84815 -2.27409 0
M  V30 801 C 75.162 6.06195 -1.55817 0
M  V30 802 H 75.395 2.58944 -1.46067 0
M  V30 803 H 72.928 1.28246 -0.859784 0
M  V30 804 H 74.886 4.06798 0.550076 0
M  V30 805 H 73.547 2.98312 0.983299 0
M  V30 806 H 72.74 5.03499 -0.224681 0
M  V30 807 H 72.342 3.56219 -1.13947 0
M  V30 808 H 74.634 6.72078 -0.855387 0
M  V30 809 H 75.577 6.6695 -2.37873 0
M  V30 810 H 75.985 5.54701 -1.04722 0
M  V30 811 N 75.3831 0.828654 1.34056 0
M  V30 812 C 76.3461 0.259927 2.27721 0
M  V30 813 C 77.3461 -0.565478 1.50529 0
M  V30 814 O 78.5361 -0.38075 1.69988 0
M  V30 815 C 75.6681 -0.634944 3.34935 0
M  V30 816 H 76.8611 1.0863 2.79534 0
M  V30 817 H 74.4141 0.600951 1.44285 0
M  V30 818 H 75.1491 -1.48416 2.88346 0
M  V30 819 H 74.9341 -0.0444999 3.92075 0
M  V30 820 H 76.4241 -1.02648 4.04788 0
M  V30 821 N 76.8612 -1.46375 0.584142 0
M  V30 822 C 78.0862 -2.07268 0.0740405 0
M  V30 823 C 78.5112 -1.42979 -1.22223 0
M  V30 824 O 77.8692 -0.514092 -1.73859 0
M  V30 825 C 77.9172 -3.60518 -0.0767769 0
M  V30 826 O 77.0212 -3.96533 -1.13292 0
M  V30 827 H 76.3622 -0.660961 0.0634524 0
M  V30 828 H 78.8922 -1.87991 0.807492 0
M  V30 829 H 78.9022 -4.07021 -0.282489 0
M  V30 830 H 77.5772 -4.06702 0.86986 0
M  V30 831 H 76.1542 -3.61738 -0.905553 0
M  V30 832 N 78.3393 -0.321999 -1.54275 0
M  V30 833 C 79.2693 0.537411 -2.27231 0
M  V30 834 C 80.2503 1.12064 -1.27968 0
M  V30 835 O 81.4353 1.14606 -1.56777 0
M  V30 836 C 78.5653 1.69919 -3.02894 0
M  V30 837 C 77.5193 1.24534 -4.09482 0
M  V30 838 C 76.8453 2.49394 -4.72977 0
M  V30 839 C 78.1453 0.361335 -5.21049 0
M  V30 840 H 79.8393 -0.0711406 -2.99315 0
M  V30 841 H 77.3853 -0.0356555 -1.43956 0
M  V30 842 H 79.3383 2.30668 -3.52662 0
M  V30 843 H 78.0623 2.33431 -2.28424 0
M  V30 844 H 76.7213 0.660782 -3.60596 0
M  V30 845 H 76.3693 3.11265 -3.95124 0
M  V30 846 H 76.0693 2.19718 -5.44975 0
M  V30 847 H 77.5933 3.10908 -5.25517 0
M  V30 848 H 79.0073 0.875072 -5.66582 0
M  V30 849 H 77.4043 0.157428 -5.99893 0
M  V30 850 H 78.4743 -0.60822 -4.8107 0
M  V30 851 N 79.8174 1.5752 -0.0501392 0
M  V30 852 C 81.0474 1.96678 0.632573 0
M  V30 853 C 81.4554 0.926298 1.64974 0
M  V30 854 O 80.7984 -0.09802 1.83438 0
M  V30 855 C 80.8604 3.32068 1.37735 0
M  V30 856 C 80.5244 4.54076 0.516131 0
M  V30 857 C 81.5214 5.19445 -0.217357 0
M  V30 858 C 79.2064 5.00304 0.44736 0
M  V30 859 C 81.2004 6.29378 -1.00807 0
M  V30 860 C 78.8874 6.10114 -0.347038 0
M  V30 861 C 79.8854 6.74512 -1.07344 0
M  V30 862 O 79.5734 7.82211 -1.85477 0
M  V30 863 H 79.3054 0.652193 0.177821 0
M  V30 864 H 81.8594 2.05091 -0.112543 0
M  V30 865 H 80.0894 3.20206 2.16807 0
M  V30 866 H 81.7784 3.55981 1.95019 0
M  V30 867 H 82.5444 4.84689 -0.173688 0
M  V30 868 H 78.4234 4.49971 1.00235 0
M  V30 869 H 81.9674 6.79575 -1.57556 0
M  V30 870 H 77.8644 6.44307 -0.392349 0
M  V30 871 H 78.6324 7.98982 -1.77678 0
M  V30 872 N 81.2955 -0.223234 1.56011 0
M  V30 873 C 82.2455 -1.28008 1.88674 0
M  V30 874 C 83.2295 -1.42369 0.749663 0
M  V30 875 O 84.4215 -1.45212 1.01205 0
M  V30 876 C 81.5505 -2.63084 2.20548 0
M  V30 877 C 80.6365 -2.52632 3.40643 0
M  V30 878 N 81.0275 -2.11829 4.59306 0
M  V30 879 C 79.3255 -2.83594 3.44224 0
M  V30 880 C 80.0265 -2.12587 5.41463 0
M  V30 881 N 79.0025 -2.5301 4.81131 0
M  V30 882 H 82.8045 -0.955487 2.77935 0
M  V30 883 H 80.3185 -0.431801 1.56554 0
M  V30 884 H 82.3155 -3.39385 2.42122 0
M  V30 885 H 80.9755 -2.96391 1.32599 0
M  V30 886 H 81.9865 -1.82988 4.84496 0
M  V30 887 H 78.6635 -3.21284 2.66614 0
M  V30 888 H 80.0535 -1.83179 6.46448 0
M  V30 889 N 82.7736 -1.49793 -0.48987 0
M  V30 890 C 84.0226 -1.59085 -1.23995 0
M  V30 891 C 84.3356 -0.287907 -1.9347 0
M  V30 892 O 85.5416 -0.259506 -2.70257 0
M  V30 893 C 83.9976 -2.80736 -2.252 0
M  V30 894 C 83.6056 -4.17833 -1.61614 0
M  V30 895 C 85.3496 -2.99364 -3.00967 0
M  V30 896 C 83.2566 -5.30693 -2.60996 0
M  V30 897 H 82.1866 -0.592372 -0.466488 0
M  V30 898 H 84.8376 -1.76197 -0.51252 0
M  V30 899 H 83.2196 -2.57142 -3.01154 0
M  V30 900 H 84.3936 -4.51608 -0.915774 0
M  V30 901 H 82.7086 -4.04656 -0.981977 0
M  V30 902 H 85.3056 -3.80851 -3.75308 0
M  V30 903 H 85.6486 -2.10356 -3.59244 0
M  V30 904 H 86.1816 -3.2305 -2.32128 0
M  V30 905 H 82.9206 -6.21796 -2.07485 0
M  V30 906 H 82.4406 -5.01359 -3.2924 0
M  V30 907 H 84.1196 -5.6049 -3.23202 0
M  V30 908 N 84.2517 0.741722 -1.39055 0
M  V30 909 C 85.4817 1.52876 -1.3897 0
M  V30 910 C 85.8897 1.8919 0.0193266 0
M  V30 911 O 85.2327 1.54138 0.999356 0
M  V30 912 C 85.2947 2.84929 -2.19216 0
M  V30 913 C 84.9587 2.71086 -3.67915 0
M  V30 914 C 85.9557 2.40084 -4.61146 0
M  V30 915 C 83.6407 2.88168 -4.11418 0
M  V30 916 C 85.6347 2.26335 -5.95862 0
M  V30 917 C 83.3217 2.74037 -5.46211 0
M  V30 918 C 84.3197 2.43166 -6.38247 0
M  V30 919 O 84.0077 2.29115 -7.70559 0
M  V30 920 H 83.7397 0.479252 -0.476753 0
M  V30 921 H 86.2937 0.924751 -1.83405 0
M  V30 922 H 84.5237 3.47564 -1.69518 0
M  V30 923 H 86.2127 3.46509 -2.11392 0
M  V30 924 H 86.9787 2.26545 -4.28838 0
M  V30 925 H 82.8577 3.11191 -3.40119 0
M  V30 926 H 86.4017 2.0216 -6.67665 0
M  V30 927 H 82.2987 2.87153 -5.78112 0
M  V30 928 H 83.0667 2.44237 -7.81211 0
M  V30 929 N 85.7298 1.2412 0.971189 0
M  V30 930 C 86.9758 1.08041 1.71625 0
M  V30 931 C 87.3088 -0.380407 1.90438 0
M  V30 932 O 86.5838 -1.28127 1.46334 0
M  V30 933 C 86.8668 1.81682 3.10908 0
M  V30 934 C 86.7198 3.35493 2.99608 0
M  V30 935 C 88.0388 1.58671 4.10501 0
M  V30 936 H 85.1578 0.39388 0.622919 0
M  V30 937 H 87.7998 1.52743 1.13003 0
M  V30 938 H 85.9498 1.43684 3.60953 0
M  V30 939 H 87.6218 3.83068 2.57015 0
M  V30 940 H 85.8648 3.64052 2.35899 0
M  V30 941 H 86.5358 3.82217 3.98264 0
M  V30 942 H 89.0118 1.91719 3.69301 0
M  V30 943 H 87.8878 2.1266 5.06031 0
M  V30 944 H 88.1488 0.524161 4.38982 0
M  V30 945 N 87.2079 -1.17134 1.05439 0
M  V30 946 C 88.1709 -2.19439 0.661764 0
M  V30 947 C 89.1709 -1.58199 -0.288042 0
M  V30 948 O 90.3609 -1.74053 -0.0715803 0
M  V30 949 C 87.4929 -3.40889 -0.0276209 0
M  V30 950 H 88.6859 -2.55688 1.56728 0
M  V30 951 H 86.2389 -1.31259 0.848567 0
M  V30 952 H 86.9739 -3.10187 -0.94629 0
M  V30 953 H 86.7589 -3.86586 0.655238 0
M  V30 954 H 88.2489 -4.16603 -0.288342 0
M  V30 955 N 88.686 -0.835752 -1.33615 0
M  V30 956 C 89.616 -0.281739 -2.31794 0
M  V30 957 C 90.597 0.608833 -1.58831 0
M  V30 958 O 91.782 0.533035 -1.86741 0
M  V30 959 C 88.912 0.546612 -3.42971 0
M  V30 960 C 87.866 -0.247904 -4.27281 0
M  V30 961 C 87.192 0.704001 -5.30045 0
M  V30 962 C 88.492 -1.46324 -5.01385 0
M  V30 963 H 90.186 -1.10206 -2.78379 0
M  V30 964 H 87.732 -0.531388 -1.33837 0
M  V30 965 H 89.685 0.944467 -4.1068 0
M  V30 966 H 88.409 1.40011 -2.95067 0
M  V30 967 H 87.068 -0.627281 -3.61194 0
M  V30 968 H 86.716 1.55381 -4.78399 0
M  V30 969 H 86.416 0.176524 -5.87335 0
M  V30 970 H 87.94 1.09944 -6.0062 0
M  V30 971 H 89.354 -1.13871 -5.61877 0
M  V30 972 H 87.751 -1.92728 -5.6831 0
M  V30 973 H 88.821 -2.23467 -4.30338 0
M  V30 974 N 90.1641 1.46063 -0.591896 0
M  V30 975 C 91.0741 2.34192 0.13831 0
M  V30 976 C 92.0901 1.50305 0.876608 0
M  V30 977 O 93.2661 1.8315 0.837728 0
M  V30 978 C 90.3311 3.27656 1.13326 0
M  V30 979 C 89.3921 4.27445 0.39863 0
M  V30 980 C 88.6251 5.16443 1.34618 0
M  V30 981 O 88.8481 5.08553 2.58321 0
M  V30 982 O 87.7821 5.95843 0.851768 0
M  V30 983 H 91.6081 2.98002 -0.58552 0
M  V30 984 H 89.1931 1.45188 -0.352239 0
M  V30 985 H 91.0751 3.85291 1.70671 0
M  V30 986 H 89.7501 2.6643 1.83839 0
M  V30 987 H 88.6571 3.73471 -0.216895 0
M  V30 988 H 89.9901 4.91482 -0.265709 0
M  V30 989 N 91.6422 0.330177 1.54103 0
M  V30 990 C 92.5522 -0.541534 2.28264 0
M  V30 991 C 93.5682 -1.12351 1.32866 0
M  V30 992 O 94.7442 -1.14206 1.65888 0
M  V30 993 C 91.8092 -1.68322 3.03098 0
M  V30 994 C 90.8702 -1.13238 4.14096 0
M  V30 995 C 90.1032 -2.21966 4.85352 0
M  V30 996 O 90.3262 -3.42437 4.56172 0
M  V30 997 O 89.2602 -1.87013 5.7211 0
M  V30 998 H 93.0862 0.060938 3.03639 0
M  V30 999 H 90.6712 0.09565 1.49093 0
M  V30 1000 H 92.5532 -2.34777 3.49939 0
M  V30 1001 H 91.2282 -2.27176 2.30593 0
M  V30 1002 H 90.1352 -0.432736 3.71589 0
M  V30 1003 H 91.4682 -0.588898 4.88664 0
M  V30 1004 N 93.1203 -1.57491 0.0584922 0
M  V30 1005 C 94.0303 -2.15448 -0.928414 0
M  V30 1006 C 95.0463 -1.11416 -1.3365 0
M  V30 1007 O 96.2223 -1.4362 -1.41193 0
M  V30 1008 C 93.2873 -2.69393 -2.18239 0
M  V30 1009 C 92.3483 -3.88249 -1.83196 0
M  V30 1010 C 91.5813 -4.39613 -3.02616 0
M  V30 1011 O 91.8043 -3.90023 -4.16219 0
M  V30 1012 O 90.7383 -5.31111 -2.83204 0
M  V30 1013 H 94.5643 -3.00112 -0.465483 0
M  V30 1014 H 92.1493 -1.48499 -0.163826 0
M  V30 1015 H 94.0313 -3.04026 -2.91798 0
M  V30 1016 H 92.7063 -1.87796 -2.63656 0
M  V30 1017 H 91.6133 -3.58492 -1.06931 0
M  V30 1018 H 92.9463 -4.71098 -1.42573 0
M  V30 1019 N 94.5984 0.214957 -1.56127 0
M  V30 1020 C 95.8474 0.936451 -1.78643 0
M  V30 1021 C 96.1604 1.85237 -0.628229 0
M  V30 1022 O 97.3664 2.613 -0.737186 0
M  V30 1023 C 95.8224 1.7154 -3.16389 0
M  V30 1024 C 95.4304 0.845299 -4.39953 0
M  V30 1025 C 97.1744 2.42772 -3.48227 0
M  V30 1026 C 95.0814 1.62198 -5.68723 0
M  V30 1027 H 94.0114 0.353401 -0.666051 0
M  V30 1028 H 96.6624 0.190169 -1.82512 0
M  V30 1029 H 95.0444 2.50484 -3.06715 0
M  V30 1030 H 96.2184 0.0959353 -4.607 0
M  V30 1031 H 94.5334 0.244789 -4.1568 0
M  V30 1032 H 97.1304 3.01394 -4.41663 0
M  V30 1033 H 97.4734 3.15984 -2.71035 0
M  V30 1034 H 98.0064 1.70813 -3.5926 0
M  V30 1035 H 94.7454 0.933011 -6.48826 0
M  V30 1036 H 94.2654 2.34579 -5.52026 0
M  V30 1037 H 95.9444 2.18095 -6.09133 0
M  V30 1038 N 96.0765 1.50051 0.48192 0
M  V30 1039 C 96.9865 1.7089 1.60728 0
M  V30 1040 C 98.0025 0.591788 1.63627 0
M  V30 1041 O 99.1785 0.868817 1.81696 0
M  V30 1042 C 96.2435 1.78855 2.97005 0
M  V30 1043 C 95.3045 3.02537 3.04581 0
M  V30 1044 C 94.5375 3.10112 4.34357 0
M  V30 1045 O 94.7605 2.24765 5.24249 0
M  V30 1046 O 93.6945 4.02747 4.47301 0
M  V30 1047 H 97.5205 2.66264 1.46072 0
M  V30 1048 H 95.1055 1.34018 0.660264 0
M  V30 1049 H 96.9875 1.86336 3.77964 0
M  V30 1050 H 95.6625 0.866628 3.11883 0
M  V30 1051 H 94.5695 3.00563 2.22739 0
M  V30 1052 H 95.9025 3.94272 2.94636 0
M  V30 1053 N 97.5546 -0.734337 1.39446 0
M  V30 1054 C 98.9706 -1.03997 1.21065 0
M  V30 1055 C 99.1706 -2.01369 0.0727019 0
M  V30 1056 O 98.2266 -2.45856 -0.575426 0
M  V30 1057 C 99.5396 -1.60163 2.54496 0
M  V30 1058 C 101.088 -1.7224 2.61347 0
M  V30 1059 C 101.563 -2.31814 3.95002 0
M  V30 1060 N 103.054 -2.39223 3.96644 0
M  V30 1061 C 103.789 -2.86258 4.96834 0
M  V30 1062 N 103.285 -3.33184 6.07421 0
M  V30 1063 N 105.078 -2.85473 4.84213 0
M  V30 1064 H 97.2286 -0.0885624 2.12215 0
M  V30 1065 H 99.4916 -0.10191 0.942506 0
M  V30 1066 H 99.1976 -0.960811 3.38321 0
M  V30 1067 H 99.0716 -2.5896 2.74262 0
M  V30 1068 H 101.459 -2.35443 1.77906 0
M  V30 1069 H 101.54 -0.720939 2.4543 0
M  V30 1070 H 101.184 -1.69238 4.78875 0
M  V30 1071 H 101.114 -3.32638 4.08239 0
M  V30 1072 H 103.605 -2.06057 3.16779 0
M  V30 1073 H 103.918 -3.67586 6.7978 0
M  V30 1074 H 102.263 -3.31191 6.11013 0
M  V30 1075 H 105.454 -2.48136 3.96921 0
M  V30 1076 H 105.627 -3.21814 5.62441 0
M  V30 1077 N 99.0327 -1.24633 -0.964593 0
M  V30 1078 C 99.9807 -1.03917 -2.08096 0
M  V30 1079 C 100.975 0.0268581 -1.69379 0
M  V30 1080 O 102.181 -0.127952 -1.79545 0
M  V30 1081 H 98.5557 -0.319044 -0.680966 0
M  V30 1082 H 100.527 -1.98581 -2.22729 0
M  V30 1083 C 99.2757 -0.663983 -3.41301 0
M  V30 1084 H 98.5987 -1.47605 -3.71555 0
M  V30 1085 H 100.039 -0.558663 -4.20303 0
M  V30 1086 C 98.4977 0.629169 -3.30973 0
M  V30 1087 O 99.0277 1.67404 -3.65156 0
M  V30 1088 N 97.2337 0.611057 -2.84103 0
M  V30 1089 H 96.7807 -0.239593 -2.56483 0
M  V30 1090 H 96.7387 1.47647 -2.77575 0
M  V30 1091 N 100.511 1.16574 -1.06058 0
M  V30 1092 C 101.458 2.20883 -0.669263 0
M  V30 1093 C 102.428 1.62729 0.332918 0
M  V30 1094 O 103.613 1.895 0.222346 0
M  V30 1095 C 100.753 3.45049 -0.0593572 0
M  V30 1096 C 99.8658 4.17458 -1.11143 0
M  V30 1097 C 99.0008 5.29135 -0.467916 0
M  V30 1098 C 98.0398 5.93343 -1.50369 0
M  V30 1099 N 97.1768 6.96516 -0.883706 0
M  V30 1100 H 102.017 2.53709 -1.5632 0
M  V30 1101 H 99.5538 1.24616 -0.781625 0
M  V30 1102 H 101.512 4.16033 0.311771 0
M  V30 1103 H 100.142 3.12781 0.797992 0
M  V30 1104 H 99.1938 3.45101 -1.60029 0
M  V30 1105 H 100.506 4.61307 -1.89731 0
M  V30 1106 H 99.6598 6.06684 -0.0436871 0
M  V30 1107 H 98.3988 4.86443 0.349864 0
M  V30 1108 H 97.4038 5.14517 -1.93784 0
M  V30 1109 H 98.6288 6.38114 -2.32352 0
M  V30 1110 H 96.5748 6.55943 -0.086595 0
M  V30 1111 H 96.4918 7.38723 -1.607 0
M  V30 1112 H 97.7598 7.77993 -0.484543 0
M  V30 1113 N 101.989 0.842826 1.3317 0
M  V30 1114 C 102.899 0.281444 2.32906 0
M  V30 1115 C 103.915 -0.594587 1.63526 0
M  V30 1116 O 105.091 -0.49777 1.95152 0
M  V30 1117 C 102.156 -0.530929 3.42611 0
M  V30 1118 C 101.217 0.369843 4.27704 0
M  V30 1119 C 100.45 -0.403853 5.3217 0
M  V30 1120 O 100.673 -1.63513 5.46461 0
M  V30 1121 O 99.6069 0.224199 6.01482 0
M  V30 1122 H 103.433 1.10744 2.82789 0
M  V30 1123 H 101.018 0.60545 1.36582 0
M  V30 1124 H 102.9 -0.992437 4.09547 0
M  V30 1125 H 101.575 -1.33392 2.94938 0
M  V30 1126 H 100.482 0.879275 3.6362 0
M  V30 1127 H 101.815 1.13771 4.78871 0
M  V30 1128 N 103.467 -1.45747 0.599634 0
M  V30 1129 C 104.692 -2.07178 0.0960198 0
M  V30 1130 C 105.117 -1.44268 -1.207 0
M  V30 1131 O 104.475 -0.532503 -1.73303 0
M  V30 1132 C 104.523 -3.60579 -0.0385348 0
M  V30 1133 O 103.627 -3.97713 -1.0908 0
M  V30 1134 H 102.968 -0.660251 0.0704593 0
M  V30 1135 H 105.498 -1.87124 0.827385 0
M  V30 1136 H 105.508 -4.07298 -0.239304 0
M  V30 1137 H 104.183 -4.05756 0.912947 0
M  V30 1138 H 102.76 -3.62678 -0.867135 0
M  V30 1139 N 104.945 -0.338344 -1.53925 0
M  V30 1140 C 106.356 0.146651 -1.86123 0
M  V30 1141 C 106.707 1.5042 -1.2597 0
M  V30 1142 O 105.832 2.08723 -0.571294 0
M  V30 1143 C 106.427 0.272879 -3.37699 0
M  V30 1144 C 104.986 0.702103 -3.69794 0
M  V30 1145 C 104.133 -0.167304 -2.76795 0
M  V30 1146 H 107.084 -0.558123 -1.48562 0
M  V30 1147 H 107.105 1.10128 -3.64214 0
M  V30 1148 H 106.617 -0.715307 -3.81451 0
M  V30 1149 H 104.718 1.6995 -3.31584 0
M  V30 1150 H 104.831 0.495604 -4.7653 0
M  V30 1151 H 103.195 0.359527 -2.5215 0
M  V30 1152 H 103.978 -1.15253 -3.23375 0
M  V30 1153 N 106.423 1.57458 -0.0668435 0
M  V30 1154 C 107.669 1.93587 0.6043 0
M  V30 1155 C 108.002 0.946722 1.69561 0
M  V30 1156 O 107.277 -0.0248516 1.94484 0
M  V30 1157 C 107.56 3.40014 1.18585 0
M  V30 1158 C 107.413 4.49685 0.101529 0
M  V30 1159 C 108.732 3.87154 2.09284 0
M  V30 1160 H 105.851 0.703958 0.218202 0
M  V30 1161 H 108.493 1.89542 -0.131804 0
M  V30 1162 H 106.643 3.43592 1.81319 0
M  V30 1163 H 108.315 4.5823 -0.531279 0
M  V30 1164 H 106.558 4.30059 -0.568487 0
M  V30 1165 H 107.229 5.49266 0.54874 0
M  V30 1166 H 109.705 3.85551 1.56491 0
M  V30 1167 H 108.581 4.90231 2.46911 0
M  V30 1168 H 108.842 3.2481 2.99918 0
M  V30 1169 N 107.901 -0.206675 1.56239 0
M  V30 1170 C 109.148 -0.928842 1.79941 0
M  V30 1171 C 109.476 -1.83734 0.638131 0
M  V30 1172 O 108.731 -1.92039 -0.376746 0
M  V30 1173 C 109.03 -1.78675 3.09532 0
M  V30 1174 C 108.696 -1.03022 4.38973 0
M  V30 1175 C 107.358 -0.821302 4.74139 0
M  V30 1176 C 109.71 -0.497081 5.18824 0
M  V30 1177 C 107.038 -0.0675719 5.86661 0
M  V30 1178 C 109.39 0.24338 6.32132 0
M  V30 1179 C 108.054 0.463422 6.65889 0
M  V30 1180 H 107.324 -0.339887 0.658451 0
M  V30 1181 H 109.971 -0.195977 1.90495 0
M  V30 1182 H 108.276 -2.58794 2.94165 0
M  V30 1183 H 109.973 -2.34792 3.25075 0
M  V30 1184 H 106.563 -1.20306 4.11369 0
M  V30 1185 H 110.747 -0.645921 4.92079 0
M  V30 1186 H 106.003 0.112995 6.11296 0
M  V30 1187 H 110.177 0.66393 6.93228 0
M  V30 1188 H 107.804 1.04938 7.52922 0
M  V30 1189 N 109.379 -1.50304 -0.473955 0
M  V30 1190 C 110.342 -1.6841 -1.55469 0
M  V30 1191 C 111.342 -0.554905 -1.50922 0
M  V30 1192 O 112.532 -0.821882 -1.53593 0
M  V30 1193 C 109.664 -1.70667 -2.95102 0
M  V30 1194 H 110.857 -2.64828 -1.40733 0
M  V30 1195 H 108.41 -1.39742 -0.700132 0
M  V30 1196 H 109.145 -0.75932 -3.15285 0
M  V30 1197 H 108.93 -2.52698 -2.9981 0
M  V30 1198 H 110.42 -1.8664 -3.73571 0
M  V30 1199 N 110.857 0.726932 -1.39834 0
M  V30 1200 C 112.268 1.30558 -1.3346 0
M  V30 1201 C 112.619 1.962 -0.00273003 0
M  V30 1202 O 111.744 1.96826 0.899371 0
M  V30 1203 C 112.339 2.37404 -2.41713 0
M  V30 1204 C 110.898 2.90921 -2.38835 0
M  V30 1205 C 110.045 1.64578 -2.2318 0
M  V30 1206 H 112.996 0.523862 -1.49804 0
M  V30 1207 H 113.017 3.17984 -2.08966 0
M  V30 1208 H 112.529 1.89599 -3.38635 0
M  V30 1209 H 110.63 3.42985 -1.45575 0
M  V30 1210 H 110.743 3.43487 -3.33997 0
M  V30 1211 H 109.107 1.89219 -1.70494 0
M  V30 1212 H 109.89 1.18814 -3.22084 0
M  V30 1213 N 112.336 1.25143 0.95797 0
M  V30 1214 C 113.582 1.09855 1.70469 0
M  V30 1215 C 113.915 -0.360187 1.90831 0
M  V30 1216 O 113.19 -1.26568 1.47685 0
M  V30 1217 C 113.473 1.8497 3.08963 0
M  V30 1218 C 113.326 3.38652 2.96032 0
M  V30 1219 C 114.645 1.63016 4.08795 0
M  V30 1220 H 111.764 0.400465 0.618706 0
M  V30 1221 H 114.406 1.53933 1.11376 0
M  V30 1222 H 112.556 1.47505 3.59409 0
M  V30 1223 H 114.228 3.85772 2.52938 0
M  V30 1224 H 112.471 3.66534 2.32025 0
M  V30 1225 H 113.142 3.8642 3.94187 0
M  V30 1226 H 115.618 1.95625 3.67247 0
M  V30 1227 H 114.494 2.18015 5.03747 0
M  V30 1228 H 114.755 0.570692 4.38401 0
M  V30 1229 N 113.814 -1.1601 1.06675 0
M  V30 1230 C 115.044 -1.90251 0.805497 0
M  V30 1231 C 115.452 -1.77891 -0.64431 0
M  V30 1232 O 114.795 -1.12383 -1.45313 0
M  V30 1233 C 114.857 -3.41419 1.12576 0
M  V30 1234 C 114.521 -3.77564 2.57477 0
M  V30 1235 C 115.518 -3.79161 3.55715 0
M  V30 1236 C 113.203 -4.08079 2.92877 0
M  V30 1237 C 115.197 -4.10767 4.8739 0
M  V30 1238 C 112.884 -4.39351 4.24751 0
M  V30 1239 C 113.882 -4.40675 5.21818 0
M  V30 1240 O 113.57 -4.71202 6.51325 0
M  V30 1241 H 113.302 -0.610018 0.291297 0
M  V30 1242 H 115.856 -1.47958 1.4247 0
M  V30 1243 H 114.086 -3.84079 0.449503 0
M  V30 1244 H 115.775 -3.9694 0.84814 0
M  V30 1245 H 116.541 -3.55693 3.29708 0
M  V30 1246 H 112.42 -4.06211 2.17976 0
M  V30 1247 H 115.964 -4.11715 5.63148 0
M  V30 1248 H 111.861 -4.62285 4.50514 0
M  V30 1249 H 112.629 -4.88996 6.56373 0
M  V30 1250 N 115.292 -0.849877 -1.32721 0
M  V30 1251 C 116.539 -0.450923 -1.97416 0
M  V30 1252 C 116.867 0.992376 -1.67279 0
M  V30 1253 O 116.122 1.71048 -0.950845 0
M  V30 1254 C 116.421 -0.631272 -3.51781 0
M  V30 1255 C 116.087 -2.04432 -4.01894 0
M  V30 1256 C 114.749 -2.4308 -4.1529 0
M  V30 1257 C 117.101 -2.96679 -4.28522 0
M  V30 1258 C 114.429 -3.73257 -4.52654 0
M  V30 1259 C 116.781 -4.26349 -4.67343 0
M  V30 1260 C 115.445 -4.64939 -4.78945 0
M  V30 1261 H 114.715 -0.165004 -0.722395 0
M  V30 1262 H 117.362 -1.07901 -1.58207 0
M  V30 1263 H 115.667 0.0800767 -3.91718 0
M  V30 1264 H 117.364 -0.302709 -3.99856 0
M  V30 1265 H 113.954 -1.73419 -3.91949 0
M  V30 1266 H 118.138 -2.68054 -4.17685 0
M  V30 1267 H 113.394 -4.02946 -4.59831 0
M  V30 1268 H 117.568 -4.97895 -4.86902 0
M  V30 1269 H 115.195 -5.65855 -5.07654 0
M  V30 1270 N 116.77 1.45427 -0.607355 0
M  V30 1271 C 118.181 1.85756 -0.187535 0
M  V30 1272 C 118.532 1.5077 1.25551 0
M  V30 1273 O 117.657 0.93427 1.95193 0
M  V30 1274 C 118.252 3.37154 -0.333572 0
M  V30 1275 C 116.811 3.76387 0.0315542 0
M  V30 1276 C 115.958 2.69377 -0.658117 0
M  V30 1277 H 118.909 1.36231 -0.81405 0
M  V30 1278 H 118.93 3.78014 0.43428 0
M  V30 1279 H 118.442 3.62586 -1.38393 0
M  V30 1280 H 116.543 3.56571 1.0811 0
M  V30 1281 H 116.656 4.77731 -0.361935 0
M  V30 1282 H 115.02 2.5452 -0.0957873 0
M  V30 1283 H 115.803 2.97646 -1.7106 0
M  V30 1284 N 118.248 0.346503 1.53744 0
M  V30 1285 C 119.158 -0.517293 2.28826 0
M  V30 1286 C 120.174 -1.10935 1.3405 0
M  V30 1287 O 121.35 -1.1244 1.6709 0
M  V30 1288 C 118.415 -1.65098 3.04866 0
M  V30 1289 C 117.476 -1.0884 4.15274 0
M  V30 1290 C 116.709 -2.16806 4.87679 0
M  V30 1291 O 116.932 -3.3758 4.59778 0
M  V30 1292 O 115.866 -1.80934 5.74061 0
M  V30 1293 H 119.692 0.0931396 3.03557 0
M  V30 1294 H 117.277 0.111458 1.48984 0
M  V30 1295 H 119.159 -2.31053 3.5241 0
M  V30 1296 H 117.834 -2.24717 2.32989 0
M  V30 1297 H 116.741 -0.3933 3.72027 0
M  V30 1298 H 118.074 -0.537036 4.89261 0
M  V30 1299 N 119.726 -1.57421 0.075193 0
M  V30 1300 C 120.636 -2.1642 -0.905511 0
M  V30 1301 C 121.652 -1.12828 -1.32461 0
M  V30 1302 O 122.828 -1.45109 -1.39661 0
M  V30 1303 C 119.893 -2.71693 -2.15369 0
M  V30 1304 C 118.954 -3.90171 -1.79068 0
M  V30 1305 C 118.187 -4.42798 -2.97936 0
M  V30 1306 O 118.41 -3.94416 -4.12058 0
M  V30 1307 O 117.344 -5.34085 -2.77555 0
M  V30 1308 H 121.17 -3.00588 -0.433626 0
M  V30 1309 H 118.755 -1.48664 -0.148067 0
M  V30 1310 H 120.637 -3.07104 -2.88557 0
M  V30 1311 H 119.312 -1.90582 -2.61649 0
M  V30 1312 H 118.219 -3.59606 -1.03122 0
M  V30 1313 H 119.552 -4.72584 -1.37569 0
M  V30 1314 N 121.204 0.198386 -1.56346 0
M  V30 1315 C 122.134 1.24865 -1.9731 0
M  V30 1316 C 123.115 1.47651 -0.844576 0
M  V30 1317 O 124.3 1.59444 -1.10866 0
M  V30 1318 C 121.43 2.59358 -2.30977 0
M  V30 1319 C 120.384 2.5119 -3.46537 0
M  V30 1320 C 119.71 3.89926 -3.65871 0
M  V30 1321 C 121.01 2.03977 -4.80823 0
M  V30 1322 H 122.704 0.908252 -2.85291 0
M  V30 1323 H 120.25 0.435462 -1.37258 0
M  V30 1324 H 122.203 3.33011 -2.58228 0
M  V30 1325 H 120.927 2.95132 -1.39874 0
M  V30 1326 H 119.586 1.79993 -3.19371 0
M  V30 1327 H 119.234 4.23046 -2.72105 0
M  V30 1328 H 118.934 3.85336 -4.4361 0
M  V30 1329 H 120.458 4.65205 -3.95495 0
M  V30 1330 H 121.872 2.67386 -5.07127 0
M  V30 1331 H 120.269 2.10397 -5.62008 0
M  V30 1332 H 121.339 0.992861 -4.74626 0
M  V30 1333 N 122.682 1.50554 0.465978 0
M  V30 1334 C 123.632 1.66177 1.56106 0
M  V30 1335 C 124.616 0.516265 1.52393 0
M  V30 1336 O 125.808 0.770906 1.5933 0
M  V30 1337 C 122.937 1.76396 2.94515 0
M  V30 1338 C 122.023 2.9664 3.03093 0
M  V30 1339 N 122.414 4.20245 2.81474 0
M  V30 1340 C 120.712 2.95304 3.34233 0
M  V30 1341 C 121.413 5.01259 2.95151 0
M  V30 1342 N 120.389 4.35318 3.25576 0
M  V30 1343 H 124.191 2.59434 1.38099 0
M  V30 1344 H 121.705 1.47808 0.6728 0
M  V30 1345 H 123.702 1.85694 3.73261 0
M  V30 1346 H 122.362 0.843017 3.13565 0
M  V30 1347 H 123.373 4.4966 2.56956 0
M  V30 1348 H 120.05 2.12729 3.59239 0
M  V30 1349 H 121.44 6.09564 2.82632 0
M  V30 1350 N 124.16 -0.719506 1.40217 0
M  V30 1351 C 125.576 -1.02707 1.22161 0
M  V30 1352 C 125.776 -2.0128 0.0940557 0
M  V30 1353 O 124.832 -2.46452 -0.549318 0
M  V30 1354 C 126.145 -1.57454 2.56181 0
M  V30 1355 C 127.693 -1.69458 2.63159 0
M  V30 1356 C 128.168 -2.27611 3.97438 0
M  V30 1357 N 129.659 -2.35002 3.99159 0
M  V30 1358 C 130.394 -2.80972 4.99842 0
M  V30 1359 N 129.89 -3.26723 6.10921 0
M  V30 1360 N 131.683 -2.80321 4.87213 0
M  V30 1361 H 123.834 -0.0660492 2.12297 0
M  V30 1362 H 126.097 -0.0919077 0.943534 0
M  V30 1363 H 125.803 -0.924873 3.39321 0
M  V30 1364 H 125.677 -2.56036 2.76993 0
M  V30 1365 H 128.064 -2.33543 1.80393 0
M  V30 1366 H 128.145 -0.694867 2.46181 0
M  V30 1367 H 127.789 -1.6415 4.80643 0
M  V30 1368 H 127.719 -3.2829 4.11744 0
M  V30 1369 H 130.21 -2.02685 3.18947 0
M  V30 1370 H 130.523 -3.60355 6.8364 0
M  V30 1371 H 128.868 -3.24692 6.14492 0
M  V30 1372 H 132.059 -2.43912 3.9953 0
M  V30 1373 H 132.232 -3.15831 5.65822 0
M  V30 1374 N 125.638 -1.25649 -0.95132 0
M  V30 1375 C 126.585 -1.06323 -2.04851 0
M  V30 1376 C 127.555 0.0286491 -1.66075 0
M  V30 1377 O 128.74 -0.12917 -1.90362 0
M  V30 1378 C 125.88 -0.691529 -3.381 0
M  V30 1379 C 124.993 -1.85861 -3.89974 0
M  V30 1380 C 124.128 -1.43096 -5.11563 0
M  V30 1381 C 123.167 -2.56696 -5.55674 0
M  V30 1382 N 122.304 -2.14684 -6.68472 0
M  V30 1383 H 127.144 -2.00222 -2.20715 0
M  V30 1384 H 124.681 -0.997027 -1.08156 0
M  V30 1385 H 126.639 -0.456963 -4.1469 0
M  V30 1386 H 125.269 0.210474 -3.22113 0
M  V30 1387 H 124.321 -2.20639 -3.09875 0
M  V30 1388 H 125.633 -2.71161 -4.18657 0
M  V30 1389 H 124.787 -1.15624 -5.9558 0
M  V30 1390 H 123.526 -0.548722 -4.84603 0
M  V30 1391 H 122.531 -2.84909 -4.7022 0
M  V30 1392 H 123.756 -3.45503 -5.8464 0
M  V30 1393 H 121.702 -1.28881 -6.43215 0
M  V30 1394 H 121.619 -2.9353 -6.96689 0
M  V30 1395 H 122.887 -1.90397 -7.5589 0
M  V30 1396 N 127.117 1.15442 -1.07289 0
M  V30 1397 C 128.08 2.18358 -0.696591 0
M  V30 1398 C 129.08 1.58637 0.262837 0
M  V30 1399 O 130.27 1.74145 0.0438809 0
M  V30 1400 C 127.402 3.4089 -0.0266151 0
M  V30 1401 H 128.595 2.53162 -1.60776 0
M  V30 1402 H 126.148 1.29893 -0.869342 0
M  V30 1403 H 126.883 3.11653 0.896822 0
M  V30 1404 H 126.668 3.85495 -0.716657 0
M  V30 1405 H 128.158 4.17009 0.222028 0
M  V30 1406 N 128.595 0.856903 1.32268 0
M  V30 1407 C 129.558 0.308171 2.27119 0
M  V30 1408 C 130.558 -0.533421 1.51695 0
M  V30 1409 O 131.748 -0.344607 1.70757 0
M  V30 1410 C 128.88 -0.563757 3.36206 0
M  V30 1411 H 130.073 1.14535 2.77167 0
M  V30 1412 H 127.626 0.631421 1.42978 0
M  V30 1413 H 128.361 -1.42266 2.91429 0
M  V30 1414 H 128.146 0.0386749 3.92081 0
M  V30 1415 H 129.636 -0.940386 4.06874 0
M  V30 1416 N 130.073 -1.45103 0.615059 0
M  V30 1417 C 131.003 -2.33339 -0.0865619 0
M  V30 1418 C 131.984 -1.4727 -0.851209 0
M  V30 1419 O 133.169 -1.76026 -0.820281 0
M  V30 1420 C 130.299 -3.30095 -1.07956 0
M  V30 1421 C 129.253 -4.25858 -0.427628 0
M  V30 1422 C 128.579 -5.12361 -1.5294 0
M  V30 1423 C 129.879 -5.18165 0.655944 0
M  V30 1424 H 131.573 -2.92254 0.650224 0
M  V30 1425 H 129.119 -1.40532 0.314138 0
M  V30 1426 H 131.072 -3.90698 -1.57901 0
M  V30 1427 H 129.796 -2.69355 -1.84703 0
M  V30 1428 H 128.455 -3.66564 0.0510292 0
M  V30 1429 H 128.103 -4.47984 -2.28734 0
M  V30 1430 H 127.803 -5.77238 -1.09865 0
M  V30 1431 H 129.327 -5.75833 -2.03098 0
M  V30 1432 H 130.741 -5.72796 0.240257 0
M  V30 1433 H 129.138 -5.91559 1.00888 0
M  V30 1434 H 130.208 -4.60144 1.52957 0
M  V30 1435 N 131.551 -0.354651 -1.53558 0
M  V30 1436 C 132.461 0.50515 -2.29097 0
M  V30 1437 C 133.477 1.10223 -1.34636 0
M  V30 1438 O 134.653 1.11553 -1.67684 0
M  V30 1439 C 131.718 1.63479 -3.05738 0
M  V30 1440 C 130.779 1.06636 -4.15845 0
M  V30 1441 C 130.012 2.14217 -4.88822 0
M  V30 1442 O 130.235 3.35137 -4.61562 0
M  V30 1443 O 129.169 1.77887 -5.75013 0
M  V30 1444 H 132.995 -0.109237 -3.03503 0
M  V30 1445 H 130.58 -0.119357 -1.48922 0
M  V30 1446 H 132.462 2.2918 -3.5363 0
M  V30 1447 H 131.137 2.23478 -2.34178 0
M  V30 1448 H 130.044 0.373565 -3.7223 0
M  V30 1449 H 131.377 0.511081 -4.89539 0
M  V30 1450 N 133.029 1.57378 -0.0835403 0
M  V30 1451 C 133.961 2.10389 0.909338 0
M  V30 1452 C 134.974 1.03858 1.25369 0
M  V30 1453 O 136.163 1.31338 1.20882 0
M  V30 1454 C 133.263 2.55908 2.2218 0
M  V30 1455 C 132.436 3.86145 2.05453 0
M  V30 1456 C 131.495 4.17633 3.20108 0
M  V30 1457 O 130.521 4.87043 2.94581 0
M  V30 1458 N 131.723 3.72113 4.45547 0
M  V30 1459 H 134.488 2.962 0.456657 0
M  V30 1460 H 132.049 1.61579 0.101877 0
M  V30 1461 H 134.041 2.74027 2.97811 0
M  V30 1462 H 132.611 1.75171 2.58909 0
M  V30 1463 H 131.831 3.7729 1.1422 0
M  V30 1464 H 133.119 4.7137 1.91541 0
M  V30 1465 H 132.517 3.16062 4.69171 0
M  V30 1466 H 131.074 3.95409 5.18165 0
M  V30 1467 N 134.507 -0.190092 1.56449 0
M  V30 1468 C 135.784 -0.935886 1.71757 0
M  V30 1469 C 136.164 -2.01173 0.639726 0
M  V30 1470 O 135.512 -2.25827 -0.348502 0
M  V30 1471 C 135.722 -1.51775 3.1427 0
M  V30 1472 C 137.07 -1.99794 3.74656 0
M  V30 1473 O 138.094 -1.61607 3.1743 0
M  V30 1474 O 136.953 -2.70079 4.751 0
M  V30 1475 H 134.047 -0.439229 0.700719 0
M  V30 1476 H 136.593 -0.179395 1.68749 0
M  V30 1477 H 135.365 -0.742505 3.84191 0
M  V30 1478 H 134.988 -2.33894 3.21527 0
M  V30 1479 N 135.985 -1.50799 -0.457987 0
M  V30 1480 C 136.915 -1.73553 -1.5621 0
M  V30 1481 C 137.896 -0.584774 -1.59732 0
M  V30 1482 O 139.081 -0.825314 -1.7579 0
M  V30 1483 C 136.211 -1.84169 -2.94447 0
M  V30 1484 C 135.165 -2.99461 -3.0579 0
M  V30 1485 C 134.491 -2.95235 -4.45803 0
M  V30 1486 C 135.791 -4.39766 -2.81786 0
M  V30 1487 H 137.485 -2.66 -1.37421 0
M  V30 1488 H 135.031 -1.28002 -0.659662 0
M  V30 1489 H 136.984 -1.98672 -3.71628 0
M  V30 1490 H 135.708 -0.883545 -3.14422 0
M  V30 1491 H 134.367 -2.8463 -2.31044 0
M  V30 1492 H 134.015 -1.97239 -4.62715 0
M  V30 1493 H 133.715 -3.72642 -4.54326 0
M  V30 1494 H 135.239 -3.11803 -5.24987 0
M  V30 1495 H 136.653 -4.55054 -3.4871 0
M  V30 1496 H 135.05 -5.18722 -3.0174 0
M  V30 1497 H 136.12 -4.51229 -1.7754 0
M  V30 1498 N 137.463 0.71206 -1.40597 0
M  V30 1499 C 138.426 1.80785 -1.40888 0
M  V30 1500 C 139.426 1.57937 -0.302103 0
M  V30 1501 O 140.616 1.64913 -0.561182 0
M  V30 1502 C 137.748 3.18927 -1.20409 0
M  V30 1503 H 138.941 1.81924 -2.38419 0
M  V30 1504 H 136.494 0.91805 -1.26497 0
M  V30 1505 H 137.229 3.23436 -0.236522 0
M  V30 1506 H 137.014 3.36911 -2.00582 0
M  V30 1507 H 138.504 3.98949 -1.23408 0
M  V30 1508 N 138.941 1.26152 0.944643 0
M  V30 1509 C 140.188 1.11492 1.69044 0
M  V30 1510 C 140.516 -0.342366 1.91463 0
M  V30 1511 O 139.771 -1.26812 1.49054 0
M  V30 1512 C 140.07 1.82541 3.07268 0
M  V30 1513 C 139.736 3.32445 3.04616 0
M  V30 1514 C 138.398 3.73337 3.036 0
M  V30 1515 C 140.75 4.28171 2.97185 0
M  V30 1516 C 138.078 5.08348 2.92915 0
M  V30 1517 C 140.43 5.63218 2.88041 0
M  V30 1518 C 139.094 6.03426 2.85366 0
M  V30 1519 H 138.364 0.407977 0.618576 0
M  V30 1520 H 141.011 1.56551 1.10291 0
M  V30 1521 H 139.316 1.29941 3.69625 0
M  V30 1522 H 141.013 1.68642 3.63815 0
M  V30 1523 H 137.603 2.99915 3.06185 0
M  V30 1524 H 141.787 3.97563 2.97081 0
M  V30 1525 H 137.043 5.38667 2.89219 0
M  V30 1526 H 141.217 6.37078 2.81254 0
M  V30 1527 H 138.844 7.07999 2.76842 0
M  V30 1528 N 140.419 -1.14872 1.07899 0
M  V30 1529 C 141.665 -1.86289 0.81657 0
M  V30 1530 C 142.02 -1.8107 -0.65049 0
M  V30 1531 O 141.313 -1.22684 -1.47171 0
M  V30 1532 C 141.507 -3.34223 1.26609 0
M  V30 1533 C 141.336 -3.53846 2.77531 0
M  V30 1534 C 140.106 -3.68995 3.45212 0
M  V30 1535 C 142.304 -3.51201 3.75716 0
M  V30 1536 N 140.286 -3.76725 4.84718 0
M  V30 1537 C 141.657 -3.65112 5.01092 0
M  V30 1538 C 143.712 -3.34507 3.68794 0
M  V30 1539 C 142.415 -3.64056 6.20368 0
M  V30 1540 C 144.441 -3.34752 4.8754 0
M  V30 1541 C 143.803 -3.49199 6.11751 0
M  V30 1542 H 139.902 -0.698579 0.351443 0
M  V30 1543 H 142.486 -1.37713 1.37634 0
M  V30 1544 H 140.657 -3.81402 0.73395 0
M  V30 1545 H 142.389 -3.93377 0.95062 0
M  V30 1546 H 139.144 -3.70006 2.95622 0
M  V30 1547 H 139.568 -3.8432 5.5734 0
M  V30 1548 H 144.21 -3.22253 2.73702 0
M  V30 1549 H 141.928 -3.75087 7.15776 0
M  V30 1550 H 145.514 -3.23055 4.83866 0
M  V30 1551 H 144.394 -3.49328 7.02097 0
M  V30 1552 N 141.898 -0.863906 -1.31812 0
M  V30 1553 C 143.128 -0.485406 -2.00817 0
M  V30 1554 C 143.536 0.925007 -1.65046 0
M  V30 1555 O 142.879 1.61653 -0.872574 0
M  V30 1556 C 142.941 -0.555589 -3.55181 0
M  V30 1557 C 142.605 -1.92654 -4.14407 0
M  V30 1558 C 143.602 -2.89324 -4.31958 0
M  V30 1559 C 141.287 -2.2262 -4.50273 0
M  V30 1560 C 143.281 -4.14108 -4.84555 0
M  V30 1561 C 140.968 -3.47654 -5.02573 0
M  V30 1562 C 141.966 -4.43214 -5.19664 0
M  V30 1563 O 141.654 -5.66033 -5.70843 0
M  V30 1564 H 141.386 -0.188224 -0.649267 0
M  V30 1565 H 143.94 -1.16514 -1.69156 0
M  V30 1566 H 142.17 0.181037 -3.86276 0
M  V30 1567 H 143.859 -0.19138 -4.05449 0
M  V30 1568 H 144.625 -2.6748 -4.04573 0
M  V30 1569 H 140.504 -1.4902 -4.3625 0
M  V30 1570 H 144.048 -4.88703 -4.9781 0
M  V30 1571 H 139.945 -3.69345 -5.29391 0
M  V30 1572 H 140.713 -5.6812 -5.89222 0
M  V30 1573 N 143.376 1.44774 -0.622745 0
M  V30 1574 C 144.624 2.01721 -0.123655 0
M  V30 1575 C 144.945 1.49172 1.25589 0
M  V30 1576 O 144.215 0.691974 1.83272 0
M  V30 1577 H 142.795 0.745777 -0.0427225 0
M  V30 1578 H 145.457 1.77382 -0.807559 0
M  V30 1579 H 144.553 3.11984 -0.0849534 0
M  V30 1580 N 144.854 0.36279 1.53368 0
M  V30 1581 C 146.265 -0.117022 1.86333 0
M  V30 1582 C 146.616 -1.48397 1.28347 0
M  V30 1583 O 145.741 -2.07787 0.604428 0
M  V30 1584 C 146.336 -0.21912 3.38091 0
M  V30 1585 C 144.895 -0.643184 3.70864 0
M  V30 1586 C 144.042 0.211318 2.76494 0
M  V30 1587 H 146.993 0.581687 1.47655 0
M  V30 1588 H 147.014 -1.04319 3.6592 0
M  V30 1589 H 146.526 0.775902 3.80265 0
M  V30 1590 H 144.627 -1.64654 3.34245 0
M  V30 1591 H 144.74 -0.41973 4.77258 0
M  V30 1592 H 143.104 -0.319367 2.5269 0
M  V30 1593 H 143.887 1.20383 3.21501 0
M  V30 1594 N 146.332 -1.57332 0.0918853 0
M  V30 1595 C 147.748 -1.57389 -0.264766 0
M  V30 1596 C 147.948 -1.10281 -1.68643 0
M  V30 1597 O 147.004 -0.777801 -2.40222 0
M  V30 1598 C 148.317 -3.00648 -0.0561195 0
M  V30 1599 C 149.865 -3.12754 -0.124116 0
M  V30 1600 C 150.34 -4.57965 0.0564972 0
M  V30 1601 N 151.831 -4.632 0.00155611 0
M  V30 1602 C 152.566 -5.73281 0.116598 0
M  V30 1603 N 152.062 -6.92208 0.286294 0
M  V30 1604 N 153.855 -5.6207 0.0580973 0
M  V30 1605 H 146.006 -1.86262 1.02079 0
M  V30 1606 H 148.269 -0.859579 0.399786 0
M  V30 1607 H 147.975 -3.393 0.925669 0
M  V30 1608 H 147.849 -3.68623 -0.799823 0
M  V30 1609 H 150.236 -2.73976 -1.09641 0
M  V30 1610 H 150.317 -2.47377 0.651024 0
M  V30 1611 H 149.961 -4.97436 1.02564 0
M  V30 1612 H 149.891 -5.21399 -0.738297 0
M  V30 1613 H 152.382 -3.77686 -0.127192 0
M  V30 1614 H 152.695 -7.71934 0.365676 0
M  V30 1615 H 151.04 -6.94254 0.32192 0
M  V30 1616 H 154.231 -4.68043 -0.0733204 0
M  V30 1617 H 154.404 -6.47824 0.151203 0
M  V30 1618 N 147.81 0.181792 -1.56548 0
M  V30 1619 C 149.056 0.896803 -1.82562 0
M  V30 1620 C 149.411 1.80324 -0.670908 0
M  V30 1621 O 148.704 1.8868 0.333235 0
M  V30 1622 C 148.898 1.73728 -3.12335 0
M  V30 1623 C 148.727 0.913714 -4.4032 0
M  V30 1624 C 147.497 0.592903 -5.01809 0
M  V30 1625 C 149.695 0.260164 -5.13642 0
M  V30 1626 N 147.677 -0.247901 -6.13399 0
M  V30 1627 C 149.048 -0.442256 -6.18421 0
M  V30 1628 C 151.103 0.177253 -4.97584 0
M  V30 1629 C 149.806 -1.21971 -7.08883 0
M  V30 1630 C 151.832 -0.586839 -5.88481 0
M  V30 1631 C 151.194 -1.27766 -6.92716 0
M  V30 1632 H 147.293 0.307122 -0.719166 0
M  V30 1633 H 149.877 0.164535 -1.94004 0
M  V30 1634 H 148.048 2.44105 -3.02105 0
M  V30 1635 H 149.78 2.39279 -3.26386 0
M  V30 1636 H 146.535 0.920502 -4.64568 0
M  V30 1637 H 146.959 -0.658304 -6.73792 0
M  V30 1638 H 151.601 0.696993 -4.17015 0
M  V30 1639 H 149.319 -1.75083 -7.88905 0
M  V30 1640 H 152.905 -0.652522 -5.78129 0
M  V30 1641 H 151.785 -1.85943 -7.61836 0
M  V30 1642 N 149.288 1.51039 0.449983 0
M  V30 1643 C 150.22 1.67617 1.56324 0
M  V30 1644 C 151.233 0.557083 1.52972 0
M  V30 1645 O 152.422 0.830989 1.57977 0
M  V30 1646 C 149.522 1.66402 2.95235 0
M  V30 1647 C 148.695 2.9469 3.23229 0
M  V30 1648 C 147.754 2.85832 4.41799 0
M  V30 1649 O 146.78 3.59785 4.41071 0
M  V30 1650 N 147.982 2.00821 5.44657 0
M  V30 1651 H 150.747 2.63648 1.42512 0
M  V30 1652 H 148.308 1.48767 0.638737 0
M  V30 1653 H 150.3 1.58062 3.72557 0
M  V30 1654 H 148.87 0.780182 3.02708 0
M  V30 1655 H 148.09 3.16996 2.34323 0
M  V30 1656 H 149.378 3.79636 3.38754 0
M  V30 1657 H 148.776 1.40091 5.48079 0
M  V30 1658 H 147.333 1.98368 6.20881 0
M  V30 1659 N 150.766 -0.704594 1.40972 0
M  V30 1660 C 151.676 -1.84856 1.44448 0
M  V30 1661 C 152.692 -1.70726 0.335961 0
M  V30 1662 O 153.868 -1.92799 0.582276 0
M  V30 1663 C 150.933 -3.20758 1.31587 0
M  V30 1664 C 149.994 -3.47063 2.52677 0
M  V30 1665 C 149.227 -4.76481 2.4042 0
M  V30 1666 O 149.45 -5.52341 1.42391 0
M  V30 1667 O 148.384 -5.03367 3.30007 0
M  V30 1668 H 152.21 -1.8488 2.40942 0
M  V30 1669 H 149.795 -0.85647 1.22413 0
M  V30 1670 H 151.677 -4.01913 1.26665 0
M  V30 1671 H 150.352 -3.21438 0.382049 0
M  V30 1672 H 149.259 -2.65873 2.63177 0
M  V30 1673 H 150.592 -3.5119 3.44858 0
M  V30 1674 N 152.244 -1.26651 -0.937939 0
M  V30 1675 C 153.49 -1.12553 -1.687 0
M  V30 1676 C 153.823 0.329782 -1.91379 0
M  V30 1677 O 153.098 1.24202 -1.4968 0
M  V30 1678 C 153.381 -1.89862 -3.05981 0
M  V30 1679 C 153.234 -3.43318 -2.90607 0
M  V30 1680 C 154.553 -1.69499 -4.0615 0
M  V30 1681 H 151.672 -0.410257 -0.612257 0
M  V30 1682 H 154.314 -1.55685 -1.08913 0
M  V30 1683 H 152.464 -1.53204 -3.57017 0
M  V30 1684 H 154.136 -3.89747 -2.46769 0
M  V30 1685 H 152.379 -3.70179 -2.26164 0
M  V30 1686 H 153.05 -3.92642 -3.8799 0
M  V30 1687 H 155.526 -2.01442 -3.64088 0
M  V30 1688 H 154.402 -2.26002 -5.00214 0
M  V30 1689 H 154.663 -0.640365 -4.37438 0
M  V30 1690 N 153.722 1.14298 -1.08507 0
M  V30 1691 C 154.971 1.84708 -0.810305 0
M  V30 1692 C 155.284 1.83903 0.666271 0
M  V30 1693 O 156.49 2.50112 1.05624 0
M  V30 1694 C 154.946 3.31572 -1.39957 0
M  V30 1695 C 154.554 3.40791 -2.90801 0
M  V30 1696 C 156.298 4.07087 -1.20334 0
M  V30 1697 C 154.205 4.81872 -3.4286 0
M  V30 1698 H 153.135 0.691985 -0.299454 0
M  V30 1699 H 155.786 1.28841 -1.30661 0
M  V30 1700 H 154.168 3.87183 -0.830976 0
M  V30 1701 H 155.342 2.95225 -3.53806 0
M  V30 1702 H 153.657 2.78732 -3.0935 0
M  V30 1703 H 156.254 5.11225 -1.56693 0
M  V30 1704 H 156.597 4.16054 -0.143237 0
M  V30 1705 H 157.13 3.57779 -1.73893 0
M  V30 1706 H 153.869 4.78094 -4.48449 0
M  V30 1707 H 153.389 5.27972 -2.84615 0
M  V30 1708 H 155.068 5.50765 -3.39509 0
M  V30 1709 N 155.201 0.870884 1.31352 0
M  V30 1710 C 156.612 0.534714 1.78879 0
M  V30 1711 C 156.963 -0.948423 1.71754 0
M  V30 1712 O 156.088 -1.74055 1.28584 0
M  V30 1713 C 156.683 0.963839 3.24801 0
M  V30 1714 C 155.242 0.679311 3.70219 0
M  V30 1715 C 154.389 1.15465 2.52117 0
M  V30 1716 H 157.34 1.05651 1.18421 0
M  V30 1717 H 157.361 0.286892 3.79417 0
M  V30 1718 H 156.873 2.04332 3.29955 0
M  V30 1719 H 154.974 -0.388769 3.70566 0
M  V30 1720 H 155.087 1.25698 4.62317 0
M  V30 1721 H 153.451 0.574383 2.48139 0
M  V30 1722 H 154.234 2.24157 2.60016 0
M  V30 1723 N 156.679 -1.44442 0.630414 0
M  V30 1724 C 157.909 -2.06115 0.141465 0
M  V30 1725 C 158.317 -1.47179 -1.1889 0
M  V30 1726 O 157.66 -0.588873 -1.74006 0
M  V30 1727 C 157.722 -3.59467 -0.0484355 0
M  V30 1728 C 157.386 -4.40864 1.20366 0
M  V30 1729 C 158.383 -4.74391 2.12719 0
M  V30 1730 C 156.068 -4.8125 1.43887 0
M  V30 1731 C 158.062 -5.47186 3.26904 0
M  V30 1732 C 155.749 -5.53795 2.5837 0
M  V30 1733 C 156.747 -5.86682 3.49705 0
M  V30 1734 O 156.435 -6.57749 4.62191 0
M  V30 1735 H 156.167 -0.671648 0.0765792 0
M  V30 1736 H 158.721 -1.86312 0.864695 0
M  V30 1737 H 156.951 -3.77758 -0.826803 0
M  V30 1738 H 158.64 -4.02909 -0.491849 0
M  V30 1739 H 159.406 -4.43728 1.95781 0
M  V30 1740 H 155.285 -4.55073 0.736853 0
M  V30 1741 H 158.829 -5.72773 3.98217 0
M  V30 1742 H 154.726 -5.83872 2.75251 0
M  V30 1743 H 155.494 -6.76217 4.61164 0
M  V30 1744 N 158.157 -0.370918 -1.53173 0
M  V30 1745 C 159.385 0.217704 -2.05751 0
M  V30 1746 C 159.8 1.42018 -1.24404 0
M  V30 1747 O 159.157 1.80245 -0.286033 0
M  V30 1748 C 159.208 0.605954 -3.56385 0
M  V30 1749 O 158.929 -0.548734 -4.3465 0
M  V30 1750 C 160.43 1.2524 -4.25241 0
M  V30 1751 H 157.65 0.0371659 -0.66997 0
M  V30 1752 H 160.194 -0.530832 -1.9749 0
M  V30 1753 H 158.349 1.3044 -3.6478 0
M  V30 1754 H 158.763 -0.23376 -5.23979 0
M  V30 1755 H 160.237 1.47458 -5.3194 0
M  V30 1756 H 160.714 2.2143 -3.79296 0
M  V30 1757 H 161.32 0.595233 -4.21114 0
M  V30 1758 N 159.635 1.57281 -0.100228 0
M  V30 1759 C 161.046 1.81725 0.428107 0
M  V30 1760 C 161.397 1.01619 1.67833 0
M  V30 1761 O 160.522 0.247098 2.14985 0
M  V30 1762 C 161.117 3.29617 0.78347 0
M  V30 1763 C 159.676 3.54808 1.25653 0
M  V30 1764 C 158.823 2.76118 0.255752 0
M  V30 1765 H 161.774 1.55324 -0.325608 0
M  V30 1766 H 161.795 3.4322 1.64256 0
M  V30 1767 H 161.307 3.87893 -0.12665 0
M  V30 1768 H 159.408 3.01868 2.18418 0
M  V30 1769 H 159.521 4.63443 1.21482 0
M  V30 1770 H 157.885 2.43745 0.738956 0
M  V30 1771 H 158.668 3.37145 -0.647136 0
M  V30 1772 N 161.113 -0.173488 1.56642 0
M  V30 1773 C 162.076 -1.19859 1.95362 0
M  V30 1774 C 163.076 -1.37296 0.83704 0
M  V30 1775 O 164.266 -1.34739 1.10413 0
M  V30 1776 C 161.398 -2.56405 2.24654 0
M  V30 1777 H 162.591 -0.867062 2.87092 0
M  V30 1778 H 160.144 -0.415853 1.50666 0
M  V30 1779 H 160.879 -2.94576 1.35631 0
M  V30 1780 H 160.664 -2.45115 3.06041 0
M  V30 1781 H 162.154 -3.30287 2.5554 0
M  V30 1782 N 162.591 -1.51276 -0.441967 0
M  V30 1783 C 163.524 -1.66933 -1.55591 0
M  V30 1784 C 164.502 -0.516958 -1.54163 0
M  V30 1785 O 165.686 -0.740209 -1.73358 0
M  V30 1786 C 162.813 -1.67866 -2.94174 0
M  V30 1787 C 161.859 -2.89013 -3.13646 0
M  V30 1788 S 162.692 -4.49897 -2.90436 0
M  V30 1789 C 163.848 -4.53568 -4.31308 0
M  V30 1790 H 164.081 -2.61155 -1.42076 0
M  V30 1791 H 161.614 -1.40902 -0.631341 0
M  V30 1792 H 163.572 -1.69089 -3.74058 0
M  V30 1793 H 162.233 -0.748296 -3.05056 0
M  V30 1794 H 161.426 -2.86054 -4.14957 0
M  V30 1795 H 161.028 -2.85509 -2.4158 0
M  V30 1796 H 163.32 -4.28924 -5.24434 0
M  V30 1797 H 164.263 -5.55355 -4.39303 0
M  V30 1798 H 164.671 -3.82943 -4.14747 0
M  V30 1799 N 164.069 0.697108 -1.41344 0
M  V30 1800 C 165.001 1.8224 -1.39001 0
M  V30 1801 C 166.014 1.60152 -0.292428 0
M  V30 1802 O 167.203 1.69684 -0.554048 0
M  V30 1803 C 164.303 3.18976 -1.14489 0
M  V30 1804 C 163.476 3.68105 -2.36258 0
M  V30 1805 C 162.535 4.83506 -2.07625 0
M  V30 1806 O 161.561 4.95201 -2.8065 0
M  V30 1807 N 162.763 5.70637 -1.06555 0
M  V30 1808 H 165.528 1.84742 -2.35988 0
M  V30 1809 H 163.089 0.87937 -1.35936 0
M  V30 1810 H 165.081 3.93801 -0.932885 0
M  V30 1811 H 163.651 3.11508 -0.261043 0
M  V30 1812 H 162.871 2.84204 -2.7317 0
M  V30 1813 H 164.159 3.97667 -3.17393 0
M  V30 1814 H 163.557 5.63817 -0.461125 0
M  V30 1815 H 162.114 6.45368 -0.913444 0
M  V30 1816 N 165.547 1.27147 0.931209 0
M  V30 1817 C 166.963 1.04475 1.20653 0
M  V30 1818 C 167.163 -0.223885 2.00252 0
M  V30 1819 O 166.219 -0.930332 2.34736 0
M  V30 1820 C 167.532 2.28209 1.95809 0
M  V30 1821 C 169.08 2.33211 2.08762 0
M  V30 1822 C 169.555 3.56665 2.87323 0
M  V30 1823 N 171.046 3.57201 2.94892 0
M  V30 1824 C 171.781 4.49395 3.56134 0
M  V30 1825 N 171.277 5.51889 4.18796 0
M  V30 1826 N 173.07 4.37026 3.53504 0
M  V30 1827 H 165.221 2.08612 0.399333 0
M  V30 1828 H 167.484 0.917312 0.239253 0
M  V30 1829 H 167.19 3.20538 1.44736 0
M  V30 1830 H 167.064 2.33247 2.96438 0
M  V30 1831 H 169.451 1.41391 2.59023 0
M  V30 1832 H 169.532 2.32178 1.07364 0
M  V30 1833 H 169.176 4.4882 2.37746 0
M  V30 1834 H 169.106 3.54948 3.88998 0
M  V30 1835 H 171.597 2.83074 2.50354 0
M  V30 1836 H 171.91 6.18409 4.63454 0
M  V30 1837 H 170.255 5.55735 4.17353 0
M  V30 1838 H 173.446 3.56166 3.03749 0
M  V30 1839 H 173.619 5.09067 4.00942 0
M  V30 1840 N 167.025 -1.13721 1.09112 0
M  V30 1841 C 168.255 -1.88499 0.845671 0
M  V30 1842 C 168.663 -1.79218 -0.606432 0
M  V30 1843 O 168.006 -1.1544 -1.42896 0
M  V30 1844 C 168.068 -3.38954 1.19793 0
M  V30 1845 C 167.732 -3.72018 2.65428 0
M  V30 1846 C 168.729 -3.7153 3.63677 0
M  V30 1847 C 166.414 -4.01775 3.01467 0
M  V30 1848 C 168.408 -4.00336 4.95994 0
M  V30 1849 C 166.095 -4.30243 4.33975 0
M  V30 1850 C 167.093 -4.29508 5.31048 0
M  V30 1851 O 166.781 -4.5728 6.61173 0
M  V30 1852 H 166.513 -0.603702 0.304171 0
M  V30 1853 H 169.067 -1.44903 1.45576 0
M  V30 1854 H 167.297 -3.83039 0.530871 0
M  V30 1855 H 168.986 -3.95052 0.932146 0
M  V30 1856 H 169.752 -3.4862 3.37179 0
M  V30 1857 H 165.631 -4.01496 2.26544 0
M  V30 1858 H 169.175 -3.99678 5.71755 0
M  V30 1859 H 165.072 -4.52625 4.60219 0
M  V30 1860 H 165.84 -4.74964 6.66597 0
M  V30 1861 N 168.503 -0.877838 -1.30888 0
M  V30 1862 C 169.749 -0.493426 -1.96706 0
M  V30 1863 C 170.082 0.953504 -1.6918 0
M  V30 1864 O 169.357 1.67266 -0.992594 0
M  V30 1865 C 169.64 -0.760429 -3.51979 0
M  V30 1866 C 169.493 -2.25747 -3.89048 0
M  V30 1867 C 170.812 -0.232148 -4.39487 0
M  V30 1868 H 167.931 -0.180746 -0.714493 0
M  V30 1869 H 170.573 -1.10052 -1.54882 0
M  V30 1870 H 168.723 -0.243715 -3.87735 0
M  V30 1871 H 170.395 -2.84204 -3.63354 0
M  V30 1872 H 168.638 -2.72694 -3.37373 0
M  V30 1873 H 169.309 -2.39491 -4.97341 0
M  V30 1874 H 171.785 -0.674314 -4.106 0
M  V30 1875 H 170.661 -0.448355 -5.47066 0
M  V30 1876 H 170.922 0.866297 -4.33529 0
M  V30 1877 N 169.982 1.44106 -0.638065 0
M  V30 1878 C 170.929 2.30715 0.062701 0
M  V30 1879 C 171.899 1.43882 0.829883 0
M  V30 1880 O 173.084 1.72775 0.809532 0
M  V30 1881 C 170.224 3.29258 1.03358 0
M  V30 1882 C 169.337 4.31192 0.26409 0
M  V30 1883 C 168.472 5.16825 1.22741 0
M  V30 1884 C 167.511 6.10462 0.447475 0
M  V30 1885 N 166.648 6.8877 1.36161 0
M  V30 1886 H 171.488 2.90096 -0.681781 0
M  V30 1887 H 169.025 1.42925 -0.347988 0
M  V30 1888 H 170.983 3.84886 1.60992 0
M  V30 1889 H 169.613 2.71562 1.74511 0
M  V30 1890 H 168.665 3.77981 -0.428295 0
M  V30 1891 H 169.977 4.97619 -0.343052 0
M  V30 1892 H 169.131 5.77004 1.87487 0
M  V30 1893 H 167.87 4.50488 1.86847 0
M  V30 1894 H 166.875 5.49386 -0.213433 0
M  V30 1895 H 168.1 6.78837 -0.188968 0
M  V30 1896 H 166.046 6.25096 1.98975 0
M  V30 1897 H 165.963 7.51663 0.808656 0
M  V30 1898 H 167.231 7.53467 1.99769 0
M  V30 1899 N 171.46 0.379036 1.52974 0
M  V30 1900 C 172.876 0.0285448 1.59574 0
M  V30 1901 C 173.076 -1.45542 1.39355 0
M  V30 1902 O 172.132 -2.2187 1.20541 0
M  V30 1903 C 173.445 0.496535 2.96572 0
M  V30 1904 C 174.993 0.451909 3.0972 0
M  V30 1905 C 175.468 0.895924 4.49152 0
M  V30 1906 N 176.959 0.851522 4.55306 0
M  V30 1907 C 177.694 1.16661 5.61407 0
M  V30 1908 N 177.19 1.55166 6.752 0
M  V30 1909 N 178.983 1.08853 5.51459 0
M  V30 1910 H 171.134 1.34525 1.64367 0
M  V30 1911 H 173.397 0.550733 0.771619 0
M  V30 1912 H 173.103 1.53258 3.16552 0
M  V30 1913 H 172.977 -0.109802 3.7704 0
M  V30 1914 H 175.364 -0.575029 2.89443 0
M  V30 1915 H 175.445 1.09392 2.3123 0
M  V30 1916 H 175.089 1.92104 4.70168 0
M  V30 1917 H 175.019 0.23103 5.26093 0
M  V30 1918 H 177.51 0.568038 3.73606 0
M  V30 1919 H 177.823 1.776 7.52116 0
M  V30 1920 H 176.168 1.59044 6.76557 0
M  V30 1921 H 179.359 0.786803 4.6144 0
M  V30 1922 H 179.532 1.33742 6.34048 0
M  V30 1923 N 172.938 -1.57226 0.108567 0
M  V30 1924 C 173.868 -2.17778 -0.84232 0
M  V30 1925 C 174.849 -1.11487 -1.2847 0
M  V30 1926 O 176.034 -1.39681 -1.34918 0
M  V30 1927 C 173.164 -2.76888 -2.09644 0
M  V30 1928 C 172.118 -3.88669 -1.79221 0
M  V30 1929 C 171.444 -4.34541 -3.11574 0
M  V30 1930 C 172.744 -5.11251 -1.06864 0
M  V30 1931 H 174.438 -2.97489 -0.337774 0
M  V30 1932 H 171.984 -1.43097 -0.161025 0
M  V30 1933 H 173.937 -3.17904 -2.76614 0
M  V30 1934 H 172.661 -1.94451 -2.62405 0
M  V30 1935 H 171.32 -3.48213 -1.14644 0
M  V30 1936 H 170.968 -3.48977 -3.62249 0
M  V30 1937 H 170.668 -5.09914 -2.91996 0
M  V30 1938 H 172.192 -4.782 -3.7968 0
M  V30 1939 H 173.606 -5.49352 -1.63968 0
M  V30 1940 H 172.003 -5.9214 -0.974178 0
M  V30 1941 H 173.073 -4.8487 -0.0536168 0
M  V30 1942 N 174.416 0.165178 -1.56732 0
M  V30 1943 C 175.366 1.20917 -1.93295 0
M  V30 1944 C 176.35 1.39488 -0.801985 0
M  V30 1945 O 177.542 1.41356 -1.06525 0
M  V30 1946 C 174.671 2.54718 -2.3016 0
M  V30 1947 C 173.757 2.39815 -3.49785 0
M  V30 1948 N 174.148 1.94637 -4.66851 0
M  V30 1949 C 172.446 2.70623 -3.54513 0
M  V30 1950 C 173.147 1.92344 -5.4898 0
M  V30 1951 N 172.123 2.34978 -4.9019 0
M  V30 1952 H 175.925 0.851675 -2.81289 0
M  V30 1953 H 173.439 0.373399 -1.58049 0
M  V30 1954 H 175.436 3.30165 -2.54552 0
M  V30 1955 H 174.096 2.91265 -1.43508 0
M  V30 1956 H 175.107 1.6488 -4.90953 0
M  V30 1957 H 171.784 3.11167 -2.78354 0
M  V30 1958 H 173.174 1.5906 -6.52801 0
M  V30 1959 N 175.894 1.51508 0.433938 0
M  V30 1960 C 176.804 1.75917 1.5521 0
M  V30 1961 C 177.82 0.643545 1.61662 0
M  V30 1962 O 178.996 0.926183 1.7884 0
M  V30 1963 C 176.061 1.88213 2.91164 0
M  V30 1964 C 175.122 3.12074 2.94802 0
M  V30 1965 C 174.355 3.23774 4.24271 0
M  V30 1966 O 174.578 2.4133 5.16833 0
M  V30 1967 O 173.512 4.16774 4.34262 0
M  V30 1968 H 177.338 2.70777 1.37527 0
M  V30 1969 H 174.923 1.36051 0.617293 0
M  V30 1970 H 176.805 1.98267 3.71845 0
M  V30 1971 H 175.48 0.965413 3.08968 0
M  V30 1972 H 174.387 3.07497 2.13065 0
M  V30 1973 H 175.72 4.03446 2.81943 0
M  V30 1974 N 177.372 -0.689602 1.41712 0
M  V30 1975 C 178.618 -1.45181 1.41599 0
M  V30 1976 C 178.951 -1.94181 0.0270081 0
M  V30 1977 O 178.226 -1.6993 -0.946265 0
M  V30 1978 C 178.509 -2.65945 2.42787 0
M  V30 1979 C 178.362 -2.22672 3.90816 0
M  V30 1980 C 179.681 -3.68149 2.41151 0
M  V30 1981 H 176.8 -0.526576 0.515642 0
M  V30 1982 H 179.442 -0.784947 1.73028 0
M  V30 1983 H 177.592 -3.2284 2.16116 0
M  V30 1984 H 179.264 -1.71058 4.28412 0
M  V30 1985 H 177.507 -1.54394 4.05395 0
M  V30 1986 H 178.178 -3.0935 4.57172 0
M  V30 1987 H 180.654 -3.2094 2.64834 0
M  V30 1988 H 179.53 -4.50248 3.13955 0
M  V30 1989 H 179.791 -4.18259 1.43221 0
M  V30 1990 N 178.85 -1.27639 -0.924453 0
M  V30 1991 C 180.098 -1.13941 -1.66918 0
M  V30 1992 C 180.419 0.314589 -1.92446 0
M  V30 1993 O 179.689 1.21964 -1.53303 0
M  V30 1994 H 178.269 -0.418678 -0.618642 0
M  V30 1995 H 180.931 -1.60213 -1.10985 0
M  V30 1996 H 180.027 -1.67094 -2.63602 0
M  V30 1997 N 180.328 1.1314 -1.09713 0
M  V30 1998 C 181.744 1.36477 -0.827423 0
M  V30 1999 C 181.944 1.93654 0.556817 0
M  V30 2000 O 181 2.15791 1.31112 0
M  V30 2001 C 182.313 2.31334 -1.92106 0
M  V30 2002 C 183.861 2.44943 -1.94864 0
M  V30 2003 C 184.336 3.4311 -3.0338 0
M  V30 2004 N 185.827 3.50662 -3.02639 0
M  V30 2005 C 186.562 4.2651 -3.83246 0
M  V30 2006 N 186.058 5.05485 -4.73768 0
M  V30 2007 N 187.851 4.2184 -3.71493 0
M  V30 2008 H 180.002 0.743807 -1.9895 0
M  V30 2009 H 182.265 0.389823 -0.864143 0
M  V30 2010 H 181.971 1.96483 -2.91698 0
M  V30 2011 H 181.845 3.31381 -1.80184 0
M  V30 2012 H 184.232 2.79079 -0.959099 0
M  V30 2013 H 184.313 1.4481 -2.10864 0
M  V30 2014 H 183.957 3.09704 -4.02549 0
M  V30 2015 H 183.887 4.43055 -2.84622 0
M  V30 2016 H 186.378 2.94315 -2.37039 0
M  V30 2017 H 186.691 5.60675 -5.3185 0
M  V30 2018 H 185.036 5.04708 -4.77802 0
M  V30 2019 H 188.227 3.5922 -3.00131 0
M  V30 2020 H 188.4 4.80697 -4.3455 0
M  V30 2021 N 181.806 0.884767 1.30421 0
M  V30 2022 C 183.034 0.518044 2.0031 0
M  V30 2023 C 183.449 -0.893408 1.66324 0
M  V30 2024 O 182.806 -1.5875 0.900262 0
M  V30 2025 C 182.857 0.682997 3.54989 0
M  V30 2026 O 182.578 2.03888 3.87764 0
M  V30 2027 C 184.079 0.31924 4.42149 0
M  V30 2028 H 181.299 0.200265 0.640418 0
M  V30 2029 H 183.843 1.19001 1.6631 0
M  V30 2030 H 181.998 0.0584052 3.87356 0
M  V30 2031 H 182.412 2.05735 4.82466 0
M  V30 2032 H 183.886 0.485555 5.4986 0
M  V30 2033 H 184.363 -0.742717 4.32875 0
M  V30 2034 H 184.969 0.920147 4.15227 0
M  V30 2035 N 183.284 -1.43765 0.645699 0
M  V30 2036 C 184.194 -2.34544 -0.0512957 0
M  V30 2037 C 185.21 -1.53455 -0.82022 0
M  V30 2038 O 186.386 -1.86133 -0.769176 0
M  V30 2039 C 183.451 -3.31636 -1.01087 0
M  V30 2040 C 182.512 -4.2863 -0.239712 0
M  V30 2041 C 181.745 -5.21084 -1.15358 0
M  V30 2042 O 181.968 -5.1779 -2.39269 0
M  V30 2043 O 180.902 -5.98593 -0.630038 0
M  V30 2044 H 184.728 -2.95624 0.695718 0
M  V30 2045 H 182.313 -1.43781 0.405882 0
M  V30 2046 H 184.195 -3.9136 -1.56254 0
M  V30 2047 H 182.87 -2.73069 -1.73824 0
M  V30 2048 H 181.777 -3.72408 0.355356 0
M  V30 2049 H 183.11 -4.90157 0.447936 0
M  V30 2050 N 184.763 -0.387143 -1.52771 0
M  V30 2051 C 186.174 0.0873634 -1.86495 0
M  V30 2052 C 186.525 1.46336 -1.30691 0
M  V30 2053 O 185.65 2.068 -0.637409 0
M  V30 2054 C 186.245 0.165305 -3.38396 0
M  V30 2055 C 184.804 0.584101 -3.7184 0
M  V30 2056 C 183.951 -0.255279 -2.76122 0
M  V30 2057 H 186.902 -0.605104 -1.46711 0
M  V30 2058 H 186.923 0.984848 -3.67534 0
M  V30 2059 H 186.435 -0.836301 -3.78982 0
M  V30 2060 H 184.536 1.59315 -3.36823 0
M  V30 2061 H 184.649 0.343749 -4.77865 0
M  V30 2062 H 183.013 0.279126 -2.53166 0
M  V30 2063 H 183.796 -1.25482 -3.19545 0
M  V30 2064 N 186.241 1.57166 -0.116904 0
M  V30 2065 C 187.151 2.18745 0.847812 0
M  V30 2066 C 188.167 1.163 1.29423 0
M  V30 2067 O 189.343 1.48761 1.35765 0
M  V30 2068 C 186.408 2.77307 2.0809 0
M  V30 2069 C 185.469 3.94781 1.68661 0
M  V30 2070 C 184.702 4.50541 2.86091 0
M  V30 2071 O 184.925 4.05202 4.01456 0
M  V30 2072 O 183.859 5.41256 2.63298 0
M  V30 2073 H 187.685 3.01632 0.353778 0
M  V30 2074 H 185.27 1.49005 0.108599 0
M  V30 2075 H 187.152 3.14647 2.80313 0
M  V30 2076 H 185.827 1.97452 2.56504 0
M  V30 2077 H 184.734 3.62214 0.935518 0
M  V30 2078 H 186.067 4.76065 1.24991 0
M  V30 2079 N 187.719 -0.156864 1.56817 0
M  V30 2080 C 188.649 -1.19589 2.00551 0
M  V30 2081 C 189.63 -1.4536 0.883426 0
M  V30 2082 O 190.815 -1.56449 1.15054 0
M  V30 2083 C 187.945 -2.53143 2.37773 0
M  V30 2084 C 186.899 -2.41913 3.53075 0
M  V30 2085 C 186.225 -3.80088 3.76081 0
M  V30 2086 C 187.525 -1.91157 4.86062 0
M  V30 2087 H 189.219 -0.832293 2.87599 0
M  V30 2088 H 186.765 -0.398918 1.38364 0
M  V30 2089 H 188.718 -3.26047 2.66967 0
M  V30 2090 H 187.442 -2.91319 1.4765 0
M  V30 2091 H 186.101 -1.71462 3.24031 0
M  V30 2092 H 185.749 -4.15683 2.83225 0
M  V30 2093 H 185.449 -3.73439 4.53671 0
M  V30 2094 H 186.973 -4.54556 4.0769 0
M  V30 2095 H 188.387 -2.53846 5.14038 0
M  V30 2096 H 186.784 -1.95422 5.67389 0
M  V30 2097 H 187.854 -0.866673 4.77092 0
M  V30 2098 N 189.197 -1.51736 -0.425897 0
M  V30 2099 C 190.127 -1.76827 -1.52494 0
M  V30 2100 C 191.108 -0.618524 -1.58456 0
M  V30 2101 O 192.293 -0.862416 -1.74 0
M  V30 2102 C 189.423 -1.90374 -2.90474 0
M  V30 2103 C 188.377 -3.0588 -2.99369 0
M  V30 2104 C 187.703 -3.04625 -4.3944 0
M  V30 2105 C 189.003 -4.45644 -2.72394 0
M  V30 2106 H 190.697 -2.68855 -1.31748 0
M  V30 2107 H 188.243 -1.29372 -0.632362 0
M  V30 2108 H 190.196 -2.0651 -3.6733 0
M  V30 2109 H 188.92 -0.95004 -3.12477 0
M  V30 2110 H 187.579 -2.89467 -2.24954 0
M  V30 2111 H 187.227 -2.0701 -4.58428 0
M  V30 2112 H 186.927 -3.82195 -4.46319 0
M  V30 2113 H 188.451 -3.22869 -5.18255 0
M  V30 2114 H 189.865 -4.62348 -3.38979 0
M  V30 2115 H 188.262 -5.25006 -2.9067 0
M  V30 2116 H 189.332 -4.54893 -1.67929 0
M  V30 2117 N 190.675 0.682077 -1.42076 0
M  V30 2118 C 191.921 1.44428 -1.42367 0
M  V30 2119 C 192.254 1.94164 -0.0373056 0
M  V30 2120 O 191.529 1.70429 0.937239 0
M  V30 2121 C 191.812 2.64654 -2.44194 0
M  V30 2122 C 191.665 2.20596 -3.91991 0
M  V30 2123 C 192.984 3.66865 -2.431 0
M  V30 2124 H 190.103 0.523834 -0.518428 0
M  V30 2125 H 192.745 0.77576 -1.73442 0
M  V30 2126 H 190.895 3.2169 -2.17826 0
M  V30 2127 H 192.567 1.68783 -4.29313 0
M  V30 2128 H 190.81 1.52242 -4.06208 0
M  V30 2129 H 191.481 3.06921 -4.58807 0
M  V30 2130 H 193.957 3.19531 -2.66532 0
M  V30 2131 H 192.833 4.48577 -3.16339 0
M  V30 2132 H 193.094 4.17493 -1.45437 0
M  V30 2133 N 192.153 1.28127 0.917671 0
M  V30 2134 C 193.116 1.11744 2.00115 0
M  V30 2135 C 194.116 0.0583052 1.60694 0
M  V30 2136 O 195.306 0.303755 1.71531 0
M  V30 2137 C 192.438 0.704862 3.33533 0
M  V30 2138 H 193.631 2.07966 2.16079 0
M  V30 2139 H 191.184 1.11058 1.09981 0
M  V30 2140 H 191.919 -0.258299 3.2327 0
M  V30 2141 H 191.704 1.4699 3.63505 0
M  V30 2142 H 193.194 0.612768 4.1308 0
M  V30 2143 N 193.631 -1.12557 1.10312 0
M  V30 2144 C 194.581 -2.16331 0.720076 0
M  V30 2145 C 195.565 -1.58616 -0.270115 0
M  V30 2146 O 196.757 -1.76823 -0.0790507 0
M  V30 2147 C 193.886 -3.42963 0.152113 0
M  V30 2148 C 192.972 -4.07663 1.16927 0
M  V30 2149 N 193.363 -4.47392 2.35953 0
M  V30 2150 C 191.661 -4.34425 1.0095 0
M  V30 2151 C 192.362 -4.97932 3.0073 0
M  V30 2152 N 191.338 -4.93358 2.28252 0
M  V30 2153 H 195.14 -2.44813 1.62616 0
M  V30 2154 H 192.654 -1.29449 0.980654 0
M  V30 2155 H 194.651 -4.16664 -0.14037 0
M  V30 2156 H 193.311 -3.1595 -0.748701 0
M  V30 2157 H 194.322 -4.39802 2.73486 0
M  V30 2158 H 190.999 -4.17177 0.164134 0
M  V30 2159 H 192.389 -5.38397 4.01969 0
M  V30 2160 N 195.109 -0.891671 -1.2995 0
M  V30 2161 C 196.072 -0.36828 -2.26222 0
M  V30 2162 C 197.072 0.493014 -1.53056 0
M  V30 2163 O 198.262 0.299213 -1.71611 0
M  V30 2164 C 195.394 0.47442 -3.37583 0
M  V30 2165 H 196.587 -1.21844 -2.74033 0
M  V30 2166 H 194.14 -0.669107 -1.41254 0
M  V30 2167 H 194.875 1.34489 -2.95099 0
M  V30 2168 H 194.66 -0.142615 -3.91841 0
M  V30 2169 H 196.15 0.83218 -4.09224 0
M  V30 2170 N 196.587 1.43421 -0.653314 0
M  V30 2171 C 197.817 2.05864 -0.174238 0
M  V30 2172 C 198.225 1.49052 1.16534 0
M  V30 2173 O 197.568 0.616481 1.73047 0
M  V30 2174 C 197.63 3.59499 -0.00875873 0
M  V30 2175 C 197.294 4.38893 -1.27364 0
M  V30 2176 C 198.291 4.70947 -2.20239 0
M  V30 2177 C 195.976 4.789 -1.51525 0
M  V30 2178 C 197.97 5.41916 -3.35568 0
M  V30 2179 C 195.657 5.49614 -2.67147 0
M  V30 2180 C 196.655 5.81044 -3.58994 0
M  V30 2181 O 196.343 6.50313 -4.72597 0
M  V30 2182 H 196.075 0.670345 -0.0872549 0
M  V30 2183 H 198.629 1.84913 -0.894226 0
M  V30 2184 H 196.859 3.79025 0.7666 0
M  V30 2185 H 198.548 4.0364 0.427687 0
M  V30 2186 H 199.314 4.40558 -2.02815 0
M  V30 2187 H 195.193 4.53843 -0.809158 0
M  V30 2188 H 198.737 5.66365 -4.07279 0
M  V30 2189 H 194.634 5.79419 -2.84505 0
M  V30 2190 H 195.402 6.68795 -4.71864 0
M  V30 2191 N 198.065 0.39524 1.52563 0
M  V30 2192 C 199.293 -0.184943 2.06072 0
M  V30 2193 C 199.708 -1.40021 1.26647 0
M  V30 2194 O 199.065 -1.79767 0.314672 0
M  V30 2195 C 199.116 -0.549179 3.57304 0
M  V30 2196 O 198.837 0.617813 4.33722 0
M  V30 2197 C 200.338 -1.18459 4.2718 0
M  V30 2198 H 197.558 -0.0265025 0.670476 0
M  V30 2199 H 200.102 0.562184 1.96621 0
M  V30 2200 H 198.257 -1.2462 3.66809 0
M  V30 2201 H 198.671 0.317091 5.23541 0
M  V30 2202 H 200.145 -1.38976 5.34219 0
M  V30 2203 H 200.622 -2.15368 3.82771 0
M  V30 2204 H 201.228 -0.528163 4.22008 0
M  V30 2205 N 199.544 -1.57102 0.125237 0
M  V30 2206 C 200.96 -1.57915 -0.231322 0
M  V30 2207 C 201.16 -1.13833 -1.66266 0
M  V30 2208 O 200.216 -0.828581 -2.38518 0
M  V30 2209 C 201.529 -3.00699 0.00766489 0
M  V30 2210 C 203.077 -3.12947 -0.0577483 0
M  V30 2211 C 203.552 -4.57742 0.153626 0
M  V30 2212 N 205.043 -4.63092 0.0998073 0
M  V30 2213 C 205.778 -5.72905 0.238174 0
M  V30 2214 N 205.274 -6.91445 0.433057 0
M  V30 2215 N 207.067 -5.6182 0.177308 0
M  V30 2216 H 199.218 -1.84055 1.06007 0
M  V30 2217 H 201.481 -0.850905 0.417929 0
M  V30 2218 H 201.187 -3.3726 0.997431 0
M  V30 2219 H 201.061 -3.70236 -0.721452 0
M  V30 2220 H 203.448 -2.7624 -1.03804 0
M  V30 2221 H 203.529 -2.4594 0.70335 0
M  V30 2222 H 203.173 -4.95149 1.13092 0
M  V30 2223 H 203.103 -5.22848 -0.627534 0
M  V30 2224 H 205.594 -3.77871 -0.047051 0
M  V30 2225 H 205.907 -7.70985 0.529332 0
M  V30 2226 H 204.252 -6.93415 0.469109 0
M  V30 2227 H 207.443 -4.68093 0.0259748 0
M  V30 2228 H 207.616 -6.47357 0.288582 0
M  V30 2229 N 201.022 0.148545 -1.56898 0
M  V30 2230 C 202.252 0.875118 -1.8715 0
M  V30 2231 C 202.66 1.75322 -0.711262 0
M  V30 2232 O 202.003 1.80745 0.328151 0
M  V30 2233 C 202.065 1.7844 -3.12089 0
M  V30 2234 C 201.729 1.08361 -4.43967 0
M  V30 2235 C 202.726 0.438247 -5.1805 0
M  V30 2236 C 200.411 1.07358 -4.90693 0
M  V30 2237 C 202.405 -0.20779 -6.37061 0
M  V30 2238 C 200.092 0.42373 -6.09629 0
M  V30 2239 C 201.09 -0.215829 -6.82659 0
M  V30 2240 O 200.778 -0.855378 -7.99336 0
M  V30 2241 H 200.51 0.258504 -0.624621 0
M  V30 2242 H 203.064 0.14652 -2.04877 0
M  V30 2243 H 201.294 2.55389 -2.90367 0
M  V30 2244 H 202.983 2.38279 -3.286 0
M  V30 2245 H 203.749 0.437817 -4.8302 0
M  V30 2246 H 199.628 1.5608 -4.33774 0
M  V30 2247 H 203.172 -0.70758 -6.94002 0
M  V30 2248 H 199.069 0.421822 -6.4412 0
M  V30 2249 H 199.837 -0.756892 -8.14993 0
M  V30 2250 N 202.5 1.5196 0.417844 0
M  V30 2251 C 203.43 1.77634 1.51554 0
M  V30 2252 C 204.411 0.626918 1.58126 0
M  V30 2253 O 205.596 0.871632 1.7354 0
M  V30 2254 C 202.726 1.91911 2.8946 0
M  V30 2255 C 201.68 3.07463 2.97743 0
M  V30 2256 C 201.006 3.06951 4.37819 0
M  V30 2257 C 202.306 4.47082 2.70027 0
M  V30 2258 H 204 2.6955 1.3032 0
M  V30 2259 H 201.546 1.29706 0.625492 0
M  V30 2260 H 203.499 2.08455 3.6623 0
M  V30 2261 H 202.223 0.966598 3.11969 0
M  V30 2262 H 200.882 2.90656 2.23416 0
M  V30 2263 H 200.53 2.09438 4.57323 0
M  V30 2264 H 200.23 3.84556 4.44286 0
M  V30 2265 H 201.754 3.25613 5.16535 0
M  V30 2266 H 203.168 4.6414 3.36522 0
M  V30 2267 H 201.565 5.2654 2.87881 0
M  V30 2268 H 202.635 4.55777 1.65514 0
M  V30 2269 N 203.978 -0.674533 1.42435 0
M  V30 2270 C 205.226 -1.43175 1.42637 0
M  V30 2271 C 205.547 -1.94951 0.0438992 0
M  V30 2272 O 204.817 -1.7308 -0.917607 0
M  V30 2273 H 203.397 -0.531307 0.525092 0
M  V30 2274 H 206.059 -0.797006 1.77859 0
M  V30 2275 H 205.155 -2.28463 2.12629 0
M  V30 2276 N 205.456 -1.28612 -0.910864 0
M  V30 2277 C 206.733 -1.06632 -1.63979 0
M  V30 2278 C 207.113 0.393351 -2.07403 0
M  V30 2279 O 206.461 1.37999 -1.82122 0
M  V30 2280 C 206.671 -2.0436 -2.8291 0
M  V30 2281 C 208.019 -2.34666 -3.5386 0
M  V30 2282 O 209.043 -2.02467 -2.93062 0
M  V30 2283 O 207.902 -2.89631 -4.63439 0
M  V30 2284 H 204.996 -0.407737 -0.7195 0
M  V30 2285 H 207.542 -1.39942 -0.959914 0
M  V30 2286 H 206.314 -3.02727 -2.47936 0
M  V30 2287 H 205.937 -1.71714 -3.58609 0
M  V30 2288 N 206.934 1.1197 -1.10907 0
M  V30 2289 C 207.864 2.19928 -0.784473 0
M  V30 2290 C 208.845 1.6833 0.244726 0
M  V30 2291 O 210.03 1.93892 0.109418 0
M  V30 2292 C 207.16 3.46597 -0.220827 0
M  V30 2293 C 206.114 4.11376 -1.18127 0
M  V30 2294 C 205.44 5.32554 -0.478594 0
M  V30 2295 C 206.74 4.56945 -2.52979 0
M  V30 2296 H 208.434 2.47337 -1.68715 0
M  V30 2297 H 205.98 1.18879 -0.812642 0
M  V30 2298 H 207.933 4.21396 0.0184278 0
M  V30 2299 H 206.657 3.1863 0.717113 0
M  V30 2300 H 205.316 3.38564 -1.40606 0
M  V30 2301 H 204.964 5.00856 0.463976 0
M  V30 2302 H 204.664 5.76844 -1.11912 0
M  V30 2303 H 206.188 6.10096 -0.248 0
M  V30 2304 H 207.602 5.23093 -2.3462 0
M  V30 2305 H 205.999 5.1203 -3.12962 0
M  V30 2306 H 207.069 3.70676 -3.12614 0
M  V30 2307 N 208.412 0.89855 1.29475 0
M  V30 2308 C 209.637 0.538561 2.00285 0
M  V30 2309 C 210.062 -0.869135 1.66816 0
M  V30 2310 O 209.42 -1.57831 0.892145 0
M  V30 2311 C 209.468 0.736475 3.52999 0
M  V30 2312 O 208.572 -0.211537 4.11857 0
M  V30 2313 H 207.913 0.210563 0.62973 0
M  V30 2314 H 210.443 1.20982 1.64998 0
M  V30 2315 H 210.453 0.640685 4.02938 0
M  V30 2316 H 209.128 1.76276 3.76696 0
M  V30 2317 H 207.705 -0.0682991 3.72837 0
M  V30 2318 N 209.89 -1.43072 0.660911 0
M  V30 2319 C 211.138 -2.01323 0.177094 0
M  V30 2320 C 211.459 -1.5245 -1.2159 0
M  V30 2321 O 210.729 -0.740322 -1.81373 0
M  V30 2322 H 209.309 -0.744382 0.0624804 0
M  V30 2323 H 211.971 -1.75179 0.854305 0
M  V30 2324 H 211.067 -3.11649 0.167641 0
M  V30 2325 N 211.368 -0.403325 -1.52352 0
M  V30 2326 C 212.616 0.174003 -2.0135 0
M  V30 2327 C 212.937 1.46139 -1.29106 0
M  V30 2328 O 212.207 1.91448 -0.415253 0
M  V30 2329 H 210.787 0.0672911 -0.743963 0
M  V30 2330 H 213.449 -0.538235 -1.87321 0
M  V30 2331 H 212.545 0.374254 -3.09848 0
M  V30 2332 N 212.846 1.57033 -0.133567 0
M  V30 2333 C 213.778 2.13176 0.841944 0
M  V30 2334 C 214.791 1.07794 1.22001 0
M  V30 2335 O 215.98 1.35117 1.16643 0
M  V30 2336 C 213.08 2.62847 2.13926 0
M  V30 2337 C 212.253 3.92486 1.93064 0
M  V30 2338 C 211.312 4.27605 3.0666 0
M  V30 2339 O 210.338 4.96168 2.78937 0
M  V30 2340 N 211.54 3.861 4.33483 0
M  V30 2341 H 214.305 2.97503 0.362192 0
M  V30 2342 H 211.866 1.61821 0.05042 0
M  V30 2343 H 213.858 2.83363 2.88942 0
M  V30 2344 H 212.428 1.83319 2.53205 0
M  V30 2345 H 211.648 3.80732 1.02159 0
M  V30 2346 H 212.936 4.77225 1.76447 0
M  V30 2347 H 212.334 3.30828 4.58878 0
M  V30 2348 H 210.891 4.11694 5.05323 0
M  V30 2349 N 214.325 -0.140222 1.56975 0
M  V30 2350 C 215.571 -0.852949 1.83991 0
M  V30 2351 C 215.904 -1.80512 0.716187 0
M  V30 2352 O 215.179 -1.92479 -0.279681 0
M  V30 2353 C 215.462 -1.6215 3.21527 0
M  V30 2354 C 215.315 -0.690363 4.4447 0
M  V30 2355 C 216.634 -2.58247 3.56366 0
M  V30 2356 H 213.753 -0.308634 0.669264 0
M  V30 2357 H 216.395 -0.117898 1.89634 0
M  V30 2358 H 214.545 -2.24812 3.16847 0
M  V30 2359 H 216.217 -0.0742264 4.6124 0
M  V30 2360 H 214.46 -0.000396433 4.338 0
M  V30 2361 H 215.131 -1.2643 5.37326 0
M  V30 2362 H 217.607 -2.05701 3.61699 0
M  V30 2363 H 216.483 -3.09067 4.53617 0
M  V30 2364 H 216.744 -3.39923 2.82674 0
M  V30 2365 N 215.803 -1.52179 -0.40978 0
M  V30 2366 C 216.733 -1.78435 -1.5061 0
M  V30 2367 C 217.714 -0.635295 -1.57791 0
M  V30 2368 O 218.899 -0.880823 -1.73076 0
M  V30 2369 C 216.029 -1.93444 -2.88439 0
M  V30 2370 C 214.983 -3.09038 -2.96108 0
M  V30 2371 C 214.309 -3.09268 -4.36185 0
M  V30 2372 C 215.609 -4.48508 -2.67652 0
M  V30 2373 H 217.303 -2.70237 -1.28889 0
M  V30 2374 H 214.849 -1.30036 -0.618605 0
M  V30 2375 H 216.802 -2.10394 -3.65119 0
M  V30 2376 H 215.526 -0.983129 -3.11452 0
M  V30 2377 H 214.185 -2.91837 -2.21872 0
M  V30 2378 H 213.833 -2.11861 -4.56206 0
M  V30 2379 H 213.533 -3.86907 -4.42241 0
M  V30 2380 H 215.057 -3.28348 -5.14801 0
M  V30 2381 H 216.471 -4.65918 -3.34056 0
M  V30 2382 H 214.868 -5.28059 -2.85085 0
M  V30 2383 H 215.938 -4.56649 -1.63095 0
M  V30 2384 N 217.281 0.66697 -1.42791 0
M  V30 2385 C 218.228 1.7803 -1.4688 0
M  V30 2386 C 219.198 1.6299 -0.319919 0
M  V30 2387 O 220.383 1.83432 -0.525118 0
M  V30 2388 C 217.523 3.1611 -1.38451 0
M  V30 2389 C 216.636 3.42381 -2.63437 0
M  V30 2390 C 215.771 4.70232 -2.47094 0
M  V30 2391 C 214.81 4.89564 -3.67415 0
M  V30 2392 N 213.947 6.08661 -3.49966 0
M  V30 2393 H 218.787 1.7387 -2.42019 0
M  V30 2394 H 216.324 0.84868 -1.20149 0
M  V30 2395 H 218.282 3.95914 -1.31561 0
M  V30 2396 H 216.912 3.19374 -0.469033 0
M  V30 2397 H 215.964 2.56774 -2.80662 0
M  V30 2398 H 217.276 3.52557 -3.52853 0
M  V30 2399 H 216.43 5.5814 -2.37834 0
M  V30 2400 H 215.169 4.62353 -1.5518 0
M  V30 2401 H 214.174 4.00096 -3.77099 0
M  V30 2402 H 215.399 4.99282 -4.6032 0
M  V30 2403 H 213.345 6.0194 -2.60776 0
M  V30 2404 H 213.262 6.19733 -4.32975 0
M  V30 2405 H 214.53 6.99226 -3.44532 0
M  V30 2406 N 218.759 1.29093 0.90403 0
M  V30 2407 C 219.706 1.13853 2.00764 0
M  V30 2408 C 220.676 0.0330084 1.66067 0
M  V30 2409 O 221.861 0.199733 1.89752 0
M  V30 2410 C 219.001 0.816537 3.35301 0
M  V30 2411 C 218.114 2.00206 3.82807 0
M  V30 2412 C 217.249 1.61983 5.059 0
M  V30 2413 C 216.288 2.77143 5.45764 0
M  V30 2414 N 215.425 2.39346 6.60044 0
M  V30 2415 H 220.265 2.08276 2.13132 0
M  V30 2416 H 217.802 1.03648 1.04381 0
M  V30 2417 H 219.76 0.610557 4.12708 0
M  V30 2418 H 218.39 -0.090779 3.22672 0
M  V30 2419 H 217.442 2.31988 3.01473 0
M  V30 2420 H 218.754 2.86512 4.08304 0
M  V30 2421 H 217.908 1.37649 5.90879 0
M  V30 2422 H 216.647 0.728202 4.82233 0
M  V30 2423 H 215.652 3.02165 4.59322 0
M  V30 2424 H 216.877 3.66964 5.71414 0
M  V30 2425 H 214.823 1.52665 6.37989 0
M  V30 2426 H 214.74 3.19185 6.85315 0
M  V30 2427 H 216.008 2.1832 7.48303 0
M  V30 2428 N 220.237 -1.11381 1.11499 0
M  V30 2429 C 221.486 -1.82494 0.858993 0
M  V30 2430 C 221.799 -1.85605 -0.617278 0
M  V30 2431 O 223.005 -2.52824 -0.989552 0
M  V30 2432 C 221.461 -3.27745 1.48699 0
M  V30 2433 C 221.069 -3.32961 2.99735 0
M  V30 2434 C 222.813 -4.03754 1.31085 0
M  V30 2435 C 220.72 -4.72612 3.55516 0
M  V30 2436 H 219.65 -0.683802 0.317696 0
M  V30 2437 H 222.301 -1.25331 1.34031 0
M  V30 2438 H 220.683 -3.84844 0.933339 0
M  V30 2439 H 221.857 -2.85741 3.61509 0
M  V30 2440 H 220.172 -2.70433 3.16631 0
M  V30 2441 H 222.769 -5.06891 1.70192 0
M  V30 2442 H 223.112 -4.15527 0.253496 0
M  V30 2443 H 223.645 -3.53043 1.83318 0
M  V30 2444 H 220.384 -4.66036 4.60967 0
M  V30 2445 H 219.904 -5.2024 2.98513 0
M  V30 2446 H 221.583 -5.4157 3.53992 0
M  V30 2447 N 221.715 -0.905404 -1.28997 0
M  V30 2448 C 222.678 -0.392253 -2.25819 0
M  V30 2449 C 223.678 0.476753 -1.5357 0
M  V30 2450 O 224.868 0.280994 -1.71919 0
M  V30 2451 C 222 0.438588 -3.38067 0
M  V30 2452 H 223.193 -1.24743 -2.72725 0
M  V30 2453 H 220.746 -0.684051 -1.40536 0
M  V30 2454 H 221.481 1.31352 -2.96508 0
M  V30 2455 H 221.266 -0.184167 -3.91667 0
M  V30 2456 H 222.756 0.78873 -4.10084 0
M  V30 2457 N 223.193 1.4272 -0.668489 0
M  V30 2458 C 224.125 2.2914 0.052613 0
M  V30 2459 C 225.138 1.43339 0.771857 0
M  V30 2460 O 226.327 1.67123 0.627067 0
M  V30 2461 C 223.427 3.20618 1.09804 0
M  V30 2462 C 222.6 4.35039 0.45389 0
M  V30 2463 C 221.659 5.07282 1.39825 0
M  V30 2464 O 220.685 5.62024 0.900978 0
M  V30 2465 N 221.887 5.12206 2.73176 0
M  V30 2466 H 224.652 2.91668 -0.689209 0
M  V30 2467 H 222.213 1.53577 -0.512422 0
M  V30 2468 H 224.205 3.65815 1.73094 0
M  V30 2469 H 222.775 2.59585 1.74167 0
M  V30 2470 H 221.995 3.92567 -0.358396 0
M  V30 2471 H 223.283 5.088 0.00486972 0
M  V30 2472 H 222.681 4.6913 3.16122 0
M  V30 2473 H 221.238 5.61069 3.31729 0
M  V30 2474 N 224.671 0.411399 1.52136 0
M  V30 2475 C 225.618 -0.412975 2.27075 0
M  V30 2476 C 226.588 -1.03912 1.29582 0
M  V30 2477 O 227.773 -1.06296 1.58448 0
M  V30 2478 C 224.913 -1.52247 3.09701 0
M  V30 2479 C 224.026 -0.917021 4.22155 0
M  V30 2480 C 223.161 -1.9994 4.92135 0
M  V30 2481 C 222.2 -1.37101 5.96548 0
M  V30 2482 N 221.337 -2.39364 6.60038 0
M  V30 2483 H 226.177 0.232499 2.97092 0
M  V30 2484 H 223.714 0.126496 1.46555 0
M  V30 2485 H 225.672 -2.17674 3.55913 0
M  V30 2486 H 224.302 -2.13794 2.41851 0
M  V30 2487 H 223.354 -0.151742 3.80097 0
M  V30 2488 H 224.666 -0.418006 4.97045 0
M  V30 2489 H 223.82 -2.73088 5.41763 0
M  V30 2490 H 222.559 -2.53208 4.16818 0
M  V30 2491 H 221.564 -0.624873 5.46237 0
M  V30 2492 H 222.789 -0.845998 6.7381 0
M  V30 2493 H 220.735 -2.91759 5.87548 0
M  V30 2494 H 220.652 -1.9428 7.3061 0
M  V30 2495 H 221.92 -3.12074 7.14304 0
M  V30 2496 N 226.149 -1.5696 0.141893 0
M  V30 2497 C 227.112 -2.15316 -0.785587 0
M  V30 2498 C 228.112 -1.09366 -1.1788 0
M  V30 2499 O 229.302 -1.35031 -1.10056 0
M  V30 2500 C 226.434 -2.71211 -2.06537 0
M  V30 2501 H 227.627 -2.98608 -0.278041 0
M  V30 2502 H 225.18 -1.5593 -0.107519 0
M  V30 2503 H 225.915 -1.91571 -2.6167 0
M  V30 2504 H 225.7 -3.4872 -1.79268 0
M  V30 2505 H 227.19 -3.16189 -2.72789 0
M  V30 2506 N 227.627 0.131896 -1.57047 0
M  V30 2507 C 228.557 1.16384 -2.02428 0
M  V30 2508 C 229.538 1.43936 -0.90644 0
M  V30 2509 O 230.723 1.54599 -1.17528 0
M  V30 2510 C 227.853 2.49328 -2.4177 0
M  V30 2511 C 226.807 2.36266 -3.56879 0
M  V30 2512 C 226.133 3.74057 -3.8208 0
M  V30 2513 C 227.433 1.834 -4.89042 0
M  V30 2514 H 229.127 0.786433 -2.88887 0
M  V30 2515 H 226.673 0.376855 -1.38981 0
M  V30 2516 H 228.626 3.21759 -2.7212 0
M  V30 2517 H 227.35 2.88934 -1.52266 0
M  V30 2518 H 226.009 1.66286 -3.26718 0
M  V30 2519 H 225.657 4.11125 -2.89803 0
M  V30 2520 H 225.357 3.66174 -4.59554 0
M  V30 2521 H 226.881 4.48012 -4.1487 0
M  V30 2522 H 228.295 2.45636 -5.18011 0
M  V30 2523 H 226.692 1.8637 -5.70426 0
M  V30 2524 H 227.762 0.790662 -4.7841 0
M  V30 2525 N 229.106 1.52395 0.401703 0
M  V30 2526 C 230.383 1.57387 1.16141 0
M  V30 2527 C 230.763 0.359359 2.08019 0
M  V30 2528 O 230.111 -0.65326 2.18963 0
M  V30 2529 C 230.321 2.90631 1.93221 0
M  V30 2530 C 231.669 3.43904 2.49028 0
M  V30 2531 O 232.693 2.92421 2.03393 0
M  V30 2532 O 231.552 4.33823 3.32356 0
M  V30 2533 H 228.646 0.634262 0.530698 0
M  V30 2534 H 231.192 1.64725 0.407883 0
M  V30 2535 H 229.964 3.70473 1.25958 0
M  V30 2536 H 229.587 2.8662 2.75563 0
M  V30 2537 N 230.584 -0.659388 1.43143 0
M  V30 2538 C 231.514 -1.78422 1.50625 0
M  V30 2539 C 232.495 -1.66216 0.361443 0
M  V30 2540 O 233.68 -1.85404 0.577834 0
M  V30 2541 C 230.81 -3.16815 1.42287 0
M  V30 2542 C 229.764 -3.43777 2.54954 0
M  V30 2543 C 229.09 -4.81905 2.31671 0
M  V30 2544 C 230.39 -3.39134 3.97222 0
M  V30 2545 H 232.084 -1.72417 2.44771 0
M  V30 2546 H 229.63 -0.828084 1.17808 0
M  V30 2547 H 231.583 -3.95253 1.46127 0
M  V30 2548 H 230.307 -3.23534 0.446435 0
M  V30 2549 H 228.966 -2.67707 2.50457 0
M  V30 2550 H 228.614 -4.85294 1.32284 0
M  V30 2551 H 228.314 -5.00906 3.07192 0
M  V30 2552 H 229.838 -5.62609 2.37284 0
M  V30 2553 H 231.252 -4.07518 4.03239 0
M  V30 2554 H 229.649 -3.69671 4.72719 0
M  V30 2555 H 230.719 -2.37426 4.22797 0
M  V30 2556 N 232.062 -1.29571 -0.897171 0
M  V30 2557 C 233.473 -1.15964 -1.46319 0
M  V30 2558 C 233.824 0.244267 -1.94674 0
M  V30 2559 O 232.949 1.13998 -1.83939 0
M  V30 2560 C 233.544 -2.09906 -2.65942 0
M  V30 2561 C 232.103 -2.00314 -3.18671 0
M  V30 2562 C 231.25 -2.00687 -1.91363 0
M  V30 2563 H 234.201 -1.42019 -0.708268 0
M  V30 2564 H 234.222 -1.67276 -3.41759 0
M  V30 2565 H 233.734 -3.12075 -2.30718 0
M  V30 2566 H 231.835 -1.01242 -3.58582 0
M  V30 2567 H 231.948 -2.88102 -3.82798 0
M  V30 2568 H 230.312 -1.45319 -2.09175 0
M  V30 2569 H 231.095 -3.04566 -1.58413 0
M  V30 2570 N 233.54 1.10788 -1.12088 0
M  V30 2571 C 234.765 1.87002 -0.896949 0
M  V30 2572 C 235.19 1.79933 0.548261 0
M  V30 2573 O 234.548 1.16662 1.38779 0
M  V30 2574 C 234.596 3.3349 -1.37174 0
M  V30 2575 O 233.7 4.08745 -0.547831 0
M  V30 2576 H 233.041 0.580397 -0.322545 0
M  V30 2577 H 235.571 1.39996 -1.49206 0
M  V30 2578 H 235.581 3.84339 -1.36922 0
M  V30 2579 H 234.256 3.37951 -2.42408 0
M  V30 2580 H 232.833 3.6776 -0.617034 0
M  V30 2581 N 235.018 0.912232 1.28515 0
M  V30 2582 C 236.243 0.559774 1.99703 0
M  V30 2583 C 236.668 -0.851393 1.67729 0
M  V30 2584 O 236.026 -1.56875 0.908834 0
M  V30 2585 C 236.074 0.773874 3.52198 0
M  V30 2586 O 235.178 -0.167842 4.12058 0
M  V30 2587 H 234.519 0.21723 0.627461 0
M  V30 2588 H 237.049 1.22725 1.63706 0
M  V30 2589 H 237.059 0.683386 4.02236 0
M  V30 2590 H 235.734 1.80261 3.74805 0
M  V30 2591 H 234.311 -0.0287509 3.72889 0
M  V30 2592 N 236.496 -1.42363 0.676048 0
M  V30 2593 C 237.744 -2.01123 0.198437 0
M  V30 2594 C 238.065 -1.53731 -1.19966 0
M  V30 2595 O 237.335 -0.759518 -1.80577 0
M  V30 2596 H 235.915 -0.743678 0.0703721 0
M  V30 2597 H 238.577 -1.74263 0.872837 0
M  V30 2598 H 237.673 -3.11454 0.200686 0
M  V30 2599 N 237.974 -0.419461 -1.51915 0
M  V30 2600 C 238.884 0.407528 -2.31033 0
M  V30 2601 C 239.9 1.04413 -1.3919 0
M  V30 2602 O 241.076 1.0434 -1.72265 0
M  V30 2603 C 238.141 1.50365 -3.12396 0
M  V30 2604 C 237.202 0.889029 -4.19994 0
M  V30 2605 C 236.435 1.93291 -4.97468 0
M  V30 2606 O 236.658 3.15259 -4.75361 0
M  V30 2607 O 235.592 1.53339 -5.8204 0
M  V30 2608 H 239.418 -0.237865 -3.02767 0
M  V30 2609 H 237.003 -0.182413 -1.48282 0
M  V30 2610 H 238.885 2.13975 -3.63032 0
M  V30 2611 H 237.56 2.13345 -2.43445 0
M  V30 2612 H 236.467 0.215353 -3.7348 0
M  V30 2613 H 237.8 0.302991 -4.91267 0
M  V30 2614 N 239.452 1.56882 -0.150215 0
M  V30 2615 C 240.7 1.9584 0.499105 0
M  V30 2616 C 241.021 1.03623 1.65188 0
M  V30 2617 O 240.291 0.0984084 1.95653 0
M  V30 2618 H 238.871 0.723119 0.187373 0
M  V30 2619 H 241.533 1.9358 -0.226466 0
M  V30 2620 H 240.629 2.99638 0.873122 0
M  V30 2621 N 240.93 -0.123565 1.57115 0
M  V30 2622 C 241.86 -1.15309 2.03042 0
M  V30 2623 C 242.841 -1.43454 0.914061 0
M  V30 2624 O 244.026 -1.53973 1.18347 0
M  V30 2625 C 241.156 -2.48043 2.43089 0
M  V30 2626 C 240.11 -2.3437 3.58127 0
M  V30 2627 C 239.436 -3.72026 3.84059 0
M  V30 2628 C 240.736 -1.80804 4.90007 0
M  V30 2629 H 242.43 -0.771102 2.893 0
M  V30 2630 H 239.976 -0.369479 1.39179 0
M  V30 2631 H 241.929 -3.20311 2.73823 0
M  V30 2632 H 240.653 -2.88122 1.53796 0
M  V30 2633 H 239.312 -1.64551 3.27595 0
M  V30 2634 H 238.96 -4.09582 2.91979 0
M  V30 2635 H 238.66 -3.63732 4.6149 0
M  V30 2636 H 240.184 -4.45806 4.1724 0
M  V30 2637 H 241.598 -2.42886 5.19307 0
M  V30 2638 H 239.995 -1.83343 5.71407 0
M  V30 2639 H 241.065 -0.76528 4.78823 0
M  V30 2640 N 242.408 -1.52605 -0.393616 0
M  V30 2641 C 243.371 -1.76415 -1.46323 0
M  V30 2642 C 244.371 -0.634126 -1.47768 0
M  V30 2643 O 245.561 -0.902142 -1.4902 0
M  V30 2644 C 242.693 -1.8607 -2.85641 0
M  V30 2645 H 243.886 -2.71916 -1.26498 0
M  V30 2646 H 241.439 -1.43257 -0.625073 0
M  V30 2647 H 242.174 -0.925378 -3.10817 0
M  V30 2648 H 241.959 -2.68235 -2.85993 0
M  V30 2649 H 243.449 -2.06179 -3.63153 0
M  V30 2650 N 243.887 0.651787 -1.4349 0
M  V30 2651 C 245.134 1.41167 -1.45183 0
M  V30 2652 C 245.462 1.94349 -0.0766601 0
M  V30 2653 O 244.717 1.72804 0.918555 0
M  V30 2654 C 245.016 2.60914 -2.44251 0
M  V30 2655 C 244.682 2.26142 -3.9009 0
M  V30 2656 C 243.344 2.16371 -4.2981 0
M  V30 2657 C 245.696 1.98334 -4.81989 0
M  V30 2658 C 243.024 1.7695 -5.5938 0
M  V30 2659 C 245.376 1.6041 -6.11924 0
M  V30 2660 C 244.04 1.49166 -6.5062 0
M  V30 2661 H 243.31 0.516566 -0.531263 0
M  V30 2662 H 245.957 0.741099 -1.76579 0
M  V30 2663 H 244.262 3.3311 -2.06265 0
M  V30 2664 H 245.959 3.19127 -2.42815 0
M  V30 2665 H 242.549 2.34658 -3.58655 0
M  V30 2666 H 246.733 2.04803 -4.52072 0
M  V30 2667 H 241.989 1.66831 -5.88198 0
M  V30 2668 H 246.163 1.37925 -6.82605 0
M  V30 2669 H 243.79 1.1839 -7.50925 0
M  V30 2670 N 245.365 1.30045 0.890287 0
M  V30 2671 C 246.612 1.18561 1.64163 0
M  V30 2672 C 246.94 -0.260852 1.92743 0
M  V30 2673 O 246.195 -1.20376 1.54299 0
M  V30 2674 C 246.494 1.95409 2.99249 0
M  V30 2675 C 246.16 3.45066 2.90242 0
M  V30 2676 C 244.822 3.85878 2.87492 0
M  V30 2677 C 247.174 4.4039 2.78758 0
M  V30 2678 C 244.502 5.20314 2.7109 0
M  V30 2679 C 246.854 5.74928 2.63894 0
M  V30 2680 C 245.518 6.14986 2.59516 0
M  V30 2681 H 244.788 0.433846 0.600715 0
M  V30 2682 H 247.435 1.61088 1.03552 0
M  V30 2683 H 245.74 1.45501 3.63781 0
M  V30 2684 H 247.437 1.8392 3.56334 0
M  V30 2685 H 244.027 3.12631 2.93189 0
M  V30 2686 H 248.211 4.09806 2.79952 0
M  V30 2687 H 243.467 5.50449 2.66112 0
M  V30 2688 H 247.641 6.48434 2.53981 0
M  V30 2689 H 245.268 7.19104 2.46565 0
M  V30 2690 N 246.843 -1.10192 1.12674 0
M  V30 2691 C 248.071 -1.85983 0.906527 0
M  V30 2692 C 248.486 -1.80783 -0.544333 0
M  V30 2693 O 247.843 -1.19834 -1.37645 0
M  V30 2694 C 247.894 -3.34281 1.37618 0
M  V30 2695 O 247.615 -3.39401 2.77017 0
M  V30 2696 C 249.116 -4.26938 1.19325 0
M  V30 2697 H 246.336 -0.587716 0.323775 0
M  V30 2698 H 248.88 -1.39284 1.49734 0
M  V30 2699 H 247.035 -3.78436 0.828539 0
M  V30 2700 H 247.449 -4.31838 2.97684 0
M  V30 2701 H 248.923 -5.29181 1.57071 0
M  V30 2702 H 249.4 -4.38995 0.134097 0
M  V30 2703 H 250.006 -3.8859 1.72852 0
M  V30 2704 N 248.321 -0.919034 -1.28029 0
M  V30 2705 C 249.568 -0.554934 -1.94748 0
M  V30 2706 C 249.896 0.90231 -1.72304 0
M  V30 2707 O 249.151 1.65767 -1.04018 0
M  V30 2708 C 249.45 -0.816855 -3.4794 0
M  V30 2709 C 249.116 -2.25448 -3.90492 0
M  V30 2710 C 247.778 -2.64752 -4.01821 0
M  V30 2711 C 250.13 -3.18977 -4.12193 0
M  V30 2712 C 247.458 -3.96727 -4.32232 0
M  V30 2713 C 249.81 -4.50523 -4.44086 0
M  V30 2714 C 248.474 -4.89673 -4.53626 0
M  V30 2715 H 247.744 -0.203065 -0.712633 0
M  V30 2716 H 250.391 -1.16136 -1.52265 0
M  V30 2717 H 248.696 -0.127677 -3.91592 0
M  V30 2718 H 250.393 -0.514238 -3.97689 0
M  V30 2719 H 246.983 -1.93952 -3.82205 0
M  V30 2720 H 251.167 -2.89817 -4.02889 0
M  V30 2721 H 246.423 -4.26754 -4.37825 0
M  V30 2722 H 250.597 -5.23005 -4.59825 0
M  V30 2723 H 248.224 -5.91969 -4.76946 0
M  V30 2724 N 249.799 1.42003 -0.683588 0
M  V30 2725 C 251.21 1.84501 -0.285736 0
M  V30 2726 C 251.561 1.57213 1.17382 0
M  V30 2727 O 250.686 1.03642 1.89966 0
M  V30 2728 C 251.281 3.34912 -0.511821 0
M  V30 2729 C 249.84 3.76025 -0.168005 0
M  V30 2730 C 248.987 2.6551 -0.799983 0
M  V30 2731 H 251.938 1.31724 -0.885119 0
M  V30 2732 H 251.959 3.79784 0.233292 0
M  V30 2733 H 251.471 3.54741 -1.57418 0
M  V30 2734 H 249.572 3.61801 0.890567 0
M  V30 2735 H 249.685 4.75141 -0.614661 0
M  V30 2736 H 248.049 2.53654 -0.230568 0
M  V30 2737 H 248.832 2.8816 -1.86597 0
M  V30 2738 N 251.277 0.427512 1.51691 0
M  V30 2739 C 252.225 -0.403359 2.29076 0
M  V30 2740 C 253.219 -1.02962 1.34518 0
M  V30 2741 O 254.425 -0.965715 1.51901 0
M  V30 2742 H 250.8 -0.148879 0.737115 0
M  V30 2743 H 252.771 0.270295 2.97173 0
M  V30 2744 C 251.52 -1.49763 3.13794 0
M  V30 2745 H 250.843 -1.02508 3.86435 0
M  V30 2746 H 252.283 -2.05244 3.71014 0
M  V30 2747 C 250.742 -2.47536 2.28533 0
M  V30 2748 O 251.272 -3.51848 1.93819 0
M  V30 2749 N 249.478 -2.18187 1.91945 0
M  V30 2750 H 249.025 -1.33389 2.20375 0
M  V30 2751 H 248.983 -2.83848 1.35195 0
M  V30 2752 N 252.755 -1.56801 0.158532 0
M  V30 2753 C 254.004 -1.95665 -0.489702 0
M  V30 2754 C 254.317 -1.04654 -1.65248 0
M  V30 2755 O 255.523 -1.33146 -2.3661 0
M  V30 2756 C 253.979 -3.47874 -0.922582 0
M  V30 2757 C 253.587 -4.47489 0.213893 0
M  V30 2758 C 255.331 -3.95583 -1.53996 0
M  V30 2759 C 253.238 -5.90921 -0.237903 0
M  V30 2760 H 252.168 -0.730516 -0.186716 0
M  V30 2761 H 254.819 -1.81861 0.244722 0
M  V30 2762 H 253.201 -3.57051 -1.71261 0
M  V30 2763 H 254.375 -4.50017 0.991036 0
M  V30 2764 H 252.69 -4.09764 0.740407 0
M  V30 2765 H 255.287 -5.0019 -1.8898 0
M  V30 2766 H 255.63 -3.37789 -2.43319 0
M  V30 2767 H 256.163 -3.8937 -0.814611 0
M  V30 2768 H 252.902 -6.52559 0.620236 0
M  V30 2769 H 252.422 -5.91729 -0.980676 0
M  V30 2770 H 254.101 -6.43352 -0.686067 0
M  V30 2771 N 254.233 0.115231 -1.57178 0
M  V30 2772 C 255.196 1.12526 -1.99676 0
M  V30 2773 C 256.196 1.34095 -0.88742 0
M  V30 2774 O 257.386 1.30548 -1.15337 0
M  V30 2775 C 254.518 2.4789 -2.34015 0
M  V30 2776 H 255.711 0.759912 -2.90113 0
M  V30 2777 H 253.264 0.359648 -1.52106 0
M  V30 2778 H 253.999 2.89339 -1.4647 0
M  V30 2779 H 253.784 2.33588 -3.14927 0
M  V30 2780 H 255.274 3.20575 -2.67622 0
M  V30 2781 N 255.711 1.52812 0.385517 0
M  V30 2782 C 256.936 1.72207 1.15583 0
M  V30 2783 C 257.361 0.441034 1.82857 0
M  V30 2784 O 256.719 -0.603465 1.70962 0
M  V30 2785 C 256.767 2.87476 2.17692 0
M  V30 2786 O 255.871 2.54693 3.24354 0
M  V30 2787 H 255.212 0.572526 0.336319 0
M  V30 2788 H 257.742 1.99618 0.448744 0
M  V30 2789 H 257.752 3.13072 2.6163 0
M  V30 2790 H 256.427 3.80408 1.68115 0
M  V30 2791 H 255.004 2.3985 2.85529 0
M  V30 2792 N 257.189 -0.644168 1.43834 0
M  V30 2793 C 258.152 -1.73857 1.49353 0
M  V30 2794 C 259.152 -1.56315 0.377112 0
M  V30 2795 O 260.342 -1.62048 0.639226 0
M  V30 2796 C 257.474 -3.12819 1.35488 0
M  V30 2797 H 258.667 -1.70342 2.46827 0
M  V30 2798 H 256.22 -0.856652 1.30733 0
M  V30 2799 H 256.955 -3.2194 0.390569 0
M  V30 2800 H 256.74 -3.26958 2.16428 0
M  V30 2801 H 258.23 -3.92606 1.42302 0
M  V30 2802 N 258.668 -1.30515 -0.883378 0
M  V30 2803 C 259.896 -1.22359 -1.66841 0
M  V30 2804 C 260.311 0.213296 -1.87591 0
M  V30 2805 O 259.668 1.14075 -1.42454 0
M  V30 2806 C 259.719 -1.95011 -3.04389 0
M  V30 2807 O 259.44 -3.3309 -2.84575 0
M  V30 2808 C 260.941 -1.93532 -3.98824 0
M  V30 2809 H 258.161 -0.423371 -0.520575 0
M  V30 2810 H 260.705 -1.72167 -1.10357 0
M  V30 2811 H 258.86 -1.48997 -3.57601 0
M  V30 2812 H 259.274 -3.69907 -3.71846 0
M  V30 2813 H 260.748 -2.48902 -4.92699 0
M  V30 2814 H 261.225 -0.914627 -4.29571 0
M  V30 2815 H 261.831 -2.39364 -3.51547 0
M  V30 2816 N 260.146 1.09593 -1.13257 0
M  V30 2817 C 261.093 2.1618 -0.808381 0
M  V30 2818 C 262.063 1.64517 0.228754 0
M  V30 2819 O 263.248 1.9053 0.101381 0
M  V30 2820 C 260.388 3.43973 -0.278675 0
M  V30 2821 C 259.501 4.09545 -1.37466 0
M  V30 2822 C 258.636 5.25088 -0.803479 0
M  V30 2823 C 257.675 5.82579 -1.87799 0
M  V30 2824 N 256.812 6.89486 -1.32488 0
M  V30 2825 H 261.652 2.43254 -1.72138 0
M  V30 2826 H 259.189 1.19392 -0.859294 0
M  V30 2827 H 261.147 4.17174 0.0465583 0
M  V30 2828 H 259.777 3.17223 0.597459 0
M  V30 2829 H 258.829 3.34226 -1.81652 0
M  V30 2830 H 260.141 4.48307 -2.18684 0
M  V30 2831 H 259.295 6.05178 -0.429427 0
M  V30 2832 H 258.034 4.87684 0.0397956 0
M  V30 2833 H 257.039 5.01152 -2.26113 0
M  V30 2834 H 258.264 6.22045 -2.72463 0
M  V30 2835 H 256.21 6.54064 -0.503575 0
M  V30 2836 H 256.127 7.27007 -2.07355 0
M  V30 2837 H 257.395 7.73336 -0.978336 0
M  V30 2838 N 261.624 0.925811 1.2754 0
M  V30 2839 C 262.871 0.565255 1.94451 0
M  V30 2840 C 263.199 -0.89316 1.7278 0
M  V30 2841 O 262.454 -1.65213 1.04895 0
M  V30 2842 C 262.753 0.835296 3.47502 0
M  V30 2843 C 262.419 2.27515 3.89291 0
M  V30 2844 C 261.081 2.66879 4.00411 0
M  V30 2845 C 263.433 3.21158 4.10496 0
M  V30 2846 C 260.761 3.99014 4.30122 0
M  V30 2847 C 263.113 4.52871 4.4169 0
M  V30 2848 C 261.777 4.92072 4.51023 0
M  V30 2849 H 261.047 0.206841 0.711546 0
M  V30 2850 H 263.694 1.16942 1.51647 0
M  V30 2851 H 261.999 0.148442 3.91519 0
M  V30 2852 H 263.696 0.535322 3.97411 0
M  V30 2853 H 260.286 1.95976 3.81171 0
M  V30 2854 H 264.47 2.9195 4.01346 0
M  V30 2855 H 259.726 4.2907 4.35556 0
M  V30 2856 H 263.9 5.25436 4.57045 0
M  V30 2857 H 261.527 5.9449 4.738 0
M  V30 2858 N 263.102 -1.41638 0.69111 0
M  V30 2859 C 264.049 -2.30789 0.0229705 0
M  V30 2860 C 265.019 -1.46863 -0.775911 0
M  V30 2861 O 266.204 -1.75661 -0.74485 0
M  V30 2862 C 263.344 -3.32868 -0.910666 0
M  V30 2863 C 262.457 -4.31875 -0.103874 0
M  V30 2864 C 261.592 -5.21024 -1.03475 0
M  V30 2865 C 260.631 -6.11702 -0.220598 0
M  V30 2866 N 259.768 -6.93349 -1.10504 0
M  V30 2867 H 264.608 -2.87366 0.788978 0
M  V30 2868 H 262.145 -1.41535 0.400794 0
M  V30 2869 H 264.103 -3.90596 -1.46597 0
M  V30 2870 H 262.733 -2.77851 -1.64312 0
M  V30 2871 H 261.785 -3.76131 0.568285 0
M  V30 2872 H 263.097 -4.96003 0.527504 0
M  V30 2873 H 262.251 -5.83565 -1.65943 0
M  V30 2874 H 260.99 -4.57112 -1.69999 0
M  V30 2875 H 259.995 -5.48215 0.417187 0
M  V30 2876 H 261.22 -6.77668 0.440784 0
M  V30 2877 H 259.166 -6.3205 -1.75638 0
M  V30 2878 H 259.083 -7.54146 -0.529125 0
M  V30 2879 H 260.351 -7.60362 -1.71667 0
M  V30 2880 N 264.58 -0.43555 -1.51462 0
M  V30 2881 C 265.512 0.41257 -2.25456 0
M  V30 2882 C 266.525 0.987822 -1.29406 0
M  V30 2883 O 267.714 0.882266 -1.55172 0
M  V30 2884 C 264.814 1.58894 -2.99342 0
M  V30 2885 C 263.987 1.13288 -4.22474 0
M  V30 2886 C 263.046 2.17917 -4.78956 0
M  V30 2887 O 262.072 1.77425 -5.40841 0
M  V30 2888 N 263.274 3.50382 -4.62832 0
M  V30 2889 H 266.039 -0.221603 -2.9888 0
M  V30 2890 H 263.6 -0.264342 -1.59727 0
M  V30 2891 H 265.592 2.28508 -3.34015 0
M  V30 2892 H 264.162 2.12849 -2.28941 0
M  V30 2893 H 263.382 0.263881 -3.93316 0
M  V30 2894 H 264.67 0.805542 -5.02383 0
M  V30 2895 H 264.068 3.86013 -4.13534 0
M  V30 2896 H 262.625 4.15895 -5.01871 0
M  V30 2897 N 266.058 1.56714 -0.166846 0
M  V30 2898 C 266.988 2.20754 0.760913 0
M  V30 2899 C 267.969 1.16178 1.24244 0
M  V30 2900 O 269.154 1.44592 1.29641 0
M  V30 2901 C 266.284 2.84478 1.99223 0
M  V30 2902 C 265.238 3.95053 1.64672 0
M  V30 2903 C 264.564 4.45805 2.95232 0
M  V30 2904 C 265.864 5.14865 0.878155 0
M  V30 2905 H 267.558 2.98537 0.22713 0
M  V30 2906 H 265.104 1.43596 0.107805 0
M  V30 2907 H 267.057 3.27951 2.64624 0
M  V30 2908 H 265.781 2.04056 2.55007 0
M  V30 2909 H 264.44 3.52228 1.01641 0
M  V30 2910 H 264.088 3.62181 3.49047 0
M  V30 2911 H 263.788 5.204 2.7287 0
M  V30 2912 H 265.312 4.91962 3.6167 0
M  V30 2913 H 266.726 5.55059 1.43466 0
M  V30 2914 H 265.123 5.95348 0.753738 0
M  V30 2915 H 266.193 4.84735 -0.126377 0
M  V30 2916 N 267.536 -0.106894 1.57237 0
M  V30 2917 C 268.766 -0.825191 1.89405 0
M  V30 2918 C 269.174 -1.73374 0.757496 0
M  V30 2919 O 268.517 -1.81552 -0.280115 0
M  V30 2920 C 268.579 -1.70102 3.1671 0
M  V30 2921 C 268.243 -0.965523 4.46684 0
M  V30 2922 C 269.24 -0.300741 5.19029 0
M  V30 2923 C 266.925 -0.943105 4.93367 0
M  V30 2924 C 268.919 0.376622 6.36286 0
M  V30 2925 C 266.606 -0.261949 6.10538 0
M  V30 2926 C 267.604 0.396748 6.81847 0
M  V30 2927 O 267.292 1.06701 7.96787 0
M  V30 2928 H 267.024 -0.241852 0.631255 0
M  V30 2929 H 269.578 -0.0921491 2.05193 0
M  V30 2930 H 267.808 -2.47601 2.97036 0
M  V30 2931 H 269.497 -2.29483 3.34802 0
M  V30 2932 H 270.263 -0.309599 4.84011 0
M  V30 2933 H 266.142 -1.44524 4.3776 0
M  V30 2934 H 269.686 0.891334 6.91882 0
M  V30 2935 H 265.583 -0.250896 6.45012 0
M  V30 2936 H 266.351 0.972707 8.127 0
M  V30 2937 N 269.014 -1.53014 -0.377408 0
M  V30 2938 C 270.43 -1.42523 -0.718281 0
M  V30 2939 C 270.63 -0.55487 -1.9371 0
M  V30 2940 O 269.686 -0.0327593 -2.52479 0
M  V30 2941 C 270.999 -2.85546 -0.942539 0
M  V30 2942 C 272.547 -2.95101 -1.04329 0
M  V30 2943 C 273.022 -4.3916 -1.3001 0
M  V30 2944 N 274.513 -4.42536 -1.36806 0
M  V30 2945 C 275.248 -5.51097 -1.58364 0
M  V30 2946 N 274.744 -6.69724 -1.77317 0
M  V30 2947 N 276.537 -5.38657 -1.60638 0
M  V30 2948 H 268.688 -2.08116 0.424426 0
M  V30 2949 H 270.951 -0.939352 0.127759 0
M  V30 2950 H 270.657 -3.51499 -0.118929 0
M  V30 2951 H 270.531 -3.28493 -1.85397 0
M  V30 2952 H 272.918 -2.29309 -1.85745 0
M  V30 2953 H 272.999 -2.55566 -0.109505 0
M  V30 2954 H 272.643 -5.05521 -0.490991 0
M  V30 2955 H 272.573 -4.76258 -2.24691 0
M  V30 2956 H 275.064 -3.57039 -1.23821 0
M  V30 2957 H 275.377 -7.48233 -1.93306 0
M  V30 2958 H 273.722 -6.72732 -1.74518 0
M  V30 2959 H 276.913 -4.44948 -1.45391 0
M  V30 2960 H 277.086 -6.2333 -1.77098 0
M  V30 2961 N 270.492 0.636531 -1.44174 0
M  V30 2962 C 271.717 1.42847 -1.50364 0
M  V30 2963 C 272.142 1.87665 -0.127867 0
M  V30 2964 O 271.5 1.58408 0.88185 0
M  V30 2965 C 271.548 2.62854 -2.4686 0
M  V30 2966 O 270.652 3.62501 -1.9664 0
M  V30 2967 H 269.993 0.427642 -0.507955 0
M  V30 2968 H 272.523 0.777422 -1.89255 0
M  V30 2969 H 272.533 3.10465 -2.64718 0
M  V30 2970 H 271.208 2.29578 -3.46795 0
M  V30 2971 H 269.785 3.21735 -1.88523 0
M  V30 2972 N 271.97 1.30982 0.876444 0
M  V30 2973 C 273.386 1.09498 1.16113 0
M  V30 2974 C 273.586 -0.13875 2.01022 0
M  V30 2975 O 272.642 -0.829935 2.38471 0
M  V30 2976 C 273.955 2.36308 1.85954 0
M  V30 2977 C 275.503 2.41856 1.98683 0
M  V30 2978 C 275.978 3.6853 2.71937 0
M  V30 2979 N 277.469 3.69387 2.79477 0
M  V30 2980 C 278.204 4.64096 3.36753 0
M  V30 2981 N 277.7 5.69155 3.95012 0
M  V30 2982 N 279.493 4.51626 3.3465 0
M  V30 2983 H 271.644 2.10118 0.310494 0
M  V30 2984 H 273.907 0.926634 0.200131 0
M  V30 2985 H 273.613 3.26388 1.31011 0
M  V30 2986 H 273.487 2.4561 2.86278 0
M  V30 2987 H 275.874 1.52249 2.52793 0
M  V30 2988 H 275.955 2.36523 0.9742 0
M  V30 2989 H 275.599 4.58499 2.18496 0
M  V30 2990 H 275.529 3.71127 3.73593 0
M  V30 2991 H 278.02 2.93438 2.38123 0
M  V30 2992 H 278.333 6.3751 4.36808 0
M  V30 2993 H 276.678 5.72937 3.93406 0
M  V30 2994 H 279.869 3.68728 2.8837 0
M  V30 2995 H 280.042 5.25614 3.7899 0
M  V30 2996 N 273.449 -1.08991 1.13837 0
M  V30 2997 C 274.382 -2.15049 0.763477 0
M  V30 2998 C 275.36 -1.60629 -0.252398 0
M  V30 2999 O 276.544 -1.87958 -0.142853 0
M  V30 3000 C 273.671 -3.38441 0.132545 0
M  V30 3001 C 272.717 -4.11596 1.11763 0
M  V30 3002 S 273.55 -4.6521 2.65216 0
M  V30 3003 C 274.706 -5.91896 2.03495 0
M  V30 3004 H 274.939 -2.46518 1.66182 0
M  V30 3005 H 272.472 -1.21008 0.958976 0
M  V30 3006 H 274.43 -4.09883 -0.225074 0
M  V30 3007 H 273.091 -3.05182 -0.743135 0
M  V30 3008 H 272.284 -5.00121 0.624076 0
M  V30 3009 H 271.886 -3.46038 1.41894 0
M  V30 3010 H 274.178 -6.63156 1.38675 0
M  V30 3011 H 275.121 -6.45938 2.9012 0
M  V30 3012 H 275.529 -5.44625 1.48471 0
M  V30 3013 N 274.927 -0.932562 -1.27047 0
M  V30 3014 C 275.875 -0.42603 -2.28665 0
M  V30 3015 C 276.869 0.49219 -1.62092 0
M  V30 3016 O 278.075 0.371355 -1.76128 0
M  V30 3017 H 274.45 -0.119213 -0.742491 0
M  V30 3018 H 276.421 -1.29579 -2.68797 0
M  V30 3019 C 275.17 0.301426 -3.46391 0
M  V30 3020 H 274.493 -0.39595 -3.97834 0
M  V30 3021 H 275.933 0.6202 -4.1944 0
M  V30 3022 C 274.392 1.51616 -3.00856 0
M  V30 3023 O 274.922 2.61476 -3.04948 0
M  V30 3024 N 273.128 1.36969 -2.56296 0
M  V30 3025 H 272.675 0.475873 -2.53166 0
M  V30 3026 H 272.633 2.18368 -2.26192 0
M  V30 3027 N 276.405 1.4127 -0.698611 0
M  V30 3028 C 277.63 2.06024 -0.238512 0
M  V30 3029 C 278.055 1.5224 1.10475 0
M  V30 3030 O 277.413 0.650623 1.69223 0
M  V30 3031 C 277.461 3.59988 -0.209952 0
M  V30 3032 O 276.565 4.04282 0.814235 0
M  V30 3033 H 275.906 0.653829 -0.115775 0
M  V30 3034 H 278.436 1.8098 -0.954326 0
M  V30 3035 H 278.446 4.07979 -0.0418436 0
M  V30 3036 H 277.121 3.98503 -1.1903 0
M  V30 3037 H 275.698 3.6779 0.615234 0
M  V30 3038 N 277.883 0.443576 1.51229 0
M  V30 3039 C 278.813 -0.355142 2.30783 0
M  V30 3040 C 279.794 -1.0154 1.36468 0
M  V30 3041 O 280.979 -1.01785 1.65389 0
M  V30 3042 C 278.109 -1.45312 3.15439 0
M  V30 3043 C 277.063 -0.916002 4.18083 0
M  V30 3044 C 276.389 -2.1102 4.91299 0
M  V30 3045 C 277.689 0.0538602 5.22272 0
M  V30 3046 H 279.383 0.308767 2.97804 0
M  V30 3047 H 276.929 0.149937 1.43217 0
M  V30 3048 H 278.882 -2.01914 3.69876 0
M  V30 3049 H 277.606 -2.14541 2.46252 0
M  V30 3050 H 276.265 -0.372145 3.64706 0
M  V30 3051 H 275.913 -2.78882 4.18609 0
M  V30 3052 H 275.613 -1.75717 5.60712 0
M  V30 3053 H 277.137 -2.68164 5.48562 0
M  V30 3054 H 278.551 -0.422069 5.71744 0
M  V30 3055 H 276.948 0.319776 5.99247 0
M  V30 3056 H 278.018 0.98858 4.74716 0
M  V30 3057 N 279.361 -1.56624 0.175154 0
M  V30 3058 C 280.271 -2.21741 -0.766042 0
M  V30 3059 C 281.287 -1.21023 -1.25018 0
M  V30 3060 O 282.463 -1.53697 -1.3015 0
M  V30 3061 C 279.528 -2.84839 -1.97655 0
M  V30 3062 C 278.589 -4.00769 -1.53892 0
M  V30 3063 C 277.822 -4.60849 -2.69173 0
M  V30 3064 O 278.045 -4.19823 -3.86141 0
M  V30 3065 O 276.979 -5.50655 -2.43028 0
M  V30 3066 H 280.805 -3.02738 -0.241585 0
M  V30 3067 H 278.39 -1.49305 -0.053222 0
M  V30 3068 H 280.272 -3.24834 -2.68442 0
M  V30 3069 H 278.947 -2.06836 -2.48999 0
M  V30 3070 H 277.854 -3.65436 -0.80044 0
M  V30 3071 H 279.187 -4.80376 -1.07236 0
M  V30 3072 N 280.839 0.0985539 -1.57292 0
M  V30 3073 C 281.772 1.15082 -1.97057 0
M  V30 3074 C 282.75 1.39025 -0.843255 0
M  V30 3075 O 283.934 1.52842 -1.10325 0
M  V30 3076 C 281.061 2.50069 -2.28437 0
M  V30 3077 C 280.107 2.42428 -3.509 0
M  V30 3078 S 280.94 1.84414 -5.02744 0
M  V30 3079 C 282.096 3.21032 -5.37298 0
M  V30 3080 H 282.329 0.811815 -2.86002 0
M  V30 3081 H 279.862 0.306102 -1.51335 0
M  V30 3082 H 281.82 3.27729 -2.47192 0
M  V30 3083 H 280.481 2.8114 -1.40069 0
M  V30 3084 H 279.674 3.41911 -3.70288 0
M  V30 3085 H 279.276 1.72896 -3.31637 0
M  V30 3086 H 281.568 4.17297 -5.33731 0
M  V30 3087 H 282.511 3.06452 -6.38352 0
M  V30 3088 H 282.919 3.20404 -4.64759 0
M  V30 3089 N 282.317 1.53212 0.369288 0
M  V30 3090 C 283.545 1.73119 1.13303 0
M  V30 3091 C 283.96 0.458455 1.83149 0
M  V30 3092 O 283.317 -0.568403 1.73423 0
M  V30 3093 C 283.368 2.89413 2.16616 0
M  V30 3094 O 283.089 4.11761 1.49614 0
M  V30 3095 C 284.59 3.21161 3.05566 0
M  V30 3096 H 281.81 0.579107 0.338934 0
M  V30 3097 H 284.354 1.99942 0.429338 0
M  V30 3098 H 282.509 2.64994 2.82589 0
M  V30 3099 H 282.923 4.76858 2.18419 0
M  V30 3100 H 284.397 4.05949 3.74045 0
M  V30 3101 H 284.874 2.36369 3.70171 0
M  V30 3102 H 285.48 3.47492 2.45213 0
M  V30 3103 N 283.795 -0.628877 1.44509 0
M  V30 3104 C 285.206 -1.21054 1.42137 0
M  V30 3105 C 285.557 -1.95715 0.137881 0
M  V30 3106 O 284.682 -2.02554 -0.761645 0
M  V30 3107 C 285.277 -2.20189 2.57493 0
M  V30 3108 C 283.836 -2.73777 2.58308 0
M  V30 3109 C 282.983 -1.48813 2.33987 0
M  V30 3110 H 285.934 -0.41942 1.53057 0
M  V30 3111 H 285.955 -3.02833 2.30375 0
M  V30 3112 H 285.467 -1.6582 3.50892 0
M  V30 3113 H 283.568 -3.32142 1.68856 0
M  V30 3114 H 283.681 -3.19662 3.56865 0
M  V30 3115 H 282.045 -1.77024 1.83124 0
M  V30 3116 H 282.828 -0.963442 3.29504 0
M  V30 3117 N 285.273 -1.31445 -0.869486 0
M  V30 3118 C 286.236 -1.19094 -1.9583 0
M  V30 3119 C 287.236 -0.117906 -1.60367 0
M  V30 3120 O 288.426 -0.367208 -1.70286 0
M  V30 3121 C 285.558 -0.828165 -3.30688 0
M  V30 3122 H 286.751 -2.15842 -2.08212 0
M  V30 3123 H 284.304 -1.15063 -1.05784 0
M  V30 3124 H 285.039 0.138142 -3.24006 0
M  V30 3125 H 284.824 -1.6038 -3.578 0
M  V30 3126 H 286.314 -0.765658 -4.10521 0
M  V30 3127 N 286.751 1.08385 -1.14413 0
M  V30 3128 C 287.997 1.81044 -0.913834 0
M  V30 3129 C 288.33 1.86004 0.558209 0
M  V30 3130 O 287.605 1.33606 1.4135 0
M  V30 3131 C 287.888 3.26648 -1.51569 0
M  V30 3132 C 287.741 3.29895 -3.0576 0
M  V30 3133 C 289.06 4.23629 -1.19273 0
M  V30 3134 H 286.179 0.65727 -0.333414 0
M  V30 3135 H 288.821 1.26896 -1.41412 0
M  V30 3136 H 286.971 3.72889 -1.09023 0
M  V30 3137 H 288.643 2.91977 -3.57137 0
M  V30 3138 H 286.886 2.69163 -3.40197 0
M  V30 3139 H 287.557 4.32516 -3.42977 0
M  V30 3140 H 290.033 3.85727 -1.56057 0
M  V30 3141 H 288.909 5.23822 -1.64017 0
M  V30 3142 H 289.17 4.41968 -0.108068 0
M  V30 3143 N 288.23 0.939286 1.26551 0
M  V30 3144 C 289.646 0.641304 1.46149 0
M  V30 3145 C 289.846 -0.805964 1.84679 0
M  V30 3146 O 288.902 -1.58278 1.96734 0
M  V30 3147 C 290.215 1.6011 2.54529 0
M  V30 3148 C 291.763 1.6106 2.68382 0
M  V30 3149 C 292.238 2.55765 3.79932 0
M  V30 3150 N 293.729 2.5404 3.87322 0
M  V30 3151 C 294.464 3.24004 4.73085 0
M  V30 3152 N 293.96 4.03388 5.63249 0
M  V30 3153 N 295.753 3.12965 4.66914 0
M  V30 3154 H 287.904 1.87478 0.998285 0
M  V30 3155 H 290.167 0.805559 0.499779 0
M  V30 3156 H 289.873 2.63412 2.33039 0
M  V30 3157 H 289.747 1.35171 3.52149 0
M  V30 3158 H 292.134 0.584835 2.89247 0
M  V30 3159 H 292.215 1.90053 1.71212 0
M  V30 3160 H 291.859 3.58458 3.5982 0
M  V30 3161 H 291.789 2.24063 4.76554 0
M  V30 3162 H 294.28 1.96396 3.22858 0
M  V30 3163 H 294.593 4.5373 6.25579 0
M  V30 3164 H 292.938 4.07489 5.63008 0
M  V30 3165 H 296.129 2.50432 3.95476 0
M  V30 3166 H 296.302 3.67759 5.33533 0
M  V30 3167 N 289.708 -1.40897 0.706093 0
M  V30 3168 C 290.64 -2.29199 0.00815776 0
M  V30 3169 C 291.653 -1.45336 -0.733582 0
M  V30 3170 O 292.842 -1.68727 -0.582537 0
M  V30 3171 C 289.942 -3.23417 -1.01265 0
M  V30 3172 C 289.115 -4.36089 -0.338387 0
M  V30 3173 C 288.174 -5.10811 -1.26326 0
M  V30 3174 O 287.2 -5.64215 -0.751651 0
M  V30 3175 N 288.402 -5.19269 -2.595 0
M  V30 3176 H 291.167 -2.89738 0.766297 0
M  V30 3177 H 288.728 -1.52164 0.55296 0
M  V30 3178 H 290.72 -3.70276 -1.63334 0
M  V30 3179 H 289.29 -2.64112 -1.67223 0
M  V30 3180 H 288.51 -3.91479 0.462352 0
M  V30 3181 H 289.798 -5.08634 0.130031 0
M  V30 3182 H 289.196 -4.77347 -3.03573 0
M  V30 3183 H 287.753 -5.69667 -3.16737 0
M  V30 3184 N 291.186 -0.45159 -1.50991 0
M  V30 3185 C 292.602 -0.104647 -1.59257 0
M  V30 3186 C 292.802 1.38728 -1.4614 0
M  V30 3187 O 291.858 2.15866 -1.30989 0
M  V30 3188 C 293.171 -0.637468 -2.93865 0
M  V30 3189 C 294.719 -0.599166 -3.07212 0
M  V30 3190 C 295.194 -1.1092 -4.44366 0
M  V30 3191 N 296.685 -1.06778 -4.50725 0
M  V30 3192 C 297.42 -1.43314 -5.55201 0
M  V30 3193 N 296.916 -1.87204 -6.67028 0
M  V30 3194 N 298.709 -1.3504 -5.45638 0
M  V30 3195 H 290.86 -1.42214 -1.57762 0
M  V30 3196 H 293.123 -0.586921 -0.744465 0
M  V30 3197 H 292.829 -1.68187 -3.08879 0
M  V30 3198 H 292.703 -0.0702139 -3.77135 0
M  V30 3199 H 295.09 0.436277 -2.91857 0
M  V30 3200 H 295.171 -1.20299 -2.25747 0
M  V30 3201 H 294.815 -2.14318 -4.60467 0
M  V30 3202 H 294.745 -0.481773 -5.24392 0
M  V30 3203 H 297.236 -0.745643 -3.70471 0
M  V30 3204 H 297.549 -2.13282 -7.42786 0
M  V30 3205 H 295.894 -1.91142 -6.68199 0
M  V30 3206 H 299.085 -1.00607 -4.57161 0
M  V30 3207 H 299.258 -1.63841 -6.26945 0
M  V30 3208 N 292.664 1.56529 -0.183458 0
M  V30 3209 C 293.91 1.97537 0.459036 0
M  V30 3210 C 294.243 1.06989 1.62071 0
M  V30 3211 O 293.518 0.11948 1.94133 0
M  V30 3212 C 293.801 3.47874 0.930368 0
M  V30 3213 C 293.654 4.492 -0.232317 0
M  V30 3214 C 294.973 4.01612 1.79989 0
M  V30 3215 H 292.092 0.718204 0.165383 0
M  V30 3216 H 294.734 1.88042 -0.272038 0
M  V30 3217 H 292.884 3.56095 1.55333 0
M  V30 3218 H 294.556 4.53027 -0.86972 0
M  V30 3219 H 292.799 4.24657 -0.885928 0
M  V30 3220 H 293.47 5.51823 0.139796 0
M  V30 3221 H 295.946 3.96097 1.27461 0
M  V30 3222 H 294.822 5.07195 2.09867 0
M  V30 3223 H 295.083 3.46163 2.74998 0
M  V30 3224 N 294.142 -0.090211 1.57342 0
M  V30 3225 C 295.391 -0.791531 1.8552 0
M  V30 3226 C 295.704 -1.79659 0.773441 0
M  V30 3227 O 296.91 -2.54616 0.942497 0
M  V30 3228 C 295.366 -1.45856 3.2902 0
M  V30 3229 C 294.974 -0.493017 4.45279 0
M  V30 3230 C 296.718 -2.14332 3.66418 0
M  V30 3231 C 294.625 -1.16491 5.79814 0
M  V30 3232 H 293.555 -0.299356 0.692027 0
M  V30 3233 H 296.206 -0.0445343 1.83446 0
M  V30 3234 H 294.588 -2.25318 3.2565 0
M  V30 3235 H 295.762 0.270464 4.60006 0
M  V30 3236 H 294.077 0.0863061 4.16311 0
M  V30 3237 H 296.674 -2.65344 4.64216 0
M  V30 3238 H 297.017 -2.93447 2.95287 0
M  V30 3239 H 297.55 -1.41724 3.71698 0
M  V30 3240 H 294.289 -0.41447 6.54188 0
M  V30 3241 H 293.809 -1.8997 5.68921 0
M  V30 3242 H 295.488 -1.69001 6.24538 0
M  V30 3243 N 295.62 -1.53406 -0.361157 0
M  V30 3244 C 296.53 -1.83122 -1.4664 0
M  V30 3245 C 297.546 -0.719943 -1.58407 0
M  V30 3246 O 298.722 -1.01046 -1.74218 0
M  V30 3247 C 295.787 -2.01891 -2.81853 0
M  V30 3248 C 294.848 -3.25784 -2.79577 0
M  V30 3249 C 294.081 -3.43648 -4.0834 0
M  V30 3250 O 294.304 -2.65714 -5.0473 0
M  V30 3251 O 293.238 -4.37018 -4.13883 0
M  V30 3252 H 297.064 -2.7703 -1.24451 0
M  V30 3253 H 294.649 -1.38841 -0.551678 0
M  V30 3254 H 296.531 -2.15782 -3.61962 0
M  V30 3255 H 295.206 -1.11173 -3.0401 0
M  V30 3256 H 294.113 -3.17312 -1.98151 0
M  V30 3257 H 295.446 -4.16439 -2.62373 0
M  V30 3258 N 297.098 0.621204 -1.44841 0
M  V30 3259 C 298.008 1.7612 -1.5498 0
M  V30 3260 C 299.024 1.68477 -0.434927 0
M  V30 3261 O 300.2 1.89076 -0.693693 0
M  V30 3262 C 297.265 3.1254 -1.50065 0
M  V30 3263 C 296.326 3.31741 -2.72482 0
M  V30 3264 C 295.559 4.61653 -2.67792 0
M  V30 3265 O 295.782 5.431 -1.74352 0
M  V30 3266 O 294.716 4.83271 -3.58794 0
M  V30 3267 H 298.542 1.70518 -2.51311 0
M  V30 3268 H 296.127 0.783643 -1.27198 0
M  V30 3269 H 298.009 3.93844 -1.49882 0
M  V30 3270 H 296.684 3.18663 -0.568806 0
M  V30 3271 H 295.591 2.50077 -2.7823 0
M  V30 3272 H 296.924 3.30486 -3.64746 0
M  V30 3273 N 298.576 1.31904 0.862503 0
M  V30 3274 C 299.539 1.20131 1.95195 0
M  V30 3275 C 300.539 0.126409 1.60302 0
M  V30 3276 O 301.729 0.376234 1.70089 0
M  V30 3277 C 298.861 0.845691 3.30244 0
M  V30 3278 H 300.054 2.16943 2.07064 0
M  V30 3279 H 297.607 1.15622 1.05172 0
M  V30 3280 H 298.342 -0.120957 3.24074 0
M  V30 3281 H 298.127 1.62276 3.56944 0
M  V30 3282 H 299.617 0.787418 4.10109 0
M  V30 3283 N 300.054 -1.07777 1.14986 0
M  V30 3284 C 301.001 -2.14867 0.842672 0
M  V30 3285 C 301.971 -1.6486 -0.202552 0
M  V30 3286 O 303.156 -1.90668 -0.0710568 0
M  V30 3287 C 300.296 -3.43486 0.333363 0
M  V30 3288 C 299.409 -4.07306 1.43965 0
M  V30 3289 C 298.544 -5.23744 0.886914 0
M  V30 3290 C 297.583 -5.79517 1.97043 0
M  V30 3291 N 296.72 -6.87291 1.4344 0
M  V30 3292 H 301.56 -2.40485 1.75986 0
M  V30 3293 H 299.097 -1.1801 0.878179 0
M  V30 3294 H 301.055 -4.17195 0.0198163 0
M  V30 3295 H 299.685 -3.18133 -0.546916 0
M  V30 3296 H 298.737 -3.31293 1.86946 0
M  V30 3297 H 300.049 -4.44771 2.25788 0
M  V30 3298 H 299.203 -6.04419 0.525651 0
M  V30 3299 H 297.942 -4.87685 0.0377957 0
M  V30 3300 H 296.947 -4.97491 2.34057 0
M  V30 3301 H 298.172 -6.17632 2.82325 0
M  V30 3302 H 296.118 -6.5318 0.607567 0
M  V30 3303 H 296.035 -7.23617 2.18895 0
M  V30 3304 H 297.303 -7.71682 1.10124 0
M  V30 3305 N 301.532 -0.945985 -1.26051 0
M  V30 3306 C 302.76 -0.613025 -1.9761 0
M  V30 3307 C 303.175 0.813035 -1.70397 0
M  V30 3308 O 302.532 1.54274 -0.974979 0
M  V30 3309 C 302.583 -0.85159 -3.51326 0
M  V30 3310 O 302.304 -2.22157 -3.77595 0
M  V30 3311 C 303.805 -0.529831 -4.40122 0
M  V30 3312 H 301.025 -0.230593 -0.630133 0
M  V30 3313 H 303.569 -1.268 -1.60443 0
M  V30 3314 H 301.724 -0.243151 -3.86636 0
M  V30 3315 H 302.138 -2.2852 -4.721 0
M  V30 3316 H 303.612 -0.747348 -5.46917 0
M  V30 3317 H 304.089 0.535341 -4.35925 0
M  V30 3318 H 304.695 -1.11721 -4.10364 0
M  V30 3319 N 303.011 1.40521 -0.713556 0
M  V30 3320 C 303.974 2.29098 -0.0684347 0
M  V30 3321 C 304.974 1.45268 0.689472 0
M  V30 3322 O 306.164 1.66205 0.521677 0
M  V30 3323 C 303.296 3.28446 0.913024 0
M  V30 3324 H 304.489 2.87645 -0.84855 0
M  V30 3325 H 302.042 1.48809 -0.47809 0
M  V30 3326 H 302.777 2.74913 1.72027 0
M  V30 3327 H 302.562 3.90327 0.372472 0
M  V30 3328 H 304.052 3.94777 1.36165 0
M  V30 3329 N 304.489 0.459591 1.5075 0
M  V30 3330 C 305.736 -0.0993495 2.02256 0
M  V30 3331 C 306.064 -1.40751 1.34237 0
M  V30 3332 O 305.319 -1.90379 0.453228 0
M  V30 3333 C 305.618 -0.342866 3.55752 0
M  V30 3334 C 305.284 0.88218 4.42186 0
M  V30 3335 C 303.946 1.21808 4.65528 0
M  V30 3336 C 306.298 1.69837 4.92752 0
M  V30 3337 C 303.626 2.37045 5.36681 0
M  V30 3338 C 305.978 2.84192 5.65171 0
M  V30 3339 C 304.642 3.1821 5.8677 0
M  V30 3340 H 303.912 -0.0363545 0.740108 0
M  V30 3341 H 306.559 0.611329 1.8148 0
M  V30 3342 H 304.864 -1.13567 3.7498 0
M  V30 3343 H 306.561 -0.789121 3.93159 0
M  V30 3344 H 303.151 0.610467 4.2423 0
M  V30 3345 H 307.335 1.45205 4.74583 0
M  V30 3346 H 302.591 2.63689 5.51614 0
M  V30 3347 H 306.765 3.4779 6.03337 0
M  V30 3348 H 304.392 4.07613 6.41682 0
M  V30 3349 N 305.967 -1.56429 0.191757 0
M  V30 3350 C 306.897 -2.21937 -0.725696 0
M  V30 3351 C 307.878 -1.1814 -1.2238 0
M  V30 3352 O 309.063 -1.46636 -1.27325 0
M  V30 3353 C 306.193 -2.87611 -1.94672 0
M  V30 3354 C 305.147 -3.97623 -1.58366 0
M  V30 3355 C 304.473 -4.50446 -2.88102 0
M  V30 3356 C 305.773 -5.16197 -0.796133 0
M  V30 3357 H 307.467 -2.98861 -0.179606 0
M  V30 3358 H 305.013 -1.43749 -0.0849464 0
M  V30 3359 H 306.966 -3.3212 -2.59373 0
M  V30 3360 H 305.69 -2.08087 -2.51728 0
M  V30 3361 H 304.349 -3.53801 -0.960247 0
M  V30 3362 H 303.997 -3.67688 -3.43241 0
M  V30 3363 H 303.697 -5.24675 -2.64556 0
M  V30 3364 H 305.221 -4.97654 -3.53798 0
M  V30 3365 H 306.635 -5.57271 -1.34618 0
M  V30 3366 H 305.032 -5.96471 -0.658928 0
M  V30 3367 H 306.102 -4.84473 0.203478 0
M  V30 3368 N 307.445 0.0818655 -1.57387 0
M  V30 3369 C 308.375 1.09885 -2.06028 0
M  V30 3370 C 309.356 1.4098 -0.951774 0
M  V30 3371 O 310.541 1.50781 -1.22387 0
M  V30 3372 C 307.671 2.4151 -2.4958 0
M  V30 3373 C 306.625 2.24792 -3.64215 0
M  V30 3374 C 305.951 3.61712 -3.93787 0
M  V30 3375 C 307.251 1.67749 -4.94629 0
M  V30 3376 H 308.945 0.694128 -2.91243 0
M  V30 3377 H 306.491 0.332448 -1.4011 0
M  V30 3378 H 308.444 3.12939 -2.82219 0
M  V30 3379 H 307.168 2.83943 -1.61381 0
M  V30 3380 H 305.827 1.55807 -3.31843 0
M  V30 3381 H 305.475 4.01697 -3.02735 0
M  V30 3382 H 305.175 3.51368 -4.70971 0
M  V30 3383 H 306.699 4.34587 -4.28913 0
M  V30 3384 H 308.113 2.29032 -5.25564 0
M  V30 3385 H 306.51 1.68128 -5.76067 0
M  V30 3386 H 307.58 0.638059 -4.80684 0
M  V30 3387 N 308.923 1.53595 0.353017 0
M  V30 3388 C 309.871 1.81605 1.45335 0
M  V30 3389 C 310.865 0.685923 1.54892 0
M  V30 3390 O 312.071 0.869095 1.57628 0
M  V30 3391 H 308.446 0.575204 0.484401 0
M  V30 3392 H 310.417 2.73679 1.18921 0
M  V30 3393 C 309.166 2.03406 2.81995 0
M  V30 3394 H 308.489 2.89814 2.75405 0
M  V30 3395 H 309.929 2.26975 3.58132 0
M  V30 3396 C 308.388 0.816794 3.26849 0
M  V30 3397 O 308.918 0.0115856 4.01698 0
M  V30 3398 N 307.124 0.636682 2.8354 0
M  V30 3399 H 306.671 1.2931 2.22793 0
M  V30 3400 H 306.629 -0.176336 3.13905 0
M  V30 3401 N 310.401 -0.613514 1.45168 0
M  V30 3402 C 311.65 -1.36874 1.4815 0
M  V30 3403 C 311.963 -1.952 0.124982 0
M  V30 3404 O 313.169 -2.71481 0.0324176 0
M  V30 3405 C 311.625 -2.47905 2.60904 0
M  V30 3406 C 311.233 -1.96016 4.02842 0
M  V30 3407 C 312.977 -3.24965 2.73126 0
M  V30 3408 C 310.884 -3.04494 5.06988 0
M  V30 3409 H 309.814 -0.514428 0.551253 0
M  V30 3410 H 312.465 -0.658182 1.7129 0
M  V30 3411 H 310.847 -3.21618 2.31037 0
M  V30 3412 H 312.021 -1.29051 4.4236 0
M  V30 3413 H 310.336 -1.31719 3.95018 0
M  V30 3414 H 312.933 -4.05865 3.48106 0
M  V30 3415 H 313.276 -3.75588 1.79553 0
M  V30 3416 H 313.809 -2.5835 3.0249 0
M  V30 3417 H 310.548 -2.58795 6.0225 0
M  V30 3418 H 310.068 -3.70044 4.72046 0
M  V30 3419 H 311.747 -3.68976 5.31475 0
M  V30 3420 N 311.879 -1.3236 -0.855495 0
M  V30 3421 C 312.811 -1.17052 -1.97057 0
M  V30 3422 C 313.824 -0.10574 -1.62456 0
M  V30 3423 O 315.013 -0.354619 -1.74942 0
M  V30 3424 C 312.113 -0.769305 -3.30053 0
M  V30 3425 C 311.286 -1.9222 -3.929 0
M  V30 3426 C 310.345 -1.50466 -5.04228 0
M  V30 3427 O 309.371 -2.21655 -5.24269 0
M  V30 3428 N 310.573 -0.400209 -5.79119 0
M  V30 3429 H 313.338 -2.13103 -2.1073 0
M  V30 3430 H 310.899 -1.24885 -1.0303 0
M  V30 3431 H 312.891 -0.472407 -4.01933 0
M  V30 3432 H 311.461 0.100025 -3.1244 0
M  V30 3433 H 310.681 -2.38563 -3.13817 0
M  V30 3434 H 311.969 -2.69403 -4.31624 0
M  V30 3435 H 311.367 0.192319 -5.65373 0
M  V30 3436 H 309.924 -0.162912 -6.51596 0
M  V30 3437 N 313.357 1.07166 -1.15556 0
M  V30 3438 C 314.287 2.16403 -0.877046 0
M  V30 3439 C 315.268 1.69217 0.173111 0
M  V30 3440 O 316.453 1.94181 0.027084 0
M  V30 3441 C 313.583 3.45349 -0.367632 0
M  V30 3442 C 312.537 4.05995 -1.35468 0
M  V30 3443 C 311.863 5.30045 -0.704038 0
M  V30 3444 C 313.163 4.45804 -2.72132 0
M  V30 3445 H 314.857 2.39959 -1.79053 0
M  V30 3446 H 312.403 1.15325 -0.862331 0
M  V30 3447 H 314.356 4.21095 -0.160317 0
M  V30 3448 H 313.08 3.21385 0.581326 0
M  V30 3449 H 311.739 3.32296 -1.54839 0
M  V30 3450 H 311.387 5.02373 0.251128 0
M  V30 3451 H 311.087 5.71579 -1.36277 0
M  V30 3452 H 312.611 6.08495 -0.50654 0
M  V30 3453 H 314.025 5.12671 -2.56595 0
M  V30 3454 H 312.422 4.98296 -3.34397 0
M  V30 3455 H 313.492 3.57083 -3.28054 0
M  V30 3456 N 314.835 0.952656 1.25548 0
M  V30 3457 C 316.082 0.606373 1.93208 0
M  V30 3458 C 316.41 -0.85631 1.74636 0
M  V30 3459 O 315.665 -1.62951 1.08376 0
M  V30 3460 C 315.964 0.908818 3.45652 0
M  V30 3461 C 315.63 2.35722 3.84378 0
M  V30 3462 C 314.292 2.75312 3.9466 0
M  V30 3463 C 316.644 3.29793 4.03591 0
M  V30 3464 C 313.972 4.08047 4.21562 0
M  V30 3465 C 316.324 4.62138 4.31985 0
M  V30 3466 C 314.988 5.01528 4.40484 0
M  V30 3467 H 314.258 0.221888 0.706998 0
M  V30 3468 H 316.905 1.20132 1.49133 0
M  V30 3469 H 315.21 0.231456 3.91116 0
M  V30 3470 H 316.907 0.619498 3.96186 0
M  V30 3471 H 313.497 2.04017 3.76928 0
M  V30 3472 H 317.681 3.00397 3.95064 0
M  V30 3473 H 312.937 4.38212 4.26357 0
M  V30 3474 H 317.111 5.35012 4.45797 0
M  V30 3475 H 314.738 6.04406 4.61083 0
M  V30 3476 N 316.313 -1.40141 0.720998 0
M  V30 3477 C 317.223 -2.34486 0.0731031 0
M  V30 3478 C 318.239 -1.57587 -0.737723 0
M  V30 3479 O 319.415 -1.89949 -0.669429 0
M  V30 3480 C 316.48 -3.36528 -0.833656 0
M  V30 3481 C 315.541 -4.29298 -0.0121673 0
M  V30 3482 C 314.774 -5.26466 -0.875742 0
M  V30 3483 O 314.997 -5.29745 -2.11485 0
M  V30 3484 O 313.931 -6.01092 -0.31185 0
M  V30 3485 H 317.757 -2.9152 0.851444 0
M  V30 3486 H 315.342 -1.41427 0.481527 0
M  V30 3487 H 317.224 -3.99093 -1.35289 0
M  V30 3488 H 315.899 -2.81899 -1.59105 0
M  V30 3489 H 314.806 -3.70001 0.552262 0
M  V30 3490 H 316.139 -4.87094 0.707129 0
M  V30 3491 N 317.792 -0.46758 -1.50504 0
M  V30 3492 C 318.702 0.33382 -2.32213 0
M  V30 3493 C 319.718 0.999323 -1.42441 0
M  V30 3494 O 320.894 0.988068 -1.75497 0
M  V30 3495 C 317.959 1.4035 -3.17022 0
M  V30 3496 C 317.02 0.754961 -4.2261 0
M  V30 3497 C 316.253 1.77367 -5.03365 0
M  V30 3498 O 316.476 2.99976 -4.8515 0
M  V30 3499 O 315.41 1.34744 -5.86624 0
M  V30 3500 H 319.236 -0.334067 -3.01857 0
M  V30 3501 H 316.821 -0.229496 -1.47627 0
M  V30 3502 H 318.703 2.02318 -3.69656 0
M  V30 3503 H 317.378 2.05492 -2.5011 0
M  V30 3504 H 316.285 0.0964244 -3.73976 0
M  V30 3505 H 317.618 0.146545 -4.91982 0
M  V30 3506 N 319.27 1.56325 -0.20005 0
M  V30 3507 C 320.2 2.22318 0.713916 0
M  V30 3508 C 321.181 1.18788 1.21752 0
M  V30 3509 O 322.366 1.47309 1.26545 0
M  V30 3510 C 319.496 2.88639 1.93144 0
M  V30 3511 C 318.45 3.98457 1.56255 0
M  V30 3512 C 317.776 4.51967 2.85709 0
M  V30 3513 C 319.076 5.16612 0.768747 0
M  V30 3514 H 320.77 2.98952 0.163755 0
M  V30 3515 H 318.316 1.43792 0.0773219 0
M  V30 3516 H 320.269 3.33491 2.57608 0
M  V30 3517 H 318.993 2.09419 2.50621 0
M  V30 3518 H 317.652 3.54305 0.941471 0
M  V30 3519 H 317.3 3.69503 3.41287 0
M  V30 3520 H 317 5.26071 2.6177 0
M  V30 3521 H 318.524 4.99523 3.51154 0
M  V30 3522 H 319.938 5.57977 1.3166 0
M  V30 3523 H 318.335 5.96812 0.627286 0
M  V30 3524 H 319.405 4.84358 -0.229168 0
M  V30 3525 N 320.748 -0.0735177 1.57428 0
M  V30 3526 C 321.68 -1.11423 2.00294 0
M  V30 3527 C 322.693 -1.35084 0.908637 0
M  V30 3528 O 323.882 -1.33355 1.18654 0
M  V30 3529 C 320.982 -2.46548 2.32523 0
M  V30 3530 C 320.155 -2.42867 3.63778 0
M  V30 3531 C 319.214 -3.60087 3.83697 0
M  V30 3532 O 318.24 -3.41595 4.55304 0
M  V30 3533 N 319.442 -4.80372 3.25919 0
M  V30 3534 H 322.207 -0.749206 2.90184 0
M  V30 3535 H 319.768 -0.262195 1.59763 0
M  V30 3536 H 321.76 -3.23607 2.43024 0
M  V30 3537 H 320.33 -2.75059 1.48531 0
M  V30 3538 H 319.55 -1.51206 3.64047 0
M  V30 3539 H 320.838 -2.37506 4.49965 0
M  V30 3540 H 320.236 -4.983 2.67795 0
M  V30 3541 H 318.793 -5.54948 3.41871 0
M  V30 3542 N 322.226 -1.5378 -0.344866 0
M  V30 3543 C 323.136 -1.84667 -1.4469 0
M  V30 3544 C 324.152 -0.736704 -1.57635 0
M  V30 3545 O 325.328 -1.02888 -1.73136 0
M  V30 3546 C 322.393 -2.04869 -2.79696 0
M  V30 3547 C 321.454 -3.28731 -2.76106 0
M  V30 3548 C 320.687 -3.4796 -4.04673 0
M  V30 3549 O 320.91 -2.71052 -5.01883 0
M  V30 3550 O 319.844 -4.41383 -4.09224 0
M  V30 3551 H 323.67 -2.78334 -1.21506 0
M  V30 3552 H 321.255 -1.39418 -0.536921 0
M  V30 3553 H 323.137 -2.19609 -3.59652 0
M  V30 3554 H 321.812 -1.14391 -3.02814 0
M  V30 3555 H 320.719 -3.19396 -1.94774 0
M  V30 3556 H 322.052 -4.19198 -2.57941 0
M  V30 3557 N 323.704 0.605807 -1.45491 0
M  V30 3558 C 324.634 1.72709 -1.57143 0
M  V30 3559 C 325.615 1.6476 -0.422884 0
M  V30 3560 O 326.8 1.83132 -0.646247 0
M  V30 3561 C 323.93 3.11316 -1.53948 0
M  V30 3562 C 322.884 3.34077 -2.67537 0
M  V30 3563 C 322.21 4.72975 -2.49397 0
M  V30 3564 C 323.51 3.24158 -4.09535 0
M  V30 3565 H 325.204 1.63214 -2.51001 0
M  V30 3566 H 322.75 0.78379 -1.208 0
M  V30 3567 H 324.703 3.89557 -1.60696 0
M  V30 3568 H 323.427 3.21655 -0.566205 0
M  V30 3569 H 322.086 2.58227 -2.6022 0
M  V30 3570 H 321.734 4.8005 -1.50205 0
M  V30 3571 H 321.434 4.8916 -3.25571 0
M  V30 3572 H 322.958 5.53414 -2.58002 0
M  V30 3573 H 324.372 3.92271 -4.18086 0
M  V30 3574 H 322.769 3.51872 -4.86113 0
M  V30 3575 H 323.839 2.2157 -4.31317 0
M  V30 3576 N 325.182 1.32811 0.848464 0
M  V30 3577 C 326.112 1.24882 1.97299 0
M  V30 3578 C 327.093 0.131357 1.69592 0
M  V30 3579 O 328.278 0.319553 1.91553 0
M  V30 3580 C 325.408 0.97746 3.33261 0
M  V30 3581 C 324.362 2.05682 3.75338 0
M  V30 3582 C 323.688 1.63777 5.09 0
M  V30 3583 C 324.988 3.47254 3.90144 0
M  V30 3584 H 326.682 2.18966 2.04191 0
M  V30 3585 H 324.228 1.05413 0.981029 0
M  V30 3586 H 326.181 0.908513 4.1149 0
M  V30 3587 H 324.905 0.000980011 3.266 0
M  V30 3588 H 323.564 2.11603 2.99366 0
M  V30 3589 H 323.212 0.648569 4.98801 0
M  V30 3590 H 322.912 2.36 5.38124 0
M  V30 3591 H 324.436 1.5833 5.89715 0
M  V30 3592 H 325.85 3.43888 4.58709 0
M  V30 3593 H 324.247 4.1788 4.30693 0
M  V30 3594 H 325.317 3.86462 2.92874 0
M  V30 3595 N 326.66 -1.06551 1.16123 0
M  V30 3596 C 327.888 -1.83005 0.965237 0
M  V30 3597 C 328.303 -1.82423 -0.486542 0
M  V30 3598 O 327.66 -1.24152 -1.33763 0
M  V30 3599 C 327.711 -3.29733 1.48183 0
M  V30 3600 O 327.432 -3.30416 2.87674 0
M  V30 3601 C 328.933 -4.22926 1.32848 0
M  V30 3602 H 326.153 -0.577118 0.342309 0
M  V30 3603 H 328.697 -1.3445 1.54089 0
M  V30 3604 H 326.852 -3.75609 0.948517 0
M  V30 3605 H 327.266 -4.22149 3.11272 0
M  V30 3606 H 328.74 -5.23916 1.73827 0
M  V30 3607 H 329.217 -4.38346 0.273692 0
M  V30 3608 H 329.823 -3.82894 1.85127 0
M  V30 3609 N 328.138 -0.959301 -1.25041 0
M  V30 3610 C 329.088 -0.453888 -2.23436 0
M  V30 3611 C 330.072 0.459461 -1.542 0
M  V30 3612 O 331.264 0.291752 -1.74579 0
M  V30 3613 C 328.393 0.262667 -3.42294 0
M  V30 3614 C 327.479 -0.669022 -4.1879 0
M  V30 3615 N 327.87 -1.80267 -4.72586 0
M  V30 3616 C 326.168 -0.47814 -4.4343 0
M  V30 3617 C 326.869 -2.38475 -5.3057 0
M  V30 3618 N 325.845 -1.67078 -5.17287 0
M  V30 3619 H 329.647 -1.319 -2.6264 0
M  V30 3620 H 327.161 -0.817358 -1.40332 0
M  V30 3621 H 329.158 0.641911 -4.11929 0
M  V30 3622 H 327.818 1.12432 -3.04613 0
M  V30 3623 H 328.829 -2.18442 -4.69578 0
M  V30 3624 H 325.506 0.340249 -4.16111 0
M  V30 3625 H 326.896 -3.34094 -5.8295 0
M  V30 3626 N 329.616 1.39756 -0.72842 0
M  V30 3627 C 330.893 1.94574 -0.200079 0
M  V30 3628 C 331.273 1.66569 1.29684 0
M  V30 3629 O 330.621 0.990326 2.05924 0
M  V30 3630 C 330.831 3.45004 -0.526608 0
M  V30 3631 C 332.179 4.21965 -0.472318 0
M  V30 3632 O 333.203 3.53173 -0.463413 0
M  V30 3633 O 332.062 5.44552 -0.461075 0
M  V30 3634 H 329.156 0.826289 -0.0342851 0
M  V30 3635 H 331.702 1.49293 -0.806829 0
M  V30 3636 H 330.474 3.58796 -1.56144 0
M  V30 3637 H 330.097 3.97449 0.109449 0
M  V30 3638 N 331.094 0.475555 1.50254 0
M  V30 3639 C 332.322 -0.0754493 2.06762 0
M  V30 3640 C 332.737 -1.33111 1.33891 0
M  V30 3641 O 332.094 -1.77846 0.40952 0
M  V30 3642 C 332.145 -0.359008 3.59713 0
M  V30 3643 O 331.866 0.846851 4.29837 0
M  V30 3644 C 333.367 -0.956484 4.32858 0
M  V30 3645 H 330.587 0.00907525 0.670939 0
M  V30 3646 H 333.131 0.665618 1.93364 0
M  V30 3647 H 331.286 -1.05001 3.72899 0
M  V30 3648 H 331.7 0.594162 5.21124 0
M  V30 3649 H 333.174 -1.10463 5.40834 0
M  V30 3650 H 333.651 -1.94775 3.93649 0
M  V30 3651 H 334.257 -0.303723 4.24214 0
M  V30 3652 N 332.573 -1.56217 0.208337 0
M  V30 3653 C 333.52 -2.19699 -0.707192 0
M  V30 3654 C 334.49 -1.14836 -1.20008 0
M  V30 3655 O 335.675 -1.4314 -1.26157 0
M  V30 3656 C 332.815 -2.87061 -1.91546 0
M  V30 3657 C 331.928 -4.06483 -1.46271 0
M  V30 3658 C 331.063 -4.61665 -2.62752 0
M  V30 3659 C 330.102 -5.73417 -2.14147 0
M  V30 3660 N 329.239 -6.22948 -3.23853 0
M  V30 3661 H 334.079 -2.97575 -0.159111 0
M  V30 3662 H 331.616 -1.46948 -0.0667874 0
M  V30 3663 H 333.574 -3.24294 -2.62468 0
M  V30 3664 H 332.204 -2.11725 -2.43664 0
M  V30 3665 H 331.256 -3.74825 -0.648886 0
M  V30 3666 H 332.568 -4.87271 -1.06622 0
M  V30 3667 H 331.722 -5.01272 -3.41776 0
M  V30 3668 H 330.461 -3.80013 -3.05682 0
M  V30 3669 H 329.466 -5.33326 -1.33581 0
M  V30 3670 H 330.691 -6.56897 -1.72232 0
M  V30 3671 H 328.637 -5.44213 -3.6629 0
M  V30 3672 H 328.554 -6.98823 -2.88414 0
M  V30 3673 H 329.822 -6.6721 -4.03052 0
M  V30 3674 N 334.051 0.0651679 -1.57465 0
M  V30 3675 C 335.328 0.79644 -1.78651 0
M  V30 3676 C 335.708 1.95454 -0.797566 0
M  V30 3677 O 335.056 2.27882 0.167946 0
M  V30 3678 C 335.266 1.26322 -3.25337 0
M  V30 3679 C 336.614 1.6939 -3.89348 0
M  V30 3680 O 337.638 1.35872 -3.29268 0
M  V30 3681 O 336.497 2.31471 -4.95059 0
M  V30 3682 H 333.591 0.382157 -0.733407 0
M  V30 3683 H 336.137 0.0447311 -1.69641 0
M  V30 3684 H 334.909 0.434859 -3.88876 0
M  V30 3685 H 334.532 2.07604 -3.39096 0
M  V30 3686 N 335.529 1.53961 0.336706 0
M  V30 3687 C 336.461 1.78751 1.4346 0
M  V30 3688 C 337.474 0.669019 1.48418 0
M  V30 3689 O 338.663 0.945884 1.51378 0
M  V30 3690 C 335.763 1.87844 2.82078 0
M  V30 3691 C 334.936 3.17854 3.00479 0
M  V30 3692 C 333.995 3.17816 4.19379 0
M  V30 3693 O 333.021 3.91511 4.13168 0
M  V30 3694 N 334.223 2.40669 5.2826 0
M  V30 3695 H 336.988 2.73493 1.22563 0
M  V30 3696 H 334.549 1.53096 0.526625 0
M  V30 3697 H 336.541 1.85261 3.59806 0
M  V30 3698 H 335.111 1.00257 2.96086 0
M  V30 3699 H 334.331 3.33504 2.10163 0
M  V30 3700 H 335.619 4.03718 3.0966 0
M  V30 3701 H 335.017 1.8036 5.36178 0
M  V30 3702 H 333.574 2.43877 6.04456 0
M  V30 3703 N 337.007 -0.598083 1.45811 0
M  V30 3704 C 338.232 -1.3881 1.54099 0
M  V30 3705 C 338.657 -1.8726 0.177578 0
M  V30 3706 O 338.015 -1.6069 -0.839541 0
M  V30 3707 C 338.063 -2.56217 2.53743 0
M  V30 3708 O 337.167 -3.5716 2.06182 0
M  V30 3709 H 336.508 -0.414024 0.519115 0
M  V30 3710 H 339.038 -0.726971 1.91249 0
M  V30 3711 H 339.048 -3.03337 2.72856 0
M  V30 3712 H 337.723 -2.20303 3.5276 0
M  V30 3713 H 336.3 -3.16624 1.96987 0
M  V30 3714 N 338.485 -1.33259 -0.841409 0
M  V30 3715 C 339.896 -1.22066 -1.41269 0
M  V30 3716 C 340.247 0.161479 -1.95534 0
M  V30 3717 O 339.372 1.06094 -1.88608 0
M  V30 3718 C 339.967 -2.20996 -2.568 0
M  V30 3719 C 338.526 -2.13649 -3.09888 0
M  V30 3720 C 337.673 -2.08623 -1.82679 0
M  V30 3721 H 340.624 -1.44895 -0.647395 0
M  V30 3722 H 340.645 -1.81621 -3.34356 0
M  V30 3723 H 340.157 -3.2158 -2.17274 0
M  V30 3724 H 338.258 -1.16359 -3.53965 0
M  V30 3725 H 338.371 -3.04079 -3.70234 0
M  V30 3726 H 336.735 -1.54061 -2.02824 0
M  V30 3727 H 337.518 -3.1101 -1.45353 0
M  V30 3728 N 339.963 1.05934 -1.16686 0
M  V30 3729 C 341.188 1.83029 -0.975455 0
M  V30 3730 C 341.613 1.82096 0.471452 0
M  V30 3731 O 340.971 1.22443 1.33706 0
M  V30 3732 C 341.019 3.27372 -1.51195 0
M  V30 3733 O 340.123 4.06054 -0.720701 0
M  V30 3734 H 339.464 0.566194 -0.346872 0
M  V30 3735 H 341.994 1.33541 -1.55009 0
M  V30 3736 H 342.004 3.78186 -1.53099 0
M  V30 3737 H 340.679 3.27366 -2.56523 0
M  V30 3738 H 339.256 3.64812 -0.772458 0
M  V30 3739 N 341.441 0.965919 1.2453 0
M  V30 3740 C 342.857 0.67216 1.44756 0
M  V30 3741 C 343.057 -0.766609 1.86347 0
M  V30 3742 O 342.113 -1.5407 2.00047 0
M  V30 3743 C 343.426 1.65473 2.51076 0
M  V30 3744 C 344.974 1.66716 2.64905 0
M  V30 3745 C 345.449 2.63766 3.74421 0
M  V30 3746 N 346.94 2.62198 3.81846 0
M  V30 3747 C 347.675 3.33966 4.66106 0
M  V30 3748 N 347.171 4.15245 5.54566 0
M  V30 3749 N 348.964 3.22799 4.60171 0
M  V30 3750 H 341.115 1.89553 0.958293 0
M  V30 3751 H 343.378 0.815979 0.482579 0
M  V30 3752 H 343.084 2.68296 2.27399 0
M  V30 3753 H 342.958 1.4261 3.49202 0
M  V30 3754 H 345.345 0.646057 2.87941 0
M  V30 3755 H 345.426 1.93642 1.67142 0
M  V30 3756 H 345.07 3.6601 3.52135 0
M  V30 3757 H 345 2.34121 4.71694 0
M  V30 3758 H 347.491 2.032 3.18619 0
M  V30 3759 H 347.804 4.66898 6.15814 0
M  V30 3760 H 346.149 4.1934 5.54237 0
M  V30 3761 H 349.34 2.58764 3.90075 0
M  V30 3762 H 349.513 3.78994 5.25612 0
M  V30 3763 N 342.919 -1.39368 0.735821 0
M  V30 3764 C 343.882 -2.2896 0.104874 0
M  V30 3765 C 344.882 -1.46347 -0.666274 0
M  V30 3766 O 346.072 -1.67014 -0.49517 0
M  V30 3767 C 343.204 -3.29857 -0.860656 0
M  V30 3768 H 344.397 -2.86259 0.894205 0
M  V30 3769 H 341.95 -1.48029 0.501704 0
M  V30 3770 H 342.685 -2.77615 -1.67631 0
M  V30 3771 H 342.47 -3.9087 -0.310327 0
M  V30 3772 H 343.96 -3.96893 -1.29867 0
M  V30 3773 N 344.397 -0.483516 -1.5 0
M  V30 3774 C 345.808 -0.0314176 -1.86674 0
M  V30 3775 C 346.159 1.37728 -1.39733 0
M  V30 3776 O 345.284 2.02327 -0.767635 0
M  V30 3777 C 345.879 -0.0502376 -3.38763 0
M  V30 3778 C 344.438 0.346442 -3.74802 0
M  V30 3779 C 343.585 -0.430366 -2.7394 0
M  V30 3780 H 346.536 -0.697182 -1.42566 0
M  V30 3781 H 346.557 0.749116 -3.73053 0
M  V30 3782 H 346.069 -1.07563 -3.72897 0
M  V30 3783 H 344.17 1.37572 -3.46273 0
M  V30 3784 H 344.283 0.0391486 -4.79084 0
M  V30 3785 H 342.647 0.117557 -2.54429 0
M  V30 3786 H 343.43 -1.4555 -3.10918 0
M  V30 3787 N 345.875 1.56104 -0.216619 0
M  V30 3788 C 347.123 1.97781 0.415593 0
M  V30 3789 C 347.444 1.10536 1.60645 0
M  V30 3790 O 346.714 0.181303 1.95059 0
M  V30 3791 H 345.294 0.730415 0.156534 0
M  V30 3792 H 347.956 1.92445 -0.308366 0
M  V30 3793 H 347.052 3.03072 0.74525 0
M  V30 3794 N 347.353 -0.0568162 1.57498 0
M  V30 3795 C 348.283 -1.06593 2.0775 0
M  V30 3796 C 349.264 -1.39448 0.974082 0
M  V30 3797 O 350.449 -1.48815 1.24771 0
M  V30 3798 C 347.579 -2.37509 2.5339 0
M  V30 3799 C 346.533 -2.1897 3.67745 0
M  V30 3800 C 345.859 -3.55402 3.99492 0
M  V30 3801 C 347.159 -1.59859 4.97235 0
M  V30 3802 H 348.853 -0.647706 2.9231 0
M  V30 3803 H 346.399 -0.310116 1.40621 0
M  V30 3804 H 348.352 -3.08409 2.87162 0
M  V30 3805 H 347.076 -2.8134 1.65878 0
M  V30 3806 H 345.735 -1.50508 3.3428 0
M  V30 3807 H 345.383 -3.9683 3.09088 0
M  V30 3808 H 345.083 -3.43831 4.76502 0
M  V30 3809 H 346.607 -4.27708 4.35773 0
M  V30 3810 H 348.021 -2.20642 5.29141 0
M  V30 3811 H 346.418 -1.58942 5.78669 0
M  V30 3812 H 347.488 -0.561506 4.81638 0
M  V30 3813 N 348.832 -1.54138 -0.328536 0
M  V30 3814 C 350.248 -1.44736 -0.672574 0
M  V30 3815 C 350.448 -0.616217 -1.91846 0
M  V30 3816 O 349.504 -0.113067 -2.52247 0
M  V30 3817 C 350.817 -2.884 -0.851217 0
M  V30 3818 C 352.365 -2.98271 -0.948877 0
M  V30 3819 C 352.84 -4.43074 -1.15973 0
M  V30 3820 N 354.331 -4.46665 -1.22658 0
M  V30 3821 C 355.066 -5.55857 -1.40751 0
M  V30 3822 N 354.562 -6.75026 -1.5592 0
M  V30 3823 N 356.355 -5.43495 -1.4342 0
M  V30 3824 H 348.506 -2.06661 0.490421 0
M  V30 3825 H 350.769 -0.934812 0.157579 0
M  V30 3826 H 350.475 -3.51699 -0.00704236 0
M  V30 3827 H 350.349 -3.34225 -1.74853 0
M  V30 3828 H 352.736 -2.35102 -1.78356 0
M  V30 3829 H 352.817 -2.55785 -0.0281435 0
M  V30 3830 H 352.461 -5.06827 -0.329915 0
M  V30 3831 H 352.391 -4.83165 -2.09426 0
M  V30 3832 H 354.882 -3.60797 -1.124 0
M  V30 3833 H 355.195 -7.54004 -1.69404 0
M  V30 3834 H 353.54 -6.77944 -1.53027 0
M  V30 3835 H 356.731 -4.49349 -1.31162 0
M  V30 3836 H 356.904 -6.28649 -1.57178 0
M  V30 3837 N 350.31 0.590341 -1.46126 0
M  V30 3838 C 351.242 1.71427 -1.52136 0
M  V30 3839 C 352.255 1.57542 -0.41042 0
M  V30 3840 O 353.444 1.65106 -0.678389 0
M  V30 3841 C 350.544 3.09605 -1.37834 0
M  V30 3842 C 349.717 3.49566 -2.62912 0
M  V30 3843 C 348.776 4.66773 -2.42918 0
M  V30 3844 O 347.802 4.73019 -3.1661 0
M  V30 3845 N 349.004 5.61161 -1.4859 0
M  V30 3846 H 351.769 1.66728 -2.49042 0
M  V30 3847 H 349.33 0.776113 -1.42085 0
M  V30 3848 H 351.322 3.85796 -1.22243 0
M  V30 3849 H 349.892 3.08714 -0.491393 0
M  V30 3850 H 349.112 2.63158 -2.93499 0
M  V30 3851 H 350.4 3.73028 -3.46017 0
M  V30 3852 H 349.798 5.58844 -0.87808 0
M  V30 3853 H 348.355 6.36814 -1.38965 0
M  V30 3854 N 351.788 1.33704 0.83433 0
M  V30 3855 C 353.204 1.13137 1.12571 0
M  V30 3856 C 353.404 -0.0747261 2.01361 0
M  V30 3857 O 352.46 -0.753647 2.4099 0
M  V30 3858 C 353.773 2.42105 1.78342 0
M  V30 3859 C 355.321 2.48054 1.90888 0
M  V30 3860 C 355.796 3.76995 2.60075 0
M  V30 3861 N 357.287 3.78092 2.67584 0
M  V30 3862 C 358.022 4.74574 3.21818 0
M  V30 3863 N 357.518 5.81434 3.76705 0
M  V30 3864 N 359.311 4.62044 3.20112 0
M  V30 3865 H 351.462 2.11 0.243489 0
M  V30 3866 H 353.725 0.932532 0.17055 0
M  V30 3867 H 353.431 3.30391 1.20561 0
M  V30 3868 H 353.305 2.54594 2.7832 0
M  V30 3869 H 355.692 1.60215 2.47821 0
M  V30 3870 H 355.773 2.39502 0.898459 0
M  V30 3871 H 355.417 4.65219 2.03799 0
M  V30 3872 H 355.347 3.82825 3.61597 0
M  V30 3873 H 357.838 3.00865 2.28667 0
M  V30 3874 H 358.151 6.51084 4.16305 0
M  V30 3875 H 356.496 5.85163 3.7498 0
M  V30 3876 H 359.687 3.77716 2.76493 0
M  V30 3877 H 359.86 5.37406 3.62076 0
M  V30 3878 N 353.266 -1.05314 1.17247 0
M  V30 3879 C 354.229 -2.112 0.890357 0
M  V30 3880 C 355.229 -1.60359 -0.118943 0
M  V30 3881 O 356.419 -1.73833 0.113086 0
M  V30 3882 C 353.551 -3.39266 0.333422 0
M  V30 3883 H 354.744 -2.37659 1.82916 0
M  V30 3884 H 352.297 -1.21538 0.982758 0
M  V30 3885 H 353.032 -3.18462 -0.612587 0
M  V30 3886 H 352.817 -3.77477 1.06082 0
M  V30 3887 H 354.307 -4.17315 0.154322 0
M  V30 3888 N 354.744 -0.972509 -1.24016 0
M  V30 3889 C 355.969 -0.654417 -1.96805 0
M  V30 3890 C 356.394 0.770398 -1.716 0
M  V30 3891 O 355.752 1.52361 -0.982647 0
M  V30 3892 C 355.8 -0.941031 -3.48105 0
M  V30 3893 O 354.904 -0.0289472 -4.1239 0
M  V30 3894 H 354.245 -0.24692 -0.616382 0
M  V30 3895 H 356.775 -1.30396 -1.57664 0
M  V30 3896 H 356.785 -0.87452 -3.98517 0
M  V30 3897 H 355.46 -1.97939 -3.65777 0
M  V30 3898 H 354.037 -0.149192 -3.72601 0
M  V30 3899 N 356.222 1.38976 -0.743202 0
M  V30 3900 C 357.17 2.32394 -0.0978389 0
M  V30 3901 C 358.164 1.53486 0.716824 0
M  V30 3902 O 359.37 1.69092 0.617088 0
M  V30 3903 H 355.745 0.75189 -0.0128402 0
M  V30 3904 H 357.716 2.84441 -0.901981 0
M  V30 3905 C 356.465 3.38629 0.789036 0
M  V30 3906 H 355.788 3.99432 0.171559 0
M  V30 3907 H 357.228 4.06426 1.20807 0
M  V30 3908 C 355.687 2.76347 1.92702 0
M  V30 3909 O 356.217 2.64836 3.02034 0
M  V30 3910 N 354.423 2.34311 1.71891 0
M  V30 3911 H 353.97 2.43873 0.829675 0
M  V30 3912 H 353.928 1.9298 2.48205 0
M  V30 3913 N 357.7 0.491464 1.49741 0
M  V30 3914 C 358.647 -0.292027 2.28945 0
M  V30 3915 C 359.617 -0.968973 1.34908 0
M  V30 3916 O 360.802 -0.97748 1.6386 0
M  V30 3917 C 357.942 -1.35617 3.17336 0
M  V30 3918 C 357.055 -0.691957 4.26422 0
M  V30 3919 C 356.19 -1.73572 5.02042 0
M  V30 3920 C 355.229 -1.05286 6.02977 0
M  V30 3921 N 354.366 -2.0404 6.71798 0
M  V30 3922 H 359.206 0.389654 2.95442 0
M  V30 3923 H 356.743 0.204003 1.45679 0
M  V30 3924 H 358.701 -1.98502 3.66951 0
M  V30 3925 H 357.331 -2.00674 2.52844 0
M  V30 3926 H 356.383 0.0499523 3.80367 0
M  V30 3927 H 357.695 -0.153946 4.98562 0
M  V30 3928 H 356.849 -2.43987 5.55478 0
M  V30 3929 H 355.588 -2.30757 4.29654 0
M  V30 3930 H 354.593 -0.334446 5.48782 0
M  V30 3931 H 355.818 -0.487636 6.77347 0
M  V30 3932 H 353.764 -2.60205 6.02187 0
M  V30 3933 H 353.681 -1.55279 7.39881 0
M  V30 3934 H 354.949 -2.73772 7.29842 0
M  V30 3935 N 359.178 -1.55987 0.224894 0
M  V30 3936 C 360.424 -1.98684 -0.406502 0
M  V30 3937 C 360.757 -1.11248 -1.59177 0
M  V30 3938 O 360.032 -0.170909 -1.93748 0
M  V30 3939 C 360.315 -3.50218 -0.837808 0
M  V30 3940 C 360.168 -4.48426 0.351332 0
M  V30 3941 C 361.487 -4.06243 -1.69278 0
M  V30 3942 H 358.606 -0.722337 -0.146283 0
M  V30 3943 H 361.248 -1.87255 0.321799 0
M  V30 3944 H 359.398 -3.60089 -1.45837 0
M  V30 3945 H 361.07 -4.50562 0.989526 0
M  V30 3946 H 359.313 -4.22159 0.998207 0
M  V30 3947 H 359.984 -5.52 0.00655905 0
M  V30 3948 H 362.46 -3.99337 -1.16914 0
M  V30 3949 H 361.336 -5.12581 -1.96346 0
M  V30 3950 H 361.597 -3.53332 -2.65723 0
M  V30 3951 N 360.656 0.0484629 -1.57525 0
M  V30 3952 C 361.588 1.08222 -2.02041 0
M  V30 3953 C 362.601 1.33621 -0.930012 0
M  V30 3954 O 363.79 1.3145 -1.20761 0
M  V30 3955 C 360.89 2.42818 -2.36416 0
M  V30 3956 C 360.063 2.37049 -3.67596 0
M  V30 3957 C 359.122 3.53937 -3.89378 0
M  V30 3958 O 358.148 3.34308 -4.60681 0
M  V30 3959 N 359.35 4.75126 -3.3352 0
M  V30 3960 H 362.115 0.702946 -2.9134 0
M  V30 3961 H 359.676 0.236745 -1.6016 0
M  V30 3962 H 361.668 3.197 -2.48141 0
M  V30 3963 H 360.238 2.72661 -1.52888 0
M  V30 3964 H 359.458 1.45395 -3.66407 0
M  V30 3965 H 360.746 2.30318 -4.53686 0
M  V30 3966 H 360.144 4.93976 -2.75688 0
M  V30 3967 H 358.701 5.49439 -3.50656 0
M  V30 3968 N 362.134 1.5431 0.320358 0
M  V30 3969 C 363.411 1.63322 1.07635 0
M  V30 3970 C 363.791 0.46912 2.05821 0
M  V30 3971 O 363.139 -0.536274 2.22118 0
M  V30 3972 C 363.349 3.00465 1.77544 0
M  V30 3973 C 364.697 3.56621 2.30449 0
M  V30 3974 O 365.721 3.02791 1.87606 0
M  V30 3975 O 364.58 4.5083 3.08892 0
M  V30 3976 H 361.674 0.661502 0.496331 0
M  V30 3977 H 364.22 1.66656 0.319992 0
M  V30 3978 H 362.992 3.76629 1.06143 0
M  V30 3979 H 362.615 3.00824 2.59982 0
M  V30 3980 N 363.613 -0.582584 1.46437 0
M  V30 3981 C 364.838 -1.37168 1.55563 0
M  V30 3982 C 365.263 -1.87061 0.19743 0
M  V30 3983 O 364.621 -1.61572 -0.822451 0
M  V30 3984 C 364.669 -2.53511 2.56446 0
M  V30 3985 O 363.773 -3.54953 2.09958 0
M  V30 3986 H 363.114 -0.408494 0.523477 0
M  V30 3987 H 365.644 -0.706646 1.9201 0
M  V30 3988 H 365.654 -3.00426 2.76058 0
M  V30 3989 H 364.329 -2.16549 3.55076 0
M  V30 3990 H 362.906 -3.14516 2.00334 0
M  V30 3991 N 365.091 -1.34144 -0.827227 0
M  V30 3992 C 366.054 -1.25264 -1.91942 0
M  V30 3993 C 367.054 -0.168866 -1.59911 0
M  V30 3994 O 368.244 -0.421198 -1.69031 0
M  V30 3995 C 365.376 -0.932952 -3.27885 0
M  V30 3996 H 366.569 -2.22357 -2.0124 0
M  V30 3997 H 364.122 -1.1837 -1.0207 0
M  V30 3998 H 364.857 0.0349917 -3.24281 0
M  V30 3999 H 364.642 -1.71682 -3.52516 0
M  V30 4000 H 366.132 -0.895874 -4.07877 0
M  V30 4001 N 366.569 1.04691 -1.17803 0
M  V30 4002 C 367.98 1.59238 -0.974689 0
M  V30 4003 C 368.331 1.90306 0.477292 0
M  V30 4004 O 367.456 1.68846 1.35352 0
M  V30 4005 C 368.051 2.89318 -1.76296 0
M  V30 4006 C 366.61 3.40506 -1.60414 0
M  V30 4007 C 365.757 2.14172 -1.76141 0
M  V30 4008 H 368.708 0.874395 -1.32439 0
M  V30 4009 H 368.729 3.5944 -1.24833 0
M  V30 4010 H 368.241 2.66675 -2.81968 0
M  V30 4011 H 366.342 3.68175 -0.572519 0
M  V30 4012 H 366.455 4.14753 -2.39827 0
M  V30 4013 H 364.819 2.25176 -1.19028 0
M  V30 4014 H 365.602 1.93992 -2.83235 0
M  V30 4015 N 368.047 0.979072 1.23499 0
M  V30 4016 C 369.293 0.648178 1.92163 0
M  V30 4017 C 369.626 -0.816049 1.76222 0
M  V30 4018 O 368.901 -1.58849 1.12237 0
M  V30 4019 C 369.184 1.03773 3.44824 0
M  V30 4020 C 369.037 2.55948 3.69879 0
M  V30 4021 C 370.356 0.580653 4.36253 0
M  V30 4022 H 367.475 0.236952 0.69787 0
M  V30 4023 H 370.117 1.22012 1.45647 0
M  V30 4024 H 368.267 0.551058 3.84572 0
M  V30 4025 H 369.939 3.12179 3.3962 0
M  V30 4026 H 368.182 2.98641 3.14636 0
M  V30 4027 H 368.853 2.78255 4.76737 0
M  V30 4028 H 371.329 0.998465 4.03943 0
M  V30 4029 H 370.205 0.881663 5.41773 0
M  V30 4030 H 370.466 -0.519052 4.39042 0
M  V30 4031 N 369.525 -1.3858 0.750561 0
M  V30 4032 C 370.435 -2.34278 0.122825 0
M  V30 4033 C 371.451 -1.59116 -0.704131 0
M  V30 4034 O 372.627 -1.91326 -0.628987 0
M  V30 4035 C 369.692 -3.38221 -0.762086 0
M  V30 4036 C 368.753 -4.29227 0.078896 0
M  V30 4037 C 367.986 -5.28205 -0.763874 0
M  V30 4038 O 368.209 -5.34112 -2.00201 0
M  V30 4039 O 367.143 -6.01618 -0.18428 0
M  V30 4040 H 370.969 -2.89649 0.913088 0
M  V30 4041 H 368.554 -1.40374 0.511417 0
M  V30 4042 H 370.436 -4.01872 -1.26793 0
M  V30 4043 H 369.111 -2.85211 -1.5309 0
M  V30 4044 H 368.018 -3.68747 0.630621 0
M  V30 4045 H 369.351 -4.85484 0.810289 0
M  V30 4046 N 371.003 -0.499398 -1.49478 0
M  V30 4047 C 372.231 0.0425456 -2.06856 0
M  V30 4048 C 372.646 1.30964 -1.35992 0
M  V30 4049 O 372.003 1.77172 -0.437762 0
M  V30 4050 C 372.054 0.301735 -3.60239 0
M  V30 4051 O 371.775 -0.915127 -4.28436 0
M  V30 4052 C 373.276 0.887499 -4.34325 0
M  V30 4053 H 370.496 -0.0197482 -0.670709 0
M  V30 4054 H 373.04 -0.696297 -1.92281 0
M  V30 4055 H 371.195 0.990556 -3.74522 0
M  V30 4056 H 371.609 -0.676993 -5.20113 0
M  V30 4057 H 373.083 1.01845 -5.42523 0
M  V30 4058 H 373.56 1.88488 -3.96698 0
M  V30 4059 H 374.166 0.236196 -4.24644 0
M  V30 4060 N 372.481 1.55866 -0.233164 0
M  V30 4061 C 373.892 1.847 0.272554 0
M  V30 4062 C 374.243 1.15477 1.58617 0
M  V30 4063 O 373.368 0.42841 2.12117 0
M  V30 4064 C 373.963 3.35071 0.501299 0
M  V30 4065 C 372.522 3.6418 0.951304 0
M  V30 4066 C 371.669 2.77292 0.0208209 0
M  V30 4067 H 374.62 1.52005 -0.456074 0
M  V30 4068 H 374.641 3.55906 1.34577 0
M  V30 4069 H 374.153 3.85424 -0.454936 0
M  V30 4070 H 372.254 3.19293 1.92049 0
M  V30 4071 H 372.367 4.72071 0.817675 0
M  V30 4072 H 370.731 2.49131 0.529723 0
M  V30 4073 H 371.514 3.30448 -0.93054 0
M  V30 4074 N 373.959 -0.0401083 1.57549 0
M  V30 4075 C 375.375 -0.395556 1.54621 0
M  V30 4076 C 375.575 -1.77281 0.957799 0
M  V30 4077 O 374.631 -2.45888 0.574031 0
M  V30 4078 C 375.944 -0.307535 2.99123 0
M  V30 4079 C 377.492 -0.385425 3.10618 0
M  V30 4080 C 377.967 -0.326973 4.56831 0
M  V30 4081 N 379.458 -0.386102 4.61588 0
M  V30 4082 C 380.193 -0.363591 5.72246 0
M  V30 4083 N 379.689 -0.29402 6.92176 0
M  V30 4084 N 381.482 -0.412503 5.60584 0
M  V30 4085 H 373.633 0.861325 1.94152 0
M  V30 4086 H 375.896 0.326445 0.890021 0
M  V30 4087 H 375.602 0.638461 3.45856 0
M  V30 4088 H 375.476 -1.10552 3.60636 0
M  V30 4089 H 377.863 -1.32185 2.63839 0
M  V30 4090 H 377.944 0.44171 2.51957 0
M  V30 4091 H 377.588 0.605738 5.04275 0
M  V30 4092 H 377.518 -1.17207 5.13391 0
M  V30 4093 H 380.009 -0.442832 3.75296 0
M  V30 4094 H 380.322 -0.28164 7.72287 0
M  V30 4095 H 378.667 -0.260232 6.94513 0
M  V30 4096 H 381.858 -0.464769 4.65787 0
M  V30 4097 H 382.031 -0.391492 6.46816 0
M  V30 4098 N 375.437 -1.54477 -0.31217 0
M  V30 4099 C 376.685 -1.72884 -1.04668 0
M  V30 4100 C 377.006 -0.511477 -1.88173 0
M  V30 4101 O 376.276 0.474407 -1.90069 0
M  V30 4102 H 374.856 -0.637461 -0.389425 0
M  V30 4103 H 377.518 -1.91807 -0.345852 0
M  V30 4104 H 376.614 -2.61334 -1.70619 0
M  V30 4105 N 376.915 0.57481 -1.46744 0
M  V30 4106 C 377.862 1.68329 -1.57905 0
M  V30 4107 C 378.832 1.60625 -0.422927 0
M  V30 4108 O 380.017 1.79721 -0.640711 0
M  V30 4109 C 377.157 3.06665 -1.58274 0
M  V30 4110 C 376.27 3.24935 -2.84678 0
M  V30 4111 C 375.405 4.53566 -2.76499 0
M  V30 4112 C 374.444 4.65207 -3.97806 0
M  V30 4113 N 373.581 5.85172 -3.87967 0
M  V30 4114 H 378.421 1.58127 -2.52587 0
M  V30 4115 H 375.958 0.770552 -1.25303 0
M  V30 4116 H 377.916 3.86745 -1.56473 0
M  V30 4117 H 376.546 3.15745 -0.671194 0
M  V30 4118 H 375.598 2.38405 -2.96424 0
M  V30 4119 H 376.91 3.29403 -3.7456 0
M  V30 4120 H 376.064 5.41885 -2.72848 0
M  V30 4121 H 374.803 4.51548 -1.8427 0
M  V30 4122 H 373.808 3.75304 -4.0178 0
M  V30 4123 H 375.033 4.68997 -4.9114 0
M  V30 4124 H 372.979 5.84137 -2.98529 0
M  V30 4125 H 372.896 5.90943 -4.71511 0
M  V30 4126 H 374.164 6.759 -3.88303 0
M  V30 4127 N 378.394 1.34581 0.820102 0
M  V30 4128 C 379.805 1.24298 1.39309 0
M  V30 4129 C 380.156 -0.130351 1.95767 0
M  V30 4130 O 379.281 -1.0308 1.90272 0
M  V30 4131 C 379.876 2.25054 2.53251 0
M  V30 4132 C 378.435 2.18552 3.0645 0
M  V30 4133 C 377.582 2.11503 1.79337 0
M  V30 4134 H 380.533 1.45906 0.624262 0
M  V30 4135 H 380.554 1.86917 3.31425 0
M  V30 4136 H 380.066 3.24996 2.1213 0
M  V30 4137 H 378.167 1.21976 3.52069 0
M  V30 4138 H 378.28 3.0993 3.65349 0
M  V30 4139 H 376.644 1.57268 2.00347 0
M  V30 4140 H 377.427 3.13284 1.40386 0
M  V30 4141 N 379.872 -1.04064 1.18357 0
M  V30 4142 C 381.283 -1.58719 0.98312 0
M  V30 4143 C 381.634 -1.90556 -0.467193 0
M  V30 4144 O 380.759 -1.69561 -1.34454 0
M  V30 4145 C 381.354 -2.88379 1.77828 0
M  V30 4146 C 379.913 -3.3965 1.62218 0
M  V30 4147 C 379.06 -2.13235 1.77274 0
M  V30 4148 H 382.011 -0.867359 1.32901 0
M  V30 4149 H 382.032 -3.58773 1.26737 0
M  V30 4150 H 381.544 -2.65176 2.83379 0
M  V30 4151 H 379.645 -3.67866 0.592036 0
M  V30 4152 H 379.758 -4.13475 2.42023 0
M  V30 4153 H 378.122 -2.24542 1.20221 0
M  V30 4154 H 378.905 -1.92487 2.8426 0
M  V30 4155 N 381.35 -0.985608 -1.22978 0
M  V30 4156 C 382.28 -0.549649 -2.26939 0
M  V30 4157 C 383.261 0.419803 -1.64838 0
M  V30 4158 O 384.446 0.31203 -1.91677 0
M  V30 4159 C 381.576 0.143652 -3.47003 0
M  V30 4160 C 380.53 -0.743606 -4.21491 0
M  V30 4161 C 379.856 0.0822027 -5.34637 0
M  V30 4162 C 381.156 -2.03694 -4.80943 0
M  V30 4163 H 382.85 -1.41862 -2.63658 0
M  V30 4164 H 380.396 -0.683571 -1.26741 0
M  V30 4165 H 382.349 0.459985 -4.18882 0
M  V30 4166 H 381.073 1.04711 -3.09359 0
M  V30 4167 H 379.732 -1.04347 -3.51436 0
M  V30 4168 H 379.38 0.986359 -4.93234 0
M  V30 4169 H 379.08 -0.508377 -5.85397 0
M  V30 4170 H 380.604 0.392797 -6.09335 0
M  V30 4171 H 382.018 -1.78504 -5.44802 0
M  V30 4172 H 380.415 -2.57573 -5.42011 0
M  V30 4173 H 381.485 -2.72042 -4.01399 0
M  V30 4174 N 382.828 1.3818 -0.7579 0
M  V30 4175 C 383.776 2.32277 -0.122482 0
M  V30 4176 C 384.77 1.54238 0.700505 0
M  V30 4177 O 385.976 1.69737 0.599119 0
M  V30 4178 H 382.351 0.751712 -0.0208143 0
M  V30 4179 H 384.322 2.83469 -0.932099 0
M  V30 4180 C 383.071 3.39447 0.753076 0
M  V30 4181 H 382.394 3.99591 0.129184 0
M  V30 4182 H 383.834 4.07684 1.16489 0
M  V30 4183 C 382.293 2.78375 1.8976 0
M  V30 4184 O 382.823 2.68025 2.99208 0
M  V30 4185 N 381.029 2.36121 1.69397 0
M  V30 4186 H 380.576 2.4474 0.803762 0
M  V30 4187 H 380.534 1.95602 2.46145 0
M  V30 4188 N 384.306 0.507319 1.49211 0
M  V30 4189 C 385.534 -0.0315749 2.06876 0
M  V30 4190 C 385.949 -1.30241 1.36685 0
M  V30 4191 O 385.306 -1.76937 0.447152 0
M  V30 4192 C 385.357 -0.282627 3.60393 0
M  V30 4193 O 385.078 0.937835 4.27944 0
M  V30 4194 C 386.579 -0.864453 4.3479 0
M  V30 4195 H 383.799 0.0233048 0.670595 0
M  V30 4196 H 386.343 0.706484 1.91909 0
M  V30 4197 H 384.498 -0.97068 3.75042 0
M  V30 4198 H 384.912 0.704567 5.19746 0
M  V30 4199 H 386.386 -0.989664 5.43056 0
M  V30 4200 H 386.863 -1.86382 3.97692 0
M  V30 4201 H 387.469 -0.213672 4.24763 0
M  V30 4202 N 385.784 -1.5574 0.241426 0
M  V30 4203 C 387.2 -1.59196 -0.113548 0
M  V30 4204 C 387.4 -1.25852 -1.57364 0
M  V30 4205 O 386.456 -1.00322 -2.31715 0
M  V30 4206 C 387.769 -2.99814 0.230695 0
M  V30 4207 C 389.317 -3.12513 0.174547 0
M  V30 4208 C 389.792 -4.55342 0.492744 0
M  V30 4209 N 391.283 -4.61076 0.443043 0
M  V30 4210 C 392.018 -5.6956 0.662484 0
M  V30 4211 N 391.514 -6.86328 0.944761 0
M  V30 4212 N 393.307 -5.58957 0.593564 0
M  V30 4213 H 385.458 -1.75685 1.19368 0
M  V30 4214 H 387.721 -0.81756 0.479896 0
M  V30 4215 H 387.427 -3.28932 1.24485 0
M  V30 4216 H 387.301 -3.74568 -0.444833 0
M  V30 4217 H 389.688 -2.83179 -0.830277 0
M  V30 4218 H 389.769 -2.40045 0.883845 0
M  V30 4219 H 389.413 -4.85396 1.4951 0
M  V30 4220 H 389.343 -5.26062 -0.23797 0
M  V30 4221 H 391.834 -3.77179 0.233374 0
M  V30 4222 H 392.147 -7.64935 1.09977 0
M  V30 4223 H 390.492 -6.88025 0.982175 0
M  V30 4224 H 393.683 -4.66611 0.373123 0
M  V30 4225 H 393.856 -6.43433 0.767981 0
M  V30 4226 N 387.262 0.0317525 -1.57568 0
M  V30 4227 C 388.487 0.738664 -1.938 0
M  V30 4228 C 388.912 1.68242 -0.841208 0
M  V30 4229 O 388.27 1.80157 0.203267 0
M  V30 4230 C 388.318 1.47417 -3.29091 0
M  V30 4231 O 387.422 2.5872 -3.2115 0
M  V30 4232 H 386.763 0.198856 -0.633524 0
M  V30 4233 H 389.293 -0.0119713 -2.04596 0
M  V30 4234 H 389.303 1.84468 -3.63917 0
M  V30 4235 H 387.978 0.781988 -4.08482 0
M  V30 4236 H 386.555 2.24231 -2.97951 0
M  V30 4237 N 388.74 1.54641 0.303973 0
M  V30 4238 C 389.672 1.81754 1.39636 0
M  V30 4239 C 390.685 0.70035 1.46966 0
M  V30 4240 O 391.874 0.97778 1.49338 0
M  V30 4241 C 388.974 1.93785 2.7803 0
M  V30 4242 C 388.147 3.24156 2.93669 0
M  V30 4243 C 387.206 3.26641 4.12544 0
M  V30 4244 O 386.232 4.00187 4.04771 0
M  V30 4245 N 387.434 2.5182 5.23036 0
M  V30 4246 H 390.199 2.76031 1.16734 0
M  V30 4247 H 387.76 1.54178 0.494033 0
M  V30 4248 H 389.752 1.92852 3.55795 0
M  V30 4249 H 388.322 1.06515 2.93893 0
M  V30 4250 H 387.542 3.37887 2.03042 0
M  V30 4251 H 388.83 4.10195 3.01027 0
M  V30 4252 H 388.228 1.91692 5.32232 0
M  V30 4253 H 386.785 2.56644 5.99147 0
M  V30 4254 N 390.218 -0.567019 1.47046 0
M  V30 4255 C 391.181 -1.65696 1.58359 0
M  V30 4256 C 392.181 -1.54097 0.459441 0
M  V30 4257 O 393.371 -1.58432 0.724225 0
M  V30 4258 C 390.503 -3.05197 1.51879 0
M  V30 4259 H 391.696 -1.57019 2.5551 0
M  V30 4260 H 389.249 -0.786148 1.3509 0
M  V30 4261 H 389.984 -3.19417 0.560673 0
M  V30 4262 H 389.769 -3.15025 2.33455 0
M  V30 4263 H 391.259 -3.84511 1.62913 0
M  V30 4264 N 391.696 -1.35014 -0.812953 0
M  V30 4265 C 393.107 -1.25035 -1.38648 0
M  V30 4266 C 393.458 0.119967 -1.95833 0
M  V30 4267 O 392.583 1.02069 -1.90816 0
M  V30 4268 C 393.178 -2.26394 -2.52054 0
M  V30 4269 C 391.737 -2.20175 -3.05287 0
M  V30 4270 C 390.884 -2.12451 -1.78213 0
M  V30 4271 H 393.835 -1.46235 -0.616516 0
M  V30 4272 H 393.856 -1.88672 -3.30429 0
M  V30 4273 H 393.368 -3.26116 -2.10404 0
M  V30 4274 H 391.469 -1.23841 -3.51417 0
M  V30 4275 H 391.582 -3.11863 -3.63701 0
M  V30 4276 H 389.946 -1.58328 -1.9951 0
M  V30 4277 H 390.729 -3.14024 -1.38723 0
M  V30 4278 N 393.175 1.03435 -1.18907 0
M  V30 4279 C 394.105 2.13503 -0.945448 0
M  V30 4280 C 395.086 1.69682 0.119189 0
M  V30 4281 O 396.271 1.94169 -0.034707 0
M  V30 4282 C 393.401 3.44004 -0.477316 0
M  V30 4283 C 392.355 4.0148 -1.48316 0
M  V30 4284 C 391.681 5.27537 -0.872311 0
M  V30 4285 C 392.981 4.36921 -2.86177 0
M  V30 4286 H 394.675 2.34141 -1.86597 0
M  V30 4287 H 392.221 1.12523 -0.898584 0
M  V30 4288 H 394.174 4.20372 -0.294204 0
M  V30 4289 H 392.898 3.23072 0.478786 0
M  V30 4290 H 391.557 3.27201 -1.65332 0
M  V30 4291 H 391.205 5.02917 0.0911752 0
M  V30 4292 H 390.905 5.66954 -1.54393 0
M  V30 4293 H 392.429 6.06576 -0.699871 0
M  V30 4294 H 393.843 5.04248 -2.72776 0
M  V30 4295 H 392.24 4.87405 -3.50081 0
M  V30 4296 H 393.31 3.46466 -3.39248 0
M  V30 4297 N 394.653 0.992116 1.22453 0
M  V30 4298 C 395.583 0.561677 2.26644 0
M  V30 4299 C 396.564 -0.411055 1.65059 0
M  V30 4300 O 397.749 -0.301861 1.9184 0
M  V30 4301 C 394.879 -0.125247 3.47074 0
M  V30 4302 C 393.833 0.765948 4.21091 0
M  V30 4303 C 393.159 -0.0538484 5.34673 0
M  V30 4304 C 394.459 2.06242 4.79856 0
M  V30 4305 H 396.153 1.43259 2.62902 0
M  V30 4306 H 393.699 0.690283 1.26377 0
M  V30 4307 H 395.652 -0.437764 4.1912 0
M  V30 4308 H 394.376 -1.03069 3.0991 0
M  V30 4309 H 393.035 1.0621 3.50878 0
M  V30 4310 H 392.683 -0.960188 4.9375 0
M  V30 4311 H 392.383 0.539415 5.85119 0
M  V30 4312 H 393.907 -0.360477 6.09535 0
M  V30 4313 H 395.321 1.8139 5.43848 0
M  V30 4314 H 393.718 2.60444 5.40638 0
M  V30 4315 H 394.788 2.74167 3.99951 0
M  V30 4316 N 396.131 -1.37776 0.765217 0
M  V30 4317 C 397.547 -1.53297 0.444108 0
M  V30 4318 C 397.747 -1.72515 -1.04119 0
M  V30 4319 O 396.803 -1.74278 -1.82711 0
M  V30 4320 C 398.116 -2.73328 1.25349 0
M  V30 4321 C 399.664 -2.87185 1.24473 0
M  V30 4322 C 400.139 -4.10191 2.03733 0
M  V30 4323 N 401.63 -4.17291 2.01053 0
M  V30 4324 C 402.365 -5.11488 2.59166 0
M  V30 4325 N 401.861 -6.11285 3.26041 0
M  V30 4326 N 403.654 -5.03924 2.49032 0
M  V30 4327 H 395.805 -1.23552 1.72768 0
M  V30 4328 H 398.068 -0.601103 0.733062 0
M  V30 4329 H 397.774 -2.6557 2.30577 0
M  V30 4330 H 397.648 -3.66834 0.87823 0
M  V30 4331 H 400.035 -2.94418 0.20047 0
M  V30 4332 H 400.116 -1.94657 1.65959 0
M  V30 4333 H 399.76 -4.0372 3.08176 0
M  V30 4334 H 399.69 -5.01821 1.59633 0
M  V30 4335 H 402.181 -3.45825 1.5236 0
M  V30 4336 H 402.494 -6.79678 3.67774 0
M  V30 4337 H 400.839 -6.11583 3.30138 0
M  V30 4338 H 404.03 -4.24902 1.96407 0
M  V30 4339 H 404.203 -5.77152 2.94617 0
M  V30 4340 N 397.609 -0.515225 -1.4894 0
M  V30 4341 C 398.855 0.016187 -2.03394 0
M  V30 4342 C 399.21 1.33377 -1.38666 0
M  V30 4343 O 398.503 1.84461 -0.518141 0
M  V30 4344 C 398.697 0.210595 -3.56779 0
M  V30 4345 C 398.526 -1.08659 -4.36375 0
M  V30 4346 C 397.296 -1.64237 -4.77864 0
M  V30 4347 C 399.494 -1.9935 -4.74093 0
M  V30 4348 N 397.476 -2.88398 -5.41941 0
M  V30 4349 C 398.847 -3.08088 -5.38035 0
M  V30 4350 C 400.902 -1.99856 -4.56029 0
M  V30 4351 C 399.605 -4.17377 -5.85823 0
M  V30 4352 C 401.631 -3.08129 -5.04787 0
M  V30 4353 C 400.993 -4.15586 -5.68742 0
M  V30 4354 H 397.092 -0.0352107 -0.781207 0
M  V30 4355 H 399.676 -0.693237 -1.8194 0
M  V30 4356 H 397.847 0.889088 -3.78087 0
M  V30 4357 H 399.579 0.740287 -3.97872 0
M  V30 4358 H 396.334 -1.18566 -4.58518 0
M  V30 4359 H 396.758 -3.51572 -5.78555 0
M  V30 4360 H 401.4 -1.18079 -4.05977 0
M  V30 4361 H 399.118 -4.99943 -6.34888 0
M  V30 4362 H 402.704 -3.09557 -4.92611 0
M  V30 4363 H 401.584 -4.97987 -6.05787 0
M  V30 4364 N 399.087 1.5561 -0.249682 0
M  V30 4365 C 400.333 1.99306 0.374841 0
M  V30 4366 C 400.666 1.13767 1.57387 0
M  V30 4367 O 399.941 0.201711 1.93451 0
M  V30 4368 C 400.224 3.51507 0.781986 0
M  V30 4369 C 400.077 4.4781 -0.422629 0
M  V30 4370 C 401.396 4.08884 1.62793 0
M  V30 4371 H 398.515 0.724572 0.134773 0
M  V30 4372 H 401.157 1.86719 -0.351549 0
M  V30 4373 H 399.307 3.62363 1.4009 0
M  V30 4374 H 400.979 4.48931 -1.06108 0
M  V30 4375 H 399.222 4.20518 -1.06524 0
M  V30 4376 H 399.893 5.51919 -0.0943766 0
M  V30 4377 H 402.369 4.01147 1.10547 0
M  V30 4378 H 401.245 5.1564 1.88166 0
M  V30 4379 H 401.506 3.57515 2.60068 0
M  V30 4380 N 400.565 -0.0233959 1.57583 0
M  V30 4381 C 401.495 -1.02162 2.09965 0
M  V30 4382 C 402.476 -1.3735 1.00344 0
M  V30 4383 O 403.661 -1.46135 1.27899 0
M  V30 4384 C 400.791 -2.32081 2.58371 0
M  V30 4385 C 399.745 -2.1112 3.72307 0
M  V30 4386 C 399.071 -3.46848 4.06941 0
M  V30 4387 C 400.371 -1.49276 5.00514 0
M  V30 4388 H 402.065 -0.585557 2.93618 0
M  V30 4389 H 399.611 -0.280218 1.41247 0
M  V30 4390 H 401.564 -3.02249 2.93639 0
M  V30 4391 H 400.288 -2.77758 1.71808 0
M  V30 4392 H 398.947 -1.43384 3.37397 0
M  V30 4393 H 398.595 -3.90184 3.17436 0
M  V30 4394 H 398.295 -3.33646 4.83688 0
M  V30 4395 H 399.819 -4.18369 4.44747 0
M  V30 4396 H 401.233 -2.09368 5.33702 0
M  V30 4397 H 399.63 -1.46632 5.8191 0
M  V30 4398 H 400.7 -0.459217 4.82721 0
M  V30 4399 N 402.043 -1.548 -0.295768 0
M  V30 4400 C 403.271 -1.78327 -1.04914 0
M  V30 4401 C 403.686 -0.545316 -1.80753 0
M  V30 4402 O 403.043 0.485013 -1.75937 0
M  V30 4403 C 403.094 -2.99418 -2.02561 0
M  V30 4404 O 402.815 -4.18431 -1.29798 0
M  V30 4405 C 404.316 -3.35375 -2.89895 0
M  V30 4406 H 401.536 -0.594618 -0.310918 0
M  V30 4407 H 404.08 -2.01763 -0.333454 0
M  V30 4408 H 402.235 -2.78175 -2.69624 0
M  V30 4409 H 402.649 -4.86736 -1.95419 0
M  V30 4410 H 404.123 -4.23332 -3.54251 0
M  V30 4411 H 404.6 -2.53761 -3.58472 0
M  V30 4412 H 405.206 -3.58796 -2.28355 0
M  V30 4413 N 403.521 0.559213 -1.47345 0
M  V30 4414 C 404.451 1.67622 -1.62558 0
M  V30 4415 C 405.432 1.63331 -0.475087 0
M  V30 4416 O 406.617 1.80983 -0.704182 0
M  V30 4417 C 403.747 3.0626 -1.63774 0
M  V30 4418 C 402.701 3.25397 -2.7803 0
M  V30 4419 C 402.027 4.64801 -2.64318 0
M  V30 4420 C 403.327 3.10965 -4.19641 0
M  V30 4421 H 405.021 1.55146 -2.56067 0
M  V30 4422 H 402.567 0.744961 -1.23233 0
M  V30 4423 H 404.52 3.84247 -1.73008 0
M  V30 4424 H 403.244 3.1969 -0.66825 0
M  V30 4425 H 401.903 2.49817 -2.68304 0
M  V30 4426 H 401.551 4.75028 -1.65401 0
M  V30 4427 H 401.251 4.78555 -3.40968 0
M  V30 4428 H 402.775 5.44926 -2.75478 0
M  V30 4429 H 404.189 3.78772 -4.30354 0
M  V30 4430 H 402.586 3.36229 -4.97062 0
M  V30 4431 H 403.656 2.07736 -4.38148 0
M  V30 4432 N 404.999 1.35443 0.805782 0
M  V30 4433 C 406.224 1.32037 1.59941 0
M  V30 4434 C 406.649 -0.0994215 1.87837 0
M  V30 4435 O 406.007 -1.06648 1.46615 0
M  V30 4436 C 406.055 2.13354 2.90711 0
M  V30 4437 O 405.159 1.5148 3.83572 0
M  V30 4438 H 404.5 0.452666 0.485787 0
M  V30 4439 H 407.03 1.78496 1.00002 0
M  V30 4440 H 407.04 2.25338 3.40128 0
M  V30 4441 H 405.715 3.16572 2.69732 0
M  V30 4442 H 404.292 1.4834 3.42125 0
M  V30 4443 N 406.477 -1.02803 1.19454 0
M  V30 4444 C 407.724 -1.76217 0.997693 0
M  V30 4445 C 408.052 -1.887 -0.47144 0
M  V30 4446 O 407.307 -1.4011 -1.3663 0
M  V30 4447 C 407.606 -3.18941 1.6128 0
M  V30 4448 C 407.272 -3.26463 3.11019 0
M  V30 4449 C 405.934 -3.28223 3.51885 0
M  V30 4450 C 408.286 -3.25542 4.07028 0
M  V30 4451 C 405.614 -3.26719 4.8731 0
M  V30 4452 C 407.966 -3.25579 5.42385 0
M  V30 4453 C 406.63 -3.25637 5.82681 0
M  V30 4454 H 405.9 -0.644823 0.365082 0
M  V30 4455 H 408.547 -1.20655 1.4871 0
M  V30 4456 H 406.852 -3.77587 1.04572 0
M  V30 4457 H 408.549 -3.74415 1.43577 0
M  V30 4458 H 405.139 -3.25822 2.78457 0
M  V30 4459 H 409.323 -3.23362 3.76498 0
M  V30 4460 H 404.579 -3.25089 5.1781 0
M  V30 4461 H 408.753 -3.23817 6.16535 0
M  V30 4462 H 406.38 -3.24226 6.87591 0
M  V30 4463 N 407.956 -0.998596 -1.21925 0
M  V30 4464 C 408.886 -0.573688 -2.26343 0
M  V30 4465 C 409.867 0.402296 -1.65274 0
M  V30 4466 O 411.052 0.291683 -1.91997 0
M  V30 4467 C 408.182 0.106839 -3.47136 0
M  V30 4468 C 407.136 -0.788269 -4.20678 0
M  V30 4469 C 406.462 0.0254927 -5.34694 0
M  V30 4470 C 407.762 -2.08784 -4.78755 0
M  V30 4471 H 409.456 -1.44651 -2.62138 0
M  V30 4472 H 407.002 -0.696975 -1.26009 0
M  V30 4473 H 408.955 0.415531 -4.19346 0
M  V30 4474 H 407.679 1.01424 -3.10452 0
M  V30 4475 H 406.338 -1.08069 -3.50309 0
M  V30 4476 H 405.986 0.933989 -4.94253 0
M  V30 4477 H 405.686 -0.570437 -5.84825 0
M  V30 4478 H 407.21 0.328147 -6.09718 0
M  V30 4479 H 408.624 -1.84272 -5.42878 0
M  V30 4480 H 407.021 -2.63307 -5.39249 0
M  V30 4481 H 408.091 -2.76284 -3.98491 0
M  V30 4482 N 409.434 1.37368 -0.772513 0
M  V30 4483 C 410.68 1.99969 -0.337681 0
M  V30 4484 C 411.013 1.61184 1.08321 0
M  V30 4485 O 410.288 0.858395 1.74533 0
M  V30 4486 C 410.571 3.56858 -0.482121 0
M  V30 4487 C 410.424 4.0555 -1.94549 0
M  V30 4488 C 411.743 4.39955 0.113143 0
M  V30 4489 H 408.862 0.726464 -0.124171 0
M  V30 4490 H 411.504 1.63034 -0.975699 0
M  V30 4491 H 409.654 3.88452 0.0610361 0
M  V30 4492 H 411.326 3.84518 -2.54841 0
M  V30 4493 H 409.569 3.57715 -2.45403 0
M  V30 4494 H 410.24 5.14587 -1.9976 0
M  V30 4495 H 412.716 4.14623 -0.35031 0
M  V30 4496 H 411.592 5.48897 -0.0180514 0
M  V30 4497 H 411.853 4.25403 1.20354 0
M  V30 4498 N 410.912 0.523116 1.48665 0
M  V30 4499 C 411.875 -0.232592 2.28017 0
M  V30 4500 C 412.875 -0.874021 1.34972 0
M  V30 4501 O 414.065 -0.735132 1.57929 0
M  V30 4502 C 411.197 -1.33586 3.13636 0
M  V30 4503 H 412.39 0.464008 2.96289 0
M  V30 4504 H 409.943 0.278816 1.53793 0
M  V30 4505 H 410.678 -2.06593 2.4998 0
M  V30 4506 H 410.463 -0.881125 3.82071 0
M  V30 4507 H 411.953 -1.86759 3.73511 0
M  V30 4508 N 412.39 -1.55475 0.257931 0
M  V30 4509 C 413.618 -2.03609 -0.367559 0
M  V30 4510 C 414.033 -1.13687 -1.50734 0
M  V30 4511 O 413.39 -0.153479 -1.81853 0
M  V30 4512 C 413.441 -3.51001 -0.864908 0
M  V30 4513 O 413.162 -4.37499 0.229465 0
M  V30 4514 C 414.663 -4.14946 -1.55997 0
M  V30 4515 H 411.883 -0.665459 -0.0860521 0
M  V30 4516 H 414.427 -2.00843 0.385014 0
M  V30 4517 H 412.582 -3.54266 -1.56762 0
M  V30 4518 H 412.996 -5.24286 -0.14998 0
M  V30 4519 H 414.47 -5.19735 -1.85956 0
M  V30 4520 H 414.947 -3.6209 -2.4857 0
M  V30 4521 H 415.553 -4.15635 -0.901543 0
M  V30 4522 N 413.868 0.0150385 -1.57593 0
M  V30 4523 C 415.114 0.704043 -1.90187 0
M  V30 4524 C 415.447 1.74249 -0.857366 0
M  V30 4525 O 414.722 1.94092 0.125843 0
M  V30 4526 C 415.005 1.36087 -3.33395 0
M  V30 4527 C 414.858 0.334981 -4.48551 0
M  V30 4528 C 416.177 2.29112 -3.7576 0
M  V30 4529 H 413.296 0.254475 -0.691673 0
M  V30 4530 H 415.938 -0.0331678 -1.89971 0
M  V30 4531 H 414.088 1.98922 -3.3371 0
M  V30 4532 H 415.76 -0.292534 -4.60372 0
M  V30 4533 H 414.003 -0.344325 -4.32431 0
M  V30 4534 H 414.674 0.833316 -5.45674 0
M  V30 4535 H 417.15 1.76308 -3.76902 0
M  V30 4536 H 416.026 2.72043 -4.76743 0
M  V30 4537 H 416.287 3.16385 -3.08793 0
M  V30 4538 N 415.346 1.54954 0.287554 0
M  V30 4539 C 416.309 1.86076 1.33823 0
M  V30 4540 C 417.309 0.734414 1.43049 0
M  V30 4541 O 418.499 1.00266 1.42452 0
M  V30 4542 C 415.631 2.05305 2.72144 0
M  V30 4543 H 416.824 2.79984 1.07465 0
M  V30 4544 H 414.377 1.47223 0.524902 0
M  V30 4545 H 415.112 1.1373 3.03704 0
M  V30 4546 H 414.897 2.873 2.66836 0
M  V30 4547 H 416.387 2.30706 3.48087 0
M  V30 4548 N 416.824 -0.551391 1.4764 0
M  V30 4549 C 418.07 -1.31024 1.54792 0
M  V30 4550 C 418.403 -1.9304 0.211967 0
M  V30 4551 O 417.678 -1.78175 -0.77999 0
M  V30 4552 C 417.961 -2.41593 2.67029 0
M  V30 4553 C 417.814 -1.84408 4.10261 0
M  V30 4554 C 419.133 -3.43488 2.75143 0
M  V30 4555 H 416.252 -0.475031 0.563485 0
M  V30 4556 H 418.894 -0.616454 1.79722 0
M  V30 4557 H 417.044 -3.00772 2.45904 0
M  V30 4558 H 418.716 -1.29445 4.42766 0
M  V30 4559 H 416.959 -1.15051 4.18265 0
M  V30 4560 H 417.63 -2.64367 4.84576 0
M  V30 4561 H 420.106 -2.94236 2.94218 0
M  V30 4562 H 418.982 -4.18274 3.55441 0
M  V30 4563 H 419.243 -4.02703 1.82435 0
M  V30 4564 N 418.302 -1.35869 -0.798587 0
M  V30 4565 C 419.55 -1.29332 -1.55298 0
M  V30 4566 C 419.871 0.129729 -1.94568 0
M  V30 4567 O 419.141 1.06796 -1.6423 0
M  V30 4568 H 417.721 -0.475737 -0.57592 0
M  V30 4569 H 420.383 -1.70062 -0.952093 0
M  V30 4570 H 419.479 -1.91458 -2.46476 0
M  V30 4571 N 419.78 1.02168 -1.19998 0
M  V30 4572 C 420.71 2.12488 -0.96804 0
M  V30 4573 C 421.691 1.69799 0.101185 0
M  V30 4574 O 422.876 1.94121 -0.0552993 0
M  V30 4575 C 420.006 3.43479 -0.513776 0
M  V30 4576 C 418.96 3.99884 -1.52566 0
M  V30 4577 C 418.286 5.26582 -0.928214 0
M  V30 4578 C 419.586 4.33861 -2.90795 0
M  V30 4579 H 421.28 2.32149 -1.89069 0
M  V30 4580 H 418.826 1.11564 -0.910468 0
M  V30 4581 H 420.779 4.20036 -0.338774 0
M  V30 4582 H 419.503 3.23561 0.444493 0
M  V30 4583 H 418.162 3.25429 -1.68794 0
M  V30 4584 H 417.81 5.02986 0.0378289 0
M  V30 4585 H 417.51 5.65284 -1.60397 0
M  V30 4586 H 419.034 6.05799 -0.764167 0
M  V30 4587 H 420.448 5.01327 -2.78109 0
M  V30 4588 H 418.845 4.83664 -3.55231 0
M  V30 4589 H 419.915 3.42848 -3.42904 0
M  V30 4590 N 421.258 1.00505 1.21394 0
M  V30 4591 C 422.488 0.705584 1.94178 0
M  V30 4592 C 422.896 -0.735846 1.74304 0
M  V30 4593 O 422.239 -1.50954 1.04683 0
M  V30 4594 C 422.301 0.94689 3.46806 0
M  V30 4595 C 421.965 2.37517 3.90429 0
M  V30 4596 C 422.962 3.35539 3.97127 0
M  V30 4597 C 420.647 2.71284 4.22742 0
M  V30 4598 C 422.641 4.65395 4.3553 0
M  V30 4599 C 420.328 4.01356 4.60822 0
M  V30 4600 C 421.326 4.98223 4.67186 0
M  V30 4601 O 421.014 6.25969 5.04399 0
M  V30 4602 H 420.746 0.259216 0.624326 0
M  V30 4603 H 423.3 1.34592 1.55159 0
M  V30 4604 H 421.53 0.249386 3.85895 0
M  V30 4605 H 423.219 0.640804 4.0081 0
M  V30 4606 H 423.985 3.10786 3.7234 0
M  V30 4607 H 419.864 1.96581 4.16985 0
M  V30 4608 H 423.408 5.41002 4.40412 0
M  V30 4609 H 419.305 4.25893 4.85063 0
M  V30 4610 H 420.073 6.30085 5.22431 0
M  V30 4611 N 422.737 -1.36956 0.779787 0
M  V30 4612 C 423.7 -2.2851 0.177662 0
M  V30 4613 C 424.7 -1.48393 -0.619377 0
M  V30 4614 O 425.89 -1.68505 -0.441785 0
M  V30 4615 C 423.022 -3.32428 -0.755279 0
M  V30 4616 H 424.215 -2.83269 0.984823 0
M  V30 4617 H 421.768 -1.46358 0.548544 0
M  V30 4618 H 422.503 -2.82808 -1.58714 0
M  V30 4619 H 422.288 -3.91659 -0.185817 0
M  V30 4620 H 423.778 -4.00824 -1.17174 0
M  V30 4621 N 424.215 -0.530993 -1.48385 0
M  V30 4622 C 425.148 0.278511 -2.26494 0
M  V30 4623 C 426.126 0.943905 -1.32398 0
M  V30 4624 O 427.31 0.968098 -1.61741 0
M  V30 4625 C 424.437 1.39453 -3.08659 0
M  V30 4626 C 423.483 0.840434 -4.18137 0
M  V30 4627 S 424.316 -0.292496 -5.34701 0
M  V30 4628 C 425.472 0.825973 -6.20426 0
M  V30 4629 H 425.705 -0.384365 -2.94805 0
M  V30 4630 H 423.238 -0.316799 -1.51115 0
M  V30 4631 H 425.196 2.03382 -3.56575 0
M  V30 4632 H 423.857 2.02913 -2.3976 0
M  V30 4633 H 423.05 1.67769 -4.75257 0
M  V30 4634 H 422.652 0.277819 -3.72967 0
M  V30 4635 H 424.944 1.72438 -6.55188 0
M  V30 4636 H 425.887 0.292728 -7.07495 0
M  V30 4637 H 426.295 1.10683 -5.53543 0
M  V30 4638 O 425.732 1.56259 -0.408071 0
M  V30 4639 H 426.423 1.93245 0.132688 0
M  V30 END ATOM
M  V30 BEGIN BOND
M  V30 END BOND
M  V30 END CTAB
M  END
$$$$
