drugbank_target|Q05586 Glutamate receptor ionotropic, NMDA 1 (DB00193; DB00289; DB00312; DB00333; DB00418; DB00843; DB00874; DB01174; DB01708; DB04896; DB06738; DB11823)
 OpenBabel12092119303D

  0  0  0     0  0            999 V3000
M  V30 BEGIN CTAB
M  V30 COUNTS 14833 14990 0 0 0
M  V30 BEGIN ATOM
M  V30 1 H -0.908 1.98254 -0.117106 0
M  V30 2 N 0 1.576 0 0
M  V30 3 C 0.933 2.03868 1.02534 0
M  V30 4 C 1.911 0.928543 1.3348 0
M  V30 5 O 3.095 1.19667 1.45644 0
M  V30 6 C 0.222 2.43627 2.35294 0
M  V30 7 C -0.732 3.65373 2.2001 0
M  V30 8 S 0.101 5.13292 1.52614 0
M  V30 9 C 1.257 5.56322 2.86805 0
M  V30 10 H 1.49 2.90518 0.631377 0
M  V30 11 H -0.977 1.52953 0.210867 0
M  V30 12 H 0.981 2.67203 3.11629 0
M  V30 13 H -0.358 1.57376 2.7183 0
M  V30 14 H -1.165 3.90944 3.18086 0
M  V30 15 H -1.563 3.418 1.51819 0
M  V30 16 H 0.729 5.58782 3.83104 0
M  V30 17 H 1.672 6.56266 2.65933 0
M  V30 18 H 2.08 4.83886 2.90714 0
M  V30 19 N 1.4781 -0.272755 1.55222 0
M  V30 20 C 2.7031 -1.02683 1.80197 0
M  V30 21 C 3.1281 -1.79142 0.573551 0
M  V30 22 O 2.4861 -1.74917 -0.476849 0
M  V30 23 C 2.5341 -1.9609 3.02624 0
M  V30 24 O 1.6381 -3.04863 2.77727 0
M  V30 25 H 0.9791 -0.293557 0.595584 0
M  V30 26 H 3.5091 -0.30159 2.02365 0
M  V30 27 H 3.5191 -2.38039 3.31363 0
M  V30 28 H 2.1941 -1.39851 3.91682 0
M  V30 29 H 0.7711 -2.67228 2.60084 0
M  V30 30 N 2.9562 -1.48159 -0.537278 0
M  V30 31 C 4.1842 -1.59454 -1.31841 0
M  V30 32 C 4.5992 -0.252065 -1.8711 0
M  V30 33 O 3.9562 0.757621 -1.66031 0
M  V30 34 C 4.0072 -2.63546 -2.47439 0
M  V30 35 O 3.7282 -3.92583 -1.94449 0
M  V30 36 C 5.2292 -2.85212 -3.39366 0
M  V30 37 H 2.4492 -0.53785 -0.401196 0
M  V30 38 H 4.9932 -1.93932 -0.648891 0
M  V30 39 H 3.1482 -2.31946 -3.1029 0
M  V30 40 H 3.5622 -4.49629 -2.70063 0
M  V30 41 H 5.0362 -3.61863 -4.16844 0
M  V30 42 H 5.5132 -1.93765 -3.94147 0
M  V30 43 H 6.1192 -3.18086 -2.82314 0
M  V30 44 N 4.4343 0.785586 -1.36625 0
M  V30 45 C 5.3673 1.90509 -1.25625 0
M  V30 46 C 6.3453 1.62 -0.139607 0
M  V30 47 O 7.5293 1.8591 -0.31141 0
M  V30 48 C 4.6563 3.25419 -0.939158 0
M  V30 49 C 3.7023 3.72856 -2.07077 0
M  V30 50 S 4.5353 3.88162 -3.68904 0
M  V30 51 C 5.6913 5.25942 -3.39317 0
M  V30 52 H 5.9243 1.99549 -2.20381 0
M  V30 53 H 3.4573 0.945226 -1.22085 0
M  V30 54 H 5.4153 4.03346 -0.763029 0
M  V30 55 H 4.0763 3.14099 -0.00931402 0
M  V30 56 H 3.2693 4.70624 -1.80357 0
M  V30 57 H 2.8713 3.01989 -2.20632 0
M  V30 58 H 5.1633 6.10651 -2.93447 0
M  V30 59 H 6.1063 5.57668 -4.36363 0
M  V30 60 H 6.5143 4.93224 -2.74573 0
M  V30 61 N 5.9124 1.20967 1.01018 0
M  V30 62 C 7.3284 0.965905 1.27053 0
M  V30 63 C 7.5284 -0.350785 1.98423 0
M  V30 64 O 6.5844 -1.07773 2.28344 0
M  V30 65 C 7.8974 2.15294 2.09926 0
M  V30 66 C 9.4454 2.19463 2.23171 0
M  V30 67 C 9.9204 3.3767 3.09424 0
M  V30 68 N 11.4114 3.37724 3.17012 0
M  V30 69 C 12.1464 4.25837 3.83993 0
M  V30 70 N 11.6424 5.24138 4.53047 0
M  V30 71 N 13.4354 4.1366 3.80581 0
M  V30 72 H 5.5864 2.0565 0.531194 0
M  V30 73 H 7.8494 0.90024 0.297106 0
M  V30 74 H 7.5554 3.10684 1.64828 0
M  V30 75 H 7.4294 2.13923 3.10672 0
M  V30 76 H 9.8164 1.24632 2.6749 0
M  V30 77 H 9.8974 2.2488 1.21912 0
M  V30 78 H 9.5414 4.32791 2.65808 0
M  V30 79 H 9.4714 3.29491 4.10784 0
M  V30 80 H 11.9624 2.6658 2.6785 0
M  V30 81 H 12.2754 5.87684 5.01844 0
M  V30 82 H 10.6204 5.28068 4.5185 0
M  V30 83 H 13.8114 3.36127 3.25785 0
M  V30 84 H 13.9844 4.82538 4.32505 0
M  V30 85 N 7.3905 -1.2043 1.01659 0
M  V30 86 C 8.3205 -2.25466 0.607226 0
M  V30 87 C 9.3015 -1.65853 -0.377716 0
M  V30 88 O 10.4865 -1.92409 -0.263149 0
M  V30 89 C 7.6165 -3.47256 -0.0552949 0
M  V30 90 C 6.5705 -4.19462 0.850632 0
M  V30 91 C 5.8965 -5.34673 0.0538859 0
M  V30 92 C 7.1965 -4.75603 2.15868 0
M  V30 93 H 8.8905 -2.59962 1.48526 0
M  V30 94 H 6.4365 -1.2496 0.715605 0
M  V30 95 H 8.3895 -4.19917 -0.353233 0
M  V30 96 H 7.1135 -3.11924 -0.968045 0
M  V30 97 H 5.7725 -3.48667 1.13257 0
M  V30 98 H 5.4205 -4.95585 -0.860514 0
M  V30 99 H 5.1205 -5.83913 0.657192 0
M  V30 100 H 6.6445 -6.10138 -0.237598 0
M  V30 101 H 8.0585 -5.40083 1.92311 0
M  V30 102 H 6.4555 -5.3528 2.71284 0
M  V30 103 H 7.5255 -3.94346 2.82169 0
M  V30 104 N 8.8686 -0.792821 -1.36206 0
M  V30 105 C 9.7986 -0.207853 -2.32573 0
M  V30 106 C 10.7796 0.659055 -1.56813 0
M  V30 107 O 11.9646 0.592176 -1.84951 0
M  V30 108 C 9.0946 0.655449 -3.41059 0
M  V30 109 C 8.0486 -0.111842 -4.27854 0
M  V30 110 C 7.3746 0.872274 -5.27537 0
M  V30 111 C 8.6746 -1.30299 -5.05786 0
M  V30 112 H 10.3686 -1.01294 -2.81744 0
M  V30 113 H 7.9146 -0.48854 -1.3546 0
M  V30 114 H 9.8676 1.07464 -4.07467 0
M  V30 115 H 8.5916 1.49328 -2.90463 0
M  V30 116 H 7.2506 -0.512053 -3.63006 0
M  V30 117 H 6.8986 1.70523 -4.73214 0
M  V30 118 H 6.5986 0.363291 -5.86476 0
M  V30 119 H 8.1226 1.28996 -5.96818 0
M  V30 120 H 9.5366 -0.959379 -5.65216 0
M  V30 121 H 7.9336 -1.7455 -5.74154 0
M  V30 122 H 9.0036 -2.09663 -4.37229 0
M  V30 123 N 10.3467 1.47872 -0.545128 0
M  V30 124 C 11.5747 2.06889 -0.021084 0
M  V30 125 C 11.9897 1.39955 1.2672 0
M  V30 126 O 11.3467 0.492036 1.75742 0
M  V30 127 C 11.3977 3.60996 0.190817 0
M  V30 128 O 11.1187 4.25419 -1.04644 0
M  V30 129 C 12.6197 4.36849 0.753521 0
M  V30 130 H 9.8397 0.669785 -0.0403635 0
M  V30 131 H 12.3837 1.90049 -0.755095 0
M  V30 132 H 10.5387 3.77391 0.87492 0
M  V30 133 H 10.9527 5.17785 -0.836611 0
M  V30 134 H 12.4267 5.45399 0.851139 0
M  V30 135 H 12.9037 4.02306 1.762 0
M  V30 136 H 13.5097 4.25169 0.105503 0
M  V30 137 N 11.8248 0.280983 1.55075 0
M  V30 138 C 12.7548 -0.597469 2.25727 0
M  V30 139 C 13.7358 -1.15417 1.24952 0
M  V30 140 O 14.9208 -1.18722 1.53684 0
M  V30 141 C 12.0508 -1.7789 2.98283 0
M  V30 142 C 11.0048 -1.35347 4.06036 0
M  V30 143 C 10.3308 -2.61846 4.66198 0
M  V30 144 C 11.6308 -0.499354 5.19907 0
M  V30 145 H 13.3248 -0.00824265 2.99399 0
M  V30 146 H 10.8708 -0.0025244 1.44 0
M  V30 147 H 12.8238 -2.39937 3.46422 0
M  V30 148 H 11.5478 -2.39405 2.22155 0
M  V30 149 H 10.2068 -0.756156 3.58717 0
M  V30 150 H 9.8548 -3.21632 3.86732 0
M  V30 151 H 9.5548 -2.3409 5.38958 0
M  V30 152 H 11.0788 -3.24732 5.1709 0
M  V30 153 H 12.4928 -1.02498 5.64063 0
M  V30 154 H 10.8898 -0.316424 5.99265 0
M  V30 155 H 11.9598 0.480459 4.82514 0
M  V30 156 N 13.3029 -1.57598 0.00835791 0
M  V30 157 C 14.2659 -2.07884 -0.965242 0
M  V30 158 C 15.2659 -0.989825 -1.26725 0
M  V30 159 O 16.4559 -1.25218 -1.21104 0
M  V30 160 C 13.5879 -2.52731 -2.28779 0
M  V30 161 H 14.7809 -2.95178 -0.530112 0
M  V30 162 H 12.3339 -1.54458 -0.239283 0
M  V30 163 H 13.0689 -1.68705 -2.76964 0
M  V30 164 H 12.8539 -3.32272 -2.08177 0
M  V30 165 H 14.3439 -2.91933 -2.98605 0
M  V30 166 N 14.781 0.264519 -1.55364 0
M  V30 167 C 15.711 1.33121 -1.91836 0
M  V30 168 C 16.692 1.51101 -0.781192 0
M  V30 169 O 17.877 1.64003 -1.04003 0
M  V30 170 C 15.007 2.68921 -2.19769 0
M  V30 171 C 13.961 2.65661 -3.35571 0
M  V30 172 C 13.287 4.05093 -3.49004 0
M  V30 173 C 14.587 2.24187 -4.71739 0
M  V30 174 H 16.281 1.02844 -2.81182 0
M  V30 175 H 13.827 0.493286 -1.35287 0
M  V30 176 H 15.78 3.43663 -2.43872 0
M  V30 177 H 14.504 3.00799 -1.27231 0
M  V30 178 H 13.163 1.93377 -3.1145 0
M  V30 179 H 12.811 4.34206 -2.53917 0
M  V30 180 H 12.511 4.03804 -4.26868 0
M  V30 181 H 14.035 4.81561 -3.75408 0
M  V30 182 H 15.449 2.88654 -4.9533 0
M  V30 183 H 13.846 2.34044 -5.52579 0
M  V30 184 H 14.916 1.19327 -4.69988 0
M  V30 185 N 16.2591 1.48442 0.529413 0
M  V30 186 C 17.1891 1.65902 1.64313 0
M  V30 187 C 18.1701 0.507897 1.6234 0
M  V30 188 O 19.3551 0.740503 1.79528 0
M  V30 189 C 16.4851 1.69911 3.02898 0
M  V30 190 C 15.4391 2.8453 3.19729 0
M  V30 191 C 14.7651 2.73629 4.59381 0
M  V30 192 C 16.0651 4.25821 3.02447 0
M  V30 193 H 17.7591 2.5914 1.49955 0
M  V30 194 H 15.3051 1.24709 0.719982 0
M  V30 195 H 17.2581 1.80715 3.80684 0
M  V30 196 H 15.9821 0.732524 3.18279 0
M  V30 197 H 14.6411 2.73283 2.44361 0
M  V30 198 H 14.2891 1.74938 4.71599 0
M  V30 199 H 13.9891 3.50541 4.71588 0
M  V30 200 H 15.5131 2.86401 5.39265 0
M  V30 201 H 16.9271 4.37898 3.70024 0
M  V30 202 H 15.3241 5.03735 3.26146 0
M  V30 203 H 16.3941 4.42244 1.98867 0
M  V30 204 N 17.7372 -0.778329 1.37039 0
M  V30 205 C 18.9842 -1.53665 1.31884 0
M  V30 206 C 19.3122 -1.9425 -0.0986303 0
M  V30 207 O 18.5672 -1.63832 -1.07041 0
M  V30 208 C 18.8662 -2.81845 2.19768 0
M  V30 209 C 18.5322 -2.60345 3.68146 0
M  V30 210 C 17.1942 -2.5419 4.08584 0
M  V30 211 C 19.5462 -2.40923 4.62175 0
M  V30 212 C 16.8742 -2.26594 5.41177 0
M  V30 213 C 19.2262 -2.14852 5.94997 0
M  V30 214 C 17.8902 -2.07137 6.34547 0
M  V30 215 H 17.1602 -0.562299 0.482598 0
M  V30 216 H 19.8072 -0.897069 1.69189 0
M  V30 217 H 18.1122 -3.50328 1.75436 0
M  V30 218 H 19.8092 -3.39692 2.13097 0
M  V30 219 H 16.3992 -2.65996 3.36072 0
M  V30 220 H 20.5832 -2.44673 4.31797 0
M  V30 221 H 15.8392 -2.19111 5.70789 0
M  V30 222 H 20.0132 -1.98822 6.67415 0
M  V30 223 H 17.6402 -1.85518 7.37216 0
M  V30 224 N 19.2153 -1.21501 -1.00376 0
M  V30 225 C 20.4403 -1.05977 -1.78279 0
M  V30 226 C 20.8653 0.385994 -1.84097 0
M  V30 227 O 20.2233 1.27849 -1.28547 0
M  V30 228 C 20.2713 -1.66302 -3.19963 0
M  V30 229 O 19.3753 -0.909333 -4.0225 0
M  V30 230 H 18.7163 -0.372906 -0.549397 0
M  V30 231 H 21.2463 -1.6107 -1.26165 0
M  V30 232 H 21.2563 -1.70574 -3.70632 0
M  V30 233 H 19.9313 -2.71515 -3.15043 0
M  V30 234 H 18.5083 -0.941795 -3.60811 0
M  V30 235 N 20.6934 1.19889 -1.02296 0
M  V30 236 C 21.9334 1.91125 -0.724602 0
M  V30 237 C 22.2974 1.77464 0.732835 0
M  V30 238 O 23.4984 2.43241 1.144 0
M  V30 239 C 21.7694 3.38187 -1.15604 0
M  V30 240 S 23.3284 4.27702 -0.980621 0
M  V30 241 H 20.1464 0.66018 -0.263976 0
M  V30 242 H 22.7484 1.44978 -1.31155 0
M  V30 243 H 21.4524 3.45653 -2.21251 0
M  V30 244 H 20.9834 3.89363 -0.562131 0
M  V30 245 H 22.9984 4.96073 0.112225 0
M  V30 246 N 22.1715 0.800033 1.35784 0
M  V30 247 C 23.3965 0.388511 2.03729 0
M  V30 248 C 23.8215 -0.990481 1.5991 0
M  V30 249 O 23.1795 -1.64013 0.772612 0
M  V30 250 C 23.2275 0.4726 3.5749 0
M  V30 251 O 22.3315 -0.51646 4.09153 0
M  V30 252 H 21.6725 0.163271 0.643614 0
M  V30 253 H 24.2025 1.0841 1.73518 0
M  V30 254 H 24.2125 0.34003 4.06581 0
M  V30 255 H 22.8875 1.47848 3.88734 0
M  V30 256 H 21.4645 -0.344673 3.71304 0
M  V30 257 N 23.6496 -1.47581 0.552962 0
M  V30 258 C 24.8956 -2.02782 0.0273648 0
M  V30 259 C 25.2286 -1.42687 -1.31734 0
M  V30 260 O 24.5036 -0.580897 -1.85623 0
M  V30 261 C 24.7866 -3.60031 -0.0702371 0
M  V30 262 C 24.6396 -4.30566 1.30126 0
M  V30 263 C 25.9586 -4.33028 -0.785771 0
M  V30 264 H 23.0776 -0.736912 0.0114185 0
M  V30 265 H 25.7196 -1.76056 0.714432 0
M  V30 266 H 23.8696 -3.82932 -0.655382 0
M  V30 267 H 25.5416 -4.19018 1.92929 0
M  V30 268 H 23.7846 -3.91086 1.87709 0
M  V30 269 H 24.4556 -5.39114 1.18573 0
M  V30 270 H 26.9316 -4.15095 -0.288982 0
M  V30 271 H 25.8076 -5.42695 -0.823013 0
M  V30 272 H 26.0686 -4.01945 -1.841 0
M  V30 273 N 25.1277 -0.289203 -1.54924 0
M  V30 274 C 26.0907 0.579144 -2.21762 0
M  V30 275 C 27.0907 1.07047 -1.1999 0
M  V30 276 O 28.2807 0.968384 -1.44803 0
M  V30 277 C 25.4127 1.80055 -2.8947 0
M  V30 278 H 26.6057 -0.00464908 -2.999 0
M  V30 279 H 24.1587 -0.0399306 -1.56249 0
M  V30 280 H 24.8937 2.42449 -2.15381 0
M  V30 281 H 24.6787 1.45602 -3.64064 0
M  V30 282 H 26.1687 2.41773 -3.40493 0
M  V30 283 N 26.6058 1.57591 -0.0167156 0
M  V30 284 C 28.0218 1.55946 0.339557 0
M  V30 285 C 28.2218 1.02109 1.73713 0
M  V30 286 O 27.2778 0.662303 2.43659 0
M  V30 287 C 28.5908 3.00037 0.199499 0
M  V30 288 C 30.1388 3.11805 0.273193 0
M  V30 289 C 30.6138 4.57713 0.162068 0
M  V30 290 N 32.1048 4.6268 0.219444 0
M  V30 291 C 32.8398 5.73185 0.157054 0
M  V30 292 N 32.3358 6.92786 0.0442936 0
M  V30 293 N 34.1288 5.61707 0.21014 0
M  V30 294 H 26.2798 1.90921 -0.930758 0
M  V30 295 H 28.5428 0.877674 -0.358319 0
M  V30 296 H 28.2488 3.4333 -0.76273 0
M  V30 297 H 28.1228 3.64387 0.974786 0
M  V30 298 H 30.5098 2.68433 1.22587 0
M  V30 299 H 30.5908 2.50201 -0.532256 0
M  V30 300 H 30.2348 5.01763 -0.78714 0
M  V30 301 H 30.1648 5.17283 0.986222 0
M  V30 302 H 32.6558 3.76649 0.307246 0
M  V30 303 H 32.9688 7.728 0.00304069 0
M  V30 304 H 31.3138 6.94999 0.00968457 0
M  V30 305 H 34.5048 4.6716 0.296546 0
M  V30 306 H 34.6778 6.47807 0.158054 0
M  V30 307 N 28.0839 -0.256276 1.55502 0
M  V30 308 C 29.0469 -1.30047 1.88734 0
M  V30 309 C 30.0469 -1.4154 0.763086 0
M  V30 310 O 31.2369 -1.40403 1.03115 0
M  V30 311 C 28.3689 -2.67953 2.10747 0
M  V30 312 H 29.5619 -1.01802 2.82093 0
M  V30 313 H 27.1149 -0.495134 1.4825 0
M  V30 314 H 27.8499 -3.01351 1.19825 0
M  V30 315 H 27.6349 -2.60993 2.92617 0
M  V30 316 H 29.1249 -3.43368 2.37673 0
M  V30 317 N 29.562 -1.4872 -0.521534 0
M  V30 318 C 30.525 -1.63379 -1.60748 0
M  V30 319 C 31.525 -0.50661 -1.52611 0
M  V30 320 O 32.715 -0.772601 -1.5613 0
M  V30 321 C 29.847 -1.61192 -3.00383 0
M  V30 322 H 31.04 -2.60217 -1.49087 0
M  V30 323 H 28.593 -1.37444 -0.744235 0
M  V30 324 H 29.328 -0.65863 -3.17541 0
M  V30 325 H 29.113 -2.43032 -3.07698 0
M  V30 326 H 30.603 -1.7466 -3.7932 0
M  V30 327 N 31.0401 0.771051 -1.3745 0
M  V30 328 C 32.2801 1.54264 -1.34096 0
M  V30 329 C 32.6441 1.91858 0.0737639 0
M  V30 330 O 33.8451 2.67797 0.23203 0
M  V30 331 C 32.1161 2.77326 -2.25445 0
M  V30 332 S 33.6751 3.67383 -2.39948 0
M  V30 333 H 30.4931 0.528122 -0.476034 0
M  V30 334 H 33.0951 0.906633 -1.73206 0
M  V30 335 H 31.7991 2.47788 -3.27153 0
M  V30 336 H 31.3301 3.45886 -1.87421 0
M  V30 337 H 33.3451 4.69334 -1.61059 0
M  V30 338 N 32.5182 1.22032 0.997298 0
M  V30 339 C 33.7952 0.950823 1.70935 0
M  V30 340 C 34.1752 -0.535292 2.042 0
M  V30 341 O 33.5232 -1.50217 1.72183 0
M  V30 342 C 33.7332 1.84386 2.96315 0
M  V30 343 C 35.0812 2.09732 3.69185 0
M  V30 344 O 36.1052 1.81798 3.06314 0
M  V30 345 O 34.9642 2.57018 4.82291 0
M  V30 346 H 32.0582 0.357204 0.745878 0
M  V30 347 H 34.6042 1.32997 1.05404 0
M  V30 348 H 33.3762 2.84928 2.68201 0
M  V30 349 H 32.9992 1.46602 3.69586 0
M  V30 350 N 33.9963 -1.19345 1.0293 0
M  V30 351 C 35.4073 -1.70725 0.755633 0
M  V30 352 C 35.7583 -1.82326 -0.724676 0
M  V30 353 O 34.8833 -1.49471 -1.56484 0
M  V30 354 C 35.4783 -3.10084 1.36503 0
M  V30 355 C 34.0373 -3.58723 1.13994 0
M  V30 356 C 33.1843 -2.35577 1.46283 0
M  V30 357 H 36.1353 -1.0418 1.19718 0
M  V30 358 H 36.1563 -3.72787 0.762217 0
M  V30 359 H 35.6683 -3.01609 2.44241 0
M  V30 360 H 33.7693 -3.72512 0.0807901 0
M  V30 361 H 33.8823 -4.42816 1.82894 0
M  V30 362 H 32.2463 -2.38935 0.88217 0
M  V30 363 H 33.0293 -2.29731 2.55105 0
M  V30 364 N 35.4744 -0.807222 -1.35358 0
M  V30 365 C 36.4214 -0.216037 -2.29787 0
M  V30 366 C 37.3914 0.650278 -1.52842 0
M  V30 367 O 38.5764 0.595227 -1.81278 0
M  V30 368 C 35.7164 0.628893 -3.39321 0
M  V30 369 C 34.8294 -0.257927 -4.31229 0
M  V30 370 C 33.9644 0.595069 -5.27856 0
M  V30 371 C 33.0034 -0.292111 -6.11403 0
M  V30 372 N 32.1404 0.520895 -7.00165 0
M  V30 373 H 36.9804 -1.02671 -2.79755 0
M  V30 374 H 34.5174 -0.517839 -1.37684 0
M  V30 375 H 36.4754 1.13393 -4.01494 0
M  V30 376 H 35.1054 1.40482 -2.90628 0
M  V30 377 H 34.1574 -0.881076 -3.70056 0
M  V30 378 H 35.4694 -0.940759 -4.89848 0
M  V30 379 H 34.6234 1.16522 -5.95405 0
M  V30 380 H 33.3624 1.31146 -4.69736 0
M  V30 381 H 32.3674 -0.874525 -5.428 0
M  V30 382 H 33.5924 -1.00638 -6.71602 0
M  V30 383 H 31.5384 1.22125 -6.44532 0
M  V30 384 H 31.4554 -0.103877 -7.55929 0
M  V30 385 H 32.7234 1.0743 -7.72062 0
M  V30 386 N 36.9525 1.47285 -0.560781 0
M  V30 387 C 38.2015 2.01668 -0.035895 0
M  V30 388 C 38.5145 1.44021 1.32353 0
M  V30 389 O 39.7205 1.90088 1.93853 0
M  V30 390 C 38.1765 3.59897 -0.0136659 0
M  V30 391 C 37.7845 4.26536 -1.37006 0
M  V30 392 C 39.5285 4.22017 0.458425 0
M  V30 393 C 37.4355 5.76782 -1.30675 0
M  V30 394 H 36.3655 0.753938 -0.00964879 0
M  V30 395 H 39.0165 1.69243 -0.709166 0
M  V30 396 H 37.3985 3.89301 0.725325 0
M  V30 397 H 38.5725 4.0877 -2.12705 0
M  V30 398 H 36.8875 3.76419 -1.78038 0
M  V30 399 H 39.4845 5.32124 0.524247 0
M  V30 400 H 39.8275 3.89437 1.4712 0
M  V30 401 H 40.3605 3.97159 -0.225818 0
M  V30 402 H 37.0995 6.13988 -2.29564 0
M  V30 403 H 36.6195 5.96875 -0.591622 0
M  V30 404 H 38.2985 6.39063 -1.01033 0
M  V30 405 N 38.4306 0.297415 1.54768 0
M  V30 406 C 39.6766 -0.313376 2.00364 0
M  V30 407 C 40.0096 -1.53815 1.18553 0
M  V30 408 O 39.2846 -1.92739 0.261103 0
M  V30 409 C 39.5676 -0.673525 3.53745 0
M  V30 410 C 39.4206 0.560133 4.46299 0
M  V30 411 C 40.7396 -1.50143 4.13697 0
M  V30 412 H 37.8586 -0.112428 0.728374 0
M  V30 413 H 40.5006 0.4088 1.8555 0
M  V30 414 H 38.6506 -1.28881 3.665 0
M  V30 415 H 40.3226 1.19863 4.45455 0
M  V30 416 H 38.5656 1.19405 4.17043 0
M  V30 417 H 39.2366 0.26405 5.51368 0
M  V30 418 H 41.7126 -0.981588 4.04356 0
M  V30 419 H 40.5886 -1.72221 5.21182 0
M  V30 420 H 40.8496 -2.48952 3.65343 0
M  V30 421 N 39.9087 -1.5758 0.0250728 0
M  V30 422 C 40.8567 -2.11125 -0.97617 0
M  V30 423 C 41.8507 -1.03689 -1.33959 0
M  V30 424 O 43.0567 -1.22128 -1.3223 0
M  V30 425 H 39.4317 -0.674468 -0.332561 0
M  V30 426 H 41.4027 -2.94194 -0.499223 0
M  V30 427 C 40.1517 -2.65017 -2.2508 0
M  V30 428 H 39.4747 -3.47333 -1.9799 0
M  V30 429 H 40.9147 -3.06133 -2.93357 0
M  V30 430 C 39.3737 -1.57574 -2.97779 0
M  V30 431 O 39.9037 -0.973203 -3.89733 0
M  V30 432 N 38.1097 -1.29716 -2.60043 0
M  V30 433 H 37.6567 -1.789 -1.85345 0
M  V30 434 H 37.6147 -0.58051 -3.08994 0
M  V30 435 N 41.3868 0.248026 -1.55636 0
M  V30 436 C 42.6358 0.974134 -1.76617 0
M  V30 437 C 42.9488 1.86528 -0.588796 0
M  V30 438 O 44.1548 2.62805 -0.681594 0
M  V30 439 C 42.6108 1.78213 -3.12679 0
M  V30 440 C 42.2188 0.93843 -4.38061 0
M  V30 441 C 43.9628 2.50104 -3.42999 0
M  V30 442 C 41.8698 1.74225 -5.65155 0
M  V30 443 H 40.7998 0.36745 -0.658405 0
M  V30 444 H 43.4508 0.22884 -1.82067 0
M  V30 445 H 41.8328 2.56933 -3.01333 0
M  V30 446 H 43.0068 0.193635 -4.60393 0
M  V30 447 H 41.3218 0.332905 -4.15067 0
M  V30 448 H 43.9188 3.10694 -4.3517 0
M  V30 449 H 44.2618 3.21662 -2.64271 0
M  V30 450 H 44.7948 1.78395 -3.55556 0
M  V30 451 H 41.5338 1.07043 -6.46701 0
M  V30 452 H 41.0538 2.46235 -5.46926 0
M  V30 453 H 42.7328 2.30967 -6.0437 0
M  V30 454 N 42.8649 1.48995 0.513639 0
M  V30 455 C 44.1129 1.57531 1.26604 0
M  V30 456 C 44.4339 0.258236 1.93283 0
M  V30 457 O 43.7039 -0.721502 1.8213 0
M  V30 458 H 42.2839 0.580387 0.470276 0
M  V30 459 H 44.9459 1.85552 0.596373 0
M  V30 460 H 44.0419 2.36486 2.03669 0
M  V30 461 N 44.343 -0.763751 1.37857 0
M  V30 462 C 45.306 -1.85889 1.34081 0
M  V30 463 C 46.306 -1.58949 0.243277 0
M  V30 464 O 47.496 -1.66882 0.499589 0
M  V30 465 C 44.628 -3.23176 1.08489 0
M  V30 466 H 45.821 -1.90648 2.31502 0
M  V30 467 H 43.374 -0.964367 1.23003 0
M  V30 468 H 44.109 -3.24091 0.116318 0
M  V30 469 H 43.894 -3.44124 1.8794 0
M  V30 470 H 45.384 -4.03254 1.08517 0
M  V30 471 N 45.8211 -1.22559 -0.990812 0
M  V30 472 C 47.0671 -1.05297 -1.73322 0
M  V30 473 C 47.4001 0.410655 -1.89808 0
M  V30 474 O 46.6751 1.30439 -1.44277 0
M  V30 475 C 46.9581 -1.76713 -3.13759 0
M  V30 476 C 46.8111 -3.30684 -3.04907 0
M  V30 477 C 48.1301 -1.52121 -4.12974 0
M  V30 478 H 45.2491 -0.38392 -0.629106 0
M  V30 479 H 47.8911 -1.50926 -1.15418 0
M  V30 480 H 46.0411 -1.37924 -3.63193 0
M  V30 481 H 47.7131 -3.7893 -2.63077 0
M  V30 482 H 45.9561 -3.60253 -2.41661 0
M  V30 483 H 46.6271 -3.75833 -4.04294 0
M  V30 484 H 49.1031 -1.85819 -3.72304 0
M  V30 485 H 47.9791 -2.04582 -5.0935 0
M  V30 486 H 48.2401 -0.454257 -4.3976 0
M  V30 487 N 47.2992 1.18797 -1.03562 0
M  V30 488 C 48.2292 2.24472 -0.643019 0
M  V30 489 C 49.2102 1.66433 0.351283 0
M  V30 490 O 50.3952 1.92803 0.232505 0
M  V30 491 C 47.5252 3.473 4.24935e-05 0
M  V30 492 C 46.4792 4.18055 -0.917257 0
M  V30 493 C 45.8052 5.34519 -0.138941 0
M  V30 494 C 47.1052 4.72109 -2.23407 0
M  V30 495 H 48.7992 2.57566 -1.52643 0
M  V30 496 H 46.3452 1.23806 -0.735394 0
M  V30 497 H 48.2982 4.20426 0.286383 0
M  V30 498 H 47.0222 3.13424 0.918299 0
M  V30 499 H 45.6812 3.46821 -1.1879 0
M  V30 500 H 45.3292 4.96891 0.781562 0
M  V30 501 H 45.0292 5.82794 -0.750005 0
M  V30 502 H 46.5532 6.10438 0.1405 0
M  V30 503 H 47.9672 5.36955 -2.00879 0
M  V30 504 H 46.3642 5.30897 -2.79765 0
M  V30 505 H 47.4342 3.89807 -2.88407 0
M  V30 506 N 48.7773 0.814389 1.34928 0
M  V30 507 C 50.0023 0.410097 2.03305 0
M  V30 508 C 50.4273 -0.973464 1.60951 0
M  V30 509 O 49.7853 -1.63185 0.789964 0
M  V30 510 C 49.8333 0.51049 3.56968 0
M  V30 511 O 48.9373 -0.473035 4.09678 0
M  V30 512 H 48.2783 0.170088 0.641846 0
M  V30 513 H 50.8083 1.10244 1.72358 0
M  V30 514 H 50.8183 0.383135 4.06197 0
M  V30 515 H 49.4933 1.51963 3.87144 0
M  V30 516 H 48.0703 -0.305272 3.71648 0
M  V30 517 N 50.2554 -1.46986 0.568584 0
M  V30 518 C 51.4834 -2.0683 0.0539956 0
M  V30 519 C 51.8984 -1.41953 -1.24478 0
M  V30 520 O 51.2554 -0.519933 -1.74937 0
M  V30 521 C 51.3064 -3.61254 -0.133362 0
M  V30 522 O 51.0274 -4.237 1.11399 0
M  V30 523 C 52.5284 -4.37992 -0.683927 0
M  V30 524 H 49.7484 -0.669058 0.0510141 0
M  V30 525 H 52.2924 -1.88824 0.785234 0
M  V30 526 H 50.4474 -3.78735 -0.81477 0
M  V30 527 H 50.8614 -5.16388 0.91888 0
M  V30 528 H 52.3354 -5.46684 -0.764263 0
M  V30 529 H 52.8124 -4.05058 -1.69778 0
M  V30 530 H 53.4184 -4.25283 -0.0378494 0
M  V30 531 N 51.7335 -0.305618 -1.54608 0
M  V30 532 C 53.1495 0.0476228 -1.59529 0
M  V30 533 C 53.3495 1.52025 -1.32252 0
M  V30 534 O 52.4055 2.27368 -1.09818 0
M  V30 535 C 53.7185 -0.354471 -2.98603 0
M  V30 536 C 55.2665 -0.303622 -3.11524 0
M  V30 537 C 55.7415 -0.680608 -4.52915 0
M  V30 538 N 57.2325 -0.63332 -4.5885 0
M  V30 539 C 57.9675 -0.897432 -5.66334 0
M  V30 540 N 57.4635 -1.22775 -6.81834 0
M  V30 541 N 59.2565 -0.824186 -5.56025 0
M  V30 542 H 51.4075 -1.2653 -1.70599 0
M  V30 543 H 53.6705 -0.513291 -0.797017 0
M  V30 544 H 53.3765 -1.3798 -3.23503 0
M  V30 545 H 53.2505 0.289568 -3.76087 0
M  V30 546 H 55.6375 0.712472 -2.8637 0
M  V30 547 H 55.7185 -0.982348 -2.36185 0
M  V30 548 H 55.3625 -1.69453 -4.78799 0
M  V30 549 H 55.2925 0.0202385 -5.26596 0
M  V30 550 H 57.7835 -0.389138 -3.75891 0
M  V30 551 H 58.0965 -1.41513 -7.59733 0
M  V30 552 H 56.4415 -1.26583 -6.83375 0
M  V30 553 H 59.6325 -0.565748 -4.64669 0
M  V30 554 H 59.8055 -1.03338 -6.39707 0
M  V30 555 N 53.2116 1.57565 -0.0334293 0
M  V30 556 C 54.1586 2.10478 0.946981 0
M  V30 557 C 55.1286 1.00787 1.32027 0
M  V30 558 O 56.3136 1.28232 1.41284 0
M  V30 559 C 53.4536 2.63994 2.22263 0
M  V30 560 C 52.5666 3.87709 1.90541 0
M  V30 561 C 51.7016 4.29604 3.12433 0
M  V30 562 C 50.7406 5.46065 2.76549 0
M  V30 563 N 49.8776 5.83096 3.9108 0
M  V30 564 H 54.7176 2.93963 0.488846 0
M  V30 565 H 52.2546 1.45296 0.22969 0
M  V30 566 H 54.2126 2.93114 2.96884 0
M  V30 567 H 52.8426 1.83333 2.65685 0
M  V30 568 H 51.8946 3.65291 1.06144 0
M  V30 569 H 53.2066 4.72403 1.60116 0
M  V30 570 H 52.3606 4.60182 3.9537 0
M  V30 571 H 51.0996 3.43685 3.46023 0
M  V30 572 H 50.1046 5.15176 1.92026 0
M  V30 573 H 51.3296 6.33685 2.44171 0
M  V30 574 H 49.2756 5.00132 4.24504 0
M  V30 575 H 49.1926 6.6244 3.64293 0
M  V30 576 H 50.4606 6.18282 4.74708 0
M  V30 577 N 54.6897 -0.239769 1.55765 0
M  V30 578 C 55.6397 -1.30002 1.87306 0
M  V30 579 C 56.6237 -1.43156 0.73452 0
M  V30 580 O 57.8157 -1.46277 0.99659 0
M  V30 581 C 54.9447 -2.65409 2.17745 0
M  V30 582 C 54.0307 -2.56231 3.37945 0
M  V30 583 N 54.4217 -2.16689 4.57033 0
M  V30 584 C 52.7197 -2.87229 3.41197 0
M  V30 585 C 53.4207 -2.18318 5.39177 0
M  V30 586 N 52.3967 -2.58098 4.78421 0
M  V30 587 H 56.1987 -0.984912 2.76906 0
M  V30 588 H 53.7127 -0.448381 1.56087 0
M  V30 589 H 55.7097 -3.41934 2.38509 0
M  V30 590 H 54.3697 -2.97781 1.29448 0
M  V30 591 H 55.3807 -1.88116 4.82528 0
M  V30 592 H 52.0577 -3.24094 2.63191 0
M  V30 593 H 53.4477 -1.90025 6.44469 0
M  V30 594 N 56.1678 -1.49265 -0.50573 0
M  V30 595 C 57.0778 -1.68312 -1.63427 0
M  V30 596 C 58.0938 -0.565682 -1.64548 0
M  V30 597 O 59.2698 -0.839801 -1.83055 0
M  V30 598 C 56.3348 -1.74107 -2.99813 0
M  V30 599 C 55.3958 -2.97653 -3.09356 0
M  V30 600 C 54.6288 -3.03163 -4.39236 0
M  V30 601 O 54.8518 -2.16396 -5.27758 0
M  V30 602 O 53.7858 -3.9558 -4.53652 0
M  V30 603 H 57.6118 -2.63907 -1.50289 0
M  V30 604 H 55.1968 -1.32951 -0.681502 0
M  V30 605 H 57.0788 -1.803 -3.80881 0
M  V30 606 H 55.7538 -0.816901 -3.13223 0
M  V30 607 H 54.6608 -2.96981 -2.27493 0
M  V30 608 H 55.9938 -3.89535 -3.00871 0
M  V30 609 N 57.6459 0.756429 -1.3826 0
M  V30 610 C 58.5779 1.87971 -1.31147 0
M  V30 611 C 59.5909 1.61248 -0.224239 0
M  V30 612 O 60.7799 1.71881 -0.481581 0
M  V30 613 C 57.8799 3.23545 -1.00857 0
M  V30 614 C 57.0529 3.77794 -2.20432 0
M  V30 615 C 56.1119 4.91877 -1.86931 0
M  V30 616 O 55.1379 5.06659 -2.59395 0
M  V30 617 N 56.3399 5.74643 -0.822568 0
M  V30 618 H 59.1049 1.94585 -2.2794 0
M  V30 619 H 56.6659 0.936234 -1.32084 0
M  V30 620 H 58.6579 3.97403 -0.765021 0
M  V30 621 H 57.2279 3.12335 -0.128687 0
M  V30 622 H 56.4479 2.95534 -2.6087 0
M  V30 623 H 57.7359 4.10771 -3.00241 0
M  V30 624 H 57.1339 5.65266 -0.221575 0
M  V30 625 H 55.6909 6.48661 -0.638899 0
M  V30 626 N 59.124 1.23083 0.984299 0
M  V30 627 C 60.057 0.951786 2.07404 0
M  V30 628 C 61.035 -0.10848 1.62238 0
M  V30 629 O 62.219 0.0249467 1.88483 0
M  V30 630 C 59.346 0.433142 3.35919 0
M  V30 631 C 58.392 1.47941 4.0002 0
M  V30 632 S 59.225 3.05556 4.39768 0
M  V30 633 C 60.381 2.55351 5.71442 0
M  V30 634 H 60.614 1.87456 2.30754 0
M  V30 635 H 58.147 1.06284 1.11996 0
M  V30 636 H 60.105 0.140506 4.10259 0
M  V30 637 H 58.766 -0.468656 3.10584 0
M  V30 638 H 57.959 1.06658 4.92585 0
M  V30 639 H 57.561 1.7212 3.3204 0
M  V30 640 H 59.853 1.97128 6.48187 0
M  V30 641 H 60.796 3.46441 6.17563 0
M  V30 642 H 61.204 1.96339 5.29255 0
M  V30 643 N 60.6021 -1.18246 1.0419 0
M  V30 644 C 61.8491 -1.88257 0.746017 0
M  V30 645 C 62.1771 -1.80429 -0.726331 0
M  V30 646 O 61.4321 -1.2 -1.54591 0
M  V30 647 C 61.7311 -3.38082 1.15911 0
M  V30 648 C 61.3971 -3.66114 2.63195 0
M  V30 649 C 60.0591 -3.73474 3.03432 0
M  V30 650 C 62.4111 -3.78398 3.5842 0
M  V30 651 C 59.7391 -3.90599 4.37778 0
M  V30 652 C 62.0911 -3.97039 4.92487 0
M  V30 653 C 60.7551 -4.02635 5.32392 0
M  V30 654 H 60.0251 -0.688883 0.272987 0
M  V30 655 H 62.6721 -1.3995 1.30715 0
M  V30 656 H 60.9771 -3.88377 0.516806 0
M  V30 657 H 62.6741 -3.90596 0.907516 0
M  V30 658 H 59.2641 -3.61003 2.3103 0
M  V30 659 H 63.4481 -3.72042 3.28479 0
M  V30 660 H 58.7041 -3.93175 4.68213 0
M  V30 661 H 62.8781 -4.05486 5.66175 0
M  V30 662 H 60.5051 -4.15657 6.36501 0
M  V30 663 N 62.0802 -0.821533 -1.34494 0
M  V30 664 C 63.4962 -0.507117 -1.51329 0
M  V30 665 C 63.6962 0.968964 -1.76673 0
M  V30 666 O 62.7522 1.75348 -1.81685 0
M  V30 667 C 64.0652 -1.36544 -2.67911 0
M  V30 668 C 65.6132 -1.36242 -2.81793 0
M  V30 669 C 66.0882 -2.2052 -4.01416 0
M  V30 670 N 67.5792 -2.18136 -4.08621 0
M  V30 671 C 68.3142 -2.80095 -5.00334 0
M  V30 672 N 67.8102 -3.51039 -5.9728 0
M  V30 673 N 69.6032 -2.69656 -4.93196 0
M  V30 674 H 61.7542 -1.77729 -1.16302 0
M  V30 675 H 64.0172 -0.757291 -0.570276 0
M  V30 676 H 63.7232 -2.41361 -2.55808 0
M  V30 677 H 63.5972 -1.02917 -3.62888 0
M  V30 678 H 65.9842 -0.322041 -2.93338 0
M  V30 679 H 66.0652 -1.73866 -1.87628 0
M  V30 680 H 65.7092 -3.24607 -3.90631 0
M  V30 681 H 65.6392 -1.80247 -4.94791 0
M  V30 682 H 68.1302 -1.6653 -3.39229 0
M  V30 683 H 68.4432 -3.95565 -6.63889 0
M  V30 684 H 66.7882 -3.55145 -5.97409 0
M  V30 685 H 69.9792 -2.13808 -4.16418 0
M  V30 686 H 70.1522 -3.1823 -5.64476 0
M  V30 687 N 63.5583 1.46682 -0.576371 0
M  V30 688 C 64.4683 2.34032 0.163141 0
M  V30 689 C 65.4843 1.49367 0.892501 0
M  V30 690 O 66.6603 1.82252 0.857106 0
M  V30 691 C 63.7253 3.26435 1.16795 0
M  V30 692 C 62.7863 4.26998 0.443944 0
M  V30 693 C 62.0193 5.14986 1.40088 0
M  V30 694 O 62.2423 5.05785 2.637 0
M  V30 695 O 61.1763 5.94906 0.914917 0
M  V30 696 H 65.0023 2.98607 -0.55388 0
M  V30 697 H 62.5873 1.45554 -0.336821 0
M  V30 698 H 64.4693 3.83459 1.74748 0
M  V30 699 H 63.1443 2.64465 1.86655 0
M  V30 700 H 62.0513 3.7368 -0.177271 0
M  V30 701 H 63.3843 4.91736 -0.213566 0
M  V30 702 N 65.0364 0.313813 1.54444 0
M  V30 703 C 65.9994 -0.54379 2.22656 0
M  V30 704 C 66.9994 -1.05124 1.21678 0
M  V30 705 O 68.1894 -0.945225 1.46325 0
M  V30 706 C 65.3214 -1.75427 2.92298 0
M  V30 707 H 66.5144 0.0523599 2.99854 0
M  V30 708 H 64.0674 0.0647834 1.56166 0
M  V30 709 H 64.8024 -2.38991 2.19211 0
M  V30 710 H 64.5874 -1.39791 3.66334 0
M  V30 711 H 66.0774 -2.36325 3.44297 0
M  V30 712 N 66.5145 -1.57545 0.0417849 0
M  V30 713 C 67.7605 -1.92601 -0.635021 0
M  V30 714 C 68.0935 -0.919627 -1.71045 0
M  V30 715 O 67.3685 0.0557892 -1.9442 0
M  V30 716 C 67.6515 -3.38085 -1.23979 0
M  V30 717 C 67.5045 -4.49467 -0.173057 0
M  V30 718 C 68.8235 -3.83776 -2.15416 0
M  V30 719 H 65.9425 -0.700397 -0.229374 0
M  V30 720 H 68.5845 -1.89728 0.101633 0
M  V30 721 H 66.7345 -3.40664 -1.86762 0
M  V30 722 H 68.4065 -4.59018 0.458312 0
M  V30 723 H 66.6495 -4.30909 0.499996 0
M  V30 724 H 67.3205 -5.48323 -0.636054 0
M  V30 725 H 69.7965 -3.83013 -1.62605 0
M  V30 726 H 68.6725 -4.8624 -2.54679 0
M  V30 727 H 68.9335 -3.19998 -3.05047 0
M  V30 728 N 67.9926 0.231505 -1.5589 0
M  V30 729 C 68.9406 1.30649 -1.92441 0
M  V30 730 C 69.9346 1.49037 -0.805254 0
M  V30 731 O 71.1406 1.50329 -0.990007 0
M  V30 732 H 67.5156 0.437812 -0.611412 0
M  V30 733 H 69.4866 0.970973 -2.82161 0
M  V30 734 C 68.2356 2.65179 -2.24889 0
M  V30 735 H 67.5586 2.51835 -3.10514 0
M  V30 736 H 68.9986 3.39234 -2.54355 0
M  V30 737 C 67.4576 3.19439 -1.07054 0
M  V30 738 O 67.9876 4.00371 -0.326499 0
M  V30 739 N 66.1936 2.77675 -0.85703 0
M  V30 740 H 65.7406 2.11969 -1.46379 0
M  V30 741 H 65.6986 3.14321 -0.0703223 0
M  V30 742 N 69.4707 1.49531 0.497807 0
M  V30 743 C 70.4027 1.62559 1.61578 0
M  V30 744 C 71.4157 0.508134 1.54667 0
M  V30 745 O 72.6047 0.780309 1.60541 0
M  V30 746 C 69.7047 1.56925 3.00379 0
M  V30 747 C 68.8777 2.84257 3.3244 0
M  V30 748 C 67.9367 2.71632 4.50669 0
M  V30 749 O 66.9627 3.4557 4.52294 0
M  V30 750 N 68.1647 1.83391 5.5077 0
M  V30 751 H 70.9297 2.58981 1.50828 0
M  V30 752 H 68.4907 1.4666 0.685743 0
M  V30 753 H 70.4827 1.46129 3.77397 0
M  V30 754 H 69.0527 0.683483 3.05037 0
M  V30 755 H 68.2727 3.09381 2.44289 0
M  V30 756 H 69.5607 3.68666 3.5066 0
M  V30 757 H 68.9587 1.22583 5.52259 0
M  V30 758 H 67.5157 1.78515 6.26878 0
M  V30 759 N 70.9488 -0.749086 1.3866 0
M  V30 760 C 71.9118 -1.84457 1.36045 0
M  V30 761 C 72.9118 -1.58682 0.260122 0
M  V30 762 O 74.1018 -1.66343 0.517261 0
M  V30 763 C 71.2338 -3.22008 1.11911 0
M  V30 764 H 72.4268 -1.88182 2.33512 0
M  V30 765 H 69.9798 -0.951266 1.24019 0
M  V30 766 H 70.7148 -3.2395 0.150686 0
M  V30 767 H 70.4998 -3.42111 1.91579 0
M  V30 768 H 71.9898 -4.0208 1.12788 0
M  V30 769 N 72.4269 -1.23603 -0.977757 0
M  V30 770 C 73.3749 -1.01704 -2.09187 0
M  V30 771 C 74.3689 0.0448214 -1.69341 0
M  V30 772 O 75.5749 -0.108902 -1.7967 0
M  V30 773 H 71.9499 -0.311803 -0.684312 0
M  V30 774 H 73.9209 -1.96207 -2.24823 0
M  V30 775 C 72.6699 -0.627746 -3.41986 0
M  V30 776 H 71.9929 -1.43656 -3.73099 0
M  V30 777 H 73.4329 -0.514053 -4.20872 0
M  V30 778 C 71.8919 0.664238 -3.30287 0
M  V30 779 O 72.4219 1.71268 -3.6336 0
M  V30 780 N 70.6279 0.641156 -2.83439 0
M  V30 781 H 70.1749 -0.212376 -2.56723 0
M  V30 782 H 70.1329 1.50583 -2.75993 0
M  V30 783 N 73.905 1.17692 -1.04816 0
M  V30 784 C 74.852 2.21581 -0.645797 0
M  V30 785 C 75.822 1.62367 0.350159 0
M  V30 786 O 77.007 1.89254 0.242433 0
M  V30 787 C 74.147 3.45092 -0.0227568 0
M  V30 788 C 73.26 4.18613 -1.06709 0
M  V30 789 C 72.395 5.29602 -0.411767 0
M  V30 790 C 71.434 5.94904 -1.44067 0
M  V30 791 N 70.571 6.97414 -0.809781 0
M  V30 792 H 75.411 2.55353 -1.5362 0
M  V30 793 H 72.948 1.25438 -0.768364 0
M  V30 794 H 74.906 4.15679 0.35588 0
M  V30 795 H 73.536 3.11917 0.831122 0
M  V30 796 H 72.588 3.46779 -1.5636 0
M  V30 797 H 73.9 4.63293 -1.84827 0
M  V30 798 H 73.054 6.06696 0.0206623 0
M  V30 799 H 71.793 4.86045 0.401438 0
M  V30 800 H 70.798 5.16544 -1.88316 0
M  V30 801 H 72.023 6.40542 -2.25571 0
M  V30 802 H 69.969 6.55998 -0.0170186 0
M  V30 803 H 69.886 7.40386 -1.52856 0
M  V30 804 H 71.154 7.78463 -0.401999 0
M  V30 805 N 75.3831 0.828654 1.34056 0
M  V30 806 C 76.7991 0.515135 1.51058 0
M  V30 807 C 76.9991 -0.959581 1.77184 0
M  V30 808 O 76.0551 -1.74382 1.82612 0
M  V30 809 C 77.3681 1.37963 2.67183 0
M  V30 810 C 78.9161 1.37735 2.81066 0
M  V30 811 C 79.3911 2.22645 4.00241 0
M  V30 812 N 80.8821 2.203 4.07458 0
M  V30 813 C 81.6171 2.82744 4.98842 0
M  V30 814 N 81.1131 3.54201 5.9541 0
M  V30 815 N 82.9061 2.72268 4.91759 0
M  V30 816 H 75.0571 1.78343 1.15358 0
M  V30 817 H 77.3201 0.760304 0.566252 0
M  V30 818 H 77.0261 2.42714 2.54525 0
M  V30 819 H 76.9001 1.0484 3.62338 0
M  V30 820 H 79.2871 0.337593 2.93163 0
M  V30 821 H 79.3681 1.74859 1.86703 0
M  V30 822 H 79.0121 3.26674 3.88905 0
M  V30 823 H 78.9421 1.82869 4.93829 0
M  V30 824 H 81.4331 1.68327 3.38341 0
M  V30 825 H 81.7461 3.9908 6.61782 0
M  V30 826 H 80.0911 3.58308 5.95517 0
M  V30 827 H 83.2821 2.16014 4.15278 0
M  V30 828 H 83.4551 3.21219 5.62781 0
M  V30 829 N 76.8612 -1.46375 0.584142 0
M  V30 830 C 77.8112 -2.27371 -0.169232 0
M  V30 831 C 78.7952 -1.35955 -0.860523 0
M  V30 832 O 79.9872 -1.60119 -0.754382 0
M  V30 833 C 77.1162 -3.22334 -1.18134 0
M  V30 834 C 76.2022 -4.21235 -0.492088 0
M  V30 835 N 76.5932 -5.03766 0.453129 0
M  V30 836 C 74.8912 -4.39773 -0.742652 0
M  V30 837 C 75.5922 -5.75366 0.85609 0
M  V30 838 N 74.5682 -5.43214 0.204926 0
M  V30 839 H 78.3702 -2.88572 0.557097 0
M  V30 840 H 75.8842 -1.57242 0.406042 0
M  V30 841 H 77.8812 -3.79071 -1.73525 0
M  V30 842 H 76.5412 -2.62693 -1.90847 0
M  V30 843 H 77.5522 -5.11227 0.828723 0
M  V30 844 H 74.2292 -3.91279 -1.45625 0
M  V30 845 H 75.6192 -6.5172 1.63434 0
M  V30 846 N 78.3393 -0.321999 -1.54275 0
M  V30 847 C 79.5873 0.280489 -2.00144 0
M  V30 848 C 79.9083 1.52777 -1.21178 0
M  V30 849 O 79.1783 1.9338 -0.313187 0
M  V30 850 H 77.7583 0.106632 -0.73935 0
M  V30 851 H 80.4203 -0.438184 -1.8991 0
M  V30 852 H 79.5163 0.537972 -3.07428 0
M  V30 853 N 79.8174 1.5752 -0.0501392 0
M  V30 854 C 81.0424 1.97376 0.636997 0
M  V30 855 C 81.4674 0.927466 1.63645 0
M  V30 856 O 80.8254 -0.10941 1.8097 0
M  V30 857 C 80.8734 3.36304 1.30123 0
M  V30 858 O 79.9774 3.34156 2.41689 0
M  V30 859 H 79.3184 0.642998 0.165679 0
M  V30 860 H 81.8484 2.04258 -0.118233 0
M  V30 861 H 81.8584 3.73008 1.65315 0
M  V30 862 H 80.5334 4.11993 0.568746 0
M  V30 863 H 79.1104 3.09196 2.08451 0
M  V30 864 N 81.2955 -0.223234 1.56011 0
M  V30 865 C 82.5415 -0.944891 1.8012 0
M  V30 866 C 82.8965 -1.82039 0.622862 0
M  V30 867 O 82.1895 -1.8773 -0.383143 0
M  V30 868 C 82.3835 -1.81948 3.0762 0
M  V30 869 C 82.2125 -1.03014 4.37742 0
M  V30 870 C 80.9825 -0.72574 5.00061 0
M  V30 871 C 83.1805 -0.396256 5.12771 0
M  V30 872 N 81.1625 0.0851816 6.13841 0
M  V30 873 C 82.5335 0.278137 6.19376 0
M  V30 874 C 84.5885 -0.309117 4.9694 0
M  V30 875 C 83.2915 1.03133 7.11868 0
M  V30 876 C 85.3175 0.430607 5.8983 0
M  V30 877 C 84.6795 1.09355 6.9586 0
M  V30 878 H 80.7785 -0.326081 0.710771 0
M  V30 879 H 83.3625 -0.215914 1.93499 0
M  V30 880 H 81.5335 -2.52029 2.95527 0
M  V30 881 H 83.2655 -2.47848 3.19927 0
M  V30 882 H 80.0205 -1.04335 4.61964 0
M  V30 883 H 80.4445 0.479428 6.753 0
M  V30 884 H 85.0865 -0.807313 4.15021 0
M  V30 885 H 82.8045 1.54105 7.9327 0
M  V30 886 H 86.3905 0.499012 5.79656 0
M  V30 887 H 85.2705 1.65679 7.66499 0
M  V30 888 N 82.7736 -1.49793 -0.48987 0
M  V30 889 C 83.7206 -1.67281 -1.59014 0
M  V30 890 C 84.6906 -0.514177 -1.57941 0
M  V30 891 O 85.8756 -0.742533 -1.75759 0
M  V30 892 C 83.0156 -1.75569 -2.97102 0
M  V30 893 C 82.1286 -3.0281 -3.08107 0
M  V30 894 C 81.2636 -3.02008 -4.36995 0
M  V30 895 C 80.3026 -4.23782 -4.41673 0
M  V30 896 N 79.4396 -4.20826 -5.62005 0
M  V30 897 H 84.2796 -2.61224 -1.43409 0
M  V30 898 H 81.8166 -1.29508 -0.697565 0
M  V30 899 H 83.7746 -1.78354 -3.77155 0
M  V30 900 H 82.4046 -0.850827 -3.11385 0
M  V30 901 H 81.4566 -3.09584 -2.21047 0
M  V30 902 H 82.7686 -3.92801 -3.07423 0
M  V30 903 H 81.9226 -3.03418 -5.25378 0
M  V30 904 H 80.6616 -2.09815 -4.4026 0
M  V30 905 H 79.6666 -4.22604 -3.5169 0
M  V30 906 H 80.8916 -5.17181 -4.40115 0
M  V30 907 H 78.8376 -3.31476 -5.66091 0
M  V30 908 H 78.7546 -5.04564 -5.62984 0
M  V30 909 H 80.0226 -4.26355 -6.52565 0
M  V30 910 N 84.2517 0.741722 -1.39055 0
M  V30 911 C 85.5007 1.49656 -1.35225 0
M  V30 912 C 85.8137 1.95533 0.0512708 0
M  V30 913 O 87.0197 2.7067 0.212138 0
M  V30 914 C 85.4757 2.70389 -2.37525 0
M  V30 915 C 85.0837 2.31489 -3.83558 0
M  V30 916 C 86.8277 3.48236 -2.42759 0
M  V30 917 C 84.7347 3.48903 -4.77515 0
M  V30 918 H 83.6647 0.56197 -0.502699 0
M  V30 919 H 86.3157 0.809727 -1.64668 0
M  V30 920 H 84.6977 3.41113 -2.01142 0
M  V30 921 H 85.8717 1.68354 -4.28945 0
M  V30 922 H 84.1867 1.66749 -3.81554 0
M  V30 923 H 86.7837 4.35558 -3.1015 0
M  V30 924 H 87.1267 3.90229 -1.45008 0
M  V30 925 H 87.6597 2.84535 -2.78002 0
M  V30 926 H 84.3987 3.11966 -5.76504 0
M  V30 927 H 83.9187 4.11041 -4.36813 0
M  V30 928 H 85.5977 4.15328 -4.96096 0
M  V30 929 N 85.7298 1.2412 0.971189 0
M  V30 930 C 86.6618 0.988349 2.06795 0
M  V30 931 C 87.6748 -0.0409541 1.62748 0
M  V30 932 O 88.8638 0.195673 1.77424 0
M  V30 933 C 85.9638 0.469023 3.35639 0
M  V30 934 C 85.1368 1.56065 4.08611 0
M  V30 935 C 84.1958 1.04458 5.15728 0
M  V30 936 O 83.2218 1.73553 5.42096 0
M  V30 937 N 84.4238 -0.122817 5.8037 0
M  V30 938 H 87.1888 1.93265 2.29061 0
M  V30 939 H 84.7498 1.15102 1.13856 0
M  V30 940 H 86.7418 0.108613 4.04554 0
M  V30 941 H 85.3118 -0.380919 3.1027 0
M  V30 942 H 84.5318 2.09341 3.34021 0
M  V30 943 H 85.8198 2.29449 4.54126 0
M  V30 944 H 85.2178 -0.700563 5.61345 0
M  V30 945 H 83.7748 -0.424404 6.50417 0
M  V30 946 N 87.2079 -1.17134 1.05439 0
M  V30 947 C 88.1379 -2.2342 0.678649 0
M  V30 948 C 89.1189 -1.66971 -0.32476 0
M  V30 949 O 90.3039 -1.93149 -0.201802 0
M  V30 950 C 87.4339 -3.47256 0.0552099 0
M  V30 951 C 86.3879 -4.16543 0.98365 0
M  V30 952 C 85.7139 -5.34231 0.223961 0
M  V30 953 C 87.0139 -4.68495 2.3089 0
M  V30 954 H 88.7079 -2.55105 1.56722 0
M  V30 955 H 86.2539 -1.2262 0.754998 0
M  V30 956 H 88.2069 -4.20828 -0.21946 0
M  V30 957 H 86.9309 -3.14846 -0.868319 0
M  V30 958 H 85.5899 -3.44887 1.24293 0
M  V30 959 H 85.2379 -4.98071 -0.702412 0
M  V30 960 H 84.9379 -5.81527 0.842627 0
M  V30 961 H 86.4619 -6.10585 -0.0433671 0
M  V30 962 H 87.8759 -5.33691 2.09396 0
M  V30 963 H 86.2729 -5.26379 2.88176 0
M  V30 964 H 87.3429 -3.85169 2.94572 0
M  V30 965 N 88.686 -0.835752 -1.33615 0
M  V30 966 C 89.634 -0.255238 -2.31195 0
M  V30 967 C 90.628 0.61107 -1.57995 0
M  V30 968 O 91.834 0.500979 -1.72888 0
M  V30 969 H 88.209 -0.0638085 -0.749288 0
M  V30 970 H 90.18 -1.09283 -2.77669 0
M  V30 971 C 88.929 0.55754 -3.43201 0
M  V30 972 H 88.252 -0.0997553 -3.99676 0
M  V30 973 H 89.692 0.929622 -4.13683 0
M  V30 974 C 88.151 1.73515 -2.88781 0
M  V30 975 O 88.681 2.83376 -2.84712 0
M  V30 976 N 86.887 1.55603 -2.4543 0
M  V30 977 H 86.434 0.662354 -2.48939 0
M  V30 978 H 86.392 2.34545 -2.09371 0
M  V30 979 N 90.1641 1.46063 -0.591896 0
M  V30 980 C 91.1271 2.28854 0.125973 0
M  V30 981 C 92.1271 1.38903 0.810107 0
M  V30 982 O 93.3171 1.61186 0.66066 0
M  V30 983 C 90.4491 3.19526 1.1881 0
M  V30 984 H 91.6421 2.93802 -0.601717 0
M  V30 985 H 89.1951 1.52325 -0.350254 0
M  V30 986 H 89.9301 2.59345 1.94707 0
M  V30 987 H 89.7151 3.85766 0.701936 0
M  V30 988 H 91.2051 3.81817 1.69132 0
M  V30 989 N 91.6422 0.330177 1.54103 0
M  V30 990 C 92.8702 -0.272179 2.05102 0
M  V30 991 C 93.2852 -1.45267 1.20595 0
M  V30 992 O 92.6422 -1.8094 0.238144 0
M  V30 993 C 92.6932 -0.70023 3.54653 0
M  V30 994 O 92.4142 0.433301 4.35952 0
M  V30 995 C 93.9152 -1.3647 4.21771 0
M  V30 996 H 91.1352 -0.0549159 0.668749 0
M  V30 997 H 93.6792 0.478285 1.98828 0
M  V30 998 H 91.8342 -1.40066 3.61193 0
M  V30 999 H 92.2482 0.0947539 5.24414 0
M  V30 1000 H 93.7222 -1.61509 5.27843 0
M  V30 1001 H 94.1992 -2.31409 3.73292 0
M  V30 1002 H 94.8052 -0.706675 4.19388 0
M  V30 1003 N 93.1203 -1.57491 0.0584922 0
M  V30 1004 C 94.3453 -1.97711 -0.62652 0
M  V30 1005 C 94.7703 -0.936132 -1.63151 0
M  V30 1006 O 94.1283 0.099811 -1.81025 0
M  V30 1007 C 94.1763 -3.36989 -1.28338 0
M  V30 1008 O 93.2803 -3.35433 -2.39913 0
M  V30 1009 H 92.6213 -0.643868 -0.162266 0
M  V30 1010 H 95.1513 -2.04193 0.129064 0
M  V30 1011 H 95.1613 -3.73879 -1.63335 0
M  V30 1012 H 93.8363 -4.12289 -0.546889 0
M  V30 1013 H 92.4133 -3.10298 -2.06809 0
M  V30 1014 N 94.5984 0.214957 -1.56127 0
M  V30 1015 C 95.8444 0.939762 -1.79712 0
M  V30 1016 C 96.1774 1.83723 -0.629247 0
M  V30 1017 O 95.4524 1.90925 0.371197 0
M  V30 1018 C 95.7354 1.77306 -3.13424 0
M  V30 1019 C 95.5884 0.90164 -4.40671 0
M  V30 1020 C 96.9074 2.74956 -3.43638 0
M  V30 1021 H 94.0264 0.340214 -0.653776 0
M  V30 1022 H 96.6684 0.20824 -1.88855 0
M  V30 1023 H 94.8184 2.39673 -3.0576 0
M  V30 1024 H 96.4904 0.294206 -4.60361 0
M  V30 1025 H 94.7334 0.207368 -4.33304 0
M  V30 1026 H 95.4044 1.51923 -5.30682 0
M  V30 1027 H 97.8804 2.22724 -3.51473 0
M  V30 1028 H 96.7564 3.30358 -4.38355 0
M  V30 1029 H 97.0174 3.53023 -2.66134 0
M  V30 1030 N 96.0765 1.50051 0.48192 0
M  V30 1031 C 97.3045 1.64237 1.25832 0
M  V30 1032 C 97.7195 0.321336 1.86045 0
M  V30 1033 O 97.0765 -0.695478 1.68729 0
M  V30 1034 C 97.1275 2.72548 2.37487 0
M  V30 1035 O 96.8485 3.99529 1.79745 0
M  V30 1036 C 98.3495 2.9761 3.28547 0
M  V30 1037 H 95.5695 0.55237 0.380957 0
M  V30 1038 H 98.1135 1.96207 0.576467 0
M  V30 1039 H 96.2685 2.43303 3.01467 0
M  V30 1040 H 96.6825 4.59342 2.5319 0
M  V30 1041 H 98.1565 3.77084 4.03127 0
M  V30 1042 H 98.6335 2.0826 3.86684 0
M  V30 1043 H 99.2395 3.28345 2.70314 0
M  V30 1044 N 97.5546 -0.734337 1.39446 0
M  V30 1045 C 98.5046 -1.83949 1.34709 0
M  V30 1046 C 99.4886 -1.59279 0.227851 0
M  V30 1047 O 100.681 -1.70771 0.465438 0
M  V30 1048 C 97.8096 -3.21884 1.19356 0
M  V30 1049 C 96.8956 -3.52381 2.35984 0
M  V30 1050 N 97.2866 -3.53811 3.61457 0
M  V30 1051 C 95.5846 -3.82747 2.28956 0
M  V30 1052 C 96.2856 -3.82122 4.38586 0
M  V30 1053 N 95.2616 -3.9993 3.68181 0
M  V30 1054 H 99.0636 -1.83361 2.29687 0
M  V30 1055 H 96.5776 -0.932609 1.32952 0
M  V30 1056 H 98.5746 -4.00998 1.14046 0
M  V30 1057 H 97.2346 -3.23711 0.253295 0
M  V30 1058 H 98.2456 -3.35107 3.94872 0
M  V30 1059 H 94.9226 -3.92175 1.43194 0
M  V30 1060 H 96.3126 -3.89691 5.47349 0
M  V30 1061 N 99.0327 -1.24633 -0.964593 0
M  V30 1062 C 99.9797 -1.04144 -2.05968 0
M  V30 1063 C 100.95 0.046262 -1.66036 0
M  V30 1064 O 102.135 -0.108972 -1.90489 0
M  V30 1065 C 99.2747 -0.65563 -3.38815 0
M  V30 1066 C 98.3877 -1.81714 -3.91923 0
M  V30 1067 C 97.5227 -1.37662 -5.13052 0
M  V30 1068 C 96.5617 -2.50788 -5.58365 0
M  V30 1069 N 95.6987 -2.07582 -6.70712 0
M  V30 1070 H 100.539 -1.9787 -2.22827 0
M  V30 1071 H 98.0757 -0.9855 -1.09208 0
M  V30 1072 H 100.034 -0.412954 -4.15151 0
M  V30 1073 H 98.6637 0.244627 -3.21872 0
M  V30 1074 H 97.7157 -2.1734 -3.12198 0
M  V30 1075 H 99.0277 -2.66705 -4.21509 0
M  V30 1076 H 98.1817 -1.093 -5.96773 0
M  V30 1077 H 96.9207 -0.497293 -4.85158 0
M  V30 1078 H 95.9257 -2.79906 -4.73215 0
M  V30 1079 H 97.1507 -3.39283 -5.88272 0
M  V30 1080 H 95.0967 -1.22051 -6.44546 0
M  V30 1081 H 95.0137 -2.86125 -6.99763 0
M  V30 1082 H 96.2817 -1.82369 -7.57867 0
M  V30 1083 N 100.511 1.16574 -1.06058 0
M  V30 1084 C 101.922 1.68662 -0.800632 0
M  V30 1085 C 102.273 1.84184 0.67608 0
M  V30 1086 O 101.398 1.53568 1.52466 0
M  V30 1087 C 101.993 3.06356 -1.44676 0
M  V30 1088 C 100.552 3.55575 -1.23465 0
M  V30 1089 C 99.6988 2.31616 -1.52477 0
M  V30 1090 H 102.65 1.00969 -1.22438 0
M  V30 1091 H 102.671 3.70636 -0.860788 0
M  V30 1092 H 102.183 2.95027 -2.52152 0
M  V30 1093 H 100.284 3.72167 -0.179527 0
M  V30 1094 H 100.397 4.37812 -1.94571 0
M  V30 1095 H 98.7608 2.36512 -0.945209 0
M  V30 1096 H 99.5438 2.22887 -2.61106 0
M  V30 1097 N 101.989 0.842826 1.3317 0
M  V30 1098 C 102.937 0.267495 2.31057 0
M  V30 1099 C 103.931 -0.602682 1.58316 0
M  V30 1100 O 105.137 -0.491803 1.73151 0
M  V30 1101 H 101.512 0.0677813 0.748939 0
M  V30 1102 H 103.483 1.10754 2.77085 0
M  V30 1103 C 102.232 -0.539331 3.43492 0
M  V30 1104 H 101.555 0.12095 3.99617 0
M  V30 1105 H 102.995 -0.90767 4.14171 0
M  V30 1106 C 101.454 -1.71981 2.89697 0
M  V30 1107 O 101.984 -2.81862 2.86211 0
M  V30 1108 N 100.19 -1.54299 2.46252 0
M  V30 1109 H 99.7369 -0.649143 2.49287 0
M  V30 1110 H 99.6949 -2.33431 2.10612 0
M  V30 1111 N 103.467 -1.45747 0.599634 0
M  V30 1112 C 104.43 -2.28917 -0.113835 0
M  V30 1113 C 105.43 -1.3933 -0.802729 0
M  V30 1114 O 106.62 -1.61534 -0.652103 0
M  V30 1115 C 103.752 -3.20152 -1.17114 0
M  V30 1116 H 104.945 -2.93478 0.617289 0
M  V30 1117 H 102.498 -1.52137 0.358327 0
M  V30 1118 H 103.233 -2.60374 -1.93329 0
M  V30 1119 H 103.018 -3.86133 -0.681468 0
M  V30 1120 H 104.508 -3.82708 -1.67105 0
M  V30 1121 N 104.945 -0.338344 -1.53925 0
M  V30 1122 C 106.194 0.260732 -2.00008 0
M  V30 1123 C 106.507 1.52073 -1.23017 0
M  V30 1124 O 107.713 2.19672 -1.5955 0
M  V30 1125 C 106.169 0.51515 -3.56194 0
M  V30 1126 C 105.777 -0.728645 -4.42035 0
M  V30 1127 C 107.521 1.07337 -4.10706 0
M  V30 1128 C 105.428 -0.445315 -5.89721 0
M  V30 1129 H 104.358 0.101205 -0.747177 0
M  V30 1130 H 107.009 -0.452866 -1.77824 0
M  V30 1131 H 105.391 1.28932 -3.74423 0
M  V30 1132 H 106.565 -1.50352 -4.35581 0
M  V30 1133 H 104.88 -1.20813 -3.98489 0
M  V30 1134 H 107.477 1.30022 -5.18651 0
M  V30 1135 H 107.82 2.0273 -3.63602 0
M  V30 1136 H 108.353 0.360034 -3.96167 0
M  V30 1137 H 105.092 -1.36883 -6.41049 0
M  V30 1138 H 104.612 0.291569 -5.99091 0
M  V30 1139 H 106.291 -0.0606218 -6.46972 0
M  V30 1140 N 106.423 1.57458 -0.0668435 0
M  V30 1141 C 107.355 2.09413 0.931601 0
M  V30 1142 C 108.368 1.02522 1.26464 0
M  V30 1143 O 109.557 1.30049 1.22269 0
M  V30 1144 C 106.657 2.53537 2.24882 0
M  V30 1145 C 105.83 3.83944 2.09537 0
M  V30 1146 C 104.889 4.14214 3.2452 0
M  V30 1147 O 103.915 4.83891 2.9973 0
M  V30 1148 N 105.117 3.67367 4.49469 0
M  V30 1149 H 107.882 2.95699 0.488048 0
M  V30 1150 H 105.443 1.61462 0.119009 0
M  V30 1151 H 107.435 2.70853 3.00701 0
M  V30 1152 H 106.005 1.72415 2.60753 0
M  V30 1153 H 105.225 3.76057 1.18215 0
M  V30 1154 H 106.513 4.69312 1.96529 0
M  V30 1155 H 105.911 3.11068 4.72497 0
M  V30 1156 H 104.468 3.89891 5.2233 0
M  V30 1157 N 107.901 -0.206675 1.56239 0
M  V30 1158 C 108.834 -1.28383 1.88661 0
M  V30 1159 C 109.812 -1.44504 0.745481 0
M  V30 1160 O 110.996 -1.60079 0.995336 0
M  V30 1161 C 108.123 -2.65211 2.10667 0
M  V30 1162 C 107.169 -2.66025 3.33366 0
M  V30 1163 S 108.002 -2.18609 4.88846 0
M  V30 1164 C 109.158 -3.57283 5.13906 0
M  V30 1165 H 109.391 -1.00691 2.7973 0
M  V30 1166 H 106.924 -0.409627 1.48867 0
M  V30 1167 H 108.882 -3.43979 2.24029 0
M  V30 1168 H 107.543 -2.90121 1.20369 0
M  V30 1169 H 106.736 -3.66607 3.45855 0
M  V30 1170 H 106.338 -1.95331 3.18938 0
M  V30 1171 H 108.63 -4.53074 5.03717 0
M  V30 1172 H 109.573 -3.49699 6.15724 0
M  V30 1173 H 109.981 -3.51659 4.41583 0
M  V30 1174 N 109.379 -1.50304 -0.473955 0
M  V30 1175 C 110.342 -1.6841 -1.55469 0
M  V30 1176 C 111.342 -0.554905 -1.50922 0
M  V30 1177 O 112.532 -0.821882 -1.53593 0
M  V30 1178 C 109.664 -1.70667 -2.95102 0
M  V30 1179 H 110.857 -2.64828 -1.40733 0
M  V30 1180 H 108.41 -1.39742 -0.700132 0
M  V30 1181 H 109.145 -0.75932 -3.15285 0
M  V30 1182 H 108.93 -2.52698 -2.9981 0
M  V30 1183 H 110.42 -1.8664 -3.73571 0
M  V30 1184 N 110.857 0.726932 -1.39834 0
M  V30 1185 C 111.787 1.85405 -1.41941 0
M  V30 1186 C 112.768 1.67751 -0.281728 0
M  V30 1187 O 113.953 1.8795 -0.488717 0
M  V30 1188 C 111.083 3.23243 -1.2701 0
M  V30 1189 C 110.037 3.55549 -2.38262 0
M  V30 1190 C 109.363 4.9241 -2.08415 0
M  V30 1191 C 110.663 3.577 -3.80589 0
M  V30 1192 H 112.357 1.83899 -2.36266 0
M  V30 1193 H 109.903 0.883349 -1.13723 0
M  V30 1194 H 111.856 4.01775 -1.27103 0
M  V30 1195 H 110.58 3.25296 -0.291564 0
M  V30 1196 H 109.239 2.79351 -2.37399 0
M  V30 1197 H 108.887 4.91052 -1.0898 0
M  V30 1198 H 108.587 5.14992 -2.82943 0
M  V30 1199 H 110.111 5.73289 -2.10171 0
M  V30 1200 H 111.525 4.26293 -3.83337 0
M  V30 1201 H 109.922 3.91804 -4.54543 0
M  V30 1202 H 110.992 2.57328 -4.10987 0
M  V30 1203 N 112.336 1.25143 0.95797 0
M  V30 1204 C 113.561 1.12521 1.74223 0
M  V30 1205 C 113.986 -0.317402 1.85403 0
M  V30 1206 O 113.344 -1.2299 1.33204 0
M  V30 1207 C 113.392 1.78062 3.1357 0
M  V30 1208 O 112.496 1.058 3.98598 0
M  V30 1209 H 111.837 0.39304 0.535178 0
M  V30 1210 H 114.367 1.65641 1.201 0
M  V30 1211 H 114.377 1.84213 3.64046 0
M  V30 1212 H 113.052 2.83021 3.04749 0
M  V30 1213 H 111.629 1.07506 3.57067 0
M  V30 1214 N 113.814 -1.1601 1.06675 0
M  V30 1215 C 115.06 -1.86909 0.786945 0
M  V30 1216 C 115.393 -1.81717 -0.685018 0
M  V30 1217 O 114.668 -1.23551 -1.50218 0
M  V30 1218 C 114.951 -3.36313 1.28707 0
M  V30 1219 C 114.804 -3.50175 2.82308 0
M  V30 1220 C 116.123 -4.3084 0.898071 0
M  V30 1221 H 113.242 -0.678677 0.287343 0
M  V30 1222 H 115.884 -1.36336 1.32334 0
M  V30 1223 H 114.034 -3.79513 0.830768 0
M  V30 1224 H 115.706 -3.15886 3.36175 0
M  V30 1225 H 113.949 -2.91959 3.20847 0
M  V30 1226 H 114.62 -4.55116 3.12368 0
M  V30 1227 H 117.096 -3.95561 1.29114 0
M  V30 1228 H 115.972 -5.33876 1.27543 0
M  V30 1229 H 116.233 -4.41662 -0.196651 0
M  V30 1230 N 115.292 -0.849877 -1.32721 0
M  V30 1231 C 116.532 -0.457146 -1.99222 0
M  V30 1232 C 116.896 0.968038 -1.6581 0
M  V30 1233 O 118.097 1.46507 -2.25364 0
M  V30 1234 C 116.368 -0.683966 -3.50794 0
M  V30 1235 S 117.927 -0.388095 -4.3708 0
M  V30 1236 H 114.745 -0.171464 -0.690015 0
M  V30 1237 H 117.347 -1.10155 -1.61512 0
M  V30 1238 H 116.051 -1.72038 -3.726 0
M  V30 1239 H 115.582 -0.0258086 -3.93392 0
M  V30 1240 H 117.597 0.787791 -4.89906 0
M  V30 1241 N 116.77 1.45427 -0.607355 0
M  V30 1242 C 117.68 2.34325 0.113463 0
M  V30 1243 C 118.696 1.51226 0.860617 0
M  V30 1244 O 119.872 1.84029 0.818255 0
M  V30 1245 C 116.937 3.28839 1.09844 0
M  V30 1246 C 115.998 4.27844 0.353271 0
M  V30 1247 C 115.231 5.17842 1.29133 0
M  V30 1248 O 115.454 5.11264 2.52913 0
M  V30 1249 O 114.388 5.96713 0.788523 0
M  V30 1250 H 118.214 2.97364 -0.617094 0
M  V30 1251 H 115.799 1.44807 -0.367619 0
M  V30 1252 H 117.681 3.8708 1.66575 0
M  V30 1253 H 116.356 2.68365 1.81003 0
M  V30 1254 H 115.263 3.7322 -0.256494 0
M  V30 1255 H 116.596 4.91173 -0.317822 0
M  V30 1256 N 118.248 0.346503 1.53744 0
M  V30 1257 C 119.525 -0.304532 1.93215 0
M  V30 1258 C 119.905 -1.67993 1.27834 0
M  V30 1259 O 119.253 -2.24411 0.430352 0
M  V30 1260 C 119.463 -0.373852 3.46992 0
M  V30 1261 C 120.811 -0.62329 4.2 0
M  V30 1262 O 121.835 -0.455847 3.53271 0
M  V30 1263 O 120.694 -0.947879 5.38217 0
M  V30 1264 H 117.788 -0.178318 0.807547 0
M  V30 1265 H 120.334 0.397895 1.64969 0
M  V30 1266 H 119.106 0.591224 3.86808 0
M  V30 1267 H 118.729 -1.12294 3.81413 0
M  V30 1268 N 119.726 -1.57421 0.075193 0
M  V30 1269 C 120.656 -2.15942 -0.888324 0
M  V30 1270 C 121.637 -1.08737 -1.30806 0
M  V30 1271 O 122.822 -1.36787 -1.37851 0
M  V30 1272 C 119.952 -2.72379 -2.1547 0
M  V30 1273 C 118.906 -3.8478 -1.87425 0
M  V30 1274 C 118.232 -4.27834 -3.20721 0
M  V30 1275 C 119.532 -5.08869 -1.17684 0
M  V30 1276 H 121.226 -2.96705 -0.400799 0
M  V30 1277 H 118.772 -1.42723 -0.191342 0
M  V30 1278 H 120.725 -3.11965 -2.83295 0
M  V30 1279 H 119.449 -1.88841 -2.6647 0
M  V30 1280 H 118.108 -3.45703 -1.22004 0
M  V30 1281 H 117.756 -3.41214 -3.6957 0
M  V30 1282 H 117.456 -5.03605 -3.02746 0
M  V30 1283 H 118.98 -4.70039 -3.89738 0
M  V30 1284 H 120.394 -5.4575 -1.75584 0
M  V30 1285 H 118.791 -5.8994 -1.09956 0
M  V30 1286 H 119.861 -4.84648 -0.156453 0
M  V30 1287 N 121.204 0.198386 -1.56346 0
M  V30 1288 C 122.453 0.917451 -1.79627 0
M  V30 1289 C 122.766 1.8456 -0.64784 0
M  V30 1290 O 123.972 2.60504 -0.764859 0
M  V30 1291 C 122.428 1.68175 -3.18191 0
M  V30 1292 C 122.036 0.798589 -4.40825 0
M  V30 1293 C 123.78 2.39065 -3.50782 0
M  V30 1294 C 121.687 1.56157 -5.70411 0
M  V30 1295 H 120.617 0.346317 -0.669762 0
M  V30 1296 H 123.268 0.170801 -1.82703 0
M  V30 1297 H 121.65 2.47216 -3.09354 0
M  V30 1298 H 122.824 0.0470665 -4.60776 0
M  V30 1299 H 121.139 0.200686 -4.15916 0
M  V30 1300 H 123.736 2.96692 -4.44835 0
M  V30 1301 H 124.079 3.13091 -2.74371 0
M  V30 1302 H 124.612 1.66993 -3.61052 0
M  V30 1303 H 121.351 0.864142 -6.49779 0
M  V30 1304 H 120.871 2.2871 -5.54483 0
M  V30 1305 H 122.55 2.11622 -6.11412 0
M  V30 1306 N 122.682 1.50554 0.465978 0
M  V30 1307 C 123.907 1.65838 1.24549 0
M  V30 1308 C 124.332 0.343486 1.84937 0
M  V30 1309 O 123.69 -0.69324 1.67523 0
M  V30 1310 C 123.738 2.75533 2.32624 0
M  V30 1311 O 122.842 2.37142 3.37398 0
M  V30 1312 H 122.183 0.553893 0.366194 0
M  V30 1313 H 124.713 1.96959 0.553927 0
M  V30 1314 H 124.723 2.98763 2.77857 0
M  V30 1315 H 123.398 3.70962 1.88043 0
M  V30 1316 H 121.975 2.24377 2.97841 0
M  V30 1317 N 124.16 -0.719506 1.40217 0
M  V30 1318 C 125.385 -1.51371 1.4178 0
M  V30 1319 C 125.81 -1.88091 0.0182355 0
M  V30 1320 O 125.168 -1.52997 -0.972707 0
M  V30 1321 C 125.216 -2.768 2.31115 0
M  V30 1322 O 124.32 -3.73349 1.7517 0
M  V30 1323 H 123.661 -0.456529 0.482159 0
M  V30 1324 H 126.191 -0.88644 1.844 0
M  V30 1325 H 126.201 -3.25371 2.46167 0
M  V30 1326 H 124.876 -2.49407 3.3282 0
M  V30 1327 H 123.453 -3.32179 1.69444 0
M  V30 1328 N 125.638 -1.25649 -0.95132 0
M  V30 1329 C 126.57 -1.02112 -2.05197 0
M  V30 1330 C 127.583 0.0150571 -1.62793 0
M  V30 1331 O 128.772 -0.223874 -1.77091 0
M  V30 1332 C 125.872 -0.522361 -3.3485 0
M  V30 1333 C 125.045 -1.62546 -4.06076 0
M  V30 1334 C 124.104 -1.12649 -5.14001 0
M  V30 1335 O 123.13 -1.82156 -5.39266 0
M  V30 1336 N 124.332 0.03047 -5.80492 0
M  V30 1337 H 127.097 -1.96885 -2.25957 0
M  V30 1338 H 124.658 -1.16899 -1.1201 0
M  V30 1339 H 126.65 -0.172961 -4.0433 0
M  V30 1340 H 125.22 0.33151 -3.10837 0
M  V30 1341 H 124.44 -2.14628 -3.30649 0
M  V30 1342 H 125.728 -2.36644 -4.50419 0
M  V30 1343 H 125.126 0.611169 -5.62389 0
M  V30 1344 H 123.683 0.320875 -6.5101 0
M  V30 1345 N 127.117 1.15442 -1.07289 0
M  V30 1346 C 128.363 1.86489 -0.796846 0
M  V30 1347 C 128.696 1.82078 0.675371 0
M  V30 1348 O 127.971 1.24346 1.4956 0
M  V30 1349 C 128.254 3.35626 -1.30489 0
M  V30 1350 C 128.107 3.48673 -2.84161 0
M  V30 1351 C 129.426 4.30357 -0.920907 0
M  V30 1352 H 126.545 0.677144 -0.290939 0
M  V30 1353 H 129.187 1.35633 -1.33056 0
M  V30 1354 H 127.337 3.79068 -0.850883 0
M  V30 1355 H 129.009 3.14099 -3.37846 0
M  V30 1356 H 127.252 2.90253 -3.22391 0
M  V30 1357 H 127.923 4.53453 -3.14777 0
M  V30 1358 H 130.399 3.94871 -1.3121 0
M  V30 1359 H 129.275 5.33193 -1.30372 0
M  V30 1360 H 129.536 4.4176 0.173226 0
M  V30 1361 N 128.595 0.856903 1.32268 0
M  V30 1362 C 129.825 0.47475 2.01071 0
M  V30 1363 C 130.233 -0.933746 1.64553 0
M  V30 1364 O 129.576 -1.62114 0.863989 0
M  V30 1365 C 129.638 0.536746 3.55471 0
M  V30 1366 C 129.302 1.90453 4.15423 0
M  V30 1367 C 130.299 2.87029 4.33486 0
M  V30 1368 C 127.984 2.20229 4.51447 0
M  V30 1369 C 129.978 4.11532 4.86744 0
M  V30 1370 C 127.665 3.44984 5.0441 0
M  V30 1371 C 128.663 4.40452 5.22007 0
M  V30 1372 O 128.351 5.62998 5.73837 0
M  V30 1373 H 128.083 0.184778 0.650256 0
M  V30 1374 H 130.637 1.15615 1.69771 0
M  V30 1375 H 128.867 -0.20152 3.86175 0
M  V30 1376 H 130.556 0.169875 4.05544 0
M  V30 1377 H 131.322 2.6533 4.05986 0
M  V30 1378 H 127.201 1.46705 4.37034 0
M  V30 1379 H 130.745 4.86056 5.00395 0
M  V30 1380 H 126.642 3.66532 5.31342 0
M  V30 1381 H 127.41 5.64987 5.92226 0
M  V30 1382 N 130.073 -1.45103 0.615059 0
M  V30 1383 C 131.036 -2.29025 -0.0895485 0
M  V30 1384 C 132.036 -1.40174 -0.787906 0
M  V30 1385 O 133.226 -1.62217 -0.634933 0
M  V30 1386 C 130.358 -3.21376 -1.13711 0
M  V30 1387 H 131.551 -2.92807 0.648382 0
M  V30 1388 H 129.104 -1.51749 0.374444 0
M  V30 1389 H 129.839 -2.6241 -1.90556 0
M  V30 1390 H 129.624 -3.86834 -0.640475 0
M  V30 1391 H 131.114 -3.84459 -1.63036 0
M  V30 1392 N 131.551 -0.354651 -1.53558 0
M  V30 1393 C 132.8 0.239504 -2.00273 0
M  V30 1394 C 133.113 1.50759 -1.24623 0
M  V30 1395 O 134.319 2.17968 -1.61871 0
M  V30 1396 C 132.775 0.477341 -3.5672 0
M  V30 1397 C 132.383 -0.775488 -4.41237 0
M  V30 1398 C 134.127 1.02975 -4.11821 0
M  V30 1399 C 132.034 -0.507838 -5.89216 0
M  V30 1400 H 130.964 0.0932743 -0.748208 0
M  V30 1401 H 133.615 -0.471701 -1.77334 0
M  V30 1402 H 131.997 1.24953 -3.7577 0
M  V30 1403 H 133.171 -1.54963 -4.33962 0
M  V30 1404 H 131.486 -1.25033 -3.97185 0
M  V30 1405 H 134.083 1.24513 -5.2 0
M  V30 1406 H 134.426 1.98862 -3.65731 0
M  V30 1407 H 134.959 0.317994 -3.96527 0
M  V30 1408 H 131.698 -1.43674 -6.39561 0
M  V30 1409 H 131.218 0.228011 -5.99366 0
M  V30 1410 H 132.897 -0.129238 -6.46871 0
M  V30 1411 N 133.029 1.57378 -0.0835403 0
M  V30 1412 C 133.959 2.1641 0.87686 0
M  V30 1413 C 134.94 1.09429 1.30228 0
M  V30 1414 O 136.125 1.37516 1.37124 0
M  V30 1415 C 133.255 2.73517 2.14022 0
M  V30 1416 C 132.209 3.85769 1.85381 0
M  V30 1417 C 131.535 4.29529 3.18448 0
M  V30 1418 C 132.835 5.09486 1.14984 0
M  V30 1419 H 134.529 2.96914 0.385059 0
M  V30 1420 H 132.075 1.42823 0.18377 0
M  V30 1421 H 134.028 3.13463 2.81636 0
M  V30 1422 H 132.752 1.90252 2.65465 0
M  V30 1423 H 131.411 3.46345 1.20169 0
M  V30 1424 H 131.059 3.43169 3.67755 0
M  V30 1425 H 130.759 5.05204 3.00071 0
M  V30 1426 H 132.283 4.72099 3.8724 0
M  V30 1427 H 133.697 5.46674 1.72687 0
M  V30 1428 H 132.094 5.90515 1.06826 0
M  V30 1429 H 133.164 4.84724 0.130749 0
M  V30 1430 N 134.507 -0.190092 1.56449 0
M  V30 1431 C 135.753 -0.911052 1.81184 0
M  V30 1432 C 136.086 -1.82699 0.658396 0
M  V30 1433 O 135.361 -1.91491 -0.340775 0
M  V30 1434 C 135.644 -1.72297 3.16205 0
M  V30 1435 C 135.497 -0.831419 4.42049 0
M  V30 1436 C 136.816 -2.69454 3.47969 0
M  V30 1437 H 133.935 -0.32977 0.659106 0
M  V30 1438 H 136.577 -0.178169 1.89163 0
M  V30 1439 H 134.727 -2.34778 3.09534 0
M  V30 1440 H 136.399 -0.220929 4.60771 0
M  V30 1441 H 134.642 -0.138406 4.33579 0
M  V30 1442 H 135.313 -1.43461 5.33032 0
M  V30 1443 H 137.789 -2.17104 3.54972 0
M  V30 1444 H 136.665 -3.23342 4.43555 0
M  V30 1445 H 136.926 -3.48744 2.71717 0
M  V30 1446 N 135.985 -1.50799 -0.457987 0
M  V30 1447 C 137.21 -1.66496 -1.23668 0
M  V30 1448 C 137.635 -0.353288 -1.84752 0
M  V30 1449 O 136.993 0.684346 -1.67888 0
M  V30 1450 C 137.041 -2.76763 -2.3116 0
M  V30 1451 O 136.145 -2.38928 -3.36136 0
M  V30 1452 H 135.486 -0.555828 -0.363252 0
M  V30 1453 H 138.016 -1.9725 -0.543474 0
M  V30 1454 H 138.026 -3.00232 -2.76269 0
M  V30 1455 H 136.701 -3.71954 -1.86073 0
M  V30 1456 H 135.278 -2.25953 -2.96647 0
M  V30 1457 N 137.463 0.71206 -1.40597 0
M  V30 1458 C 138.413 1.81783 -1.37619 0
M  V30 1459 C 139.397 1.58896 -0.253162 0
M  V30 1460 O 140.589 1.70009 -0.492547 0
M  V30 1461 C 137.718 3.19944 -1.24462 0
M  V30 1462 C 136.804 3.48582 -2.4156 0
M  V30 1463 N 137.195 3.48016 -3.67041 0
M  V30 1464 C 135.493 3.79056 -2.35016 0
M  V30 1465 C 136.194 3.75096 -4.44609 0
M  V30 1466 N 135.17 3.94022 -3.74497 0
M  V30 1467 H 138.972 1.79683 -2.32575 0
M  V30 1468 H 136.486 0.91134 -1.34419 0
M  V30 1469 H 138.483 3.99133 -1.20411 0
M  V30 1470 H 137.143 3.23267 -0.304762 0
M  V30 1471 H 138.154 3.28782 -4.00153 0
M  V30 1472 H 134.831 3.89848 -1.49415 0
M  V30 1473 H 136.221 3.80934 -5.53479 0
M  V30 1474 N 138.941 1.26152 0.944643 0
M  V30 1475 C 140.352 1.10454 1.50522 0
M  V30 1476 C 140.703 -0.31635 1.93633 0
M  V30 1477 O 139.828 -1.20746 1.79581 0
M  V30 1478 C 140.423 1.99891 2.73549 0
M  V30 1479 C 138.982 1.88348 3.25886 0
M  V30 1480 C 138.129 1.93447 1.9868 0
M  V30 1481 H 141.08 1.39292 0.760489 0
M  V30 1482 H 141.101 1.54477 3.47732 0
M  V30 1483 H 140.613 3.03297 2.42141 0
M  V30 1484 H 138.714 0.878636 3.62092 0
M  V30 1485 H 138.827 2.73696 3.93227 0
M  V30 1486 H 137.191 1.37456 2.14425 0
M  V30 1487 H 137.974 2.98476 1.69607 0
M  V30 1488 N 140.419 -1.14872 1.07899 0
M  V30 1489 C 141.83 -1.67367 0.827363 0
M  V30 1490 C 142.181 -1.85236 -0.646693 0
M  V30 1491 O 141.306 -1.55974 -1.50004 0
M  V30 1492 C 141.901 -3.04016 1.49532 0
M  V30 1493 C 140.46 -3.53566 1.29106 0
M  V30 1494 C 139.607 -2.29161 1.56143 0
M  V30 1495 H 142.558 -0.990083 1.24028 0
M  V30 1496 H 142.579 -3.69219 0.919643 0
M  V30 1497 H 142.091 -2.90978 2.56814 0
M  V30 1498 H 140.192 -3.71835 0.238713 0
M  V30 1499 H 140.305 -4.34661 2.01511 0
M  V30 1500 H 138.669 -2.34978 0.982717 0
M  V30 1501 H 139.452 -2.18705 2.64619 0
M  V30 1502 N 141.898 -0.863906 -1.31812 0
M  V30 1503 C 143.126 -0.486111 -2.01108 0
M  V30 1504 C 143.541 0.919755 -1.64882 0
M  V30 1505 O 142.898 1.60162 -0.874893 0
M  V30 1506 C 142.949 -0.626435 -3.56031 0
M  V30 1507 O 142.67 -1.97693 -3.90959 0
M  V30 1508 C 144.171 -0.248857 -4.42601 0
M  V30 1509 H 141.391 -0.190052 -0.643523 0
M  V30 1510 H 143.935 -1.1634 -1.68182 0
M  V30 1511 H 142.09 0.00322717 -3.874 0
M  V30 1512 H 142.504 -1.98034 -4.85678 0
M  V30 1513 H 143.978 -0.398016 -5.50563 0
M  V30 1514 H 144.455 0.811489 -4.31638 0
M  V30 1515 H 145.061 -0.853971 -4.16638 0
M  V30 1516 N 143.376 1.44774 -0.622745 0
M  V30 1517 C 144.787 1.85546 -0.207226 0
M  V30 1518 C 145.138 1.52093 1.23944 0
M  V30 1519 O 144.263 0.95492 1.94191 0
M  V30 1520 C 144.858 3.36781 -0.369313 0
M  V30 1521 C 143.417 3.76399 -0.00836847 0
M  V30 1522 C 142.564 2.68664 -0.686651 0
M  V30 1523 H 145.515 1.3536 -0.828454 0
M  V30 1524 H 145.536 3.78453 0.394162 0
M  V30 1525 H 145.048 3.61098 -1.42231 0
M  V30 1526 H 143.149 3.57698 1.04322 0
M  V30 1527 H 143.262 4.7732 -0.412584 0
M  V30 1528 H 141.626 2.54404 -0.122777 0
M  V30 1529 H 142.409 2.95815 -1.74208 0
M  V30 1530 N 144.854 0.36279 1.53368 0
M  V30 1531 C 145.802 -0.500155 2.27159 0
M  V30 1532 C 146.796 -1.08575 1.3003 0
M  V30 1533 O 148.002 -1.02927 1.47668 0
M  V30 1534 H 144.377 -0.180009 0.730138 0
M  V30 1535 H 146.348 0.14401 2.98052 0
M  V30 1536 C 145.097 -1.62937 3.07159 0
M  V30 1537 H 144.42 -1.18806 3.8174 0
M  V30 1538 H 145.86 -2.20795 3.61975 0
M  V30 1539 C 144.319 -2.57007 2.17829 0
M  V30 1540 O 144.849 -3.59752 1.78721 0
M  V30 1541 N 143.055 -2.26131 1.82518 0
M  V30 1542 H 142.602 -1.42616 2.14519 0
M  V30 1543 H 142.56 -2.89327 1.23034 0
M  V30 1544 N 146.332 -1.57332 0.0918853 0
M  V30 1545 C 147.609 -1.85691 -0.614668 0
M  V30 1546 C 147.989 -0.988146 -1.86545 0
M  V30 1547 O 147.337 -0.0597055 -2.28422 0
M  V30 1548 C 147.547 -3.36294 -0.933126 0
M  V30 1549 C 148.895 -4.04275 -1.29796 0
M  V30 1550 O 149.919 -3.41157 -1.02424 0
M  V30 1551 O 148.778 -5.1564 -1.81047 0
M  V30 1552 H 145.872 -0.767802 -0.307261 0
M  V30 1553 H 148.418 -1.69244 0.12434 0
M  V30 1554 H 147.19 -3.91273 -0.0456404 0
M  V30 1555 H 146.813 -3.58076 -1.72822 0
M  V30 1556 N 147.81 0.181792 -1.56548 0
M  V30 1557 C 148.76 1.22961 -1.92002 0
M  V30 1558 C 149.744 1.40331 -0.787146 0
M  V30 1559 O 150.936 1.42478 -1.05019 0
M  V30 1560 C 148.065 2.57144 -2.27446 0
M  V30 1561 C 147.151 2.43512 -3.47222 0
M  V30 1562 N 147.542 1.99577 -4.64761 0
M  V30 1563 C 145.84 2.74368 -3.51622 0
M  V30 1564 C 146.541 1.98156 -5.46909 0
M  V30 1565 N 145.517 2.40164 -4.8767 0
M  V30 1566 H 149.319 0.881462 -2.8037 0
M  V30 1567 H 146.833 0.390141 -1.57644 0
M  V30 1568 H 148.83 3.32847 -2.51035 0
M  V30 1569 H 147.49 2.92771 -1.40411 0
M  V30 1570 H 148.501 1.70078 -4.89177 0
M  V30 1571 H 145.178 3.14102 -2.75038 0
M  V30 1572 H 146.568 1.65975 -6.51077 0
M  V30 1573 N 149.288 1.51039 0.449983 0
M  V30 1574 C 150.535 1.63081 1.20045 0
M  V30 1575 C 150.863 0.341024 1.91487 0
M  V30 1576 O 150.118 -0.674276 1.83717 0
M  V30 1577 C 150.417 2.77556 2.25161 0
M  V30 1578 C 150.083 4.17289 1.70823 0
M  V30 1579 C 148.745 4.55305 1.55725 0
M  V30 1580 C 151.097 5.04536 1.3074 0
M  V30 1581 C 148.425 5.78287 0.989999 0
M  V30 1582 C 150.777 6.28085 0.754482 0
M  V30 1583 C 149.441 6.64885 0.590308 0
M  V30 1584 H 148.711 0.596755 0.439277 0
M  V30 1585 H 151.358 1.85037 0.49333 0
M  V30 1586 H 149.663 2.49771 3.01863 0
M  V30 1587 H 151.36 2.84073 2.83026 0
M  V30 1588 H 147.95 3.8731 1.83546 0
M  V30 1589 H 152.134 4.75782 1.41229 0
M  V30 1590 H 147.39 6.05456 0.850451 0
M  V30 1591 H 151.564 6.95038 0.435324 0
M  V30 1592 H 149.191 7.60055 0.14862 0
M  V30 1593 N 150.766 -0.704594 1.40972 0
M  V30 1594 C 151.994 -1.49354 1.43182 0
M  V30 1595 C 152.409 -1.88768 0.0345508 0
M  V30 1596 O 151.766 -1.56184 -0.944081 0
M  V30 1597 C 151.817 -2.76187 2.33244 0
M  V30 1598 O 151.538 -2.38436 3.67532 0
M  V30 1599 C 153.039 -3.7 2.44162 0
M  V30 1600 H 150.259 -0.460559 0.487982 0
M  V30 1601 H 152.803 -0.868261 1.85153 0
M  V30 1602 H 150.958 -3.34974 1.94606 0
M  V30 1603 H 151.372 -3.20126 4.15475 0
M  V30 1604 H 152.846 -4.55803 3.11364 0
M  V30 1605 H 153.323 -4.13867 1.47006 0
M  V30 1606 H 153.929 -3.17121 2.83398 0
M  V30 1607 N 152.244 -1.26651 -0.937939 0
M  V30 1608 C 153.655 -1.1125 -1.49934 0
M  V30 1609 C 154.006 0.306077 -1.93798 0
M  V30 1610 O 153.131 1.19792 -1.80219 0
M  V30 1611 C 153.726 -2.01339 -2.72485 0
M  V30 1612 C 152.285 -1.90074 -3.24883 0
M  V30 1613 C 151.432 -1.94498 -1.97651 0
M  V30 1614 H 154.383 -1.39693 -0.753091 0
M  V30 1615 H 154.404 -1.56319 -3.46907 0
M  V30 1616 H 153.916 -3.04577 -2.40529 0
M  V30 1617 H 152.017 -0.897827 -3.61621 0
M  V30 1618 H 152.13 -2.75778 -3.9177 0
M  V30 1619 H 150.494 -1.38591 -2.13693 0
M  V30 1620 H 151.277 -2.99372 -1.68022 0
M  V30 1621 N 153.722 1.14298 -1.08507 0
M  V30 1622 C 154.95 1.89219 -0.836876 0
M  V30 1623 C 155.365 1.78638 0.611054 0
M  V30 1624 O 154.722 1.14643 1.41998 0
M  V30 1625 C 154.773 3.39158 -1.25116 0
M  V30 1626 O 154.494 3.49449 -2.64229 0
M  V30 1627 C 155.995 4.31073 -1.03398 0
M  V30 1628 H 153.215 0.599328 -0.301739 0
M  V30 1629 H 155.759 1.44746 -1.44461 0
M  V30 1630 H 153.914 3.81251 -0.687514 0
M  V30 1631 H 154.328 4.42589 -2.81452 0
M  V30 1632 H 155.802 5.34646 -1.37323 0
M  V30 1633 H 156.279 4.3919 0.0289259 0
M  V30 1634 H 156.885 3.94738 -1.58311 0
M  V30 1635 N 155.201 0.870884 1.31352 0
M  V30 1636 C 156.612 0.534714 1.78879 0
M  V30 1637 C 156.963 -0.948423 1.71754 0
M  V30 1638 O 156.088 -1.74055 1.28584 0
M  V30 1639 C 156.683 0.963839 3.24801 0
M  V30 1640 C 155.242 0.679311 3.70219 0
M  V30 1641 C 154.389 1.15465 2.52117 0
M  V30 1642 H 157.34 1.05651 1.18421 0
M  V30 1643 H 157.361 0.286892 3.79417 0
M  V30 1644 H 156.873 2.04332 3.29955 0
M  V30 1645 H 154.974 -0.388769 3.70566 0
M  V30 1646 H 155.087 1.25698 4.62317 0
M  V30 1647 H 153.451 0.574383 2.48139 0
M  V30 1648 H 154.234 2.24157 2.60016 0
M  V30 1649 N 156.679 -1.44442 0.630414 0
M  V30 1650 C 157.925 -2.02351 0.134816 0
M  V30 1651 C 158.258 -1.4947 -1.23986 0
M  V30 1652 O 157.533 -0.678475 -1.82283 0
M  V30 1653 C 157.816 -3.59898 0.120707 0
M  V30 1654 C 157.669 -4.23063 1.52767 0
M  V30 1655 C 158.988 -4.36585 -0.555127 0
M  V30 1656 H 156.107 -0.73527 0.0504646 0
M  V30 1657 H 158.749 -1.72022 0.806751 0
M  V30 1658 H 156.899 -3.85868 -0.451477 0
M  V30 1659 H 158.571 -4.08202 2.14869 0
M  V30 1660 H 156.814 -3.80586 2.08175 0
M  V30 1661 H 157.485 -5.32071 1.46984 0
M  V30 1662 H 159.961 -4.16044 -0.0685429 0
M  V30 1663 H 158.837 -5.46294 -0.534185 0
M  V30 1664 H 159.098 -4.11138 -1.62535 0
M  V30 1665 N 158.157 -0.370918 -1.53173 0
M  V30 1666 C 159.382 0.220293 -2.06227 0
M  V30 1667 C 159.807 1.41243 -1.24225 0
M  V30 1668 O 159.165 1.79387 -0.262645 0
M  V30 1669 C 159.213 0.586663 -3.55796 0
M  V30 1670 O 158.317 1.68317 -3.76488 0
M  V30 1671 H 157.658 0.0308099 -0.663285 0
M  V30 1672 H 160.188 -0.533068 -1.97534 0
M  V30 1673 H 160.198 0.85617 -3.98916 0
M  V30 1674 H 158.873 -0.285013 -4.14922 0
M  V30 1675 H 157.45 1.40881 -3.45264 0
M  V30 1676 N 159.635 1.57281 -0.100228 0
M  V30 1677 C 160.865 1.98591 0.569681 0
M  V30 1678 C 161.273 0.978315 1.61943 0
M  V30 1679 O 160.616 -0.0396108 1.83657 0
M  V30 1680 C 160.678 3.36282 1.271 0
M  V30 1681 C 160.342 4.55488 0.371409 0
M  V30 1682 C 161.339 5.18491 -0.382504 0
M  V30 1683 C 159.024 5.01474 0.287965 0
M  V30 1684 C 161.018 6.25852 -1.20779 0
M  V30 1685 C 158.705 6.08701 -0.540965 0
M  V30 1686 C 159.703 6.70755 -1.28749 0
M  V30 1687 O 159.391 7.75914 -2.10269 0
M  V30 1688 H 159.123 0.65752 0.156982 0
M  V30 1689 H 161.677 2.0463 -0.177734 0
M  V30 1690 H 159.907 3.26941 2.0651 0
M  V30 1691 H 161.596 3.62005 1.83595 0
M  V30 1692 H 162.362 4.83891 -0.3278 0
M  V30 1693 H 158.241 4.52932 0.858689 0
M  V30 1694 H 161.785 6.74218 -1.79096 0
M  V30 1695 H 157.682 6.42732 -0.597131 0
M  V30 1696 H 158.45 7.92925 -2.03007 0
M  V30 1697 N 161.113 -0.173488 1.56642 0
M  V30 1698 C 162.341 -0.906095 1.86004 0
M  V30 1699 C 162.756 -1.75921 0.685355 0
M  V30 1700 O 162.113 -1.79198 -0.345578 0
M  V30 1701 C 162.164 -1.78462 3.14378 0
M  V30 1702 O 161.885 -0.965914 4.27319 0
M  V30 1703 C 163.386 -2.62707 3.57071 0
M  V30 1704 H 160.606 -0.263341 0.617165 0
M  V30 1705 H 163.15 -0.174236 2.03756 0
M  V30 1706 H 161.305 -2.46984 2.98459 0
M  V30 1707 H 161.719 -1.56655 5.00559 0
M  V30 1708 H 163.193 -3.19969 4.49804 0
M  V30 1709 H 163.67 -3.37472 2.81086 0
M  V30 1710 H 164.276 -1.99521 3.75595 0
M  V30 1711 N 162.591 -1.51276 -0.441967 0
M  V30 1712 C 163.554 -1.7167 -1.51862 0
M  V30 1713 C 164.554 -0.586793 -1.49711 0
M  V30 1714 O 165.744 -0.854276 -1.51815 0
M  V30 1715 C 162.876 -1.76889 -2.91416 0
M  V30 1716 H 164.069 -2.67754 -1.35084 0
M  V30 1717 H 161.622 -1.41196 -0.670333 0
M  V30 1718 H 162.357 -0.826026 -3.13604 0
M  V30 1719 H 162.142 -2.59001 -2.94382 0
M  V30 1720 H 163.632 -1.94522 -3.69528 0
M  V30 1721 N 164.069 0.697108 -1.41344 0
M  V30 1722 C 165.317 1.45426 -1.40341 0
M  V30 1723 C 165.638 1.94996 -0.0128787 0
M  V30 1724 O 164.908 1.71599 0.945027 0
M  V30 1725 H 163.488 0.539594 -0.516573 0
M  V30 1726 H 166.15 0.825201 -1.76569 0
M  V30 1727 H 165.246 2.31817 -2.08967 0
M  V30 1728 N 165.547 1.27147 0.931209 0
M  V30 1729 C 166.794 1.13278 1.67852 0
M  V30 1730 C 167.122 -0.32204 1.91815 0
M  V30 1731 O 166.377 -1.25224 1.50391 0
M  V30 1732 C 166.676 1.8579 3.05314 0
M  V30 1733 C 166.342 3.35657 3.01073 0
M  V30 1734 C 165.004 3.76536 2.99623 0
M  V30 1735 C 167.356 4.31299 2.92627 0
M  V30 1736 C 164.684 5.11426 2.87506 0
M  V30 1737 C 167.036 5.66242 2.82051 0
M  V30 1738 C 165.7 6.06418 2.7895 0
M  V30 1739 H 164.97 0.414515 0.614214 0
M  V30 1740 H 167.617 1.57712 1.08624 0
M  V30 1741 H 165.922 1.33854 3.68226 0
M  V30 1742 H 167.619 1.72491 3.62005 0
M  V30 1743 H 164.209 3.03146 3.02986 0
M  V30 1744 H 168.393 4.00692 2.92848 0
M  V30 1745 H 163.649 5.41705 2.83489 0
M  V30 1746 H 167.823 6.40026 2.74481 0
M  V30 1747 H 165.45 7.10895 2.69318 0
M  V30 1748 N 167.025 -1.13721 1.09112 0
M  V30 1749 C 168.255 -1.88499 0.845671 0
M  V30 1750 C 168.663 -1.79218 -0.606432 0
M  V30 1751 O 168.006 -1.1544 -1.42896 0
M  V30 1752 C 168.068 -3.38954 1.19793 0
M  V30 1753 C 167.732 -3.72018 2.65428 0
M  V30 1754 C 168.729 -3.7153 3.63677 0
M  V30 1755 C 166.414 -4.01775 3.01467 0
M  V30 1756 C 168.408 -4.00336 4.95994 0
M  V30 1757 C 166.095 -4.30243 4.33975 0
M  V30 1758 C 167.093 -4.29508 5.31048 0
M  V30 1759 O 166.781 -4.5728 6.61173 0
M  V30 1760 H 166.513 -0.603702 0.304171 0
M  V30 1761 H 169.067 -1.44903 1.45576 0
M  V30 1762 H 167.297 -3.83039 0.530871 0
M  V30 1763 H 168.986 -3.95052 0.932146 0
M  V30 1764 H 169.752 -3.4862 3.37179 0
M  V30 1765 H 165.631 -4.01496 2.26544 0
M  V30 1766 H 169.175 -3.99678 5.71755 0
M  V30 1767 H 165.072 -4.52625 4.60219 0
M  V30 1768 H 165.84 -4.74964 6.66597 0
M  V30 1769 N 168.503 -0.877838 -1.30888 0
M  V30 1770 C 169.919 -0.570844 -1.49042 0
M  V30 1771 C 170.119 0.893159 -1.80624 0
M  V30 1772 O 169.175 1.67485 -1.88958 0
M  V30 1773 C 170.488 -1.47784 -2.61878 0
M  V30 1774 C 172.036 -1.48071 -2.75761 0
M  V30 1775 C 172.511 -2.37347 -3.91702 0
M  V30 1776 N 174.002 -2.35271 -3.99001 0
M  V30 1777 C 174.737 -3.01063 -4.88004 0
M  V30 1778 N 174.233 -3.76055 -5.81854 0
M  V30 1779 N 176.026 -2.90332 -4.81315 0
M  V30 1780 H 168.177 -1.82502 -1.0866 0
M  V30 1781 H 170.44 -0.780797 -0.537644 0
M  V30 1782 H 170.146 -2.51993 -2.45341 0
M  V30 1783 H 170.02 -1.18215 -3.58197 0
M  V30 1784 H 172.407 -0.446166 -2.91708 0
M  V30 1785 H 172.488 -1.81668 -1.80085 0
M  V30 1786 H 172.132 -3.40883 -3.76512 0
M  V30 1787 H 172.062 -2.01071 -4.86701 0
M  V30 1788 H 174.553 -1.80768 -3.3186 0
M  V30 1789 H 174.866 -4.23366 -6.46514 0
M  V30 1790 H 173.211 -3.80163 -5.81808 0
M  V30 1791 H 176.402 -2.31278 -4.06974 0
M  V30 1792 H 176.575 -3.41885 -5.50471 0
M  V30 1793 N 169.982 1.44106 -0.638065 0
M  V30 1794 C 171.231 2.01194 -0.142744 0
M  V30 1795 C 171.544 1.50835 1.24532 0
M  V30 1796 O 172.75 2.00096 1.83504 0
M  V30 1797 C 171.206 3.59319 -0.20442 0
M  V30 1798 C 170.814 4.18674 -1.59423 0
M  V30 1799 C 172.558 4.23854 0.234079 0
M  V30 1800 C 170.465 5.69045 -1.61065 0
M  V30 1801 H 169.395 0.752367 -0.0495998 0
M  V30 1802 H 172.046 1.65246 -0.797881 0
M  V30 1803 H 170.428 3.92598 0.517946 0
M  V30 1804 H 171.602 3.96921 -2.34074 0
M  V30 1805 H 169.917 3.66453 -1.97741 0
M  V30 1806 H 172.514 5.34155 0.241443 0
M  V30 1807 H 172.857 3.96688 1.2627 0
M  V30 1808 H 173.39 3.95403 -0.436025 0
M  V30 1809 H 170.129 6.00956 -2.61787 0
M  V30 1810 H 169.649 5.929 -0.90718 0
M  V30 1811 H 171.328 6.32809 -1.34766 0
M  V30 1812 N 171.46 0.379036 1.52974 0
M  V30 1813 C 172.871 -0.0972525 1.86447 0
M  V30 1814 C 173.222 -1.47027 1.29914 0
M  V30 1815 O 172.347 -2.07135 0.626433 0
M  V30 1816 C 172.942 -0.183248 3.38304 0
M  V30 1817 C 171.501 -0.603812 3.71525 0
M  V30 1818 C 170.648 0.240632 2.76254 0
M  V30 1819 H 173.599 0.597316 1.4703 0
M  V30 1820 H 173.62 -1.00432 3.67006 0
M  V30 1821 H 173.132 0.816191 3.79421 0
M  V30 1822 H 171.233 -1.61099 3.35973 0
M  V30 1823 H 171.346 -0.369086 4.77676 0
M  V30 1824 H 169.71 -0.292548 2.53014 0
M  V30 1825 H 170.493 1.23786 3.20206 0
M  V30 1826 N 172.938 -1.57226 0.108567 0
M  V30 1827 C 174.184 -1.95121 -0.552761 0
M  V30 1828 C 174.517 -0.991345 -1.66991 0
M  V30 1829 O 173.792 -0.0267211 -1.94482 0
M  V30 1830 C 174.075 -3.43039 -1.09528 0
M  V30 1831 C 173.928 -4.49797 0.0177332 0
M  V30 1832 C 175.247 -3.92567 -1.98945 0
M  V30 1833 H 172.366 -0.709496 -0.199461 0
M  V30 1834 H 175.008 -1.89126 0.182011 0
M  V30 1835 H 173.158 -3.48279 -1.72146 0
M  V30 1836 H 174.83 -4.56661 0.652584 0
M  V30 1837 H 173.073 -4.284 0.682309 0
M  V30 1838 H 173.744 -5.50528 -0.402919 0
M  V30 1839 H 176.22 -3.89565 -1.46214 0
M  V30 1840 H 175.096 -4.96605 -2.33827 0
M  V30 1841 H 175.357 -3.32648 -2.91201 0
M  V30 1842 N 174.416 0.165178 -1.56732 0
M  V30 1843 C 175.346 1.20651 -1.99914 0
M  V30 1844 C 176.327 1.45827 -0.875705 0
M  V30 1845 O 177.512 1.57057 -1.14223 0
M  V30 1846 C 174.642 2.54401 -2.36427 0
M  V30 1847 C 173.596 2.43782 -3.51787 0
M  V30 1848 C 172.922 3.82078 -3.7406 0
M  V30 1849 C 174.222 1.93732 -4.85041 0
M  V30 1850 H 175.916 0.847534 -2.87154 0
M  V30 1851 H 173.462 0.40625 -1.38151 0
M  V30 1852 H 175.415 3.27458 -2.65234 0
M  V30 1853 H 174.139 2.92098 -1.46103 0
M  V30 1854 H 172.798 1.73178 -3.23117 0
M  V30 1855 H 172.446 4.17179 -2.81017 0
M  V30 1856 H 172.146 3.7584 -4.51684 0
M  V30 1857 H 173.67 4.56712 -4.05274 0
M  V30 1858 H 175.084 2.56569 -5.12684 0
M  V30 1859 H 173.481 1.98428 -5.66345 0
M  V30 1860 H 174.551 0.891962 -4.76626 0
M  V30 1861 N 175.894 1.51508 0.433938 0
M  V30 1862 C 177.142 1.6402 1.18075 0
M  V30 1863 C 177.463 0.360328 1.91642 0
M  V30 1864 O 176.733 -0.623945 1.85698 0
M  V30 1865 H 175.313 0.6045 0.43885 0
M  V30 1866 H 177.975 1.88452 0.497178 0
M  V30 1867 H 177.071 2.46949 1.90847 0
M  V30 1868 N 177.372 -0.689602 1.41712 0
M  V30 1869 C 178.302 -1.81577 1.46806 0
M  V30 1870 C 179.283 -1.66945 0.326105 0
M  V30 1871 O 180.468 -1.86588 0.538377 0
M  V30 1872 C 177.598 -3.19762 1.35535 0
M  V30 1873 C 176.552 -3.49107 2.47605 0
M  V30 1874 C 175.878 -4.86711 2.21397 0
M  V30 1875 C 177.178 -3.47483 3.89939 0
M  V30 1876 H 178.872 -1.7757 2.41058 0
M  V30 1877 H 176.418 -0.852887 1.16025 0
M  V30 1878 H 178.371 -3.98263 1.3771 0
M  V30 1879 H 177.095 -3.24409 0.377708 0
M  V30 1880 H 175.754 -2.72959 2.44722 0
M  V30 1881 H 175.402 -4.8799 1.21961 0
M  V30 1882 H 175.102 -5.0731 2.96497 0
M  V30 1883 H 176.626 -5.67515 2.25297 0
M  V30 1884 H 178.04 -4.1598 3.94505 0
M  V30 1885 H 176.437 -3.79615 4.64771 0
M  V30 1886 H 177.507 -2.46341 4.17665 0
M  V30 1887 N 178.85 -1.27639 -0.924453 0
M  V30 1888 C 180.078 -1.16989 -1.70649 0
M  V30 1889 C 180.493 0.272869 -1.86818 0
M  V30 1890 O 179.85 1.18549 -1.38753 0
M  V30 1891 C 179.901 -1.85229 -3.10439 0
M  V30 1892 O 179.622 -3.23868 -2.95028 0
M  V30 1893 C 181.123 -1.80746 -4.04779 0
M  V30 1894 H 178.343 -0.406595 -0.53378 0
M  V30 1895 H 180.887 -1.68569 -1.15778 0
M  V30 1896 H 179.042 -1.37545 -3.6216 0
M  V30 1897 H 179.456 -3.57889 -3.83426 0
M  V30 1898 H 180.93 -2.33101 -5.00368 0
M  V30 1899 H 181.407 -0.777499 -4.32263 0
M  V30 1900 H 182.013 -2.28059 -3.58984 0
M  V30 1901 N 180.328 1.1314 -1.09713 0
M  V30 1902 C 181.556 1.88321 -0.856898 0
M  V30 1903 C 181.971 1.79276 0.592073 0
M  V30 1904 O 181.328 1.16142 1.40774 0
M  V30 1905 C 181.379 3.37812 -1.28706 0
M  V30 1906 O 181.1 3.46627 -2.67921 0
M  V30 1907 C 182.601 4.29952 -1.07964 0
M  V30 1908 H 179.821 0.596094 -0.308079 0
M  V30 1909 H 182.365 1.43205 -1.45988 0
M  V30 1910 H 180.52 3.805 -0.727912 0
M  V30 1911 H 180.934 4.39579 -2.8613 0
M  V30 1912 H 182.408 5.33159 -1.42986 0
M  V30 1913 H 182.885 4.39196 -0.0176577 0
M  V30 1914 H 183.491 3.93036 -1.62489 0
M  V30 1915 N 181.806 0.884767 1.30421 0
M  V30 1916 C 183.222 0.57874 1.48737 0
M  V30 1917 C 183.422 -0.883567 1.81095 0
M  V30 1918 O 182.478 -1.6648 1.89844 0
M  V30 1919 C 183.791 1.49171 2.61091 0
M  V30 1920 C 185.339 1.49532 2.74971 0
M  V30 1921 C 185.814 2.39421 3.90438 0
M  V30 1922 N 187.305 2.37383 3.97748 0
M  V30 1923 C 188.04 3.03647 4.86401 0
M  V30 1924 N 187.536 3.79136 5.79852 0
M  V30 1925 N 189.329 2.9288 4.79768 0
M  V30 1926 H 181.48 1.83075 1.0769 0
M  V30 1927 H 183.743 0.783637 0.533495 0
M  V30 1928 H 183.449 2.53291 2.44001 0
M  V30 1929 H 183.323 1.20113 3.57565 0
M  V30 1930 H 185.71 0.46163 2.91467 0
M  V30 1931 H 185.791 1.8262 1.79119 0
M  V30 1932 H 185.435 3.42874 3.74699 0
M  V30 1933 H 185.365 2.03649 4.85628 0
M  V30 1934 H 187.856 1.82525 3.30897 0
M  V30 1935 H 188.169 4.26789 6.4426 0
M  V30 1936 H 186.514 3.83243 5.79784 0
M  V30 1937 H 189.705 2.33433 4.05742 0
M  V30 1938 H 189.878 3.448 5.4865 0
M  V30 1939 N 183.284 -1.43765 0.645699 0
M  V30 1940 C 184.217 -2.2798 -0.100072 0
M  V30 1941 C 185.195 -1.39391 -0.837194 0
M  V30 1942 O 186.379 -1.68833 -0.838306 0
M  V30 1943 C 183.506 -3.18643 -1.14823 0
M  V30 1944 C 182.552 -4.2344 -0.510009 0
M  V30 1945 S 183.385 -5.30761 0.710824 0
M  V30 1946 C 184.541 -6.24992 -0.33699 0
M  V30 1947 H 184.774 -2.90884 0.614322 0
M  V30 1948 H 182.307 -1.48166 0.434304 0
M  V30 1949 H 184.265 -3.71424 -1.74799 0
M  V30 1950 H 182.926 -2.54932 -1.8349 0
M  V30 1951 H 182.119 -4.86948 -1.29991 0
M  V30 1952 H 181.721 -3.73997 0.0154577 0
M  V30 1953 H 184.013 -6.66691 -1.20537 0
M  V30 1954 H 184.956 -7.07612 0.262879 0
M  V30 1955 H 185.364 -5.60517 -0.669425 0
M  V30 1956 N 184.763 -0.387143 -1.52771 0
M  V30 1957 C 185.988 0.198407 -2.06449 0
M  V30 1958 C 186.413 1.39918 -1.25716 0
M  V30 1959 O 185.771 1.79099 -0.281657 0
M  V30 1960 C 185.819 0.548893 -3.56398 0
M  V30 1961 O 184.923 1.64315 -3.78252 0
M  V30 1962 H 184.264 0.0237731 -0.663574 0
M  V30 1963 H 186.794 -0.553989 -1.96957 0
M  V30 1964 H 186.804 0.813812 -3.99801 0
M  V30 1965 H 185.479 -0.329005 -4.14597 0
M  V30 1966 H 184.056 1.37211 -3.46738 0
M  V30 1967 N 186.241 1.57166 -0.116904 0
M  V30 1968 C 187.49 1.94298 0.541407 0
M  V30 1969 C 187.803 1.00236 1.67964 0
M  V30 1970 O 189.009 1.26826 2.40057 0
M  V30 1971 C 187.465 3.45306 1.01449 0
M  V30 1972 C 187.073 4.47899 -0.0951738 0
M  V30 1973 C 188.817 3.91361 1.6443 0
M  V30 1974 C 186.724 5.90083 0.394491 0
M  V30 1975 H 185.654 0.725308 0.206019 0
M  V30 1976 H 188.305 1.82446 -0.196419 0
M  V30 1977 H 186.687 3.52385 1.80667 0
M  V30 1978 H 187.861 4.52486 -0.871374 0
M  V30 1979 H 186.176 4.11583 -0.631505 0
M  V30 1980 H 188.773 4.95004 2.02176 0
M  V30 1981 H 189.116 3.3122 2.52189 0
M  V30 1982 H 189.649 3.87073 0.917559 0
M  V30 1983 H 186.388 6.53974 -0.447004 0
M  V30 1984 H 185.908 5.88921 1.13722 0
M  V30 1985 H 187.587 6.41307 0.856399 0
M  V30 1986 N 187.719 -0.156864 1.56817 0
M  V30 1987 C 188.949 -0.885031 1.86684 0
M  V30 1988 C 189.357 -1.75696 0.701954 0
M  V30 1989 O 188.7 -1.80569 -0.337732 0
M  V30 1990 C 188.762 -1.80092 3.11138 0
M  V30 1991 C 188.426 -1.10714 4.43386 0
M  V30 1992 C 189.423 -0.465714 5.1781 0
M  V30 1993 C 187.108 -1.09959 4.90117 0
M  V30 1994 C 189.102 0.174002 6.37162 0
M  V30 1995 C 186.789 -0.456055 6.09396 0
M  V30 1996 C 187.787 0.179622 6.82764 0
M  V30 1997 O 187.475 0.812975 7.99779 0
M  V30 1998 H 187.207 -0.261813 0.623242 0
M  V30 1999 H 189.761 -0.157383 2.04796 0
M  V30 2000 H 187.991 -2.56926 2.89009 0
M  V30 2001 H 189.68 -2.40018 3.27332 0
M  V30 2002 H 190.446 -0.463427 4.82781 0
M  V30 2003 H 186.325 -1.58378 4.3294 0
M  V30 2004 H 189.869 0.670765 6.94368 0
M  V30 2005 H 185.766 -0.455975 6.43888 0
M  V30 2006 H 186.534 0.71366 8.15383 0
M  V30 2007 N 189.197 -1.51736 -0.425897 0
M  V30 2008 C 190.422 -1.69082 -1.20108 0
M  V30 2009 C 190.847 -0.392398 -1.83962 0
M  V30 2010 O 190.205 0.64858 -1.69302 0
M  V30 2011 C 190.253 -2.81604 -2.25237 0
M  V30 2012 O 189.357 -2.46004 -3.30992 0
M  V30 2013 H 188.698 -0.563408 -0.35138 0
M  V30 2014 H 191.228 -1.98358 -0.501512 0
M  V30 2015 H 191.238 -3.06025 -2.69838 0
M  V30 2016 H 189.913 -3.75817 -1.78142 0
M  V30 2017 H 188.49 -2.32195 -2.91787 0
M  V30 2018 N 190.675 0.682077 -1.42076 0
M  V30 2019 C 191.952 1.43755 -1.32642 0
M  V30 2020 C 192.332 2.11063 0.0396611 0
M  V30 2021 O 191.68 2.02701 1.05474 0
M  V30 2022 C 191.89 2.44596 -2.48946 0
M  V30 2023 C 193.238 3.09454 -2.9073 0
M  V30 2024 O 194.262 2.54922 -2.48783 0
M  V30 2025 O 193.121 4.08253 -3.63307 0
M  V30 2026 H 190.215 0.640857 -0.522715 0
M  V30 2027 H 192.761 0.711415 -1.54068 0
M  V30 2028 H 191.533 1.93609 -3.40046 0
M  V30 2029 H 191.156 3.24701 -2.29467 0
M  V30 2030 N 192.153 1.28127 0.917671 0
M  V30 2031 C 193.1 1.11717 2.0196 0
M  V30 2032 C 194.07 0.0153929 1.66093 0
M  V30 2033 O 195.255 0.179596 1.89953 0
M  V30 2034 C 192.395 0.780927 3.36148 0
M  V30 2035 C 191.508 1.96135 3.84909 0
M  V30 2036 C 190.643 1.56609 5.0759 0
M  V30 2037 C 189.682 2.71339 5.48673 0
M  V30 2038 N 188.819 2.32332 6.62545 0
M  V30 2039 H 193.659 2.06003 2.15329 0
M  V30 2040 H 191.196 1.02535 1.05475 0
M  V30 2041 H 193.154 0.56675 4.13333 0
M  V30 2042 H 191.784 -0.124998 3.22558 0
M  V30 2043 H 190.836 2.28777 3.03916 0
M  V30 2044 H 192.148 2.82165 4.1132 0
M  V30 2045 H 191.302 1.31374 5.92305 0
M  V30 2046 H 190.041 0.677014 4.82978 0
M  V30 2047 H 189.046 2.97276 4.62501 0
M  V30 2048 H 190.271 3.60882 5.75274 0
M  V30 2049 H 188.217 1.45889 6.39572 0
M  V30 2050 H 188.134 3.11899 6.88662 0
M  V30 2051 H 189.402 2.10371 7.50576 0
M  V30 2052 N 193.631 -1.12557 1.10312 0
M  V30 2053 C 194.856 -1.88405 0.867085 0
M  V30 2054 C 195.281 -1.79038 -0.576817 0
M  V30 2055 O 194.639 -1.14439 -1.40618 0
M  V30 2056 C 194.687 -3.3563 1.31851 0
M  V30 2057 O 193.791 -4.09565 0.482734 0
M  V30 2058 H 193.132 -0.585455 0.313271 0
M  V30 2059 H 195.662 -1.42352 1.4696 0
M  V30 2060 H 195.672 -3.86469 1.3079 0
M  V30 2061 H 194.347 -3.41765 2.37001 0
M  V30 2062 H 192.924 -3.68695 0.558448 0
M  V30 2063 N 195.109 -0.891671 -1.2995 0
M  V30 2064 C 196.358 -0.509521 -1.95158 0
M  V30 2065 C 196.671 0.947388 -1.71125 0
M  V30 2066 O 197.877 1.43669 -2.30372 0
M  V30 2067 C 196.333 -0.860315 -3.49466 0
M  V30 2068 C 195.941 -2.33545 -3.8231 0
M  V30 2069 C 197.685 -0.547687 -4.20952 0
M  V30 2070 C 195.592 -2.62752 -5.29826 0
M  V30 2071 H 194.522 -0.18682 -0.730489 0
M  V30 2072 H 197.173 -1.08756 -1.47798 0
M  V30 2073 H 195.555 -0.211285 -3.95436 0
M  V30 2074 H 196.729 -3.02936 -3.47227 0
M  V30 2075 H 195.044 -2.61629 -3.23944 0
M  V30 2076 H 197.641 -0.742854 -5.29515 0
M  V30 2077 H 197.984 0.51332 -4.13123 0
M  V30 2078 H 198.517 -1.1542 -3.80688 0
M  V30 2079 H 195.256 -3.6762 -5.42712 0
M  V30 2080 H 194.776 -1.97977 -5.66185 0
M  V30 2081 H 196.455 -2.48601 -5.97333 0
M  V30 2082 N 196.587 1.43421 -0.653314 0
M  V30 2083 C 197.537 2.2792 0.060558 0
M  V30 2084 C 198.521 1.39906 0.794677 0
M  V30 2085 O 199.713 1.63536 0.677128 0
M  V30 2086 C 196.842 3.27603 1.0262 0
M  V30 2087 C 195.928 4.23104 0.290551 0
M  V30 2088 N 196.319 5.01031 -0.692967 0
M  V30 2089 C 194.617 4.42816 0.531984 0
M  V30 2090 C 195.318 5.70626 -1.12963 0
M  V30 2091 N 194.294 5.41617 -0.463867 0
M  V30 2092 H 198.096 2.85585 -0.694143 0
M  V30 2093 H 195.61 1.55126 -0.480602 0
M  V30 2094 H 197.607 3.86918 1.55242 0
M  V30 2095 H 196.267 2.71499 1.78096 0
M  V30 2096 H 197.278 5.0669 -1.07169 0
M  V30 2097 H 193.955 3.97782 1.26791 0
M  V30 2098 H 195.345 6.4318 -1.94343 0
M  V30 2099 N 198.065 0.39524 1.52563 0
M  V30 2100 C 198.995 -0.428384 2.29537 0
M  V30 2101 C 199.976 -1.05831 1.33169 0
M  V30 2102 O 201.161 -1.06995 1.62067 0
M  V30 2103 C 198.291 -1.55274 3.10656 0
M  V30 2104 C 197.245 -1.04855 4.14957 0
M  V30 2105 C 196.571 -2.26543 4.84337 0
M  V30 2106 C 197.871 -0.112324 5.22179 0
M  V30 2107 H 199.565 0.213867 2.98635 0
M  V30 2108 H 197.111 0.104298 1.43622 0
M  V30 2109 H 199.064 -2.1358 3.63265 0
M  V30 2110 H 197.788 -2.22266 2.39302 0
M  V30 2111 H 196.447 -0.487985 3.63338 0
M  V30 2112 H 196.095 -2.92059 4.09525 0
M  V30 2113 H 195.795 -1.93466 5.54837 0
M  V30 2114 H 197.319 -2.85481 5.39753 0
M  V30 2115 H 198.733 -0.603752 5.70112 0
M  V30 2116 H 197.13 0.128968 5.99961 0
M  V30 2117 H 198.2 0.837052 4.77621 0
M  V30 2118 N 199.544 -1.57102 0.125237 0
M  V30 2119 C 200.769 -2.0019 -0.542101 0
M  V30 2120 C 201.194 -1.00449 -1.59034 0
M  V30 2121 O 200.552 0.0229423 -1.81285 0
M  V30 2122 C 200.6 -3.42129 -1.13929 0
M  V30 2123 O 199.704 -3.45307 -2.2547 0
M  V30 2124 H 199.045 -0.650171 -0.134812 0
M  V30 2125 H 201.575 -2.03461 0.215553 0
M  V30 2126 H 201.585 -3.80471 -1.4733 0
M  V30 2127 H 200.26 -4.14237 -0.371531 0
M  V30 2128 H 198.837 -3.1879 -1.93462 0
M  V30 2129 N 201.022 0.148545 -1.56898 0
M  V30 2130 C 202.269 0.861418 -1.83264 0
M  V30 2131 C 202.597 1.81239 -0.705883 0
M  V30 2132 O 201.852 1.93305 0.305212 0
M  V30 2133 C 202.151 1.67064 -3.1595 0
M  V30 2134 C 201.817 0.866591 -4.42494 0
M  V30 2135 C 200.479 0.644762 -4.76861 0
M  V30 2136 C 202.831 0.30418 -5.20312 0
M  V30 2137 C 200.159 -0.15021 -5.86508 0
M  V30 2138 C 202.511 -0.477824 -6.30793 0
M  V30 2139 C 201.175 -0.710244 -6.63711 0
M  V30 2140 H 200.445 0.315215 -0.670612 0
M  V30 2141 H 203.092 0.125142 -1.91091 0
M  V30 2142 H 201.397 2.47698 -3.03567 0
M  V30 2143 H 203.094 2.22566 -3.33565 0
M  V30 2144 H 199.684 1.04955 -4.15551 0
M  V30 2145 H 203.868 0.462844 -4.94137 0
M  V30 2146 H 199.124 -0.339796 -6.10455 0
M  V30 2147 H 203.298 -0.92076 -6.90286 0
M  V30 2148 H 200.925 -1.3281 -7.48509 0
M  V30 2149 N 202.5 1.5196 0.417844 0
M  V30 2150 C 203.43 1.77634 1.51554 0
M  V30 2151 C 204.411 0.626918 1.58126 0
M  V30 2152 O 205.596 0.871632 1.7354 0
M  V30 2153 C 202.726 1.91911 2.8946 0
M  V30 2154 C 201.68 3.07463 2.97743 0
M  V30 2155 C 201.006 3.06951 4.37819 0
M  V30 2156 C 202.306 4.47082 2.70027 0
M  V30 2157 H 204 2.6955 1.3032 0
M  V30 2158 H 201.546 1.29706 0.625492 0
M  V30 2159 H 203.499 2.08455 3.6623 0
M  V30 2160 H 202.223 0.966598 3.11969 0
M  V30 2161 H 200.882 2.90656 2.23416 0
M  V30 2162 H 200.53 2.09438 4.57323 0
M  V30 2163 H 200.23 3.84556 4.44286 0
M  V30 2164 H 201.754 3.25613 5.16535 0
M  V30 2165 H 203.168 4.6414 3.36522 0
M  V30 2166 H 201.565 5.2654 2.87881 0
M  V30 2167 H 202.635 4.55777 1.65514 0
M  V30 2168 N 203.978 -0.674533 1.42435 0
M  V30 2169 C 205.394 -0.98769 1.25367 0
M  V30 2170 C 205.594 -2.00879 0.158044 0
M  V30 2171 O 204.65 -2.48075 -0.470633 0
M  V30 2172 C 205.963 -1.49224 2.6106 0
M  V30 2173 C 207.511 -1.61 2.68417 0
M  V30 2174 C 207.986 -2.14852 4.04478 0
M  V30 2175 N 209.477 -2.22185 4.06434 0
M  V30 2176 C 210.212 -2.64928 5.08528 0
M  V30 2177 N 209.708 -3.07121 6.21006 0
M  V30 2178 N 211.501 -2.64679 4.95885 0
M  V30 2179 H 203.652 0.00152503 2.124 0
M  V30 2180 H 205.915 -0.0618434 0.945981 0
M  V30 2181 H 205.621 -0.816453 3.42092 0
M  V30 2182 H 205.495 -2.47094 2.84999 0
M  V30 2183 H 207.882 -2.27686 1.87732 0
M  V30 2184 H 207.963 -0.616195 2.48267 0
M  V30 2185 H 207.607 -1.48775 4.85622 0
M  V30 2186 H 207.537 -3.15024 4.2198 0
M  V30 2187 H 210.028 -1.92435 3.25234 0
M  V30 2188 H 210.341 -3.38423 6.94759 0
M  V30 2189 H 208.686 -3.04978 6.24511 0
M  V30 2190 H 211.877 -2.31078 4.07088 0
M  V30 2191 H 212.05 -2.9767 5.75584 0
M  V30 2192 N 205.456 -1.28612 -0.910864 0
M  V30 2193 C 206.684 -1.18792 -1.69399 0
M  V30 2194 C 207.099 0.253039 -1.87097 0
M  V30 2195 O 206.456 1.17071 -1.40003 0
M  V30 2196 C 206.507 -1.88511 -3.08457 0
M  V30 2197 O 206.228 -3.26979 -2.91576 0
M  V30 2198 C 207.729 -1.85029 -4.02839 0
M  V30 2199 H 204.949 -0.412233 -0.529438 0
M  V30 2200 H 207.493 -1.69788 -1.13984 0
M  V30 2201 H 205.648 -1.41379 -3.60681 0
M  V30 2202 H 206.062 -3.61936 -3.79608 0
M  V30 2203 H 207.536 -2.38395 -4.97867 0
M  V30 2204 H 208.013 -0.823303 -4.31414 0
M  V30 2205 H 208.619 -2.31853 -3.56545 0
M  V30 2206 N 206.934 1.1197 -1.10907 0
M  V30 2207 C 208.18 1.8386 -0.855773 0
M  V30 2208 C 208.513 1.84134 0.617103 0
M  V30 2209 O 207.788 1.29041 1.45529 0
M  V30 2210 C 208.071 3.31305 -1.411 0
M  V30 2211 C 207.924 3.39456 -2.9511 0
M  V30 2212 C 209.243 4.2721 -1.05736 0
M  V30 2213 H 206.362 0.667545 -0.312334 0
M  V30 2214 H 209.004 1.31331 -1.37303 0
M  V30 2215 H 207.154 3.76169 -0.97105 0
M  V30 2216 H 208.826 3.03191 -3.47668 0
M  V30 2217 H 207.069 2.79849 -3.31462 0
M  V30 2218 H 207.74 4.43209 -3.29044 0
M  V30 2219 H 210.216 3.90497 -1.43706 0
M  V30 2220 H 209.092 5.28775 -1.47269 0
M  V30 2221 H 209.353 4.42088 0.0325958 0
M  V30 2222 N 208.412 0.89855 1.29475 0
M  V30 2223 C 209.823 0.572537 1.77705 0
M  V30 2224 C 210.174 -0.911778 1.73727 0
M  V30 2225 O 209.299 -1.71288 1.32247 0
M  V30 2226 C 209.894 1.03252 3.22683 0
M  V30 2227 C 208.453 0.757687 3.68695 0
M  V30 2228 C 207.6 1.20787 2.49612 0
M  V30 2229 H 210.551 1.08139 1.16153 0
M  V30 2230 H 210.572 0.367307 3.78723 0
M  V30 2231 H 210.084 2.11285 3.25546 0
M  V30 2232 H 208.185 -0.310079 3.71308 0
M  V30 2233 H 208.298 1.35476 4.59547 0
M  V30 2234 H 206.662 0.626888 2.46865 0
M  V30 2235 H 207.445 2.29622 2.55203 0
M  V30 2236 N 209.89 -1.43072 0.660911 0
M  V30 2237 C 211.301 -1.84932 0.256348 0
M  V30 2238 C 211.652 -1.55325 -1.19868 0
M  V30 2239 O 210.777 -1.00607 -1.91591 0
M  V30 2240 C 211.372 -3.35684 0.458475 0
M  V30 2241 C 209.931 -3.76245 0.108161 0
M  V30 2242 C 209.078 -2.66749 0.757641 0
M  V30 2243 H 212.029 -1.33116 0.864051 0
M  V30 2244 H 212.05 -3.79365 -0.293683 0
M  V30 2245 H 211.562 -3.572 1.51755 0
M  V30 2246 H 209.663 -3.60338 -0.948014 0
M  V30 2247 H 209.776 -4.76058 0.538992 0
M  V30 2248 H 208.14 -2.53989 0.190185 0
M  V30 2249 H 208.923 -2.91092 1.81989 0
M  V30 2250 N 211.368 -0.403325 -1.52352 0
M  V30 2251 C 212.598 0.17376 -2.05868 0
M  V30 2252 C 213.006 1.39898 -1.27378 0
M  V30 2253 O 212.349 1.80939 -0.31729 0
M  V30 2254 C 212.411 0.594756 -3.54546 0
M  V30 2255 C 212.075 -0.518926 -4.54044 0
M  V30 2256 C 213.072 -1.3807 -5.01231 0
M  V30 2257 C 210.757 -0.689961 -4.97539 0
M  V30 2258 C 212.751 -2.39852 -5.90551 0
M  V30 2259 C 210.438 -1.71109 -5.86656 0
M  V30 2260 C 211.436 -2.56378 -6.33056 0
M  V30 2261 O 211.124 -3.56743 -7.20409 0
M  V30 2262 H 210.856 0.0264951 -0.675481 0
M  V30 2263 H 213.41 -0.571179 -1.97299 0
M  V30 2264 H 211.64 1.39189 -3.60782 0
M  V30 2265 H 213.329 1.0991 -3.90736 0
M  V30 2266 H 214.095 -1.25994 -4.68349 0
M  V30 2267 H 209.974 -0.035939 -4.60986 0
M  V30 2268 H 213.518 -3.06441 -6.26689 0
M  V30 2269 H 209.415 -1.83218 -6.18952 0
M  V30 2270 H 210.183 -3.52918 -7.38506 0
M  V30 2271 N 212.846 1.57033 -0.133567 0
M  V30 2272 C 214.071 2.00475 0.531477 0
M  V30 2273 C 214.496 1.01291 1.58499 0
M  V30 2274 O 213.854 -0.0133279 1.81295 0
M  V30 2275 C 213.902 3.42729 1.12113 0
M  V30 2276 O 213.006 3.46498 2.23636 0
M  V30 2277 H 212.347 0.650876 0.131362 0
M  V30 2278 H 214.877 2.03344 -0.22634 0
M  V30 2279 H 214.887 3.81246 1.4531 0
M  V30 2280 H 213.562 4.14428 0.349557 0
M  V30 2281 H 212.139 3.19811 1.91769 0
M  V30 2282 N 214.325 -0.140222 1.56975 0
M  V30 2283 C 215.275 -1.17827 1.95194 0
M  V30 2284 C 216.259 -1.38195 0.824075 0
M  V30 2285 O 217.451 -1.39643 1.0876 0
M  V30 2286 C 214.58 -2.51024 2.34184 0
M  V30 2287 C 213.666 -2.3422 3.53556 0
M  V30 2288 N 214.057 -1.87185 4.69889 0
M  V30 2289 C 212.355 -2.64949 3.58773 0
M  V30 2290 C 213.056 -1.83586 5.5197 0
M  V30 2291 N 212.032 -2.2715 4.93866 0
M  V30 2292 H 215.834 -0.806817 2.82609 0
M  V30 2293 H 213.348 -0.348208 1.58623 0
M  V30 2294 H 215.345 -3.26074 2.59772 0
M  V30 2295 H 214.005 -2.88945 1.48124 0
M  V30 2296 H 215.016 -1.57048 4.93514 0
M  V30 2297 H 211.693 -3.067 2.8327 0
M  V30 2298 H 213.083 -1.48655 6.55249 0
M  V30 2299 N 215.803 -1.52179 -0.40978 0
M  V30 2300 C 216.735 -1.71703 -1.51825 0
M  V30 2301 C 217.748 -0.597445 -1.51441 0
M  V30 2302 O 218.937 -0.872582 -1.55719 0
M  V30 2303 C 216.037 -1.74171 -2.90719 0
M  V30 2304 C 215.21 -3.03156 -3.15302 0
M  V30 2305 C 214.269 -2.97445 -4.34065 0
M  V30 2306 O 213.295 -3.71352 -4.31377 0
M  V30 2307 N 214.497 -2.15191 -5.39141 0
M  V30 2308 H 217.262 -2.67334 -1.35472 0
M  V30 2309 H 214.823 -1.50409 -0.599069 0
M  V30 2310 H 216.815 -1.67884 -3.68235 0
M  V30 2311 H 215.385 -0.860166 -3.00533 0
M  V30 2312 H 214.605 -3.23097 -2.25836 0
M  V30 2313 H 215.893 -3.88484 -3.28569 0
M  V30 2314 H 215.291 -1.54573 -5.44173 0
M  V30 2315 H 213.848 -2.1476 -6.15403 0
M  V30 2316 N 217.281 0.66697 -1.42791 0
M  V30 2317 C 218.506 1.46004 -1.47301 0
M  V30 2318 C 218.931 1.87894 -0.0880317 0
M  V30 2319 O 218.289 1.56502 0.915253 0
M  V30 2320 C 218.337 2.68031 -2.41229 0
M  V30 2321 O 217.441 3.6659 -1.88906 0
M  V30 2322 H 216.782 0.43832 -0.49877 0
M  V30 2323 H 219.312 0.817391 -1.87563 0
M  V30 2324 H 219.322 3.1601 -2.58073 0
M  V30 2325 H 217.997 2.36883 -3.41847 0
M  V30 2326 H 216.574 3.25661 -1.81656 0
M  V30 2327 N 218.759 1.29093 0.90403 0
M  V30 2328 C 219.984 1.19809 1.69294 0
M  V30 2329 C 220.409 -0.238481 1.86582 0
M  V30 2330 O 219.767 -1.1723 1.383 0
M  V30 2331 C 219.815 1.91202 3.05736 0
M  V30 2332 O 218.919 1.22611 3.93752 0
M  V30 2333 H 218.26 0.415385 0.518027 0
M  V30 2334 H 220.79 1.70586 1.12967 0
M  V30 2335 H 220.8 1.99487 3.55906 0
M  V30 2336 H 219.475 2.95692 2.92471 0
M  V30 2337 H 218.052 1.22554 3.52186 0
M  V30 2338 N 220.237 -1.11381 1.11499 0
M  V30 2339 C 221.483 -1.83403 0.865512 0
M  V30 2340 C 221.816 -1.84459 -0.607329 0
M  V30 2341 O 221.091 -1.29811 -1.44842 0
M  V30 2342 C 221.374 -3.30552 1.42855 0
M  V30 2343 C 221.227 -3.37886 2.96906 0
M  V30 2344 C 222.546 -4.26643 1.08 0
M  V30 2345 H 219.665 -0.665879 0.31587 0
M  V30 2346 H 222.307 -1.30601 1.37998 0
M  V30 2347 H 220.457 -3.75648 0.990985 0
M  V30 2348 H 222.129 -3.01343 3.49271 0
M  V30 2349 H 220.372 -2.78088 3.32941 0
M  V30 2350 H 221.043 -4.41458 3.31389 0
M  V30 2351 H 223.519 -3.89729 1.45775 0
M  V30 2352 H 222.395 -5.27986 1.50072 0
M  V30 2353 H 222.656 -4.42099 -0.00915037 0
M  V30 2354 N 221.715 -0.905404 -1.28997 0
M  V30 2355 C 222.961 -0.544465 -1.95977 0
M  V30 2356 C 223.316 0.90041 -1.70031 0
M  V30 2357 O 222.609 1.63064 -1.00601 0
M  V30 2358 C 222.803 -0.779906 -3.48787 0
M  V30 2359 C 222.632 -2.24612 -3.89589 0
M  V30 2360 C 221.402 -2.89464 -4.14172 0
M  V30 2361 C 223.6 -3.22182 -4.00878 0
M  V30 2362 N 221.582 -4.26469 -4.41585 0
M  V30 2363 C 222.953 -4.44323 -4.32409 0
M  V30 2364 C 225.008 -3.17694 -3.83373 0
M  V30 2365 C 223.711 -5.62546 -4.48258 0
M  V30 2366 C 225.737 -4.35208 -4.00435 0
M  V30 2367 C 225.099 -5.56121 -4.3233 0
M  V30 2368 H 221.198 -0.248948 -0.741316 0
M  V30 2369 H 223.782 -1.1674 -1.5582 0
M  V30 2370 H 221.953 -0.186308 -3.87953 0
M  V30 2371 H 223.685 -0.383833 -4.02876 0
M  V30 2372 H 220.44 -2.40232 -4.08149 0
M  V30 2373 H 220.864 -4.97283 -4.5939 0
M  V30 2374 H 225.506 -2.25297 -3.57773 0
M  V30 2375 H 223.224 -6.55429 -4.72692 0
M  V30 2376 H 226.81 -4.33228 -3.88336 0
M  V30 2377 H 225.69 -6.45537 -4.45255 0
M  V30 2378 N 223.193 1.4272 -0.668489 0
M  V30 2379 C 224.44 2.01624 -0.18814 0
M  V30 2380 C 224.768 1.5282 1.20317 0
M  V30 2381 O 224.023 0.718323 1.8204 0
M  V30 2382 C 224.322 3.57021 -0.164499 0
M  V30 2383 C 223.988 4.25232 -1.49962 0
M  V30 2384 C 222.65 4.4358 -1.8652 0
M  V30 2385 C 225.002 4.63727 -2.37921 0
M  V30 2386 C 222.33 4.97694 -3.10674 0
M  V30 2387 C 224.682 5.19218 -3.6138 0
M  V30 2388 C 223.346 5.3578 -3.98115 0
M  V30 2389 H 222.616 0.737795 -0.0688454 0
M  V30 2390 H 225.263 1.70991 -0.862225 0
M  V30 2391 H 223.568 3.87285 0.593079 0
M  V30 2392 H 225.265 4.00372 0.224271 0
M  V30 2393 H 221.855 4.11306 -1.20522 0
M  V30 2394 H 226.039 4.4923 -2.10964 0
M  V30 2395 H 221.295 5.08702 -3.39164 0
M  V30 2396 H 225.469 5.4799 -4.29743 0
M  V30 2397 H 223.096 5.77475 -4.94395 0
M  V30 2398 N 224.671 0.411399 1.52136 0
M  V30 2399 C 225.581 -0.419774 2.30814 0
M  V30 2400 C 226.597 -1.0515 1.38634 0
M  V30 2401 O 227.773 -1.05252 1.71709 0
M  V30 2402 C 224.838 -1.52019 3.11594 0
M  V30 2403 C 223.899 -0.91129 4.19516 0
M  V30 2404 C 223.132 -1.95927 4.96436 0
M  V30 2405 O 223.355 -3.17775 4.73683 0
M  V30 2406 O 222.289 -1.56423 5.81219 0
M  V30 2407 H 226.115 0.221805 3.02889 0
M  V30 2408 H 223.7 0.174547 1.48377 0
M  V30 2409 H 225.582 -2.15898 3.61892 0
M  V30 2410 H 224.257 -2.14633 2.42311 0
M  V30 2411 H 223.164 -0.235157 3.7336 0
M  V30 2412 H 224.497 -0.32904 4.91099 0
M  V30 2413 N 226.149 -1.5696 0.141893 0
M  V30 2414 C 227.082 -2.12271 -0.837627 0
M  V30 2415 C 228.06 -1.04495 -1.24578 0
M  V30 2416 O 229.244 -1.32293 -1.34278 0
M  V30 2417 C 226.371 -2.63822 -2.12404 0
M  V30 2418 C 225.417 -3.83698 -1.86221 0
M  V30 2419 S 226.25 -5.24948 -1.05781 0
M  V30 2420 C 227.406 -5.79884 -2.35552 0
M  V30 2421 H 227.639 -2.95023 -0.367249 0
M  V30 2422 H 225.172 -1.54231 -0.0723014 0
M  V30 2423 H 227.13 -2.94175 -2.86307 0
M  V30 2424 H 225.791 -1.8121 -2.56557 0
M  V30 2425 H 224.984 -4.17995 -2.81596 0
M  V30 2426 H 224.586 -3.5408 -1.20429 0
M  V30 2427 H 226.878 -5.91005 -3.31239 0
M  V30 2428 H 227.821 -6.77544 -2.05767 0
M  V30 2429 H 228.229 -5.08095 -2.45967 0
M  V30 2430 N 227.627 0.131896 -1.57047 0
M  V30 2431 C 228.56 1.19236 -1.94571 0
M  V30 2432 C 229.538 1.40782 -0.813576 0
M  V30 2433 O 230.722 1.55148 -1.07058 0
M  V30 2434 C 227.849 2.54858 -2.23081 0
M  V30 2435 C 226.895 2.49817 -3.45679 0
M  V30 2436 S 227.728 1.95036 -4.98719 0
M  V30 2437 C 228.884 3.32357 -5.30367 0
M  V30 2438 H 229.117 0.872297 -2.84215 0
M  V30 2439 H 226.65 0.338134 -1.50652 0
M  V30 2440 H 228.608 3.32898 -2.40185 0
M  V30 2441 H 227.269 2.84047 -1.34074 0
M  V30 2442 H 226.462 3.49688 -3.62952 0
M  V30 2443 H 226.064 1.79892 -3.27895 0
M  V30 2444 H 228.356 4.28525 -5.2476 0
M  V30 2445 H 229.299 3.19923 -6.31708 0
M  V30 2446 H 229.707 3.3019 -4.57859 0
M  V30 2447 N 229.106 1.52395 0.401703 0
M  V30 2448 C 230.522 1.41363 0.740864 0
M  V30 2449 C 230.722 0.523982 1.94568 0
M  V30 2450 O 229.778 -0.00741204 2.52499 0
M  V30 2451 C 231.091 2.84011 0.987847 0
M  V30 2452 C 232.639 2.93404 1.09011 0
M  V30 2453 C 233.114 4.37036 1.3698 0
M  V30 2454 N 234.605 4.40304 1.43829 0
M  V30 2455 C 235.34 5.48508 1.67112 0
M  V30 2456 N 234.836 6.66819 1.87949 0
M  V30 2457 N 236.629 5.36034 1.69187 0
M  V30 2458 H 228.78 2.08765 -0.391262 0
M  V30 2459 H 231.043 0.941265 -0.112798 0
M  V30 2460 H 230.749 3.51265 0.174835 0
M  V30 2461 H 230.623 3.25502 1.906 0
M  V30 2462 H 233.01 2.26325 1.8937 0
M  V30 2463 H 233.091 2.55359 0.15015 0
M  V30 2464 H 232.735 5.04676 0.571353 0
M  V30 2465 H 232.665 4.72623 2.3224 0
M  V30 2466 H 235.156 3.55024 1.29486 0
M  V30 2467 H 235.469 7.45063 2.05185 0
M  V30 2468 H 233.814 6.6987 1.85199 0
M  V30 2469 H 237.005 4.42579 1.52451 0
M  V30 2470 H 237.178 6.20434 1.86993 0
M  V30 2471 N 230.584 -0.659388 1.43143 0
M  V30 2472 C 231.83 -1.42145 1.44647 0
M  V30 2473 C 232.163 -1.9408 0.0681907 0
M  V30 2474 O 231.438 -1.71899 -0.910007 0
M  V30 2475 C 231.721 -2.60735 2.48373 0
M  V30 2476 C 231.574 -2.14332 3.95451 0
M  V30 2477 C 232.893 -3.62951 2.48906 0
M  V30 2478 H 230.012 -0.51552 0.526696 0
M  V30 2479 H 232.654 -0.748069 1.74654 0
M  V30 2480 H 230.804 -3.18184 2.22916 0
M  V30 2481 H 232.476 -1.61932 4.31944 0
M  V30 2482 H 230.719 -1.4576 4.08578 0
M  V30 2483 H 231.39 -2.99583 4.63631 0
M  V30 2484 H 233.866 -3.1525 2.71582 0
M  V30 2485 H 232.742 -4.43487 3.23435 0
M  V30 2486 H 233.003 -4.15126 1.52061 0
M  V30 2487 N 232.062 -1.29571 -0.897171 0
M  V30 2488 C 233.292 -1.20408 -1.67886 0
M  V30 2489 C 233.7 0.237429 -1.87704 0
M  V30 2490 O 233.043 1.17048 -1.41582 0
M  V30 2491 C 233.105 -1.84887 -3.08314 0
M  V30 2492 C 232.769 -3.34189 -3.11716 0
M  V30 2493 C 233.766 -4.30374 -2.91675 0
M  V30 2494 C 231.451 -3.75431 -3.33701 0
M  V30 2495 C 233.445 -5.65776 -2.93557 0
M  V30 2496 C 231.132 -5.10955 -3.35214 0
M  V30 2497 C 232.13 -6.05938 -3.15164 0
M  V30 2498 O 231.818 -7.38987 -3.1647 0
M  V30 2499 H 231.55 -0.418289 -0.531046 0
M  V30 2500 H 234.104 -1.71514 -1.13014 0
M  V30 2501 H 232.334 -1.28295 -3.64798 0
M  V30 2502 H 234.023 -1.70011 -3.6858 0
M  V30 2503 H 234.789 -3.99844 -2.74499 0
M  V30 2504 H 230.668 -3.01953 -3.48347 0
M  V30 2505 H 234.212 -6.39889 -2.77826 0
M  V30 2506 H 230.109 -5.4113 -3.51922 0
M  V30 2507 H 230.877 -7.47823 -3.3272 0
M  V30 2508 N 233.54 1.10788 -1.12088 0
M  V30 2509 C 234.765 1.87002 -0.896949 0
M  V30 2510 C 235.19 1.79933 0.548261 0
M  V30 2511 O 234.548 1.16662 1.38779 0
M  V30 2512 C 234.596 3.3349 -1.37174 0
M  V30 2513 O 233.7 4.08745 -0.547831 0
M  V30 2514 H 233.041 0.580397 -0.322545 0
M  V30 2515 H 235.571 1.39996 -1.49206 0
M  V30 2516 H 235.581 3.84339 -1.36922 0
M  V30 2517 H 234.256 3.37951 -2.42408 0
M  V30 2518 H 232.833 3.6776 -0.617034 0
M  V30 2519 N 235.018 0.912232 1.28515 0
M  V30 2520 C 236.264 0.554851 1.95686 0
M  V30 2521 C 236.619 -0.89138 1.70506 0
M  V30 2522 O 235.912 -1.62529 1.01464 0
M  V30 2523 C 236.106 0.798392 3.48368 0
M  V30 2524 C 235.935 2.26674 3.88393 0
M  V30 2525 C 234.705 2.91657 4.12631 0
M  V30 2526 C 236.903 3.24303 3.99164 0
M  V30 2527 N 234.885 4.28805 4.39317 0
M  V30 2528 C 236.256 4.4661 4.30046 0
M  V30 2529 C 238.311 3.19723 3.81683 0
M  V30 2530 C 237.014 5.64915 4.45268 0
M  V30 2531 C 239.04 4.37325 3.98121 0
M  V30 2532 C 238.402 5.58406 4.29375 0
M  V30 2533 H 234.501 0.252876 0.739985 0
M  V30 2534 H 237.085 1.17565 1.55199 0
M  V30 2535 H 235.256 0.20688 3.87849 0
M  V30 2536 H 236.988 0.405193 4.02666 0
M  V30 2537 H 233.743 2.42393 4.06869 0
M  V30 2538 H 234.167 4.99712 4.56746 0
M  V30 2539 H 238.809 2.27191 3.56573 0
M  V30 2540 H 236.527 6.57927 4.6921 0
M  V30 2541 H 240.113 4.35282 3.86033 0
M  V30 2542 H 238.993 6.47889 4.41825 0
M  V30 2543 N 236.496 -1.42363 0.676048 0
M  V30 2544 C 237.444 -2.32596 -0.0131507 0
M  V30 2545 C 238.438 -1.49891 -0.789238 0
M  V30 2546 O 239.644 -1.65955 -0.697061 0
M  V30 2547 H 236.019 -0.751647 -0.0230481 0
M  V30 2548 H 237.99 -2.88421 0.765243 0
M  V30 2549 C 236.739 -3.34479 -0.949702 0
M  V30 2550 H 236.062 -3.98158 -0.361938 0
M  V30 2551 H 237.502 -4.00199 -1.4006 0
M  V30 2552 C 235.961 -2.66838 -2.05667 0
M  V30 2553 O 236.491 -2.50124 -3.14326 0
M  V30 2554 N 234.697 -2.25843 -1.82875 0
M  V30 2555 H 234.244 -2.39637 -0.945085 0
M  V30 2556 H 234.202 -1.80918 -2.5713 0
M  V30 2557 N 237.974 -0.419461 -1.51915 0
M  V30 2558 C 238.924 0.418496 -2.24126 0
M  V30 2559 C 239.908 1.00495 -1.25656 0
M  V30 2560 O 241.1 0.926058 -1.50842 0
M  V30 2561 C 238.229 1.52899 -3.07371 0
M  V30 2562 C 237.315 0.952797 -4.13258 0
M  V30 2563 N 237.706 0.104175 -5.05693 0
M  V30 2564 C 236.004 1.22224 -4.28926 0
M  V30 2565 C 236.705 -0.21752 -5.81293 0
M  V30 2566 N 235.681 0.394293 -5.42168 0
M  V30 2567 H 239.483 -0.236048 -2.92951 0
M  V30 2568 H 236.997 -0.230481 -1.60756 0
M  V30 2569 H 238.994 2.14199 -3.57665 0
M  V30 2570 H 237.654 2.18605 -2.40088 0
M  V30 2571 H 238.665 -0.260924 -5.17242 0
M  V30 2572 H 235.342 1.87812 -3.72871 0
M  V30 2573 H 236.732 -0.906992 -6.6575 0
M  V30 2574 N 239.452 1.56882 -0.150215 0
M  V30 2575 C 240.701 1.95403 0.500071 0
M  V30 2576 C 241.014 1.03777 1.658 0
M  V30 2577 O 242.22 1.31889 2.37313 0
M  V30 2578 C 240.676 3.4738 0.941018 0
M  V30 2579 C 240.284 4.47596 -0.190158 0
M  V30 2580 C 242.028 3.9476 1.56091 0
M  V30 2581 C 239.935 5.90787 0.269237 0
M  V30 2582 H 238.865 0.729515 0.190588 0
M  V30 2583 H 241.516 1.81988 -0.235074 0
M  V30 2584 H 239.898 3.56138 1.73152 0
M  V30 2585 H 241.072 4.50536 -0.967157 0
M  V30 2586 H 239.387 4.10151 -0.718666 0
M  V30 2587 H 241.984 4.99181 1.9163 0
M  V30 2588 H 242.327 3.36494 2.45107 0
M  V30 2589 H 242.86 3.88932 0.835249 0
M  V30 2590 H 239.599 6.52879 -0.585621 0
M  V30 2591 H 239.119 5.912 1.01204 0
M  V30 2592 H 240.798 6.42979 0.720176 0
M  V30 2593 N 240.93 -0.123565 1.57115 0
M  V30 2594 C 242.179 -0.830704 1.83799 0
M  V30 2595 C 242.492 -1.81259 0.735158 0
M  V30 2596 O 243.698 -2.56558 0.888278 0
M  V30 2597 C 242.154 -1.52802 3.25852 0
M  V30 2598 C 241.762 -0.587356 4.44133 0
M  V30 2599 C 243.506 -2.22056 3.61789 0
M  V30 2600 C 241.413 -1.28764 5.77212 0
M  V30 2601 H 240.343 -0.313967 0.685522 0
M  V30 2602 H 242.994 -0.0834359 1.8331 0
M  V30 2603 H 241.376 -2.32175 3.20797 0
M  V30 2604 H 242.55 0.172829 4.60476 0
M  V30 2605 H 240.865 -0.00201892 4.164 0
M  V30 2606 H 243.462 -2.75131 4.58483 0
M  V30 2607 H 243.805 -2.99644 2.88997 0
M  V30 2608 H 244.338 -1.49576 3.68608 0
M  V30 2609 H 241.077 -0.55314 6.53162 0
M  V30 2610 H 240.597 -2.01995 5.64764 0
M  V30 2611 H 242.276 -1.8221 6.20813 0
M  V30 2612 N 242.408 -1.52605 -0.393616 0
M  V30 2613 C 243.338 -1.80022 -1.48709 0
M  V30 2614 C 244.319 -0.651995 -1.57108 0
M  V30 2615 O 245.504 -0.89913 -1.72132 0
M  V30 2616 C 242.634 -1.96492 -2.86371 0
M  V30 2617 C 241.588 -3.12161 -2.92813 0
M  V30 2618 C 240.914 -3.13877 -4.3288 0
M  V30 2619 C 242.214 -4.51322 -2.6288 0
M  V30 2620 H 243.908 -2.71589 -1.26015 0
M  V30 2621 H 241.454 -1.30684 -0.604778 0
M  V30 2622 H 243.407 -2.14255 -3.62867 0
M  V30 2623 H 242.131 -1.01611 -3.10391 0
M  V30 2624 H 240.79 -2.94173 -2.18764 0
M  V30 2625 H 240.438 -2.16687 -4.53933 0
M  V30 2626 H 240.138 -3.91576 -4.38112 0
M  V30 2627 H 241.662 -3.33789 -5.1129 0
M  V30 2628 H 243.076 -4.69435 -3.29096 0
M  V30 2629 H 241.473 -5.31053 -2.79468 0
M  V30 2630 H 242.543 -4.58353 -1.58242 0
M  V30 2631 N 243.887 0.651787 -1.4349 0
M  V30 2632 C 244.817 1.77621 -1.51569 0
M  V30 2633 C 245.798 1.66022 -0.370253 0
M  V30 2634 O 246.983 1.85095 -0.587658 0
M  V30 2635 C 244.113 3.16056 -1.43966 0
M  V30 2636 C 243.067 3.4242 -2.56774 0
M  V30 2637 C 242.393 4.8067 -2.34223 0
M  V30 2638 C 243.693 3.37023 -3.99015 0
M  V30 2639 H 245.387 1.71117 -2.45681 0
M  V30 2640 H 242.933 0.821825 -1.18246 0
M  V30 2641 H 244.886 3.94472 -1.48221 0
M  V30 2642 H 243.61 3.23293 -0.463586 0
M  V30 2643 H 242.269 2.66375 -2.51873 0
M  V30 2644 H 241.917 4.84585 -1.34856 0
M  V30 2645 H 241.617 4.9927 -3.09844 0
M  V30 2646 H 243.141 5.61342 -2.40265 0
M  V30 2647 H 244.555 4.05374 -4.05395 0
M  V30 2648 H 242.952 3.67159 -4.74673 0
M  V30 2649 H 244.022 2.3518 -4.2405 0
M  V30 2650 N 245.365 1.30045 0.890287 0
M  V30 2651 C 246.611 1.18737 1.64406 0
M  V30 2652 C 246.944 -0.258525 1.92472 0
M  V30 2653 O 246.219 -1.18562 1.54186 0
M  V30 2654 C 246.502 2.01087 2.98724 0
M  V30 2655 C 246.355 3.53867 2.77665 0
M  V30 2656 C 247.674 1.84457 3.9958 0
M  V30 2657 H 244.793 0.432698 0.596608 0
M  V30 2658 H 247.435 1.5962 1.0306 0
M  V30 2659 H 245.585 1.66349 3.51084 0
M  V30 2660 H 247.257 3.98637 2.32133 0
M  V30 2661 H 245.5 3.78318 2.12269 0
M  V30 2662 H 246.171 4.06772 3.7315 0
M  V30 2663 H 248.647 2.14817 3.56361 0
M  V30 2664 H 247.523 2.44411 4.91482 0
M  V30 2665 H 247.784 0.802276 4.3476 0
M  V30 2666 N 246.843 -1.10192 1.12674 0
M  V30 2667 C 248.068 -1.86523 0.906853 0
M  V30 2668 C 248.493 -1.80221 -0.538711 0
M  V30 2669 O 247.851 -1.17396 -1.38158 0
M  V30 2670 C 247.899 -3.32758 1.3894 0
M  V30 2671 O 247.003 -4.08449 0.5695 0
M  V30 2672 H 246.344 -0.578678 0.325619 0
M  V30 2673 H 248.874 -1.39203 1.49946 0
M  V30 2674 H 248.884 -3.83608 1.38958 0
M  V30 2675 H 247.559 -3.36661 2.44197 0
M  V30 2676 H 246.136 -3.67427 0.636528 0
M  V30 2677 N 248.321 -0.919034 -1.28029 0
M  V30 2678 C 249.598 -0.473668 -1.89778 0
M  V30 2679 C 249.978 1.04783 -1.83259 0
M  V30 2680 O 249.326 1.8982 -1.27202 0
M  V30 2681 C 249.536 -1.00998 -3.34066 0
M  V30 2682 C 250.884 -1.06525 -4.1102 0
M  V30 2683 O 251.908 -0.958996 -3.43048 0
M  V30 2684 O 250.767 -1.22776 -5.3253 0
M  V30 2685 H 247.861 -0.15098 -0.813101 0
M  V30 2686 H 250.407 -1.01016 -1.36359 0
M  V30 2687 H 249.179 -2.05392 -3.33061 0
M  V30 2688 H 248.802 -0.454626 -3.94992 0
M  V30 2689 N 249.799 1.42003 -0.683588 0
M  V30 2690 C 251.076 1.95112 -0.138075 0
M  V30 2691 C 251.456 1.62359 1.34918 0
M  V30 2692 O 250.804 0.924311 2.08971 0
M  V30 2693 C 251.014 3.46505 -0.416581 0
M  V30 2694 C 252.362 4.23254 -0.337834 0
M  V30 2695 O 253.386 3.54468 -0.35082 0
M  V30 2696 O 252.245 5.45743 -0.287596 0
M  V30 2697 H 249.339 0.826961 -0.00797996 0
M  V30 2698 H 251.885 1.51784 -0.758924 0
M  V30 2699 H 250.657 3.63582 -1.4465 0
M  V30 2700 H 250.28 3.969 0.235839 0
M  V30 2701 N 251.277 0.427512 1.51691 0
M  V30 2702 C 252.227 -0.406604 2.24345 0
M  V30 2703 C 253.211 -0.998276 1.26187 0
M  V30 2704 O 254.403 -0.918045 1.51331 0
M  V30 2705 C 251.532 -1.51266 3.08177 0
M  V30 2706 C 250.618 -0.930868 4.13758 0
M  V30 2707 N 251.009 -0.0773552 5.05741 0
M  V30 2708 C 249.307 -1.19948 4.29568 0
M  V30 2709 C 250.008 0.248344 5.8117 0
M  V30 2710 N 248.984 -0.365535 5.4237 0
M  V30 2711 H 252.786 0.251581 2.92821 0
M  V30 2712 H 250.3 0.239003 1.60632 0
M  V30 2713 H 252.297 -2.123 3.58796 0
M  V30 2714 H 250.957 -2.17328 2.41244 0
M  V30 2715 H 251.968 0.288351 5.17097 0
M  V30 2716 H 248.645 -1.85832 3.73862 0
M  V30 2717 H 250.035 0.942286 6.6526 0
M  V30 2718 N 252.755 -1.56801 0.158532 0
M  V30 2719 C 253.665 -2.20916 -0.789518 0
M  V30 2720 C 254.681 -1.1969 -1.26294 0
M  V30 2721 O 255.857 -1.52308 -1.31773 0
M  V30 2722 C 252.922 -2.82727 -2.00665 0
M  V30 2723 C 251.983 -3.99114 -1.58134 0
M  V30 2724 C 251.216 -4.57968 -2.74045 0
M  V30 2725 O 251.439 -4.15704 -3.90572 0
M  V30 2726 O 250.373 -5.48047 -2.48855 0
M  V30 2727 H 254.199 -3.02464 -0.273681 0
M  V30 2728 H 251.784 -1.4924 -0.0690548 0
M  V30 2729 H 253.666 -3.21968 -2.71872 0
M  V30 2730 H 252.341 -2.04184 -2.51179 0
M  V30 2731 H 251.248 -3.64567 -0.839155 0
M  V30 2732 H 252.581 -4.79212 -1.12325 0
M  V30 2733 N 254.233 0.115231 -1.57178 0
M  V30 2734 C 255.481 0.820727 -1.84685 0
M  V30 2735 C 255.802 1.80237 -0.744279 0
M  V30 2736 O 255.072 1.94529 0.231375 0
M  V30 2737 H 253.652 0.306084 -0.681411 0
M  V30 2738 H 256.314 0.101656 -1.94635 0
M  V30 2739 H 255.41 1.36366 -2.80733 0
M  V30 2740 N 255.711 1.52812 0.385517 0
M  V30 2741 C 257.127 1.4214 0.725829 0
M  V30 2742 C 257.327 0.544589 1.94001 0
M  V30 2743 O 256.383 0.0193693 2.52493 0
M  V30 2744 C 257.696 2.85042 0.957668 0
M  V30 2745 C 259.244 2.94543 1.05892 0
M  V30 2746 C 259.719 4.38464 1.32337 0
M  V30 2747 N 261.21 4.41804 1.39151 0
M  V30 2748 C 261.945 5.5025 1.61285 0
M  V30 2749 N 261.441 6.68775 1.80866 0
M  V30 2750 N 263.234 5.37798 1.63492 0
M  V30 2751 H 255.385 2.08338 -0.413383 0
M  V30 2752 H 257.648 0.940016 -0.122775 0
M  V30 2753 H 257.354 3.51431 0.137568 0
M  V30 2754 H 257.228 3.27505 1.87137 0
M  V30 2755 H 259.615 2.28321 1.86959 0
M  V30 2756 H 259.696 2.55504 0.123057 0
M  V30 2757 H 259.34 5.05254 0.517793 0
M  V30 2758 H 259.27 4.75059 2.27214 0
M  V30 2759 H 261.761 3.56377 1.25713 0
M  V30 2760 H 262.074 7.47197 1.97271 0
M  V30 2761 H 260.419 6.71797 1.78083 0
M  V30 2762 H 263.61 4.44171 1.47749 0
M  V30 2763 H 263.783 6.22382 1.80402 0
M  V30 2764 N 257.189 -0.644168 1.43834 0
M  V30 2765 C 258.152 -1.73857 1.49353 0
M  V30 2766 C 259.152 -1.56315 0.377112 0
M  V30 2767 O 260.342 -1.62048 0.639226 0
M  V30 2768 C 257.474 -3.12819 1.35488 0
M  V30 2769 H 258.667 -1.70342 2.46827 0
M  V30 2770 H 256.22 -0.856652 1.30733 0
M  V30 2771 H 256.955 -3.2194 0.390569 0
M  V30 2772 H 256.74 -3.26958 2.16428 0
M  V30 2773 H 258.23 -3.92606 1.42302 0
M  V30 2774 N 258.668 -1.30515 -0.883378 0
M  V30 2775 C 259.631 -1.1701 -1.97082 0
M  V30 2776 C 260.631 -0.10089 -1.60483 0
M  V30 2777 O 261.821 -0.349127 -1.70666 0
M  V30 2778 C 258.953 -0.793045 -3.31547 0
M  V30 2779 H 260.146 -2.13622 -2.10489 0
M  V30 2780 H 257.699 -1.13935 -1.06998 0
M  V30 2781 H 258.434 0.172499 -3.23841 0
M  V30 2782 H 258.219 -1.56576 -3.5948 0
M  V30 2783 H 259.709 -0.722073 -4.1131 0
M  V30 2784 N 260.146 1.09593 -1.13257 0
M  V30 2785 C 261.078 2.16015 -0.766167 0
M  V30 2786 C 262.091 1.61423 0.211303 0
M  V30 2787 O 263.28 1.78498 -0.00863946 0
M  V30 2788 C 260.38 3.38706 -0.114662 0
M  V30 2789 C 259.553 4.22717 -1.12379 0
M  V30 2790 C 258.612 5.23835 -0.498301 0
M  V30 2791 O 257.638 5.573 -1.15781 0
M  V30 2792 N 258.84 5.75886 0.730417 0
M  V30 2793 H 261.605 2.48055 -1.68193 0
M  V30 2794 H 259.166 1.25292 -1.02535 0
M  V30 2795 H 261.158 4.03464 0.315991 0
M  V30 2796 H 259.728 3.04569 0.704011 0
M  V30 2797 H 258.948 3.54122 -1.73179 0
M  V30 2798 H 260.236 4.75673 -1.80589 0
M  V30 2799 H 259.634 5.50911 1.28504 0
M  V30 2800 H 258.191 6.42387 1.10376 0
M  V30 2801 N 261.624 0.925811 1.2754 0
M  V30 2802 C 262.571 0.422045 2.26908 0
M  V30 2803 C 263.541 -0.510029 1.58076 0
M  V30 2804 O 264.726 -0.429599 1.85901 0
M  V30 2805 C 261.866 -0.320837 3.43605 0
M  V30 2806 C 260.979 0.64513 4.27156 0
M  V30 2807 C 260.114 -0.117405 5.3107 0
M  V30 2808 C 259.153 0.841391 6.0629 0
M  V30 2809 N 258.29 0.111604 7.02011 0
M  V30 2810 H 263.13 1.27441 2.69375 0
M  V30 2811 H 260.667 0.639697 1.32462 0
M  V30 2812 H 262.625 -0.76785 4.10073 0
M  V30 2813 H 261.255 -1.13745 3.02096 0
M  V30 2814 H 260.307 1.21067 3.6062 0
M  V30 2815 H 261.619 1.37797 4.79389 0
M  V30 2816 H 260.773 -0.624422 6.03478 0
M  V30 2817 H 259.512 -0.883219 4.79636 0
M  V30 2818 H 258.517 1.35967 5.32722 0
M  V30 2819 H 259.742 1.60696 6.59813 0
M  V30 2820 H 257.688 -0.635999 6.5291 0
M  V30 2821 H 257.605 0.784044 7.51923 0
M  V30 2822 H 258.873 -0.374823 7.78598 0
M  V30 2823 N 263.102 -1.41638 0.69111 0
M  V30 2824 C 264.518 -1.55435 0.362224 0
M  V30 2825 C 264.718 -1.66754 -1.13117 0
M  V30 2826 O 263.774 -1.64348 -1.91692 0
M  V30 2827 C 265.087 -2.79588 1.10684 0
M  V30 2828 C 266.635 -2.9338 1.09075 0
M  V30 2829 C 267.11 -4.20414 1.81703 0
M  V30 2830 N 268.601 -4.27362 1.7865 0
M  V30 2831 C 269.336 -5.24507 2.31689 0
M  V30 2832 N 268.832 -6.27708 2.93179 0
M  V30 2833 N 270.625 -5.16416 2.2197 0
M  V30 2834 H 262.776 -1.32536 1.65976 0
M  V30 2835 H 265.039 -0.639115 0.700168 0
M  V30 2836 H 264.745 -2.77419 2.16175 0
M  V30 2837 H 264.619 -3.70973 0.682545 0
M  V30 2838 H 267.006 -2.95067 0.0441238 0
M  V30 2839 H 267.087 -2.0318 1.55407 0
M  V30 2840 H 266.731 -4.19488 2.86343 0
M  V30 2841 H 266.661 -5.09578 1.32808 0
M  V30 2842 H 269.152 -3.53415 1.33815 0
M  V30 2843 H 269.465 -6.98217 3.31229 0
M  V30 2844 H 267.81 -6.28223 2.97255 0
M  V30 2845 H 271.001 -4.34716 1.73607 0
M  V30 2846 H 271.174 -5.91958 2.63609 0
M  V30 2847 N 264.58 -0.43555 -1.51462 0
M  V30 2848 C 265.51 0.367376 -2.30592 0
M  V30 2849 C 266.491 1.02263 -1.35928 0
M  V30 2850 O 267.676 1.02661 -1.64847 0
M  V30 2851 C 264.806 1.46983 -3.14664 0
M  V30 2852 C 263.76 0.938161 -4.17591 0
M  V30 2853 C 263.086 2.13622 -4.90173 0
M  V30 2854 C 264.386 -0.0261621 -5.22293 0
M  V30 2855 H 266.08 -0.292969 -2.97963 0
M  V30 2856 H 263.626 -0.14234 -1.43295 0
M  V30 2857 H 265.579 2.03873 -3.688 0
M  V30 2858 H 264.303 2.15843 -2.4511 0
M  V30 2859 H 262.962 0.391481 -3.64504 0
M  V30 2860 H 262.61 2.81098 -4.17124 0
M  V30 2861 H 262.31 1.78688 -5.59772 0
M  V30 2862 H 263.834 2.7107 -5.47132 0
M  V30 2863 H 265.248 0.452384 -5.71512 0
M  V30 2864 H 263.645 -0.287992 -5.99409 0
M  V30 2865 H 264.715 -0.963391 -4.75233 0
M  V30 2866 N 266.058 1.56714 -0.166846 0
M  V30 2867 C 266.968 2.21331 0.777791 0
M  V30 2868 C 267.984 1.20358 1.25658 0
M  V30 2869 O 269.16 1.53005 1.30964 0
M  V30 2870 C 266.225 2.83787 1.99163 0
M  V30 2871 C 265.286 3.99947 1.56016 0
M  V30 2872 C 264.519 4.59415 2.71613 0
M  V30 2873 O 264.742 4.17769 3.88362 0
M  V30 2874 O 263.676 5.49359 2.45945 0
M  V30 2875 H 267.502 3.02605 0.257636 0
M  V30 2876 H 265.087 1.49275 0.0611393 0
M  V30 2877 H 266.969 3.23405 2.70161 0
M  V30 2878 H 265.644 2.05513 2.50092 0
M  V30 2879 H 264.551 3.65007 0.819809 0
M  V30 2880 H 265.884 4.79801 1.09782 0
M  V30 2881 N 267.536 -0.106894 1.57237 0
M  V30 2882 C 268.764 -0.826389 1.8968 0
M  V30 2883 C 269.179 -1.72856 0.759353 0
M  V30 2884 O 268.536 -1.80503 -0.269263 0
M  V30 2885 C 268.587 -1.64967 3.21665 0
M  V30 2886 O 268.308 -0.783804 4.31031 0
M  V30 2887 C 269.809 -2.47326 3.67892 0
M  V30 2888 H 267.029 -0.236927 0.627779 0
M  V30 2889 H 269.573 -0.0876593 2.04312 0
M  V30 2890 H 267.728 -2.34103 3.08666 0
M  V30 2891 H 268.142 -1.35284 5.06753 0
M  V30 2892 H 269.616 -3.00604 4.6297 0
M  V30 2893 H 270.093 -3.25247 2.95146 0
M  V30 2894 H 270.699 -1.83411 3.83719 0
M  V30 2895 N 269.014 -1.53014 -0.377408 0
M  V30 2896 C 269.944 -1.81589 -1.46791 0
M  V30 2897 C 270.925 -0.668622 -1.56408 0
M  V30 2898 O 272.11 -0.917337 -1.71168 0
M  V30 2899 C 269.24 -1.99519 -2.8427 0
M  V30 2900 C 268.194 -3.15249 -2.89486 0
M  V30 2901 C 267.52 -3.18451 -4.29527 0
M  V30 2902 C 268.82 -4.54084 -2.58079 0
M  V30 2903 H 270.514 -2.7291 -1.23127 0
M  V30 2904 H 268.06 -1.31319 -0.590883 0
M  V30 2905 H 270.013 -2.18092 -3.60575 0
M  V30 2906 H 268.737 -1.04897 -3.09296 0
M  V30 2907 H 267.396 -2.96477 -2.15631 0
M  V30 2908 H 267.044 -2.2149 -4.5161 0
M  V30 2909 H 266.744 -3.962 -4.33934 0
M  V30 2910 H 268.268 -3.39193 -5.07721 0
M  V30 2911 H 269.682 -4.72899 -3.24098 0
M  V30 2912 H 268.079 -5.33987 -2.7382 0
M  V30 2913 H 269.149 -4.60006 -1.53372 0
M  V30 2914 N 270.492 0.636531 -1.44174 0
M  V30 2915 C 271.422 1.76003 -1.53444 0
M  V30 2916 C 272.403 1.65619 -0.387841 0
M  V30 2917 O 273.588 1.84461 -0.607257 0
M  V30 2918 C 270.718 3.14511 -1.4731 0
M  V30 2919 C 269.672 3.39677 -2.60391 0
M  V30 2920 C 268.998 4.78159 -2.39308 0
M  V30 2921 C 270.298 3.32772 -4.02567 0
M  V30 2922 H 271.992 1.68501 -2.47483 0
M  V30 2923 H 269.538 0.809237 -1.19111 0
M  V30 2924 H 271.491 3.92878 -1.52397 0
M  V30 2925 H 270.215 3.22783 -0.49785 0
M  V30 2926 H 268.874 2.63688 -2.54684 0
M  V30 2927 H 268.522 4.83128 -1.39988 0
M  V30 2928 H 268.222 4.95956 -3.15122 0
M  V30 2929 H 269.746 5.58762 -2.46205 0
M  V30 2930 H 271.16 4.01051 -4.09672 0
M  V30 2931 H 269.557 3.62104 -4.7854 0
M  V30 2932 H 270.627 2.30669 -4.2652 0
M  V30 2933 N 271.97 1.30982 0.876444 0
M  V30 2934 C 272.88 1.2003 2.01569 0
M  V30 2935 C 273.896 0.11838 1.73597 0
M  V30 2936 O 275.072 0.33495 1.98595 0
M  V30 2937 C 272.137 0.901637 3.34771 0
M  V30 2938 C 271.198 2.06979 3.76109 0
M  V30 2939 C 270.431 1.78529 5.02954 0
M  V30 2940 O 270.654 0.717296 5.65872 0
M  V30 2941 O 269.588 2.64019 5.40905 0
M  V30 2942 H 273.414 2.15753 2.13739 0
M  V30 2943 H 270.999 1.10658 1.00375 0
M  V30 2944 H 272.881 0.750645 4.1466 0
M  V30 2945 H 271.556 -0.0256141 3.2369 0
M  V30 2946 H 270.463 2.27616 2.96887 0
M  V30 2947 H 271.796 2.97907 3.91807 0
M  V30 2948 N 273.449 -1.08991 1.13837 0
M  V30 2949 C 274.359 -2.19301 0.833333 0
M  V30 2950 C 275.375 -1.73026 -0.183847 0
M  V30 2951 O 276.551 -2.01395 -0.0138092 0
M  V30 2952 C 273.616 -3.45323 0.308651 0
M  V30 2953 C 272.677 -4.06255 1.38764 0
M  V30 2954 C 271.91 -5.26262 0.887896 0
M  V30 2955 O 272.133 -5.69747 -0.27287 0
M  V30 2956 O 271.067 -5.78435 1.66421 0
M  V30 2957 H 274.893 -2.47854 1.75506 0
M  V30 2958 H 272.478 -1.18012 0.916166 0
M  V30 2959 H 274.36 -4.21394 0.0216739 0
M  V30 2960 H 273.035 -3.18362 -0.585431 0
M  V30 2961 H 271.942 -3.318 1.72799 0
M  V30 2962 H 273.275 -4.37452 2.25602 0
M  V30 2963 N 274.927 -0.932562 -1.27047 0
M  V30 2964 C 276.343 -0.633544 -1.46487 0
M  V30 2965 C 276.543 0.815746 -1.84249 0
M  V30 2966 O 275.599 1.59319 -1.95892 0
M  V30 2967 C 276.912 -1.58758 -2.55375 0
M  V30 2968 C 278.46 -1.59634 -2.69232 0
M  V30 2969 C 278.935 -2.53747 -3.81283 0
M  V30 2970 N 280.426 -2.51982 -3.88664 0
M  V30 2971 C 281.161 -3.21491 -4.74796 0
M  V30 2972 N 280.657 -4.00395 -5.65381 0
M  V30 2973 N 282.45 -3.10485 -4.68568 0
M  V30 2974 H 274.601 -1.86946 -1.00821 0
M  V30 2975 H 276.864 -0.802897 -0.504044 0
M  V30 2976 H 276.57 -2.62172 -2.34432 0
M  V30 2977 H 276.444 -1.33301 -3.52861 0
M  V30 2978 H 278.831 -0.569488 -2.89553 0
M  V30 2979 H 278.912 -1.89142 -1.72218 0
M  V30 2980 H 278.556 -3.56545 -3.61715 0
M  V30 2981 H 278.486 -2.21532 -4.77735 0
M  V30 2982 H 280.977 -1.94681 -3.23895 0
M  V30 2983 H 281.29 -4.50406 -6.27976 0
M  V30 2984 H 279.635 -4.04498 -5.65161 0
M  V30 2985 H 282.826 -2.48331 -3.96799 0
M  V30 2986 H 282.999 -3.64925 -5.35475 0
M  V30 2987 N 276.405 1.4127 -0.698611 0
M  V30 2988 C 277.315 2.34573 -0.0357891 0
M  V30 2989 C 278.331 1.56393 0.762701 0
M  V30 2990 O 279.507 1.8886 0.699564 0
M  V30 2991 C 276.572 3.35159 0.887089 0
M  V30 2992 C 275.633 4.29225 0.0804634 0
M  V30 2993 C 274.866 5.25006 0.959387 0
M  V30 2994 O 275.089 5.26314 2.19886 0
M  V30 2995 O 274.023 6.00519 0.407439 0
M  V30 2996 H 277.849 2.92838 -0.804957 0
M  V30 2997 H 275.434 1.42175 -0.458966 0
M  V30 2998 H 277.316 3.9689 1.41621 0
M  V30 2999 H 275.991 2.79333 1.6357 0
M  V30 3000 H 274.898 3.70833 -0.493328 0
M  V30 3001 H 276.231 4.88157 -0.629547 0
M  V30 3002 N 277.883 0.443576 1.51229 0
M  V30 3003 C 279.108 -0.121648 2.07043 0
M  V30 3004 C 279.533 -1.35156 1.30823 0
M  V30 3005 O 278.891 -1.7793 0.347934 0
M  V30 3006 C 278.939 -0.41624 3.5819 0
M  V30 3007 O 278.043 -1.50163 3.8409 0
M  V30 3008 H 277.384 0.000871367 0.663999 0
M  V30 3009 H 279.914 0.626706 1.94765 0
M  V30 3010 H 279.924 -0.664867 4.02546 0
M  V30 3011 H 278.599 0.482653 4.1309 0
M  V30 3012 H 277.176 -1.24248 3.51592 0
M  V30 3013 N 279.361 -1.56624 0.175154 0
M  V30 3014 C 280.308 -2.18149 -0.753634 0
M  V30 3015 C 281.278 -1.12265 -1.22417 0
M  V30 3016 O 282.463 -1.40432 -1.29165 0
M  V30 3017 C 279.603 -2.82933 -1.97592 0
M  V30 3018 C 278.716 -4.03289 -1.5486 0
M  V30 3019 C 277.851 -4.55988 -2.72485 0
M  V30 3020 C 276.89 -5.68746 -2.26262 0
M  V30 3021 N 276.027 -6.15938 -3.36994 0
M  V30 3022 H 280.867 -2.9717 -0.222195 0
M  V30 3023 H 278.404 -1.46774 -0.0979422 0
M  V30 3024 H 280.362 -3.18653 -2.69288 0
M  V30 3025 H 278.992 -2.06509 -2.481 0
M  V30 3026 H 278.044 -3.73364 -0.728246 0
M  V30 3027 H 279.356 -4.849 -1.16933 0
M  V30 3028 H 278.51 -4.9391 -3.52332 0
M  V30 3029 H 277.249 -3.73443 -3.13674 0
M  V30 3030 H 276.254 -5.30372 -1.44863 0
M  V30 3031 H 277.479 -6.53095 -1.86127 0
M  V30 3032 H 275.425 -5.36321 -3.77751 0
M  V30 3033 H 275.342 -6.92548 -3.03172 0
M  V30 3034 H 276.61 -6.58511 -4.17114 0
M  V30 3035 N 280.839 0.0985539 -1.57292 0
M  V30 3036 C 281.802 1.10402 -2.00858 0
M  V30 3037 C 282.802 1.33146 -0.901593 0
M  V30 3038 O 283.992 1.29318 -1.16716 0
M  V30 3039 C 281.124 2.45394 -2.36632 0
M  V30 3040 H 282.317 0.729099 -2.90902 0
M  V30 3041 H 279.87 0.343495 -1.52479 0
M  V30 3042 H 280.605 2.87769 -1.49531 0
M  V30 3043 H 280.39 2.30235 -3.17387 0
M  V30 3044 H 281.88 3.17718 -2.71007 0
M  V30 3045 N 282.317 1.53212 0.369288 0
M  V30 3046 C 283.227 1.82342 1.47609 0
M  V30 3047 C 284.243 0.711532 1.58787 0
M  V30 3048 O 285.419 1.0012 1.74751 0
M  V30 3049 C 282.484 2.00393 2.8292 0
M  V30 3050 C 281.545 3.24297 2.81301 0
M  V30 3051 C 280.778 3.41478 4.10157 0
M  V30 3052 O 281.001 2.63033 5.06132 0
M  V30 3053 O 279.935 4.34817 4.16194 0
M  V30 3054 H 283.761 2.76366 1.25918 0
M  V30 3055 H 281.346 1.38547 0.559034 0
M  V30 3056 H 283.228 2.13859 3.63101 0
M  V30 3057 H 281.903 1.09559 3.04596 0
M  V30 3058 H 280.81 3.16257 1.99831 0
M  V30 3059 H 282.143 4.15041 2.64578 0
M  V30 3060 N 283.795 -0.628877 1.44509 0
M  V30 3061 C 284.742 -1.74074 1.51549 0
M  V30 3062 C 285.712 -1.62084 0.363021 0
M  V30 3063 O 286.897 -1.81975 0.573567 0
M  V30 3064 C 284.037 -3.12328 1.46784 0
M  V30 3065 C 283.15 -3.35277 2.72422 0
M  V30 3066 C 282.285 -4.63515 2.59475 0
M  V30 3067 C 281.324 -4.7965 3.80266 0
M  V30 3068 N 280.461 -5.99168 3.65981 0
M  V30 3069 H 285.301 -1.67392 2.46544 0
M  V30 3070 H 282.838 -0.816527 1.22357 0
M  V30 3071 H 284.796 -3.92286 1.42012 0
M  V30 3072 H 283.426 -3.18018 0.553544 0
M  V30 3073 H 282.478 -2.49242 2.87372 0
M  V30 3074 H 283.79 -3.43078 3.62076 0
M  V30 3075 H 282.944 -5.51638 2.52548 0
M  V30 3076 H 281.683 -4.58076 1.67384 0
M  V30 3077 H 280.688 -3.89957 3.87574 0
M  V30 3078 H 281.913 -4.86902 4.73395 0
M  V30 3079 H 279.859 -5.94814 2.76644 0
M  V30 3080 H 279.776 -6.08035 4.49254 0
M  V30 3081 H 281.044 -6.89846 3.6295 0
M  V30 3082 N 285.273 -1.31445 -0.869486 0
M  V30 3083 C 286.519 -1.21337 -1.62496 0
M  V30 3084 C 286.852 0.227872 -1.92858 0
M  V30 3085 O 286.127 1.16094 -1.56053 0
M  V30 3086 C 286.41 -2.05814 -2.95487 0
M  V30 3087 C 286.263 -3.5824 -2.72 0
M  V30 3088 C 287.582 -1.9079 -3.96594 0
M  V30 3089 H 284.701 -0.442135 -0.589649 0
M  V30 3090 H 287.343 -1.6124 -1.00507 0
M  V30 3091 H 285.493 -1.71913 -3.48394 0
M  V30 3092 H 287.165 -4.0228 -2.25762 0
M  V30 3093 H 285.408 -3.81647 -2.06224 0
M  V30 3094 H 286.079 -4.12657 -3.66631 0
M  V30 3095 H 288.555 -2.20459 -3.52898 0
M  V30 3096 H 287.431 -2.52199 -4.87531 0
M  V30 3097 H 287.692 -0.871341 -4.33428 0
M  V30 3098 N 286.751 1.08385 -1.14413 0
M  V30 3099 C 287.681 2.17321 -0.854044 0
M  V30 3100 C 288.662 1.69024 0.191049 0
M  V30 3101 O 289.847 1.94141 0.0476779 0
M  V30 3102 C 286.977 3.45719 -0.330983 0
M  V30 3103 C 285.931 4.07409 -1.31155 0
M  V30 3104 C 285.257 5.30762 -0.64778 0
M  V30 3105 C 286.557 4.48665 -2.67388 0
M  V30 3106 H 288.251 2.41845 -1.76498 0
M  V30 3107 H 285.797 1.16233 -0.850051 0
M  V30 3108 H 287.75 4.21241 -0.115645 0
M  V30 3109 H 286.474 3.2075 0.615381 0
M  V30 3110 H 285.133 3.33919 -1.51306 0
M  V30 3111 H 284.781 5.02078 0.304398 0
M  V30 3112 H 284.481 5.72992 -1.30207 0
M  V30 3113 H 286.005 6.08998 -0.441972 0
M  V30 3114 H 287.419 5.15364 -2.51143 0
M  V30 3115 H 285.816 5.01814 -3.29093 0
M  V30 3116 H 286.886 3.60543 -3.24248 0
M  V30 3117 N 288.23 0.939286 1.26551 0
M  V30 3118 C 289.162 0.404704 2.25599 0
M  V30 3119 C 290.175 -0.470983 1.55838 0
M  V30 3120 O 291.364 -0.281734 1.76263 0
M  V30 3121 C 288.464 -0.43764 3.36062 0
M  V30 3122 C 287.637 0.421449 4.35365 0
M  V30 3123 C 286.696 -0.36015 5.24966 0
M  V30 3124 O 285.722 0.236167 5.6871 0
M  V30 3125 N 286.924 -1.65715 5.56344 0
M  V30 3126 H 289.689 1.25618 2.72103 0
M  V30 3127 H 287.25 0.807963 1.40298 0
M  V30 3128 H 289.242 -0.967866 3.92956 0
M  V30 3129 H 287.812 -1.18991 2.89067 0
M  V30 3130 H 287.032 1.1329 3.7757 0
M  V30 3131 H 288.32 1.00835 4.98708 0
M  V30 3132 H 287.718 -2.16378 5.22682 0
M  V30 3133 H 286.275 -2.13366 6.15888 0
M  V30 3134 N 289.708 -1.40897 0.706093 0
M  V30 3135 C 290.955 -2.01054 0.241531 0
M  V30 3136 C 291.283 -1.55956 -1.16223 0
M  V30 3137 O 290.538 -0.766336 -1.80072 0
M  V30 3138 C 290.837 -3.5646 0.259099 0
M  V30 3139 C 290.503 -4.21106 1.61184 0
M  V30 3140 C 289.165 -4.38479 1.98216 0
M  V30 3141 C 291.517 -4.57256 2.50132 0
M  V30 3142 C 288.845 -4.89282 3.2376 0
M  V30 3143 C 291.197 -5.09454 3.7502 0
M  V30 3144 C 289.861 -5.25037 4.12181 0
M  V30 3145 H 289.131 -0.73571 0.0883825 0
M  V30 3146 H 291.778 -1.68645 0.907257 0
M  V30 3147 H 290.083 -3.88721 -0.490189 0
M  V30 3148 H 291.78 -4.00826 -0.11804 0
M  V30 3149 H 288.37 -4.07966 1.31384 0
M  V30 3150 H 292.554 -4.43479 2.228 0
M  V30 3151 H 287.81 -4.99531 3.52532 0
M  V30 3152 H 291.984 -5.36404 4.44121 0
M  V30 3153 H 289.611 -5.64164 5.09532 0
M  V30 3154 N 291.186 -0.45159 -1.50991 0
M  V30 3155 C 292.463 0.170707 -1.94854 0
M  V30 3156 C 292.843 1.58788 -1.39103 0
M  V30 3157 O 292.191 2.20913 -0.583921 0
M  V30 3158 C 292.401 0.133929 -3.48743 0
M  V30 3159 C 293.749 0.33248 -4.23296 0
M  V30 3160 O 294.773 0.211403 -3.55572 0
M  V30 3161 O 293.632 0.57486 -5.43468 0
M  V30 3162 H 290.726 0.122264 -0.817912 0
M  V30 3163 H 293.272 -0.510594 -1.61836 0
M  V30 3164 H 292.044 -0.856283 -3.81816 0
M  V30 3165 H 291.667 0.857529 -3.88242 0
M  V30 3166 N 292.664 1.56529 -0.183458 0
M  V30 3167 C 294.075 1.83739 0.331177 0
M  V30 3168 C 294.426 1.10373 1.62211 0
M  V30 3169 O 293.551 0.36071 2.13373 0
M  V30 3170 C 294.146 3.33306 0.607646 0
M  V30 3171 C 292.705 3.60969 1.06668 0
M  V30 3172 C 291.852 2.77086 0.109029 0
M  V30 3173 H 294.803 1.53379 -0.407484 0
M  V30 3174 H 294.824 3.51444 1.45832 0
M  V30 3175 H 294.336 3.86677 -0.332086 0
M  V30 3176 H 292.437 3.13021 2.0211 0
M  V30 3177 H 292.55 4.69231 0.967447 0
M  V30 3178 H 290.914 2.47319 0.608714 0
M  V30 3179 H 291.697 3.33241 -0.82494 0
M  V30 3180 N 294.142 -0.090211 1.57342 0
M  V30 3181 C 295.39 -0.791241 1.85967 0
M  V30 3182 C 295.711 -1.7903 0.772859 0
M  V30 3183 O 294.981 -1.94872 -0.200398 0
M  V30 3184 H 293.561 -0.295205 0.686195 0
M  V30 3185 H 296.223 -0.0706782 1.94772 0
M  V30 3186 H 295.319 -1.31882 2.82867 0
M  V30 3187 N 295.62 -1.53406 -0.361157 0
M  V30 3188 C 296.848 -1.73717 -1.12383 0
M  V30 3189 C 297.263 -0.468161 -1.82904 0
M  V30 3190 O 296.62 0.559198 -1.73722 0
M  V30 3191 C 296.671 -2.90558 -2.15078 0
M  V30 3192 O 296.392 -4.12549 -1.47428 0
M  V30 3193 C 297.893 -3.22777 -3.03858 0
M  V30 3194 H 295.113 -0.580896 -0.335858 0
M  V30 3195 H 297.657 -2.00167 -0.418728 0
M  V30 3196 H 295.812 -2.66489 -2.8118 0
M  V30 3197 H 296.226 -4.78009 -2.15887 0
M  V30 3198 H 297.7 -4.07927 -3.71887 0
M  V30 3199 H 298.177 -2.38329 -3.68912 0
M  V30 3200 H 298.783 -3.48787 -2.43367 0
M  V30 3201 N 297.098 0.621204 -1.44841 0
M  V30 3202 C 298.045 1.73267 -1.5247 0
M  V30 3203 C 299.015 1.6189 -0.371611 0
M  V30 3204 O 300.2 1.81668 -0.58321 0
M  V30 3205 C 297.34 3.11545 -1.48438 0
M  V30 3206 C 296.453 3.33827 -2.74196 0
M  V30 3207 C 295.588 4.62133 -2.61929 0
M  V30 3208 C 294.627 4.77627 -3.82804 0
M  V30 3209 N 293.764 5.97219 -3.69153 0
M  V30 3210 H 298.604 1.66082 -2.47428 0
M  V30 3211 H 296.141 0.810026 -1.22788 0
M  V30 3212 H 298.099 3.91528 -1.4409 0
M  V30 3213 H 296.729 3.1772 -0.570402 0
M  V30 3214 H 295.781 2.47715 -2.88689 0
M  V30 3215 H 297.093 3.41153 -3.6389 0
M  V30 3216 H 296.247 5.50291 -2.5547 0
M  V30 3217 H 294.986 4.57182 -1.69811 0
M  V30 3218 H 293.991 3.87896 -3.89637 0
M  V30 3219 H 295.216 4.84385 -4.75971 0
M  V30 3220 H 293.162 5.93339 -2.79794 0
M  V30 3221 H 293.079 6.05644 -4.52472 0
M  V30 3222 H 294.347 6.87912 -3.66603 0
M  V30 3223 N 298.576 1.31904 0.862503 0
M  V30 3224 C 299.524 1.20125 1.9918 0
M  V30 3225 C 300.518 0.107824 1.69056 0
M  V30 3226 O 301.724 0.270223 1.7796 0
M  V30 3227 H 298.099 0.372148 0.65346 0
M  V30 3228 H 300.07 2.15652 2.06244 0
M  V30 3229 C 298.819 0.933099 3.34946 0
M  V30 3230 H 298.142 1.76664 3.5865 0
M  V30 3231 H 299.582 0.890892 4.14535 0
M  V30 3232 C 298.041 -0.364172 3.34926 0
M  V30 3233 O 298.571 -1.37858 3.77304 0
M  V30 3234 N 296.777 -0.383362 2.8806 0
M  V30 3235 H 296.324 0.442651 2.53768 0
M  V30 3236 H 296.282 -1.25123 2.8843 0
M  V30 3237 N 300.054 -1.07777 1.14986 0
M  V30 3238 C 301.3 -1.80557 0.923422 0
M  V30 3239 C 301.633 -1.86298 -0.548337 0
M  V30 3240 O 300.908 -1.34354 -1.40639 0
M  V30 3241 C 301.191 -3.25839 1.53299 0
M  V30 3242 C 301.044 -3.28269 3.07505 0
M  V30 3243 C 302.363 -4.22991 1.21518 0
M  V30 3244 H 299.482 -0.655493 0.336894 0
M  V30 3245 H 302.124 -1.26144 1.42083 0
M  V30 3246 H 300.274 -3.72306 1.10999 0
M  V30 3247 H 301.946 -2.90079 3.58681 0
M  V30 3248 H 300.189 -2.67355 3.4162 0
M  V30 3249 H 300.86 -4.30691 3.45266 0
M  V30 3250 H 303.336 -3.84894 1.581 0
M  V30 3251 H 302.212 -5.22945 1.66793 0
M  V30 3252 H 302.473 -4.41904 0.131505 0
M  V30 3253 N 301.532 -0.945985 -1.26051 0
M  V30 3254 C 302.76 -0.613025 -1.9761 0
M  V30 3255 C 303.175 0.813035 -1.70397 0
M  V30 3256 O 302.532 1.54274 -0.974979 0
M  V30 3257 C 302.583 -0.85159 -3.51326 0
M  V30 3258 O 302.304 -2.22157 -3.77595 0
M  V30 3259 C 303.805 -0.529831 -4.40122 0
M  V30 3260 H 301.025 -0.230593 -0.630133 0
M  V30 3261 H 303.569 -1.268 -1.60443 0
M  V30 3262 H 301.724 -0.243151 -3.86636 0
M  V30 3263 H 302.138 -2.2852 -4.721 0
M  V30 3264 H 303.612 -0.747348 -5.46917 0
M  V30 3265 H 304.089 0.535341 -4.35925 0
M  V30 3266 H 304.695 -1.11721 -4.10364 0
M  V30 3267 N 303.011 1.40521 -0.713556 0
M  V30 3268 C 303.974 2.29098 -0.0684347 0
M  V30 3269 C 304.974 1.45268 0.689472 0
M  V30 3270 O 306.164 1.66205 0.521677 0
M  V30 3271 C 303.296 3.28446 0.913024 0
M  V30 3272 H 304.489 2.87645 -0.84855 0
M  V30 3273 H 302.042 1.48809 -0.47809 0
M  V30 3274 H 302.777 2.74913 1.72027 0
M  V30 3275 H 302.562 3.90327 0.372472 0
M  V30 3276 H 304.052 3.94777 1.36165 0
M  V30 3277 N 304.489 0.459591 1.5075 0
M  V30 3278 C 305.419 -0.330644 2.31147 0
M  V30 3279 C 306.4 -1.00087 1.37538 0
M  V30 3280 O 307.585 -1.00025 1.66459 0
M  V30 3281 C 304.715 -1.41958 3.16962 0
M  V30 3282 C 303.669 -0.871608 4.19031 0
M  V30 3283 C 302.995 -2.05797 4.9351 0
M  V30 3284 C 304.295 0.109251 5.22186 0
M  V30 3285 H 305.989 0.340336 2.97459 0
M  V30 3286 H 303.535 0.165119 1.4305 0
M  V30 3287 H 305.488 -1.9798 3.71997 0
M  V30 3288 H 304.212 -2.11917 2.48513 0
M  V30 3289 H 302.871 -0.333442 3.6508 0
M  V30 3290 H 302.519 -2.74427 4.21544 0
M  V30 3291 H 302.219 -1.6976 5.62544 0
M  V30 3292 H 303.743 -2.62331 5.51375 0
M  V30 3293 H 305.157 -0.361405 5.7216 0
M  V30 3294 H 303.554 0.383316 5.98875 0
M  V30 3295 H 304.624 1.03887 4.73641 0
M  V30 3296 N 305.967 -1.56429 0.191757 0
M  V30 3297 C 306.897 -2.21937 -0.725696 0
M  V30 3298 C 307.878 -1.1814 -1.2238 0
M  V30 3299 O 309.063 -1.46636 -1.27325 0
M  V30 3300 C 306.193 -2.87611 -1.94672 0
M  V30 3301 C 305.147 -3.97623 -1.58366 0
M  V30 3302 C 304.473 -4.50446 -2.88102 0
M  V30 3303 C 305.773 -5.16197 -0.796133 0
M  V30 3304 H 307.467 -2.98861 -0.179606 0
M  V30 3305 H 305.013 -1.43749 -0.0849464 0
M  V30 3306 H 306.966 -3.3212 -2.59373 0
M  V30 3307 H 305.69 -2.08087 -2.51728 0
M  V30 3308 H 304.349 -3.53801 -0.960247 0
M  V30 3309 H 303.997 -3.67688 -3.43241 0
M  V30 3310 H 303.697 -5.24675 -2.64556 0
M  V30 3311 H 305.221 -4.97654 -3.53798 0
M  V30 3312 H 306.635 -5.57271 -1.34618 0
M  V30 3313 H 305.032 -5.96471 -0.658928 0
M  V30 3314 H 306.102 -4.84473 0.203478 0
M  V30 3315 N 307.445 0.0818655 -1.57387 0
M  V30 3316 C 308.378 1.12986 -1.98266 0
M  V30 3317 C 309.356 1.38123 -0.857954 0
M  V30 3318 O 310.54 1.51663 -1.1194 0
M  V30 3319 C 307.667 2.47632 -2.31076 0
M  V30 3320 C 306.713 2.38693 -3.53452 0
M  V30 3321 S 307.546 1.79071 -5.04672 0
M  V30 3322 C 308.702 3.15316 -5.40673 0
M  V30 3323 H 308.935 0.781435 -2.86846 0
M  V30 3324 H 306.468 0.290034 -1.51651 0
M  V30 3325 H 308.426 3.25089 -2.50654 0
M  V30 3326 H 307.087 2.79638 -1.43043 0
M  V30 3327 H 306.28 3.37964 -3.73893 0
M  V30 3328 H 305.882 1.69369 -3.33452 0
M  V30 3329 H 308.174 4.11613 -5.38127 0
M  V30 3330 H 309.117 2.99664 -6.41566 0
M  V30 3331 H 309.525 3.15457 -4.68132 0
M  V30 3332 N 308.923 1.53595 0.353017 0
M  V30 3333 C 309.833 1.83897 1.45667 0
M  V30 3334 C 310.849 0.728334 1.58023 0
M  V30 3335 O 312.025 1.01968 1.73679 0
M  V30 3336 C 309.09 2.03383 2.80778 0
M  V30 3337 C 308.151 3.27262 2.77845 0
M  V30 3338 C 307.384 3.45809 4.06512 0
M  V30 3339 O 307.607 2.68387 5.03314 0
M  V30 3340 O 306.541 4.39207 4.11559 0
M  V30 3341 H 310.367 2.77686 1.2298 0
M  V30 3342 H 307.952 1.39132 0.544308 0
M  V30 3343 H 309.834 2.17698 3.60812 0
M  V30 3344 H 308.509 1.12783 3.03417 0
M  V30 3345 H 307.416 3.18359 1.96465 0
M  V30 3346 H 308.749 4.17824 2.60161 0
M  V30 3347 N 310.401 -0.613514 1.45168 0
M  V30 3348 C 311.364 -1.7065 1.53007 0
M  V30 3349 C 312.364 -1.5548 0.410184 0
M  V30 3350 O 313.554 -1.60656 0.673455 0
M  V30 3351 C 310.686 -3.09875 1.42093 0
M  V30 3352 H 311.879 -1.65068 2.50385 0
M  V30 3353 H 309.432 -0.828728 1.32521 0
M  V30 3354 H 310.167 -3.21039 0.458769 0
M  V30 3355 H 309.952 -3.22293 2.23315 0
M  V30 3356 H 311.442 -3.895 1.50598 0
M  V30 3357 N 311.879 -1.3236 -0.855495 0
M  V30 3358 C 312.826 -1.21225 -1.964 0
M  V30 3359 C 313.796 -0.0946204 -1.6583 0
M  V30 3360 O 314.981 -0.27002 -1.8888 0
M  V30 3361 C 312.121 -0.940419 -3.32039 0
M  V30 3362 C 311.234 -2.14276 -3.75113 0
M  V30 3363 C 310.369 -1.80648 -4.9954 0
M  V30 3364 C 309.408 -2.97208 -5.35102 0
M  V30 3365 N 308.545 -2.63678 -6.50706 0
M  V30 3366 H 313.385 -2.16042 -2.05255 0
M  V30 3367 H 310.922 -1.07451 -1.00463 0
M  V30 3368 H 312.88 -0.763311 -4.10158 0
M  V30 3369 H 311.51 -0.0290413 -3.22787 0
M  V30 3370 H 310.562 -2.43017 -2.92655 0
M  V30 3371 H 311.874 -3.01468 -3.97389 0
M  V30 3372 H 311.028 -1.59484 -5.85363 0
M  V30 3373 H 309.767 -0.906678 -4.79198 0
M  V30 3374 H 308.772 -3.19004 -4.47791 0
M  V30 3375 H 309.997 -3.87918 -5.57401 0
M  V30 3376 H 307.943 -1.76238 -6.31883 0
M  V30 3377 H 307.86 -3.444 -6.72997 0
M  V30 3378 H 309.128 -2.45942 -7.39684 0
M  V30 3379 N 313.357 1.07166 -1.15556 0
M  V30 3380 C 314.267 2.17947 -0.868116 0
M  V30 3381 C 315.283 1.73297 0.156297 0
M  V30 3382 O 316.459 2.01392 -0.0182327 0
M  V30 3383 C 313.524 3.44789 -0.36355 0
M  V30 3384 C 312.585 4.03996 -1.45209 0
M  V30 3385 C 311.818 5.24783 -0.971508 0
M  V30 3386 O 312.041 5.70109 0.182194 0
M  V30 3387 O 310.975 5.75715 -1.75603 0
M  V30 3388 H 314.801 2.4503 -1.79427 0
M  V30 3389 H 312.386 1.16539 -0.934824 0
M  V30 3390 H 314.268 4.21307 -0.0887113 0
M  V30 3391 H 312.943 3.19253 0.534708 0
M  V30 3392 H 311.85 3.29009 -1.78056 0
M  V30 3393 H 313.183 4.33808 -2.32533 0
M  V30 3394 N 314.835 0.952656 1.25548 0
M  V30 3395 C 315.765 0.489287 2.28316 0
M  V30 3396 C 316.746 -0.463359 1.63667 0
M  V30 3397 O 317.931 -0.36274 1.90782 0
M  V30 3398 C 315.061 -0.235603 3.465 0
M  V30 3399 C 314.015 0.631593 4.23314 0
M  V30 3400 C 313.341 -0.223923 5.34231 0
M  V30 3401 C 314.641 1.90871 4.86174 0
M  V30 3402 H 316.335 1.34822 2.67326 0
M  V30 3403 H 313.881 0.649728 1.28509 0
M  V30 3404 H 315.834 -0.570882 4.17515 0
M  V30 3405 H 314.558 -1.12877 3.06474 0
M  V30 3406 H 313.217 0.949929 3.54079 0
M  V30 3407 H 312.865 -1.11678 4.90446 0
M  V30 3408 H 312.565 0.35299 5.86539 0
M  V30 3409 H 314.089 -0.554214 6.0808 0
M  V30 3410 H 315.503 1.63997 5.49343 0
M  V30 3411 H 313.9 2.43112 5.4865 0
M  V30 3412 H 314.97 2.61304 4.08471 0
M  V30 3413 N 316.313 -1.40141 0.720998 0
M  V30 3414 C 317.223 -2.34486 0.0731031 0
M  V30 3415 C 318.239 -1.57587 -0.737723 0
M  V30 3416 O 319.415 -1.89949 -0.669429 0
M  V30 3417 C 316.48 -3.36528 -0.833656 0
M  V30 3418 C 315.541 -4.29298 -0.0121673 0
M  V30 3419 C 314.774 -5.26466 -0.875742 0
M  V30 3420 O 314.997 -5.29745 -2.11485 0
M  V30 3421 O 313.931 -6.01092 -0.31185 0
M  V30 3422 H 317.757 -2.9152 0.851444 0
M  V30 3423 H 315.342 -1.41427 0.481527 0
M  V30 3424 H 317.224 -3.99093 -1.35289 0
M  V30 3425 H 315.899 -2.81899 -1.59105 0
M  V30 3426 H 314.806 -3.70001 0.552262 0
M  V30 3427 H 316.139 -4.87094 0.707129 0
M  V30 3428 N 317.792 -0.46758 -1.50504 0
M  V30 3429 C 318.755 0.317059 -2.26996 0
M  V30 3430 C 319.755 0.923513 -1.31635 0
M  V30 3431 O 320.945 0.793239 -1.55091 0
M  V30 3432 C 318.077 1.45134 -3.08462 0
M  V30 3433 H 319.27 -0.353723 -2.97807 0
M  V30 3434 H 316.823 -0.221545 -1.54722 0
M  V30 3435 H 317.558 2.15728 -2.4214 0
M  V30 3436 H 317.343 1.02232 -3.78538 0
M  V30 3437 H 318.833 2.00493 -3.66323 0
M  V30 3438 N 319.27 1.56325 -0.20005 0
M  V30 3439 C 320.686 1.58839 0.155716 0
M  V30 3440 C 320.886 1.21636 1.60645 0
M  V30 3441 O 319.942 0.941437 2.34293 0
M  V30 3442 C 321.255 3.0032 -0.151124 0
M  V30 3443 C 322.803 3.12866 -0.0916284 0
M  V30 3444 C 323.278 4.56488 -0.371845 0
M  V30 3445 N 324.769 4.62089 -0.320641 0
M  V30 3446 C 325.504 5.71116 -0.511243 0
M  V30 3447 N 325 6.88592 -0.762461 0
M  V30 3448 N 326.793 5.60335 -0.445157 0
M  V30 3449 H 318.944 1.78788 -1.14668 0
M  V30 3450 H 321.207 0.829996 -0.458051 0
M  V30 3451 H 320.913 3.32117 -1.15721 0
M  V30 3452 H 320.787 3.73257 0.543986 0
M  V30 3453 H 323.174 2.80878 0.905065 0
M  V30 3454 H 323.255 2.42304 -0.81989 0
M  V30 3455 H 322.899 4.89189 -1.36588 0
M  V30 3456 H 322.829 5.25246 0.377362 0
M  V30 3457 H 325.32 3.77665 -0.13329 0
M  V30 3458 H 325.633 7.67581 -0.896576 0
M  V30 3459 H 323.978 6.90387 -0.799412 0
M  V30 3460 H 327.169 4.67436 -0.249278 0
M  V30 3461 H 327.342 6.45243 -0.597116 0
M  V30 3462 N 320.748 -0.0735177 1.57428 0
M  V30 3463 C 321.994 -0.774145 1.87443 0
M  V30 3464 C 322.327 -1.77311 0.792103 0
M  V30 3465 O 321.602 -1.93492 -0.197793 0
M  V30 3466 C 321.885 -1.48367 3.28115 0
M  V30 3467 C 321.738 -0.501227 4.46999 0
M  V30 3468 C 323.057 -2.429 3.66998 0
M  V30 3469 H 320.176 -0.279971 0.681752 0
M  V30 3470 H 322.818 -0.0373616 1.89963 0
M  V30 3471 H 320.968 -2.11171 3.26097 0
M  V30 3472 H 322.64 0.121468 4.6114 0
M  V30 3473 H 320.883 0.183593 4.33411 0
M  V30 3474 H 321.554 -1.03526 5.42205 0
M  V30 3475 H 324.03 -1.90175 3.70098 0
M  V30 3476 H 322.906 -2.89549 4.66318 0
M  V30 3477 H 323.167 -3.27628 2.96837 0
M  V30 3478 N 322.226 -1.5378 -0.344866 0
M  V30 3479 C 323.475 -1.7018 -1.08267 0
M  V30 3480 C 323.788 -0.471 -1.89845 0
M  V30 3481 O 324.994 -0.515917 -2.66553 0
M  V30 3482 C 323.45 -3.00923 -1.97417 0
M  V30 3483 C 323.058 -4.31335 -1.21053 0
M  V30 3484 C 324.802 -3.26688 -2.71063 0
M  V30 3485 C 322.709 -5.53153 -2.09225 0
M  V30 3486 H 321.639 -0.634138 -0.407903 0
M  V30 3487 H 324.29 -1.8028 -0.342246 0
M  V30 3488 H 322.672 -2.84676 -2.75274 0
M  V30 3489 H 323.846 -4.58281 -0.481159 0
M  V30 3490 H 322.161 -4.12173 -0.591813 0
M  V30 3491 H 324.758 -4.1489 -3.37299 0
M  V30 3492 H 325.101 -2.43639 -3.37558 0
M  V30 3493 H 325.634 -3.43705 -2.0028 0
M  V30 3494 H 322.373 -6.38741 -1.47274 0
M  V30 3495 H 321.893 -5.30458 -2.79955 0
M  V30 3496 H 323.572 -5.88744 -2.68308 0
M  V30 3497 N 323.704 0.605807 -1.45491 0
M  V30 3498 C 324.953 1.36086 -1.48874 0
M  V30 3499 C 325.266 1.95131 -0.135333 0
M  V30 3500 O 326.472 2.7146 -0.0468144 0
M  V30 3501 C 324.928 2.46518 -2.62215 0
M  V30 3502 C 324.536 1.93877 -4.03876 0
M  V30 3503 C 326.28 3.23512 -2.74846 0
M  V30 3504 C 324.187 3.01801 -5.08596 0
M  V30 3505 H 323.117 0.511497 -0.553974 0
M  V30 3506 H 325.768 0.649089 -1.71636 0
M  V30 3507 H 324.15 3.20388 -2.32739 0
M  V30 3508 H 325.324 1.26704 -4.43038 0
M  V30 3509 H 323.639 1.29622 -3.95711 0
M  V30 3510 H 326.236 4.04013 -3.50253 0
M  V30 3511 H 326.579 3.74631 -1.81542 0
M  V30 3512 H 327.112 2.56742 -3.03856 0
M  V30 3513 H 323.851 2.55597 -6.03614 0
M  V30 3514 H 323.371 3.67535 -4.74002 0
M  V30 3515 H 325.05 3.66152 -5.33424 0
M  V30 3516 N 325.182 1.32811 0.848464 0
M  V30 3517 C 326.112 1.24882 1.97299 0
M  V30 3518 C 327.093 0.131357 1.69592 0
M  V30 3519 O 328.278 0.319553 1.91553 0
M  V30 3520 C 325.408 0.97746 3.33261 0
M  V30 3521 C 324.362 2.05682 3.75338 0
M  V30 3522 C 323.688 1.63777 5.09 0
M  V30 3523 C 324.988 3.47254 3.90144 0
M  V30 3524 H 326.682 2.18966 2.04191 0
M  V30 3525 H 324.228 1.05413 0.981029 0
M  V30 3526 H 326.181 0.908513 4.1149 0
M  V30 3527 H 324.905 0.000980011 3.266 0
M  V30 3528 H 323.564 2.11603 2.99366 0
M  V30 3529 H 323.212 0.648569 4.98801 0
M  V30 3530 H 322.912 2.36 5.38124 0
M  V30 3531 H 324.436 1.5833 5.89715 0
M  V30 3532 H 325.85 3.43888 4.58709 0
M  V30 3533 H 324.247 4.1788 4.30693 0
M  V30 3534 H 325.317 3.86462 2.92874 0
M  V30 3535 N 326.66 -1.06551 1.16123 0
M  V30 3536 C 327.885 -1.83544 0.965735 0
M  V30 3537 C 328.31 -1.81843 -0.481102 0
M  V30 3538 O 327.668 -1.21732 -1.34354 0
M  V30 3539 C 327.716 -3.28169 1.49457 0
M  V30 3540 O 326.82 -4.0643 0.699157 0
M  V30 3541 H 326.161 -0.568026 0.343864 0
M  V30 3542 H 328.691 -1.34362 1.54299 0
M  V30 3543 H 328.701 -3.78992 1.51092 0
M  V30 3544 H 327.376 -3.28722 2.54784 0
M  V30 3545 H 325.953 -3.65216 0.7531 0
M  V30 3546 N 328.138 -0.959301 -1.25041 0
M  V30 3547 C 329.101 -0.487677 -2.23952 0
M  V30 3548 C 330.101 0.41119 -1.55454 0
M  V30 3549 O 331.291 0.207825 -1.72956 0
M  V30 3550 C 328.423 0.294807 -3.39623 0
M  V30 3551 H 329.616 -1.36198 -2.67189 0
M  V30 3552 H 327.169 -0.743042 -1.37508 0
M  V30 3553 H 327.904 1.18658 -3.01813 0
M  V30 3554 H 327.689 -0.35012 -3.90534 0
M  V30 3555 H 329.179 0.614089 -4.1306 0
M  V30 3556 N 329.616 1.39756 -0.72842 0
M  V30 3557 C 330.841 2.05472 -0.282159 0
M  V30 3558 C 331.266 1.54549 1.07221 0
M  V30 3559 O 330.624 0.686372 1.67805 0
M  V30 3560 C 330.672 3.59462 -0.286264 0
M  V30 3561 O 329.776 4.05918 0.728298 0
M  V30 3562 H 329.117 0.651226 -0.129618 0
M  V30 3563 H 331.647 1.78915 -0.992499 0
M  V30 3564 H 331.657 4.07798 -0.128373 0
M  V30 3565 H 330.332 3.95889 -1.27456 0
M  V30 3566 H 328.909 3.69012 0.537081 0
M  V30 3567 N 331.094 0.475555 1.50254 0
M  V30 3568 C 332.004 -0.321501 2.32387 0
M  V30 3569 C 333.02 -0.991755 1.42969 0
M  V30 3570 O 334.196 -0.978747 1.76018 0
M  V30 3571 C 331.261 -1.38667 3.17762 0
M  V30 3572 C 330.322 -0.732538 4.23004 0
M  V30 3573 C 329.555 -1.74695 5.04299 0
M  V30 3574 O 329.778 -2.97399 4.86734 0
M  V30 3575 O 328.712 -1.31631 5.8733 0
M  V30 3576 H 332.538 0.350071 3.01676 0
M  V30 3577 H 330.123 0.237321 1.47503 0
M  V30 3578 H 332.005 -2.00354 3.70724 0
M  V30 3579 H 330.68 -2.04163 2.51196 0
M  V30 3580 H 329.587 -0.0765902 3.74022 0
M  V30 3581 H 330.92 -0.120452 4.92053 0
M  V30 3582 N 332.573 -1.56217 0.208337 0
M  V30 3583 C 333.85 -1.89739 -0.475234 0
M  V30 3584 C 334.23 -1.1238 -1.78701 0
M  V30 3585 O 333.578 -0.228979 -2.2735 0
M  V30 3586 C 333.788 -3.42289 -0.681101 0
M  V30 3587 C 335.136 -4.12789 -0.994507 0
M  V30 3588 O 336.16 -3.47814 -0.768357 0
M  V30 3589 O 335.019 -5.27649 -1.42299 0
M  V30 3590 H 332.113 -0.788478 -0.249461 0
M  V30 3591 H 334.659 -1.67855 0.249538 0
M  V30 3592 H 333.431 -3.90534 0.244722 0
M  V30 3593 H 333.054 -3.69909 -1.45785 0
M  V30 3594 N 334.051 0.0651679 -1.57465 0
M  V30 3595 C 335.328 0.79644 -1.78651 0
M  V30 3596 C 335.708 1.95454 -0.797566 0
M  V30 3597 O 335.056 2.27882 0.167946 0
M  V30 3598 C 335.266 1.26322 -3.25337 0
M  V30 3599 C 336.614 1.6939 -3.89348 0
M  V30 3600 O 337.638 1.35872 -3.29268 0
M  V30 3601 O 336.497 2.31471 -4.95059 0
M  V30 3602 H 333.591 0.382157 -0.733407 0
M  V30 3603 H 336.137 0.0447311 -1.69641 0
M  V30 3604 H 334.909 0.434859 -3.88876 0
M  V30 3605 H 334.532 2.07604 -3.39096 0
M  V30 3606 N 335.529 1.53961 0.336706 0
M  V30 3607 C 336.492 1.81724 1.39675 0
M  V30 3608 C 337.492 0.688532 1.45313 0
M  V30 3609 O 338.682 0.956829 1.45569 0
M  V30 3610 C 335.814 1.96543 2.78538 0
M  V30 3611 H 337.007 2.76424 1.16318 0
M  V30 3612 H 334.56 1.45478 0.571474 0
M  V30 3613 H 335.295 1.0401 3.07168 0
M  V30 3614 H 335.08 2.78665 2.75841 0
M  V30 3615 H 336.57 2.19516 3.5525 0
M  V30 3616 N 337.007 -0.598083 1.45811 0
M  V30 3617 C 337.97 -1.69018 1.54808 0
M  V30 3618 C 338.97 -1.55037 0.426652 0
M  V30 3619 O 340.16 -1.59932 0.690456 0
M  V30 3620 C 337.292 -3.0835 1.45371 0
M  V30 3621 H 338.485 -1.62403 2.52121 0
M  V30 3622 H 336.038 -0.814626 1.33392 0
M  V30 3623 H 336.773 -3.20534 0.492793 0
M  V30 3624 H 336.558 -3.19907 2.26721 0
M  V30 3625 H 338.048 -3.8788 1.54721 0
M  V30 3626 N 338.485 -1.33259 -0.841409 0
M  V30 3627 C 339.713 -1.27605 -1.62864 0
M  V30 3628 C 340.128 0.153507 -1.88175 0
M  V30 3629 O 339.485 1.09485 -1.46011 0
M  V30 3630 C 339.536 -2.04596 -2.98031 0
M  V30 3631 O 339.257 -3.41975 -2.73834 0
M  V30 3632 C 340.758 -2.06122 -3.92465 0
M  V30 3633 H 337.978 -0.439718 -0.506842 0
M  V30 3634 H 340.522 -1.75591 -1.04824 0
M  V30 3635 H 338.677 -1.60299 -3.5268 0
M  V30 3636 H 339.091 -3.81549 -3.59889 0
M  V30 3637 H 340.565 -2.64451 -4.84531 0
M  V30 3638 H 341.042 -1.05083 -4.26444 0
M  V30 3639 H 341.648 -2.50427 -3.43753 0
M  V30 3640 N 339.963 1.05934 -1.16686 0
M  V30 3641 C 341.209 1.79065 -0.95203 0
M  V30 3642 C 341.542 1.87147 0.518629 0
M  V30 3643 O 340.817 1.36574 1.38484 0
M  V30 3644 C 341.1 3.23359 -1.58464 0
M  V30 3645 C 340.953 3.23336 -3.12689 0
M  V30 3646 C 342.272 4.21004 -1.28232 0
M  V30 3647 H 339.391 0.65005 -0.34728 0
M  V30 3648 H 342.033 1.23868 -1.44072 0
M  V30 3649 H 340.183 3.70493 -1.16908 0
M  V30 3650 H 341.855 2.84336 -3.6325 0
M  V30 3651 H 340.098 2.61886 -3.4583 0
M  V30 3652 H 340.769 4.25144 -3.52075 0
M  V30 3653 H 343.245 3.8233 -1.64203 0
M  V30 3654 H 342.121 5.20225 -1.75092 0
M  V30 3655 H 342.382 4.41639 -0.201791 0
M  V30 3656 N 341.441 0.965919 1.2453 0
M  V30 3657 C 342.671 0.643451 1.96324 0
M  V30 3658 C 343.079 -0.790927 1.71875 0
M  V30 3659 O 342.422 -1.54208 0.998273 0
M  V30 3660 C 342.484 0.836078 3.49643 0
M  V30 3661 C 342.148 2.24975 3.97788 0
M  V30 3662 C 343.145 3.22735 4.07601 0
M  V30 3663 C 340.83 2.57697 4.31158 0
M  V30 3664 C 342.824 4.51303 4.50116 0
M  V30 3665 C 340.511 3.86492 4.73357 0
M  V30 3666 C 341.509 4.83107 4.828 0
M  V30 3667 O 341.197 6.09605 5.24058 0
M  V30 3668 H 340.929 0.239223 0.632257 0
M  V30 3669 H 343.483 1.29587 1.59362 0
M  V30 3670 H 341.713 0.12649 3.86493 0
M  V30 3671 H 343.402 0.512965 4.02646 0
M  V30 3672 H 344.168 2.98783 3.82039 0
M  V30 3673 H 340.047 1.83216 4.23028 0
M  V30 3674 H 343.591 5.26716 4.57401 0
M  V30 3675 H 339.488 4.10245 4.98366 0
M  V30 3676 H 340.256 6.13146 5.42213 0
M  V30 3677 N 342.919 -1.39368 0.735821 0
M  V30 3678 C 344.335 -1.54204 0.411492 0
M  V30 3679 C 344.535 -1.70268 -1.07755 0
M  V30 3680 O 343.591 -1.70364 -1.86366 0
M  V30 3681 C 344.904 -2.75925 1.19523 0
M  V30 3682 C 346.452 -2.89761 1.18354 0
M  V30 3683 C 346.927 -4.14421 1.94986 0
M  V30 3684 N 348.418 -4.21462 1.92156 0
M  V30 3685 C 349.153 -5.16871 2.48258 0
M  V30 3686 N 348.649 -6.18063 3.13001 0
M  V30 3687 N 350.442 -5.09093 2.38287 0
M  V30 3688 H 342.593 -1.27189 1.70108 0
M  V30 3689 H 344.856 -0.616517 0.720147 0
M  V30 3690 H 344.562 -2.70401 2.24892 0
M  V30 3691 H 344.436 -3.68614 0.800222 0
M  V30 3692 H 346.823 -2.94777 0.137975 0
M  V30 3693 H 346.904 -1.98133 1.61793 0
M  V30 3694 H 346.548 -4.10166 2.99543 0
M  V30 3695 H 346.478 -5.05095 1.48953 0
M  V30 3696 H 348.969 -3.48979 1.44991 0
M  V30 3697 H 349.282 -6.87326 3.53275 0
M  V30 3698 H 347.627 -6.18448 3.17091 0
M  V30 3699 H 350.818 -4.28973 1.8735 0
M  V30 3700 H 350.991 -5.83272 2.82308 0
M  V30 3701 N 344.397 -0.483516 -1.5 0
M  V30 3702 C 345.36 0.292965 -2.2732 0
M  V30 3703 C 346.36 0.909499 -1.32608 0
M  V30 3704 O 347.55 0.776745 -1.55924 0
M  V30 3705 C 344.682 1.41854 -3.09984 0
M  V30 3706 H 345.875 -0.385289 -2.97415 0
M  V30 3707 H 343.428 -0.237942 -1.54478 0
M  V30 3708 H 344.163 2.13148 -2.44414 0
M  V30 3709 H 343.948 0.982114 -3.79601 0
M  V30 3710 H 345.438 1.96597 -3.68429 0
M  V30 3711 N 345.875 1.56104 -0.216619 0
M  V30 3712 C 346.838 2.18819 0.681962 0
M  V30 3713 C 347.838 1.14866 1.12528 0
M  V30 3714 O 349.028 1.40128 1.03488 0
M  V30 3715 C 346.16 2.80756 1.93362 0
M  V30 3716 H 347.353 2.99595 0.135254 0
M  V30 3717 H 344.906 1.56265 0.0330003 0
M  V30 3718 H 345.641 2.03837 2.52232 0
M  V30 3719 H 345.426 3.56876 1.62426 0
M  V30 3720 H 346.916 3.28844 2.57393 0
M  V30 3721 N 347.353 -0.0568162 1.57498 0
M  V30 3722 C 348.316 -1.05038 2.03715 0
M  V30 3723 C 349.316 -1.30709 0.936577 0
M  V30 3724 O 350.506 -1.26178 1.20103 0
M  V30 3725 C 347.638 -2.39034 2.43055 0
M  V30 3726 H 348.831 -0.651715 2.92733 0
M  V30 3727 H 346.384 -0.302947 1.53336 0
M  V30 3728 H 347.119 -2.83703 1.57108 0
M  V30 3729 H 346.904 -2.21739 3.2338 0
M  V30 3730 H 348.394 -3.10421 2.79336 0
M  V30 3731 N 348.832 -1.54138 -0.328536 0
M  V30 3732 C 349.765 -1.78014 -1.4278 0
M  V30 3733 C 350.743 -0.629889 -1.49904 0
M  V30 3734 O 351.927 -0.866763 -1.6739 0
M  V30 3735 C 349.054 -1.89225 -2.80912 0
M  V30 3736 C 348.1 -3.11483 -2.91343 0
M  V30 3737 S 348.933 -4.70201 -2.56263 0
M  V30 3738 C 350.089 -4.84312 -3.96476 0
M  V30 3739 H 350.322 -2.70974 -1.22313 0
M  V30 3740 H 347.855 -1.45197 -0.525084 0
M  V30 3741 H 349.813 -1.9637 -3.60485 0
M  V30 3742 H 348.474 -0.972518 -2.98665 0
M  V30 3743 H 347.667 -3.16046 -3.92595 0
M  V30 3744 H 347.269 -3.02642 -2.19736 0
M  V30 3745 H 349.561 -4.66643 -4.91173 0
M  V30 3746 H 350.504 -5.86411 -3.96898 0
M  V30 3747 H 350.912 -4.12652 -3.85199 0
M  V30 3748 N 350.31 0.590341 -1.46126 0
M  V30 3749 C 351.24 1.71032 -1.58966 0
M  V30 3750 C 352.221 1.64302 -0.440335 0
M  V30 3751 O 353.406 1.82436 -0.665634 0
M  V30 3752 C 350.536 3.09665 -1.57241 0
M  V30 3753 C 349.49 3.31221 -2.71066 0
M  V30 3754 C 348.816 4.70303 -2.54399 0
M  V30 3755 C 350.116 3.19796 -4.1295 0
M  V30 3756 H 351.81 1.60543 -2.52718 0
M  V30 3757 H 349.356 0.770933 -1.21625 0
M  V30 3758 H 351.309 3.87831 -1.64819 0
M  V30 3759 H 350.033 3.21036 -0.600289 0
M  V30 3760 H 348.692 2.55452 -2.62944 0
M  V30 3761 H 348.34 4.78429 -1.55288 0
M  V30 3762 H 348.04 4.85679 -3.30741 0
M  V30 3763 H 349.564 5.50647 -2.63857 0
M  V30 3764 H 350.978 3.87815 -4.22223 0
M  V30 3765 H 349.375 3.46696 -4.89818 0
M  V30 3766 H 350.445 2.16983 -4.33643 0
M  V30 3767 N 351.788 1.33704 0.83433 0
M  V30 3768 C 352.736 1.24323 1.96587 0
M  V30 3769 C 353.73 0.143659 1.6879 0
M  V30 3770 O 354.936 0.30791 1.77347 0
M  V30 3771 H 351.311 0.385925 0.645419 0
M  V30 3772 H 353.282 2.19978 2.01624 0
M  V30 3773 C 352.031 1.00394 3.32891 0
M  V30 3774 H 351.354 1.84231 3.54822 0
M  V30 3775 H 352.794 0.97862 4.12552 0
M  V30 3776 C 351.253 -0.293047 3.35623 0
M  V30 3777 O 351.783 -1.29823 3.80143 0
M  V30 3778 N 349.989 -0.322174 2.88809 0
M  V30 3779 H 349.536 0.496379 2.52772 0
M  V30 3780 H 349.494 -1.18977 2.91019 0
M  V30 3781 N 353.266 -1.05314 1.17247 0
M  V30 3782 C 354.199 -2.12512 0.831507 0
M  V30 3783 C 355.177 -1.61351 -0.201168 0
M  V30 3784 O 356.361 -1.88317 -0.0829831 0
M  V30 3785 C 353.488 -3.37848 0.24015 0
M  V30 3786 C 352.534 -4.07832 1.24801 0
M  V30 3787 S 353.367 -4.56537 2.79882 0
M  V30 3788 C 354.523 -5.85122 2.22223 0
M  V30 3789 H 354.756 -2.41106 1.7394 0
M  V30 3790 H 352.289 -1.17896 0.996988 0
M  V30 3791 H 354.247 -4.10391 -0.0945588 0
M  V30 3792 H 352.908 -3.07392 -0.645668 0
M  V30 3793 H 352.101 -4.97883 0.78287 0
M  V30 3794 H 351.703 -3.41348 1.52831 0
M  V30 3795 H 353.995 -6.58408 1.59703 0
M  V30 3796 H 354.938 -6.36381 3.10523 0
M  V30 3797 H 355.346 -5.39626 1.65722 0
M  V30 3798 N 354.744 -0.972509 -1.24016 0
M  V30 3799 C 355.972 -0.654803 -1.96265 0
M  V30 3800 C 356.387 0.776708 -1.72083 0
M  V30 3801 O 355.744 1.52171 -1.00748 0
M  V30 3802 C 355.795 -0.92592 -3.49441 0
M  V30 3803 O 355.516 -2.30116 -3.72798 0
M  V30 3804 C 357.017 -0.623068 -4.38899 0
M  V30 3805 H 354.237 -0.243907 -0.6251 0
M  V30 3806 H 356.781 -1.30175 -1.57717 0
M  V30 3807 H 354.936 -0.325108 -3.86033 0
M  V30 3808 H 355.35 -2.38483 -4.67147 0
M  V30 3809 H 356.824 -0.863189 -5.45209 0
M  V30 3810 H 357.301 0.442754 -4.36963 0
M  V30 3811 H 357.907 -1.204 -4.07902 0
M  V30 3812 N 356.222 1.38976 -0.743202 0
M  V30 3813 C 357.47 1.99948 -0.29417 0
M  V30 3814 C 357.791 1.59279 1.12495 0
M  V30 3815 O 357.061 0.844808 1.76748 0
M  V30 3816 H 355.641 0.739473 -0.105774 0
M  V30 3817 H 358.303 1.699 -0.954986 0
M  V30 3818 H 357.399 3.10142 -0.349056 0
M  V30 3819 N 357.7 0.491464 1.49741 0
M  V30 3820 C 358.925 -0.0557177 2.07325 0
M  V30 3821 C 359.35 -1.30925 1.35056 0
M  V30 3822 O 358.708 -1.76733 0.404365 0
M  V30 3823 C 358.756 -0.302074 3.59333 0
M  V30 3824 O 357.86 -1.37868 3.88672 0
M  V30 3825 H 357.201 0.0219956 0.663636 0
M  V30 3826 H 359.731 0.688352 1.92673 0
M  V30 3827 H 359.741 -0.536464 4.04458 0
M  V30 3828 H 358.416 0.61383 4.11345 0
M  V30 3829 H 356.993 -1.12999 3.55367 0
M  V30 3830 N 359.178 -1.55987 0.224894 0
M  V30 3831 C 360.426 -1.97998 -0.405099 0
M  V30 3832 C 360.747 -1.11387 -1.60056 0
M  V30 3833 O 360.017 -0.191645 -1.9496 0
M  V30 3834 H 358.597 -0.731235 -0.152658 0
M  V30 3835 H 361.259 -1.92279 0.318567 0
M  V30 3836 H 360.355 -3.03463 -0.729167 0
M  V30 3837 N 360.656 0.0484629 -1.57525 0
M  V30 3838 C 361.886 0.754326 -1.92337 0
M  V30 3839 C 362.294 1.70443 -0.82132 0
M  V30 3840 O 361.637 1.82466 0.21254 0
M  V30 3841 C 361.699 1.58231 -3.22805 0
M  V30 3842 C 361.363 0.799074 -4.4996 0
M  V30 3843 C 362.36 0.1079 -5.19788 0
M  V30 3844 C 360.045 0.759345 -4.96527 0
M  V30 3845 C 362.039 -0.612516 -6.3445 0
M  V30 3846 C 359.726 0.0351713 -6.1109 0
M  V30 3847 C 360.724 -0.649537 -6.79904 0
M  V30 3848 O 360.412 -1.36199 -7.92278 0
M  V30 3849 H 360.144 0.218257 -0.639797 0
M  V30 3850 H 362.698 0.0159295 -2.05394 0
M  V30 3851 H 360.928 2.36406 -3.06021 0
M  V30 3852 H 362.617 2.16898 -3.43089 0
M  V30 3853 H 363.383 0.129748 -4.84826 0
M  V30 3854 H 359.262 1.28177 -4.42822 0
M  V30 3855 H 362.806 -1.14751 -6.88097 0
M  V30 3856 H 358.703 0.0113314 -6.45499 0
M  V30 3857 H 359.471 -1.27366 -8.0853 0
M  V30 3858 N 362.134 1.5431 0.320358 0
M  V30 3859 C 363.38 1.72924 1.05949 0
M  V30 3860 C 363.713 0.503185 1.87568 0
M  V30 3861 O 362.988 -0.499839 1.87968 0
M  V30 3862 C 363.271 3.00676 1.98156 0
M  V30 3863 C 363.124 4.3354 1.19845 0
M  V30 3864 C 364.443 3.24198 2.9763 0
M  V30 3865 H 361.562 0.629195 0.383774 0
M  V30 3866 H 364.204 1.87008 0.335854 0
M  V30 3867 H 362.354 2.888 2.59859 0
M  V30 3868 H 364.026 4.57305 0.605773 0
M  V30 3869 H 362.269 4.309 0.500784 0
M  V30 3870 H 362.94 5.19156 1.87567 0
M  V30 3871 H 365.416 3.35557 2.4605 0
M  V30 3872 H 364.292 4.14938 3.59329 0
M  V30 3873 H 364.553 2.41577 3.7026 0
M  V30 3874 N 363.613 -0.582584 1.46437 0
M  V30 3875 C 364.859 -1.34064 1.52965 0
M  V30 3876 C 365.214 -1.91566 0.178968 0
M  V30 3877 O 364.507 -1.73526 -0.812365 0
M  V30 3878 C 364.701 -2.48964 2.56421 0
M  V30 3879 C 364.53 -2.02717 4.01417 0
M  V30 3880 C 363.3 -1.87728 4.69134 0
M  V30 3881 C 365.498 -1.58675 4.8921 0
M  V30 3882 N 363.48 -1.35554 5.98747 0
M  V30 3883 C 364.851 -1.18093 6.08649 0
M  V30 3884 C 366.906 -1.46494 4.75861 0
M  V30 3885 C 365.609 -0.665427 7.16215 0
M  V30 3886 C 367.635 -0.96347 5.83499 0
M  V30 3887 C 366.997 -0.567432 7.02111 0
M  V30 3888 H 363.096 -0.483551 0.614575 0
M  V30 3889 H 365.68 -0.663309 1.83053 0
M  V30 3890 H 363.851 -3.1426 2.28244 0
M  V30 3891 H 365.583 -3.15913 2.52944 0
M  V30 3892 H 362.338 -2.09678 4.24655 0
M  V30 3893 H 362.762 -1.11628 6.67734 0
M  V30 3894 H 367.404 -1.75731 3.8455 0
M  V30 3895 H 365.122 -0.360639 8.07295 0
M  V30 3896 H 368.708 -0.873129 5.75211 0
M  V30 3897 H 367.588 -0.185389 7.83981 0
M  V30 3898 N 365.091 -1.34144 -0.827227 0
M  V30 3899 C 366.021 -1.28005 -1.95287 0
M  V30 3900 C 367.002 -0.158321 -1.69362 0
M  V30 3901 O 368.187 -0.349987 -1.9102 0
M  V30 3902 C 365.317 -1.03036 -3.31664 0
M  V30 3903 C 364.271 -2.11628 -3.72019 0
M  V30 3904 C 363.597 -1.71854 -5.0633 0
M  V30 3905 C 364.897 -3.53417 -3.8457 0
M  V30 3906 H 366.591 -2.22187 -2.00682 0
M  V30 3907 H 364.137 -1.0696 -0.964135 0
M  V30 3908 H 366.09 -0.973863 -4.09993 0
M  V30 3909 H 364.814 -0.0529391 -3.26557 0
M  V30 3910 H 363.473 -2.16339 -2.95961 0
M  V30 3911 H 363.121 -0.727841 -4.97706 0
M  V30 3912 H 362.821 -2.44531 -5.34302 0
M  V30 3913 H 364.345 -1.67692 -5.87122 0
M  V30 3914 H 365.759 -3.51142 -4.5318 0
M  V30 3915 H 364.156 -4.24679 -4.2399 0
M  V30 3916 H 365.226 -3.91072 -2.86689 0
M  V30 3917 N 366.569 1.04691 -1.17803 0
M  V30 3918 C 367.815 1.78045 -0.970969 0
M  V30 3919 C 368.148 1.87686 0.498751 0
M  V30 3920 O 367.423 1.38035 1.37027 0
M  V30 3921 C 367.706 3.2166 -1.61884 0
M  V30 3922 C 367.559 3.20001 -3.161 0
M  V30 3923 C 368.878 4.1962 -1.3269 0
M  V30 3924 H 365.997 0.64633 -0.354155 0
M  V30 3925 H 368.639 1.22333 -1.45378 0
M  V30 3926 H 366.789 3.69232 -1.20831 0
M  V30 3927 H 368.461 2.80467 -3.66246 0
M  V30 3928 H 366.704 2.58203 -3.48588 0
M  V30 3929 H 367.375 4.21386 -3.56564 0
M  V30 3930 H 369.851 3.80567 -1.68249 0
M  V30 3931 H 368.727 5.18339 -1.80599 0
M  V30 3932 H 368.988 4.414 -0.248622 0
M  V30 3933 N 368.047 0.979072 1.23499 0
M  V30 3934 C 369.295 0.645941 1.91499 0
M  V30 3935 C 369.616 -0.822948 1.76784 0
M  V30 3936 O 368.886 -1.58854 1.14639 0
M  V30 3937 H 367.466 0.235919 0.708767 0
M  V30 3938 H 370.128 1.2426 1.50152 0
M  V30 3939 H 369.224 0.896411 2.9895 0
M  V30 3940 N 369.525 -1.3858 0.750561 0
M  V30 3941 C 370.435 -2.34278 0.122825 0
M  V30 3942 C 371.451 -1.59116 -0.704131 0
M  V30 3943 O 372.627 -1.91326 -0.628987 0
M  V30 3944 C 369.692 -3.38221 -0.762086 0
M  V30 3945 C 368.753 -4.29227 0.078896 0
M  V30 3946 C 367.986 -5.28205 -0.763874 0
M  V30 3947 O 368.209 -5.34112 -2.00201 0
M  V30 3948 O 367.143 -6.01618 -0.18428 0
M  V30 3949 H 370.969 -2.89649 0.913088 0
M  V30 3950 H 368.554 -1.40374 0.511417 0
M  V30 3951 H 370.436 -4.01872 -1.26793 0
M  V30 3952 H 369.111 -2.85211 -1.5309 0
M  V30 3953 H 368.018 -3.68747 0.630621 0
M  V30 3954 H 369.351 -4.85484 0.810289 0
M  V30 3955 N 371.003 -0.499398 -1.49478 0
M  V30 3956 C 372.419 -0.155261 -1.58843 0
M  V30 3957 C 372.619 1.34008 -1.50479 0
M  V30 3958 O 371.675 2.11589 -1.37791 0
M  V30 3959 C 372.988 -0.730636 -2.91689 0
M  V30 3960 C 374.536 -0.696599 -3.0515 0
M  V30 3961 C 375.011 -1.25001 -4.40612 0
M  V30 3962 N 376.502 -1.21064 -4.47099 0
M  V30 3963 C 377.237 -1.60905 -5.50361 0
M  V30 3964 N 376.733 -2.08331 -6.60735 0
M  V30 3965 N 378.526 -1.52331 -5.41065 0
M  V30 3966 H 370.677 -1.47162 -1.53158 0
M  V30 3967 H 372.94 -0.610309 -0.725415 0
M  V30 3968 H 372.646 -1.77928 -3.03372 0
M  V30 3969 H 372.52 -0.190161 -3.7672 0
M  V30 3970 H 374.907 0.343204 -2.93097 0
M  V30 3971 H 374.988 -1.2742 -2.21806 0
M  V30 3972 H 374.632 -2.28859 -4.53416 0
M  V30 3973 H 374.562 -0.64836 -5.22593 0
M  V30 3974 H 377.053 -0.863128 -3.67911 0
M  V30 3975 H 377.366 -2.36805 -7.35624 0
M  V30 3976 H 375.711 -2.12304 -6.6178 0
M  V30 3977 H 378.902 -1.151 -4.53729 0
M  V30 3978 H 379.075 -1.83704 -6.21415 0
M  V30 3979 N 372.481 1.55866 -0.233164 0
M  V30 3980 C 373.391 2.24431 0.683217 0
M  V30 3981 C 374.407 1.2558 1.2044 0
M  V30 3982 O 375.583 1.58422 1.24356 0
M  V30 3983 C 372.648 2.91979 1.86947 0
M  V30 3984 C 371.709 4.06204 1.38912 0
M  V30 3985 C 370.942 4.70522 2.51883 0
M  V30 3986 O 371.165 4.33865 3.70293 0
M  V30 3987 O 370.099 5.59296 2.22423 0
M  V30 3988 H 373.925 3.03426 0.129059 0
M  V30 3989 H 371.51 1.494 -0.0022283 0
M  V30 3990 H 373.392 3.34573 2.56201 0
M  V30 3991 H 372.067 2.15935 2.41151 0
M  V30 3992 H 370.974 3.68155 0.664259 0
M  V30 3993 H 372.307 4.84025 0.893328 0
M  V30 3994 N 373.959 -0.0401083 1.57549 0
M  V30 3995 C 375.208 -0.732108 1.87944 0
M  V30 3996 C 375.521 -1.77107 0.830206 0
M  V30 3997 O 376.727 -2.51488 1.02302 0
M  V30 3998 C 375.183 -1.35315 3.33494 0
M  V30 3999 C 374.791 -0.351105 4.46622 0
M  V30 4000 C 376.535 -2.02566 3.73051 0
M  V30 4001 C 374.442 -0.979859 5.83226 0
M  V30 4002 H 373.372 -0.277188 0.701201 0
M  V30 4003 H 376.023 0.0138501 1.83495 0
M  V30 4004 H 374.405 -2.14844 3.32653 0
M  V30 4005 H 375.579 0.416674 4.58912 0
M  V30 4006 H 373.894 0.218708 4.15825 0
M  V30 4007 H 376.491 -2.50441 4.72423 0
M  V30 4008 H 376.834 -2.83904 3.04474 0
M  V30 4009 H 377.367 -1.29827 3.76018 0
M  V30 4010 H 374.106 -0.206135 6.55176 0
M  V30 4011 H 373.626 -1.71774 5.74677 0
M  V30 4012 H 375.305 -1.49046 6.29599 0
M  V30 4013 N 375.437 -1.54477 -0.31217 0
M  V30 4014 C 376.662 -1.77526 -1.07235 0
M  V30 4015 C 377.087 -0.527775 -1.80544 0
M  V30 4016 O 376.445 0.52121 -1.73646 0
M  V30 4017 C 376.493 -2.97535 -2.03728 0
M  V30 4018 O 375.597 -2.69878 -3.11833 0
M  V30 4019 H 374.938 -0.58792 -0.30862 0
M  V30 4020 H 377.468 -2.01532 -0.352993 0
M  V30 4021 H 377.478 -3.25198 -2.46395 0
M  V30 4022 H 376.153 -3.87996 -1.49774 0
M  V30 4023 H 374.73 -2.53199 -2.7376 0
M  V30 4024 N 376.915 0.57481 -1.46744 0
M  V30 4025 C 378.163 1.33009 -1.52161 0
M  V30 4026 C 378.484 1.94185 -0.178092 0
M  V30 4027 O 377.754 1.7899 0.796196 0
M  V30 4028 H 376.334 0.493873 -0.560445 0
M  V30 4029 H 378.996 0.672589 -1.82927 0
M  V30 4030 H 378.092 2.13273 -2.27862 0
M  V30 4031 N 378.394 1.34581 0.820102 0
M  V30 4032 C 379.342 1.26401 1.95258 0
M  V30 4033 C 380.336 0.161553 1.68628 0
M  V30 4034 O 381.542 0.326703 1.7701 0
M  V30 4035 H 377.917 0.392749 0.64129 0
M  V30 4036 H 379.888 2.22105 1.99279 0
M  V30 4037 C 378.637 1.03919 3.31807 0
M  V30 4038 H 377.96 1.87984 3.52848 0
M  V30 4039 H 379.4 1.02232 4.11491 0
M  V30 4040 C 377.859 -0.257433 3.35915 0
M  V30 4041 O 378.389 -1.25784 3.81499 0
M  V30 4042 N 376.595 -0.291524 2.89134 0
M  V30 4043 H 376.142 0.523161 2.52232 0
M  V30 4044 H 376.1 -1.15883 2.92264 0
M  V30 4045 N 379.872 -1.04064 1.18357 0
M  V30 4046 C 380.835 -2.10243 0.912707 0
M  V30 4047 C 381.835 -1.60477 -0.101928 0
M  V30 4048 O 383.025 -1.73703 0.131517 0
M  V30 4049 C 380.157 -3.38893 0.369387 0
M  V30 4050 H 381.35 -2.35706 1.85426 0
M  V30 4051 H 378.903 -1.20489 0.995594 0
M  V30 4052 H 379.638 -3.19094 -0.578776 0
M  V30 4053 H 379.423 -3.76331 1.1008 0
M  V30 4054 H 380.913 -4.17128 0.198575 0
M  V30 4055 N 381.35 -0.985608 -1.22978 0
M  V30 4056 C 382.28 -0.549649 -2.26939 0
M  V30 4057 C 383.261 0.419803 -1.64838 0
M  V30 4058 O 384.446 0.31203 -1.91677 0
M  V30 4059 C 381.576 0.143652 -3.47003 0
M  V30 4060 C 380.53 -0.743606 -4.21491 0
M  V30 4061 C 379.856 0.0822027 -5.34637 0
M  V30 4062 C 381.156 -2.03694 -4.80943 0
M  V30 4063 H 382.85 -1.41862 -2.63658 0
M  V30 4064 H 380.396 -0.683571 -1.26741 0
M  V30 4065 H 382.349 0.459985 -4.18882 0
M  V30 4066 H 381.073 1.04711 -3.09359 0
M  V30 4067 H 379.732 -1.04347 -3.51436 0
M  V30 4068 H 379.38 0.986359 -4.93234 0
M  V30 4069 H 379.08 -0.508377 -5.85397 0
M  V30 4070 H 380.604 0.392797 -6.09335 0
M  V30 4071 H 382.018 -1.78504 -5.44802 0
M  V30 4072 H 380.415 -2.57573 -5.42011 0
M  V30 4073 H 381.485 -2.72042 -4.01399 0
M  V30 4074 N 382.828 1.3818 -0.7579 0
M  V30 4075 C 384.244 1.5353 -0.435972 0
M  V30 4076 C 384.444 1.71961 1.05032 0
M  V30 4077 O 383.5 1.73307 1.83633 0
M  V30 4078 C 384.813 2.73989 -1.23898 0
M  V30 4079 C 386.361 2.87841 -1.22949 0
M  V30 4080 C 386.836 4.11266 -2.01554 0
M  V30 4081 N 388.327 4.18352 -1.98837 0
M  V30 4082 C 389.062 5.12856 -2.5645 0
M  V30 4083 N 388.558 6.13005 -3.22794 0
M  V30 4084 N 390.351 5.05238 -2.46356 0
M  V30 4085 H 382.502 1.24467 -1.7211 0
M  V30 4086 H 384.765 0.604982 -0.729864 0
M  V30 4087 H 384.471 2.66789 -2.29165 0
M  V30 4088 H 384.345 3.67294 -0.858764 0
M  V30 4089 H 386.732 2.9452 -0.184854 0
M  V30 4090 H 386.813 1.95534 -1.64924 0
M  V30 4091 H 386.457 4.05349 -3.06031 0
M  V30 4092 H 386.387 5.02661 -1.5697 0
M  V30 4093 H 388.878 3.46628 -1.50524 0
M  V30 4094 H 389.191 6.81619 -3.64165 0
M  V30 4095 H 387.536 6.13325 -3.2689 0
M  V30 4096 H 390.727 4.25938 -1.9415 0
M  V30 4097 H 390.9 5.78707 -2.91552 0
M  V30 4098 N 384.306 0.507319 1.49211 0
M  V30 4099 C 385.536 -0.0315292 2.06576 0
M  V30 4100 C 385.944 -1.30791 1.36713 0
M  V30 4101 O 385.287 -1.78324 0.441181 0
M  V30 4102 C 385.349 -0.349104 3.57801 0
M  V30 4103 C 385.013 0.830475 4.49391 0
M  V30 4104 C 386.01 1.72271 4.90529 0
M  V30 4105 C 383.695 1.03107 4.91604 0
M  V30 4106 C 385.689 2.79964 5.72625 0
M  V30 4107 C 383.376 2.11116 5.73475 0
M  V30 4108 C 384.374 2.99379 6.1389 0
M  V30 4109 O 384.062 4.05523 6.94123 0
M  V30 4110 H 383.794 0.0201002 0.675701 0
M  V30 4111 H 386.348 0.705737 1.92895 0
M  V30 4112 H 384.578 -1.14005 3.69513 0
M  V30 4113 H 386.267 -0.827319 3.97379 0
M  V30 4114 H 387.033 1.57958 4.58557 0
M  V30 4115 H 382.912 0.353417 4.59643 0
M  V30 4116 H 386.456 3.48884 6.04091 0
M  V30 4117 H 382.353 2.25421 6.0486 0
M  V30 4118 H 383.121 4.02953 7.1244 0
M  V30 4119 N 385.784 -1.5574 0.241426 0
M  V30 4120 C 386.747 -2.19877 -0.647063 0
M  V30 4121 C 387.747 -1.16642 -1.10686 0
M  V30 4122 O 388.937 -1.41757 -1.01245 0
M  V30 4123 C 386.069 -2.83797 -1.88871 0
M  V30 4124 H 387.262 -2.99772 -0.087574 0
M  V30 4125 H 384.815 -1.56298 -0.00813574 0
M  V30 4126 H 385.55 -2.07824 -2.48957 0
M  V30 4127 H 385.335 -3.59414 -1.56728 0
M  V30 4128 H 386.825 -3.32898 -2.52129 0
M  V30 4129 N 387.262 0.0317525 -1.57568 0
M  V30 4130 C 388.673 0.578692 -1.77505 0
M  V30 4131 C 389.024 1.75749 -0.872164 0
M  V30 4132 O 388.149 2.16298 -0.0663106 0
M  V30 4133 C 388.744 1.05658 -3.21904 0
M  V30 4134 C 387.303 1.54906 -3.43047 0
M  V30 4135 C 386.45 0.485939 -2.73009 0
M  V30 4136 H 389.401 -0.194475 -1.57504 0
M  V30 4137 H 389.422 1.92404 -3.28269 0
M  V30 4138 H 388.934 0.198422 -3.87592 0
M  V30 4139 H 387.035 2.42915 -2.82529 0
M  V30 4140 H 387.148 1.59841 -4.5165 0
M  V30 4141 H 385.512 0.940354 -2.36705 0
M  V30 4142 H 386.295 -0.362709 -3.41379 0
M  V30 4143 N 388.74 1.54641 0.303973 0
M  V30 4144 C 390.017 1.64455 1.05896 0
M  V30 4145 C 390.397 0.490923 2.05312 0
M  V30 4146 O 389.745 -0.512685 2.22674 0
M  V30 4147 C 389.955 3.02331 1.74347 0
M  V30 4148 C 391.303 3.59045 2.26653 0
M  V30 4149 O 392.327 3.04764 1.84384 0
M  V30 4150 O 391.186 4.54081 3.04093 0
M  V30 4151 H 388.28 0.666729 0.489287 0
M  V30 4152 H 390.826 1.66986 0.302298 0
M  V30 4153 H 389.598 3.77734 1.02142 0
M  V30 4154 H 389.221 3.03565 2.56777 0
M  V30 4155 N 390.218 -0.567019 1.47046 0
M  V30 4156 C 391.466 -1.322 1.52864 0
M  V30 4157 C 391.787 -1.94088 0.188388 0
M  V30 4158 O 391.057 -1.7941 -0.786693 0
M  V30 4159 H 389.637 -0.490894 0.563056 0
M  V30 4160 H 392.299 -0.662879 1.83281 0
M  V30 4161 H 391.395 -2.12062 2.2899 0
M  V30 4162 N 391.696 -1.35014 -0.812953 0
M  V30 4163 C 392.945 -1.27269 -1.56479 0
M  V30 4164 C 393.258 0.152771 -1.95002 0
M  V30 4165 O 394.464 0.352451 -2.69203 0
M  V30 4166 C 392.92 -2.23159 -2.82362 0
M  V30 4167 C 392.528 -3.71016 -2.511 0
M  V30 4168 C 394.272 -2.24342 -3.60376 0
M  V30 4169 C 392.179 -4.58746 -3.73237 0
M  V30 4170 H 391.109 -0.472829 -0.587324 0
M  V30 4171 H 393.76 -1.6024 -0.894171 0
M  V30 4172 H 392.142 -1.83151 -3.51101 0
M  V30 4173 H 393.316 -4.1962 -1.90409 0
M  V30 4174 H 391.631 -3.72378 -1.86343 0
M  V30 4175 H 394.228 -2.87107 -4.51081 0
M  V30 4176 H 394.571 -1.24542 -3.97234 0
M  V30 4177 H 395.104 -2.62846 -2.98591 0
M  V30 4178 H 391.843 -5.59521 -3.41492 0
M  V30 4179 H 391.363 -4.14871 -4.33176 0
M  V30 4180 H 393.042 -4.73852 -4.40537 0
M  V30 4181 N 393.175 1.03435 -1.18907 0
M  V30 4182 C 394.105 2.13503 -0.945448 0
M  V30 4183 C 395.086 1.69682 0.119189 0
M  V30 4184 O 396.271 1.94169 -0.034707 0
M  V30 4185 C 393.401 3.44004 -0.477316 0
M  V30 4186 C 392.355 4.0148 -1.48316 0
M  V30 4187 C 391.681 5.27537 -0.872311 0
M  V30 4188 C 392.981 4.36921 -2.86177 0
M  V30 4189 H 394.675 2.34141 -1.86597 0
M  V30 4190 H 392.221 1.12523 -0.898584 0
M  V30 4191 H 394.174 4.20372 -0.294204 0
M  V30 4192 H 392.898 3.23072 0.478786 0
M  V30 4193 H 391.557 3.27201 -1.65332 0
M  V30 4194 H 391.205 5.02917 0.0911752 0
M  V30 4195 H 390.905 5.66954 -1.54393 0
M  V30 4196 H 392.429 6.06576 -0.699871 0
M  V30 4197 H 393.843 5.04248 -2.72776 0
M  V30 4198 H 392.24 4.87405 -3.50081 0
M  V30 4199 H 393.31 3.46466 -3.39248 0
M  V30 4200 N 394.653 0.992116 1.22453 0
M  V30 4201 C 395.901 0.666215 1.90804 0
M  V30 4202 C 396.222 -0.804152 1.77647 0
M  V30 4203 O 395.492 -1.57629 1.16318 0
M  V30 4204 H 394.072 0.243423 0.706225 0
M  V30 4205 H 396.734 1.25845 1.48825 0
M  V30 4206 H 395.83 0.928069 2.97982 0
M  V30 4207 N 396.131 -1.37776 0.765217 0
M  V30 4208 C 397.061 -2.32945 0.160953 0
M  V30 4209 C 398.042 -1.55454 -0.690516 0
M  V30 4210 O 399.227 -1.83721 -0.629318 0
M  V30 4211 C 396.357 -3.39669 -0.724031 0
M  V30 4212 C 395.311 -4.27992 0.0256173 0
M  V30 4213 C 394.637 -5.25673 -0.978383 0
M  V30 4214 C 395.937 -5.08309 1.20082 0
M  V30 4215 H 397.631 -2.83728 0.955969 0
M  V30 4216 H 395.177 -1.36416 0.461149 0
M  V30 4217 H 397.13 -4.05219 -1.15652 0
M  V30 4218 H 395.854 -2.87396 -1.5515 0
M  V30 4219 H 394.513 -3.63964 0.438812 0
M  V30 4220 H 394.161 -4.69682 -1.80022 0
M  V30 4221 H 393.861 -5.85625 -0.481378 0
M  V30 4222 H 395.385 -5.94098 -1.40995 0
M  V30 4223 H 396.799 -5.67034 0.845307 0
M  V30 4224 H 395.196 -5.77554 1.62947 0
M  V30 4225 H 396.266 -4.41365 2.00811 0
M  V30 4226 N 397.609 -0.515225 -1.4894 0
M  V30 4227 C 398.541 0.292481 -2.27326 0
M  V30 4228 C 399.554 0.917838 -1.3446 0
M  V30 4229 O 400.743 0.798772 -1.5963 0
M  V30 4230 C 397.843 1.42803 -3.07344 0
M  V30 4231 C 397.016 0.907347 -4.27885 0
M  V30 4232 C 396.075 1.92222 -4.89834 0
M  V30 4233 O 395.101 1.48506 -5.49486 0
M  V30 4234 N 396.303 3.25355 -4.80754 0
M  V30 4235 H 399.068 -0.379721 -2.97285 0
M  V30 4236 H 396.629 -0.348638 -1.58102 0
M  V30 4237 H 398.621 2.10481 -3.45658 0
M  V30 4238 H 397.191 2.00414 -2.39902 0
M  V30 4239 H 396.411 0.0550218 -3.94162 0
M  V30 4240 H 397.699 0.538108 -5.05946 0
M  V30 4241 H 397.097 3.6355 -4.33414 0
M  V30 4242 H 395.654 3.88707 -5.23211 0
M  V30 4243 N 399.087 1.5561 -0.249682 0
M  V30 4244 C 400.017 2.24477 0.642826 0
M  V30 4245 C 400.998 1.22601 1.17911 0
M  V30 4246 O 402.183 1.5126 1.21795 0
M  V30 4247 C 399.313 2.94638 1.83863 0
M  V30 4248 C 398.267 4.03227 1.435 0
M  V30 4249 C 397.593 4.60828 2.71186 0
M  V30 4250 C 398.893 5.18796 0.604002 0
M  V30 4251 H 400.587 2.99321 0.0685625 0
M  V30 4252 H 398.133 1.43965 0.0315363 0
M  V30 4253 H 400.086 3.41517 2.46868 0
M  V30 4254 H 398.81 2.17287 2.43832 0
M  V30 4255 H 397.469 3.57121 0.828275 0
M  V30 4256 H 397.117 3.80174 3.29358 0
M  V30 4257 H 396.817 5.34132 2.44901 0
M  V30 4258 H 398.341 5.10442 3.35084 0
M  V30 4259 H 399.755 5.61883 1.13842 0
M  V30 4260 H 398.152 5.98506 0.437097 0
M  V30 4261 H 399.222 4.83384 -0.383147 0
M  V30 4262 N 400.565 -0.0233959 1.57583 0
M  V30 4263 C 401.814 -0.712133 1.8871 0
M  V30 4264 C 402.127 -1.76217 0.848944 0
M  V30 4265 O 403.333 -2.50389 1.04964 0
M  V30 4266 C 401.789 -1.3177 3.3491 0
M  V30 4267 C 401.397 -0.303715 4.46969 0
M  V30 4268 C 403.141 -1.98598 3.75179 0
M  V30 4269 C 401.048 -0.917945 5.84233 0
M  V30 4270 H 399.978 -0.269735 0.704101 0
M  V30 4271 H 402.629 0.0333114 1.8347 0
M  V30 4272 H 401.011 -2.11304 3.34913 0
M  V30 4273 H 402.185 0.465325 4.58445 0
M  V30 4274 H 400.5 0.2628 4.1557 0
M  V30 4275 H 403.097 -2.45416 4.75053 0
M  V30 4276 H 403.44 -2.80659 3.07468 0
M  V30 4277 H 403.973 -1.25831 3.77374 0
M  V30 4278 H 400.712 -0.136633 6.55358 0
M  V30 4279 H 400.232 -1.65669 5.76467 0
M  V30 4280 H 401.911 -1.4236 6.31144 0
M  V30 4281 N 402.043 -1.548 -0.295768 0
M  V30 4282 C 402.991 -1.86874 -1.38495 0
M  V30 4283 C 403.985 -0.742938 -1.52239 0
M  V30 4284 O 405.191 -0.926999 -1.54294 0
M  V30 4285 H 401.566 -0.592786 -0.462719 0
M  V30 4286 H 403.537 -2.77904 -1.08682 0
M  V30 4287 C 402.286 -2.13732 -2.74252 0
M  V30 4288 H 401.609 -2.99835 -2.64459 0
M  V30 4289 H 403.049 -2.4011 -3.49461 0
M  V30 4290 C 401.508 -0.937539 -3.23592 0
M  V30 4291 O 402.038 -0.160665 -4.01379 0
M  V30 4292 N 400.244 -0.741478 -2.80981 0
M  V30 4293 H 399.791 -1.37489 -2.1784 0
M  V30 4294 H 399.749 0.0597103 -3.14343 0
M  V30 4295 N 403.521 0.559213 -1.47345 0
M  V30 4296 C 404.769 1.31388 -1.53563 0
M  V30 4297 C 405.09 1.93985 -0.198678 0
M  V30 4298 O 404.36 1.79825 0.777167 0
M  V30 4299 H 402.94 0.487901 -0.565652 0
M  V30 4300 H 405.602 0.65315 -1.8363 0
M  V30 4301 H 404.698 2.10844 -2.30111 0
M  V30 4302 N 404.999 1.35443 0.805782 0
M  V30 4303 C 405.946 1.28431 1.91766 0
M  V30 4304 C 406.916 0.156102 1.65365 0
M  V30 4305 O 408.101 0.339936 1.87747 0
M  V30 4306 C 405.241 1.06301 3.2832 0
M  V30 4307 C 404.354 2.2805 3.66902 0
M  V30 4308 C 403.489 1.99064 4.92491 0
M  V30 4309 C 402.528 3.16863 5.23703 0
M  V30 4310 N 401.665 2.87647 6.40471 0
M  V30 4311 H 406.505 2.23511 1.97096 0
M  V30 4312 H 404.042 1.11105 0.964054 0
M  V30 4313 H 406 0.915012 4.07042 0
M  V30 4314 H 404.63 0.148822 3.22457 0
M  V30 4315 H 403.682 2.53711 2.83434 0
M  V30 4316 H 404.994 3.1601 3.85927 0
M  V30 4317 H 404.148 1.81099 5.7904 0
M  V30 4318 H 402.887 1.0839 4.75503 0
M  V30 4319 H 401.892 3.35404 4.35642 0
M  V30 4320 H 403.117 4.08339 5.4262 0
M  V30 4321 H 401.063 1.99568 6.24907 0
M  V30 4322 H 400.98 3.69141 6.59751 0
M  V30 4323 H 402.248 2.73226 7.30047 0
M  V30 4324 N 406.477 -1.02803 1.19454 0
M  V30 4325 C 407.425 -2.13213 0.929673 0
M  V30 4326 C 408.419 -1.69011 -0.114806 0
M  V30 4327 O 409.625 -1.79967 0.0345147 0
M  V30 4328 H 406 -0.69662 0.28324 0
M  V30 4329 H 407.971 -2.32744 1.86743 0
M  V30 4330 C 406.72 -3.4429 0.485797 0
M  V30 4331 H 406.043 -3.7872 1.28105 0
M  V30 4332 H 407.483 -4.22638 0.339582 0
M  V30 4333 C 405.942 -3.27258 -0.800244 0
M  V30 4334 O 406.472 -3.55967 -1.86146 0
M  V30 4335 N 404.678 -2.80545 -0.75781 0
M  V30 4336 H 404.225 -2.57382 0.106039 0
M  V30 4337 H 404.183 -2.6953 -1.61867 0
M  V30 4338 N 407.956 -0.998596 -1.21925 0
M  V30 4339 C 408.866 -0.562736 -2.27751 0
M  V30 4340 C 409.882 0.391203 -1.69545 0
M  V30 4341 O 411.058 0.256625 -1.99758 0
M  V30 4342 C 408.123 0.11012 -3.46525 0
M  V30 4343 C 407.184 -0.887495 -4.20026 0
M  V30 4344 C 406.417 -0.246654 -5.3313 0
M  V30 4345 O 406.64 0.958088 -5.62296 0
M  V30 4346 O 405.574 -0.954374 -5.94286 0
M  V30 4347 H 409.4 -1.44329 -2.67213 0
M  V30 4348 H 406.985 -0.767135 -1.28201 0
M  V30 4349 H 408.867 0.486756 -4.18579 0
M  V30 4350 H 407.542 0.965154 -3.08976 0
M  V30 4351 H 406.449 -1.31517 -3.5022 0
M  V30 4352 H 407.782 -1.71191 -4.6147 0
M  V30 4353 N 409.434 1.37368 -0.772513 0
M  V30 4354 C 410.659 2.0447 -0.347386 0
M  V30 4355 C 411.084 1.57882 1.0225 0
M  V30 4356 O 410.442 0.73941 1.65537 0
M  V30 4357 C 410.49 3.58369 -0.400479 0
M  V30 4358 O 409.594 4.0803 0.598789 0
M  V30 4359 H 408.935 0.646773 -0.15027 0
M  V30 4360 H 411.465 1.75667 -1.04892 0
M  V30 4361 H 411.475 4.07183 -0.258045 0
M  V30 4362 H 410.15 3.91633 -1.39986 0
M  V30 4363 H 408.727 3.70534 0.419411 0
M  V30 4364 N 410.912 0.523116 1.48665 0
M  V30 4365 C 411.875 -0.232592 2.28017 0
M  V30 4366 C 412.875 -0.874021 1.34972 0
M  V30 4367 O 414.065 -0.735132 1.57929 0
M  V30 4368 C 411.197 -1.33586 3.13636 0
M  V30 4369 H 412.39 0.464008 2.96289 0
M  V30 4370 H 409.943 0.278816 1.53793 0
M  V30 4371 H 410.678 -2.06593 2.4998 0
M  V30 4372 H 410.463 -0.881125 3.82071 0
M  V30 4373 H 411.953 -1.86759 3.73511 0
M  V30 4374 N 412.39 -1.55475 0.257931 0
M  V30 4375 C 413.34 -2.18506 -0.651094 0
M  V30 4376 C 414.324 -1.14431 -1.13112 0
M  V30 4377 O 415.516 -1.40305 -1.07905 0
M  V30 4378 C 412.645 -2.89653 -1.84272 0
M  V30 4379 C 411.731 -4.00996 -1.38068 0
M  V30 4380 N 412.122 -5.01816 -0.633609 0
M  V30 4381 C 410.42 -4.13753 -1.66506 0
M  V30 4382 C 411.121 -5.80371 -0.392922 0
M  V30 4383 N 410.097 -5.3505 -0.960359 0
M  V30 4384 H 413.899 -2.93811 -0.0722883 0
M  V30 4385 H 411.413 -1.62286 0.0607256 0
M  V30 4386 H 413.41 -3.33245 -2.50506 0
M  V30 4387 H 412.07 -2.15854 -2.42564 0
M  V30 4388 H 413.081 -5.17128 -0.282626 0
M  V30 4389 H 409.758 -3.51133 -2.25858 0
M  V30 4390 H 411.148 -6.7159 0.204235 0
M  V30 4391 N 413.868 0.0150385 -1.57593 0
M  V30 4392 C 415.117 0.702115 -1.89085 0
M  V30 4393 C 415.43 1.75764 -0.858277 0
M  V30 4394 O 416.636 2.49829 -1.0629 0
M  V30 4395 C 415.092 1.29992 -3.35604 0
M  V30 4396 C 414.7 0.280007 -4.47124 0
M  V30 4397 C 416.444 1.96606 -3.76227 0
M  V30 4398 C 414.351 0.886949 -5.84711 0
M  V30 4399 H 413.281 0.265997 -0.705522 0
M  V30 4400 H 415.932 -0.0430408 -1.8345 0
M  V30 4401 H 414.314 2.09525 -3.36029 0
M  V30 4402 H 415.488 -0.489631 -4.58191 0
M  V30 4403 H 413.803 -0.284835 -4.15425 0
M  V30 4404 H 416.4 2.42893 -4.76347 0
M  V30 4405 H 416.743 2.79024 -3.08952 0
M  V30 4406 H 417.276 1.23828 -3.78036 0
M  V30 4407 H 414.015 0.101876 -6.55421 0
M  V30 4408 H 413.535 1.6261 -5.77337 0
M  V30 4409 H 415.214 1.39011 -6.3189 0
M  V30 4410 N 415.346 1.54954 0.287554 0
M  V30 4411 C 416.571 1.79209 1.04397 0
M  V30 4412 C 416.996 0.556431 1.79682 0
M  V30 4413 O 416.354 -0.493518 1.74454 0
M  V30 4414 C 416.402 3.00739 1.98969 0
M  V30 4415 O 415.506 2.74805 3.075 0
M  V30 4416 H 414.847 0.592755 0.299227 0
M  V30 4417 H 417.377 2.02068 0.320886 0
M  V30 4418 H 417.387 3.29077 2.4119 0
M  V30 4419 H 416.062 3.90329 1.43582 0
M  V30 4420 H 414.639 2.57523 2.69697 0
M  V30 4421 N 416.824 -0.551391 1.4764 0
M  V30 4422 C 418.101 -1.31229 1.45046 0
M  V30 4423 C 418.481 -2.10563 0.150527 0
M  V30 4424 O 417.829 -2.11374 -0.867956 0
M  V30 4425 C 418.039 -2.21189 2.69956 0
M  V30 4426 C 419.387 -2.82021 3.1741 0
M  V30 4427 O 420.411 -2.31488 2.70724 0
M  V30 4428 O 419.27 -3.73885 3.98588 0
M  V30 4429 H 416.364 -0.591193 0.578291 0
M  V30 4430 H 418.91 -0.569813 1.59847 0
M  V30 4431 H 417.682 -1.62207 3.56096 0
M  V30 4432 H 417.305 -3.02722 2.57769 0
M  V30 4433 N 418.302 -1.35869 -0.798587 0
M  V30 4434 C 419.265 -1.29307 -1.89242 0
M  V30 4435 C 420.265 -0.202747 -1.59517 0
M  V30 4436 O 421.455 -0.456957 -1.681 0
M  V30 4437 C 418.587 -1.00229 -3.25833 0
M  V30 4438 H 419.78 -2.26576 -1.96478 0
M  V30 4439 H 417.333 -1.20509 -0.995358 0
M  V30 4440 H 418.068 -0.033801 -3.24282 0
M  V30 4441 H 417.853 -1.79121 -3.48795 0
M  V30 4442 H 419.343 -0.98219 -4.05885 0
M  V30 4443 N 419.78 1.02168 -1.19998 0
M  V30 4444 C 421.026 1.75945 -1.00852 0
M  V30 4445 C 421.359 1.88702 0.458828 0
M  V30 4446 O 420.634 1.40911 1.34069 0
M  V30 4447 C 420.917 3.18154 -1.68671 0
M  V30 4448 C 420.77 3.13224 -3.22817 0
M  V30 4449 C 422.089 4.16711 -1.41561 0
M  V30 4450 H 419.208 0.638673 -0.367785 0
M  V30 4451 H 421.85 1.19222 -1.4794 0
M  V30 4452 H 420 3.66586 -1.28636 0
M  V30 4453 H 421.672 2.72635 -3.72112 0
M  V30 4454 H 419.915 2.50751 -3.53986 0
M  V30 4455 H 420.586 4.13728 -3.65422 0
M  V30 4456 H 423.062 3.76913 -1.76284 0
M  V30 4457 H 421.938 5.14391 -1.91553 0
M  V30 4458 H 422.199 4.40774 -0.342193 0
M  V30 4459 N 421.258 1.00505 1.21394 0
M  V30 4460 C 422.506 0.686415 1.90086 0
M  V30 4461 C 422.827 -0.785264 1.7849 0
M  V30 4462 O 422.097 -1.56387 1.17983 0
M  V30 4463 H 420.677 0.2509 0.703604 0
M  V30 4464 H 423.339 1.27417 1.47482 0
M  V30 4465 H 422.435 0.959621 2.96981 0
M  V30 4466 N 422.737 -1.36956 0.779787 0
M  V30 4467 C 423.983 -1.99787 0.348281 0
M  V30 4468 C 424.316 -1.61756 -1.07465 0
M  V30 4469 O 423.591 -0.867639 -1.74075 0
M  V30 4470 C 423.874 -3.56597 0.50104 0
M  V30 4471 C 423.727 -4.04513 1.96697 0
M  V30 4472 C 425.046 -4.40008 -0.0898097 0
M  V30 4473 H 422.165 -0.725796 0.128022 0
M  V30 4474 H 424.807 -1.62514 0.984331 0
M  V30 4475 H 422.957 -3.88479 -0.0404347 0
M  V30 4476 H 424.629 -3.83161 2.56876 0
M  V30 4477 H 422.872 -3.56408 2.47297 0
M  V30 4478 H 423.543 -5.1352 2.02486 0
M  V30 4479 H 426.019 -4.14431 0.372293 0
M  V30 4480 H 424.895 -5.4888 0.0471605 0
M  V30 4481 H 425.156 -4.26035 -1.18096 0
M  V30 4482 N 424.215 -0.530993 -1.48385 0
M  V30 4483 C 425.461 0.00274135 -2.028 0
M  V30 4484 C 425.794 1.33838 -1.40716 0
M  V30 4485 O 425.069 1.86465 -0.553277 0
M  V30 4486 C 425.352 0.123676 -3.59888 0
M  V30 4487 C 425.205 -1.2372 -4.3245 0
M  V30 4488 C 426.524 0.849967 -4.31814 0
M  V30 4489 H 423.643 -0.000477758 -0.737 0
M  V30 4490 H 426.285 -0.688217 -1.77098 0
M  V30 4491 H 424.435 0.712157 -3.81917 0
M  V30 4492 H 426.107 -1.86687 -4.21836 0
M  V30 4493 H 424.35 -1.81882 -3.93829 0
M  V30 4494 H 425.021 -1.10557 -5.40815 0
M  V30 4495 H 427.497 0.350572 -4.14621 0
M  V30 4496 H 426.373 0.903486 -5.41413 0
M  V30 4497 H 426.634 1.90047 -3.99167 0
M  V30 4498 N 425.693 1.55336 -0.266172 0
M  V30 4499 C 426.656 2.20878 0.612001 0
M  V30 4500 C 427.656 1.18388 1.08816 0
M  V30 4501 O 428.846 1.4335 0.989774 0
M  V30 4502 C 425.978 2.86765 1.84332 0
M  V30 4503 H 427.171 2.99873 0.0398718 0
M  V30 4504 H 424.724 1.56291 -0.0167309 0
M  V30 4505 H 425.459 2.11759 2.45619 0
M  V30 4506 H 425.244 3.61862 1.5099 0
M  V30 4507 H 426.734 3.36867 2.46801 0
M  V30 4508 N 427.171 -0.0066808 1.57599 0
M  V30 4509 C 428.103 -1.02827 2.04839 0
M  V30 4510 C 429.116 -1.31108 0.965113 0
M  V30 4511 O 430.305 -1.28202 1.24203 0
M  V30 4512 C 427.405 -2.36464 2.42771 0
M  V30 4513 C 426.578 -2.27219 3.73751 0
M  V30 4514 C 425.637 -3.43489 3.98625 0
M  V30 4515 O 424.663 -3.21976 4.69382 0
M  V30 4516 N 425.865 -4.66116 3.46 0
M  V30 4517 H 428.63 -0.625455 2.93101 0
M  V30 4518 H 426.191 -0.194198 1.60731 0
M  V30 4519 H 428.183 -3.13008 2.56531 0
M  V30 4520 H 426.753 -2.68512 1.60063 0
M  V30 4521 H 425.973 -1.35629 3.70133 0
M  V30 4522 H 427.261 -2.18208 4.59633 0
M  V30 4523 H 426.659 -4.86493 2.88688 0
M  V30 4524 H 425.216 -5.39949 3.65101 0
M  V30 4525 N 428.649 -1.55105 -0.279332 0
M  V30 4526 C 429.612 -1.86783 -1.32834 0
M  V30 4527 C 430.612 -0.74199 -1.42657 0
M  V30 4528 O 431.802 -1.0102 -1.41918 0
M  V30 4529 C 428.934 -2.06746 -2.71052 0
M  V30 4530 H 430.127 -2.8055 -1.05979 0
M  V30 4531 H 427.68 -1.47499 -0.517087 0
M  V30 4532 H 428.415 -1.15339 -3.03097 0
M  V30 4533 H 428.2 -2.88711 -2.65309 0
M  V30 4534 H 429.69 -2.32549 -3.46858 0
M  V30 4535 N 430.127 0.543554 -1.4793 0
M  V30 4536 C 431.373 1.30201 -1.55485 0
M  V30 4537 C 431.706 1.92925 -0.222201 0
M  V30 4538 O 430.981 1.78586 0.77053 0
M  V30 4539 C 431.264 2.40174 -2.68307 0
M  V30 4540 C 431.117 1.8223 -4.11233 0
M  V30 4541 C 432.436 3.42024 -2.76961 0
M  V30 4542 H 429.555 0.472036 -0.565996 0
M  V30 4543 H 432.197 0.606914 -1.80046 0
M  V30 4544 H 430.347 2.99463 -2.47495 0
M  V30 4545 H 432.019 1.27096 -4.43446 0
M  V30 4546 H 430.262 1.12832 -4.18869 0
M  V30 4547 H 430.933 2.61793 -4.85972 0
M  V30 4548 H 433.409 2.92672 -2.95774 0
M  V30 4549 H 432.285 4.16383 -3.57654 0
M  V30 4550 H 432.546 4.0173 -1.84568 0
M  V30 4551 N 431.605 1.3629 0.791371 0
M  V30 4552 C 432.555 1.26988 1.89362 0
M  V30 4553 C 433.539 0.161795 1.60084 0
M  V30 4554 O 434.731 0.394426 1.72549 0
M  V30 4555 C 431.86 1.05944 3.26544 0
M  V30 4556 C 430.946 2.21211 3.61838 0
M  V30 4557 N 431.337 3.46518 3.68455 0
M  V30 4558 C 429.635 2.12933 3.91887 0
M  V30 4559 C 430.336 4.2241 3.99931 0
M  V30 4560 N 429.312 3.51329 4.14812 0
M  V30 4561 H 433.114 2.21908 1.92702 0
M  V30 4562 H 430.628 1.28982 0.986787 0
M  V30 4563 H 432.625 0.973666 4.05371 0
M  V30 4564 H 431.285 0.119223 3.24481 0
M  V30 4565 H 432.296 3.80677 3.51148 0
M  V30 4566 H 428.973 1.26855 3.97761 0
M  V30 4567 H 430.363 5.30767 4.1199 0
M  V30 4568 N 433.083 -1.0153 1.20538 0
M  V30 4569 C 433.993 -2.13557 0.971113 0
M  V30 4570 C 435.009 -1.73845 -0.0734366 0
M  V30 4571 O 436.185 -2.01075 0.114299 0
M  V30 4572 C 433.25 -3.42661 0.527639 0
M  V30 4573 C 432.311 -3.96608 1.64319 0
M  V30 4574 C 431.544 -5.1955 1.22078 0
M  V30 4575 O 431.767 -5.70329 0.0900198 0
M  V30 4576 O 430.701 -5.66681 2.02871 0
M  V30 4577 H 434.527 -2.3619 1.90913 0
M  V30 4578 H 432.112 -1.11946 0.989362 0
M  V30 4579 H 433.994 -4.20404 0.289621 0
M  V30 4580 H 432.669 -3.21441 -0.381779 0
M  V30 4581 H 431.576 -3.20139 1.93551 0
M  V30 4582 H 432.909 -4.22219 2.52966 0
M  V30 4583 N 434.561 -1.01147 -1.20859 0
M  V30 4584 C 435.491 -0.597663 -2.25722 0
M  V30 4585 C 436.472 0.384744 -1.65692 0
M  V30 4586 O 437.657 0.271303 -1.92296 0
M  V30 4587 C 434.787 0.0700149 -3.47229 0
M  V30 4588 C 433.741 -0.832843 -4.19819 0
M  V30 4589 C 433.067 -0.0312202 -5.34691 0
M  V30 4590 C 434.367 -2.1385 -4.76514 0
M  V30 4591 H 436.061 -1.47423 -2.60589 0
M  V30 4592 H 433.607 -0.710301 -1.25263 0
M  V30 4593 H 435.56 0.37103 -4.19763 0
M  V30 4594 H 434.284 0.981259 -3.11511 0
M  V30 4595 H 432.943 -1.11778 -3.49144 0
M  V30 4596 H 432.591 0.881515 -4.95215 0
M  V30 4597 H 432.291 -0.632434 -5.84187 0
M  V30 4598 H 433.815 0.26346 -6.10031 0
M  V30 4599 H 435.229 -1.9002 -5.40893 0
M  V30 4600 H 433.626 -2.69012 -5.36426 0
M  V30 4601 H 434.696 -2.80495 -3.95538 0
M  V30 4602 N 436.039 1.36541 -0.78704 0
M  V30 4603 C 436.969 2.32659 -0.197992 0
M  V30 4604 C 437.95 1.56533 0.665697 0
M  V30 4605 O 439.135 1.84698 0.60001 0
M  V30 4606 C 436.265 3.40778 0.669901 0
M  V30 4607 C 435.219 4.27897 -0.0937039 0
M  V30 4608 C 434.545 5.27163 0.894629 0
M  V30 4609 C 435.845 5.06334 -1.28154 0
M  V30 4610 H 437.539 2.82171 -1.00099 0
M  V30 4611 H 435.085 1.35665 -0.482793 0
M  V30 4612 H 437.038 4.07008 1.09191 0
M  V30 4613 H 435.762 2.89827 1.50558 0
M  V30 4614 H 434.421 3.6322 -0.49666 0
M  V30 4615 H 434.069 4.72486 1.72527 0
M  V30 4616 H 433.769 5.86317 0.388149 0
M  V30 4617 H 435.293 5.96266 1.31525 0
M  V30 4618 H 436.707 5.65617 -0.93541 0
M  V30 4619 H 435.104 5.74888 -1.72115 0
M  V30 4620 H 436.174 4.38114 -2.07807 0
M  V30 4621 N 437.518 0.538854 1.48102 0
M  V30 4622 C 438.428 -0.222648 2.33541 0
M  V30 4623 C 439.444 -0.930225 1.47047 0
M  V30 4624 O 440.62 -0.903211 1.80011 0
M  V30 4625 C 437.685 -1.25064 3.23357 0
M  V30 4626 C 436.746 -0.552469 4.2573 0
M  V30 4627 C 435.979 -1.53149 5.11254 0
M  V30 4628 O 436.202 -2.76487 4.9891 0
M  V30 4629 O 435.136 -1.06602 5.92385 0
M  V30 4630 H 438.962 0.477707 2.99919 0
M  V30 4631 H 436.547 0.299669 1.46364 0
M  V30 4632 H 438.429 -1.8445 3.78888 0
M  V30 4633 H 437.104 -1.93325 2.59629 0
M  V30 4634 H 436.011 0.082114 3.7401 0
M  V30 4635 H 437.344 0.0883526 4.92121 0
M  V30 4636 N 438.996 -1.55193 0.274407 0
M  V30 4637 C 439.943 -2.225 -0.613374 0
M  V30 4638 C 440.913 -1.19823 -1.15029 0
M  V30 4639 O 442.098 -1.48362 -1.19973 0
M  V30 4640 C 439.238 -2.94927 -1.79199 0
M  V30 4641 C 438.351 -4.12322 -1.28899 0
M  V30 4642 C 437.486 -4.72394 -2.42934 0
M  V30 4643 C 436.525 -5.81984 -1.89634 0
M  V30 4644 N 435.662 -6.36123 -2.9714 0
M  V30 4645 H 440.502 -2.97982 -0.032756 0
M  V30 4646 H 438.039 -1.47099 -0.00440146 0
M  V30 4647 H 439.997 -3.35134 -2.48478 0
M  V30 4648 H 438.627 -2.2187 -2.34465 0
M  V30 4649 H 437.679 -3.7724 -0.489327 0
M  V30 4650 H 438.991 -4.91355 -0.858587 0
M  V30 4651 H 438.145 -5.15317 -3.20208 0
M  V30 4652 H 436.884 -3.92636 -2.8929 0
M  V30 4653 H 435.889 -5.38511 -1.1084 0
M  V30 4654 H 437.114 -6.6361 -1.44215 0
M  V30 4655 H 435.06 -5.59259 -3.42878 0
M  V30 4656 H 434.977 -7.10427 -2.58515 0
M  V30 4657 H 436.245 -6.83704 -3.74391 0
M  V30 4658 N 440.474 -0.00167713 -1.576 0
M  V30 4659 C 441.384 1.00548 -2.1196 0
M  V30 4660 C 442.4 1.3758 -1.06526 0
M  V30 4661 O 443.576 1.46278 -1.38436 0
M  V30 4662 C 440.641 2.27809 -2.6135 0
M  V30 4663 C 439.702 1.97074 -3.81393 0
M  V30 4664 C 438.935 3.18267 -4.28417 0
M  V30 4665 O 439.158 4.30009 -3.74765 0
M  V30 4666 O 438.092 3.02167 -5.20556 0
M  V30 4667 H 441.918 0.573373 -2.98238 0
M  V30 4668 H 439.503 0.217255 -1.47812 0
M  V30 4669 H 441.385 3.02568 -2.93309 0
M  V30 4670 H 440.06 2.70254 -1.78169 0
M  V30 4671 H 438.967 1.19785 -3.54404 0
M  V30 4672 H 440.3 1.59464 -4.65652 0
M  V30 4673 N 441.952 1.55251 0.271103 0
M  V30 4674 C 442.9 1.89054 1.35504 0
M  V30 4675 C 443.894 0.767064 1.51038 0
M  V30 4676 O 445.1 0.951429 1.528 0
M  V30 4677 H 441.475 0.600072 0.45323 0
M  V30 4678 H 443.446 2.79598 1.04247 0
M  V30 4679 C 442.195 2.18068 2.70817 0
M  V30 4680 H 441.518 3.04005 2.59656 0
M  V30 4681 H 442.958 2.4564 3.45597 0
M  V30 4682 C 441.417 0.988901 3.2206 0
M  V30 4683 O 441.947 0.224501 4.01072 0
M  V30 4684 N 440.153 0.786085 2.79766 0
M  V30 4685 H 439.7 1.40937 2.15626 0
M  V30 4686 H 439.658 -0.00969349 3.14399 0
M  V30 4687 N 443.43 -0.535701 1.48216 0
M  V30 4688 C 444.679 -1.28828 1.55197 0
M  V30 4689 C 444.992 -1.94263 0.228278 0
M  V30 4690 O 446.198 -2.70927 0.176278 0
M  V30 4691 C 444.654 -2.33727 2.73678 0
M  V30 4692 C 444.262 -1.74386 4.12666 0
M  V30 4693 C 446.006 -3.1003 2.89968 0
M  V30 4694 C 443.913 -2.77192 5.22416 0
M  V30 4695 H 442.843 -0.484484 0.577747 0
M  V30 4696 H 445.494 -0.56646 1.74538 0
M  V30 4697 H 443.876 -3.08919 2.4776 0
M  V30 4698 H 445.05 -1.05421 4.48579 0
M  V30 4699 H 443.365 -1.10595 4.01445 0
M  V30 4700 H 445.962 -3.86842 3.6913 0
M  V30 4701 H 446.305 -3.65542 1.9921 0
M  V30 4702 H 446.838 -2.41952 3.15759 0
M  V30 4703 H 443.577 -2.26507 6.15122 0
M  V30 4704 H 443.097 -3.44502 4.90998 0
M  V30 4705 H 444.776 -3.40285 5.50286 0
M  V30 4706 N 444.908 -1.36708 -0.784132 0
M  V30 4707 C 446.136 -1.34398 -1.57305 0
M  V30 4708 C 446.551 0.0735577 -1.88657 0
M  V30 4709 O 445.908 1.03193 -1.50524 0
M  V30 4710 C 445.959 -2.17053 -2.89085 0
M  V30 4711 O 445.68 -3.53281 -2.59083 0
M  V30 4712 C 447.181 -2.22583 -3.83369 0
M  V30 4713 H 444.401 -0.460819 -0.487736 0
M  V30 4714 H 446.945 -1.79879 -0.972819 0
M  V30 4715 H 445.1 -1.75113 -3.45564 0
M  V30 4716 H 445.514 -3.9647 -3.43383 0
M  V30 4717 H 446.988 -2.84763 -4.72878 0
M  V30 4718 H 447.465 -1.23075 -4.21603 0
M  V30 4719 H 448.071 -2.64781 -3.32823 0
M  V30 4720 N 446.386 1.0089 -1.21074 0
M  V30 4721 C 447.663 1.71834 -0.934469 0
M  V30 4722 C 448.043 2.0368 0.554753 0
M  V30 4723 O 447.391 1.70742 1.51854 0
M  V30 4724 C 447.601 2.98061 -1.8155 0
M  V30 4725 C 448.949 3.7117 -2.06199 0
M  V30 4726 O 449.973 3.08034 -1.78867 0
M  V30 4727 O 448.832 4.84721 -2.52404 0
M  V30 4728 H 445.926 0.749253 -0.35007 0
M  V30 4729 H 448.472 1.06668 -1.31985 0
M  V30 4730 H 447.244 2.70908 -2.82355 0
M  V30 4731 H 446.867 3.70968 -1.43068 0
M  V30 4732 N 447.864 1.01787 1.20321 0
M  V30 4733 C 449.275 0.739307 1.71438 0
M  V30 4734 C 449.626 -0.742041 1.81627 0
M  V30 4735 O 448.751 -1.57903 1.47971 0
M  V30 4736 C 449.346 1.33538 3.11373 0
M  V30 4737 C 447.905 1.10566 3.59795 0
M  V30 4738 C 447.052 1.44028 2.36962 0
M  V30 4739 H 450.003 1.18718 1.05317 0
M  V30 4740 H 450.024 0.726611 3.73498 0
M  V30 4741 H 449.536 2.41352 3.03926 0
M  V30 4742 H 447.637 0.0452405 3.72573 0
M  V30 4743 H 447.75 1.78661 4.44542 0
M  V30 4744 H 446.114 0.85933 2.39766 0
M  V30 4745 H 446.897 2.52901 2.32155 0
M  V30 4746 N 449.342 -1.36122 0.79427 0
M  V30 4747 C 450.753 -1.81646 0.431446 0
M  V30 4748 C 451.104 -1.66043 -1.04518 0
M  V30 4749 O 450.229 -1.1841 -1.8113 0
M  V30 4750 C 450.824 -3.29785 0.776341 0
M  V30 4751 C 449.383 -3.73501 0.466282 0
M  V30 4752 C 448.53 -2.58313 1.00844 0
M  V30 4753 H 451.481 -1.24274 0.986995 0
M  V30 4754 H 451.502 -3.80437 0.0692413 0
M  V30 4755 H 451.014 -3.4111 1.8511 0
M  V30 4756 H 449.115 -3.67733 -0.600245 0
M  V30 4757 H 449.228 -4.68754 0.990288 0
M  V30 4758 H 447.592 -2.5102 0.431406 0
M  V30 4759 H 448.375 -2.72421 2.08906 0
M  V30 4760 N 450.82 -0.546701 -1.47814 0
M  V30 4761 C 452.236 -0.205717 -1.58269 0
M  V30 4762 C 452.436 1.29153 -1.54667 0
M  V30 4763 O 451.492 2.07098 -1.44453 0
M  V30 4764 C 452.805 -0.823065 -2.89216 0
M  V30 4765 C 454.353 -0.793328 -3.02779 0
M  V30 4766 C 454.828 -1.38955 -4.36412 0
M  V30 4767 N 456.319 -1.35227 -4.43021 0
M  V30 4768 C 457.054 -1.78333 -5.44963 0
M  V30 4769 N 456.55 -2.29246 -6.53772 0
M  V30 4770 N 458.343 -1.69467 -5.35945 0
M  V30 4771 H 450.494 -1.5196 -1.48398 0
M  V30 4772 H 452.757 -0.633078 -0.705632 0
M  V30 4773 H 452.463 -1.8749 -2.97558 0
M  V30 4774 H 452.337 -0.309915 -3.75925 0
M  V30 4775 H 454.724 0.249784 -2.94041 0
M  V30 4776 H 454.805 -1.34412 -2.17639 0
M  V30 4777 H 454.449 -2.43168 -4.45906 0
M  V30 4778 H 454.379 -0.814291 -5.20266 0
M  V30 4779 H 456.87 -0.979739 -3.64979 0
M  V30 4780 H 457.183 -2.60089 -7.27718 0
M  V30 4781 H 455.528 -2.3325 -6.5469 0
M  V30 4782 H 458.719 -1.29477 -4.49837 0
M  V30 4783 H 458.892 -2.03381 -6.15256 0
M  V30 4784 N 452.299 1.55045 -0.282633 0
M  V30 4785 C 453.547 1.99365 0.331334 0
M  V30 4786 C 453.868 1.1725 1.55812 0
M  V30 4787 O 453.138 0.263871 1.94115 0
M  V30 4788 H 451.718 0.736397 0.125414 0
M  V30 4789 H 454.38 1.90964 -0.389711 0
M  V30 4790 H 453.476 3.0596 0.616036 0
M  V30 4791 N 453.777 0.010035 1.57597 0
M  V30 4792 C 455.017 -0.677084 1.9286 0
M  V30 4793 C 455.381 -1.70377 0.885192 0
M  V30 4794 O 456.582 -2.44199 1.12339 0
M  V30 4795 C 454.853 -1.29452 3.33132 0
M  V30 4796 S 456.412 -2.00537 3.90295 0
M  V30 4797 H 453.23 -0.223409 0.674989 0
M  V30 4798 H 455.832 0.0691289 1.95378 0
M  V30 4799 H 454.536 -0.534593 4.06903 0
M  V30 4800 H 454.067 -2.07845 3.34012 0
M  V30 4801 H 456.082 -3.28168 3.72183 0
M  V30 4802 N 455.255 -1.55392 -0.262866 0
M  V30 4803 C 456.501 -1.76737 -0.99458 0
M  V30 4804 C 456.834 -0.572453 -1.85571 0
M  V30 4805 O 456.109 0.429732 -1.89693 0
M  V30 4806 C 456.392 -3.07824 -1.8686 0
M  V30 4807 C 456.245 -4.3769 -1.03672 0
M  V30 4808 C 457.564 -3.35021 -2.85393 0
M  V30 4809 H 454.683 -0.643005 -0.360157 0
M  V30 4810 H 457.325 -1.88126 -0.266216 0
M  V30 4811 H 455.475 -2.98245 -2.48962 0
M  V30 4812 H 457.147 -4.59238 -0.43563 0
M  V30 4813 H 455.39 -4.32461 -0.340513 0
M  V30 4814 H 456.061 -5.25759 -1.6817 0
M  V30 4815 H 458.537 -3.44458 -2.33426 0
M  V30 4816 H 457.413 -4.27989 -3.43681 0
M  V30 4817 H 457.674 -2.55153 -3.61039 0
M  V30 4818 N 456.733 0.527833 -1.48498 0
M  V30 4819 C 457.981 1.28101 -1.56316 0
M  V30 4820 C 458.302 1.9352 -0.239781 0
M  V30 4821 O 457.572 1.81433 0.738849 0
M  V30 4822 H 456.152 0.475793 -0.575873 0
M  V30 4823 H 458.814 0.614052 -1.84974 0
M  V30 4824 H 457.91 2.05916 -2.34532 0
M  V30 4825 N 458.211 1.37122 0.776871 0
M  V30 4826 C 459.159 1.32549 1.91138 0
M  V30 4827 C 460.153 0.215119 1.68029 0
M  V30 4828 O 461.359 0.382852 1.75881 0
M  V30 4829 H 457.734 0.412952 0.62847 0
M  V30 4830 H 459.705 2.28332 1.92112 0
M  V30 4831 C 458.454 1.14422 3.28333 0
M  V30 4832 H 457.777 1.99115 3.46689 0
M  V30 4833 H 459.217 1.15272 4.0803 0
M  V30 4834 C 457.676 -0.150434 3.36564 0
M  V30 4835 O 458.206 -1.13584 3.85307 0
M  V30 4836 N 456.412 -0.19939 2.89915 0
M  V30 4837 H 455.959 0.603142 2.5044 0
M  V30 4838 H 455.917 -1.06526 2.95803 0
M  V30 4839 N 459.689 -1.00246 1.21608 0
M  V30 4840 C 460.917 -1.77631 1.06089 0
M  V30 4841 C 461.332 -1.84746 -0.38916 0
M  V30 4842 O 460.689 -1.31068 -1.26994 0
M  V30 4843 C 460.74 -3.21415 1.65453 0
M  V30 4844 O 460.461 -3.14703 3.04785 0
M  V30 4845 C 461.962 -4.15289 1.55079 0
M  V30 4846 H 459.182 -0.558162 0.37242 0
M  V30 4847 H 461.726 -1.26093 1.60999 0
M  V30 4848 H 459.881 -3.70053 1.14629 0
M  V30 4849 H 460.295 -4.05056 3.33212 0
M  V30 4850 H 461.769 -5.13965 2.01355 0
M  V30 4851 H 462.246 -4.36279 0.505665 0
M  V30 4852 H 462.852 -3.72543 2.05163 0
M  V30 4853 N 461.167 -1.02423 -1.1978 0
M  V30 4854 C 462.115 -0.594474 -2.24875 0
M  V30 4855 C 463.109 0.370598 -1.65296 0
M  V30 4856 O 464.315 0.239684 -1.78397 0
M  V30 4857 H 460.69 -0.173961 -0.731602 0
M  V30 4858 H 462.661 -1.4916 -2.58445 0
M  V30 4859 C 461.41 0.0436512 -3.47673 0
M  V30 4860 H 460.733 -0.689963 -3.93801 0
M  V30 4861 H 462.173 0.307362 -4.22884 0
M  V30 4862 C 460.632 1.28881 -3.11274 0
M  V30 4863 O 461.162 2.38135 -3.23503 0
M  V30 4864 N 459.368 1.1758 -2.6575 0
M  V30 4865 H 458.915 0.286769 -2.55999 0
M  V30 4866 H 458.873 2.00988 -2.41767 0
M  V30 4867 N 462.645 1.35699 -0.801477 0
M  V30 4868 C 463.894 1.98165 -0.375979 0
M  V30 4869 C 464.207 1.64306 1.06127 0
M  V30 4870 O 465.413 2.20097 1.58964 0
M  V30 4871 C 463.869 3.54497 -0.621305 0
M  V30 4872 C 463.477 3.9727 -2.07076 0
M  V30 4873 C 465.221 4.23697 -0.26091 0
M  V30 4874 C 463.128 5.46427 -2.26211 0
M  V30 4875 H 462.058 0.741478 -0.136844 0
M  V30 4876 H 464.709 1.54834 -0.984814 0
M  V30 4877 H 463.091 3.95958 0.0574112 0
M  V30 4878 H 464.265 3.66974 -2.78687 0
M  V30 4879 H 462.58 3.40943 -2.39054 0
M  V30 4880 H 465.177 5.33334 -0.381994 0
M  V30 4881 H 465.52 4.0869 0.792344 0
M  V30 4882 H 466.053 3.87639 -0.893339 0
M  V30 4883 H 462.792 5.66396 -3.29963 0
M  V30 4884 H 462.312 5.78309 -1.59119 0
M  V30 4885 H 463.991 6.12819 -2.07513 0
M  V30 4886 N 464.123 0.554532 1.47522 0
M  V30 4887 C 465.369 0.0377449 2.03365 0
M  V30 4888 C 465.724 -1.29654 1.42154 0
M  V30 4889 O 465.017 -1.83022 0.566865 0
M  V30 4890 C 465.211 -0.115927 3.57212 0
M  V30 4891 C 465.04 1.20191 4.33341 0
M  V30 4892 C 463.81 1.76849 4.73342 0
M  V30 4893 C 466.008 2.11849 4.68641 0
M  V30 4894 N 463.99 3.02665 5.34104 0
M  V30 4895 C 465.361 3.22245 5.29677 0
M  V30 4896 C 467.416 2.11876 4.5057 0
M  V30 4897 C 466.119 4.32763 5.74551 0
M  V30 4898 C 468.145 3.21405 4.9644 0
M  V30 4899 C 467.507 4.30519 5.57523 0
M  V30 4900 H 463.606 0.0559107 0.779999 0
M  V30 4901 H 466.19 0.741232 1.80038 0
M  V30 4902 H 464.361 -0.788533 3.80311 0
M  V30 4903 H 466.093 -0.634538 3.99695 0
M  V30 4904 H 462.848 1.30681 4.55214 0
M  V30 4905 H 463.272 3.66788 5.69031 0
M  V30 4906 H 467.914 1.28801 4.02704 0
M  V30 4907 H 465.632 5.166 6.2141 0
M  V30 4908 H 469.218 3.22509 4.8423 0
M  V30 4909 H 468.098 5.13873 5.92371 0
M  V30 4910 N 465.601 -1.54893 0.290851 0
M  V30 4911 C 466.548 -2.23138 -0.58974 0
M  V30 4912 C 467.518 -1.21036 -1.13752 0
M  V30 4913 O 468.703 -1.49626 -1.18392 0
M  V30 4914 C 465.843 -2.96811 -1.76061 0
M  V30 4915 C 464.956 -4.13665 -1.24519 0
M  V30 4916 C 464.091 -4.74944 -2.3791 0
M  V30 4917 C 463.13 -5.83963 -1.83451 0
M  V30 4918 N 462.267 -6.39239 -2.90376 0
M  V30 4919 H 467.107 -2.98 -0.00114915 0
M  V30 4920 H 464.644 -1.47096 0.0112006 0
M  V30 4921 H 466.602 -3.37751 -2.44909 0
M  V30 4922 H 465.232 -2.24344 -2.32098 0
M  V30 4923 H 464.284 -3.77737 -0.449288 0
M  V30 4924 H 465.596 -4.92238 -0.806424 0
M  V30 4925 H 464.75 -5.18684 -3.14724 0
M  V30 4926 H 463.489 -3.95682 -2.85109 0
M  V30 4927 H 462.494 -5.39657 -1.05122 0
M  V30 4928 H 463.719 -6.65103 -1.37169 0
M  V30 4929 H 461.665 -5.62864 -3.36927 0
M  V30 4930 H 461.582 -7.13129 -2.50965 0
M  V30 4931 H 462.85 -6.87637 -3.67118 0
M  V30 4932 N 467.08 -0.0183926 -1.57589 0
M  V30 4933 C 468.308 0.673046 -1.95647 0
M  V30 4934 C 468.723 1.66275 -0.894312 0
M  V30 4935 O 468.08 1.82072 0.124975 0
M  V30 4936 C 468.131 1.38884 -3.33756 0
M  V30 4937 O 467.852 0.438806 -4.35897 0
M  V30 4938 C 469.353 2.1731 -3.86383 0
M  V30 4939 H 466.573 0.186292 -0.644621 0
M  V30 4940 H 469.117 -0.0749748 -2.04363 0
M  V30 4941 H 467.272 2.08835 -3.26293 0
M  V30 4942 H 467.686 0.945869 -5.15901 0
M  V30 4943 H 469.16 2.62863 -4.85394 0
M  V30 4944 H 469.637 3.00764 -3.20059 0
M  V30 4945 H 470.243 1.52339 -3.97081 0
M  V30 4946 N 468.558 1.5553 0.254621 0
M  V30 4947 C 469.806 1.7665 0.981793 0
M  V30 4948 C 470.127 0.580963 1.86145 0
M  V30 4949 O 469.397 -0.403537 1.91699 0
M  V30 4950 H 467.977 0.651475 0.365498 0
M  V30 4951 H 470.639 1.92958 0.274426 0
M  V30 4952 H 469.735 2.67486 1.60802 0
M  V30 4953 N 470.036 -0.519951 1.48776 0
M  V30 4954 C 471.447 -1.10177 1.50725 0
M  V30 4955 C 471.798 -1.94153 0.282678 0
M  V30 4956 O 470.923 -2.07645 -0.609298 0
M  V30 4957 C 471.518 -2.00482 2.73116 0
M  V30 4958 C 470.077 -2.53862 2.77905 0
M  V30 4959 C 469.224 -1.31047 2.44381 0
M  V30 4960 H 472.175 -0.30473 1.55747 0
M  V30 4961 H 472.196 -2.8491 2.52203 0
M  V30 4962 H 471.708 -1.39335 3.62225 0
M  V30 4963 H 469.809 -3.18702 1.93029 0
M  V30 4964 H 469.922 -2.9231 3.79594 0
M  V30 4965 H 468.286 -1.62953 1.95751 0
M  V30 4966 H 469.069 -0.71637 3.35743 0
M  V30 4967 N 471.514 -1.37532 -0.769588 0
M  V30 4968 C 472.444 -1.36172 -1.89682 0
M  V30 4969 C 473.425 -0.23001 -1.68538 0
M  V30 4970 O 474.61 -0.43069 -1.89364 0
M  V30 4971 C 471.74 -1.1701 -3.26995 0
M  V30 4972 C 470.694 -2.27216 -3.62708 0
M  V30 4973 C 470.02 -1.93174 -4.98586 0
M  V30 4974 C 471.32 -3.6941 -3.69234 0
M  V30 4975 H 473.014 -2.30499 -1.91078 0
M  V30 4976 H 470.56 -1.10953 -0.917902 0
M  V30 4977 H 472.513 -1.14688 -4.05493 0
M  V30 4978 H 471.237 -0.191395 -3.26039 0
M  V30 4979 H 469.896 -2.28697 -2.86519 0
M  V30 4980 H 469.544 -0.938281 -4.94171 0
M  V30 4981 H 469.244 -2.66973 -5.23449 0
M  V30 4982 H 470.768 -1.92443 -5.79481 0
M  V30 4983 H 472.182 -3.70047 -4.37879 0
M  V30 4984 H 470.579 -4.4228 -4.05597 0
M  V30 4985 H 471.649 -4.0288 -2.69844 0
M  V30 4986 N 472.992 0.995999 -1.22138 0
M  V30 4987 C 474.239 1.7351 -1.04406 0
M  V30 4988 C 474.567 1.89884 0.421244 0
M  V30 4989 O 473.822 1.43683 1.32867 0
M  V30 4990 C 474.121 3.14553 -1.6968 0
M  V30 4991 C 473.787 3.18102 -3.19565 0
M  V30 4992 C 472.449 3.18778 -3.60464 0
M  V30 4993 C 474.801 3.14636 -4.15516 0
M  V30 4994 C 472.129 3.13684 -4.95801 0
M  V30 4995 C 474.481 3.11084 -5.50826 0
M  V30 4996 C 473.145 3.10074 -5.91109 0
M  V30 4997 H 472.415 0.634916 -0.38205 0
M  V30 4998 H 475.062 1.1667 -1.51857 0
M  V30 4999 H 473.367 3.74682 -1.14546 0
M  V30 5000 H 475.064 3.70477 -1.53454 0
M  V30 5001 H 471.654 3.18324 -2.86998 0
M  V30 5002 H 475.838 3.13266 -3.84939 0
M  V30 5003 H 471.094 3.11245 -5.26247 0
M  V30 5004 H 475.268 3.07357 -6.24904 0
M  V30 5005 H 472.895 3.05882 -6.95946 0
M  V30 5006 N 474.47 1.03057 1.19235 0
M  V30 5007 C 475.417 0.612832 2.22515 0
M  V30 5008 C 476.387 -0.374224 1.61829 0
M  V30 5009 O 477.572 -0.270501 1.88873 0
M  V30 5010 C 474.712 -0.028475 3.45088 0
M  V30 5011 C 473.825 1.00483 4.20151 0
M  V30 5012 C 472.96 0.333102 5.30155 0
M  V30 5013 C 471.999 1.3522 5.96977 0
M  V30 5014 N 471.136 0.70616 6.9854 0
M  V30 5015 H 475.976 1.49812 2.57605 0
M  V30 5016 H 473.513 0.749658 1.26564 0
M  V30 5017 H 475.471 -0.417548 4.15105 0
M  V30 5018 H 474.101 -0.877334 3.10649 0
M  V30 5019 H 473.153 1.51194 3.49062 0
M  V30 5020 H 474.465 1.77929 4.65986 0
M  V30 5021 H 473.619 -0.110725 6.06599 0
M  V30 5022 H 472.358 -0.473547 4.85396 0
M  V30 5023 H 471.363 1.80627 5.19282 0
M  V30 5024 H 472.588 2.16037 6.4382 0
M  V30 5025 H 470.534 -0.0803667 6.55951 0
M  V30 5026 H 470.451 1.41848 7.42573 0
M  V30 5027 H 471.719 0.286391 7.78974 0
M  V30 5028 N 475.948 -1.35272 0.808662 0
M  V30 5029 C 477.364 -1.51806 0.492653 0
M  V30 5030 C 477.564 -1.7574 -0.985778 0
M  V30 5031 O 476.62 -1.80003 -1.77074 0
M  V30 5032 C 477.933 -2.69202 1.33981 0
M  V30 5033 C 479.481 -2.8308 1.33547 0
M  V30 5034 C 479.956 -4.03502 2.16679 0
M  V30 5035 N 481.447 -4.10684 2.14227 0
M  V30 5036 C 482.182 -5.02984 2.75308 0
M  V30 5037 N 481.678 -6.00603 3.45323 0
M  V30 5038 N 483.471 -4.95746 2.64938 0
M  V30 5039 H 475.622 -1.17993 1.76611 0
M  V30 5040 H 477.885 -0.577476 0.751814 0
M  V30 5041 H 477.591 -2.581 2.38909 0
M  V30 5042 H 477.465 -3.63854 0.994491 0
M  V30 5043 H 479.852 -2.93631 0.294036 0
M  V30 5044 H 479.933 -1.89278 1.72068 0
M  V30 5045 H 479.577 -3.93711 3.20864 0
M  V30 5046 H 479.507 -4.96489 1.75517 0
M  V30 5047 H 481.998 -3.40802 1.63285 0
M  V30 5048 H 482.311 -6.67633 3.89212 0
M  V30 5049 H 480.656 -6.0077 3.49428 0
M  V30 5050 H 483.847 -4.18439 2.09825 0
M  V30 5051 H 484.02 -5.67487 3.12829 0
M  V30 5052 N 477.426 -0.562348 -1.47226 0
M  V30 5053 C 478.672 -0.0402761 -2.0276 0
M  V30 5054 C 479.005 1.30823 -1.43523 0
M  V30 5055 O 478.28 1.85249 -0.592705 0
M  V30 5056 C 478.563 0.047311 -3.60069 0
M  V30 5057 C 478.416 -1.32865 -4.29729 0
M  V30 5058 C 479.735 0.758182 -4.3352 0
M  V30 5059 H 476.854 -0.0161105 -0.736824 0
M  V30 5060 H 479.496 -0.725628 -1.75598 0
M  V30 5061 H 477.646 0.630986 -3.83342 0
M  V30 5062 H 479.318 -1.95593 -4.17781 0
M  V30 5063 H 477.561 -1.90195 -3.89882 0
M  V30 5064 H 478.232 -1.22004 -5.38349 0
M  V30 5065 H 480.708 0.262546 -4.15271 0
M  V30 5066 H 479.584 0.78844 -5.43208 0
M  V30 5067 H 479.845 1.81537 -4.03109 0
M  V30 5068 N 478.904 1.54736 -0.299062 0
M  V30 5069 C 479.834 2.26409 0.571085 0
M  V30 5070 C 480.815 1.2629 1.13951 0
M  V30 5071 O 482 1.55059 1.16921 0
M  V30 5072 C 479.13 3.00338 1.74396 0
M  V30 5073 C 478.084 4.07588 1.30599 0
M  V30 5074 C 477.41 4.69222 2.56387 0
M  V30 5075 C 478.71 5.20455 0.438645 0
M  V30 5076 H 480.404 2.99388 -0.0266991 0
M  V30 5077 H 477.95 1.43993 -0.0142812 0
M  V30 5078 H 479.903 3.49198 2.35878 0
M  V30 5079 H 478.627 2.24934 2.36796 0
M  V30 5080 H 477.286 3.59575 0.71424 0
M  V30 5081 H 476.934 3.9046 3.17097 0
M  V30 5082 H 476.634 5.41653 2.27784 0
M  V30 5083 H 478.158 5.20844 3.18675 0
M  V30 5084 H 479.572 5.65221 0.959085 0
M  V30 5085 H 477.969 5.99594 0.246466 0
M  V30 5086 H 479.039 4.8192 -0.536738 0
M  V30 5087 N 480.382 0.0267497 1.57577 0
M  V30 5088 C 481.315 -0.99059 2.05579 0
M  V30 5089 C 482.293 -1.31884 0.951065 0
M  V30 5090 O 483.477 -1.43592 1.22121 0
M  V30 5091 C 480.604 -2.31125 2.47586 0
M  V30 5092 C 479.65 -2.13777 3.69055 0
M  V30 5093 S 480.483 -1.4388 5.15809 0
M  V30 5094 C 481.639 -2.77321 5.6111 0
M  V30 5095 H 481.872 -0.581976 2.91548 0
M  V30 5096 H 479.405 -0.184876 1.53289 0
M  V30 5097 H 481.363 -3.07049 2.72454 0
M  V30 5098 H 480.024 -2.6912 1.61967 0
M  V30 5099 H 479.217 -3.11405 3.96287 0
M  V30 5100 H 478.819 -1.45996 3.44327 0
M  V30 5101 H 481.111 -3.73565 5.65204 0
M  V30 5102 H 482.054 -2.54756 6.60685 0
M  V30 5103 H 482.462 -2.82459 4.88751 0
M  V30 5104 N 481.861 -1.55662 -0.24637 0
M  V30 5105 C 483.086 -1.81914 -0.996093 0
M  V30 5106 C 483.511 -0.603875 -1.78143 0
M  V30 5107 O 482.869 0.447091 -1.75701 0
M  V30 5108 C 482.917 -3.05908 -1.90925 0
M  V30 5109 O 482.021 -2.82861 -3.00105 0
M  V30 5110 H 481.362 -0.600481 -0.283406 0
M  V30 5111 H 483.892 -2.02848 -0.267199 0
M  V30 5112 H 483.902 -3.35356 -2.3238 0
M  V30 5113 H 482.577 -3.93999 -1.33183 0
M  V30 5114 H 481.154 -2.64583 -2.62775 0
M  V30 5115 N 483.339 0.512053 -1.4905 0
M  V30 5116 C 484.564 1.2959 -1.6193 0
M  V30 5117 C 484.989 1.85906 -0.286454 0
M  V30 5118 O 484.347 1.65312 0.744426 0
M  V30 5119 C 484.395 2.40987 -2.68249 0
M  V30 5120 O 483.499 3.44531 -2.26654 0
M  V30 5121 H 482.84 0.383053 -0.542371 0
M  V30 5122 H 485.37 0.614231 -1.95162 0
M  V30 5123 H 485.38 2.86913 -2.90078 0
M  V30 5124 H 484.055 1.99361 -3.65004 0
M  V30 5125 H 482.632 3.046 -2.15112 0
M  V30 5126 N 484.817 1.37938 0.762283 0
M  V30 5127 C 485.764 1.34467 1.87583 0
M  V30 5128 C 486.734 0.208633 1.64785 0
M  V30 5129 O 487.919 0.399494 1.86571 0
M  V30 5130 C 485.059 1.16692 3.24772 0
M  V30 5131 C 484.172 2.39608 3.59461 0
M  V30 5132 C 483.307 2.14631 4.85908 0
M  V30 5133 C 482.346 3.33364 5.13357 0
M  V30 5134 N 481.483 3.07877 6.30996 0
M  V30 5135 H 486.323 2.29669 1.89885 0
M  V30 5136 H 483.86 1.14116 0.928219 0
M  V30 5137 H 485.818 1.04405 4.03925 0
M  V30 5138 H 484.448 0.251333 3.2182 0
M  V30 5139 H 483.5 2.626 2.75219 0
M  V30 5140 H 484.812 3.28128 3.75678 0
M  V30 5141 H 483.966 1.99429 5.72986 0
M  V30 5142 H 482.705 1.23463 4.71814 0
M  V30 5143 H 481.71 3.49094 4.24751 0
M  V30 5144 H 482.935 4.25395 5.29354 0
M  V30 5145 H 480.881 2.19348 6.18241 0
M  V30 5146 H 480.798 3.89944 6.47673 0
M  V30 5147 H 482.066 2.96313 7.20985 0
M  V30 5148 N 486.295 -0.989507 1.22664 0
M  V30 5149 C 487.525 -1.7624 1.0781 0
M  V30 5150 C 487.933 -1.85466 -0.374036 0
M  V30 5151 O 487.276 -1.32645 -1.27087 0
M  V30 5152 C 487.338 -3.21007 1.61849 0
M  V30 5153 C 487.002 -3.35316 3.10503 0
M  V30 5154 C 487.999 -3.22362 4.07896 0
M  V30 5155 C 485.684 -3.60258 3.50028 0
M  V30 5156 C 487.678 -3.34139 5.42798 0
M  V30 5157 C 485.365 -3.71676 4.85078 0
M  V30 5158 C 486.363 -3.58625 5.81272 0
M  V30 5159 O 486.051 -3.69655 7.1387 0
M  V30 5160 H 485.783 -0.560209 0.378341 0
M  V30 5161 H 488.337 -1.25252 1.62792 0
M  V30 5162 H 486.567 -3.73202 1.01279 0
M  V30 5163 H 488.256 -3.80024 1.42606 0
M  V30 5164 H 489.022 -3.03 3.78703 0
M  V30 5165 H 484.901 -3.69492 2.75675 0
M  V30 5166 H 488.445 -3.23869 6.17863 0
M  V30 5167 H 484.342 -3.90545 5.1395 0
M  V30 5168 H 485.11 -3.86507 7.21495 0
M  V30 5169 N 487.773 -1.03688 -1.18687 0
M  V30 5170 C 488.736 -0.629115 -2.20397 0
M  V30 5171 C 489.736 0.311495 -1.57754 0
M  V30 5172 O 490.926 0.0974107 -1.73927 0
M  V30 5173 C 488.058 0.0782231 -3.4081 0
M  V30 5174 H 489.251 -1.52915 -2.57987 0
M  V30 5175 H 486.804 -0.828988 -1.32505 0
M  V30 5176 H 487.539 0.992233 -3.08748 0
M  V30 5177 H 487.324 -0.597776 -3.87517 0
M  V30 5178 H 488.814 0.350156 -4.16129 0
M  V30 5179 N 489.251 1.34841 -0.815825 0
M  V30 5180 C 490.528 1.92908 -0.323416 0
M  V30 5181 C 490.908 1.74479 1.18828 0
M  V30 5182 O 490.256 1.11928 1.99209 0
M  V30 5183 C 490.466 3.40957 -0.744952 0
M  V30 5184 C 491.814 4.18107 -0.739716 0
M  V30 5185 O 492.838 3.49511 -0.68708 0
M  V30 5186 O 491.697 5.40517 -0.806456 0
M  V30 5187 H 488.791 0.822436 -0.0867646 0
M  V30 5188 H 491.337 1.4386 -0.90014 0
M  V30 5189 H 490.109 3.4814 -1.78646 0
M  V30 5190 H 489.732 3.97341 -0.143535 0
M  V30 5191 N 490.729 0.570148 1.46925 0
M  V30 5192 C 491.977 0.0508523 2.02036 0
M  V30 5193 C 492.298 -1.30885 1.44548 0
M  V30 5194 O 491.568 -1.85647 0.625453 0
M  V30 5195 H 490.148 0.0158088 0.746833 0
M  V30 5196 H 492.81 0.743086 1.80178 0
M  V30 5197 H 491.906 -0.027575 3.12088 0
M  V30 5198 N 492.207 -1.54576 0.307264 0
M  V30 5199 C 493.453 -2.0056 -0.300612 0
M  V30 5200 C 493.786 -1.1953 -1.53057 0
M  V30 5201 O 493.061 -0.27337 -1.92569 0
M  V30 5202 C 493.344 -3.54167 -0.650987 0
M  V30 5203 C 493.197 -4.45933 0.588539 0
M  V30 5204 C 494.516 -4.14645 -1.47506 0
M  V30 5205 H 491.635 -0.729075 -0.107788 0
M  V30 5206 H 494.277 -1.85286 0.420606 0
M  V30 5207 H 492.427 -3.67313 -1.26544 0
M  V30 5208 H 494.099 -4.44683 1.22697 0
M  V30 5209 H 492.342 -4.16274 1.22058 0
M  V30 5210 H 493.013 -5.51189 0.299153 0
M  V30 5211 H 495.489 -4.04973 -0.955821 0
M  V30 5212 H 494.365 -5.22269 -1.68899 0
M  V30 5213 H 494.626 -3.66921 -2.4662 0
M  V30 5214 N 493.685 -0.035106 -1.57561 0
M  V30 5215 C 494.913 0.652258 -1.9635 0
M  V30 5216 C 495.328 1.65317 -0.911897 0
M  V30 5217 O 494.685 1.82194 0.105657 0
M  V30 5218 C 494.736 1.35337 -3.35211 0
M  V30 5219 O 494.457 0.392548 -4.36338 0
M  V30 5220 C 495.958 2.13199 -3.88666 0
M  V30 5221 H 493.178 0.179444 -0.646561 0
M  V30 5222 H 495.722 -0.0966459 -2.04271 0
M  V30 5223 H 493.877 2.05362 -3.28489 0
M  V30 5224 H 494.291 0.891097 -5.16875 0
M  V30 5225 H 495.765 2.577 -4.88154 0
M  V30 5226 H 496.242 2.97353 -3.23231 0
M  V30 5227 H 496.848 1.48118 -3.98674 0
M  V30 5228 N 495.163 1.55791 0.238111 0
M  V30 5229 C 496.411 1.77681 0.963001 0
M  V30 5230 C 496.732 0.600674 1.85518 0
M  V30 5231 O 496.002 -0.383182 1.92116 0
M  V30 5232 H 494.582 0.655315 0.358568 0
M  V30 5233 H 497.244 1.93239 0.253945 0
M  V30 5234 H 496.34 2.69177 1.57956 0
M  V30 5235 N 496.642 -0.504142 1.49319 0
M  V30 5236 C 498.058 -0.835039 1.36012 0
M  V30 5237 C 498.258 -1.97674 0.390808 0
M  V30 5238 O 497.314 -2.51867 -0.178655 0
M  V30 5239 C 498.627 -1.17821 2.76656 0
M  V30 5240 C 500.175 -1.2866 2.85334 0
M  V30 5241 C 500.65 -1.66307 4.26739 0
M  V30 5242 N 502.141 -1.73362 4.29534 0
M  V30 5243 C 502.876 -2.0393 5.35911 0
M  V30 5244 N 502.372 -2.32744 6.52535 0
M  V30 5245 N 504.165 -2.05155 5.23324 0
M  V30 5246 H 496.316 0.248764 2.10938 0
M  V30 5247 H 498.579 0.0486962 0.946748 0
M  V30 5248 H 498.285 -0.412682 3.4927 0
M  V30 5249 H 498.159 -2.12239 3.11825 0
M  V30 5250 H 500.546 -2.04285 2.1296 0
M  V30 5251 H 500.627 -0.323004 2.53752 0
M  V30 5252 H 500.271 -0.91234 4.99639 0
M  V30 5253 H 500.201 -2.63761 4.55782 0
M  V30 5254 H 502.692 -1.53268 3.45424 0
M  V30 5255 H 503.005 -2.55248 7.2943 0
M  V30 5256 H 501.35 -2.30207 6.55767 0
M  V30 5257 H 504.541 -1.82119 4.3122 0
M  V30 5258 H 504.714 -2.28644 6.06322 0
M  V30 5259 N 498.12 -1.38341 -0.754957 0
M  V30 5260 C 499.366 -1.34672 -1.51628 0
M  V30 5261 C 499.699 0.0636036 -1.94096 0
M  V30 5262 O 498.974 1.0245 -1.6533 0
M  V30 5263 C 499.257 -2.30116 -2.76981 0
M  V30 5264 C 499.11 -3.80003 -2.4066 0
M  V30 5265 C 500.429 -2.23715 -3.78998 0
M  V30 5266 H 497.548 -0.490517 -0.550056 0
M  V30 5267 H 500.19 -1.69178 -0.864807 0
M  V30 5268 H 498.34 -2.00821 -3.3257 0
M  V30 5269 H 500.012 -4.19966 -1.90856 0
M  V30 5270 H 498.255 -3.97751 -1.73137 0
M  V30 5271 H 498.926 -4.42244 -3.30339 0
M  V30 5272 H 501.402 -2.49574 -3.32945 0
M  V30 5273 H 500.278 -2.9261 -4.64403 0
M  V30 5274 H 500.539 -1.23554 -4.24484 0
M  V30 5275 N 499.598 0.982988 -1.23187 0
M  V30 5276 C 500.508 2.10907 -1.02739 0
M  V30 5277 C 501.524 1.73979 0.0273188 0
M  V30 5278 O 502.7 2.00702 -0.16757 0
M  V30 5279 C 499.765 3.41142 -0.618304 0
M  V30 5280 C 498.826 3.92112 -1.74777 0
M  V30 5281 C 498.059 5.16131 -1.3581 0
M  V30 5282 O 498.282 5.6989 -0.241201 0
M  V30 5283 O 497.216 5.61103 -2.17824 0
M  V30 5284 H 501.042 2.31046 -1.97108 0
M  V30 5285 H 498.627 1.09284 -1.01869 0
M  V30 5286 H 500.509 4.19488 -0.400982 0
M  V30 5287 H 499.184 3.2234 0.296421 0
M  V30 5288 H 498.091 3.14895 -2.0197 0
M  V30 5289 H 499.424 4.15364 -2.64071 0
M  V30 5290 N 501.076 1.04316 1.18135 0
M  V30 5291 C 502.323 0.74802 1.88178 0
M  V30 5292 C 502.651 -0.72441 1.80506 0
M  V30 5293 O 501.906 -1.54463 1.20165 0
M  V30 5294 C 502.205 1.16271 3.37958 0
M  V30 5295 C 501.871 2.63585 3.65833 0
M  V30 5296 C 500.533 3.03829 3.73151 0
M  V30 5297 C 502.885 3.58822 3.78016 0
M  V30 5298 C 500.213 4.38194 3.90132 0
M  V30 5299 C 502.565 4.92909 3.96514 0
M  V30 5300 C 501.229 5.3282 4.02068 0
M  V30 5301 H 500.499 0.27372 0.688592 0
M  V30 5302 H 503.146 1.30863 1.39811 0
M  V30 5303 H 501.451 0.520938 3.88321 0
M  V30 5304 H 503.148 0.911672 3.90499 0
M  V30 5305 H 499.738 2.31414 3.60757 0
M  V30 5306 H 503.922 3.28875 3.71692 0
M  V30 5307 H 499.178 4.68631 3.92677 0
M  V30 5308 H 503.352 5.66606 4.04883 0
M  V30 5309 H 500.979 6.36943 4.14979 0
M  V30 5310 N 502.554 -1.34406 0.822964 0
M  V30 5311 C 503.502 -2.31428 0.233165 0
M  V30 5312 C 504.496 -1.57404 -0.626118 0
M  V30 5313 O 505.702 -1.72402 -0.517453 0
M  V30 5314 H 502.077 -0.749863 0.0566557 0
M  V30 5315 H 504.048 -2.78699 1.06628 0
M  V30 5316 C 502.797 -3.42653 -0.590264 0
M  V30 5317 H 502.12 -3.99753 0.0616129 0
M  V30 5318 H 503.56 -4.12778 -0.969054 0
M  V30 5319 C 502.019 -2.87112 -1.76262 0
M  V30 5320 O 502.549 -2.81995 -2.8608 0
M  V30 5321 N 500.755 -2.43934 -1.57938 0
M  V30 5322 H 500.302 -2.48296 -0.686078 0
M  V30 5323 H 500.26 -2.07123 -2.36532 0
M  V30 5324 N 504.032 -0.577932 -1.46621 0
M  V30 5325 C 504.942 0.160651 -2.34049 0
M  V30 5326 C 505.958 0.890911 -1.49462 0
M  V30 5327 O 507.134 0.855166 -1.82343 0
M  V30 5328 C 504.199 1.16447 -3.26559 0
M  V30 5329 C 503.26 0.4394 -4.27045 0
M  V30 5330 C 502.493 1.3954 -5.15135 0
M  V30 5331 O 502.716 2.63162 -5.06065 0
M  V30 5332 O 501.65 0.908585 -5.95003 0
M  V30 5333 H 505.476 -0.557057 -2.98547 0
M  V30 5334 H 503.061 -0.338369 -1.45518 0
M  V30 5335 H 504.943 1.7434 -3.83645 0
M  V30 5336 H 503.618 1.86373 -2.64663 0
M  V30 5337 H 502.525 -0.181247 -3.73661 0
M  V30 5338 H 503.858 -0.218799 -4.91713 0
M  V30 5339 N 505.51 1.54411 -0.315457 0
M  V30 5340 C 506.787 1.92562 0.343398 0
M  V30 5341 C 507.167 1.24423 1.70535 0
M  V30 5342 O 506.515 0.385051 2.25232 0
M  V30 5343 C 506.725 3.46168 0.443687 0
M  V30 5344 C 508.073 4.18659 0.707783 0
M  V30 5345 O 509.097 3.52281 0.52693 0
M  V30 5346 O 507.956 5.36198 1.05612 0
M  V30 5347 H 505.05 0.80379 0.194552 0
M  V30 5348 H 507.596 1.65738 -0.364577 0
M  V30 5349 H 506.368 3.8792 -0.513172 0
M  V30 5350 H 505.991 3.79073 1.19956 0
M  V30 5351 N 506.988 0.0434614 1.5754 0
M  V30 5352 C 508.236 -0.630786 1.92004 0
M  V30 5353 C 508.557 -1.71836 0.921807 0
M  V30 5354 O 507.827 -1.9587 -0.034522 0
M  V30 5355 H 506.407 -0.235988 0.708745 0
M  V30 5356 H 509.069 0.0946462 1.9467 0
M  V30 5357 H 508.165 -1.07434 2.93026 0
M  V30 5358 N 508.466 -1.55915 -0.229846 0
M  V30 5359 C 509.743 -1.6932 -0.979295 0
M  V30 5360 C 510.123 -0.588321 -2.02736 0
M  V30 5361 O 509.471 0.40586 -2.24867 0
M  V30 5362 C 509.681 -3.10305 -1.59724 0
M  V30 5363 C 511.029 -3.6945 -2.09264 0
M  V30 5364 O 512.053 -3.13214 -1.69633 0
M  V30 5365 O 510.912 -4.68072 -2.82082 0
M  V30 5366 H 508.006 -0.689314 -0.456919 0
M  V30 5367 H 510.552 -1.68238 -0.222283 0
M  V30 5368 H 509.324 -3.82177 -0.840039 0
M  V30 5369 H 508.947 -3.1547 -2.42001 0
M  V30 5370 N 509.944 0.496216 -1.49584 0
M  V30 5371 C 511.36 0.827814 -1.36453 0
M  V30 5372 C 511.56 1.97464 -0.401285 0
M  V30 5373 O 510.616 2.51958 0.165296 0
M  V30 5374 C 511.929 1.16352 -2.77277 0
M  V30 5375 C 513.477 1.27145 -2.86013 0
M  V30 5376 C 513.952 1.64042 -4.27615 0
M  V30 5377 N 515.443 1.71082 -4.30448 0
M  V30 5378 C 516.178 2.01085 -5.36984 0
M  V30 5379 N 515.674 2.2928 -6.5376 0
M  V30 5380 N 517.467 2.02376 -5.24405 0
M  V30 5381 H 509.618 -0.259947 -2.10803 0
M  V30 5382 H 511.881 -0.0537163 -0.946477 0
M  V30 5383 H 511.587 0.394153 -3.49484 0
M  V30 5384 H 511.461 2.10582 -3.12946 0
M  V30 5385 H 513.848 2.03152 -2.1404 0
M  V30 5386 H 513.929 0.309542 -2.5392 0
M  V30 5387 H 513.573 0.88583 -5.00115 0
M  V30 5388 H 513.503 2.6134 -4.57175 0
M  V30 5389 H 515.994 1.51434 -3.46232 0
M  V30 5390 H 516.307 2.51376 -7.30774 0
M  V30 5391 H 514.652 2.26726 -6.56978 0
M  V30 5392 H 517.843 1.79829 -4.32179 0
M  V30 5393 H 518.016 2.25425 -6.07526 0
M  V30 5394 N 511.423 1.38739 0.74761 0
M  V30 5395 C 512.37 1.36449 1.86146 0
M  V30 5396 C 513.34 0.226098 1.64554 0
M  V30 5397 O 514.525 0.41926 1.86137 0
M  V30 5398 C 511.665 1.2013 3.23516 0
M  V30 5399 C 510.778 2.43407 3.56899 0
M  V30 5400 C 509.913 2.19773 4.83605 0
M  V30 5401 C 508.952 3.3879 5.09792 0
M  V30 5402 N 508.089 3.14553 6.27695 0
M  V30 5403 H 512.929 2.3167 1.87438 0
M  V30 5404 H 510.466 1.15094 0.916063 0
M  V30 5405 H 512.424 1.08683 4.02795 0
M  V30 5406 H 511.054 0.285453 3.21535 0
M  V30 5407 H 510.106 2.65504 2.72418 0
M  V30 5408 H 511.418 3.32094 3.72176 0
M  V30 5409 H 510.572 2.05496 5.70838 0
M  V30 5410 H 509.311 1.28461 4.70478 0
M  V30 5411 H 508.316 3.53579 4.21025 0
M  V30 5412 H 509.541 4.30986 5.24812 0
M  V30 5413 H 507.487 2.25893 6.1588 0
M  V30 5414 H 507.404 3.96791 6.435 0
M  V30 5415 H 508.672 3.03943 7.17801 0
M  V30 5416 N 512.901 -0.976442 1.23707 0
M  V30 5417 C 514.148 -1.71827 1.07153 0
M  V30 5418 C 514.476 -1.9053 -0.390982 0
M  V30 5419 O 513.731 -1.45779 -1.30564 0
M  V30 5420 C 514.03 -3.11814 1.74662 0
M  V30 5421 C 513.696 -3.12978 3.24585 0
M  V30 5422 C 512.358 -3.13003 3.6549 0
M  V30 5423 C 514.71 -3.07986 4.20469 0
M  V30 5424 C 512.038 -3.05757 5.00729 0
M  V30 5425 C 514.39 -3.02282 5.55705 0
M  V30 5426 C 513.054 -3.00631 5.95968 0
M  V30 5427 H 512.324 -0.628758 0.392102 0
M  V30 5428 H 514.971 -1.14239 1.53693 0
M  V30 5429 H 513.276 -3.72812 1.20492 0
M  V30 5430 H 514.973 -3.67989 1.59328 0
M  V30 5431 H 511.563 -3.13718 2.92026 0
M  V30 5432 H 515.747 -3.07103 3.89874 0
M  V30 5433 H 511.003 -3.02834 5.31132 0
M  V30 5434 H 515.177 -2.97376 6.29714 0
M  V30 5435 H 512.804 -2.94771 7.00724 0
M  V30 5436 N 514.379 -1.04941 -1.1758 0
M  V30 5437 C 515.342 -0.652456 -2.19717 0
M  V30 5438 C 516.342 0.294745 -1.58076 0
M  V30 5439 O 517.532 0.0789579 -1.74021 0
M  V30 5440 C 514.664 0.0420712 -3.40874 0
M  V30 5441 H 515.857 -1.55642 -2.5635 0
M  V30 5442 H 513.41 -0.842995 -1.31618 0
M  V30 5443 H 514.145 0.95943 -3.09783 0
M  V30 5444 H 513.93 -0.638844 -3.86861 0
M  V30 5445 H 515.42 0.306 -4.16477 0
M  V30 5446 N 515.857 1.33968 -0.830081 0
M  V30 5447 C 516.805 2.31301 -0.245435 0
M  V30 5448 C 517.799 1.57734 0.617762 0
M  V30 5449 O 519.005 1.72674 0.508303 0
M  V30 5450 H 515.38 0.749552 -0.0606316 0
M  V30 5451 H 517.351 2.78129 -1.08105 0
M  V30 5452 C 516.1 3.42961 0.572084 0
M  V30 5453 H 515.423 3.99714 -0.0828118 0
M  V30 5454 H 516.863 4.13286 0.94715 0
M  V30 5455 C 515.322 2.88043 1.74737 0
M  V30 5456 O 515.852 2.83508 2.8458 0
M  V30 5457 N 514.058 2.44768 1.56642 0
M  V30 5458 H 513.605 2.48656 0.672901 0
M  V30 5459 H 513.563 2.08375 2.3543 0
M  V30 5460 N 517.335 0.585699 1.46312 0
M  V30 5461 C 518.565 0.0780166 2.06453 0
M  V30 5462 C 518.973 -1.2336 1.43454 0
M  V30 5463 O 518.316 -1.75734 0.535086 0
M  V30 5464 C 518.378 -0.158951 3.59148 0
M  V30 5465 C 518.042 1.06752 4.44357 0
M  V30 5466 C 519.039 1.98031 4.80708 0
M  V30 5467 C 516.724 1.2902 4.85447 0
M  V30 5468 C 518.718 3.09924 5.5698 0
M  V30 5469 C 516.405 2.41218 5.61478 0
M  V30 5470 C 517.403 3.31499 5.97158 0
M  V30 5471 O 517.091 4.41747 6.71651 0
M  V30 5472 H 516.823 0.0558894 0.673686 0
M  V30 5473 H 519.377 0.806994 1.88883 0
M  V30 5474 H 517.607 -0.942575 3.75037 0
M  V30 5475 H 519.296 -0.615513 4.01206 0
M  V30 5476 H 520.062 1.82043 4.49539 0
M  V30 5477 H 515.941 0.596567 4.57124 0
M  V30 5478 H 519.485 3.80415 5.84748 0
M  V30 5479 H 515.382 2.57167 5.9206 0
M  V30 5480 H 516.15 4.40152 6.90079 0
M  V30 5481 N 518.813 -1.54241 0.323641 0
M  V30 5482 C 520.038 -2.05452 -0.283605 0
M  V30 5483 C 520.463 -1.19823 -1.44997 0
M  V30 5484 O 519.821 -0.207358 -1.8011 0
M  V30 5485 C 519.869 -3.53823 -0.695795 0
M  V30 5486 O 518.973 -3.71134 -1.79815 0
M  V30 5487 H 518.314 -0.662024 -0.0511917 0
M  V30 5488 H 520.844 -1.99079 0.472073 0
M  V30 5489 H 520.854 -3.96094 -0.978434 0
M  V30 5490 H 519.529 -4.15602 0.157287 0
M  V30 5491 H 518.106 -3.40768 -1.51431 0
M  V30 5492 N 520.291 -0.0518155 -1.57515 0
M  V30 5493 C 521.54 0.621286 -1.91893 0
M  V30 5494 C 521.853 1.71966 -0.932052 0
M  V30 5495 O 523.059 2.45096 -1.16791 0
M  V30 5496 C 521.515 1.15641 -3.40816 0
M  V30 5497 C 521.123 0.0901146 -4.47909 0
M  V30 5498 C 522.867 1.80472 -3.84227 0
M  V30 5499 C 520.774 0.638154 -5.87947 0
M  V30 5500 H 519.704 0.235835 -0.716169 0
M  V30 5501 H 522.355 -0.120809 -1.83102 0
M  V30 5502 H 520.737 1.95084 -3.44613 0
M  V30 5503 H 521.911 -0.683525 -4.55702 0
M  V30 5504 H 520.226 -0.460774 -4.13843 0
M  V30 5505 H 522.823 2.22471 -4.86221 0
M  V30 5506 H 523.166 2.65669 -3.20508 0
M  V30 5507 H 523.699 1.07683 -3.82948 0
M  V30 5508 H 520.438 -0.176202 -6.55263 0
M  V30 5509 H 519.958 1.37976 -5.83714 0
M  V30 5510 H 521.637 1.12085 -6.37217 0
M  V30 5511 N 521.769 1.56035 0.221574 0
M  V30 5512 C 522.702 1.87427 1.30178 0
M  V30 5513 C 523.68 0.731658 1.45209 0
M  V30 5514 O 524.864 0.980016 1.61022 0
M  V30 5515 C 521.991 2.08127 2.67209 0
M  V30 5516 C 521.037 3.30813 2.69194 0
M  V30 5517 S 521.87 4.86738 2.23263 0
M  V30 5518 C 523.026 5.10474 3.62171 0
M  V30 5519 H 523.259 2.78756 1.03355 0
M  V30 5520 H 520.792 1.48469 0.423813 0
M  V30 5521 H 522.75 2.20736 3.46101 0
M  V30 5522 H 521.411 1.17595 2.91256 0
M  V30 5523 H 520.604 3.42341 3.6989 0
M  V30 5524 H 520.206 3.1706 1.98366 0
M  V30 5525 H 522.498 4.9937 4.5786 0
M  V30 5526 H 523.441 6.12359 3.55558 0
M  V30 5527 H 523.849 4.38208 3.55857 0
M  V30 5528 N 523.247 -0.488276 1.49845 0
M  V30 5529 C 524.195 -1.60917 1.67954 0
M  V30 5530 C 525.189 -1.6038 0.54539 0
M  V30 5531 O 526.395 -1.64736 0.7254 0
M  V30 5532 H 522.77 -0.533658 0.529824 0
M  V30 5533 H 524.741 -1.428 2.62013 0
M  V30 5534 C 523.49 -2.98975 1.77509 0
M  V30 5535 H 522.813 -3.00099 2.6416 0
M  V30 5536 H 524.253 -3.76906 1.9421 0
M  V30 5537 C 522.712 -3.3282 0.522745 0
M  V30 5538 O 523.242 -4.00208 -0.345866 0
M  V30 5539 N 521.448 -2.8808 0.381882 0
M  V30 5540 H 520.995 -2.33415 1.08974 0
M  V30 5541 H 520.953 -3.11091 -0.454929 0
M  V30 5542 N 524.725 -1.39134 -0.740242 0
M  V30 5543 C 525.655 -1.40165 -1.86751 0
M  V30 5544 C 526.636 -0.265708 -1.68012 0
M  V30 5545 O 527.821 -0.47076 -1.88408 0
M  V30 5546 C 524.951 -1.2392 -3.2444 0
M  V30 5547 C 523.905 -2.34858 -3.57807 0
M  V30 5548 C 523.231 -2.03707 -4.94376 0
M  V30 5549 C 524.531 -3.77159 -3.61315 0
M  V30 5550 H 526.225 -2.345 -1.86145 0
M  V30 5551 H 523.771 -1.12875 -0.89416 0
M  V30 5552 H 525.724 -1.23263 -4.02969 0
M  V30 5553 H 524.448 -0.26051 -3.25559 0
M  V30 5554 H 523.107 -2.34723 -2.81604 0
M  V30 5555 H 522.755 -1.04289 -4.9207 0
M  V30 5556 H 522.455 -2.78016 -5.17669 0
M  V30 5557 H 523.979 -2.04691 -5.75268 0
M  V30 5558 H 525.393 -3.79252 -4.29931 0
M  V30 5559 H 523.79 -4.50784 -3.96124 0
M  V30 5560 H 524.86 -4.08513 -2.61238 0
M  V30 5561 N 526.204 0.969867 -1.24223 0
M  V30 5562 C 527.136 2.0669 -0.99055 0
M  V30 5563 C 528.149 1.62753 0.0392222 0
M  V30 5564 O 529.338 1.77403 -0.197561 0
M  V30 5565 C 526.438 3.35589 -0.472594 0
M  V30 5566 C 525.611 4.08444 -1.56499 0
M  V30 5567 C 524.67 5.15616 -1.05007 0
M  V30 5568 O 523.696 5.41911 -1.7413 0
M  V30 5569 N 524.898 5.80383 0.116641 0
M  V30 5570 H 527.663 2.28855 -1.93508 0
M  V30 5571 H 525.224 1.13733 -1.15223 0
M  V30 5572 H 527.216 4.04542 -0.112919 0
M  V30 5573 H 525.786 3.10311 0.377617 0
M  V30 5574 H 525.006 3.33798 -2.09696 0
M  V30 5575 H 526.294 4.53882 -2.29932 0
M  V30 5576 H 525.692 5.6142 0.694589 0
M  V30 5577 H 524.249 6.50462 0.417483 0
M  V30 5578 N 527.682 1.05563 1.17022 0
M  V30 5579 C 528.63 0.653887 2.2322 0
M  V30 5580 C 529.624 -0.326642 1.66221 0
M  V30 5581 O 530.83 -0.192301 1.7897 0
M  V30 5582 H 527.205 0.193297 0.726733 0
M  V30 5583 H 529.176 1.5596 2.54399 0
M  V30 5584 C 527.925 0.0485434 3.47666 0
M  V30 5585 H 527.248 0.79413 3.91834 0
M  V30 5586 H 528.688 -0.195133 4.23551 0
M  V30 5587 C 527.147 -1.20583 3.14581 0
M  V30 5588 O 527.677 -2.29475 3.29703 0
M  V30 5589 N 525.883 -1.10493 2.68774 0
M  V30 5590 H 525.43 -0.218795 2.56669 0
M  V30 5591 H 525.388 -1.94507 2.47011 0
M  V30 5592 N 529.16 -1.33526 0.837174 0
M  V30 5593 C 530.576 -1.50727 0.524743 0
M  V30 5594 C 530.776 -1.77792 -0.948279 0
M  V30 5595 O 529.832 -1.83719 -1.73216 0
M  V30 5596 C 531.145 -2.66299 1.39661 0
M  V30 5597 C 532.693 -2.80183 1.39521 0
M  V30 5598 C 533.168 -3.98815 2.25189 0
M  V30 5599 N 534.659 -4.06047 2.2289 0
M  V30 5600 C 535.394 -4.97032 2.85915 0
M  V30 5601 N 534.89 -5.93143 3.57985 0
M  V30 5602 N 536.683 -4.90015 2.75394 0
M  V30 5603 H 528.834 -1.1422 1.79074 0
M  V30 5604 H 531.097 -0.561399 0.763894 0
M  V30 5605 H 530.803 -2.52974 2.4433 0
M  V30 5606 H 530.677 -3.61663 1.07145 0
M  V30 5607 H 533.064 -2.92942 0.356253 0
M  V30 5608 H 533.145 -1.85586 1.76044 0
M  V30 5609 H 532.789 -3.86817 3.29143 0
M  V30 5610 H 532.719 -4.92654 1.86009 0
M  V30 5611 H 535.21 -3.37262 1.70478 0
M  V30 5612 H 535.523 -6.59227 4.03286 0
M  V30 5613 H 533.868 -5.93223 3.62093 0
M  V30 5614 H 537.059 -4.13894 2.18654 0
M  V30 5615 H 537.232 -5.60724 3.24796 0
M  V30 5616 N 530.638 -0.59345 -1.46 0
M  V30 5617 C 531.585 0.133618 -2.30413 0
M  V30 5618 C 532.555 0.873736 -1.41262 0
M  V30 5619 O 533.74 0.862279 -1.70204 0
M  V30 5620 C 530.88 1.13434 -3.25924 0
M  V30 5621 C 529.993 0.39656 -4.30176 0
M  V30 5622 C 529.128 1.38575 -5.12806 0
M  V30 5623 C 528.167 0.634984 -6.08797 0
M  V30 5624 N 527.304 1.57276 -6.84258 0
M  V30 5625 H 532.144 -0.592252 -2.92055 0
M  V30 5626 H 529.681 -0.303874 -1.43927 0
M  V30 5627 H 531.639 1.72752 -3.79753 0
M  V30 5628 H 530.269 1.82779 -2.66067 0
M  V30 5629 H 529.321 -0.311861 -3.79119 0
M  V30 5630 H 530.633 -0.189869 -4.98438 0
M  V30 5631 H 529.787 2.05141 -5.70966 0
M  V30 5632 H 528.526 2.00611 -4.44529 0
M  V30 5633 H 527.531 -0.0443925 -5.49782 0
M  V30 5634 H 528.756 0.0198678 -6.79097 0
M  V30 5635 H 526.702 2.18103 -6.18682 0
M  V30 5636 H 526.619 1.03941 -7.48821 0
M  V30 5637 H 527.887 2.22844 -7.46968 0
M  V30 5638 N 532.116 1.54067 -0.331816 0
M  V30 5639 C 533.046 2.27569 0.522932 0
M  V30 5640 C 534.027 1.28679 1.11247 0
M  V30 5641 O 535.212 1.57504 1.13605 0
M  V30 5642 C 532.342 3.0397 1.67987 0
M  V30 5643 C 531.296 4.10267 1.21924 0
M  V30 5644 C 530.622 4.74555 2.46377 0
M  V30 5645 C 531.922 5.21268 0.32815 0
M  V30 5646 H 533.616 2.99264 -0.0901977 0
M  V30 5647 H 531.162 1.4393 -0.044821 0
M  V30 5648 H 533.115 3.54123 2.28418 0
M  V30 5649 H 531.839 2.29906 2.31971 0
M  V30 5650 H 530.498 3.61009 0.637809 0
M  V30 5651 H 530.146 3.97098 3.08743 0
M  V30 5652 H 529.846 5.46363 2.16243 0
M  V30 5653 H 531.37 5.27487 3.07555 0
M  V30 5654 H 532.784 5.67128 0.838978 0
M  V30 5655 H 531.181 5.99982 0.119228 0
M  V30 5656 H 532.251 4.80673 -0.638839 0
M  V30 5657 N 533.594 0.0601682 1.57485 0
M  V30 5658 C 534.84 -0.612501 1.93329 0
M  V30 5659 C 535.173 -1.6996 0.939526 0
M  V30 5660 O 534.448 -1.94472 -0.0330957 0
M  V30 5661 C 534.731 -1.20025 3.39508 0
M  V30 5662 C 534.584 -0.12059 4.49638 0
M  V30 5663 C 535.903 -2.10923 3.86264 0
M  V30 5664 H 533.022 -0.221185 0.703027 0
M  V30 5665 H 535.664 0.123768 1.89596 0
M  V30 5666 H 533.814 -1.82774 3.42821 0
M  V30 5667 H 535.486 0.51185 4.58452 0
M  V30 5668 H 533.729 0.550251 4.30296 0
M  V30 5669 H 534.4 -0.572019 5.49028 0
M  V30 5670 H 536.876 -1.58124 3.84884 0
M  V30 5671 H 535.752 -2.48987 4.8918 0
M  V30 5672 H 536.013 -3.01292 3.23536 0
M  V30 5673 N 535.072 -1.5615 -0.213296 0
M  V30 5674 C 536.004 -1.89586 -1.28802 0
M  V30 5675 C 537.017 -0.784844 -1.42633 0
M  V30 5676 O 538.206 -1.06319 -1.43383 0
M  V30 5677 C 535.306 -2.09665 -2.66259 0
M  V30 5678 C 534.479 -3.40726 -2.7427 0
M  V30 5679 C 533.538 -3.50137 -3.92798 0
M  V30 5680 O 532.564 -4.23105 -3.8075 0
M  V30 5681 N 533.766 -2.81886 -5.07465 0
M  V30 5682 H 536.531 -2.82368 -1.00442 0
M  V30 5683 H 534.092 -1.56796 -0.403302 0
M  V30 5684 H 536.084 -2.13268 -3.43946 0
M  V30 5685 H 534.654 -1.23469 -2.87183 0
M  V30 5686 H 533.874 -3.4915 -1.82997 0
M  V30 5687 H 535.162 -4.27048 -2.76599 0
M  V30 5688 H 534.56 -2.22397 -5.2015 0
M  V30 5689 H 533.117 -2.91139 -5.83165 0
M  V30 5690 N 536.55 0.480323 -1.50102 0
M  V30 5691 C 537.796 1.23489 -1.60867 0
M  V30 5692 C 538.129 1.91809 -0.303827 0
M  V30 5693 O 537.404 1.81694 0.694092 0
M  V30 5694 C 537.687 2.28578 -2.78252 0
M  V30 5695 C 537.54 1.64624 -4.18592 0
M  V30 5696 C 538.859 3.2997 -2.91218 0
M  V30 5697 H 535.978 0.447605 -0.585507 0
M  V30 5698 H 538.62 0.530005 -1.82458 0
M  V30 5699 H 536.77 2.88697 -2.59974 0
M  V30 5700 H 538.442 1.08173 -4.48438 0
M  V30 5701 H 536.685 0.949645 -4.23278 0
M  V30 5702 H 537.356 2.40946 -4.96638 0
M  V30 5703 H 539.832 2.79864 -3.07921 0
M  V30 5704 H 538.708 4.00839 -3.74993 0
M  V30 5705 H 538.969 3.93541 -2.0144 0
M  V30 5706 N 538.028 1.39524 0.732853 0
M  V30 5707 C 539.276 1.36594 1.48951 0
M  V30 5708 C 539.597 -0.0367507 1.94965 0
M  V30 5709 O 538.867 -0.988391 1.69138 0
M  V30 5710 H 537.447 0.502673 0.552566 0
M  V30 5711 H 540.109 1.74411 0.869869 0
M  V30 5712 H 539.205 2.03 2.3706 0
M  V30 5713 N 539.506 -0.963266 1.24736 0
M  V30 5714 C 540.755 -1.70115 1.08369 0
M  V30 5715 C 541.068 -1.91939 -0.376688 0
M  V30 5716 O 542.274 -2.6334 -0.660624 0
M  V30 5717 C 540.73 -3.06218 1.89099 0
M  V30 5718 C 540.338 -2.92221 3.39574 0
M  V30 5719 C 542.082 -3.83848 1.81275 0
M  V30 5720 C 539.989 -4.23662 4.12631 0
M  V30 5721 H 538.919 -0.637944 0.401924 0
M  V30 5722 H 541.57 -1.07304 1.48856 0
M  V30 5723 H 539.952 -3.69884 1.41429 0
M  V30 5724 H 541.126 -2.37541 3.94856 0
M  V30 5725 H 539.441 -2.28054 3.48397 0
M  V30 5726 H 542.038 -4.81188 2.33158 0
M  V30 5727 H 542.381 -4.08949 0.778895 0
M  V30 5728 H 542.914 -3.26918 2.26649 0
M  V30 5729 H 539.653 -4.03753 5.16395 0
M  V30 5730 H 539.173 -4.78141 3.62135 0
M  V30 5731 H 540.852 -4.92256 4.19873 0
M  V30 5732 N 540.985 -1.06182 -1.16461 0
M  V30 5733 C 542.215 -0.797425 -1.9059 0
M  V30 5734 C 542.623 0.651845 -1.77616 0
M  V30 5735 O 541.966 1.45788 -1.11766 0
M  V30 5736 C 542.028 -1.11128 -3.41893 0
M  V30 5737 C 541.692 -2.55874 -3.78652 0
M  V30 5738 C 542.689 -3.54104 -3.80665 0
M  V30 5739 C 540.374 -2.91144 -4.09317 0
M  V30 5740 C 542.368 -4.85645 -4.12829 0
M  V30 5741 C 540.055 -4.22885 -4.41148 0
M  V30 5742 C 541.053 -5.19945 -4.42883 0
M  V30 5743 O 540.741 -6.49322 -4.73959 0
M  V30 5744 H 540.473 -0.288709 -0.611247 0
M  V30 5745 H 543.027 -1.41841 -1.4856 0
M  V30 5746 H 541.257 -0.433217 -3.84266 0
M  V30 5747 H 542.946 -0.831306 -3.97296 0
M  V30 5748 H 543.712 -3.28197 -3.57088 0
M  V30 5749 H 539.591 -2.16252 -4.07131 0
M  V30 5750 H 543.135 -5.61398 -4.14099 0
M  V30 5751 H 539.032 -4.48551 -4.6419 0
M  V30 5752 H 539.8 -6.54294 -4.91774 0
M  V30 5753 N 542.463 1.3308 -0.844243 0
M  V30 5754 C 543.411 2.31028 -0.269954 0
M  V30 5755 C 544.405 1.58381 0.600997 0
M  V30 5756 O 545.611 1.73203 0.48996 0
M  V30 5757 H 541.986 0.748866 -0.0685782 0
M  V30 5758 H 543.957 2.76967 -1.11049 0
M  V30 5759 C 542.706 3.43549 0.535676 0
M  V30 5760 H 542.029 3.99604 -0.125202 0
M  V30 5761 H 543.469 4.14267 0.903262 0
M  V30 5762 C 541.928 2.8988 1.71672 0
M  V30 5763 O 542.458 2.86511 2.81557 0
M  V30 5764 N 540.664 2.46416 1.54037 0
M  V30 5765 H 540.211 2.49356 0.64649 0
M  V30 5766 H 540.169 2.1086 2.33207 0
M  V30 5767 N 543.941 0.601185 1.45683 0
M  V30 5768 C 545.189 0.0936957 2.01883 0
M  V30 5769 C 545.51 -1.2779 1.47291 0
M  V30 5770 O 544.78 -1.84279 0.664691 0
M  V30 5771 H 543.36 0.0316466 0.746329 0
M  V30 5772 H 546.022 0.781137 1.78562 0
M  V30 5773 H 545.118 0.0386297 3.12076 0
M  V30 5774 N 545.419 -1.53889 0.339982 0
M  V30 5775 C 546.647 -2.05271 -0.259114 0
M  V30 5776 C 547.062 -1.21517 -1.44496 0
M  V30 5777 O 546.419 -0.24966 -1.80784 0
M  V30 5778 C 546.47 -3.55092 -0.677634 0
M  V30 5779 O 546.191 -4.35667 0.461051 0
M  V30 5780 C 547.692 -4.22631 -1.33782 0
M  V30 5781 H 544.912 -0.669085 -0.0506566 0
M  V30 5782 H 547.456 -1.9852 0.490935 0
M  V30 5783 H 545.611 -3.62077 -1.37763 0
M  V30 5784 H 546.025 -5.24343 0.128144 0
M  V30 5785 H 547.499 -5.28861 -1.58145 0
M  V30 5786 H 547.976 -3.74758 -2.29027 0
M  V30 5787 H 548.582 -4.19829 -0.679957 0
M  V30 5788 N 546.897 -0.0685191 -1.57451 0
M  V30 5789 C 547.847 0.909895 -2.09057 0
M  V30 5790 C 548.831 1.26088 -0.999528 0
M  V30 5791 O 550.023 1.24041 -1.26265 0
M  V30 5792 C 547.152 2.17863 -2.65312 0
M  V30 5793 C 546.238 1.85427 -3.81415 0
M  V30 5794 N 546.629 1.23426 -4.9051 0
M  V30 5795 C 544.927 2.15196 -3.90649 0
M  V30 5796 C 545.628 1.09008 -5.71395 0
M  V30 5797 N 544.604 1.59871 -5.1956 0
M  V30 5798 H 548.406 0.426145 -2.90794 0
M  V30 5799 H 545.92 0.135462 -1.61834 0
M  V30 5800 H 547.917 2.88872 -3.00597 0
M  V30 5801 H 546.577 2.66829 -1.85021 0
M  V30 5802 H 547.588 0.904305 -5.09944 0
M  V30 5803 H 544.265 2.66562 -3.21327 0
M  V30 5804 H 545.655 0.607305 -6.6915 0
M  V30 5805 N 548.375 1.56261 0.205012 0
M  V30 5806 C 549.621 1.80306 0.9283 0
M  V30 5807 C 549.954 0.640932 1.83319 0
M  V30 5808 O 549.229 -0.359032 1.91158 0
M  V30 5809 C 549.512 3.14547 1.75306 0
M  V30 5810 C 549.365 4.41236 0.873562 0
M  V30 5811 C 550.684 3.45382 2.72762 0
M  V30 5812 H 547.803 0.655929 0.336044 0
M  V30 5813 H 550.445 1.88984 0.196211 0
M  V30 5814 H 548.595 3.0728 2.37721 0
M  V30 5815 H 550.267 4.60539 0.264887 0
M  V30 5816 H 548.51 4.33427 0.179773 0
M  V30 5817 H 549.181 5.31639 1.48541 0
M  V30 5818 H 551.657 3.52884 2.20481 0
M  V30 5819 H 550.533 4.40449 3.2756 0
M  V30 5820 H 550.794 2.68377 3.51321 0
M  V30 5821 N 549.853 -0.472356 1.50355 0
M  V30 5822 C 551.102 -1.2213 1.60522 0
M  V30 5823 C 551.415 -1.9312 0.310466 0
M  V30 5824 O 552.621 -2.69936 0.291029 0
M  V30 5825 C 551.077 -2.21909 2.83345 0
M  V30 5826 C 550.685 -1.56727 4.19691 0
M  V30 5827 C 552.429 -2.97453 3.02856 0
M  V30 5828 C 550.336 -2.54785 5.33703 0
M  V30 5829 H 549.266 -0.459543 0.597776 0
M  V30 5830 H 551.917 -0.491922 1.76783 0
M  V30 5831 H 550.299 -2.98133 2.60639 0
M  V30 5832 H 551.473 -0.863007 4.52646 0
M  V30 5833 H 549.788 -0.934685 4.05774 0
M  V30 5834 H 552.385 -3.70838 3.85205 0
M  V30 5835 H 552.728 -3.56764 2.14534 0
M  V30 5836 H 553.261 -2.28342 3.25737 0
M  V30 5837 H 550 -2.00214 6.24175 0
M  V30 5838 H 549.52 -3.23367 5.05167 0
M  V30 5839 H 551.199 -3.16639 5.64224 0
M  V30 5840 N 551.331 -1.39911 -0.725443 0
M  V30 5841 C 552.742 -1.33599 -1.30415 0
M  V30 5842 C 553.093 -0.00481792 -1.96199 0
M  V30 5843 O 552.218 0.897275 -1.96921 0
M  V30 5844 C 552.813 -2.41965 -2.37146 0
M  V30 5845 C 551.372 -2.39144 -2.90667 0
M  V30 5846 C 550.519 -2.23355 -1.64341 0
M  V30 5847 H 553.47 -1.4986 -0.522267 0
M  V30 5848 H 553.491 -2.09304 -3.17761 0
M  V30 5849 H 553.003 -3.38837 -1.89238 0
M  V30 5850 H 551.104 -1.4594 -3.4283 0
M  V30 5851 H 551.217 -3.34362 -3.43131 0
M  V30 5852 H 549.581 -1.70696 -1.89037 0
M  V30 5853 H 550.364 -3.2221 -1.18471 0
M  V30 5854 N 552.809 0.956637 -1.25245 0
M  V30 5855 C 553.757 2.0743 -1.0524 0
M  V30 5856 C 554.751 1.69392 0.0160725 0
M  V30 5857 O 555.957 1.7946 -0.139382 0
M  V30 5858 H 552.332 0.678921 -0.323373 0
M  V30 5859 H 554.303 2.2146 -1.99995 0
M  V30 5860 C 553.052 3.40872 -0.685702 0
M  V30 5861 H 552.375 3.70607 -1.49968 0
M  V30 5862 H 553.815 4.19939 -0.585415 0
M  V30 5863 C 552.274 3.31367 0.608082 0
M  V30 5864 O 552.804 3.66214 1.65076 0
M  V30 5865 N 551.01 2.84486 0.592955 0
M  V30 5866 H 550.557 2.56326 -0.25592 0
M  V30 5867 H 550.515 2.78509 1.45877 0
M  V30 5868 N 554.287 1.06798 1.15896 0
M  V30 5869 C 555.564 0.701057 1.82605 0
M  V30 5870 C 555.944 -0.817066 1.94646 0
M  V30 5871 O 555.292 -1.72933 1.49353 0
M  V30 5872 C 555.502 1.40895 3.19296 0
M  V30 5873 C 556.85 1.55744 3.95005 0
M  V30 5874 O 557.874 1.36927 3.28831 0
M  V30 5875 O 556.733 1.86658 5.13635 0
M  V30 5876 H 553.827 0.248791 0.78869 0
M  V30 5877 H 556.373 1.16857 1.23055 0
M  V30 5878 H 555.145 2.4439 3.05596 0
M  V30 5879 H 554.768 0.931847 3.86526 0
M  V30 5880 N 555.766 -1.3263 0.851289 0
M  V30 5881 C 557.182 -1.50162 0.5407 0
M  V30 5882 C 557.382 -1.78788 -0.929369 0
M  V30 5883 O 556.438 -1.85545 -1.71258 0
M  V30 5884 C 557.751 -2.64803 1.42478 0
M  V30 5885 C 559.299 -2.78688 1.42485 0
M  V30 5886 C 559.774 -3.96405 2.29407 0
M  V30 5887 N 561.265 -4.0366 2.27184 0
M  V30 5888 C 562 -4.93971 2.9117 0
M  V30 5889 N 561.496 -5.89313 3.64256 0
M  V30 5890 N 563.289 -4.87066 2.80576 0
M  V30 5891 H 555.44 -1.12315 1.80275 0
M  V30 5892 H 557.703 -0.553266 0.769806 0
M  V30 5893 H 557.409 -2.50368 2.46999 0
M  V30 5894 H 557.283 -3.60506 1.10974 0
M  V30 5895 H 559.67 -2.92547 0.387304 0
M  V30 5896 H 559.751 -1.83708 1.78002 0
M  V30 5897 H 559.395 -3.83304 3.33228 0
M  V30 5898 H 559.325 -4.90654 1.91224 0
M  V30 5899 H 561.816 -3.35435 1.74045 0
M  V30 5900 H 562.129 -6.54913 4.10255 0
M  V30 5901 H 560.474 -5.8935 3.68364 0
M  V30 5902 H 563.665 -4.11552 2.23031 0
M  V30 5903 H 563.838 -5.57248 3.30725 0
M  V30 5904 N 557.244 -0.608902 -1.45362 0
M  V30 5905 C 558.191 0.109172 -2.30542 0
M  V30 5906 C 559.161 0.858704 -1.42181 0
M  V30 5907 O 560.346 0.844178 -1.71109 0
M  V30 5908 C 557.486 1.09971 -3.27109 0
M  V30 5909 C 556.599 0.350911 -4.30572 0
M  V30 5910 C 555.734 1.33129 -5.14247 0
M  V30 5911 C 554.773 0.570377 -6.09437 0
M  V30 5912 N 553.91 1.5001 -6.85887 0
M  V30 5913 H 558.75 -0.623195 -2.91411 0
M  V30 5914 H 556.287 -0.319122 -1.43597 0
M  V30 5915 H 558.245 1.68714 -3.81564 0
M  V30 5916 H 556.875 1.79947 -2.67991 0
M  V30 5917 H 555.927 -0.352054 -3.78767 0
M  V30 5918 H 557.239 -0.242725 -4.98209 0
M  V30 5919 H 556.393 1.99074 -5.73109 0
M  V30 5920 H 555.132 1.95885 -4.46632 0
M  V30 5921 H 554.137 -0.102702 -5.49704 0
M  V30 5922 H 555.362 -0.0521607 -6.7908 0
M  V30 5923 H 553.308 2.11529 -6.2096 0
M  V30 5924 H 553.225 0.959934 -7.49881 0
M  V30 5925 H 554.493 2.14909 -7.49289 0
M  V30 5926 N 558.722 1.53707 -0.348139 0
M  V30 5927 C 559.971 2.0017 0.247992 0
M  V30 5928 C 560.284 1.23983 1.51286 0
M  V30 5929 O 561.49 1.60946 2.18652 0
M  V30 5930 C 559.946 3.56515 0.492459 0
M  V30 5931 C 559.554 4.41562 -0.756777 0
M  V30 5932 C 561.298 4.11381 1.0472 0
M  V30 5933 C 559.205 5.89426 -0.482856 0
M  V30 5934 H 558.135 0.747806 0.0964452 0
M  V30 5935 H 560.786 1.77532 -0.464179 0
M  V30 5936 H 559.168 3.75236 1.26545 0
M  V30 5937 H 560.342 4.34615 -1.53122 0
M  V30 5938 H 558.657 3.97711 -1.23348 0
M  V30 5939 H 561.254 5.19468 1.26717 0
M  V30 5940 H 561.597 3.64885 2.00411 0
M  V30 5941 H 562.13 3.96389 0.334801 0
M  V30 5942 H 558.869 6.40164 -1.40962 0
M  V30 5943 H 558.389 5.99264 0.253416 0
M  V30 5944 H 560.068 6.4692 -0.101816 0
M  V30 5945 N 560.2 0.0768682 1.57412 0
M  V30 5946 C 561.449 -0.590679 1.92857 0
M  V30 5947 C 561.762 -1.70461 0.959293 0
M  V30 5948 O 562.968 -2.43207 1.20675 0
M  V30 5949 C 561.424 -1.10204 3.42612 0
M  V30 5950 C 561.032 -0.0188447 4.47996 0
M  V30 5951 C 562.776 -1.74336 3.87049 0
M  V30 5952 C 560.683 -0.544536 5.88888 0
M  V30 5953 H 559.613 -0.224411 0.71983 0
M  V30 5954 H 562.264 0.149924 1.82887 0
M  V30 5955 H 560.646 -1.89577 3.47673 0
M  V30 5956 H 561.82 0.755936 4.54557 0
M  V30 5957 H 560.135 0.526555 4.13057 0
M  V30 5958 H 562.732 -2.14708 4.89699 0
M  V30 5959 H 563.075 -2.60537 3.24694 0
M  V30 5960 H 563.608 -1.01577 3.84613 0
M  V30 5961 H 560.347 0.280426 6.549 0
M  V30 5962 H 559.867 -1.28673 5.85836 0
M  V30 5963 H 561.546 -1.01933 6.3892 0
M  V30 5964 N 561.678 -1.56367 -0.196722 0
M  V30 5965 C 562.924 -1.81698 -0.914182 0
M  V30 5966 C 563.279 -0.65367 -1.80956 0
M  V30 5967 O 562.572 0.351224 -1.88353 0
M  V30 5968 C 562.766 -3.10663 -1.767 0
M  V30 5969 C 562.595 -4.39428 -0.955689 0
M  V30 5970 C 561.365 -5.01221 -0.64076 0
M  V30 5971 C 563.563 -5.1337 -0.309165 0
M  V30 5972 N 561.545 -6.13608 0.189358 0
M  V30 5973 C 562.916 -6.18815 0.383225 0
M  V30 5974 C 564.971 -4.97393 -0.224726 0
M  V30 5975 C 563.674 -7.10015 1.15201 0
M  V30 5976 C 565.7 -5.89014 0.530658 0
M  V30 5977 C 565.062 -6.93903 1.2115 0
M  V30 5978 H 561.161 -0.716203 -0.31397 0
M  V30 5979 H 563.745 -1.93838 -0.18304 0
M  V30 5980 H 561.916 -2.99762 -2.46976 0
M  V30 5981 H 563.648 -3.24088 -2.42382 0
M  V30 5982 H 560.403 -4.63669 -0.96479 0
M  V30 5983 H 560.827 -6.74389 0.593979 0
M  V30 5984 H 565.469 -4.16331 -0.736754 0
M  V30 5985 H 563.187 -7.9054 1.67547 0
M  V30 5986 H 566.773 -5.78726 0.597326 0
M  V30 5987 H 565.653 -7.63576 1.78665 0
M  V30 5988 N 563.156 0.464375 -1.50603 0
M  V30 5989 C 564.567 1.04507 -1.5471 0
M  V30 5990 C 564.918 1.9297 -0.354542 0
M  V30 5991 O 564.043 2.09763 0.531812 0
M  V30 5992 C 564.638 1.90207 -2.80369 0
M  V30 5993 C 563.197 2.43373 -2.87135 0
M  V30 5994 C 562.344 1.21886 -2.49076 0
M  V30 5995 H 565.295 0.246716 -1.56771 0
M  V30 5996 H 565.316 2.75353 -2.62604 0
M  V30 5997 H 564.828 1.25796 -3.67147 0
M  V30 5998 H 562.929 3.11318 -2.04724 0
M  V30 5999 H 563.042 2.7802 -3.90181 0
M  V30 6000 H 561.406 1.55575 -2.01664 0
M  V30 6001 H 562.189 0.591268 -3.3817 0
M  V30 6002 N 564.634 1.40294 0.718013 0
M  V30 6003 C 565.882 1.38167 1.47494 0
M  V30 6004 C 566.203 -0.01607 1.94993 0
M  V30 6005 O 565.473 -0.970396 1.70177 0
M  V30 6006 H 564.053 0.508505 0.547203 0
M  V30 6007 H 566.715 1.75324 0.851322 0
M  V30 6008 H 565.811 2.05503 2.34894 0
M  V30 6009 N 566.112 -0.949982 1.2575 0
M  V30 6010 C 567.36 -1.6918 1.10555 0
M  V30 6011 C 567.681 -1.91773 -0.353298 0
M  V30 6012 O 566.951 -1.50814 -1.25027 0
M  V30 6013 H 565.531 -0.626952 0.406129 0
M  V30 6014 H 568.193 -1.1419 1.57945 0
M  V30 6015 H 567.289 -2.66915 1.61749 0
M  V30 6016 N 567.59 -1.07411 -1.15328 0
M  V30 6017 C 568.5 -0.706438 -2.23711 0
M  V30 6018 C 569.516 0.282586 -1.7169 0
M  V30 6019 O 570.692 0.129066 -2.00986 0
M  V30 6020 C 567.757 -0.11048 -3.46524 0
M  V30 6021 C 566.818 -1.15282 -4.13532 0
M  V30 6022 C 566.051 -0.585205 -5.30482 0
M  V30 6023 O 566.274 0.598549 -5.67251 0
M  V30 6024 O 565.208 -1.33039 -5.87013 0
M  V30 6025 H 569.034 -1.61031 -2.57493 0
M  V30 6026 H 566.619 -0.847113 -1.23062 0
M  V30 6027 H 568.501 0.21957 -4.20828 0
M  V30 6028 H 567.176 0.766703 -3.14489 0
M  V30 6029 H 566.083 -1.53523 -3.41147 0
M  V30 6030 H 567.416 -2.00192 -4.49649 0
M  V30 6031 N 569.068 1.32177 -0.85831 0
M  V30 6032 C 570.296 2.01313 -0.477582 0
M  V30 6033 C 570.711 1.6449 0.926736 0
M  V30 6034 O 570.068 0.868096 1.60531 0
M  V30 6035 C 570.119 3.56293 -0.611337 0
M  V30 6036 O 569.84 3.91794 -1.96034 0
M  V30 6037 C 571.341 4.42702 -0.230093 0
M  V30 6038 H 568.561 0.644323 -0.187322 0
M  V30 6039 H 571.105 1.68674 -1.15626 0
M  V30 6040 H 569.26 3.87395 0.0196494 0
M  V30 6041 H 569.674 4.86513 -1.95973 0
M  V30 6042 H 571.148 5.50727 -0.374674 0
M  V30 6043 H 571.625 4.3129 0.829779 0
M  V30 6044 H 572.231 4.16997 -0.836302 0
M  V30 6045 N 570.547 0.616602 1.45037 0
M  V30 6046 C 571.457 -0.0985401 2.34393 0
M  V30 6047 C 572.473 -0.850971 1.51771 0
M  V30 6048 O 573.649 -0.806521 1.84546 0
M  V30 6049 C 570.714 -1.07748 3.29532 0
M  V30 6050 C 569.775 -0.326022 4.2806 0
M  V30 6051 C 569.008 -1.25833 5.18654 0
M  V30 6052 O 569.231 -2.49652 5.12864 0
M  V30 6053 O 568.165 -0.750512 5.97203 0
M  V30 6054 H 571.991 0.636016 2.96966 0
M  V30 6055 H 569.576 0.376832 1.44569 0
M  V30 6056 H 571.458 -1.64107 3.88133 0
M  V30 6057 H 570.133 -1.79291 2.69512 0
M  V30 6058 H 569.04 0.280253 3.73049 0
M  V30 6059 H 570.373 0.349091 4.9096 0
M  V30 6060 N 572.025 -1.5352 0.356285 0
M  V30 6061 C 572.972 -2.25439 -0.494569 0
M  V30 6062 C 573.942 -1.25752 -1.08516 0
M  V30 6063 O 575.127 -1.54513 -1.1194 0
M  V30 6064 C 572.267 -3.04011 -1.63313 0
M  V30 6065 C 571.38 -4.18574 -1.06862 0
M  V30 6066 C 570.515 -4.84607 -2.17552 0
M  V30 6067 C 569.554 -5.91218 -1.58518 0
M  V30 6068 N 568.691 -6.50979 -2.63003 0
M  V30 6069 H 573.531 -2.97737 0.125244 0
M  V30 6070 H 571.068 -1.46916 0.0735789 0
M  V30 6071 H 573.026 -3.47834 -2.30363 0
M  V30 6072 H 571.656 -2.33986 -2.22374 0
M  V30 6073 H 570.708 -3.79303 -0.288672 0
M  V30 6074 H 572.02 -4.95215 -0.596924 0
M  V30 6075 H 571.174 -5.31566 -2.92442 0
M  V30 6076 H 569.913 -4.07418 -2.6807 0
M  V30 6077 H 568.918 -5.4363 -0.821391 0
M  V30 6078 H 570.143 -6.70322 -1.08836 0
M  V30 6079 H 568.089 -5.76648 -3.12751 0
M  V30 6080 H 568.006 -7.23131 -2.20493 0
M  V30 6081 H 569.274 -7.02589 -3.37623 0
M  V30 6082 N 573.503 -0.0852151 -1.57369 0
M  V30 6083 C 574.914 0.445428 -1.81309 0
M  V30 6084 C 575.265 1.68795 -1.00013 0
M  V30 6085 O 574.39 2.15211 -0.226573 0
M  V30 6086 C 574.985 0.814887 -3.28854 0
M  V30 6087 C 573.544 1.29032 -3.53592 0
M  V30 6088 C 572.691 0.282089 -2.75861 0
M  V30 6089 H 575.642 -0.310771 -1.55627 0
M  V30 6090 H 575.663 1.67524 -3.41637 0
M  V30 6091 H 575.175 -0.0896309 -3.87996 0
M  V30 6092 H 573.276 2.21289 -2.9977 0
M  V30 6093 H 573.389 1.25898 -4.62262 0
M  V30 6094 H 571.753 0.762182 -2.43029 0
M  V30 6095 H 572.536 -0.614936 -3.37748 0
M  V30 6096 N 574.981 1.5647 0.188427 0
M  V30 6097 C 576.397 1.50204 0.539532 0
M  V30 6098 C 576.597 0.78644 1.85519 0
M  V30 6099 O 575.653 0.339714 2.50204 0
M  V30 6100 C 576.966 2.94893 0.588103 0
M  V30 6101 C 578.514 3.05602 0.67648 0
M  V30 6102 C 578.989 4.51716 0.756101 0
M  V30 6103 N 580.48 4.55894 0.819451 0
M  V30 6104 C 581.215 5.66272 0.90134 0
M  V30 6105 N 580.711 6.86323 0.945118 0
M  V30 6106 N 582.504 5.54201 0.939043 0
M  V30 6107 H 574.655 2.01406 -0.674493 0
M  V30 6108 H 576.918 0.916828 -0.241103 0
M  V30 6109 H 576.624 3.50334 -0.309633 0
M  V30 6110 H 576.498 3.4861 1.44051 0
M  V30 6111 H 578.885 2.50206 1.56465 0
M  V30 6112 H 578.966 2.54999 -0.202262 0
M  V30 6113 H 578.61 5.07739 -0.12774 0
M  V30 6114 H 578.54 5.00058 1.65074 0
M  V30 6115 H 581.031 3.69452 0.794594 0
M  V30 6116 H 581.344 7.66194 1.0083 0
M  V30 6117 H 579.689 6.88968 0.913683 0
M  V30 6118 H 582.88 4.59333 0.901725 0
M  V30 6119 H 583.053 6.40247 0.999402 0
M  V30 6120 N 576.459 -0.456382 1.50847 0
M  V30 6121 C 577.707 -1.20497 1.62249 0
M  V30 6122 C 578.028 -1.92156 0.331839 0
M  V30 6123 O 577.298 -1.84751 -0.651443 0
M  V30 6124 H 575.878 -0.447775 0.597918 0
M  V30 6125 H 578.54 -0.525099 1.87693 0
M  V30 6126 H 577.636 -1.94492 2.44089 0
M  V30 6127 N 577.937 -1.40673 -0.710563 0
M  V30 6128 C 579.167 -1.4234 -1.49742 0
M  V30 6129 C 579.575 -0.022821 -1.89186 0
M  V30 6130 O 578.918 0.964773 -1.56326 0
M  V30 6131 C 578.98 -2.25509 -2.79975 0
M  V30 6132 C 578.644 -3.73862 -2.62824 0
M  V30 6133 C 579.641 -4.66379 -2.29752 0
M  V30 6134 C 577.326 -4.17735 -2.78932 0
M  V30 6135 C 579.32 -6.00756 -2.13006 0
M  V30 6136 C 577.007 -5.5218 -2.61802 0
M  V30 6137 C 578.005 -6.43505 -2.28888 0
M  V30 6138 O 577.693 -7.75472 -2.11894 0
M  V30 6139 H 577.425 -0.487311 -0.468513 0
M  V30 6140 H 579.979 -1.8542 -0.883668 0
M  V30 6141 H 578.209 -1.77218 -3.43701 0
M  V30 6142 H 579.898 -2.19058 -3.41714 0
M  V30 6143 H 580.664 -4.33778 -2.16936 0
M  V30 6144 H 576.543 -3.46967 -3.03537 0
M  V30 6145 H 580.087 -6.72003 -1.87237 0
M  V30 6146 H 575.984 -5.84365 -2.74204 0
M  V30 6147 H 576.752 -7.86458 -2.26775 0
M  V30 6148 N 579.415 0.9433 -1.26252 0
M  V30 6149 C 580.347 2.04542 -1.03417 0
M  V30 6150 C 581.36 1.62799 0.0046911 0
M  V30 6151 O 582.549 1.76944 -0.235146 0
M  V30 6152 C 579.649 3.34511 -0.543671 0
M  V30 6153 C 578.822 4.05033 -1.65128 0
M  V30 6154 C 577.881 5.13273 -1.1592 0
M  V30 6155 O 576.907 5.38095 -1.85586 0
M  V30 6156 N 578.109 5.805 -0.00649279 0
M  V30 6157 H 580.874 2.24699 -1.98319 0
M  V30 6158 H 578.435 1.11264 -1.1761 0
M  V30 6159 H 580.427 4.04212 -0.198703 0
M  V30 6160 H 578.997 3.11042 0.311711 0
M  V30 6161 H 578.217 3.29275 -2.16729 0
M  V30 6162 H 579.505 4.48903 -2.39508 0
M  V30 6163 H 578.903 5.62767 0.575347 0
M  V30 6164 H 577.46 6.51201 0.279416 0
M  V30 6165 N 580.893 1.08022 1.14757 0
M  V30 6166 C 581.826 0.650738 2.18725 0
M  V30 6167 C 582.804 -0.335496 1.59101 0
M  V30 6168 O 583.988 -0.240295 1.86962 0
M  V30 6169 C 581.115 -0.0434377 3.38672 0
M  V30 6170 C 580.161 0.90232 4.16846 0
M  V30 6171 S 580.994 2.40693 4.78359 0
M  V30 6172 C 582.15 1.72475 6.01667 0
M  V30 6173 H 582.383 1.53152 2.54817 0
M  V30 6174 H 579.916 0.894823 1.25826 0
M  V30 6175 H 581.874 -0.437684 4.0816 0
M  V30 6176 H 580.535 -0.900659 3.0091 0
M  V30 6177 H 579.728 0.363445 5.02688 0
M  V30 6178 H 579.33 1.23728 3.52941 0
M  V30 6179 H 581.622 1.0404 6.69464 0
M  V30 6180 H 582.565 2.56175 6.60136 0
M  V30 6181 H 582.973 1.19979 5.51602 0
M  V30 6182 N 582.371 -1.3172 0.865308 0
M  V30 6183 C 583.596 -2.01591 0.487415 0
M  V30 6184 C 584.021 -1.6455 -0.911307 0
M  V30 6185 O 583.379 -0.851689 -1.6005 0
M  V30 6186 C 583.427 -3.54759 0.646401 0
M  V30 6187 O 582.531 -4.11185 -0.316284 0
M  V30 6188 H 581.872 -0.634884 0.194468 0
M  V30 6189 H 584.402 -1.68024 1.16744 0
M  V30 6190 H 584.412 -4.04438 0.537932 0
M  V30 6191 H 583.087 -3.8106 1.66632 0
M  V30 6192 H 581.664 -3.72543 -0.163162 0
M  V30 6193 N 583.85 -0.624285 -1.44708 0
M  V30 6194 C 585.077 -0.132919 -2.06473 0
M  V30 6195 C 585.493 1.18967 -1.46602 0
M  V30 6196 O 584.85 1.72824 -0.586341 0
M  V30 6197 C 584.901 -0.00465418 -3.615 0
M  V30 6198 O 584.622 -1.27494 -4.19138 0
M  V30 6199 C 586.123 0.516213 -4.40284 0
M  V30 6200 H 583.343 -0.0765201 -0.666623 0
M  V30 6201 H 585.887 -0.856751 -1.85688 0
M  V30 6202 H 584.042 0.669583 -3.8157 0
M  V30 6203 H 584.456 -1.11536 -5.12504 0
M  V30 6204 H 585.93 0.554994 -5.49203 0
M  V30 6205 H 586.407 1.5419 -4.11245 0
M  V30 6206 H 587.013 -0.124542 -4.25118 0
M  V30 6207 N 585.328 1.53329 -0.364422 0
M  V30 6208 C 586.744 1.59594 -0.0133165 0
M  V30 6209 C 586.944 1.37959 1.46865 0
M  V30 6210 O 586 1.18418 2.2301 0
M  V30 6211 C 587.313 2.97032 -0.468213 0
M  V30 6212 C 588.861 3.10138 -0.422334 0
M  V30 6213 C 589.336 4.49986 -0.853024 0
M  V30 6214 N 590.827 4.56098 -0.808037 0
M  V30 6215 C 591.562 5.62495 -1.11299 0
M  V30 6216 N 591.058 6.7665 -1.48717 0
M  V30 6217 N 592.851 5.52473 -1.03586 0
M  V30 6218 H 585.002 1.65644 -1.32951 0
M  V30 6219 H 587.265 0.77684 -0.543345 0
M  V30 6220 H 586.971 3.18 -1.5023 0
M  V30 6221 H 586.845 3.76918 0.145775 0
M  V30 6222 H 589.232 2.88881 0.602622 0
M  V30 6223 H 589.313 2.32263 -1.0718 0
M  V30 6224 H 588.957 4.7198 -1.87609 0
M  V30 6225 H 588.887 5.26289 -0.180819 0
M  V30 6226 H 591.378 3.74131 -0.532361 0
M  V30 6227 H 591.691 7.53776 -1.70415 0
M  V30 6228 H 590.036 6.78044 -1.52581 0
M  V30 6229 H 593.227 4.6217 -0.742736 0
M  V30 6230 H 593.4 6.35295 -1.27686 0
M  V30 6231 N 586.806 0.0935595 1.57322 0
M  V30 6232 C 587.736 -0.863062 2.16964 0
M  V30 6233 C 588.717 -1.29528 1.10256 0
M  V30 6234 O 589.902 -1.36245 1.38387 0
M  V30 6235 C 587.032 -2.12276 2.74875 0
M  V30 6236 C 585.986 -1.82921 3.86942 0
M  V30 6237 C 585.312 -3.15707 4.31548 0
M  V30 6238 C 586.612 -1.11737 5.10208 0
M  V30 6239 H 588.306 -0.366145 2.97153 0
M  V30 6240 H 585.852 -0.174673 1.42937 0
M  V30 6241 H 587.805 -2.79634 3.1525 0
M  V30 6242 H 586.529 -2.64248 1.91938 0
M  V30 6243 H 585.188 -1.17961 3.47103 0
M  V30 6244 H 584.836 -3.65563 3.45504 0
M  V30 6245 H 584.536 -2.96849 5.07104 0
M  V30 6246 H 586.06 -3.84226 4.74555 0
M  V30 6247 H 587.474 -1.69203 5.47762 0
M  V30 6248 H 585.871 -1.03064 5.91183 0
M  V30 6249 H 586.941 -0.0998818 4.84797 0
M  V30 6250 N 588.284 -1.56567 -0.180126 0
M  V30 6251 C 589.231 -1.95725 -1.22313 0
M  V30 6252 C 590.201 -0.819911 -1.44453 0
M  V30 6253 O 591.386 -1.07931 -1.57339 0
M  V30 6254 C 588.526 -2.31484 -2.55947 0
M  V30 6255 C 587.639 -3.58354 -2.4126 0
M  V30 6256 C 586.774 -3.83366 -3.67701 0
M  V30 6257 C 585.813 -5.03612 -3.47909 0
M  V30 6258 N 584.95 -5.24802 -4.66398 0
M  V30 6259 H 589.79 -2.84642 -0.882198 0
M  V30 6260 H 587.327 -1.4085 -0.42422 0
M  V30 6261 H 589.285 -2.50237 -3.33822 0
M  V30 6262 H 587.915 -1.45689 -2.88053 0
M  V30 6263 H 586.967 -3.47565 -1.54606 0
M  V30 6264 H 588.279 -4.46386 -2.22577 0
M  V30 6265 H 587.433 -4.02439 -4.54013 0
M  V30 6266 H 586.172 -2.93692 -3.89353 0
M  V30 6267 H 585.177 -4.84447 -2.59983 0
M  V30 6268 H 586.402 -5.94809 -3.27688 0
M  V30 6269 H 584.348 -4.38079 -4.88286 0
M  V30 6270 H 584.265 -6.07041 -4.50596 0
M  V30 6271 H 585.533 -5.48346 -5.54019 0
M  V30 6272 N 589.762 0.448376 -1.51087 0
M  V30 6273 C 591.011 1.19561 -1.62444 0
M  V30 6274 C 591.324 1.92602 -0.341151 0
M  V30 6275 O 592.53 2.69439 -0.333936 0
M  V30 6276 C 590.986 2.17373 -2.8684 0
M  V30 6277 C 590.594 1.5003 -4.22131 0
M  V30 6278 C 592.338 2.92597 -3.0755 0
M  V30 6279 C 590.245 2.46262 -5.37689 0
M  V30 6280 H 589.175 0.449975 -0.605011 0
M  V30 6281 H 591.826 0.463735 -1.77544 0
M  V30 6282 H 590.208 2.93948 -2.65349 0
M  V30 6283 H 591.382 0.790886 -4.53962 0
M  V30 6284 H 589.697 0.870011 -4.0721 0
M  V30 6285 H 592.294 3.64663 -3.91056 0
M  V30 6286 H 592.637 3.53306 -2.20183 0
M  V30 6287 H 593.17 2.23131 -3.29329 0
M  V30 6288 H 589.909 1.90258 -6.27281 0
M  V30 6289 H 589.429 3.15289 -5.10248 0
M  V30 6290 H 591.108 3.07623 -5.6919 0
M  V30 6291 N 591.24 1.41047 0.703093 0
M  V30 6292 C 592.486 1.40207 1.46526 0
M  V30 6293 C 592.819 0.00847763 1.94198 0
M  V30 6294 O 592.094 -0.962437 1.69019 0
M  V30 6295 C 592.377 2.40238 2.6825 0
M  V30 6296 C 592.23 3.88674 2.26391 0
M  V30 6297 C 593.549 2.37627 3.70434 0
M  V30 6298 H 590.668 0.510594 0.531472 0
M  V30 6299 H 593.31 1.72271 0.801422 0
M  V30 6300 H 591.46 2.13026 3.24888 0
M  V30 6301 H 593.132 4.2676 1.75138 0
M  V30 6302 H 591.375 4.03903 1.58255 0
M  V30 6303 H 592.046 4.542 3.13698 0
M  V30 6304 H 594.522 2.61759 3.23452 0
M  V30 6305 H 593.398 3.09645 4.53223 0
M  V30 6306 H 593.659 1.39223 4.19606 0
M  V30 6307 N 592.718 -0.936591 1.26751 0
M  V30 6308 C 593.946 -1.71758 1.15355 0
M  V30 6309 C 594.361 -1.86549 -0.290683 0
M  V30 6310 O 593.718 -1.37616 -1.19868 0
M  V30 6311 C 593.769 -3.12193 1.82258 0
M  V30 6312 O 593.49 -2.98105 3.21038 0
M  V30 6313 C 594.991 -4.06485 1.76875 0
M  V30 6314 H 592.211 -0.537636 0.401483 0
M  V30 6315 H 594.755 -1.17382 1.67457 0
M  V30 6316 H 592.91 -3.63456 1.34083 0
M  V30 6317 H 593.324 -3.86824 3.54214 0
M  V30 6318 H 594.798 -5.02569 2.28316 0
M  V30 6319 H 595.275 -4.32986 0.736216 0
M  V30 6320 H 595.881 -3.61144 2.24623 0
M  V30 6321 N 594.196 -1.08629 -1.14182 0
M  V30 6322 C 595.445 -0.812271 -1.84621 0
M  V30 6323 C 595.758 0.664313 -1.83973 0
M  V30 6324 O 596.964 1.05357 -2.50224 0
M  V30 6325 C 595.42 -1.4031 -3.31423 0
M  V30 6326 C 595.028 -2.91164 -3.40481 0
M  V30 6327 C 596.772 -1.20767 -4.06959 0
M  V30 6328 C 594.679 -3.43373 -4.81507 0
M  V30 6329 H 593.609 -0.30019 -0.691666 0
M  V30 6330 H 596.26 -1.30798 -1.28701 0
M  V30 6331 H 594.642 -0.835096 -3.87094 0
M  V30 6332 H 595.816 -3.5412 -2.94848 0
M  V30 6333 H 594.131 -3.09646 -2.78403 0
M  V30 6334 H 596.728 -1.57237 -5.11058 0
M  V30 6335 H 597.071 -0.147664 -4.16038 0
M  V30 6336 H 597.604 -1.74274 -3.57594 0
M  V30 6337 H 594.343 -4.48958 -4.77616 0
M  V30 6338 H 593.863 -2.85176 -5.27669 0
M  V30 6339 H 595.542 -3.40095 -5.50404 0
M  V30 6340 N 595.674 1.31259 -0.872281 0
M  V30 6341 C 596.624 2.26 -0.301295 0
M  V30 6342 C 597.608 1.50729 0.562991 0
M  V30 6343 O 598.8 1.72198 0.40949 0
M  V30 6344 C 595.929 3.39724 0.494227 0
M  V30 6345 C 595.015 4.22363 -0.383432 0
M  V30 6346 N 595.406 4.83724 -1.47799 0
M  V30 6347 C 593.704 4.45652 -0.176278 0
M  V30 6348 C 594.405 5.45523 -2.01939 0
M  V30 6349 N 593.381 5.27428 -1.31608 0
M  V30 6350 H 597.183 2.70981 -1.13782 0
M  V30 6351 H 594.697 1.45552 -0.720294 0
M  V30 6352 H 596.694 4.06626 0.919828 0
M  V30 6353 H 595.354 2.96286 1.32834 0
M  V30 6354 H 596.365 4.83313 -1.8609 0
M  V30 6355 H 593.042 4.12845 0.621698 0
M  V30 6356 H 594.432 6.04268 -2.93786 0
M  V30 6357 N 597.152 0.631951 1.44375 0
M  V30 6358 C 598.084 -0.110911 2.28931 0
M  V30 6359 C 599.097 -0.808086 1.41329 0
M  V30 6360 O 600.286 -0.669396 1.65473 0
M  V30 6361 C 597.386 -1.17928 3.1772 0
M  V30 6362 C 596.559 -0.564458 4.33743 0
M  V30 6363 C 595.618 -1.5269 5.0356 0
M  V30 6364 O 594.644 -1.04372 5.59549 0
M  V30 6365 N 595.846 -2.86123 5.05088 0
M  V30 6366 H 598.611 0.614758 2.93327 0
M  V30 6367 H 596.172 0.473171 1.54831 0
M  V30 6368 H 598.164 -1.82348 3.61291 0
M  V30 6369 H 596.734 -1.80717 2.55069 0
M  V30 6370 H 595.954 0.258373 3.93352 0
M  V30 6371 H 597.242 -0.134355 5.08623 0
M  V30 6372 H 596.64 -3.27959 4.60933 0
M  V30 6373 H 595.197 -3.45901 5.52445 0
M  V30 6374 N 598.631 -1.53133 0.372548 0
M  V30 6375 C 599.541 -2.29671 -0.478379 0
M  V30 6376 C 600.557 -1.35913 -1.08644 0
M  V30 6377 O 601.733 -1.68975 -1.09588 0
M  V30 6378 C 598.798 -3.07625 -1.599 0
M  V30 6379 C 597.859 -4.17061 -1.01776 0
M  V30 6380 C 597.092 -4.91289 -2.08497 0
M  V30 6381 O 597.315 -4.65442 -3.29727 0
M  V30 6382 O 596.249 -5.7705 -1.71164 0
M  V30 6383 H 600.075 -3.03355 0.144649 0
M  V30 6384 H 597.66 -1.48773 0.136729 0
M  V30 6385 H 599.542 -3.56281 -2.25038 0
M  V30 6386 H 598.217 -2.3677 -2.2073 0
M  V30 6387 H 597.124 -3.72641 -0.330098 0
M  V30 6388 H 598.457 -4.90102 -0.453915 0
M  V30 6389 N 600.109 -0.101901 -1.5727 0
M  V30 6390 C 601.52 0.426173 -1.81771 0
M  V30 6391 C 601.871 1.67725 -1.01797 0
M  V30 6392 O 600.996 2.14958 -0.249386 0
M  V30 6393 C 601.591 0.779962 -3.297 0
M  V30 6394 C 600.15 1.25275 -3.54941 0
M  V30 6395 C 599.297 0.252814 -2.76145 0
M  V30 6396 H 602.248 -0.32726 -1.55289 0
M  V30 6397 H 602.269 1.63891 -3.43395 0
M  V30 6398 H 601.781 -0.130778 -3.8788 0
M  V30 6399 H 599.882 2.18097 -3.021 0
M  V30 6400 H 599.995 1.20988 -4.63572 0
M  V30 6401 H 598.359 0.736362 -2.43823 0
M  V30 6402 H 599.142 -0.650724 -3.37076 0
M  V30 6403 N 601.587 1.56661 0.17182 0
M  V30 6404 C 602.834 1.81965 0.888529 0
M  V30 6405 C 603.162 0.6789 1.82267 0
M  V30 6406 O 602.417 -0.333875 1.92831 0
M  V30 6407 C 602.716 3.13435 1.71736 0
M  V30 6408 C 602.382 4.41159 0.932184 0
M  V30 6409 C 601.044 4.75851 0.715481 0
M  V30 6410 C 603.396 5.19803 0.381387 0
M  V30 6411 C 600.724 5.86666 -0.063126 0
M  V30 6412 C 603.076 6.31433 -0.384129 0
M  V30 6413 C 601.74 6.64692 -0.611637 0
M  V30 6414 H 601.01 0.665859 0.325136 0
M  V30 6415 H 603.657 1.90884 0.153495 0
M  V30 6416 H 601.962 2.99857 2.52177 0
M  V30 6417 H 603.659 3.30224 2.27493 0
M  V30 6418 H 600.249 4.13947 1.11112 0
M  V30 6419 H 604.433 4.93396 0.536148 0
M  V30 6420 H 599.689 6.10892 -0.249136 0
M  V30 6421 H 603.863 6.91577 -0.818185 0
M  V30 6422 H 601.49 7.50398 -1.21684 0
M  V30 6423 N 603.065 -0.440357 1.51323 0
M  V30 6424 C 604.311 -1.19181 1.64085 0
M  V30 6425 C 604.644 -1.90936 0.354575 0
M  V30 6426 O 603.919 -1.8347 -0.645675 0
M  V30 6427 C 604.202 -2.2112 2.84215 0
M  V30 6428 C 604.055 -1.53468 4.22809 0
M  V30 6429 C 605.374 -3.22133 2.99864 0
M  V30 6430 H 602.493 -0.431924 0.597169 0
M  V30 6431 H 605.135 -0.481443 1.83799 0
M  V30 6432 H 603.285 -2.81703 2.67537 0
M  V30 6433 H 604.957 -0.962455 4.51148 0
M  V30 6434 H 603.2 -0.837086 4.25647 0
M  V30 6435 H 603.871 -2.27694 5.02852 0
M  V30 6436 H 606.347 -2.71601 3.15233 0
M  V30 6437 H 605.223 -3.90756 3.85488 0
M  V30 6438 H 605.484 -3.88061 2.11804 0
M  V30 6439 N 604.543 -1.41418 -0.695603 0
M  V30 6440 C 605.773 -1.43921 -1.48224 0
M  V30 6441 C 606.181 -0.0428855 -1.89151 0
M  V30 6442 O 605.524 0.948138 -1.5734 0
M  V30 6443 C 605.586 -2.28466 -2.77567 0
M  V30 6444 C 605.25 -3.76629 -2.58844 0
M  V30 6445 C 606.247 -4.6879 -2.24793 0
M  V30 6446 C 603.932 -4.2067 -2.74485 0
M  V30 6447 C 605.926 -6.02981 -2.06622 0
M  V30 6448 C 603.613 -5.54926 -2.55931 0
M  V30 6449 C 604.611 -6.45897 -2.2205 0
M  V30 6450 O 604.299 -7.77675 -2.03657 0
M  V30 6451 H 604.031 -0.492252 -0.463318 0
M  V30 6452 H 606.585 -1.86347 -0.863952 0
M  V30 6453 H 604.815 -1.80853 -3.41802 0
M  V30 6454 H 606.504 -2.2267 -3.39371 0
M  V30 6455 H 607.27 -4.36055 -2.12323 0
M  V30 6456 H 603.149 -3.50167 -2.9984 0
M  V30 6457 H 606.693 -6.73951 -1.80099 0
M  V30 6458 H 602.59 -5.8724 -2.67991 0
M  V30 6459 H 603.358 -7.88819 -2.1842 0
M  V30 6460 N 606.021 0.929856 -1.27246 0
M  V30 6461 C 607.267 1.6798 -1.13625 0
M  V30 6462 C 607.6 1.91586 0.317589 0
M  V30 6463 O 606.875 1.50467 1.23247 0
M  V30 6464 C 607.158 3.04766 -1.91806 0
M  V30 6465 C 607.011 2.88415 -3.45162 0
M  V30 6466 C 608.33 4.05063 -1.72082 0
M  V30 6467 H 605.449 0.609632 -0.414147 0
M  V30 6468 H 608.091 1.0792 -1.56376 0
M  V30 6469 H 606.241 3.56034 -1.55474 0
M  V30 6470 H 607.913 2.44282 -3.91311 0
M  V30 6471 H 606.156 2.23802 -3.71611 0
M  V30 6472 H 606.827 3.85482 -3.95105 0
M  V30 6473 H 609.303 3.62798 -2.03757 0
M  V30 6474 H 608.179 4.98765 -2.29182 0
M  V30 6475 H 608.44 4.37021 -0.668206 0
M  V30 6476 N 607.499 1.09233 1.13605 0
M  V30 6477 C 608.446 0.729921 2.18954 0
M  V30 6478 C 609.416 -0.287916 1.63586 0
M  V30 6479 O 610.601 -0.170003 1.90041 0
M  V30 6480 C 607.741 0.154489 3.44754 0
M  V30 6481 C 606.854 1.22613 4.14234 0
M  V30 6482 C 605.989 0.613657 5.27644 0
M  V30 6483 C 605.028 1.66674 5.8897 0
M  V30 6484 N 604.165 1.07545 6.93814 0
M  V30 6485 H 609.005 1.63257 2.49302 0
M  V30 6486 H 606.542 0.815693 1.22413 0
M  V30 6487 H 608.5 -0.196923 4.16735 0
M  V30 6488 H 607.13 -0.711433 3.14863 0
M  V30 6489 H 606.182 1.69485 3.40557 0
M  V30 6490 H 607.494 2.0238 4.55899 0
M  V30 6491 H 606.648 0.210976 6.06333 0
M  V30 6492 H 605.387 -0.215584 4.87223 0
M  V30 6493 H 604.392 2.07899 5.08978 0
M  V30 6494 H 605.617 2.49861 6.31464 0
M  V30 6495 H 603.563 0.267451 6.55455 0
M  V30 6496 H 603.48 1.81011 7.3401 0
M  V30 6497 H 604.748 0.698906 7.7636 0
M  V30 6498 N 608.977 -1.30795 0.87923 0
M  V30 6499 C 610.388 -1.78535 0.546093 0
M  V30 6500 C 610.739 -1.72354 -0.937467 0
M  V30 6501 O 609.864 -1.2969 -1.73233 0
M  V30 6502 C 610.459 -3.24181 0.9845 0
M  V30 6503 C 609.018 -3.69779 0.702871 0
M  V30 6504 C 608.165 -2.51377 1.17068 0
M  V30 6505 H 611.116 -1.17746 1.06403 0
M  V30 6506 H 611.137 -3.79227 0.311045 0
M  V30 6507 H 610.649 -3.28647 2.06429 0
M  V30 6508 H 608.75 -3.70806 -0.365166 0
M  V30 6509 H 608.863 -4.61507 1.28639 0
M  V30 6510 H 607.227 -2.47768 0.590172 0
M  V30 6511 H 608.01 -2.58584 2.25808 0
M  V30 6512 N 610.455 -0.639598 -1.44038 0
M  V30 6513 C 611.683 -0.154811 -2.0632 0
M  V30 6514 C 612.098 1.17406 -1.47856 0
M  V30 6515 O 611.455 1.72193 -0.604638 0
M  V30 6516 C 611.506 -0.0429958 -3.61474 0
M  V30 6517 O 611.227 -1.31932 -4.17763 0
M  V30 6518 C 612.728 0.469486 -4.40807 0
M  V30 6519 H 609.948 -0.0835862 -0.665773 0
M  V30 6520 H 612.492 -0.876397 -1.84769 0
M  V30 6521 H 610.647 0.629075 -3.82258 0
M  V30 6522 H 611.061 -1.16965 -5.11292 0
M  V30 6523 H 612.535 0.496712 -5.49761 0
M  V30 6524 H 613.012 1.49819 -4.12857 0
M  V30 6525 H 613.618 -0.169624 -4.24962 0
M  V30 6526 N 611.933 1.52934 -0.380664 0
M  V30 6527 C 612.863 2.29118 0.450268 0
M  V30 6528 C 613.844 1.32153 1.07096 0
M  V30 6529 O 615.029 1.61038 1.08537 0
M  V30 6530 C 612.159 3.09161 1.58231 0
M  V30 6531 C 611.113 4.13938 1.0881 0
M  V30 6532 C 610.439 4.82153 2.31155 0
M  V30 6533 C 611.739 5.22048 0.162146 0
M  V30 6534 H 613.433 2.98826 -0.185361 0
M  V30 6535 H 610.979 1.43715 -0.0905886 0
M  V30 6536 H 612.932 3.61211 2.17036 0
M  V30 6537 H 611.656 2.3717 2.2454 0
M  V30 6538 H 610.315 3.62855 0.522633 0
M  V30 6539 H 609.963 4.06719 2.95953 0
M  V30 6540 H 609.663 5.52966 1.98752 0
M  V30 6541 H 611.187 5.37004 2.90618 0
M  V30 6542 H 612.601 5.6951 0.658126 0
M  V30 6543 H 610.998 6.00057 -0.0717122 0
M  V30 6544 H 612.068 4.78398 -0.791438 0
M  V30 6545 N 613.412 0.11024 1.57214 0
M  V30 6546 C 614.637 -0.561179 1.99664 0
M  V30 6547 C 615.062 -1.59985 0.989266 0
M  V30 6548 O 614.42 -1.81255 -0.0402399 0
M  V30 6549 C 614.468 -1.17189 3.41027 0
M  V30 6550 O 613.572 -2.28755 3.4314 0
M  V30 6551 H 612.913 -0.14101 0.648855 0
M  V30 6552 H 615.443 0.196128 2.03658 0
M  V30 6553 H 615.453 -1.50954 3.79047 0
M  V30 6554 H 614.128 -0.411041 4.13864 0
M  V30 6555 H 612.705 -1.96495 3.16929 0
M  V30 6556 N 614.89 -1.56749 -0.16351 0
M  V30 6557 C 616.167 -1.73321 -0.906599 0
M  V30 6558 C 616.547 -0.673779 -2.00059 0
M  V30 6559 O 615.895 0.310121 -2.26386 0
M  V30 6560 C 616.105 -3.168 -1.46419 0
M  V30 6561 C 617.453 -3.77993 -1.93407 0
M  V30 6562 O 618.477 -3.20127 -1.56196 0
M  V30 6563 O 617.336 -4.79615 -2.61976 0
M  V30 6564 H 614.43 -0.708073 -0.427272 0
M  V30 6565 H 616.976 -1.69029 -0.150727 0
M  V30 6566 H 615.748 -3.85396 -0.677189 0
M  V30 6567 H 615.371 -3.2545 -2.28403 0
M  V30 6568 N 616.368 0.432326 -1.51554 0
M  V30 6569 C 617.616 1.17901 -1.64146 0
M  V30 6570 C 617.937 1.91604 -0.362367 0
M  V30 6571 O 617.207 1.85764 0.621968 0
M  V30 6572 H 615.787 0.438206 -0.604966 0
M  V30 6573 H 618.449 0.495172 -1.88505 0
M  V30 6574 H 617.545 1.90584 -2.47152 0
M  V30 6575 N 617.846 1.41785 0.688094 0
M  V30 6576 C 619.074 1.44915 1.47673 0
M  V30 6577 C 619.489 0.0565786 1.88715 0
M  V30 6578 O 618.846 -0.92579 1.57275 0
M  V30 6579 C 618.897 2.36452 2.73446 0
M  V30 6580 O 618.618 3.7029 2.34131 0
M  V30 6581 C 620.119 2.48463 3.67125 0
M  V30 6582 H 617.339 0.493324 0.454832 0
M  V30 6583 H 619.883 1.86153 0.846594 0
M  V30 6584 H 618.038 1.98502 3.3268 0
M  V30 6585 H 618.452 4.19183 3.15255 0
M  V30 6586 H 619.926 3.16662 4.52138 0
M  V30 6587 H 620.403 1.51826 4.12123 0
M  V30 6588 H 621.009 2.8708 3.13792 0
M  V30 6589 N 619.324 -0.923095 1.27737 0
M  V30 6590 C 620.564 -1.6858 1.15586 0
M  V30 6591 C 620.928 -1.89758 -0.292562 0
M  V30 6592 O 622.129 -2.6339 -0.536583 0
M  V30 6593 C 620.4 -3.01275 1.92271 0
M  V30 6594 S 621.959 -3.924 1.96387 0
M  V30 6595 H 618.777 -0.579069 0.412554 0
M  V30 6596 H 621.379 -1.09866 1.61709 0
M  V30 6597 H 620.083 -2.83556 2.96689 0
M  V30 6598 H 619.614 -3.6504 1.46661 0
M  V30 6599 H 621.629 -4.84667 1.06361 0
M  V30 6600 N 620.802 -1.09834 -1.13024 0
M  V30 6601 C 621.749 -0.741522 -2.18564 0
M  V30 6602 C 622.719 0.279236 -1.63736 0
M  V30 6603 O 623.904 0.159923 -1.90129 0
M  V30 6604 C 621.044 -0.17277 -3.44667 0
M  V30 6605 C 620.157 -1.24808 -4.13578 0
M  V30 6606 C 619.292 -0.641631 -5.27311 0
M  V30 6607 C 618.331 -1.69795 -5.88078 0
M  V30 6608 N 617.468 -1.11223 -6.93234 0
M  V30 6609 H 622.308 -1.64576 -2.48432 0
M  V30 6610 H 619.845 -0.822174 -1.21978 0
M  V30 6611 H 621.803 0.17482 -4.16834 0
M  V30 6612 H 620.433 0.694725 -3.15235 0
M  V30 6613 H 619.485 -1.71288 -3.39653 0
M  V30 6614 H 620.797 -2.04795 -4.54819 0
M  V30 6615 H 619.951 -0.243128 -6.06213 0
M  V30 6616 H 618.69 0.189742 -4.87331 0
M  V30 6617 H 617.695 -2.10595 -5.07868 0
M  V30 6618 H 618.92 -2.53206 -6.3013 0
M  V30 6619 H 616.866 -0.302208 -6.55304 0
M  V30 6620 H 616.783 -1.84901 -7.3304 0
M  V30 6621 H 618.051 -0.740068 -7.75979 0
M  V30 6622 N 622.28 1.30327 -0.886154 0
M  V30 6623 C 623.19 2.31854 -0.357866 0
M  V30 6624 C 624.206 1.65392 0.540502 0
M  V30 6625 O 625.382 1.96683 0.433339 0
M  V30 6626 C 622.447 3.44171 0.417999 0
M  V30 6627 C 621.508 4.26257 -0.510263 0
M  V30 6628 C 620.741 5.3321 0.228669 0
M  V30 6629 O 620.964 5.51542 1.45458 0
M  V30 6630 O 619.898 6.0042 -0.421832 0
M  V30 6631 H 623.724 2.78995 -1.19982 0
M  V30 6632 H 621.309 1.34518 -0.650028 0
M  V30 6633 H 623.191 4.12588 0.857251 0
M  V30 6634 H 621.866 2.99164 1.23623 0
M  V30 6635 H 620.773 3.60533 -0.99835 0
M  V30 6636 H 622.106 4.74871 -1.29454 0
M  V30 6637 N 623.758 0.647228 1.43697 0
M  V30 6638 C 624.668 -0.0487997 2.34549 0
M  V30 6639 C 625.684 -0.818586 1.53542 0
M  V30 6640 O 626.86 -0.767195 1.86215 0
M  V30 6641 C 623.925 -1.00734 3.31743 0
M  V30 6642 C 622.986 -0.23515 4.28655 0
M  V30 6643 C 622.219 -1.14803 5.21206 0
M  V30 6644 O 622.442 -2.38717 5.18045 0
M  V30 6645 O 621.376 -0.623667 5.9866 0
M  V30 6646 H 625.202 0.698863 2.9555 0
M  V30 6647 H 622.787 0.407412 1.43738 0
M  V30 6648 H 624.669 -1.55837 3.91526 0
M  V30 6649 H 623.344 -1.73534 2.73254 0
M  V30 6650 H 622.251 0.359319 3.7237 0
M  V30 6651 H 623.584 0.453152 4.9011 0
M  V30 6652 N 625.236 -1.5273 0.388769 0
M  V30 6653 C 626.483 -2.01573 -0.19359 0
M  V30 6654 C 626.811 -1.27525 -1.46859 0
M  V30 6655 O 626.066 -0.363926 -1.92286 0
M  V30 6656 C 626.365 -3.53765 -0.508445 0
M  V30 6657 C 626.031 -4.4582 0.674947 0
M  V30 6658 C 624.693 -4.70703 0.999596 0
M  V30 6659 C 627.045 -5.00138 1.46666 0
M  V30 6660 C 624.373 -5.47155 2.11751 0
M  V30 6661 C 626.725 -5.77812 2.57518 0
M  V30 6662 C 625.389 -6.00975 2.90492 0
M  V30 6663 H 624.659 -0.737606 -0.0708397 0
M  V30 6664 H 627.306 -1.84134 0.526006 0
M  V30 6665 H 625.611 -3.69274 -1.30936 0
M  V30 6666 H 627.308 -3.8905 -0.971664 0
M  V30 6667 H 623.898 -4.26616 0.411906 0
M  V30 6668 H 628.082 -4.8084 1.22909 0
M  V30 6669 H 623.338 -5.63314 2.3767 0
M  V30 6670 H 627.512 -6.18904 3.19267 0
M  V30 6671 H 625.139 -6.59998 3.77236 0
M  V30 6672 N 626.714 -0.118576 -1.57153 0
M  V30 6673 C 627.942 0.54726 -1.99531 0
M  V30 6674 C 628.357 1.60251 -0.998246 0
M  V30 6675 O 627.714 1.82498 0.00893106 0
M  V30 6676 C 627.765 1.17378 -3.41913 0
M  V30 6677 O 627.486 0.160703 -4.37805 0
M  V30 6678 C 628.987 1.92297 -3.9942 0
M  V30 6679 H 626.207 0.144919 -0.655164 0
M  V30 6680 H 628.751 -0.20479 -2.03472 0
M  V30 6681 H 626.906 1.87661 -3.38913 0
M  V30 6682 H 627.32 0.61586 -5.20872 0
M  V30 6683 H 628.794 2.31462 -5.01128 0
M  V30 6684 H 629.271 2.79801 -3.38538 0
M  V30 6685 H 629.877 1.26777 -4.05965 0
M  V30 6686 N 628.193 1.56834 0.155195 0
M  V30 6687 C 629.439 1.83169 0.870467 0
M  V30 6688 C 629.772 0.698929 1.81187 0
M  V30 6689 O 629.047 -0.298035 1.92203 0
M  V30 6690 C 629.33 3.19965 1.65211 0
M  V30 6691 C 629.183 4.43792 0.732744 0
M  V30 6692 C 630.502 3.53885 2.61636 0
M  V30 6693 H 627.621 0.666288 0.315006 0
M  V30 6694 H 630.263 1.89513 0.135988 0
M  V30 6695 H 628.413 3.14687 2.27825 0
M  V30 6696 H 630.085 4.61148 0.118236 0
M  V30 6697 H 628.328 4.3378 0.0417906 0
M  V30 6698 H 628.999 5.36095 1.31552 0
M  V30 6699 H 631.475 3.5972 2.09143 0
M  V30 6700 H 630.351 4.50648 3.13381 0
M  V30 6701 H 630.612 2.79418 3.42605 0
M  V30 6702 N 629.671 -0.424282 1.51781 0
M  V30 6703 C 630.619 -1.53649 1.74628 0
M  V30 6704 C 631.613 -1.57923 0.612922 0
M  V30 6705 O 632.819 -1.61511 0.794618 0
M  V30 6706 H 629.194 -0.510706 0.551981 0
M  V30 6707 H 631.165 -1.31558 2.67834 0
M  V30 6708 C 629.914 -2.91177 1.9003 0
M  V30 6709 H 629.237 -2.88625 2.76651 0
M  V30 6710 H 630.677 -3.6833 2.10021 0
M  V30 6711 C 629.136 -3.30303 0.663435 0
M  V30 6712 O 629.666 -4.01315 -0.175812 0
M  V30 6713 N 627.872 -2.86201 0.503723 0
M  V30 6714 H 627.419 -2.28583 1.18776 0
M  V30 6715 H 627.377 -3.12741 -0.322575 0
M  V30 6716 N 631.149 -1.42148 -0.680565 0
M  V30 6717 C 632.397 -1.42029 -1.43779 0
M  V30 6718 C 632.718 -0.0356347 -1.94967 0
M  V30 6719 O 631.988 0.924936 -1.7269 0
M  V30 6720 H 630.568 -0.522835 -0.533529 0
M  V30 6721 H 633.23 -1.7752 -0.804538 0
M  V30 6722 H 632.326 -2.11658 -2.29363 0
M  V30 6723 N 632.627 0.916307 -1.28225 0
M  V30 6724 C 633.904 1.64429 -1.05936 0
M  V30 6725 C 634.284 2.07234 0.402139 0
M  V30 6726 O 633.632 1.81535 1.3877 0
M  V30 6727 C 633.842 2.83773 -2.03159 0
M  V30 6728 C 635.19 3.54852 -2.33164 0
M  V30 6729 O 636.214 2.93918 -2.01223 0
M  V30 6730 O 635.073 4.64663 -2.87664 0
M  V30 6731 H 632.167 0.721221 -0.404683 0
M  V30 6732 H 634.713 0.965838 -1.39534 0
M  V30 6733 H 633.485 2.49217 -3.01673 0
M  V30 6734 H 633.108 3.59333 -1.70192 0
M  V30 6735 N 634.105 1.10431 1.1244 0
M  V30 6736 C 635.516 0.864439 1.65482 0
M  V30 6737 C 635.867 -0.60527 1.8663 0
M  V30 6738 O 634.992 -1.46492 1.59276 0
M  V30 6739 C 635.587 1.56267 3.0061 0
M  V30 6740 C 634.146 1.3695 3.50602 0
M  V30 6741 C 633.293 1.61209 2.25626 0
M  V30 6742 H 636.244 1.26203 0.962209 0
M  V30 6743 H 636.265 1.00166 3.67079 0
M  V30 6744 H 635.777 2.63231 2.85186 0
M  V30 6745 H 633.878 0.321481 3.71211 0
M  V30 6746 H 633.991 2.11143 4.30064 0
M  V30 6747 H 632.355 1.03482 2.32731 0
M  V30 6748 H 633.138 2.69425 2.12756 0
M  V30 6749 N 635.583 -1.29855 0.893053 0
M  V30 6750 C 636.829 -1.96116 0.516349 0
M  V30 6751 C 637.162 -1.70281 -0.933695 0
M  V30 6752 O 636.437 -1.01205 -1.66096 0
M  V30 6753 C 636.72 -3.51068 0.801455 0
M  V30 6754 C 636.573 -3.86387 2.30272 0
M  V30 6755 C 637.892 -4.39186 0.283423 0
M  V30 6756 H 635.011 -0.712335 0.189072 0
M  V30 6757 H 637.653 -1.53587 1.11852 0
M  V30 6758 H 635.803 -3.87424 0.288949 0
M  V30 6759 H 637.475 -3.60012 2.88425 0
M  V30 6760 H 635.718 -3.34167 2.76613 0
M  V30 6761 H 636.389 -4.94512 2.45279 0
M  V30 6762 H 638.865 -4.09785 0.722187 0
M  V30 6763 H 637.741 -5.46505 0.512169 0
M  V30 6764 H 638.002 -4.34511 -0.815643 0
M  V30 6765 N 637.061 -0.65484 -1.43351 0
M  V30 6766 C 638.008 0.0357713 -2.30772 0
M  V30 6767 C 638.978 0.813035 -1.44841 0
M  V30 6768 O 640.163 0.789314 -1.73708 0
M  V30 6769 C 637.303 0.995084 -3.30442 0
M  V30 6770 C 636.416 0.21375 -4.31471 0
M  V30 6771 C 635.551 1.16701 -5.18222 0
M  V30 6772 C 634.59 0.376201 -6.10943 0
M  V30 6773 N 633.727 1.28113 -6.90313 0
M  V30 6774 H 638.567 -0.71559 -2.89281 0
M  V30 6775 H 636.104 -0.364645 -1.42509 0
M  V30 6776 H 638.062 1.5649 -3.86739 0
M  V30 6777 H 636.692 1.7133 -2.7358 0
M  V30 6778 H 635.744 -0.472377 -3.77456 0
M  V30 6779 H 637.056 -0.401103 -4.97185 0
M  V30 6780 H 636.21 1.8074 -5.79153 0
M  V30 6781 H 634.949 1.81577 -4.52638 0
M  V30 6782 H 633.954 -0.277534 -5.49099 0
M  V30 6783 H 635.179 -0.268178 -6.7857 0
M  V30 6784 H 633.125 1.91666 -6.27376 0
M  V30 6785 H 633.042 0.720879 -7.52555 0
M  V30 6786 H 634.31 1.90962 -7.55747 0
M  V30 6787 N 638.539 1.52521 -0.396863 0
M  V30 6788 C 639.486 2.26671 0.434624 0
M  V30 6789 C 640.456 1.28584 1.05144 0
M  V30 6790 O 641.641 1.57426 1.07804 0
M  V30 6791 C 638.781 3.08234 1.55196 0
M  V30 6792 C 637.894 4.21261 0.957262 0
M  V30 6793 C 637.029 4.90205 2.04627 0
M  V30 6794 C 636.068 5.95213 1.42787 0
M  V30 6795 N 635.205 6.57723 2.45651 0
M  V30 6796 H 640.045 2.973 -0.204139 0
M  V30 6797 H 637.582 1.46669 -0.112505 0
M  V30 6798 H 639.54 3.53819 2.2106 0
M  V30 6799 H 638.17 2.398 2.16092 0
M  V30 6800 H 637.222 3.79935 0.188005 0
M  V30 6801 H 638.534 4.96624 0.465416 0
M  V30 6802 H 637.688 5.39133 2.78246 0
M  V30 6803 H 636.427 4.14383 2.57174 0
M  V30 6804 H 635.432 5.45616 0.676968 0
M  V30 6805 H 636.657 6.72972 0.910255 0
M  V30 6806 H 634.603 5.84737 2.97353 0
M  V30 6807 H 634.52 7.28723 2.01243 0
M  V30 6808 H 635.788 7.11293 3.18876 0
M  V30 6809 N 640.017 0.126909 1.57088 0
M  V30 6810 C 641.263 -0.529952 1.95753 0
M  V30 6811 C 641.596 -1.65823 1.01077 0
M  V30 6812 O 640.871 -1.94437 0.0494162 0
M  V30 6813 C 641.154 -1.05517 3.44294 0
M  V30 6814 C 641.007 0.0702253 4.49745 0
M  V30 6815 C 642.326 -1.9435 3.94862 0
M  V30 6816 H 639.445 -0.191168 0.711775 0
M  V30 6817 H 642.087 0.204071 1.88901 0
M  V30 6818 H 640.237 -1.68069 3.50264 0
M  V30 6819 H 641.909 0.705834 4.55868 0
M  V30 6820 H 640.152 0.732259 4.27575 0
M  V30 6821 H 640.823 -0.338642 5.5096 0
M  V30 6822 H 643.299 -1.41658 3.91244 0
M  V30 6823 H 642.175 -2.28015 4.993 0
M  V30 6824 H 642.436 -2.87299 3.36024 0
M  V30 6825 N 641.495 -1.56914 -0.146875 0
M  V30 6826 C 642.744 -1.82546 -0.857898 0
M  V30 6827 C 643.057 -0.708169 -1.8233 0
M  V30 6828 O 644.263 -0.850093 -2.57848 0
M  V30 6829 C 642.719 -3.23548 -1.57623 0
M  V30 6830 C 642.327 -4.43212 -0.653224 0
M  V30 6831 C 644.071 -3.58453 -2.27402 0
M  V30 6832 C 641.978 -5.75237 -1.37318 0
M  V30 6833 H 640.908 -0.680786 -0.32411 0
M  V30 6834 H 643.559 -1.83166 -0.110639 0
M  V30 6835 H 641.941 -3.17315 -2.36912 0
M  V30 6836 H 643.115 -4.60682 0.104452 0
M  V30 6837 H 641.43 -4.16351 -0.0638336 0
M  V30 6838 H 644.027 -4.54349 -2.81907 0
M  V30 6839 H 644.37 -2.84516 -3.03901 0
M  V30 6840 H 644.903 -3.66347 -1.55032 0
M  V30 6841 H 641.642 -6.52269 -0.650041 0
M  V30 6842 H 641.162 -5.61703 -2.10357 0
M  V30 6843 H 642.841 -6.18039 -1.91406 0
M  V30 6844 N 642.974 0.416227 -1.52004 0
M  V30 6845 C 644.214 1.17307 -1.67387 0
M  V30 6846 C 644.578 1.87959 -0.39183 0
M  V30 6847 O 645.779 2.65472 -0.421671 0
M  V30 6848 C 644.05 2.14661 -2.85754 0
M  V30 6849 S 645.609 2.98549 -3.21581 0
M  V30 6850 H 642.427 0.397505 -0.5895 0
M  V30 6851 H 645.029 0.461431 -1.89976 0
M  V30 6852 H 643.733 1.61431 -3.77317 0
M  V30 6853 H 643.264 2.90375 -2.65417 0
M  V30 6854 H 645.279 4.16536 -2.69652 0
M  V30 6855 N 644.452 1.42507 0.673017 0
M  V30 6856 C 645.68 1.46473 1.46128 0
M  V30 6857 C 646.095 0.0765912 1.88645 0
M  V30 6858 O 645.452 -0.909057 1.58248 0
M  V30 6859 C 645.503 2.39339 2.70923 0
M  V30 6860 O 645.224 3.72752 2.3019 0
M  V30 6861 C 646.725 2.52343 3.64469 0
M  V30 6862 H 643.945 0.49812 0.449575 0
M  V30 6863 H 646.489 1.87041 0.826802 0
M  V30 6864 H 644.644 2.02019 3.30556 0
M  V30 6865 H 645.058 4.22503 3.10791 0
M  V30 6866 H 646.532 3.2144 4.48754 0
M  V30 6867 H 647.009 1.56189 4.1049 0
M  V30 6868 H 647.615 2.90392 3.10729 0
M  V30 6869 N 645.93 -0.909495 1.28709 0
M  V30 6870 C 647.178 -1.65577 1.15882 0
M  V30 6871 C 647.499 -1.928 -0.292108 0
M  V30 6872 O 646.769 -1.54716 -1.20166 0
M  V30 6873 H 645.349 -0.613714 0.425869 0
M  V30 6874 H 648.011 -1.09108 1.61498 0
M  V30 6875 H 647.107 -2.61634 1.70159 0
M  V30 6876 N 647.408 -1.11026 -1.11852 0
M  V30 6877 C 648.819 -0.873203 -1.65021 0
M  V30 6878 C 649.17 0.595364 -1.86949 0
M  V30 6879 O 648.295 1.45645 -1.60051 0
M  V30 6880 C 648.89 -1.57859 -2.99777 0
M  V30 6881 C 647.449 -1.38807 -3.49871 0
M  V30 6882 C 646.596 -1.62403 -2.24768 0
M  V30 6883 H 649.547 -1.26712 -0.955503 0
M  V30 6884 H 649.568 -1.02111 -3.66543 0
M  V30 6885 H 649.08 -2.6474 -2.83786 0
M  V30 6886 H 647.181 -0.341163 -3.71035 0
M  V30 6887 H 647.294 -2.13421 -4.28938 0
M  V30 6888 H 645.658 -1.04714 -2.32179 0
M  V30 6889 H 646.441 -2.70549 -2.11324 0
M  V30 6890 N 648.886 1.2938 -0.899927 0
M  V30 6891 C 649.834 2.29675 -0.367698 0
M  V30 6892 C 650.828 1.60787 0.533282 0
M  V30 6893 O 652.034 1.75126 0.416058 0
M  V30 6894 H 648.409 0.745284 -0.100279 0
M  V30 6895 H 650.38 2.72008 -1.22696 0
M  V30 6896 C 649.129 3.45512 0.389483 0
M  V30 6897 H 648.452 3.98713 -0.294575 0
M  V30 6898 H 649.892 4.17725 0.726744 0
M  V30 6899 C 648.351 2.969 1.59223 0
M  V30 6900 O 648.881 2.98195 2.69152 0
M  V30 6901 N 647.087 2.52728 1.43447 0
M  V30 6902 H 646.634 2.51873 0.540148 0
M  V30 6903 H 646.592 2.20561 2.24054 0
M  V30 6904 N 650.364 0.662433 1.43002 0
M  V30 6905 C 651.641 0.109096 1.95296 0
M  V30 6906 C 652.021 -1.37313 1.60338 0
M  V30 6907 O 651.369 -2.1032 0.893187 0
M  V30 6908 C 651.579 0.365096 3.47085 0
M  V30 6909 C 652.927 0.274964 4.23709 0
M  V30 6910 O 653.951 0.29816 3.5495 0
M  V30 6911 O 652.81 0.206549 5.4611 0
M  V30 6912 H 649.904 -0.00429724 0.826989 0
M  V30 6913 H 652.45 0.736308 1.52894 0
M  V30 6914 H 651.222 1.39237 3.65689 0
M  V30 6915 H 650.845 -0.294733 3.96506 0
M  V30 6916 N 651.842 -1.52309 0.404946 0
M  V30 6917 C 653.07 -2.06185 -0.171818 0
M  V30 6918 C 653.485 -1.27536 -1.39212 0
M  V30 6919 O 652.842 -0.326112 -1.79563 0
M  V30 6920 C 652.893 -3.57647 -0.526417 0
M  V30 6921 O 652.614 -4.3332 0.645417 0
M  V30 6922 C 654.115 -4.27925 -1.15736 0
M  V30 6923 H 651.335 -0.670632 -0.0222328 0
M  V30 6924 H 653.879 -1.96259 0.574692 0
M  V30 6925 H 652.034 -3.67595 -1.22282 0
M  V30 6926 H 652.448 -5.23328 0.35042 0
M  V30 6927 H 653.922 -5.35093 -1.35572 0
M  V30 6928 H 654.399 -3.84134 -2.12926 0
M  V30 6929 H 655.005 -4.22335 -0.501281 0
M  V30 6930 N 653.32 -0.135238 -1.57019 0
M  V30 6931 C 654.545 0.529343 -2.00531 0
M  V30 6932 C 654.97 1.58391 -1.01459 0
M  V30 6933 O 654.328 1.81296 0.0113986 0
M  V30 6934 C 654.376 1.11748 -3.42848 0
M  V30 6935 O 653.48 2.23267 -3.46736 0
M  V30 6936 H 652.821 0.130669 -0.651016 0
M  V30 6937 H 655.351 -0.228503 -2.0332 0
M  V30 6938 H 655.361 1.44905 -3.81401 0
M  V30 6939 H 654.036 0.345147 -4.14465 0
M  V30 6940 H 652.613 1.91428 -3.20015 0
M  V30 6941 N 654.798 1.5699 0.138552 0
M  V30 6942 C 656.209 1.73171 0.697754 0
M  V30 6943 C 656.56 0.750952 1.8126 0
M  V30 6944 O 655.685 -0.080549 2.1625 0
M  V30 6945 C 656.28 3.13996 1.27248 0
M  V30 6946 C 654.839 3.3175 1.77816 0
M  V30 6947 C 653.986 2.69084 0.669991 0
M  V30 6948 H 656.937 1.5846 -0.0871979 0
M  V30 6949 H 656.958 3.14463 2.14227 0
M  V30 6950 H 656.47 3.85354 0.460855 0
M  V30 6951 H 654.571 2.65403 2.61519 0
M  V30 6952 H 654.684 4.39768 1.90107 0
M  V30 6953 H 653.048 2.29782 1.09874 0
M  V30 6954 H 653.831 3.43053 -0.130329 0
M  V30 6955 N 656.276 -0.40816 1.52223 0
M  V30 6956 C 657.524 -1.15274 1.66001 0
M  V30 6957 C 657.845 -1.91003 0.392803 0
M  V30 6958 O 657.115 -1.8673 -0.592336 0
M  V30 6959 H 655.695 -0.428526 0.611861 0
M  V30 6960 H 658.357 -0.46512 1.89269 0
M  V30 6961 H 657.453 -1.86628 2.50153 0
M  V30 6962 N 657.755 -1.42862 -0.66545 0
M  V30 6963 C 658.98 -1.47456 -1.45848 0
M  V30 6964 C 659.405 -0.0900312 -1.87884 0
M  V30 6965 O 658.763 0.913587 -1.56599 0
M  V30 6966 C 658.811 -2.41514 -2.67774 0
M  V30 6967 O 657.915 -1.89296 -3.66389 0
M  V30 6968 H 657.256 -0.499236 -0.437789 0
M  V30 6969 H 659.786 -1.8765 -0.815394 0
M  V30 6970 H 659.796 -2.58409 -3.15735 0
M  V30 6971 H 658.471 -3.42099 -2.36519 0
M  V30 6972 H 657.048 -1.82003 -3.25468 0
M  V30 6973 N 659.233 0.902656 -1.29189 0
M  V30 6974 C 660.644 1.46809 -1.15343 0
M  V30 6975 C 660.995 1.94568 0.252517 0
M  V30 6976 O 660.12 1.83454 1.14777 0
M  V30 6977 C 660.715 2.66829 -2.08776 0
M  V30 6978 C 659.274 3.19518 -1.98961 0
M  V30 6979 C 658.421 1.92212 -1.99874 0
M  V30 6980 H 661.372 0.714282 -1.41717 0
M  V30 6981 H 661.393 3.42465 -1.65826 0
M  V30 6982 H 660.905 2.32039 -3.11094 0
M  V30 6983 H 659.006 3.59008 -0.99721 0
M  V30 6984 H 659.119 3.84016 -2.86477 0
M  V30 6985 H 657.483 2.0979 -1.44431 0
M  V30 6986 H 658.266 1.59702 -3.03891 0
M  V30 6987 N 660.711 1.11618 1.11262 0
M  V30 6988 C 662.127 0.850468 1.35053 0
M  V30 6989 C 662.327 -0.523868 1.94571 0
M  V30 6990 O 661.383 -1.2743 2.17986 0
M  V30 6991 C 662.696 1.96005 2.28041 0
M  V30 6992 C 664.244 1.98993 2.416 0
M  V30 6993 C 664.719 3.0916 3.37911 0
M  V30 6994 N 666.21 3.08547 3.45475 0
M  V30 6995 C 666.945 3.9043 4.19943 0
M  V30 6996 N 666.441 4.8228 4.97371 0
M  V30 6997 N 668.234 3.786 4.15474 0
M  V30 6998 H 660.385 2.00184 0.709932 0
M  V30 6999 H 662.648 0.870635 0.375099 0
M  V30 7000 H 662.354 2.9499 1.91503 0
M  V30 7001 H 662.228 1.85782 3.28275 0
M  V30 7002 H 664.615 1.00633 2.77411 0
M  V30 7003 H 664.696 2.13292 1.4121 0
M  V30 7004 H 664.34 4.07748 3.02827 0
M  V30 7005 H 664.27 2.92102 4.3816 0
M  V30 7006 H 666.761 2.42 2.90249 0
M  V30 7007 H 667.074 5.41289 5.51567 0
M  V30 7008 H 665.419 4.863 4.96525 0
M  V30 7009 H 668.61 3.06185 3.54074 0
M  V30 7010 H 668.783 4.42647 4.73253 0
M  V30 7011 N 662.189 -1.289 0.906776 0
M  V30 7012 C 663.139 -2.25122 0.361109 0
M  V30 7013 C 664.123 -1.52169 -0.52283 0
M  V30 7014 O 665.315 -1.73223 -0.363691 0
M  V30 7015 C 662.444 -3.40915 -0.403982 0
M  V30 7016 C 661.53 -4.21198 0.495279 0
M  V30 7017 N 661.921 -4.79636 1.60572 0
M  V30 7018 C 660.219 -4.45027 0.294372 0
M  V30 7019 C 660.92 -5.39977 2.16332 0
M  V30 7020 N 659.896 -5.23753 1.45546 0
M  V30 7021 H 663.698 -2.67869 1.20927 0
M  V30 7022 H 661.212 -1.43592 0.758632 0
M  V30 7023 H 663.209 -4.08922 -0.811695 0
M  V30 7024 H 661.869 -2.99703 -1.24932 0
M  V30 7025 H 662.88 -4.78209 1.98838 0
M  V30 7026 H 659.557 -4.14348 -0.512021 0
M  V30 7027 H 660.947 -5.96266 3.09704 0
M  V30 7028 N 663.667 -0.670007 -1.42649 0
M  V30 7029 C 664.895 -0.19854 -2.05945 0
M  V30 7030 C 665.31 1.14243 -1.50313 0
M  V30 7031 O 664.667 1.70872 -0.641027 0
M  V30 7032 C 664.718 -0.11966 -3.61302 0
M  V30 7033 O 664.439 -1.40764 -4.1487 0
M  V30 7034 C 665.94 0.375878 -4.41704 0
M  V30 7035 H 663.16 -0.0976894 -0.663851 0
M  V30 7036 H 665.704 -0.915392 -1.82868 0
M  V30 7037 H 663.859 0.547851 -3.83507 0
M  V30 7038 H 664.273 -1.27784 -5.08696 0
M  V30 7039 H 665.747 0.379988 -5.50691 0
M  V30 7040 H 666.224 1.41028 -4.15942 0
M  V30 7041 H 666.83 -0.259727 -4.24506 0
M  V30 7042 N 665.145 1.52092 -0.413018 0
M  V30 7043 C 666.391 2.02154 0.161737 0
M  V30 7044 C 666.724 1.29789 1.44459 0
M  V30 7045 O 665.999 0.405378 1.90229 0
M  V30 7046 C 666.282 3.5781 0.405463 0
M  V30 7047 C 666.135 4.40819 -0.894335 0
M  V30 7048 C 667.454 4.23821 1.18591 0
M  V30 7049 H 664.573 0.734769 0.0573077 0
M  V30 7050 H 667.215 1.81948 -0.547247 0
M  V30 7051 H 665.365 3.75158 1.0094 0
M  V30 7052 H 667.037 4.35175 -1.53039 0
M  V30 7053 H 665.28 4.06877 -1.50444 0
M  V30 7054 H 665.951 5.47819 -0.678144 0
M  V30 7055 H 668.427 4.10596 0.674573 0
M  V30 7056 H 667.303 5.32663 1.3252 0
M  V30 7057 H 667.564 3.83038 2.20758 0
M  V30 7058 N 666.623 0.143563 1.56945 0
M  V30 7059 C 668.034 -0.37783 1.82837 0
M  V30 7060 C 668.385 -1.64967 1.06209 0
M  V30 7061 O 667.51 -2.14221 0.306291 0
M  V30 7062 C 668.105 -0.692274 3.31652 0
M  V30 7063 C 666.664 -1.1582 3.58138 0
M  V30 7064 C 665.811 -0.17951 2.76718 0
M  V30 7065 H 668.762 0.368317 1.54367 0
M  V30 7066 H 668.783 -1.54729 3.47619 0
M  V30 7067 H 668.295 0.233572 3.87397 0
M  V30 7068 H 666.396 -2.10011 3.07776 0
M  V30 7069 H 666.509 -1.08655 4.66616 0
M  V30 7070 H 664.873 -0.671458 2.4569 0
M  V30 7071 H 665.656 0.739865 3.35233 0
M  V30 7072 N 668.101 -1.57061 -0.130224 0
M  V30 7073 C 669.033 -1.96147 -1.18571 0
M  V30 7074 C 670.046 -0.859347 -1.38272 0
M  V30 7075 O 671.235 -1.13769 -1.37545 0
M  V30 7076 C 668.335 -2.23484 -2.54771 0
M  V30 7077 C 667.508 -3.54786 -2.55824 0
M  V30 7078 C 666.567 -3.70467 -3.73686 0
M  V30 7079 O 665.593 -4.42693 -3.57787 0
M  V30 7080 N 666.795 -3.08389 -4.91809 0
M  V30 7081 H 669.56 -2.87295 -0.853333 0
M  V30 7082 H 667.121 -1.58714 -0.319621 0
M  V30 7083 H 669.113 -2.312 -3.32158 0
M  V30 7084 H 667.683 -1.38518 -2.80235 0
M  V30 7085 H 666.903 -3.5836 -1.64232 0
M  V30 7086 H 668.191 -4.4111 -2.53573 0
M  V30 7087 H 667.589 -2.49656 -5.0763 0
M  V30 7088 H 666.146 -3.21642 -5.66912 0
M  V30 7089 N 669.579 0.400081 -1.52437 0
M  V30 7090 C 670.819 1.15526 -1.68622 0
M  V30 7091 C 671.183 1.87533 -0.411744 0
M  V30 7092 O 672.384 2.6501 -0.449804 0
M  V30 7093 C 670.655 2.11618 -2.88015 0
M  V30 7094 S 672.214 2.95121 -3.24729 0
M  V30 7095 H 669.032 0.39123 -0.593683 0
M  V30 7096 H 671.634 0.441255 -1.90455 0
M  V30 7097 H 670.338 1.5742 -3.79008 0
M  V30 7098 H 669.869 2.87544 -2.68481 0
M  V30 7099 H 671.884 4.13653 -2.74055 0
M  V30 7100 N 671.057 1.43213 0.657864 0
M  V30 7101 C 672.297 1.46083 1.42965 0
M  V30 7102 C 672.661 0.0809712 1.91829 0
M  V30 7103 O 673.862 -0.0156305 2.68795 0
M  V30 7104 C 672.133 2.47044 2.58271 0
M  V30 7105 S 673.692 2.68753 3.46868 0
M  V30 7106 H 670.51 0.517015 0.488074 0
M  V30 7107 H 673.112 1.79945 0.764213 0
M  V30 7108 H 671.816 3.46044 2.20639 0
M  V30 7109 H 671.347 2.14665 3.2967 0
M  V30 7110 H 673.362 1.98329 4.54841 0
M  V30 7111 N 672.536 -0.895792 1.29666 0
M  V30 7112 C 673.766 -1.67757 1.20586 0
M  V30 7113 C 674.174 -1.87729 -0.235432 0
M  V30 7114 O 673.517 -1.41706 -1.16898 0
M  V30 7115 C 673.579 -3.08117 1.85215 0
M  V30 7116 C 673.243 -3.1136 3.3452 0
M  V30 7117 C 674.24 -2.91217 4.30684 0
M  V30 7118 C 671.925 -3.33302 3.75786 0
M  V30 7119 C 673.919 -2.92955 5.66089 0
M  V30 7120 C 671.606 -3.3467 5.11311 0
M  V30 7121 C 672.604 -3.14519 6.06273 0
M  V30 7122 O 672.292 -3.15684 7.39323 0
M  V30 7123 H 672.024 -0.530601 0.418854 0
M  V30 7124 H 674.578 -1.12831 1.71634 0
M  V30 7125 H 672.808 -3.64661 1.28683 0
M  V30 7126 H 674.497 -3.68399 1.70403 0
M  V30 7127 H 675.263 -2.74074 4.00136 0
M  V30 7128 H 671.142 -3.48025 3.02324 0
M  V30 7129 H 674.686 -2.77145 6.40185 0
M  V30 7130 H 670.583 -3.51346 5.41504 0
M  V30 7131 H 671.351 -3.31924 7.48177 0
M  V30 7132 N 674.014 -1.12206 -1.10668 0
M  V30 7133 C 675.262 -0.874144 -1.82217 0
M  V30 7134 C 675.583 0.601736 -1.85484 0
M  V30 7135 O 674.853 1.43725 -1.33116 0
M  V30 7136 H 673.433 -0.320404 -0.674797 0
M  V30 7137 H 676.095 -1.41606 -1.33917 0
M  V30 7138 H 675.191 -1.25349 -2.85822 0
M  V30 7139 N 675.492 1.28418 -0.913599 0
M  V30 7140 C 676.739 1.94981 -0.546674 0
M  V30 7141 C 677.067 1.7192 0.909606 0
M  V30 7142 O 676.322 1.03314 1.66207 0
M  V30 7143 C 676.621 3.48283 -0.802099 0
M  V30 7144 C 676.287 3.91444 -2.2379 0
M  V30 7145 C 674.949 4.02939 -2.63046 0
M  V30 7146 C 677.301 4.13542 -3.17227 0
M  V30 7147 C 674.629 4.3391 -3.94891 0
M  V30 7148 C 676.981 4.45992 -4.48636 0
M  V30 7149 C 675.645 4.55698 -4.87746 0
M  V30 7150 H 674.915 0.713487 -0.200042 0
M  V30 7151 H 677.562 1.52756 -1.15489 0
M  V30 7152 H 675.867 3.91643 -0.111076 0
M  V30 7153 H 677.564 3.97903 -0.497375 0
M  V30 7154 H 674.154 3.83024 -1.9233 0
M  V30 7155 H 678.338 4.04114 -2.88107 0
M  V30 7156 H 673.594 4.39631 -4.24894 0
M  V30 7157 H 677.768 4.62038 -5.21051 0
M  V30 7158 H 675.395 4.79451 -5.89942 0
M  V30 7159 N 676.97 0.677563 1.42291 0
M  V30 7160 C 678.21 0.204894 2.0337 0
M  V30 7161 C 678.574 -1.16744 1.5243 0
M  V30 7162 O 679.775 -1.73492 2.05314 0
M  V30 7163 C 678.046 0.240742 3.56588 0
M  V30 7164 S 679.605 -0.16052 4.38506 0
M  V30 7165 H 676.423 0.0839932 0.706021 0
M  V30 7166 H 679.025 0.891332 1.73999 0
M  V30 7167 H 677.729 1.24184 3.91161 0
M  V30 7168 H 677.26 -0.465439 3.90637 0
M  V30 7169 H 679.275 -1.39315 4.76241 0
M  V30 7170 N 678.448 -1.51871 0.421078 0
M  V30 7171 C 679.697 -2.01125 -0.152206 0
M  V30 7172 C 680.01 -1.3106 -1.45199 0
M  V30 7173 O 681.216 -1.71195 -2.10724 0
M  V30 7174 C 679.672 -3.58458 -0.3218 0
M  V30 7175 C 679.28 -4.37448 0.96659 0
M  V30 7176 C 681.024 -4.15908 -0.84973 0
M  V30 7177 C 678.931 -5.86451 0.763529 0
M  V30 7178 H 677.861 -0.751556 -0.0606565 0
M  V30 7179 H 680.512 -1.75115 0.548354 0
M  V30 7180 H 678.894 -3.80847 -1.08498 0
M  V30 7181 H 680.068 -4.26814 1.73684 0
M  V30 7182 H 678.383 -3.91373 1.42183 0
M  V30 7183 H 680.98 -5.24922 -1.01788 0
M  V30 7184 H 681.323 -3.74031 -1.82774 0
M  V30 7185 H 681.856 -3.97535 -0.145297 0
M  V30 7186 H 678.595 -6.3271 1.71344 0
M  V30 7187 H 678.115 -5.99791 0.0327889 0
M  V30 7188 H 679.794 -6.45697 0.410354 0
M  V30 7189 N 679.926 -0.151884 -1.56866 0
M  V30 7190 C 681.203 0.543328 -1.87902 0
M  V30 7191 C 681.583 1.82636 -1.05864 0
M  V30 7192 O 680.931 2.28028 -0.146868 0
M  V30 7193 C 681.141 0.804056 -3.39611 0
M  V30 7194 C 682.489 1.14267 -4.08935 0
M  V30 7195 O 683.513 0.893248 -3.44818 0
M  V30 7196 O 682.372 1.61229 -5.22176 0
M  V30 7197 H 679.466 0.277724 -0.778973 0
M  V30 7198 H 682.012 -0.188862 -1.68646 0
M  V30 7199 H 680.784 -0.103772 -3.91162 0
M  V30 7200 H 680.407 1.59025 -3.64413 0
M  V30 7201 N 681.404 1.57128 0.121893 0
M  V30 7202 C 682.334 2.03165 1.15092 0
M  V30 7203 C 683.315 0.915587 1.43356 0
M  V30 7204 O 684.5 1.1851 1.53847 0
M  V30 7205 C 681.63 2.43352 2.47784 0
M  V30 7206 C 680.584 3.58376 2.33989 0
M  V30 7207 C 679.91 3.84454 3.71617 0
M  V30 7208 C 681.21 4.90199 1.80283 0
M  V30 7209 H 682.904 2.89382 0.768023 0
M  V30 7210 H 680.45 1.39218 0.367998 0
M  V30 7211 H 682.403 2.74163 3.20019 0
M  V30 7212 H 681.127 1.54103 2.87958 0
M  V30 7213 H 679.786 3.2777 1.64202 0
M  V30 7214 H 679.434 2.92414 4.09271 0
M  V30 7215 H 679.134 4.61877 3.6324 0
M  V30 7216 H 680.658 4.17714 4.45362 0
M  V30 7217 H 682.072 5.19565 2.42333 0
M  V30 7218 H 680.469 5.71601 1.82735 0
M  V30 7219 H 681.539 4.78904 0.760184 0
M  V30 7220 N 682.882 -0.391992 1.52647 0
M  V30 7221 C 683.812 -1.48517 1.8018 0
M  V30 7222 C 684.793 -1.57039 0.653667 0
M  V30 7223 O 685.978 -1.72036 0.900962 0
M  V30 7224 C 683.108 -2.86161 1.96797 0
M  V30 7225 C 682.062 -2.92481 3.12472 0
M  V30 7226 C 681.388 -4.32546 3.14338 0
M  V30 7227 C 682.688 -2.624 4.51601 0
M  V30 7228 H 684.382 -1.25726 2.71723 0
M  V30 7229 H 681.928 -0.603387 1.30749 0
M  V30 7230 H 683.881 -3.62639 2.14641 0
M  V30 7231 H 682.605 -3.10283 1.01941 0
M  V30 7232 H 681.264 -2.18451 2.94406 0
M  V30 7233 H 680.912 -4.53703 2.1717 0
M  V30 7234 H 680.612 -4.37695 3.92042 0
M  V30 7235 H 682.136 -5.10934 3.34333 0
M  V30 7236 H 683.55 -3.28596 4.69785 0
M  V30 7237 H 681.947 -2.78903 5.3135 0
M  V30 7238 H 683.017 -1.57754 4.58521 0
M  V30 7239 N 684.36 -1.4356 -0.65026 0
M  V30 7240 C 685.609 -1.44619 -1.406 0
M  V30 7241 C 685.922 -0.0752645 -1.95455 0
M  V30 7242 O 687.128 0.0366832 -2.71475 0
M  V30 7243 C 685.584 -2.54511 -2.54465 0
M  V30 7244 C 685.192 -3.97723 -2.06204 0
M  V30 7245 C 686.936 -2.64768 -3.31811 0
M  V30 7246 C 684.843 -4.99075 -3.17298 0
M  V30 7247 H 683.773 -0.537983 -0.52829 0
M  V30 7248 H 686.424 -1.69559 -0.701561 0
M  V30 7249 H 684.806 -2.22777 -3.27393 0
M  V30 7250 H 685.98 -4.38932 -1.40267 0
M  V30 7251 H 684.295 -3.91538 -1.41729 0
M  V30 7252 H 686.892 -3.37664 -4.14593 0
M  V30 7253 H 687.235 -1.69936 -3.80036 0
M  V30 7254 H 687.768 -2.95817 -2.65964 0
M  V30 7255 H 684.507 -5.95469 -2.74038 0
M  V30 7256 H 684.027 -4.62476 -3.81937 0
M  V30 7257 H 685.706 -5.21913 -3.82382 0
M  V30 7258 N 685.838 0.888903 -1.30139 0
M  V30 7259 C 686.785 1.99422 -1.16188 0
M  V30 7260 C 687.755 1.66017 -0.0523869 0
M  V30 7261 O 688.94 1.89506 -0.221864 0
M  V30 7262 C 686.08 3.34325 -0.855612 0
M  V30 7263 C 685.193 3.80445 -2.0466 0
M  V30 7264 C 684.328 5.03975 -1.67876 0
M  V30 7265 C 683.367 5.42492 -2.83493 0
M  V30 7266 N 682.504 6.57206 -2.47032 0
M  V30 7267 H 687.344 2.10687 -2.10749 0
M  V30 7268 H 684.881 1.03165 -1.04859 0
M  V30 7269 H 686.839 4.11968 -0.658681 0
M  V30 7270 H 685.469 3.22756 0.0531155 0
M  V30 7271 H 684.521 2.98745 -2.3549 0
M  V30 7272 H 685.833 4.04933 -2.91257 0
M  V30 7273 H 684.987 5.89232 -1.44535 0
M  V30 7274 H 683.726 4.8135 -0.784431 0
M  V30 7275 H 682.731 4.55764 -3.07505 0
M  V30 7276 H 683.956 5.67093 -3.73607 0
M  V30 7277 H 681.902 6.36164 -1.601 0
M  V30 7278 H 681.819 6.81543 -3.27161 0
M  V30 7279 H 683.087 7.45704 -2.27038 0
M  V30 7280 N 687.317 1.12792 1.10072 0
M  V30 7281 C 688.247 0.821688 2.18565 0
M  V30 7282 C 689.228 -0.21612 1.68721 0
M  V30 7283 O 690.413 -0.0764932 1.94049 0
M  V30 7284 C 687.543 0.279624 3.46172 0
M  V30 7285 C 686.497 1.25092 4.09312 0
M  V30 7286 C 685.823 0.568916 5.31665 0
M  V30 7287 C 687.123 2.60699 4.52585 0
M  V30 7288 H 688.817 1.72888 2.44438 0
M  V30 7289 H 686.363 0.832702 1.17482 0
M  V30 7290 H 688.316 0.053099 4.21367 0
M  V30 7291 H 687.04 -0.662929 3.19801 0
M  V30 7292 H 685.699 1.46332 3.36129 0
M  V30 7293 H 685.347 -0.378898 5.01571 0
M  V30 7294 H 685.047 1.21687 5.74862 0
M  V30 7295 H 686.571 0.351517 6.09587 0
M  V30 7296 H 687.985 2.43465 5.19035 0
M  V30 7297 H 686.382 3.21608 5.06644 0
M  V30 7298 H 687.452 3.1886 3.65317 0
M  V30 7299 N 688.795 -1.27931 0.920396 0
M  V30 7300 C 689.758 -2.25345 0.41858 0
M  V30 7301 C 690.758 -1.54116 -0.458798 0
M  V30 7302 O 691.948 -1.72235 -0.260912 0
M  V30 7303 C 689.08 -3.38556 -0.399104 0
M  V30 7304 H 690.273 -2.71251 1.27918 0
M  V30 7305 H 687.826 -1.39728 0.700406 0
M  V30 7306 H 688.561 -2.98021 -1.27882 0
M  V30 7307 H 688.346 -3.91426 0.229863 0
M  V30 7308 H 689.836 -4.10976 -0.740817 0
M  V30 7309 N 690.273 -0.685099 -1.4193 0
M  V30 7310 C 691.689 -0.355632 -1.55587 0
M  V30 7311 C 691.889 1.13823 -1.66273 0
M  V30 7312 O 690.945 1.92387 -1.63534 0
M  V30 7313 C 692.258 -1.09498 -2.80055 0
M  V30 7314 C 693.806 -1.07831 -2.93839 0
M  V30 7315 C 694.281 -1.79919 -4.21181 0
M  V30 7316 N 695.772 -1.76837 -4.28115 0
M  V30 7317 C 696.507 -2.29463 -5.25485 0
M  V30 7318 N 696.003 -2.90516 -6.28945 0
M  V30 7319 N 697.796 -2.19779 -5.17353 0
M  V30 7320 H 689.947 -1.65412 -1.33239 0
M  V30 7321 H 692.21 -0.697453 -0.642078 0
M  V30 7322 H 691.916 -2.14997 -2.78333 0
M  V30 7323 H 691.79 -0.666813 -3.71259 0
M  V30 7324 H 694.177 -0.0316152 -2.95083 0
M  V30 7325 H 694.258 -1.54545 -2.03837 0
M  V30 7326 H 693.902 -2.84562 -4.20698 0
M  V30 7327 H 693.832 -1.30647 -5.10136 0
M  V30 7328 H 696.323 -1.32315 -3.53979 0
M  V30 7329 H 696.636 -3.28266 -6.99615 0
M  V30 7330 H 694.981 -2.94589 -6.29478 0
M  V30 7331 H 698.172 -1.71763 -4.35448 0
M  V30 7332 H 698.345 -2.61097 -5.9307 0
M  V30 7333 N 691.751 1.51645 -0.429126 0
M  V30 7334 C 692.979 2.06433 0.138994 0
M  V30 7335 C 693.394 1.29735 1.37165 0
M  V30 7336 O 692.751 0.354638 1.79021 0
M  V30 7337 C 692.802 3.58439 0.469452 0
M  V30 7338 O 692.523 4.32238 -0.714273 0
M  V30 7339 C 694.024 4.29712 1.08914 0
M  V30 7340 H 691.244 0.6709 0.0115608 0
M  V30 7341 H 693.788 1.9532 -0.605843 0
M  V30 7342 H 691.943 3.69494 1.16419 0
M  V30 7343 H 692.357 5.22704 -0.433633 0
M  V30 7344 H 693.831 5.37182 1.27042 0
M  V30 7345 H 694.308 3.87473 2.06788 0
M  V30 7346 H 694.914 4.2308 0.434028 0
M  V30 7347 N 693.229 0.160201 1.56784 0
M  V30 7348 C 694.162 -0.812797 2.13234 0
M  V30 7349 C 695.14 -1.2335 1.05942 0
M  V30 7350 O 696.324 -1.32725 1.33852 0
M  V30 7351 C 693.451 -2.09311 2.66283 0
M  V30 7352 C 692.497 -1.8173 3.85845 0
M  V30 7353 S 693.33 -0.996473 5.26147 0
M  V30 7354 C 694.486 -2.28769 5.82594 0
M  V30 7355 H 694.719 -0.332794 2.95432 0
M  V30 7356 H 692.252 -0.0542971 1.54304 0
M  V30 7357 H 694.21 -2.82854 2.97496 0
M  V30 7358 H 692.871 -2.54425 1.84192 0
M  V30 7359 H 692.064 -2.76699 4.21253 0
M  V30 7360 H 691.666 -1.16289 3.55462 0
M  V30 7361 H 693.958 -3.24319 5.9483 0
M  V30 7362 H 694.901 -1.97846 6.79899 0
M  V30 7363 H 695.309 -2.40021 5.10931 0
M  V30 7364 N 694.707 -1.5719 -0.113559 0
M  V30 7365 C 695.655 -2.01725 -1.158 0
M  V30 7366 C 696.649 -0.915105 -1.42556 0
M  V30 7367 O 697.855 -1.10031 -1.42454 0
M  V30 7368 H 694.23 -0.64262 -0.390569 0
M  V30 7369 H 696.201 -2.88666 -0.755926 0
M  V30 7370 C 694.95 -2.44203 -2.47507 0
M  V30 7371 H 694.273 -3.28582 -2.27758 0
M  V30 7372 H 695.713 -2.79158 -3.19135 0
M  V30 7373 C 694.172 -1.30785 -3.10478 0
M  V30 7374 O 694.702 -0.626807 -3.9678 0
M  V30 7375 N 692.908 -1.06352 -2.7044 0
M  V30 7376 H 692.455 -1.61913 -2.00355 0
M  V30 7377 H 692.413 -0.306614 -3.12901 0
M  V30 7378 N 696.185 0.383891 -1.52853 0
M  V30 7379 C 697.432 1.12842 -1.68146 0
M  V30 7380 C 697.76 1.89823 -0.423954 0
M  V30 7381 O 697.015 1.86475 0.593765 0
M  V30 7382 C 697.314 2.12881 -2.87082 0
M  V30 7383 C 696.98 1.52519 -4.24322 0
M  V30 7384 C 695.642 1.35783 -4.61645 0
M  V30 7385 C 697.994 1.0868 -5.09743 0
M  V30 7386 C 695.322 0.737643 -5.82044 0
M  V30 7387 C 697.674 0.480699 -6.30771 0
M  V30 7388 C 696.338 0.300681 -6.66822 0
M  V30 7389 H 695.608 0.412917 -0.615289 0
M  V30 7390 H 698.255 0.412416 -1.87006 0
M  V30 7391 H 696.56 2.90719 -2.62659 0
M  V30 7392 H 698.257 2.70408 -2.96109 0
M  V30 7393 H 694.847 1.66534 -3.94923 0
M  V30 7394 H 699.031 1.2041 -4.81472 0
M  V30 7395 H 694.287 0.586415 -6.08581 0
M  V30 7396 H 698.461 0.132733 -6.96273 0
M  V30 7397 H 696.088 -0.181966 -7.59982 0
M  V30 7398 N 697.663 1.43903 0.642637 0
M  V30 7399 C 698.891 1.4954 1.42988 0
M  V30 7400 C 699.306 0.116588 1.8844 0
M  V30 7401 O 698.663 -0.875285 1.60141 0
M  V30 7402 C 698.714 2.45031 2.65785 0
M  V30 7403 O 698.435 3.77551 2.22232 0
M  V30 7404 C 699.936 2.60017 3.59035 0
M  V30 7405 H 697.156 0.507544 0.438907 0
M  V30 7406 H 699.7 1.88752 0.786942 0
M  V30 7407 H 697.855 2.08985 3.26196 0
M  V30 7408 H 698.269 4.29001 3.01759 0
M  V30 7409 H 699.743 3.30887 4.41835 0
M  V30 7410 H 700.22 1.64861 4.07084 0
M  V30 7411 H 700.826 2.96918 3.045 0
M  V30 7412 N 699.141 -0.881989 1.30609 0
M  V30 7413 C 700.371 -1.66469 1.22359 0
M  V30 7414 C 700.779 -1.87969 -0.215507 0
M  V30 7415 O 700.122 -1.42938 -1.15388 0
M  V30 7416 C 700.184 -3.06135 1.88472 0
M  V30 7417 C 699.848 -3.07795 3.37804 0
M  V30 7418 C 700.845 -2.86633 4.33749 0
M  V30 7419 C 698.53 -3.29297 3.793 0
M  V30 7420 C 700.524 -2.86934 5.69164 0
M  V30 7421 C 698.211 -3.29228 5.14832 0
M  V30 7422 C 699.209 -3.08071 6.09574 0
M  V30 7423 O 698.897 -3.07824 7.4263 0
M  V30 7424 H 698.629 -0.526129 0.424458 0
M  V30 7425 H 701.183 -1.11004 1.72821 0
M  V30 7426 H 699.413 -3.63276 1.32543 0
M  V30 7427 H 701.102 -3.66571 1.74301 0
M  V30 7428 H 701.868 -2.69814 4.0302 0
M  V30 7429 H 697.747 -3.44799 3.05998 0
M  V30 7430 H 701.291 -2.70339 6.43088 0
M  V30 7431 H 697.188 -3.45583 5.452 0
M  V30 7432 H 697.956 -3.2397 7.51656 0
M  V30 7433 N 700.619 -1.13374 -1.09472 0
M  V30 7434 C 701.529 -0.824029 -2.19652 0
M  V30 7435 C 702.545 0.19118 -1.72947 0
M  V30 7436 O 703.721 0.0223464 -2.01388 0
M  V30 7437 C 700.786 -0.294009 -3.45451 0
M  V30 7438 C 699.847 -1.3704 -4.0684 0
M  V30 7439 C 699.08 -0.86558 -5.26634 0
M  V30 7440 O 699.303 0.29702 -5.69626 0
M  V30 7441 O 698.237 -1.63968 -5.79136 0
M  V30 7442 H 702.063 -1.74454 -2.48595 0
M  V30 7443 H 699.648 -0.911155 -1.18399 0
M  V30 7444 H 701.53 -0.00381039 -4.214 0
M  V30 7445 H 700.205 0.598921 -3.18111 0
M  V30 7446 H 699.112 -1.71391 -3.3253 0
M  V30 7447 H 700.445 -2.23746 -4.38405 0
M  V30 7448 N 702.098 1.27442 -0.927168 0
M  V30 7449 C 703.344 1.94679 -0.568164 0
M  V30 7450 C 703.677 1.72697 0.888219 0
M  V30 7451 O 702.952 1.05573 1.63354 0
M  V30 7452 C 703.235 3.4882 -0.894253 0
M  V30 7453 C 703.088 3.80146 -2.40435 0
M  V30 7454 C 704.407 4.38281 -0.399766 0
M  V30 7455 H 701.526 0.707071 -0.207892 0
M  V30 7456 H 704.168 1.50568 -1.15885 0
M  V30 7457 H 702.318 3.86522 -0.391566 0
M  V30 7458 H 703.99 3.52238 -2.97869 0
M  V30 7459 H 702.233 3.26716 -2.85375 0
M  V30 7460 H 702.904 4.87835 -2.58304 0
M  V30 7461 H 705.38 4.07726 -0.83058 0
M  V30 7462 H 704.256 5.44955 -0.656885 0
M  V30 7463 H 704.517 4.36521 0.700153 0
M  V30 7464 N 703.576 0.692616 1.41565 0
M  V30 7465 C 704.526 0.00231847 2.28 0
M  V30 7466 C 705.51 -0.755793 1.42044 0
M  V30 7467 O 706.702 -0.631772 1.65341 0
M  V30 7468 C 703.831 -0.935468 3.30309 0
M  V30 7469 C 702.917 -0.173761 4.23744 0
M  V30 7470 N 703.308 0.830872 4.98929 0
M  V30 7471 C 701.606 -0.409666 4.44115 0
M  V30 7472 C 702.307 1.28656 5.67294 0
M  V30 7473 N 701.283 0.613053 5.40132 0
M  V30 7474 H 705.085 0.772635 2.83562 0
M  V30 7475 H 702.599 0.523198 1.53741 0
M  V30 7476 H 704.596 -1.44513 3.91052 0
M  V30 7477 H 703.256 -1.70542 2.76307 0
M  V30 7478 H 704.267 1.21101 5.03542 0
M  V30 7479 H 700.944 -1.15773 4.01127 0
M  V30 7480 H 702.334 2.12006 6.37576 0
M  V30 7481 N 705.054 -1.51416 0.437162 0
M  V30 7482 C 705.984 -2.30631 -0.364922 0
M  V30 7483 C 706.965 -1.36037 -1.02118 0
M  V30 7484 O 708.15 -1.64956 -1.02485 0
M  V30 7485 C 705.28 -3.1482 -1.46648 0
M  V30 7486 C 704.234 -4.17691 -0.933717 0
M  V30 7487 C 703.56 -4.904 -2.13101 0
M  V30 7488 C 704.86 -5.2229 0.0317201 0
M  V30 7489 H 706.554 -2.97932 0.29614 0
M  V30 7490 H 704.1 -1.4328 0.143865 0
M  V30 7491 H 706.053 -3.69017 -2.03481 0
M  V30 7492 H 704.777 -2.4534 -2.15583 0
M  V30 7493 H 703.436 -3.64545 -0.387602 0
M  V30 7494 H 703.084 -4.17423 -2.80654 0
M  V30 7495 H 702.784 -5.59962 -1.78092 0
M  V30 7496 H 704.308 -5.4742 -2.70487 0
M  V30 7497 H 705.722 -5.7156 -0.446302 0
M  V30 7498 H 704.119 -5.99378 0.29437 0
M  V30 7499 H 705.189 -4.75131 0.968447 0
M  V30 7500 N 706.532 -0.168513 -1.56696 0
M  V30 7501 C 707.778 0.477865 -1.9709 0
M  V30 7502 C 708.111 1.63084 -1.05438 0
M  V30 7503 O 707.386 1.94238 -0.10095 0
M  V30 7504 C 707.669 0.963521 -3.4697 0
M  V30 7505 C 707.522 -0.189443 -4.49401 0
M  V30 7506 C 708.841 1.83813 -3.99876 0
M  V30 7507 H 705.96 0.172229 -0.716593 0
M  V30 7508 H 708.602 -0.254083 -1.88293 0
M  V30 7509 H 706.752 1.58724 -3.54597 0
M  V30 7510 H 708.424 -0.826451 -4.53836 0
M  V30 7511 H 706.667 -0.845366 -4.25483 0
M  V30 7512 H 707.338 0.192446 -5.51664 0
M  V30 7513 H 709.814 1.31235 -3.94863 0
M  V30 7514 H 708.69 2.14697 -5.0517 0
M  V30 7515 H 708.951 2.78289 -3.43523 0
M  V30 7516 N 708.01 1.57248 0.105221 0
M  V30 7517 C 708.973 2.00388 1.11252 0
M  V30 7518 C 709.973 0.89594 1.33527 0
M  V30 7519 O 711.163 1.16166 1.29811 0
M  V30 7520 C 708.295 2.35589 2.46395 0
M  V30 7521 H 709.488 2.90591 0.741424 0
M  V30 7522 H 707.041 1.52332 0.349956 0
M  V30 7523 H 707.776 1.4831 2.884 0
M  V30 7524 H 707.561 3.16408 2.31578 0
M  V30 7525 H 709.051 2.69658 3.18864 0
M  V30 7526 N 709.488 -0.375779 1.53054 0
M  V30 7527 C 710.765 -1.13453 1.59336 0
M  V30 7528 C 711.145 -2.07379 0.394614 0
M  V30 7529 O 710.493 -2.2004 -0.616 0
M  V30 7530 C 710.703 -1.8826 2.93869 0
M  V30 7531 C 712.051 -2.43155 3.48081 0
M  V30 7532 O 713.075 -1.984 2.95831 0
M  V30 7533 O 711.934 -3.24944 4.39401 0
M  V30 7534 H 709.028 -0.519856 0.643179 0
M  V30 7535 H 711.574 -0.379865 1.65394 0
M  V30 7536 H 710.346 -1.19652 3.72558 0
M  V30 7537 H 709.969 -2.70658 2.91256 0
M  V30 7538 N 710.966 -1.44241 -0.634997 0
M  V30 7539 C 712.214 -1.46531 -1.39187 0
M  V30 7540 C 712.535 -0.0976441 -1.94755 0
M  V30 7541 O 711.805 0.869528 -1.75545 0
M  V30 7542 H 710.385 -0.539544 -0.516625 0
M  V30 7543 H 713.047 -1.79989 -0.747655 0
M  V30 7544 H 712.143 -2.18848 -2.22513 0
M  V30 7545 N 712.444 0.87505 -1.31075 0
M  V30 7546 C 713.391 1.98178 -1.18296 0
M  V30 7547 C 714.361 1.65952 -0.0699923 0
M  V30 7548 O 715.546 1.8926 -0.241951 0
M  V30 7549 C 712.686 3.33399 -0.891024 0
M  V30 7550 C 711.799 3.78253 -2.08684 0
M  V30 7551 C 710.934 5.02166 -1.73212 0
M  V30 7552 C 709.973 5.39455 -2.89231 0
M  V30 7553 N 709.11 6.54549 -2.53989 0
M  V30 7554 H 713.95 2.0844 -2.12971 0
M  V30 7555 H 711.487 1.02047 -1.05948 0
M  V30 7556 H 713.445 4.11246 -0.702338 0
M  V30 7557 H 712.075 3.22794 0.0188799 0
M  V30 7558 H 711.127 2.9623 -2.38646 0
M  V30 7559 H 712.439 4.01821 -2.95536 0
M  V30 7560 H 711.593 5.87666 -1.50777 0
M  V30 7561 H 710.332 4.80491 -0.83544 0
M  V30 7562 H 709.337 4.52477 -3.12321 0
M  V30 7563 H 710.562 5.63098 -3.79601 0
M  V30 7564 H 708.508 6.3443 -1.66838 0
M  V30 7565 H 708.425 6.78035 -3.34372 0
M  V30 7566 H 709.693 7.43254 -2.34934 0
M  V30 7567 N 713.922 1.13953 1.08869 0
M  V30 7568 C 715.169 0.90481 1.81161 0
M  V30 7569 C 715.497 -0.568824 1.85996 0
M  V30 7570 O 714.752 -1.43723 1.32823 0
M  V30 7571 C 715.051 1.44495 3.26888 0
M  V30 7572 C 714.717 2.93641 3.42178 0
M  V30 7573 C 713.379 3.34361 3.46059 0
M  V30 7574 C 715.731 3.89568 3.46246 0
M  V30 7575 C 713.059 4.69681 3.51592 0
M  V30 7576 C 715.411 5.2474 3.53314 0
M  V30 7577 C 714.075 5.64979 3.55465 0
M  V30 7578 H 713.345 0.331094 0.662916 0
M  V30 7579 H 715.992 1.42242 1.28217 0
M  V30 7580 H 714.297 0.848169 3.82509 0
M  V30 7581 H 715.994 1.23934 3.81368 0
M  V30 7582 H 712.584 2.61156 3.39846 0
M  V30 7583 H 716.768 3.59192 3.42483 0
M  V30 7584 H 712.024 5.00224 3.51547 0
M  V30 7585 H 716.198 5.98882 3.55406 0
M  V30 7586 H 713.825 6.69821 3.59505 0
M  V30 7587 N 715.4 -1.26948 0.933913 0
M  V30 7588 C 716.648 -1.93704 0.576484 0
M  V30 7589 C 716.969 -1.73702 -0.886145 0
M  V30 7590 O 716.239 -1.08838 -1.62884 0
M  V30 7591 H 714.819 -0.716812 0.210214 0
M  V30 7592 H 717.481 -1.54534 1.18766 0
M  V30 7593 H 716.577 -3.01987 0.788055 0
M  V30 7594 N 716.879 -0.700114 -1.41195 0
M  V30 7595 C 718.107 -0.242179 -2.05478 0
M  V30 7596 C 718.522 1.11029 -1.52702 0
M  V30 7597 O 717.879 1.69473 -0.677127 0
M  V30 7598 C 717.93 -0.196271 -3.60967 0
M  V30 7599 O 717.651 -1.49532 -4.11791 0
M  V30 7600 C 719.152 0.282102 -4.42401 0
M  V30 7601 H 716.372 -0.111749 -0.661629 0
M  V30 7602 H 718.916 -0.953975 -1.80885 0
M  V30 7603 H 717.071 0.46638 -3.84582 0
M  V30 7604 H 717.485 -1.38545 -5.05871 0
M  V30 7605 H 718.959 0.263093 -5.51373 0
M  V30 7606 H 719.436 1.32174 -4.1884 0
M  V30 7607 H 720.042 -0.349712 -4.2386 0
M  V30 7608 N 718.357 1.51182 -0.445186 0
M  V30 7609 C 719.289 2.25714 0.398206 0
M  V30 7610 C 720.302 1.30032 0.979562 0
M  V30 7611 O 721.491 1.55731 0.872368 0
M  V30 7612 C 718.591 3.00348 1.56985 0
M  V30 7613 C 717.764 4.23187 1.10596 0
M  V30 7614 C 716.823 4.80334 2.14863 0
M  V30 7615 O 715.849 5.4196 1.73977 0
M  V30 7616 N 717.051 4.65053 3.47427 0
M  V30 7617 H 719.816 2.98732 -0.240629 0
M  V30 7618 H 717.377 1.59556 -0.274507 0
M  V30 7619 H 719.369 3.35464 2.26376 0
M  V30 7620 H 717.939 2.30291 2.11387 0
M  V30 7621 H 717.159 3.93476 0.238832 0
M  V30 7622 H 718.447 5.02886 0.773537 0
M  V30 7623 H 717.845 4.15984 3.83372 0
M  V30 7624 H 716.402 5.04509 4.12691 0
M  V30 7625 N 719.835 0.176821 1.56605 0
M  V30 7626 C 720.745 -0.763682 2.21822 0
M  V30 7627 C 721.761 -1.24889 1.21156 0
M  V30 7628 O 722.937 -1.29987 1.53836 0
M  V30 7629 C 720.002 -1.97352 2.8505 0
M  V30 7630 C 719.063 -1.53466 4.00932 0
M  V30 7631 C 718.296 -2.68682 4.61135 0
M  V30 7632 O 718.519 -3.85694 4.20234 0
M  V30 7633 O 717.453 -2.42442 5.50913 0
M  V30 7634 H 721.279 -0.238363 3.02763 0
M  V30 7635 H 718.864 -0.0516331 1.49311 0
M  V30 7636 H 720.746 -2.68096 3.25119 0
M  V30 7637 H 719.421 -2.48779 2.07101 0
M  V30 7638 H 718.328 -0.796551 3.65521 0
M  V30 7639 H 719.661 -1.06724 4.8049 0
M  V30 7640 N 721.313 -1.57302 -0.09688 0
M  V30 7641 C 722.729 -1.53094 -0.451041 0
M  V30 7642 C 722.929 -0.893265 -1.80618 0
M  V30 7643 O 721.985 -0.485013 -2.47798 0
M  V30 7644 C 723.298 -2.9782 -0.415172 0
M  V30 7645 C 724.846 -3.09026 -0.497155 0
M  V30 7646 C 725.321 -4.55356 -0.491452 0
M  V30 7647 N 726.812 -4.59896 -0.552258 0
M  V30 7648 C 727.547 -5.70563 -0.569654 0
M  V30 7649 N 727.043 -6.90666 -0.543365 0
M  V30 7650 N 728.836 -5.58733 -0.614331 0
M  V30 7651 H 720.987 -1.97131 0.790771 0
M  V30 7652 H 723.25 -0.901211 0.294147 0
M  V30 7653 H 722.956 -3.47933 0.513362 0
M  V30 7654 H 722.83 -3.56416 -1.23481 0
M  V30 7655 H 725.217 -2.58902 -1.41611 0
M  V30 7656 H 725.298 -2.53386 0.35059 0
M  V30 7657 H 724.942 -5.06131 0.423549 0
M  V30 7658 H 724.872 -5.08832 -1.35639 0
M  V30 7659 H 727.363 -3.73456 -0.577842 0
M  V30 7660 H 727.676 -7.70769 -0.559873 0
M  V30 7661 H 726.021 -6.93123 -0.510441 0
M  V30 7662 H 729.212 -4.63809 -0.632387 0
M  V30 7663 H 729.385 -6.44984 -0.62442 0
M  V30 7664 N 722.791 0.367657 -1.53252 0
M  V30 7665 C 724.037 1.11216 -1.69584 0
M  V30 7666 C 724.37 1.89026 -0.445269 0
M  V30 7667 O 723.645 1.86342 0.557404 0
M  V30 7668 C 723.928 2.07308 -2.94441 0
M  V30 7669 C 723.781 1.3312 -4.2965 0
M  V30 7670 C 725.1 3.07459 -3.14892 0
M  V30 7671 H 722.219 0.40294 -0.617096 0
M  V30 7672 H 724.861 0.393201 -1.85887 0
M  V30 7673 H 723.011 2.68617 -2.80673 0
M  V30 7674 H 724.683 0.746111 -4.55226 0
M  V30 7675 H 722.926 0.633051 -4.29156 0
M  V30 7676 H 723.597 2.03443 -5.13142 0
M  V30 7677 H 726.073 2.56252 -3.27832 0
M  V30 7678 H 724.949 3.71919 -4.03693 0
M  V30 7679 H 725.21 3.77514 -2.30077 0
M  V30 7680 N 724.269 1.44576 0.627338 0
M  V30 7681 C 725.217 1.52039 1.76031 0
M  V30 7682 C 726.211 0.391796 1.64807 0
M  V30 7683 O 727.417 0.5669 1.7084 0
M  V30 7684 H 723.792 0.477165 0.581221 0
M  V30 7685 H 725.763 2.47387 1.6686 0
M  V30 7686 C 724.512 1.48539 3.14375 0
M  V30 7687 H 723.835 2.34699 3.23661 0
M  V30 7688 H 725.275 1.57821 3.93534 0
M  V30 7689 C 723.734 0.20672 3.36265 0
M  V30 7690 O 724.264 -0.72154 3.95167 0
M  V30 7691 N 722.47 0.108654 2.90397 0
M  V30 7692 H 722.017 0.864884 2.42647 0
M  V30 7693 H 721.975 -0.746121 3.05418 0
M  V30 7694 N 725.747 -0.868086 1.31537 0
M  V30 7695 C 726.695 -1.99688 1.1928 0
M  V30 7696 C 727.689 -1.69101 0.100656 0
M  V30 7697 O 728.895 -1.78073 0.262677 0
M  V30 7698 H 725.27 -0.655032 0.369374 0
M  V30 7699 H 727.241 -2.07157 2.14776 0
M  V30 7700 C 725.99 -3.35338 0.918892 0
M  V30 7701 H 725.313 -3.59396 1.75142 0
M  V30 7702 H 726.753 -4.14909 0.873311 0
M  V30 7703 C 725.212 -3.34769 -0.378366 0
M  V30 7704 O 725.742 -3.76716 -1.39456 0
M  V30 7705 N 723.948 -2.87895 -0.39557 0
M  V30 7706 H 723.495 -2.53954 0.431889 0
M  V30 7707 H 723.453 -2.87897 -1.26344 0
M  V30 7708 N 727.225 -1.14528 -1.08264 0
M  V30 7709 C 728.45 -0.938381 -1.84957 0
M  V30 7710 C 728.875 0.508044 -1.81109 0
M  V30 7711 O 728.233 1.36146 -1.19724 0
M  V30 7712 C 728.281 -1.44568 -3.30352 0
M  V30 7713 O 727.385 -0.638745 -4.07423 0
M  V30 7714 H 726.726 -0.335394 -0.573068 0
M  V30 7715 H 729.256 -1.52287 -1.36637 0
M  V30 7716 H 729.266 -1.45449 -3.81194 0
M  V30 7717 H 727.941 -2.49876 -3.32468 0
M  V30 7718 H 726.518 -0.698801 -3.66294 0
M  V30 7719 N 728.703 1.26451 -0.940633 0
M  V30 7720 C 729.651 2.28389 -0.440581 0
M  V30 7721 C 730.645 1.62402 0.481859 0
M  V30 7722 O 731.851 1.76361 0.360132 0
M  V30 7723 H 728.226 0.741716 -0.123938 0
M  V30 7724 H 730.197 2.67967 -1.31288 0
M  V30 7725 C 728.946 3.46576 0.279364 0
M  V30 7726 H 728.269 3.97574 -0.421274 0
M  V30 7727 H 729.709 4.19826 0.59348 0
M  V30 7728 C 728.168 3.01815 1.49697 0
M  V30 7729 O 728.698 3.06607 2.59529 0
M  V30 7730 N 726.904 2.57163 1.35334 0
M  V30 7731 H 726.451 2.53464 0.459743 0
M  V30 7732 H 726.409 2.27578 2.16923 0
M  V30 7733 N 730.181 0.707592 1.40822 0
M  V30 7734 C 731.128 0.0499029 2.30746 0
M  V30 7735 C 732.098 -0.758718 1.47759 0
M  V30 7736 O 733.283 -0.724299 1.76518 0
M  V30 7737 C 730.423 -0.871756 3.33908 0
M  V30 7738 C 729.536 -0.0534655 4.31967 0
M  V30 7739 C 728.671 -0.973869 5.22197 0
M  V30 7740 C 727.71 -0.149194 6.11918 0
M  V30 7741 N 726.847 -1.02404 6.94592 0
M  V30 7742 H 731.687 0.822461 2.86426 0
M  V30 7743 H 729.224 0.417285 1.41057 0
M  V30 7744 H 731.182 -1.42028 3.9228 0
M  V30 7745 H 729.812 -1.61058 2.7975 0
M  V30 7746 H 728.864 0.612142 3.75442 0
M  V30 7747 H 730.176 0.585354 4.95353 0
M  V30 7748 H 729.33 -1.59121 5.85462 0
M  V30 7749 H 728.069 -1.64652 4.59065 0
M  V30 7750 H 727.074 0.481137 5.47691 0
M  V30 7751 H 728.299 0.519841 6.77107 0
M  V30 7752 H 726.245 -1.6825 6.34057 0
M  V30 7753 H 726.162 -0.441076 7.54712 0
M  V30 7754 H 727.43 -1.62782 7.62314 0
M  V30 7755 N 731.66 -1.50943 0.453197 0
M  V30 7756 C 732.607 -2.28128 -0.350197 0
M  V30 7757 C 733.577 -1.32398 -1.00299 0
M  V30 7758 O 734.762 -1.61319 -1.01887 0
M  V30 7759 C 731.902 -3.13782 -1.43649 0
M  V30 7760 C 731.015 -4.24523 -0.800255 0
M  V30 7761 C 730.15 -4.97462 -1.86293 0
M  V30 7762 C 729.189 -6.00102 -1.20598 0
M  V30 7763 N 728.326 -6.66387 -2.21071 0
M  V30 7764 H 733.166 -2.96337 0.31434 0
M  V30 7765 H 730.703 -1.46151 0.166863 0
M  V30 7766 H 732.661 -3.6178 -2.07776 0
M  V30 7767 H 731.291 -2.47655 -2.07044 0
M  V30 7768 H 730.343 -3.80371 -0.0468651 0
M  V30 7769 H 731.655 -4.98009 -0.280777 0
M  V30 7770 H 730.809 -5.49088 -2.58044 0
M  V30 7771 H 729.548 -4.23642 -2.41617 0
M  V30 7772 H 728.553 -5.47753 -0.474 0
M  V30 7773 H 729.778 -6.75887 -0.659859 0
M  V30 7774 H 727.724 -5.9537 -2.75446 0
M  V30 7775 H 727.641 -7.3569 -1.74058 0
M  V30 7776 H 728.909 -7.22638 -2.92257 0
M  V30 7777 N 733.138 -0.185124 -1.56509 0
M  V30 7778 C 734.048 0.751908 -2.22224 0
M  V30 7779 C 735.064 1.24244 -1.21817 0
M  V30 7780 O 736.24 1.29169 -1.54523 0
M  V30 7781 C 733.305 1.95837 -2.86092 0
M  V30 7782 C 732.366 1.51337 -4.01741 0
M  V30 7783 C 731.599 2.66233 -4.62554 0
M  V30 7784 O 731.822 3.8346 -4.22273 0
M  V30 7785 O 730.756 2.39517 -5.52191 0
M  V30 7786 H 734.582 0.222304 -3.02885 0
M  V30 7787 H 732.167 0.0437141 -1.49336 0
M  V30 7788 H 734.049 2.66368 -3.26536 0
M  V30 7789 H 732.724 2.47677 -2.08417 0
M  V30 7790 H 731.631 0.777155 -3.65939 0
M  V30 7791 H 732.964 1.04175 -4.81049 0
M  V30 7792 N 734.616 1.57351 0.0885366 0
M  V30 7793 C 735.862 1.87564 0.786842 0
M  V30 7794 C 736.217 0.776774 1.76023 0
M  V30 7795 O 735.51 -0.220637 1.90325 0
M  V30 7796 C 735.704 3.22098 1.5488 0
M  V30 7797 C 735.533 4.44967 0.650706 0
M  V30 7798 C 734.303 5.04444 0.293957 0
M  V30 7799 C 736.501 5.1428 -0.0452187 0
M  V30 7800 N 734.483 6.10846 -0.611609 0
M  V30 7801 C 735.854 6.14704 -0.808603 0
M  V30 7802 C 737.909 4.97759 -0.118451 0
M  V30 7803 C 736.612 7.00392 -1.63839 0
M  V30 7804 C 738.638 5.8396 -0.935157 0
M  V30 7805 C 738 6.83909 -1.68664 0
M  V30 7806 H 734.099 0.73613 0.263887 0
M  V30 7807 H 736.683 1.94638 0.049074 0
M  V30 7808 H 734.854 3.16064 2.2574 0
M  V30 7809 H 736.586 3.40015 2.19481 0
M  V30 7810 H 733.341 4.69214 0.643086 0
M  V30 7811 H 733.765 6.68695 -1.05714 0
M  V30 7812 H 738.407 4.20418 0.448202 0
M  V30 7813 H 736.125 7.7712 -2.21608 0
M  V30 7814 H 739.711 5.73236 -0.994579 0
M  V30 7815 H 738.591 7.49454 -2.30842 0
M  V30 7816 N 736.094 -0.359525 1.53444 0
M  V30 7817 C 737.042 -1.46104 1.80987 0
M  V30 7818 C 738.036 -1.55181 0.679351 0
M  V30 7819 O 739.242 -1.57995 0.862405 0
M  V30 7820 H 735.617 -0.486835 0.573145 0
M  V30 7821 H 737.588 -1.2008 2.73173 0
M  V30 7822 C 736.337 -2.82855 2.02208 0
M  V30 7823 H 735.66 -2.76631 2.88644 0
M  V30 7824 H 737.1 -3.59091 2.25455 0
M  V30 7825 C 735.559 -3.27192 0.802931 0
M  V30 7826 O 736.089 -4.017 -0.00544286 0
M  V30 7827 N 734.295 -2.83807 0.624657 0
M  V30 7828 H 733.842 -2.23339 1.28364 0
M  V30 7829 H 733.8 -3.13828 -0.189641 0
M  V30 7830 N 737.572 -1.44907 -0.619662 0
M  V30 7831 C 738.82 -1.47999 -1.37625 0
M  V30 7832 C 739.141 -0.118295 -1.94641 0
M  V30 7833 O 738.411 0.85086 -1.76457 0
M  V30 7834 H 736.991 -0.544993 -0.510873 0
M  V30 7835 H 739.653 -1.80772 -0.728522 0
M  V30 7836 H 738.749 -2.21196 -2.20179 0
M  V30 7837 N 739.05 0.861098 -1.31996 0
M  V30 7838 C 739.983 1.97266 -1.14724 0
M  V30 7839 C 740.961 1.62528 -0.0483789 0
M  V30 7840 O 742.145 1.87366 -0.206478 0
M  V30 7841 C 739.272 3.30181 -0.754861 0
M  V30 7842 C 738.318 3.839 -1.85804 0
M  V30 7843 S 739.151 4.08274 -3.46515 0
M  V30 7844 C 740.307 5.44174 -3.09235 0
M  V30 7845 H 740.54 2.11614 -2.08822 0
M  V30 7846 H 738.073 1.01232 -1.16582 0
M  V30 7847 H 740.031 4.06996 -0.535232 0
M  V30 7848 H 738.692 3.13655 0.167155 0
M  V30 7849 H 737.885 4.80013 -1.53633 0
M  V30 7850 H 737.487 3.13907 -2.03318 0
M  V30 7851 H 739.779 6.26172 -2.58679 0
M  V30 7852 H 740.722 5.81301 -4.04345 0
M  V30 7853 H 741.13 5.0787 -2.46431 0
M  V30 7854 N 740.528 1.15101 1.07655 0
M  V30 7855 C 741.461 0.788522 2.14144 0
M  V30 7856 C 742.439 -0.233635 1.60913 0
M  V30 7857 O 743.623 -0.120908 1.88112 0
M  V30 7858 C 740.75 0.172033 3.38263 0
M  V30 7859 C 739.796 1.16559 4.10264 0
M  V30 7860 S 740.629 2.70627 4.62084 0
M  V30 7861 C 741.785 2.10389 5.8948 0
M  V30 7862 H 742.018 1.69047 2.44561 0
M  V30 7863 H 739.551 0.973033 1.19881 0
M  V30 7864 H 741.509 -0.177223 4.10117 0
M  V30 7865 H 740.17 -0.707468 3.06029 0
M  V30 7866 H 739.363 0.6824 4.99359 0
M  V30 7867 H 738.965 1.45923 3.44358 0
M  V30 7868 H 741.257 1.46405 6.61492 0
M  V30 7869 H 742.2 2.97639 6.42508 0
M  V30 7870 H 742.608 1.54816 5.42856 0
M  V30 7871 N 742.006 -1.2595 0.947325 0
M  V30 7872 C 743.254 -1.93081 0.596996 0
M  V30 7873 C 743.575 -1.74632 -0.867672 0
M  V30 7874 O 742.845 -1.1056 -1.6172 0
M  V30 7875 H 741.425 -0.714542 0.217805 0
M  V30 7876 H 744.087 -1.53265 1.20398 0
M  V30 7877 H 743.183 -3.01134 0.82004 0
M  V30 7878 N 743.484 -0.715051 -1.40445 0
M  V30 7879 C 744.394 -0.0631624 -2.34515 0
M  V30 7880 C 745.41 0.744397 -1.57273 0
M  V30 7881 O 746.586 0.677475 -1.89663 0
M  V30 7882 C 743.651 0.847915 -3.36172 0
M  V30 7883 C 742.712 0.0303655 -4.29289 0
M  V30 7884 C 741.945 0.898051 -5.2609 0
M  V30 7885 O 742.168 2.13729 -5.28844 0
M  V30 7886 O 741.102 0.337328 -6.00954 0
M  V30 7887 H 744.928 -0.839078 -2.91879 0
M  V30 7888 H 742.513 -0.475527 -1.4163 0
M  V30 7889 H 744.395 1.3698 -3.98515 0
M  V30 7890 H 743.07 1.60299 -2.81222 0
M  V30 7891 H 741.977 -0.536573 -3.70232 0
M  V30 7892 H 743.31 -0.686474 -4.87389 0
M  V30 7893 N 744.962 1.50701 -0.461195 0
M  V30 7894 C 745.892 2.31182 0.328184 0
M  V30 7895 C 746.873 1.37644 0.999408 0
M  V30 7896 O 748.058 1.66565 0.99848 0
M  V30 7897 C 745.188 3.17113 1.41621 0
M  V30 7898 C 744.142 4.19124 0.867148 0
M  V30 7899 C 743.468 4.93728 2.05272 0
M  V30 7900 C 744.768 5.22174 -0.114808 0
M  V30 7901 H 746.462 2.97423 -0.343501 0
M  V30 7902 H 744.008 1.43033 -0.166641 0
M  V30 7903 H 745.961 3.72208 1.97584 0
M  V30 7904 H 744.685 2.48739 2.11652 0
M  V30 7905 H 743.344 3.65116 0.329557 0
M  V30 7906 H 742.992 4.21835 2.73978 0
M  V30 7907 H 742.692 5.62724 1.69161 0
M  V30 7908 H 744.216 5.51654 2.61744 0
M  V30 7909 H 745.63 5.72198 0.355316 0
M  V30 7910 H 744.027 5.98833 -0.389689 0
M  V30 7911 H 745.097 4.7353 -1.04391 0
M  V30 7912 N 746.441 0.193421 1.56409 0
M  V30 7913 C 747.371 -0.723334 2.22014 0
M  V30 7914 C 748.352 -1.22254 1.1827 0
M  V30 7915 O 749.537 -1.27168 1.46771 0
M  V30 7916 C 746.667 -1.94366 2.87818 0
M  V30 7917 C 745.621 -1.57943 3.97791 0
M  V30 7918 C 744.947 -2.87623 4.50752 0
M  V30 7919 C 746.247 -0.790639 5.16281 0
M  V30 7920 H 747.941 -0.176426 2.9888 0
M  V30 7921 H 745.487 -0.0834166 1.43758 0
M  V30 7922 H 747.44 -2.5902 3.32396 0
M  V30 7923 H 746.164 -2.51507 2.08355 0
M  V30 7924 H 744.823 -0.956482 3.53903 0
M  V30 7925 H 744.471 -3.4285 3.68053 0
M  V30 7926 H 744.171 -2.63998 5.24956 0
M  V30 7927 H 745.695 -3.53268 4.9803 0
M  V30 7928 H 747.109 -1.34024 5.57414 0
M  V30 7929 H 745.506 -0.65258 5.96541 0
M  V30 7930 H 746.576 0.208633 4.84451 0
M  V30 7931 N 747.919 -1.57396 -0.0801906 0
M  V30 7932 C 749.144 -1.91437 -0.797909 0
M  V30 7933 C 749.569 -0.789075 -1.70749 0
M  V30 7934 O 748.927 0.25857 -1.79447 0
M  V30 7935 C 748.975 -3.24402 -1.57467 0
M  V30 7936 O 748.079 -3.13043 -2.68473 0
M  V30 7937 H 747.42 -0.627109 -0.218243 0
M  V30 7938 H 749.95 -2.04537 -0.050949 0
M  V30 7939 H 749.96 -3.58072 -1.95571 0
M  V30 7940 H 748.635 -4.05884 -0.907229 0
M  V30 7941 H 747.212 -2.90915 -2.33287 0
M  V30 7942 N 749.397 0.351382 -1.53633 0
M  V30 7943 C 750.645 1.09034 -1.70165 0
M  V30 7944 C 750.966 1.89413 -0.463422 0
M  V30 7945 O 750.236 1.888 0.522624 0
M  V30 7946 H 748.816 0.405522 -0.627344 0
M  V30 7947 H 751.478 0.394554 -1.90865 0
M  V30 7948 H 750.574 1.77215 -2.56907 0
M  V30 7949 N 750.875 1.45233 0.611969 0
M  V30 7950 C 751.807 1.49575 1.73666 0
M  V30 7951 C 752.82 0.386987 1.58134 0
M  V30 7952 O 754.009 0.653804 1.66095 0
M  V30 7953 C 751.109 1.33223 3.11617 0
M  V30 7954 C 750.282 2.57694 3.5343 0
M  V30 7955 C 749.341 2.35962 4.70328 0
M  V30 7956 O 748.367 3.09553 4.77667 0
M  V30 7957 N 749.569 1.40243 5.63305 0
M  V30 7958 H 752.334 2.46539 1.70407 0
M  V30 7959 H 749.895 1.40917 0.79712 0
M  V30 7960 H 751.887 1.16502 3.87569 0
M  V30 7961 H 750.457 0.44551 3.09409 0
M  V30 7962 H 749.677 2.8956 2.67486 0
M  V30 7963 H 750.965 3.40441 3.78124 0
M  V30 7964 H 750.363 0.795023 5.60086 0
M  V30 7965 H 748.92 1.29496 6.38807 0
M  V30 7966 N 752.353 -0.854086 1.3245 0
M  V30 7967 C 753.316 -1.94427 1.21371 0
M  V30 7968 C 754.316 -1.60219 0.136613 0
M  V30 7969 O 755.506 -1.69846 0.387057 0
M  V30 7970 C 752.638 -3.29698 0.866701 0
M  V30 7971 H 753.831 -2.05679 2.18257 0
M  V30 7972 H 751.384 -1.04434 1.1629 0
M  V30 7973 H 752.119 -3.24145 -0.100319 0
M  V30 7974 H 751.904 -3.55903 1.64545 0
M  V30 7975 H 753.394 -4.09599 0.813515 0
M  V30 7976 N 753.831 -1.1567 -1.07043 0
M  V30 7977 C 755.108 -0.843948 -1.76456 0
M  V30 7978 C 755.488 0.659806 -2.00524 0
M  V30 7979 O 754.836 1.60518 -1.62623 0
M  V30 7980 C 755.046 -1.65822 -3.0709 0
M  V30 7981 C 756.394 -1.8664 -3.8138 0
M  V30 7982 O 757.418 -1.62624 -3.1691 0
M  V30 7983 O 756.277 -2.26884 -4.97178 0
M  V30 7984 H 753.371 -0.310677 -0.766426 0
M  V30 7985 H 755.917 -1.26266 -1.1338 0
M  V30 7986 H 754.689 -2.67902 -2.85209 0
M  V30 7987 H 754.312 -1.23605 -3.77899 0
M  V30 7988 N 755.309 1.25446 -0.953992 0
M  V30 7989 C 756.242 2.24341 -0.417912 0
M  V30 7990 C 757.22 1.54709 0.5004 0
M  V30 7991 O 758.404 1.83414 0.434923 0
M  V30 7992 C 755.531 3.36352 0.398155 0
M  V30 7993 C 754.577 4.24007 -0.460461 0
M  V30 7994 S 755.41 5.00951 -1.89231 0
M  V30 7995 C 756.566 6.1643 -1.08465 0
M  V30 7996 H 756.799 2.69465 -1.25602 0
M  V30 7997 H 754.332 1.34512 -0.758018 0
M  V30 7998 H 756.29 4.01325 0.863059 0
M  V30 7999 H 754.951 2.89813 1.21108 0
M  V30 8000 H 754.144 5.03728 0.165415 0
M  V30 8001 H 753.746 3.63965 -0.860549 0
M  V30 8002 H 756.038 6.76681 -0.333017 0
M  V30 8003 H 756.981 6.8335 -1.85577 0
M  V30 8004 H 757.389 5.61139 -0.615062 0
M  V30 8005 N 756.787 0.722489 1.40064 0
M  V30 8006 C 758.036 0.261932 1.99992 0
M  V30 8007 C 758.349 -1.15358 1.57961 0
M  V30 8008 O 759.555 -1.71301 2.10637 0
M  V30 8009 C 758.011 0.41737 3.57472 0
M  V30 8010 C 757.619 1.83997 4.08472 0
M  V30 8011 C 759.363 0.0179561 4.24496 0
M  V30 8012 C 757.27 1.94563 5.5848 0
M  V30 8013 H 756.2 0.0941768 0.748095 0
M  V30 8014 H 758.851 0.894572 1.60218 0
M  V30 8015 H 757.233 -0.283965 3.94981 0
M  V30 8016 H 758.407 2.57224 3.82325 0
M  V30 8017 H 756.722 2.19147 3.54067 0
M  V30 8018 H 759.319 0.076085 5.34646 0
M  V30 8019 H 759.662 -1.02498 4.03485 0
M  V30 8020 H 760.195 0.669988 3.92117 0
M  V30 8021 H 756.934 2.97001 5.84355 0
M  V30 8022 H 756.454 1.25756 5.86469 0
M  V30 8023 H 758.133 1.72095 6.23692 0
M  V30 8024 N 758.265 -1.50454 0.469181 0
M  V30 8025 C 759.511 -2.02615 -0.0865971 0
M  V30 8026 C 759.844 -1.35062 -1.39542 0
M  V30 8027 O 759.119 -0.475701 -1.88593 0
M  V30 8028 C 759.402 -3.59068 -0.272385 0
M  V30 8029 C 759.255 -4.37196 1.05733 0
M  V30 8030 C 760.574 -4.2793 -1.0278 0
M  V30 8031 H 757.693 -0.736389 -0.0299977 0
M  V30 8032 H 760.335 -1.79792 0.614399 0
M  V30 8033 H 758.485 -3.78646 -0.869471 0
M  V30 8034 H 760.157 -4.29195 1.69084 0
M  V30 8035 H 758.4 -4.01013 1.65442 0
M  V30 8036 H 759.071 -5.44924 0.880997 0
M  V30 8037 H 761.547 -4.12816 -0.521718 0
M  V30 8038 H 760.423 -5.37214 -1.12659 0
M  V30 8039 H 760.684 -3.90968 -2.0639 0
M  V30 8040 N 759.743 -0.201713 -1.56304 0
M  V30 8041 C 760.706 0.702811 -2.18159 0
M  V30 8042 C 761.706 1.13619 -1.13787 0
M  V30 8043 O 762.896 1.0482 -1.39134 0
M  V30 8044 C 760.028 1.96032 -2.78898 0
M  V30 8045 H 761.221 0.163836 -2.99452 0
M  V30 8046 H 758.774 0.04791 -1.56227 0
M  V30 8047 H 759.509 2.54165 -2.01421 0
M  V30 8048 H 759.294 1.65824 -3.55309 0
M  V30 8049 H 760.784 2.60519 -3.26373 0
M  V30 8050 N 761.222 1.57436 0.0718424 0
M  V30 8051 C 762.633 1.75975 0.623678 0
M  V30 8052 C 762.984 0.827155 1.77912 0
M  V30 8053 O 762.109 0.0112425 2.16397 0
M  V30 8054 C 762.704 3.1911 1.13816 0
M  V30 8055 C 761.263 3.38994 1.63586 0
M  V30 8056 C 760.41 2.71684 0.555261 0
M  V30 8057 H 763.361 1.57948 -0.154328 0
M  V30 8058 H 763.382 3.23267 2.00696 0
M  V30 8059 H 762.894 3.86962 0.296998 0
M  V30 8060 H 760.995 2.76256 2.50027 0
M  V30 8061 H 761.108 4.47436 1.71283 0
M  V30 8062 H 759.472 2.34236 1.00029 0
M  V30 8063 H 760.255 3.42191 -0.275712 0
M  V30 8064 N 762.7 -0.34323 1.53817 0
M  V30 8065 C 763.63 -1.42709 1.84814 0
M  V30 8066 C 764.611 -1.5488 0.703297 0
M  V30 8067 O 765.796 -1.69082 0.955237 0
M  V30 8068 C 762.926 -2.79756 2.05801 0
M  V30 8069 C 761.88 -2.82392 3.21619 0
M  V30 8070 C 761.206 -4.22326 3.2794 0
M  V30 8071 C 762.506 -2.479 4.59721 0
M  V30 8072 H 764.2 -1.17018 2.75585 0
M  V30 8073 H 761.746 -0.561485 1.32602 0
M  V30 8074 H 763.699 -3.55627 2.26069 0
M  V30 8075 H 762.423 -3.06883 1.11761 0
M  V30 8076 H 761.082 -2.08974 3.01207 0
M  V30 8077 H 760.73 -4.46564 2.31494 0
M  V30 8078 H 760.43 -4.25001 4.05768 0
M  V30 8079 H 761.954 -5.00039 3.50419 0
M  V30 8080 H 763.368 -3.13484 4.80001 0
M  V30 8081 H 761.765 -2.61857 5.39954 0
M  V30 8082 H 762.835 -1.43087 4.63308 0
M  V30 8083 N 764.178 -1.45556 -0.604258 0
M  V30 8084 C 765.406 -1.53278 -1.38973 0
M  V30 8085 C 765.821 -0.166509 -1.88064 0
M  V30 8086 O 765.178 0.832519 -1.62405 0
M  V30 8087 C 765.229 -2.51992 -2.59195 0
M  V30 8088 O 764.95 -3.8331 -2.12143 0
M  V30 8089 C 766.451 -2.69445 -3.52015 0
M  V30 8090 H 763.671 -0.519003 -0.425297 0
M  V30 8091 H 766.215 -1.90773 -0.736621 0
M  V30 8092 H 764.37 -2.17561 -3.2054 0
M  V30 8093 H 764.784 -4.3685 -2.90279 0
M  V30 8094 H 766.258 -3.42485 -4.32907 0
M  V30 8095 H 766.735 -1.75596 -4.0257 0
M  V30 8096 H 767.341 -3.04886 -2.9652 0
M  V30 8097 N 765.656 0.84705 -1.32902 0
M  V30 8098 C 766.905 1.59667 -1.23245 0
M  V30 8099 C 767.218 1.94551 0.202349 0
M  V30 8100 O 768.424 2.68218 0.420847 0
M  V30 8101 C 766.88 2.8795 -2.15901 0
M  V30 8102 C 766.488 2.60461 -3.64505 0
M  V30 8103 C 768.232 3.65968 -2.15098 0
M  V30 8104 C 766.139 3.84791 -4.49099 0
M  V30 8105 H 765.069 0.599167 -0.457728 0
M  V30 8106 H 767.72 0.934662 -1.57912 0
M  V30 8107 H 766.102 3.55648 -1.74157 0
M  V30 8108 H 767.276 2.01026 -4.14639 0
M  V30 8109 H 765.591 1.9576 -3.67515 0
M  V30 8110 H 768.188 4.58241 -2.75534 0
M  V30 8111 H 768.531 4.00275 -1.14392 0
M  V30 8112 H 769.064 3.05184 -2.55162 0
M  V30 8113 H 765.803 3.55621 -5.50649 0
M  V30 8114 H 765.323 4.43594 -4.03713 0
M  V30 8115 H 767.002 4.52454 -4.62487 0
M  V30 8116 N 767.134 1.16236 1.06428 0
M  V30 8117 C 768.082 0.863669 2.15971 0
M  V30 8118 C 769.076 -0.166723 1.68578 0
M  V30 8119 O 770.282 -0.0208425 1.79988 0
M  V30 8120 H 766.657 0.261684 0.705 0
M  V30 8121 H 768.628 1.79498 2.38376 0
M  V30 8122 C 767.377 0.379697 3.45621 0
M  V30 8123 H 766.7 1.16399 3.82481 0
M  V30 8124 H 768.14 0.209458 4.23482 0
M  V30 8125 C 766.599 -0.900499 3.24642 0
M  V30 8126 O 767.129 -1.97004 3.50074 0
M  V30 8127 N 765.335 -0.843721 2.78082 0
M  V30 8128 H 764.882 0.0268429 2.57586 0
M  V30 8129 H 764.84 -1.70078 2.64425 0
M  V30 8130 N 768.612 -1.24939 0.960631 0
M  V30 8131 C 769.56 -2.27659 0.47686 0
M  V30 8132 C 770.554 -1.63148 -0.455961 0
M  V30 8133 O 771.76 -1.76911 -0.332029 0
M  V30 8134 H 768.135 -0.739651 0.135723 0
M  V30 8135 H 770.106 -2.65844 1.35534 0
M  V30 8136 C 768.855 -3.46976 -0.224191 0
M  V30 8137 H 768.178 -3.96854 0.484471 0
M  V30 8138 H 769.618 -4.20717 -0.526615 0
M  V30 8139 C 768.077 -3.04159 -1.44876 0
M  V30 8140 O 768.607 -3.10697 -2.54618 0
M  V30 8141 N 766.813 -2.59284 -1.31226 0
M  V30 8142 H 766.36 -2.54164 -0.419361 0
M  V30 8143 H 766.318 -2.31 -2.13275 0
M  V30 8144 N 770.09 -0.729906 -1.39679 0
M  V30 8145 C 771 -0.0880322 -2.34435 0
M  V30 8146 C 772.016 0.727674 -1.58053 0
M  V30 8147 O 773.192 0.657321 -1.90371 0
M  V30 8148 C 770.257 0.812211 -3.37052 0
M  V30 8149 C 769.318 -0.0151681 -4.29297 0
M  V30 8150 C 768.551 0.842202 -5.27013 0
M  V30 8151 O 768.774 2.08108 -5.31081 0
M  V30 8152 O 767.708 0.27357 -6.01278 0
M  V30 8153 H 771.534 -0.869989 -2.90972 0
M  V30 8154 H 769.119 -0.490522 -1.41118 0
M  V30 8155 H 771.001 1.32745 -3.99946 0
M  V30 8156 H 769.676 1.57307 -2.82907 0
M  V30 8157 H 768.583 -0.575811 -3.69642 0
M  V30 8158 H 769.916 -0.738129 -4.86634 0
M  V30 8159 N 771.568 1.50203 -0.477153 0
M  V30 8160 C 772.984 1.59056 -0.131663 0
M  V30 8161 C 773.184 1.48473 1.36227 0
M  V30 8162 O 772.24 1.34635 2.13611 0
M  V30 8163 C 773.553 2.92741 -0.687254 0
M  V30 8164 C 775.101 3.0615 -0.651223 0
M  V30 8165 C 775.576 4.42419 -1.18446 0
M  V30 8166 N 777.067 4.48847 -1.14413 0
M  V30 8167 C 777.802 5.52689 -1.52717 0
M  V30 8168 N 777.298 6.63754 -1.98499 0
M  V30 8169 N 779.091 5.43267 -1.44282 0
M  V30 8170 H 771.242 1.55325 -1.44872 0
M  V30 8171 H 773.505 0.734395 -0.599473 0
M  V30 8172 H 773.211 3.0598 -1.73405 0
M  V30 8173 H 773.085 3.76961 -0.134215 0
M  V30 8174 H 775.472 2.92556 0.386677 0
M  V30 8175 H 775.553 2.23673 -1.24114 0
M  V30 8176 H 775.197 4.56763 -2.22103 0
M  V30 8177 H 775.127 5.23498 -0.570709 0
M  V30 8178 H 777.618 3.69152 -0.808416 0
M  V30 8179 H 777.931 7.39059 -2.25859 0
M  V30 8180 H 776.276 6.64858 -2.02456 0
M  V30 8181 H 779.467 4.55387 -1.08352 0
M  V30 8182 H 779.64 6.24074 -1.74459 0
M  V30 8183 N 773.046 0.209999 1.56195 0
M  V30 8184 C 774.009 -0.691232 2.18528 0
M  V30 8185 C 775.009 -1.13013 1.14388 0
M  V30 8186 O 776.199 -1.04081 1.39688 0
M  V30 8187 C 773.331 -1.94551 2.79934 0
M  V30 8188 H 774.524 -0.147953 2.99535 0
M  V30 8189 H 772.077 -0.0396243 1.5625 0
M  V30 8190 H 772.812 -2.53094 2.02766 0
M  V30 8191 H 772.597 -1.63938 3.56184 0
M  V30 8192 H 774.087 -2.58785 3.2775 0
M  V30 8193 N 774.524 -1.57472 -0.0634922 0
M  V30 8194 C 775.456 -2.00999 -1.10145 0
M  V30 8195 C 776.469 -0.917219 -1.34503 0
M  V30 8196 O 777.658 -1.19501 -1.32596 0
M  V30 8197 C 774.758 -2.34089 -2.45063 0
M  V30 8198 C 773.931 -3.65317 -2.40546 0
M  V30 8199 C 772.99 -3.85982 -3.57637 0
M  V30 8200 O 772.016 -4.5747 -3.38689 0
M  V30 8201 N 773.218 -3.28971 -4.78287 0
M  V30 8202 H 775.983 -2.90656 -0.730714 0
M  V30 8203 H 773.544 -1.59926 -0.252017 0
M  V30 8204 H 775.536 -2.4508 -3.22053 0
M  V30 8205 H 774.106 -1.50279 -2.74107 0
M  V30 8206 H 773.326 -3.65003 -1.48885 0
M  V30 8207 H 774.614 -4.51468 -2.34636 0
M  V30 8208 H 774.012 -2.70962 -4.96584 0
M  V30 8209 H 772.569 -3.45398 -5.5276 0
M  V30 8210 N 776.003 0.335068 -1.53997 0
M  V30 8211 C 777.233 1.0926 -1.75345 0
M  V30 8212 C 777.641 1.82568 -0.496545 0
M  V30 8213 O 776.984 1.75525 0.541897 0
M  V30 8214 C 777.046 2.14473 -2.88516 0
M  V30 8215 C 776.71 1.60665 -4.27827 0
M  V30 8216 C 777.707 1.05448 -5.09094 0
M  V30 8217 C 775.392 1.65255 -4.74337 0
M  V30 8218 C 777.386 0.555372 -6.34976 0
M  V30 8219 C 775.073 1.14956 -6.0019 0
M  V30 8220 C 776.071 0.601907 -6.80343 0
M  V30 8221 O 775.759 0.106445 -8.0383 0
M  V30 8222 H 775.491 0.331329 -0.589234 0
M  V30 8223 H 778.045 0.39042 -2.01655 0
M  V30 8224 H 776.275 2.88274 -2.5775 0
M  V30 8225 H 777.964 2.75857 -2.97755 0
M  V30 8226 H 778.73 1.01218 -4.74321 0
M  V30 8227 H 774.609 2.06822 -4.12002 0
M  V30 8228 H 778.153 0.127245 -6.97484 0
M  V30 8229 H 774.05 1.18891 -6.34457 0
M  V30 8230 H 774.818 0.222944 -8.18196 0
M  V30 8231 N 777.481 1.45874 0.596531 0
M  V30 8232 C 778.73 1.49737 1.35135 0
M  V30 8233 C 779.043 0.147755 1.95041 0
M  V30 8234 O 780.249 0.0640984 2.71424 0
M  V30 8235 C 778.705 2.6378 2.44843 0
M  V30 8236 C 778.313 4.05102 1.91301 0
M  V30 8237 C 780.057 2.769 3.21755 0
M  V30 8238 C 777.964 5.10508 2.98557 0
M  V30 8239 H 776.894 0.557219 0.507959 0
M  V30 8240 H 779.545 1.72046 0.638147 0
M  V30 8241 H 777.927 2.34774 3.189 0
M  V30 8242 H 779.101 4.43836 1.2388 0
M  V30 8243 H 777.416 3.96528 1.271 0
M  V30 8244 H 780.013 3.52819 4.01775 0
M  V30 8245 H 780.356 1.83924 3.73467 0
M  V30 8246 H 780.889 3.05485 2.54802 0
M  V30 8247 H 777.628 6.0523 2.51749 0
M  V30 8248 H 777.148 4.76332 3.6451 0
M  V30 8249 H 778.827 5.35745 3.62748 0
M  V30 8250 N 778.959 -0.83999 1.33349 0
M  V30 8251 C 779.869 -1.98182 1.25543 0
M  V30 8252 C 780.885 -1.73204 0.166208 0
M  V30 8253 O 782.061 -1.97596 0.389589 0
M  V30 8254 C 779.126 -3.32157 0.993614 0
M  V30 8255 C 778.187 -3.70258 2.17273 0
M  V30 8256 C 777.42 -4.9784 1.92331 0
M  V30 8257 O 777.643 -5.63679 0.873074 0
M  V30 8258 O 776.577 -5.33418 2.78835 0
M  V30 8259 H 780.403 -2.07708 2.21565 0
M  V30 8260 H 777.988 -0.972852 1.13384 0
M  V30 8261 H 779.87 -4.12433 0.864711 0
M  V30 8262 H 778.545 -3.23637 0.0636596 0
M  V30 8263 H 777.452 -2.90497 2.35716 0
M  V30 8264 H 778.785 -3.83442 3.08598 0
M  V30 8265 N 780.437 -1.16799 -1.0581 0
M  V30 8266 C 781.684 -0.952524 -1.78699 0
M  V30 8267 C 782.012 0.51931 -1.87439 0
M  V30 8268 O 781.267 1.40151 -1.36587 0
M  V30 8269 C 781.566 -1.53111 -3.22942 0
M  V30 8270 C 781.232 -3.0261 -3.34273 0
M  V30 8271 C 779.894 -3.43418 -3.37072 0
M  V30 8272 C 782.246 -3.98611 -3.35795 0
M  V30 8273 C 779.574 -4.78838 -3.39015 0
M  V30 8274 C 781.926 -5.33923 -3.39277 0
M  V30 8275 C 780.59 -5.74205 -3.40361 0
M  V30 8276 H 779.86 -0.348553 -0.653905 0
M  V30 8277 H 782.507 -1.45591 -1.244 0
M  V30 8278 H 780.812 -0.949286 -3.80126 0
M  V30 8279 H 782.509 -1.34002 -3.77948 0
M  V30 8280 H 779.099 -2.70075 -3.32803 0
M  V30 8281 H 783.283 -3.68146 -3.32839 0
M  V30 8282 H 778.539 -5.09369 -3.38161 0
M  V30 8283 H 782.713 -6.08094 -3.39403 0
M  V30 8284 H 780.34 -6.79117 -3.4162 0
M  V30 8285 N 781.915 1.24427 -0.967243 0
M  V30 8286 C 783.14 1.9708 -0.646069 0
M  V30 8287 C 783.565 1.71272 0.777665 0
M  V30 8288 O 782.923 0.976179 1.52776 0
M  V30 8289 C 782.971 3.48501 -0.926266 0
M  V30 8290 O 782.075 4.12398 -0.0114653 0
M  V30 8291 H 781.416 0.617423 -0.244304 0
M  V30 8292 H 783.946 1.58215 -1.29727 0
M  V30 8293 H 783.956 3.98885 -0.857619 0
M  V30 8294 H 782.631 3.66613 -1.96386 0
M  V30 8295 H 781.208 3.72661 -0.133396 0
M  V30 8296 N 783.393 0.737304 1.3929 0
M  V30 8297 C 784.34 0.0988364 2.30588 0
M  V30 8298 C 785.31 -0.727206 1.49335 0
M  V30 8299 O 786.495 -0.686694 1.78014 0
M  V30 8300 C 783.635 -0.800734 3.35682 0
M  V30 8301 C 782.748 0.0381731 4.31983 0
M  V30 8302 C 781.883 -0.862884 5.24145 0
M  V30 8303 C 780.922 -0.0193639 6.12097 0
M  V30 8304 N 780.059 -0.87648 6.96608 0
M  V30 8305 H 784.899 0.883031 2.84617 0
M  V30 8306 H 782.436 0.447111 1.4014 0
M  V30 8307 H 784.394 -1.33676 3.95205 0
M  V30 8308 H 783.024 -1.55088 2.83103 0
M  V30 8309 H 782.076 0.691641 3.74059 0
M  V30 8310 H 783.388 0.690294 4.94 0
M  V30 8311 H 782.542 -1.46667 5.88705 0
M  V30 8312 H 781.281 -1.54878 4.62454 0
M  V30 8313 H 780.286 0.597202 5.46547 0
M  V30 8314 H 781.511 0.663348 6.75852 0
M  V30 8315 H 779.457 -1.54762 6.37483 0
M  V30 8316 H 779.374 -0.280892 7.55478 0
M  V30 8317 H 780.642 -1.46575 7.65595 0
M  V30 8318 N 784.871 -1.49948 0.485112 0
M  V30 8319 C 786.282 -1.8667 0.0334041 0
M  V30 8320 C 786.633 -1.3988 -1.37579 0
M  V30 8321 O 785.758 -0.769788 -2.02245 0
M  V30 8322 C 786.353 -3.38757 0.0538426 0
M  V30 8323 C 784.912 -3.74839 -0.342453 0
M  V30 8324 C 784.059 -2.73894 0.433281 0
M  V30 8325 H 787.01 -1.42492 0.698699 0
M  V30 8326 H 787.031 -3.73132 -0.745146 0
M  V30 8327 H 786.543 -3.72782 1.07959 0
M  V30 8328 H 784.644 -3.46419 -1.37203 0
M  V30 8329 H 784.757 -4.79088 -0.0340503 0
M  V30 8330 H 783.121 -2.54441 -0.114849 0
M  V30 8331 H 783.904 -3.10763 1.45881 0
M  V30 8332 N 786.349 -0.21828 -1.56081 0
M  V30 8333 C 787.596 0.414307 -1.98216 0
M  V30 8334 C 787.924 1.60005 -1.10584 0
M  V30 8335 O 787.179 1.95124 -0.150043 0
M  V30 8336 C 787.478 0.894782 -3.46018 0
M  V30 8337 C 787.144 -0.180083 -4.5054 0
M  V30 8338 C 785.806 -0.475367 -4.78846 0
M  V30 8339 C 788.158 -0.907191 -5.13244 0
M  V30 8340 C 785.486 -1.50233 -5.67139 0
M  V30 8341 C 787.838 -1.92347 -6.02649 0
M  V30 8342 C 786.502 -2.22571 -6.293 0
M  V30 8343 H 785.772 0.151606 -0.725325 0
M  V30 8344 H 788.419 -0.320113 -1.88806 0
M  V30 8345 H 786.724 1.7079 -3.52616 0
M  V30 8346 H 788.421 1.39403 -3.75989 0
M  V30 8347 H 785.011 0.06022 -4.28558 0
M  V30 8348 H 789.195 -0.692303 -4.91448 0
M  V30 8349 H 784.451 -1.74215 -5.86054 0
M  V30 8350 H 788.625 -2.49197 -6.50288 0
M  V30 8351 H 786.252 -3.0229 -6.97513 0
M  V30 8352 N 787.827 1.57504 0.0551401 0
M  V30 8353 C 788.774 2.04825 1.06373 0
M  V30 8354 C 789.744 0.932108 1.37481 0
M  V30 8355 O 790.929 1.20093 1.48265 0
M  V30 8356 C 788.069 2.51091 2.36743 0
M  V30 8357 C 787.182 3.76392 2.12021 0
M  V30 8358 C 786.317 4.11373 3.36074 0
M  V30 8359 C 785.356 5.29666 3.0679 0
M  V30 8360 N 784.493 5.60205 4.2322 0
M  V30 8361 H 789.333 2.90753 0.653216 0
M  V30 8362 H 786.87 1.43776 0.310951 0
M  V30 8363 H 788.828 2.75973 3.12881 0
M  V30 8364 H 787.458 1.68118 2.75565 0
M  V30 8365 H 786.51 3.58751 1.26498 0
M  V30 8366 H 787.822 4.62662 1.86401 0
M  V30 8367 H 786.976 4.37245 4.20597 0
M  V30 8368 H 785.715 3.23704 3.64784 0
M  V30 8369 H 784.72 5.03574 2.20664 0
M  V30 8370 H 785.945 6.18968 2.79385 0
M  V30 8371 H 783.891 4.75495 4.5193 0
M  V30 8372 H 783.808 6.40928 4.00933 0
M  V30 8373 H 785.076 5.90637 5.08692 0
M  V30 8374 N 789.305 -0.326896 1.54172 0
M  V30 8375 C 790.535 -1.08328 1.75922 0
M  V30 8376 C 790.943 -1.82302 0.50622 0
M  V30 8377 O 790.286 -1.7581 -0.532581 0
M  V30 8378 C 790.348 -2.1294 2.8965 0
M  V30 8379 C 790.012 -1.58394 4.28673 0
M  V30 8380 C 791.009 -1.02747 5.09646 0
M  V30 8381 C 788.694 -1.62737 4.75207 0
M  V30 8382 C 790.688 -0.52169 6.35261 0
M  V30 8383 C 788.375 -1.11772 6.00791 0
M  V30 8384 C 789.373 -0.565819 6.80652 0
M  V30 8385 O 789.061 -0.0638146 8.03875 0
M  V30 8386 H 788.793 -0.3282 0.590983 0
M  V30 8387 H 791.347 -0.37972 2.0186 0
M  V30 8388 H 789.577 -2.86903 2.59275 0
M  V30 8389 H 791.266 -2.74274 2.99213 0
M  V30 8390 H 792.032 -0.987007 4.74851 0
M  V30 8391 H 787.911 -2.04635 4.13093 0
M  V30 8392 H 791.455 -0.0902544 6.97542 0
M  V30 8393 H 787.352 -1.15524 6.35078 0
M  V30 8394 H 788.12 -0.17955 8.18303 0
M  V30 8395 N 790.784 -1.46188 -0.588786 0
M  V30 8396 C 791.716 -1.52319 -1.71265 0
M  V30 8397 C 792.729 -0.412096 -1.57498 0
M  V30 8398 O 793.918 -0.680146 -1.65034 0
M  V30 8399 C 791.018 -1.38164 -3.09458 0
M  V30 8400 C 790.191 -2.63284 -3.49286 0
M  V30 8401 C 789.25 -2.43415 -4.66514 0
M  V30 8402 O 788.276 -3.17113 -4.72682 0
M  V30 8403 N 789.478 -1.49187 -5.61002 0
M  V30 8404 H 792.243 -2.49219 -1.66463 0
M  V30 8405 H 789.804 -1.42167 -0.774601 0
M  V30 8406 H 791.796 -1.22653 -3.85666 0
M  V30 8407 H 790.366 -0.494678 -3.08661 0
M  V30 8408 H 789.586 -2.93779 -2.62845 0
M  V30 8409 H 790.874 -3.46413 -3.7266 0
M  V30 8410 H 790.272 -0.884027 -5.5875 0
M  V30 8411 H 788.829 -1.39642 -6.36666 0
M  V30 8412 N 792.262 0.832906 -1.33792 0
M  V30 8413 C 793.51 1.58539 -1.25338 0
M  V30 8414 C 793.831 1.94175 0.179204 0
M  V30 8415 O 793.101 1.61458 1.10941 0
M  V30 8416 H 791.681 0.58784 -0.460926 0
M  V30 8417 H 794.343 0.995064 -1.67584 0
M  V30 8418 H 793.439 2.51268 -1.85123 0
M  V30 8419 N 793.74 1.17359 1.05189 0
M  V30 8420 C 794.67 0.91365 2.14883 0
M  V30 8421 C 795.651 -0.144365 1.69486 0
M  V30 8422 O 796.836 0.00587861 1.94199 0
M  V30 8423 C 793.966 0.426196 3.44675 0
M  V30 8424 C 792.92 1.4234 4.03638 0
M  V30 8425 C 792.246 0.793902 5.28773 0
M  V30 8426 C 793.546 2.7966 4.41121 0
M  V30 8427 H 795.24 1.831 2.36885 0
M  V30 8428 H 792.786 0.881781 1.13845 0
M  V30 8429 H 794.739 0.231767 4.20762 0
M  V30 8430 H 793.463 -0.526693 3.22325 0
M  V30 8431 H 792.122 1.60457 3.2962 0
M  V30 8432 H 791.77 -0.165824 5.02727 0
M  V30 8433 H 791.47 1.45959 5.69183 0
M  V30 8434 H 792.994 0.609747 6.07548 0
M  V30 8435 H 794.408 2.6526 5.08242 0
M  V30 8436 H 792.805 3.42807 4.92548 0
M  V30 8437 H 793.875 3.34068 3.51464 0
M  V30 8438 N 795.218 -1.23913 0.973828 0
M  V30 8439 C 796.446 -1.96195 0.656891 0
M  V30 8440 C 796.861 -1.72166 -0.774876 0
M  V30 8441 O 796.218 -1.0091 -1.52064 0
M  V30 8442 C 796.269 -3.49342 0.929638 0
M  V30 8443 O 795.99 -3.72553 2.30512 0
M  V30 8444 C 797.491 -4.38833 0.627739 0
M  V30 8445 H 794.711 -0.624841 0.244572 0
M  V30 8446 H 797.255 -1.57579 1.30343 0
M  V30 8447 H 795.41 -3.85999 0.329216 0
M  V30 8448 H 795.824 -4.66893 2.3898 0
M  V30 8449 H 797.298 -5.45117 0.868991 0
M  V30 8450 H 797.775 -4.37009 -0.438104 0
M  V30 8451 H 798.381 -4.07773 1.20834 0
M  V30 8452 N 796.696 -0.74468 -1.38897 0
M  V30 8453 C 797.945 -0.293716 -1.9955 0
M  V30 8454 C 798.258 1.12831 -1.59777 0
M  V30 8455 O 799.464 1.67929 -2.13336 0
M  V30 8456 C 797.92 -0.474188 -3.56762 0
M  V30 8457 C 797.528 -1.90472 -4.05493 0
M  V30 8458 C 799.272 -0.0854875 -4.24414 0
M  V30 8459 C 797.179 -2.03423 -5.55314 0
M  V30 8460 H 796.109 -0.106066 -0.746502 0
M  V30 8461 H 798.76 -0.919948 -1.58774 0
M  V30 8462 H 797.142 0.221092 -3.95382 0
M  V30 8463 H 798.316 -2.63274 -3.78184 0
M  V30 8464 H 796.631 -2.24752 -3.50536 0
M  V30 8465 H 799.228 -0.161133 -5.34457 0
M  V30 8466 H 799.571 0.96066 -4.05064 0
M  V30 8467 H 800.104 -0.732286 -3.91002 0
M  V30 8468 H 796.843 -3.0626 -5.79556 0
M  V30 8469 H 796.363 -1.3507 -5.84394 0
M  V30 8470 H 798.042 -1.81996 -6.20876 0
M  V30 8471 N 798.174 1.49689 -0.493057 0
M  V30 8472 C 799.104 2.31826 0.279073 0
M  V30 8473 C 800.085 1.39733 0.969987 0
M  V30 8474 O 801.27 1.68646 0.962925 0
M  V30 8475 C 798.4 3.20046 1.34862 0
M  V30 8476 C 797.354 4.20869 0.77805 0
M  V30 8477 C 796.68 4.97971 1.94753 0
M  V30 8478 C 797.98 5.21813 -0.225543 0
M  V30 8479 H 799.674 2.96627 -0.406512 0
M  V30 8480 H 797.22 1.42647 -0.196943 0
M  V30 8481 H 799.173 3.76315 1.89645 0
M  V30 8482 H 797.897 2.53172 2.06328 0
M  V30 8483 H 796.556 3.65733 0.252036 0
M  V30 8484 H 796.204 4.27552 2.64969 0
M  V30 8485 H 795.904 5.66186 1.57187 0
M  V30 8486 H 797.428 5.57082 2.49984 0
M  V30 8487 H 798.842 5.72823 0.233864 0
M  V30 8488 H 797.239 5.97872 -0.516622 0
M  V30 8489 H 798.309 4.71209 -1.14412 0
M  V30 8490 N 799.652 0.226554 1.55963 0
M  V30 8491 C 800.898 -0.404387 1.98727 0
M  V30 8492 C 801.231 -1.59059 1.11418 0
M  V30 8493 O 800.506 -1.93729 0.172971 0
M  V30 8494 C 800.789 -0.834081 3.50307 0
M  V30 8495 C 800.642 0.356104 4.48388 0
M  V30 8496 C 801.961 -1.68845 4.06423 0
M  V30 8497 H 799.08 -0.145515 0.722492 0
M  V30 8498 H 801.722 0.323791 1.87221 0
M  V30 8499 H 799.872 -1.45454 3.60244 0
M  V30 8500 H 801.544 0.99432 4.50456 0
M  V30 8501 H 799.787 1.0027 4.22053 0
M  V30 8502 H 800.458 0.0124333 5.51999 0
M  V30 8503 H 802.934 -1.16489 3.99461 0
M  V30 8504 H 801.81 -1.958 5.1279 0
M  V30 8505 H 802.071 -2.65347 3.53615 0
M  V30 8506 N 801.13 -1.57531 -0.0467866 0
M  V30 8507 C 802.077 -2.05387 -1.05285 0
M  V30 8508 C 803.047 -0.939385 -1.36985 0
M  V30 8509 O 804.232 -1.20877 -1.47626 0
M  V30 8510 C 801.372 -2.52343 -2.35408 0
M  V30 8511 C 800.485 -3.77512 -2.10022 0
M  V30 8512 C 799.62 -4.1315 -3.33887 0
M  V30 8513 C 798.659 -5.31286 -3.03976 0
M  V30 8514 N 797.796 -5.62441 -4.20243 0
M  V30 8515 H 802.636 -2.91095 -0.637788 0
M  V30 8516 H 800.173 -1.43939 -0.303322 0
M  V30 8517 H 802.131 -2.77628 -3.11413 0
M  V30 8518 H 800.761 -1.69577 -2.7467 0
M  V30 8519 H 799.813 -3.59417 -1.24594 0
M  V30 8520 H 801.125 -4.63644 -1.83945 0
M  V30 8521 H 800.279 -4.39469 -4.18273 0
M  V30 8522 H 799.018 -3.25634 -3.63062 0
M  V30 8523 H 798.023 -5.04738 -2.17991 0
M  V30 8524 H 799.248 -6.20441 -2.76098 0
M  V30 8525 H 797.194 -4.77885 -4.49402 0
M  V30 8526 H 797.111 -6.43046 -3.97528 0
M  V30 8527 H 798.379 -5.93327 -5.05553 0
M  V30 8528 N 802.608 0.318715 -1.54344 0
M  V30 8529 C 803.555 1.39242 -1.84066 0
M  V30 8530 C 804.525 1.51175 -0.688134 0
M  V30 8531 O 805.71 1.66318 -0.935039 0
M  V30 8532 C 802.85 2.75528 -2.07794 0
M  V30 8533 C 801.963 2.72187 -3.35467 0
M  V30 8534 C 801.098 4.00352 -3.4913 0
M  V30 8535 C 800.137 3.91338 -4.7066 0
M  V30 8536 N 799.274 5.11242 -4.81224 0
M  V30 8537 H 804.114 1.13196 -2.75664 0
M  V30 8538 H 801.651 0.547857 -1.36517 0
M  V30 8539 H 803.609 3.54763 -2.19543 0
M  V30 8540 H 802.239 2.99873 -1.19482 0
M  V30 8541 H 801.291 1.84917 -3.3243 0
M  V30 8542 H 802.603 2.61411 -4.24812 0
M  V30 8543 H 801.757 4.88019 -3.60448 0
M  V30 8544 H 800.496 4.1394 -2.57886 0
M  V30 8545 H 799.501 3.02055 -4.59394 0
M  V30 8546 H 800.726 3.7931 -5.63294 0
M  V30 8547 H 798.672 5.25327 -3.92897 0
M  V30 8548 H 798.589 5.0282 -5.64543 0
M  V30 8549 H 799.857 6.0061 -4.96879 0
M  V30 8550 N 804.086 1.46499 0.581025 0
M  V30 8551 C 804.996 1.59778 1.71779 0
M  V30 8552 C 806.012 0.481223 1.67213 0
M  V30 8553 O 807.188 0.74557 1.87091 0
M  V30 8554 C 804.253 1.58626 3.08283 0
M  V30 8555 C 803.314 2.81527 3.241 0
M  V30 8556 C 802.547 2.80421 4.54092 0
M  V30 8557 O 802.77 1.89262 5.38085 0
M  V30 8558 O 801.704 3.71984 4.73193 0
M  V30 8559 H 805.53 2.55918 1.63523 0
M  V30 8560 H 803.115 1.29311 0.748267 0
M  V30 8561 H 804.997 1.60686 3.89561 0
M  V30 8562 H 803.672 0.656467 3.16973 0
M  V30 8563 H 802.579 2.85021 2.42309 0
M  V30 8564 H 803.912 3.73721 3.20302 0
M  V30 8565 N 805.565 -0.825799 1.34232 0
M  V30 8566 C 806.814 -1.57686 1.2577 0
M  V30 8567 C 807.127 -1.94848 -0.171372 0
M  V30 8568 O 808.333 -2.68854 -0.378123 0
M  V30 8569 C 806.789 -2.84478 2.20454 0
M  V30 8570 C 806.397 -2.54629 3.68603 0
M  V30 8571 C 808.141 -3.625 2.20893 0
M  V30 8572 C 806.048 -3.77597 4.55164 0
M  V30 8573 H 804.978 -0.591809 0.467203 0
M  V30 8574 H 807.629 -0.909421 1.59379 0
M  V30 8575 H 806.011 -3.52832 1.79793 0
M  V30 8576 H 807.185 -1.94404 4.17784 0
M  V30 8577 H 805.5 -1.89888 3.70582 0
M  V30 8578 H 808.097 -4.538 2.82789 0
M  V30 8579 H 808.44 -3.98404 1.20746 0
M  V30 8580 H 808.973 -3.01086 2.59985 0
M  V30 8581 H 805.712 -3.46815 5.56237 0
M  V30 8582 H 805.232 -4.37116 4.10719 0
M  V30 8583 H 806.911 -4.45039 4.69627 0
M  V30 8584 N 807.043 -1.17915 -1.04565 0
M  V30 8585 C 808.454 -0.976383 -1.59134 0
M  V30 8586 C 808.805 0.475267 -1.90357 0
M  V30 8587 O 807.93 1.35172 -1.6899 0
M  V30 8588 C 808.525 -1.76604 -2.89131 0
M  V30 8589 C 807.084 -1.60777 -3.40335 0
M  V30 8590 C 806.231 -1.76369 -2.13985 0
M  V30 8591 H 809.182 -1.32532 -0.872985 0
M  V30 8592 H 809.203 -1.25215 -3.59307 0
M  V30 8593 H 808.715 -2.82252 -2.66375 0
M  V30 8594 H 806.816 -0.576436 -3.68114 0
M  V30 8595 H 806.929 -2.40268 -4.14497 0
M  V30 8596 H 805.293 -1.19268 -2.25049 0
M  V30 8597 H 806.076 -2.83441 -1.9369 0
M  V30 8598 N 808.521 1.23394 -0.980386 0
M  V30 8599 C 809.937 1.43961 -0.689008 0
M  V30 8600 C 810.137 1.87229 0.744809 0
M  V30 8601 O 809.193 2.01831 1.51725 0
M  V30 8602 C 810.506 2.49128 -1.68392 0
M  V30 8603 C 812.054 2.62941 -1.69796 0
M  V30 8604 C 812.529 3.71317 -2.68118 0
M  V30 8605 N 814.02 3.7876 -2.66636 0
M  V30 8606 C 814.755 4.62176 -3.39383 0
M  V30 8607 N 814.251 5.49682 -4.21688 0
M  V30 8608 N 816.044 4.56372 -3.28147 0
M  V30 8609 H 808.195 0.936106 -1.90659 0
M  V30 8610 H 810.458 0.473023 -0.821555 0
M  V30 8611 H 810.164 2.24252 -2.70931 0
M  V30 8612 H 810.038 3.47514 -1.46675 0
M  V30 8613 H 812.425 2.87168 -0.679617 0
M  V30 8614 H 812.506 1.64871 -1.95579 0
M  V30 8615 H 812.15 3.4784 -3.70095 0
M  V30 8616 H 812.08 4.68929 -2.3961 0
M  V30 8617 H 814.571 3.16226 -2.06904 0
M  V30 8618 H 814.884 6.10323 -4.74053 0
M  V30 8619 H 813.229 5.49306 -4.25779 0
M  V30 8620 H 816.42 3.87029 -2.63299 0
M  V30 8621 H 816.593 5.21153 -3.85102 0
M  V30 8622 N 809.999 0.752036 1.385 0
M  V30 8623 C 811.224 0.316993 2.04963 0
M  V30 8624 C 811.649 -1.04582 1.56346 0
M  V30 8625 O 811.007 -1.66616 0.714755 0
M  V30 8626 C 811.055 0.347235 3.58924 0
M  V30 8627 O 810.159 -0.659296 4.07096 0
M  V30 8628 H 809.5 0.140652 0.648932 0
M  V30 8629 H 812.03 1.02272 1.77205 0
M  V30 8630 H 812.04 0.19757 4.07521 0
M  V30 8631 H 810.715 1.34157 3.93668 0
M  V30 8632 H 809.292 -0.474371 3.6987 0
M  V30 8633 N 811.477 -1.49425 0.500989 0
M  V30 8634 C 812.705 -2.06861 -0.0403443 0
M  V30 8635 C 813.12 -1.36132 -1.30819 0
M  V30 8636 O 812.477 -0.439647 -1.77125 0
M  V30 8637 C 812.528 -3.6027 -0.297902 0
M  V30 8638 O 812.249 -4.28338 0.919686 0
M  V30 8639 C 813.75 -4.34419 -0.882876 0
M  V30 8640 H 810.97 -0.670688 0.0204619 0
M  V30 8641 H 813.514 -1.92207 0.698342 0
M  V30 8642 H 811.669 -3.74627 -0.98657 0
M  V30 8643 H 812.083 -5.2004 0.682528 0
M  V30 8644 H 813.557 -5.42631 -1.01268 0
M  V30 8645 H 814.034 -3.96898 -1.88066 0
M  V30 8646 H 814.64 -4.24669 -0.231677 0
M  V30 8647 N 812.955 -0.234822 -1.55841 0
M  V30 8648 C 813.885 0.664217 -2.23854 0
M  V30 8649 C 814.866 1.19076 -1.2147 0
M  V30 8650 O 816.051 1.23232 -1.50091 0
M  V30 8651 C 813.181 1.86666 -2.9287 0
M  V30 8652 C 812.135 1.47341 -4.01839 0
M  V30 8653 C 811.461 2.75571 -4.58219 0
M  V30 8654 C 812.761 0.653479 -5.18196 0
M  V30 8655 H 814.455 0.0971213 -2.99242 0
M  V30 8656 H 812.001 0.0452724 -1.43929 0
M  V30 8657 H 813.954 2.50116 -3.39146 0
M  V30 8658 H 812.678 2.45894 -2.1495 0
M  V30 8659 H 811.337 0.862314 -3.56314 0
M  V30 8660 H 810.985 3.32971 -3.77014 0
M  V30 8661 H 810.685 2.49987 -5.31771 0
M  V30 8662 H 812.209 3.39939 -5.07221 0
M  V30 8663 H 813.623 1.19198 -5.60771 0
M  V30 8664 H 812.02 0.494188 -5.98062 0
M  V30 8665 H 813.09 -0.337004 -4.83728 0
M  V30 8666 N 814.433 1.57553 0.0384317 0
M  V30 8667 C 815.71 1.79977 0.766002 0
M  V30 8668 C 816.09 0.830625 1.94072 0
M  V30 8669 O 815.438 -0.129243 2.28134 0
M  V30 8670 C 815.648 3.27434 1.20781 0
M  V30 8671 C 816.996 3.92167 1.62758 0
M  V30 8672 O 818.02 3.31527 1.30263 0
M  V30 8673 O 816.879 4.98917 2.23035 0
M  V30 8674 H 813.973 0.739787 0.369654 0
M  V30 8675 H 816.519 1.69693 0.0159312 0
M  V30 8676 H 815.291 3.89558 0.368792 0
M  V30 8677 H 814.914 3.42571 2.01819 0
M  V30 8678 N 815.911 -0.310526 1.54511 0
M  V30 8679 C 817.136 -1.07046 1.7764 0
M  V30 8680 C 817.561 -1.80488 0.529696 0
M  V30 8681 O 816.919 -1.73702 -0.519361 0
M  V30 8682 C 816.967 -2.03411 2.97752 0
M  V30 8683 O 816.071 -3.11545 2.7021 0
M  V30 8684 H 815.412 -0.307994 0.588248 0
M  V30 8685 H 817.942 -0.350848 2.01569 0
M  V30 8686 H 817.952 -2.46048 3.2546 0
M  V30 8687 H 816.627 -1.49361 3.88155 0
M  V30 8688 H 815.204 -2.7349 2.53491 0
M  V30 8689 N 817.389 -1.46805 -0.573248 0
M  V30 8690 C 818.636 -1.52604 -1.3311 0
M  V30 8691 C 818.964 -0.181633 -1.9365 0
M  V30 8692 O 818.219 0.823775 -1.77517 0
M  V30 8693 C 818.518 -2.58001 -2.47326 0
M  V30 8694 C 818.184 -4.01747 -2.04719 0
M  V30 8695 C 816.846 -4.40881 -1.92814 0
M  V30 8696 C 819.198 -4.92008 -1.71982 0
M  V30 8697 C 816.526 -5.68129 -1.46445 0
M  V30 8698 C 818.878 -6.19703 -1.27089 0
M  V30 8699 C 817.542 -6.57733 -1.13768 0
M  V30 8700 H 816.812 -0.558417 -0.487084 0
M  V30 8701 H 819.459 -1.80327 -0.644538 0
M  V30 8702 H 817.764 -2.23974 -3.2147 0
M  V30 8703 H 819.461 -2.59715 -3.05531 0
M  V30 8704 H 816.051 -3.70819 -2.14922 0
M  V30 8705 H 820.235 -4.62485 -1.8006 0
M  V30 8706 H 815.491 -5.96359 -1.34783 0
M  V30 8707 H 819.665 -6.89064 -1.00814 0
M  V30 8708 H 817.292 -7.56228 -0.776142 0
M  V30 8709 N 818.867 0.818669 -1.34668 0
M  V30 8710 C 819.8 1.93516 -1.20941 0
M  V30 8711 C 820.778 1.62292 -0.100061 0
M  V30 8712 O 821.962 1.86614 -0.265983 0
M  V30 8713 C 819.089 3.27612 -0.859524 0
M  V30 8714 C 818.135 3.77794 -1.97923 0
M  V30 8715 S 818.968 3.97043 -3.59329 0
M  V30 8716 C 820.124 5.3406 -3.2639 0
M  V30 8717 H 820.357 2.04864 -2.15449 0
M  V30 8718 H 817.89 0.974716 -1.19744 0
M  V30 8719 H 819.848 4.05087 -0.664444 0
M  V30 8720 H 818.509 3.14028 0.0672835 0
M  V30 8721 H 817.702 4.74883 -1.68827 0
M  V30 8722 H 817.304 3.0728 -2.13202 0
M  V30 8723 H 819.596 6.17626 -2.78469 0
M  V30 8724 H 820.539 5.68143 -4.22634 0
M  V30 8725 H 820.947 4.99773 -2.62464 0
M  V30 8726 N 820.346 1.18468 1.03938 0
M  V30 8727 C 821.278 0.870615 2.12021 0
M  V30 8728 C 822.291 -0.132318 1.62261 0
M  V30 8729 O 823.48 0.0956901 1.78243 0
M  V30 8730 C 820.58 0.279727 3.37744 0
M  V30 8731 C 819.753 1.32863 4.16733 0
M  V30 8732 C 818.812 0.753204 5.20781 0
M  V30 8733 O 817.838 1.42825 5.5099 0
M  V30 8734 N 819.04 -0.448664 5.78764 0
M  V30 8735 H 821.805 1.80091 2.39556 0
M  V30 8736 H 819.366 1.08524 1.20142 0
M  V30 8737 H 821.358 -0.118829 4.04526 0
M  V30 8738 H 819.928 -0.554621 3.07641 0
M  V30 8739 H 819.148 1.90245 3.45254 0
M  V30 8740 H 820.436 2.03574 4.66299 0
M  V30 8741 H 819.834 -1.01481 5.56523 0
M  V30 8742 H 818.391 -0.789125 6.47005 0
M  V30 8743 N 821.824 -1.22873 0.986916 0
M  V30 8744 C 823.235 -1.73264 0.695438 0
M  V30 8745 C 823.586 -1.79679 -0.788023 0
M  V30 8746 O 822.711 -1.43905 -1.61618 0
M  V30 8747 C 823.306 -3.14671 1.2557 0
M  V30 8748 C 821.865 -3.62492 1.01373 0
M  V30 8749 C 821.012 -2.40551 1.37951 0
M  V30 8750 H 823.963 -1.08304 1.15999 0
M  V30 8751 H 823.984 -3.75226 0.631322 0
M  V30 8752 H 823.496 -3.0997 2.33539 0
M  V30 8753 H 821.597 -3.72567 -0.0495917 0
M  V30 8754 H 821.71 -4.48944 1.67289 0
M  V30 8755 H 820.074 -2.41875 0.798033 0
M  V30 8756 H 820.857 -2.38516 2.46911 0
M  V30 8757 N 823.302 -0.75937 -1.38099 0
M  V30 8758 C 824.549 -0.318113 -1.99986 0
M  V30 8759 C 824.877 1.10184 -1.6028 0
M  V30 8760 O 824.132 1.77015 -0.834524 0
M  V30 8761 C 824.431 -0.394999 -3.55211 0
M  V30 8762 C 824.097 -1.77143 -4.14646 0
M  V30 8763 C 822.759 -2.14811 -4.30592 0
M  V30 8764 C 825.111 -2.67407 -4.47373 0
M  V30 8765 C 822.439 -3.42203 -4.76565 0
M  V30 8766 C 824.791 -3.94196 -4.94765 0
M  V30 8767 C 823.455 -4.31925 -5.08918 0
M  V30 8768 H 822.725 -0.116406 -0.7318 0
M  V30 8769 H 825.372 -0.97098 -1.65058 0
M  V30 8770 H 823.677 0.341426 -3.9031 0
M  V30 8771 H 825.374 -0.0350722 -4.00985 0
M  V30 8772 H 821.964 -1.46864 -4.02652 0
M  V30 8773 H 826.148 -2.39569 -4.3465 0
M  V30 8774 H 821.404 -3.71346 -4.85708 0
M  V30 8775 H 825.578 -4.64276 -5.19057 0
M  V30 8776 H 823.205 -5.30699 -5.443 0
M  V30 8777 N 824.78 1.49157 -0.508906 0
M  V30 8778 C 825.712 2.272 0.302115 0
M  V30 8779 C 826.725 1.3407 0.923529 0
M  V30 8780 O 827.914 1.5929 0.805532 0
M  V30 8781 C 825.014 3.06736 1.44105 0
M  V30 8782 C 824.187 4.27497 0.925477 0
M  V30 8783 C 823.246 4.89014 1.94297 0
M  V30 8784 O 822.272 5.48851 1.50834 0
M  V30 8785 N 823.474 4.7937 3.2739 0
M  V30 8786 H 826.239 2.97443 -0.367115 0
M  V30 8787 H 823.8 1.58248 -0.341933 0
M  V30 8788 H 825.792 3.44763 2.11944 0
M  V30 8789 H 824.362 2.3905 2.0143 0
M  V30 8790 H 823.582 3.94135 0.0717301 0
M  V30 8791 H 824.87 5.05714 0.55955 0
M  V30 8792 H 824.268 4.31869 3.65384 0
M  V30 8793 H 822.825 5.21559 3.90922 0
M  V30 8794 N 826.258 0.243083 1.55714 0
M  V30 8795 C 827.483 -0.389944 2.03701 0
M  V30 8796 C 827.908 -1.51025 1.12129 0
M  V30 8797 O 827.266 -1.80944 0.11352 0
M  V30 8798 C 827.314 -0.878649 3.49731 0
M  V30 8799 O 826.418 -1.98851 3.61292 0
M  V30 8800 H 825.759 -0.0855115 0.658471 0
M  V30 8801 H 828.289 0.368023 2.01263 0
M  V30 8802 H 828.299 -1.18287 3.90477 0
M  V30 8803 H 826.974 -0.0588107 4.15858 0
M  V30 8804 H 825.551 -1.68928 3.32442 0
M  V30 8805 N 827.736 -1.57571 -0.0300757 0
M  V30 8806 C 828.964 -1.93485 -0.732891 0
M  V30 8807 C 829.379 -0.842758 -1.68947 0
M  V30 8808 O 828.736 0.180904 -1.81601 0
M  V30 8809 C 828.787 -3.29328 -1.49082 0
M  V30 8810 O 828.508 -4.34341 -0.572639 0
M  V30 8811 C 830.009 -3.79517 -2.29088 0
M  V30 8812 H 827.229 -0.638588 -0.206026 0
M  V30 8813 H 829.773 -2.04496 0.0120966 0
M  V30 8814 H 827.928 -3.19716 -2.1877 0
M  V30 8815 H 828.342 -5.12748 -1.10406 0
M  V30 8816 H 829.816 -4.77081 -2.77665 0
M  V30 8817 H 830.293 -3.10659 -3.10464 0
M  V30 8818 H 830.899 -3.92208 -1.64477 0
M  V30 8819 N 829.214 0.302327 -1.54673 0
M  V30 8820 C 830.144 1.37759 -1.88533 0
M  V30 8821 C 831.125 1.52961 -0.744113 0
M  V30 8822 O 832.31 1.6649 -0.999731 0
M  V30 8823 C 829.44 2.74201 -2.13146 0
M  V30 8824 C 828.394 2.73765 -3.28993 0
M  V30 8825 C 827.72 4.13483 -3.39022 0
M  V30 8826 C 829.02 2.35624 -4.66132 0
M  V30 8827 H 830.714 1.0967 -2.78591 0
M  V30 8828 H 828.26 0.52613 -1.34044 0
M  V30 8829 H 830.213 3.49508 -2.35419 0
M  V30 8830 H 828.937 3.03812 -1.19858 0
M  V30 8831 H 827.596 2.00914 -3.06642 0
M  V30 8832 H 827.244 4.40269 -2.43253 0
M  V30 8833 H 826.944 4.14093 -4.16894 0
M  V30 8834 H 828.468 4.90572 -3.63553 0
M  V30 8835 H 829.882 3.00647 -4.88143 0
M  V30 8836 H 828.279 2.47449 -5.46707 0
M  V30 8837 H 829.349 1.30753 -4.66939 0
M  V30 8838 N 830.692 1.47107 0.565454 0
M  V30 8839 C 831.938 1.54519 1.3227 0
M  V30 8840 C 832.293 0.201313 1.91344 0
M  V30 8841 O 831.586 -0.792058 1.74462 0
M  V30 8842 C 831.78 2.59309 2.45954 0
M  V30 8843 C 831.609 4.03756 1.98019 0
M  V30 8844 C 830.379 4.71293 1.8224 0
M  V30 8845 C 832.577 4.91029 1.52955 0
M  V30 8846 N 830.559 6.00288 1.28557 0
M  V30 8847 C 831.93 6.09986 1.10981 0
M  V30 8848 C 833.985 4.77539 1.4093 0
M  V30 8849 C 832.688 7.16943 0.581796 0
M  V30 8850 C 834.714 5.84584 0.895307 0
M  V30 8851 C 834.076 7.02725 0.485454 0
M  V30 8852 H 830.175 0.620177 0.476345 0
M  V30 8853 H 832.759 1.83814 0.641901 0
M  V30 8854 H 830.93 2.31896 3.11575 0
M  V30 8855 H 832.662 2.56614 3.1294 0
M  V30 8856 H 829.417 4.27074 2.04707 0
M  V30 8857 H 829.841 6.68991 1.03828 0
M  V30 8858 H 834.483 3.86574 1.71231 0
M  V30 8859 H 832.201 8.07661 0.266399 0
M  V30 8860 H 835.787 5.76191 0.805939 0
M  V30 8861 H 834.667 7.84144 0.0938828 0
M  V30 8862 N 832.17 -0.811516 1.35101 0
M  V30 8863 C 833.1 -1.9378 1.30275 0
M  V30 8864 C 834.081 -1.69165 0.178075 0
M  V30 8865 O 835.266 -1.90599 0.372256 0
M  V30 8866 C 832.396 -3.30439 1.06899 0
M  V30 8867 C 831.35 -3.69523 2.15955 0
M  V30 8868 C 830.676 -5.0429 1.77751 0
M  V30 8869 C 831.976 -3.80419 3.57881 0
M  V30 8870 H 833.67 -1.98075 2.24514 0
M  V30 8871 H 831.216 -0.951586 1.08078 0
M  V30 8872 H 833.169 -4.08828 1.02164 0
M  V30 8873 H 831.893 -3.26473 0.0910462 0
M  V30 8874 H 830.552 -2.93416 2.19778 0
M  V30 8875 H 830.2 -4.96823 0.785876 0
M  V30 8876 H 829.9 -5.31411 2.5075 0
M  V30 8877 H 831.424 -5.85125 1.74533 0
M  V30 8878 H 832.838 -4.49051 3.56407 0
M  V30 8879 H 831.235 -4.19005 4.29598 0
M  V30 8880 H 832.305 -2.82105 3.94391 0
M  V30 8881 N 833.648 -1.19017 -1.03309 0
M  V30 8882 C 834.578 -0.94772 -2.13402 0
M  V30 8883 C 835.559 0.117383 -1.69694 0
M  V30 8884 O 836.744 -0.0367733 -1.94165 0
M  V30 8885 C 833.874 -0.480977 -3.43953 0
M  V30 8886 C 832.828 -1.48743 -4.01322 0
M  V30 8887 C 832.154 -0.877924 -5.27443 0
M  V30 8888 C 833.454 -2.86642 -4.36616 0
M  V30 8889 H 835.148 -1.86846 -2.33942 0
M  V30 8890 H 832.694 -0.899781 -1.12427 0
M  V30 8891 H 834.647 -0.298677 -4.2034 0
M  V30 8892 H 833.371 0.475348 -3.23122 0
M  V30 8893 H 832.03 -1.65681 -3.27025 0
M  V30 8894 H 831.678 0.0858232 -5.02927 0
M  V30 8895 H 831.378 -1.54996 -5.66789 0
M  V30 8896 H 832.902 -0.706326 -6.06501 0
M  V30 8897 H 834.316 -2.73312 -5.03958 0
M  V30 8898 H 832.713 -3.50599 -4.87032 0
M  V30 8899 H 833.783 -3.39617 -3.46105 0
M  V30 8900 N 835.127 1.22348 -0.993418 0
M  V30 8901 C 836.373 1.91393 -0.67056 0
M  V30 8902 C 836.706 1.77163 0.795428 0
M  V30 8903 O 835.981 1.14084 1.57528 0
M  V30 8904 C 836.264 3.43589 -1.0779 0
M  V30 8905 C 836.117 3.66867 -2.60248 0
M  V30 8906 C 837.436 4.35545 -0.631527 0
M  V30 8907 H 834.555 0.695057 -0.24508 0
M  V30 8908 H 837.197 1.44213 -1.23703 0
M  V30 8909 H 835.347 3.83903 -0.595902 0
M  V30 8910 H 837.019 3.35954 -3.16121 0
M  V30 8911 H 835.262 3.1113 -3.02293 0
M  V30 8912 H 835.933 4.73457 -2.838 0
M  V30 8913 H 838.409 4.0275 -1.04554 0
M  V30 8914 H 837.285 5.40707 -0.944831 0
M  V30 8915 H 837.546 4.39618 0.467779 0
M  V30 8916 N 836.605 0.766683 1.37694 0
M  V30 8917 C 837.853 0.328065 1.9942 0
M  V30 8918 C 838.174 -1.09775 1.61166 0
M  V30 8919 O 837.444 -1.75288 0.874686 0
M  V30 8920 H 836.024 0.11831 0.737572 0
M  V30 8921 H 838.686 0.983686 1.68255 0
M  V30 8922 H 837.782 0.401647 3.09505 0
M  V30 8923 N 838.083 -1.48885 0.516809 0
M  V30 8924 C 839.013 -2.32241 -0.242157 0
M  V30 8925 C 839.994 -1.41258 -0.947633 0
M  V30 8926 O 841.179 -1.70156 -0.935973 0
M  V30 8927 C 838.309 -3.22151 -1.29754 0
M  V30 8928 C 837.263 -4.22053 -0.710995 0
M  V30 8929 C 836.589 -5.01007 -1.86806 0
M  V30 8930 C 837.889 -5.21388 0.30853 0
M  V30 8931 H 839.583 -2.95943 0.453651 0
M  V30 8932 H 837.129 -1.42316 0.219612 0
M  V30 8933 H 839.082 -3.79284 -1.83634 0
M  V30 8934 H 837.806 -2.56423 -2.02274 0
M  V30 8935 H 836.465 -3.66087 -0.193819 0
M  V30 8936 H 836.113 -4.31713 -2.58133 0
M  V30 8937 H 835.813 -5.68615 -1.48159 0
M  V30 8938 H 837.337 -5.60989 -2.4109 0
M  V30 8939 H 838.751 -5.73122 -0.142703 0
M  V30 8940 H 837.148 -5.96975 0.611673 0
M  V30 8941 H 838.218 -4.69329 1.21894 0
M  V30 8942 N 839.561 -0.251338 -1.55583 0
M  V30 8943 C 840.786 0.379136 -2.03905 0
M  V30 8944 C 841.211 1.50428 -1.12929 0
M  V30 8945 O 840.569 1.80882 -0.123114 0
M  V30 8946 C 840.617 0.86009 -3.50193 0
M  V30 8947 O 839.721 1.96932 -3.62342 0
M  V30 8948 H 839.062 0.0820183 -0.658915 0
M  V30 8949 H 841.592 -0.378692 -2.01065 0
M  V30 8950 H 841.602 1.16214 -3.91099 0
M  V30 8951 H 840.277 0.0367559 -4.15884 0
M  V30 8952 H 838.854 1.67163 -3.33333 0
M  V30 8953 N 841.039 1.57585 0.0217189 0
M  V30 8954 C 842.285 1.89887 0.712099 0
M  V30 8955 C 842.618 0.849971 1.74611 0
M  V30 8956 O 841.893 -0.13407 1.94037 0
M  V30 8957 C 842.176 3.32815 1.37499 0
M  V30 8958 C 842.029 4.48405 0.353993 0
M  V30 8959 C 843.348 3.74786 2.30703 0
M  V30 8960 H 840.467 0.690588 0.257405 0
M  V30 8961 H 843.109 1.89983 -0.0251145 0
M  V30 8962 H 841.259 3.32863 2.00335 0
M  V30 8963 H 842.931 4.60491 -0.273015 0
M  V30 8964 H 841.174 4.32573 -0.32599 0
M  V30 8965 H 841.845 5.45316 0.85644 0
M  V30 8966 H 844.321 3.76151 1.77904 0
M  V30 8967 H 843.197 4.75585 2.74061 0
M  V30 8968 H 843.458 3.07449 3.17691 0
M  V30 8969 N 842.517 -0.29412 1.54831 0
M  V30 8970 C 843.467 -1.36476 1.82643 0
M  V30 8971 C 844.451 -1.45638 0.683984 0
M  V30 8972 O 845.643 -1.49675 0.944801 0
M  V30 8973 C 842.772 -2.72865 2.08326 0
M  V30 8974 C 841.858 -2.67898 3.28773 0
M  V30 8975 N 842.249 -2.32547 4.49172 0
M  V30 8976 C 840.547 -2.98991 3.30939 0
M  V30 8977 C 841.248 -2.37048 5.31209 0
M  V30 8978 N 840.224 -2.74679 4.69097 0
M  V30 8979 H 844.026 -1.08119 2.7329 0
M  V30 8980 H 841.54 -0.502718 1.54423 0
M  V30 8981 H 843.537 -3.5007 2.264 0
M  V30 8982 H 842.197 -3.02127 1.1895 0
M  V30 8983 H 843.208 -2.04883 4.7565 0
M  V30 8984 H 839.885 -3.33104 2.51691 0
M  V30 8985 H 841.275 -2.12457 6.37426 0
M  V30 8986 N 843.995 -1.47404 -0.557645 0
M  V30 8987 C 845.241 -1.54235 -1.31679 0
M  V30 8988 C 845.574 -0.203782 -1.93128 0
M  V30 8989 O 844.849 0.787536 -1.77843 0
M  V30 8990 C 845.132 -2.66003 -2.42723 0
M  V30 8991 C 844.985 -4.09475 -1.86145 0
M  V30 8992 C 846.304 -2.73685 -3.44652 0
M  V30 8993 H 843.423 -0.561466 -0.477415 0
M  V30 8994 H 846.065 -1.79459 -0.624067 0
M  V30 8995 H 844.215 -2.44627 -3.01811 0
M  V30 8996 H 845.887 -4.42213 -1.31321 0
M  V30 8997 H 844.13 -4.17774 -1.16823 0
M  V30 8998 H 844.801 -4.83451 -2.66418 0
M  V30 8999 H 847.277 -2.92968 -2.95481 0
M  V30 9000 H 846.153 -3.53665 -4.19777 0
M  V30 9001 H 846.414 -1.80726 -4.03473 0
M  V30 9002 N 845.473 0.80434 -1.35529 0
M  V30 9003 C 846.719 1.56385 -1.29118 0
M  V30 9004 C 847.052 1.9374 0.133536 0
M  V30 9005 O 846.327 1.6153 1.08344 0
M  V30 9006 C 846.61 2.85097 -2.19981 0
M  V30 9007 C 846.463 2.54204 -3.7108 0
M  V30 9008 C 847.782 3.86817 -2.09907 0
M  V30 9009 H 844.901 0.567382 -0.470368 0
M  V30 9010 H 847.543 0.925235 -1.6595 0
M  V30 9011 H 845.693 3.39594 -1.88701 0
M  V30 9012 H 847.365 2.05872 -4.12813 0
M  V30 9013 H 845.608 1.87364 -3.91251 0
M  V30 9014 H 846.279 3.46068 -4.30048 0
M  V30 9015 H 848.755 3.41725 -2.37409 0
M  V30 9016 H 847.631 4.7465 -2.75678 0
M  V30 9017 H 847.892 4.28663 -1.08171 0
M  V30 9018 N 846.951 1.19563 1.02676 0
M  V30 9019 C 847.914 0.937182 2.09164 0
M  V30 9020 C 848.914 -0.0831927 1.60585 0
M  V30 9021 O 850.104 0.15178 1.73538 0
M  V30 9022 C 847.236 0.408912 3.38439 0
M  V30 9023 H 848.429 1.88164 2.33526 0
M  V30 9024 H 845.982 1.00959 1.19319 0
M  V30 9025 H 846.717 -0.541497 3.19747 0
M  V30 9026 H 846.502 1.14464 3.7502 0
M  V30 9027 H 847.992 0.247242 4.16867 0
M  V30 9028 N 848.429 -1.21819 0.999893 0
M  V30 9029 C 849.675 -1.91035 0.680701 0
M  V30 9030 C 850.008 -1.77582 -0.786021 0
M  V30 9031 O 849.283 -1.14917 -1.56921 0
M  V30 9032 C 849.566 -3.43013 1.0961 0
M  V30 9033 C 849.419 -3.65481 2.6219 0
M  V30 9034 C 850.738 -4.35204 0.654616 0
M  V30 9035 H 847.857 -0.693748 0.248763 0
M  V30 9036 H 850.499 -1.43555 1.24466 0
M  V30 9037 H 848.649 -3.83581 0.616253 0
M  V30 9038 H 850.321 -3.34273 3.17899 0
M  V30 9039 H 848.564 -3.09522 3.03938 0
M  V30 9040 H 849.235 -4.71945 2.86307 0
M  V30 9041 H 851.711 -4.0219 1.06688 0
M  V30 9042 H 850.587 -5.40198 0.973492 0
M  V30 9043 H 850.848 -4.3986 -0.444458 0
M  V30 9044 N 849.908 -0.773975 -1.37286 0
M  V30 9045 C 850.841 -0.108019 -2.27944 0
M  V30 9046 C 851.819 0.706737 -1.46438 0
M  V30 9047 O 853.003 0.681025 -1.75768 0
M  V30 9048 C 850.13 0.853199 -3.27778 0
M  V30 9049 C 849.176 0.122164 -4.26325 0
M  V30 9050 S 850.009 -1.19136 -5.22079 0
M  V30 9051 C 851.165 -0.233737 -6.25463 0
M  V30 9052 H 851.398 -0.876743 -2.84078 0
M  V30 9053 H 848.931 -0.567468 -1.43594 0
M  V30 9054 H 850.889 1.40238 -3.85803 0
M  V30 9055 H 849.55 1.59505 -2.70586 0
M  V30 9056 H 848.743 0.850926 -4.96765 0
M  V30 9057 H 848.345 -0.356079 -3.72301 0
M  V30 9058 H 850.637 0.59305 -6.74899 0
M  V30 9059 H 851.58 -0.906373 -7.02275 0
M  V30 9060 H 851.988 0.156048 -5.64284 0
M  V30 9061 N 851.386 1.48609 -0.524698 0
M  V30 9062 C 852.316 2.32366 0.229837 0
M  V30 9063 C 853.297 1.41759 0.940129 0
M  V30 9064 O 854.482 1.7065 0.926936 0
M  V30 9065 C 851.612 3.22835 1.28043 0
M  V30 9066 C 850.566 4.22424 0.688603 0
M  V30 9067 C 849.892 5.0199 1.84146 0
M  V30 9068 C 851.192 5.21217 -0.336176 0
M  V30 9069 H 852.886 2.95698 -0.469339 0
M  V30 9070 H 850.432 1.42197 -0.227156 0
M  V30 9071 H 852.385 3.80253 1.8162 0
M  V30 9072 H 851.109 2.57492 2.00912 0
M  V30 9073 H 849.768 3.66185 0.174402 0
M  V30 9074 H 849.416 4.33076 2.5584 0
M  V30 9075 H 849.116 5.69392 1.45142 0
M  V30 9076 H 850.64 5.62259 2.38111 0
M  V30 9077 H 852.054 5.7319 0.112307 0
M  V30 9078 H 850.451 5.96642 -0.643324 0
M  V30 9079 H 851.521 4.68676 -1.24381 0
M  V30 9080 N 852.864 0.259585 1.55447 0
M  V30 9081 C 854.094 -0.364863 2.03353 0
M  V30 9082 C 854.502 -1.5116 1.13786 0
M  V30 9083 O 853.845 -1.83109 0.147283 0
M  V30 9084 C 853.907 -0.922587 3.4746 0
M  V30 9085 C 853.571 0.0935207 4.56904 0
M  V30 9086 C 854.568 0.907571 5.11917 0
M  V30 9087 C 852.253 0.223276 5.01804 0
M  V30 9088 C 854.247 1.83771 6.10333 0
M  V30 9089 C 851.934 1.15691 6.00049 0
M  V30 9090 C 852.932 1.96264 6.54194 0
M  V30 9091 O 852.62 2.88052 7.50521 0
M  V30 9092 H 852.352 -0.0893313 0.670072 0
M  V30 9093 H 854.906 0.384821 2.01763 0
M  V30 9094 H 853.136 -1.72206 3.4624 0
M  V30 9095 H 854.825 -1.45846 3.78792 0
M  V30 9096 H 855.591 0.817979 4.78052 0
M  V30 9097 H 851.47 -0.393834 4.59315 0
M  V30 9098 H 855.014 2.46703 6.52521 0
M  V30 9099 H 850.911 1.24738 6.33333 0
M  V30 9100 H 851.679 2.82557 7.68182 0
M  V30 9101 N 854.342 -1.57594 -0.0133615 0
M  V30 9102 C 855.272 -2.10611 -1.00823 0
M  V30 9103 C 856.253 -1.01217 -1.36708 0
M  V30 9104 O 857.438 -1.28827 -1.45318 0
M  V30 9105 C 854.568 -2.59844 -2.30431 0
M  V30 9106 C 853.522 -3.73644 -2.08745 0
M  V30 9107 C 852.848 -4.09141 -3.4425 0
M  V30 9108 C 854.148 -5.01454 -1.46086 0
M  V30 9109 H 855.842 -2.93985 -0.566849 0
M  V30 9110 H 853.388 -1.41423 -0.271219 0
M  V30 9111 H 855.341 -2.95557 -3.00373 0
M  V30 9112 H 854.065 -1.73573 -2.76658 0
M  V30 9113 H 852.724 -3.38303 -1.41232 0
M  V30 9114 H 852.372 -3.19914 -3.88155 0
M  V30 9115 H 852.072 -4.85802 -3.3056 0
M  V30 9116 H 853.596 -4.47402 -4.15528 0
M  V30 9117 H 855.01 -5.35024 -2.05966 0
M  V30 9118 H 853.407 -5.82832 -1.42924 0
M  V30 9119 H 854.477 -4.83003 -0.428471 0
M  V30 9120 N 855.82 0.285905 -1.54985 0
M  V30 9121 C 856.75 1.35752 -1.89983 0
M  V30 9122 C 857.731 1.52163 -0.760295 0
M  V30 9123 O 858.916 1.65421 -1.01733 0
M  V30 9124 C 856.046 2.71925 -2.16042 0
M  V30 9125 C 855 2.70261 -3.31878 0
M  V30 9126 C 854.326 4.09864 -3.43388 0
M  V30 9127 C 855.626 2.30667 -4.68604 0
M  V30 9128 H 857.32 1.06709 -2.79738 0
M  V30 9129 H 854.866 0.511884 -1.34595 0
M  V30 9130 H 856.819 3.46992 -2.39113 0
M  V30 9131 H 855.543 3.02523 -1.23074 0
M  V30 9132 H 854.202 1.97651 -3.08755 0
M  V30 9133 H 853.85 4.37664 -2.47909 0
M  V30 9134 H 853.55 4.09648 -4.21262 0
M  V30 9135 H 855.074 4.86689 -3.68736 0
M  V30 9136 H 856.488 2.95453 -4.91305 0
M  V30 9137 H 854.885 2.41637 -5.49301 0
M  V30 9138 H 855.955 1.25793 -4.68299 0
M  V30 9139 N 857.298 1.47698 0.54982 0
M  V30 9140 C 858.575 1.45185 1.31075 0
M  V30 9141 C 858.955 0.152768 2.10547 0
M  V30 9142 O 858.303 -0.865706 2.11466 0
M  V30 9143 C 858.513 2.70192 2.20902 0
M  V30 9144 C 859.861 3.1771 2.81683 0
M  V30 9145 O 860.885 2.70971 2.312 0
M  V30 9146 O 859.744 3.98986 3.7346 0
M  V30 9147 H 856.838 0.57892 0.590577 0
M  V30 9148 H 859.384 1.59908 0.568112 0
M  V30 9149 H 858.156 3.56269 1.61828 0
M  V30 9150 H 857.779 2.58091 3.02448 0
M  V30 9151 N 858.776 -0.797141 1.35954 0
M  V30 9152 C 860.192 -1.09408 1.16198 0
M  V30 9153 C 860.392 -2.01491 -0.0191682 0
M  V30 9154 O 859.448 -2.42977 -0.686902 0
M  V30 9155 C 860.761 -1.71597 2.46931 0
M  V30 9156 C 862.309 -1.83974 2.53224 0
M  V30 9157 C 862.784 -2.49579 3.84024 0
M  V30 9158 N 864.275 -2.57055 3.85327 0
M  V30 9159 C 865.01 -3.08608 4.83268 0
M  V30 9160 N 864.506 -3.60527 5.91601 0
M  V30 9161 N 866.299 -3.07249 4.70696 0
M  V30 9162 H 858.45 -0.185209 2.11591 0
M  V30 9163 H 860.713 -0.144768 0.936881 0
M  V30 9164 H 860.419 -1.11404 3.3359 0
M  V30 9165 H 860.293 -2.71193 2.62172 0
M  V30 9166 H 862.68 -2.43308 1.66988 0
M  V30 9167 H 862.761 -0.83207 2.41889 0
M  V30 9168 H 862.405 -1.90892 4.70662 0
M  V30 9169 H 862.335 -3.50902 3.92651 0
M  V30 9170 H 864.826 -2.20283 3.07057 0
M  V30 9171 H 865.139 -3.98192 6.62317 0
M  V30 9172 H 863.484 -3.587 5.95281 0
M  V30 9173 H 866.675 -2.65972 3.85197 0
M  V30 9174 H 866.848 -3.47119 5.47186 0
M  V30 9175 N 860.254 -1.20106 -1.0204 0
M  V30 9176 C 861.501 -1.00889 -1.75578 0
M  V30 9177 C 861.829 0.459415 -1.88996 0
M  V30 9178 O 861.084 1.35735 -1.40977 0
M  V30 9179 C 861.383 -1.63308 -3.17908 0
M  V30 9180 C 861.049 -3.13091 -3.24476 0
M  V30 9181 C 859.711 -3.53968 -3.25976 0
M  V30 9182 C 862.063 -4.09093 -3.22944 0
M  V30 9183 C 859.391 -4.89381 -3.2361 0
M  V30 9184 C 861.743 -5.44447 -3.22119 0
M  V30 9185 C 860.407 -5.84742 -3.2192 0
M  V30 9186 H 859.677 -0.36918 -0.642485 0
M  V30 9187 H 862.324 -1.49475 -1.19706 0
M  V30 9188 H 860.629 -1.06974 -3.76914 0
M  V30 9189 H 862.326 -1.45958 -3.73493 0
M  V30 9190 H 858.916 -2.80526 -3.24042 0
M  V30 9191 H 863.1 -3.78549 -3.20958 0
M  V30 9192 H 858.356 -5.1987 -3.21785 0
M  V30 9193 H 862.53 -6.18584 -3.19885 0
M  V30 9194 H 860.157 -6.89642 -3.19841 0
M  V30 9195 N 861.732 1.21287 -1.00634 0
M  V30 9196 C 862.957 1.94925 -0.708441 0
M  V30 9197 C 863.382 1.73659 0.722783 0
M  V30 9198 O 862.74 1.02429 1.49593 0
M  V30 9199 C 862.788 3.45377 -1.03667 0
M  V30 9200 O 861.892 4.12153 -0.142661 0
M  V30 9201 H 861.233 0.609338 -0.263824 0
M  V30 9202 H 863.763 1.54008 -1.34695 0
M  V30 9203 H 863.773 3.95954 -0.984086 0
M  V30 9204 H 862.448 3.6018 -2.0795 0
M  V30 9205 H 861.025 3.72048 -0.251888 0
M  V30 9206 N 863.21 0.781244 1.36873 0
M  V30 9207 C 864.621 0.414093 1.8205 0
M  V30 9208 C 864.972 -1.06098 1.65039 0
M  V30 9209 O 864.097 -1.82251 1.16677 0
M  V30 9210 C 864.692 0.744837 3.30511 0
M  V30 9211 C 863.251 0.430621 3.73929 0
M  V30 9212 C 862.398 0.983746 2.59264 0
M  V30 9213 H 865.349 0.975091 1.2521 0
M  V30 9214 H 865.37 0.032936 3.80486 0
M  V30 9215 H 864.882 1.81847 3.42861 0
M  V30 9216 H 862.983 -0.635308 3.67144 0
M  V30 9217 H 863.096 0.945514 4.69677 0
M  V30 9218 H 861.46 0.407433 2.5142 0
M  V30 9219 H 862.243 2.06297 2.74402 0
M  V30 9220 N 864.689 -1.48329 0.532571 0
M  V30 9221 C 865.936 -2.025 -0.000582356 0
M  V30 9222 C 866.264 -1.40942 -1.34036 0
M  V30 9223 O 865.519 -0.545545 -1.87942 0
M  V30 9224 C 865.818 -3.57 -0.168943 0
M  V30 9225 C 865.484 -4.37357 1.0968 0
M  V30 9226 C 864.146 -4.59033 1.44369 0
M  V30 9227 C 866.498 -4.83882 1.93669 0
M  V30 9228 C 863.826 -5.24481 2.62939 0
M  V30 9229 C 866.178 -5.50637 3.11419 0
M  V30 9230 C 864.842 -5.70551 3.46451 0
M  V30 9231 H 864.112 -0.741 -0.000213099 0
M  V30 9232 H 866.759 -1.78282 0.699117 0
M  V30 9233 H 865.064 -3.80072 -0.951429 0
M  V30 9234 H 866.761 -3.9654 -0.596422 0
M  V30 9235 H 863.351 -4.20748 0.816655 0
M  V30 9236 H 867.535 -4.66936 1.6818 0
M  V30 9237 H 862.791 -5.38096 2.9028 0
M  V30 9238 H 866.965 -5.85655 3.76803 0
M  V30 9239 H 864.592 -6.21037 4.38425 0
M  V30 9240 N 866.167 -0.267825 -1.55308 0
M  V30 9241 C 867.415 0.350343 -1.9904 0
M  V30 9242 C 867.736 1.56924 -1.15758 0
M  V30 9243 O 867.006 1.94358 -0.245336 0
M  V30 9244 H 865.586 0.132435 -0.735167 0
M  V30 9245 H 868.248 -0.371471 -1.91327 0
M  V30 9246 H 867.344 0.645203 -3.05358 0
M  V30 9247 N 867.645 1.57599 0.00500368 0
M  V30 9248 C 869.061 1.55463 0.361015 0
M  V30 9249 C 869.261 0.997051 1.75103 0
M  V30 9250 O 868.317 0.628661 2.44549 0
M  V30 9251 C 869.63 2.99734 0.240828 0
M  V30 9252 C 871.178 3.11399 0.316138 0
M  V30 9253 C 871.653 4.57446 0.22513 0
M  V30 9254 N 873.144 4.62334 0.283186 0
M  V30 9255 C 873.879 5.72914 0.23603 0
M  V30 9256 N 873.375 6.92659 0.139762 0
M  V30 9257 N 875.168 5.61364 0.287529 0
M  V30 9258 H 867.319 1.92185 -0.904359 0
M  V30 9259 H 869.582 0.882529 -0.34619 0
M  V30 9260 H 869.288 3.44348 -0.715343 0
M  V30 9261 H 869.162 3.63009 1.02491 0
M  V30 9262 H 871.549 2.66718 1.26275 0
M  V30 9263 H 871.63 2.50911 -0.497725 0
M  V30 9264 H 871.274 5.02801 -0.717917 0
M  V30 9265 H 871.204 5.15874 1.05742 0
M  V30 9266 H 873.695 3.7619 0.359123 0
M  V30 9267 H 874.008 7.72722 0.10954 0
M  V30 9268 H 872.353 6.9492 0.105462 0
M  V30 9269 H 875.544 4.66707 0.360897 0
M  V30 9270 H 875.717 6.47528 0.247313 0
M  V30 9271 N 869.123 -0.277682 1.55134 0
M  V30 9272 C 870.37 -1.0099 1.7552 0
M  V30 9273 C 870.698 -1.86452 0.553712 0
M  V30 9274 O 869.953 -1.90122 -0.463896 0
M  V30 9275 C 870.252 -1.92599 3.01065 0
M  V30 9276 C 869.918 -1.22926 4.3382 0
M  V30 9277 C 868.58 -1.03659 4.69902 0
M  V30 9278 C 870.932 -0.733071 5.16019 0
M  V30 9279 C 868.26 -0.334933 5.85743 0
M  V30 9280 C 870.612 -0.0450319 6.32584 0
M  V30 9281 C 869.276 0.159393 6.6731 0
M  V30 9282 H 868.546 -0.36955 0.642273 0
M  V30 9283 H 871.193 -0.282611 1.89403 0
M  V30 9284 H 869.498 -2.71934 2.82062 0
M  V30 9285 H 871.195 -2.49367 3.14034 0
M  V30 9286 H 867.785 -1.38933 4.05457 0
M  V30 9287 H 871.969 -0.869565 4.88623 0
M  V30 9288 H 867.225 -0.165783 6.11175 0
M  V30 9289 H 871.399 0.34723 6.95534 0
M  V30 9290 H 869.026 0.70507 7.56923 0
M  V30 9291 N 870.601 -1.47988 -0.541979 0
M  V30 9292 C 871.548 -1.61615 -1.6477 0
M  V30 9293 C 872.518 -0.458602 -1.59644 0
M  V30 9294 O 873.703 -0.680585 -1.78249 0
M  V30 9295 C 870.843 -1.65066 -3.03063 0
M  V30 9296 C 869.956 -2.91845 -3.18513 0
M  V30 9297 C 869.091 -2.86534 -4.47294 0
M  V30 9298 C 868.13 -4.0807 -4.5623 0
M  V30 9299 N 867.267 -4.00905 -5.76385 0
M  V30 9300 H 872.107 -2.56046 -1.52461 0
M  V30 9301 H 869.644 -1.26989 -0.742449 0
M  V30 9302 H 871.602 -1.65049 -3.83164 0
M  V30 9303 H 870.232 -0.74136 -3.14171 0
M  V30 9304 H 869.284 -3.01661 -2.31743 0
M  V30 9305 H 870.596 -3.81804 -3.20978 0
M  V30 9306 H 869.75 -2.84851 -5.35672 0
M  V30 9307 H 868.489 -1.94283 -4.47332 0
M  V30 9308 H 867.494 -4.10041 -3.66261 0
M  V30 9309 H 868.719 -5.01465 -4.5794 0
M  V30 9310 H 866.665 -3.11467 -5.77342 0
M  V30 9311 H 866.582 -4.84557 -5.80293 0
M  V30 9312 H 867.85 -4.03263 -6.67083 0
M  V30 9313 N 872.079 0.78992 -1.36375 0
M  V30 9314 C 873.325 1.55007 -1.3077 0
M  V30 9315 C 873.658 1.93871 0.112979 0
M  V30 9316 O 872.933 1.6267 1.06625 0
M  V30 9317 C 873.216 2.82748 -2.22993 0
M  V30 9318 C 873.069 2.50253 -3.73756 0
M  V30 9319 C 874.388 3.84569 -2.13998 0
M  V30 9320 H 871.507 0.562362 -0.476359 0
M  V30 9321 H 874.149 0.907582 -1.66922 0
M  V30 9322 H 872.299 3.37573 -1.92292 0
M  V30 9323 H 873.971 2.01482 -4.14973 0
M  V30 9324 H 872.214 1.83203 -3.93216 0
M  V30 9325 H 872.885 3.41487 -4.33694 0
M  V30 9326 H 875.361 3.39188 -2.4102 0
M  V30 9327 H 874.237 4.717 -2.80697 0
M  V30 9328 H 874.498 4.27491 -1.12711 0
M  V30 9329 N 873.557 1.20646 1.01402 0
M  V30 9330 C 874.505 0.954493 2.12114 0
M  V30 9331 C 875.499 -0.0950737 1.69133 0
M  V30 9332 O 876.705 0.0555153 1.79914 0
M  V30 9333 H 873.08 0.29135 0.693267 0
M  V30 9334 H 875.051 1.89447 2.30548 0
M  V30 9335 C 873.8 0.525944 3.43699 0
M  V30 9336 H 873.123 1.32516 3.772 0
M  V30 9337 H 874.563 0.388883 4.22213 0
M  V30 9338 C 873.022 -0.761997 3.28169 0
M  V30 9339 O 873.552 -1.81979 3.58115 0
M  V30 9340 N 871.758 -0.725017 2.8141 0
M  V30 9341 H 871.305 0.13607 2.5724 0
M  V30 9342 H 871.263 -1.5871 2.71401 0
M  V30 9343 N 875.035 -1.20752 1.01276 0
M  V30 9344 C 876.26 -1.94547 0.718769 0
M  V30 9345 C 876.685 -1.7404 -0.713563 0
M  V30 9346 O 876.043 -1.03221 -1.49047 0
M  V30 9347 C 876.091 -3.44823 1.05497 0
M  V30 9348 O 875.195 -4.12072 0.164516 0
M  V30 9349 H 874.536 -0.607931 0.267051 0
M  V30 9350 H 877.066 -1.53292 1.35509 0
M  V30 9351 H 877.076 -3.95427 1.00507 0
M  V30 9352 H 875.751 -3.59072 2.09858 0
M  V30 9353 H 874.328 -3.71909 0.271615 0
M  V30 9354 N 876.513 -0.788492 -1.36457 0
M  V30 9355 C 877.423 -0.187385 -2.3385 0
M  V30 9356 C 878.439 0.659984 -1.60998 0
M  V30 9357 O 879.615 0.575986 -1.92988 0
M  V30 9358 C 876.68 0.668525 -3.40194 0
M  V30 9359 C 875.741 -0.197234 -4.28847 0
M  V30 9360 C 874.974 0.61792 -5.30111 0
M  V30 9361 O 875.197 1.85396 -5.3943 0
M  V30 9362 O 874.131 0.0183016 -6.01897 0
M  V30 9363 H 877.957 -0.992617 -2.87021 0
M  V30 9364 H 875.542 -0.549934 -1.3891 0
M  V30 9365 H 877.424 1.15663 -4.05216 0
M  V30 9366 H 876.099 1.45166 -2.89324 0
M  V30 9367 H 875.006 -0.73207 -3.66867 0
M  V30 9368 H 876.339 -0.943863 -4.83065 0
M  V30 9369 N 877.991 1.48044 -0.54043 0
M  V30 9370 C 878.901 2.33565 0.220163 0
M  V30 9371 C 879.917 1.47146 0.928659 0
M  V30 9372 O 881.093 1.80107 0.901295 0
M  V30 9373 C 878.158 3.2349 1.2472 0
M  V30 9374 C 877.219 4.25789 0.547938 0
M  V30 9375 C 876.452 5.11417 1.52605 0
M  V30 9376 O 876.675 4.99204 2.75956 0
M  V30 9377 O 875.609 5.92498 1.05972 0
M  V30 9378 H 879.435 2.99868 -0.480898 0
M  V30 9379 H 877.02 1.46332 -0.301226 0
M  V30 9380 H 878.902 3.79084 1.84047 0
M  V30 9381 H 877.577 2.59835 1.93048 0
M  V30 9382 H 876.484 3.74001 -0.0860941 0
M  V30 9383 H 877.817 4.92111 -0.0935896 0
M  V30 9384 N 879.47 0.276058 1.55163 0
M  V30 9385 C 880.38 -0.621066 2.2623 0
M  V30 9386 C 881.396 -1.16931 1.28853 0
M  V30 9387 O 882.572 -1.1994 1.61791 0
M  V30 9388 C 879.637 -1.78824 2.97023 0
M  V30 9389 C 878.698 -1.27657 4.09881 0
M  V30 9390 C 877.931 -2.38812 4.77289 0
M  V30 9391 O 878.154 -3.58188 4.43912 0
M  V30 9392 O 877.088 -2.06915 5.65217 0
M  V30 9393 H 880.914 -0.0453346 3.03666 0
M  V30 9394 H 878.499 0.0434275 1.49337 0
M  V30 9395 H 880.381 -2.46877 3.41511 0
M  V30 9396 H 879.056 -2.35104 2.22503 0
M  V30 9397 H 877.963 -0.56248 3.69847 0
M  V30 9398 H 879.296 -0.759509 4.86305 0
M  V30 9399 N 880.948 -1.576 0.00335426 0
M  V30 9400 C 881.858 -2.12067 -1.00322 0
M  V30 9401 C 882.874 -1.06672 -1.37467 0
M  V30 9402 O 884.05 -1.38592 -1.46131 0
M  V30 9403 C 881.115 -2.61593 -2.27531 0
M  V30 9404 C 880.176 -3.81602 -1.96668 0
M  V30 9405 C 879.409 -4.28756 -3.17811 0
M  V30 9406 O 879.632 -3.75222 -4.2961 0
M  V30 9407 O 878.566 -5.20877 -3.01613 0
M  V30 9408 H 882.392 -2.98299 -0.570199 0
M  V30 9409 H 879.977 -1.47835 -0.215682 0
M  V30 9410 H 881.859 -2.93631 -3.02256 0
M  V30 9411 H 880.534 -1.78457 -2.70065 0
M  V30 9412 H 879.441 -3.54531 -1.19408 0
M  V30 9413 H 880.774 -4.65822 -1.58968 0
M  V30 9414 N 882.426 0.269451 -1.5528 0
M  V30 9415 C 883.336 1.35511 -1.91505 0
M  V30 9416 C 884.352 1.53854 -0.812712 0
M  V30 9417 O 885.528 1.67912 -1.1121 0
M  V30 9418 C 882.593 2.6937 -2.18267 0
M  V30 9419 C 881.654 2.59743 -3.41807 0
M  V30 9420 C 880.887 3.87219 -3.67283 0
M  V30 9421 O 881.11 4.88066 -2.95208 0
M  V30 9422 O 880.044 3.87209 -4.60818 0
M  V30 9423 H 883.87 1.07785 -2.8393 0
M  V30 9424 H 881.455 0.468282 -1.41871 0
M  V30 9425 H 883.337 3.48513 -2.36889 0
M  V30 9426 H 882.012 2.96874 -1.29024 0
M  V30 9427 H 880.919 1.78964 -3.28516 0
M  V30 9428 H 882.252 2.37188 -4.3128 0
M  V30 9429 N 883.904 1.48273 0.534124 0
M  V30 9430 C 885.181 1.46567 1.29528 0
M  V30 9431 C 885.561 0.17509 2.10373 0
M  V30 9432 O 884.909 -0.843228 2.12372 0
M  V30 9433 C 885.119 2.72519 2.18023 0
M  V30 9434 C 886.467 3.2068 2.78298 0
M  V30 9435 O 887.491 2.73408 2.28313 0
M  V30 9436 O 886.35 4.02924 3.69208 0
M  V30 9437 H 883.444 0.585151 0.584403 0
M  V30 9438 H 885.99 1.60502 0.551119 0
M  V30 9439 H 884.762 3.57965 1.5804 0
M  V30 9440 H 884.385 2.61285 2.99693 0
M  V30 9441 N 885.382 -0.782676 1.36792 0
M  V30 9442 C 886.345 -1.8772 1.31507 0
M  V30 9443 C 887.345 -1.59269 0.221349 0
M  V30 9444 O 888.535 -1.67555 0.476544 0
M  V30 9445 C 885.667 -3.24641 1.04025 0
M  V30 9446 H 886.86 -1.9382 2.28853 0
M  V30 9447 H 884.413 -0.981226 1.21662 0
M  V30 9448 H 885.148 -3.24221 0.0716439 0
M  V30 9449 H 884.933 -3.46681 1.8318 0
M  V30 9450 H 886.423 -4.04711 1.02949 0
M  V30 9451 N 886.86 -1.21182 -1.00761 0
M  V30 9452 C 887.79 -0.992773 -2.11344 0
M  V30 9453 C 888.771 0.0813618 -1.69905 0
M  V30 9454 O 889.956 -0.0779503 -1.94043 0
M  V30 9455 C 887.086 -0.553826 -3.42856 0
M  V30 9456 C 886.04 -1.57223 -3.98077 0
M  V30 9457 C 885.366 -0.989605 -5.25463 0
M  V30 9458 C 886.666 -2.95839 -4.30438 0
M  V30 9459 H 888.36 -1.91766 -2.29927 0
M  V30 9460 H 885.906 -0.923426 -1.10494 0
M  V30 9461 H 887.859 -0.387771 -4.19612 0
M  V30 9462 H 886.583 0.406702 -3.24058 0
M  V30 9463 H 885.242 -1.7258 -3.23437 0
M  V30 9464 H 884.89 -0.0208743 -5.02996 0
M  V30 9465 H 884.59 -1.66984 -5.63374 0
M  V30 9466 H 886.114 -0.834815 -6.04866 0
M  V30 9467 H 887.528 -2.8394 -4.98047 0
M  V30 9468 H 885.925 -3.60851 -4.79486 0
M  V30 9469 H 886.995 -3.46882 -3.38823 0
M  V30 9470 N 888.338 1.20213 -1.01915 0
M  V30 9471 C 889.566 1.93622 -0.729255 0
M  V30 9472 C 889.981 1.74923 0.710444 0
M  V30 9473 O 889.338 1.06484 1.48214 0
M  V30 9474 C 889.389 3.45651 -1.05865 0
M  V30 9475 O 889.11 3.63741 -2.44181 0
M  V30 9476 C 890.611 4.36201 -0.790176 0
M  V30 9477 H 887.831 0.615333 -0.267594 0
M  V30 9478 H 890.375 1.52633 -1.36101 0
M  V30 9479 H 888.53 3.84511 -0.47225 0
M  V30 9480 H 888.944 4.57702 -2.56143 0
M  V30 9481 H 890.418 5.41516 -1.07071 0
M  V30 9482 H 890.895 4.38334 0.275609 0
M  V30 9483 H 891.501 4.03008 -1.35885 0
M  V30 9484 N 889.816 0.795718 1.36037 0
M  V30 9485 C 890.746 0.212803 2.32528 0
M  V30 9486 C 891.727 -0.655716 1.56953 0
M  V30 9487 O 892.912 -0.588238 1.85077 0
M  V30 9488 C 890.042 -0.648189 3.41198 0
M  V30 9489 C 888.996 0.120948 4.27829 0
M  V30 9490 C 888.322 -0.861044 5.27722 0
M  V30 9491 C 889.622 1.31375 5.05508 0
M  V30 9492 H 891.316 1.01893 2.81528 0
M  V30 9493 H 888.862 0.491422 1.35355 0
M  V30 9494 H 890.815 -1.06597 4.07695 0
M  V30 9495 H 889.539 -1.48709 2.9078 0
M  V30 9496 H 888.198 0.519777 3.62897 0
M  V30 9497 H 887.846 -1.69515 4.73575 0
M  V30 9498 H 887.546 -0.350808 5.86552 0
M  V30 9499 H 889.07 -1.27726 5.97092 0
M  V30 9500 H 890.484 0.971406 5.6501 0
M  V30 9501 H 888.881 1.75772 5.73781 0
M  V30 9502 H 889.951 2.10593 4.36782 0
M  V30 9503 N 891.294 -1.47756 0.548274 0
M  V30 9504 C 892.519 -2.07387 0.023475 0
M  V30 9505 C 892.944 -1.39956 -1.25674 0
M  V30 9506 O 892.302 -0.471543 -1.7506 0
M  V30 9507 C 892.35 -3.60224 -0.164669 0
M  V30 9508 O 891.454 -3.93653 -1.22928 0
M  V30 9509 H 890.795 -0.662312 0.0473156 0
M  V30 9510 H 893.325 -1.89905 0.761409 0
M  V30 9511 H 893.335 -4.06211 -0.38166 0
M  V30 9512 H 892.01 -4.08702 0.770425 0
M  V30 9513 H 890.587 -3.59422 -0.993495 0
M  V30 9514 N 892.772 -0.284283 -1.55015 0
M  V30 9515 C 893.997 0.335799 -2.04664 0
M  V30 9516 C 894.422 1.47999 -1.16094 0
M  V30 9517 O 893.78 1.8058 -0.161454 0
M  V30 9518 C 893.828 0.785615 -3.51938 0
M  V30 9519 O 892.932 1.89202 -3.66437 0
M  V30 9520 H 892.273 0.0680233 -0.660506 0
M  V30 9521 H 894.803 -0.421255 -2.00216 0
M  V30 9522 H 894.813 1.07892 -3.93476 0
M  V30 9523 H 893.488 -0.0514675 -4.15868 0
M  V30 9524 H 892.065 1.60055 -3.36804 0
M  V30 9525 N 894.251 1.57596 -0.0117121 0
M  V30 9526 C 895.214 2.08089 0.960816 0
M  V30 9527 C 896.214 0.992519 1.26514 0
M  V30 9528 O 897.404 1.25475 1.20837 0
M  V30 9529 C 894.536 2.53217 2.28241 0
M  V30 9530 H 895.729 2.9529 0.523829 0
M  V30 9531 H 893.282 1.54508 0.235995 0
M  V30 9532 H 894.017 1.69294 2.76604 0
M  V30 9533 H 893.802 3.32714 2.0747 0
M  V30 9534 H 895.292 2.92568 2.97983 0
M  V30 9535 N 895.729 -0.261212 1.5542 0
M  V30 9536 C 896.662 -1.34906 1.84054 0
M  V30 9537 C 897.64 -1.47024 0.694466 0
M  V30 9538 O 898.824 -1.63463 0.938719 0
M  V30 9539 C 895.951 -2.7242 2.01259 0
M  V30 9540 C 894.997 -2.77526 3.23855 0
M  V30 9541 S 895.83 -2.35578 4.80898 0
M  V30 9542 C 896.986 -3.75045 5.01091 0
M  V30 9543 H 897.219 -1.10416 2.76035 0
M  V30 9544 H 894.752 -0.461461 1.47343 0
M  V30 9545 H 896.71 -3.51606 2.11857 0
M  V30 9546 H 895.371 -2.94155 1.10145 0
M  V30 9547 H 894.564 -3.78483 3.32816 0
M  V30 9548 H 894.166 -2.0637 3.11909 0
M  V30 9549 H 896.458 -4.7042 4.87556 0
M  V30 9550 H 897.401 -3.71027 6.03112 0
M  V30 9551 H 897.809 -3.66894 4.29009 0
M  V30 9552 N 897.207 -1.48554 -0.526253 0
M  V30 9553 C 898.453 -1.57972 -1.28127 0
M  V30 9554 C 898.808 -0.251973 -1.90743 0
M  V30 9555 O 898.101 0.745524 -1.76501 0
M  V30 9556 C 898.295 -2.65739 -2.38993 0
M  V30 9557 C 898.124 -4.08864 -1.87244 0
M  V30 9558 C 896.894 -4.75959 -1.6968 0
M  V30 9559 C 899.092 -4.94912 -1.39882 0
M  V30 9560 N 897.074 -6.03486 -1.12596 0
M  V30 9561 C 898.445 -6.12714 -0.947696 0
M  V30 9562 C 900.5 -4.81107 -1.2822 0
M  V30 9563 C 899.203 -7.18234 -0.391507 0
M  V30 9564 C 901.229 -5.86752 -0.740001 0
M  V30 9565 C 900.591 -7.03765 -0.298968 0
M  V30 9566 H 896.69 -0.632588 -0.459735 0
M  V30 9567 H 899.274 -1.85452 -0.59294 0
M  V30 9568 H 897.445 -2.40075 -3.05317 0
M  V30 9569 H 899.177 -2.64821 -3.06026 0
M  V30 9570 H 895.932 -4.32351 -1.93312 0
M  V30 9571 H 896.356 -6.71509 -0.860541 0
M  V30 9572 H 900.998 -3.90978 -1.60922 0
M  V30 9573 H 898.716 -8.08083 -0.0521685 0
M  V30 9574 H 902.302 -5.78125 -0.652889 0
M  V30 9575 H 901.182 -7.84117 0.114052 0
M  V30 9576 N 898.685 0.775411 -1.37205 0
M  V30 9577 C 899.932 1.53384 -1.32211 0
M  V30 9578 C 900.26 1.9427 0.0944958 0
M  V30 9579 O 899.515 1.64059 1.06692 0
M  V30 9580 C 899.814 2.81377 -2.20367 0
M  V30 9581 C 899.48 2.59561 -3.68699 0
M  V30 9582 C 898.142 2.53319 -4.09124 0
M  V30 9583 C 900.494 2.39939 -4.62686 0
M  V30 9584 C 897.822 2.25442 -5.41658 0
M  V30 9585 C 900.174 2.13586 -5.95453 0
M  V30 9586 C 898.838 2.05786 -6.34987 0
M  V30 9587 H 898.108 0.561271 -0.483793 0
M  V30 9588 H 900.755 0.893466 -1.6938 0
M  V30 9589 H 899.06 3.49954 -1.76181 0
M  V30 9590 H 900.757 3.39238 -2.13819 0
M  V30 9591 H 897.347 2.6528 -3.36637 0
M  V30 9592 H 901.531 2.43753 -4.32317 0
M  V30 9593 H 896.787 2.17896 -5.71254 0
M  V30 9594 H 900.961 1.97401 -6.67837 0
M  V30 9595 H 898.588 1.83948 -7.37609 0
M  V30 9596 N 900.163 1.21714 1.00117 0
M  V30 9597 C 901.388 1.06357 1.78054 0
M  V30 9598 C 901.813 -0.382075 1.84179 0
M  V30 9599 O 901.171 -1.27575 1.28819 0
M  V30 9600 C 901.219 1.66982 3.19608 0
M  V30 9601 O 900.323 0.917892 4.02055 0
M  V30 9602 H 899.664 0.374074 0.548602 0
M  V30 9603 H 902.194 1.61338 1.25822 0
M  V30 9604 H 902.204 1.71363 3.70268 0
M  V30 9605 H 900.879 2.72185 3.14465 0
M  V30 9606 H 899.456 0.949473 3.6061 0
M  V30 9607 N 901.641 -1.19671 1.02551 0
M  V30 9608 C 902.887 -1.89818 0.730801 0
M  V30 9609 C 903.242 -1.77917 -0.732355 0
M  V30 9610 O 902.535 -1.15848 -1.5261 0
M  V30 9611 C 902.729 -3.39647 1.11241 0
M  V30 9612 C 902.558 -3.66129 2.61112 0
M  V30 9613 C 901.328 -3.84348 3.28032 0
M  V30 9614 C 903.526 -3.67963 3.59316 0
M  V30 9615 N 901.508 -3.98429 4.67041 0
M  V30 9616 C 902.879 -3.87575 4.83927 0
M  V30 9617 C 904.934 -3.50971 3.53162 0
M  V30 9618 C 903.637 -3.91957 6.03127 0
M  V30 9619 C 905.663 -3.56629 4.71773 0
M  V30 9620 C 905.025 -3.76722 5.95197 0
M  V30 9621 H 901.124 -0.713873 0.319232 0
M  V30 9622 H 903.708 -1.43844 1.31213 0
M  V30 9623 H 901.879 -3.84352 0.559324 0
M  V30 9624 H 903.611 -3.97301 0.77031 0
M  V30 9625 H 900.366 -3.83097 2.78448 0
M  V30 9626 H 900.79 -4.09327 5.39241 0
M  V30 9627 H 905.432 -3.34395 2.58728 0
M  V30 9628 H 903.15 -4.07326 6.97933 0
M  V30 9629 H 906.736 -3.44777 4.68637 0
M  V30 9630 H 905.616 -3.8097 6.85442 0
M  V30 9631 N 903.119 -0.802921 -1.35613 0
M  V30 9632 C 904.367 -0.380822 -1.9848 0
M  V30 9633 C 904.688 1.05464 -1.6402 0
M  V30 9634 O 903.958 1.72908 -0.920854 0
M  V30 9635 H 902.538 -0.137824 -0.734176 0
M  V30 9636 H 905.2 -1.02795 -1.65587 0
M  V30 9637 H 904.296 -0.483565 -3.08331 0
M  V30 9638 N 904.597 1.47463 -0.556102 0
M  V30 9639 C 905.843 2.02775 -0.0316806 0
M  V30 9640 C 906.176 1.42967 1.3143 0
M  V30 9641 O 905.451 0.584847 1.85499 0
M  V30 9642 C 905.734 3.60046 0.0625742 0
M  V30 9643 C 905.587 4.30288 -1.31043 0
M  V30 9644 C 906.906 4.33195 0.776553 0
M  V30 9645 H 904.025 0.736886 -0.0129869 0
M  V30 9646 H 906.667 1.75904 -0.718177 0
M  V30 9647 H 904.817 3.83071 0.647231 0
M  V30 9648 H 906.489 4.18607 -1.9382 0
M  V30 9649 H 904.732 3.90685 -1.8854 0
M  V30 9650 H 905.403 5.38861 -1.1972 0
M  V30 9651 H 907.879 4.15156 0.280147 0
M  V30 9652 H 906.755 5.42869 0.81146 0
M  V30 9653 H 907.016 4.02336 1.83244 0
M  V30 9654 N 906.075 0.2925 1.54862 0
M  V30 9655 C 907.005 -0.580677 2.26165 0
M  V30 9656 C 907.986 -1.14485 1.25806 0
M  V30 9657 O 909.171 -1.17577 1.54562 0
M  V30 9658 C 906.301 -1.75668 2.99596 0
M  V30 9659 C 905.255 -1.32325 4.07031 0
M  V30 9660 C 904.581 -2.58374 4.68131 0
M  V30 9661 C 905.881 -0.460703 5.20264 0
M  V30 9662 H 907.575 0.0140075 2.99397 0
M  V30 9663 H 905.121 0.00817706 1.43998 0
M  V30 9664 H 907.074 -2.37356 3.48195 0
M  V30 9665 H 905.798 -2.37747 2.23928 0
M  V30 9666 H 904.457 -0.729477 3.59269 0
M  V30 9667 H 904.105 -3.18749 3.89112 0
M  V30 9668 H 903.805 -2.30078 5.40683 0
M  V30 9669 H 905.329 -3.2088 5.19489 0
M  V30 9670 H 906.743 -0.983037 5.64809 0
M  V30 9671 H 905.14 -0.271881 5.99484 0
M  V30 9672 H 906.21 0.516304 4.82143 0
M  V30 9673 N 907.553 -1.57587 0.0200696 0
M  V30 9674 C 908.483 -2.12702 -0.963333 0
M  V30 9675 C 909.464 -1.04094 -1.34531 0
M  V30 9676 O 910.649 -1.31881 -1.42552 0
M  V30 9677 C 907.779 -2.64673 -2.24868 0
M  V30 9678 C 906.733 -3.77987 -2.00772 0
M  V30 9679 C 906.059 -4.16351 -3.35494 0
M  V30 9680 C 907.359 -5.0444 -1.35416 0
M  V30 9681 H 909.053 -2.95121 -0.504363 0
M  V30 9682 H 906.599 -1.41966 -0.24116 0
M  V30 9683 H 908.552 -3.01862 -2.94036 0
M  V30 9684 H 907.276 -1.79403 -2.72914 0
M  V30 9685 H 905.935 -3.41223 -1.34025 0
M  V30 9686 H 905.583 -3.28075 -3.81282 0
M  V30 9687 H 905.283 -4.92705 -3.20181 0
M  V30 9688 H 906.807 -4.56115 -4.05945 0
M  V30 9689 H 908.221 -5.39273 -1.94571 0
M  V30 9690 H 906.618 -5.85732 -1.30529 0
M  V30 9691 H 907.688 -4.83803 -0.325923 0
M  V30 9692 N 909.032 0.252966 -1.55557 0
M  V30 9693 C 909.98 1.33289 -1.90622 0
M  V30 9694 C 910.974 1.50133 -0.784638 0
M  V30 9695 O 912.18 1.51679 -0.969196 0
M  V30 9696 H 908.555 0.446196 -0.605321 0
M  V30 9697 H 910.526 1.00977 -2.80796 0
M  V30 9698 C 909.275 2.68254 -2.21213 0
M  V30 9699 H 908.598 2.5609 -3.07014 0
M  V30 9700 H 910.038 3.42707 -2.49656 0
M  V30 9701 C 908.497 3.20884 -1.02642 0
M  V30 9702 O 909.027 4.00783 -0.271292 0
M  V30 9703 N 907.233 2.7883 -0.818682 0
M  V30 9704 H 906.78 2.13966 -1.43444 0
M  V30 9705 H 906.738 3.14388 -0.0269989 0
M  V30 9706 N 910.51 1.48831 0.518367 0
M  V30 9707 C 911.735 1.61379 1.30275 0
M  V30 9708 C 912.16 0.278571 1.86026 0
M  V30 9709 O 911.518 -0.751427 1.64995 0
M  V30 9710 C 911.566 2.67225 2.42122 0
M  V30 9711 O 910.67 2.25192 3.45489 0
M  V30 9712 H 910.011 0.540742 0.385349 0
M  V30 9713 H 912.541 1.949 0.622498 0
M  V30 9714 H 912.551 2.88859 2.8814 0
M  V30 9715 H 911.226 3.64155 2.00907 0
M  V30 9716 H 909.803 2.13819 3.05509 0
M  V30 9717 N 911.988 -0.768124 1.37614 0
M  V30 9718 C 913.236 -1.52379 1.3276 0
M  V30 9719 C 913.557 -1.94809 -0.0863564 0
M  V30 9720 O 912.827 -1.66568 -1.03112 0
M  V30 9721 H 911.407 -0.565179 0.488448 0
M  V30 9722 H 914.069 -0.913974 1.72141 0
M  V30 9723 H 913.165 -2.4215 1.96901 0
M  V30 9724 N 913.466 -1.22244 -0.994698 0
M  V30 9725 C 914.715 -1.04005 -1.72817 0
M  V30 9726 C 915.028 0.425413 -1.90918 0
M  V30 9727 O 916.234 0.727429 -2.61574 0
M  V30 9728 C 914.69 -1.81244 -3.10932 0
M  V30 9729 C 914.298 -3.32028 -3.00768 0
M  V30 9730 C 916.042 -1.71448 -3.88337 0
M  V30 9731 C 913.949 -4.01716 -4.34026 0
M  V30 9732 H 912.879 -0.385559 -0.647966 0
M  V30 9733 H 915.53 -1.46077 -1.11058 0
M  V30 9734 H 913.912 -1.3197 -3.73363 0
M  V30 9735 H 915.086 -3.88682 -2.47513 0
M  V30 9736 H 913.401 -3.4248 -2.36846 0
M  V30 9737 H 915.998 -2.20836 -4.86965 0
M  V30 9738 H 916.341 -0.674568 -4.10798 0
M  V30 9739 H 916.874 -2.18256 -3.3258 0
M  V30 9740 H 913.613 -5.05952 -4.16765 0
M  V30 9741 H 913.133 -3.49849 -4.87202 0
M  V30 9742 H 914.812 -4.0721 -5.02782 0
M  V30 9743 N 914.944 1.19125 -1.03184 0
M  V30 9744 C 916.192 1.8851 -0.728587 0
M  V30 9745 C 916.513 1.80195 0.74531 0
M  V30 9746 O 915.783 1.21437 1.5372 0
M  V30 9747 H 914.363 0.69784 -0.266511 0
M  V30 9748 H 917.025 1.44607 -1.3067 0
M  V30 9749 H 916.121 2.9477 -1.02554 0
M  V30 9750 N 916.422 0.810101 1.35185 0
M  V30 9751 C 917.332 0.224565 2.33523 0
M  V30 9752 C 918.348 -0.634287 1.62027 0
M  V30 9753 O 919.524 -0.545211 1.9388 0
M  V30 9754 C 916.589 -0.614319 3.41214 0
M  V30 9755 C 915.65 0.265435 4.28479 0
M  V30 9756 C 914.883 -0.533506 5.31027 0
M  V30 9757 O 915.106 -1.7679 5.42311 0
M  V30 9758 O 914.04 0.0774573 6.0185 0
M  V30 9759 H 917.866 1.03815 2.85405 0
M  V30 9760 H 915.451 0.571964 1.38018 0
M  V30 9761 H 917.333 -1.09201 4.07005 0
M  V30 9762 H 916.008 -1.40545 2.91597 0
M  V30 9763 H 914.915 0.790343 3.65656 0
M  V30 9764 H 916.248 1.0206 4.81503 0
M  V30 9765 N 917.9 -1.47166 0.563914 0
M  V30 9766 C 919.148 -2.02056 0.0422873 0
M  V30 9767 C 919.469 -1.43992 -1.31497 0
M  V30 9768 O 918.739 -0.617578 -1.85911 0
M  V30 9769 H 917.319 -0.746893 0.0126427 0
M  V30 9770 H 919.981 -1.80492 0.735441 0
M  V30 9771 H 919.077 -3.12073 -0.0408044 0
M  V30 9772 N 919.378 -0.300708 -1.54705 0
M  V30 9773 C 920.341 0.562648 -2.22187 0
M  V30 9774 C 921.341 1.06152 -1.20782 0
M  V30 9775 O 922.531 0.957596 -1.45519 0
M  V30 9776 C 919.663 1.77899 -2.908 0
M  V30 9777 H 920.856 -0.0269361 -2.99888 0
M  V30 9778 H 918.409 -0.0515412 -1.56215 0
M  V30 9779 H 919.144 2.40841 -2.17177 0
M  V30 9780 H 918.929 1.42892 -3.65136 0
M  V30 9781 H 920.419 2.39236 -3.42281 0
M  V30 9782 N 920.856 1.57574 -0.0284266 0
M  V30 9783 C 922.267 1.79585 0.510502 0
M  V30 9784 C 922.618 0.938625 1.72291 0
M  V30 9785 O 921.743 0.14884 2.15888 0
M  V30 9786 C 922.338 3.25703 0.932912 0
M  V30 9787 C 920.897 3.48711 1.41696 0
M  V30 9788 C 920.044 2.74665 0.381356 0
M  V30 9789 H 922.995 1.56647 -0.254464 0
M  V30 9790 H 923.016 3.35376 1.79731 0
M  V30 9791 H 922.528 3.88067 0.0503036 0
M  V30 9792 H 920.629 2.91597 2.31952 0
M  V30 9793 H 920.742 4.57423 1.42481 0
M  V30 9794 H 919.106 2.40123 0.8493 0
M  V30 9795 H 919.889 3.39745 -0.492775 0
M  V30 9796 N 922.334 -0.244713 1.55689 0
M  V30 9797 C 923.75 -0.593331 1.48161 0
M  V30 9798 C 923.95 -1.88234 0.719047 0
M  V30 9799 O 923.006 -2.51266 0.249292 0
M  V30 9800 C 924.319 -0.694032 2.92581 0
M  V30 9801 C 925.867 -0.786213 3.02965 0
M  V30 9802 C 926.342 -0.918457 4.48696 0
M  V30 9803 N 927.833 -0.983272 4.52643 0
M  V30 9804 C 928.568 -1.1049 5.62654 0
M  V30 9805 N 928.064 -1.19193 6.8247 0
M  V30 9806 N 929.857 -1.13823 5.50455 0
M  V30 9807 H 922.008 0.601446 2.03707 0
M  V30 9808 H 924.271 0.207894 0.924924 0
M  V30 9809 H 923.977 0.183133 3.51223 0
M  V30 9810 H 923.851 -1.56525 3.4319 0
M  V30 9811 H 926.238 -1.65383 2.44402 0
M  V30 9812 H 926.319 0.110202 2.55563 0
M  V30 9813 H 925.963 -0.0553881 5.0787 0
M  V30 9814 H 925.893 -1.82994 4.93782 0
M  V30 9815 H 928.384 -0.927269 3.66347 0
M  V30 9816 H 928.697 -1.28387 7.62061 0
M  V30 9817 H 927.042 -1.16147 6.85226 0
M  V30 9818 H 930.233 -1.06673 4.55783 0
M  V30 9819 H 930.406 -1.22957 6.36228 0
M  V30 9820 N 923.813 -1.49104 -0.510467 0
M  V30 9821 C 925.038 -1.62068 -1.29417 0
M  V30 9822 C 925.463 -0.288432 -1.85875 0
M  V30 9823 O 924.821 0.742667 -1.65391 0
M  V30 9824 C 924.869 -2.68506 -2.40701 0
M  V30 9825 O 923.973 -2.27021 -3.4429 0
M  V30 9826 H 923.314 -0.542778 -0.382476 0
M  V30 9827 H 925.844 -1.95228 -0.612154 0
M  V30 9828 H 925.854 -2.90383 -2.86604 0
M  V30 9829 H 924.529 -3.65216 -1.98973 0
M  V30 9830 H 923.106 -2.15436 -3.04371 0
M  V30 9831 N 925.291 0.760815 -1.38019 0
M  V30 9832 C 926.538 1.51973 -1.3383 0
M  V30 9833 C 926.866 1.9436 0.0738855 0
M  V30 9834 O 926.121 1.65181 1.04946 0
M  V30 9835 C 926.42 2.79024 -2.23339 0
M  V30 9836 C 926.086 2.55636 -3.71431 0
M  V30 9837 C 924.748 2.48966 -4.11788 0
M  V30 9838 C 927.1 2.35018 -4.65205 0
M  V30 9839 C 924.428 2.19684 -5.44018 0
M  V30 9840 C 926.78 2.07258 -5.97685 0
M  V30 9841 C 925.444 1.9904 -6.37134 0
M  V30 9842 H 924.714 0.556108 -0.489719 0
M  V30 9843 H 927.361 0.87545 -1.70318 0
M  V30 9844 H 925.666 3.48065 -1.79883 0
M  V30 9845 H 927.363 3.36951 -2.17405 0
M  V30 9846 H 923.953 2.61695 -3.39432 0
M  V30 9847 H 928.137 2.39154 -4.34878 0
M  V30 9848 H 923.393 2.11825 -5.73533 0
M  V30 9849 H 927.567 1.90307 -6.69893 0
M  V30 9850 H 925.194 1.76115 -7.39519 0
M  V30 9851 N 926.769 1.22769 0.988202 0
M  V30 9852 C 927.994 1.08239 1.76915 0
M  V30 9853 C 928.419 -0.362519 1.84574 0
M  V30 9854 O 927.777 -1.26202 1.30165 0
M  V30 9855 C 927.825 1.70363 3.17819 0
M  V30 9856 O 926.929 0.960484 4.01059 0
M  V30 9857 H 926.27 0.379872 0.544604 0
M  V30 9858 H 928.8 1.62663 1.24104 0
M  V30 9859 H 928.81 1.7528 3.6843 0
M  V30 9860 H 927.485 2.75505 3.1156 0
M  V30 9861 H 926.062 0.987667 3.59582 0
M  V30 9862 N 928.247 -1.18576 1.03814 0
M  V30 9863 C 929.21 -2.2033 0.63146 0
M  V30 9864 C 930.21 -1.57787 -0.309816 0
M  V30 9865 O 931.4 -1.73938 -0.0955598 0
M  V30 9866 C 928.532 -3.40818 -0.0745963 0
M  V30 9867 H 929.725 -2.57824 1.53189 0
M  V30 9868 H 927.278 -1.32416 0.830398 0
M  V30 9869 H 928.013 -3.08853 -0.988947 0
M  V30 9870 H 927.798 -3.87453 0.6019 0
M  V30 9871 H 929.288 -4.16166 -0.345727 0
M  V30 9872 N 929.725 -0.817259 -1.34754 0
M  V30 9873 C 931.141 -0.502309 -1.51489 0
M  V30 9874 C 931.341 0.974568 -1.76364 0
M  V30 9875 O 930.397 1.75924 -1.81127 0
M  V30 9876 C 931.71 -1.35693 -2.68343 0
M  V30 9877 C 933.258 -1.35347 -2.82224 0
M  V30 9878 C 933.733 -2.19244 -4.02114 0
M  V30 9879 N 935.224 -2.16837 -4.09311 0
M  V30 9880 C 935.959 -2.78505 -5.01221 0
M  V30 9881 N 935.455 -3.4914 -5.98392 0
M  V30 9882 N 937.248 -2.68089 -4.94049 0
M  V30 9883 H 929.399 -1.77359 -1.16866 0
M  V30 9884 H 931.662 -0.755476 -0.572678 0
M  V30 9885 H 931.368 -2.40548 -2.56573 0
M  V30 9886 H 931.242 -1.01764 -3.63213 0
M  V30 9887 H 933.629 -0.312727 -2.93438 0
M  V30 9888 H 933.71 -1.7327 -1.88179 0
M  V30 9889 H 933.354 -3.23365 -3.9166 0
M  V30 9890 H 933.284 -1.78675 -4.95361 0
M  V30 9891 H 935.775 -1.65452 -3.39756 0
M  V30 9892 H 936.088 -3.93455 -6.65141 0
M  V30 9893 H 934.433 -3.53246 -5.98533 0
M  V30 9894 H 937.624 -2.12485 -4.17094 0
M  V30 9895 H 937.797 -3.16436 -5.65484 0
M  V30 9896 N 931.203 1.46865 -0.571711 0
M  V30 9897 C 932.452 2.01636 -0.050881 0
M  V30 9898 C 932.765 1.45001 1.31279 0
M  V30 9899 O 933.971 1.91523 1.92435 0
M  V30 9900 C 932.427 3.59877 -0.0404114 0
M  V30 9901 C 932.035 4.25506 -1.40172 0
M  V30 9902 C 933.779 4.22346 0.42705 0
M  V30 9903 C 931.686 5.75795 -1.34958 0
M  V30 9904 H 930.616 0.753846 -0.0152514 0
M  V30 9905 H 933.267 1.68711 -0.721723 0
M  V30 9906 H 931.649 3.89829 0.696374 0
M  V30 9907 H 932.823 4.07178 -2.15737 0
M  V30 9908 H 931.138 3.75086 -1.8083 0
M  V30 9909 H 933.735 5.32499 0.484688 0
M  V30 9910 H 934.078 3.9052 1.44222 0
M  V30 9911 H 934.611 3.9698 -0.255326 0
M  V30 9912 H 931.35 6.12265 -2.3412 0
M  V30 9913 H 930.87 5.96419 -0.635962 0
M  V30 9914 H 932.549 6.38294 -1.05779 0
M  V30 9915 N 932.681 0.308908 1.54543 0
M  V30 9916 C 933.611 -0.556657 2.26768 0
M  V30 9917 C 934.592 -1.13145 1.27013 0
M  V30 9918 O 935.777 -1.15931 1.558 0
M  V30 9919 C 932.907 -1.72481 3.01443 0
M  V30 9920 C 931.861 -1.28001 4.08411 0
M  V30 9921 C 931.187 -2.53395 4.70845 0
M  V30 9922 C 932.487 -0.405497 5.20724 0
M  V30 9923 H 934.181 0.0457618 2.99365 0
M  V30 9924 H 931.727 0.0234495 1.43981 0
M  V30 9925 H 933.68 -2.3365 3.50693 0
M  V30 9926 H 932.404 -2.35359 2.26437 0
M  V30 9927 H 931.063 -0.69133 3.60022 0
M  V30 9928 H 930.711 -3.14604 3.92471 0
M  V30 9929 H 930.411 -2.2433 5.43093 0
M  V30 9930 H 931.935 -3.15352 5.22863 0
M  V30 9931 H 933.349 -0.923076 5.6582 0
M  V30 9932 H 931.746 -0.208282 5.99738 0
M  V30 9933 H 932.816 0.567412 4.81569 0
M  V30 9934 N 934.159 -1.57557 0.0367827 0
M  V30 9935 C 935.407 -1.91735 -0.63892 0
M  V30 9936 C 935.728 -0.914515 -1.72226 0
M  V30 9937 O 934.998 0.0428248 -1.95853 0
M  V30 9938 H 933.578 -0.707738 -0.23899 0
M  V30 9939 H 936.24 -1.94708 0.0863931 0
M  V30 9940 H 935.336 -2.92568 -1.08676 0
M  V30 9941 N 935.637 0.236453 -1.55816 0
M  V30 9942 C 936.57 1.3196 -1.86177 0
M  V30 9943 C 937.548 1.459 -0.717769 0
M  V30 9944 O 938.732 1.61949 -0.964606 0
M  V30 9945 C 935.859 2.69183 -2.05568 0
M  V30 9946 C 934.905 2.72338 -3.28229 0
M  V30 9947 S 935.738 2.27898 -4.84585 0
M  V30 9948 C 936.894 3.67025 -5.06994 0
M  V30 9949 H 937.127 1.06011 -2.77757 0
M  V30 9950 H 934.66 0.437961 -1.48058 0
M  V30 9951 H 936.618 3.48191 -2.17423 0
M  V30 9952 H 935.279 2.92365 -1.14811 0
M  V30 9953 H 934.472 3.7314 -3.38795 0
M  V30 9954 H 934.074 2.01382 -3.15153 0
M  V30 9955 H 936.366 4.62604 -4.94979 0
M  V30 9956 H 937.309 3.61385 -6.08939 0
M  V30 9957 H 937.717 3.60022 -4.34792 0
M  V30 9958 N 937.115 1.49373 0.502552 0
M  V30 9959 C 938.361 1.59016 1.25864 0
M  V30 9960 C 938.694 0.27532 1.92238 0
M  V30 9961 O 937.969 -0.720988 1.80643 0
M  V30 9962 C 938.252 2.74828 2.32683 0
M  V30 9963 C 938.105 4.16102 1.7082 0
M  V30 9964 C 939.424 2.86288 3.34256 0
M  V30 9965 H 936.543 0.578798 0.456248 0
M  V30 9966 H 939.185 1.81651 0.557032 0
M  V30 9967 H 937.335 2.5566 2.92524 0
M  V30 9968 H 939.007 4.46782 1.14818 0
M  V30 9969 H 937.25 4.21822 1.01238 0
M  V30 9970 H 937.921 4.93006 2.48292 0
M  V30 9971 H 940.397 3.03733 2.84404 0
M  V30 9972 H 939.273 3.69001 4.06362 0
M  V30 9973 H 939.534 1.95576 3.96488 0
M  V30 9974 N 938.594 -0.753485 1.38421 0
M  V30 9975 C 939.84 -1.51391 1.35839 0
M  V30 9976 C 940.195 -1.92331 -0.0513518 0
M  V30 9977 O 939.488 -1.62568 -1.01401 0
M  V30 9978 C 939.682 -2.77836 2.24816 0
M  V30 9979 C 939.511 -2.49257 3.74301 0
M  V30 9980 C 938.281 -2.42471 4.43324 0
M  V30 9981 C 940.479 -2.16027 4.6673 0
M  V30 9982 N 938.461 -2.06168 5.78246 0
M  V30 9983 C 939.832 -1.90016 5.90164 0
M  V30 9984 C 941.887 -2.02337 4.54933 0
M  V30 9985 C 940.59 -1.51696 7.03122 0
M  V30 9986 C 942.616 -1.65419 5.67794 0
M  V30 9987 C 941.978 -1.40281 6.9029 0
M  V30 9988 H 938.077 -0.553561 0.552354 0
M  V30 9989 H 940.661 -0.877409 1.73809 0
M  V30 9990 H 938.832 -3.39295 1.89034 0
M  V30 9991 H 940.564 -3.43889 2.13359 0
M  V30 9992 H 937.319 -2.58946 3.9654 0
M  V30 9993 H 937.743 -1.90662 6.49598 0
M  V30 9994 H 942.385 -2.20447 3.60781 0
M  V30 9995 H 940.103 -1.32325 7.97192 0
M  V30 9996 H 943.689 -1.55459 5.60646 0
M  V30 9997 H 942.569 -1.12139 7.76141 0
M  V30 9998 N 940.072 -1.23292 -0.981677 0
M  V30 9999 C 941.035 -1.01417 -2.05542 0
M  V30 10000 C 942.035 0.0235354 -1.60783 0
M  V30 10001 O 943.225 -0.216082 -1.72855 0
M  V30 10002 C 940.357 -0.534239 -3.36688 0
M  V30 10003 H 941.55 -1.96702 -2.26381 0
M  V30 10004 H 939.103 -1.05318 -1.1549 0
M  V30 10005 H 939.838 0.422452 -3.21537 0
M  V30 10006 H 939.623 -1.28304 -3.70514 0
M  V30 10007 H 941.113 -0.40179 -4.15663 0
M  V30 10008 N 941.55 1.18024 -1.04442 0
M  V30 10009 C 942.798 1.87727 -0.74854 0
M  V30 10010 C 943.119 1.80975 0.726156 0
M  V30 10011 O 942.389 1.23061 1.52423 0
M  V30 10012 H 940.969 0.694974 -0.273897 0
M  V30 10013 H 943.631 1.43213 -1.32197 0
M  V30 10014 H 942.727 2.93665 -1.05674 0
M  V30 10015 N 943.028 0.824394 1.34319 0
M  V30 10016 C 944.275 0.413167 1.9824 0
M  V30 10017 C 944.603 -1.02412 1.65354 0
M  V30 10018 O 943.858 -1.72831 0.91803 0
M  V30 10019 C 944.157 0.564024 3.52921 0
M  V30 10020 C 943.823 1.96725 4.05722 0
M  V30 10021 C 942.485 2.35111 4.19853 0
M  V30 10022 C 944.837 2.88447 4.34106 0
M  V30 10023 C 942.165 3.64551 4.59695 0
M  V30 10024 C 944.517 4.17353 4.75394 0
M  V30 10025 C 943.181 4.55714 4.8773 0
M  V30 10026 H 942.451 0.151188 0.725412 0
M  V30 10027 H 945.098 1.04863 1.60238 0
M  V30 10028 H 943.403 -0.154816 3.91494 0
M  V30 10029 H 945.1 0.226347 4.00361 0
M  V30 10030 H 941.69 1.65908 3.95187 0
M  V30 10031 H 945.874 2.60034 4.22725 0
M  V30 10032 H 941.13 3.94097 4.67437 0
M  V30 10033 H 945.304 4.88512 4.96315 0
M  V30 10034 H 942.931 5.56064 5.1836 0
M  V30 10035 N 944.506 -1.46559 0.579492 0
M  V30 10036 C 945.469 -2.28739 -0.145371 0
M  V30 10037 C 946.469 -1.38211 -0.821854 0
M  V30 10038 O 947.659 -1.6062 -0.674302 0
M  V30 10039 C 944.791 -3.18507 -1.21515 0
M  V30 10040 H 945.984 -2.94301 0.576786 0
M  V30 10041 H 943.537 -1.52616 0.337327 0
M  V30 10042 H 944.272 -2.57685 -1.96899 0
M  V30 10043 H 944.057 -3.85157 -0.734616 0
M  V30 10044 H 945.547 -3.80369 -1.72363 0
M  V30 10045 N 945.984 -0.3171 -1.54377 0
M  V30 10046 C 946.917 0.594178 -2.20329 0
M  V30 10047 C 947.895 1.12067 -1.17812 0
M  V30 10048 O 949.079 1.18588 -1.46524 0
M  V30 10049 C 946.206 1.81463 -2.85987 0
M  V30 10050 C 945.252 1.41996 -4.02168 0
M  V30 10051 S 946.085 0.462159 -5.33502 0
M  V30 10052 C 947.241 1.69004 -6.02651 0
M  V30 10053 H 947.474 0.0339261 -2.97281 0
M  V30 10054 H 945.007 -0.101196 -1.54068 0
M  V30 10055 H 946.965 2.51494 -3.2444 0
M  V30 10056 H 945.626 2.34606 -2.08851 0
M  V30 10057 H 944.819 2.32921 -4.4695 0
M  V30 10058 H 944.421 0.799423 -3.65356 0
M  V30 10059 H 946.713 2.62839 -6.24437 0
M  V30 10060 H 947.656 1.28451 -6.96352 0
M  V30 10061 H 948.064 1.87408 -5.32483 0
M  V30 10062 N 947.462 1.57535 -0.0451378 0
M  V30 10063 C 948.711 1.91628 0.629415 0
M  V30 10064 C 949.024 0.924754 1.72359 0
M  V30 10065 O 950.23 1.15751 2.45589 0
M  V30 10066 C 948.686 3.40322 1.17084 0
M  V30 10067 C 948.294 4.47867 0.109101 0
M  V30 10068 C 950.038 3.83458 1.82099 0
M  V30 10069 C 947.945 5.87671 0.663072 0
M  V30 10070 H 946.875 0.715163 0.238868 0
M  V30 10071 H 949.526 1.83151 -0.113046 0
M  V30 10072 H 947.908 3.43783 1.96543 0
M  V30 10073 H 949.082 4.55988 -0.664201 0
M  V30 10074 H 947.397 4.14034 -0.443227 0
M  V30 10075 H 949.994 4.85273 2.2453 0
M  V30 10076 H 950.337 3.19379 2.67026 0
M  V30 10077 H 950.87 3.82488 1.09305 0
M  V30 10078 H 947.609 6.55332 -0.148423 0
M  V30 10079 H 947.129 5.83124 1.4045 0
M  V30 10080 H 948.808 6.36737 1.14785 0
M  V30 10081 N 948.94 -0.228186 1.55939 0
M  V30 10082 C 950.189 -0.951563 1.77843 0
M  V30 10083 C 950.502 -1.85763 0.612501 0
M  V30 10084 O 951.708 -2.61916 0.715006 0
M  V30 10085 C 950.164 -1.74216 3.14923 0
M  V30 10086 C 949.772 -0.882569 4.39221 0
M  V30 10087 C 951.516 -2.45715 3.46156 0
M  V30 10088 C 949.423 -1.67014 5.67327 0
M  V30 10089 H 948.353 -0.359035 0.663031 0
M  V30 10090 H 951.004 -0.205636 1.82344 0
M  V30 10091 H 949.386 -2.53075 3.0458 0
M  V30 10092 H 950.56 -0.13499 4.60602 0
M  V30 10093 H 948.875 -0.280022 4.15457 0
M  V30 10094 H 951.472 -3.05127 4.39092 0
M  V30 10095 H 951.815 -3.1827 2.68346 0
M  V30 10096 H 952.348 -1.73852 3.57799 0
M  V30 10097 H 949.087 -0.987985 6.48012 0
M  V30 10098 H 948.607 -2.3925 5.50018 0
M  V30 10099 H 950.286 -2.23252 6.07262 0
M  V30 10100 N 950.418 -1.49637 -0.494624 0
M  V30 10101 C 951.664 -1.59681 -1.25019 0
M  V30 10102 C 951.997 -0.285511 -1.9209 0
M  V30 10103 O 951.272 0.711398 -1.81023 0
M  V30 10104 C 951.555 -2.76058 -2.31222 0
M  V30 10105 C 951.408 -4.17002 -1.68611 0
M  V30 10106 C 952.727 -2.88056 -3.32734 0
M  V30 10107 H 949.846 -0.581209 -0.453172 0
M  V30 10108 H 952.488 -1.81944 -0.547391 0
M  V30 10109 H 950.638 -2.57207 -2.91164 0
M  V30 10110 H 952.31 -4.47385 -1.12447 0
M  V30 10111 H 950.553 -4.22352 -0.989991 0
M  V30 10112 H 951.224 -4.94316 -2.45674 0
M  V30 10113 H 953.7 -3.05237 -2.82789 0
M  V30 10114 H 952.576 -3.71151 -4.04399 0
M  V30 10115 H 952.837 -1.97676 -3.95445 0
M  V30 10116 N 951.896 0.746133 -1.38819 0
M  V30 10117 C 952.859 1.84167 -1.36437 0
M  V30 10118 C 953.859 1.58626 -0.263499 0
M  V30 10119 O 955.049 1.66233 -0.520801 0
M  V30 10120 C 952.181 3.21769 -1.12596 0
M  V30 10121 H 953.374 1.87684 -2.33912 0
M  V30 10122 H 950.927 0.948625 -1.24221 0
M  V30 10123 H 951.662 3.23917 -0.15758 0
M  V30 10124 H 951.447 3.41702 -1.92307 0
M  V30 10125 H 952.937 4.0184 -1.13643 0
M  V30 10126 N 953.375 1.23811 0.975125 0
M  V30 10127 C 954.6 1.10109 1.75757 0
M  V30 10128 C 955.025 -0.342922 1.84948 0
M  V30 10129 O 954.383 -1.24814 1.31496 0
M  V30 10130 C 954.431 1.73724 3.15994 0
M  V30 10131 O 953.535 1.00297 4.00018 0
M  V30 10132 H 952.876 0.385627 0.540544 0
M  V30 10133 H 955.406 1.63971 1.22372 0
M  V30 10134 H 955.416 1.79178 3.6655 0
M  V30 10135 H 954.091 2.78794 3.0862 0
M  V30 10136 H 952.668 1.02575 3.58515 0
M  V30 10137 N 954.853 -1.17469 1.05066 0
M  V30 10138 C 956.083 -1.91343 0.779202 0
M  V30 10139 C 956.491 -1.76986 -0.668764 0
M  V30 10140 O 955.834 -1.1037 -1.46848 0
M  V30 10141 C 955.896 -3.42938 1.0786 0
M  V30 10142 C 955.56 -3.81076 2.52249 0
M  V30 10143 C 956.557 -3.84027 3.50456 0
M  V30 10144 C 954.242 -4.12076 2.87225 0
M  V30 10145 C 956.236 -4.17445 4.81683 0
M  V30 10146 C 953.923 -4.45163 4.18656 0
M  V30 10147 C 954.921 -4.47825 5.15696 0
M  V30 10148 O 954.609 -4.80133 6.44769 0
M  V30 10149 H 954.341 -0.613974 0.282863 0
M  V30 10150 H 956.895 -1.49907 1.40417 0
M  V30 10151 H 955.125 -3.84662 0.39653 0
M  V30 10152 H 956.814 -3.98071 0.793357 0
M  V30 10153 H 957.58 -3.60203 3.24775 0
M  V30 10154 H 953.459 -4.09176 2.12358 0
M  V30 10155 H 957.003 -4.19437 5.57421 0
M  V30 10156 H 952.9 -4.68449 4.44101 0
M  V30 10157 H 953.668 -4.97995 6.49571 0
M  V30 10158 N 956.331 -0.831506 -1.3388 0
M  V30 10159 C 957.559 -0.436925 -2.02234 0
M  V30 10160 C 957.974 0.959689 -1.6259 0
M  V30 10161 O 957.331 1.62248 -0.835576 0
M  V30 10162 C 957.382 -0.539429 -3.57453 0
M  V30 10163 O 957.103 -1.88101 -3.95664 0
M  V30 10164 C 958.604 -0.140852 -4.43076 0
M  V30 10165 H 955.824 -0.174302 -0.647966 0
M  V30 10166 H 958.368 -1.12204 -1.70969 0
M  V30 10167 H 956.523 0.0976959 -3.87277 0
M  V30 10168 H 956.937 -1.86131 -4.90363 0
M  V30 10169 H 958.411 -0.26364 -5.5137 0
M  V30 10170 H 958.888 0.916505 -4.29531 0
M  V30 10171 H 959.494 -0.752117 -4.18597 0
M  V30 10172 N 957.809 1.4625 -0.587256 0
M  V30 10173 C 958.772 2.28812 0.133238 0
M  V30 10174 C 959.772 1.38645 0.814513 0
M  V30 10175 O 960.962 1.60975 0.665774 0
M  V30 10176 C 958.094 3.19147 1.19824 0
M  V30 10177 H 959.287 2.93991 -0.592386 0
M  V30 10178 H 956.84 1.52435 -0.345416 0
M  V30 10179 H 957.575 2.58725 1.95529 0
M  V30 10180 H 957.36 3.85541 0.71418 0
M  V30 10181 H 958.85 3.81278 1.70344 0
M  V30 10182 N 959.287 0.325282 1.54207 0
M  V30 10183 C 960.235 -0.5554 2.25872 0
M  V30 10184 C 961.229 -1.11714 1.27344 0
M  V30 10185 O 962.435 -1.06498 1.45115 0
M  V30 10186 H 958.81 -0.19776 0.725531 0
M  V30 10187 H 960.781 0.0712858 2.98315 0
M  V30 10188 C 959.53 -1.70379 3.03095 0
M  V30 10189 H 958.853 -1.2808 3.78729 0
M  V30 10190 H 960.293 -2.29556 3.56483 0
M  V30 10191 C 958.752 -2.62242 2.11496 0
M  V30 10192 O 959.282 -3.64003 1.69895 0
M  V30 10193 N 957.488 -2.30515 1.7695 0
M  V30 10194 H 957.035 -1.47805 2.10978 0
M  V30 10195 H 956.993 -2.92241 1.15942 0
M  V30 10196 N 960.765 -1.57509 0.0534917 0
M  V30 10197 C 961.695 -2.14698 -0.917999 0
M  V30 10198 C 962.676 -1.06924 -1.32292 0
M  V30 10199 O 963.861 -1.34875 -1.39723 0
M  V30 10200 C 960.991 -2.69383 -2.19203 0
M  V30 10201 C 959.945 -3.82161 -1.9271 0
M  V30 10202 C 959.271 -4.23373 -3.26587 0
M  V30 10203 C 960.571 -5.07199 -1.24686 0
M  V30 10204 H 962.265 -2.96125 -0.44165 0
M  V30 10205 H 959.811 -1.42446 -0.210993 0
M  V30 10206 H 961.764 -3.08031 -2.87567 0
M  V30 10207 H 960.488 -1.85151 -2.69048 0
M  V30 10208 H 959.147 -3.43989 -1.26757 0
M  V30 10209 H 958.795 -3.36089 -3.74237 0
M  V30 10210 H 958.495 -4.99385 -3.09658 0
M  V30 10211 H 960.019 -4.64623 -3.96178 0
M  V30 10212 H 961.433 -5.43279 -1.83088 0
M  V30 10213 H 959.83 -5.88369 -1.18076 0
M  V30 10214 H 960.9 -4.84386 -0.223227 0
M  V30 10215 N 962.243 0.219913 -1.56058 0
M  V30 10216 C 963.206 1.25606 -1.91718 0
M  V30 10217 C 964.206 1.39721 -0.795912 0
M  V30 10218 O 965.396 1.37958 -1.06364 0
M  V30 10219 C 962.528 2.62961 -2.16943 0
M  V30 10220 H 963.721 0.951909 -2.84392 0
M  V30 10221 H 961.274 0.460398 -1.49365 0
M  V30 10222 H 962.009 2.98472 -1.26826 0
M  V30 10223 H 961.794 2.54093 -2.98629 0
M  V30 10224 H 963.284 3.37727 -2.45622 0
M  V30 10225 N 963.721 1.49897 0.486681 0
M  V30 10226 C 964.684 1.67086 1.56891 0
M  V30 10227 C 965.684 0.54209 1.51387 0
M  V30 10228 O 966.874 0.80883 1.54284 0
M  V30 10229 C 964.006 1.68159 2.96539 0
M  V30 10230 H 965.199 2.63626 1.42974 0
M  V30 10231 H 962.752 1.39143 0.711954 0
M  V30 10232 H 963.487 0.732562 3.15918 0
M  V30 10233 H 963.272 2.50147 3.01942 0
M  V30 10234 H 964.762 1.83466 3.7514 0
M  V30 10235 N 965.199 -0.738761 1.39212 0
M  V30 10236 C 966.446 -1.49824 1.36231 0
M  V30 10237 C 966.774 -1.94453 -0.0429552 0
M  V30 10238 O 966.029 -1.6683 -1.02304 0
M  V30 10239 C 966.328 -2.75435 2.2775 0
M  V30 10240 C 965.994 -2.49694 3.75451 0
M  V30 10241 C 964.656 -2.42383 4.15697 0
M  V30 10242 C 967.008 -2.27587 4.68885 0
M  V30 10243 C 964.336 -2.11001 5.47444 0
M  V30 10244 C 966.688 -1.97723 6.00906 0
M  V30 10245 C 965.352 -1.88879 6.4022 0
M  V30 10246 H 964.622 -0.548247 0.498504 0
M  V30 10247 H 967.269 -0.848244 1.71689 0
M  V30 10248 H 965.574 -3.45159 1.85398 0
M  V30 10249 H 967.271 -3.33449 2.22739 0
M  V30 10250 H 963.861 -2.56261 3.43552 0
M  V30 10251 H 968.045 -2.32206 4.38628 0
M  V30 10252 H 963.301 -2.02673 5.76831 0
M  V30 10253 H 967.475 -1.79625 6.72836 0
M  V30 10254 H 965.102 -1.64327 7.42227 0
M  V30 10255 N 966.677 -1.24326 -0.968545 0
M  V30 10256 C 967.607 -1.05951 -2.08079 0
M  V30 10257 C 968.588 0.0272666 -1.70078 0
M  V30 10258 O 969.773 -0.139644 -1.93697 0
M  V30 10259 C 966.903 -0.662623 -3.4092 0
M  V30 10260 C 965.857 -1.69807 -3.92873 0
M  V30 10261 C 965.183 -1.15628 -5.22048 0
M  V30 10262 C 966.483 -3.09383 -4.20808 0
M  V30 10263 H 968.177 -1.98984 -2.23709 0
M  V30 10264 H 965.723 -0.958112 -1.075 0
M  V30 10265 H 967.676 -0.521071 -4.18166 0
M  V30 10266 H 966.4 0.303399 -3.25188 0
M  V30 10267 H 965.059 -1.82783 -3.17783 0
M  V30 10268 H 964.707 -0.180888 -5.02675 0
M  V30 10269 H 964.407 -1.84822 -5.57776 0
M  V30 10270 H 965.931 -1.02683 -6.01904 0
M  V30 10271 H 967.345 -2.99642 -4.88761 0
M  V30 10272 H 965.742 -3.75923 -4.67763 0
M  V30 10273 H 966.812 -3.57486 -3.27616 0
M  V30 10274 N 968.156 1.1691 -1.05688 0
M  V30 10275 C 969.402 1.8757 -0.771071 0
M  V30 10276 C 969.735 1.8113 0.700399 0
M  V30 10277 O 969.01 1.22273 1.5126 0
M  V30 10278 C 969.293 3.37392 -1.25851 0
M  V30 10279 C 969.146 3.52556 -2.79329 0
M  V30 10280 C 970.465 4.31585 -0.861512 0
M  V30 10281 H 967.584 0.681089 -0.281579 0
M  V30 10282 H 970.226 1.37453 -1.31174 0
M  V30 10283 H 968.376 3.80204 -0.798563 0
M  V30 10284 H 970.048 3.18725 -3.33485 0
M  V30 10285 H 968.291 2.94668 -3.1836 0
M  V30 10286 H 968.962 4.57748 -3.08498 0
M  V30 10287 H 971.438 3.96642 -1.25756 0
M  V30 10288 H 970.314 5.34939 -1.23012 0
M  V30 10289 H 970.575 4.4148 0.234089 0
M  V30 10290 N 969.634 0.838594 1.33437 0
M  V30 10291 C 970.564 0.286672 2.31734 0
M  V30 10292 C 971.545 -0.605451 1.5896 0
M  V30 10293 O 972.73 -0.529059 1.86854 0
M  V30 10294 C 969.86 -0.539311 3.43087 0
M  V30 10295 C 968.814 0.256997 4.27228 0
M  V30 10296 C 968.14 -0.692718 5.30194 0
M  V30 10297 C 969.44 1.47391 5.01072 0
M  V30 10298 H 971.134 1.10798 2.78144 0
M  V30 10299 H 968.68 0.534235 1.33723 0
M  V30 10300 H 970.633 -0.935724 4.1088 0
M  V30 10301 H 969.357 -1.39383 2.95364 0
M  V30 10302 H 968.016 0.634967 3.61059 0
M  V30 10303 H 967.664 -1.54363 4.78729 0
M  V30 10304 H 967.364 -0.164023 5.87371 0
M  V30 10305 H 968.888 -1.08665 6.00853 0
M  V30 10306 H 970.302 1.15067 5.61634 0
M  V30 10307 H 968.699 1.93937 5.67898 0
M  V30 10308 H 969.769 2.24382 4.29861 0
M  V30 10309 N 971.112 -1.45937 0.595003 0
M  V30 10310 C 972.389 -1.95592 0.0178748 0
M  V30 10311 C 972.769 -1.53758 -1.44643 0
M  V30 10312 O 972.117 -0.794104 -2.14257 0
M  V30 10313 C 972.327 -3.4841 0.202789 0
M  V30 10314 C 973.675 -4.2453 0.0770121 0
M  V30 10315 O 974.699 -3.55954 0.132257 0
M  V30 10316 O 973.558 -5.46479 -0.0484271 0
M  V30 10317 H 970.652 -0.825888 -0.0428702 0
M  V30 10318 H 973.198 -1.56162 0.664184 0
M  V30 10319 H 971.97 -3.71787 1.22027 0
M  V30 10320 H 971.593 -3.947 -0.479376 0
M  V30 10321 N 972.59 -0.333456 -1.54032 0
M  V30 10322 C 974.006 0.0188405 -1.59589 0
M  V30 10323 C 974.206 1.49615 -1.34972 0
M  V30 10324 O 973.262 2.2535 -1.13901 0
M  V30 10325 C 974.575 -0.408273 -2.97915 0
M  V30 10326 C 976.123 -0.359763 -3.10926 0
M  V30 10327 C 976.598 -0.76219 -4.51613 0
M  V30 10328 N 978.089 -0.715981 -4.57633 0
M  V30 10329 C 978.824 -0.999436 -5.64623 0
M  V30 10330 N 978.32 -1.35053 -6.79509 0
M  V30 10331 N 980.113 -0.924343 -5.54448 0
M  V30 10332 H 972.264 -1.29587 -1.68289 0
M  V30 10333 H 974.527 -0.527584 -0.787629 0
M  V30 10334 H 974.233 -1.43793 -3.20962 0
M  V30 10335 H 974.107 0.221685 -3.76548 0
M  V30 10336 H 976.494 0.660703 -2.87609 0
M  V30 10337 H 976.575 -1.02479 -2.34375 0
M  V30 10338 H 976.219 -1.78062 -4.75664 0
M  V30 10339 H 976.149 -0.0747478 -5.26547 0
M  V30 10340 H 978.64 -0.456875 -3.75128 0
M  V30 10341 H 978.953 -1.55194 -7.57057 0
M  V30 10342 H 977.298 -1.38889 -6.80981 0
M  V30 10343 H 980.489 -0.649469 -4.63573 0
M  V30 10344 H 980.662 -1.1486 -6.37739 0
M  V30 10345 N 974.068 1.57479 -0.061844 0
M  V30 10346 C 975.479 1.80627 0.472295 0
M  V30 10347 C 975.83 0.97496 1.70261 0
M  V30 10348 O 974.955 0.1946 2.15523 0
M  V30 10349 C 975.55 3.27608 0.863616 0
M  V30 10350 C 974.109 3.51638 1.34267 0
M  V30 10351 C 973.256 2.75412 0.323009 0
M  V30 10352 H 976.207 1.56072 -0.287634 0
M  V30 10353 H 976.228 3.39113 1.72577 0
M  V30 10354 H 975.74 3.88087 -0.0320226 0
M  V30 10355 H 973.841 2.96452 2.25714 0
M  V30 10356 H 973.954 4.60342 1.32747 0
M  V30 10357 H 972.318 2.4187 0.798175 0
M  V30 10358 H 973.101 3.38623 -0.564729 0
M  V30 10359 N 975.546 -0.211634 1.56173 0
M  V30 10360 C 976.456 -1.2831 1.96402 0
M  V30 10361 C 977.472 -1.50731 0.869254 0
M  V30 10362 O 978.648 -1.63669 1.17365 0
M  V30 10363 C 975.713 -2.61084 2.28114 0
M  V30 10364 C 974.774 -2.46879 3.51211 0
M  V30 10365 C 974.007 -3.73321 3.81401 0
M  V30 10366 O 974.23 -4.76773 3.13119 0
M  V30 10367 O 973.164 -3.69839 4.74871 0
M  V30 10368 H 976.99 -0.971733 2.87734 0
M  V30 10369 H 974.575 -0.415305 1.43512 0
M  V30 10370 H 976.457 -3.39481 2.49661 0
M  V30 10371 H 975.132 -2.91881 1.39954 0
M  V30 10372 H 974.039 -1.66648 3.34932 0
M  V30 10373 H 975.372 -2.21018 4.39786 0
M  V30 10374 N 977.024 -1.50153 -0.478725 0
M  V30 10375 C 977.934 -1.71232 -1.60364 0
M  V30 10376 C 978.95 -0.595269 -1.63501 0
M  V30 10377 O 980.126 -0.872683 -1.81511 0
M  V30 10378 C 977.191 -1.79487 -2.96623 0
M  V30 10379 C 976.252 -3.03185 -3.03937 0
M  V30 10380 C 975.485 -3.11036 -4.33696 0
M  V30 10381 O 975.708 -2.2588 -5.23769 0
M  V30 10382 O 974.642 -4.03698 -4.46443 0
M  V30 10383 H 978.468 -2.66575 -1.45505 0
M  V30 10384 H 976.053 -1.34158 -0.65741 0
M  V30 10385 H 977.935 -1.8714 -3.77567 0
M  V30 10386 H 976.61 -0.873264 -3.11698 0
M  V30 10387 H 975.517 -3.01036 -2.22099 0
M  V30 10388 H 976.85 -3.94898 -2.93796 0
M  V30 10389 N 978.502 0.731368 -1.39602 0
M  V30 10390 C 979.918 1.03739 -1.21286 0
M  V30 10391 C 980.118 2.01353 -0.0769875 0
M  V30 10392 O 979.174 2.45978 0.570193 0
M  V30 10393 C 980.487 1.59621 -2.54837 0
M  V30 10394 C 982.035 1.71683 -2.61713 0
M  V30 10395 C 982.51 2.30973 -3.95494 0
M  V30 10396 N 984.001 2.38378 -3.97153 0
M  V30 10397 C 984.736 2.852 -4.97442 0
M  V30 10398 N 984.232 3.31891 -6.08129 0
M  V30 10399 N 986.025 2.84441 -4.84819 0
M  V30 10400 H 978.176 0.0840456 -2.12234 0
M  V30 10401 H 980.439 0.0999038 -0.942721 0
M  V30 10402 H 980.145 0.953608 -3.38525 0
M  V30 10403 H 980.019 2.58375 -2.74813 0
M  V30 10404 H 982.406 2.35064 -1.78406 0
M  V30 10405 H 982.487 0.715714 -2.45583 0
M  V30 10406 H 982.131 1.68219 -4.79234 0
M  V30 10407 H 982.061 3.31769 -4.08946 0
M  V30 10408 H 984.552 2.05382 -3.17217 0
M  V30 10409 H 984.865 3.66138 -6.8056 0
M  V30 10410 H 983.21 3.2989 -6.11717 0
M  V30 10411 H 986.401 2.4729 -3.97448 0
M  V30 10412 H 986.574 3.20616 -5.63124 0
M  V30 10413 N 979.98 1.24838 0.961938 0
M  V30 10414 C 981.229 1.0855 1.69999 0
M  V30 10415 C 981.542 -0.374645 1.91979 0
M  V30 10416 O 982.748 -0.657822 2.6341 0
M  V30 10417 C 981.204 1.89424 3.06017 0
M  V30 10418 C 980.812 3.39885 2.9186 0
M  V30 10419 C 982.556 1.81684 3.83655 0
M  V30 10420 C 980.463 4.13082 4.23223 0
M  V30 10421 H 979.393 0.402603 0.637516 0
M  V30 10422 H 982.044 1.4897 1.07146 0
M  V30 10423 H 980.426 1.41823 3.69733 0
M  V30 10424 H 981.6 3.95108 2.37121 0
M  V30 10425 H 979.915 3.4864 2.27683 0
M  V30 10426 H 982.512 2.3367 4.80939 0
M  V30 10427 H 982.855 0.783247 4.08865 0
M  V30 10428 H 983.388 2.26997 3.26676 0
M  V30 10429 H 980.127 5.16824 4.03204 0
M  V30 10430 H 979.647 3.62644 4.77755 0
M  V30 10431 H 981.326 4.20397 4.91808 0
M  V30 10432 N 981.458 -1.16348 1.06306 0
M  V30 10433 C 982.686 -1.90782 0.800614 0
M  V30 10434 C 983.101 -1.77439 -0.645033 0
M  V30 10435 O 982.458 -1.11912 -1.4416 0
M  V30 10436 C 982.509 -3.41484 1.18621 0
M  V30 10437 O 982.23 -3.54428 2.57512 0
M  V30 10438 C 983.731 -4.32968 0.951525 0
M  V30 10439 H 980.951 -0.604977 0.290247 0
M  V30 10440 H 983.495 -1.47476 1.41672 0
M  V30 10441 H 981.65 -3.82493 0.614633 0
M  V30 10442 H 982.064 -4.4788 2.72954 0
M  V30 10443 H 983.538 -5.37169 1.27095 0
M  V30 10444 H 984.015 -4.39055 -0.112734 0
M  V30 10445 H 984.621 -3.97687 1.50749 0
M  V30 10446 N 982.937 -0.845659 -1.3299 0
M  V30 10447 C 984.185 -0.443774 -1.97168 0
M  V30 10448 C 984.506 1.00192 -1.67292 0
M  V30 10449 O 983.776 1.69891 -0.975397 0
M  V30 10450 H 982.356 -0.161111 -0.729419 0
M  V30 10451 H 985.018 -1.08011 -1.62233 0
M  V30 10452 H 984.114 -0.581414 -3.06637 0
M  V30 10453 N 984.415 1.45619 -0.602734 0
M  V30 10454 C 985.664 2.01483 -0.0936395 0
M  V30 10455 C 985.977 1.47753 1.28173 0
M  V30 10456 O 987.183 1.95562 1.88329 0
M  V30 10457 C 985.639 3.59711 -0.116738 0
M  V30 10458 C 985.247 4.22437 -1.49166 0
M  V30 10459 C 986.991 4.23157 0.337368 0
M  V30 10460 C 984.898 5.72803 -1.47141 0
M  V30 10461 H 983.828 0.753353 -0.0312382 0
M  V30 10462 H 986.479 1.67142 -0.757347 0
M  V30 10463 H 984.861 3.91218 0.613529 0
M  V30 10464 H 986.035 4.02511 -2.24325 0
M  V30 10465 H 984.35 3.71166 -1.88746 0
M  V30 10466 H 986.947 5.33407 0.371628 0
M  V30 10467 H 987.29 3.93491 1.35906 0
M  V30 10468 H 987.823 3.96349 -0.339474 0
M  V30 10469 H 984.562 6.07161 -2.47055 0
M  V30 10470 H 984.082 5.94936 -0.762329 0
M  V30 10471 H 985.761 6.35907 -1.19294 0
M  V30 10472 N 985.893 0.34162 1.53853 0
M  V30 10473 C 986.841 -0.531412 2.26448 0
M  V30 10474 C 987.835 -1.10357 1.28521 0
M  V30 10475 O 989.041 -1.04953 1.46236 0
M  V30 10476 H 985.416 -0.190054 0.727588 0
M  V30 10477 H 987.387 0.102922 2.98222 0
M  V30 10478 C 986.136 -1.67154 3.04885 0
M  V30 10479 H 985.459 -1.24055 3.80066 0
M  V30 10480 H 986.899 -2.25762 3.58898 0
M  V30 10481 C 985.358 -2.59984 2.14266 0
M  V30 10482 O 985.888 -3.62181 1.73746 0
M  V30 10483 N 984.094 -2.28625 1.79385 0
M  V30 10484 H 983.641 -1.45559 2.12533 0
M  V30 10485 H 983.599 -2.90995 1.19035 0
M  V30 10486 N 987.371 -1.57444 0.0701946 0
M  V30 10487 C 988.648 -1.84826 -0.6402 0
M  V30 10488 C 989.028 -0.962344 -1.87889 0
M  V30 10489 O 988.376 -0.0282209 -2.28483 0
M  V30 10490 C 988.586 -3.34976 -0.979382 0
M  V30 10491 C 989.934 -4.02448 -1.35355 0
M  V30 10492 O 990.958 -3.39713 -1.07116 0
M  V30 10493 O 989.817 -5.13096 -1.88136 0
M  V30 10494 H 986.911 -0.763494 -0.317813 0
M  V30 10495 H 989.457 -1.69399 0.101004 0
M  V30 10496 H 988.229 -3.91173 -0.0995576 0
M  V30 10497 H 987.852 -3.5566 -1.7774 0
M  V30 10498 N 988.849 0.203349 -1.56283 0
M  V30 10499 C 990.26 0.768764 -1.70138 0
M  V30 10500 C 990.611 1.8421 -0.675358 0
M  V30 10501 O 989.736 2.15732 0.1699 0
M  V30 10502 C 990.331 1.40123 -3.08466 0
M  V30 10503 C 988.89 1.91382 -3.24114 0
M  V30 10504 C 988.037 0.780685 -2.66084 0
M  V30 10505 H 990.988 -0.0215997 -1.58685 0
M  V30 10506 H 991.009 2.27046 -3.05336 0
M  V30 10507 H 990.521 0.619805 -3.83119 0
M  V30 10508 H 988.622 2.7227 -2.54362 0
M  V30 10509 H 988.735 2.08128 -4.31531 0
M  V30 10510 H 987.099 1.19281 -2.25042 0
M  V30 10511 H 987.882 0.0116351 -3.43298 0
M  V30 10512 N 990.327 1.50405 0.470755 0
M  V30 10513 C 991.743 1.37838 0.804534 0
M  V30 10514 C 991.943 0.434743 1.96754 0
M  V30 10515 O 990.999 -0.122507 2.52203 0
M  V30 10516 C 992.312 2.79212 1.11629 0
M  V30 10517 C 993.86 2.88129 1.22272 0
M  V30 10518 C 994.335 4.30337 1.5676 0
M  V30 10519 N 995.826 4.3329 1.63751 0
M  V30 10520 C 996.561 5.4032 1.91942 0
M  V30 10521 N 996.057 6.57558 2.18151 0
M  V30 10522 N 997.85 5.27764 1.93446 0
M  V30 10523 H 990.001 2.10332 -0.295689 0
M  V30 10524 H 992.264 0.945429 -0.0697733 0
M  V30 10525 H 991.97 3.50103 0.334778 0
M  V30 10526 H 991.844 3.16475 2.0524 0
M  V30 10527 H 994.231 2.17457 1.9949 0
M  V30 10528 H 994.312 2.54409 0.2664 0
M  V30 10529 H 993.956 5.01547 0.800817 0
M  V30 10530 H 993.886 4.61545 2.53543 0
M  V30 10531 H 996.377 3.48752 1.45535 0
M  V30 10532 H 996.69 7.34935 2.38936 0
M  V30 10533 H 995.035 6.60732 2.15542 0
M  V30 10534 H 998.226 4.35169 1.72468 0
M  V30 10535 H 998.399 6.11264 2.15081 0
M  V30 10536 N 991.805 -0.723954 1.39988 0
M  V30 10537 C 992.735 -1.85103 1.42335 0
M  V30 10538 C 993.716 -1.6769 0.285297 0
M  V30 10539 O 994.901 -1.87846 0.492716 0
M  V30 10540 C 992.031 -3.22972 1.27697 0
M  V30 10541 C 990.985 -3.55041 2.39018 0
M  V30 10542 C 990.311 -4.91965 2.09462 0
M  V30 10543 C 991.611 -3.56889 3.8135 0
M  V30 10544 H 993.305 -1.83396 2.36656 0
M  V30 10545 H 990.851 -0.880926 1.13911 0
M  V30 10546 H 992.804 -4.01503 1.27958 0
M  V30 10547 H 991.528 -3.25233 0.298487 0
M  V30 10548 H 990.187 -2.78845 2.37993 0
M  V30 10549 H 989.835 -4.90819 1.10025 0
M  V30 10550 H 989.535 -5.14389 2.84038 0
M  V30 10551 H 991.059 -5.7284 2.11391 0
M  V30 10552 H 992.473 -4.25476 3.84243 0
M  V30 10553 H 990.87 -3.90836 4.55376 0
M  V30 10554 H 991.94 -2.56452 4.11534 0
M  V30 10555 N 993.283 -1.25346 -0.955304 0
M  V30 10556 C 994.699 -1.02154 -1.22625 0
M  V30 10557 C 994.899 0.26206 -1.99789 0
M  V30 10558 O 993.955 0.974958 -2.32918 0
M  V30 10559 C 995.268 -2.2443 -2.00129 0
M  V30 10560 C 996.816 -2.29185 -2.13174 0
M  V30 10561 C 997.291 -3.51117 -2.94077 0
M  V30 10562 N 998.782 -3.51509 -3.01655 0
M  V30 10563 C 999.517 -4.42517 -3.64645 0
M  V30 10564 N 999.013 -5.43796 -4.29252 0
M  V30 10565 N 1000.81 -4.302 -3.61779 0
M  V30 10566 H 992.957 -2.07812 -0.439071 0
M  V30 10567 H 995.22 -0.91258 -0.256715 0
M  V30 10568 H 994.926 -3.17717 -1.50827 0
M  V30 10569 H 994.8 -2.27548 -3.00835 0
M  V30 10570 H 997.187 -1.36422 -2.61674 0
M  V30 10571 H 997.268 -2.30087 -1.11775 0
M  V30 10572 H 996.912 -4.44201 -2.46268 0
M  V30 10573 H 996.842 -3.4746 -3.95701 0
M  V30 10574 H 999.333 -2.78245 -2.55711 0
M  V30 10575 H 999.646 -6.09453 -4.75171 0
M  V30 10576 H 997.991 -5.4767 -4.27882 0
M  V30 10577 H 1001.18 -3.50304 -3.10491 0
M  V30 10578 H 1001.36 -5.01323 -4.10584 0
M  V30 10579 N 994.761 1.15782 -1.06922 0
M  V30 10580 C 995.709 2.22441 -0.679893 0
M  V30 10581 C 996.703 1.66591 0.307221 0
M  V30 10582 O 997.909 1.79182 0.171402 0
M  V30 10583 H 994.284 0.724427 -0.201765 0
M  V30 10584 H 996.255 2.52562 -1.58918 0
M  V30 10585 C 995.004 3.47586 -0.0891142 0
M  V30 10586 H 994.327 3.9088 -0.839805 0
M  V30 10587 H 995.767 4.2375 0.14569 0
M  V30 10588 C 994.226 3.15967 1.16903 0
M  V30 10589 O 994.756 3.32359 2.25611 0
M  V30 10590 N 992.962 2.70046 1.07349 0
M  V30 10591 H 992.509 2.56907 0.188825 0
M  V30 10592 H 992.467 2.49264 1.91611 0
M  V30 10593 N 996.239 0.8527 1.3254 0
M  V30 10594 C 997.65 0.510012 1.79599 0
M  V30 10595 C 998.001 -0.972002 1.70431 0
M  V30 10596 O 997.126 -1.7581 1.26173 0
M  V30 10597 C 997.721 0.918986 3.26098 0
M  V30 10598 C 996.28 0.628227 3.7112 0
M  V30 10599 C 995.427 1.11979 2.53685 0
M  V30 10600 H 998.378 1.04009 1.19866 0
M  V30 10601 H 998.399 0.234577 3.79776 0
M  V30 10602 H 997.911 1.99765 3.32739 0
M  V30 10603 H 996.012 -0.4398 3.69995 0
M  V30 10604 H 996.125 1.19315 4.64005 0
M  V30 10605 H 994.489 0.540133 2.48907 0
M  V30 10606 H 995.272 2.20552 2.63081 0
M  V30 10607 N 997.718 -1.45297 0.610449 0
M  V30 10608 C 998.943 -2.07101 0.111414 0
M  V30 10609 C 999.368 -1.45161 -1.19625 0
M  V30 10610 O 998.726 -0.545368 -1.72903 0
M  V30 10611 C 998.774 -3.60598 -0.0117372 0
M  V30 10612 O 997.878 -3.98512 -1.06122 0
M  V30 10613 H 997.219 -0.659709 0.075364 0
M  V30 10614 H 999.749 -1.86504 0.841269 0
M  V30 10615 H 999.759 -4.07464 -0.209028 0
M  V30 10616 H 998.434 -4.05067 0.943076 0
M  V30 10617 H 997.011 -3.63312 -0.840158 0
M  V30 10618 N 999.196 -0.349774 -1.5367 0
M  V30 10619 C 1000.47 0.300419 -1.93279 0
M  V30 10620 C 1000.85 1.67721 -1.28191 0
M  V30 10621 O 1000.2 2.24319 -0.435127 0
M  V30 10622 C 1000.41 0.366466 -3.47071 0
M  V30 10623 C 1001.76 0.614349 -4.20132 0
M  V30 10624 O 1002.78 0.448327 -3.53367 0
M  V30 10625 O 1001.64 0.936421 -5.38417 0
M  V30 10626 H 998.736 0.176599 -0.807924 0
M  V30 10627 H 1001.28 -0.401405 -1.64884 0
M  V30 10628 H 1000.05 -0.599455 -3.86681 0
M  V30 10629 H 999.677 1.11482 -3.81651 0
M  V30 10630 N 1000.67 1.57404 -0.0785433 0
M  V30 10631 C 1001.62 2.13104 0.88631 0
M  V30 10632 C 1002.59 1.04527 1.29086 0
M  V30 10633 O 1003.78 1.32226 1.37553 0
M  V30 10634 C 1000.92 2.70252 2.14611 0
M  V30 10635 C 1000.03 3.93007 1.79358 0
M  V30 10636 C 999.164 4.38376 3 0
M  V30 10637 C 998.203 5.53761 2.60796 0
M  V30 10638 N 997.34 5.94058 3.74219 0
M  V30 10639 H 1002.18 2.95243 0.404452 0
M  V30 10640 H 999.717 1.45894 0.187982 0
M  V30 10641 H 1001.67 3.01497 2.88367 0
M  V30 10642 H 1000.3 1.90868 2.60326 0
M  V30 10643 H 999.357 3.68181 0.956384 0
M  V30 10644 H 1000.67 4.76795 1.4652 0
M  V30 10645 H 999.823 4.71317 3.82027 0
M  V30 10646 H 998.562 3.53455 3.36037 0
M  V30 10647 H 997.567 5.20464 1.77192 0
M  V30 10648 H 998.792 6.40419 2.25922 0
M  V30 10649 H 996.738 5.12085 4.10005 0
M  V30 10650 H 996.655 6.72602 3.45171 0
M  V30 10651 H 997.923 6.31624 4.56805 0
M  V30 10652 N 1002.15 -0.195058 1.56388 0
M  V30 10653 C 1003.4 -0.915444 1.80626 0
M  V30 10654 C 1003.73 -1.83255 0.651768 0
M  V30 10655 O 1002.98 -1.92314 -0.362464 0
M  V30 10656 C 1003.28 -1.7637 3.10851 0
M  V30 10657 C 1002.95 -0.997572 4.39726 0
M  V30 10658 C 1001.61 -0.786043 4.74737 0
M  V30 10659 C 1003.96 -0.45851 5.19179 0
M  V30 10660 C 1001.29 -0.023972 5.86695 0
M  V30 10661 C 1003.64 0.29035 6.31933 0
M  V30 10662 C 1002.3 0.512895 6.65527 0
M  V30 10663 H 1001.57 -0.334985 0.660959 0
M  V30 10664 H 1004.22 -0.181815 1.90635 0
M  V30 10665 H 1002.53 -2.566 2.9608 0
M  V30 10666 H 1004.22 -2.3237 3.26811 0
M  V30 10667 H 1000.81 -1.17245 4.12252 0
M  V30 10668 H 1005 -0.609334 4.92545 0
M  V30 10669 H 1000.25 0.158421 6.11195 0
M  V30 10670 H 1004.43 0.715429 6.92715 0
M  V30 10671 H 1002.05 1.10531 7.52122 0
M  V30 10672 N 1003.63 -1.50653 -0.462772 0
M  V30 10673 C 1004.88 -1.61296 -1.21105 0
M  V30 10674 C 1005.19 -0.322757 -1.92919 0
M  V30 10675 O 1006.4 -0.308211 -2.69745 0
M  V30 10676 C 1004.85 -2.84752 -2.201 0
M  V30 10677 C 1004.46 -4.20681 -1.54051 0
M  V30 10678 C 1006.21 -3.04744 -2.95518 0
M  V30 10679 C 1004.11 -5.35314 -2.51381 0
M  V30 10680 H 1003.04 -0.60069 -0.455728 0
M  V30 10681 H 1005.69 -1.77093 -0.480656 0
M  V30 10682 H 1004.08 -2.62532 -2.96467 0
M  V30 10683 H 1005.25 -4.53187 -0.834168 0
M  V30 10684 H 1003.56 -4.06361 -0.908828 0
M  V30 10685 H 1006.16 -3.87559 -3.68378 0
M  V30 10686 H 1006.5 -2.16802 -3.55391 0
M  V30 10687 H 1007.04 -3.27185 -2.26263 0
M  V30 10688 H 1003.78 -6.25437 -1.96235 0
M  V30 10689 H 1003.3 -5.07216 -3.20144 0
M  V30 10690 H 1004.98 -5.66229 -3.1304 0
M  V30 10691 N 1005.11 0.71652 -1.4037 0
M  V30 10692 C 1006.34 1.50344 -1.41704 0
M  V30 10693 C 1006.75 1.89194 -0.0148011 0
M  V30 10694 O 1006.09 1.55916 0.971391 0
M  V30 10695 C 1006.15 2.80928 -2.2432 0
M  V30 10696 C 1005.82 2.64406 -3.72744 0
M  V30 10697 C 1006.81 2.31727 -4.65401 0
M  V30 10698 C 1004.5 2.807 -4.16549 0
M  V30 10699 C 1006.49 2.15551 -5.99847 0
M  V30 10700 C 1004.18 2.64141 -5.51065 0
M  V30 10701 C 1005.18 2.31614 -6.42529 0
M  V30 10702 O 1004.86 2.15179 -7.74566 0
M  V30 10703 H 1004.6 0.470574 -0.48532 0
M  V30 10704 H 1007.15 0.89152 -1.85043 0
M  V30 10705 H 1005.38 3.4445 -1.75759 0
M  V30 10706 H 1007.07 3.4264 -2.17607 0
M  V30 10707 H 1007.84 2.18773 -4.32855 0
M  V30 10708 H 1003.71 3.05005 -3.45677 0
M  V30 10709 H 1007.26 1.90084 -6.71203 0
M  V30 10710 H 1003.16 2.76679 -5.83197 0
M  V30 10711 H 1003.92 2.30106 -7.85489 0
M  V30 10712 N 1006.59 1.25851 0.948643 0
M  V30 10713 C 1007.55 1.0683 2.0278 0
M  V30 10714 C 1008.55 0.0191016 1.60789 0
M  V30 10715 O 1009.74 0.261836 1.72221 0
M  V30 10716 C 1006.87 0.623318 3.35153 0
M  V30 10717 H 1008.06 2.02635 2.21086 0
M  V30 10718 H 1005.62 1.08343 1.12657 0
M  V30 10719 H 1006.35 -0.337053 3.22544 0
M  V30 10720 H 1006.14 1.38082 3.66982 0
M  V30 10721 H 1007.63 0.511854 4.14451 0
M  V30 10722 N 1008.06 -1.15214 1.07534 0
M  V30 10723 C 1009.29 -1.89922 0.820804 0
M  V30 10724 C 1009.71 -1.78114 -0.626177 0
M  V30 10725 O 1009.06 -1.13435 -1.42964 0
M  V30 10726 C 1009.12 -3.40207 1.22236 0
M  V30 10727 O 1008.84 -3.51676 2.61257 0
M  V30 10728 C 1010.34 -4.31934 0.997393 0
M  V30 10729 H 1007.56 -0.601865 0.296647 0
M  V30 10730 H 1010.1 -1.45965 1.43229 0
M  V30 10731 H 1008.26 -3.8182 0.655167 0
M  V30 10732 H 1008.67 -4.44959 2.77689 0
M  V30 10733 H 1010.14 -5.35791 1.32785 0
M  V30 10734 H 1010.62 -4.3915 -0.0661599 0
M  V30 10735 H 1011.23 -3.96066 1.54958 0
M  V30 10736 N 1009.54 -0.859717 -1.32086 0
M  V30 10737 C 1010.79 -0.466271 -1.97367 0
M  V30 10738 C 1011.12 0.976728 -1.6785 0
M  V30 10739 O 1010.4 1.68618 -0.969449 0
M  V30 10740 C 1010.68 -0.711851 -3.52994 0
M  V30 10741 C 1010.53 -2.20364 -3.92122 0
M  V30 10742 C 1011.85 -0.17156 -4.39765 0
M  V30 10743 H 1008.97 -0.170883 -0.716916 0
M  V30 10744 H 1011.61 -1.07907 -1.56384 0
M  V30 10745 H 1009.76 -0.190258 -3.88034 0
M  V30 10746 H 1011.43 -2.7917 -3.67236 0
M  V30 10747 H 1009.68 -2.68019 -3.41099 0
M  V30 10748 H 1010.35 -2.32615 -5.00594 0
M  V30 10749 H 1012.82 -0.617665 -4.1149 0
M  V30 10750 H 1011.7 -0.372921 -5.47632 0
M  V30 10751 H 1011.96 0.925959 -4.32294 0
M  V30 10752 N 1011.02 1.44971 -0.618145 0
M  V30 10753 C 1011.97 2.30606 0.09449 0
M  V30 10754 C 1012.94 1.42725 0.849633 0
M  V30 10755 O 1014.12 1.71643 0.833266 0
M  V30 10756 C 1011.26 3.27803 1.07886 0
M  V30 10757 C 1010.38 4.30787 0.323488 0
M  V30 10758 C 1009.51 5.15085 1.29851 0
M  V30 10759 C 1008.55 6.09788 0.531561 0
M  V30 10760 N 1007.69 6.86829 1.4564 0
M  V30 10761 H 1012.53 2.91008 -0.641738 0
M  V30 10762 H 1010.06 1.43391 -0.328259 0
M  V30 10763 H 1012.02 3.82631 1.66281 0
M  V30 10764 H 1010.65 2.69131 1.78237 0
M  V30 10765 H 1009.7 3.78536 -0.376164 0
M  V30 10766 H 1011.02 4.98044 -0.274443 0
M  V30 10767 H 1010.17 5.74365 1.95421 0
M  V30 10768 H 1008.91 4.4787 1.93037 0
M  V30 10769 H 1007.91 5.49628 -0.137702 0
M  V30 10770 H 1009.14 6.79033 -0.0953993 0
M  V30 10771 H 1007.08 6.22295 2.07571 0
M  V30 10772 H 1007 7.50477 0.912167 0
M  V30 10773 H 1008.27 7.50642 2.10134 0
M  V30 10774 N 1012.5 0.357919 1.53482 0
M  V30 10775 C 1013.43 -0.526753 2.23065 0
M  V30 10776 C 1014.44 -1.05239 1.24212 0
M  V30 10777 O 1015.63 -0.960078 1.50482 0
M  V30 10778 C 1012.73 -1.73919 2.9087 0
M  V30 10779 C 1011.91 -1.34638 4.16163 0
M  V30 10780 C 1010.96 -2.42005 4.67247 0
M  V30 10781 O 1009.99 -2.04714 5.31113 0
M  V30 10782 N 1011.19 -3.73478 4.44404 0
M  V30 10783 H 1013.96 0.0692386 2.9962 0
M  V30 10784 H 1011.52 0.182726 1.60866 0
M  V30 10785 H 1013.51 -2.45207 3.21956 0
M  V30 10786 H 1012.08 -2.24223 2.17814 0
M  V30 10787 H 1011.3 -0.463667 3.91464 0
M  V30 10788 H 1012.59 -1.06012 4.97633 0
M  V30 10789 H 1011.99 -4.06555 3.93357 0
M  V30 10790 H 1010.54 -4.40893 4.80059 0
M  V30 10791 N 1013.98 -1.5736 0.0868897 0
M  V30 10792 C 1015.2 -1.98809 -0.590757 0
M  V30 10793 C 1015.63 -0.965407 -1.61436 0
M  V30 10794 O 1014.98 0.067143 -1.81176 0
M  V30 10795 C 1015.03 -3.39249 -1.22238 0
M  V30 10796 O 1014.14 -3.39706 -2.33824 0
M  V30 10797 H 1013.48 -0.64669 -0.150626 0
M  V30 10798 H 1016.01 -2.03927 0.165873 0
M  V30 10799 H 1016.02 -3.76765 -1.56564 0
M  V30 10800 H 1014.69 -4.13208 -0.472434 0
M  V30 10801 H 1013.27 -3.13977 -2.01178 0
M  V30 10802 N 1015.45 0.186762 -1.56489 0
M  V30 10803 C 1016.68 0.925916 -1.85584 0
M  V30 10804 C 1017.1 1.75708 -0.671446 0
M  V30 10805 O 1016.46 1.7728 0.379687 0
M  V30 10806 C 1016.51 1.79107 -3.12975 0
M  V30 10807 O 1015.61 2.89088 -2.94112 0
M  V30 10808 H 1014.96 0.260275 -0.610863 0
M  V30 10809 H 1017.49 0.189561 -2.0372 0
M  V30 10810 H 1017.5 2.19408 -3.43983 0
M  V30 10811 H 1016.17 1.18044 -3.98796 0
M  V30 10812 H 1014.75 2.52482 -2.74422 0
M  V30 10813 N 1016.93 1.50896 0.454776 0
M  V30 10814 C 1018.18 1.6294 1.20741 0
M  V30 10815 C 1018.51 0.336339 1.91265 0
M  V30 10816 O 1017.79 -0.663153 1.82846 0
M  V30 10817 C 1018.07 2.82092 2.23822 0
M  V30 10818 C 1017.92 4.21326 1.57495 0
M  V30 10819 C 1019.24 2.96777 3.24979 0
M  V30 10820 H 1016.36 0.59302 0.437603 0
M  V30 10821 H 1019 1.83331 0.498959 0
M  V30 10822 H 1017.15 2.64837 2.84243 0
M  V30 10823 H 1018.82 4.50209 1.00546 0
M  V30 10824 H 1017.07 4.24829 0.877664 0
M  V30 10825 H 1017.74 5.00656 2.32482 0
M  V30 10826 H 1020.21 3.12627 2.74597 0
M  V30 10827 H 1019.09 3.81742 3.94416 0
M  V30 10828 H 1019.35 2.08091 3.90065 0
M  V30 10829 N 1018.41 -0.709066 1.40748 0
M  V30 10830 C 1019.69 -1.4626 1.29874 0
M  V30 10831 C 1020.07 -2.10949 -0.0799322 0
M  V30 10832 O 1019.42 -2.00651 -1.09323 0
M  V30 10833 C 1019.63 -2.49302 2.44232 0
M  V30 10834 C 1020.97 -3.14945 2.84771 0
M  V30 10835 O 1022 -2.59623 2.43873 0
M  V30 10836 O 1020.86 -4.15111 3.5545 0
M  V30 10837 H 1017.95 -0.650716 0.51039 0
M  V30 10838 H 1020.5 -0.740687 1.52682 0
M  V30 10839 H 1019.27 -2.00063 3.36289 0
M  V30 10840 H 1018.89 -3.29021 2.23229 0
M  V30 10841 N 1019.89 -1.26353 -0.941956 0
M  V30 10842 C 1021.14 -1.11241 -1.68251 0
M  V30 10843 C 1021.45 0.344055 -1.9255 0
M  V30 10844 O 1022.66 0.615832 -2.64423 0
M  V30 10845 C 1021.11 -1.94269 -3.02965 0
M  V30 10846 C 1020.72 -3.44485 -2.86415 0
M  V30 10847 C 1022.47 -1.87764 -3.80716 0
M  V30 10848 C 1020.37 -4.19763 -4.16597 0
M  V30 10849 H 1019.3 -0.412694 -0.63103 0
M  V30 10850 H 1021.95 -1.50656 -1.04762 0
M  V30 10851 H 1020.34 -1.47687 -3.6743 0
M  V30 10852 H 1021.51 -3.9883 -2.30805 0
M  V30 10853 H 1019.82 -3.52218 -2.22107 0
M  V30 10854 H 1022.42 -2.41292 -4.77161 0
M  V30 10855 H 1022.76 -0.848195 -4.07568 0
M  V30 10856 H 1023.3 -2.32165 -3.23024 0
M  V30 10857 H 1020.04 -5.23173 -3.9493 0
M  V30 10858 H 1019.56 -3.70198 -4.71925 0
M  V30 10859 H 1021.24 -4.28168 -4.85058 0
M  V30 10860 N 1021.37 1.14642 -1.08144 0
M  V30 10861 C 1022.6 1.89209 -0.82966 0
M  V30 10862 C 1023.01 1.78697 0.621604 0
M  V30 10863 O 1022.35 1.14224 1.4387 0
M  V30 10864 C 1022.41 3.39958 -1.16915 0
M  V30 10865 C 1022.07 3.74254 -2.62264 0
M  V30 10866 C 1023.07 3.746 -3.60514 0
M  V30 10867 C 1020.76 4.04316 -2.9805 0
M  V30 10868 C 1022.75 4.04527 -4.92582 0
M  V30 10869 C 1020.44 4.33906 -4.30312 0
M  V30 10870 C 1021.44 4.33995 -5.27388 0
M  V30 10871 O 1021.12 4.62869 -6.57273 0
M  V30 10872 H 1020.86 0.606259 -0.299042 0
M  V30 10873 H 1023.41 1.46132 -1.44342 0
M  V30 10874 H 1021.64 3.83475 -0.498377 0
M  V30 10875 H 1023.33 3.95828 -0.89862 0
M  V30 10876 H 1024.09 3.51466 -3.34211 0
M  V30 10877 H 1019.97 4.03402 -2.23132 0
M  V30 10878 H 1023.52 4.04511 -5.68346 0
M  V30 10879 H 1019.41 4.5651 -4.56365 0
M  V30 10880 H 1020.18 4.80598 -6.62546 0
M  V30 10881 N 1022.85 0.866709 1.31628 0
M  V30 10882 C 1024.09 0.476026 1.96825 0
M  V30 10883 C 1024.42 -0.970994 1.68529 0
M  V30 10884 O 1023.68 -1.69823 0.97255 0
M  V30 10885 C 1023.97 0.676018 3.50948 0
M  V30 10886 C 1023.64 2.09533 3.99258 0
M  V30 10887 C 1022.3 2.48349 4.1216 0
M  V30 10888 C 1024.65 3.02112 4.24709 0
M  V30 10889 C 1021.98 3.78991 4.47864 0
M  V30 10890 C 1024.33 4.32266 4.61875 0
M  V30 10891 C 1023 4.71 4.72985 0
M  V30 10892 H 1022.27 0.17419 0.720235 0
M  V30 10893 H 1024.92 1.09907 1.5682 0
M  V30 10894 H 1023.22 -0.0301867 3.91788 0
M  V30 10895 H 1024.92 0.353604 3.99438 0
M  V30 10896 H 1021.51 1.78396 3.89709 0
M  V30 10897 H 1025.69 2.73351 4.14238 0
M  V30 10898 H 1020.95 4.08769 4.54663 0
M  V30 10899 H 1025.12 5.04055 4.80522 0
M  V30 10900 H 1022.75 5.72273 5.00407 0
M  V30 10901 N 1024.32 -1.44642 0.625825 0
M  V30 10902 C 1025.74 -1.56925 0.290992 0
M  V30 10903 C 1025.94 -1.61424 -1.20601 0
M  V30 10904 O 1025 -1.55439 -1.98985 0
M  V30 10905 C 1026.31 -2.84343 0.978242 0
M  V30 10906 C 1027.86 -2.98047 0.955882 0
M  V30 10907 C 1028.33 -4.2826 1.62349 0
M  V30 10908 N 1029.82 -4.35062 1.58983 0
M  V30 10909 C 1030.56 -5.34524 2.07538 0
M  V30 10910 N 1030.05 -6.4042 2.6426 0
M  V30 10911 N 1031.85 -5.25998 1.98198 0
M  V30 10912 H 1024 -1.39965 1.59761 0
M  V30 10913 H 1026.26 -0.670368 0.670306 0
M  V30 10914 H 1025.97 -2.86985 2.03304 0
M  V30 10915 H 1025.84 -3.73699 0.512726 0
M  V30 10916 H 1028.23 -2.94961 -0.0904292 0
M  V30 10917 H 1028.31 -2.10053 1.45984 0
M  V30 10918 H 1027.95 -4.32105 2.66923 0
M  V30 10919 H 1027.88 -5.15102 1.09441 0
M  V30 10920 H 1030.37 -3.59147 1.17565 0
M  V30 10921 H 1030.69 -7.1259 2.99056 0
M  V30 10922 H 1029.03 -6.41121 2.68308 0
M  V30 10923 H 1032.22 -4.42178 1.5361 0
M  V30 10924 H 1032.4 -6.03359 2.3635 0
M  V30 10925 N 1025.8 -0.366053 -1.5329 0
M  V30 10926 C 1027.22 -0.0150149 -1.59593 0
M  V30 10927 C 1027.42 1.46719 -1.38116 0
M  V30 10928 O 1026.47 2.22884 -1.18656 0
M  V30 10929 C 1027.79 -0.471374 -2.96982 0
M  V30 10930 C 1029.33 -0.425634 -3.10092 0
M  V30 10931 C 1029.81 -0.857812 -4.49895 0
M  V30 10932 N 1031.3 -0.81289 -4.56011 0
M  V30 10933 C 1032.04 -1.11898 -5.62376 0
M  V30 10934 N 1031.53 -1.49436 -6.76491 0
M  V30 10935 N 1033.32 -1.04174 -5.52362 0
M  V30 10936 H 1025.48 -1.33127 -1.65502 0
M  V30 10937 H 1027.74 -0.544172 -0.776261 0
M  V30 10938 H 1027.44 -1.50569 -3.1784 0
M  V30 10939 H 1027.32 0.141764 -3.76934 0
M  V30 10940 H 1029.71 0.599548 -2.88945 0
M  V30 10941 H 1029.79 -1.07427 -2.32149 0
M  V30 10942 H 1029.43 -1.88111 -4.7178 0
M  V30 10943 H 1029.36 -0.186419 -5.2627 0
M  V30 10944 H 1031.85 -0.536343 -3.74075 0
M  V30 10945 H 1032.16 -1.71217 -7.53594 0
M  V30 10946 H 1030.51 -1.53302 -6.77882 0
M  V30 10947 H 1033.7 -0.747654 -4.62091 0
M  V30 10948 H 1033.87 -1.28362 -6.35159 0
M  V30 10949 N 1027.28 1.57312 -0.0952337 0
M  V30 10950 C 1028.21 2.11059 0.893678 0
M  V30 10951 C 1029.22 1.04787 1.24594 0
M  V30 10952 O 1030.41 1.32233 1.19903 0
M  V30 10953 C 1027.51 2.57552 2.20272 0
M  V30 10954 C 1026.69 3.87661 2.02578 0
M  V30 10955 C 1025.75 4.2 3.16996 0
M  V30 10956 O 1024.77 4.89219 2.90953 0
M  V30 10957 N 1025.97 3.75414 4.42769 0
M  V30 10958 H 1028.74 2.96532 0.434632 0
M  V30 10959 H 1026.3 1.6165 0.0898661 0
M  V30 10960 H 1028.29 2.76232 2.95766 0
M  V30 10961 H 1026.86 1.7709 2.576 0
M  V30 10962 H 1026.08 3.78128 1.11413 0
M  V30 10963 H 1027.37 4.7278 1.88032 0
M  V30 10964 H 1026.77 3.1954 4.66809 0
M  V30 10965 H 1025.32 3.99249 5.15212 0
M  V30 10966 N 1028.76 -0.17846 1.56586 0
M  V30 10967 C 1030 -0.897562 1.81856 0
M  V30 10968 C 1030.34 -1.82204 0.671955 0
M  V30 10969 O 1029.61 -1.91739 -0.326535 0
M  V30 10970 C 1029.89 -1.69942 3.17477 0
M  V30 10971 C 1029.75 -0.798545 4.42655 0
M  V30 10972 C 1031.07 -2.66861 3.49962 0
M  V30 10973 H 1028.19 -0.324863 0.661539 0
M  V30 10974 H 1030.83 -0.164106 1.8929 0
M  V30 10975 H 1028.98 -2.32471 3.11271 0
M  V30 10976 H 1030.65 -0.18668 4.60922 0
M  V30 10977 H 1028.89 -0.106181 4.3367 0
M  V30 10978 H 1029.56 -1.39496 5.34083 0
M  V30 10979 H 1032.04 -2.1446 3.56576 0
M  V30 10980 H 1030.92 -3.20037 4.45946 0
M  V30 10981 H 1031.18 -3.46715 2.74301 0
M  V30 10982 N 1030.24 -1.51135 -0.446768 0
M  V30 10983 C 1031.15 -1.74595 -1.56696 0
M  V30 10984 C 1032.16 -0.629816 -1.62201 0
M  V30 10985 O 1033.34 -0.910987 -1.79619 0
M  V30 10986 C 1030.4 -1.85738 -2.9275 0
M  V30 10987 C 1029.46 -3.09564 -2.97437 0
M  V30 10988 C 1028.7 -3.20165 -4.27001 0
M  V30 10989 O 1028.92 -2.36939 -5.1886 0
M  V30 10990 O 1027.85 -4.13077 -4.3778 0
M  V30 10991 H 1031.68 -2.69601 -1.39817 0
M  V30 10992 H 1029.26 -1.35523 -0.628805 0
M  V30 10993 H 1031.15 -1.95107 -3.73512 0
M  V30 10994 H 1029.82 -0.939184 -3.09776 0
M  V30 10995 H 1028.73 -3.05679 -2.15664 0
M  V30 10996 H 1030.06 -4.01041 -2.85353 0
M  V30 10997 N 1031.71 0.701592 -1.41122 0
M  V30 10998 C 1032.64 1.82815 -1.45262 0
M  V30 10999 C 1033.62 1.67215 -0.311939 0
M  V30 11000 O 1034.81 1.87038 -0.522538 0
M  V30 11001 C 1031.94 3.20899 -1.32819 0
M  V30 11002 C 1030.89 3.51194 -2.44636 0
M  V30 11003 C 1030.22 4.8857 -2.17263 0
M  V30 11004 C 1031.52 3.50777 -3.86979 0
M  V30 11005 H 1033.21 1.79608 -2.39544 0
M  V30 11006 H 1030.76 0.862693 -1.15298 0
M  V30 11007 H 1032.71 3.99417 -1.34329 0
M  V30 11008 H 1031.44 3.24717 -0.350191 0
M  V30 11009 H 1030.1 2.75024 -2.42399 0
M  V30 11010 H 1029.74 4.89007 -1.17819 0
M  V30 11011 H 1029.44 5.09805 -2.92186 0
M  V30 11012 H 1030.97 5.69405 -2.20478 0
M  V30 11013 H 1032.38 4.19309 -3.90964 0
M  V30 11014 H 1030.78 3.83542 -4.61536 0
M  V30 11015 H 1031.85 2.49873 -4.15562 0
M  V30 11016 N 1033.19 1.2685 0.935242 0
M  V30 11017 C 1034.42 1.15645 1.72165 0
M  V30 11018 C 1034.84 -0.283909 1.85945 0
M  V30 11019 O 1034.2 -1.20567 1.354 0
M  V30 11020 C 1034.25 1.83689 3.10307 0
M  V30 11021 O 1033.35 1.12972 3.96625 0
M  V30 11022 H 1032.69 0.402629 0.528002 0
M  V30 11023 H 1035.22 1.67781 1.17093 0
M  V30 11024 H 1035.23 1.90749 3.60664 0
M  V30 11025 H 1033.91 2.88472 2.99595 0
M  V30 11026 H 1032.48 1.13929 3.5507 0
M  V30 11027 N 1034.67 -1.14067 1.0875 0
M  V30 11028 C 1035.9 -1.89041 0.840902 0
M  V30 11029 C 1036.31 -1.78768 -0.60725 0
M  V30 11030 O 1035.67 -1.14945 -1.41753 0
M  V30 11031 C 1035.72 -3.38891 1.25838 0
M  V30 11032 O 1035.44 -3.48886 2.64972 0
M  V30 11033 C 1036.94 -4.30852 1.04315 0
M  V30 11034 H 1034.16 -0.598685 0.303014 0
M  V30 11035 H 1036.71 -1.44438 1.44769 0
M  V30 11036 H 1034.86 -3.81103 0.695627 0
M  V30 11037 H 1035.28 -4.41989 2.82393 0
M  V30 11038 H 1036.75 -5.34353 1.38461 0
M  V30 11039 H 1037.23 -4.39196 -0.0195784 0
M  V30 11040 H 1037.83 -3.944 1.59151 0
M  V30 11041 N 1036.15 -0.873678 -1.31166 0
M  V30 11042 C 1037.08 -0.276805 -2.26515 0
M  V30 11043 C 1038.06 0.596166 -1.51277 0
M  V30 11044 O 1039.24 0.548769 -1.80335 0
M  V30 11045 C 1036.37 0.607711 -3.33203 0
M  V30 11046 C 1035.42 -0.194411 -4.26057 0
M  V30 11047 S 1036.25 -1.57534 -5.11804 0
M  V30 11048 C 1037.41 -0.697047 -6.22006 0
M  V30 11049 H 1037.64 -1.08505 -2.76792 0
M  V30 11050 H 1035.17 -0.672419 -1.38989 0
M  V30 11051 H 1037.13 1.11234 -3.95142 0
M  V30 11052 H 1035.79 1.38994 -2.81673 0
M  V30 11053 H 1034.98 0.480094 -5.01708 0
M  V30 11054 H 1034.59 -0.631262 -3.68634 0
M  V30 11055 H 1036.88 0.0907919 -6.77439 0
M  V30 11056 H 1037.82 -1.42481 -6.93617 0
M  V30 11057 H 1038.23 -0.262954 -5.63887 0
M  V30 11058 N 1037.63 1.44308 -0.633487 0
M  V30 11059 C 1038.86 2.06085 -0.145852 0
M  V30 11060 C 1039.26 1.47432 1.18577 0
M  V30 11061 O 1038.61 0.592575 1.7388 0
M  V30 11062 C 1038.67 3.59477 0.0407848 0
M  V30 11063 C 1038.33 4.40607 -1.21304 0
M  V30 11064 C 1039.33 4.73937 -2.13728 0
M  V30 11065 C 1037.02 4.80943 -1.44911 0
M  V30 11066 C 1039.01 5.46489 -3.28068 0
M  V30 11067 C 1036.7 5.53243 -2.59548 0
M  V30 11068 C 1037.69 5.85936 -3.50953 0
M  V30 11069 O 1037.38 6.56764 -4.6359 0
M  V30 11070 H 1037.11 0.671484 -0.0780085 0
M  V30 11071 H 1039.67 1.86128 -0.868658 0
M  V30 11072 H 1037.9 3.77933 0.818761 0
M  V30 11073 H 1039.59 4.03013 0.483273 0
M  V30 11074 H 1040.35 4.43311 -1.96725 0
M  V30 11075 H 1036.23 4.54915 -0.746537 0
M  V30 11076 H 1039.78 5.71924 -3.99435 0
M  V30 11077 H 1035.67 5.83285 -2.76493 0
M  V30 11078 H 1036.44 6.75234 -4.62602 0
M  V30 11079 N 1039.1 0.374177 1.53094 0
M  V30 11080 C 1040.52 0.0234783 1.59583 0
M  V30 11081 C 1040.72 -1.45984 1.38892 0
M  V30 11082 O 1039.78 -2.22251 1.19836 0
M  V30 11083 C 1041.09 0.487117 2.96728 0
M  V30 11084 C 1042.64 0.442073 3.09862 0
M  V30 11085 C 1043.11 0.881659 4.49434 0
M  V30 11086 N 1044.6 0.837062 4.55574 0
M  V30 11087 C 1045.34 1.14878 5.61774 0
M  V30 11088 N 1044.83 1.53022 6.75689 0
M  V30 11089 N 1046.63 1.07102 5.51802 0
M  V30 11090 H 1038.78 1.34003 1.64794 0
M  V30 11091 H 1041.04 0.548281 0.773364 0
M  V30 11092 H 1040.75 1.52252 3.17037 0
M  V30 11093 H 1040.62 -0.121772 3.77003 0
M  V30 11094 H 1043.01 -0.584216 2.89259 0
M  V30 11095 H 1043.09 1.08657 2.31576 0
M  V30 11096 H 1042.73 1.90611 4.70776 0
M  V30 11097 H 1042.66 0.214326 5.26164 0
M  V30 11098 H 1045.15 0.556173 3.73785 0
M  V30 11099 H 1045.47 1.75211 7.52676 0
M  V30 11100 H 1043.81 1.56895 6.77059 0
M  V30 11101 H 1047 0.772149 4.61688 0
M  V30 11102 H 1047.18 1.31728 6.3447 0
M  V30 11103 N 1040.58 -1.57259 0.103575 0
M  V30 11104 C 1041.53 -2.11032 -0.863101 0
M  V30 11105 C 1042.52 -1.02737 -1.2383 0
M  V30 11106 O 1043.71 -1.28997 -1.21197 0
M  V30 11107 C 1040.84 -2.70099 -2.11899 0
M  V30 11108 C 1039.92 -3.85451 -1.76885 0
M  V30 11109 N 1040.31 -4.93137 -1.12469 0
M  V30 11110 C 1038.61 -3.95346 -2.06441 0
M  V30 11111 C 1039.31 -5.73681 -0.962527 0
M  V30 11112 N 1038.29 -5.22992 -1.48258 0
M  V30 11113 H 1042.09 -2.91671 -0.361264 0
M  V30 11114 H 1039.61 -1.62096 -0.0993794 0
M  V30 11115 H 1041.6 -3.06957 -2.82104 0
M  V30 11116 H 1040.26 -1.90918 -2.62641 0
M  V30 11117 H 1041.27 -5.11832 -0.790489 0
M  V30 11118 H 1037.95 -3.27185 -2.59338 0
M  V30 11119 H 1039.34 -6.70337 -0.458098 0
M  V30 11120 N 1042.06 0.170153 -1.56679 0
M  V30 11121 C 1042.99 1.23945 -1.91606 0
M  V30 11122 C 1043.97 1.42725 -0.779004 0
M  V30 11123 O 1045.16 1.57712 -1.03243 0
M  V30 11124 C 1042.28 2.60222 -2.168 0
M  V30 11125 C 1041.33 2.58172 -3.39484 0
M  V30 11126 S 1042.16 2.0714 -4.93815 0
M  V30 11127 C 1043.32 3.45192 -5.22105 0
M  V30 11128 H 1043.55 0.941345 -2.82004 0
M  V30 11129 H 1041.08 0.374771 -1.49783 0
M  V30 11130 H 1043.04 3.38656 -2.31996 0
M  V30 11131 H 1041.7 2.87232 -1.27107 0
M  V30 11132 H 1040.9 3.58435 -3.54317 0
M  V30 11133 H 1040.5 1.87834 -3.2341 0
M  V30 11134 H 1042.79 4.41194 -5.14154 0
M  V30 11135 H 1043.73 3.35233 -6.23718 0
M  V30 11136 H 1044.14 3.41257 -4.49671 0
M  V30 11137 N 1043.54 1.5137 0.438746 0
M  V30 11138 C 1044.45 1.75424 1.55768 0
M  V30 11139 C 1045.46 0.638409 1.61865 0
M  V30 11140 O 1046.64 0.9205 1.79133 0
M  V30 11141 C 1043.71 1.87288 2.9176 0
M  V30 11142 C 1042.77 3.11137 2.95791 0
M  V30 11143 C 1042 3.22425 4.25297 0
M  V30 11144 O 1042.22 2.39688 5.17596 0
M  V30 11145 O 1041.16 4.15393 4.35583 0
M  V30 11146 H 1044.98 2.70339 1.38386 0
M  V30 11147 H 1042.57 1.35854 0.621609 0
M  V30 11148 H 1044.45 1.97085 3.72472 0
M  V30 11149 H 1043.12 0.955599 3.09273 0
M  V30 11150 H 1042.03 3.06819 2.1404 0
M  V30 11151 H 1043.36 4.02549 2.83223 0
M  V30 11152 N 1045.02 -0.694098 1.41492 0
M  V30 11153 C 1045.96 -1.80801 1.43456 0
M  V30 11154 C 1046.93 -1.63571 0.288757 0
M  V30 11155 O 1048.12 -1.844 0.490017 0
M  V30 11156 C 1045.26 -3.18694 1.32394 0
M  V30 11157 C 1044.37 -3.47346 2.56855 0
M  V30 11158 C 1043.51 -4.74862 2.38075 0
M  V30 11159 C 1042.55 -4.96486 3.58005 0
M  V30 11160 N 1041.68 -6.15229 3.38287 0
M  V30 11161 H 1046.52 -1.78457 2.38657 0
M  V30 11162 H 1044.06 -0.871455 1.18508 0
M  V30 11163 H 1046.02 -3.98352 1.23982 0
M  V30 11164 H 1044.65 -3.20211 0.407999 0
M  V30 11165 H 1043.7 -2.62083 2.75711 0
M  V30 11166 H 1045.01 -3.59226 3.4606 0
M  V30 11167 H 1044.17 -5.62577 2.27139 0
M  V30 11168 H 1042.9 -4.6523 1.46329 0
M  V30 11169 H 1041.91 -4.07219 3.69395 0
M  V30 11170 H 1043.13 -5.07976 4.50708 0
M  V30 11171 H 1041.08 -6.06807 2.49242 0
M  V30 11172 H 1041 -6.27883 4.21069 0
M  V30 11173 H 1042.27 -7.05674 3.31126 0
M  V30 11174 N 1046.49 -1.27344 -0.928501 0
M  V30 11175 C 1047.44 -1.06656 -2.01515 0
M  V30 11176 C 1048.43 0.00516619 -1.60899 0
M  V30 11177 O 1049.62 -0.213277 -1.7571 0
M  V30 11178 C 1046.75 -0.714935 -3.35773 0
M  V30 11179 C 1045.84 -1.82476 -3.82836 0
M  V30 11180 N 1046.23 -3.06421 -4.02417 0
M  V30 11181 C 1044.52 -1.71126 -4.11864 0
M  V30 11182 C 1045.23 -3.78637 -4.41598 0
M  V30 11183 N 1044.2 -3.06396 -4.49024 0
M  V30 11184 H 1048 -2.00718 -2.14685 0
M  V30 11185 H 1045.52 -1.18048 -1.11528 0
M  V30 11186 H 1047.51 -0.54784 -4.13285 0
M  V30 11187 H 1046.17 0.218069 -3.23967 0
M  V30 11188 H 1047.19 -3.42191 -3.88749 0
M  V30 11189 H 1043.86 -0.849031 -4.08776 0
M  V30 11190 H 1045.25 -4.85159 -4.64834 0
M  V30 11191 N 1047.97 1.13488 -1.09353 0
M  V30 11192 C 1048.92 2.20949 -0.726923 0
M  V30 11193 C 1049.91 1.67205 0.271816 0
M  V30 11194 O 1051.12 1.79505 0.133356 0
M  V30 11195 H 1047.5 0.719985 -0.217086 0
M  V30 11196 H 1049.47 2.49134 -1.6424 0
M  V30 11197 C 1048.22 3.47319 -0.162822 0
M  V30 11198 H 1047.54 3.89011 -0.922527 0
M  V30 11199 H 1048.98 4.23963 0.0557734 0
M  V30 11200 C 1047.44 3.18376 1.10175 0
M  V30 11201 O 1047.97 3.3707 2.18511 0
M  V30 11202 N 1046.17 2.72262 1.01597 0
M  V30 11203 H 1045.72 2.5725 0.134289 0
M  V30 11204 H 1045.68 2.53272 1.86281 0
M  V30 11205 N 1049.45 0.880621 1.30701 0
M  V30 11206 C 1050.68 0.51094 2.00182 0
M  V30 11207 C 1051.09 -0.903914 1.66211 0
M  V30 11208 O 1050.43 -1.60529 0.893089 0
M  V30 11209 C 1050.49 0.600775 3.54445 0
M  V30 11210 C 1050.16 1.97915 4.1192 0
M  V30 11211 C 1051.16 2.94802 4.28238 0
M  V30 11212 C 1048.84 2.28336 4.47401 0
M  V30 11213 C 1050.83 4.20245 4.79242 0
M  V30 11214 C 1048.52 3.54026 4.98105 0
M  V30 11215 C 1049.52 4.49796 5.13978 0
M  V30 11216 O 1049.21 5.73256 5.63589 0
M  V30 11217 H 1048.94 0.196477 0.646818 0
M  V30 11218 H 1051.49 1.18659 1.67658 0
M  V30 11219 H 1049.72 -0.131832 3.86475 0
M  V30 11220 H 1051.41 0.242996 4.05172 0
M  V30 11221 H 1052.18 2.7261 4.01134 0
M  V30 11222 H 1048.06 1.54564 4.34317 0
M  V30 11223 H 1051.6 4.95003 4.91546 0
M  V30 11224 H 1047.5 3.76057 5.24644 0
M  V30 11225 H 1048.27 5.75577 5.81939 0
M  V30 11226 N 1050.93 -1.4397 0.641131 0
M  V30 11227 C 1051.84 -2.34526 -0.058742 0
M  V30 11228 C 1052.86 -1.53194 -0.825088 0
M  V30 11229 O 1054.03 -1.85888 -0.775081 0
M  V30 11230 C 1051.1 -3.31313 -1.02139 0
M  V30 11231 C 1050.16 -4.28552 -0.253319 0
M  V30 11232 C 1049.39 -5.20715 -1.17012 0
M  V30 11233 O 1049.61 -5.17028 -2.40911 0
M  V30 11234 O 1048.55 -5.9839 -0.649039 0
M  V30 11235 H 1052.37 -2.95843 0.686329 0
M  V30 11236 H 1049.96 -1.43909 0.401316 0
M  V30 11237 H 1051.84 -3.90862 -1.57496 0
M  V30 11238 H 1050.52 -2.72516 -1.7469 0
M  V30 11239 H 1049.42 -3.72519 0.343531 0
M  V30 11240 H 1050.76 -4.90297 0.432372 0
M  V30 11241 N 1052.41 -0.382291 -1.52893 0
M  V30 11242 C 1053.63 0.204961 -2.06385 0
M  V30 11243 C 1054.06 1.40316 -1.25271 0
M  V30 11244 O 1053.42 1.79187 -0.275969 0
M  V30 11245 C 1053.46 0.560205 -3.56222 0
M  V30 11246 O 1052.57 1.65515 -3.77728 0
M  V30 11247 H 1051.91 0.0258798 -0.663495 0
M  V30 11248 H 1054.44 -0.547733 -1.97132 0
M  V30 11249 H 1054.45 0.826501 -3.99541 0
M  V30 11250 H 1053.12 -0.31584 -4.14699 0
M  V30 11251 H 1051.7 1.38311 -3.46301 0
M  V30 11252 N 1053.89 1.57202 -0.111913 0
M  V30 11253 C 1054.85 2.13778 0.826534 0
M  V30 11254 C 1055.85 1.07097 1.19945 0
M  V30 11255 O 1057.04 1.32906 1.12613 0
M  V30 11256 C 1054.17 2.6722 2.11675 0
M  V30 11257 H 1055.36 2.98023 0.334975 0
M  V30 11258 H 1052.92 1.55696 0.137256 0
M  V30 11259 H 1053.65 1.86542 2.65278 0
M  V30 11260 H 1053.44 3.45235 1.8589 0
M  V30 11261 H 1054.93 3.10926 2.78774 0
M  V30 11262 N 1055.36 -0.161842 1.56767 0
M  V30 11263 C 1056.33 -1.18404 1.96247 0
M  V30 11264 C 1057.33 -1.3667 0.84722 0
M  V30 11265 O 1058.52 -1.33915 1.11411 0
M  V30 11266 C 1055.65 -2.54728 2.26553 0
M  V30 11267 H 1056.84 -0.845703 2.87729 0
M  V30 11268 H 1054.39 -0.404645 1.50971 0
M  V30 11269 H 1055.13 -2.93559 1.37816 0
M  V30 11270 H 1054.91 -2.42834 3.07854 0
M  V30 11271 H 1056.4 -3.28378 2.57987 0
M  V30 11272 N 1056.84 -1.516 -0.430713 0
M  V30 11273 C 1057.75 -1.76247 -1.54836 0
M  V30 11274 C 1058.77 -0.646985 -1.61524 0
M  V30 11275 O 1059.94 -0.929987 -1.78643 0
M  V30 11276 C 1057.01 -1.88833 -2.90763 0
M  V30 11277 C 1056.07 -3.12701 -2.94137 0
M  V30 11278 C 1055.3 -3.24676 -4.23581 0
M  V30 11279 O 1055.53 -2.42429 -5.16318 0
M  V30 11280 O 1054.46 -4.17697 -4.33374 0
M  V30 11281 H 1058.29 -2.71069 -1.3695 0
M  V30 11282 H 1055.87 -1.36182 -0.614396 0
M  V30 11283 H 1057.75 -1.99057 -3.71422 0
M  V30 11284 H 1056.43 -0.971987 -3.08762 0
M  V30 11285 H 1055.33 -3.0795 -2.1241 0
M  V30 11286 H 1056.67 -4.04045 -2.81084 0
M  V30 11287 N 1058.32 0.686584 -1.41858 0
M  V30 11288 C 1059.28 1.78214 -1.44126 0
M  V30 11289 C 1060.28 1.57366 -0.330541 0
M  V30 11290 O 1061.47 1.63874 -0.590837 0
M  V30 11291 C 1058.6 3.16704 -1.26142 0
M  V30 11292 H 1059.8 1.77594 -2.41661 0
M  V30 11293 H 1057.35 0.895085 -1.28132 0
M  V30 11294 H 1058.09 3.22957 -0.294823 0
M  V30 11295 H 1057.87 3.33238 -2.06627 0
M  V30 11296 H 1059.36 3.96658 -1.30584 0
M  V30 11297 N 1059.8 1.27835 0.921735 0
M  V30 11298 C 1061.05 1.13904 1.6646 0
M  V30 11299 C 1061.36 -0.313379 1.93073 0
M  V30 11300 O 1062.57 -0.573687 2.6537 0
M  V30 11301 C 1061.02 1.99064 2.99836 0
M  V30 11302 C 1060.63 3.48998 2.80899 0
M  V30 11303 C 1062.37 1.93797 3.77681 0
M  V30 11304 C 1060.28 4.26337 4.09867 0
M  V30 11305 H 1059.21 0.422681 0.624385 0
M  V30 11306 H 1061.86 1.52303 1.02352 0
M  V30 11307 H 1060.24 1.53514 3.65034 0
M  V30 11308 H 1061.42 4.02452 2.24431 0
M  V30 11309 H 1059.73 3.55707 2.16476 0
M  V30 11310 H 1062.33 2.48852 4.73262 0
M  V30 11311 H 1062.67 0.912928 4.06167 0
M  V30 11312 H 1063.21 2.37275 3.19289 0
M  V30 11313 H 1059.94 5.2939 3.86557 0
M  V30 11314 H 1059.46 3.77659 4.65976 0
M  V30 11315 H 1061.14 4.3583 4.78185 0
M  V30 11316 N 1061.28 -1.12907 1.09954 0
M  V30 11317 C 1062.21 -2.18194 0.701701 0
M  V30 11318 C 1063.22 -1.60724 -0.259131 0
M  V30 11319 O 1064.41 -1.78445 -0.0443549 0
M  V30 11320 C 1061.51 -3.38897 0.0140602 0
M  V30 11321 C 1060.68 -4.25867 0.997807 0
M  V30 11322 C 1059.74 -5.25084 0.34257 0
M  V30 11323 O 1058.77 -5.60492 0.991857 0
M  V30 11324 N 1059.97 -5.73464 -0.901058 0
M  V30 11325 H 1062.73 -2.52939 1.60755 0
M  V30 11326 H 1060.3 -1.28281 0.987703 0
M  V30 11327 H 1062.29 -4.02349 -0.435628 0
M  V30 11328 H 1060.86 -3.02345 -0.794118 0
M  V30 11329 H 1060.08 -3.59107 1.6259 0
M  V30 11330 H 1061.37 -4.80825 1.66388 0
M  V30 11331 H 1060.76 -5.46854 -1.44802 0
M  V30 11332 H 1059.32 -6.38827 -1.29398 0
M  V30 11333 N 1062.75 -0.88754 -1.30232 0
M  V30 11334 C 1063.72 -0.361095 -2.26338 0
M  V30 11335 C 1064.72 0.497871 -1.52898 0
M  V30 11336 O 1065.91 0.30466 -1.71515 0
M  V30 11337 C 1063.04 0.485135 -3.3743 0
M  V30 11338 H 1064.23 -1.20973 -2.74419 0
M  V30 11339 H 1061.78 -0.664619 -1.41466 0
M  V30 11340 H 1062.52 1.35425 -2.9467 0
M  V30 11341 H 1062.3 -0.130173 -3.91884 0
M  V30 11342 H 1063.79 0.845169 -4.08958 0
M  V30 11343 N 1064.23 1.43628 -0.648757 0
M  V30 11344 C 1065.48 2.02163 -0.160574 0
M  V30 11345 C 1065.81 1.51037 1.22072 0
M  V30 11346 O 1065.09 0.701633 1.81404 0
M  V30 11347 C 1065.37 3.59715 -0.166528 0
M  V30 11348 C 1065.22 4.21083 -1.58142 0
M  V30 11349 C 1066.54 4.37256 0.499485 0
M  V30 11350 H 1063.66 0.734568 -0.0598238 0
M  V30 11351 H 1066.3 1.70981 -0.828592 0
M  V30 11352 H 1064.45 3.86411 0.402302 0
M  V30 11353 H 1066.12 4.05433 -2.2005 0
M  V30 11354 H 1064.37 3.77904 -2.13005 0
M  V30 11355 H 1065.04 5.30156 -1.53748 0
M  V30 11356 H 1067.51 4.16097 0.0155561 0
M  V30 11357 H 1066.39 5.4693 0.464574 0
M  V30 11358 H 1066.65 4.13175 1.57286 0
M  V30 11359 N 1065.71 0.390394 1.52688 0
M  V30 11360 C 1067.13 0.0404028 1.59549 0
M  V30 11361 C 1067.33 -1.44503 1.40432 0
M  V30 11362 O 1066.38 -2.20968 1.22187 0
M  V30 11363 C 1067.7 0.518561 2.96195 0
M  V30 11364 C 1069.24 0.474913 3.09376 0
M  V30 11365 C 1069.72 0.929278 4.48473 0
M  V30 11366 N 1071.21 0.885335 4.5466 0
M  V30 11367 C 1071.94 1.2083 5.60524 0
M  V30 11368 N 1071.44 1.6018 6.74028 0
M  V30 11369 N 1073.23 1.12949 5.50635 0
M  V30 11370 H 1065.38 1.35743 1.63363 0
M  V30 11371 H 1067.65 0.556453 0.767505 0
M  V30 11372 H 1067.35 1.55606 3.15404 0
M  V30 11373 H 1067.23 -0.081779 3.77111 0
M  V30 11374 H 1069.61 -0.553503 2.89863 0
M  V30 11375 H 1069.7 1.11107 2.3041 0
M  V30 11376 H 1069.34 1.95593 4.68728 0
M  V30 11377 H 1069.27 0.270121 5.25907 0
M  V30 11378 H 1071.76 0.595787 3.73174 0
M  V30 11379 H 1072.07 1.83184 7.50775 0
M  V30 11380 H 1070.42 1.64067 6.75357 0
M  V30 11381 H 1073.61 0.821074 4.60843 0
M  V30 11382 H 1073.78 1.3845 6.33037 0
M  V30 11383 N 1067.19 -1.57141 0.120249 0
M  V30 11384 C 1068.47 -1.8677 -0.581075 0
M  V30 11385 C 1068.85 -1.02163 -1.84732 0
M  V30 11386 O 1068.19 -0.100897 -2.28277 0
M  V30 11387 C 1068.4 -3.37923 -0.872316 0
M  V30 11388 C 1069.75 -4.0655 -1.22483 0
M  V30 11389 O 1070.78 -3.42948 -0.962539 0
M  V30 11390 O 1069.63 -5.18821 -1.71717 0
M  V30 11391 H 1066.73 -0.773219 -0.293362 0
M  V30 11392 H 1069.27 -1.68992 0.154846 0
M  V30 11393 H 1068.05 -3.91292 0.0249416 0
M  V30 11394 H 1067.67 -3.61135 -1.66335 0
M  V30 11395 N 1068.67 0.153526 -1.5685 0
M  V30 11396 C 1069.61 1.20896 -1.98713 0
M  V30 11397 C 1070.61 1.44839 -0.878529 0
M  V30 11398 O 1071.81 1.45208 -1.0637 0
M  V30 11399 H 1068.19 0.406797 -0.632472 0
M  V30 11400 H 1070.16 0.829145 -2.86649 0
M  V30 11401 C 1068.91 2.53642 -2.37825 0
M  V30 11402 H 1068.23 2.36047 -3.22679 0
M  V30 11403 H 1069.67 3.26136 -2.70946 0
M  V30 11404 C 1068.13 3.13706 -1.22841 0
M  V30 11405 O 1068.66 3.98246 -0.525626 0
M  V30 11406 N 1066.87 2.73059 -0.99435 0
M  V30 11407 H 1066.41 2.0441 -1.56761 0
M  V30 11408 H 1066.37 3.1358 -0.226883 0
M  V30 11409 N 1070.14 1.51827 0.422667 0
M  V30 11410 C 1071.09 1.74198 1.51406 0
M  V30 11411 C 1072.06 0.584013 1.55494 0
M  V30 11412 O 1073.25 0.820079 1.72277 0
M  V30 11413 C 1070.39 1.88627 2.88988 0
M  V30 11414 C 1069.5 3.16233 2.94314 0
M  V30 11415 C 1068.63 3.21172 4.2311 0
M  V30 11416 C 1067.67 4.43033 4.2236 0
M  V30 11417 N 1066.81 4.4544 5.42704 0
M  V30 11418 H 1071.65 2.67352 1.31632 0
M  V30 11419 H 1069.19 1.32487 0.63919 0
M  V30 11420 H 1071.15 1.94976 3.68837 0
M  V30 11421 H 1069.78 0.988673 3.07287 0
M  V30 11422 H 1068.83 3.19123 2.07039 0
M  V30 11423 H 1070.14 4.06104 2.89623 0
M  V30 11424 H 1069.29 3.26517 5.11343 0
M  V30 11425 H 1068.03 2.29216 4.30478 0
M  V30 11426 H 1067.04 4.37849 3.32518 0
M  V30 11427 H 1068.26 5.3627 4.16643 0
M  V30 11428 H 1066.21 3.56361 5.50766 0
M  V30 11429 H 1066.13 5.29138 5.39953 0
M  V30 11430 H 1067.39 4.54997 6.32928 0
M  V30 11431 N 1071.62 -0.679052 1.4222 0
M  V30 11432 C 1072.55 -1.80481 1.48152 0
M  V30 11433 C 1073.53 -1.66698 0.338502 0
M  V30 11434 O 1074.72 -1.86183 0.552228 0
M  V30 11435 C 1071.85 -3.18746 1.37908 0
M  V30 11436 C 1070.8 -3.47258 2.50192 0
M  V30 11437 C 1070.13 -4.85052 2.25008 0
M  V30 11438 C 1071.43 -3.44576 3.92511 0
M  V30 11439 H 1073.12 -1.75774 2.42371 0
M  V30 11440 H 1070.67 -0.844241 1.16656 0
M  V30 11441 H 1072.62 -3.97229 1.40666 0
M  V30 11442 H 1071.35 -3.24119 0.401806 0
M  V30 11443 H 1070 -2.71133 2.46744 0
M  V30 11444 H 1069.65 -4.8707 1.25584 0
M  V30 11445 H 1069.35 -5.05092 3.00259 0
M  V30 11446 H 1070.88 -5.65825 2.29508 0
M  V30 11447 H 1072.29 -4.13036 3.97585 0
M  V30 11448 H 1070.69 -3.76151 4.67579 0
M  V30 11449 H 1071.76 -2.4323 4.19484 0
M  V30 11450 N 1073.1 -1.28322 -0.914942 0
M  V30 11451 C 1074.05 -1.08788 -2.00373 0
M  V30 11452 C 1075.03 -0.0118996 -1.60896 0
M  V30 11453 O 1076.23 -0.231902 -1.75474 0
M  V30 11454 C 1073.36 -0.750508 -3.34996 0
M  V30 11455 C 1072.44 -1.86527 -3.80879 0
M  V30 11456 N 1072.83 -3.10672 -3.99145 0
M  V30 11457 C 1071.13 -1.75485 -4.10026 0
M  V30 11458 C 1071.83 -3.833 -4.37557 0
M  V30 11459 N 1070.81 -3.11141 -4.45749 0
M  V30 11460 H 1074.61 -2.02984 -2.12544 0
M  V30 11461 H 1072.12 -1.19224 -1.1027 0
M  V30 11462 H 1074.12 -0.591644 -4.1268 0
M  V30 11463 H 1072.78 0.183696 -3.2418 0
M  V30 11464 H 1073.79 -3.46295 -3.85097 0
M  V30 11465 H 1070.47 -0.89234 -4.07852 0
M  V30 11466 H 1071.86 -4.90061 -4.59662 0
M  V30 11467 N 1074.58 1.12322 -1.10551 0
M  V30 11468 C 1075.54 2.16273 -0.758844 0
M  V30 11469 C 1076.54 1.59325 0.217294 0
M  V30 11470 O 1077.73 1.74199 -0.00601346 0
M  V30 11471 C 1074.86 3.40674 -0.124238 0
M  V30 11472 H 1076.06 2.48454 -1.6796 0
M  V30 11473 H 1073.61 1.2735 -0.906188 0
M  V30 11474 H 1074.34 3.14094 0.807194 0
M  V30 11475 H 1074.13 3.83284 -0.826772 0
M  V30 11476 H 1075.62 4.17474 0.102502 0
M  V30 11477 N 1076.06 0.894434 1.2976 0
M  V30 11478 C 1077.3 0.517669 1.95771 0
M  V30 11479 C 1077.63 -0.935028 1.70551 0
M  V30 11480 O 1076.89 -1.67722 1.00835 0
M  V30 11481 C 1077.19 0.750307 3.49435 0
M  V30 11482 C 1076.85 2.17955 3.94723 0
M  V30 11483 C 1075.51 2.57036 4.068 0
M  V30 11484 C 1077.87 3.11053 4.18205 0
M  V30 11485 C 1075.19 3.88406 4.39724 0
M  V30 11486 C 1077.55 4.41966 4.52602 0
M  V30 11487 C 1076.21 4.80927 4.62888 0
M  V30 11488 H 1075.48 0.189428 0.716378 0
M  V30 11489 H 1078.13 1.13209 1.54454 0
M  V30 11490 H 1076.43 0.0529242 3.91764 0
M  V30 11491 H 1078.13 0.438251 3.98598 0
M  V30 11492 H 1074.72 1.86622 3.85837 0
M  V30 11493 H 1078.9 2.82076 4.08347 0
M  V30 11494 H 1074.16 4.18321 4.4589 0
M  V30 11495 H 1078.33 5.14134 4.69722 0
M  V30 11496 H 1075.96 5.82759 4.88156 0
M  V30 11497 N 1077.53 -1.43282 0.656365 0
M  V30 11498 C 1078.78 -2.00996 0.168354 0
M  V30 11499 C 1079.1 -1.52408 -1.22601 0
M  V30 11500 O 1080.3 -2.02417 -1.80941 0
M  V30 11501 C 1078.76 -3.5903 0.250161 0
M  V30 11502 C 1078.37 -4.1661 1.64742 0
M  V30 11503 C 1080.11 -4.24118 -0.180084 0
M  V30 11504 C 1078.02 -5.66948 1.68299 0
M  V30 11505 H 1076.95 -0.751674 0.0591769 0
M  V30 11506 H 1079.6 -1.64216 0.818859 0
M  V30 11507 H 1077.98 -3.93226 -0.467908 0
M  V30 11508 H 1079.15 -3.93908 2.3911 0
M  V30 11509 H 1077.47 -3.63905 2.02391 0
M  V30 11510 H 1080.07 -5.34419 -0.173401 0
M  V30 11511 H 1080.41 -3.98264 -1.21208 0
M  V30 11512 H 1080.94 -3.94816 0.486343 0
M  V30 11513 H 1077.68 -5.97573 2.69419 0
M  V30 11514 H 1077.2 -5.91697 0.98261 0
M  V30 11515 H 1078.88 -6.31041 1.42813 0
M  V30 11516 N 1079.01 -0.398486 -1.52479 0
M  V30 11517 C 1080.26 0.17345 -2.02659 0
M  V30 11518 C 1080.61 1.43702 -1.27935 0
M  V30 11519 O 1079.91 1.87916 -0.37392 0
M  V30 11520 C 1080.1 0.485909 -3.54081 0
M  V30 11521 C 1079.93 -0.745833 -4.43472 0
M  V30 11522 C 1078.7 -1.26785 -4.89136 0
M  V30 11523 C 1080.9 -1.62085 -4.88091 0
M  V30 11524 N 1078.88 -2.45619 -5.62623 0
M  V30 11525 C 1080.25 -2.65552 -5.60252 0
M  V30 11526 C 1082.31 -1.63986 -4.7012 0
M  V30 11527 C 1081.01 -3.70818 -6.1635 0
M  V30 11528 C 1083.04 -2.68164 -5.27107 0
M  V30 11529 C 1082.4 -3.70353 -5.99181 0
M  V30 11530 H 1078.5 0.0253159 -0.78159 0
M  V30 11531 H 1081.08 -0.550442 -1.86757 0
M  V30 11532 H 1079.25 1.17885 -3.70078 0
M  V30 11533 H 1080.98 1.0458 -3.90954 0
M  V30 11534 H 1077.74 -0.827472 -4.66315 0
M  V30 11535 H 1078.16 -3.05771 -6.04014 0
M  V30 11536 H 1082.8 -0.863253 -4.13893 0
M  V30 11537 H 1080.52 -4.49341 -6.71653 0
M  V30 11538 H 1084.11 -2.7053 -5.15077 0
M  V30 11539 H 1082.99 -4.49642 -6.42489 0
M  V30 11540 N 1080.49 1.57075 -0.12858 0
M  V30 11541 C 1081.77 1.87075 0.571162 0
M  V30 11542 C 1082.15 1.03141 1.84188 0
M  V30 11543 O 1081.5 0.113001 2.2822 0
M  V30 11544 C 1081.71 3.3838 0.854383 0
M  V30 11545 C 1083.05 4.07194 1.20326 0
M  V30 11546 O 1084.08 3.43454 0.944338 0
M  V30 11547 O 1082.94 5.19725 1.68963 0
M  V30 11548 H 1080.03 0.774764 0.289258 0
M  V30 11549 H 1082.58 1.68908 -0.163806 0
M  V30 11550 H 1081.35 3.91273 -0.0456925 0
M  V30 11551 H 1080.97 3.62012 1.64418 0
M  V30 11552 N 1081.97 -0.145205 1.5693 0
M  V30 11553 C 1083.19 -0.876386 1.87974 0
M  V30 11554 C 1083.62 -1.73866 0.717795 0
M  V30 11555 O 1082.98 -1.78224 -0.332551 0
M  V30 11556 C 1083.03 -1.70746 3.17613 0
M  V30 11557 O 1082.13 -2.81188 3.01674 0
M  V30 11558 H 1081.47 -0.243987 0.617549 0
M  V30 11559 H 1084 -0.135482 2.04151 0
M  V30 11560 H 1084.01 -2.1021 3.49679 0
M  V30 11561 H 1082.69 -1.07429 4.01786 0
M  V30 11562 H 1081.26 -2.45117 2.81019 0
M  V30 11563 N 1083.45 -1.52049 -0.414609 0
M  V30 11564 C 1084.41 -1.74382 -1.4874 0
M  V30 11565 C 1085.41 -0.613701 -1.48628 0
M  V30 11566 O 1086.6 -0.88152 -1.50249 0
M  V30 11567 C 1083.73 -1.82116 -2.88178 0
M  V30 11568 H 1084.93 -2.70147 -1.30233 0
M  V30 11569 H 1082.48 -1.42382 -0.644756 0
M  V30 11570 H 1083.21 -0.882457 -3.12063 0
M  V30 11571 H 1083 -2.64268 -2.89663 0
M  V30 11572 H 1084.49 -2.01155 -3.65959 0
M  V30 11573 N 1084.93 0.6715 -1.42579 0
M  V30 11574 C 1086.17 1.43366 -1.43436 0
M  V30 11575 C 1086.5 1.94131 -0.0517339 0
M  V30 11576 O 1085.78 1.71121 0.924548 0
M  V30 11577 C 1086.06 2.62832 -2.46154 0
M  V30 11578 C 1085.92 2.17677 -3.9362 0
M  V30 11579 C 1087.23 3.65049 -2.4582 0
M  V30 11580 H 1084.35 0.519967 -0.522306 0
M  V30 11581 H 1087 0.762849 -1.74013 0
M  V30 11582 H 1085.15 3.20062 -2.2021 0
M  V30 11583 H 1086.82 1.65588 -4.30556 0
M  V30 11584 H 1085.06 1.49219 -4.07328 0
M  V30 11585 H 1085.73 3.03503 -4.61075 0
M  V30 11586 H 1088.21 3.17541 -2.68899 0
M  V30 11587 H 1087.08 4.46213 -3.19664 0
M  V30 11588 H 1087.34 4.16401 -1.48536 0
M  V30 11589 N 1086.4 1.28806 0.908124 0
M  V30 11590 C 1087.33 1.15758 2.02787 0
M  V30 11591 C 1088.31 0.053911 1.70015 0
M  V30 11592 O 1089.5 0.231901 1.9281 0
M  V30 11593 C 1086.63 0.824526 3.37371 0
M  V30 11594 C 1085.58 1.88359 3.84324 0
M  V30 11595 C 1084.91 1.40404 5.15937 0
M  V30 11596 C 1086.21 3.29108 4.05568 0
M  V30 11597 H 1087.9 2.09431 2.13961 0
M  V30 11598 H 1085.45 1.00831 1.02806 0
M  V30 11599 H 1087.4 0.71999 4.15204 0
M  V30 11600 H 1086.13 -0.147902 3.26265 0
M  V30 11601 H 1084.79 1.97736 3.087 0
M  V30 11602 H 1084.43 0.420515 5.01239 0
M  V30 11603 H 1084.13 2.11224 5.48323 0
M  V30 11604 H 1085.66 1.31283 5.9632 0
M  V30 11605 H 1087.07 3.2262 4.73909 0
M  V30 11606 H 1085.47 3.97812 4.49294 0
M  V30 11607 H 1086.54 3.72709 3.10187 0
M  V30 11608 N 1087.88 -1.11734 1.11145 0
M  V30 11609 C 1088.79 -2.21267 0.779607 0
M  V30 11610 C 1089.81 -1.72526 -0.225986 0
M  V30 11611 O 1090.98 -2.01302 -0.0629166 0
M  V30 11612 C 1088.05 -3.45973 0.22435 0
M  V30 11613 C 1087.11 -4.09518 1.28816 0
M  V30 11614 C 1086.34 -5.28271 0.7593 0
M  V30 11615 O 1086.57 -5.68912 -0.411725 0
M  V30 11616 O 1085.5 -5.82322 1.52266 0
M  V30 11617 H 1089.33 -2.5206 1.6941 0
M  V30 11618 H 1086.91 -1.20211 0.887115 0
M  V30 11619 H 1088.79 -4.21322 -0.0810921 0
M  V30 11620 H 1087.47 -3.1684 -0.662891 0
M  V30 11621 H 1086.37 -3.35915 1.64657 0
M  V30 11622 H 1087.71 -4.42824 2.14868 0
M  V30 11623 N 1089.36 -0.901303 -1.29284 0
M  V30 11624 C 1090.61 -0.528043 -1.95494 0
M  V30 11625 C 1090.93 0.92597 -1.71044 0
M  V30 11626 O 1090.19 1.67185 -1.01723 0
M  V30 11627 C 1090.49 -0.768828 -3.49033 0
M  V30 11628 C 1090.15 -2.20045 -3.93562 0
M  V30 11629 C 1088.82 -2.59189 -4.05431 0
M  V30 11630 C 1091.17 -3.13266 -4.1655 0
M  V30 11631 C 1088.5 -3.90733 -4.37658 0
M  V30 11632 C 1090.85 -4.4436 -4.50252 0
M  V30 11633 C 1089.51 -4.83375 -4.60331 0
M  V30 11634 H 1088.78 -0.193225 -0.715364 0
M  V30 11635 H 1091.43 -1.14027 -1.53851 0
M  V30 11636 H 1089.73 -0.0736997 -3.91731 0
M  V30 11637 H 1091.43 -0.459384 -3.9836 0
M  V30 11638 H 1088.02 -1.88666 -3.84842 0
M  V30 11639 H 1092.21 -2.84237 -4.06845 0
M  V30 11640 H 1087.46 -4.2068 -4.43665 0
M  V30 11641 H 1091.64 -5.16618 -4.66989 0
M  V30 11642 H 1089.26 -5.8534 -4.85058 0
M  V30 11643 N 1090.84 1.42931 -0.663954 0
M  V30 11644 C 1091.75 2.3459 0.0214234 0
M  V30 11645 C 1092.76 1.54487 0.800611 0
M  V30 11646 O 1093.94 1.87098 0.74541 0
M  V30 11647 C 1091 3.32896 0.968556 0
M  V30 11648 C 1090.07 4.28901 0.185108 0
M  V30 11649 C 1089.3 5.2251 1.08713 0
M  V30 11650 O 1089.52 5.20795 2.32655 0
M  V30 11651 O 1088.46 5.99347 0.553758 0
M  V30 11652 H 1092.28 2.94714 -0.733308 0
M  V30 11653 H 1089.87 1.43252 -0.424159 0
M  V30 11654 H 1091.75 3.93318 1.51257 0
M  V30 11655 H 1090.42 2.75261 1.70333 0
M  V30 11656 H 1089.33 3.71926 -0.402752 0
M  V30 11657 H 1090.66 4.89547 -0.510319 0
M  V30 11658 N 1092.32 0.406567 1.52266 0
M  V30 11659 C 1093.28 -0.408251 2.25535 0
M  V30 11660 C 1094.28 -0.975795 1.27808 0
M  V30 11661 O 1095.47 -0.855077 1.5177 0
M  V30 11662 C 1092.6 -1.57443 3.02365 0
M  V30 11663 H 1093.79 0.233459 2.9899 0
M  V30 11664 H 1091.35 0.159032 1.55489 0
M  V30 11665 H 1092.08 -2.25308 2.33252 0
M  V30 11666 H 1091.87 -1.17399 3.74112 0
M  V30 11667 H 1093.36 -2.15088 3.57948 0
M  V30 11668 N 1093.79 -1.57004 0.136909 0
M  V30 11669 C 1095.02 -2.00587 -0.527209 0
M  V30 11670 C 1095.44 -1.01628 -1.58283 0
M  V30 11671 O 1094.8 0.00946934 -1.81298 0
M  V30 11672 C 1094.85 -3.42967 -1.11384 0
M  V30 11673 O 1093.95 -3.46973 -2.22898 0
M  V30 11674 H 1093.3 -0.651155 -0.129976 0
M  V30 11675 H 1095.83 -2.03296 0.230667 0
M  V30 11676 H 1095.84 -3.81555 -1.44499 0
M  V30 11677 H 1094.51 -4.14502 -0.340736 0
M  V30 11678 H 1093.09 -3.20219 -1.91087 0
M  V30 11679 N 1095.27 0.136881 -1.57004 0
M  V30 11680 C 1096.2 1.19402 -1.95642 0
M  V30 11681 C 1097.22 1.38635 -0.853478 0
M  V30 11682 O 1098.41 1.38027 -1.13185 0
M  V30 11683 C 1095.51 2.55716 -2.22402 0
M  V30 11684 C 1094.68 2.57325 -3.53698 0
M  V30 11685 C 1093.74 3.75253 -3.68879 0
M  V30 11686 O 1092.76 3.5966 -4.41173 0
M  V30 11687 N 1093.97 4.93112 -3.06302 0
M  V30 11688 H 1096.73 0.865504 -2.8693 0
M  V30 11689 H 1094.29 0.326346 -1.58577 0
M  V30 11690 H 1096.28 3.33135 -2.29789 0
M  V30 11691 H 1094.85 2.80819 -1.37329 0
M  V30 11692 H 1094.07 1.65749 -3.5766 0
M  V30 11693 H 1095.36 2.55441 -4.40031 0
M  V30 11694 H 1094.76 5.08684 -2.47502 0
M  V30 11695 H 1093.32 5.68271 -3.19236 0
M  V30 11696 N 1096.75 1.52266 0.40654 0
M  V30 11697 C 1097.7 1.75794 1.4955 0
M  V30 11698 C 1098.67 0.600472 1.54866 0
M  V30 11699 O 1099.85 0.838305 1.71397 0
M  V30 11700 C 1096.99 1.91682 2.86971 0
M  V30 11701 C 1096.11 3.19337 2.90943 0
M  V30 11702 C 1095.24 3.25641 4.1968 0
M  V30 11703 C 1094.28 4.47488 4.17637 0
M  V30 11704 N 1093.42 4.51171 5.37949 0
M  V30 11705 H 1098.26 2.68733 1.28789 0
M  V30 11706 H 1095.79 1.33157 0.625102 0
M  V30 11707 H 1097.75 1.98877 3.66748 0
M  V30 11708 H 1096.38 1.02121 3.06221 0
M  V30 11709 H 1095.43 3.21301 2.03642 0
M  V30 11710 H 1096.75 4.09153 2.85299 0
M  V30 11711 H 1095.9 3.31922 5.07851 0
M  V30 11712 H 1094.64 2.33769 4.28023 0
M  V30 11713 H 1093.64 4.41351 3.27856 0
M  V30 11714 H 1094.87 5.40659 4.10932 0
M  V30 11715 H 1092.81 3.62182 5.46955 0
M  V30 11716 H 1092.73 5.34835 5.3431 0
M  V30 11717 H 1094 4.61685 6.28066 0
M  V30 11718 N 1098.23 -0.663929 1.42933 0
M  V30 11719 C 1099.47 -1.43583 1.45476 0
M  V30 11720 C 1099.83 -1.91862 0.0728387 0
M  V30 11721 O 1101.03 -2.68786 -0.0270249 0
M  V30 11722 C 1099.3 -2.59316 2.45947 0
M  V30 11723 S 1100.86 -3.48004 2.6728 0
M  V30 11724 H 1097.68 -0.490261 0.514942 0
M  V30 11725 H 1100.28 -0.771834 1.79619 0
M  V30 11726 H 1098.99 -2.22104 3.45106 0
M  V30 11727 H 1098.52 -3.30577 2.13266 0
M  V30 11728 H 1100.53 -4.55677 1.96399 0
M  V30 11729 N 1099.71 -1.29285 -0.901281 0
M  V30 11730 C 1100.98 -1.07847 -1.63182 0
M  V30 11731 C 1101.36 0.377927 -2.07689 0
M  V30 11732 O 1100.71 1.36642 -1.83143 0
M  V30 11733 C 1100.92 -2.06457 -2.81383 0
M  V30 11734 C 1102.27 -2.37289 -3.52107 0
M  V30 11735 O 1103.29 -2.0464 -2.91549 0
M  V30 11736 O 1102.15 -2.93067 -4.61274 0
M  V30 11737 H 1099.25 -0.413073 -0.71645 0
M  V30 11738 H 1101.79 -1.40651 -0.949488 0
M  V30 11739 H 1100.56 -3.04561 -2.4568 0
M  V30 11740 H 1100.19 -1.74374 -3.57323 0
M  V30 11741 N 1101.18 1.11143 -1.11736 0
M  V30 11742 C 1102.11 2.19339 -0.800795 0
M  V30 11743 C 1103.1 1.68508 0.23221 0
M  V30 11744 O 1104.28 1.93967 0.0950063 0
M  V30 11745 C 1101.41 3.46424 -0.246579 0
M  V30 11746 C 1100.36 4.10487 -1.21181 0
M  V30 11747 C 1099.69 5.32183 -0.518158 0
M  V30 11748 C 1100.99 4.55052 -2.56368 0
M  V30 11749 H 1102.68 2.46077 -1.70548 0
M  V30 11750 H 1100.23 1.18271 -0.821454 0
M  V30 11751 H 1102.18 4.21398 -0.0128889 0
M  V30 11752 H 1100.91 3.19154 0.693415 0
M  V30 11753 H 1099.57 3.3751 -1.43118 0
M  V30 11754 H 1099.21 5.01187 0.426742 0
M  V30 11755 H 1098.91 5.75997 -1.16196 0
M  V30 11756 H 1100.44 6.09895 -0.293333 0
M  V30 11757 H 1101.85 5.21335 -2.38501 0
M  V30 11758 H 1100.25 5.0969 -3.16758 0
M  V30 11759 H 1101.32 3.68343 -3.1536 0
M  V30 11760 N 1102.66 0.908147 1.28804 0
M  V30 11761 C 1103.91 0.539201 1.95501 0
M  V30 11762 C 1104.24 -0.913759 1.7136 0
M  V30 11763 O 1103.52 -1.64904 1.03136 0
M  V30 11764 C 1103.8 0.842372 3.50109 0
M  V30 11765 C 1103.65 2.34765 3.83673 0
M  V30 11766 C 1104.97 0.334658 4.38826 0
M  V30 11767 H 1102.09 0.197373 0.71008 0
M  V30 11768 H 1104.73 1.13637 1.52272 0
M  V30 11769 H 1102.88 0.334143 3.8706 0
M  V30 11770 H 1104.55 2.92607 3.56621 0
M  V30 11771 H 1102.8 2.80494 3.30916 0
M  V30 11772 H 1103.47 2.51034 4.91616 0
M  V30 11773 H 1105.94 0.769961 4.08914 0
M  V30 11774 H 1104.82 0.575914 5.4587 0
M  V30 11775 H 1105.08 -0.764878 4.35433 0
M  V30 11776 N 1104.14 -1.42577 0.671525 0
M  V30 11777 C 1105.37 -2.05924 0.200731 0
M  V30 11778 C 1105.78 -1.50434 -1.14083 0
M  V30 11779 O 1105.14 -0.642845 -1.70803 0
M  V30 11780 C 1105.19 -3.61289 0.123505 0
M  V30 11781 O 1104.91 -4.1472 1.41205 0
M  V30 11782 C 1106.41 -4.41743 -0.371178 0
M  V30 11783 H 1103.63 -0.663746 0.0983958 0
M  V30 11784 H 1106.18 -1.82771 0.917338 0
M  V30 11785 H 1104.33 -3.83565 -0.543769 0
M  V30 11786 H 1104.75 -5.0856 1.28325 0
M  V30 11787 H 1106.22 -5.50731 -0.374128 0
M  V30 11788 H 1106.7 -4.16092 -1.40585 0
M  V30 11789 H 1107.3 -4.24478 0.264244 0
M  V30 11790 N 1105.62 -0.414636 -1.52048 0
M  V30 11791 C 1106.85 0.158686 -2.06291 0
M  V30 11792 C 1107.26 1.38397 -1.2842 0
M  V30 11793 O 1106.62 1.79351 -0.337539 0
M  V30 11794 C 1106.67 0.503634 -3.57975 0
M  V30 11795 O 1106.39 -0.672996 -4.329 0
M  V30 11796 C 1107.89 1.13009 -4.28653 0
M  V30 11797 H 1105.11 0.0179622 -0.67076 0
M  V30 11798 H 1107.66 -0.587177 -1.95889 0
M  V30 11799 H 1105.81 1.19939 -3.68366 0
M  V30 11800 H 1106.22 -0.383735 -5.23094 0
M  V30 11801 H 1107.7 1.32162 -5.35945 0
M  V30 11802 H 1108.18 2.10476 -3.85482 0
M  V30 11803 H 1108.78 0.474379 -4.22646 0
M  V30 11804 N 1107.1 1.56929 -0.145233 0
M  V30 11805 C 1108.34 1.95681 0.50532 0
M  V30 11806 C 1108.67 1.03098 1.65516 0
M  V30 11807 O 1107.94 0.0921961 1.95683 0
M  V30 11808 H 1106.52 0.72252 0.189668 0
M  V30 11809 H 1109.18 1.93651 -0.220318 0
M  V30 11810 H 1108.27 2.99359 0.882631 0
M  V30 11811 N 1108.58 -0.128553 1.57075 0
M  V30 11812 C 1109.49 -1.17718 2.02927 0
M  V30 11813 C 1110.5 -1.45912 0.947932 0
M  V30 11814 O 1111.68 -1.57217 1.25876 0
M  V30 11815 C 1108.74 -2.48625 2.41633 0
M  V30 11816 C 1107.8 -2.27914 3.63804 0
M  V30 11817 C 1107.04 -3.52579 4.00654 0
M  V30 11818 O 1107.26 -4.59505 3.37952 0
M  V30 11819 O 1106.19 -3.44147 4.93808 0
M  V30 11820 H 1110.02 -0.817846 2.92481 0
M  V30 11821 H 1107.6 -0.338649 1.45511 0
M  V30 11822 H 1109.49 -3.2577 2.67305 0
M  V30 11823 H 1108.16 -2.84052 1.55229 0
M  V30 11824 H 1107.07 -1.4866 3.43294 0
M  V30 11825 H 1108.4 -1.97395 4.50883 0
M  V30 11826 N 1110.05 -1.5248 -0.398459 0
M  V30 11827 C 1110.98 -1.79549 -1.49279 0
M  V30 11828 C 1111.96 -0.647004 -1.57315 0
M  V30 11829 O 1113.15 -0.893661 -1.72416 0
M  V30 11830 C 1110.28 -1.95582 -2.86993 0
M  V30 11831 C 1109.23 -3.1123 -2.93803 0
M  V30 11832 C 1108.56 -3.12501 -4.33874 0
M  V30 11833 C 1109.86 -4.50485 -2.64312 0
M  V30 11834 H 1111.55 -2.71187 -1.26877 0
M  V30 11835 H 1109.1 -1.30492 -0.608924 0
M  V30 11836 H 1111.05 -2.13102 -3.63546 0
M  V30 11837 H 1109.78 -1.00625 -3.10712 0
M  V30 11838 H 1108.44 -2.93477 -2.19697 0
M  V30 11839 H 1108.08 -2.15245 -4.54619 0
M  V30 11840 H 1107.78 -3.90183 -4.39353 0
M  V30 11841 H 1109.31 -3.32164 -5.12347 0
M  V30 11842 H 1110.72 -4.68387 -3.30585 0
M  V30 11843 H 1109.12 -5.30163 -2.81153 0
M  V30 11844 H 1110.19 -4.57848 -1.59696 0
M  V30 11845 N 1111.53 0.65634 -1.43283 0
M  V30 11846 C 1112.78 1.41627 -1.44734 0
M  V30 11847 C 1113.11 1.94372 -0.0704893 0
M  V30 11848 O 1112.36 1.72511 0.924037 0
M  V30 11849 C 1112.66 2.61688 -2.43421 0
M  V30 11850 C 1112.33 2.2738 -3.8937 0
M  V30 11851 C 1110.99 2.17735 -4.29121 0
M  V30 11852 C 1113.34 1.99863 -4.81357 0
M  V30 11853 C 1110.67 1.78725 -5.58815 0
M  V30 11854 C 1113.02 1.62352 -6.11412 0
M  V30 11855 C 1111.68 1.51231 -6.50143 0
M  V30 11856 H 1110.95 0.51825 -0.529621 0
M  V30 11857 H 1113.6 0.746701 -1.76342 0
M  V30 11858 H 1111.91 3.33763 -2.05206 0
M  V30 11859 H 1113.6 3.19896 -2.41801 0
M  V30 11860 H 1110.19 2.35795 -3.57908 0
M  V30 11861 H 1114.38 2.06237 -4.5142 0
M  V30 11862 H 1109.63 1.68698 -5.87666 0
M  V30 11863 H 1113.81 1.40091 -6.82164 0
M  V30 11864 H 1111.43 1.20774 -7.50545 0
M  V30 11865 N 1113.01 1.29761 0.894412 0
M  V30 11866 C 1114.26 1.18039 1.64539 0
M  V30 11867 C 1114.58 -0.26697 1.92659 0
M  V30 11868 O 1113.84 -1.20865 1.53916 0
M  V30 11869 C 1114.14 1.94458 2.99868 0
M  V30 11870 C 1113.8 3.44143 2.91336 0
M  V30 11871 C 1112.47 3.84963 2.88716 0
M  V30 11872 C 1114.82 4.39503 2.80154 0
M  V30 11873 C 1112.15 5.19451 2.72741 0
M  V30 11874 C 1114.5 5.74088 2.65718 0
M  V30 11875 C 1113.16 6.14159 2.61467 0
M  V30 11876 H 1112.43 0.431936 0.60209 0
M  V30 11877 H 1115.08 1.60758 1.04063 0
M  V30 11878 H 1113.38 1.44346 3.64241 0
M  V30 11879 H 1115.08 1.82788 3.56917 0
M  V30 11880 H 1111.67 3.11699 2.9418 0
M  V30 11881 H 1115.86 4.08915 2.81251 0
M  V30 11882 H 1111.11 5.49602 2.67858 0
M  V30 11883 H 1115.29 6.47625 2.56038 0
M  V30 11884 H 1112.91 7.18317 2.48847 0
M  V30 11885 N 1114.49 -1.10549 1.12324 0
M  V30 11886 C 1115.9 -1.34508 0.85905 0
M  V30 11887 C 1116.1 -1.94901 -0.511468 0
M  V30 11888 O 1115.16 -2.18793 -1.2604 0
M  V30 11889 C 1116.47 -2.26788 1.97453 0
M  V30 11890 C 1118.02 -2.40328 2.00528 0
M  V30 11891 C 1118.5 -3.35936 3.11305 0
M  V30 11892 N 1119.99 -3.43504 3.1074 0
M  V30 11893 C 1120.72 -4.17449 3.93096 0
M  V30 11894 N 1120.22 -4.9429 4.85437 0
M  V30 11895 N 1122.01 -4.13055 3.81237 0
M  V30 11896 H 1114.16 -0.697171 2.00632 0
M  V30 11897 H 1116.42 -0.369548 0.873005 0
M  V30 11898 H 1116.13 -1.89621 2.96204 0
M  V30 11899 H 1116 -3.27086 1.87869 0
M  V30 11900 H 1118.39 -2.76765 1.02397 0
M  V30 11901 H 1118.47 -1.39849 2.14186 0
M  V30 11902 H 1118.12 -3.00225 4.09667 0
M  V30 11903 H 1118.05 -4.36291 2.94886 0
M  V30 11904 H 1120.54 -2.88702 2.43843 0
M  V30 11905 H 1120.85 -5.48109 5.4479 0
M  V30 11906 H 1119.2 -4.93419 4.89452 0
M  V30 11907 H 1122.39 -3.52117 3.08433 0
M  V30 11908 H 1122.56 -4.70424 4.45651 0
M  V30 11909 N 1115.97 -0.914965 -1.28321 0
M  V30 11910 C 1117.19 -0.564023 -1.99583 0
M  V30 11911 C 1117.62 0.847821 -1.6791 0
M  V30 11912 O 1116.97 1.56682 -0.912171 0
M  V30 11913 C 1117.02 -0.781368 -3.52033 0
M  V30 11914 O 1116.13 0.159072 -4.12093 0
M  V30 11915 H 1115.47 -0.218565 -0.626997 0
M  V30 11916 H 1118 -1.23074 -1.63444 0
M  V30 11917 H 1118.01 -0.691946 -4.0209 0
M  V30 11918 H 1116.68 -1.81059 -3.7442 0
M  V30 11919 H 1115.26 0.0208145 -3.72894 0
M  V30 11920 N 1117.44 1.42219 -0.679077 0
M  V30 11921 C 1118.69 2.01081 -0.202718 0
M  V30 11922 C 1119.01 1.53986 1.19639 0
M  V30 11923 O 1118.28 0.763359 1.80415 0
M  V30 11924 H 1116.86 0.743526 -0.0719547 0
M  V30 11925 H 1119.52 1.74077 -0.876544 0
M  V30 11926 H 1118.62 3.11411 -0.207314 0
M  V30 11927 N 1118.92 0.422693 1.51826 0
M  V30 11928 C 1120.17 -0.148641 2.01954 0
M  V30 11929 C 1120.5 -1.43982 1.30765 0
M  V30 11930 O 1119.75 -1.91428 0.406668 0
M  V30 11931 C 1120.05 -0.429516 3.5481 0
M  V30 11932 C 1119.72 0.774088 4.44206 0
M  V30 11933 C 1118.38 1.1042 4.6836 0
M  V30 11934 C 1120.73 1.5777 4.96747 0
M  V30 11935 C 1118.06 2.23887 5.42302 0
M  V30 11936 C 1120.41 2.70325 5.71933 0
M  V30 11937 C 1119.07 3.03807 5.94355 0
M  V30 11938 H 1118.34 -0.0543917 0.739001 0
M  V30 11939 H 1120.99 0.566892 1.82917 0
M  V30 11940 H 1119.3 -1.22678 3.72099 0
M  V30 11941 H 1120.99 -0.884761 3.91118 0
M  V30 11942 H 1117.58 0.506834 4.25593 0
M  V30 11943 H 1121.77 1.33589 4.77983 0
M  V30 11944 H 1117.02 2.50159 5.5788 0
M  V30 11945 H 1121.2 3.32974 6.11638 0
M  V30 11946 H 1118.82 3.91844 6.51431 0
M  V30 11947 N 1120.4 -1.5685 0.153553 0
M  V30 11948 C 1121.65 -1.95946 -0.494936 0
M  V30 11949 C 1121.97 -1.03975 -1.64967 0
M  V30 11950 O 1121.24 -0.102572 -1.95631 0
M  V30 11951 H 1119.82 -0.723516 -0.185833 0
M  V30 11952 H 1122.48 -1.93531 0.230585 0
M  V30 11953 H 1121.58 -2.99823 -0.866743 0
M  V30 11954 N 1121.88 0.120221 -1.57141 0
M  V30 11955 C 1123.13 0.826791 -1.83976 0
M  V30 11956 C 1123.44 1.81102 -0.739014 0
M  V30 11957 O 1124.65 2.56368 -0.893736 0
M  V30 11958 C 1123.1 1.52108 -3.26176 0
M  V30 11959 C 1122.71 0.577902 -4.44257 0
M  V30 11960 C 1124.45 2.21286 -3.62261 0
M  V30 11961 C 1122.36 1.27535 -5.77485 0
M  V30 11962 H 1121.29 0.312508 -0.686189 0
M  V30 11963 H 1123.94 0.0795343 -1.83328 0
M  V30 11964 H 1122.32 2.31492 -3.2129 0
M  V30 11965 H 1123.5 -0.182629 -4.60438 0
M  V30 11966 H 1121.81 -0.00684348 -4.16399 0
M  V30 11967 H 1124.41 2.74154 -4.59068 0
M  V30 11968 H 1124.75 2.99029 -2.89634 0
M  V30 11969 H 1125.29 1.48791 -3.68925 0
M  V30 11970 H 1122.02 0.539237 -6.53278 0
M  V30 11971 H 1121.54 2.00792 -5.65192 0
M  V30 11972 H 1123.22 1.80888 -6.21199 0
M  V30 11973 N 1123.36 1.52689 0.390367 0
M  V30 11974 C 1124.6 1.67335 1.13329 0
M  V30 11975 C 1124.93 0.415068 1.90531 0
M  V30 11976 O 1124.2 -0.570504 1.87409 0
M  V30 11977 H 1122.78 0.616821 0.421356 0
M  V30 11978 H 1125.44 1.89799 0.443 0
M  V30 11979 H 1124.53 2.52314 1.83696 0
M  V30 11980 N 1124.83 -0.648732 1.43629 0
M  V30 11981 C 1125.77 -1.77363 1.43589 0
M  V30 11982 C 1126.75 -1.59869 0.296783 0
M  V30 11983 O 1127.93 -1.81991 0.491065 0
M  V30 11984 C 1125.06 -3.1472 1.25175 0
M  V30 11985 C 1124.1 -3.50906 2.4242 0
M  V30 11986 S 1124.94 -3.50372 4.04968 0
M  V30 11987 C 1126.09 -4.90379 3.88946 0
M  V30 11988 H 1126.32 -1.77127 2.38774 0
M  V30 11989 H 1123.86 -0.821778 1.30714 0
M  V30 11990 H 1125.82 -3.93993 1.15239 0
M  V30 11991 H 1124.48 -3.12513 0.315303 0
M  V30 11992 H 1123.67 -4.50813 2.25353 0
M  V30 11993 H 1123.27 -2.79056 2.49006 0
M  V30 11994 H 1125.56 -5.79155 3.51548 0
M  V30 11995 H 1126.51 -5.12498 4.88622 0
M  V30 11996 H 1126.91 -4.64125 3.21323 0
M  V30 11997 N 1126.31 -1.30234 -0.887518 0
M  V30 11998 C 1127.73 -1.0851 -1.17037 0
M  V30 11999 C 1127.93 0.155788 -2.00897 0
M  V30 12000 O 1126.98 0.850123 -2.37759 0
M  V30 12001 C 1128.3 -2.34723 -1.87951 0
M  V30 12002 C 1129.85 -2.40163 -2.00726 0
M  V30 12003 C 1130.32 -3.66211 -2.75051 0
M  V30 12004 N 1131.81 -3.67004 -2.82599 0
M  V30 12005 C 1132.55 -4.61224 -3.40676 0
M  V30 12006 N 1132.04 -5.65786 -3.99823 0
M  V30 12007 N 1133.84 -4.48772 -3.38467 0
M  V30 12008 H 1125.99 -2.09847 -0.328297 0
M  V30 12009 H 1128.25 -0.924904 -0.20798 0
M  V30 12010 H 1127.96 -3.25265 -1.33773 0
M  V30 12011 H 1127.83 -2.43175 -2.8835 0
M  V30 12012 H 1130.22 -1.50101 -2.54074 0
M  V30 12013 H 1130.3 -2.35688 -0.994218 0
M  V30 12014 H 1129.94 -4.56631 -2.22376 0
M  V30 12015 H 1129.87 -3.67947 -3.76726 0
M  V30 12016 H 1132.36 -2.91409 -2.40602 0
M  V30 12017 H 1132.68 -6.33783 -4.42197 0
M  V30 12018 H 1131.02 -5.69581 -3.9825 0
M  V30 12019 H 1134.21 -3.6627 -2.91485 0
M  V30 12020 H 1134.38 -5.22382 -3.83433 0
M  V30 12021 N 1127.79 1.09952 -1.12909 0
M  V30 12022 C 1128.74 2.16436 -0.801514 0
M  V30 12023 C 1129.71 1.64444 0.233976 0
M  V30 12024 O 1130.89 1.90497 0.10743 0
M  V30 12025 C 1128.03 3.4406 -0.267753 0
M  V30 12026 C 1127.15 4.09979 -1.36165 0
M  V30 12027 C 1126.28 5.25341 -0.786803 0
M  V30 12028 C 1125.32 5.83172 -1.85948 0
M  V30 12029 N 1124.46 6.89904 -1.30298 0
M  V30 12030 H 1129.3 2.43799 -1.71365 0
M  V30 12031 H 1126.83 1.19665 -0.855499 0
M  V30 12032 H 1128.79 4.17157 0.0598031 0
M  V30 12033 H 1127.42 3.17031 0.607528 0
M  V30 12034 H 1126.47 3.34801 -1.8059 0
M  V30 12035 H 1127.79 4.48999 -2.17259 0
M  V30 12036 H 1126.94 6.05312 -0.410211 0
M  V30 12037 H 1125.68 4.87669 0.055279 0
M  V30 12038 H 1124.68 5.01867 -2.24521 0
M  V30 12039 H 1125.91 6.22907 -2.70487 0
M  V30 12040 H 1123.85 6.54221 -0.482806 0
M  V30 12041 H 1123.77 7.27662 -2.05046 0
M  V30 12042 H 1125.04 7.73643 -0.953779 0
M  V30 12043 N 1129.27 0.921757 1.27833 0
M  V30 12044 C 1130.55 0.477706 1.89677 0
M  V30 12045 C 1130.93 -1.04392 1.83481 0
M  V30 12046 O 1130.27 -1.89549 1.27606 0
M  V30 12047 C 1130.48 1.01709 3.33851 0
M  V30 12048 C 1131.83 1.074 4.10792 0
M  V30 12049 O 1132.86 0.966295 3.42843 0
M  V30 12050 O 1131.71 1.23909 5.32268 0
M  V30 12051 H 1128.81 0.15271 0.812778 0
M  V30 12052 H 1131.35 1.01306 1.36144 0
M  V30 12053 H 1130.13 2.061 3.32623 0
M  V30 12054 H 1129.75 0.463031 3.94895 0
M  V30 12055 N 1130.75 -1.41857 0.686609 0
M  V30 12056 C 1131.97 -2.06219 0.221037 0
M  V30 12057 C 1132.4 -1.51298 -1.11762 0
M  V30 12058 O 1131.75 -0.636253 -1.69769 0
M  V30 12059 C 1131.8 -3.60153 0.179425 0
M  V30 12060 O 1130.91 -4.03577 -0.848481 0
M  V30 12061 H 1130.25 -0.654787 0.110228 0
M  V30 12062 H 1132.78 -1.81783 0.938948 0
M  V30 12063 H 1132.79 -4.07999 0.00725332 0
M  V30 12064 H 1131.46 -3.99498 1.15647 0
M  V30 12065 H 1130.04 -3.67255 -0.646393 0
M  V30 12066 N 1132.22 -0.430739 -1.51599 0
M  V30 12067 C 1133.64 0.0339139 -1.86669 0
M  V30 12068 C 1133.99 1.42533 -1.34829 0
M  V30 12069 O 1133.11 2.04889 -0.696376 0
M  V30 12070 C 1133.71 0.0683174 -3.38731 0
M  V30 12071 C 1132.27 0.477363 -3.73361 0
M  V30 12072 C 1131.41 -0.334258 -2.75278 0
M  V30 12073 H 1134.36 -0.646875 -1.44918 0
M  V30 12074 H 1134.38 0.879179 -3.70204 0
M  V30 12075 H 1133.9 -0.944501 -3.76432 0
M  V30 12076 H 1132 1.49603 -3.41247 0
M  V30 12077 H 1132.11 0.206744 -4.78654 0
M  V30 12078 H 1130.47 0.206503 -2.53861 0
M  V30 12079 H 1131.26 -1.34583 -3.1582 0
M  V30 12080 N 1133.7 1.56767 -0.161869 0
M  V30 12081 C 1134.95 1.97661 0.479751 0
M  V30 12082 C 1135.3 1.04583 1.61493 0
M  V30 12083 O 1134.6 0.0836772 1.91417 0
M  V30 12084 C 1134.79 3.42567 1.01894 0
M  V30 12085 C 1134.62 4.49657 -0.0624633 0
M  V30 12086 C 1133.39 5.0273 -0.508935 0
M  V30 12087 C 1135.59 5.07069 -0.85941 0
M  V30 12088 N 1133.57 5.93442 -1.57163 0
M  V30 12089 C 1134.94 5.94131 -1.77225 0
M  V30 12090 C 1137 4.89596 -0.905543 0
M  V30 12091 C 1135.7 6.6559 -2.72731 0
M  V30 12092 C 1137.72 5.61769 -1.8485 0
M  V30 12093 C 1137.09 6.48551 -2.74884 0
M  V30 12094 H 1133.19 0.76864 0.14393 0
M  V30 12095 H 1135.77 1.92957 -0.259906 0
M  V30 12096 H 1133.94 3.47835 1.72815 0
M  V30 12097 H 1135.67 3.70493 1.62841 0
M  V30 12098 H 1132.43 4.73476 -0.1084 0
M  V30 12099 H 1132.85 6.43502 -2.10319 0
M  V30 12100 H 1137.49 4.22209 -0.223516 0
M  V30 12101 H 1135.21 7.32197 -3.41927 0
M  V30 12102 H 1138.8 5.50239 -1.89018 0
M  V30 12103 H 1137.68 7.03417 -3.46661 0
M  V30 12104 N 1135.18 -0.111886 1.57202 0
M  V30 12105 C 1136.13 -1.13688 2.00858 0
M  V30 12106 C 1137.1 -1.40752 0.881939 0
M  V30 12107 O 1138.28 -1.52498 1.14669 0
M  V30 12108 C 1135.42 -2.45641 2.42393 0
M  V30 12109 C 1134.54 -2.25452 3.68504 0
M  V30 12110 C 1133.67 -3.50686 3.9899 0
M  V30 12111 C 1132.71 -3.25685 5.18262 0
M  V30 12112 N 1131.85 -4.4314 5.44583 0
M  V30 12113 H 1136.69 -0.757611 2.88209 0
M  V30 12114 H 1134.22 -0.362582 1.42561 0
M  V30 12115 H 1136.18 -3.22627 2.64514 0
M  V30 12116 H 1134.81 -2.81447 1.58074 0
M  V30 12117 H 1133.86 -1.39349 3.53958 0
M  V30 12118 H 1135.18 -2.0296 4.55641 0
M  V30 12119 H 1134.33 -4.36087 4.21797 0
M  V30 12120 H 1133.07 -3.76216 3.10343 0
M  V30 12121 H 1132.07 -2.38675 4.95292 0
M  V30 12122 H 1133.3 -3.01518 6.08493 0
M  V30 12123 H 1131.24 -4.68778 4.58893 0
M  V30 12124 H 1131.16 -4.23778 6.26058 0
M  V30 12125 H 1132.43 -5.29654 5.71915 0
M  V30 12126 N 1136.66 -1.52894 -0.382264 0
M  V30 12127 C 1137.59 -1.74413 -1.48703 0
M  V30 12128 C 1138.6 -0.624663 -1.50339 0
M  V30 12129 O 1139.79 -0.900527 -1.54119 0
M  V30 12130 C 1136.89 -1.79387 -2.8753 0
M  V30 12131 C 1136.07 -3.08794 -3.09783 0
M  V30 12132 C 1135.12 -3.05226 -4.2863 0
M  V30 12133 O 1134.15 -3.79073 -4.24609 0
M  V30 12134 N 1135.35 -2.2488 -5.35172 0
M  V30 12135 H 1138.12 -2.69734 -1.30628 0
M  V30 12136 H 1135.68 -1.51465 -0.571842 0
M  V30 12137 H 1137.67 -1.74498 -3.65147 0
M  V30 12138 H 1136.24 -0.914233 -2.98932 0
M  V30 12139 H 1135.46 -3.27118 -2.19971 0
M  V30 12140 H 1136.75 -3.94347 -3.21509 0
M  V30 12141 H 1136.15 -1.64363 -5.41296 0
M  V30 12142 H 1134.7 -2.25825 -6.1143 0
M  V30 12143 N 1138.14 0.641106 -1.43971 0
M  V30 12144 C 1139.09 1.77474 -1.50352 0
M  V30 12145 C 1140.08 1.65173 -0.376052 0
M  V30 12146 O 1141.29 1.71373 -0.550572 0
M  V30 12147 H 1137.66 0.585747 -0.471597 0
M  V30 12148 H 1139.63 1.69213 -2.45784 0
M  V30 12149 C 1138.38 3.15778 -1.45532 0
M  V30 12150 H 1137.7 3.25886 -2.316 0
M  V30 12151 H 1139.14 3.95022 -1.54058 0
M  V30 12152 C 1137.6 3.36447 -0.174624 0
M  V30 12153 O 1138.13 3.9446 0.759215 0
M  V30 12154 N 1136.34 2.90487 -0.0809383 0
M  V30 12155 H 1135.89 2.43461 -0.841691 0
M  V30 12156 H 1135.84 3.04693 0.775231 0
M  V30 12157 N 1139.62 1.30703 0.880598 0
M  V30 12158 C 1140.86 1.19955 1.63519 0
M  V30 12159 C 1141.19 -0.244214 1.92658 0
M  V30 12160 O 1140.47 -1.17412 1.55063 0
M  V30 12161 C 1140.75 2.03302 2.97221 0
M  V30 12162 C 1140.61 3.55921 2.75028 0
M  V30 12163 C 1141.92 1.87421 3.98198 0
M  V30 12164 H 1139.04 0.43712 0.593376 0
M  V30 12165 H 1141.69 1.60382 1.01871 0
M  V30 12166 H 1139.84 1.68953 3.49839 0
M  V30 12167 H 1141.51 4.00352 2.29164 0
M  V30 12168 H 1139.75 3.79885 2.09452 0
M  V30 12169 H 1140.42 4.09533 3.70117 0
M  V30 12170 H 1142.9 2.17459 3.54755 0
M  V30 12171 H 1141.77 2.48057 4.89652 0
M  V30 12172 H 1142.03 0.834563 4.34151 0
M  V30 12173 N 1141.09 -1.09351 1.1349 0
M  V30 12174 C 1142.32 -1.85844 0.92069 0
M  V30 12175 C 1142.74 -1.80616 -0.525303 0
M  V30 12176 O 1142.1 -1.1842 -1.37282 0
M  V30 12177 C 1142.15 -3.31716 1.4141 0
M  V30 12178 O 1141.25 -4.08014 0.599838 0
M  V30 12179 H 1140.59 -0.576242 0.32991 0
M  V30 12180 H 1143.12 -1.38084 1.50976 0
M  V30 12181 H 1143.13 -3.82564 1.41805 0
M  V30 12182 H 1141.81 -3.34837 2.46692 0
M  V30 12183 H 1140.39 -3.66944 0.663816 0
M  V30 12184 N 1142.57 -0.928524 -1.27343 0
M  V30 12185 C 1143.5 -0.445627 -2.29208 0
M  V30 12186 C 1144.48 0.494508 -1.62753 0
M  V30 12187 O 1145.67 0.399082 -1.90055 0
M  V30 12188 C 1142.8 0.301684 -3.45987 0
M  V30 12189 C 1141.75 -0.550695 -4.24442 0
M  V30 12190 C 1141.08 0.325833 -5.33706 0
M  V30 12191 C 1142.38 -1.81559 -4.89728 0
M  V30 12192 H 1144.07 -1.29696 -2.69851 0
M  V30 12193 H 1141.62 -0.625085 -1.29725 0
M  V30 12194 H 1143.57 0.650455 -4.1635 0
M  V30 12195 H 1142.29 1.18705 -3.04264 0
M  V30 12196 H 1140.95 -0.882185 -3.55827 0
M  V30 12197 H 1140.6 1.21018 -4.88225 0
M  V30 12198 H 1140.3 -0.240994 -5.87106 0
M  V30 12199 H 1141.83 0.670156 -6.06911 0
M  V30 12200 H 1143.24 -1.53483 -5.52373 0
M  V30 12201 H 1141.64 -2.32598 -5.53189 0
M  V30 12202 H 1142.71 -2.53461 -4.13383 0
M  V30 12203 N 1144.05 1.41491 -0.694123 0
M  V30 12204 C 1145.27 2.06099 -0.23197 0
M  V30 12205 C 1145.7 1.51888 1.10958 0
M  V30 12206 O 1145.06 0.645247 1.69429 0
M  V30 12207 C 1145.11 3.60053 -0.198522 0
M  V30 12208 O 1144.21 4.04021 0.827067 0
M  V30 12209 H 1143.55 0.654193 -0.113699 0
M  V30 12210 H 1146.08 1.81282 -0.948575 0
M  V30 12211 H 1146.09 4.0799 -0.0288904 0
M  V30 12212 H 1144.77 3.98879 -1.17764 0
M  V30 12213 H 1143.34 3.67593 0.626908 0
M  V30 12214 N 1145.53 0.438773 1.51369 0
M  V30 12215 C 1146.78 -0.128723 2.01289 0
M  V30 12216 C 1147.09 -1.43659 1.32745 0
M  V30 12217 O 1148.3 -2.08712 1.73642 0
M  V30 12218 C 1146.75 -0.279945 3.5881 0
M  V30 12219 C 1146.36 1.01758 4.3629 0
M  V30 12220 C 1148.1 -0.801133 4.16872 0
M  V30 12221 C 1146.01 0.831918 5.85519 0
M  V30 12222 H 1144.94 -0.0518814 0.752213 0
M  V30 12223 H 1147.59 0.568753 1.74463 0
M  V30 12224 H 1145.97 -1.04046 3.82087 0
M  V30 12225 H 1147.15 1.78653 4.24758 0
M  V30 12226 H 1145.46 1.46741 3.89687 0
M  V30 12227 H 1148.06 -0.956548 5.26074 0
M  V30 12228 H 1148.4 -1.78396 3.76139 0
M  V30 12229 H 1148.94 -0.0988934 3.97677 0
M  V30 12230 H 1145.67 1.78716 6.30667 0
M  V30 12231 H 1145.19 0.102785 5.99712 0
M  V30 12232 H 1146.87 0.485681 6.45174 0
M  V30 12233 N 1147.01 -1.56678 0.170181 0
M  V30 12234 C 1147.94 -2.20916 -0.756213 0
M  V30 12235 C 1148.92 -1.16442 -1.23997 0
M  V30 12236 O 1150.1 -1.44867 -1.29333 0
M  V30 12237 C 1147.23 -2.84901 -1.98617 0
M  V30 12238 C 1146.19 -3.95403 -1.63831 0
M  V30 12239 C 1145.51 -4.46432 -2.94282 0
M  V30 12240 C 1146.81 -5.15051 -0.867195 0
M  V30 12241 H 1148.51 -2.98585 -0.220776 0
M  V30 12242 H 1146.05 -1.43619 -0.104748 0
M  V30 12243 H 1148 -3.28514 -2.63926 0
M  V30 12244 H 1146.73 -2.04598 -2.54572 0
M  V30 12245 H 1145.39 -3.52444 -1.00891 0
M  V30 12246 H 1145.04 -3.62923 -3.48276 0
M  V30 12247 H 1144.74 -5.20979 -2.71762 0
M  V30 12248 H 1146.26 -4.92731 -3.60622 0
M  V30 12249 H 1147.67 -5.55363 -1.42285 0
M  V30 12250 H 1146.07 -5.95507 -0.741065 0
M  V30 12251 H 1147.14 -4.84707 0.136693 0
M  V30 12252 N 1148.48 0.103547 -1.57259 0
M  V30 12253 C 1149.43 1.12621 -2.01458 0
M  V30 12254 C 1150.4 1.40282 -0.889391 0
M  V30 12255 O 1151.59 1.51887 -1.15477 0
M  V30 12256 C 1148.73 2.44352 -2.43692 0
M  V30 12257 C 1147.84 2.23495 -3.69695 0
M  V30 12258 C 1146.97 3.48565 -4.00844 0
M  V30 12259 C 1146.01 3.22932 -5.19982 0
M  V30 12260 N 1145.15 4.40246 -5.46926 0
M  V30 12261 H 1149.99 0.742315 -2.88606 0
M  V30 12262 H 1147.53 0.355016 -1.42752 0
M  V30 12263 H 1149.48 3.2122 -2.66221 0
M  V30 12264 H 1148.11 2.80605 -1.59565 0
M  V30 12265 H 1147.17 1.3747 -3.54692 0
M  V30 12266 H 1148.48 2.0054 -4.56711 0
M  V30 12267 H 1147.63 4.33844 -4.24104 0
M  V30 12268 H 1146.37 3.74565 -3.12333 0
M  V30 12269 H 1145.38 2.36045 -4.96551 0
M  V30 12270 H 1146.6 2.98286 -6.10084 0
M  V30 12271 H 1144.55 4.66338 -4.61373 0
M  V30 12272 H 1144.46 4.20452 -6.28296 0
M  V30 12273 H 1145.73 5.26614 -5.74716 0
M  V30 12274 N 1149.96 1.53094 0.37415 0
M  V30 12275 C 1151.19 1.73061 1.143 0
M  V30 12276 C 1151.61 0.454611 1.82524 0
M  V30 12277 O 1150.97 -0.590743 1.71406 0
M  V30 12278 C 1151.02 2.89086 2.15549 0
M  V30 12279 O 1150.12 2.57096 3.22452 0
M  V30 12280 H 1149.46 0.575009 0.332055 0
M  V30 12281 H 1151.99 1.99946 0.433897 0
M  V30 12282 H 1152 3.15007 2.59296 0
M  V30 12283 H 1150.68 3.81647 1.65283 0
M  V30 12284 H 1149.25 2.41965 2.83738 0
M  V30 12285 N 1151.44 -0.633461 1.44309 0
M  V30 12286 C 1152.39 -1.73919 1.47432 0
M  V30 12287 C 1153.37 -1.57258 0.340381 0
M  V30 12288 O 1154.57 -1.67035 0.585529 0
M  V30 12289 C 1151.69 -3.12595 1.41912 0
M  V30 12290 C 1150.78 -3.34734 2.60411 0
M  V30 12291 N 1151.17 -3.2725 3.85669 0
M  V30 12292 C 1149.47 -3.65522 2.55557 0
M  V30 12293 C 1150.17 -3.50013 4.64613 0
M  V30 12294 N 1149.15 -3.72775 3.95651 0
M  V30 12295 H 1152.95 -1.66588 2.42128 0
M  V30 12296 H 1150.46 -0.835844 1.39239 0
M  V30 12297 H 1152.46 -3.91887 1.42233 0
M  V30 12298 H 1151.12 -3.21095 0.482525 0
M  V30 12299 H 1152.13 -3.06221 4.17671 0
M  V30 12300 H 1148.81 -3.81017 1.70682 0
M  V30 12301 H 1150.2 -3.49839 5.73639 0
M  V30 12302 N 1152.92 -1.31168 -0.873655 0
M  V30 12303 C 1153.83 -1.20458 -2.01313 0
M  V30 12304 C 1154.84 -0.122074 -1.73571 0
M  V30 12305 O 1156.02 -0.339176 -1.98523 0
M  V30 12306 C 1153.09 -0.90876 -3.34578 0
M  V30 12307 C 1152.15 -2.07779 -3.75668 0
M  V30 12308 C 1151.38 -1.79599 -5.02573 0
M  V30 12309 O 1151.6 -0.729338 -5.65718 0
M  V30 12310 O 1150.54 -2.65169 -5.40341 0
M  V30 12311 H 1154.36 -2.16207 -2.13279 0
M  V30 12312 H 1151.95 -1.10871 -1.00139 0
M  V30 12313 H 1153.83 -0.759469 -4.145 0
M  V30 12314 H 1152.5 0.0187249 -3.23695 0
M  V30 12315 H 1151.41 -2.28247 -2.96402 0
M  V30 12316 H 1152.74 -2.9874 -3.91172 0
M  V30 12317 N 1154.4 1.08748 -1.14068 0
M  V30 12318 C 1155.34 2.17667 -0.819981 0
M  V30 12319 C 1156.34 1.68207 0.200654 0
M  V30 12320 O 1157.54 1.79909 0.0571014 0
M  V30 12321 H 1153.92 0.710129 -0.247427 0
M  V30 12322 H 1155.89 2.41944 -1.74659 0
M  V30 12323 C 1154.64 3.46315 -0.309985 0
M  V30 12324 H 1153.96 3.84748 -1.08669 0
M  V30 12325 H 1155.4 4.23818 -0.124094 0
M  V30 12326 C 1153.86 3.22762 0.965724 0
M  V30 12327 O 1154.39 3.46034 2.04018 0
M  V30 12328 N 1152.6 2.76326 0.899576 0
M  V30 12329 H 1152.14 2.57588 0.0250598 0
M  V30 12330 H 1152.1 2.60945 1.75371 0
M  V30 12331 N 1155.87 0.935264 1.26849 0
M  V30 12332 C 1157.12 0.578545 1.93642 0
M  V30 12333 C 1157.44 -0.884296 1.73796 0
M  V30 12334 O 1156.71 -1.62768 1.09011 0
M  V30 12335 H 1155.29 0.210976 0.716588 0
M  V30 12336 H 1157.96 1.1893 1.54407 0
M  V30 12337 H 1157.05 0.791268 3.01903 0
M  V30 12338 N 1157.35 -1.41121 0.701616 0
M  V30 12339 C 1158.6 -2.0113 0.235147 0
M  V30 12340 C 1158.93 -1.55587 -1.16718 0
M  V30 12341 O 1158.18 -0.760615 -1.80314 0
M  V30 12342 C 1158.48 -3.5654 0.247781 0
M  V30 12343 C 1158.15 -4.21616 1.59846 0
M  V30 12344 C 1156.81 -4.39106 1.96822 0
M  V30 12345 C 1159.16 -4.58048 2.48679 0
M  V30 12346 C 1156.49 -4.90307 3.22205 0
M  V30 12347 C 1158.84 -5.10642 3.734 0
M  V30 12348 C 1157.51 -5.26343 4.10512 0
M  V30 12349 H 1156.78 -0.735987 0.0860462 0
M  V30 12350 H 1159.42 -1.68932 0.901898 0
M  V30 12351 H 1157.73 -3.88564 -0.502528 0
M  V30 12352 H 1159.42 -4.00787 -0.130766 0
M  V30 12353 H 1156.01 -4.08381 1.30088 0
M  V30 12354 H 1160.2 -4.44184 2.21391 0
M  V30 12355 H 1155.45 -5.00647 3.50945 0
M  V30 12356 H 1159.63 -5.37811 4.42416 0
M  V30 12357 H 1157.26 -5.65779 5.07738 0
M  V30 12358 N 1158.83 -0.446794 -1.51134 0
M  V30 12359 C 1159.76 0.405311 -2.24572 0
M  V30 12360 C 1160.74 1.01679 -1.26886 0
M  V30 12361 O 1161.93 1.05743 -1.56047 0
M  V30 12362 C 1159.05 1.56573 -3.00338 0
M  V30 12363 C 1158.1 1.07401 -4.12756 0
M  V30 12364 S 1158.93 0.00835038 -5.35499 0
M  V30 12365 C 1160.09 1.17321 -6.14806 0
M  V30 12366 H 1160.32 -0.218143 -2.96499 0
M  V30 12367 H 1157.85 -0.231405 -1.52656 0
M  V30 12368 H 1159.81 2.23092 -3.44587 0
M  V30 12369 H 1158.47 2.16062 -2.27982 0
M  V30 12370 H 1157.67 1.94204 -4.65082 0
M  V30 12371 H 1157.27 0.486906 -3.70817 0
M  V30 12372 H 1159.56 2.08972 -6.44466 0
M  V30 12373 H 1160.5 0.689723 -7.04733 0
M  V30 12374 H 1160.91 1.41605 -5.4645 0
M  V30 12375 N 1160.31 1.56586 -0.178487 0
M  V30 12376 C 1161.22 2.21903 0.761321 0
M  V30 12377 C 1162.23 1.21289 1.2476 0
M  V30 12378 O 1163.41 1.53974 1.29823 0
M  V30 12379 C 1160.48 2.85259 1.97048 0
M  V30 12380 C 1159.54 4.01095 1.53039 0
M  V30 12381 C 1158.77 4.61421 2.68191 0
M  V30 12382 O 1158.99 4.20644 3.85247 0
M  V30 12383 O 1157.93 5.51171 2.41855 0
M  V30 12384 H 1161.75 3.02788 0.235141 0
M  V30 12385 H 1159.34 1.49316 0.0500442 0
M  V30 12386 H 1161.22 3.25404 2.6775 0
M  V30 12387 H 1159.89 2.07366 2.48558 0
M  V30 12388 H 1158.8 3.65606 0.792661 0
M  V30 12389 H 1160.13 4.80603 1.06213 0
M  V30 12390 N 1161.79 -0.095206 1.57312 0
M  V30 12391 C 1163.06 -0.830388 1.77099 0
M  V30 12392 C 1163.44 -1.9694 0.760121 0
M  V30 12393 O 1162.79 -2.2752 -0.211403 0
M  V30 12394 C 1163 -1.32507 3.22867 0
M  V30 12395 C 1164.35 -1.7679 3.86045 0
M  V30 12396 O 1165.37 -1.42131 3.26615 0
M  V30 12397 O 1164.23 -2.40876 4.90552 0
M  V30 12398 H 1161.33 -0.396083 0.72598 0
M  V30 12399 H 1163.87 -0.0770965 1.69525 0
M  V30 12400 H 1162.64 -0.508992 3.87975 0
M  V30 12401 H 1162.27 -2.14037 3.35073 0
M  V30 12402 N 1163.26 -1.53291 -0.366026 0
M  V30 12403 C 1164.19 -1.82675 -1.45437 0
M  V30 12404 C 1165.18 -0.680227 -1.55907 0
M  V30 12405 O 1166.36 -0.930032 -1.70482 0
M  V30 12406 C 1163.49 -2.01626 -2.8278 0
M  V30 12407 C 1162.44 -3.17391 -2.87135 0
M  V30 12408 C 1161.77 -3.21634 -4.27148 0
M  V30 12409 C 1163.07 -4.5599 -2.54697 0
M  V30 12410 H 1164.76 -2.73818 -1.21096 0
M  V30 12411 H 1162.31 -1.31754 -0.581108 0
M  V30 12412 H 1164.26 -2.20765 -3.58944 0
M  V30 12413 H 1162.99 -1.07193 -3.08508 0
M  V30 12414 H 1161.65 -2.98071 -2.13422 0
M  V30 12415 H 1161.29 -2.2484 -4.49951 0
M  V30 12416 H 1160.99 -3.99414 -4.30978 0
M  V30 12417 H 1162.52 -3.42957 -5.05186 0
M  V30 12418 H 1163.93 -4.75294 -3.20575 0
M  V30 12419 H 1162.33 -5.36008 -2.69844 0
M  V30 12420 H 1163.4 -4.61133 -1.49949 0
M  V30 12421 N 1164.74 0.6258 -1.44643 0
M  V30 12422 C 1166.02 1.38439 -1.38181 0
M  V30 12423 C 1166.4 2.11056 -0.0431928 0
M  V30 12424 O 1165.75 2.06683 0.974383 0
M  V30 12425 C 1165.96 2.34639 -2.58352 0
M  V30 12426 C 1167.31 2.97807 -3.02649 0
M  V30 12427 O 1168.33 2.44963 -2.58595 0
M  V30 12428 O 1167.19 3.93682 -3.79048 0
M  V30 12429 H 1164.28 0.619852 -0.54746 0
M  V30 12430 H 1166.83 0.650409 -1.56741 0
M  V30 12431 H 1165.6 1.80116 -3.47382 0
M  V30 12432 H 1165.22 3.15446 -2.42032 0
M  V30 12433 N 1166.22 1.31629 0.866686 0
M  V30 12434 C 1167.17 1.19556 1.97421 0
M  V30 12435 C 1168.14 0.0805578 1.65905 0
M  V30 12436 O 1169.32 0.253997 1.89102 0
M  V30 12437 C 1166.46 0.912234 3.32825 0
M  V30 12438 C 1165.58 2.11088 3.76916 0
M  V30 12439 C 1164.71 1.76406 5.01053 0
M  V30 12440 C 1163.75 2.9266 5.37602 0
M  V30 12441 N 1162.89 2.58152 6.52918 0
M  V30 12442 H 1167.73 2.14294 2.0708 0
M  V30 12443 H 1165.26 1.06595 1.0137 0
M  V30 12444 H 1167.22 0.72851 4.1079 0
M  V30 12445 H 1165.85 0.00167404 3.228 0
M  V30 12446 H 1164.9 2.40527 2.94705 0
M  V30 12447 H 1166.22 2.98089 3.99931 0
M  V30 12448 H 1165.37 1.54515 5.86694 0
M  V30 12449 H 1164.11 0.866018 4.79949 0
M  V30 12450 H 1163.11 3.15196 4.50479 0
M  V30 12451 H 1164.34 3.83179 5.6067 0
M  V30 12452 H 1162.28 1.70874 6.33355 0
M  V30 12453 H 1162.2 3.38682 6.75892 0
M  V30 12454 H 1163.47 2.39662 7.41743 0
M  V30 12455 N 1167.7 -1.08142 1.14644 0
M  V30 12456 C 1168.93 -1.84318 0.939926 0
M  V30 12457 C 1169.34 -1.81735 -0.511636 0
M  V30 12458 O 1168.7 -1.22297 -1.35461 0
M  V30 12459 C 1168.75 -3.31744 1.43625 0
M  V30 12460 O 1168.47 -3.3435 2.83094 0
M  V30 12461 C 1169.97 -4.24717 1.27007 0
M  V30 12462 H 1167.19 -0.581781 0.334323 0
M  V30 12463 H 1169.74 -1.36561 1.52221 0
M  V30 12464 H 1167.89 -3.7688 0.896664 0
M  V30 12465 H 1168.31 -4.26399 3.05425 0
M  V30 12466 H 1169.78 -5.26262 1.66591 0
M  V30 12467 H 1170.26 -4.38682 0.213257 0
M  V30 12468 H 1170.86 -3.85409 1.79833 0
M  V30 12469 N 1169.18 -0.941978 -1.26351 0
M  V30 12470 C 1170.42 -0.600372 -1.94338 0
M  V30 12471 C 1170.78 0.851343 -1.7254 0
M  V30 12472 O 1170.07 1.60116 -1.0523 0
M  V30 12473 C 1170.27 -0.879481 -3.4641 0
M  V30 12474 C 1170.09 -2.35678 -3.82996 0
M  V30 12475 C 1168.86 -3.01208 -4.05712 0
M  V30 12476 C 1171.06 -3.33531 -3.91486 0
M  V30 12477 N 1169.04 -4.38942 -4.29189 0
M  V30 12478 C 1170.42 -4.56525 -4.19506 0
M  V30 12479 C 1172.47 -3.28544 -3.74117 0
M  V30 12480 C 1171.17 -5.75153 -4.31962 0
M  V30 12481 C 1173.2 -4.46498 -3.87806 0
M  V30 12482 C 1172.56 -5.68275 -4.16225 0
M  V30 12483 H 1168.66 -0.270078 -0.733881 0
M  V30 12484 H 1171.24 -1.21155 -1.52413 0
M  V30 12485 H 1169.42 -0.297345 -3.8726 0
M  V30 12486 H 1171.15 -0.499062 -4.01611 0
M  V30 12487 H 1167.9 -2.51823 -4.01101 0
M  V30 12488 H 1168.33 -5.10236 -4.44959 0
M  V30 12489 H 1172.97 -2.35451 -3.51173 0
M  V30 12490 H 1170.69 -6.68699 -4.53727 0
M  V30 12491 H 1174.27 -4.44173 -3.75768 0
M  V30 12492 H 1173.15 -6.58024 -4.26584 0
M  V30 12493 N 1170.66 1.40747 -0.709091 0
M  V30 12494 C 1171.9 2.013 -0.246174 0
M  V30 12495 C 1172.23 1.56078 1.15556 0
M  V30 12496 O 1171.51 0.777941 1.78265 0
M  V30 12497 C 1171.79 3.58685 -0.318945 0
M  V30 12498 C 1171.65 4.13997 -1.75859 0
M  V30 12499 C 1172.96 4.38981 0.31358 0
M  V30 12500 H 1170.08 0.73137 -0.0909255 0
M  V30 12501 H 1172.73 1.67312 -0.900365 0
M  V30 12502 H 1170.88 3.8777 0.23805 0
M  V30 12503 H 1172.55 3.95735 -2.37047 0
M  V30 12504 H 1170.79 3.6853 -2.28841 0
M  V30 12505 H 1171.46 5.23158 -1.76095 0
M  V30 12506 H 1173.94 4.15789 -0.160939 0
M  V30 12507 H 1172.81 5.48409 0.232184 0
M  V30 12508 H 1173.07 4.19474 1.39621 0
M  V30 12509 N 1172.13 0.454803 1.50895 0
M  V30 12510 C 1173.55 0.108037 1.59234 0
M  V30 12511 C 1173.75 -1.38416 1.46435 0
M  V30 12512 O 1172.81 -2.15586 1.31449 0
M  V30 12513 C 1174.12 0.643721 2.93729 0
M  V30 12514 C 1175.67 0.605703 3.07083 0
M  V30 12515 C 1176.14 1.11865 4.44128 0
M  V30 12516 N 1177.63 1.07738 4.50496 0
M  V30 12517 C 1178.37 1.44495 5.54895 0
M  V30 12518 N 1177.86 1.88624 6.66628 0
M  V30 12519 N 1179.66 1.36201 5.45349 0
M  V30 12520 H 1171.81 1.4255 1.57459 0
M  V30 12521 H 1174.07 0.588504 0.743214 0
M  V30 12522 H 1173.78 1.68844 3.0852 0
M  V30 12523 H 1173.65 0.0782404 3.77119 0
M  V30 12524 H 1176.04 -0.430065 2.91949 0
M  V30 12525 H 1176.12 1.2078 2.2549 0
M  V30 12526 H 1175.76 2.15297 4.6001 0
M  V30 12527 H 1175.69 0.492933 5.24288 0
M  V30 12528 H 1178.18 0.753526 3.70311 0
M  V30 12529 H 1178.5 2.14863 7.4233 0
M  V30 12530 H 1176.84 1.92564 6.6779 0
M  V30 12531 H 1180.03 1.01579 4.56946 0
M  V30 12532 H 1180.21 1.65175 6.26595 0
M  V30 12533 N 1173.61 -1.56489 0.186789 0
M  V30 12534 C 1174.84 -2.01429 -0.459326 0
M  V30 12535 C 1175.25 -1.06611 -1.56303 0
M  V30 12536 O 1174.59 -0.0617053 -1.83596 0
M  V30 12537 C 1174.65 -3.42778 -1.08367 0
M  V30 12538 C 1174.32 -4.56843 -0.119719 0
M  V30 12539 C 1175.32 -5.15594 0.667782 0
M  V30 12540 C 1173 -5.02299 -0.0110494 0
M  V30 12541 C 1174.99 -6.18242 1.551 0
M  V30 12542 C 1172.68 -6.04793 0.875738 0
M  V30 12543 C 1173.68 -6.62637 1.65534 0
M  V30 12544 O 1173.37 -7.63141 2.52728 0
M  V30 12545 H 1173.1 -0.665175 -0.120492 0
M  V30 12546 H 1175.65 -2.03338 0.290283 0
M  V30 12547 H 1173.88 -3.3783 -1.8817 0
M  V30 12548 H 1175.57 -3.71577 -1.63357 0
M  V30 12549 H 1176.34 -4.81348 0.594085 0
M  V30 12550 H 1172.22 -4.56977 -0.607667 0
M  V30 12551 H 1175.76 -6.63319 2.15995 0
M  V30 12552 H 1171.66 -6.38462 0.950581 0
M  V30 12553 H 1172.43 -7.80527 2.46415 0
M  V30 12554 N 1175.09 0.086862 -1.5736 0
M  V30 12555 C 1176.02 1.13117 -1.99342 0
M  V30 12556 C 1177.03 1.35849 -0.897151 0
M  V30 12557 O 1178.22 1.34356 -1.17519 0
M  V30 12558 C 1175.32 2.48511 -2.30425 0
M  V30 12559 C 1174.5 2.45942 -3.61706 0
M  V30 12560 C 1173.56 3.63327 -3.80631 0
M  V30 12561 O 1172.58 3.45443 -4.52392 0
M  V30 12562 N 1173.78 4.83118 -3.21835 0
M  V30 12563 H 1176.55 0.773782 -2.89539 0
M  V30 12564 H 1174.11 0.275731 -1.59535 0
M  V30 12565 H 1176.1 3.25656 -2.40272 0
M  V30 12566 H 1174.67 2.76308 -1.46194 0
M  V30 12567 H 1173.89 1.54287 -3.62752 0
M  V30 12568 H 1175.18 2.41313 -4.47935 0
M  V30 12569 H 1174.58 5.00552 -2.6356 0
M  V30 12570 H 1173.13 5.57827 -3.37154 0
M  V30 12571 N 1176.57 1.53483 0.357892 0
M  V30 12572 C 1177.48 1.83434 1.4625 0
M  V30 12573 C 1178.49 0.723313 1.58254 0
M  V30 12574 O 1179.67 1.01416 1.74002 0
M  V30 12575 C 1176.73 2.0249 2.81423 0
M  V30 12576 C 1175.8 3.26378 2.78883 0
M  V30 12577 C 1175.03 3.44516 4.07608 0
M  V30 12578 O 1175.25 2.66787 5.04163 0
M  V30 12579 O 1174.19 4.37898 4.12952 0
M  V30 12580 H 1178.01 2.77294 1.23861 0
M  V30 12581 H 1175.6 1.38958 0.548722 0
M  V30 12582 H 1177.48 2.16552 3.61501 0
M  V30 12583 H 1176.15 1.11819 3.03773 0
M  V30 12584 H 1175.06 3.17733 1.97475 0
M  V30 12585 H 1176.39 4.16996 2.61486 0
M  V30 12586 N 1178.05 -0.61812 1.44973 0
M  V30 12587 C 1179.29 -1.38882 1.4997 0
M  V30 12588 C 1179.65 -1.91533 0.133841 0
M  V30 12589 O 1180.85 -2.68736 0.0585012 0
M  V30 12590 C 1179.12 -2.5136 2.54073 0
M  V30 12591 S 1180.68 -3.39324 2.78216 0
M  V30 12592 H 1177.5 -0.473631 0.530278 0
M  V30 12593 H 1180.1 -0.714299 1.81984 0
M  V30 12594 H 1178.8 -2.11012 3.51997 0
M  V30 12595 H 1178.34 -3.23625 2.23675 0
M  V30 12596 H 1180.35 -4.49198 2.10797 0
M  V30 12597 N 1179.52 -1.32087 -0.859693 0
M  V30 12598 C 1180.8 -1.12984 -1.59668 0
M  V30 12599 C 1181.18 0.311661 -2.08787 0
M  V30 12600 O 1180.53 1.30746 -1.87397 0
M  V30 12601 C 1180.74 -2.15305 -2.74672 0
M  V30 12602 C 1182.09 -2.48371 -3.44379 0
M  V30 12603 O 1183.11 -2.13811 -2.84891 0
M  V30 12604 O 1181.97 -3.07594 -4.51717 0
M  V30 12605 H 1179.06 -0.435657 -0.702945 0
M  V30 12606 H 1181.61 -1.43601 -0.90426 0
M  V30 12607 H 1180.38 -3.12223 -2.35866 0
M  V30 12608 H 1180 -1.85653 -3.51594 0
M  V30 12609 N 1181 1.07532 -1.15215 0
M  V30 12610 C 1182.23 1.84356 -0.950139 0
M  V30 12611 C 1182.65 1.81429 0.496502 0
M  V30 12612 O 1182.01 1.20589 1.35381 0
M  V30 12613 C 1182.06 3.29425 -1.46669 0
M  V30 12614 O 1181.16 4.07008 -0.664674 0
M  V30 12615 H 1180.5 0.570921 -0.339036 0
M  V30 12616 H 1183.03 1.35665 -1.53154 0
M  V30 12617 H 1183.04 3.8026 -1.47873 0
M  V30 12618 H 1181.72 3.3087 -2.51988 0
M  V30 12619 H 1180.29 3.65841 -0.72211 0
M  V30 12620 N 1182.48 0.948665 1.2585 0
M  V30 12621 C 1183.9 0.652147 1.45668 0
M  V30 12622 C 1184.1 -0.792217 1.85273 0
M  V30 12623 O 1183.15 -1.56812 1.97905 0
M  V30 12624 C 1184.47 1.61998 2.53332 0
M  V30 12625 C 1186.01 1.6305 2.67178 0
M  V30 12626 C 1186.49 2.58582 3.78021 0
M  V30 12627 N 1187.98 2.56911 3.85423 0
M  V30 12628 C 1188.71 3.27511 4.70664 0
M  V30 12629 N 1188.21 4.07563 5.60236 0
M  V30 12630 N 1190 3.16427 4.64576 0
M  V30 12631 H 1182.15 1.88215 0.984325 0
M  V30 12632 H 1184.42 0.809251 0.493778 0
M  V30 12633 H 1184.12 2.65137 2.31075 0
M  V30 12634 H 1184 1.37784 3.51134 0
M  V30 12635 H 1186.38 0.606315 2.88804 0
M  V30 12636 H 1186.47 1.9132 1.69795 0
M  V30 12637 H 1186.11 3.61122 3.57146 0
M  V30 12638 H 1186.04 2.27598 4.74875 0
M  V30 12639 H 1188.53 1.9879 3.21389 0
M  V30 12640 H 1188.84 4.58367 6.22189 0
M  V30 12641 H 1187.19 4.11662 5.59964 0
M  V30 12642 H 1190.38 2.53364 3.93604 0
M  V30 12643 H 1190.55 3.71714 5.30785 0
M  V30 12644 N 1183.96 -1.40369 0.716545 0
M  V30 12645 C 1185.18 -2.05704 0.264729 0
M  V30 12646 C 1185.61 -1.53634 -1.08527 0
M  V30 12647 O 1184.97 -0.67212 -1.68381 0
M  V30 12648 C 1185.01 -3.59692 0.255778 0
M  V30 12649 O 1184.12 -4.05286 -0.762686 0
M  V30 12650 H 1183.46 -0.652301 0.124092 0
M  V30 12651 H 1185.99 -1.7975 0.977295 0
M  V30 12652 H 1186 -4.07892 0.0937944 0
M  V30 12653 H 1184.67 -3.96955 1.24095 0
M  V30 12654 H 1183.25 -3.68543 -0.568347 0
M  V30 12655 N 1185.44 -0.462799 -1.50652 0
M  V30 12656 C 1186.38 0.349784 -2.29955 0
M  V30 12657 C 1187.38 0.997947 -1.36885 0
M  V30 12658 O 1188.58 0.93 -1.54114 0
M  V30 12659 H 1184.96 0.131635 -0.740389 0
M  V30 12660 H 1186.93 -0.33958 -2.96461 0
M  V30 12661 C 1185.68 1.42398 -3.17204 0
M  V30 12662 H 1185 0.934611 -3.88722 0
M  V30 12663 H 1186.44 1.96528 -3.75703 0
M  V30 12664 C 1184.9 2.42135 -2.34248 0
M  V30 12665 O 1185.43 3.47229 -2.01978 0
M  V30 12666 N 1183.64 2.13647 -1.96985 0
M  V30 12667 H 1183.18 1.28209 -2.23428 0
M  V30 12668 H 1183.14 2.80615 -1.41783 0
M  V30 12669 N 1186.91 1.56388 -0.195085 0
M  V30 12670 C 1187.88 2.17859 0.712053 0
M  V30 12671 C 1188.88 1.13304 1.141 0
M  V30 12672 O 1190.07 1.38689 1.05409 0
M  V30 12673 C 1187.2 2.78065 1.97213 0
M  V30 12674 H 1188.39 2.9938 0.176529 0
M  V30 12675 H 1185.95 1.56205 0.0545322 0
M  V30 12676 H 1186.68 2.00342 2.55017 0
M  V30 12677 H 1186.47 3.54603 1.67329 0
M  V30 12678 H 1187.96 3.25266 2.619 0
M  V30 12679 N 1188.39 -0.0785156 1.57404 0
M  V30 12680 C 1189.8 -0.631132 1.75709 0
M  V30 12681 C 1190.15 -1.78261 0.819605 0
M  V30 12682 O 1189.28 -2.164 0.00206912 0
M  V30 12683 C 1189.87 -1.15168 3.18625 0
M  V30 12684 C 1188.43 -1.65021 3.38297 0
M  V30 12685 C 1187.58 -0.566773 2.71446 0
M  V30 12686 H 1190.53 0.147631 1.58012 0
M  V30 12687 H 1190.55 -2.02065 3.22413 0
M  V30 12688 H 1190.06 -0.313399 3.86833 0
M  V30 12689 H 1188.17 -2.51196 2.75194 0
M  V30 12690 H 1188.28 -1.73179 4.46706 0
M  V30 12691 H 1186.64 -1.01021 2.33809 0
M  V30 12692 H 1187.43 0.261204 3.42305 0
M  V30 12693 N 1189.87 -1.5367 -0.349747 0
M  V30 12694 C 1190.83 -1.80533 -1.41211 0
M  V30 12695 C 1191.83 -0.676188 -1.45892 0
M  V30 12696 O 1193.02 -0.944453 -1.46375 0
M  V30 12697 C 1190.16 -1.94175 -2.80195 0
M  V30 12698 H 1191.35 -2.75428 -1.18658 0
M  V30 12699 H 1188.9 -1.44988 -0.583787 0
M  V30 12700 H 1189.64 -1.01402 -3.08039 0
M  V30 12701 H 1189.42 -2.76316 -2.78194 0
M  V30 12702 H 1190.91 -2.16496 -3.57098 0
M  V30 12703 N 1191.35 0.610423 -1.45298 0
M  V30 12704 C 1192.58 1.39621 -1.52688 0
M  V30 12705 C 1192.99 1.88133 -0.158535 0
M  V30 12706 O 1192.35 1.62051 0.839396 0
M  V30 12707 C 1192.4 2.60261 -2.50891 0
M  V30 12708 O 1192.12 2.13766 -3.82408 0
M  V30 12709 C 1193.62 3.53154 -2.6795 0
M  V30 12710 H 1190.84 0.427493 -0.517195 0
M  V30 12711 H 1193.39 0.744701 -1.90459 0
M  V30 12712 H 1191.54 3.2146 -2.162 0
M  V30 12713 H 1191.95 2.92128 -4.35616 0
M  V30 12714 H 1193.43 4.34355 -3.40647 0
M  V30 12715 H 1193.91 4.03311 -1.73888 0
M  V30 12716 H 1194.51 2.9781 -3.03627 0
M  V30 12717 N 1192.83 1.32541 0.852676 0
M  V30 12718 C 1193.76 1.24254 1.97694 0
M  V30 12719 C 1194.74 0.125971 1.69633 0
M  V30 12720 O 1195.92 0.31347 1.91653 0
M  V30 12721 C 1193.05 0.966874 3.3357 0
M  V30 12722 C 1192.01 2.0449 3.75989 0
M  V30 12723 C 1191.33 1.6216 5.09518 0
M  V30 12724 C 1192.63 3.46013 3.91244 0
M  V30 12725 H 1194.33 2.18317 2.04886 0
M  V30 12726 H 1191.87 1.05101 0.984371 0
M  V30 12727 H 1193.83 0.895444 4.11776 0
M  V30 12728 H 1192.55 -0.0093893 3.26599 0
M  V30 12729 H 1191.21 2.10651 3.00036 0
M  V30 12730 H 1190.86 0.632729 4.99005 0
M  V30 12731 H 1190.56 2.3429 5.38871 0
M  V30 12732 H 1192.08 1.56457 5.90215 0
M  V30 12733 H 1193.49 3.4243 4.59799 0
M  V30 12734 H 1191.89 4.1651 4.32017 0
M  V30 12735 H 1192.96 3.8553 2.941 0
M  V30 12736 N 1194.3 -1.0692 1.15784 0
M  V30 12737 C 1195.53 -1.8331 0.959422 0
M  V30 12738 C 1195.95 -1.82268 -0.492332 0
M  V30 12739 O 1195.3 -1.23727 -1.34156 0
M  V30 12740 C 1195.36 -3.30202 1.47135 0
M  V30 12741 O 1195.08 -3.31328 2.86624 0
M  V30 12742 C 1196.58 -4.23346 1.31504 0
M  V30 12743 H 1193.8 -0.578202 0.340475 0
M  V30 12744 H 1196.34 -1.34939 1.53661 0
M  V30 12745 H 1194.5 -3.75908 0.936587 0
M  V30 12746 H 1194.91 -4.23135 3.0993 0
M  V30 12747 H 1196.38 -5.24465 1.72163 0
M  V30 12748 H 1196.86 -4.38431 0.259773 0
M  V30 12749 H 1197.47 -3.8348 1.83911 0
M  V30 12750 N 1195.78 -0.955326 -1.25345 0
M  V30 12751 C 1197.03 -0.610484 -1.93079 0
M  V30 12752 C 1197.36 0.852591 -1.74817 0
M  V30 12753 O 1196.61 1.6272 -1.08723 0
M  V30 12754 C 1196.91 -0.916173 -3.45458 0
M  V30 12755 C 1196.58 -2.36539 -3.83875 0
M  V30 12756 C 1195.24 -2.76152 -3.94073 0
M  V30 12757 C 1197.59 -3.30652 -4.02888 0
M  V30 12758 C 1194.92 -4.08944 -4.20692 0
M  V30 12759 C 1197.27 -4.63057 -4.31 0
M  V30 12760 C 1195.94 -5.02464 -4.39415 0
M  V30 12761 H 1195.21 -0.223392 -0.706525 0
M  V30 12762 H 1197.85 -1.20449 -1.48877 0
M  V30 12763 H 1196.16 -0.23978 -3.91066 0
M  V30 12764 H 1197.85 -0.627929 -3.96053 0
M  V30 12765 H 1194.44 -2.04819 -3.76493 0
M  V30 12766 H 1198.63 -3.01237 -3.94423 0
M  V30 12767 H 1193.88 -4.39118 -4.25423 0
M  V30 12768 H 1198.06 -5.3596 -4.44657 0
M  V30 12769 H 1195.69 -6.05386 -4.59795 0
M  V30 12770 N 1197.26 1.39987 -0.723979 0
M  V30 12771 C 1198.17 2.3447 -0.0780936 0
M  V30 12772 C 1199.19 1.57744 0.734368 0
M  V30 12773 O 1200.36 1.90091 0.665385 0
M  V30 12774 C 1197.43 3.36705 0.826492 0
M  V30 12775 C 1196.49 4.293 0.00303036 0
M  V30 12776 C 1195.72 5.26651 0.864535 0
M  V30 12777 O 1195.95 5.30194 2.10357 0
M  V30 12778 O 1194.88 6.01157 0.299057 0
M  V30 12779 H 1198.71 2.91338 -0.857646 0
M  V30 12780 H 1196.29 1.41324 -0.484536 0
M  V30 12781 H 1198.17 3.9938 1.34439 0
M  V30 12782 H 1196.85 2.82237 1.58505 0
M  V30 12783 H 1195.75 3.69883 -0.560136 0
M  V30 12784 H 1197.09 4.86942 -0.717494 0
M  V30 12785 N 1198.74 0.470782 1.50404 0
M  V30 12786 C 1199.69 -0.337584 2.30137 0
M  V30 12787 C 1200.68 -0.990673 1.37412 0
M  V30 12788 O 1201.89 -0.921813 1.54605 0
M  V30 12789 H 1198.26 -0.127707 0.741077 0
M  V30 12790 H 1200.23 0.355297 2.96277 0
M  V30 12791 C 1198.98 -1.40714 3.17954 0
M  V30 12792 H 1198.31 -0.913982 3.89213 0
M  V30 12793 H 1199.75 -1.94533 3.7674 0
M  V30 12794 C 1198.2 -2.40889 2.35529 0
M  V30 12795 O 1198.73 -3.46153 2.03816 0
M  V30 12796 N 1196.94 -2.126 1.98115 0
M  V30 12797 H 1196.49 -1.27023 2.24105 0
M  V30 12798 H 1196.45 -2.7986 1.43269 0
M  V30 12799 N 1200.22 -1.56282 0.203376 0
M  V30 12800 C 1201.15 -2.15395 -0.753684 0
M  V30 12801 C 1202.13 -1.09303 -1.20381 0
M  V30 12802 O 1203.31 -1.37461 -1.28984 0
M  V30 12803 C 1200.44 -2.71954 -2.01888 0
M  V30 12804 C 1199.49 -3.9071 -1.71021 0
M  V30 12805 S 1200.32 -5.28695 -0.850999 0
M  V30 12806 C 1201.47 -5.88681 -2.12615 0
M  V30 12807 H 1201.71 -2.96237 -0.251196 0
M  V30 12808 H 1199.24 -1.54396 -0.0117238 0
M  V30 12809 H 1201.2 -3.05183 -2.74542 0
M  V30 12810 H 1199.86 -1.91138 -2.49249 0
M  V30 12811 H 1199.05 -4.28723 -2.64977 0
M  V30 12812 H 1198.65 -3.58533 -1.06442 0
M  V30 12813 H 1200.95 -6.03548 -3.07792 0
M  V30 12814 H 1201.89 -6.85096 -1.79021 0
M  V30 12815 H 1202.3 -5.17356 -2.2584 0
M  V30 12816 N 1201.7 0.070167 -1.57444 0
M  V30 12817 C 1202.66 1.06761 -2.02817 0
M  V30 12818 C 1203.66 1.31498 -0.925462 0
M  V30 12819 O 1204.85 1.27192 -1.19029 0
M  V30 12820 C 1201.98 2.41086 -2.41019 0
M  V30 12821 H 1203.17 0.67651 -2.9217 0
M  V30 12822 H 1200.73 0.315936 -1.53074 0
M  V30 12823 H 1201.46 2.85025 -1.54697 0
M  V30 12824 H 1201.25 2.24472 -3.21488 0
M  V30 12825 H 1202.74 3.12778 -2.76694 0
M  V30 12826 N 1203.17 1.53854 0.341593 0
M  V30 12827 C 1204.42 1.70856 1.07948 0
M  V30 12828 C 1204.74 0.475474 1.89114 0
M  V30 12829 O 1204.01 -0.510592 1.89129 0
M  V30 12830 H 1202.59 0.629914 0.401519 0
M  V30 12831 H 1205.25 1.91112 0.382393 0
M  V30 12832 H 1204.35 2.5803 1.75575 0
M  V30 12833 N 1204.65 -0.602709 1.4562 0
M  V30 12834 C 1205.9 -1.36359 1.50113 0
M  V30 12835 C 1206.23 -1.93663 0.144297 0
M  V30 12836 O 1205.51 -1.75337 -0.841851 0
M  V30 12837 C 1205.79 -2.50788 2.58413 0
M  V30 12838 C 1205.64 -1.98649 4.03557 0
M  V30 12839 C 1206.96 -3.52905 2.62957 0
M  V30 12840 H 1204.08 -0.494455 0.54652 0
M  V30 12841 H 1206.72 -0.678957 1.77455 0
M  V30 12842 H 1204.87 -3.09191 2.3523 0
M  V30 12843 H 1206.54 -1.44857 4.37966 0
M  V30 12844 H 1204.79 -1.29615 4.13984 0
M  V30 12845 H 1205.46 -2.81159 4.7503 0
M  V30 12846 H 1207.93 -3.0435 2.83743 0
M  V30 12847 H 1206.81 -4.30454 3.40589 0
M  V30 12848 H 1207.07 -4.0884 1.68233 0
M  V30 12849 N 1206.13 -1.32992 -0.845635 0
M  V30 12850 C 1207.38 -1.24065 -1.60044 0
M  V30 12851 C 1207.7 0.195282 -1.93517 0
M  V30 12852 O 1206.96 1.1507 -1.58296 0
M  V30 12853 C 1207.26 -2.05454 -2.92444 0
M  V30 12854 C 1206.92 -3.54718 -2.78362 0
M  V30 12855 C 1205.59 -3.95413 -2.74229 0
M  V30 12856 C 1207.94 -4.49598 -2.63649 0
M  V30 12857 C 1205.27 -5.29216 -2.53274 0
M  V30 12858 C 1207.62 -5.83554 -2.44228 0
M  V30 12859 C 1206.28 -6.2344 -2.38493 0
M  V30 12860 H 1205.55 -0.453985 -0.585644 0
M  V30 12861 H 1208.2 -1.6451 -0.980244 0
M  V30 12862 H 1206.5 -1.57765 -3.58633 0
M  V30 12863 H 1208.2 -1.95909 -3.49887 0
M  V30 12864 H 1204.79 -3.22403 -2.82409 0
M  V30 12865 H 1208.98 -4.19072 -2.65881 0
M  V30 12866 H 1204.23 -5.59164 -2.47275 0
M  V30 12867 H 1208.41 -6.56681 -2.31825 0
M  V30 12868 H 1206.03 -7.27058 -2.22015 0
M  V30 12869 N 1207.61 1.06304 -1.1635 0
M  V30 12870 C 1208.54 2.13209 -0.81346 0
M  V30 12871 C 1209.52 1.61174 0.21484 0
M  V30 12872 O 1210.7 1.8824 0.0989458 0
M  V30 12873 C 1207.83 3.38039 -0.211498 0
M  V30 12874 C 1206.88 4.08875 -1.21339 0
M  V30 12875 S 1207.71 4.58894 -2.76001 0
M  V30 12876 C 1208.86 5.86985 -2.17254 0
M  V30 12877 H 1209.1 2.42572 -1.7189 0
M  V30 12878 H 1206.63 1.18737 -0.986957 0
M  V30 12879 H 1208.59 4.10296 0.129349 0
M  V30 12880 H 1207.25 3.06834 0.671705 0
M  V30 12881 H 1206.44 4.98528 -0.740631 0
M  V30 12882 H 1206.04 3.42632 -1.49932 0
M  V30 12883 H 1208.34 6.59738 -1.54115 0
M  V30 12884 H 1209.28 6.38991 -3.05117 0
M  V30 12885 H 1209.69 5.41012 -1.61141 0
M  V30 12886 N 1209.09 0.96196 1.24836 0
M  V30 12887 C 1210.02 0.506241 2.27946 0
M  V30 12888 C 1211 -0.451183 1.64007 0
M  V30 12889 O 1212.18 -0.348552 1.91046 0
M  V30 12890 C 1209.31 -0.209846 3.46665 0
M  V30 12891 C 1208.27 0.663035 4.22833 0
M  V30 12892 C 1207.59 -0.184216 5.34383 0
M  V30 12893 C 1208.89 1.94479 4.84742 0
M  V30 12894 H 1210.59 1.36805 2.66317 0
M  V30 12895 H 1208.13 0.65926 1.28023 0
M  V30 12896 H 1210.08 -0.539838 4.17928 0
M  V30 12897 H 1208.81 -1.10596 3.07305 0
M  V30 12898 H 1207.47 0.976216 3.53363 0
M  V30 12899 H 1207.12 -1.08031 4.91262 0
M  V30 12900 H 1206.82 0.39657 5.8626 0
M  V30 12901 H 1208.34 -0.509009 6.08475 0
M  V30 12902 H 1209.75 1.68074 5.48109 0
M  V30 12903 H 1208.15 2.47183 5.46828 0
M  V30 12904 H 1209.22 2.64332 4.06517 0
M  V30 12905 N 1210.56 -1.39601 0.731392 0
M  V30 12906 C 1211.81 -2.00883 0.278168 0
M  V30 12907 C 1212.14 -1.57897 -1.13059 0
M  V30 12908 O 1211.42 -0.806203 -1.77005 0
M  V30 12909 C 1211.7 -3.58132 0.375969 0
M  V30 12910 C 1211.55 -4.11147 1.82423 0
M  V30 12911 C 1212.87 -4.39425 -0.243702 0
M  V30 12912 H 1209.99 -0.729831 0.102549 0
M  V30 12913 H 1212.63 -1.65859 0.926869 0
M  V30 12914 H 1210.78 -3.881 -0.176329 0
M  V30 12915 H 1212.46 -3.91914 2.43313 0
M  V30 12916 H 1210.7 -3.64842 2.34675 0
M  V30 12917 H 1211.37 -5.20291 1.84396 0
M  V30 12918 H 1213.85 -4.1548 0.227067 0
M  V30 12919 H 1212.72 -5.48709 -0.144907 0
M  V30 12920 H 1212.98 -4.21642 -1.32929 0
M  V30 12921 N 1212.04 -0.478751 -1.50152 0
M  V30 12922 C 1213.01 0.300181 -2.27226 0
M  V30 12923 C 1214.01 0.913705 -1.32318 0
M  V30 12924 O 1215.2 0.781692 -1.55677 0
M  V30 12925 C 1212.33 1.42838 -3.09532 0
M  V30 12926 H 1213.52 -0.375845 -2.97536 0
M  V30 12927 H 1211.07 -0.233037 -1.54553 0
M  V30 12928 H 1211.81 2.13923 -2.43737 0
M  V30 12929 H 1211.59 0.994161 -3.79287 0
M  V30 12930 H 1213.08 1.97765 -3.67802 0
M  V30 12931 N 1213.52 1.56172 -0.211661 0
M  V30 12932 C 1214.77 1.97648 0.421871 0
M  V30 12933 C 1215.09 1.10026 1.60995 0
M  V30 12934 O 1214.36 0.175109 1.95116 0
M  V30 12935 H 1212.94 0.729914 0.158852 0
M  V30 12936 H 1215.6 1.92542 -0.302254 0
M  V30 12937 H 1214.7 3.02834 0.754868 0
M  V30 12938 N 1215 -0.0618163 1.57479 0
M  V30 12939 C 1216.25 -0.757569 1.87364 0
M  V30 12940 C 1216.57 -1.77607 0.805025 0
M  V30 12941 O 1215.84 -1.95202 -0.165216 0
M  V30 12942 H 1214.42 -0.28278 0.691408 0
M  V30 12943 H 1217.08 -0.0355354 1.94868 0
M  V30 12944 H 1216.18 -1.26758 2.85199 0
M  V30 12945 N 1216.48 -1.54033 -0.333429 0
M  V30 12946 C 1217.73 -1.70979 -1.07 0
M  V30 12947 C 1218.04 -0.485095 -1.89489 0
M  V30 12948 O 1219.24 -0.535712 -2.66162 0
M  V30 12949 C 1217.7 -3.02382 -1.95175 0
M  V30 12950 C 1217.31 -4.32223 -1.17844 0
M  V30 12951 C 1219.05 -3.28693 -2.68628 0
M  V30 12952 C 1216.96 -5.54693 -2.05109 0
M  V30 12953 H 1215.89 -0.637152 -0.403179 0
M  V30 12954 H 1218.54 -1.80529 -0.328839 0
M  V30 12955 H 1216.92 -2.86714 -2.73151 0
M  V30 12956 H 1218.1 -4.58626 -0.447089 0
M  V30 12957 H 1216.41 -4.12601 -0.561166 0
M  V30 12958 H 1219.01 -4.17385 -3.34207 0
M  V30 12959 H 1219.35 -2.46141 -3.35738 0
M  V30 12960 H 1219.88 -3.45183 -1.9772 0
M  V30 12961 H 1216.62 -6.39818 -1.42523 0
M  V30 12962 H 1216.14 -5.32524 -2.76005 0
M  V30 12963 H 1217.82 -5.90722 -2.63926 0
M  V30 12964 N 1217.95 0.594978 -1.45938 0
M  V30 12965 C 1219.2 1.35561 -1.50834 0
M  V30 12966 C 1219.53 1.93584 -0.154566 0
M  V30 12967 O 1218.81 1.75781 0.832541 0
M  V30 12968 C 1219.09 2.49414 -2.5974 0
M  V30 12969 C 1218.94 1.96506 -4.04605 0
M  V30 12970 C 1220.26 3.51505 -2.64825 0
M  V30 12971 H 1217.38 0.491549 -0.549134 0
M  V30 12972 H 1220.02 0.669536 -1.77812 0
M  V30 12973 H 1218.17 3.07939 -2.36866 0
M  V30 12974 H 1219.85 1.42533 -4.38728 0
M  V30 12975 H 1218.09 1.27418 -4.14665 0
M  V30 12976 H 1218.76 2.78636 -4.76515 0
M  V30 12977 H 1221.24 3.02841 -2.85353 0
M  V30 12978 H 1220.11 4.28641 -3.42867 0
M  V30 12979 H 1220.37 4.07942 -1.70399 0
M  V30 12980 N 1219.43 1.33438 0.838571 0
M  V30 12981 C 1220.4 1.23632 1.92997 0
M  V30 12982 C 1221.4 0.155302 1.60048 0
M  V30 12983 O 1222.59 0.406852 1.69382 0
M  V30 12984 C 1219.72 0.90512 3.28665 0
M  V30 12985 H 1220.91 2.20643 2.03117 0
M  V30 12986 H 1218.46 1.17501 1.03069 0
M  V30 12987 H 1219.2 -0.0624833 3.2424 0
M  V30 12988 H 1218.98 1.68688 3.53959 0
M  V30 12989 H 1220.47 0.861262 4.08622 0
M  V30 12990 N 1220.91 -1.05686 1.16912 0
M  V30 12991 C 1222.16 -1.78244 0.95254 0
M  V30 12992 C 1222.48 -1.87924 -0.520525 0
M  V30 12993 O 1221.75 -1.39239 -1.37802 0
M  V30 12994 H 1220.33 -0.660228 0.349439 0
M  V30 12995 H 1222.99 -1.27634 1.47294 0
M  V30 12996 H 1222.09 -2.80102 1.37657 0
M  V30 12997 N 1222.39 -0.968567 -1.24324 0
M  V30 12998 C 1223.64 -0.626519 -1.91723 0
M  V30 12999 C 1223.95 0.84225 -1.76538 0
M  V30 13000 O 1225.16 1.29486 -2.38633 0
M  V30 13001 C 1223.61 -1.06992 -3.43629 0
M  V30 13002 C 1223.22 -2.5622 -3.67499 0
M  V30 13003 C 1224.96 -0.801057 -4.16873 0
M  V30 13004 C 1222.87 -2.94288 -5.1298 0
M  V30 13005 H 1221.8 -0.23062 -0.717865 0
M  V30 13006 H 1224.45 -1.17489 -1.40956 0
M  V30 13007 H 1222.83 -0.44985 -3.93437 0
M  V30 13008 H 1224.01 -3.23364 -3.28287 0
M  V30 13009 H 1222.32 -2.80726 -3.07542 0
M  V30 13010 H 1224.92 -1.06147 -5.24058 0
M  V30 13011 H 1225.26 0.262742 -4.1547 0
M  V30 13012 H 1225.8 -1.38213 -3.73017 0
M  V30 13013 H 1222.54 -3.99743 -5.19506 0
M  V30 13014 H 1222.06 -2.31829 -5.53187 0
M  V30 13015 H 1223.73 -2.84242 -5.81219 0
M  V30 13016 N 1223.87 1.39211 -0.738786 0
M  V30 13017 C 1225.11 2.00436 -0.28839 0
M  V30 13018 C 1225.44 1.58626 1.12552 0
M  V30 13019 O 1224.7 0.808154 1.78234 0
M  V30 13020 C 1225 3.55758 -0.342224 0
M  V30 13021 C 1224.66 4.1723 -1.70968 0
M  V30 13022 C 1223.32 4.33734 -2.08395 0
M  V30 13023 C 1225.68 4.51294 -2.60736 0
M  V30 13024 C 1223 4.81592 -3.35091 0
M  V30 13025 C 1225.36 5.00562 -3.86808 0
M  V30 13026 C 1224.02 5.15274 -4.24322 0
M  V30 13027 H 1223.29 0.733447 -0.105529 0
M  V30 13028 H 1225.94 1.66481 -0.94637 0
M  V30 13029 H 1224.24 3.8976 0.399331 0
M  V30 13030 H 1225.94 4.00993 0.0244582 0
M  V30 13031 H 1222.53 4.04788 -1.4087 0
M  V30 13032 H 1226.71 4.38158 -2.3309 0
M  V30 13033 H 1221.97 4.91167 -3.64095 0
M  V30 13034 H 1226.14 5.25892 -4.5652 0
M  V30 13035 H 1223.77 5.52119 -5.2256 0
M  V30 13036 N 1225.34 0.486708 1.49896 0
M  V30 13037 C 1226.27 -0.288898 2.31706 0
M  V30 13038 C 1227.26 -0.975901 1.3932 0
M  V30 13039 O 1228.44 -0.970065 1.68236 0
M  V30 13040 C 1225.57 -1.36218 3.19471 0
M  V30 13041 C 1224.52 -0.795884 4.20535 0
M  V30 13042 C 1223.85 -1.96862 4.97141 0
M  V30 13043 C 1225.15 0.203421 5.21904 0
M  V30 13044 H 1226.84 0.393934 2.96797 0
M  V30 13045 H 1224.39 0.190894 1.42729 0
M  V30 13046 H 1226.34 -1.91238 3.75508 0
M  V30 13047 H 1225.07 -2.074 2.52295 0
M  V30 13048 H 1223.73 -0.267538 3.65622 0
M  V30 13049 H 1223.37 -2.66779 4.26425 0
M  V30 13050 H 1223.07 -1.59585 5.65514 0
M  V30 13051 H 1224.6 -2.52343 5.56017 0
M  V30 13052 H 1226.01 -0.258144 5.72719 0
M  V30 13053 H 1224.41 0.491273 5.98086 0
M  V30 13054 H 1225.48 1.12414 4.7169 0
M  V30 13055 N 1226.82 -1.56058 0.219941 0
M  V30 13056 C 1228.07 -1.97436 -0.412543 0
M  V30 13057 C 1228.39 -1.11058 -1.61014 0
M  V30 13058 O 1229.59 -1.42328 -2.31203 0
M  V30 13059 C 1228.05 -3.51227 -0.785362 0
M  V30 13060 C 1227.66 -4.46305 0.389328 0
M  V30 13061 C 1229.4 -4.01321 -1.38354 0
M  V30 13062 C 1227.31 -5.914 -0.00583531 0
M  V30 13063 H 1226.24 -0.73728 -0.157906 0
M  V30 13064 H 1228.89 -1.8076 0.315898 0
M  V30 13065 H 1227.27 -3.63497 -1.57118 0
M  V30 13066 H 1228.44 -4.45781 1.16686 0
M  V30 13067 H 1226.76 -4.06543 0.900633 0
M  V30 13068 H 1229.36 -5.07221 -1.69207 0
M  V30 13069 H 1229.7 -3.47077 -2.29876 0
M  V30 13070 H 1230.23 -3.92267 -0.66119 0
M  V30 13071 H 1226.97 -6.49623 0.87583 0
M  V30 13072 H 1226.49 -5.95121 -0.74772 0
M  V30 13073 H 1228.17 -6.45549 -0.43308 0
M  V30 13074 N 1228.3 0.053464 -1.57509 0
M  V30 13075 C 1229.55 0.749102 -1.88135 0
M  V30 13076 C 1229.88 1.76642 -0.814111 0
M  V30 13077 O 1229.13 1.94796 0.187845 0
M  V30 13078 C 1229.43 1.47666 -3.25468 0
M  V30 13079 C 1229.1 0.597619 -4.46922 0
M  V30 13080 C 1227.76 0.355429 -4.79886 0
M  V30 13081 C 1230.11 -0.0107869 -5.21199 0
M  V30 13082 C 1227.44 -0.504347 -5.84528 0
M  V30 13083 C 1229.79 -0.858123 -6.26753 0
M  V30 13084 C 1228.45 -1.11001 -6.58206 0
M  V30 13085 H 1227.72 0.274116 -0.688434 0
M  V30 13086 H 1230.37 0.00944162 -1.91498 0
M  V30 13087 H 1228.68 2.28901 -3.1798 0
M  V30 13088 H 1230.37 2.02002 -3.46404 0
M  V30 13089 H 1226.96 0.796526 -4.21134 0
M  V30 13090 H 1231.15 0.163404 -4.96031 0
M  V30 13091 H 1226.4 -0.708057 -6.07286 0
M  V30 13092 H 1230.58 -1.3362 -6.83461 0
M  V30 13093 H 1228.2 -1.77798 -7.39116 0
M  V30 13094 N 1229.78 1.54207 0.325255 0
M  V30 13095 C 1231.03 1.71544 1.06091 0
M  V30 13096 C 1231.34 0.495137 1.89229 0
M  V30 13097 O 1232.55 0.54982 2.65874 0
M  V30 13098 C 1231 3.03412 1.93569 0
M  V30 13099 C 1230.61 4.32842 1.1555 0
M  V30 13100 C 1232.36 3.30113 2.66881 0
M  V30 13101 C 1230.26 5.55773 2.02164 0
M  V30 13102 H 1229.19 0.639281 0.399795 0
M  V30 13103 H 1231.84 1.80701 0.319261 0
M  V30 13104 H 1230.23 2.88158 2.71626 0
M  V30 13105 H 1231.4 4.58857 0.42276 0
M  V30 13106 H 1229.71 4.12893 0.539277 0
M  V30 13107 H 1232.31 4.19151 3.31988 0
M  V30 13108 H 1232.65 2.47918 3.34428 0
M  V30 13109 H 1233.19 3.46227 1.95887 0
M  V30 13110 H 1229.93 6.40565 1.39128 0
M  V30 13111 H 1229.45 5.3398 2.73177 0
M  V30 13112 H 1231.13 5.92113 2.60789 0
M  V30 13113 N 1231.26 -0.58723 1.46251 0
M  V30 13114 C 1232.17 -1.72455 1.59048 0
M  V30 13115 C 1233.18 -1.67416 0.47413 0
M  V30 13116 O 1234.36 -1.87406 0.737633 0
M  V30 13117 C 1231.42 -3.08953 1.57318 0
M  V30 13118 C 1230.49 -3.25291 2.80151 0
M  V30 13119 C 1229.72 -4.55277 2.78493 0
M  V30 13120 O 1229.94 -5.38883 1.8698 0
M  V30 13121 O 1228.88 -4.74765 3.69975 0
M  V30 13122 H 1232.7 -1.64606 2.55223 0
M  V30 13123 H 1230.29 -0.753742 1.28993 0
M  V30 13124 H 1232.17 -3.90239 1.59033 0
M  V30 13125 H 1230.84 -3.17249 0.643025 0
M  V30 13126 H 1229.75 -2.43515 2.83991 0
M  V30 13127 H 1231.08 -3.21883 3.7236 0
M  V30 13128 N 1232.74 -1.33881 -0.831482 0
M  V30 13129 C 1233.98 -1.251 -1.58218 0
M  V30 13130 C 1234.3 0.17963 -1.94773 0
M  V30 13131 O 1235.5 0.389516 -2.68691 0
M  V30 13132 C 1233.96 -2.19246 -2.8541 0
M  V30 13133 C 1233.57 -3.6752 -2.5619 0
M  V30 13134 C 1235.31 -2.19355 -3.63433 0
M  V30 13135 C 1233.22 -4.53559 -3.79523 0
M  V30 13136 H 1232.15 -0.46469 -0.593784 0
M  V30 13137 H 1234.8 -1.58992 -0.916169 0
M  V30 13138 H 1233.18 -1.78295 -3.53591 0
M  V30 13139 H 1234.36 -4.16956 -1.96173 0
M  V30 13140 H 1232.67 -3.69774 -1.91458 0
M  V30 13141 H 1235.27 -2.80863 -4.54995 0
M  V30 13142 H 1235.61 -1.19056 -3.98913 0
M  V30 13143 H 1236.14 -2.58706 -3.02185 0
M  V30 13144 H 1232.88 -5.54762 -3.4917 0
M  V30 13145 H 1232.4 -4.08862 -4.38853 0
M  V30 13146 H 1234.08 -4.67736 -4.47025 0
M  V30 13147 N 1234.21 1.05064 -1.1747 0
M  V30 13148 C 1235.18 2.1101 -0.89485 0
M  V30 13149 C 1236.18 1.60384 0.11553 0
M  V30 13150 O 1237.37 1.73808 -0.116785 0
M  V30 13151 C 1234.5 3.39194 -0.340642 0
M  V30 13152 H 1235.69 2.37269 -1.83421 0
M  V30 13153 H 1233.24 1.21329 -0.985343 0
M  V30 13154 H 1233.98 3.18591 0.605808 0
M  V30 13155 H 1233.76 3.77251 -1.06885 0
M  V30 13156 H 1235.25 4.17281 -0.163204 0
M  V30 13157 N 1235.69 0.975146 1.23809 0
M  V30 13158 C 1236.92 0.658023 1.95841 0
M  V30 13159 C 1237.33 -0.778132 1.72458 0
M  V30 13160 O 1236.67 -1.53462 1.00971 0
M  V30 13161 C 1236.73 0.862038 3.49012 0
M  V30 13162 C 1236.4 2.27925 3.96105 0
M  V30 13163 C 1237.4 3.25755 4.05191 0
M  V30 13164 C 1235.08 2.60894 4.29231 0
M  V30 13165 C 1237.07 4.54636 4.46749 0
M  V30 13166 C 1234.76 3.89999 4.70472 0
M  V30 13167 C 1235.76 4.86682 4.79197 0
M  V30 13168 O 1235.45 6.13483 5.19513 0
M  V30 13169 H 1235.18 0.243915 0.630461 0
M  V30 13170 H 1237.73 1.30768 1.58395 0
M  V30 13171 H 1235.96 0.155209 3.86388 0
M  V30 13172 H 1237.65 0.542873 4.02253 0
M  V30 13173 H 1238.42 3.01614 3.79808 0
M  V30 13174 H 1234.3 1.86355 4.21655 0
M  V30 13175 H 1237.84 5.30101 4.53474 0
M  V30 13176 H 1233.74 4.13937 4.95304 0
M  V30 13177 H 1234.51 6.17158 5.37641 0
M  V30 13178 N 1237.17 -1.38817 0.746158 0
M  V30 13179 C 1238.12 -2.30521 0.113517 0
M  V30 13180 C 1239.09 -1.49795 -0.717682 0
M  V30 13181 O 1240.27 -1.78448 -0.675345 0
M  V30 13182 C 1237.41 -3.36185 -0.779343 0
M  V30 13183 C 1236.52 -4.3195 0.0656784 0
M  V30 13184 C 1235.66 -5.24684 -0.829492 0
M  V30 13185 C 1234.7 -6.12097 0.0196112 0
M  V30 13186 N 1233.84 -6.97152 -0.832107 0
M  V30 13187 H 1238.68 -2.84048 0.901136 0
M  V30 13188 H 1236.21 -1.39853 0.456025 0
M  V30 13189 H 1238.17 -3.96048 -1.31156 0
M  V30 13190 H 1236.8 -2.84085 -1.53282 0
M  V30 13191 H 1235.85 -3.73611 0.715445 0
M  V30 13192 H 1237.16 -4.93551 0.721735 0
M  V30 13193 H 1236.32 -5.89627 -1.42915 0
M  V30 13194 H 1235.06 -4.63431 -1.5193 0
M  V30 13195 H 1234.06 -5.46156 0.631991 0
M  V30 13196 H 1235.29 -6.75416 0.706369 0
M  V30 13197 H 1233.23 -6.38456 -1.507 0
M  V30 13198 H 1233.15 -7.55642 -0.232782 0
M  V30 13199 H 1234.42 -7.66513 -1.41697 0
M  V30 13200 N 1238.65 -0.49465 -1.49636 0
M  V30 13201 C 1240.06 -0.150217 -1.58892 0
M  V30 13202 C 1240.26 1.34485 -1.50053 0
M  V30 13203 O 1239.32 2.12026 -1.37118 0
M  V30 13204 C 1240.63 -0.721372 -2.91919 0
M  V30 13205 C 1242.18 -0.686908 -3.0537 0
M  V30 13206 C 1242.66 -1.23601 -4.41006 0
M  V30 13207 N 1244.15 -1.19644 -4.47481 0
M  V30 13208 C 1244.88 -1.59157 -5.50869 0
M  V30 13209 N 1244.38 -2.06232 -6.61393 0
M  V30 13210 N 1246.17 -1.50612 -5.41546 0
M  V30 13211 H 1238.32 -1.46675 -1.53624 0
M  V30 13212 H 1240.58 -0.608003 -0.727349 0
M  V30 13213 H 1240.29 -1.76964 -3.03935 0
M  V30 13214 H 1240.16 -0.178199 -3.76779 0
M  V30 13215 H 1242.55 0.352508 -2.92987 0
M  V30 13216 H 1242.63 -1.26716 -2.22209 0
M  V30 13217 H 1242.28 -2.27418 -4.5414 0
M  V30 13218 H 1242.21 -0.631765 -5.22797 0
M  V30 13219 H 1244.7 -0.851443 -3.68183 0
M  V30 13220 H 1245.01 -2.34469 -7.36372 0
M  V30 13221 H 1243.36 -2.10202 -6.6245 0
M  V30 13222 H 1246.55 -1.13659 -4.54092 0
M  V30 13223 H 1246.72 -1.8173 -6.21995 0
M  V30 13224 N 1240.13 1.55939 -0.228214 0
M  V30 13225 C 1241.08 2.17223 0.692674 0
M  V30 13226 C 1242.06 1.12252 1.15275 0
M  V30 13227 O 1243.25 1.3822 1.10563 0
M  V30 13228 C 1240.38 2.86084 1.89766 0
M  V30 13229 C 1239.47 3.98288 1.45695 0
M  V30 13230 N 1239.86 5.00515 0.729258 0
M  V30 13231 C 1238.16 4.105 1.74372 0
M  V30 13232 C 1238.86 5.79516 0.503606 0
M  V30 13233 N 1237.83 5.33119 1.06229 0
M  V30 13234 H 1241.63 2.9362 0.128345 0
M  V30 13235 H 1239.15 1.62373 -0.0297445 0
M  V30 13236 H 1241.15 3.28404 2.5682 0
M  V30 13237 H 1239.81 2.11185 2.46639 0
M  V30 13238 H 1240.82 5.16495 0.381261 0
M  V30 13239 H 1237.49 3.46759 2.32518 0
M  V30 13240 H 1238.88 6.71857 -0.0760344 0
M  V30 13241 N 1241.6 -0.0451101 1.57535 0
M  V30 13242 C 1242.55 -1.05066 2.05499 0
M  V30 13243 C 1243.52 -1.36884 0.940843 0
M  V30 13244 O 1244.71 -1.47497 1.21034 0
M  V30 13245 C 1241.85 -2.35139 2.52594 0
M  V30 13246 C 1240.96 -2.0962 3.77735 0
M  V30 13247 C 1240.09 -3.33447 4.13505 0
M  V30 13248 C 1239.13 -3.03411 5.31609 0
M  V30 13249 N 1238.27 -4.19644 5.62888 0
M  V30 13250 H 1243.11 -0.63469 2.91163 0
M  V30 13251 H 1240.65 -0.30179 1.43971 0
M  V30 13252 H 1242.61 -3.11118 2.7796 0
M  V30 13253 H 1241.24 -2.74489 1.69869 0
M  V30 13254 H 1240.29 -1.24211 3.59549 0
M  V30 13255 H 1241.6 -1.83452 4.63839 0
M  V30 13256 H 1240.75 -4.17805 4.39914 0
M  V30 13257 H 1239.49 -3.62715 3.2602 0
M  V30 13258 H 1238.5 -2.17453 5.04969 0
M  V30 13259 H 1239.72 -2.75438 6.20734 0
M  V30 13260 H 1237.67 -4.48893 4.78363 0
M  V30 13261 H 1237.59 -3.96843 6.43468 0
M  V30 13262 H 1238.85 -5.04921 5.93865 0
M  V30 13263 N 1243.08 -1.54377 -0.317073 0
M  V30 13264 C 1244.36 -1.63551 -1.07287 0
M  V30 13265 C 1244.74 -0.473499 -2.05721 0
M  V30 13266 O 1244.09 0.531545 -2.22232 0
M  V30 13267 C 1244.3 -3.00842 -1.76904 0
M  V30 13268 C 1245.65 -3.57111 -2.29689 0
M  V30 13269 O 1246.67 -3.0319 -1.86961 0
M  V30 13270 O 1245.53 -4.51486 -3.07932 0
M  V30 13271 H 1242.62 -0.662557 -0.494922 0
M  V30 13272 H 1245.17 -1.66723 -0.316444 0
M  V30 13273 H 1243.94 -3.76854 -1.05341 0
M  V30 13274 H 1243.56 -3.01377 -2.59341 0
M  V30 13275 N 1244.56 0.579466 -1.4656 0
M  V30 13276 C 1245.52 1.67033 -1.56948 0
M  V30 13277 C 1246.52 1.54481 -0.446361 0
M  V30 13278 O 1247.71 1.5904 -0.710767 0
M  V30 13279 C 1244.85 3.06474 -1.49286 0
M  V30 13280 H 1246.04 1.59179 -2.54169 0
M  V30 13281 H 1243.59 0.797573 -1.34419 0
M  V30 13282 H 1244.33 3.1988 -0.533572 0
M  V30 13283 H 1244.11 3.16993 -2.30776 0
M  V30 13284 H 1245.6 3.85879 -1.59648 0
M  V30 13285 N 1246.04 1.3432 0.824371 0
M  V30 13286 C 1247.45 1.1397 1.11727 0
M  V30 13287 C 1247.65 -0.0597597 2.01411 0
M  V30 13288 O 1246.71 -0.735717 2.41544 0
M  V30 13289 C 1248.02 2.43423 1.76538 0
M  V30 13290 C 1249.57 2.49466 1.89039 0
M  V30 13291 C 1250.05 3.78917 2.57266 0
M  V30 13292 N 1251.54 3.8007 2.64767 0
M  V30 13293 C 1252.27 4.76953 3.18282 0
M  V30 13294 N 1251.77 5.84217 3.72373 0
M  V30 13295 N 1253.56 4.6441 3.1667 0
M  V30 13296 H 1245.71 2.11175 0.227802 0
M  V30 13297 H 1247.98 0.933774 0.163615 0
M  V30 13298 H 1247.68 3.31278 1.18102 0
M  V30 13299 H 1247.56 2.56655 2.7642 0
M  V30 13300 H 1249.94 1.62052 2.46623 0
M  V30 13301 H 1250.02 2.40163 0.880635 0
M  V30 13302 H 1249.67 4.6672 2.00336 0
M  V30 13303 H 1249.6 3.85502 3.58742 0
M  V30 13304 H 1252.09 3.02556 2.26425 0
M  V30 13305 H 1252.4 6.54159 4.11455 0
M  V30 13306 H 1250.75 5.87933 3.70621 0
M  V30 13307 H 1253.94 3.7976 2.73678 0
M  V30 13308 H 1254.11 5.40081 3.58073 0
M  V30 13309 N 1247.52 -1.0444 1.18026 0
M  V30 13310 C 1248.93 -1.29766 0.929143 0
M  V30 13311 C 1249.13 -1.97338 -0.407436 0
M  V30 13312 O 1248.19 -2.25166 -1.14265 0
M  V30 13313 C 1249.5 -2.16002 2.09197 0
M  V30 13314 C 1251.05 -2.29361 2.12985 0
M  V30 13315 C 1251.52 -3.18962 3.28675 0
M  V30 13316 N 1253.02 -3.26549 3.28512 0
M  V30 13317 C 1253.75 -3.96025 4.14671 0
M  V30 13318 N 1253.25 -4.67863 5.10956 0
M  V30 13319 N 1255.04 -3.92266 4.02597 0
M  V30 13320 H 1247.19 -0.58984 2.04046 0
M  V30 13321 H 1249.45 -0.322752 0.891367 0
M  V30 13322 H 1249.16 -1.73653 3.05839 0
M  V30 13323 H 1249.03 -3.16667 2.04943 0
M  V30 13324 H 1251.42 -2.70948 1.16924 0
M  V30 13325 H 1251.5 -1.28299 2.21298 0
M  V30 13326 H 1251.15 -2.78087 4.25006 0
M  V30 13327 H 1251.08 -4.20047 3.17598 0
M  V30 13328 H 1253.57 -2.75371 2.58804 0
M  V30 13329 H 1253.88 -5.1846 5.73079 0
M  V30 13330 H 1252.22 -4.6678 5.14919 0
M  V30 13331 H 1255.42 -3.35273 3.26665 0
M  V30 13332 H 1255.59 -4.4614 4.69961 0
M  V30 13333 N 1248.99 -0.981699 -1.2329 0
M  V30 13334 C 1249.94 -0.52269 -2.24803 0
M  V30 13335 C 1250.91 0.439116 -1.6019 0
M  V30 13336 O 1252.1 0.346372 -1.8763 0
M  V30 13337 C 1249.24 0.167477 -3.44693 0
M  V30 13338 C 1248.35 -0.834744 -4.23858 0
M  V30 13339 C 1247.48 -0.119249 -5.31066 0
M  V30 13340 C 1246.52 -1.1106 -6.0194 0
M  V30 13341 N 1245.66 -0.424167 -7.00818 0
M  V30 13342 H 1250.5 -1.39312 -2.63431 0
M  V30 13343 H 1248.04 -0.698061 -1.29482 0
M  V30 13344 H 1250 0.584442 -4.13086 0
M  V30 13345 H 1248.63 1.00177 -3.06862 0
M  V30 13346 H 1247.68 -1.37009 -3.5487 0
M  V30 13347 H 1248.99 -1.59012 -4.72776 0
M  V30 13348 H 1248.14 0.355015 -6.0566 0
M  V30 13349 H 1246.88 0.668714 -4.83094 0
M  V30 13350 H 1245.89 -1.5956 -5.26138 0
M  V30 13351 H 1247.11 -1.89924 -6.52001 0
M  V30 13352 H 1245.06 0.344564 -6.55094 0
M  V30 13353 H 1244.98 -1.11817 -7.47685 0
M  V30 13354 H 1246.24 0.0276655 -7.79495 0
M  V30 13355 N 1250.47 1.3842 -0.753509 0
M  V30 13356 C 1251.4 2.29039 -0.0859463 0
M  V30 13357 C 1252.42 1.47742 0.68383 0
M  V30 13358 O 1253.61 1.70607 0.524933 0
M  V30 13359 C 1250.71 3.26668 0.902296 0
M  V30 13360 C 1249.88 4.36986 0.190178 0
M  V30 13361 C 1248.94 5.14805 1.08916 0
M  V30 13362 O 1247.96 5.66441 0.559715 0
M  V30 13363 N 1249.17 5.27777 2.41726 0
M  V30 13364 H 1251.93 2.8697 -0.864196 0
M  V30 13365 H 1249.49 1.502 -0.604288 0
M  V30 13366 H 1251.48 3.75606 1.50672 0
M  V30 13367 H 1250.05 2.69636 1.58163 0
M  V30 13368 H 1249.27 3.89684 -0.594959 0
M  V30 13369 H 1250.56 5.07899 -0.302594 0
M  V30 13370 H 1249.96 4.87376 2.87196 0
M  V30 13371 H 1248.52 5.8009 2.97219 0
M  V30 13372 N 1251.95 0.502579 1.49372 0
M  V30 13373 C 1252.88 -0.321683 2.25921 0
M  V30 13374 C 1253.86 -0.968999 1.30572 0
M  V30 13375 O 1255.05 -0.998788 1.59864 0
M  V30 13376 C 1252.17 -1.45318 3.05942 0
M  V30 13377 C 1251.22 -0.920076 4.16457 0
M  V30 13378 S 1252.05 0.190402 5.35161 0
M  V30 13379 C 1253.21 -0.944222 6.18737 0
M  V30 13380 H 1253.44 0.328036 2.95485 0
M  V30 13381 H 1250.97 0.287903 1.51692 0
M  V30 13382 H 1252.93 -2.1015 3.52629 0
M  V30 13383 H 1251.59 -2.07452 2.35844 0
M  V30 13384 H 1250.79 -1.76808 4.71969 0
M  V30 13385 H 1250.39 -0.348944 3.72369 0
M  V30 13386 H 1252.68 -1.8491 6.51778 0
M  V30 13387 H 1253.62 -0.42769 7.06807 0
M  V30 13388 H 1254.03 -1.21227 5.5133 0
M  V30 13389 N 1253.43 -1.55816 0.23648 0
M  V30 13390 C 1254.36 -2.18248 -0.700024 0
M  V30 13391 C 1255.37 -1.15579 -1.14654 0
M  V30 13392 O 1256.56 -1.42491 -1.07511 0
M  V30 13393 C 1253.66 -2.76338 -1.9619 0
M  V30 13394 C 1252.84 -4.04325 -1.66853 0
M  V30 13395 C 1251.89 -4.46834 -2.77895 0
M  V30 13396 O 1250.92 -5.13427 -2.45725 0
M  V30 13397 N 1252.12 -4.13753 -4.07171 0
M  V30 13398 H 1254.89 -2.99241 -0.16589 0
M  V30 13399 H 1252.45 -1.61803 0.0560383 0
M  V30 13400 H 1254.44 -3.01739 -2.69695 0
M  V30 13401 H 1253.01 -1.99563 -2.4061 0
M  V30 13402 H 1252.23 -3.86623 -0.769164 0
M  V30 13403 H 1253.52 -4.8779 -1.44703 0
M  V30 13404 H 1252.92 -3.60271 -4.36144 0
M  V30 13405 H 1251.47 -4.44014 -4.77174 0
M  V30 13406 N 1254.91 0.036755 -1.57557 0
M  V30 13407 C 1255.84 1.03939 -2.09091 0
M  V30 13408 C 1256.82 1.38196 -0.991761 0
M  V30 13409 O 1258 1.47214 -1.26656 0
M  V30 13410 C 1255.13 2.34263 -2.56394 0
M  V30 13411 C 1254.09 2.14269 -3.70504 0
M  V30 13412 C 1253.41 3.50286 -4.03985 0
M  V30 13413 C 1254.71 1.53514 -4.9923 0
M  V30 13414 H 1256.41 0.610429 -2.93111 0
M  V30 13415 H 1253.95 0.292183 -1.41005 0
M  V30 13416 H 1255.91 3.04727 -2.91066 0
M  V30 13417 H 1254.63 2.79205 -1.69447 0
M  V30 13418 H 1253.29 1.46239 -3.36169 0
M  V30 13419 H 1252.94 3.92861 -3.14116 0
M  V30 13420 H 1252.64 3.37735 -4.80842 0
M  V30 13421 H 1254.16 4.22124 -4.41184 0
M  V30 13422 H 1255.57 2.13885 -5.31908 0
M  V30 13423 H 1253.97 1.51561 -5.80646 0
M  V30 13424 H 1255.04 0.500126 -4.82314 0
M  V30 13425 N 1256.39 1.54543 0.308881 0
M  V30 13426 C 1257.35 1.84214 1.36374 0
M  V30 13427 C 1258.35 0.71463 1.44047 0
M  V30 13428 O 1259.54 0.98293 1.4382 0
M  V30 13429 C 1256.67 2.01535 2.74948 0
M  V30 13430 H 1257.86 2.78477 1.11314 0
M  V30 13431 H 1255.42 1.46485 0.545141 0
M  V30 13432 H 1256.15 1.09533 3.05242 0
M  V30 13433 H 1255.94 2.83595 2.7077 0
M  V30 13434 H 1257.43 2.25888 3.51233 0
M  V30 13435 N 1257.86 -0.571685 1.46866 0
M  V30 13436 C 1259.11 -1.32948 1.52745 0
M  V30 13437 C 1259.44 -1.93631 0.183694 0
M  V30 13438 O 1258.69 -1.77605 -0.821886 0
M  V30 13439 C 1258.99 -2.47051 2.58264 0
M  V30 13440 C 1258.66 -2.04291 4.01965 0
M  V30 13441 C 1257.32 -1.92345 4.41086 0
M  V30 13442 C 1259.67 -1.71458 4.9219 0
M  V30 13443 C 1257 -1.4584 5.68285 0
M  V30 13444 C 1259.35 -1.26429 6.19837 0
M  V30 13445 C 1258.02 -1.13068 6.57854 0
M  V30 13446 H 1257.29 -0.48649 0.558935 0
M  V30 13447 H 1259.93 -0.642618 1.80396 0
M  V30 13448 H 1258.24 -3.21231 2.24316 0
M  V30 13449 H 1259.94 -3.05254 2.6004 0
M  V30 13450 H 1256.53 -2.14527 3.71047 0
M  V30 13451 H 1260.71 -1.79567 4.62676 0
M  V30 13452 H 1255.97 -1.34148 5.96502 0
M  V30 13453 H 1260.14 -1.00081 6.89171 0
M  V30 13454 H 1257.77 -0.768094 7.5631 0
M  V30 13455 N 1259.34 -1.34755 -0.817236 0
M  V30 13456 C 1260.3 -1.26687 -1.91006 0
M  V30 13457 C 1261.3 -0.180745 -1.59781 0
M  V30 13458 O 1262.49 -0.433748 -1.68714 0
M  V30 13459 C 1259.63 -0.957293 -3.27183 0
M  V30 13460 H 1260.82 -2.23846 -1.99582 0
M  V30 13461 H 1258.37 -1.19125 -1.01187 0
M  V30 13462 H 1259.11 0.0108917 -3.24298 0
M  V30 13463 H 1258.89 -1.74297 -3.5123 0
M  V30 13464 H 1260.38 -0.926161 -4.072 0
M  V30 13465 N 1260.82 1.03812 -1.18578 0
M  V30 13466 C 1261.78 2.10049 -0.91718 0
M  V30 13467 C 1262.78 1.60498 0.0985122 0
M  V30 13468 O 1263.97 1.73674 -0.135213 0
M  V30 13469 C 1261.1 3.38813 -0.376599 0
M  V30 13470 H 1262.3 2.3531 -1.85927 0
M  V30 13471 H 1259.85 1.20277 -0.998156 0
M  V30 13472 H 1260.59 3.19216 0.571983 0
M  V30 13473 H 1260.37 3.76096 -1.10881 0
M  V30 13474 H 1261.86 4.17084 -0.207453 0
M  V30 13475 N 1262.3 0.988223 1.22768 0
M  V30 13476 C 1263.54 0.662441 1.91676 0
M  V30 13477 C 1263.88 -0.802931 1.76824 0
M  V30 13478 O 1263.15 -1.58011 1.13415 0
M  V30 13479 C 1263.43 1.06332 3.44043 0
M  V30 13480 C 1263.29 2.5869 3.67967 0
M  V30 13481 C 1264.61 0.613058 4.35809 0
M  V30 13482 H 1261.73 0.242132 0.69609 0
M  V30 13483 H 1264.37 1.23091 1.44736 0
M  V30 13484 H 1262.52 0.579623 3.84152 0
M  V30 13485 H 1264.19 3.14694 3.37291 0
M  V30 13486 H 1262.43 3.00971 3.12408 0
M  V30 13487 H 1263.1 2.8179 4.74656 0
M  V30 13488 H 1265.58 1.02846 4.0319 0
M  V30 13489 H 1264.46 0.921901 5.41103 0
M  V30 13490 H 1264.72 -0.48641 4.39416 0
M  V30 13491 N 1263.78 -1.38018 0.760839 0
M  V30 13492 C 1264.72 -2.32251 0.127425 0
M  V30 13493 C 1265.72 -1.54387 -0.69722 0
M  V30 13494 O 1266.92 -1.69864 -0.595505 0
M  V30 13495 H 1263.3 -0.751666 0.0224141 0
M  V30 13496 H 1265.27 -2.8327 0.93813 0
M  V30 13497 C 1264.02 -3.39606 -0.745849 0
M  V30 13498 H 1263.34 -3.99618 -0.120679 0
M  V30 13499 H 1264.78 -4.07931 -1.15621 0
M  V30 13500 C 1263.24 -2.78778 -1.89167 0
M  V30 13501 O 1263.77 -2.68661 -2.98637 0
M  V30 13502 N 1261.98 -2.36481 -1.68894 0
M  V30 13503 H 1261.52 -2.4491 -0.798551 0
M  V30 13504 H 1261.48 -1.96126 -2.45728 0
M  V30 13505 N 1265.25 -0.510493 -1.49103 0
M  V30 13506 C 1266.5 0.030689 -2.02777 0
M  V30 13507 C 1266.83 1.35765 -1.38858 0
M  V30 13508 O 1266.11 1.87209 -0.527528 0
M  V30 13509 C 1266.39 0.173261 -3.59683 0
M  V30 13510 C 1266.24 -1.17749 -4.34114 0
M  V30 13511 C 1267.56 0.909395 -4.30602 0
M  V30 13512 H 1264.68 0.0096789 -0.736936 0
M  V30 13513 H 1267.32 -0.663746 -1.78029 0
M  V30 13514 H 1265.47 0.764721 -3.80899 0
M  V30 13515 H 1267.15 -1.80856 -4.24369 0
M  V30 13516 H 1265.39 -1.76438 -3.96298 0
M  V30 13517 H 1266.06 -1.03094 -5.42287 0
M  V30 13518 H 1268.54 0.407677 -4.14098 0
M  V30 13519 H 1267.41 0.978012 -5.40117 0
M  V30 13520 H 1267.67 1.9553 -3.96511 0
M  V30 13521 N 1266.73 1.55688 -0.24474 0
M  V30 13522 C 1267.98 1.99926 0.374301 0
M  V30 13523 C 1268.33 1.12997 1.55723 0
M  V30 13524 O 1267.63 0.185026 1.90705 0
M  V30 13525 C 1267.82 3.47487 0.835923 0
M  V30 13526 C 1267.65 4.48693 -0.300729 0
M  V30 13527 C 1266.42 4.99326 -0.774706 0
M  V30 13528 C 1268.62 5.018 -1.12699 0
M  V30 13529 N 1266.6 5.84276 -1.88399 0
M  V30 13530 C 1267.97 5.83901 -2.0847 0
M  V30 13531 C 1270.02 4.84108 -1.16379 0
M  V30 13532 C 1268.73 6.50197 -3.07629 0
M  V30 13533 C 1270.75 5.51181 -2.14368 0
M  V30 13534 C 1270.12 6.33068 -3.08876 0
M  V30 13535 H 1266.21 0.775189 0.102984 0
M  V30 13536 H 1268.8 1.91308 -0.361824 0
M  V30 13537 H 1266.97 3.56507 1.54135 0
M  V30 13538 H 1268.7 3.78604 1.42973 0
M  V30 13539 H 1265.46 4.72236 -0.359226 0
M  V30 13540 H 1265.88 6.31449 -2.44134 0
M  V30 13541 H 1270.52 4.2043 -0.447006 0
M  V30 13542 H 1268.24 7.13042 -3.80258 0
M  V30 13543 H 1271.83 5.39446 -2.1792 0
M  V30 13544 H 1270.71 6.84053 -3.8346 0
M  V30 13545 N 1268.21 -0.0283989 1.57574 0
M  V30 13546 C 1269.63 -0.384054 1.5491 0
M  V30 13547 C 1269.83 -1.76564 0.970947 0
M  V30 13548 O 1268.88 -2.45455 0.592288 0
M  V30 13549 C 1270.19 -0.285297 2.99344 0
M  V30 13550 C 1271.74 -0.36233 3.10896 0
M  V30 13551 C 1272.22 -0.293014 4.57062 0
M  V30 13552 N 1273.71 -0.351788 4.61862 0
M  V30 13553 C 1274.44 -0.321054 5.725 0
M  V30 13554 N 1273.94 -0.242573 6.92375 0
M  V30 13555 N 1275.73 -0.370832 5.60875 0
M  V30 13556 H 1267.88 0.87573 1.93506 0
M  V30 13557 H 1270.15 0.33305 0.887571 0
M  V30 13558 H 1269.85 0.664146 3.45372 0
M  V30 13559 H 1269.73 -1.07869 3.61447 0
M  V30 13560 H 1272.11 -1.30221 2.64814 0
M  V30 13561 H 1272.19 0.460422 2.51622 0
M  V30 13562 H 1271.84 0.643197 5.03811 0
M  V30 13563 H 1271.77 -1.13388 5.14248 0
M  V30 13564 H 1274.26 -0.414929 3.75615 0
M  V30 13565 H 1274.57 -0.224239 7.72475 0
M  V30 13566 H 1272.92 -0.208612 6.94687 0
M  V30 13567 H 1276.11 -0.430141 4.6612 0
M  V30 13568 H 1276.28 -0.343412 6.47089 0
M  V30 13569 N 1269.69 -1.54705 -0.300681 0
M  V30 13570 C 1270.63 -1.85678 -1.37084 0
M  V30 13571 C 1271.6 -0.70573 -1.50362 0
M  V30 13572 O 1272.79 -0.954385 -1.65215 0
M  V30 13573 C 1269.93 -2.10995 -2.73084 0
M  V30 13574 C 1269.04 -3.38621 -2.68254 0
M  V30 13575 C 1268.18 -3.53779 -3.9625 0
M  V30 13576 C 1267.22 -4.75195 -3.85818 0
M  V30 13577 N 1266.35 -4.87157 -5.05591 0
M  V30 13578 H 1271.19 -2.76967 -1.09971 0
M  V30 13579 H 1268.73 -1.37147 -0.531887 0
M  V30 13580 H 1270.69 -2.23669 -3.52176 0
M  V30 13581 H 1269.32 -1.22973 -2.98458 0
M  V30 13582 H 1268.37 -3.34566 -1.81025 0
M  V30 13583 H 1269.68 -4.27834 -2.56436 0
M  V30 13584 H 1268.84 -3.66119 -4.83779 0
M  V30 13585 H 1267.58 -2.62699 -4.10902 0
M  V30 13586 H 1266.58 -4.62888 -2.96673 0
M  V30 13587 H 1267.81 -5.67683 -3.72711 0
M  V30 13588 H 1265.75 -3.99001 -5.20706 0
M  V30 13589 H 1265.67 -5.70372 -4.96197 0
M  V30 13590 H 1266.94 -5.03854 -5.9477 0
M  V30 13591 N 1271.17 0.563888 -1.47167 0
M  V30 13592 C 1272.11 1.69254 -1.59549 0
M  V30 13593 C 1273.11 1.62948 -0.463078 0
M  V30 13594 O 1274.31 1.68214 -0.640639 0
M  V30 13595 H 1270.69 0.559925 -0.501984 0
M  V30 13596 H 1272.66 1.55946 -2.54408 0
M  V30 13597 C 1271.41 3.0762 -1.62066 0
M  V30 13598 H 1270.73 3.13151 -2.48549 0
M  V30 13599 H 1272.17 3.863 -1.74781 0
M  V30 13600 C 1270.63 3.35048 -0.352721 0
M  V30 13601 O 1271.16 3.9793 0.549053 0
M  V30 13602 N 1269.37 2.8965 -0.234805 0
M  V30 13603 H 1268.91 2.38657 -0.969561 0
M  V30 13604 H 1268.87 3.08373 0.61263 0
M  V30 13605 N 1272.64 1.35187 0.810078 0
M  V30 13606 C 1273.57 1.30481 1.93641 0
M  V30 13607 C 1274.56 0.179875 1.69146 0
M  V30 13608 O 1275.74 0.374284 1.90559 0
M  V30 13609 C 1272.87 1.07251 3.30325 0
M  V30 13610 C 1271.82 2.16348 3.69293 0
M  V30 13611 C 1271.15 1.78288 5.04101 0
M  V30 13612 C 1272.45 3.58285 3.80038 0
M  V30 13613 H 1274.14 2.24725 1.97836 0
M  V30 13614 H 1271.69 1.08179 0.950436 0
M  V30 13615 H 1273.64 1.02599 4.08719 0
M  V30 13616 H 1272.37 0.0945203 3.26463 0
M  V30 13617 H 1271.03 2.2009 2.93182 0
M  V30 13618 H 1270.67 0.791163 4.96739 0
M  V30 13619 H 1270.37 2.51315 5.31144 0
M  V30 13620 H 1271.9 1.75155 5.84938 0
M  V30 13621 H 1273.31 3.56884 4.48672 0
M  V30 13622 H 1271.71 4.30044 4.18548 0
M  V30 13623 H 1272.78 3.94691 2.81685 0
M  V30 13624 N 1274.12 -1.03182 1.19127 0
M  V30 13625 C 1275.05 -2.11462 0.884098 0
M  V30 13626 C 1276.07 -1.62342 -0.121984 0
M  V30 13627 O 1277.26 -1.78179 0.107038 0
M  V30 13628 C 1274.36 -3.37559 0.301227 0
M  V30 13629 C 1273.53 -4.15878 1.35514 0
M  V30 13630 C 1272.59 -5.20291 0.786349 0
M  V30 13631 O 1271.61 -5.50069 1.46331 0
M  V30 13632 N 1272.82 -5.79038 -0.411803 0
M  V30 13633 H 1275.58 -2.38405 1.81613 0
M  V30 13634 H 1273.14 -1.19449 1.09287 0
M  V30 13635 H 1275.13 -4.04593 -0.0930685 0
M  V30 13636 H 1273.7 -3.07987 -0.535022 0
M  V30 13637 H 1272.92 -3.44036 1.9244 0
M  V30 13638 H 1274.21 -4.64993 2.06539 0
M  V30 13639 H 1273.61 -5.57158 -0.979353 0
M  V30 13640 H 1272.17 -6.47495 -0.747912 0
M  V30 13641 N 1275.6 -0.99472 -1.22242 0
M  V30 13642 C 1276.88 -0.587481 -1.86569 0
M  V30 13643 C 1277.26 0.935174 -1.89256 0
M  V30 13644 O 1276.61 1.81787 -1.3844 0
M  V30 13645 C 1276.82 -1.21001 -3.27353 0
M  V30 13646 C 1278.16 -1.31167 -4.03832 0
M  V30 13647 O 1279.19 -1.16454 -3.36626 0
M  V30 13648 O 1278.05 -1.54731 -5.24138 0
M  V30 13649 H 1275.14 -0.199838 -0.802492 0
M  V30 13650 H 1277.69 -1.09071 -1.30006 0
M  V30 13651 H 1276.46 -2.25143 -3.20041 0
M  V30 13652 H 1276.08 -0.692479 -3.91523 0
M  V30 13653 N 1277.08 1.37613 -0.768148 0
M  V30 13654 C 1278.49 1.53202 -0.44737 0
M  V30 13655 C 1278.69 1.72736 1.03752 0
M  V30 13656 O 1277.75 1.74667 1.8234 0
M  V30 13657 C 1279.06 2.7306 -1.25931 0
M  V30 13658 C 1280.61 2.8692 -1.25084 0
M  V30 13659 C 1281.09 4.09757 -2.04605 0
M  V30 13660 N 1282.58 4.16862 -2.0194 0
M  V30 13661 C 1283.31 5.10936 -2.60254 0
M  V30 13662 N 1282.81 6.1059 -3.27341 0
M  V30 13663 N 1284.6 5.03393 -2.50104 0
M  V30 13664 H 1276.75 1.23184 -1.7303 0
M  V30 13665 H 1279.02 0.599541 -0.73434 0
M  V30 13666 H 1278.72 2.65078 -2.31141 0
M  V30 13667 H 1278.6 3.66646 -0.886036 0
M  V30 13668 H 1280.98 2.94375 -0.206736 0
M  V30 13669 H 1281.06 1.94303 -1.66373 0
M  V30 13670 H 1280.71 4.03063 -3.09035 0
M  V30 13671 H 1280.64 5.01481 -1.60701 0
M  V30 13672 H 1283.13 3.455 -1.53096 0
M  V30 13673 H 1283.44 6.78893 -3.6922 0
M  V30 13674 H 1281.79 6.10879 -3.31439 0
M  V30 13675 H 1284.98 4.24483 -1.9731 0
M  V30 13676 H 1285.15 5.76524 -2.95844 0
M  V30 13677 N 1278.56 0.518393 1.4883 0
M  V30 13678 C 1279.5 -0.250684 2.29435 0
M  V30 13679 C 1280.47 -0.944481 1.36634 0
M  V30 13680 O 1281.66 -0.947766 1.65596 0
M  V30 13681 C 1278.8 -1.29871 3.1973 0
M  V30 13682 C 1277.91 -0.61493 4.27601 0
M  V30 13683 C 1277.05 -1.64489 5.05091 0
M  V30 13684 C 1276.09 -0.943932 6.04778 0
M  V30 13685 N 1275.22 -1.91889 6.75369 0
M  V30 13686 H 1280.06 0.44288 2.94691 0
M  V30 13687 H 1277.6 0.230246 1.45287 0
M  V30 13688 H 1279.56 -1.91851 3.70471 0
M  V30 13689 H 1278.19 -1.96081 2.56422 0
M  V30 13690 H 1277.24 0.118552 3.80215 0
M  V30 13691 H 1278.55 -0.063994 4.98759 0
M  V30 13692 H 1277.71 -2.33928 5.59788 0
M  V30 13693 H 1276.44 -2.2297 4.33746 0
M  V30 13694 H 1275.45 -0.235407 5.49296 0
M  V30 13695 H 1276.67 -0.365383 6.78116 0
M  V30 13696 H 1274.62 -2.493 6.06783 0
M  V30 13697 H 1274.54 -1.41909 7.42562 0
M  V30 13698 H 1275.81 -2.60563 7.34661 0
M  V30 13699 N 1280.03 -1.55556 0.252993 0
M  V30 13700 C 1281.26 -2.03945 -0.376965 0
M  V30 13701 C 1281.68 -1.13089 -1.50308 0
M  V30 13702 O 1281.04 -0.125039 -1.80868 0
M  V30 13703 C 1281.09 -3.50284 -0.856363 0
M  V30 13704 O 1280.19 -3.62551 -1.96546 0
M  V30 13705 H 1279.54 -0.659002 -0.081317 0
M  V30 13706 H 1282.07 -2.01024 0.380831 0
M  V30 13707 H 1282.08 -3.91222 -1.15798 0
M  V30 13708 H 1280.75 -4.15887 -0.0323302 0
M  V30 13709 H 1279.33 -3.33511 -1.66808 0
M  V30 13710 N 1281.51 0.0200419 -1.57587 0
M  V30 13711 C 1282.76 0.707627 -1.89307 0
M  V30 13712 C 1283.08 1.7541 -0.851831 0
M  V30 13713 O 1282.35 1.95571 0.113404 0
M  V30 13714 H 1280.93 0.264349 -0.698662 0
M  V30 13715 H 1283.59 -0.0161428 -1.94893 0
M  V30 13716 H 1282.69 1.19152 -2.8846 0
M  V30 13717 N 1282.99 1.54862 0.292472 0
M  V30 13718 C 1284.41 1.46267 0.638611 0
M  V30 13719 C 1284.61 0.660824 1.90356 0
M  V30 13720 O 1283.66 0.171909 2.51914 0
M  V30 13721 C 1284.98 2.90309 0.783675 0
M  V30 13722 C 1286.52 3.00404 0.879004 0
M  V30 13723 C 1287 4.4566 1.056 0
M  V30 13724 N 1288.49 4.49406 1.122 0
M  V30 13725 C 1289.22 5.5899 1.2774 0
M  V30 13726 N 1288.72 6.78482 1.40123 0
M  V30 13727 N 1290.51 5.46695 1.30696 0
M  V30 13728 H 1282.66 2.0546 -0.538521 0
M  V30 13729 H 1284.93 0.930879 -0.179354 0
M  V30 13730 H 1284.63 3.5162 -0.0750437 0
M  V30 13731 H 1284.51 3.38215 1.67004 0
M  V30 13732 H 1286.89 2.39201 1.7282 0
M  V30 13733 H 1286.98 2.55781 -0.0315624 0
M  V30 13734 H 1286.62 5.07459 0.211535 0
M  V30 13735 H 1286.55 4.87921 1.98092 0
M  V30 13736 H 1289.04 3.63322 1.03948 0
M  V30 13737 H 1289.35 7.57752 1.5176 0
M  V30 13738 H 1287.7 6.81331 1.37163 0
M  V30 13739 H 1290.89 4.52288 1.20638 0
M  V30 13740 H 1291.06 6.32146 1.42463 0
M  V30 13741 N 1284.47 -0.556076 1.47464 0
M  V30 13742 C 1285.43 -1.64515 1.59586 0
M  V30 13743 C 1286.43 -1.53751 0.470881 0
M  V30 13744 O 1287.62 -1.57889 0.735979 0
M  V30 13745 C 1284.75 -3.0406 1.54143 0
M  V30 13746 H 1285.95 -1.55116 2.56669 0
M  V30 13747 H 1283.5 -0.776087 1.35671 0
M  V30 13748 H 1284.23 -3.18991 0.584395 0
M  V30 13749 H 1284.02 -3.13282 2.3579 0
M  V30 13750 H 1285.51 -3.8329 1.65766 0
M  V30 13751 N 1285.95 -1.35615 -0.802897 0
M  V30 13752 C 1286.86 -1.3096 -1.94645 0
M  V30 13753 C 1287.87 -0.213909 -1.7268 0
M  V30 13754 O 1289.05 -0.443932 -1.96446 0
M  V30 13755 C 1286.11 -1.08483 -3.2929 0
M  V30 13756 C 1285.18 -2.27401 -3.64126 0
M  V30 13757 C 1284.41 -2.05987 -4.92347 0
M  V30 13758 O 1284.63 -1.02819 -5.61057 0
M  V30 13759 O 1283.57 -2.93439 -5.25526 0
M  V30 13760 H 1287.39 -2.27209 -2.01519 0
M  V30 13761 H 1284.98 -1.16024 -0.941214 0
M  V30 13762 H 1286.86 -0.978118 -4.09891 0
M  V30 13763 H 1285.53 -0.152885 -3.23339 0
M  V30 13764 H 1284.44 -2.43638 -2.83886 0
M  V30 13765 H 1285.77 -3.19055 -3.74786 0
M  V30 13766 N 1287.43 1.02549 -1.19673 0
M  V30 13767 C 1288.84 1.57454 -1.00325 0
M  V30 13768 C 1289.19 1.91136 0.442889 0
M  V30 13769 O 1288.31 1.7126 1.32284 0
M  V30 13770 C 1288.91 2.86091 -1.81486 0
M  V30 13771 C 1287.47 3.37557 -1.6653 0
M  V30 13772 C 1286.61 2.1096 -1.79975 0
M  V30 13773 H 1289.56 0.850364 -1.33994 0
M  V30 13774 H 1289.59 3.5713 -1.31296 0
M  V30 13775 H 1289.1 2.61546 -2.86733 0
M  V30 13776 H 1287.2 3.67083 -0.638834 0
M  V30 13777 H 1287.31 4.1036 -2.47269 0
M  V30 13778 H 1285.68 2.22993 -1.23071 0
M  V30 13779 H 1286.46 1.88852 -2.86688 0
M  V30 13780 N 1288.9 1.00119 1.21713 0
M  V30 13781 C 1290.18 0.597366 1.86255 0
M  V30 13782 C 1290.56 -0.925124 1.89749 0
M  V30 13783 O 1289.91 -1.8105 1.39402 0
M  V30 13784 C 1290.12 1.22735 3.26707 0
M  V30 13785 C 1291.47 1.33307 4.03131 0
M  V30 13786 O 1292.49 1.18237 3.36003 0
M  V30 13787 O 1291.35 1.57509 5.2331 0
M  V30 13788 H 1288.44 0.204091 0.801421 0
M  V30 13789 H 1290.99 1.09759 1.29426 0
M  V30 13790 H 1289.76 2.26837 3.18843 0
M  V30 13791 H 1289.38 0.713232 3.91151 0
M  V30 13792 N 1290.38 -1.37203 0.775435 0
M  V30 13793 C 1291.79 -1.82224 0.406372 0
M  V30 13794 C 1292.14 -1.64587 -1.06796 0
M  V30 13795 O 1291.27 -1.15903 -1.82744 0
M  V30 13796 C 1291.86 -3.30824 0.730819 0
M  V30 13797 C 1290.42 -3.74108 0.414766 0
M  V30 13798 C 1289.57 -2.59679 0.972747 0
M  V30 13799 H 1292.52 -1.25623 0.969775 0
M  V30 13800 H 1292.54 -3.80496 0.0168066 0
M  V30 13801 H 1292.05 -3.43628 1.80392 0
M  V30 13802 H 1290.15 -3.66871 -0.650866 0
M  V30 13803 H 1290.27 -4.70074 0.925595 0
M  V30 13804 H 1288.63 -2.51591 0.396772 0
M  V30 13805 H 1289.41 -2.75274 2.05132 0
M  V30 13806 N 1291.86 -0.526279 -1.48553 0
M  V30 13807 C 1292.81 0.238513 -2.29564 0
M  V30 13808 C 1293.78 0.937222 -1.37133 0
M  V30 13809 O 1294.96 0.93897 -1.66096 0
M  V30 13810 C 1292.1 1.28173 -3.20415 0
M  V30 13811 C 1291.21 0.592244 -4.27921 0
M  V30 13812 C 1290.35 1.61808 -5.05956 0
M  V30 13813 C 1289.39 0.911846 -6.0527 0
M  V30 13814 N 1288.53 1.88305 -6.76377 0
M  V30 13815 H 1293.37 -0.458502 -2.94452 0
M  V30 13816 H 1290.9 -0.237948 -1.45163 0
M  V30 13817 H 1292.86 1.89883 -3.71484 0
M  V30 13818 H 1291.49 1.94718 -2.57458 0
M  V30 13819 H 1290.54 -0.138714 -3.80147 0
M  V30 13820 H 1291.85 0.0375427 -4.98786 0
M  V30 13821 H 1291.01 2.30956 -5.61021 0
M  V30 13822 H 1289.75 2.20667 -4.34922 0
M  V30 13823 H 1288.75 0.206273 -5.49413 0
M  V30 13824 H 1289.98 0.329415 -6.78301 0
M  V30 13825 H 1287.92 2.46079 -6.08096 0
M  V30 13826 H 1287.84 1.37969 -7.43304 0
M  V30 13827 H 1289.11 2.56663 -7.36033 0
M  V30 13828 N 1293.34 1.5542 -0.261239 0
M  V30 13829 C 1294.28 2.21972 0.632216 0
M  V30 13830 C 1295.25 1.18843 1.16041 0
M  V30 13831 O 1296.44 1.47339 1.21226 0
M  V30 13832 C 1293.58 2.93397 1.81693 0
M  V30 13833 C 1292.69 4.11214 1.3239 0
M  V30 13834 C 1291.83 4.70318 2.46931 0
M  V30 13835 C 1290.87 5.80355 1.94561 0
M  V30 13836 N 1290 6.33581 3.02523 0
M  V30 13837 H 1294.84 2.97944 0.058018 0
M  V30 13838 H 1292.38 1.4709 0.0168725 0
M  V30 13839 H 1294.34 3.33015 2.5131 0
M  V30 13840 H 1292.97 2.19874 2.36337 0
M  V30 13841 H 1292.02 3.76811 0.521292 0
M  V30 13842 H 1293.33 4.90609 0.900214 0
M  V30 13843 H 1292.49 5.12584 3.24565 0
M  V30 13844 H 1291.23 3.90169 2.92608 0
M  V30 13845 H 1290.23 5.37552 1.15402 0
M  V30 13846 H 1291.46 6.62364 1.49836 0
M  V30 13847 H 1289.4 5.56332 3.47608 0
M  V30 13848 H 1289.32 7.08209 2.64529 0
M  V30 13849 H 1290.59 6.80506 3.80174 0
M  V30 13850 N 1294.82 -0.0116844 1.57596 0
M  V30 13851 C 1295.76 -1.00684 2.07681 0
M  V30 13852 C 1296.73 -1.34858 0.969666 0
M  V30 13853 O 1297.92 -1.44896 1.24136 0
M  V30 13854 C 1295.06 -2.29729 2.57524 0
M  V30 13855 C 1294.17 -2.0156 3.82096 0
M  V30 13856 C 1293.31 -3.24601 4.20485 0
M  V30 13857 C 1292.34 -2.92066 5.37925 0
M  V30 13858 N 1291.48 -4.0761 5.71663 0
M  V30 13859 H 1296.32 -0.572787 2.92443 0
M  V30 13860 H 1293.86 -0.271184 1.44579 0
M  V30 13861 H 1295.82 -3.05152 2.84496 0
M  V30 13862 H 1294.45 -2.70824 1.75653 0
M  V30 13863 H 1293.5 -1.16556 3.62103 0
M  V30 13864 H 1294.81 -1.73572 4.67626 0
M  V30 13865 H 1293.96 -4.08379 4.48677 0
M  V30 13866 H 1292.7 -3.55718 3.3364 0
M  V30 13867 H 1291.71 -2.06693 5.09468 0
M  V30 13868 H 1292.93 -2.62209 6.26437 0
M  V30 13869 H 1290.88 -4.38645 4.87777 0
M  V30 13870 H 1290.8 -3.83105 6.51741 0
M  V30 13871 H 1292.06 -4.92211 6.04441 0
M  V30 13872 N 1296.29 -1.55015 -0.284256 0
M  V30 13873 C 1297.26 -1.8636 -1.33426 0
M  V30 13874 C 1298.26 -0.737457 -1.42892 0
M  V30 13875 O 1299.45 -1.00569 -1.42238 0
M  V30 13876 C 1296.58 -2.05884 -2.71707 0
M  V30 13877 H 1297.77 -2.80212 -1.06869 0
M  V30 13878 H 1295.32 -1.47334 -0.521767 0
M  V30 13879 H 1296.06 -1.14376 -3.03461 0
M  V30 13880 H 1295.84 -2.87867 -2.66224 0
M  V30 13881 H 1297.33 -2.31447 -3.47595 0
M  V30 13882 N 1297.77 0.548248 -1.47757 0
M  V30 13883 C 1299 1.3302 -1.58472 0
M  V30 13884 C 1299.41 1.87292 -0.238186 0
M  V30 13885 O 1298.77 1.65465 0.76991 0
M  V30 13886 C 1298.82 2.49386 -2.61704 0
M  V30 13887 O 1298.54 1.97355 -3.9113 0
M  V30 13888 C 1300.04 3.41471 -2.82688 0
M  V30 13889 H 1297.26 0.405172 -0.534861 0
M  V30 13890 H 1299.81 0.663251 -1.93446 0
M  V30 13891 H 1297.96 3.12001 -2.29639 0
M  V30 13892 H 1298.38 2.7339 -4.47614 0
M  V30 13893 H 1299.85 4.19516 -3.58762 0
M  V30 13894 H 1300.33 3.95573 -1.90837 0
M  V30 13895 H 1300.93 2.84664 -3.15985 0
M  V30 13896 N 1299.25 1.36039 0.795694 0
M  V30 13897 C 1300.5 1.29919 1.5533 0
M  V30 13898 C 1300.82 -0.123325 1.94109 0
M  V30 13899 O 1300.08 -1.09115 1.62457 0
M  V30 13900 C 1300.38 2.16166 2.84617 0
M  V30 13901 C 1300.04 3.64805 2.65006 0
M  V30 13902 C 1298.71 4.05319 2.59365 0
M  V30 13903 C 1301.06 4.59073 2.46781 0
M  V30 13904 C 1298.39 5.38251 2.33458 0
M  V30 13905 C 1300.74 5.92216 2.22402 0
M  V30 13906 C 1299.4 6.31862 2.1519 0
M  V30 13907 H 1298.67 0.475408 0.568391 0
M  V30 13908 H 1301.32 1.68035 0.918512 0
M  V30 13909 H 1299.62 1.70967 3.5253 0
M  V30 13910 H 1301.32 2.0876 3.42375 0
M  V30 13911 H 1297.91 3.32662 2.70248 0
M  V30 13912 H 1302.1 4.28651 2.50144 0
M  V30 13913 H 1297.35 5.67957 2.26352 0
M  V30 13914 H 1301.53 6.64833 2.07293 0
M  V30 13915 H 1299.15 7.34797 1.94878 0
M  V30 13916 N 1300.73 -1.01913 1.20215 0
M  V30 13917 C 1302.14 -1.27766 0.956459 0
M  V30 13918 C 1302.34 -1.98158 -0.365486 0
M  V30 13919 O 1301.4 -2.27539 -1.09463 0
M  V30 13920 C 1302.71 -2.11516 2.13732 0
M  V30 13921 C 1304.26 -2.24792 2.17802 0
M  V30 13922 C 1304.74 -3.11919 3.35367 0
M  V30 13923 N 1306.23 -3.19507 3.35364 0
M  V30 13924 C 1306.96 -3.8714 4.22978 0
M  V30 13925 N 1306.46 -4.5692 5.20765 0
M  V30 13926 N 1308.25 -3.83638 4.10827 0
M  V30 13927 H 1300.4 -0.546426 2.05251 0
M  V30 13928 H 1302.67 -0.303772 0.898012 0
M  V30 13929 H 1302.37 -1.67127 3.09453 0
M  V30 13930 H 1302.25 -3.12249 2.11614 0
M  V30 13931 H 1304.63 -2.68407 1.22645 0
M  V30 13932 H 1304.71 -1.23576 2.2397 0
M  V30 13933 H 1304.36 -2.6901 4.30809 0
M  V30 13934 H 1304.29 -4.13215 3.26436 0
M  V30 13935 H 1306.78 -2.69819 2.64587 0
M  V30 13936 H 1307.09 -5.06188 5.83947 0
M  V30 13937 H 1305.44 -4.55753 5.24704 0
M  V30 13938 H 1308.63 -3.28268 3.33703 0
M  V30 13939 H 1308.8 -4.36071 4.79318 0
M  V30 13940 N 1302.21 -1.00763 -1.2118 0
M  V30 13941 C 1303.17 -0.575183 -2.21865 0
M  V30 13942 C 1304.17 0.349871 -1.56948 0
M  V30 13943 O 1305.36 0.139795 -1.73638 0
M  V30 13944 C 1302.49 0.161308 -3.40518 0
M  V30 13945 H 1303.68 -1.46578 -2.61639 0
M  V30 13946 H 1301.24 -0.79643 -1.34487 0
M  V30 13947 H 1301.97 1.06723 -3.06236 0
M  V30 13948 H 1301.76 -0.503101 -3.88859 0
M  V30 13949 H 1303.25 0.451527 -4.15152 0
M  V30 13950 N 1303.68 1.3679 -0.7827 0
M  V30 13951 C 1304.93 1.98664 -0.348634 0
M  V30 13952 C 1305.25 1.62827 1.08382 0
M  V30 13953 O 1306.45 2.17886 1.61982 0
M  V30 13954 C 1304.91 3.55319 -0.572392 0
M  V30 13955 C 1304.52 4.00086 -2.01582 0
M  V30 13956 C 1306.26 4.24017 -0.202496 0
M  V30 13957 C 1304.17 5.49493 -2.18659 0
M  V30 13958 H 1303.1 0.743294 -0.126612 0
M  V30 13959 H 1305.75 1.56177 -0.963383 0
M  V30 13960 H 1304.13 3.95842 0.111973 0
M  V30 13961 H 1305.3 3.7078 -2.73603 0
M  V30 13962 H 1303.62 3.44205 -2.34333 0
M  V30 13963 H 1306.22 5.3381 -0.308459 0
M  V30 13964 H 1306.56 4.07559 0.84859 0
M  V30 13965 H 1307.09 3.88834 -0.839834 0
M  V30 13966 H 1303.83 5.7089 -3.22126 0
M  V30 13967 H 1303.35 5.80447 -1.51134 0
M  V30 13968 H 1305.03 6.15621 -1.99048 0
M  V30 13969 N 1305.16 0.53415 1.48272 0
M  V30 13970 C 1306.39 0.00574475 2.06899 0
M  V30 13971 C 1306.81 -1.27754 1.39012 0
M  V30 13972 O 1306.16 -1.76102 0.478993 0
M  V30 13973 C 1306.21 -0.217576 3.60845 0
M  V30 13974 O 1305.93 1.01487 4.26183 0
M  V30 13975 C 1307.44 -0.785888 4.36278 0
M  V30 13976 H 1304.66 0.0353967 0.670066 0
M  V30 13977 H 1307.2 0.740984 1.90603 0
M  V30 13978 H 1305.35 -0.902875 3.76732 0
M  V30 13979 H 1305.77 0.7982 5.18391 0
M  V30 13980 H 1307.24 -0.891551 5.44753 0
M  V30 13981 H 1307.72 -1.79178 4.00989 0
M  V30 13982 H 1308.33 -0.137022 4.25079 0
M  V30 13983 N 1306.64 -1.55279 0.269478 0
M  V30 13984 C 1307.87 -2.04334 -0.355313 0
M  V30 13985 C 1308.29 -1.14677 -1.491 0
M  V30 13986 O 1307.65 -0.144215 -1.80726 0
M  V30 13987 C 1307.7 -3.51172 -0.819162 0
M  V30 13988 O 1306.8 -3.64615 -1.9269 0
M  V30 13989 H 1306.14 -0.659827 -0.0743229 0
M  V30 13990 H 1308.67 -2.00609 0.402131 0
M  V30 13991 H 1308.68 -3.92428 -1.11642 0
M  V30 13992 H 1307.36 -4.15898 0.0117821 0
M  V30 13993 H 1305.93 -3.35261 -1.63261 0
M  V30 13994 N 1308.12 0.00332656 -1.576 0
M  V30 13995 C 1309.35 0.699945 -1.94701 0
M  V30 13996 C 1309.76 1.67492 -0.871312 0
M  V30 13997 O 1309.12 1.81882 0.150054 0
M  V30 13998 C 1309.17 1.43471 -3.31811 0
M  V30 13999 O 1308.89 0.498835 -4.35251 0
M  V30 14000 C 1310.39 2.22614 -3.83351 0
M  V30 14001 H 1307.61 0.195158 -0.641993 0
M  V30 14002 H 1310.16 -0.0468044 -2.04446 0
M  V30 14003 H 1308.31 2.13311 -3.23384 0
M  V30 14004 H 1308.72 1.01688 -5.14548 0
M  V30 14005 H 1310.2 2.69527 -4.81725 0
M  V30 14006 H 1310.68 3.05146 -3.15883 0
M  V30 14007 H 1311.28 1.57796 -3.94944 0
M  V30 14008 N 1309.6 1.55164 0.276031 0
M  V30 14009 C 1310.53 1.90844 1.34539 0
M  V30 14010 C 1311.51 0.769968 1.51676 0
M  V30 14011 O 1312.69 1.02785 1.64769 0
M  V30 14012 C 1309.82 2.17769 2.70543 0
M  V30 14013 C 1308.78 3.33592 2.68142 0
M  V30 14014 C 1308.1 3.45991 4.07669 0
M  V30 14015 C 1309.4 4.70064 2.27678 0
M  V30 14016 H 1311.1 2.80412 1.04926 0
M  V30 14017 H 1308.64 1.34918 0.503303 0
M  V30 14018 H 1310.6 2.41317 3.45462 0
M  V30 14019 H 1309.32 1.24997 3.01734 0
M  V30 14020 H 1307.98 3.10007 1.95681 0
M  V30 14021 H 1307.63 2.50691 4.36077 0
M  V30 14022 H 1307.33 4.23862 4.06958 0
M  V30 14023 H 1308.85 3.71828 4.84331 0
M  V30 14024 H 1310.26 4.93176 2.92319 0
M  V30 14025 H 1308.66 5.50829 2.38134 0
M  V30 14026 H 1309.73 4.69091 1.22808 0
M  V30 14027 N 1311.07 -0.540404 1.48045 0
M  V30 14028 C 1312.04 -1.62813 1.61322 0
M  V30 14029 C 1313.04 -1.53243 0.487161 0
M  V30 14030 O 1314.23 -1.571 0.752684 0
M  V30 14031 C 1311.36 -3.02408 1.5736 0
M  V30 14032 H 1312.55 -1.52385 2.583 0
M  V30 14033 H 1310.11 -0.761654 1.36486 0
M  V30 14034 H 1310.84 -3.18353 0.618195 0
M  V30 14035 H 1310.63 -3.10763 2.39099 0
M  V30 14036 H 1312.12 -3.8151 1.69822 0
M  V30 14037 N 1312.55 -1.36459 -0.788468 0
M  V30 14038 C 1313.78 -1.34063 -1.58246 0
M  V30 14039 C 1314.2 0.0754933 -1.87948 0
M  V30 14040 O 1313.56 1.04772 -1.47961 0
M  V30 14041 C 1313.61 -2.17038 -2.8797 0
M  V30 14042 O 1312.71 -1.56353 -3.81612 0
M  V30 14043 H 1312.05 -0.458816 -0.479983 0
M  V30 14044 H 1314.58 -1.79755 -0.977207 0
M  V30 14045 H 1314.59 -2.29651 -3.3723 0
M  V30 14046 H 1313.27 -3.19981 -2.65678 0
M  V30 14047 H 1311.85 -1.52685 -3.40208 0
M  V30 14048 N 1314.03 1.01274 -1.20754 0
M  V30 14049 C 1315.26 1.7906 -1.04653 0
M  V30 14050 C 1315.68 1.83806 0.399632 0
M  V30 14051 O 1315.04 1.27596 1.28798 0
M  V30 14052 C 1315.09 3.21187 -1.63925 0
M  V30 14053 O 1314.19 4.02913 -0.879486 0
M  V30 14054 H 1313.53 0.552147 -0.368823 0
M  V30 14055 H 1316.06 1.27356 -1.6013 0
M  V30 14056 H 1316.07 3.71887 -1.67822 0
M  V30 14057 H 1314.75 3.17048 -2.69172 0
M  V30 14058 H 1313.32 3.61499 -0.915019 0
M  V30 14059 N 1315.51 1.01404 1.20644 0
M  V30 14060 C 1316.76 0.701909 1.89946 0
M  V30 14061 C 1317.08 -0.768212 1.78686 0
M  V30 14062 O 1316.34 -1.57348 1.16363 0
M  V30 14063 C 1316.64 1.07995 3.40693 0
M  V30 14064 C 1316.3 2.54585 3.72152 0
M  V30 14065 C 1314.97 2.94639 3.80449 0
M  V30 14066 C 1317.32 3.49497 3.86654 0
M  V30 14067 C 1314.65 4.2855 4.00702 0
M  V30 14068 C 1317 4.83093 4.08416 0
M  V30 14069 C 1315.66 5.22857 4.14942 0
M  V30 14070 H 1314.93 0.256847 0.695062 0
M  V30 14071 H 1317.58 1.27415 1.4296 0
M  V30 14072 H 1315.88 0.426089 3.89476 0
M  V30 14073 H 1317.58 0.816176 3.92606 0
M  V30 14074 H 1314.17 2.22548 3.66292 0
M  V30 14075 H 1318.36 3.19713 3.79602 0
M  V30 14076 H 1313.61 4.58916 4.03988 0
M  V30 14077 H 1317.79 5.56565 4.18579 0
M  V30 14078 H 1315.41 6.26634 4.30388 0
M  V30 14079 N 1316.99 -1.36373 0.789944 0
M  V30 14080 C 1317.93 -2.30043 0.186798 0
M  V30 14081 C 1318.9 -1.52002 -0.669663 0
M  V30 14082 O 1320.09 -1.80506 -0.618232 0
M  V30 14083 C 1317.23 -3.38494 -0.671994 0
M  V30 14084 C 1316.34 -4.31522 0.203067 0
M  V30 14085 C 1315.48 -5.27057 -0.662148 0
M  V30 14086 C 1314.52 -6.11725 0.214335 0
M  V30 14087 N 1313.65 -6.99446 -0.609892 0
M  V30 14088 H 1318.49 -2.81038 0.991048 0
M  V30 14089 H 1316.03 -1.38331 0.500288 0
M  V30 14090 H 1317.99 -4.0002 -1.1849 0
M  V30 14091 H 1316.62 -2.88818 -1.44167 0
M  V30 14092 H 1315.67 -3.71146 0.833945 0
M  V30 14093 H 1316.98 -4.91005 0.878389 0
M  V30 14094 H 1316.14 -5.93875 -1.24084 0
M  V30 14095 H 1314.88 -4.6803 -1.37109 0
M  V30 14096 H 1313.88 -5.43868 0.805426 0
M  V30 14097 H 1315.11 -6.72827 0.92089 0
M  V30 14098 H 1313.05 -6.42927 -1.30312 0
M  V30 14099 H 1312.97 -7.56 0.00773786 0
M  V30 14100 H 1314.24 -7.70633 -1.1724 0
M  V30 14101 N 1318.47 -0.542005 -1.47987 0
M  V30 14102 C 1319.88 -0.200691 -1.58333 0
M  V30 14103 C 1320.08 1.29643 -1.54256 0
M  V30 14104 O 1319.14 2.07556 -1.43794 0
M  V30 14105 C 1320.45 -0.813878 -2.89476 0
M  V30 14106 C 1322 -0.783711 -3.0303 0
M  V30 14107 C 1322.47 -1.37569 -4.36851 0
M  V30 14108 N 1323.96 -1.33819 -4.43449 0
M  V30 14109 C 1324.7 -1.76602 -5.45527 0
M  V30 14110 N 1324.2 -2.27169 -6.54497 0
M  V30 14111 N 1325.99 -1.67765 -5.3648 0
M  V30 14112 H 1318.14 -1.51488 -1.4888 0
M  V30 14113 H 1320.4 -0.630835 -0.707638 0
M  V30 14114 H 1320.11 -1.86544 -2.98151 0
M  V30 14115 H 1319.98 -0.297978 -3.76021 0
M  V30 14116 H 1322.37 0.259118 -2.9396 0
M  V30 14117 H 1322.45 -1.33721 -2.18065 0
M  V30 14118 H 1322.09 -2.41751 -4.46675 0
M  V30 14119 H 1322.02 -0.797769 -5.20522 0
M  V30 14120 H 1324.52 -0.968147 -3.65288 0
M  V30 14121 H 1324.83 -2.57777 -7.2854 0
M  V30 14122 H 1323.17 -2.31171 -6.55427 0
M  V30 14123 H 1326.36 -1.28048 -4.50246 0
M  V30 14124 H 1326.54 -2.01426 -6.15899 0
M  V30 14125 N 1319.94 1.55134 -0.277709 0
M  V30 14126 C 1321.36 1.59417 0.0763615 0
M  V30 14127 C 1321.56 1.29491 1.54384 0
M  V30 14128 O 1320.62 1.05703 2.2931 0
M  V30 14129 C 1321.93 2.99194 -0.300607 0
M  V30 14130 C 1323.48 3.1202 -0.247438 0
M  V30 14131 C 1323.95 4.54068 -0.598884 0
M  V30 14132 N 1325.44 4.59917 -0.550534 0
M  V30 14133 C 1326.18 5.67859 -0.795235 0
M  V30 14134 N 1325.67 6.83936 -1.10469 0
M  V30 14135 N 1327.47 5.5742 -0.723859 0
M  V30 14136 H 1319.62 1.72851 -1.23435 0
M  V30 14137 H 1321.88 0.806137 -0.498846 0
M  V30 14138 H 1321.59 3.25937 -1.32129 0
M  V30 14139 H 1321.46 3.75504 0.35729 0
M  V30 14140 H 1323.85 2.8504 0.763959 0
M  V30 14141 H 1323.93 2.37917 -0.939629 0
M  V30 14142 H 1323.57 4.81774 -1.60798 0
M  V30 14143 H 1323.5 5.26474 0.115126 0
M  V30 14144 H 1325.99 3.76531 -0.321341 0
M  V30 14145 H 1326.31 7.62159 -1.278 0
M  V30 14146 H 1324.65 6.85545 -1.14249 0
M  V30 14147 H 1327.84 4.65613 -0.481925 0
M  V30 14148 H 1328.02 6.41465 -0.917944 0
M  V30 14149 N 1321.42 0.00503138 1.57599 0
M  V30 14150 C 1322.84 -0.351109 1.5569 0
M  V30 14151 C 1323.04 -1.74465 1.00818 0
M  V30 14152 O 1322.09 -2.44144 0.64422 0
M  V30 14153 C 1323.41 -0.221738 2.99881 0
M  V30 14154 C 1324.95 -0.296303 3.11594 0
M  V30 14155 C 1325.43 -0.195998 4.5758 0
M  V30 14156 N 1326.92 -0.253741 4.62504 0
M  V30 14157 C 1327.66 -0.199546 5.73053 0
M  V30 14158 N 1327.15 -0.0956553 6.92734 0
M  V30 14159 N 1328.94 -0.251779 5.61536 0
M  V30 14160 H 1321.1 0.916578 1.91605 0
M  V30 14161 H 1323.36 0.351802 0.880306 0
M  V30 14162 H 1323.06 0.737255 3.43886 0
M  V30 14163 H 1322.94 -1.00178 3.63654 0
M  V30 14164 H 1325.33 -1.24574 2.67517 0
M  V30 14165 H 1325.41 0.513692 2.50589 0
M  V30 14166 H 1325.05 0.749918 5.02333 0
M  V30 14167 H 1324.98 -1.02455 5.16537 0
M  V30 14168 H 1327.47 -0.335163 3.76411 0
M  V30 14169 H 1327.78 -0.0603357 7.72776 0
M  V30 14170 H 1326.13 -0.0612113 6.94973 0
M  V30 14171 H 1329.32 -0.331173 4.66927 0
M  V30 14172 H 1329.49 -0.206078 6.47672 0
M  V30 14173 N 1322.9 -1.55308 -0.267798 0
M  V30 14174 C 1324.12 -1.80524 -1.02107 0
M  V30 14175 C 1324.55 -0.579268 -1.78958 0
M  V30 14176 O 1323.91 0.471262 -1.75068 0
M  V30 14177 C 1323.96 -3.03248 -1.95123 0
M  V30 14178 O 1323.06 -2.78699 -3.03975 0
M  V30 14179 H 1322.4 -0.596518 -0.291655 0
M  V30 14180 H 1324.93 -2.0246 -0.295128 0
M  V30 14181 H 1324.94 -3.32121 -2.3698 0
M  V30 14182 H 1323.62 -3.92126 -1.386 0
M  V30 14183 H 1322.19 -2.60936 -2.66396 0
M  V30 14184 N 1324.38 0.532545 -1.4833 0
M  V30 14185 C 1325.6 1.31809 -1.60129 0
M  V30 14186 C 1326.03 1.86283 -0.260807 0
M  V30 14187 O 1325.39 1.6427 0.767137 0
M  V30 14188 C 1325.43 2.44661 -2.64903 0
M  V30 14189 O 1324.54 3.47622 -2.21885 0
M  V30 14190 H 1323.88 0.390492 -0.53704 0
M  V30 14191 H 1326.41 0.641068 -1.94297 0
M  V30 14192 H 1326.42 2.90883 -2.86096 0
M  V30 14193 H 1325.09 2.04373 -3.62222 0
M  V30 14194 H 1323.67 3.07536 -2.10894 0
M  V30 14195 N 1325.86 1.36875 0.78122 0
M  V30 14196 C 1326.8 1.31869 1.89418 0
M  V30 14197 C 1327.77 0.185904 1.65056 0
M  V30 14198 O 1328.96 0.373745 1.87104 0
M  V30 14199 C 1326.1 1.12205 3.2635 0
M  V30 14200 C 1325.21 2.34631 3.62729 0
M  V30 14201 C 1324.35 2.07914 4.8882 0
M  V30 14202 C 1323.38 3.26257 5.17902 0
M  V30 14203 N 1322.52 2.99152 6.35179 0
M  V30 14204 H 1327.36 2.2703 1.93032 0
M  V30 14205 H 1324.9 1.12826 0.943857 0
M  V30 14206 H 1326.86 0.988282 4.05326 0
M  V30 14207 H 1325.49 0.206959 3.22136 0
M  V30 14208 H 1324.54 2.58782 2.78812 0
M  V30 14209 H 1325.85 3.22919 3.80164 0
M  V30 14210 H 1325 1.91514 5.7568 0
M  V30 14211 H 1323.74 1.1695 4.7347 0
M  V30 14212 H 1322.75 3.43207 4.29522 0
M  V30 14213 H 1323.97 4.1806 5.35166 0
M  V30 14214 H 1321.92 2.10807 6.21205 0
M  V30 14215 H 1321.84 3.80981 6.52985 0
M  V30 14216 H 1323.1 2.86349 7.25 0
M  V30 14217 N 1327.33 -1.00632 1.21289 0
M  V30 14218 C 1328.61 -1.71635 0.938124 0
M  V30 14219 C 1328.99 -2.03798 -0.550416 0
M  V30 14220 O 1328.34 -1.71065 -1.5149 0
M  V30 14221 C 1328.55 -2.97674 1.82184 0
M  V30 14222 C 1329.9 -3.7073 2.06989 0
M  V30 14223 O 1330.92 -3.07653 1.79522 0
M  V30 14224 O 1329.78 -4.84183 2.53435 0
M  V30 14225 H 1326.87 -0.748506 0.351664 0
M  V30 14226 H 1329.42 -1.06387 1.32212 0
M  V30 14227 H 1328.19 -2.70306 2.82931 0
M  V30 14228 H 1327.81 -3.70663 1.43858 0
M  V30 14229 N 1328.81 -1.02043 -1.20104 0
M  V30 14230 C 1330.04 -0.731315 -1.93544 0
M  V30 14231 C 1330.45 0.708582 -1.74999 0
M  V30 14232 O 1329.81 1.481 -1.06642 0
M  V30 14233 C 1329.86 -1.06233 -3.45538 0
M  V30 14234 O 1329.58 -2.44568 -3.63481 0
M  V30 14235 C 1331.08 -0.794818 -4.36116 0
M  V30 14236 H 1328.3 -0.268248 -0.615048 0
M  V30 14237 H 1330.85 -1.36264 -1.52488 0
M  V30 14238 H 1329 -0.476341 -3.8446 0
M  V30 14239 H 1329.42 -2.5663 -4.57429 0
M  V30 14240 H 1330.89 -1.07647 -5.41402 0
M  V30 14241 H 1331.37 0.270944 -4.38363 0
M  V30 14242 H 1331.97 -1.36314 -4.02863 0
M  V30 14243 N 1330.29 1.35952 -0.797165 0
M  V30 14244 C 1331.52 2.0381 -0.38421 0
M  V30 14245 C 1331.94 1.597 0.993854 0
M  V30 14246 O 1331.3 0.769148 1.64176 0
M  V30 14247 C 1331.35 3.57589 -0.465054 0
M  V30 14248 O 1330.45 4.09043 0.525095 0
M  V30 14249 H 1329.79 0.643957 -0.161912 0
M  V30 14250 H 1332.32 1.73746 -1.08043 0
M  V30 14251 H 1332.33 4.06651 -0.331448 0
M  V30 14252 H 1331.01 3.89045 -1.47027 0
M  V30 14253 H 1329.58 3.7123 0.352509 0
M  V30 14254 N 1331.77 0.549846 1.47697 0
M  V30 14255 C 1333 0.0276889 2.06881 0
M  V30 14256 C 1333.41 -1.26273 1.40359 0
M  V30 14257 O 1332.77 -1.75584 0.497644 0
M  V30 14258 C 1332.82 -0.179291 3.61055 0
M  V30 14259 O 1332.54 1.06002 4.25083 0
M  V30 14260 C 1334.04 -0.739571 4.37087 0
M  V30 14261 H 1331.26 0.0425016 0.669653 0
M  V30 14262 H 1333.81 0.761158 1.89807 0
M  V30 14263 H 1331.96 -0.862867 3.77668 0
M  V30 14264 H 1332.37 0.853137 5.17515 0
M  V30 14265 H 1333.85 -0.833722 5.45668 0
M  V30 14266 H 1334.33 -1.74915 4.02867 0
M  V30 14267 H 1334.93 -0.0919294 4.25201 0
M  V30 14268 N 1333.25 -1.54984 0.285932 0
M  V30 14269 C 1334.49 -1.99436 -0.32709 0
M  V30 14270 C 1334.82 -1.17582 -1.55562 0
M  V30 14271 O 1334.09 -0.268002 -1.94058 0
M  V30 14272 H 1332.67 -0.736662 -0.123846 0
M  V30 14273 H 1335.33 -1.90881 0.393774 0
M  V30 14274 H 1334.42 -3.0609 -0.609523 0
M  V30 14275 N 1334.72 -0.0133892 -1.57594 0
M  V30 14276 C 1335.97 0.667313 -1.90765 0
M  V30 14277 C 1336.29 1.73564 -0.888847 0
M  V30 14278 O 1335.56 1.95768 0.0718946 0
M  V30 14279 H 1334.14 0.24947 -0.704112 0
M  V30 14280 H 1336.81 -0.0574789 -1.94815 0
M  V30 14281 H 1335.9 1.13007 -2.90922 0
M  V30 14282 N 1336.2 1.55448 0.259558 0
M  V30 14283 C 1337.45 1.76337 0.987396 0
M  V30 14284 C 1337.77 0.57505 1.86328 0
M  V30 14285 O 1337.04 -0.409621 1.9157 0
M  V30 14286 H 1335.62 0.650312 0.367565 0
M  V30 14287 H 1338.28 1.9287 0.280551 0
M  V30 14288 H 1337.38 2.66975 1.61651 0
M  V30 14289 N 1337.68 -0.524672 1.4861 0
M  V30 14290 C 1339.1 -0.853703 1.34848 0
M  V30 14291 C 1339.3 -1.98194 0.363529 0
M  V30 14292 O 1338.35 -2.51597 -0.213348 0
M  V30 14293 C 1339.67 -1.21622 2.75006 0
M  V30 14294 C 1341.21 -1.3258 2.83534 0
M  V30 14295 C 1341.69 -1.72172 4.24406 0
M  V30 14296 N 1343.18 -1.79265 4.27105 0
M  V30 14297 C 1343.91 -2.11296 5.33049 0
M  V30 14298 N 1343.41 -2.41714 6.49266 0
M  V30 14299 N 1345.2 -2.12347 5.20447 0
M  V30 14300 H 1337.35 0.219671 2.11261 0
M  V30 14301 H 1339.62 0.0356444 0.94733 0
M  V30 14302 H 1339.32 -0.460776 3.48669 0
M  V30 14303 H 1339.2 -2.16516 3.0887 0
M  V30 14304 H 1341.58 -2.072 2.10124 0
M  V30 14305 H 1341.67 -0.357943 2.53283 0
M  V30 14306 H 1341.31 -0.981108 4.98334 0
M  V30 14307 H 1341.24 -2.70017 4.52104 0
M  V30 14308 H 1343.73 -1.58013 3.43279 0
M  V30 14309 H 1344.04 -2.65276 7.25843 0
M  V30 14310 H 1342.39 -2.39222 6.52532 0
M  V30 14311 H 1345.58 -1.88044 4.28669 0
M  V30 14312 H 1345.75 -2.36978 6.03113 0
M  V30 14313 N 1339.16 -1.37287 -0.77395 0
M  V30 14314 C 1340.41 -1.32112 -1.5294 0
M  V30 14315 C 1340.73 0.0946137 -1.9477 0
M  V30 14316 O 1340 1.03817 -1.66129 0
M  V30 14317 H 1338.58 -0.486047 -0.567245 0
M  V30 14318 H 1341.24 -1.71752 -0.921263 0
M  V30 14319 H 1340.34 -1.95873 -2.42982 0
M  V30 14320 N 1340.64 0.999871 -1.21821 0
M  V30 14321 C 1341.6 2.07024 -0.983541 0
M  V30 14322 C 1342.6 1.6073 0.0474011 0
M  V30 14323 O 1343.79 1.73156 -0.190398 0
M  V30 14324 C 1340.92 3.37444 -0.484199 0
M  V30 14325 H 1342.11 2.29276 -1.9332 0
M  V30 14326 H 1339.67 1.1704 -1.03592 0
M  V30 14327 H 1340.4 3.20874 0.470138 0
M  V30 14328 H 1340.19 3.72378 -1.2279 0
M  V30 14329 H 1341.68 4.16213 -0.34004 0
M  V30 14330 N 1342.11 1.02678 1.19562 0
M  V30 14331 C 1343.04 0.626359 2.24942 0
M  V30 14332 C 1344.03 -0.363612 1.66168 0
M  V30 14333 O 1345.21 -0.246793 1.92625 0
M  V30 14334 C 1342.34 -0.0257912 3.4729 0
M  V30 14335 C 1341.29 0.886237 4.18724 0
M  V30 14336 C 1340.62 0.0993081 5.34608 0
M  V30 14337 C 1341.92 2.19901 4.73752 0
M  V30 14338 H 1343.61 1.50729 2.58691 0
M  V30 14339 H 1341.16 0.726195 1.24348 0
M  V30 14340 H 1343.11 -0.317545 4.20202 0
M  V30 14341 H 1341.84 -0.941511 3.12735 0
M  V30 14342 H 1340.5 1.16215 3.47692 0
M  V30 14343 H 1340.14 -0.81838 4.96298 0
M  V30 14344 H 1339.84 0.706776 5.83334 0
M  V30 14345 H 1341.37 -0.185754 6.10317 0
M  V30 14346 H 1342.78 1.96892 5.3843 0
M  V30 14347 H 1341.18 2.75821 5.32956 0
M  V30 14348 H 1342.25 2.85509 3.91934 0
M  V30 14349 N 1343.59 -1.35528 0.804364 0
M  V30 14350 C 1344.52 -2.28562 0.170893 0
M  V30 14351 C 1345.54 -1.50178 -0.628526 0
M  V30 14352 O 1346.73 -1.72438 -0.461252 0
M  V30 14353 C 1343.83 -3.29792 -0.780434 0
M  V30 14354 C 1343 -4.37391 -0.0278619 0
M  V30 14355 C 1342.06 -5.18492 -0.897341 0
M  V30 14356 O 1341.08 -5.68128 -0.349098 0
M  V30 14357 N 1342.29 -5.36385 -2.21971 0
M  V30 14358 H 1345.05 -2.83565 0.970108 0
M  V30 14359 H 1342.61 -1.47854 0.659617 0
M  V30 14360 H 1344.6 -3.80939 -1.36628 0
M  V30 14361 H 1343.17 -2.7532 -1.48046 0
M  V30 14362 H 1342.39 -3.87208 0.739178 0
M  V30 14363 H 1343.68 -5.06426 0.490889 0
M  V30 14364 H 1343.08 -4.97699 -2.6891 0
M  V30 14365 H 1341.64 -5.90721 -2.75485 0
M  V30 14366 N 1345.07 -0.557671 -1.47404 0
M  V30 14367 C 1346.02 0.202834 -2.31714 0
M  V30 14368 C 1347.01 0.908873 -1.42954 0
M  V30 14369 O 1348.22 0.830106 -1.59716 0
M  V30 14370 H 1344.59 0.0842824 -0.747262 0
M  V30 14371 H 1346.57 -0.527431 -2.93702 0
M  V30 14372 C 1345.31 1.21937 -3.25617 0
M  V30 14373 H 1344.64 0.685506 -3.93879 0
M  V30 14374 H 1346.08 1.72237 -3.87441 0
M  V30 14375 C 1344.54 2.26748 -2.49173 0
M  V30 14376 O 1345.07 3.33681 -2.23651 0
M  V30 14377 N 1343.27 2.00687 -2.10174 0
M  V30 14378 H 1342.82 1.13741 -2.3113 0
M  V30 14379 H 1342.78 2.71031 -1.59342 0
M  V30 14380 N 1346.55 1.54831 -0.294147 0
M  V30 14381 C 1347.48 2.20696 0.61854 0
M  V30 14382 C 1348.49 1.19754 1.10285 0
M  V30 14383 O 1349.68 1.46383 1.02148 0
M  V30 14384 C 1346.78 2.83429 1.85798 0
M  V30 14385 C 1345.96 4.10239 1.51731 0
M  V30 14386 C 1345.02 4.56841 2.61119 0
M  V30 14387 O 1344.04 5.22194 2.26501 0
M  V30 14388 N 1345.24 4.2858 3.91534 0
M  V30 14389 H 1348.01 2.9965 0.054714 0
M  V30 14390 H 1345.57 1.61484 -0.116052 0
M  V30 14391 H 1347.56 3.11541 2.5831 0
M  V30 14392 H 1346.13 2.08356 2.33038 0
M  V30 14393 H 1345.35 3.89212 0.625142 0
M  V30 14394 H 1346.64 4.92824 1.26499 0
M  V30 14395 H 1346.04 3.7621 4.22472 0
M  V30 14396 H 1344.59 4.61418 4.60366 0
M  V30 14397 N 1348.03 0.0217466 1.57585 0
M  V30 14398 C 1348.97 -0.962559 2.0977 0
M  V30 14399 C 1349.94 -1.32771 0.998053 0
M  V30 14400 O 1351.13 -1.42231 1.27181 0
M  V30 14401 C 1348.27 -2.24214 2.62339 0
M  V30 14402 C 1347.38 -1.9341 3.86286 0
M  V30 14403 C 1346.52 -3.15609 4.27275 0
M  V30 14404 C 1345.56 -2.8059 5.43999 0
M  V30 14405 N 1344.69 -3.95392 5.8018 0
M  V30 14406 H 1349.53 -0.510626 2.93593 0
M  V30 14407 H 1347.07 -0.240456 1.45121 0
M  V30 14408 H 1349.03 -2.99049 2.90905 0
M  V30 14409 H 1347.66 -2.67037 1.81358 0
M  V30 14410 H 1346.71 -1.08849 3.64494 0
M  V30 14411 H 1348.02 -1.63614 4.71203 0
M  V30 14412 H 1347.18 -3.9877 4.57239 0
M  V30 14413 H 1345.92 -3.48561 3.41111 0
M  V30 14414 H 1344.92 -1.9584 5.13738 0
M  V30 14415 H 1346.15 -2.48863 6.31858 0
M  V30 14416 H 1344.09 -4.282 4.96971 0
M  V30 14417 H 1344.01 -3.69195 6.59721 0
M  V30 14418 H 1345.28 -4.79279 6.14746 0
M  V30 14419 N 1349.51 -1.55583 -0.251311 0
M  V30 14420 C 1350.78 -1.67954 -1.00254 0
M  V30 14421 C 1351.16 -0.560326 -2.03528 0
M  V30 14422 O 1350.51 0.436811 -2.24286 0
M  V30 14423 C 1350.72 -3.08075 -1.63985 0
M  V30 14424 C 1352.07 -3.66531 -2.14336 0
M  V30 14425 O 1353.09 -3.10846 -1.73934 0
M  V30 14426 O 1351.95 -4.64141 -2.88506 0
M  V30 14427 H 1349.05 -0.682952 -0.466375 0
M  V30 14428 H 1351.59 -1.67916 -0.245447 0
M  V30 14429 H 1350.36 -3.80983 -0.892627 0
M  V30 14430 H 1349.99 -3.12105 -2.46325 0
M  V30 14431 N 1350.98 0.516783 -1.48886 0
M  V30 14432 C 1352.21 1.29628 -1.61258 0
M  V30 14433 C 1352.63 1.86744 -0.27786 0
M  V30 14434 O 1351.98 1.67061 0.734639 0
M  V30 14435 C 1352.03 2.43779 -2.66935 0
M  V30 14436 O 1351.76 1.89014 -3.95228 0
M  V30 14437 C 1353.26 3.35398 -2.89867 0
M  V30 14438 H 1350.48 0.393736 -0.543335 0
M  V30 14439 H 1353.02 0.622069 -1.94809 0
M  V30 14440 H 1351.18 3.0706 -2.36206 0
M  V30 14441 H 1351.59 2.63833 -4.53312 0
M  V30 14442 H 1353.06 4.11812 -3.6758 0
M  V30 14443 H 1353.54 3.91436 -1.99185 0
M  V30 14444 H 1354.15 2.77898 -3.21952 0
M  V30 14445 N 1352.46 1.37696 0.766659 0
M  V30 14446 C 1353.71 1.33382 1.52765 0
M  V30 14447 C 1354.04 -0.0800569 1.94035 0
M  V30 14448 O 1353.32 -1.03848 1.64456 0
M  V30 14449 C 1353.6 2.2776 2.78922 0
M  V30 14450 C 1353.45 3.77949 2.43874 0
M  V30 14451 C 1354.77 2.20494 3.80881 0
M  V30 14452 H 1351.89 0.485836 0.554195 0
M  V30 14453 H 1354.53 1.68438 0.879119 0
M  V30 14454 H 1352.68 1.97994 3.34261 0
M  V30 14455 H 1354.35 4.18333 1.9441 0
M  V30 14456 H 1352.6 3.96269 1.76503 0
M  V30 14457 H 1353.27 4.39428 3.34077 0
M  V30 14458 H 1355.74 2.46742 3.35048 0
M  V30 14459 H 1354.62 2.88663 4.66867 0
M  V30 14460 H 1354.88 1.19951 4.25516 0
M  V30 14461 N 1353.94 -0.993397 1.22349 0
M  V30 14462 C 1354.87 -2.10171 1.01737 0
M  V30 14463 C 1355.85 -1.69989 -0.0615276 0
M  V30 14464 O 1357.04 -1.93939 0.100591 0
M  V30 14465 C 1354.17 -3.42186 0.593801 0
M  V30 14466 C 1353.12 -3.96215 1.61858 0
M  V30 14467 C 1352.45 -5.24272 1.05086 0
M  V30 14468 C 1353.75 -4.26956 3.00842 0
M  V30 14469 H 1355.44 -2.27673 1.94436 0
M  V30 14470 H 1352.99 -1.09408 0.936258 0
M  V30 14471 H 1354.94 -4.19131 0.436715 0
M  V30 14472 H 1353.66 -3.2451 -0.368855 0
M  V30 14473 H 1352.32 -3.21401 1.76343 0
M  V30 14474 H 1351.97 -5.02937 0.0795747 0
M  V30 14475 H 1351.67 -5.61387 1.73547 0
M  V30 14476 H 1353.19 -6.03851 0.905349 0
M  V30 14477 H 1354.61 -4.94699 2.89734 0
M  V30 14478 H 1353 -4.75242 3.66422 0
M  V30 14479 H 1354.07 -3.34752 3.50812 0
M  V30 14480 N 1355.42 -1.03311 -1.19015 0
M  V30 14481 C 1356.83 -0.761079 -1.70483 0
M  V30 14482 C 1357.18 0.718851 -1.82557 0
M  V30 14483 O 1356.3 1.56006 -1.4997 0
M  V30 14484 C 1356.9 -1.37492 -3.09647 0
M  V30 14485 C 1355.46 -1.15138 -3.58358 0
M  V30 14486 C 1354.61 -1.47034 -2.35109 0
M  V30 14487 H 1357.56 -1.2005 -1.03797 0
M  V30 14488 H 1357.58 -0.774115 -3.72542 0
M  V30 14489 H 1357.09 -2.45203 -3.00828 0
M  V30 14490 H 1355.19 -0.0926822 -3.72485 0
M  V30 14491 H 1355.3 -1.84307 -4.4223 0
M  V30 14492 H 1353.67 -0.889794 -2.38652 0
M  V30 14493 H 1354.45 -2.55837 -2.28916 0
M  V30 14494 N 1356.9 1.35099 -0.81154 0
M  V30 14495 C 1358.31 1.51701 -0.495883 0
M  V30 14496 C 1358.51 1.7595 0.982035 0
M  V30 14497 O 1357.57 1.8038 1.7669 0
M  V30 14498 C 1358.88 2.68916 -1.34554 0
M  V30 14499 C 1360.43 2.82795 -1.34149 0
M  V30 14500 C 1360.9 4.0304 -2.17538 0
M  V30 14501 N 1362.39 4.10227 -2.151 0
M  V30 14502 C 1363.13 5.02397 -2.76377 0
M  V30 14503 N 1362.63 5.99866 -3.46601 0
M  V30 14504 N 1364.42 4.95181 -2.65992 0
M  V30 14505 H 1356.57 1.17617 -1.76862 0
M  V30 14506 H 1358.83 0.575875 -0.753042 0
M  V30 14507 H 1358.54 2.57591 -2.39458 0
M  V30 14508 H 1358.41 3.63641 -1.00223 0
M  V30 14509 H 1360.8 2.93568 -0.300285 0
M  V30 14510 H 1360.88 1.88912 -1.7247 0
M  V30 14511 H 1360.52 3.93027 -3.21702 0
M  V30 14512 H 1360.45 4.96114 -1.76574 0
M  V30 14513 H 1362.95 3.40454 -1.6401 0
M  V30 14514 H 1363.26 6.66803 -3.90632 0
M  V30 14515 H 1361.6 6.00025 -3.50706 0
M  V30 14516 H 1364.79 4.17991 -2.10715 0
M  V30 14517 H 1364.97 5.6682 -3.14036 0
M  V30 14518 N 1358.37 0.56548 1.47106 0
M  V30 14519 C 1359.79 0.225855 1.57994 0
M  V30 14520 C 1359.99 -1.27173 1.56299 0
M  V30 14521 O 1359.05 -2.05242 1.47078 0
M  V30 14522 C 1360.36 0.859829 2.88145 0
M  V30 14523 C 1361.91 0.831821 3.01744 0
M  V30 14524 C 1362.38 1.44502 4.34607 0
M  V30 14525 N 1363.87 1.40857 4.41263 0
M  V30 14526 C 1364.61 1.85258 5.42648 0
M  V30 14527 N 1364.1 2.37553 6.508 0
M  V30 14528 N 1365.9 1.76279 5.33744 0
M  V30 14529 H 1358.05 1.53837 1.46451 0
M  V30 14530 H 1360.31 0.642013 0.697512 0
M  V30 14531 H 1360.02 1.91264 2.95146 0
M  V30 14532 H 1359.89 0.357762 3.755 0
M  V30 14533 H 1362.28 -0.212319 2.94335 0
M  V30 14534 H 1362.36 1.37173 2.1591 0
M  V30 14535 H 1362 2.48827 4.42773 0
M  V30 14536 H 1361.93 0.880479 5.19187 0
M  V30 14537 H 1364.42 1.02614 3.63702 0
M  V30 14538 H 1364.74 2.69335 7.24347 0
M  V30 14539 H 1363.08 2.41569 6.51667 0
M  V30 14540 H 1366.27 1.35195 4.48152 0
M  V30 14541 H 1366.45 2.11199 6.12616 0
M  V30 14542 N 1359.85 -1.54672 0.302354 0
M  V30 14543 C 1360.82 -2.22246 -0.560283 0
M  V30 14544 C 1361.82 -1.20895 -1.06023 0
M  V30 14545 O 1363.01 -1.45621 -0.956047 0
M  V30 14546 C 1360.14 -2.9099 -1.77589 0
M  V30 14547 H 1361.33 -2.99885 0.0301274 0
M  V30 14548 H 1358.88 -1.56209 0.0532036 0
M  V30 14549 H 1359.62 -2.17433 -2.4061 0
M  V30 14550 H 1359.4 -3.65288 -1.42503 0
M  V30 14551 H 1360.89 -3.42535 -2.38871 0
M  V30 14552 N 1361.33 -0.0301034 -1.57571 0
M  V30 14553 C 1362.58 0.647672 -1.91019 0
M  V30 14554 C 1362.89 1.73234 -0.908265 0
M  V30 14555 O 1364.1 2.46682 -1.13402 0
M  V30 14556 C 1362.55 1.20327 -3.3919 0
M  V30 14557 C 1362.16 0.151833 -4.47743 0
M  V30 14558 C 1363.91 1.8575 -3.81703 0
M  V30 14559 C 1361.81 0.719119 -5.87012 0
M  V30 14560 H 1360.74 0.245682 -0.712851 0
M  V30 14561 H 1363.39 -0.0955645 -1.83251 0
M  V30 14562 H 1361.78 1.99814 -3.41892 0
M  V30 14563 H 1362.95 -0.620659 -4.56601 0
M  V30 14564 H 1361.27 -0.403699 -4.14438 0
M  V30 14565 H 1363.86 2.29151 -4.83109 0
M  V30 14566 H 1364.21 2.70061 -3.16817 0
M  V30 14567 H 1364.74 1.1295 -3.81428 0
M  V30 14568 H 1361.48 -0.0858832 -6.55444 0
M  V30 14569 H 1361 1.46008 -5.81758 0
M  V30 14570 H 1362.68 1.20856 -6.35612 0
M  V30 14571 N 1362.81 1.55714 0.243056 0
M  V30 14572 C 1363.72 1.93777 1.32241 0
M  V30 14573 C 1364.73 0.838709 1.52452 0
M  V30 14574 O 1365.91 1.14044 1.66 0
M  V30 14575 C 1362.98 2.22808 2.65627 0
M  V30 14576 C 1362.04 3.46166 2.53904 0
M  V30 14577 C 1361.27 3.73802 3.8093 0
M  V30 14578 O 1361.49 3.0345 4.82985 0
M  V30 14579 O 1360.43 4.67323 3.79332 0
M  V30 14580 H 1364.25 2.85718 1.02951 0
M  V30 14581 H 1361.84 1.42646 0.444135 0
M  V30 14582 H 1363.72 2.4277 3.44442 0
M  V30 14583 H 1362.39 1.34045 2.94642 0
M  V30 14584 H 1361.3 3.31506 1.73362 0
M  V30 14585 H 1362.63 4.35244 2.29834 0
M  V30 14586 N 1364.29 -0.50888 1.49158 0
M  V30 14587 C 1365.7 -0.839353 1.35746 0
M  V30 14588 C 1365.9 -1.97797 0.38453 0
M  V30 14589 O 1364.96 -2.51809 -0.186651 0
M  V30 14590 C 1366.27 -1.18698 2.76281 0
M  V30 14591 C 1367.82 -1.29565 2.84924 0
M  V30 14592 C 1368.29 -1.67661 4.26209 0
M  V30 14593 N 1369.79 -1.74725 4.28982 0
M  V30 14594 C 1370.52 -2.05631 5.3526 0
M  V30 14595 N 1370.02 -2.34814 6.51793 0
M  V30 14596 N 1371.81 -2.06815 5.2267 0
M  V30 14597 H 1363.96 0.242065 2.11016 0
M  V30 14598 H 1366.22 0.0456901 0.946898 0
M  V30 14599 H 1365.93 -0.423769 3.49138 0
M  V30 14600 H 1365.8 -2.13227 3.11149 0
M  V30 14601 H 1368.19 -2.0496 2.1231 0
M  V30 14602 H 1368.27 -0.331059 2.53649 0
M  V30 14603 H 1367.92 -0.928198 4.99346 0
M  V30 14604 H 1367.85 -2.65207 4.54943 0
M  V30 14605 H 1370.34 -1.54364 3.44935 0
M  V30 14606 H 1370.65 -2.57562 7.28616 0
M  V30 14607 H 1368.99 -2.32288 6.55032 0
M  V30 14608 H 1372.19 -1.83487 4.30639 0
M  V30 14609 H 1372.36 -2.30568 6.05593 0
M  V30 14610 N 1365.76 -1.381 -0.759346 0
M  V30 14611 C 1366.67 -1.37086 -1.9038 0
M  V30 14612 C 1367.69 -0.268738 -1.71912 0
M  V30 14613 O 1368.87 -0.506205 -1.94935 0
M  V30 14614 C 1365.93 -1.18905 -3.25672 0
M  V30 14615 C 1364.99 -2.3887 -3.56707 0
M  V30 14616 C 1364.23 -2.21546 -4.85544 0
M  V30 14617 O 1364.45 -1.20616 -5.57501 0
M  V30 14618 O 1363.38 -3.10009 -5.15924 0
M  V30 14619 H 1367.21 -2.33505 -1.94188 0
M  V30 14620 H 1364.79 -1.18959 -0.903826 0
M  V30 14621 H 1366.68 -1.10803 -4.06572 0
M  V30 14622 H 1365.35 -0.255675 -3.22689 0
M  V30 14623 H 1364.26 -2.52546 -2.75992 0
M  V30 14624 H 1365.59 -3.30817 -3.64446 0
M  V30 14625 N 1367.24 0.986894 -1.22875 0
M  V30 14626 C 1368.15 2.11232 -1.02069 0
M  V30 14627 C 1369.17 1.73969 0.0328424 0
M  V30 14628 O 1370.34 2.00754 -0.161197 0
M  V30 14629 C 1367.41 3.41337 -0.60747 0
M  V30 14630 C 1366.47 3.92665 -1.73531 0
M  V30 14631 C 1365.7 5.1656 -1.34171 0
M  V30 14632 O 1365.93 5.69964 -0.223106 0
M  V30 14633 O 1364.86 5.61791 -2.16041 0
M  V30 14634 H 1368.69 2.3167 -1.96374 0
M  V30 14635 H 1366.27 1.09607 -1.01522 0
M  V30 14636 H 1368.15 4.19613 -0.387661 0
M  V30 14637 H 1366.83 3.22244 0.306653 0
M  V30 14638 H 1365.74 3.15534 -2.0097 0
M  V30 14639 H 1367.07 4.162 -2.62751 0
M  V30 14640 N 1368.72 1.0394 1.18466 0
M  V30 14641 C 1369.97 0.740576 1.88042 0
M  V30 14642 C 1370.29 -0.733822 1.80666 0
M  V30 14643 O 1369.56 -1.52943 1.22414 0
M  V30 14644 H 1368.14 0.270949 0.696129 0
M  V30 14645 H 1370.8 1.31588 1.43772 0
M  V30 14646 H 1369.9 1.04429 2.94111 0
M  V30 14647 N 1370.2 -1.34667 0.818693 0
M  V30 14648 C 1371.13 -2.28368 0.195126 0
M  V30 14649 C 1372.14 -1.50836 -0.612562 0
M  V30 14650 O 1373.33 -1.72917 -0.442936 0
M  V30 14651 C 1370.43 -3.30601 -0.745411 0
M  V30 14652 C 1369.61 -4.37396 0.0185308 0
M  V30 14653 C 1368.66 -5.19415 -0.842298 0
M  V30 14654 O 1367.69 -5.68467 -0.288821 0
M  V30 14655 N 1368.89 -5.38709 -2.1627 0
M  V30 14656 H 1371.66 -2.8252 1.00013 0
M  V30 14657 H 1369.22 -1.47146 0.675262 0
M  V30 14658 H 1371.21 -3.82367 -1.3258 0
M  V30 14659 H 1369.78 -2.76875 -1.45118 0
M  V30 14660 H 1369 -3.86402 0.780205 0
M  V30 14661 H 1370.29 -5.05877 0.544575 0
M  V30 14662 H 1369.69 -5.00523 -2.63616 0
M  V30 14663 H 1368.24 -5.9361 -2.69204 0
M  V30 14664 N 1371.68 -0.573274 -1.46804 0
M  V30 14665 C 1372.61 0.153316 -2.32996 0
M  V30 14666 C 1373.59 0.893013 -1.44773 0
M  V30 14667 O 1374.77 0.870329 -1.73606 0
M  V30 14668 C 1371.9 1.1736 -3.2687 0
M  V30 14669 C 1370.86 0.549347 -4.2446 0
M  V30 14670 C 1370.18 1.67542 -5.07773 0
M  V30 14671 C 1371.48 -0.50736 -5.1983 0
M  V30 14672 H 1373.18 -0.566305 -2.93995 0
M  V30 14673 H 1370.72 -0.273785 -1.41373 0
M  V30 14674 H 1372.68 1.6902 -3.86019 0
M  V30 14675 H 1371.4 1.92337 -2.63958 0
M  V30 14676 H 1370.06 0.0539142 -3.6656 0
M  V30 14677 H 1369.71 2.41463 -4.41253 0
M  V30 14678 H 1369.41 1.26343 -5.73856 0
M  V30 14679 H 1370.93 2.19496 -5.69784 0
M  V30 14680 H 1372.34 -0.0762061 -5.73249 0
M  V30 14681 H 1370.74 -0.839139 -5.94204 0
M  V30 14682 H 1371.81 -1.39723 -4.64333 0
M  V30 14683 N 1373.15 1.5451 -0.310553 0
M  V30 14684 C 1374.09 2.2134 0.595098 0
M  V30 14685 C 1375.1 1.20917 1.09009 0
M  V30 14686 O 1376.29 1.47458 1.0059 0
M  V30 14687 C 1373.39 2.85384 1.82782 0
M  V30 14688 C 1372.56 4.11826 1.47372 0
M  V30 14689 C 1371.62 4.59584 2.56259 0
M  V30 14690 O 1370.65 5.24567 2.20949 0
M  V30 14691 N 1371.85 4.32709 3.86967 0
M  V30 14692 H 1374.61 2.99691 0.0229291 0
M  V30 14693 H 1372.17 1.61351 -0.133173 0
M  V30 14694 H 1374.17 3.14263 2.54992 0
M  V30 14695 H 1372.74 2.10816 2.30815 0
M  V30 14696 H 1371.96 3.89853 0.583826 0
M  V30 14697 H 1373.24 4.94138 1.21265 0
M  V30 14698 H 1372.64 3.80669 4.18458 0
M  V30 14699 H 1371.2 4.66275 4.55446 0
M  V30 14700 N 1374.63 0.0384594 1.57553 0
M  V30 14701 C 1375.56 -0.938444 2.13812 0
M  V30 14702 C 1376.54 -1.33307 1.05657 0
M  V30 14703 O 1377.73 -1.41003 1.33535 0
M  V30 14704 C 1374.86 -2.21764 2.67279 0
M  V30 14705 C 1373.81 -1.96347 3.80305 0
M  V30 14706 C 1373.14 -3.30612 4.20238 0
M  V30 14707 C 1374.44 -1.2952 5.05986 0
M  V30 14708 H 1376.13 -0.469887 2.9569 0
M  V30 14709 H 1373.68 -0.224576 1.42238 0
M  V30 14710 H 1375.63 -2.90493 3.05273 0
M  V30 14711 H 1374.36 -2.70802 1.82576 0
M  V30 14712 H 1373.02 -1.30033 3.42764 0
M  V30 14713 H 1372.66 -3.77427 3.32502 0
M  V30 14714 H 1372.36 -3.14409 4.96408 0
M  V30 14715 H 1373.89 -4.00594 4.60822 0
M  V30 14716 H 1375.3 -1.88264 5.41507 0
M  V30 14717 H 1373.7 -1.23685 5.87216 0
M  V30 14718 H 1374.77 -0.269439 4.84151 0
M  V30 14719 N 1376.11 -1.55841 -0.234795 0
M  V30 14720 C 1377.35 -1.80007 -0.968334 0
M  V30 14721 C 1377.72 -0.609903 -1.82055 0
M  V30 14722 O 1378.92 -0.730586 -2.58681 0
M  V30 14723 C 1377.19 -3.08991 -1.79609 0
M  V30 14724 S 1378.75 -3.54423 -2.58707 0
M  V30 14725 H 1375.56 -0.632112 -0.325508 0
M  V30 14726 H 1378.17 -1.94081 -0.235082 0
M  V30 14727 H 1376.87 -3.93667 -1.15993 0
M  V30 14728 H 1376.4 -2.97688 -2.57188 0
M  V30 14729 H 1378.42 -3.16713 -3.81978 0
M  V30 14730 N 1377.59 0.500963 -1.49426 0
M  V30 14731 C 1378.81 1.28383 -1.62888 0
M  V30 14732 C 1379.24 1.85688 -0.300262 0
M  V30 14733 O 1378.6 1.6586 0.73212 0
M  V30 14734 C 1378.65 2.38987 -2.70033 0
M  V30 14735 O 1377.75 3.42837 -2.29208 0
M  V30 14736 H 1377.09 0.379012 -0.545202 0
M  V30 14737 H 1379.62 0.59971 -1.95613 0
M  V30 14738 H 1379.63 2.84749 -2.92202 0
M  V30 14739 H 1378.31 1.96643 -3.66475 0
M  V30 14740 H 1376.88 3.02993 -2.1737 0
M  V30 14741 N 1379.07 1.38501 0.752011 0
M  V30 14742 C 1380.48 1.19733 1.05529 0
M  V30 14743 C 1380.68 0.047088 2.01445 0
M  V30 14744 O 1379.74 -0.606645 2.45104 0
M  V30 14745 C 1381.05 2.52439 1.63386 0
M  V30 14746 C 1382.6 2.59136 1.7555 0
M  V30 14747 C 1383.08 3.92022 2.36819 0
M  V30 14748 N 1384.57 3.9357 2.44248 0
M  V30 14749 C 1385.3 4.93154 2.92553 0
M  V30 14750 N 1384.8 6.03135 3.40882 0
M  V30 14751 N 1386.59 4.80543 2.91607 0
M  V30 14752 H 1378.74 2.12085 0.115543 0
M  V30 14753 H 1381 0.941134 0.113888 0
M  V30 14754 H 1380.71 3.37072 1.00376 0
M  V30 14755 H 1380.58 2.70947 2.62427 0
M  V30 14756 H 1382.97 1.74897 2.37687 0
M  V30 14757 H 1383.05 2.44494 0.752092 0
M  V30 14758 H 1382.7 4.76684 1.75314 0
M  V30 14759 H 1382.63 4.03976 3.37803 0
M  V30 14760 H 1385.12 3.14133 2.10068 0
M  V30 14761 H 1385.43 6.7505 3.76201 0
M  V30 14762 H 1383.78 6.06752 3.38935 0
M  V30 14763 H 1386.97 3.93733 2.53163 0
M  V30 14764 H 1387.14 5.58303 3.28941 0
M  V30 14765 N 1380.55 -0.980364 1.23396 0
M  V30 14766 C 1381.5 -2.05753 0.982323 0
M  V30 14767 C 1382.48 -1.6074 -0.0716939 0
M  V30 14768 O 1383.67 -1.76442 0.140438 0
M  V30 14769 C 1380.8 -3.38442 0.575481 0
M  V30 14770 C 1379.89 -3.90054 1.6649 0
M  V30 14771 N 1380.28 -4.14744 2.89519 0
M  V30 14772 C 1378.58 -4.18588 1.53949 0
M  V30 14773 C 1379.28 -4.56877 3.60053 0
M  V30 14774 N 1378.25 -4.61309 2.87567 0
M  V30 14775 H 1382.05 -2.22801 1.91669 0
M  V30 14776 H 1379.57 -1.16314 1.13335 0
M  V30 14777 H 1381.57 -4.15197 0.376477 0
M  V30 14778 H 1380.23 -3.22788 -0.351844 0
M  V30 14779 H 1381.24 -4.02566 3.25824 0
M  V30 14780 H 1377.91 -4.11937 0.679275 0
M  V30 14781 H 1379.3 -4.84498 4.65523 0
M  V30 14782 N 1382.02 -1.04567 -1.17913 0
M  V30 14783 C 1383.44 -0.76584 -1.40025 0
M  V30 14784 C 1383.64 0.642484 -1.90983 0
M  V30 14785 O 1382.7 1.40589 -2.0974 0
M  V30 14786 C 1384.01 -1.81616 -2.39658 0
M  V30 14787 C 1385.56 -1.83765 -2.53376 0
M  V30 14788 C 1386.03 -2.87803 -3.56277 0
M  V30 14789 N 1387.52 -2.86726 -3.63789 0
M  V30 14790 C 1388.26 -3.63876 -4.4315 0
M  V30 14791 N 1387.75 -4.50793 -5.26077 0
M  V30 14792 N 1389.55 -3.52344 -4.37962 0
M  V30 14793 H 1381.7 -1.95442 -0.831647 0
M  V30 14794 H 1383.96 -0.84593 -0.42791 0
M  V30 14795 H 1383.67 -2.8266 -2.09275 0
M  V30 14796 H 1383.54 -1.65251 -3.39075 0
M  V30 14797 H 1385.93 -0.833896 -2.83073 0
M  V30 14798 H 1386.01 -2.04208 -1.54055 0
M  V30 14799 H 1385.65 -3.88361 -3.2732 0
M  V30 14800 H 1385.58 -2.64614 -4.55288 0
M  V30 14801 H 1388.07 -2.237 -3.04576 0
M  V30 14802 H 1388.39 -5.0636 -5.83798 0
M  V30 14803 H 1386.73 -4.54858 -5.2548 0
M  V30 14804 H 1389.92 -2.8384 -3.72226 0
M  V30 14805 H 1390.1 -4.12718 -4.99568 0
M  V30 14806 N 1383.5 1.34231 -0.825823 0
M  V30 14807 C 1384.41 2.33245 -0.251803 0
M  V30 14808 C 1385.43 1.62756 0.615334 0
M  V30 14809 O 1386.6 1.94503 0.522547 0
M  V30 14810 C 1383.67 3.41908 0.574456 0
M  V30 14811 C 1382.73 4.2814 -0.315422 0
M  V30 14812 C 1381.96 5.31613 0.471496 0
M  V30 14813 O 1382.19 5.44337 1.70449 0
M  V30 14814 O 1381.12 6.01719 -0.147691 0
M  V30 14815 H 1384.95 2.84174 -1.07139 0
M  V30 14816 H 1382.53 1.37341 -0.588032 0
M  V30 14817 H 1384.41 4.08252 1.04444 0
M  V30 14818 H 1383.09 2.93217 1.37132 0
M  V30 14819 H 1381.99 3.64709 -0.832963 0
M  V30 14820 H 1383.33 4.80279 -1.07672 0
M  V30 14821 N 1384.98 0.581051 1.46498 0
M  V30 14822 C 1386.2 0.0696654 2.07283 0
M  V30 14823 C 1386.63 -1.22525 1.42721 0
M  V30 14824 O 1385.99 -1.73967 0.510421 0
M  V30 14825 C 1386.04 -0.0843864 3.60501 0
M  V30 14826 O 1385.14 -1.14129 3.96293 0
M  V30 14827 H 1384.48 0.0620572 0.661094 0
M  V30 14828 H 1387.01 0.803522 1.88161 0
M  V30 14829 H 1387.02 -0.29108 4.0696 0
M  V30 14830 H 1385.7 0.861274 4.06884 0
M  V30 14831 H 1384.27 -0.913186 3.61546 0
M  V30 14832 O 1386.5 -1.54784 0.460873 0
M  V30 14833 H 1387.19 -1.93584 -0.0670213 0
M  V30 END ATOM
M  V30 BEGIN BOND
M  V30 END BOND
M  V30 END CTAB
M  END
$$$$
