drugbank_target|Q9BY41 Histone deacetylase 8 (DB01592; DB01593; DB02546; DB02565; DB02917; DB04297; DB07350; DB07586; DB08168; DB14487; DB14488; DB14489; DB14490; DB14491; DB14501; DB14533; DB14548)
 OpenBabel12092119573D

  0  0  0     0  0            999 V3000
M  V30 BEGIN CTAB
M  V30 COUNTS 5804 5877 0 0 0
M  V30 BEGIN ATOM
M  V30 1 H -0.908 1.98254 -0.117106 0
M  V30 2 N 0 1.576 0 0
M  V30 3 C 0.933 2.03868 1.02534 0
M  V30 4 C 1.911 0.928543 1.3348 0
M  V30 5 O 3.095 1.19667 1.45644 0
M  V30 6 C 0.222 2.43627 2.35294 0
M  V30 7 C -0.732 3.65373 2.2001 0
M  V30 8 S 0.101 5.13292 1.52614 0
M  V30 9 C 1.257 5.56322 2.86805 0
M  V30 10 H 1.49 2.90518 0.631377 0
M  V30 11 H -0.977 1.52953 0.210867 0
M  V30 12 H 0.981 2.67203 3.11629 0
M  V30 13 H -0.358 1.57376 2.7183 0
M  V30 14 H -1.165 3.90944 3.18086 0
M  V30 15 H -1.563 3.418 1.51819 0
M  V30 16 H 0.729 5.58782 3.83104 0
M  V30 17 H 1.672 6.56266 2.65933 0
M  V30 18 H 2.08 4.83886 2.90714 0
M  V30 19 N 1.4781 -0.272755 1.55222 0
M  V30 20 C 2.3881 -1.35918 1.91216 0
M  V30 21 C 3.4041 -1.54026 0.809436 0
M  V30 22 O 4.5801 -1.68148 1.10852 0
M  V30 23 C 1.6451 -2.69834 2.17693 0
M  V30 24 C 0.7061 -2.6047 3.41253 0
M  V30 25 C -0.0609 -3.88 3.66458 0
M  V30 26 O 0.1621 -4.88693 2.94169 0
M  V30 27 O -0.9039 -3.88189 4.59992 0
M  V30 28 H 2.9221 -1.0839 2.83699 0
M  V30 29 H 0.5071 -0.471301 1.41771 0
M  V30 30 H 2.3891 -3.49017 2.36147 0
M  V30 31 H 1.0641 -2.97148 1.28392 0
M  V30 32 H -0.0289 -1.79663 3.28134 0
M  V30 33 H 1.3041 -2.38106 4.30774 0
M  V30 34 N 2.9562 -1.48159 -0.537278 0
M  V30 35 C 3.8662 -1.64807 -1.6696 0
M  V30 36 C 4.8822 -0.530651 -1.65711 0
M  V30 37 O 6.0582 -0.800784 -1.84796 0
M  V30 38 C 3.1232 -1.67708 -3.03438 0
M  V30 39 C 2.1842 -2.91025 -3.156 0
M  V30 40 C 1.4172 -2.93778 -4.45567 0
M  V30 41 O 1.6402 -2.05153 -5.3223 0
M  V30 42 O 0.5742 -3.85868 -4.61941 0
M  V30 43 H 4.4002 -2.6066 -1.55853 0
M  V30 44 H 1.9852 -1.31475 -0.709549 0
M  V30 45 H 3.8672 -1.7218 -3.84619 0
M  V30 46 H 2.5422 -0.750278 -3.14885 0
M  V30 47 H 1.4492 -2.92089 -2.33741 0
M  V30 48 H 2.7822 -3.83065 -3.09066 0
M  V30 49 N 4.4343 0.785586 -1.36625 0
M  V30 50 C 5.8453 1.36101 -1.27803 0
M  V30 51 C 6.1963 1.96035 0.0804875 0
M  V30 52 O 5.3213 1.92834 0.982042 0
M  V30 53 C 5.9163 2.47442 -2.31426 0
M  V30 54 C 4.4753 3.00789 -2.26281 0
M  V30 55 C 3.6223 1.73896 -2.15999 0
M  V30 56 H 6.5733 0.586928 -1.47448 0
M  V30 57 H 6.5943 3.2656 -1.95291 0
M  V30 58 H 6.1063 2.03791 -3.30289 0
M  V30 59 H 4.2073 3.48851 -1.30896 0
M  V30 60 H 4.3203 3.57343 -3.19128 0
M  V30 61 H 2.6843 1.9628 -1.62316 0
M  V30 62 H 3.4673 1.32368 -3.16755 0
M  V30 63 N 5.9124 1.20967 1.01018 0
M  V30 64 C 6.8224 0.980157 2.13143 0
M  V30 65 C 7.8384 -0.0660665 1.73875 0
M  V30 66 O 9.0144 0.122821 2.01025 0
M  V30 67 C 6.0794 0.54216 3.42435 0
M  V30 68 C 5.1404 1.65999 3.95908 0
M  V30 69 C 4.3734 1.2428 5.19028 0
M  V30 70 O 4.5964 0.114196 5.70286 0
M  V30 71 O 3.5304 2.05271 5.65816 0
M  V30 72 H 7.3564 1.91913 2.35379 0
M  V30 73 H 4.9414 0.994099 1.11526 0
M  V30 74 H 6.8234 0.30744 4.20277 0
M  V30 75 H 5.4984 -0.36815 3.216 0
M  V30 76 H 4.4054 1.94906 3.19316 0
M  V30 77 H 5.7384 2.54753 4.21143 0
M  V30 78 N 7.3905 -1.2043 1.01659 0
M  V30 79 C 8.3005 -2.2689 0.596484 0
M  V30 80 C 9.3165 -1.70107 -0.36599 0
M  V30 81 O 10.4925 -2.00117 -0.226942 0
M  V30 82 C 7.5575 -3.4665 -0.0586659 0
M  V30 83 C 6.6185 -4.18662 0.949751 0
M  V30 84 C 5.8515 -5.32705 0.32577 0
M  V30 85 O 6.0745 -5.63656 -0.874509 0
M  V30 86 O 5.0085 -5.92803 1.04249 0
M  V30 87 H 8.8345 -2.65041 1.4828 0
M  V30 88 H 6.4195 -1.27048 0.786082 0
M  V30 89 H 8.3015 -4.19256 -0.424564 0
M  V30 90 H 6.9765 -3.10375 -0.91918 0
M  V30 91 H 5.8835 -3.48229 1.36702 0
M  V30 92 H 7.2165 -4.58878 1.78023 0
M  V30 93 N 8.8686 -0.792821 -1.36206 0
M  V30 94 C 10.2796 -0.429513 -1.81692 0
M  V30 95 C 10.6306 1.04695 -1.65932 0
M  V30 96 O 9.7556 1.81256 -1.18218 0
M  V30 97 C 10.3506 -0.772831 -3.29868 0
M  V30 98 C 8.9096 -0.462307 -3.7355 0
M  V30 99 C 8.0566 -1.00569 -2.5842 0
M  V30 100 H 11.0076 -0.985672 -1.24379 0
M  V30 101 H 11.0286 -0.0651928 -3.80444 0
M  V30 102 H 10.5406 -1.84747 -3.41307 0
M  V30 103 H 8.6416 0.604158 -3.67669 0
M  V30 104 H 8.7546 -0.985299 -4.68859 0
M  V30 105 H 7.1186 -0.428734 -2.51066 0
M  V30 106 H 7.9016 -2.08616 -2.72643 0
M  V30 107 N 10.3467 1.47872 -0.545128 0
M  V30 108 C 11.3097 2.28337 0.198717 0
M  V30 109 C 12.3097 1.36255 0.853888 0
M  V30 110 O 13.4997 1.59003 0.711606 0
M  V30 111 C 10.6317 3.15585 1.28915 0
M  V30 112 H 11.8247 2.95567 -0.507941 0
M  V30 113 H 9.3777 1.53362 -0.301616 0
M  V30 114 H 10.1127 2.53019 2.02859 0
M  V30 115 H 9.8977 3.83337 0.824309 0
M  V30 116 H 11.3877 3.76243 1.81194 0
M  V30 117 N 11.8248 0.280983 1.55075 0
M  V30 118 C 13.1018 -0.386207 1.91749 0
M  V30 119 C 13.4818 -1.73264 1.20594 0
M  V30 120 O 12.8298 -2.26034 0.334784 0
M  V30 121 C 13.0398 -0.520687 3.45094 0
M  V30 122 C 14.3878 -0.800865 4.16979 0
M  V30 123 O 15.4118 -0.605271 3.5102 0
M  V30 124 O 14.2708 -1.1753 5.33712 0
M  V30 125 H 11.3648 -0.212408 0.799257 0
M  V30 126 H 13.9108 0.327568 1.66509 0
M  V30 127 H 12.6828 0.426633 3.88967 0
M  V30 128 H 12.3058 -1.2837 3.76307 0
M  V30 129 N 13.3029 -1.57598 0.00835791 0
M  V30 130 C 14.5279 -1.95617 -0.689103 0
M  V30 131 C 14.9529 -0.883753 -1.66046 0
M  V30 132 O 14.3109 0.157352 -1.80616 0
M  V30 133 C 14.3589 -3.32736 -1.38994 0
M  V30 134 O 13.4629 -3.27631 -2.50463 0
M  V30 135 H 12.8039 -0.638379 -0.182668 0
M  V30 136 H 15.3339 -2.045 0.064036 0
M  V30 137 H 15.3439 -3.68494 -1.75147 0
M  V30 138 H 14.0189 -4.1034 -0.677778 0
M  V30 139 H 12.5959 -3.03561 -2.16576 0
M  V30 140 N 14.781 0.264519 -1.55364 0
M  V30 141 C 16.029 0.993021 -1.76021 0
M  V30 142 C 16.35 1.86511 -0.569099 0
M  V30 143 O 15.62 1.91438 0.415735 0
M  V30 144 H 14.2 0.369639 -0.649135 0
M  V30 145 H 16.862 0.286707 -1.9278 0
M  V30 146 H 15.958 1.62502 -2.66457 0
M  V30 147 N 16.2591 1.48442 0.529413 0
M  V30 148 C 17.1911 1.59095 1.64989 0
M  V30 149 C 18.2041 0.475212 1.5571 0
M  V30 150 O 19.3931 0.746081 1.6216 0
M  V30 151 C 16.4931 1.50518 3.0364 0
M  V30 152 C 15.6661 2.77142 3.38395 0
M  V30 153 C 14.7251 2.62012 4.56329 0
M  V30 154 O 13.7511 3.35898 4.59522 0
M  V30 155 N 14.9531 1.71667 5.54536 0
M  V30 156 H 17.7181 2.55723 1.56287 0
M  V30 157 H 15.2791 1.45173 0.716697 0
M  V30 158 H 17.2711 1.38091 3.80412 0
M  V30 159 H 15.8411 0.618627 3.06418 0
M  V30 160 H 15.0611 3.0413 2.50796 0
M  V30 161 H 16.3491 3.61146 3.58401 0
M  V30 162 H 15.7471 1.10841 5.54735 0
M  V30 163 H 14.3041 1.65178 6.30523 0
M  V30 164 N 17.7372 -0.778329 1.37039 0
M  V30 165 C 18.9622 -1.57248 1.35233 0
M  V30 166 C 19.3872 -1.87999 -0.0615568 0
M  V30 167 O 18.7452 -1.48734 -1.03672 0
M  V30 168 C 18.7932 -2.86353 2.19167 0
M  V30 169 O 17.8972 -3.80442 1.59178 0
M  V30 170 H 17.2382 -0.476569 0.462362 0
M  V30 171 H 19.7682 -0.963853 1.80474 0
M  V30 172 H 19.7782 -3.35519 2.32145 0
M  V30 173 H 18.4532 -2.63299 3.21942 0
M  V30 174 H 17.0302 -3.39067 1.55203 0
M  V30 175 N 19.2153 -1.21501 -1.00376 0
M  V30 176 C 20.1453 -0.999478 -2.11028 0
M  V30 177 C 21.1263 0.0759671 -1.6993 0
M  V30 178 O 22.3113 -0.0841106 -1.94018 0
M  V30 179 C 19.4413 -0.564709 -3.42678 0
M  V30 180 C 18.3953 -1.58486 -3.97576 0
M  V30 181 C 17.7213 -1.00628 -5.25146 0
M  V30 182 C 19.0213 -2.97204 -4.29496 0
M  V30 183 H 20.7153 -1.92495 -2.29317 0
M  V30 184 H 18.2613 -0.92693 -1.102 0
M  V30 185 H 20.2143 -0.401091 -4.19487 0
M  V30 186 H 18.9383 0.396411 -3.24185 0
M  V30 187 H 17.5973 -1.73606 -3.22888 0
M  V30 188 H 17.2453 -0.0368439 -5.02987 0
M  V30 189 H 16.9453 -1.68771 -5.62841 0
M  V30 190 H 18.4693 -0.854015 -6.04598 0
M  V30 191 H 19.8833 -2.8552 -4.97143 0
M  V30 192 H 18.2803 -3.62372 -4.78338 0
M  V30 193 H 19.3503 -3.47956 -3.3772 0
M  V30 194 N 20.6934 1.19889 -1.02296 0
M  V30 195 C 21.9394 1.89701 -0.717033 0
M  V30 196 C 22.2724 1.7905 0.751989 0
M  V30 197 O 21.5474 1.17891 1.547 0
M  V30 198 C 21.8304 3.40858 -1.16136 0
M  V30 199 C 21.6834 3.60411 -2.69117 0
M  V30 200 C 23.0024 4.33876 -0.737549 0
M  V30 201 H 20.1214 0.688874 -0.261957 0
M  V30 202 H 22.7634 1.41154 -1.27183 0
M  V30 203 H 20.9134 3.82335 -0.689342 0
M  V30 204 H 22.5854 3.28145 -3.2422 0
M  V30 205 H 20.8284 3.03665 -3.0979 0
M  V30 206 H 21.4994 4.66396 -2.95261 0
M  V30 207 H 23.9754 4.00081 -1.14344 0
M  V30 208 H 22.8514 5.38242 -1.0764 0
M  V30 209 H 23.1124 4.40628 0.360436 0
M  V30 210 N 22.1715 0.800033 1.35784 0
M  V30 211 C 23.5825 0.439142 1.81462 0
M  V30 212 C 23.9335 -1.03813 1.66485 0
M  V30 213 O 23.0585 -1.80626 1.19177 0
M  V30 214 C 23.6535 0.790314 3.29453 0
M  V30 215 C 22.2125 0.482111 3.733 0
M  V30 216 C 21.3595 1.01938 2.57883 0
M  V30 217 H 24.3105 0.992254 1.23855 0
M  V30 218 H 24.3315 0.0853677 3.80404 0
M  V30 219 H 23.8435 1.86554 3.40322 0
M  V30 220 H 21.9445 -0.584652 3.67984 0
M  V30 221 H 22.0575 1.01015 4.6833 0
M  V30 222 H 20.4215 0.442043 2.50835 0
M  V30 223 H 21.2045 2.10059 2.71533 0
M  V30 224 N 23.6496 -1.47581 0.552962 0
M  V30 225 C 24.8956 -2.02782 0.0273648 0
M  V30 226 C 25.2286 -1.42687 -1.31734 0
M  V30 227 O 24.5036 -0.580897 -1.85623 0
M  V30 228 C 24.7866 -3.60031 -0.0702371 0
M  V30 229 C 24.6396 -4.30566 1.30126 0
M  V30 230 C 25.9586 -4.33028 -0.785771 0
M  V30 231 H 23.0776 -0.736912 0.0114185 0
M  V30 232 H 25.7196 -1.76056 0.714432 0
M  V30 233 H 23.8696 -3.82932 -0.655382 0
M  V30 234 H 25.5416 -4.19018 1.92929 0
M  V30 235 H 23.7846 -3.91086 1.87709 0
M  V30 236 H 24.4556 -5.39114 1.18573 0
M  V30 237 H 26.9316 -4.15095 -0.288982 0
M  V30 238 H 25.8076 -5.42695 -0.823013 0
M  V30 239 H 26.0686 -4.01945 -1.841 0
M  V30 240 N 25.1277 -0.289203 -1.54924 0
M  V30 241 C 26.3577 0.325989 -2.04012 0
M  V30 242 C 26.7657 1.48961 -1.1665 0
M  V30 243 O 26.1087 1.82794 -0.1822 0
M  V30 244 C 26.1707 0.856112 -3.49158 0
M  V30 245 C 25.8347 -0.180697 -4.56643 0
M  V30 246 C 26.8317 -1.0051 -5.10092 0
M  V30 247 C 24.5167 -0.318998 -5.01286 0
M  V30 248 C 26.5107 -1.95385 -6.06715 0
M  V30 249 C 24.1977 -1.27121 -5.97732 0
M  V30 250 C 25.1957 -2.08713 -6.50329 0
M  V30 251 O 24.8837 -3.02322 -7.44887 0
M  V30 252 H 24.6157 0.0765276 -0.671654 0
M  V30 253 H 27.1697 -0.423254 -2.00992 0
M  V30 254 H 25.3997 1.65567 -3.49463 0
M  V30 255 H 27.0887 1.38591 -3.81507 0
M  V30 256 H 27.8547 -0.90906 -4.76404 0
M  V30 257 H 23.7337 0.306108 -4.59983 0
M  V30 258 H 27.2777 -2.59111 -6.47694 0
M  V30 259 H 23.1747 -1.36801 -6.30837 0
M  V30 260 H 23.9427 -2.97165 -7.6265 0
M  V30 261 N 26.6058 1.57591 -0.0167156 0
M  V30 262 C 27.8548 1.90461 0.663877 0
M  V30 263 C 28.1678 0.893515 1.73999 0
M  V30 264 O 29.3738 1.11302 2.47637 0
M  V30 265 C 27.8298 3.38155 1.23204 0
M  V30 266 C 27.4378 4.47597 0.189866 0
M  V30 267 C 29.1818 3.80111 1.88986 0
M  V30 268 C 27.0888 5.86379 0.768964 0
M  V30 269 H 26.0188 0.710738 0.251729 0
M  V30 270 H 28.6698 1.83326 -0.0799926 0
M  V30 271 H 27.0518 3.40182 2.02712 0
M  V30 272 H 28.2258 4.57112 -0.581846 0
M  V30 273 H 26.5408 4.14766 -0.368475 0
M  V30 274 H 29.1378 4.81145 2.33247 0
M  V30 275 H 29.4808 3.14511 2.72743 0
M  V30 276 H 30.0138 3.80454 1.16187 0
M  V30 277 H 26.7528 6.55493 -0.0301957 0
M  V30 278 H 26.2728 5.80496 1.50945 0
M  V30 279 H 27.9518 6.34563 1.26251 0
M  V30 280 N 28.0839 -0.256276 1.55502 0
M  V30 281 C 29.3139 -1.00196 1.80677 0
M  V30 282 C 29.7219 -1.79805 0.588797 0
M  V30 283 O 29.0649 -1.78055 -0.451883 0
M  V30 284 C 29.1269 -1.99515 2.99055 0
M  V30 285 C 28.7909 -1.38688 4.35448 0
M  V30 286 C 29.7879 -0.794079 5.138 0
M  V30 287 C 27.4729 -1.40906 4.82132 0
M  V30 288 C 29.4669 -0.231562 6.36979 0
M  V30 289 C 27.1539 -0.842684 6.05262 0
M  V30 290 C 28.1519 -0.254953 6.82524 0
M  V30 291 O 27.8399 0.3027 8.0333 0
M  V30 292 H 27.5719 -0.300919 0.60533 0
M  V30 293 H 30.1259 -0.287307 2.03381 0
M  V30 294 H 28.3559 -2.74785 2.72084 0
M  V30 295 H 30.0449 -2.60349 3.11405 0
M  V30 296 H 30.8109 -0.769519 4.78856 0
M  V30 297 H 26.6899 -1.85591 4.21992 0
M  V30 298 H 30.2339 0.227816 6.97228 0
M  V30 299 H 26.1309 -0.86454 6.39684 0
M  V30 300 H 26.8989 0.193662 8.18271 0
M  V30 301 N 29.562 -1.4872 -0.521534 0
M  V30 302 C 30.787 -1.61101 -1.30618 0
M  V30 303 C 31.212 -0.274611 -1.86085 0
M  V30 304 O 30.57 0.754937 -1.64834 0
M  V30 305 C 30.618 -2.66709 -2.4269 0
M  V30 306 O 29.722 -2.24456 -3.45967 0
M  V30 307 H 29.063 -0.539921 -0.386499 0
M  V30 308 H 31.593 -1.94767 -0.626645 0
M  V30 309 H 31.603 -2.88245 -2.88754 0
M  V30 310 H 30.278 -3.63727 -2.01682 0
M  V30 311 H 28.855 -2.13168 -3.05964 0
M  V30 312 N 31.0401 0.771051 -1.3745 0
M  V30 313 C 32.4511 1.34737 -1.29239 0
M  V30 314 C 32.8021 1.96109 0.0596908 0
M  V30 315 O 31.9271 1.93865 0.961534 0
M  V30 316 C 32.5221 2.44973 -2.34037 0
M  V30 317 C 31.0811 2.98372 -2.29458 0
M  V30 318 C 30.2281 1.71595 -2.17831 0
M  V30 319 H 33.1791 0.571256 -1.48062 0
M  V30 320 H 33.2001 3.24471 -1.98744 0
M  V30 321 H 32.7121 2.00276 -3.32432 0
M  V30 322 H 30.8131 3.47443 -1.34589 0
M  V30 323 H 30.9261 3.53939 -3.229 0
M  V30 324 H 29.2901 1.94547 -1.64388 0
M  V30 325 H 30.0731 1.29001 -3.18141 0
M  V30 326 N 32.5182 1.22032 0.997298 0
M  V30 327 C 33.4282 1.00271 2.12092 0
M  V30 328 C 34.4442 -0.047621 1.73935 0
M  V30 329 O 35.6202 0.144136 2.00884 0
M  V30 330 C 32.6852 0.578449 3.4184 0
M  V30 331 C 31.7462 1.70189 3.94125 0
M  V30 332 C 30.9792 1.29778 5.17681 0
M  V30 333 O 31.2022 0.174676 5.70132 0
M  V30 334 O 30.1362 2.11261 5.63607 0
M  V30 335 H 33.9622 1.94398 2.3333 0
M  V30 336 H 31.5472 1.00587 1.10465 0
M  V30 337 H 33.4292 0.351998 4.19927 0
M  V30 338 H 32.1042 -0.334019 3.21972 0
M  V30 339 H 31.0112 1.98282 3.1723 0
M  V30 340 H 32.3442 2.59206 4.18417 0
M  V30 341 N 33.9963 -1.19345 1.0293 0
M  V30 342 C 35.2263 -1.92717 0.744563 0
M  V30 343 C 35.6343 -1.75751 -0.700579 0
M  V30 344 O 34.9773 -1.07703 -1.48815 0
M  V30 345 C 35.0393 -3.44828 1.01657 0
M  V30 346 C 34.7033 -3.85564 2.45335 0
M  V30 347 C 35.7003 -3.90286 3.43472 0
M  V30 348 C 33.3853 -4.1719 2.79746 0
M  V30 349 C 35.3793 -4.26065 4.74075 0
M  V30 350 C 33.0663 -4.52642 4.10559 0
M  V30 351 C 34.0643 -4.57054 5.07534 0
M  V30 352 O 33.7523 -4.91685 6.36004 0
M  V30 353 H 33.4843 -0.618977 0.271742 0
M  V30 354 H 36.0383 -1.52415 1.37691 0
M  V30 355 H 34.2683 -3.85314 0.327084 0
M  V30 356 H 35.9573 -3.99437 0.721427 0
M  V30 357 H 36.7233 -3.66002 3.18225 0
M  V30 358 H 32.6023 -4.1294 2.04943 0
M  V30 359 H 36.1463 -4.29423 5.49765 0
M  V30 360 H 32.0433 -4.76383 4.35579 0
M  V30 361 H 32.8113 -5.09631 6.40483 0
M  V30 362 N 35.4744 -0.807222 -1.35358 0
M  V30 363 C 36.7204 -0.388463 -1.99045 0
M  V30 364 C 37.0534 1.04184 -1.63888 0
M  V30 365 O 36.3284 1.72292 -0.902535 0
M  V30 366 C 36.6114 -0.572783 -3.55515 0
M  V30 367 C 36.4644 -2.04807 -4.00468 0
M  V30 368 C 37.7834 0.00114064 -4.401 0
M  V30 369 H 34.9024 -0.142619 -0.723069 0
M  V30 370 H 37.5444 -1.01687 -1.60498 0
M  V30 371 H 35.6944 -0.0378425 -3.88482 0
M  V30 372 H 37.3664 -2.64544 -3.77908 0
M  V30 373 H 35.6094 -2.54427 -3.51353 0
M  V30 374 H 36.2804 -2.12792 -5.09337 0
M  V30 375 H 38.7564 -0.455716 -4.13597 0
M  V30 376 H 37.6324 -0.157737 -5.48673 0
M  V30 377 H 37.8934 1.09488 -4.28328 0
M  V30 378 N 36.9525 1.47285 -0.560781 0
M  V30 379 C 38.1775 2.07359 -0.0410566 0
M  V30 380 C 38.6025 1.41017 1.24483 0
M  V30 381 O 37.9605 0.486368 1.74654 0
M  V30 382 C 38.0085 3.6035 0.134123 0
M  V30 383 O 37.1125 3.94681 1.19587 0
M  V30 384 H 36.4535 0.661887 -0.0529291 0
M  V30 385 H 38.9835 1.89252 -0.777482 0
M  V30 386 H 38.9935 4.0652 0.347207 0
M  V30 387 H 37.6685 4.08034 -0.805047 0
M  V30 388 H 36.2455 3.60251 0.962987 0
M  V30 389 N 38.4306 0.297415 1.54768 0
M  V30 390 C 39.3636 -0.622188 2.19554 0
M  V30 391 C 40.3416 -1.13558 1.16376 0
M  V30 392 O 41.5256 -1.20444 1.45002 0
M  V30 393 C 38.6526 -1.8509 2.83653 0
M  V30 394 C 37.6986 -1.47106 4.00328 0
M  V30 395 S 38.5316 -0.53006 5.3287 0
M  V30 396 C 39.6876 -1.76665 6.0045 0
M  V30 397 H 39.9206 -0.0717806 2.97213 0
M  V30 398 H 37.4536 0.0815678 1.54184 0
M  V30 399 H 39.4116 -2.55605 3.21211 0
M  V30 400 H 38.0726 -2.37247 2.05846 0
M  V30 401 H 37.2656 -2.38594 4.43947 0
M  V30 402 H 36.8676 -0.845885 3.64309 0
M  V30 403 H 39.1596 -2.7077 6.21039 0
M  V30 404 H 40.1026 -1.37308 6.9466 0
M  V30 405 H 40.5106 -1.94174 5.30054 0
M  V30 406 N 39.9087 -1.5758 0.0250728 0
M  V30 407 C 41.1487 -1.93497 -0.65865 0
M  V30 408 C 41.5127 -0.901409 -1.69525 0
M  V30 409 O 42.7137 -1.14664 -2.43116 0
M  V30 410 C 40.9847 -3.34352 -1.26267 0
M  V30 411 S 42.5437 -3.92191 -1.96803 0
M  V30 412 H 39.3617 -0.67709 -0.216958 0
M  V30 413 H 41.9637 -1.95303 0.0877692 0
M  V30 414 H 40.6677 -4.07395 -0.495741 0
M  V30 415 H 40.1987 -3.3598 -2.04648 0
M  V30 416 H 42.2137 -3.75298 -3.24601 0
M  V30 417 N 41.3868 0.248026 -1.55636 0
M  V30 418 C 42.6638 0.998988 -1.68165 0
M  V30 419 C 43.0438 2.03409 -0.564621 0
M  V30 420 O 42.3918 2.24378 0.432076 0
M  V30 421 C 42.6018 1.63334 -3.0842 0
M  V30 422 C 43.9498 2.13562 -3.66983 0
M  V30 423 O 44.9738 1.73277 -3.11213 0
M  V30 424 O 43.8328 2.87526 -4.64749 0
M  V30 425 H 40.9268 0.464933 -0.683935 0
M  V30 426 H 43.4728 0.241902 -1.67967 0
M  V30 427 H 42.2448 0.884583 -3.8117 0
M  V30 428 H 41.8678 2.45666 -3.12624 0
M  V30 429 N 42.8649 1.48995 0.513639 0
M  V30 430 C 44.0899 1.61792 1.29762 0
M  V30 431 C 44.5149 0.284475 1.85936 0
M  V30 432 O 43.8729 -0.746185 1.65232 0
M  V30 433 C 43.9209 2.67993 2.41272 0
M  V30 434 O 43.0249 2.26287 3.44772 0
M  V30 435 H 42.3659 0.541963 0.38363 0
M  V30 436 H 44.8959 1.95097 0.616307 0
M  V30 437 H 44.9059 2.89772 2.87221 0
M  V30 438 H 43.5809 3.64791 1.9975 0
M  V30 439 H 42.1579 2.14788 3.04829 0
M  V30 440 N 44.343 -0.763751 1.37857 0
M  V30 441 C 45.273 -1.89103 1.36975 0
M  V30 442 C 46.254 -1.68439 0.237152 0
M  V30 443 O 47.439 -1.8918 0.438713 0
M  V30 444 C 44.569 -3.26496 1.18395 0
M  V30 445 C 43.523 -3.61741 2.28751 0
M  V30 446 C 42.849 -4.97762 1.95286 0
M  V30 447 C 44.149 -3.67665 3.70972 0
M  V30 448 H 45.843 -1.90099 2.31307 0
M  V30 449 H 43.389 -0.91319 1.11341 0
M  V30 450 H 45.342 -4.05003 1.16406 0
M  V30 451 H 44.066 -3.25955 0.205215 0
M  V30 452 H 42.725 -2.85547 2.29909 0
M  V30 453 H 42.373 -4.93769 0.959221 0
M  V30 454 H 42.073 -5.22313 2.69189 0
M  V30 455 H 43.597 -5.7866 1.94898 0
M  V30 456 H 45.011 -4.36307 3.719 0
M  V30 457 H 43.408 -4.03718 4.43995 0
M  V30 458 H 44.478 -2.68134 4.0402 0
M  V30 459 N 45.8211 -1.22559 -0.990812 0
M  V30 460 C 46.7841 -0.998863 -2.0629 0
M  V30 461 C 47.7841 0.0354834 -1.60761 0
M  V30 462 O 48.9741 -0.203231 -1.7301 0
M  V30 463 C 46.1061 -0.509203 -3.37076 0
M  V30 464 H 47.2991 -1.95014 -2.27837 0
M  V30 465 H 44.8521 -1.04456 -1.16269 0
M  V30 466 H 45.5871 0.446335 -3.21214 0
M  V30 467 H 45.3721 -1.25547 -3.71457 0
M  V30 468 H 46.8621 -0.370888 -4.1595 0
M  V30 469 N 47.2992 1.18797 -1.03562 0
M  V30 470 C 48.2462 2.22253 -0.622259 0
M  V30 471 C 49.2162 1.61987 0.36736 0
M  V30 472 O 50.4012 1.88986 0.262492 0
M  V30 473 C 47.5412 3.45097 0.0138462 0
M  V30 474 C 46.6542 4.19722 -1.02263 0
M  V30 475 C 45.7892 5.30009 -0.355573 0
M  V30 476 C 44.8282 5.96399 -1.37749 0
M  V30 477 N 43.9652 6.98234 -0.735766 0
M  V30 478 H 48.8052 2.56968 -1.50903 0
M  V30 479 H 46.3422 1.26245 -0.755017 0
M  V30 480 H 48.3002 4.15279 0.399948 0
M  V30 481 H 46.9302 3.11018 0.864158 0
M  V30 482 H 45.9822 3.48418 -1.52673 0
M  V30 483 H 47.2942 4.65227 -1.79903 0
M  V30 484 H 46.4482 6.0664 0.0850095 0
M  V30 485 H 45.1872 4.85592 0.452967 0
M  V30 486 H 44.1922 5.18512 -1.82826 0
M  V30 487 H 45.4172 6.42899 -2.18764 0
M  V30 488 H 43.3632 6.55979 0.0525597 0
M  V30 489 H 43.2802 7.41965 -1.44995 0
M  V30 490 H 44.5482 7.78845 -0.31941 0
M  V30 491 N 48.7773 0.814389 1.34928 0
M  V30 492 C 50.0263 0.394871 1.97797 0
M  V30 493 C 50.3393 -1.04555 1.65311 0
M  V30 494 O 51.5453 -1.56856 2.21604 0
M  V30 495 C 50.0013 0.655103 3.53888 0
M  V30 496 C 49.6093 2.10858 3.95276 0
M  V30 497 C 51.3533 0.301329 4.23429 0
M  V30 498 C 49.2603 2.31415 5.44244 0
M  V30 499 H 48.1903 0.143913 0.740139 0
M  V30 500 H 50.8413 0.999544 1.53888 0
M  V30 501 H 49.2233 -0.0196253 3.95995 0
M  V30 502 H 50.3973 2.82176 3.64298 0
M  V30 503 H 48.7123 2.42297 3.38646 0
M  V30 504 H 51.3093 0.432869 5.32945 0
M  V30 505 H 51.6523 -0.75331 4.09428 0
M  V30 506 H 52.1853 0.930288 3.86769 0
M  V30 507 H 48.9243 3.35353 5.63222 0
M  V30 508 H 48.4443 1.6463 5.76764 0
M  V30 509 H 50.1233 2.13352 6.10811 0
M  V30 510 N 50.2554 -1.46986 0.568584 0
M  V30 511 C 51.6664 -1.86188 0.138219 0
M  V30 512 C 52.0174 -1.47388 -1.29504 0
M  V30 513 O 51.1424 -0.88219 -1.97602 0
M  V30 514 C 51.7374 -3.3792 0.244065 0
M  V30 515 C 50.2964 -3.76171 -0.131335 0
M  V30 516 C 49.4434 -2.71027 0.586465 0
M  V30 517 H 52.3944 -1.38342 0.777645 0
M  V30 518 H 52.4154 -3.76729 -0.534351 0
M  V30 519 H 51.9274 -3.66128 1.28731 0
M  V30 520 H 50.0284 -3.5358 -1.17526 0
M  V30 521 H 50.1414 -4.78523 0.235146 0
M  V30 522 H 48.5054 -2.54684 0.0282722 0
M  V30 523 H 49.2884 -3.02077 1.63109 0
M  V30 524 N 51.7335 -0.305618 -1.54608 0
M  V30 525 C 52.6805 0.568421 -2.23691 0
M  V30 526 C 53.6505 1.12592 -1.22116 0
M  V30 527 O 54.8355 1.16959 -1.50749 0
M  V30 528 C 51.9755 1.7322 -2.98477 0
M  V30 529 C 51.0885 1.20566 -4.14835 0
M  V30 530 C 50.2235 2.33368 -4.77193 0
M  V30 531 C 49.2625 1.7787 -5.85686 0
M  V30 532 N 48.3995 2.84263 -6.4198 0
M  V30 533 H 53.2395 -0.0272867 -2.97988 0
M  V30 534 H 50.7765 -0.0252363 -1.47078 0
M  V30 535 H 52.7345 2.41675 -3.40072 0
M  V30 536 H 51.3645 2.29947 -2.26548 0
M  V30 537 H 50.4165 0.413223 -3.78149 0
M  V30 538 H 51.7285 0.759417 -4.92985 0
M  V30 539 H 50.8825 3.09761 -5.21664 0
M  V30 540 H 49.6215 2.8132 -3.98385 0
M  V30 541 H 48.6265 0.99968 -5.40635 0
M  V30 542 H 49.8515 1.30816 -6.66381 0
M  V30 543 H 47.7975 3.31541 -5.66053 0
M  V30 544 H 47.7145 2.44149 -7.15491 0
M  V30 545 H 48.9825 3.6054 -6.91109 0
M  V30 546 N 53.2116 1.57565 -0.0334293 0
M  V30 547 C 54.6276 1.56297 0.322997 0
M  V30 548 C 54.8276 1.03945 1.7262 0
M  V30 549 O 53.8836 0.688109 2.42943 0
M  V30 550 C 55.1966 3.00232 0.167664 0
M  V30 551 C 56.7446 3.12078 0.240107 0
M  V30 552 C 57.2196 4.57859 0.113513 0
M  V30 553 N 58.7106 4.62887 0.170359 0
M  V30 554 C 59.4456 5.73319 0.0962517 0
M  V30 555 N 58.9416 6.92794 -0.0291881 0
M  V30 556 N 60.7346 5.61898 0.150551 0
M  V30 557 H 52.8856 1.89923 -0.950956 0
M  V30 558 H 55.1486 0.873824 -0.367608 0
M  V30 559 H 54.8546 3.42501 -0.799102 0
M  V30 560 H 54.7286 3.654 0.936083 0
M  V30 561 H 57.1156 2.69718 1.19733 0
M  V30 562 H 57.1966 2.49623 -0.558763 0
M  V30 563 H 56.8406 5.009 -0.840314 0
M  V30 564 H 56.7706 5.18299 0.931302 0
M  V30 565 H 59.2616 3.76954 0.26728 0
M  V30 566 H 59.5746 7.7276 -0.0789252 0
M  V30 567 H 57.9196 6.94971 -0.0640299 0
M  V30 568 H 61.1106 4.67448 0.246981 0
M  V30 569 H 61.2836 6.47938 0.0893365 0
M  V30 570 N 54.6897 -0.239769 1.55765 0
M  V30 571 C 55.6527 -1.28038 1.90103 0
M  V30 572 C 56.6527 -1.40723 0.778055 0
M  V30 573 O 57.8427 -1.39301 1.04599 0
M  V30 574 C 54.9747 -2.65702 2.13577 0
M  V30 575 H 56.1677 -0.988048 2.83157 0
M  V30 576 H 53.7207 -0.479382 1.48767 0
M  V30 577 H 54.4557 -3.00063 1.23015 0
M  V30 578 H 54.2407 -2.57875 2.95369 0
M  V30 579 H 55.7307 -3.40828 2.41301 0
M  V30 580 N 56.1678 -1.49265 -0.50573 0
M  V30 581 C 57.3928 -1.62478 -1.28902 0
M  V30 582 C 57.8178 -0.294332 -1.85783 0
M  V30 583 O 57.1758 0.737412 -1.65626 0
M  V30 584 C 57.2238 -2.69268 -2.39848 0
M  V30 585 O 56.3278 -2.28113 -3.43567 0
M  V30 586 H 55.6688 -0.54399 -0.380751 0
M  V30 587 H 58.1988 -1.95421 -0.605952 0
M  V30 588 H 58.2088 -2.91291 -2.85681 0
M  V30 589 H 56.8838 -3.65846 -1.97812 0
M  V30 590 H 55.4608 -2.16401 -3.03685 0
M  V30 591 N 57.6459 0.756429 -1.3826 0
M  V30 592 C 58.5789 1.87802 -1.29637 0
M  V30 593 C 59.5569 1.61667 -0.173939 0
M  V30 594 O 60.7409 1.85208 -0.350775 0
M  V30 595 C 57.8679 3.23354 -1.00797 0
M  V30 596 C 56.9139 3.68379 -2.14939 0
M  V30 597 S 57.7469 3.8025 -3.77054 0
M  V30 598 C 58.9029 5.18626 -3.50396 0
M  V30 599 H 59.1359 1.94829 -2.24564 0
M  V30 600 H 56.6689 0.919117 -1.24063 0
M  V30 601 H 58.6269 4.01637 -0.848413 0
M  V30 602 H 57.2879 3.14008 -0.0759369 0
M  V30 603 H 56.4809 4.66693 -1.90299 0
M  V30 604 H 56.0829 2.97242 -2.26988 0
M  V30 605 H 58.3749 6.04289 -3.06334 0
M  V30 606 H 59.3179 5.48286 -4.48094 0
M  V30 607 H 59.7259 4.87289 -2.84973 0
M  V30 608 N 59.124 1.23083 0.984299 0
M  V30 609 C 60.37 1.06214 1.72761 0
M  V30 610 C 60.703 -0.400584 1.90024 0
M  V30 611 O 59.978 -1.29672 1.44967 0
M  V30 612 C 60.261 1.78375 3.12817 0
M  V30 613 C 60.114 3.32296 3.03149 0
M  V30 614 C 61.433 1.54309 4.12161 0
M  V30 615 H 58.552 0.387251 0.627061 0
M  V30 616 H 61.194 1.51536 1.14616 0
M  V30 617 H 59.344 1.39848 3.62457 0
M  V30 618 H 61.016 3.8032 2.61064 0
M  V30 619 H 59.259 3.6153 2.39747 0
M  V30 620 H 59.93 3.77972 4.02295 0
M  V30 621 H 62.406 1.87791 3.71314 0
M  V30 622 H 61.282 2.07281 5.08258 0
M  V30 623 H 61.543 0.477572 4.39513 0
M  V30 624 N 60.6021 -1.18246 1.0419 0
M  V30 625 C 61.5521 -2.19843 0.604392 0
M  V30 626 C 62.5361 -1.56962 -0.353814 0
M  V30 627 O 63.7281 -1.76156 -0.17267 0
M  V30 628 C 60.8571 -3.43287 -0.0298975 0
M  V30 629 C 59.9431 -4.13288 0.951531 0
M  V30 630 N 60.3341 -4.59271 2.11906 0
M  V30 631 C 58.6321 -4.39165 0.7778 0
M  V30 632 C 59.3331 -5.13173 2.73912 0
M  V30 633 N 58.3091 -5.04763 2.01779 0
M  V30 634 H 62.1111 -2.53089 1.4941 0
M  V30 635 H 59.6251 -1.34465 0.910658 0
M  V30 636 H 61.6221 -4.15334 -0.361037 0
M  V30 637 H 60.2821 -3.11537 -0.915127 0
M  V30 638 H 61.2931 -4.5368 2.49789 0
M  V30 639 H 57.9701 -4.17461 -0.0572331 0
M  V30 640 H 59.3601 -5.58947 3.72864 0
M  V30 641 N 62.0802 -0.821533 -1.34494 0
M  V30 642 C 63.3052 -0.420873 -2.03085 0
M  V30 643 C 63.7302 0.964915 -1.61465 0
M  V30 644 O 63.0882 1.62763 -0.798607 0
M  V30 645 C 63.1362 -0.529414 -3.56693 0
M  V30 646 O 62.2402 0.451302 -4.09923 0
M  V30 647 H 61.5812 -0.173489 -0.640935 0
M  V30 648 H 64.1112 -1.11157 -1.71771 0
M  V30 649 H 64.1212 -0.404671 -4.05988 0
M  V30 650 H 62.7962 -1.54014 -3.86332 0
M  V30 651 H 61.3732 0.285558 -3.71805 0
M  V30 652 N 63.5583 1.46682 -0.576371 0
M  V30 653 C 64.4883 2.33028 0.148397 0
M  V30 654 C 65.4693 1.44961 0.889956 0
M  V30 655 O 66.6543 1.73789 0.866662 0
M  V30 656 C 63.7843 3.27117 1.1667 0
M  V30 657 C 62.7383 4.24575 0.540386 0
M  V30 658 C 62.0643 5.08126 1.6647 0
M  V30 659 C 63.3643 5.19722 -0.518331 0
M  V30 660 H 65.0583 2.93875 -0.572509 0
M  V30 661 H 62.6043 1.41315 -0.276768 0
M  V30 662 H 64.5573 3.86374 1.68204 0
M  V30 663 H 63.2813 2.64364 1.9178 0
M  V30 664 H 61.9403 3.66571 0.0461769 0
M  V30 665 H 61.5883 4.41762 2.40531 0
M  V30 666 H 61.2883 5.74122 1.25131 0
M  V30 667 H 62.8123 5.70246 2.18293 0
M  V30 668 H 64.2263 5.73232 -0.0883058 0
M  V30 669 H 62.6233 5.94026 -0.851679 0
M  V30 670 H 63.6933 4.64037 -1.40703 0
M  V30 671 N 65.0364 0.313813 1.54444 0
M  V30 672 C 66.2854 -0.292519 1.99568 0
M  V30 673 C 66.5984 -1.54011 1.20582 0
M  V30 674 O 67.8044 -2.22183 1.56035 0
M  V30 675 C 66.2604 -0.571752 3.55329 0
M  V30 676 C 65.8684 0.658229 4.43138 0
M  V30 677 C 67.6124 -1.13857 4.08946 0
M  V30 678 C 65.5194 0.351439 5.90355 0
M  V30 679 H 64.4494 -0.113079 0.745472 0
M  V30 680 H 67.1004 0.424518 1.78522 0
M  V30 681 H 65.4824 -1.34872 3.72325 0
M  V30 682 H 66.6564 1.43403 4.37918 0
M  V30 683 H 64.9714 1.14458 4.0036 0
M  V30 684 H 67.5684 -1.38257 5.16516 0
M  V30 685 H 67.9114 -2.08489 3.6033 0
M  V30 686 H 68.4444 -0.423015 3.95544 0
M  V30 687 H 65.1834 1.26667 6.43145 0
M  V30 688 H 64.7034 -0.386842 5.98551 0
M  V30 689 H 66.3824 -0.0423134 6.46986 0
M  V30 690 N 66.5145 -1.57545 0.0417849 0
M  V30 691 C 67.4245 -2.14451 -0.951213 0
M  V30 692 C 68.4405 -1.09992 -1.34825 0
M  V30 693 O 69.6165 -1.42114 -1.42708 0
M  V30 694 C 66.6815 -2.67063 -2.21084 0
M  V30 695 C 65.7425 -3.86284 -1.87304 0
M  V30 696 C 64.9755 -4.36378 -3.07261 0
M  V30 697 O 65.1985 -3.85587 -4.20332 0
M  V30 698 O 64.1325 -5.28077 -2.88822 0
M  V30 699 H 67.9585 -2.99601 -0.497287 0
M  V30 700 H 65.5435 -1.48317 -0.179567 0
M  V30 701 H 67.4255 -3.00914 -2.95006 0
M  V30 702 H 66.1005 -1.84989 -2.65633 0
M  V30 703 H 65.0075 -3.57338 -1.10727 0
M  V30 704 H 66.3405 -4.6956 -1.47562 0
M  V30 705 N 67.9926 0.231505 -1.5589 0
M  V30 706 C 68.9556 1.27028 -1.90779 0
M  V30 707 C 69.9556 1.40308 -0.785507 0
M  V30 708 O 71.1456 1.38744 -1.05336 0
M  V30 709 C 68.2776 2.64566 -2.14983 0
M  V30 710 H 69.4706 0.973017 -2.83677 0
M  V30 711 H 67.0236 0.471486 -1.49019 0
M  V30 712 H 67.7586 2.99406 -1.24604 0
M  V30 713 H 67.5436 2.56305 -2.96732 0
M  V30 714 H 69.0336 3.39543 -2.43105 0
M  V30 715 N 69.4707 1.49531 0.497807 0
M  V30 716 C 70.7007 1.62657 1.27382 0
M  V30 717 C 71.1087 0.298488 1.86831 0
M  V30 718 O 70.4517 -0.72647 1.68725 0
M  V30 719 C 70.5137 2.6393 2.44093 0
M  V30 720 C 70.1777 4.08195 2.05489 0
M  V30 721 C 71.1747 4.949 1.59279 0
M  V30 722 C 68.8597 4.53948 2.15026 0
M  V30 723 C 70.8537 6.25397 1.23113 0
M  V30 724 C 68.5407 5.84458 1.78473 0
M  V30 725 C 69.5387 6.70006 1.32591 0
M  V30 726 O 69.2267 7.98083 0.965327 0
M  V30 727 H 68.9587 0.550429 0.392434 0
M  V30 728 H 71.5127 1.96325 0.603801 0
M  V30 729 H 69.7427 2.25449 3.14181 0
M  V30 730 H 71.4317 2.66552 3.06113 0
M  V30 731 H 72.1977 4.60779 1.51354 0
M  V30 732 H 68.0767 3.87525 2.4969 0
M  V30 733 H 71.6207 6.92125 0.872299 0
M  V30 734 H 67.5177 6.18107 1.86048 0
M  V30 735 H 68.2857 8.11122 1.09652 0
M  V30 736 N 70.9488 -0.749086 1.3866 0
M  V30 737 C 71.9118 -1.84457 1.36045 0
M  V30 738 C 72.9118 -1.58682 0.260122 0
M  V30 739 O 74.1018 -1.66343 0.517261 0
M  V30 740 C 71.2338 -3.22008 1.11911 0
M  V30 741 H 72.4268 -1.88182 2.33512 0
M  V30 742 H 69.9798 -0.951266 1.24019 0
M  V30 743 H 70.7148 -3.2395 0.150686 0
M  V30 744 H 70.4998 -3.42111 1.91579 0
M  V30 745 H 71.9898 -4.0208 1.12788 0
M  V30 746 N 72.4269 -1.23603 -0.977757 0
M  V30 747 C 73.3569 -1.04401 -2.0886 0
M  V30 748 C 74.3379 0.0399052 -1.70053 0
M  V30 749 O 75.5229 -0.125246 -1.93796 0
M  V30 750 C 72.6529 -0.637269 -3.41403 0
M  V30 751 C 71.6069 -1.66883 -3.94124 0
M  V30 752 C 70.9329 -1.11745 -5.22893 0
M  V30 753 C 72.2329 -3.06247 -4.23096 0
M  V30 754 H 73.9269 -1.97316 -2.25182 0
M  V30 755 H 71.4729 -0.950096 -1.08209 0
M  V30 756 H 73.4259 -0.48998 -4.18542 0
M  V30 757 H 72.1499 0.327557 -3.24953 0
M  V30 758 H 70.8089 -1.80416 -3.19133 0
M  V30 759 H 70.4569 -0.143527 -5.02795 0
M  V30 760 H 70.1569 -1.80672 -5.59134 0
M  V30 761 H 71.6809 -0.982067 -6.02651 0
M  V30 762 H 73.0949 -2.96001 -4.90975 0
M  V30 763 H 71.4919 -3.72436 -4.70544 0
M  V30 764 H 72.5619 -3.55041 -3.30263 0
M  V30 765 N 73.905 1.17692 -1.04816 0
M  V30 766 C 74.855 2.1952 -0.616042 0
M  V30 767 C 75.839 1.57147 0.345485 0
M  V30 768 O 77.031 1.76245 0.163325 0
M  V30 769 C 74.16 3.43298 0.0116917 0
M  V30 770 C 73.246 4.12777 -0.973435 0
M  V30 771 N 73.637 4.5814 -2.14339 0
M  V30 772 C 71.935 4.38747 -0.80108 0
M  V30 773 C 72.636 5.11713 -2.7663 0
M  V30 774 N 71.612 5.03686 -2.04453 0
M  V30 775 H 75.414 2.52293 -1.5075 0
M  V30 776 H 72.928 1.3398 -0.917776 0
M  V30 777 H 74.925 4.15519 0.339006 0
M  V30 778 H 73.585 3.12018 0.898593 0
M  V30 779 H 74.596 4.52349 -2.52191 0
M  V30 780 H 71.273 4.17485 0.0350934 0
M  V30 781 H 72.663 5.56962 -3.75823 0
M  V30 782 N 75.3831 0.828654 1.34056 0
M  V30 783 C 76.3301 0.252567 2.29414 0
M  V30 784 C 77.3001 -0.62588 1.53857 0
M  V30 785 O 78.4851 -0.566312 1.82202 0
M  V30 786 C 75.6251 -0.574831 3.40279 0
M  V30 787 C 74.7381 0.326499 4.30764 0
M  V30 788 C 73.8731 -0.511016 5.28736 0
M  V30 789 C 72.9121 0.389342 6.1086 0
M  V30 790 N 72.0491 -0.409439 7.00905 0
M  V30 791 H 76.8891 1.07108 2.78086 0
M  V30 792 H 74.4261 0.539677 1.36843 0
M  V30 793 H 76.3841 -1.06992 4.03248 0
M  V30 794 H 75.0141 -1.35841 2.92826 0
M  V30 795 H 74.0661 0.939837 3.68607 0
M  V30 796 H 75.3781 1.01857 4.88289 0
M  V30 797 H 74.5321 -1.07035 5.97184 0
M  V30 798 H 73.2711 -1.23657 4.71763 0
M  V30 799 H 72.2761 0.960769 5.4134 0
M  V30 800 H 73.5011 1.1131 6.69916 0
M  V30 801 H 71.4471 -1.11856 6.46393 0
M  V30 802 H 71.3641 0.224126 7.55668 0
M  V30 803 H 72.6321 -0.951336 7.73673 0
M  V30 804 N 76.8612 -1.46375 0.584142 0
M  V30 805 C 77.7932 -2.28443 -0.186119 0
M  V30 806 C 78.8062 -1.38596 -0.854115 0
M  V30 807 O 79.9952 -1.63183 -0.723438 0
M  V30 808 C 77.0952 -3.13671 -1.28311 0
M  V30 809 C 76.2682 -4.31652 -0.706758 0
M  V30 810 C 75.3272 -4.98267 -1.69163 0
M  V30 811 O 74.3532 -5.55815 -1.22712 0
M  V30 812 N 75.5552 -4.95408 -3.02575 0
M  V30 813 H 78.3202 -2.9519 0.517986 0
M  V30 814 H 75.8812 -1.56303 0.42201 0
M  V30 815 H 77.8732 -3.55101 -1.94128 0
M  V30 816 H 76.4432 -2.48989 -1.89005 0
M  V30 817 H 75.6632 -3.93989 0.128908 0
M  V30 818 H 76.9512 -5.07906 -0.301506 0
M  V30 819 H 76.3492 -4.49902 -3.42936 0
M  V30 820 H 74.9062 -5.40774 -3.63877 0
M  V30 821 N 78.3393 -0.321999 -1.54275 0
M  V30 822 C 79.2723 0.58718 -2.20516 0
M  V30 823 C 80.2503 1.11693 -1.18167 0
M  V30 824 O 81.4343 1.18122 -1.46899 0
M  V30 825 C 78.5613 1.80554 -2.86562 0
M  V30 826 C 77.6073 1.40718 -4.02617 0
M  V30 827 S 78.4403 0.445218 -5.33646 0
M  V30 828 C 79.5963 1.6709 -6.03185 0
M  V30 829 H 79.8293 0.0244875 -2.9729 0
M  V30 830 H 77.3623 -0.106087 -1.54035 0
M  V30 831 H 79.3203 2.50462 -3.25237 0
M  V30 832 H 77.9813 2.33942 -2.09595 0
M  V30 833 H 77.1743 2.31501 -4.47687 0
M  V30 834 H 76.7763 0.78782 -3.65608 0
M  V30 835 H 79.0683 2.60856 -6.25268 0
M  V30 836 H 80.0113 1.26239 -6.96756 0
M  V30 837 H 80.4193 1.85716 -5.33076 0
M  V30 838 N 79.8174 1.5752 -0.0501392 0
M  V30 839 C 81.2334 1.56631 0.306402 0
M  V30 840 C 81.4334 1.0577 1.71508 0
M  V30 841 O 80.4894 0.713837 2.422 0
M  V30 842 C 81.8024 3.00393 0.135811 0
M  V30 843 C 83.3504 3.12315 0.206993 0
M  V30 844 C 83.8254 4.57954 0.064944 0
M  V30 845 N 85.3164 4.63041 0.121254 0
M  V30 846 C 86.0514 5.73389 0.0354381 0
M  V30 847 N 85.5474 6.92724 -0.102666 0
M  V30 848 N 87.3404 5.62026 0.090946 0
M  V30 849 H 79.4914 1.88903 -0.971046 0
M  V30 850 H 81.7544 0.869876 -0.376855 0
M  V30 851 H 81.4604 3.41635 -0.835384 0
M  V30 852 H 81.3344 3.66373 0.897275 0
M  V30 853 H 83.7214 2.70973 1.16866 0
M  V30 854 H 83.8024 2.49016 -0.585208 0
M  V30 855 H 83.4464 4.99981 -0.893394 0
M  V30 856 H 83.3764 5.19258 0.876277 0
M  V30 857 H 85.8674 3.77216 0.227284 0
M  V30 858 H 86.1804 7.72633 -0.160882 0
M  V30 859 H 84.5254 6.94864 -0.137737 0
M  V30 860 H 87.7164 4.67684 0.197388 0
M  V30 861 H 87.8894 6.47997 0.0206089 0
M  V30 862 N 81.2955 -0.223234 1.56011 0
M  V30 863 C 82.5445 -0.945912 1.78144 0
M  V30 864 C 82.8575 -1.85567 0.618396 0
M  V30 865 O 84.0635 -2.61688 0.723318 0
M  V30 866 C 82.5195 -1.73216 3.15475 0
M  V30 867 C 82.1275 -0.868619 4.39499 0
M  V30 868 C 83.8715 -2.44615 3.46935 0
M  V30 869 C 81.7785 -1.65212 5.67855 0
M  V30 870 H 80.7085 -0.356929 0.664167 0
M  V30 871 H 83.3595 -0.199845 1.82409 0
M  V30 872 H 81.7415 -2.52107 3.05382 0
M  V30 873 H 82.9155 -0.120366 4.60643 0
M  V30 874 H 81.2305 -0.26683 4.15544 0
M  V30 875 H 83.8275 -3.03732 4.40058 0
M  V30 876 H 84.1705 -3.17417 2.69355 0
M  V30 877 H 84.7035 -1.72715 3.58349 0
M  V30 878 H 81.4425 -0.967407 6.48322 0
M  V30 879 H 80.9625 -2.37503 5.50774 0
M  V30 880 H 82.6415 -2.21322 6.07968 0
M  V30 881 N 82.7736 -1.49793 -0.48987 0
M  V30 882 C 84.0196 -1.60078 -1.24511 0
M  V30 883 C 84.3526 -0.291608 -1.91998 0
M  V30 884 O 83.6276 0.705647 -1.81248 0
M  V30 885 C 83.9106 -2.76791 -2.30345 0
M  V30 886 C 83.7636 -4.17535 -1.67286 0
M  V30 887 C 85.0826 -2.89111 -3.31817 0
M  V30 888 H 82.2016 -0.582645 -0.451324 0
M  V30 889 H 84.8436 -1.82117 -0.541612 0
M  V30 890 H 82.9936 -2.5813 -2.90346 0
M  V30 891 H 84.6656 -4.4774 -1.11026 0
M  V30 892 H 82.9086 -4.22665 -0.976577 0
M  V30 893 H 83.5796 -4.95094 -2.44103 0
M  V30 894 H 86.0556 -3.06133 -2.81819 0
M  V30 895 H 84.9316 -3.72433 -4.03219 0
M  V30 896 H 85.1926 -1.9893 -3.94815 0
M  V30 897 N 84.2517 0.741722 -1.39055 0
M  V30 898 C 85.1987 1.85566 -1.37237 0
M  V30 899 C 86.1687 1.64457 -0.233072 0
M  V30 900 O 87.3537 1.85957 -0.427147 0
M  V30 901 C 84.4937 3.23004 -1.215 0
M  V30 902 C 83.6067 3.55864 -2.44918 0
M  V30 903 C 82.7417 4.82669 -2.21821 0
M  V30 904 C 81.7807 5.08351 -3.40948 0
M  V30 905 N 80.9177 6.26356 -3.17211 0
M  V30 906 H 85.7577 1.86455 -2.32462 0
M  V30 907 H 83.2947 0.911176 -1.15482 0
M  V30 908 H 85.2527 4.02331 -1.10389 0
M  V30 909 H 83.8827 3.21411 -0.29908 0
M  V30 910 H 82.9347 2.7129 -2.66657 0
M  V30 911 H 84.2467 3.70765 -3.33668 0
M  V30 912 H 83.4007 5.69962 -2.07914 0
M  V30 913 H 82.1397 4.69929 -1.30454 0
M  V30 914 H 81.1447 4.19522 -3.55361 0
M  V30 915 H 82.3697 5.22981 -4.33207 0
M  V30 916 H 80.3157 6.14917 -2.28502 0
M  V30 917 H 80.2327 6.41813 -3.99515 0
M  V30 918 H 81.5007 7.16506 -3.06984 0
M  V30 919 N 85.7298 1.2412 0.971189 0
M  V30 920 C 87.1408 1.07236 1.52831 0
M  V30 921 C 87.4918 -0.357352 1.92918 0
M  V30 922 O 86.6168 -1.24528 1.76979 0
M  V30 923 C 87.2118 1.94043 2.77728 0
M  V30 924 C 85.7708 1.81394 3.29808 0
M  V30 925 C 84.9178 1.89189 2.02738 0
M  V30 926 H 87.8688 1.37648 0.789864 0
M  V30 927 H 87.8898 1.47066 3.5093 0
M  V30 928 H 87.4018 2.98093 2.4852 0
M  V30 929 H 85.5028 0.801634 3.63874 0
M  V30 930 H 85.6158 2.65294 3.98944 0
M  V30 931 H 83.9798 1.32877 2.17292 0
M  V30 932 H 84.7628 2.94812 1.759 0
M  V30 933 N 87.2079 -1.17134 1.05439 0
M  V30 934 C 88.1549 -2.21235 0.657539 0
M  V30 935 C 89.1249 -1.62551 -0.341543 0
M  V30 936 O 90.3099 -1.89379 -0.232393 0
M  V30 937 C 87.4499 -3.45076 0.0410575 0
M  V30 938 C 86.5629 -4.18042 1.08927 0
M  V30 939 C 85.6979 -5.29376 0.439848 0
M  V30 940 C 84.7369 -5.94132 1.4722 0
M  V30 941 N 83.8739 -6.96975 0.846756 0
M  V30 942 H 88.7139 -2.54534 1.54972 0
M  V30 943 H 86.2509 -1.25028 0.775006 0
M  V30 944 H 88.2089 -4.15862 -0.33383 0
M  V30 945 H 86.8389 -3.12353 -0.814568 0
M  V30 946 H 85.8909 -3.45945 1.58196 0
M  V30 947 H 87.2029 -4.62306 1.87282 0
M  V30 948 H 86.3569 -6.06699 0.0115125 0
M  V30 949 H 85.0959 -4.86251 -0.375656 0
M  V30 950 H 84.1009 -5.15538 1.91052 0
M  V30 951 H 85.3259 -6.39337 2.28965 0
M  V30 952 H 83.2719 -6.5598 0.0518075 0
M  V30 953 H 83.1889 -7.39565 1.5678 0
M  V30 954 H 84.4569 -7.78239 0.443277 0
M  V30 955 N 88.686 -0.835752 -1.33615 0
M  V30 956 C 89.932 -0.430596 -1.98176 0
M  V30 957 C 90.265 1.00684 -1.66061 0
M  V30 958 O 89.54 1.70339 -0.938877 0
M  V30 959 C 89.823 -0.648065 -3.5422 0
M  V30 960 C 89.676 -2.13255 -3.96033 0
M  V30 961 C 90.995 -0.0922113 -4.40003 0
M  V30 962 H 88.114 -0.157924 -0.719881 0
M  V30 963 H 90.756 -1.05069 -1.58305 0
M  V30 964 H 88.906 -0.120237 -3.88314 0
M  V30 965 H 90.578 -2.725 -3.72211 0
M  V30 966 H 88.821 -2.61823 -3.45878 0
M  V30 967 H 89.492 -2.23547 -5.04708 0
M  V30 968 H 91.968 -0.543343 -4.12537 0
M  V30 969 H 90.844 -0.274083 -5.48215 0
M  V30 970 H 91.105 1.00378 -4.30554 0
M  V30 971 N 90.1641 1.46063 -0.591896 0
M  V30 972 C 91.1271 2.28854 0.125973 0
M  V30 973 C 92.1271 1.38903 0.810107 0
M  V30 974 O 93.3171 1.61186 0.66066 0
M  V30 975 C 90.4491 3.19526 1.1881 0
M  V30 976 H 91.6421 2.93802 -0.601717 0
M  V30 977 H 89.1951 1.52325 -0.350254 0
M  V30 978 H 89.9301 2.59345 1.94707 0
M  V30 979 H 89.7151 3.85766 0.701936 0
M  V30 980 H 91.2051 3.81817 1.69132 0
M  V30 981 N 91.6422 0.330177 1.54103 0
M  V30 982 C 92.8672 -0.274893 2.0557 0
M  V30 983 C 93.2922 -1.44487 1.20437 0
M  V30 984 O 92.6502 -1.80021 0.214991 0
M  V30 985 C 92.6982 -0.68079 3.54115 0
M  V30 986 O 91.8022 -1.7824 3.71893 0
M  V30 987 H 91.1432 -0.0483849 0.662235 0
M  V30 988 H 93.6732 0.480508 1.98878 0
M  V30 989 H 93.6832 -0.961635 3.96505 0
M  V30 990 H 92.3582 0.174903 4.15532 0
M  V30 991 H 90.9352 -1.49985 3.41407 0
M  V30 992 N 93.1203 -1.57491 0.0584922 0
M  V30 993 C 94.0533 -2.07533 -0.948969 0
M  V30 994 C 95.0313 -0.977444 -1.29942 0
M  V30 995 O 96.2153 -1.2499 -1.41102 0
M  V30 996 C 93.3423 -2.52192 -2.2609 0
M  V30 997 C 92.3883 -3.73287 -2.06298 0
M  V30 998 S 93.2213 -5.18603 -1.33459 0
M  V30 999 C 94.3773 -5.66583 -2.65959 0
M  V30 1000 H 94.6103 -2.92662 -0.523118 0
M  V30 1001 H 92.1433 -1.53631 -0.153954 0
M  V30 1002 H 94.1013 -2.78585 -3.01498 0
M  V30 1003 H 92.7623 -1.67356 -2.65802 0
M  V30 1004 H 91.9553 -4.0248 -3.03357 0
M  V30 1005 H 91.5573 -3.47199 -1.39029 0
M  V30 1006 H 93.8493 -5.72616 -3.62101 0
M  V30 1007 H 94.7923 -6.65684 -2.41393 0
M  V30 1008 H 95.2003 -4.94342 -2.72554 0
M  V30 1009 N 94.5984 0.214957 -1.56127 0
M  V30 1010 C 95.5084 1.28727 -1.96129 0
M  V30 1011 C 96.5244 1.50916 -0.866044 0
M  V30 1012 O 97.7004 1.63918 -1.17016 0
M  V30 1013 C 94.7654 2.61569 -2.27558 0
M  V30 1014 C 93.8264 2.47625 -3.50685 0
M  V30 1015 C 93.0594 3.74132 -3.80606 0
M  V30 1016 O 93.2824 4.77438 -3.12104 0
M  V30 1017 O 92.2164 3.70849 -4.74083 0
M  V30 1018 H 96.0424 0.977855 -2.87527 0
M  V30 1019 H 93.6274 0.418358 -1.43423 0
M  V30 1020 H 95.5094 3.40012 -2.48938 0
M  V30 1021 H 94.1844 2.92178 -1.39332 0
M  V30 1022 H 93.0914 1.67361 -3.34576 0
M  V30 1023 H 94.4244 2.21954 -4.39315 0
M  V30 1024 N 96.0765 1.50051 0.48192 0
M  V30 1025 C 96.9865 1.7089 1.60728 0
M  V30 1026 C 98.0025 0.591788 1.63627 0
M  V30 1027 O 99.1785 0.868817 1.81696 0
M  V30 1028 C 96.2435 1.78855 2.97005 0
M  V30 1029 C 95.3045 3.02537 3.04581 0
M  V30 1030 C 94.5375 3.10112 4.34357 0
M  V30 1031 O 94.7605 2.24765 5.24249 0
M  V30 1032 O 93.6945 4.02747 4.47301 0
M  V30 1033 H 97.5205 2.66264 1.46072 0
M  V30 1034 H 95.1055 1.34018 0.660264 0
M  V30 1035 H 96.9875 1.86336 3.77964 0
M  V30 1036 H 95.6625 0.866628 3.11883 0
M  V30 1037 H 94.5695 3.00563 2.22739 0
M  V30 1038 H 95.9025 3.94272 2.94636 0
M  V30 1039 N 97.5546 -0.734337 1.39446 0
M  V30 1040 C 98.4876 -1.85715 1.32609 0
M  V30 1041 C 99.4656 -1.6137 0.199636 0
M  V30 1042 O 100.65 -1.84626 0.380195 0
M  V30 1043 C 97.7766 -3.21709 1.05929 0
M  V30 1044 C 96.8226 -3.64913 2.20773 0
M  V30 1045 S 97.6556 -3.74203 3.83056 0
M  V30 1046 C 98.8116 -5.12986 3.58603 0
M  V30 1047 H 99.0446 -1.91232 2.27635 0
M  V30 1048 H 96.5776 -0.899263 1.25509 0
M  V30 1049 H 98.5356 -4.00236 0.912203 0
M  V30 1050 H 97.1966 -3.13848 0.125883 0
M  V30 1051 H 96.3896 -4.63606 1.97699 0
M  V30 1052 H 95.9916 -2.93593 2.31688 0
M  V30 1053 H 98.2836 -5.99339 3.15909 0
M  V30 1054 H 99.2266 -5.41088 4.5676 0
M  V30 1055 H 99.6346 -4.82694 2.9269 0
M  V30 1056 N 99.0327 -1.24633 -0.964593 0
M  V30 1057 C 99.9957 -1.0424 -2.04124 0
M  V30 1058 C 100.996 0.00137563 -1.608 0
M  V30 1059 O 102.186 -0.239883 -1.7254 0
M  V30 1060 C 99.3177 -0.580588 -3.3592 0
M  V30 1061 H 100.511 -1.99803 -2.23649 0
M  V30 1062 H 98.0637 -1.06899 -1.14027 0
M  V30 1063 H 98.7987 0.3781 -3.22088 0
M  V30 1064 H 98.5837 -1.33398 -3.6871 0
M  V30 1065 H 100.074 -0.459034 -4.15069 0
M  V30 1066 N 100.511 1.16574 -1.06058 0
M  V30 1067 C 101.739 1.90952 -0.796552 0
M  V30 1068 C 102.154 1.77302 0.648808 0
M  V30 1069 O 101.511 1.11605 1.44397 0
M  V30 1070 C 101.562 3.41736 -1.17894 0
M  V30 1071 O 101.283 3.54975 -2.56758 0
M  V30 1072 C 102.784 4.33169 -0.942308 0
M  V30 1073 H 100.004 0.605594 -0.288959 0
M  V30 1074 H 102.548 1.47777 -1.41358 0
M  V30 1075 H 100.703 3.82623 -0.606491 0
M  V30 1076 H 101.117 4.4846 -2.72 0
M  V30 1077 H 102.591 5.37439 -1.25952 0
M  V30 1078 H 103.068 4.3903 0.122078 0
M  V30 1079 H 103.674 3.98007 -1.49902 0
M  V30 1080 N 101.989 0.842826 1.3317 0
M  V30 1081 C 103.236 0.440447 1.97652 0
M  V30 1082 C 103.564 -1.00123 1.6675 0
M  V30 1083 O 102.819 -1.7155 0.941761 0
M  V30 1084 C 103.118 0.612607 3.52111 0
M  V30 1085 C 102.784 2.02297 4.02972 0
M  V30 1086 C 101.446 2.40874 4.16573 0
M  V30 1087 C 103.798 2.94402 4.30089 0
M  V30 1088 C 101.126 3.70852 4.54627 0
M  V30 1089 C 103.478 4.23865 4.69597 0
M  V30 1090 C 102.142 4.62392 4.81404 0
M  V30 1091 H 101.412 0.161171 0.72326 0
M  V30 1092 H 104.059 1.07061 1.58777 0
M  V30 1093 H 102.364 -0.100849 3.9167 0
M  V30 1094 H 104.061 0.2815 4.00011 0
M  V30 1095 H 100.651 1.71338 3.92863 0
M  V30 1096 H 104.835 2.65835 4.19101 0
M  V30 1097 H 100.091 4.00501 4.61962 0
M  V30 1098 H 104.265 4.95306 4.89536 0
M  V30 1099 H 101.892 5.63154 5.10648 0
M  V30 1100 N 103.467 -1.45747 0.599634 0
M  V30 1101 C 104.417 -2.27538 -0.145107 0
M  V30 1102 C 105.401 -1.3686 -0.846055 0
M  V30 1103 O 106.593 -1.6091 -0.737357 0
M  V30 1104 C 103.722 -3.23569 -1.14708 0
M  V30 1105 C 102.808 -4.21734 -0.447383 0
M  V30 1106 N 103.199 -5.03257 0.506535 0
M  V30 1107 C 101.497 -4.40536 -0.695966 0
M  V30 1108 C 102.198 -5.74426 0.917068 0
M  V30 1109 N 101.174 -5.42966 0.26253 0
M  V30 1110 H 104.976 -2.87965 0.587672 0
M  V30 1111 H 102.49 -1.56803 0.422697 0
M  V30 1112 H 104.487 -3.8089 -1.69495 0
M  V30 1113 H 103.147 -2.64702 -1.8805 0
M  V30 1114 H 104.158 -5.10319 0.882899 0
M  V30 1115 H 100.835 -3.92802 -1.41467 0
M  V30 1116 H 102.225 -6.4995 1.70338 0
M  V30 1117 N 104.945 -0.338344 -1.53925 0
M  V30 1118 C 106.173 0.261298 -2.05243 0
M  V30 1119 C 106.588 1.44625 -1.21363 0
M  V30 1120 O 105.945 1.80811 -0.247736 0
M  V30 1121 C 105.996 0.681412 -3.5502 0
M  V30 1122 O 105.717 -0.456414 -4.35716 0
M  V30 1123 C 107.218 1.34232 -4.22489 0
M  V30 1124 H 104.438 0.0513685 -0.669031 0
M  V30 1125 H 106.982 -0.488822 -1.98572 0
M  V30 1126 H 105.137 1.38148 -3.61931 0
M  V30 1127 H 105.551 -0.122564 -5.24357 0
M  V30 1128 H 107.025 1.58708 -5.28693 0
M  V30 1129 H 107.502 2.29426 -3.74514 0
M  V30 1130 H 108.108 0.684424 -4.19757 0
M  V30 1131 N 106.423 1.57458 -0.0668435 0
M  V30 1132 C 107.7 1.8469 0.644132 0
M  V30 1133 C 108.08 0.958343 1.88093 0
M  V30 1134 O 107.428 0.0233579 2.28488 0
M  V30 1135 C 107.638 3.34767 0.986509 0
M  V30 1136 C 108.986 4.02159 1.36212 0
M  V30 1137 O 110.01 3.39484 1.07839 0
M  V30 1138 O 108.869 5.12694 1.89227 0
M  V30 1139 H 105.963 0.762816 0.319437 0
M  V30 1140 H 108.509 1.6942 -0.0973986 0
M  V30 1141 H 107.281 3.91151 0.107883 0
M  V30 1142 H 106.904 3.55281 1.78497 0
M  V30 1143 N 107.901 -0.206675 1.56239 0
M  V30 1144 C 108.864 -1.23976 1.92776 0
M  V30 1145 C 109.864 -1.39041 0.807729 0
M  V30 1146 O 111.054 -1.37051 1.0753 0
M  V30 1147 C 108.186 -2.61112 2.19165 0
M  V30 1148 H 109.379 -0.927764 2.85189 0
M  V30 1149 H 106.932 -0.447718 1.4975 0
M  V30 1150 H 107.667 -2.97386 1.29352 0
M  V30 1151 H 107.452 -2.51552 3.00772 0
M  V30 1152 H 108.942 -3.35633 2.48476 0
M  V30 1153 N 109.379 -1.50304 -0.473955 0
M  V30 1154 C 110.609 -1.64663 -1.24778 0
M  V30 1155 C 111.017 -0.328174 -1.86332 0
M  V30 1156 O 110.36 0.699536 -1.69859 0
M  V30 1157 C 110.422 -2.6778 -2.39863 0
M  V30 1158 C 110.086 -4.11413 -1.98969 0
M  V30 1159 C 111.083 -4.97372 -1.51385 0
M  V30 1160 C 108.768 -4.57312 -2.07777 0
M  V30 1161 C 110.762 -6.27277 -1.13148 0
M  V30 1162 C 108.449 -5.87223 -1.69152 0
M  V30 1163 C 109.447 -6.72031 -1.21915 0
M  V30 1164 O 109.135 -7.99518 -0.838237 0
M  V30 1165 H 108.867 -0.556602 -0.383627 0
M  V30 1166 H 111.421 -1.9726 -0.572491 0
M  V30 1167 H 109.651 -2.30419 -3.10554 0
M  V30 1168 H 111.34 -2.71388 -3.01833 0
M  V30 1169 H 112.106 -4.63128 -1.44004 0
M  V30 1170 H 107.985 -3.91449 -2.43493 0
M  V30 1171 H 111.529 -6.93425 -0.762077 0
M  V30 1172 H 107.426 -6.20989 -1.76191 0
M  V30 1173 H 108.194 -8.12764 -0.967339 0
M  V30 1174 N 110.857 0.726932 -1.39834 0
M  V30 1175 C 111.787 1.85405 -1.41941 0
M  V30 1176 C 112.768 1.67751 -0.281728 0
M  V30 1177 O 113.953 1.8795 -0.488717 0
M  V30 1178 C 111.083 3.23243 -1.2701 0
M  V30 1179 C 110.037 3.55549 -2.38262 0
M  V30 1180 C 109.363 4.9241 -2.08415 0
M  V30 1181 C 110.663 3.577 -3.80589 0
M  V30 1182 H 112.357 1.83899 -2.36266 0
M  V30 1183 H 109.903 0.883349 -1.13723 0
M  V30 1184 H 111.856 4.01775 -1.27103 0
M  V30 1185 H 110.58 3.25296 -0.291564 0
M  V30 1186 H 109.239 2.79351 -2.37399 0
M  V30 1187 H 108.887 4.91052 -1.0898 0
M  V30 1188 H 108.587 5.14992 -2.82943 0
M  V30 1189 H 110.111 5.73289 -2.10171 0
M  V30 1190 H 111.525 4.26293 -3.83337 0
M  V30 1191 H 109.922 3.91804 -4.54543 0
M  V30 1192 H 110.992 2.57328 -4.10987 0
M  V30 1193 N 112.336 1.25143 0.95797 0
M  V30 1194 C 113.268 1.01023 2.05735 0
M  V30 1195 C 114.281 -0.0236902 1.62783 0
M  V30 1196 O 115.47 0.21448 1.77207 0
M  V30 1197 C 112.57 0.504595 3.35122 0
M  V30 1198 C 111.743 1.6039 4.06932 0
M  V30 1199 C 110.802 1.09922 5.14591 0
M  V30 1200 O 109.828 1.79293 5.40225 0
M  V30 1201 N 111.03 -0.0612545 5.80468 0
M  V30 1202 H 113.795 1.95683 2.26998 0
M  V30 1203 H 111.356 1.16303 1.12629 0
M  V30 1204 H 113.348 0.151516 4.04416 0
M  V30 1205 H 111.918 -0.347989 3.10657 0
M  V30 1206 H 111.138 2.12872 3.31782 0
M  V30 1207 H 112.426 2.34252 4.51667 0
M  V30 1208 H 111.824 -0.640985 5.62057 0
M  V30 1209 H 110.381 -0.355395 6.5083 0
M  V30 1210 N 113.814 -1.1601 1.06675 0
M  V30 1211 C 114.764 -2.18512 0.650888 0
M  V30 1212 C 115.748 -1.57677 -0.320441 0
M  V30 1213 O 116.94 -1.76482 -0.135266 0
M  V30 1214 C 114.069 -3.43273 0.0429255 0
M  V30 1215 C 113.155 -4.11176 1.03898 0
M  V30 1216 N 113.546 -4.54672 2.216 0
M  V30 1217 C 111.844 -4.37417 0.870779 0
M  V30 1218 C 112.545 -5.07248 2.84736 0
M  V30 1219 N 111.521 -5.0037 2.12441 0
M  V30 1220 H 115.323 -2.49863 1.54745 0
M  V30 1221 H 112.837 -1.32503 0.938975 0
M  V30 1222 H 114.834 -4.16006 -0.272857 0
M  V30 1223 H 113.494 -3.13408 -0.84884 0
M  V30 1224 H 114.505 -4.4828 2.59356 0
M  V30 1225 H 111.182 -4.17488 0.0313293 0
M  V30 1226 H 112.572 -5.50912 3.84636 0
M  V30 1227 N 115.292 -0.849877 -1.32721 0
M  V30 1228 C 116.222 -0.306308 -2.31482 0
M  V30 1229 C 117.203 0.591952 -1.59468 0
M  V30 1230 O 118.388 0.513199 -1.87296 0
M  V30 1231 C 115.518 0.510204 -3.43532 0
M  V30 1232 C 114.472 -0.293209 -4.26994 0
M  V30 1233 C 113.798 0.647743 -5.30762 0
M  V30 1234 C 115.098 -1.51634 -4.99804 0
M  V30 1235 H 116.792 -1.13153 -2.77195 0
M  V30 1236 H 114.338 -0.545553 -1.33266 0
M  V30 1237 H 116.291 0.900856 -4.11658 0
M  V30 1238 H 115.015 1.36874 -2.96535 0
M  V30 1239 H 113.674 -0.665555 -3.60508 0
M  V30 1240 H 113.322 1.50299 -4.8002 0
M  V30 1241 H 113.022 0.11422 -5.87489 0
M  V30 1242 H 114.546 1.03567 -6.01753 0
M  V30 1243 H 115.96 -1.19824 -5.60638 0
M  V30 1244 H 114.357 -1.98745 -5.66234 0
M  V30 1245 H 115.427 -2.28018 -4.27943 0
M  V30 1246 N 116.77 1.45427 -0.607355 0
M  V30 1247 C 117.702 2.2871 0.149752 0
M  V30 1248 C 118.715 1.39937 0.831958 0
M  V30 1249 O 119.904 1.64313 0.697385 0
M  V30 1250 C 117.004 3.15673 1.23304 0
M  V30 1251 C 116.177 4.32722 0.637996 0
M  V30 1252 C 115.236 5.00895 1.61215 0
M  V30 1253 O 114.262 5.57697 1.13854 0
M  V30 1254 N 115.464 5.00159 2.94655 0
M  V30 1255 H 118.229 2.94328 -0.564882 0
M  V30 1256 H 115.79 1.55612 -0.446823 0
M  V30 1257 H 117.782 3.58144 1.88454 0
M  V30 1258 H 116.352 2.51965 1.8502 0
M  V30 1259 H 115.572 3.93734 -0.191572 0
M  V30 1260 H 116.86 5.08321 0.220665 0
M  V30 1261 H 116.258 4.553 3.35735 0
M  V30 1262 H 114.815 5.46495 3.55228 0
M  V30 1263 N 118.248 0.346503 1.53744 0
M  V30 1264 C 119.195 -0.508914 2.25119 0
M  V30 1265 C 120.165 -1.09315 1.25058 0
M  V30 1266 O 121.35 -1.12921 1.53797 0
M  V30 1267 C 118.49 -1.65246 3.02965 0
M  V30 1268 C 117.603 -1.09525 4.17886 0
M  V30 1269 C 116.738 -2.20634 4.83212 0
M  V30 1270 C 115.777 -1.62279 5.90196 0
M  V30 1271 N 114.914 -2.67143 6.49291 0
M  V30 1272 H 119.754 0.106283 2.9781 0
M  V30 1273 H 117.291 0.0642227 1.4696 0
M  V30 1274 H 119.249 -2.32574 3.4636 0
M  V30 1275 H 117.879 -2.2386 2.32565 0
M  V30 1276 H 116.931 -0.312818 3.79112 0
M  V30 1277 H 118.243 -0.628444 4.94825 0
M  V30 1278 H 117.397 -2.95821 5.29693 0
M  V30 1279 H 116.136 -2.70659 4.05703 0
M  V30 1280 H 115.141 -0.855989 5.43096 0
M  V30 1281 H 116.366 -1.13102 6.69615 0
M  V30 1282 H 114.312 -3.16417 5.74645 0
M  V30 1283 H 114.229 -2.25093 7.21713 0
M  V30 1284 H 115.497 -3.4209 7.00425 0
M  V30 1285 N 119.726 -1.57421 0.075193 0
M  V30 1286 C 120.972 -1.93905 -0.594025 0
M  V30 1287 C 121.305 -0.955701 -1.69056 0
M  V30 1288 O 120.58 0.0145373 -1.94495 0
M  V30 1289 C 120.863 -3.40638 -1.1678 0
M  V30 1290 C 120.716 -4.49733 -0.0776792 0
M  V30 1291 C 122.035 -3.88259 -2.07228 0
M  V30 1292 H 119.154 -0.705105 -0.214466 0
M  V30 1293 H 121.796 -1.8947 0.141854 0
M  V30 1294 H 119.946 -3.44549 -1.79494 0
M  V30 1295 H 121.618 -4.57942 0.555573 0
M  V30 1296 H 119.861 -4.29751 0.591286 0
M  V30 1297 H 120.532 -5.49549 -0.519603 0
M  V30 1298 H 123.008 -3.86376 -1.54445 0
M  V30 1299 H 121.884 -4.91533 -2.44308 0
M  V30 1300 H 122.145 -3.26396 -2.98191 0
M  V30 1301 N 121.204 0.198386 -1.56346 0
M  V30 1302 C 122.429 0.939682 -1.84891 0
M  V30 1303 C 122.854 1.76202 -0.658369 0
M  V30 1304 O 122.212 1.76993 0.392851 0
M  V30 1305 C 122.26 1.81428 -3.11635 0
M  V30 1306 O 121.364 2.91265 -2.91956 0
M  V30 1307 H 120.705 0.264807 -0.608912 0
M  V30 1308 H 123.235 0.204695 -2.03573 0
M  V30 1309 H 123.245 2.21958 -3.42343 0
M  V30 1310 H 121.92 1.21004 -3.97908 0
M  V30 1311 H 120.497 2.54514 -2.72538 0
M  V30 1312 N 122.682 1.50554 0.465978 0
M  V30 1313 C 123.614 1.65949 1.58093 0
M  V30 1314 C 124.627 0.540827 1.53554 0
M  V30 1315 O 125.816 0.814187 1.5885 0
M  V30 1316 C 122.916 1.63261 2.96983 0
M  V30 1317 C 122.089 2.91245 3.26336 0
M  V30 1318 C 121.148 2.8113 4.44806 0
M  V30 1319 O 120.174 3.55086 4.44862 0
M  V30 1320 N 121.376 1.95032 5.46756 0
M  V30 1321 H 124.141 2.62122 1.45301 0
M  V30 1322 H 121.702 1.48082 0.65448 0
M  V30 1323 H 123.694 1.54101 3.74212 0
M  V30 1324 H 122.264 0.748032 3.03518 0
M  V30 1325 H 121.484 3.14493 2.37672 0
M  V30 1326 H 122.772 3.76022 3.42761 0
M  V30 1327 H 122.17 1.3427 5.49534 0
M  V30 1328 H 120.727 1.91772 6.2295 0
M  V30 1329 N 124.16 -0.719506 1.40217 0
M  V30 1330 C 125.07 -1.86378 1.42479 0
M  V30 1331 C 126.086 -1.71073 0.317834 0
M  V30 1332 O 127.262 -1.93406 0.561794 0
M  V30 1333 C 124.327 -3.22136 1.28178 0
M  V30 1334 C 123.388 -3.49723 2.48982 0
M  V30 1335 C 122.621 -4.79004 2.35353 0
M  V30 1336 O 122.844 -5.53821 1.36524 0
M  V30 1337 O 121.778 -5.06839 3.2465 0
M  V30 1338 H 125.604 -1.87425 2.38968 0
M  V30 1339 H 123.189 -0.869405 1.21498 0
M  V30 1340 H 125.071 -4.03234 1.22395 0
M  V30 1341 H 123.746 -3.21825 0.347934 0
M  V30 1342 H 122.653 -2.6865 2.60342 0
M  V30 1343 H 123.986 -3.54828 3.41113 0
M  V30 1344 N 125.638 -1.25649 -0.95132 0
M  V30 1345 C 126.886 -1.10375 -1.69298 0
M  V30 1346 C 127.207 0.355339 -1.91735 0
M  V30 1347 O 126.477 1.25188 -1.50681 0
M  V30 1348 H 125.057 -0.405461 -0.627384 0
M  V30 1349 H 127.719 -1.57823 -1.14358 0
M  V30 1350 H 126.815 -1.61465 -2.67087 0
M  V30 1351 N 127.117 1.15442 -1.07289 0
M  V30 1352 C 128.394 1.82306 -0.708792 0
M  V30 1353 C 128.774 1.94991 0.808807 0
M  V30 1354 O 128.122 1.50085 1.72298 0
M  V30 1355 C 128.332 3.18695 -1.42247 0
M  V30 1356 C 129.68 3.94341 -1.57417 0
M  V30 1357 O 130.704 3.28247 -1.38319 0
M  V30 1358 O 129.563 5.12839 -1.88834 0
M  V30 1359 H 126.657 0.787628 -0.252132 0
M  V30 1360 H 129.203 1.22559 -1.17377 0
M  V30 1361 H 127.975 3.04557 -2.45684 0
M  V30 1362 H 127.598 3.86128 -0.948223 0
M  V30 1363 N 128.595 0.856903 1.32268 0
M  V30 1364 C 129.872 0.382583 1.91822 0
M  V30 1365 C 130.252 -1.13407 1.78051 0
M  V30 1366 O 129.6 -1.95673 1.18001 0
M  V30 1367 C 129.81 0.849446 3.38505 0
M  V30 1368 C 131.158 0.867936 4.15634 0
M  V30 1369 O 132.182 0.794232 3.47232 0
M  V30 1370 O 131.041 0.972286 5.37781 0
M  V30 1371 H 128.135 0.112014 0.819379 0
M  V30 1372 H 130.681 0.943952 1.41024 0
M  V30 1373 H 129.453 1.89267 3.42482 0
M  V30 1374 H 129.076 0.265652 3.96712 0
M  V30 1375 N 130.073 -1.45103 0.615059 0
M  V30 1376 C 131.35 -1.95549 0.0448276 0
M  V30 1377 C 131.73 -1.55737 -1.4251 0
M  V30 1378 O 131.078 -0.823556 -2.13143 0
M  V30 1379 C 131.288 -3.48098 0.250785 0
M  V30 1380 C 132.636 -4.24384 0.135509 0
M  V30 1381 O 133.66 -3.55738 0.181299 0
M  V30 1382 O 132.519 -5.46493 0.0268878 0
M  V30 1383 H 129.613 -0.8264 -0.0314845 0
M  V30 1384 H 132.159 -1.55232 0.685642 0
M  V30 1385 H 130.931 -3.7007 1.27139 0
M  V30 1386 H 130.554 -3.95323 -0.424937 0
M  V30 1387 N 131.551 -0.354651 -1.53558 0
M  V30 1388 C 132.501 0.513179 -2.2215 0
M  V30 1389 C 133.485 1.05734 -1.21281 0
M  V30 1390 O 134.677 0.989202 -1.46778 0
M  V30 1391 C 131.806 1.65798 -3.00609 0
M  V30 1392 C 130.892 1.12722 -4.08845 0
M  V30 1393 N 131.283 0.318563 -5.04796 0
M  V30 1394 C 129.581 1.40307 -4.23356 0
M  V30 1395 C 130.282 0.0292224 -5.81693 0
M  V30 1396 N 129.258 0.623891 -5.40008 0
M  V30 1397 H 133.06 -0.111586 -2.93688 0
M  V30 1398 H 130.574 -0.162091 -1.61589 0
M  V30 1399 H 132.571 2.29176 -3.48258 0
M  V30 1400 H 131.231 2.28591 -2.306 0
M  V30 1401 H 132.242 -0.0413091 -5.17884 0
M  V30 1402 H 128.919 2.03458 -3.6457 0
M  V30 1403 H 130.309 -0.623808 -6.68998 0
M  V30 1404 N 133.029 1.57378 -0.0835403 0
M  V30 1405 C 134.44 1.81261 0.447358 0
M  V30 1406 C 134.791 0.998331 1.68902 0
M  V30 1407 O 133.916 0.224282 2.15235 0
M  V30 1408 C 134.511 3.28767 0.818386 0
M  V30 1409 C 133.07 3.53455 1.29409 0
M  V30 1410 C 132.217 2.75831 0.285024 0
M  V30 1411 H 135.168 1.5566 -0.309115 0
M  V30 1412 H 135.189 3.41459 1.67887 0
M  V30 1413 H 134.701 3.88006 -0.0855019 0
M  V30 1414 H 132.802 2.99534 2.21608 0
M  V30 1415 H 132.915 4.62128 1.2639 0
M  V30 1416 H 131.279 2.42947 0.764767 0
M  V30 1417 H 132.062 3.37813 -0.611341 0
M  V30 1418 N 134.507 -0.190092 1.56449 0
M  V30 1419 C 135.784 -0.935886 1.71757 0
M  V30 1420 C 136.164 -2.01173 0.639726 0
M  V30 1421 O 135.512 -2.25827 -0.348502 0
M  V30 1422 C 135.722 -1.51775 3.1427 0
M  V30 1423 C 137.07 -1.99794 3.74656 0
M  V30 1424 O 138.094 -1.61607 3.1743 0
M  V30 1425 O 136.953 -2.70079 4.751 0
M  V30 1426 H 134.047 -0.439229 0.700719 0
M  V30 1427 H 136.593 -0.179395 1.68749 0
M  V30 1428 H 135.365 -0.742505 3.84191 0
M  V30 1429 H 134.988 -2.33894 3.21527 0
M  V30 1430 N 135.985 -1.50799 -0.457987 0
M  V30 1431 C 137.21 -1.66496 -1.23668 0
M  V30 1432 C 137.635 -0.353288 -1.84752 0
M  V30 1433 O 136.993 0.684346 -1.67888 0
M  V30 1434 C 137.041 -2.76763 -2.3116 0
M  V30 1435 O 136.145 -2.38928 -3.36136 0
M  V30 1436 H 135.486 -0.555828 -0.363252 0
M  V30 1437 H 138.016 -1.9725 -0.543474 0
M  V30 1438 H 138.026 -3.00232 -2.76269 0
M  V30 1439 H 136.701 -3.71954 -1.86073 0
M  V30 1440 H 135.278 -2.25953 -2.96647 0
M  V30 1441 N 137.463 0.71206 -1.40597 0
M  V30 1442 C 138.712 1.46754 -1.38369 0
M  V30 1443 C 139.025 1.95598 0.0097839 0
M  V30 1444 O 140.231 2.71059 0.154677 0
M  V30 1445 C 138.687 2.65289 -2.43207 0
M  V30 1446 C 138.295 2.23301 -3.88382 0
M  V30 1447 C 140.039 3.43008 -2.50091 0
M  V30 1448 C 137.946 3.38696 -4.84808 0
M  V30 1449 H 136.876 0.55118 -0.514506 0
M  V30 1450 H 139.527 0.774616 -1.66349 0
M  V30 1451 H 137.909 3.36769 -2.08332 0
M  V30 1452 H 139.083 1.59218 -4.32419 0
M  V30 1453 H 137.398 1.58618 -3.85006 0
M  V30 1454 H 139.995 4.28881 -3.1932 0
M  V30 1455 H 140.338 3.87065 -1.53253 0
M  V30 1456 H 140.871 2.78574 -2.83974 0
M  V30 1457 H 137.61 2.99668 -5.82992 0
M  V30 1458 H 137.13 4.01683 -4.45433 0
M  V30 1459 H 138.809 4.04712 -5.04794 0
M  V30 1460 N 138.941 1.26152 0.944643 0
M  V30 1461 C 139.851 1.09176 2.07648 0
M  V30 1462 C 140.867 0.0261935 1.7398 0
M  V30 1463 O 142.043 0.229208 2.00091 0
M  V30 1464 C 139.108 0.722915 3.39079 0
M  V30 1465 C 138.169 1.86752 3.86552 0
M  V30 1466 C 137.402 1.51617 5.11711 0
M  V30 1467 O 137.625 0.416331 5.68879 0
M  V30 1468 O 136.559 2.34975 5.54139 0
M  V30 1469 H 140.385 2.0412 2.24875 0
M  V30 1470 H 137.97 1.05182 1.061 0
M  V30 1471 H 139.852 0.529787 4.18056 0
M  V30 1472 H 138.527 -0.197159 3.23099 0
M  V30 1473 H 137.434 2.11558 3.08535 0
M  V30 1474 H 138.767 2.76719 4.07047 0
M  V30 1475 N 140.419 -1.14872 1.07899 0
M  V30 1476 C 141.649 -1.89386 0.825631 0
M  V30 1477 C 142.057 -1.78565 -0.625406 0
M  V30 1478 O 141.4 -1.13918 -1.44113 0
M  V30 1479 C 141.462 -3.40206 1.16191 0
M  V30 1480 C 141.126 -3.74812 2.61467 0
M  V30 1481 C 142.123 -3.75367 3.59716 0
M  V30 1482 C 139.808 -4.0495 2.97189 0
M  V30 1483 C 141.802 -4.05574 4.9172 0
M  V30 1484 C 139.489 -4.34821 4.29388 0
M  V30 1485 C 140.487 -4.35116 5.26463 0
M  V30 1486 O 140.175 -4.64267 6.56286 0
M  V30 1487 H 139.907 -0.606894 0.297751 0
M  V30 1488 H 142.461 -1.46438 1.44031 0
M  V30 1489 H 140.691 -3.8358 0.490214 0
M  V30 1490 H 142.38 -3.96018 0.890193 0
M  V30 1491 H 143.146 -3.52176 3.33462 0
M  V30 1492 H 139.025 -4.03876 2.22273 0
M  V30 1493 H 142.569 -4.05719 5.67484 0
M  V30 1494 H 138.466 -4.5748 4.55392 0
M  V30 1495 H 139.234 -4.82007 6.61522 0
M  V30 1496 N 141.898 -0.863906 -1.31812 0
M  V30 1497 C 143.146 -0.470904 -1.96537 0
M  V30 1498 C 143.467 0.978771 -1.68657 0
M  V30 1499 O 142.737 1.6853 -0.998717 0
M  V30 1500 H 141.317 -0.171148 -0.72713 0
M  V30 1501 H 143.979 -1.10236 -1.60729 0
M  V30 1502 H 143.075 -0.623616 -3.05806 0
M  V30 1503 N 143.376 1.44774 -0.622745 0
M  V30 1504 C 144.306 2.33382 0.0741861 0
M  V30 1505 C 145.287 1.47719 0.843387 0
M  V30 1506 O 146.472 1.76458 0.810934 0
M  V30 1507 C 143.602 3.30663 1.06204 0
M  V30 1508 C 142.556 4.26079 0.405037 0
M  V30 1509 C 141.882 5.13165 1.5022 0
M  V30 1510 C 143.182 5.1781 -0.683414 0
M  V30 1511 H 144.876 2.91905 -0.665713 0
M  V30 1512 H 142.422 1.40363 -0.321587 0
M  V30 1513 H 144.375 3.9153 1.55827 0
M  V30 1514 H 143.099 2.70331 1.83272 0
M  V30 1515 H 141.758 3.66532 -0.0704683 0
M  V30 1516 H 141.406 4.49191 2.26355 0
M  V30 1517 H 141.106 5.77812 1.06803 0
M  V30 1518 H 142.63 5.76902 2.00041 0
M  V30 1519 H 144.044 5.72661 -0.270631 0
M  V30 1520 H 142.441 5.91015 -1.04023 0
M  V30 1521 H 143.511 4.59326 -1.55395 0
M  V30 1522 N 144.854 0.36279 1.53368 0
M  V30 1523 C 146.102 -0.227326 2.00817 0
M  V30 1524 C 146.423 -1.49511 1.25186 0
M  V30 1525 O 145.693 -1.92482 0.364348 0
M  V30 1526 H 144.273 -0.0869923 0.741917 0
M  V30 1527 H 146.935 0.488381 1.88682 0
M  V30 1528 H 146.031 -0.456273 3.08747 0
M  V30 1529 N 146.332 -1.57332 0.0918853 0
M  V30 1530 C 147.562 -1.98286 -0.580205 0
M  V30 1531 C 147.97 -0.969713 -1.6246 0
M  V30 1532 O 147.313 0.0493501 -1.83634 0
M  V30 1533 C 147.375 -3.35603 -1.28882 0
M  V30 1534 C 147.039 -4.55285 -0.395559 0
M  V30 1535 C 148.036 -5.18687 0.355002 0
M  V30 1536 C 145.721 -5.01314 -0.314556 0
M  V30 1537 C 147.715 -6.26484 1.17458 0
M  V30 1538 C 145.402 -6.08979 0.508677 0
M  V30 1539 C 146.4 -6.71429 1.2519 0
M  V30 1540 O 146.088 -7.77018 2.06151 0
M  V30 1541 H 145.82 -0.656678 -0.160466 0
M  V30 1542 H 148.374 -2.04721 0.16688 0
M  V30 1543 H 146.604 -3.25842 -2.08241 0
M  V30 1544 H 148.293 -3.61026 -1.85512 0
M  V30 1545 H 149.059 -4.84058 0.302134 0
M  V30 1546 H 144.938 -4.5247 -0.882697 0
M  V30 1547 H 148.482 -6.75159 1.75518 0
M  V30 1548 H 144.379 -6.4304 0.563037 0
M  V30 1549 H 145.147 -7.93991 1.98799 0
M  V30 1550 N 147.81 0.181792 -1.56548 0
M  V30 1551 C 149.087 0.926765 -1.72251 0
M  V30 1552 C 149.467 2.00831 -0.650386 0
M  V30 1553 O 148.815 2.26008 0.336521 0
M  V30 1554 C 149.025 1.50106 -3.1507 0
M  V30 1555 C 150.373 1.97805 -3.75711 0
M  V30 1556 O 151.397 1.59922 -3.18282 0
M  V30 1557 O 150.256 2.67555 -4.76525 0
M  V30 1558 H 147.35 0.435506 -0.703039 0
M  V30 1559 H 149.896 0.170443 -1.68842 0
M  V30 1560 H 148.668 0.72212 -3.84579 0
M  V30 1561 H 148.291 2.32186 -3.22763 0
M  V30 1562 N 149.288 1.51039 0.449983 0
M  V30 1563 C 150.528 1.64732 1.21007 0
M  V30 1564 C 150.892 0.349865 1.88785 0
M  V30 1565 O 152.093 0.362431 2.66345 0
M  V30 1566 C 150.364 2.80902 2.20973 0
M  V30 1567 S 151.923 3.14851 3.05638 0
M  V30 1568 H 148.741 0.5805 0.410538 0
M  V30 1569 H 151.343 1.88901 0.503634 0
M  V30 1570 H 150.047 3.73627 1.69796 0
M  V30 1571 H 149.578 2.58882 2.96215 0
M  V30 1572 H 151.593 2.60306 4.22439 0
M  V30 1573 N 150.766 -0.704594 1.40972 0
M  V30 1574 C 152.177 -1.28418 1.3552 0
M  V30 1575 C 152.528 -1.96171 0.0339434 0
M  V30 1576 O 151.653 -1.98231 -0.867944 0
M  V30 1577 C 152.248 -2.33528 2.45459 0
M  V30 1578 C 150.807 -2.87085 2.43433 0
M  V30 1579 C 149.954 -1.61007 2.2577 0
M  V30 1580 H 152.905 -0.499963 1.50619 0
M  V30 1581 H 152.926 -3.14619 2.13998 0
M  V30 1582 H 152.438 -1.84187 3.41609 0
M  V30 1583 H 150.539 -3.40626 1.51013 0
M  V30 1584 H 150.652 -3.3813 3.39419 0
M  V30 1585 H 149.016 -1.86482 1.73483 0
M  V30 1586 H 149.799 -1.13675 3.23933 0
M  V30 1587 N 152.244 -1.26651 -0.937939 0
M  V30 1588 C 153.207 -1.08546 -2.01867 0
M  V30 1589 C 154.207 -0.0327327 -1.60767 0
M  V30 1590 O 155.397 -0.276427 -1.71993 0
M  V30 1591 C 152.529 -0.651711 -3.34613 0
M  V30 1592 H 153.722 -2.04502 -2.1936 0
M  V30 1593 H 151.275 -1.09294 -1.11734 0
M  V30 1594 H 152.01 0.309696 -3.22818 0
M  V30 1595 H 151.795 -1.41189 -3.65798 0
M  V30 1596 H 153.285 -0.546973 -4.14002 0
M  V30 1597 N 153.722 1.14298 -1.08507 0
M  V30 1598 C 154.95 1.89219 -0.836876 0
M  V30 1599 C 155.365 1.78638 0.611054 0
M  V30 1600 O 154.722 1.14643 1.41998 0
M  V30 1601 C 154.773 3.39158 -1.25116 0
M  V30 1602 O 154.494 3.49449 -2.64229 0
M  V30 1603 C 155.995 4.31073 -1.03398 0
M  V30 1604 H 153.215 0.599328 -0.301739 0
M  V30 1605 H 155.759 1.44746 -1.44461 0
M  V30 1606 H 153.914 3.81251 -0.687514 0
M  V30 1607 H 154.328 4.42589 -2.81452 0
M  V30 1608 H 155.802 5.34646 -1.37323 0
M  V30 1609 H 156.279 4.3919 0.0289259 0
M  V30 1610 H 156.885 3.94738 -1.58311 0
M  V30 1611 N 155.201 0.870884 1.31352 0
M  V30 1612 C 156.111 0.330783 2.32256 0
M  V30 1613 C 157.127 -0.559767 1.6475 0
M  V30 1614 O 158.303 -0.456263 1.96164 0
M  V30 1615 C 155.368 -0.458137 3.4366 0
M  V30 1616 C 154.429 0.460482 4.26823 0
M  V30 1617 C 153.662 -0.290881 5.32907 0
M  V30 1618 O 153.885 -1.51885 5.49806 0
M  V30 1619 O 152.819 0.351732 6.00871 0
M  V30 1620 H 156.645 1.16718 2.80376 0
M  V30 1621 H 154.23 0.634285 1.35267 0
M  V30 1622 H 156.112 -0.905343 4.1156 0
M  V30 1623 H 154.787 -1.27106 2.97701 0
M  V30 1624 H 153.694 0.956207 3.61673 0
M  V30 1625 H 155.027 1.23903 4.7635 0
M  V30 1626 N 156.679 -1.44442 0.630414 0
M  V30 1627 C 157.927 -2.01653 0.134351 0
M  V30 1628 C 158.248 -1.49836 -1.24796 0
M  V30 1629 O 157.518 -0.701684 -1.82902 0
M  V30 1630 H 156.098 -0.74554 0.0466769 0
M  V30 1631 H 158.76 -1.76952 0.816955 0
M  V30 1632 H 157.856 -3.11935 0.101498 0
M  V30 1633 N 158.157 -0.370918 -1.53173 0
M  V30 1634 C 159.406 0.218249 -2.00516 0
M  V30 1635 C 159.719 1.49429 -1.26215 0
M  V30 1636 O 160.925 2.16239 -1.64174 0
M  V30 1637 C 159.381 0.43948 -3.57207 0
M  V30 1638 C 158.989 -0.822244 -4.4039 0
M  V30 1639 C 160.733 0.986012 -4.1289 0
M  V30 1640 C 158.64 -0.570304 -5.88644 0
M  V30 1641 H 157.57 0.0853333 -0.749156 0
M  V30 1642 H 160.221 -0.490483 -1.76823 0
M  V30 1643 H 158.603 1.20961 -3.77074 0
M  V30 1644 H 159.777 -1.59557 -4.32294 0
M  V30 1645 H 158.092 -1.29238 -3.95836 0
M  V30 1646 H 160.689 1.18991 -5.21292 0
M  V30 1647 H 161.032 1.94972 -3.6782 0
M  V30 1648 H 161.565 0.27592 -3.96842 0
M  V30 1649 H 158.304 -1.50449 -6.38001 0
M  V30 1650 H 157.824 0.164427 -5.99575 0
M  V30 1651 H 159.503 -0.19784 -6.46697 0
M  V30 1652 N 159.635 1.57281 -0.100228 0
M  V30 1653 C 160.882 1.94537 0.562268 0
M  V30 1654 C 161.21 0.982315 1.67871 0
M  V30 1655 O 160.465 0.00280936 1.957 0
M  V30 1656 C 160.764 3.38305 1.15259 0
M  V30 1657 C 160.43 4.50618 0.159409 0
M  V30 1658 C 159.092 4.81066 -0.113741 0
M  V30 1659 C 161.444 5.18615 -0.518461 0
M  V30 1660 C 158.772 5.76835 -1.07137 0
M  V30 1661 C 161.124 6.15412 -1.46459 0
M  V30 1662 C 159.788 6.44262 -1.74592 0
M  V30 1663 H 159.058 0.711863 0.205748 0
M  V30 1664 H 161.705 1.90679 -0.17715 0
M  V30 1665 H 160.01 3.38766 1.96836 0
M  V30 1666 H 161.707 3.64435 1.67297 0
M  V30 1667 H 158.297 4.2689 0.382491 0
M  V30 1668 H 162.481 4.95264 -0.320581 0
M  V30 1669 H 157.737 5.975 -1.29628 0
M  V30 1670 H 161.911 6.67194 -1.99564 0
M  V30 1671 H 159.538 7.1828 -2.48953 0
M  V30 1672 N 161.113 -0.173488 1.56642 0
M  V30 1673 C 162.39 -0.917617 1.7274 0
M  V30 1674 C 162.77 -2.00484 0.661027 0
M  V30 1675 O 162.118 -2.26184 -0.32453 0
M  V30 1676 C 162.328 -1.48433 3.15862 0
M  V30 1677 C 163.676 -1.95809 3.76754 0
M  V30 1678 O 164.7 -1.58231 3.19126 0
M  V30 1679 O 163.559 -2.65024 4.77938 0
M  V30 1680 H 160.653 -0.431772 0.705338 0
M  V30 1681 H 163.199 -0.161487 1.6893 0
M  V30 1682 H 161.971 -0.701715 3.84957 0
M  V30 1683 H 161.594 -2.30471 3.23989 0
M  V30 1684 N 162.591 -1.51276 -0.441967 0
M  V30 1685 C 163.821 -1.67273 -1.21257 0
M  V30 1686 C 164.229 -0.367624 -1.85594 0
M  V30 1687 O 163.572 0.663349 -1.71305 0
M  V30 1688 C 163.634 -2.72807 -2.34129 0
M  V30 1689 C 163.298 -4.1554 -1.90198 0
M  V30 1690 C 164.295 -5.00471 -1.40801 0
M  V30 1691 C 161.98 -4.61616 -1.9803 0
M  V30 1692 C 163.974 -6.29536 -0.998174 0
M  V30 1693 C 161.661 -5.90679 -1.56658 0
M  V30 1694 C 162.659 -6.74466 -1.07633 0
M  V30 1695 O 162.347 -8.01116 -0.668459 0
M  V30 1696 H 162.079 -0.564614 -0.371734 0
M  V30 1697 H 164.633 -1.9843 -0.530521 0
M  V30 1698 H 162.863 -2.36954 -3.05597 0
M  V30 1699 H 164.552 -2.77729 -2.96009 0
M  V30 1700 H 165.318 -4.66079 -1.34148 0
M  V30 1701 H 161.197 -3.96526 -2.35135 0
M  V30 1702 H 164.741 -6.94885 -0.61482 0
M  V30 1703 H 160.638 -6.24586 -1.62979 0
M  V30 1704 H 161.406 -8.14633 -0.794722 0
M  V30 1705 N 164.069 0.697108 -1.41344 0
M  V30 1706 C 165.032 1.79281 -1.42797 0
M  V30 1707 C 166.032 1.57607 -0.318837 0
M  V30 1708 O 167.222 1.64309 -0.578642 0
M  V30 1709 C 164.354 3.17632 -1.23785 0
M  V30 1710 H 165.547 1.79385 -2.40335 0
M  V30 1711 H 163.1 0.904582 -1.27464 0
M  V30 1712 H 163.835 3.23167 -0.270814 0
M  V30 1713 H 163.62 3.34765 -2.04144 0
M  V30 1714 H 165.11 3.97617 -1.27633 0
M  V30 1715 N 165.547 1.27147 0.931209 0
M  V30 1716 C 166.51 1.09615 2.01289 0
M  V30 1717 C 167.51 0.0412581 1.60747 0
M  V30 1718 O 168.7 0.285545 1.71844 0
M  V30 1719 C 165.832 0.669447 3.34262 0
M  V30 1720 H 167.025 2.05662 2.18273 0
M  V30 1721 H 164.578 1.09885 1.11153 0
M  V30 1722 H 165.313 -0.292572 3.22978 0
M  V30 1723 H 165.098 1.43127 3.65044 0
M  V30 1724 H 166.588 0.568921 4.13706 0
M  V30 1725 N 167.025 -1.13721 1.09112 0
M  V30 1726 C 167.988 -2.17222 0.731241 0
M  V30 1727 C 168.988 -1.59035 -0.237566 0
M  V30 1728 O 170.178 -1.74192 -0.0161704 0
M  V30 1729 C 167.31 -3.40804 0.0808443 0
M  V30 1730 H 168.503 -2.50573 1.64783 0
M  V30 1731 H 166.056 -1.28493 0.889897 0
M  V30 1732 H 166.791 -3.1304 -0.847127 0
M  V30 1733 H 166.576 -3.84306 0.777896 0
M  V30 1734 H 168.066 -4.1731 -0.155657 0
M  V30 1735 N 168.503 -0.877838 -1.30888 0
M  V30 1736 C 169.752 -0.488793 -1.95688 0
M  V30 1737 C 170.065 0.965485 -1.70111 0
M  V30 1738 O 171.271 1.46104 -2.28836 0
M  V30 1739 C 169.727 -0.823201 -3.50359 0
M  V30 1740 C 169.335 -2.29477 -3.84765 0
M  V30 1741 C 171.079 -0.503009 -4.21509 0
M  V30 1742 C 168.986 -2.57118 -5.32583 0
M  V30 1743 H 167.916 -0.179062 -0.732429 0
M  V30 1744 H 170.567 -1.07183 -1.48943 0
M  V30 1745 H 168.949 -0.169331 -3.95638 0
M  V30 1746 H 170.123 -2.99236 -3.5042 0
M  V30 1747 H 168.438 -2.58178 -3.267 0
M  V30 1748 H 171.035 -0.68665 -5.30273 0
M  V30 1749 H 171.378 0.557109 -4.12555 0
M  V30 1750 H 171.911 -1.11376 -3.8189 0
M  V30 1751 H 168.65 -3.61843 -5.4658 0
M  V30 1752 H 168.17 -1.91961 -5.68253 0
M  V30 1753 H 169.849 -2.42251 -5.99936 0
M  V30 1754 N 169.982 1.44106 -0.638065 0
M  V30 1755 C 171.23 2.01579 -0.145043 0
M  V30 1756 C 171.551 1.50496 1.24 0
M  V30 1757 O 170.821 0.711374 1.82527 0
M  V30 1758 H 169.401 0.745282 -0.05063 0
M  V30 1759 H 172.063 1.76516 -0.826327 0
M  V30 1760 H 171.159 3.11877 -0.118039 0
M  V30 1761 N 171.46 0.379036 1.52974 0
M  V30 1762 C 172.708 -0.206014 2.01047 0
M  V30 1763 C 173.029 -1.48175 1.26765 0
M  V30 1764 O 172.299 -1.92085 0.384743 0
M  V30 1765 H 170.879 -0.0791184 0.742798 0
M  V30 1766 H 173.541 0.508366 1.88153 0
M  V30 1767 H 172.637 -0.423501 3.09213 0
M  V30 1768 N 172.938 -1.57226 0.108567 0
M  V30 1769 C 173.901 -2.13602 -0.831082 0
M  V30 1770 C 174.901 -1.06841 -1.20173 0
M  V30 1771 O 176.091 -1.32666 -1.12895 0
M  V30 1772 C 173.223 -2.66769 -2.12243 0
M  V30 1773 H 174.416 -2.97951 -0.341317 0
M  V30 1774 H 171.969 -1.55667 -0.14057 0
M  V30 1775 H 172.704 -1.85977 -2.65675 0
M  V30 1776 H 172.489 -3.44839 -1.86625 0
M  V30 1777 H 173.979 -3.10332 -2.79435 0
M  V30 1778 N 174.416 0.165178 -1.56732 0
M  V30 1779 C 175.644 0.896218 -1.86482 0
M  V30 1780 C 176.059 1.75555 -0.694675 0
M  V30 1781 O 175.416 1.79379 0.33607 0
M  V30 1782 C 175.467 1.76792 -3.1532 0
M  V30 1783 O 175.188 0.943239 -4.27825 0
M  V30 1784 C 176.689 2.6081 -3.58459 0
M  V30 1785 H 173.909 0.260064 -0.618553 0
M  V30 1786 H 176.453 0.163428 -2.03846 0
M  V30 1787 H 174.608 2.45398 -2.99764 0
M  V30 1788 H 175.022 1.53998 -5.01383 0
M  V30 1789 H 176.496 3.17579 -4.51495 0
M  V30 1790 H 176.973 3.35977 -2.82872 0
M  V30 1791 H 177.579 1.97526 -3.76648 0
M  V30 1792 N 175.894 1.51508 0.433938 0
M  V30 1793 C 177.143 1.63578 1.18005 0
M  V30 1794 C 177.456 0.359514 1.92268 0
M  V30 1795 O 178.662 0.359632 2.69108 0
M  V30 1796 C 177.118 2.88901 2.14626 0
M  V30 1797 C 176.726 4.23544 1.45995 0
M  V30 1798 C 178.47 3.10328 2.89649 0
M  V30 1799 C 176.377 5.40014 2.4112 0
M  V30 1800 H 175.307 0.609277 0.444182 0
M  V30 1801 H 177.958 1.77978 0.446773 0
M  V30 1802 H 176.34 2.68142 2.91403 0
M  V30 1803 H 177.514 4.54696 0.747532 0
M  V30 1804 H 175.829 4.08021 0.831115 0
M  V30 1805 H 178.426 3.94518 3.60915 0
M  V30 1806 H 178.769 2.23544 3.51189 0
M  V30 1807 H 179.302 3.31443 2.19978 0
M  V30 1808 H 176.041 6.29068 1.84264 0
M  V30 1809 H 175.561 5.13233 3.10406 0
M  V30 1810 H 177.24 5.72099 3.02177 0
M  V30 1811 N 177.372 -0.689602 1.41712 0
M  V30 1812 C 178.6 -1.47827 1.44758 0
M  V30 1813 C 179.015 -1.88721 0.0545703 0
M  V30 1814 O 178.372 -1.57176 -0.927463 0
M  V30 1815 C 178.423 -2.73698 2.3616 0
M  V30 1816 O 178.144 -2.34524 3.7004 0
M  V30 1817 C 179.645 -3.67389 2.48072 0
M  V30 1818 H 176.865 -0.455357 0.49284 0
M  V30 1819 H 179.409 -0.848574 1.86063 0
M  V30 1820 H 177.564 -3.32891 1.98148 0
M  V30 1821 H 177.978 -3.15701 4.18847 0
M  V30 1822 H 179.452 -4.52475 3.16181 0
M  V30 1823 H 179.929 -4.12284 1.51388 0
M  V30 1824 H 180.535 -3.14097 2.86746 0
M  V30 1825 N 178.85 -1.27639 -0.924453 0
M  V30 1826 C 179.813 -1.10681 -2.00705 0
M  V30 1827 C 180.813 -0.0497823 -1.60723 0
M  V30 1828 O 182.003 -0.294654 -1.7169 0
M  V30 1829 C 179.135 -0.687164 -3.33902 0
M  V30 1830 H 180.328 -2.06817 -2.17179 0
M  V30 1831 H 177.881 -1.10473 -1.10569 0
M  V30 1832 H 178.616 0.275439 -3.23128 0
M  V30 1833 H 178.401 -1.45061 -3.6428 0
M  V30 1834 H 179.891 -0.590853 -4.13399 0
M  V30 1835 N 180.328 1.1314 -1.09713 0
M  V30 1836 C 181.291 2.16831 -0.742751 0
M  V30 1837 C 182.291 1.59159 0.229129 0
M  V30 1838 O 183.481 1.74199 0.00693237 0
M  V30 1839 C 180.613 3.40756 -0.0989168 0
M  V30 1840 H 181.806 2.49695 -1.66109 0
M  V30 1841 H 179.359 1.2802 -0.896699 0
M  V30 1842 H 180.094 3.13485 0.830514 0
M  V30 1843 H 179.879 3.83888 -0.798265 0
M  V30 1844 H 181.369 4.17386 0.133524 0
M  V30 1845 N 181.806 0.884767 1.30421 0
M  V30 1846 C 182.738 0.308655 2.27112 0
M  V30 1847 C 183.751 -0.536655 1.53701 0
M  V30 1848 O 184.94 -0.35624 1.74909 0
M  V30 1849 C 182.04 -0.579782 3.33904 0
M  V30 1850 C 181.213 0.236417 4.36761 0
M  V30 1851 C 180.272 -0.582482 5.22966 0
M  V30 1852 O 179.298 -0.00525502 5.692 0
M  V30 1853 N 180.5 -1.89163 5.48815 0
M  V30 1854 H 183.265 1.13964 2.77186 0
M  V30 1855 H 180.826 0.747731 1.43599 0
M  V30 1856 H 182.818 -1.13366 3.88497 0
M  V30 1857 H 181.388 -1.31144 2.83761 0
M  V30 1858 H 180.608 0.97174 3.82035 0
M  V30 1859 H 181.896 0.795924 5.02536 0
M  V30 1860 H 181.294 -2.38352 5.13035 0
M  V30 1861 H 179.851 -2.39296 6.06284 0
M  V30 1862 N 183.284 -1.43765 0.645699 0
M  V30 1863 C 184.524 -2.03776 0.159542 0
M  V30 1864 C 184.888 -1.49792 -1.2011 0
M  V30 1865 O 186.089 -2.01398 -1.78023 0
M  V30 1866 C 184.36 -3.57036 0.161251 0
M  V30 1867 S 185.919 -4.3804 -0.258159 0
M  V30 1868 H 182.737 -0.707717 0.0682454 0
M  V30 1869 H 185.339 -1.75941 0.852352 0
M  V30 1870 H 184.043 -3.9383 1.15439 0
M  V30 1871 H 183.574 -3.89503 -0.552339 0
M  V30 1872 H 185.589 -4.7302 -1.49889 0
M  V30 1873 N 184.763 -0.387143 -1.52771 0
M  V30 1874 C 185.693 0.440551 -2.29306 0
M  V30 1875 C 186.674 1.06535 -1.32606 0
M  V30 1876 O 187.859 1.07853 -1.61497 0
M  V30 1877 C 184.989 1.56919 -3.09829 0
M  V30 1878 C 183.943 1.07054 -4.14395 0
M  V30 1879 C 183.269 2.29109 -4.83129 0
M  V30 1880 C 184.569 0.140015 -5.22112 0
M  V30 1881 H 186.263 -0.198026 -2.98744 0
M  V30 1882 H 183.809 -0.09668 -1.43675 0
M  V30 1883 H 185.762 2.15503 -3.62128 0
M  V30 1884 H 184.486 2.23532 -2.3812 0
M  V30 1885 H 183.145 0.507247 -3.63074 0
M  V30 1886 H 182.793 2.94227 -4.0797 0
M  V30 1887 H 182.493 1.96406 -5.53804 0
M  V30 1888 H 184.017 2.88339 -5.38231 0
M  V30 1889 H 185.431 0.633978 -5.69784 0
M  V30 1890 H 183.828 -0.0971485 -6.00021 0
M  V30 1891 H 184.898 -0.811711 -4.78058 0
M  V30 1892 N 186.241 1.57166 -0.116904 0
M  V30 1893 C 187.49 1.94298 0.541407 0
M  V30 1894 C 187.803 1.00236 1.67964 0
M  V30 1895 O 189.009 1.26826 2.40057 0
M  V30 1896 C 187.465 3.45306 1.01449 0
M  V30 1897 C 187.073 4.47899 -0.0951738 0
M  V30 1898 C 188.817 3.91361 1.6443 0
M  V30 1899 C 186.724 5.90083 0.394491 0
M  V30 1900 H 185.654 0.725308 0.206019 0
M  V30 1901 H 188.305 1.82446 -0.196419 0
M  V30 1902 H 186.687 3.52385 1.80667 0
M  V30 1903 H 187.861 4.52486 -0.871374 0
M  V30 1904 H 186.176 4.11583 -0.631505 0
M  V30 1905 H 188.773 4.95004 2.02176 0
M  V30 1906 H 189.116 3.3122 2.52189 0
M  V30 1907 H 189.649 3.87073 0.917559 0
M  V30 1908 H 186.388 6.53974 -0.447004 0
M  V30 1909 H 185.908 5.88921 1.13722 0
M  V30 1910 H 187.587 6.41307 0.856399 0
M  V30 1911 N 187.719 -0.156864 1.56817 0
M  V30 1912 C 188.996 -0.899244 1.73704 0
M  V30 1913 C 189.376 -1.99771 0.682254 0
M  V30 1914 O 188.724 -2.26515 -0.300522 0
M  V30 1915 C 188.934 -1.45075 3.17418 0
M  V30 1916 C 190.282 -1.91802 3.7881 0
M  V30 1917 O 191.306 -1.54838 3.20786 0
M  V30 1918 O 190.165 -2.5994 4.80722 0
M  V30 1919 H 187.259 -0.424267 0.709878 0
M  V30 1920 H 189.805 -0.143561 1.69092 0
M  V30 1921 H 188.577 -0.660846 3.85679 0
M  V30 1922 H 188.2 -2.27021 3.26416 0
M  V30 1923 N 189.197 -1.51736 -0.425897 0
M  V30 1924 C 190.445 -1.64644 -1.17204 0
M  V30 1925 C 190.766 -0.370486 -1.91448 0
M  V30 1926 O 190.036 0.614088 -1.86026 0
M  V30 1927 H 188.616 -0.606819 -0.435638 0
M  V30 1928 H 191.278 -1.88713 -0.487177 0
M  V30 1929 H 190.374 -2.47958 -1.89534 0
M  V30 1930 N 190.675 0.682077 -1.42076 0
M  V30 1931 C 191.608 1.80666 -1.3941 0
M  V30 1932 C 192.586 1.60518 -0.25939 0
M  V30 1933 O 193.77 1.83088 -0.448456 0
M  V30 1934 C 190.897 3.17556 -1.17796 0
M  V30 1935 C 189.943 3.56468 -2.34164 0
M  V30 1936 S 190.776 3.59729 -3.96681 0
M  V30 1937 C 191.932 4.99323 -3.77395 0
M  V30 1938 H 192.165 1.82652 -2.34575 0
M  V30 1939 H 189.698 0.852062 -1.2876 0
M  V30 1940 H 191.656 3.96575 -1.06012 0
M  V30 1941 H 190.317 3.13164 -0.242279 0
M  V30 1942 H 189.51 4.5595 -2.1477 0
M  V30 1943 H 189.112 2.84792 -2.42425 0
M  V30 1944 H 191.404 5.87202 -3.37935 0
M  V30 1945 H 192.347 5.23763 -4.76527 0
M  V30 1946 H 192.755 4.71498 -3.10403 0
M  V30 1947 N 192.153 1.28127 0.917671 0
M  V30 1948 C 193.393 1.163 1.68088 0
M  V30 1949 C 193.757 -0.284515 1.8988 0
M  V30 1950 O 194.958 -0.525413 2.63615 0
M  V30 1951 C 193.229 1.93546 3.00457 0
M  V30 1952 S 194.788 1.98048 3.91564 0
M  V30 1953 H 191.606 0.415005 0.577315 0
M  V30 1954 H 194.208 1.62173 1.09179 0
M  V30 1955 H 192.912 2.97888 2.82295 0
M  V30 1956 H 192.443 1.48207 3.64415 0
M  V30 1957 H 194.458 1.08415 4.84211 0
M  V30 1958 N 193.631 -1.12557 1.10312 0
M  V30 1959 C 194.578 -2.18247 0.750781 0
M  V30 1960 C 195.548 -1.63853 -0.272293 0
M  V30 1961 O 196.733 -1.90195 -0.151862 0
M  V30 1962 C 193.873 -3.44591 0.187379 0
M  V30 1963 C 192.986 -4.13046 1.2656 0
M  V30 1964 C 192.121 -5.27034 0.663978 0
M  V30 1965 C 191.16 -5.87353 1.72287 0
M  V30 1966 N 190.297 -6.92757 1.1416 0
M  V30 1967 H 195.137 -2.47732 1.65628 0
M  V30 1968 H 192.674 -1.21629 0.827337 0
M  V30 1969 H 194.632 -4.16904 -0.157148 0
M  V30 1970 H 193.262 -3.15527 -0.681355 0
M  V30 1971 H 192.314 -3.38924 1.72727 0
M  V30 1972 H 193.626 -4.53947 2.06721 0
M  V30 1973 H 192.78 -6.06104 0.268824 0
M  V30 1974 H 191.519 -4.87407 -0.169082 0
M  V30 1975 H 190.524 -5.06971 2.12746 0
M  V30 1976 H 191.749 -6.29051 2.55875 0
M  V30 1977 H 189.695 -6.5517 0.329984 0
M  V30 1978 H 189.612 -7.3225 1.88007 0
M  V30 1979 H 190.88 -7.75658 0.772956 0
M  V30 1980 N 195.109 -0.891671 -1.2995 0
M  V30 1981 C 196.355 -0.514261 -1.96171 0
M  V30 1982 C 196.688 0.935506 -1.70182 0
M  V30 1983 O 195.963 1.66204 -1.01028 0
M  V30 1984 C 196.246 -0.797719 -3.51153 0
M  V30 1985 C 196.099 -2.2986 -3.86632 0
M  V30 1986 C 197.418 -0.278749 -4.39216 0
M  V30 1987 H 194.537 -0.188314 -0.712535 0
M  V30 1988 H 197.179 -1.11689 -1.53706 0
M  V30 1989 H 195.329 -0.284826 -3.87455 0
M  V30 1990 H 197.001 -2.88042 -3.60319 0
M  V30 1991 H 195.244 -2.76257 -3.34462 0
M  V30 1992 H 195.915 -2.44753 -4.94773 0
M  V30 1993 H 198.391 -0.717825 -4.09862 0
M  V30 1994 H 197.267 -0.506353 -5.46559 0
M  V30 1995 H 197.528 0.820266 -4.34424 0
M  V30 1996 N 196.587 1.43421 -0.653314 0
M  V30 1997 C 197.55 2.29182 0.0287951 0
M  V30 1998 C 198.55 1.42213 0.750465 0
M  V30 1999 O 199.74 1.63843 0.591701 0
M  V30 2000 C 196.872 3.24278 1.05151 0
M  V30 2001 H 198.065 2.90985 -0.725786 0
M  V30 2002 H 195.618 1.50702 -0.414545 0
M  V30 2003 H 196.353 2.6737 1.83532 0
M  V30 2004 H 196.138 3.88396 0.537687 0
M  V30 2005 H 197.628 3.88647 1.52786 0
M  V30 2006 N 198.065 0.39524 1.52563 0
M  V30 2007 C 199.314 -0.186321 2.00838 0
M  V30 2008 C 199.627 -1.47402 1.28577 0
M  V30 2009 O 200.833 -2.13599 1.67593 0
M  V30 2010 C 199.289 -0.382595 3.57861 0
M  V30 2011 C 198.897 0.892202 4.39026 0
M  V30 2012 C 200.641 -0.9202 4.14406 0
M  V30 2013 C 198.548 0.66388 5.87662 0
M  V30 2014 H 197.478 -0.0734041 0.750418 0
M  V30 2015 H 200.129 0.518552 1.76021 0
M  V30 2016 H 198.511 -1.14946 3.7895 0
M  V30 2017 H 199.685 1.66414 4.29701 0
M  V30 2018 H 198 1.35519 3.9373 0
M  V30 2019 H 200.597 -1.10683 5.23119 0
M  V30 2020 H 200.94 -1.89096 3.70875 0
M  V30 2021 H 201.473 -0.212751 3.97231 0
M  V30 2022 H 198.212 1.6058 6.35527 0
M  V30 2023 H 197.732 -0.0690193 5.9976 0
M  V30 2024 H 199.411 0.300699 6.46301 0
M  V30 2025 N 199.544 -1.57102 0.125237 0
M  V30 2026 C 200.492 -2.16905 -0.839927 0
M  V30 2027 C 201.486 -1.11998 -1.27094 0
M  V30 2028 O 202.692 -1.3029 -1.24195 0
M  V30 2029 H 199.067 -0.694252 -0.288995 0
M  V30 2030 H 201.038 -2.96774 -0.311115 0
M  V30 2031 C 199.787 -2.78795 -2.07771 0
M  V30 2032 H 199.11 -3.59221 -1.755 0
M  V30 2033 H 200.55 -3.2417 -2.73295 0
M  V30 2034 C 199.009 -1.76193 -2.87155 0
M  V30 2035 O 199.539 -1.21909 -3.82755 0
M  V30 2036 N 197.745 -1.45991 -2.51267 0
M  V30 2037 H 197.292 -1.90325 -1.73592 0
M  V30 2038 H 197.25 -0.775844 -3.04677 0
M  V30 2039 N 201.022 0.148545 -1.56898 0
M  V30 2040 C 202.268 0.857877 -1.84424 0
M  V30 2041 C 202.623 1.7886 -0.709006 0
M  V30 2042 O 201.916 1.89344 0.293139 0
M  V30 2043 C 202.11 1.67064 -3.1595 0
M  V30 2044 C 201.939 0.82011 -4.42159 0
M  V30 2045 C 200.709 0.486328 -5.02954 0
M  V30 2046 C 202.907 0.151155 -5.14078 0
M  V30 2047 N 200.889 -0.377956 -6.12735 0
M  V30 2048 C 202.26 -0.573333 -6.17343 0
M  V30 2049 C 204.315 0.0716685 -4.97848 0
M  V30 2050 C 203.018 -1.3698 -7.06137 0
M  V30 2051 C 205.044 -0.711532 -5.87104 0
M  V30 2052 C 204.406 -1.42431 -6.8985 0
M  V30 2053 H 200.505 0.291798 -0.725519 0
M  V30 2054 H 203.089 0.123347 -1.94309 0
M  V30 2055 H 201.26 2.37642 -3.07215 0
M  V30 2056 H 202.992 2.32302 -3.31388 0
M  V30 2057 H 199.747 0.821753 -4.66416 0
M  V30 2058 H 200.171 -0.801077 -6.72244 0
M  V30 2059 H 204.813 0.608381 -4.184 0
M  V30 2060 H 202.531 -1.91778 -7.85014 0
M  V30 2061 H 206.117 -0.775005 -5.76615 0
M  V30 2062 H 204.997 -2.02061 -7.57721 0
M  V30 2063 N 202.5 1.5196 0.417844 0
M  V30 2064 C 203.725 1.69717 1.1921 0
M  V30 2065 C 204.15 0.402148 1.83751 0
M  V30 2066 O 203.508 -0.639593 1.69643 0
M  V30 2067 C 203.556 2.82794 2.2374 0
M  V30 2068 O 202.66 2.47756 3.29683 0
M  V30 2069 H 202.001 0.565263 0.348387 0
M  V30 2070 H 204.531 1.98621 0.490985 0
M  V30 2071 H 204.541 3.07452 2.68212 0
M  V30 2072 H 203.216 3.76756 1.76146 0
M  V30 2073 H 201.793 2.33739 2.90552 0
M  V30 2074 N 203.978 -0.674533 1.42435 0
M  V30 2075 C 205.226 -1.43175 1.42637 0
M  V30 2076 C 205.547 -1.94951 0.0438992 0
M  V30 2077 O 204.817 -1.7308 -0.917607 0
M  V30 2078 H 203.397 -0.531307 0.525092 0
M  V30 2079 H 206.059 -0.797006 1.77859 0
M  V30 2080 H 205.155 -2.28463 2.12629 0
M  V30 2081 N 205.456 -1.28612 -0.910864 0
M  V30 2082 C 206.704 -1.15705 -1.65701 0
M  V30 2083 C 207.025 0.29416 -1.92769 0
M  V30 2084 O 206.295 1.20331 -1.54588 0
M  V30 2085 H 204.875 -0.425216 -0.614167 0
M  V30 2086 H 207.537 -1.61381 -1.0928 0
M  V30 2087 H 206.633 -1.6988 -2.61815 0
M  V30 2088 N 206.934 1.1197 -1.10907 0
M  V30 2089 C 208.18 1.84059 -0.865674 0
M  V30 2090 C 208.535 1.82731 0.602254 0
M  V30 2091 O 207.828 1.26543 1.43866 0
M  V30 2092 C 208.022 3.30749 -1.35425 0
M  V30 2093 C 207.851 3.46363 -2.86815 0
M  V30 2094 C 206.621 3.59712 -3.54874 0
M  V30 2095 C 208.819 3.41116 -3.84895 0
M  V30 2096 N 206.801 3.63741 -4.94536 0
M  V30 2097 C 208.172 3.51698 -5.10596 0
M  V30 2098 C 210.227 3.24612 -3.77533 0
M  V30 2099 C 208.93 3.4748 -6.29802 0
M  V30 2100 C 210.956 3.21708 -4.96244 0
M  V30 2101 C 210.318 3.32856 -6.20795 0
M  V30 2102 H 206.417 0.689015 -0.369841 0
M  V30 2103 H 209.001 1.34016 -1.41237 0
M  V30 2104 H 207.172 3.79322 -0.834814 0
M  V30 2105 H 208.904 3.90718 -1.05458 0
M  V30 2106 H 205.659 3.62038 -3.05329 0
M  V30 2107 H 206.083 3.69408 -5.67333 0
M  V30 2108 H 210.725 3.14883 -2.8215 0
M  V30 2109 H 208.443 3.55978 -7.25469 0
M  V30 2110 H 212.029 3.10113 -4.92261 0
M  V30 2111 H 210.909 3.3059 -7.11112 0
M  V30 2112 N 208.412 0.89855 1.29475 0
M  V30 2113 C 209.362 0.346767 2.25348 0
M  V30 2114 C 210.346 -0.532509 1.51833 0
M  V30 2115 O 211.538 -0.374714 1.72988 0
M  V30 2116 C 208.667 -0.425681 3.40651 0
M  V30 2117 C 207.753 0.46845 4.21505 0
M  V30 2118 N 208.144 1.57514 4.80648 0
M  V30 2119 C 206.442 0.26603 4.45206 0
M  V30 2120 C 207.143 2.12889 5.41344 0
M  V30 2121 N 206.119 1.42208 5.24669 0
M  V30 2122 H 209.921 1.19219 2.68634 0
M  V30 2123 H 207.435 0.749473 1.44072 0
M  V30 2124 H 209.432 -0.837716 4.08397 0
M  V30 2125 H 208.092 -1.26838 2.98902 0
M  V30 2126 H 209.103 1.95789 4.79465 0
M  V30 2127 H 205.78 -0.538394 4.14014 0
M  V30 2128 H 207.17 3.05901 5.98226 0
M  V30 2129 N 209.89 -1.43072 0.660911 0
M  V30 2130 C 210.84 -2.27948 -0.04847 0
M  V30 2131 C 211.824 -1.40325 -0.787246 0
M  V30 2132 O 213.016 -1.63893 -0.668446 0
M  V30 2133 C 210.145 -3.28143 -1.00881 0
M  V30 2134 C 209.231 -4.23252 -0.268108 0
M  V30 2135 N 209.622 -5.00656 0.719528 0
M  V30 2136 C 207.92 -4.43092 -0.508493 0
M  V30 2137 C 208.621 -5.70019 1.15988 0
M  V30 2138 N 207.597 -5.41364 0.492584 0
M  V30 2139 H 211.399 -2.85213 0.709279 0
M  V30 2140 H 208.913 -1.54869 0.488822 0
M  V30 2141 H 210.91 -3.87736 -1.53188 0
M  V30 2142 H 209.57 -2.7244 -1.76654 0
M  V30 2143 H 210.581 -5.06115 1.09855 0
M  V30 2144 H 207.258 -3.98449 -1.24679 0
M  V30 2145 H 208.648 -6.4214 1.97751 0
M  V30 2146 N 211.368 -0.403325 -1.52352 0
M  V30 2147 C 212.331 0.413051 -2.25447 0
M  V30 2148 C 213.331 0.978513 -1.276 0
M  V30 2149 O 214.521 0.858305 -1.51587 0
M  V30 2150 C 211.653 1.58087 -3.02029 0
M  V30 2151 H 212.846 -0.227094 -2.99039 0
M  V30 2152 H 210.399 -0.155722 -1.55522 0
M  V30 2153 H 211.134 2.25804 -2.32772 0
M  V30 2154 H 210.919 1.18195 -3.73861 0
M  V30 2155 H 212.409 2.1585 -3.57489 0
M  V30 2156 N 212.846 1.57033 -0.133567 0
M  V30 2157 C 213.793 2.16074 0.811208 0
M  V30 2158 C 214.763 1.08979 1.2535 0
M  V30 2159 O 215.948 1.36958 1.32843 0
M  V30 2160 C 213.088 2.77595 2.05024 0
M  V30 2161 C 212.201 3.99042 1.65498 0
M  V30 2162 C 211.336 4.48603 2.84479 0
M  V30 2163 C 210.375 5.62547 2.41262 0
M  V30 2164 N 209.512 6.06787 3.53206 0
M  V30 2165 H 214.352 2.96477 0.300906 0
M  V30 2166 H 211.889 1.46462 0.136822 0
M  V30 2167 H 213.847 3.11402 2.77642 0
M  V30 2168 H 212.477 1.99859 2.53488 0
M  V30 2169 H 211.529 3.71302 0.826981 0
M  V30 2170 H 212.841 4.81629 1.29748 0
M  V30 2171 H 211.995 4.84395 3.65303 0
M  V30 2172 H 210.734 3.64995 3.23465 0
M  V30 2173 H 209.739 5.26345 1.58874 0
M  V30 2174 H 210.964 6.47931 2.03377 0
M  V30 2175 H 208.91 5.26117 3.91838 0
M  V30 2176 H 208.827 6.84266 3.21427 0
M  V30 2177 H 210.095 6.4722 4.34427 0
M  V30 2178 N 214.325 -0.140222 1.56975 0
M  V30 2179 C 215.272 -1.17292 1.98774 0
M  V30 2180 C 216.242 -1.4232 0.856408 0
M  V30 2181 O 217.427 -1.54541 1.119 0
M  V30 2182 C 214.567 -2.49973 2.37923 0
M  V30 2183 C 213.68 -2.32062 3.64378 0
M  V30 2184 C 212.815 -3.57825 3.926 0
M  V30 2185 C 211.854 -3.3498 5.12303 0
M  V30 2186 N 210.991 -4.52891 5.36502 0
M  V30 2187 H 215.831 -0.809472 2.86795 0
M  V30 2188 H 213.368 -0.388237 1.41884 0
M  V30 2189 H 215.326 -3.27346 2.58652 0
M  V30 2190 H 213.956 -2.84252 1.52972 0
M  V30 2191 H 213.008 -1.45711 3.51387 0
M  V30 2192 H 214.32 -2.11145 4.51906 0
M  V30 2193 H 213.474 -4.43624 4.13863 0
M  V30 2194 H 212.213 -3.81753 3.03506 0
M  V30 2195 H 211.218 -2.4757 4.90906 0
M  V30 2196 H 212.443 -3.12444 6.02956 0
M  V30 2197 H 210.389 -4.76979 4.50363 0
M  V30 2198 H 210.306 -4.35001 6.18312 0
M  V30 2199 H 211.574 -5.39884 5.62268 0
M  V30 2200 N 215.803 -1.52179 -0.40978 0
M  V30 2201 C 217.08 -1.56769 -1.16974 0
M  V30 2202 C 217.46 -0.348322 -2.08206 0
M  V30 2203 O 216.808 0.664862 -2.18613 0
M  V30 2204 C 217.018 -2.89603 -1.9476 0
M  V30 2205 C 218.366 -3.42579 -2.50849 0
M  V30 2206 O 219.39 -2.91338 -2.04941 0
M  V30 2207 O 218.249 -4.32054 -3.34652 0
M  V30 2208 H 215.343 -0.631439 -0.534054 0
M  V30 2209 H 217.889 -1.64507 -0.416613 0
M  V30 2210 H 216.661 -3.698 -1.27921 0
M  V30 2211 H 216.284 -2.85155 -2.77079 0
M  V30 2212 N 217.281 0.66697 -1.42791 0
M  V30 2213 C 218.191 1.80962 -1.49299 0
M  V30 2214 C 219.207 1.69775 -0.381108 0
M  V30 2215 O 220.383 1.91188 -0.633188 0
M  V30 2216 C 217.448 3.17156 -1.40045 0
M  V30 2217 C 216.509 3.40242 -2.6179 0
M  V30 2218 C 215.742 4.69939 -2.52969 0
M  V30 2219 O 215.965 5.48372 -1.56985 0
M  V30 2220 O 214.899 4.94441 -3.43237 0
M  V30 2221 H 218.725 1.78427 -2.45759 0
M  V30 2222 H 216.31 0.823713 -1.24641 0
M  V30 2223 H 218.192 3.98413 -1.37276 0
M  V30 2224 H 216.867 3.20312 -0.467138 0
M  V30 2225 H 215.774 2.58802 -2.70134 0
M  V30 2226 H 217.107 3.41923 -3.54047 0
M  V30 2227 N 218.759 1.29093 0.90403 0
M  V30 2228 C 219.722 1.1386 1.98919 0
M  V30 2229 C 220.722 0.0753457 1.60623 0
M  V30 2230 O 221.912 0.321931 1.71199 0
M  V30 2231 C 219.044 0.740198 3.32767 0
M  V30 2232 H 220.237 2.10246 2.13861 0
M  V30 2233 H 217.79 1.12218 1.08797 0
M  V30 2234 H 218.525 -0.223997 3.23525 0
M  V30 2235 H 218.31 1.50838 3.61926 0
M  V30 2236 H 219.8 0.656546 4.12407 0
M  V30 2237 N 220.237 -1.11381 1.11499 0
M  V30 2238 C 221.462 -1.87475 0.887019 0
M  V30 2239 C 221.887 -1.79639 -0.557796 0
M  V30 2240 O 221.245 -1.15924 -1.39396 0
M  V30 2241 C 221.293 -3.34213 1.35403 0
M  V30 2242 O 220.397 -4.0903 0.526146 0
M  V30 2243 H 219.738 -0.582099 0.319463 0
M  V30 2244 H 222.268 -1.40785 1.48461 0
M  V30 2245 H 222.278 -3.8506 1.34881 0
M  V30 2246 H 220.953 -3.39232 2.40612 0
M  V30 2247 H 219.53 -3.68082 0.597522 0
M  V30 2248 N 221.715 -0.905404 -1.28997 0
M  V30 2249 C 222.963 -0.533192 -1.9494 0
M  V30 2250 C 223.284 0.924618 -1.71685 0
M  V30 2251 O 222.554 1.65268 -1.05183 0
M  V30 2252 H 221.134 -0.194194 -0.721317 0
M  V30 2253 H 223.796 -1.15294 -1.57141 0
M  V30 2254 H 222.892 -0.72059 -3.03667 0
M  V30 2255 N 223.193 1.4272 -0.668489 0
M  V30 2256 C 224.44 2.01624 -0.18814 0
M  V30 2257 C 224.768 1.5282 1.20317 0
M  V30 2258 O 224.023 0.718323 1.8204 0
M  V30 2259 C 224.322 3.57021 -0.164499 0
M  V30 2260 C 223.988 4.25232 -1.49962 0
M  V30 2261 C 222.65 4.4358 -1.8652 0
M  V30 2262 C 225.002 4.63727 -2.37921 0
M  V30 2263 C 222.33 4.97694 -3.10674 0
M  V30 2264 C 224.682 5.19218 -3.6138 0
M  V30 2265 C 223.346 5.3578 -3.98115 0
M  V30 2266 H 222.616 0.737795 -0.0688454 0
M  V30 2267 H 225.263 1.70991 -0.862225 0
M  V30 2268 H 223.568 3.87285 0.593079 0
M  V30 2269 H 225.265 4.00372 0.224271 0
M  V30 2270 H 221.855 4.11306 -1.20522 0
M  V30 2271 H 226.039 4.4923 -2.10964 0
M  V30 2272 H 221.295 5.08702 -3.39164 0
M  V30 2273 H 225.469 5.4799 -4.29743 0
M  V30 2274 H 223.096 5.77475 -4.94395 0
M  V30 2275 N 224.671 0.411399 1.52136 0
M  V30 2276 C 225.911 -0.163143 2.03748 0
M  V30 2277 C 226.275 -1.42187 1.29022 0
M  V30 2278 O 227.476 -2.075 1.70872 0
M  V30 2279 C 225.747 -0.402651 3.55125 0
M  V30 2280 S 227.306 -0.944315 4.28519 0
M  V30 2281 H 224.124 -0.0439833 0.709638 0
M  V30 2282 H 226.726 0.56484 1.87163 0
M  V30 2283 H 225.43 0.520212 4.0709 0
M  V30 2284 H 224.961 -1.15844 3.75957 0
M  V30 2285 H 226.976 -2.22463 4.43536 0
M  V30 2286 N 226.149 -1.5696 0.141893 0
M  V30 2287 C 227.379 -2.00031 -0.516828 0
M  V30 2288 C 227.787 -1.02091 -1.59293 0
M  V30 2289 O 227.13 -0.00909657 -1.83698 0
M  V30 2290 C 227.192 -3.39534 -1.1814 0
M  V30 2291 C 226.856 -4.56313 -0.250513 0
M  V30 2292 C 227.853 -5.17295 0.519839 0
M  V30 2293 C 225.538 -5.02061 -0.154907 0
M  V30 2294 C 227.532 -6.2243 1.3733 0
M  V30 2295 C 225.219 -6.07053 0.702161 0
M  V30 2296 C 226.217 -6.67106 1.46487 0
M  V30 2297 O 225.905 -7.70066 2.30767 0
M  V30 2298 H 225.637 -0.661451 -0.139493 0
M  V30 2299 H 228.191 -2.04086 0.231926 0
M  V30 2300 H 226.421 -3.32302 -1.97769 0
M  V30 2301 H 228.11 -3.66745 -1.73933 0
M  V30 2302 H 228.876 -4.82852 0.45598 0
M  V30 2303 H 224.755 -4.5505 -0.7383 0
M  V30 2304 H 228.299 -6.69233 1.96909 0
M  V30 2305 H 224.196 -6.40923 0.76733 0
M  V30 2306 H 224.964 -7.87264 2.23959 0
M  V30 2307 N 227.627 0.131896 -1.57047 0
M  V30 2308 C 228.557 1.16384 -2.02428 0
M  V30 2309 C 229.538 1.43936 -0.90644 0
M  V30 2310 O 230.723 1.54599 -1.17528 0
M  V30 2311 C 227.853 2.49328 -2.4177 0
M  V30 2312 C 226.807 2.36266 -3.56879 0
M  V30 2313 C 226.133 3.74057 -3.8208 0
M  V30 2314 C 227.433 1.834 -4.89042 0
M  V30 2315 H 229.127 0.786433 -2.88887 0
M  V30 2316 H 226.673 0.376855 -1.38981 0
M  V30 2317 H 228.626 3.21759 -2.7212 0
M  V30 2318 H 227.35 2.88934 -1.52266 0
M  V30 2319 H 226.009 1.66286 -3.26718 0
M  V30 2320 H 225.657 4.11125 -2.89803 0
M  V30 2321 H 225.357 3.66174 -4.59554 0
M  V30 2322 H 226.881 4.48012 -4.1487 0
M  V30 2323 H 228.295 2.45636 -5.18011 0
M  V30 2324 H 226.692 1.8637 -5.70426 0
M  V30 2325 H 227.762 0.790662 -4.7841 0
M  V30 2326 N 229.106 1.52395 0.401703 0
M  V30 2327 C 230.054 1.7689 1.51039 0
M  V30 2328 C 231.048 0.636298 1.56996 0
M  V30 2329 O 232.254 0.818507 1.60314 0
M  V30 2330 H 228.629 0.559502 0.502456 0
M  V30 2331 H 230.6 2.69757 1.27568 0
M  V30 2332 C 229.349 1.94331 2.88324 0
M  V30 2333 H 228.672 2.80905 2.84486 0
M  V30 2334 H 230.112 2.15466 3.65172 0
M  V30 2335 C 228.571 0.712396 3.29282 0
M  V30 2336 O 229.101 -0.116218 4.01532 0
M  V30 2337 N 227.307 0.546154 2.85422 0
M  V30 2338 H 226.854 1.22156 2.26794 0
M  V30 2339 H 226.812 -0.276113 3.13185 0
M  V30 2340 N 230.584 -0.659388 1.43143 0
M  V30 2341 C 231.861 -1.41627 1.34912 0
M  V30 2342 C 232.241 -2.11099 -0.00607785 0
M  V30 2343 O 231.589 -2.04353 -1.02236 0
M  V30 2344 C 231.799 -2.40604 2.52805 0
M  V30 2345 C 233.147 -3.04789 2.95616 0
M  V30 2346 O 234.171 -2.50932 2.52807 0
M  V30 2347 O 233.03 -4.02421 3.69756 0
M  V30 2348 H 230.124 -0.63246 0.532844 0
M  V30 2349 H 232.67 -0.686814 1.5518 0
M  V30 2350 H 231.442 -1.88174 3.43083 0
M  V30 2351 H 231.065 -3.21009 2.34604 0
M  V30 2352 N 232.062 -1.29571 -0.897171 0
M  V30 2353 C 233.025 -1.14913 -1.98312 0
M  V30 2354 C 234.025 -0.0838629 -1.60581 0
M  V30 2355 O 235.215 -0.331006 -1.71026 0
M  V30 2356 C 232.347 -0.757835 -3.3237 0
M  V30 2357 H 233.54 -2.11377 -2.12743 0
M  V30 2358 H 231.093 -1.12793 -1.08201 0
M  V30 2359 H 231.828 0.206837 -3.2364 0
M  V30 2360 H 231.613 -1.52755 -3.61121 0
M  V30 2361 H 233.103 -0.678408 -4.12053 0
M  V30 2362 N 233.54 1.10788 -1.12088 0
M  V30 2363 C 234.786 1.82942 -0.875226 0
M  V30 2364 C 235.119 1.84779 0.597538 0
M  V30 2365 O 234.394 1.30578 1.44152 0
M  V30 2366 C 234.677 3.29789 -1.44606 0
M  V30 2367 C 234.53 3.36307 -2.98693 0
M  V30 2368 C 235.849 4.26064 -1.10261 0
M  V30 2369 H 232.968 0.664195 -0.319397 0
M  V30 2370 H 235.61 1.29867 -1.38689 0
M  V30 2371 H 233.76 3.75118 -1.01089 0
M  V30 2372 H 235.432 2.99487 -3.50864 0
M  V30 2373 H 233.675 2.76318 -3.34411 0
M  V30 2374 H 234.346 4.39694 -3.33726 0
M  V30 2375 H 236.822 3.88951 -1.4784 0
M  V30 2376 H 235.698 5.27183 -1.52869 0
M  V30 2377 H 235.959 4.42098 -0.0142953 0
M  V30 2378 N 235.018 0.912232 1.28515 0
M  V30 2379 C 235.948 0.416403 2.29757 0
M  V30 2380 C 236.929 -0.515194 1.6211 0
M  V30 2381 O 238.114 -0.423253 1.89532 0
M  V30 2382 C 235.244 -0.34572 3.45575 0
M  V30 2383 C 234.198 0.496599 4.25109 0
M  V30 2384 C 233.524 -0.393771 5.33248 0
M  V30 2385 C 234.824 1.75307 4.92001 0
M  V30 2386 H 236.518 1.26249 2.7148 0
M  V30 2387 H 234.064 0.608515 1.30511 0
M  V30 2388 H 236.017 -0.703422 4.15488 0
M  V30 2389 H 234.741 -1.2257 3.02728 0
M  V30 2390 H 233.4 0.8368 3.56922 0
M  V30 2391 H 233.048 -1.27225 4.86644 0
M  V30 2392 H 232.748 0.166209 5.87365 0
M  V30 2393 H 234.272 -0.747389 6.06009 0
M  V30 2394 H 235.686 1.46437 5.54283 0
M  V30 2395 H 234.083 2.25534 5.56106 0
M  V30 2396 H 235.153 2.48176 4.16577 0
M  V30 2397 N 236.496 -1.42363 0.676048 0
M  V30 2398 C 237.744 -2.01123 0.198437 0
M  V30 2399 C 238.065 -1.53731 -1.19966 0
M  V30 2400 O 237.335 -0.759518 -1.80577 0
M  V30 2401 H 235.915 -0.743678 0.0703721 0
M  V30 2402 H 238.577 -1.74263 0.872837 0
M  V30 2403 H 237.673 -3.11454 0.200686 0
M  V30 2404 N 237.974 -0.419461 -1.51915 0
M  V30 2405 C 239.223 0.154346 -2.01109 0
M  V30 2406 C 239.536 1.45338 -1.30905 0
M  V30 2407 O 240.742 2.10906 -1.7097 0
M  V30 2408 C 239.198 0.325615 -3.58424 0
M  V30 2409 C 238.806 -0.961934 -4.37551 0
M  V30 2410 C 240.55 0.854155 -4.15818 0
M  V30 2411 C 238.457 -0.757287 -5.86531 0
M  V30 2412 H 237.387 0.0614563 -0.751491 0
M  V30 2413 H 240.038 -0.54649 -1.75173 0
M  V30 2414 H 238.42 1.08903 -3.80731 0
M  V30 2415 H 239.594 -1.7323 -4.26999 0
M  V30 2416 H 237.909 -1.41766 -3.91524 0
M  V30 2417 H 240.506 1.02346 -5.24814 0
M  V30 2418 H 240.849 1.83172 -3.73837 0
M  V30 2419 H 241.382 0.149528 -3.97519 0
M  V30 2420 H 238.121 -1.70671 -6.32892 0
M  V30 2421 H 237.641 -0.0264061 -5.99794 0
M  V30 2422 H 239.32 -0.403482 -6.45741 0
M  V30 2423 N 239.452 1.56882 -0.150215 0
M  V30 2424 C 240.382 2.19935 0.784284 0
M  V30 2425 C 241.363 1.14854 1.25469 0
M  V30 2426 O 242.548 1.43209 1.31168 0
M  V30 2427 C 239.678 2.82349 2.02229 0
M  V30 2428 C 238.632 3.93285 1.68853 0
M  V30 2429 C 237.958 4.42649 2.99944 0
M  V30 2430 C 239.258 5.13904 0.932714 0
M  V30 2431 H 240.952 2.9828 0.258781 0
M  V30 2432 H 238.498 1.43473 0.123029 0
M  V30 2433 H 240.451 3.25126 2.68088 0
M  V30 2434 H 239.175 2.0134 2.57157 0
M  V30 2435 H 237.834 3.5113 1.05371 0
M  V30 2436 H 237.482 3.58458 3.52869 0
M  V30 2437 H 237.182 5.17476 2.78374 0
M  V30 2438 H 238.706 4.88099 3.66868 0
M  V30 2439 H 240.12 5.53506 1.49345 0
M  V30 2440 H 238.517 5.94515 0.81684 0
M  V30 2441 H 239.587 4.84842 -0.0749568 0
M  V30 2442 N 240.93 -0.123565 1.57115 0
M  V30 2443 C 242.346 -0.476961 1.52306 0
M  V30 2444 C 242.546 -1.82109 0.86248 0
M  V30 2445 O 241.602 -2.48586 0.442884 0
M  V30 2446 C 242.915 -0.465661 2.97073 0
M  V30 2447 C 244.463 -0.549534 3.08138 0
M  V30 2448 C 244.938 -0.568669 4.54456 0
M  V30 2449 N 246.429 -0.630237 4.58892 0
M  V30 2450 C 247.164 -0.666415 5.69514 0
M  V30 2451 N 246.66 -0.660514 6.89644 0
M  V30 2452 N 248.453 -0.709077 5.5761 0
M  V30 2453 H 240.604 0.757198 1.98445 0
M  V30 2454 H 242.867 0.278808 0.906074 0
M  V30 2455 H 242.573 0.454232 3.48754 0
M  V30 2456 H 242.447 -1.29513 3.54269 0
M  V30 2457 H 244.834 -1.45985 2.56461 0
M  V30 2458 H 244.915 0.307532 2.53945 0
M  V30 2459 H 244.559 0.337581 5.06777 0
M  V30 2460 H 244.489 -1.44256 5.06456 0
M  V30 2461 H 246.98 -0.641146 3.72421 0
M  V30 2462 H 247.293 -0.690616 7.69708 0
M  V30 2463 H 245.638 -0.628012 6.92157 0
M  V30 2464 H 248.829 -0.711019 4.62668 0
M  V30 2465 H 249.002 -0.733804 6.43832 0
M  V30 2466 N 242.408 -1.52605 -0.393616 0
M  V30 2467 C 243.338 -1.80022 -1.48709 0
M  V30 2468 C 244.319 -0.651995 -1.57108 0
M  V30 2469 O 245.504 -0.89913 -1.72132 0
M  V30 2470 C 242.634 -1.96492 -2.86371 0
M  V30 2471 C 241.588 -3.12161 -2.92813 0
M  V30 2472 C 240.914 -3.13877 -4.3288 0
M  V30 2473 C 242.214 -4.51322 -2.6288 0
M  V30 2474 H 243.908 -2.71589 -1.26015 0
M  V30 2475 H 241.454 -1.30684 -0.604778 0
M  V30 2476 H 243.407 -2.14255 -3.62867 0
M  V30 2477 H 242.131 -1.01611 -3.10391 0
M  V30 2478 H 240.79 -2.94173 -2.18764 0
M  V30 2479 H 240.438 -2.16687 -4.53933 0
M  V30 2480 H 240.138 -3.91576 -4.38112 0
M  V30 2481 H 241.662 -3.33789 -5.1129 0
M  V30 2482 H 243.076 -4.69435 -3.29096 0
M  V30 2483 H 241.473 -5.31053 -2.79468 0
M  V30 2484 H 242.543 -4.58353 -1.58242 0
M  V30 2485 N 243.887 0.651787 -1.4349 0
M  V30 2486 C 245.303 0.96762 -1.26922 0
M  V30 2487 C 245.503 2.00602 -0.189982 0
M  V30 2488 O 244.559 2.48793 0.431107 0
M  V30 2489 C 245.872 1.45052 -2.63401 0
M  V30 2490 C 247.42 1.5671 -2.70945 0
M  V30 2491 C 247.895 2.0839 -4.07845 0
M  V30 2492 N 249.386 2.1569 -4.09917 0
M  V30 2493 C 250.121 2.56804 -5.12679 0
M  V30 2494 N 249.617 2.97203 -6.25813 0
M  V30 2495 N 251.41 2.56756 -5.00033 0
M  V30 2496 H 243.561 -0.0353158 -2.12371 0
M  V30 2497 H 245.824 0.0467858 -0.946845 0
M  V30 2498 H 245.53 0.761926 -3.43348 0
M  V30 2499 H 245.404 2.42529 -2.88894 0
M  V30 2500 H 247.791 2.2467 -1.9133 0
M  V30 2501 H 247.872 0.57662 -2.49216 0
M  V30 2502 H 247.516 1.41031 -4.87927 0
M  V30 2503 H 247.446 3.08271 -4.26938 0
M  V30 2504 H 249.937 1.87237 -3.28254 0
M  V30 2505 H 250.25 3.27328 -7.00055 0
M  V30 2506 H 248.595 2.95004 -6.29283 0
M  V30 2507 H 251.786 2.24572 -4.10713 0
M  V30 2508 H 251.959 2.88475 -5.80247 0
M  V30 2509 N 245.365 1.30045 0.890287 0
M  V30 2510 C 246.781 1.08261 1.17268 0
M  V30 2511 C 246.981 -0.160063 2.00863 0
M  V30 2512 O 246.037 -0.855181 2.37577 0
M  V30 2513 C 247.35 2.34323 1.8845 0
M  V30 2514 C 248.898 2.39735 2.01237 0
M  V30 2515 C 249.373 3.65625 2.7583 0
M  V30 2516 N 250.864 3.66402 2.83379 0
M  V30 2517 C 251.599 4.60498 3.41657 0
M  V30 2518 N 251.095 5.64933 4.01026 0
M  V30 2519 N 252.888 4.48051 3.39421 0
M  V30 2520 H 245.039 2.09777 0.332762 0
M  V30 2521 H 247.302 0.92446 0.209948 0
M  V30 2522 H 247.008 3.2498 1.34465 0
M  V30 2523 H 246.882 2.4256 2.88867 0
M  V30 2524 H 249.269 1.4956 2.54393 0
M  V30 2525 H 249.35 2.35476 0.999232 0
M  V30 2526 H 248.994 4.56156 2.23347 0
M  V30 2527 H 248.924 3.67144 3.77509 0
M  V30 2528 H 251.415 2.90896 2.41222 0
M  V30 2529 H 251.728 6.32841 4.43545 0
M  V30 2530 H 250.073 5.68732 3.99461 0
M  V30 2531 H 253.264 3.65649 2.92264 0
M  V30 2532 H 253.437 5.21565 3.84544 0
M  V30 2533 N 246.843 -1.10192 1.12674 0
M  V30 2534 C 247.79 -2.16606 0.796906 0
M  V30 2535 C 248.76 -1.64394 -0.237476 0
M  V30 2536 O 249.945 -1.90474 -0.111484 0
M  V30 2537 C 247.085 -3.44116 0.26043 0
M  V30 2538 C 246.198 -4.10268 1.35293 0
M  V30 2539 C 245.333 -5.25507 0.775621 0
M  V30 2540 C 244.372 -5.83567 1.84706 0
M  V30 2541 N 243.509 -6.90179 1.28829 0
M  V30 2542 H 248.349 -2.44163 1.70846 0
M  V30 2543 H 245.886 -1.19846 0.85295 0
M  V30 2544 H 247.844 -4.17143 -0.0686814 0
M  V30 2545 H 246.474 -3.16901 -0.614274 0
M  V30 2546 H 245.526 -3.35184 1.79877 0
M  V30 2547 H 246.838 -4.4946 2.16303 0
M  V30 2548 H 245.992 -6.05398 0.397327 0
M  V30 2549 H 244.731 -4.87656 -0.0656581 0
M  V30 2550 H 243.736 -5.02344 2.23452 0
M  V30 2551 H 244.961 -6.23482 2.69161 0
M  V30 2552 H 242.907 -6.54322 0.468881 0
M  V30 2553 H 242.824 -7.28097 2.03497 0
M  V30 2554 H 244.092 -7.73844 0.937311 0
M  V30 2555 N 248.321 -0.919034 -1.28029 0
M  V30 2556 C 249.568 -0.554934 -1.94748 0
M  V30 2557 C 249.896 0.90231 -1.72304 0
M  V30 2558 O 249.151 1.65767 -1.04018 0
M  V30 2559 C 249.45 -0.816855 -3.4794 0
M  V30 2560 C 249.116 -2.25448 -3.90492 0
M  V30 2561 C 247.778 -2.64752 -4.01821 0
M  V30 2562 C 250.13 -3.18977 -4.12193 0
M  V30 2563 C 247.458 -3.96727 -4.32232 0
M  V30 2564 C 249.81 -4.50523 -4.44086 0
M  V30 2565 C 248.474 -4.89673 -4.53626 0
M  V30 2566 H 247.744 -0.203065 -0.712633 0
M  V30 2567 H 250.391 -1.16136 -1.52265 0
M  V30 2568 H 248.696 -0.127677 -3.91592 0
M  V30 2569 H 250.393 -0.514238 -3.97689 0
M  V30 2570 H 246.983 -1.93952 -3.82205 0
M  V30 2571 H 251.167 -2.89817 -4.02889 0
M  V30 2572 H 246.423 -4.26754 -4.37825 0
M  V30 2573 H 250.597 -5.23005 -4.59825 0
M  V30 2574 H 248.224 -5.91969 -4.76946 0
M  V30 2575 N 249.799 1.42003 -0.683588 0
M  V30 2576 C 250.709 2.34597 -0.0109075 0
M  V30 2577 C 251.725 1.55576 0.779245 0
M  V30 2578 O 252.901 1.88107 0.719555 0
M  V30 2579 C 249.966 3.34199 0.922588 0
M  V30 2580 C 249.027 4.29115 0.125984 0
M  V30 2581 C 248.26 5.23959 1.01502 0
M  V30 2582 O 248.483 5.23952 2.25456 0
M  V30 2583 O 247.417 6.00053 0.47111 0
M  V30 2584 H 251.243 2.93675 -0.773853 0
M  V30 2585 H 248.828 1.42654 -0.443861 0
M  V30 2586 H 250.71 3.95365 1.45823 0
M  V30 2587 H 249.385 2.77582 1.66523 0
M  V30 2588 H 248.292 3.71335 -0.453969 0
M  V30 2589 H 249.625 4.88798 -0.577736 0
M  V30 2590 N 251.277 0.427512 1.51691 0
M  V30 2591 C 252.693 0.0792977 1.59403 0
M  V30 2592 C 252.893 -1.41035 1.43914 0
M  V30 2593 O 251.949 -2.17922 1.27539 0
M  V30 2594 C 253.262 0.590636 2.94842 0
M  V30 2595 C 254.81 0.550215 3.08126 0
M  V30 2596 C 255.285 1.03836 4.46074 0
M  V30 2597 N 256.776 0.995943 4.52366 0
M  V30 2598 C 257.511 1.34463 5.57411 0
M  V30 2599 N 257.007 1.76569 6.69922 0
M  V30 2600 N 258.8 1.26343 5.47717 0
M  V30 2601 H 250.951 1.39687 1.60004 0
M  V30 2602 H 253.214 0.575003 0.753708 0
M  V30 2603 H 252.92 1.63251 3.11516 0
M  V30 2604 H 252.794 0.0102061 3.77199 0
M  V30 2605 H 255.181 -0.482654 2.91126 0
M  V30 2606 H 255.262 1.16693 2.27632 0
M  V30 2607 H 254.906 2.06965 4.63819 0
M  V30 2608 H 254.836 0.398286 5.25092 0
M  V30 2609 H 257.327 0.68661 3.7161 0
M  V30 2610 H 257.64 2.01438 7.46085 0
M  V30 2611 H 255.985 1.80488 6.71155 0
M  V30 2612 H 259.176 0.933209 4.58703 0
M  V30 2613 H 259.349 1.53846 6.29472 0
M  V30 2614 N 252.755 -1.56801 0.158532 0
M  V30 2615 C 254.004 -1.95665 -0.489702 0
M  V30 2616 C 254.317 -1.04654 -1.65248 0
M  V30 2617 O 255.523 -1.33146 -2.3661 0
M  V30 2618 C 253.979 -3.47874 -0.922582 0
M  V30 2619 C 253.587 -4.47489 0.213893 0
M  V30 2620 C 255.331 -3.95583 -1.53996 0
M  V30 2621 C 253.238 -5.90921 -0.237903 0
M  V30 2622 H 252.168 -0.730516 -0.186716 0
M  V30 2623 H 254.819 -1.81861 0.244722 0
M  V30 2624 H 253.201 -3.57051 -1.71261 0
M  V30 2625 H 254.375 -4.50017 0.991036 0
M  V30 2626 H 252.69 -4.09764 0.740407 0
M  V30 2627 H 255.287 -5.0019 -1.8898 0
M  V30 2628 H 255.63 -3.37789 -2.43319 0
M  V30 2629 H 256.163 -3.8937 -0.814611 0
M  V30 2630 H 252.902 -6.52559 0.620236 0
M  V30 2631 H 252.422 -5.91729 -0.980676 0
M  V30 2632 H 254.101 -6.43352 -0.686067 0
M  V30 2633 N 254.233 0.115231 -1.57178 0
M  V30 2634 C 255.163 1.1423 -2.03651 0
M  V30 2635 C 256.144 1.42967 -0.921655 0
M  V30 2636 O 257.329 1.53343 -1.19162 0
M  V30 2637 C 254.459 2.4675 -2.44401 0
M  V30 2638 C 253.413 2.32467 -3.59365 0
M  V30 2639 C 252.739 3.69984 -3.86026 0
M  V30 2640 C 254.039 1.78203 -4.90959 0
M  V30 2641 H 255.733 0.755749 -2.89705 0
M  V30 2642 H 253.279 0.362093 -1.39373 0
M  V30 2643 H 255.232 3.18854 -2.75517 0
M  V30 2644 H 253.956 2.87302 -1.55322 0
M  V30 2645 H 252.615 1.62811 -3.28463 0
M  V30 2646 H 252.263 4.08028 -2.94147 0
M  V30 2647 H 251.963 3.61279 -4.63412 0
M  V30 2648 H 253.487 4.43587 -4.19599 0
M  V30 2649 H 254.901 2.40128 -5.20587 0
M  V30 2650 H 253.298 1.8031 -5.72371 0
M  V30 2651 H 254.368 0.739876 -4.79222 0
M  V30 2652 N 255.711 1.52812 0.385517 0
M  V30 2653 C 256.941 1.71658 1.14966 0
M  V30 2654 C 257.349 0.436253 1.84102 0
M  V30 2655 O 256.692 -0.599313 1.73649 0
M  V30 2656 C 256.754 2.81309 2.23843 0
M  V30 2657 C 256.418 4.22313 1.74644 0
M  V30 2658 C 257.415 5.05352 1.22129 0
M  V30 2659 C 255.1 4.68648 1.80761 0
M  V30 2660 C 257.094 6.32807 0.763838 0
M  V30 2661 C 254.781 5.96086 1.34627 0
M  V30 2662 C 255.779 6.77996 0.825264 0
M  V30 2663 O 255.467 8.03045 0.370669 0
M  V30 2664 H 255.199 0.578022 0.350523 0
M  V30 2665 H 257.753 2.00263 0.456509 0
M  V30 2666 H 255.983 2.48133 2.96592 0
M  V30 2667 H 257.672 2.88524 2.85497 0
M  V30 2668 H 258.438 4.70736 1.16758 0
M  V30 2669 H 254.317 4.04979 2.20256 0
M  V30 2670 H 257.861 6.96689 0.356494 0
M  V30 2671 H 253.758 6.30205 1.39686 0
M  V30 2672 H 254.526 8.17021 0.491829 0
M  V30 2673 N 257.189 -0.644168 1.43834 0
M  V30 2674 C 258.435 -1.40603 1.46146 0
M  V30 2675 C 258.768 -1.93997 0.0887717 0
M  V30 2676 O 258.043 -1.72854 -0.891724 0
M  V30 2677 C 258.326 -2.58086 2.51124 0
M  V30 2678 C 258.179 -2.10126 3.97702 0
M  V30 2679 C 259.498 -3.60291 2.52742 0
M  V30 2680 H 256.617 -0.509905 0.532134 0
M  V30 2681 H 259.259 -0.729502 1.75437 0
M  V30 2682 H 257.409 -3.15801 2.26278 0
M  V30 2683 H 259.081 -1.57342 4.33637 0
M  V30 2684 H 257.324 -1.41419 4.10101 0
M  V30 2685 H 257.995 -2.94649 4.66783 0
M  V30 2686 H 260.471 -3.12352 2.7491 0
M  V30 2687 H 259.347 -4.40032 3.28121 0
M  V30 2688 H 259.608 -4.1349 1.56455 0
M  V30 2689 N 258.668 -1.30515 -0.883378 0
M  V30 2690 C 259.945 -1.10086 -1.6168 0
M  V30 2691 C 260.325 0.349269 -2.08191 0
M  V30 2692 O 259.673 1.34105 -1.85008 0
M  V30 2693 C 259.883 -2.10315 -2.78511 0
M  V30 2694 C 261.231 -2.42119 -3.48803 0
M  V30 2695 O 262.255 -2.08638 -2.88702 0
M  V30 2696 O 261.114 -2.99396 -4.57192 0
M  V30 2697 H 258.208 -0.422907 -0.710689 0
M  V30 2698 H 260.754 -1.41947 -0.930015 0
M  V30 2699 H 259.526 -3.07917 -2.41459 0
M  V30 2700 H 259.149 -1.79282 -3.54886 0
M  V30 2701 N 260.146 1.09593 -1.13257 0
M  V30 2702 C 261.076 2.18214 -0.830946 0
M  V30 2703 C 262.057 1.68812 0.208966 0
M  V30 2704 O 263.242 1.9408 0.0682666 0
M  V30 2705 C 260.372 3.46051 -0.294296 0
M  V30 2706 C 259.326 4.08778 -1.26826 0
M  V30 2707 C 258.652 5.31419 -0.591449 0
M  V30 2708 C 259.952 4.51476 -2.62615 0
M  V30 2709 H 261.646 2.43703 -1.73923 0
M  V30 2710 H 259.192 1.17128 -0.837675 0
M  V30 2711 H 261.145 4.2134 -0.0709606 0
M  V30 2712 H 259.869 3.20079 0.649366 0
M  V30 2713 H 258.528 3.35505 -1.47756 0
M  V30 2714 H 258.176 5.01727 0.357633 0
M  V30 2715 H 257.876 5.74341 -1.24123 0
M  V30 2716 H 259.4 6.09433 -0.377355 0
M  V30 2717 H 260.814 5.17999 -2.45663 0
M  V30 2718 H 259.211 5.05277 -3.23752 0
M  V30 2719 H 260.281 3.63962 -3.20406 0
M  V30 2720 N 261.624 0.925811 1.2754 0
M  V30 2721 C 262.901 0.483726 1.89524 0
M  V30 2722 C 263.281 -1.03809 1.83812 0
M  V30 2723 O 262.629 -1.89143 1.28207 0
M  V30 2724 C 262.839 1.02769 3.33526 0
M  V30 2725 C 264.187 1.08703 4.10449 0
M  V30 2726 O 265.211 0.977175 3.42534 0
M  V30 2727 O 264.07 1.25599 5.31871 0
M  V30 2728 H 261.164 0.15529 0.812289 0
M  V30 2729 H 263.71 1.01738 1.35822 0
M  V30 2730 H 262.482 2.07155 3.31967 0
M  V30 2731 H 262.105 0.475567 3.94746 0
M  V30 2732 N 263.102 -1.41638 0.69111 0
M  V30 2733 C 264.032 -2.3347 0.037248 0
M  V30 2734 C 265.013 -1.51575 -0.771947 0
M  V30 2735 O 266.198 -1.80126 -0.72582 0
M  V30 2736 C 263.328 -3.35354 -0.903064 0
M  V30 2737 C 262.282 -4.27526 -0.201288 0
M  V30 2738 C 261.608 -5.19747 -1.25565 0
M  V30 2739 C 262.908 -5.13959 0.929689 0
M  V30 2740 H 264.602 -2.88397 0.804227 0
M  V30 2741 H 262.148 -1.38669 0.388189 0
M  V30 2742 H 264.101 -3.98519 -1.36969 0
M  V30 2743 H 262.825 -2.78767 -1.70166 0
M  V30 2744 H 261.484 -3.65779 0.245265 0
M  V30 2745 H 261.132 -4.59479 -2.04666 0
M  V30 2746 H 260.832 -5.8225 -0.791128 0
M  V30 2747 H 262.356 -5.85789 -1.72288 0
M  V30 2748 H 263.77 -5.70718 0.543546 0
M  V30 2749 H 262.167 -5.85379 1.32103 0
M  V30 2750 H 263.237 -4.51389 1.77133 0
M  V30 2751 N 264.58 -0.43555 -1.51462 0
M  V30 2752 C 265.53 0.394701 -2.24558 0
M  V30 2753 C 266.514 0.99157 -1.26715 0
M  V30 2754 O 267.706 0.910007 -1.51815 0
M  V30 2755 C 264.835 1.4963 -3.08975 0
M  V30 2756 C 263.921 0.908912 -4.14246 0
M  V30 2757 N 264.312 0.0505335 -5.05775 0
M  V30 2758 C 262.61 1.17668 -4.30198 0
M  V30 2759 C 263.311 -0.279161 -5.8103 0
M  V30 2760 N 262.287 0.336767 -5.42556 0
M  V30 2761 H 266.089 -0.267106 -2.92684 0
M  V30 2762 H 263.603 -0.247518 -1.60503 0
M  V30 2763 H 265.6 2.10394 -3.59917 0
M  V30 2764 H 264.26 2.16046 -2.42393 0
M  V30 2765 H 265.271 -0.31577 -5.16936 0
M  V30 2766 H 261.948 1.83847 -3.74842 0
M  V30 2767 H 263.338 -0.977553 -6.64751 0
M  V30 2768 N 266.058 1.56714 -0.166846 0
M  V30 2769 C 267.008 2.14338 0.777382 0
M  V30 2770 C 267.992 1.07642 1.19591 0
M  V30 2771 O 269.184 1.33775 1.15902 0
M  V30 2772 C 266.313 2.78417 2.00846 0
M  V30 2773 C 265.399 3.92264 1.61212 0
M  V30 2774 N 265.79 4.97268 0.925104 0
M  V30 2775 C 264.088 4.03342 1.90346 0
M  V30 2776 C 264.789 5.77093 0.730627 0
M  V30 2777 N 263.765 5.2854 1.27067 0
M  V30 2778 H 267.567 2.9289 0.243466 0
M  V30 2779 H 265.081 1.62364 0.0339954 0
M  V30 2780 H 267.078 3.18073 2.69509 0
M  V30 2781 H 265.738 2.01344 2.54736 0
M  V30 2782 H 266.749 5.14601 0.583646 0
M  V30 2783 H 263.426 3.37368 2.45946 0
M  V30 2784 H 264.816 6.71638 0.187668 0
M  V30 2785 N 267.536 -0.106894 1.57237 0
M  V30 2786 C 268.784 -0.810921 1.85117 0
M  V30 2787 C 269.105 -1.7984 0.753827 0
M  V30 2788 O 268.375 -1.94649 -0.221056 0
M  V30 2789 H 266.955 -0.302466 0.683025 0
M  V30 2790 H 269.617 -0.0913324 1.94686 0
M  V30 2791 H 268.713 -1.34875 2.81452 0
M  V30 2792 N 269.014 -1.53014 -0.377408 0
M  V30 2793 C 270.291 -1.59215 -1.13622 0
M  V30 2794 C 270.671 -0.392407 -2.07421 0
M  V30 2795 O 270.019 0.618342 -2.19975 0
M  V30 2796 C 270.229 -2.93669 -1.88573 0
M  V30 2797 C 271.577 -3.47822 -2.43526 0
M  V30 2798 O 272.601 -2.9562 -1.98715 0
M  V30 2799 O 271.46 -4.39055 -3.25412 0
M  V30 2800 H 268.554 -0.642625 -0.52054 0
M  V30 2801 H 271.1 -1.65353 -0.381625 0
M  V30 2802 H 269.872 -3.7243 -1.20048 0
M  V30 2803 H 269.495 -2.90968 -2.70968 0
M  V30 2804 N 270.492 0.636531 -1.44174 0
M  V30 2805 C 271.74 1.39343 -1.46383 0
M  V30 2806 C 272.061 1.94766 -0.0955715 0
M  V30 2807 O 271.331 1.75452 0.871395 0
M  V30 2808 H 269.911 0.517199 -0.538994 0
M  V30 2809 H 272.573 0.74957 -1.7991 0
M  V30 2810 H 271.669 2.22746 -2.18611 0
M  V30 2811 N 271.97 1.30982 0.876444 0
M  V30 2812 C 273.216 1.20474 1.63138 0
M  V30 2813 C 273.549 -0.238096 1.92735 0
M  V30 2814 O 272.824 -1.1692 1.55435 0
M  V30 2815 C 273.107 2.04244 2.96574 0
M  V30 2816 C 272.96 3.56793 2.73896 0
M  V30 2817 C 274.279 1.88684 3.97601 0
M  V30 2818 H 271.398 0.439001 0.591985 0
M  V30 2819 H 274.04 1.60704 1.01361 0
M  V30 2820 H 272.19 1.70063 3.493 0
M  V30 2821 H 273.862 4.01077 2.27892 0
M  V30 2822 H 272.105 3.80548 2.08245 0
M  V30 2823 H 272.776 4.10706 3.68815 0
M  V30 2824 H 275.252 2.18584 3.54062 0
M  V30 2825 H 274.128 2.4961 4.88862 0
M  V30 2826 H 274.389 0.848343 4.33884 0
M  V30 2827 N 273.449 -1.08991 1.13837 0
M  V30 2828 C 274.359 -2.19301 0.833333 0
M  V30 2829 C 275.375 -1.73026 -0.183847 0
M  V30 2830 O 276.551 -2.01395 -0.0138092 0
M  V30 2831 C 273.616 -3.45323 0.308651 0
M  V30 2832 C 272.677 -4.06255 1.38764 0
M  V30 2833 C 271.91 -5.26262 0.887896 0
M  V30 2834 O 272.133 -5.69747 -0.27287 0
M  V30 2835 O 271.067 -5.78435 1.66421 0
M  V30 2836 H 274.893 -2.47854 1.75506 0
M  V30 2837 H 272.478 -1.18012 0.916166 0
M  V30 2838 H 274.36 -4.21394 0.0216739 0
M  V30 2839 H 273.035 -3.18362 -0.585431 0
M  V30 2840 H 271.942 -3.318 1.72799 0
M  V30 2841 H 273.275 -4.37452 2.25602 0
M  V30 2842 N 274.927 -0.932562 -1.27047 0
M  V30 2843 C 276.204 -0.49377 -1.89265 0
M  V30 2844 C 276.584 1.02833 -1.8436 0
M  V30 2845 O 275.932 1.88461 -1.29209 0
M  V30 2846 C 276.142 -1.04536 -3.32976 0
M  V30 2847 C 277.49 -1.10879 -4.09867 0
M  V30 2848 O 278.514 -0.995327 -3.42011 0
M  V30 2849 O 277.373 -1.28417 -5.31198 0
M  V30 2850 H 274.467 -0.159596 -0.811454 0
M  V30 2851 H 277.013 -1.02457 -1.3528 0
M  V30 2852 H 275.785 -2.08913 -3.30864 0
M  V30 2853 H 275.408 -0.496494 -3.94488 0
M  V30 2854 N 276.405 1.4127 -0.698611 0
M  V30 2855 C 277.368 2.29158 -0.044132 0
M  V30 2856 C 278.368 1.44529 0.704841 0
M  V30 2857 O 279.558 1.65643 0.539276 0
M  V30 2858 C 276.69 3.27459 0.947809 0
M  V30 2859 H 277.883 2.88529 -0.817994 0
M  V30 2860 H 275.436 1.49307 -0.46228 0
M  V30 2861 H 276.171 2.73073 1.74933 0
M  V30 2862 H 275.956 3.8991 0.41385 0
M  V30 2863 H 277.446 3.93311 1.40344 0
M  V30 2864 N 277.883 0.443576 1.51229 0
M  V30 2865 C 279.13 -0.120796 2.02139 0
M  V30 2866 C 279.458 -1.42166 1.32736 0
M  V30 2867 O 278.713 -1.90849 0.43301 0
M  V30 2868 C 279.012 -0.380579 3.55368 0
M  V30 2869 C 278.678 0.83523 4.43097 0
M  V30 2870 C 277.34 1.16864 4.66794 0
M  V30 2871 C 279.692 1.64601 4.94526 0
M  V30 2872 C 277.02 2.31339 5.39165 0
M  V30 2873 C 279.372 2.78181 5.68153 0
M  V30 2874 C 278.036 3.11969 5.90112 0
M  V30 2875 H 277.306 -0.0442023 0.73968 0
M  V30 2876 H 279.953 0.592046 1.82118 0
M  V30 2877 H 278.258 -1.17538 3.73754 0
M  V30 2878 H 279.955 -0.830777 3.923 0
M  V30 2879 H 276.545 0.565437 4.24854 0
M  V30 2880 H 280.729 1.40163 4.76097 0
M  V30 2881 H 275.985 2.57823 5.5438 0
M  V30 2882 H 280.159 3.41371 6.06992 0
M  V30 2883 H 277.786 4.00784 6.45969 0
M  V30 2884 N 279.361 -1.56624 0.175154 0
M  V30 2885 C 280.586 -2.01813 -0.478137 0
M  V30 2886 C 281.011 -1.05457 -1.55757 0
M  V30 2887 O 280.369 -0.0347439 -1.81267 0
M  V30 2888 C 280.417 -3.45581 -1.02987 0
M  V30 2889 O 279.521 -3.52305 -2.14371 0
M  V30 2890 H 278.862 -0.65413 -0.114059 0
M  V30 2891 H 281.392 -2.02673 0.280173 0
M  V30 2892 H 281.402 -3.84965 -1.35151 0
M  V30 2893 H 280.077 -4.1521 -0.239556 0
M  V30 2894 H 278.654 -3.24783 -1.83222 0
M  V30 2895 N 280.839 0.0985539 -1.57292 0
M  V30 2896 C 282.086 0.802678 -1.85912 0
M  V30 2897 C 282.414 1.78901 -0.763186 0
M  V30 2898 O 281.669 1.94178 0.243559 0
M  V30 2899 C 281.968 1.56927 -3.21105 0
M  V30 2900 C 281.634 0.725376 -4.45027 0
M  V30 2901 C 280.296 0.492726 -4.78671 0
M  V30 2902 C 282.648 0.138493 -5.21016 0
M  V30 2903 C 279.976 -0.336727 -5.85733 0
M  V30 2904 C 282.328 -0.678264 -6.28953 0
M  V30 2905 C 280.992 -0.921039 -6.61115 0
M  V30 2906 H 280.262 0.293721 -0.680301 0
M  V30 2907 H 282.909 0.0642841 -1.91392 0
M  V30 2908 H 281.214 2.37914 -3.11294 0
M  V30 2909 H 282.911 2.11841 -3.40477 0
M  V30 2910 H 279.501 0.916815 -4.18679 0
M  V30 2911 H 283.685 0.305404 -4.95359 0
M  V30 2912 H 278.941 -0.533836 -6.09065 0
M  V30 2913 H 283.115 -1.1399 -6.87007 0
M  V30 2914 H 280.742 -1.56556 -7.43905 0
M  V30 2915 N 282.317 1.53212 0.369288 0
M  V30 2916 C 283.545 1.73119 1.13303 0
M  V30 2917 C 283.96 0.458455 1.83149 0
M  V30 2918 O 283.317 -0.568403 1.73423 0
M  V30 2919 C 283.368 2.89413 2.16616 0
M  V30 2920 O 283.089 4.11761 1.49614 0
M  V30 2921 C 284.59 3.21161 3.05566 0
M  V30 2922 H 281.81 0.579107 0.338934 0
M  V30 2923 H 284.354 1.99942 0.429338 0
M  V30 2924 H 282.509 2.64994 2.82589 0
M  V30 2925 H 282.923 4.76858 2.18419 0
M  V30 2926 H 284.397 4.05949 3.74045 0
M  V30 2927 H 284.874 2.36369 3.70171 0
M  V30 2928 H 285.48 3.47492 2.45213 0
M  V30 2929 N 283.795 -0.628877 1.44509 0
M  V30 2930 C 285.02 -1.42048 1.5112 0
M  V30 2931 C 285.445 -1.87594 0.137818 0
M  V30 2932 O 284.803 -1.58873 -0.873437 0
M  V30 2933 C 284.851 -2.61541 2.48251 0
M  V30 2934 O 283.955 -3.61453 1.98559 0
M  V30 2935 H 283.296 -0.424942 0.510216 0
M  V30 2936 H 285.826 -0.767374 1.89664 0
M  V30 2937 H 285.836 -3.09057 2.66361 0
M  V30 2938 H 284.511 -2.27736 3.48007 0
M  V30 2939 H 283.088 -3.20731 1.90227 0
M  V30 2940 N 285.273 -1.31445 -0.869486 0
M  V30 2941 C 286.22 -1.19135 -1.97675 0
M  V30 2942 C 287.19 -0.0770266 -1.65921 0
M  V30 2943 O 288.375 -0.249972 -1.89155 0
M  V30 2944 C 285.515 -0.905149 -3.33018 0
M  V30 2945 C 284.628 -2.10285 -3.77365 0
M  V30 2946 C 283.763 -1.75339 -5.01427 0
M  V30 2947 C 282.802 -2.91515 -5.38224 0
M  V30 2948 N 281.939 -2.56762 -6.53466 0
M  V30 2949 H 286.779 -2.13853 -2.07535 0
M  V30 2950 H 284.316 -1.06379 -1.01597 0
M  V30 2951 H 286.274 -0.719765 -4.10944 0
M  V30 2952 H 284.904 0.00519624 -3.228 0
M  V30 2953 H 283.956 -2.39899 -2.95216 0
M  V30 2954 H 285.268 -2.97237 -4.00564 0
M  V30 2955 H 284.422 -1.53266 -5.87022 0
M  V30 2956 H 283.161 -0.855801 -4.80133 0
M  V30 2957 H 282.166 -3.14237 -4.51149 0
M  V30 2958 H 283.391 -3.81985 -5.61484 0
M  V30 2959 H 281.337 -1.69526 -6.33717 0
M  V30 2960 H 281.254 -3.37243 -6.76612 0
M  V30 2961 H 282.522 -2.38083 -7.42251 0
M  V30 2962 N 286.751 1.08385 -1.14413 0
M  V30 2963 C 287.997 1.81044 -0.913834 0
M  V30 2964 C 288.33 1.86004 0.558209 0
M  V30 2965 O 287.605 1.33606 1.4135 0
M  V30 2966 C 287.888 3.26648 -1.51569 0
M  V30 2967 C 287.741 3.29895 -3.0576 0
M  V30 2968 C 289.06 4.23629 -1.19273 0
M  V30 2969 H 286.179 0.65727 -0.333414 0
M  V30 2970 H 288.821 1.26896 -1.41412 0
M  V30 2971 H 286.971 3.72889 -1.09023 0
M  V30 2972 H 288.643 2.91977 -3.57137 0
M  V30 2973 H 286.886 2.69163 -3.40197 0
M  V30 2974 H 287.557 4.32516 -3.42977 0
M  V30 2975 H 290.033 3.85727 -1.56057 0
M  V30 2976 H 288.909 5.23822 -1.64017 0
M  V30 2977 H 289.17 4.41968 -0.108068 0
M  V30 2978 N 288.23 0.939286 1.26551 0
M  V30 2979 C 289.163 0.391702 2.24813 0
M  V30 2980 C 290.141 -0.518421 1.54114 0
M  V30 2981 O 291.325 -0.456299 1.82894 0
M  V30 2982 C 288.452 -0.437382 3.35864 0
M  V30 2983 C 287.498 0.410946 4.24516 0
M  V30 2984 S 288.331 1.83372 5.03125 0
M  V30 2985 C 289.487 1.01264 6.17654 0
M  V30 2986 H 289.72 1.22448 2.70913 0
M  V30 2987 H 287.253 0.742269 1.35387 0
M  V30 2988 H 289.211 -0.909837 4.0029 0
M  V30 2989 H 287.872 -1.24482 2.8838 0
M  V30 2990 H 287.065 -0.224191 5.03501 0
M  V30 2991 H 286.667 0.818014 3.64945 0
M  V30 2992 H 288.959 0.254023 6.77024 0
M  V30 2993 H 289.902 1.77589 6.85469 0
M  V30 2994 H 290.31 0.549532 5.61819 0
M  V30 2995 N 289.708 -1.40897 0.706093 0
M  V30 2996 C 290.936 -2.05373 0.250887 0
M  V30 2997 C 291.351 -1.53172 -1.10381 0
M  V30 2998 O 290.708 -0.684305 -1.69185 0
M  V30 2999 C 290.759 -3.6088 0.211571 0
M  V30 3000 O 290.48 -4.11153 1.51276 0
M  V30 3001 C 291.981 -4.42517 -0.263346 0
M  V30 3002 H 289.201 -0.66115 0.114552 0
M  V30 3003 H 291.745 -1.80479 0.961635 0
M  V30 3004 H 289.9 -3.84777 -0.450073 0
M  V30 3005 H 290.314 -5.05279 1.40689 0
M  V30 3006 H 291.788 -5.51479 -0.239718 0
M  V30 3007 H 292.265 -4.19396 -1.30397 0
M  V30 3008 H 292.871 -4.23708 0.367677 0
M  V30 3009 N 291.186 -0.45159 -1.50991 0
M  V30 3010 C 292.432 0.110237 -2.025 0
M  V30 3011 C 292.765 1.41109 -1.33424 0
M  V30 3012 O 292.04 1.89135 -0.453659 0
M  V30 3013 C 292.323 0.314271 -3.58726 0
M  V30 3014 C 292.176 -1.00623 -4.38401 0
M  V30 3015 C 293.495 1.07767 -4.26702 0
M  V30 3016 H 290.614 0.0385897 -0.735989 0
M  V30 3017 H 293.256 -0.593374 -1.80497 0
M  V30 3018 H 291.406 0.913601 -3.77605 0
M  V30 3019 H 293.078 -1.64064 -4.31139 0
M  V30 3020 H 291.321 -1.6075 -4.02917 0
M  V30 3021 H 291.992 -0.817341 -5.45915 0
M  V30 3022 H 294.468 0.56986 -4.12179 0
M  V30 3023 H 293.344 1.18921 -5.35863 0
M  V30 3024 H 293.605 2.10939 -3.88532 0
M  V30 3025 N 292.664 1.56529 -0.183458 0
M  V30 3026 C 293.889 2.02064 0.467428 0
M  V30 3027 C 294.314 1.06282 1.55196 0
M  V30 3028 O 293.672 0.0443565 1.81246 0
M  V30 3029 C 293.72 3.46122 1.01153 0
M  V30 3030 O 292.824 3.53437 2.12499 0
M  V30 3031 H 292.165 0.654726 0.110588 0
M  V30 3032 H 294.695 2.02521 -0.290917 0
M  V30 3033 H 294.705 3.85676 1.33108 0
M  V30 3034 H 293.38 4.15331 0.217533 0
M  V30 3035 H 291.957 3.2575 1.81497 0
M  V30 3036 N 294.142 -0.090211 1.57342 0
M  V30 3037 C 295.072 -1.10976 2.05443 0
M  V30 3038 C 296.053 -1.41482 0.944284 0
M  V30 3039 O 297.238 -1.51428 1.21586 0
M  V30 3040 C 294.368 -2.42831 2.48295 0
M  V30 3041 C 293.322 -2.26721 3.63018 0
M  V30 3042 C 292.648 -3.63796 3.91863 0
M  V30 3043 C 293.948 -1.7037 4.93732 0
M  V30 3044 H 295.642 -0.709564 2.9087 0
M  V30 3045 H 293.188 -0.339874 1.39932 0
M  V30 3046 H 295.141 -3.14431 2.80555 0
M  V30 3047 H 293.865 -2.84795 1.59873 0
M  V30 3048 H 292.524 -1.57565 3.31012 0
M  V30 3049 H 292.172 -4.03297 3.00601 0
M  V30 3050 H 291.872 -3.53861 4.69101 0
M  V30 3051 H 293.396 -4.36855 4.26603 0
M  V30 3052 H 294.81 -2.31816 5.24342 0
M  V30 3053 H 293.207 -1.71181 5.75167 0
M  V30 3054 H 294.277 -0.663542 4.80339 0
M  V30 3055 N 295.62 -1.53406 -0.361157 0
M  V30 3056 C 296.57 -1.76536 -1.44287 0
M  V30 3057 C 297.554 -0.620019 -1.48474 0
M  V30 3058 O 298.746 -0.878834 -1.53641 0
M  V30 3059 C 295.875 -1.96266 -2.81664 0
M  V30 3060 C 294.961 -3.16815 -2.81938 0
M  V30 3061 N 295.352 -4.38637 -2.51855 0
M  V30 3062 C 293.65 -3.17627 -3.13096 0
M  V30 3063 C 294.351 -5.20401 -2.59919 0
M  V30 3064 N 293.327 -4.56712 -2.94814 0
M  V30 3065 H 297.129 -2.68331 -1.19899 0
M  V30 3066 H 294.643 -1.52091 -0.56938 0
M  V30 3067 H 296.64 -2.10966 -3.59582 0
M  V30 3068 H 295.3 -1.05702 -3.07013 0
M  V30 3069 H 296.311 -4.66293 -2.25369 0
M  V30 3070 H 292.988 -2.36971 -3.43731 0
M  V30 3071 H 294.378 -6.27586 -2.39969 0
M  V30 3072 N 297.098 0.621204 -1.44841 0
M  V30 3073 C 298.045 1.73267 -1.5247 0
M  V30 3074 C 299.015 1.6189 -0.371611 0
M  V30 3075 O 300.2 1.81668 -0.58321 0
M  V30 3076 C 297.34 3.11545 -1.48438 0
M  V30 3077 C 296.453 3.33827 -2.74196 0
M  V30 3078 C 295.588 4.62133 -2.61929 0
M  V30 3079 C 294.627 4.77627 -3.82804 0
M  V30 3080 N 293.764 5.97219 -3.69153 0
M  V30 3081 H 298.604 1.66082 -2.47428 0
M  V30 3082 H 296.141 0.810026 -1.22788 0
M  V30 3083 H 298.099 3.91528 -1.4409 0
M  V30 3084 H 296.729 3.1772 -0.570402 0
M  V30 3085 H 295.781 2.47715 -2.88689 0
M  V30 3086 H 297.093 3.41153 -3.6389 0
M  V30 3087 H 296.247 5.50291 -2.5547 0
M  V30 3088 H 294.986 4.57182 -1.69811 0
M  V30 3089 H 293.991 3.87896 -3.89637 0
M  V30 3090 H 295.216 4.84385 -4.75971 0
M  V30 3091 H 293.162 5.93339 -2.79794 0
M  V30 3092 H 293.079 6.05644 -4.52472 0
M  V30 3093 H 294.347 6.87912 -3.66603 0
M  V30 3094 N 298.576 1.31904 0.862503 0
M  V30 3095 C 299.823 1.22017 1.61611 0
M  V30 3096 C 300.151 -0.21991 1.93253 0
M  V30 3097 O 299.406 -1.17076 1.56817 0
M  V30 3098 C 299.705 2.01713 2.95037 0
M  V30 3099 C 299.371 3.51145 2.82857 0
M  V30 3100 C 298.033 3.91889 2.79243 0
M  V30 3101 C 300.385 4.46204 2.69353 0
M  V30 3102 C 297.713 5.25947 2.59993 0
M  V30 3103 C 300.065 5.80397 2.5164 0
M  V30 3104 C 298.729 6.20352 2.46413 0
M  V30 3105 H 297.999 0.44649 0.591378 0
M  V30 3106 H 300.646 1.63248 1.00111 0
M  V30 3107 H 298.951 1.53185 3.60613 0
M  V30 3108 H 300.648 1.91437 3.52353 0
M  V30 3109 H 297.238 3.1878 2.86491 0
M  V30 3110 H 301.422 4.15652 2.71196 0
M  V30 3111 H 296.678 5.5597 2.54376 0
M  V30 3112 H 300.852 6.53676 2.40169 0
M  V30 3113 H 298.479 7.24172 2.31256 0
M  V30 3114 N 300.054 -1.07777 1.14986 0
M  V30 3115 C 301.279 -1.84558 0.946213 0
M  V30 3116 C 301.704 -1.81323 -0.500362 0
M  V30 3117 O 301.062 -1.20301 -1.35637 0
M  V30 3118 C 301.11 -3.29736 1.45968 0
M  V30 3119 O 300.214 -4.07149 0.65601 0
M  V30 3120 H 299.555 -0.571641 0.33782 0
M  V30 3121 H 302.085 -1.35991 1.52865 0
M  V30 3122 H 302.095 -3.80574 1.47063 0
M  V30 3123 H 300.77 -3.31406 2.51283 0
M  V30 3124 H 299.347 -3.65994 0.714322 0
M  V30 3125 N 301.532 -0.945985 -1.26051 0
M  V30 3126 C 302.943 -0.638096 -1.75457 0
M  V30 3127 C 303.294 0.846672 -1.76991 0
M  V30 3128 O 302.419 1.66262 -1.38513 0
M  V30 3129 C 303.014 -1.15157 -3.18629 0
M  V30 3130 C 301.573 -0.894004 -3.65629 0
M  V30 3131 C 300.72 -1.29967 -2.44957 0
M  V30 3132 H 303.671 -1.12376 -1.1206 0
M  V30 3133 H 303.692 -0.507615 -3.77099 0
M  V30 3134 H 303.204 -2.23222 -3.1748 0
M  V30 3135 H 301.305 0.172057 -3.72203 0
M  V30 3136 H 301.418 -1.52439 -4.54202 0
M  V30 3137 H 299.782 -0.718078 -2.44368 0
M  V30 3138 H 300.565 -2.38935 -2.46505 0
M  V30 3139 N 303.011 1.40521 -0.713556 0
M  V30 3140 C 304.259 2.00527 -0.251692 0
M  V30 3141 C 304.58 1.56857 1.15848 0
M  V30 3142 O 303.85 0.807127 1.785 0
M  V30 3143 H 302.43 0.741551 -0.0900646 0
M  V30 3144 H 305.092 1.71887 -0.918733 0
M  V30 3145 H 304.188 3.10813 -0.283192 0
M  V30 3146 N 304.489 0.459591 1.5075 0
M  V30 3147 C 305.736 -0.0993495 2.02256 0
M  V30 3148 C 306.064 -1.40751 1.34237 0
M  V30 3149 O 305.319 -1.90379 0.453228 0
M  V30 3150 C 305.618 -0.342866 3.55752 0
M  V30 3151 C 305.284 0.88218 4.42186 0
M  V30 3152 C 303.946 1.21808 4.65528 0
M  V30 3153 C 306.298 1.69837 4.92752 0
M  V30 3154 C 303.626 2.37045 5.36681 0
M  V30 3155 C 305.978 2.84192 5.65171 0
M  V30 3156 C 304.642 3.1821 5.8677 0
M  V30 3157 H 303.912 -0.0363545 0.740108 0
M  V30 3158 H 306.559 0.611329 1.8148 0
M  V30 3159 H 304.864 -1.13567 3.7498 0
M  V30 3160 H 306.561 -0.789121 3.93159 0
M  V30 3161 H 303.151 0.610467 4.2423 0
M  V30 3162 H 307.335 1.45205 4.74583 0
M  V30 3163 H 302.591 2.63689 5.51614 0
M  V30 3164 H 306.765 3.4779 6.03337 0
M  V30 3165 H 304.392 4.07613 6.41682 0
M  V30 3166 N 305.967 -1.56429 0.191757 0
M  V30 3167 C 307.214 -1.97485 -0.447891 0
M  V30 3168 C 307.542 -1.07852 -1.61859 0
M  V30 3169 O 306.797 -0.116903 -1.95351 0
M  V30 3170 C 307.096 -3.44449 -0.953384 0
M  V30 3171 C 306.762 -4.50781 0.103586 0
M  V30 3172 C 305.424 -4.79584 0.394023 0
M  V30 3173 C 307.776 -5.1471 0.819946 0
M  V30 3174 C 305.104 -5.69607 1.40585 0
M  V30 3175 C 307.456 -6.05827 1.8209 0
M  V30 3176 C 306.12 -6.32987 2.11857 0
M  V30 3177 H 305.39 -0.722648 -0.163895 0
M  V30 3178 H 308.037 -1.89322 0.28802 0
M  V30 3179 H 306.342 -3.49666 -1.76751 0
M  V30 3180 H 308.039 -3.73569 -1.45765 0
M  V30 3181 H 304.629 -4.28394 -0.132951 0
M  V30 3182 H 308.813 -4.92552 0.608789 0
M  V30 3183 H 304.069 -5.88926 1.64243 0
M  V30 3184 H 308.243 -6.54424 2.38123 0
M  V30 3185 H 305.87 -7.02544 2.90407 0
M  V30 3186 N 307.445 0.0818655 -1.57387 0
M  V30 3187 C 308.856 0.634871 -1.75574 0
M  V30 3188 C 309.207 1.78435 -0.815809 0
M  V30 3189 O 308.332 2.164 0.0025366 0
M  V30 3190 C 308.927 1.15845 -3.18379 0
M  V30 3191 C 307.486 1.65741 -3.37945 0
M  V30 3192 C 306.633 0.572549 -2.71325 0
M  V30 3193 H 309.584 -0.144268 -1.58043 0
M  V30 3194 H 309.605 2.02751 -3.21982 0
M  V30 3195 H 309.117 0.321631 -3.86765 0
M  V30 3196 H 307.218 2.51781 -2.74658 0
M  V30 3197 H 307.331 1.74129 -4.46336 0
M  V30 3198 H 305.695 1.01518 -2.33594 0
M  V30 3199 H 306.478 -0.253918 -3.4236 0
M  V30 3200 N 308.923 1.53595 0.353017 0
M  V30 3201 C 310.171 1.70049 1.09215 0
M  V30 3202 C 310.492 0.461406 1.89463 0
M  V30 3203 O 309.762 -0.524633 1.88744 0
M  V30 3204 H 308.342 0.626912 0.40619 0
M  V30 3205 H 311.004 1.90822 0.396585 0
M  V30 3206 H 310.1 2.56718 1.77488 0
M  V30 3207 N 310.401 -0.613514 1.45168 0
M  V30 3208 C 311.629 -1.39946 1.5239 0
M  V30 3209 C 312.044 -1.88167 0.154531 0
M  V30 3210 O 311.401 -1.61872 -0.842843 0
M  V30 3211 C 311.452 -2.60795 2.50337 0
M  V30 3212 O 311.173 -2.1458 3.81952 0
M  V30 3213 C 312.674 -3.53723 2.67198 0
M  V30 3214 H 309.894 -0.428593 0.516284 0
M  V30 3215 H 312.438 -0.748753 1.903 0
M  V30 3216 H 310.593 -3.21919 2.15515 0
M  V30 3217 H 311.007 -2.93055 4.34993 0
M  V30 3218 H 312.481 -4.35079 3.39721 0
M  V30 3219 H 312.958 -4.0368 1.73029 0
M  V30 3220 H 313.564 -2.98456 3.02992 0
M  V30 3221 N 311.879 -1.3236 -0.855495 0
M  V30 3222 C 313.127 -1.22629 -1.60644 0
M  V30 3223 C 313.448 0.212136 -1.93843 0
M  V30 3224 O 312.718 1.13666 -1.59552 0
M  V30 3225 H 311.298 -0.450882 -0.595579 0
M  V30 3226 H 313.96 -1.65871 -1.02337 0
M  V30 3227 H 313.056 -1.80832 -2.54374 0
M  V30 3228 N 313.357 1.07166 -1.15556 0
M  V30 3229 C 314.634 1.76546 -0.842069 0
M  V30 3230 C 315.014 2.00453 0.661939 0
M  V30 3231 O 314.362 1.62452 1.60691 0
M  V30 3232 C 314.572 3.07266 -1.65495 0
M  V30 3233 C 315.92 3.81578 -1.86234 0
M  V30 3234 O 316.944 3.17083 -1.62287 0
M  V30 3235 O 315.803 4.97419 -2.26355 0
M  V30 3236 H 312.897 0.766756 -0.309862 0
M  V30 3237 H 315.443 1.13514 -1.26145 0
M  V30 3238 H 314.215 2.85494 -2.67598 0
M  V30 3239 H 313.838 3.7803 -1.23203 0
M  V30 3240 N 314.835 0.952656 1.25548 0
M  V30 3241 C 316.081 0.607272 1.93494 0
M  V30 3242 C 316.414 -0.853245 1.74452 0
M  V30 3243 O 315.689 -1.61194 1.08843 0
M  V30 3244 C 315.972 0.96435 3.46947 0
M  V30 3245 C 315.825 2.48045 3.75225 0
M  V30 3246 C 317.144 0.487987 4.37386 0
M  V30 3247 H 314.263 0.222096 0.702739 0
M  V30 3248 H 316.905 1.18895 1.48203 0
M  V30 3249 H 315.055 0.469361 3.85654 0
M  V30 3250 H 316.727 3.04905 3.46166 0
M  V30 3251 H 314.97 2.919 3.209 0
M  V30 3252 H 315.641 2.6808 4.82532 0
M  V30 3253 H 318.117 0.912558 4.0597 0
M  V30 3254 H 316.993 0.766547 5.43521 0
M  V30 3255 H 317.254 -0.612063 4.37843 0
M  V30 3256 N 316.313 -1.40141 0.720998 0
M  V30 3257 C 317.538 -2.05618 0.271258 0
M  V30 3258 C 317.963 -1.53978 -1.08039 0
M  V30 3259 O 317.321 -0.677463 -1.68167 0
M  V30 3260 C 317.369 -3.59609 0.267197 0
M  V30 3261 O 316.473 -4.05526 -0.749814 0
M  V30 3262 H 315.814 -0.651904 0.126162 0
M  V30 3263 H 318.344 -1.79439 0.982997 0
M  V30 3264 H 318.354 -4.0786 0.106744 0
M  V30 3265 H 317.029 -3.96559 1.25354 0
M  V30 3266 H 315.606 -3.68722 -0.556644 0
M  V30 3267 N 317.792 -0.46758 -1.50504 0
M  V30 3268 C 319.069 0.15003 -1.95024 0
M  V30 3269 C 319.449 1.57304 -1.40779 0
M  V30 3270 O 318.797 2.20281 -0.607319 0
M  V30 3271 C 319.007 0.0969324 -3.48865 0
M  V30 3272 C 320.355 0.287565 -4.23625 0
M  V30 3273 O 321.379 0.173678 -3.55776 0
M  V30 3274 O 320.238 0.517186 -5.44047 0
M  V30 3275 H 317.332 0.113582 -0.819163 0
M  V30 3276 H 319.878 -0.52773 -1.61286 0
M  V30 3277 H 318.65 -0.896732 -3.80886 0
M  V30 3278 H 318.273 0.816303 -3.8913 0
M  V30 3279 N 319.27 1.56325 -0.20005 0
M  V30 3280 C 320.516 1.98012 0.438059 0
M  V30 3281 C 320.849 1.08702 1.60927 0
M  V30 3282 O 320.124 0.140064 1.93995 0
M  V30 3283 C 320.407 3.48841 0.893419 0
M  V30 3284 C 320.26 4.48928 -0.279947 0
M  V30 3285 C 321.579 4.03498 1.75719 0
M  V30 3286 H 318.698 0.719918 0.157757 0
M  V30 3287 H 321.34 1.87743 -0.291968 0
M  V30 3288 H 319.49 3.57723 1.51547 0
M  V30 3289 H 321.162 4.52079 -0.91772 0
M  V30 3290 H 319.405 4.23694 -0.930919 0
M  V30 3291 H 320.076 5.5194 0.0812601 0
M  V30 3292 H 322.552 3.97427 1.23253 0
M  V30 3293 H 321.428 5.09393 2.04476 0
M  V30 3294 H 321.689 3.4906 2.71311 0
M  V30 3295 N 320.748 -0.0735177 1.57428 0
M  V30 3296 C 321.996 -0.771472 1.86796 0
M  V30 3297 C 322.317 -1.78201 0.791804 0
M  V30 3298 O 321.587 -1.95074 -0.179718 0
M  V30 3299 H 320.167 -0.28791 0.689287 0
M  V30 3300 H 322.829 -0.0500161 1.94836 0
M  V30 3301 H 321.925 -1.28874 2.8425 0
M  V30 3302 N 322.226 -1.5378 -0.344866 0
M  V30 3303 C 323.156 -1.84662 -1.42906 0
M  V30 3304 C 324.137 -0.701648 -1.54955 0
M  V30 3305 O 325.322 -0.953438 -1.69184 0
M  V30 3306 C 322.452 -2.05503 -2.79974 0
M  V30 3307 C 321.406 -3.21318 -2.82734 0
M  V30 3308 C 320.732 -3.2749 -4.22675 0
M  V30 3309 C 322.032 -4.59456 -2.48389 0
M  V30 3310 H 323.726 -2.75461 -1.17311 0
M  V30 3311 H 321.272 -1.32542 -0.562896 0
M  V30 3312 H 323.225 -2.25691 -3.55867 0
M  V30 3313 H 321.949 -1.11434 -3.07002 0
M  V30 3314 H 320.608 -3.00984 -2.09294 0
M  V30 3315 H 320.256 -2.31019 -4.4681 0
M  V30 3316 H 319.956 -4.05316 -4.25433 0
M  V30 3317 H 321.48 -3.49887 -5.00412 0
M  V30 3318 H 322.894 -4.79667 -3.13995 0
M  V30 3319 H 321.291 -5.39675 -2.62432 0
M  V30 3320 H 322.361 -4.63155 -1.4358 0
M  V30 3321 N 323.704 0.605807 -1.45491 0
M  V30 3322 C 324.952 1.36207 -1.49305 0
M  V30 3323 C 325.273 1.94519 -0.136863 0
M  V30 3324 O 324.543 1.77261 0.833983 0
M  V30 3325 H 323.123 0.50565 -0.549843 0
M  V30 3326 H 325.785 0.711239 -1.81459 0
M  V30 3327 H 324.881 2.18058 -2.23287 0
M  V30 3328 N 325.182 1.32811 0.848464 0
M  V30 3329 C 326.129 1.22265 1.95755 0
M  V30 3330 C 327.099 0.103413 1.65778 0
M  V30 3331 O 328.284 0.280033 1.88734 0
M  V30 3332 C 325.424 0.958014 3.31536 0
M  V30 3333 C 324.537 2.16262 3.73971 0
M  V30 3334 C 323.672 1.83295 4.98575 0
M  V30 3335 C 322.711 3.00041 5.33518 0
M  V30 3336 N 321.848 2.67125 6.49299 0
M  V30 3337 H 326.688 2.17128 2.04107 0
M  V30 3338 H 324.225 1.07982 0.998913 0
M  V30 3339 H 326.183 0.785052 4.09747 0
M  V30 3340 H 324.813 0.046159 3.22767 0
M  V30 3341 H 323.865 2.44565 2.91362 0
M  V30 3342 H 325.177 3.03572 3.95785 0
M  V30 3343 H 324.331 1.62586 5.84509 0
M  V30 3344 H 323.07 0.932078 4.7871 0
M  V30 3345 H 322.075 3.21374 4.46093 0
M  V30 3346 H 323.3 3.90869 5.55336 0
M  V30 3347 H 321.246 1.79586 6.3094 0
M  V30 3348 H 321.163 3.47965 6.71161 0
M  V30 3349 H 322.431 2.49861 7.3837 0
M  V30 3350 N 326.66 -1.06551 1.16123 0
M  V30 3351 C 327.908 -1.78947 0.939267 0
M  V30 3352 C 328.229 -1.87532 -0.534476 0
M  V30 3353 O 327.499 -1.38211 -1.38833 0
M  V30 3354 H 326.079 -0.662807 0.344523 0
M  V30 3355 H 328.741 -1.28725 1.46342 0
M  V30 3356 H 327.837 -2.81117 1.35572 0
M  V30 3357 N 328.138 -0.959301 -1.25041 0
M  V30 3358 C 329.554 -0.664474 -1.4511 0
M  V30 3359 C 329.754 0.776481 -1.85938 0
M  V30 3360 O 328.81 1.55128 -1.99227 0
M  V30 3361 C 330.123 -1.64139 -2.5195 0
M  V30 3362 C 331.671 -1.65309 -2.65786 0
M  V30 3363 C 332.146 -2.61777 -3.75815 0
M  V30 3364 N 333.637 -2.60169 -3.83231 0
M  V30 3365 C 334.372 -3.31489 -4.6787 0
M  V30 3366 N 333.868 -4.12298 -5.56761 0
M  V30 3367 N 335.661 -3.20354 -4.61876 0
M  V30 3368 H 327.812 -1.89043 -0.968332 0
M  V30 3369 H 330.075 -0.813408 -0.4869 0
M  V30 3370 H 329.781 -2.67086 -2.28819 0
M  V30 3371 H 329.655 -1.40756 -3.49954 0
M  V30 3372 H 332.042 -0.630778 -2.8828 0
M  V30 3373 H 332.123 -1.92753 -1.68167 0
M  V30 3374 H 331.767 -3.64137 -3.54071 0
M  V30 3375 H 331.697 -2.31616 -4.72929 0
M  V30 3376 H 334.188 -2.01507 -3.19692 0
M  V30 3377 H 334.501 -4.63625 -6.18281 0
M  V30 3378 H 332.846 -4.16395 -5.56454 0
M  V30 3379 H 336.037 -2.56692 -3.91442 0
M  V30 3380 H 336.21 -3.76201 -5.27614 0
M  V30 3381 N 329.616 1.39756 -0.72842 0
M  V30 3382 C 330.846 2.04651 -0.283117 0
M  V30 3383 C 331.254 1.5502 1.08469 0
M  V30 3384 O 330.597 0.707343 1.69536 0
M  V30 3385 C 330.659 3.58947 -0.199309 0
M  V30 3386 C 330.323 4.31525 -1.5045 0
M  V30 3387 C 331.32 4.5861 -2.44894 0
M  V30 3388 C 329.005 4.70195 -1.76698 0
M  V30 3389 C 330.999 5.23366 -3.63822 0
M  V30 3390 C 328.686 5.3468 -2.95906 0
M  V30 3391 C 329.684 5.61198 -3.89289 0
M  V30 3392 O 329.372 6.24347 -5.06404 0
M  V30 3393 H 329.104 0.664777 -0.122666 0
M  V30 3394 H 331.658 1.79913 -0.990987 0
M  V30 3395 H 329.888 3.82556 0.56461 0
M  V30 3396 H 331.577 4.0534 0.213125 0
M  V30 3397 H 332.343 4.29187 -2.25883 0
M  V30 3398 H 328.222 4.48916 -1.04859 0
M  V30 3399 H 331.766 5.4398 -4.36728 0
M  V30 3400 H 327.663 5.63524 -3.14819 0
M  V30 3401 H 328.431 6.42842 -5.06652 0
M  V30 3402 N 331.094 0.475555 1.50254 0
M  V30 3403 C 332.324 -0.0753399 2.06463 0
M  V30 3404 C 332.732 -1.33661 1.33908 0
M  V30 3405 O 332.075 -1.79219 0.403257 0
M  V30 3406 C 332.137 -0.424921 3.5698 0
M  V30 3407 C 331.801 0.734965 4.51051 0
M  V30 3408 C 332.798 1.61827 4.94073 0
M  V30 3409 C 330.483 0.926557 4.9368 0
M  V30 3410 C 332.477 2.67754 5.78434 0
M  V30 3411 C 330.164 1.98904 5.77824 0
M  V30 3412 C 331.162 2.8629 6.20103 0
M  V30 3413 O 330.85 3.90708 7.02568 0
M  V30 3414 H 330.582 0.00576308 0.675975 0
M  V30 3415 H 333.136 0.664662 1.94349 0
M  V30 3416 H 331.366 -1.21817 3.67012 0
M  V30 3417 H 333.055 -0.911422 3.95535 0
M  V30 3418 H 333.821 1.48196 4.61804 0
M  V30 3419 H 329.7 0.25584 4.6029 0
M  V30 3420 H 333.244 3.35992 6.11355 0
M  V30 3421 H 329.141 2.12541 6.09505 0
M  V30 3422 H 329.909 3.87751 7.20827 0
M  V30 3423 N 332.573 -1.56217 0.208337 0
M  V30 3424 C 333.798 -2.02782 -0.435222 0
M  V30 3425 C 334.223 -1.08738 -1.53485 0
M  V30 3426 O 333.581 -0.0731855 -1.81152 0
M  V30 3427 C 333.629 -3.47687 -0.956335 0
M  V30 3428 O 332.733 -3.56773 -2.06849 0
M  V30 3429 H 332.074 -0.656403 -0.100158 0
M  V30 3430 H 334.604 -2.02033 0.3231 0
M  V30 3431 H 334.614 -3.87745 -1.26955 0
M  V30 3432 H 333.289 -4.15624 -0.15143 0
M  V30 3433 H 331.866 -3.28597 -1.76292 0
M  V30 3434 N 334.051 0.0651679 -1.57465 0
M  V30 3435 C 335.297 0.764193 -1.87851 0
M  V30 3436 C 335.63 1.76889 -0.801495 0
M  V30 3437 O 334.905 1.93594 0.187528 0
M  V30 3438 C 335.188 1.46625 -3.28897 0
M  V30 3439 C 335.041 0.477515 -4.47258 0
M  V30 3440 C 336.36 2.4095 -3.68281 0
M  V30 3441 H 333.479 0.276351 -0.683227 0
M  V30 3442 H 336.121 0.0272868 -1.8998 0
M  V30 3443 H 334.271 2.09438 -3.27212 0
M  V30 3444 H 335.943 -0.145922 -4.61069 0
M  V30 3445 H 334.186 -0.206576 -4.33308 0
M  V30 3446 H 334.857 1.0065 -5.42746 0
M  V30 3447 H 337.333 1.88209 -3.71102 0
M  V30 3448 H 336.209 2.87072 -4.67847 0
M  V30 3449 H 336.47 3.26049 -2.98571 0
M  V30 3450 N 335.529 1.53961 0.336706 0
M  V30 3451 C 336.477 1.83136 1.43401 0
M  V30 3452 C 337.471 0.702313 1.54156 0
M  V30 3453 O 338.677 0.885765 1.56698 0
M  V30 3454 H 335.052 0.580309 0.478273 0
M  V30 3455 H 337.023 2.74925 1.16012 0
M  V30 3456 C 335.772 2.06385 2.79822 0
M  V30 3457 H 335.095 2.92718 2.72316 0
M  V30 3458 H 336.535 2.30761 3.55704 0
M  V30 3459 C 334.994 0.851414 3.25964 0
M  V30 3460 O 335.524 0.0541904 4.01663 0
M  V30 3461 N 333.73 0.66672 2.82848 0
M  V30 3462 H 333.277 1.31665 2.21409 0
M  V30 3463 H 333.235 -0.143032 3.14074 0
M  V30 3464 N 337.007 -0.598083 1.45811 0
M  V30 3465 C 338.253 -1.35882 1.50545 0
M  V30 3466 C 338.586 -1.93616 0.150445 0
M  V30 3467 O 337.861 -1.75604 -0.83628 0
M  V30 3468 C 338.144 -2.49966 2.59208 0
M  V30 3469 C 337.997 -1.97367 4.04186 0
M  V30 3470 C 339.316 -3.52068 2.64076 0
M  V30 3471 H 336.435 -0.492717 0.548087 0
M  V30 3472 H 339.077 -0.673319 1.77669 0
M  V30 3473 H 337.227 -3.08443 2.3621 0
M  V30 3474 H 338.899 -1.43466 4.38423 0
M  V30 3475 H 337.142 -1.283 4.14393 0
M  V30 3476 H 337.813 -2.79649 4.75921 0
M  V30 3477 H 340.289 -3.03448 2.84708 0
M  V30 3478 H 339.165 -4.2937 3.41954 0
M  V30 3479 H 339.426 -4.08304 1.69531 0
M  V30 3480 N 338.485 -1.33259 -0.841409 0
M  V30 3481 C 339.896 -1.22066 -1.41269 0
M  V30 3482 C 340.247 0.161479 -1.95534 0
M  V30 3483 O 339.372 1.06094 -1.88608 0
M  V30 3484 C 339.967 -2.20996 -2.568 0
M  V30 3485 C 338.526 -2.13649 -3.09888 0
M  V30 3486 C 337.673 -2.08623 -1.82679 0
M  V30 3487 H 340.624 -1.44895 -0.647395 0
M  V30 3488 H 340.645 -1.81621 -3.34356 0
M  V30 3489 H 340.157 -3.2158 -2.17274 0
M  V30 3490 H 338.258 -1.16359 -3.53965 0
M  V30 3491 H 338.371 -3.04079 -3.70234 0
M  V30 3492 H 336.735 -1.54061 -2.02824 0
M  V30 3493 H 337.518 -3.1101 -1.45353 0
M  V30 3494 N 339.963 1.05934 -1.16686 0
M  V30 3495 C 341.212 1.78188 -0.945085 0
M  V30 3496 C 341.525 1.88338 0.528021 0
M  V30 3497 O 342.731 2.57258 0.867799 0
M  V30 3498 C 341.187 3.20277 -1.64167 0
M  V30 3499 C 340.795 3.18281 -3.15279 0
M  V30 3500 C 342.539 3.97039 -1.502 0
M  V30 3501 C 340.446 4.55112 -3.7766 0
M  V30 3502 H 339.376 0.667866 -0.349959 0
M  V30 3503 H 342.027 1.18794 -1.39858 0
M  V30 3504 H 340.409 3.79952 -1.11589 0
M  V30 3505 H 341.583 2.68167 -3.74731 0
M  V30 3506 H 339.898 2.55018 -3.29173 0
M  V30 3507 H 342.495 4.98194 -1.94183 0
M  V30 3508 H 342.838 4.13845 -0.451461 0
M  V30 3509 H 343.371 3.43894 -1.99954 0
M  V30 3510 H 340.11 4.43512 -4.82677 0
M  V30 3511 H 339.63 5.05406 -3.22994 0
M  V30 3512 H 341.309 5.24064 -3.79428 0
M  V30 3513 N 341.441 0.965919 1.2453 0
M  V30 3514 C 342.373 0.452465 2.2469 0
M  V30 3515 C 343.386 -0.437821 1.56802 0
M  V30 3516 O 344.575 -0.244283 1.76821 0
M  V30 3517 C 341.675 -0.366258 3.36915 0
M  V30 3518 C 340.848 0.513701 4.34373 0
M  V30 3519 C 339.907 -0.248716 5.25612 0
M  V30 3520 O 338.933 0.356745 5.68081 0
M  V30 3521 N 340.135 -1.53877 5.59734 0
M  V30 3522 H 342.9 1.31361 2.69378 0
M  V30 3523 H 340.461 0.837541 1.38553 0
M  V30 3524 H 342.453 -0.884297 3.94921 0
M  V30 3525 H 341.023 -1.12832 2.91526 0
M  V30 3526 H 340.243 1.21273 3.75082 0
M  V30 3527 H 341.531 1.11391 4.96457 0
M  V30 3528 H 340.929 -2.05243 5.27154 0
M  V30 3529 H 339.486 -2.00254 6.20275 0
M  V30 3530 N 342.919 -1.39368 0.735821 0
M  V30 3531 C 344.196 -1.94465 0.210395 0
M  V30 3532 C 344.576 -1.67254 -1.28799 0
M  V30 3533 O 343.924 -1.00123 -2.05396 0
M  V30 3534 C 344.134 -3.4472 0.544897 0
M  V30 3535 C 345.482 -4.21708 0.494689 0
M  V30 3536 O 346.506 -3.52922 0.482136 0
M  V30 3537 O 345.365 -5.44299 0.489947 0
M  V30 3538 H 342.459 -0.826096 0.0386666 0
M  V30 3539 H 345.005 -1.48863 0.814735 0
M  V30 3540 H 343.777 -3.57963 1.58045 0
M  V30 3541 H 343.4 -3.97502 -0.08837 0
M  V30 3542 N 344.397 -0.483516 -1.5 0
M  V30 3543 C 345.645 0.067027 -2.01989 0
M  V30 3544 C 345.966 1.3909 -1.36671 0
M  V30 3545 O 345.236 1.88978 -0.516152 0
M  V30 3546 H 343.816 0.0277606 -0.746484 0
M  V30 3547 H 346.478 -0.636773 -1.84204 0
M  V30 3548 H 345.574 0.209484 -3.11396 0
M  V30 3549 N 345.875 1.56104 -0.216619 0
M  V30 3550 C 347.124 1.97348 0.416744 0
M  V30 3551 C 347.437 1.10715 1.6125 0
M  V30 3552 O 348.643 1.41836 2.31506 0
M  V30 3553 C 347.099 3.51059 0.792835 0
M  V30 3554 C 346.707 4.46387 -0.379828 0
M  V30 3555 C 348.451 4.01026 1.39208 0
M  V30 3556 C 346.358 5.91397 0.0184223 0
M  V30 3557 H 345.288 0.736942 0.159475 0
M  V30 3558 H 347.939 1.80827 -0.31205 0
M  V30 3559 H 346.321 3.63162 1.57891 0
M  V30 3560 H 347.495 4.46029 -1.15737 0
M  V30 3561 H 345.81 4.06734 -0.891979 0
M  V30 3562 H 348.407 5.0686 1.70286 0
M  V30 3563 H 348.75 3.46587 2.30614 0
M  V30 3564 H 349.283 3.92125 0.669537 0
M  V30 3565 H 346.022 6.49807 -0.862002 0
M  V30 3566 H 345.542 5.94961 0.760384 0
M  V30 3567 H 347.221 6.45455 0.446818 0
M  V30 3568 N 347.353 -0.0568162 1.57498 0
M  V30 3569 C 348.285 -1.09292 2.01464 0
M  V30 3570 C 349.298 -1.34112 0.922913 0
M  V30 3571 O 350.487 -1.32089 1.20062 0
M  V30 3572 C 347.587 -2.44068 2.35125 0
M  V30 3573 C 346.76 -2.38995 3.66333 0
M  V30 3574 C 345.819 -3.55997 3.87495 0
M  V30 3575 O 344.845 -3.36746 4.58901 0
M  V30 3576 N 346.047 -4.76888 3.30996 0
M  V30 3577 H 348.812 -0.718386 2.90963 0
M  V30 3578 H 346.373 -0.245235 1.60032 0
M  V30 3579 H 348.365 -3.21011 2.46443 0
M  V30 3580 H 346.935 -2.73468 1.5144 0
M  V30 3581 H 346.155 -1.47336 3.65631 0
M  V30 3582 H 347.443 -2.3272 4.52458 0
M  V30 3583 H 346.841 -4.95431 2.73065 0
M  V30 3584 H 345.398 -5.51291 3.47738 0
M  V30 3585 N 348.832 -1.54138 -0.328536 0
M  V30 3586 C 350.109 -1.62749 -1.08499 0
M  V30 3587 C 350.489 -0.458198 -2.06067 0
M  V30 3588 O 349.837 0.548046 -2.2183 0
M  V30 3589 C 350.047 -2.99519 -1.79135 0
M  V30 3590 C 351.395 -3.55394 -2.32337 0
M  V30 3591 O 352.419 -3.01792 -1.89209 0
M  V30 3592 O 351.278 -4.49186 -3.11279 0
M  V30 3593 H 348.372 -0.65886 -0.499832 0
M  V30 3594 H 350.918 -1.66484 -0.328826 0
M  V30 3595 H 349.69 -3.76061 -1.08139 0
M  V30 3596 H 349.313 -2.99441 -2.61574 0
M  V30 3597 N 350.31 0.590341 -1.46126 0
M  V30 3598 C 351.22 1.72793 -1.58681 0
M  V30 3599 C 352.236 1.67516 -0.470566 0
M  V30 3600 O 353.412 1.87562 -0.733642 0
M  V30 3601 C 350.477 3.09287 -1.5666 0
M  V30 3602 C 349.538 3.25886 -2.79458 0
M  V30 3603 C 348.771 4.55869 -2.77524 0
M  V30 3604 O 348.994 5.3928 -1.85832 0
M  V30 3605 O 347.928 4.75552 -3.68964 0
M  V30 3606 H 351.754 1.65149 -2.54872 0
M  V30 3607 H 349.339 0.756486 -1.28832 0
M  V30 3608 H 351.221 3.90577 -1.58202 0
M  V30 3609 H 349.896 3.17385 -0.636271 0
M  V30 3610 H 348.803 2.44119 -2.83472 0
M  V30 3611 H 350.136 3.22675 -3.71674 0
M  V30 3612 N 351.788 1.33704 0.83433 0
M  V30 3613 C 352.735 1.24335 1.94447 0
M  V30 3614 C 353.705 0.120991 1.65659 0
M  V30 3615 O 354.89 0.300035 1.88426 0
M  V30 3616 C 352.03 0.993124 3.30501 0
M  V30 3617 C 351.143 2.20217 3.71657 0
M  V30 3618 C 350.278 1.88572 4.96602 0
M  V30 3619 C 349.317 3.05683 5.30306 0
M  V30 3620 N 348.454 2.73997 6.46429 0
M  V30 3621 H 353.294 2.1928 2.01792 0
M  V30 3622 H 350.831 1.09035 0.987404 0
M  V30 3623 H 352.789 0.828467 4.08892 0
M  V30 3624 H 351.419 0.0803902 3.227 0
M  V30 3625 H 350.471 2.47642 2.88752 0
M  V30 3626 H 351.783 3.07752 3.92543 0
M  V30 3627 H 350.937 1.68776 5.82752 0
M  V30 3628 H 349.676 0.982799 4.77695 0
M  V30 3629 H 348.681 3.26088 4.42659 0
M  V30 3630 H 349.906 3.96737 5.51159 0
M  V30 3631 H 347.852 1.86268 6.28999 0
M  V30 3632 H 347.769 3.55064 6.67432 0
M  V30 3633 H 349.037 2.57679 7.35678 0
M  V30 3634 N 353.266 -1.05314 1.17247 0
M  V30 3635 C 354.496 -1.81707 0.983166 0
M  V30 3636 C 354.904 -1.83222 -0.471822 0
M  V30 3637 O 354.247 -1.25721 -1.3394 0
M  V30 3638 C 354.309 -3.29134 1.44606 0
M  V30 3639 C 353.973 -3.51304 2.92292 0
M  V30 3640 C 354.97 -3.4353 3.90235 0
M  V30 3641 C 352.655 -3.78306 3.30439 0
M  V30 3642 C 354.649 -3.62442 5.24323 0
M  V30 3643 C 352.336 -3.96866 4.64694 0
M  V30 3644 C 353.334 -3.88933 5.61445 0
M  V30 3645 O 353.022 -4.06976 6.93272 0
M  V30 3646 H 352.754 -0.579476 0.348114 0
M  V30 3647 H 355.308 -1.33705 1.55924 0
M  V30 3648 H 353.538 -3.78046 0.813537 0
M  V30 3649 H 355.227 -3.87049 1.22262 0
M  V30 3650 H 355.993 -3.22648 3.62109 0
M  V30 3651 H 351.872 -3.83585 2.55702 0
M  V30 3652 H 355.416 -3.56165 5.99827 0
M  V30 3653 H 351.313 -4.1724 4.92525 0
M  V30 3654 H 352.081 -4.24209 6.99992 0
M  V30 3655 N 354.744 -0.972509 -1.24016 0
M  V30 3656 C 355.974 -0.653853 -1.9598 0
M  V30 3657 C 356.382 0.781801 -1.72292 0
M  V30 3658 O 355.725 1.53677 -1.00644 0
M  V30 3659 C 355.787 -0.854608 -3.49194 0
M  V30 3660 C 355.451 -2.27082 -3.96589 0
M  V30 3661 C 356.448 -3.24892 -4.05883 0
M  V30 3662 C 354.133 -2.5998 -4.29786 0
M  V30 3663 C 356.127 -4.53684 -4.47716 0
M  V30 3664 C 353.814 -3.88997 -4.71301 0
M  V30 3665 C 354.812 -4.85661 -4.80232 0
M  V30 3666 O 354.5 -6.12376 -5.20818 0
M  V30 3667 H 354.232 -0.242572 -0.630979 0
M  V30 3668 H 356.786 -1.30431 -1.58673 0
M  V30 3669 H 355.016 -0.146985 -3.86421 0
M  V30 3670 H 356.705 -0.534311 -4.02368 0
M  V30 3671 H 357.471 -3.00805 -3.80449 0
M  V30 3672 H 353.35 -1.85457 -4.22051 0
M  V30 3673 H 356.894 -5.29135 -4.54601 0
M  V30 3674 H 352.791 -4.12882 -4.96184 0
M  V30 3675 H 353.559 -6.16013 -5.38953 0
M  V30 3676 N 356.222 1.38976 -0.743202 0
M  V30 3677 C 357.154 2.29096 -0.0689228 0
M  V30 3678 C 358.167 1.47229 0.694791 0
M  V30 3679 O 359.356 1.70212 0.537597 0
M  V30 3680 C 356.456 3.25988 0.926548 0
M  V30 3681 C 355.629 4.36833 0.222647 0
M  V30 3682 C 354.688 5.13981 1.12739 0
M  V30 3683 O 353.714 5.6601 0.601795 0
M  V30 3684 N 354.916 5.25966 2.45641 0
M  V30 3685 H 357.681 2.87604 -0.842846 0
M  V30 3686 H 355.242 1.50645 -0.593109 0
M  V30 3687 H 357.234 3.74476 1.5346 0
M  V30 3688 H 355.804 2.68453 1.60162 0
M  V30 3689 H 355.024 3.90116 -0.565983 0
M  V30 3690 H 356.312 5.0811 -0.264841 0
M  V30 3691 H 355.71 4.85228 2.9081 0
M  V30 3692 H 354.267 5.77865 3.01522 0
M  V30 3693 N 357.7 0.491464 1.49741 0
M  V30 3694 C 358.949 -0.0582189 2.01616 0
M  V30 3695 C 359.262 -1.38927 1.3769 0
M  V30 3696 O 360.468 -2.02509 1.80838 0
M  V30 3697 C 358.924 -0.154235 3.59569 0
M  V30 3698 C 358.532 1.1696 4.32463 0
M  V30 3699 C 360.276 -0.65479 4.1942 0
M  V30 3700 C 358.183 1.03627 5.8225 0
M  V30 3701 H 357.113 -0.0255317 0.753568 0
M  V30 3702 H 359.764 0.629445 1.72367 0
M  V30 3703 H 358.146 -0.906138 3.85493 0
M  V30 3704 H 359.32 1.93405 4.18248 0
M  V30 3705 H 357.635 1.60285 3.84315 0
M  V30 3706 H 360.232 -0.771903 5.29099 0
M  V30 3707 H 360.575 -1.65127 3.8215 0
M  V30 3708 H 361.108 0.040304 3.9778 0
M  V30 3709 H 357.847 2.00672 6.24028 0
M  V30 3710 H 357.367 0.312546 5.98985 0
M  V30 3711 H 359.046 0.711114 6.4308 0
M  V30 3712 N 359.178 -1.55987 0.224894 0
M  V30 3713 C 360.418 -2.00293 -0.407706 0
M  V30 3714 C 360.782 -1.1093 -1.56711 0
M  V30 3715 O 361.983 -1.44597 -2.26595 0
M  V30 3716 C 360.254 -3.47675 -0.82805 0
M  V30 3717 S 361.813 -4.14 -1.45429 0
M  V30 3718 H 358.631 -0.699152 -0.129256 0
M  V30 3719 H 361.233 -1.92609 0.334967 0
M  V30 3720 H 359.937 -4.10392 0.0253964 0
M  V30 3721 H 359.468 -3.59239 -1.60345 0
M  V30 3722 H 361.483 -4.13465 -2.74337 0
M  V30 3723 N 360.656 0.0484629 -1.57525 0
M  V30 3724 C 361.566 1.07241 -2.08654 0
M  V30 3725 C 362.582 1.409 -1.02095 0
M  V30 3726 O 363.758 1.50609 -1.33712 0
M  V30 3727 C 360.823 2.36008 -2.5397 0
M  V30 3728 C 359.884 2.09108 -3.7493 0
M  V30 3729 C 359.117 3.31736 -4.18075 0
M  V30 3730 O 359.34 4.41714 -3.60895 0
M  V30 3731 O 358.274 3.18576 -5.10679 0
M  V30 3732 H 362.1 0.667965 -2.96263 0
M  V30 3733 H 359.685 0.26417 -1.47046 0
M  V30 3734 H 361.567 3.11747 -2.83535 0
M  V30 3735 H 360.242 2.75786 -1.69481 0
M  V30 3736 H 359.149 1.31 -3.50414 0
M  V30 3737 H 360.482 1.74198 -4.60343 0
M  V30 3738 N 362.134 1.5431 0.320358 0
M  V30 3739 C 363.359 1.76954 1.08175 0
M  V30 3740 C 363.784 0.518193 1.80821 0
M  V30 3741 O 363.142 -0.530411 1.73368 0
M  V30 3742 C 363.19 2.96451 2.05303 0
M  V30 3743 O 362.294 2.68221 3.13259 0
M  V30 3744 H 361.635 0.586275 0.311733 0
M  V30 3745 H 364.165 2.01342 0.363676 0
M  V30 3746 H 364.175 3.23887 2.48116 0
M  V30 3747 H 362.85 3.87196 1.51829 0
M  V30 3748 H 361.427 2.51744 2.75099 0
M  V30 3749 N 363.613 -0.582584 1.46437 0
M  V30 3750 C 364.859 -1.34278 1.51978 0
M  V30 3751 C 365.192 -1.93446 0.170973 0
M  V30 3752 O 364.467 -1.76481 -0.817608 0
M  V30 3753 C 364.75 -2.47203 2.61845 0
M  V30 3754 C 364.603 -1.93069 4.06257 0
M  V30 3755 C 365.922 -3.49247 2.67795 0
M  V30 3756 H 363.041 -0.486876 0.553282 0
M  V30 3757 H 365.683 -0.654437 1.78374 0
M  V30 3758 H 363.833 -3.0592 2.39469 0
M  V30 3759 H 365.505 -1.38808 4.3992 0
M  V30 3760 H 363.748 -1.23898 4.1573 0
M  V30 3761 H 364.419 -2.74586 4.7886 0
M  V30 3762 H 366.895 -3.00411 2.8791 0
M  V30 3763 H 365.771 -4.25719 3.46489 0
M  V30 3764 H 366.032 -4.06482 1.73852 0
M  V30 3765 N 365.091 -1.34144 -0.827227 0
M  V30 3766 C 366.021 -1.28005 -1.95287 0
M  V30 3767 C 367.002 -0.158321 -1.69362 0
M  V30 3768 O 368.187 -0.349987 -1.9102 0
M  V30 3769 C 365.317 -1.03036 -3.31664 0
M  V30 3770 C 364.271 -2.11628 -3.72019 0
M  V30 3771 C 363.597 -1.71854 -5.0633 0
M  V30 3772 C 364.897 -3.53417 -3.8457 0
M  V30 3773 H 366.591 -2.22187 -2.00682 0
M  V30 3774 H 364.137 -1.0696 -0.964135 0
M  V30 3775 H 366.09 -0.973863 -4.09993 0
M  V30 3776 H 364.814 -0.0529391 -3.26557 0
M  V30 3777 H 363.473 -2.16339 -2.95961 0
M  V30 3778 H 363.121 -0.727841 -4.97706 0
M  V30 3779 H 362.821 -2.44531 -5.34302 0
M  V30 3780 H 364.345 -1.67692 -5.87122 0
M  V30 3781 H 365.759 -3.51142 -4.5318 0
M  V30 3782 H 364.156 -4.24679 -4.2399 0
M  V30 3783 H 365.226 -3.91072 -2.86689 0
M  V30 3784 N 366.569 1.04691 -1.17803 0
M  V30 3785 C 367.516 2.12557 -0.899343 0
M  V30 3786 C 368.486 1.65339 0.158771 0
M  V30 3787 O 369.671 1.90789 0.0204797 0
M  V30 3788 C 366.811 3.42481 -0.424315 0
M  V30 3789 C 365.924 4.03346 -1.54713 0
M  V30 3790 C 365.059 5.21208 -1.02546 0
M  V30 3791 C 364.098 5.74089 -2.12339 0
M  V30 3792 N 363.235 6.83247 -1.61612 0
M  V30 3793 H 368.075 2.35734 -1.823 0
M  V30 3794 H 365.612 1.1564 -0.909159 0
M  V30 3795 H 367.57 4.16996 -0.130421 0
M  V30 3796 H 366.2 3.19471 0.462377 0
M  V30 3797 H 365.252 3.2622 -1.95664 0
M  V30 3798 H 366.564 4.38628 -2.37501 0
M  V30 3799 H 365.718 6.02812 -0.685718 0
M  V30 3800 H 364.457 4.87414 -0.167084 0
M  V30 3801 H 363.462 4.91111 -2.47165 0
M  V30 3802 H 364.687 6.0993 -2.98601 0
M  V30 3803 H 362.633 6.5134 -0.780533 0
M  V30 3804 H 362.55 7.17559 -2.38003 0
M  V30 3805 H 363.818 7.68491 -1.30545 0
M  V30 3806 N 368.047 0.979072 1.23499 0
M  V30 3807 C 368.957 0.526431 2.28617 0
M  V30 3808 C 369.973 -0.418126 1.68901 0
M  V30 3809 O 371.149 -0.288372 1.99325 0
M  V30 3810 C 368.214 -0.165235 3.46306 0
M  V30 3811 C 367.275 0.82056 4.21385 0
M  V30 3812 C 366.508 0.161807 5.33455 0
M  V30 3813 O 366.731 -1.04742 5.60701 0
M  V30 3814 O 365.665 0.859708 5.95729 0
M  V30 3815 H 369.491 1.4006 2.69475 0
M  V30 3816 H 367.076 0.746643 1.29405 0
M  V30 3817 H 368.958 -0.553287 4.17752 0
M  V30 3818 H 367.633 -1.01419 3.07402 0
M  V30 3819 H 366.54 1.25929 3.52268 0
M  V30 3820 H 367.873 1.63828 4.64135 0
M  V30 3821 N 369.525 -1.3858 0.750561 0
M  V30 3822 C 370.771 -2.00481 0.305825 0
M  V30 3823 C 371.104 -1.5944 -1.10872 0
M  V30 3824 O 370.379 -0.83052 -1.75877 0
M  V30 3825 C 370.662 -3.5758 0.425287 0
M  V30 3826 C 370.515 -4.08594 1.88072 0
M  V30 3827 C 371.834 -4.39719 -0.183122 0
M  V30 3828 H 368.953 -0.728348 0.112598 0
M  V30 3829 H 371.595 -1.64566 0.949638 0
M  V30 3830 H 369.745 -3.88306 -0.122828 0
M  V30 3831 H 371.417 -3.88523 2.48691 0
M  V30 3832 H 369.66 -3.61574 2.39681 0
M  V30 3833 H 370.331 -5.177 1.91548 0
M  V30 3834 H 372.807 -4.15128 0.284303 0
M  V30 3835 H 371.683 -5.48856 -0.0692757 0
M  V30 3836 H 371.944 -4.23434 -1.27106 0
M  V30 3837 N 371.003 -0.499398 -1.49478 0
M  V30 3838 C 372.233 0.0424839 -2.06556 0
M  V30 3839 C 372.641 1.31514 -1.36018 0
M  V30 3840 O 371.984 1.78555 -0.431718 0
M  V30 3841 C 372.046 0.368074 -3.57611 0
M  V30 3842 C 371.71 -0.806631 -4.49825 0
M  V30 3843 C 372.707 -1.69667 -4.91436 0
M  V30 3844 C 370.392 -1.00498 -4.92144 0
M  V30 3845 C 372.386 -2.76923 -5.74101 0
M  V30 3846 C 370.073 -2.08072 -5.74586 0
M  V30 3847 C 371.071 -2.96119 -6.15469 0
M  V30 3848 O 370.759 -4.01836 -6.96264 0
M  V30 3849 H 370.491 -0.0165165 -0.675798 0
M  V30 3850 H 373.045 -0.695497 -1.93267 0
M  V30 3851 H 371.275 1.15963 -3.68903 0
M  V30 3852 H 372.964 0.848381 -3.96935 0
M  V30 3853 H 373.73 -1.55524 -4.59388 0
M  V30 3854 H 369.609 -0.329036 -4.59824 0
M  V30 3855 H 373.153 -3.45676 -6.05932 0
M  V30 3856 H 369.05 -2.22211 -6.06047 0
M  V30 3857 H 369.818 -3.9917 -7.14567 0
M  V30 3858 N 372.481 1.55866 -0.233164 0
M  V30 3859 C 373.413 2.18099 0.704668 0
M  V30 3860 C 374.426 1.15334 1.14899 0
M  V30 3861 O 375.615 1.42262 1.07814 0
M  V30 3862 C 372.715 2.7592 1.96777 0
M  V30 3863 C 371.888 4.03969 1.67713 0
M  V30 3864 C 370.947 4.46242 2.78845 0
M  V30 3865 O 369.973 5.12903 2.46818 0
M  V30 3866 N 371.175 4.12886 4.08051 0
M  V30 3867 H 373.94 2.99205 0.172258 0
M  V30 3868 H 371.501 1.61815 -0.0525945 0
M  V30 3869 H 373.493 3.01165 2.70337 0
M  V30 3870 H 372.063 1.99051 2.41034 0
M  V30 3871 H 371.283 3.86459 0.777391 0
M  V30 3872 H 372.571 4.8748 1.4574 0
M  V30 3873 H 371.969 3.59342 4.3691 0
M  V30 3874 H 370.526 4.42997 4.78118 0
M  V30 3875 N 373.959 -0.0401083 1.57549 0
M  V30 3876 C 374.922 -1.02871 2.04817 0
M  V30 3877 C 375.922 -1.29708 0.950388 0
M  V30 3878 O 377.112 -1.24897 1.21435 0
M  V30 3879 C 374.244 -2.36443 2.45576 0
M  V30 3880 H 375.437 -0.620631 2.93408 0
M  V30 3881 H 372.99 -0.286667 1.53649 0
M  V30 3882 H 373.725 -2.82021 1.60108 0
M  V30 3883 H 373.51 -2.18296 3.25713 0
M  V30 3884 H 375 -3.07441 2.82612 0
M  V30 3885 N 375.437 -1.54477 -0.31217 0
M  V30 3886 C 376.684 -1.73227 -1.04875 0
M  V30 3887 C 377.012 -0.512042 -1.87639 0
M  V30 3888 O 376.267 0.506131 -1.89042 0
M  V30 3889 C 376.566 -2.967 -1.99258 0
M  V30 3890 C 376.232 -4.30974 -1.32559 0
M  V30 3891 C 374.894 -4.67477 -1.141 0
M  V30 3892 C 377.246 -5.14258 -0.847835 0
M  V30 3893 C 374.574 -5.84852 -0.465326 0
M  V30 3894 C 376.926 -6.32327 -0.185931 0
M  V30 3895 C 375.59 -6.67499 0.0107077 0
M  V30 3896 H 374.86 -0.633881 -0.383765 0
M  V30 3897 H 377.507 -1.88727 -0.324731 0
M  V30 3898 H 375.812 -2.75935 -2.7815 0
M  V30 3899 H 377.509 -3.08401 -2.563 0
M  V30 3900 H 374.099 -4.02262 -1.4793 0
M  V30 3901 H 378.283 -4.86565 -0.978192 0
M  V30 3902 H 373.539 -6.10654 -0.301883 0
M  V30 3903 H 377.713 -6.96135 0.192211 0
M  V30 3904 H 375.34 -7.58306 0.536287 0
M  V30 3905 N 376.915 0.57481 -1.46744 0
M  V30 3906 C 377.863 1.70435 -1.58286 0
M  V30 3907 C 378.857 1.63287 -0.450956 0
M  V30 3908 O 380.063 1.68685 -0.628121 0
M  V30 3909 H 376.438 0.56364 -0.497809 0
M  V30 3910 H 378.409 1.57833 -2.53242 0
M  V30 3911 C 377.158 3.08815 -1.59776 0
M  V30 3912 H 376.481 3.1499 -2.46214 0
M  V30 3913 H 377.921 3.87588 -1.71905 0
M  V30 3914 C 376.38 3.35301 -0.327812 0
M  V30 3915 O 376.91 3.97511 0.57861 0
M  V30 3916 N 375.116 2.89816 -0.213274 0
M  V30 3917 H 374.663 2.39371 -0.951798 0
M  V30 3918 H 374.621 3.0791 0.63553 0
M  V30 3919 N 378.394 1.34581 0.820102 0
M  V30 3920 C 379.805 1.24298 1.39309 0
M  V30 3921 C 380.156 -0.130351 1.95767 0
M  V30 3922 O 379.281 -1.0308 1.90272 0
M  V30 3923 C 379.876 2.25054 2.53251 0
M  V30 3924 C 378.435 2.18552 3.0645 0
M  V30 3925 C 377.582 2.11503 1.79337 0
M  V30 3926 H 380.533 1.45906 0.624262 0
M  V30 3927 H 380.554 1.86917 3.31425 0
M  V30 3928 H 380.066 3.24996 2.1213 0
M  V30 3929 H 378.167 1.21976 3.52069 0
M  V30 3930 H 378.28 3.0993 3.65349 0
M  V30 3931 H 376.644 1.57268 2.00347 0
M  V30 3932 H 377.427 3.13284 1.40386 0
M  V30 3933 N 379.872 -1.04064 1.18357 0
M  V30 3934 C 380.819 -2.12077 0.910603 0
M  V30 3935 C 381.789 -1.65421 -0.15 0
M  V30 3936 O 382.974 -1.90797 -0.0103614 0
M  V30 3937 C 380.114 -3.42252 0.442472 0
M  V30 3938 C 379.227 -4.0252 1.5685 0
M  V30 3939 C 378.362 -5.20657 1.05309 0
M  V30 3940 C 377.401 -5.72955 2.1538 0
M  V30 3941 N 376.538 -6.8238 1.65233 0
M  V30 3942 H 381.378 -2.34764 1.83548 0
M  V30 3943 H 378.915 -1.15157 0.915279 0
M  V30 3944 H 380.873 -4.16921 0.152534 0
M  V30 3945 H 379.503 -3.19712 -0.445428 0
M  V30 3946 H 378.555 -3.25178 1.97391 0
M  V30 3947 H 379.867 -4.37362 2.39824 0
M  V30 3948 H 379.021 -6.0244 0.717677 0
M  V30 3949 H 377.76 -4.87318 0.19293 0
M  V30 3950 H 376.765 -4.89793 2.49766 0
M  V30 3951 H 377.99 -6.08337 3.01832 0
M  V30 3952 H 375.936 -6.50917 0.815064 0
M  V30 3953 H 375.853 -7.16286 2.41805 0
M  V30 3954 H 377.121 -7.67788 1.34619 0
M  V30 3955 N 381.35 -0.985608 -1.22978 0
M  V30 3956 C 382.313 -0.535071 -2.22867 0
M  V30 3957 C 383.313 0.378123 -1.56291 0
M  V30 3958 O 384.503 0.171092 -1.73358 0
M  V30 3959 C 381.635 0.222702 -3.40172 0
M  V30 3960 H 382.828 -1.41835 -2.6424 0
M  V30 3961 H 380.381 -0.772042 -1.35901 0
M  V30 3962 H 381.116 1.12229 -3.04262 0
M  V30 3963 H 380.901 -0.43288 -3.89703 0
M  V30 3964 H 382.391 0.526335 -4.1427 0
M  V30 3965 N 382.828 1.3818 -0.7579 0
M  V30 3966 C 384.074 2.00316 -0.316453 0
M  V30 3967 C 384.407 1.60026 1.10025 0
M  V30 3968 O 383.682 0.839835 1.75434 0
M  V30 3969 C 383.965 3.57349 -0.444245 0
M  V30 3970 C 383.818 4.07591 -1.90236 0
M  V30 3971 C 385.137 4.3981 0.1598 0
M  V30 3972 H 382.256 0.727741 -0.116459 0
M  V30 3973 H 384.898 1.6406 -0.958352 0
M  V30 3974 H 383.048 3.88365 0.102233 0
M  V30 3975 H 384.72 3.87199 -2.50748 0
M  V30 3976 H 382.963 3.60297 -2.41595 0
M  V30 3977 H 383.634 5.16677 -1.94291 0
M  V30 3978 H 386.11 4.14971 -0.306314 0
M  V30 3979 H 384.986 5.48885 0.0401675 0
M  V30 3980 H 385.247 4.24102 1.24859 0
M  V30 3981 N 384.306 0.507319 1.49211 0
M  V30 3982 C 385.552 -0.0350047 2.0277 0
M  V30 3983 C 385.885 -1.3606 1.38569 0
M  V30 3984 O 385.16 -1.87321 0.523542 0
M  V30 3985 C 385.443 -0.180916 3.59645 0
M  V30 3986 C 385.296 1.16825 4.34364 0
M  V30 3987 C 386.615 -0.918558 4.30407 0
M  V30 3988 H 383.734 -0.0112473 0.736914 0
M  V30 3989 H 386.376 0.659956 1.7817 0
M  V30 3990 H 384.526 -0.772826 3.80736 0
M  V30 3991 H 386.198 1.79952 4.24753 0
M  V30 3992 H 384.441 1.75594 3.96673 0
M  V30 3993 H 385.112 1.01939 5.42506 0
M  V30 3994 H 387.588 -0.41649 4.1401 0
M  V30 3995 H 386.464 -0.989505 5.39907 0
M  V30 3996 H 386.725 -1.96373 3.96093 0
M  V30 3997 N 385.784 -1.5574 0.241426 0
M  V30 3998 C 386.714 -2.24133 -0.654722 0
M  V30 3999 C 387.695 -1.21974 -1.1856 0
M  V30 4000 O 388.88 -1.50612 -1.22595 0
M  V30 4001 C 386.01 -2.93659 -1.85423 0
M  V30 4002 C 384.964 -4.0246 -1.45636 0
M  V30 4003 C 384.29 -4.59383 -2.73626 0
M  V30 4004 C 385.59 -5.18468 -0.631506 0
M  V30 4005 H 387.284 -2.99281 -0.0844353 0
M  V30 4006 H 384.83 -1.43947 -0.0391707 0
M  V30 4007 H 386.783 -3.40203 -2.48676 0
M  V30 4008 H 385.507 -2.15991 -2.44981 0
M  V30 4009 H 384.166 -3.56676 -0.847202 0
M  V30 4010 H 383.814 -3.78422 -3.3137 0
M  V30 4011 H 383.514 -5.32826 -2.4773 0
M  V30 4012 H 385.038 -5.08658 -3.37786 0
M  V30 4013 H 386.452 -5.61272 -1.1682 0
M  V30 4014 H 384.849 -5.98266 -0.468831 0
M  V30 4015 H 385.919 -4.8358 0.357506 0
M  V30 4016 N 387.262 0.0317525 -1.57568 0
M  V30 4017 C 388.194 1.06073 -2.03178 0
M  V30 4018 C 389.207 1.32627 -0.944132 0
M  V30 4019 O 390.396 1.30162 -1.22148 0
M  V30 4020 C 387.496 2.40297 -2.38978 0
M  V30 4021 C 386.669 2.33137 -3.70089 0
M  V30 4022 C 385.728 3.49787 -3.9311 0
M  V30 4023 O 384.754 3.29403 -4.64201 0
M  V30 4024 N 385.956 4.71562 -3.38541 0
M  V30 4025 H 388.721 0.672006 -2.92069 0
M  V30 4026 H 386.282 0.219745 -1.60402 0
M  V30 4027 H 388.274 3.1705 -2.51518 0
M  V30 4028 H 386.844 2.71024 -1.55771 0
M  V30 4029 H 386.064 1.415 -3.67928 0
M  V30 4030 H 387.352 2.25493 -4.56104 0
M  V30 4031 H 386.75 4.91024 -2.80912 0
M  V30 4032 H 385.307 5.45689 -3.56464 0
M  V30 4033 N 388.74 1.54641 0.303973 0
M  V30 4034 C 389.67 1.88386 1.3796 0
M  V30 4035 C 390.651 0.742485 1.5304 0
M  V30 4036 O 391.836 0.997959 1.66597 0
M  V30 4037 C 388.966 2.12854 2.74427 0
M  V30 4038 C 387.92 3.28702 2.74115 0
M  V30 4039 C 387.246 3.38582 4.13844 0
M  V30 4040 C 388.546 4.65881 2.3612 0
M  V30 4041 H 390.24 2.78474 1.09966 0
M  V30 4042 H 387.786 1.33988 0.527556 0
M  V30 4043 H 389.739 2.35047 3.49758 0
M  V30 4044 H 388.463 1.19535 3.03939 0
M  V30 4045 H 387.122 3.06428 2.0124 0
M  V30 4046 H 386.77 2.42784 4.40528 0
M  V30 4047 H 386.47 4.16453 4.14537 0
M  V30 4048 H 387.994 3.63031 4.90959 0
M  V30 4049 H 389.408 4.87823 3.01167 0
M  V30 4050 H 387.805 5.46444 2.48031 0
M  V30 4051 H 388.875 4.66799 1.3125 0
M  V30 4052 N 390.218 -0.567019 1.47046 0
M  V30 4053 C 391.466 -1.322 1.52864 0
M  V30 4054 C 391.787 -1.94088 0.188388 0
M  V30 4055 O 391.057 -1.7941 -0.786693 0
M  V30 4056 H 389.637 -0.490894 0.563056 0
M  V30 4057 H 392.299 -0.662879 1.83281 0
M  V30 4058 H 391.395 -2.12062 2.2899 0
M  V30 4059 N 391.696 -1.35014 -0.812953 0
M  V30 4060 C 392.659 -1.27292 -1.90602 0
M  V30 4061 C 393.659 -0.185817 -1.59723 0
M  V30 4062 O 394.849 -0.439102 -1.68575 0
M  V30 4063 C 391.981 -0.967676 -3.26877 0
M  V30 4064 H 393.174 -2.24479 -1.9887 0
M  V30 4065 H 390.727 -1.19446 -1.00808 0
M  V30 4066 H 391.462 0.0005954 -3.243 0
M  V30 4067 H 391.247 -1.75412 -3.50675 0
M  V30 4068 H 392.737 -0.939085 -4.06904 0
M  V30 4069 N 393.175 1.03435 -1.18907 0
M  V30 4070 C 394.452 1.73778 -0.89781 0
M  V30 4071 C 394.832 2.02458 0.597832 0
M  V30 4072 O 394.18 1.67482 1.55441 0
M  V30 4073 C 394.39 3.01845 -1.75187 0
M  V30 4074 C 395.738 3.7546 -1.9828 0
M  V30 4075 O 396.762 3.11759 -1.72293 0
M  V30 4076 O 395.621 4.89966 -2.42065 0
M  V30 4077 H 392.715 0.75651 -0.334098 0
M  V30 4078 H 395.261 1.09444 -1.29693 0
M  V30 4079 H 394.033 2.76836 -2.76545 0
M  V30 4080 H 393.656 3.73919 -1.35167 0
M  V30 4081 N 394.653 0.992116 1.22453 0
M  V30 4082 C 395.881 0.685944 1.95198 0
M  V30 4083 C 396.296 -0.749233 1.73297 0
M  V30 4084 O 395.653 -1.50549 1.03156 0
M  V30 4085 C 395.704 0.981395 3.47924 0
M  V30 4086 O 395.425 2.36018 3.6909 0
M  V30 4087 C 396.926 0.692815 4.37853 0
M  V30 4088 H 394.146 0.253821 0.621141 0
M  V30 4089 H 396.69 1.32668 1.55626 0
M  V30 4090 H 394.845 0.386481 3.85467 0
M  V30 4091 H 395.259 2.45884 4.63294 0
M  V30 4092 H 396.733 0.949818 5.43767 0
M  V30 4093 H 397.21 -0.373181 4.37612 0
M  V30 4094 H 397.816 1.26874 4.05935 0
M  V30 4095 N 396.131 -1.37776 0.765217 0
M  V30 4096 C 397.38 -1.99092 0.323307 0
M  V30 4097 C 397.693 -1.61434 -1.10446 0
M  V30 4098 O 398.899 -2.15805 -1.64743 0
M  V30 4099 C 397.355 -3.56019 0.527098 0
M  V30 4100 C 396.963 -4.0262 1.96471 0
M  V30 4101 C 398.707 -4.2424 0.148483 0
M  V30 4102 C 396.614 -5.52233 2.11644 0
M  V30 4103 H 395.544 -0.744846 0.117137 0
M  V30 4104 H 398.195 -1.57391 0.943417 0
M  V30 4105 H 396.577 -3.95667 -0.162372 0
M  V30 4106 H 397.751 -3.74234 2.68859 0
M  V30 4107 H 396.066 -3.47161 2.29931 0
M  V30 4108 H 398.663 -5.34159 0.240456 0
M  V30 4109 H 399.006 -4.06446 -0.900422 0
M  V30 4110 H 399.539 -3.89872 0.79025 0
M  V30 4111 H 396.278 -5.74945 3.1483 0
M  V30 4112 H 395.798 -5.82324 1.4373 0
M  V30 4113 H 397.477 -6.18106 1.91193 0
M  V30 4114 N 397.609 -0.515225 -1.4894 0
M  V30 4115 C 398.572 0.244681 -2.2789 0
M  V30 4116 C 399.572 0.881166 -1.34507 0
M  V30 4117 O 400.762 0.743497 -1.57537 0
M  V30 4118 C 397.894 1.35247 -3.12923 0
M  V30 4119 H 399.087 -0.448289 -2.96531 0
M  V30 4120 H 396.64 -0.270656 -1.53939 0
M  V30 4121 H 397.375 2.07916 -2.48881 0
M  V30 4122 H 397.16 0.901374 -3.81599 0
M  V30 4123 H 398.65 1.88737 -3.72516 0
M  V30 4124 N 399.087 1.5561 -0.249682 0
M  V30 4125 C 400.335 1.98618 0.373548 0
M  V30 4126 C 400.656 1.13919 1.58264 0
M  V30 4127 O 399.926 0.222637 1.94631 0
M  V30 4128 H 398.506 0.733571 0.141006 0
M  V30 4129 H 401.168 1.91748 -0.349117 0
M  V30 4130 H 400.264 3.04584 0.680796 0
M  V30 4131 N 400.565 -0.0233959 1.57583 0
M  V30 4132 C 401.842 -0.748794 1.807 0
M  V30 4133 C 402.222 -1.9327 0.849106 0
M  V30 4134 O 401.57 -2.28247 -0.107468 0
M  V30 4135 C 401.78 -1.17651 3.28571 0
M  V30 4136 C 403.128 -1.59008 3.93702 0
M  V30 4137 O 404.152 -1.27094 3.32755 0
M  V30 4138 O 403.011 -2.18264 5.01022 0
M  V30 4139 H 400.105 -0.362578 0.743281 0
M  V30 4140 H 402.651 0.000261958 1.697 0
M  V30 4141 H 401.423 -0.331603 3.89892 0
M  V30 4142 H 401.046 -1.98541 3.44481 0
M  V30 4143 N 402.043 -1.548 -0.295768 0
M  V30 4144 C 403.454 -1.65274 -0.868411 0
M  V30 4145 C 403.805 -0.56481 -1.87894 0
M  V30 4146 O 402.93 0.29767 -2.14343 0
M  V30 4147 C 403.525 -2.99603 -1.58188 0
M  V30 4148 C 402.084 -3.12181 -2.10286 0
M  V30 4149 C 401.231 -2.6098 -0.93727 0
M  V30 4150 H 404.182 -1.58534 -0.0726422 0
M  V30 4151 H 404.203 -2.91319 -2.44772 0
M  V30 4152 H 403.715 -3.78764 -0.846151 0
M  V30 4153 H 401.816 -2.3775 -2.8689 0
M  V30 4154 H 401.929 -4.18415 -2.33379 0
M  V30 4155 H 400.293 -2.17564 -1.32431 0
M  V30 4156 H 401.076 -3.42623 -0.215414 0
M  V30 4157 N 403.521 0.559213 -1.47345 0
M  V30 4158 C 404.454 1.68201 -1.5422 0
M  V30 4159 C 405.432 1.57742 -0.394497 0
M  V30 4160 O 406.616 1.78628 -0.60201 0
M  V30 4161 C 403.743 3.0643 -1.44285 0
M  V30 4162 C 402.789 3.3534 -2.63532 0
M  V30 4163 S 403.622 3.24816 -4.25741 0
M  V30 4164 C 404.778 4.65542 -4.18355 0
M  V30 4165 H 405.011 1.62114 -2.49211 0
M  V30 4166 H 402.544 0.739871 -1.35519 0
M  V30 4167 H 404.502 3.86164 -1.3924 0
M  V30 4168 H 403.163 3.09984 -0.506816 0
M  V30 4169 H 402.356 4.36107 -2.52639 0
M  V30 4170 H 401.958 2.63221 -2.65689 0
M  V30 4171 H 404.25 5.56449 -3.86485 0
M  V30 4172 H 405.193 4.81493 -5.19202 0
M  V30 4173 H 405.601 4.43495 -3.49246 0
M  V30 4174 N 404.999 1.35443 0.805782 0
M  V30 4175 C 406.239 1.30127 1.57627 0
M  V30 4176 C 406.603 -0.122567 1.91608 0
M  V30 4177 O 407.804 -0.300107 2.67119 0
M  V30 4178 C 406.075 2.18314 2.82973 0
M  V30 4179 S 407.634 2.30521 3.7337 0
M  V30 4180 H 404.452 0.462439 0.540066 0
M  V30 4181 H 407.054 1.70843 0.95042 0
M  V30 4182 H 405.758 3.20741 2.56034 0
M  V30 4183 H 405.289 1.78558 3.50543 0
M  V30 4184 H 407.304 1.49062 4.73281 0
M  V30 4185 N 406.477 -1.02803 1.19454 0
M  V30 4186 C 407.702 -1.80378 1.02364 0
M  V30 4187 C 408.127 -1.83282 -0.423007 0
M  V30 4188 O 407.485 -1.25945 -1.30413 0
M  V30 4189 C 407.533 -3.23248 1.59821 0
M  V30 4190 O 406.637 -4.04 0.828105 0
M  V30 4191 H 405.978 -0.556799 0.361761 0
M  V30 4192 H 408.508 -1.29385 1.58495 0
M  V30 4193 H 408.518 -3.73994 1.63073 0
M  V30 4194 H 407.193 -3.2045 2.65113 0
M  V30 4195 H 405.77 -3.62635 0.86891 0
M  V30 4196 N 407.956 -0.998596 -1.21925 0
M  V30 4197 C 409.203 -0.677663 -1.90824 0
M  V30 4198 C 409.531 0.790905 -1.77693 0
M  V30 4199 O 408.786 1.58817 -1.14349 0
M  V30 4200 C 409.085 -1.03648 -3.42041 0
M  V30 4201 C 408.751 -2.49825 -3.75364 0
M  V30 4202 C 407.413 -2.8977 -3.8417 0
M  V30 4203 C 409.765 -3.44545 -3.91073 0
M  V30 4204 C 407.093 -4.23412 -4.06127 0
M  V30 4205 C 409.445 -4.77853 -4.14535 0
M  V30 4206 C 408.109 -5.17531 -4.21566 0
M  V30 4207 H 407.379 -0.247975 -0.698276 0
M  V30 4208 H 410.026 -1.25584 -1.44571 0
M  V30 4209 H 408.331 -0.376457 -3.89987 0
M  V30 4210 H 410.028 -0.766113 -3.93614 0
M  V30 4211 H 406.618 -2.17866 -3.69097 0
M  V30 4212 H 410.802 -3.14853 -3.83642 0
M  V30 4213 H 406.058 -4.53734 -4.09799 0
M  V30 4214 H 410.232 -5.51189 -4.25633 0
M  V30 4215 H 407.859 -6.21102 -4.38333 0
M  V30 4216 N 409.434 1.37368 -0.772513 0
M  V30 4217 C 410.382 2.32134 -0.147111 0
M  V30 4218 C 411.376 1.54972 0.684106 0
M  V30 4219 O 412.582 1.70363 0.581083 0
M  V30 4220 H 408.957 0.751449 -0.028786 0
M  V30 4221 H 410.928 2.82464 -0.962112 0
M  V30 4222 C 409.677 3.40226 0.71703 0
M  V30 4223 H 409 3.99706 0.0867951 0
M  V30 4224 H 410.44 4.08897 1.12159 0
M  V30 4225 C 408.899 2.80372 1.86797 0
M  V30 4226 O 409.429 2.71183 2.96349 0
M  V30 4227 N 407.635 2.37904 1.66883 0
M  V30 4228 H 407.182 2.45578 0.777759 0
M  V30 4229 H 407.14 1.98202 2.44056 0
M  V30 4230 N 410.912 0.523116 1.48665 0
M  V30 4231 C 411.845 -0.290518 2.26343 0
M  V30 4232 C 412.823 -0.950913 1.31895 0
M  V30 4233 O 414.007 -0.976662 1.61225 0
M  V30 4234 C 411.134 -1.41088 3.07915 0
M  V30 4235 C 410.18 -0.862597 4.17686 0
M  V30 4236 S 411.013 0.264135 5.34848 0
M  V30 4237 C 412.169 -0.858864 6.19979 0
M  V30 4238 H 412.402 0.368726 2.95005 0
M  V30 4239 H 409.935 0.30878 1.51281 0
M  V30 4240 H 411.893 -2.0527 3.55492 0
M  V30 4241 H 410.554 -2.04182 2.38681 0
M  V30 4242 H 409.747 -1.70287 4.74361 0
M  V30 4243 H 409.349 -0.297595 3.72814 0
M  V30 4244 H 411.641 -1.7591 6.54264 0
M  V30 4245 H 412.584 -0.330244 7.07329 0
M  V30 4246 H 412.992 -1.13617 5.52948 0
M  V30 4247 N 412.39 -1.55475 0.257931 0
M  V30 4248 C 413.618 -2.03609 -0.367559 0
M  V30 4249 C 414.033 -1.13687 -1.50734 0
M  V30 4250 O 413.39 -0.153479 -1.81853 0
M  V30 4251 C 413.441 -3.51001 -0.864908 0
M  V30 4252 O 413.162 -4.37499 0.229465 0
M  V30 4253 C 414.663 -4.14946 -1.55997 0
M  V30 4254 H 411.883 -0.665459 -0.0860521 0
M  V30 4255 H 414.427 -2.00843 0.385014 0
M  V30 4256 H 412.582 -3.54266 -1.56762 0
M  V30 4257 H 412.996 -5.24286 -0.14998 0
M  V30 4258 H 414.47 -5.19735 -1.85956 0
M  V30 4259 H 414.947 -3.6209 -2.4857 0
M  V30 4260 H 415.553 -4.15635 -0.901543 0
M  V30 4261 N 413.868 0.0150385 -1.57593 0
M  V30 4262 C 415.279 0.559832 -1.78109 0
M  V30 4263 C 415.63 1.74814 -0.890756 0
M  V30 4264 O 414.755 2.16216 -0.0892482 0
M  V30 4265 C 415.35 1.02238 -3.23006 0
M  V30 4266 C 413.909 1.51258 -3.44671 0
M  V30 4267 C 413.056 0.456955 -2.73509 0
M  V30 4268 H 416.007 -0.211169 -1.57289 0
M  V30 4269 H 416.028 1.88912 -3.30292 0
M  V30 4270 H 415.54 0.157302 -3.87781 0
M  V30 4271 H 413.641 2.39905 -2.8509 0
M  V30 4272 H 413.754 1.55042 -4.5332 0
M  V30 4273 H 412.118 0.915196 -2.37689 0
M  V30 4274 H 412.901 -0.398896 -3.40975 0
M  V30 4275 N 415.346 1.54954 0.287554 0
M  V30 4276 C 416.592 1.75132 1.02257 0
M  V30 4277 C 416.925 0.542858 1.86458 0
M  V30 4278 O 416.2 -0.459856 1.88986 0
M  V30 4279 C 416.483 3.04812 1.91733 0
M  V30 4280 C 416.336 4.35985 1.10622 0
M  V30 4281 C 417.655 3.30438 2.90687 0
M  V30 4282 H 414.774 0.637194 0.370341 0
M  V30 4283 H 417.416 1.87678 0.296111 0
M  V30 4284 H 415.566 2.94247 2.53675 0
M  V30 4285 H 417.238 4.58487 0.508636 0
M  V30 4286 H 415.481 4.31865 0.409271 0
M  V30 4287 H 416.152 5.23017 1.76513 0
M  V30 4288 H 418.628 3.40701 2.38877 0
M  V30 4289 H 417.504 4.22467 3.50447 0
M  V30 4290 H 417.765 2.49377 3.65053 0
M  V30 4291 N 416.824 -0.551391 1.4764 0
M  V30 4292 C 418.072 -1.30572 1.54258 0
M  V30 4293 C 418.393 -1.93877 0.208963 0
M  V30 4294 O 417.663 -1.80234 -0.767619 0
M  V30 4295 H 416.243 -0.484894 0.568231 0
M  V30 4296 H 418.905 -0.643402 1.83974 0
M  V30 4297 H 418.001 -2.09621 2.31226 0
M  V30 4298 N 418.302 -1.35869 -0.798587 0
M  V30 4299 C 419.551 -1.28921 -1.5512 0
M  V30 4300 C 419.864 0.13208 -1.95154 0
M  V30 4301 O 421.07 0.323879 -2.69561 0
M  V30 4302 C 419.526 -2.26141 -2.79979 0
M  V30 4303 C 419.134 -3.73658 -2.47151 0
M  V30 4304 C 420.878 -2.28152 -3.57976 0
M  V30 4305 C 418.785 -4.62679 -3.6835 0
M  V30 4306 H 417.715 -0.479031 -0.582276 0
M  V30 4307 H 420.366 -1.61179 -0.877125 0
M  V30 4308 H 418.748 -1.86865 -3.49138 0
M  V30 4309 H 419.922 -4.21616 -1.85947 0
M  V30 4310 H 418.237 -3.74333 -1.82383 0
M  V30 4311 H 420.834 -2.91875 -4.4801 0
M  V30 4312 H 421.177 -1.28748 -3.95891 0
M  V30 4313 H 421.71 -2.65998 -2.95787 0
M  V30 4314 H 418.449 -5.63111 -3.35538 0
M  V30 4315 H 417.969 -4.19442 -4.28752 0
M  V30 4316 H 419.648 -4.78498 -4.35487 0
M  V30 4317 N 419.78 1.02168 -1.19998 0
M  V30 4318 C 421.028 1.75338 -1.00504 0
M  V30 4319 C 421.349 1.89387 0.464506 0
M  V30 4320 O 420.619 1.43268 1.33608 0
M  V30 4321 H 419.199 0.649564 -0.368885 0
M  V30 4322 H 421.861 1.23205 -1.51018 0
M  V30 4323 H 420.957 2.75892 -1.45912 0
M  V30 4324 N 421.258 1.00505 1.21394 0
M  V30 4325 C 422.205 0.565496 2.23765 0
M  V30 4326 C 423.175 -0.408466 1.60999 0
M  V30 4327 O 424.36 -0.310503 1.88257 0
M  V30 4328 C 421.5 -0.101667 3.4495 0
M  V30 4329 C 420.613 0.915479 4.22188 0
M  V30 4330 C 419.748 0.220574 5.30742 0
M  V30 4331 C 418.787 1.22527 5.99711 0
M  V30 4332 N 417.924 0.557831 6.9988 0
M  V30 4333 H 422.764 1.44314 2.60725 0
M  V30 4334 H 420.301 0.722643 1.28126 0
M  V30 4335 H 422.259 -0.505504 4.14126 0
M  V30 4336 H 420.889 -0.94303 3.08718 0
M  V30 4337 H 419.941 1.43756 3.52191 0
M  V30 4338 H 421.253 1.68005 4.69655 0
M  V30 4339 H 420.407 -0.239368 6.06228 0
M  V30 4340 H 419.146 -0.576401 4.84282 0
M  V30 4341 H 418.151 1.69571 5.22997 0
M  V30 4342 H 419.376 2.02332 6.48258 0
M  V30 4343 H 417.322 -0.219486 6.55633 0
M  V30 4344 H 417.239 1.26065 7.45415 0
M  V30 4345 H 418.507 0.121095 7.79406 0
M  V30 4346 N 422.737 -1.36956 0.779787 0
M  V30 4347 C 423.977 -2.01328 0.353043 0
M  V30 4348 C 424.341 -1.60558 -1.05286 0
M  V30 4349 O 425.542 -2.1745 -1.58016 0
M  V30 4350 C 423.813 -3.53874 0.500822 0
M  V30 4351 S 425.372 -4.38506 0.16053 0
M  V30 4352 H 422.19 -0.69799 0.13539 0
M  V30 4353 H 424.792 -1.67016 1.01617 0
M  V30 4354 H 423.496 -3.81034 1.52451 0
M  V30 4355 H 423.027 -3.92994 -0.178574 0
M  V30 4356 H 425.042 -4.85153 -1.04121 0
M  V30 4357 N 424.215 -0.530993 -1.48385 0
M  V30 4358 C 425.145 0.219985 -2.32461 0
M  V30 4359 C 426.126 0.934111 -1.42156 0
M  V30 4360 O 427.311 0.919694 -1.71042 0
M  V30 4361 C 424.441 1.26674 -3.23375 0
M  V30 4362 C 423.395 0.67069 -4.22712 0
M  V30 4363 C 422.721 1.82017 -5.02766 0
M  V30 4364 C 424.021 -0.358268 -5.2107 0
M  V30 4365 H 425.715 -0.48187 -2.95497 0
M  V30 4366 H 423.261 -0.233182 -1.42099 0
M  V30 4367 H 425.214 1.80006 -3.81019 0
M  V30 4368 H 423.938 1.99818 -2.58341 0
M  V30 4369 H 422.597 0.158878 -3.66256 0
M  V30 4370 H 422.245 2.54002 -4.34157 0
M  V30 4371 H 421.945 1.42727 -5.70003 0
M  V30 4372 H 423.469 2.35725 -5.63264 0
M  V30 4373 H 424.883 0.0880081 -5.73232 0
M  V30 4374 H 423.28 -0.66861 -5.96364 0
M  V30 4375 H 424.35 -1.26367 -4.68145 0
M  V30 4376 N 425.693 1.55336 -0.266172 0
M  V30 4377 C 426.64 2.22172 0.625165 0
M  V30 4378 C 427.61 1.19211 1.15663 0
M  V30 4379 O 428.795 1.47723 1.20758 0
M  V30 4380 C 425.935 2.93972 1.8076 0
M  V30 4381 C 425.048 4.11632 1.31084 0
M  V30 4382 C 424.183 4.71099 2.45436 0
M  V30 4383 C 423.222 5.8097 1.92718 0
M  V30 4384 N 422.359 6.34538 3.00509 0
M  V30 4385 H 427.199 2.9796 0.0485582 0
M  V30 4386 H 424.736 1.47095 0.0122024 0
M  V30 4387 H 426.694 3.33811 2.50251 0
M  V30 4388 H 425.324 2.20623 2.35638 0
M  V30 4389 H 424.376 3.76975 0.509326 0
M  V30 4390 H 425.688 4.90893 0.884633 0
M  V30 4391 H 424.842 5.13612 3.22936 0
M  V30 4392 H 423.581 3.91096 2.91368 0
M  V30 4393 H 422.586 5.37916 1.13695 0
M  V30 4394 H 423.811 6.62836 1.47733 0
M  V30 4395 H 421.757 5.57433 3.45839 0
M  V30 4396 H 421.674 7.09046 2.62279 0
M  V30 4397 H 422.942 6.81709 3.78011 0
M  V30 4398 N 427.171 -0.0066808 1.57599 0
M  V30 4399 C 428.401 -0.703066 1.94269 0
M  V30 4400 C 428.809 -1.68206 0.866222 0
M  V30 4401 O 428.152 -1.82966 -0.164087 0
M  V30 4402 C 428.214 -1.49616 3.26887 0
M  V30 4403 C 427.878 -0.679494 4.5192 0
M  V30 4404 C 428.875 0.0299508 5.19891 0
M  V30 4405 C 426.56 -0.627433 4.98366 0
M  V30 4406 C 428.554 0.780514 6.32603 0
M  V30 4407 C 426.241 0.126861 6.10968 0
M  V30 4408 C 427.239 0.829574 6.77943 0
M  V30 4409 O 426.927 1.57157 7.88389 0
M  V30 4410 H 426.659 -0.201217 0.645359 0
M  V30 4411 H 429.213 0.0385326 2.05364 0
M  V30 4412 H 427.443 -2.28209 3.12182 0
M  V30 4413 H 429.132 -2.07726 3.48719 0
M  V30 4414 H 429.898 -0.00115963 4.85 0
M  V30 4415 H 425.777 -1.16392 4.46065 0
M  V30 4416 H 429.321 1.32954 6.84813 0
M  V30 4417 H 425.218 0.159815 6.45302 0
M  V30 4418 H 425.986 1.48758 8.04868 0
M  V30 4419 N 428.649 -1.55105 -0.279332 0
M  V30 4420 C 429.898 -1.74618 -1.00952 0
M  V30 4421 C 430.211 -0.551096 -1.87676 0
M  V30 4422 O 431.417 -0.628507 -2.64125 0
M  V30 4423 C 429.873 -3.09025 -1.84476 0
M  V30 4424 C 429.481 -4.36081 -1.0265 0
M  V30 4425 C 431.225 -3.37891 -2.56963 0
M  V30 4426 C 429.132 -5.6153 -1.85576 0
M  V30 4427 H 428.062 -0.650868 -0.38064 0
M  V30 4428 H 430.713 -1.81569 -0.265475 0
M  V30 4429 H 429.095 -2.96095 -2.62952 0
M  V30 4430 H 430.269 -4.59909 -0.286354 0
M  V30 4431 H 428.584 -4.14312 -0.416464 0
M  V30 4432 H 431.181 -4.28822 -3.19399 0
M  V30 4433 H 431.524 -2.57737 -3.26921 0
M  V30 4434 H 432.057 -3.5189 -1.85522 0
M  V30 4435 H 428.796 -6.44413 -1.2005 0
M  V30 4436 H 428.316 -5.41854 -2.57204 0
M  V30 4437 H 429.995 -5.99594 -2.43096 0
M  V30 4438 N 430.127 0.543554 -1.4793 0
M  V30 4439 C 431.057 1.65888 -1.64327 0
M  V30 4440 C 432.038 1.62818 -0.492383 0
M  V30 4441 O 433.223 1.80226 -0.723338 0
M  V30 4442 C 430.353 3.04506 -1.67013 0
M  V30 4443 C 429.307 3.2243 -2.81466 0
M  V30 4444 C 428.633 4.61972 -2.69233 0
M  V30 4445 C 429.933 3.06496 -4.22915 0
M  V30 4446 H 431.627 1.52421 -2.57698 0
M  V30 4447 H 429.173 0.731849 -1.24016 0
M  V30 4448 H 431.126 3.82391 -1.77074 0
M  V30 4449 H 429.85 3.18964 -0.70212 0
M  V30 4450 H 428.509 2.46957 -2.70938 0
M  V30 4451 H 428.157 4.73247 -1.7043 0
M  V30 4452 H 427.857 4.74911 -3.46025 0
M  V30 4453 H 429.381 5.41974 -2.81242 0
M  V30 4454 H 430.795 3.74186 -4.34348 0
M  V30 4455 H 429.192 3.30938 -5.006 0
M  V30 4456 H 430.262 2.03077 -4.40327 0
M  V30 4457 N 431.605 1.3629 0.791371 0
M  V30 4458 C 432.537 1.26321 1.91248 0
M  V30 4459 C 433.55 0.18313 1.61767 0
M  V30 4460 O 434.739 0.437682 1.73051 0
M  V30 4461 C 431.839 0.925901 3.26007 0
M  V30 4462 C 431.012 2.10746 3.83281 0
M  V30 4463 C 430.071 1.74352 4.96475 0
M  V30 4464 O 429.097 2.46416 5.13096 0
M  V30 4465 N 430.299 0.676058 5.7655 0
M  V30 4466 H 433.064 2.22915 2.00323 0
M  V30 4467 H 430.625 1.29659 0.969546 0
M  V30 4468 H 432.617 0.663636 3.99222 0
M  V30 4469 H 431.187 0.0491581 3.12561 0
M  V30 4470 H 430.407 2.53264 3.02077 0
M  V30 4471 H 431.695 2.8969 4.18279 0
M  V30 4472 H 431.093 0.0776467 5.65647 0
M  V30 4473 H 429.65 0.473612 6.50077 0
M  V30 4474 N 433.083 -1.0153 1.20538 0
M  V30 4475 C 434.329 -1.75517 1.02787 0
M  V30 4476 C 434.684 -1.87411 -0.435289 0
M  V30 4477 O 433.977 -1.38982 -1.31889 0
M  V30 4478 C 434.171 -3.17213 1.64654 0
M  V30 4479 C 434 -3.19134 3.16834 0
M  V30 4480 C 432.77 -3.26301 3.85818 0
M  V30 4481 C 434.968 -3.05077 4.14044 0
M  V30 4482 N 432.95 -3.17739 5.25276 0
M  V30 4483 C 434.321 -3.04299 5.40187 0
M  V30 4484 C 436.376 -2.89303 4.05226 0
M  V30 4485 C 435.079 -2.89365 6.58529 0
M  V30 4486 C 437.105 -2.75723 5.23193 0
M  V30 4487 C 436.467 -2.75612 6.48242 0
M  V30 4488 H 432.566 -0.652919 0.430373 0
M  V30 4489 H 435.15 -1.20755 1.52729 0
M  V30 4490 H 433.321 -3.70266 1.17294 0
M  V30 4491 H 435.053 -3.79637 1.40208 0
M  V30 4492 H 431.808 -3.33078 3.36684 0
M  V30 4493 H 432.232 -3.16829 5.98288 0
M  V30 4494 H 436.874 -2.88201 3.09354 0
M  V30 4495 H 434.592 -2.89216 7.54573 0
M  V30 4496 H 438.178 -2.64533 5.18183 0
M  V30 4497 H 437.058 -2.65224 7.37988 0
M  V30 4498 N 434.561 -1.01147 -1.20859 0
M  V30 4499 C 435.493 -0.535546 -2.22855 0
M  V30 4500 C 436.506 0.379323 -1.58319 0
M  V30 4501 O 437.695 0.178489 -1.77605 0
M  V30 4502 C 434.795 0.240962 -3.38042 0
M  V30 4503 C 433.968 -0.674562 -4.32167 0
M  V30 4504 C 433.027 0.053467 -5.26173 0
M  V30 4505 O 432.053 -0.567339 -5.66366 0
M  V30 4506 N 433.255 1.32997 -5.65059 0
M  V30 4507 H 436.02 -1.41268 -2.64317 0
M  V30 4508 H 433.581 -0.888386 -1.35349 0
M  V30 4509 H 435.573 0.737115 -3.97931 0
M  V30 4510 H 434.143 1.01935 -2.95513 0
M  V30 4511 H 433.363 -1.35111 -3.70322 0
M  V30 4512 H 434.651 -1.2974 -4.91981 0
M  V30 4513 H 434.049 1.85536 -5.34409 0
M  V30 4514 H 432.606 1.77095 -6.2728 0
M  V30 4515 N 436.039 1.36541 -0.78704 0
M  V30 4516 C 436.969 2.32659 -0.197992 0
M  V30 4517 C 437.95 1.56533 0.665697 0
M  V30 4518 O 439.135 1.84698 0.60001 0
M  V30 4519 C 436.265 3.40778 0.669901 0
M  V30 4520 C 435.219 4.27897 -0.0937039 0
M  V30 4521 C 434.545 5.27163 0.894629 0
M  V30 4522 C 435.845 5.06334 -1.28154 0
M  V30 4523 H 437.539 2.82171 -1.00099 0
M  V30 4524 H 435.085 1.35665 -0.482793 0
M  V30 4525 H 437.038 4.07008 1.09191 0
M  V30 4526 H 435.762 2.89827 1.50558 0
M  V30 4527 H 434.421 3.6322 -0.49666 0
M  V30 4528 H 434.069 4.72486 1.72527 0
M  V30 4529 H 433.769 5.86317 0.388149 0
M  V30 4530 H 435.293 5.96266 1.31525 0
M  V30 4531 H 436.707 5.65617 -0.93541 0
M  V30 4532 H 435.104 5.74888 -1.72115 0
M  V30 4533 H 436.174 4.38114 -2.07807 0
M  V30 4534 N 437.518 0.538854 1.48102 0
M  V30 4535 C 438.481 -0.208395 2.28251 0
M  V30 4536 C 439.481 -0.859656 1.35892 0
M  V30 4537 O 440.671 -0.71834 1.58699 0
M  V30 4538 C 437.803 -1.30252 3.15035 0
M  V30 4539 H 438.996 0.495407 2.9578 0
M  V30 4540 H 436.549 0.295112 1.53489 0
M  V30 4541 H 437.284 -2.0393 2.52157 0
M  V30 4542 H 437.069 -0.840551 3.82985 0
M  V30 4543 H 438.559 -1.82787 3.75471 0
M  V30 4544 N 438.996 -1.55193 0.274407 0
M  V30 4545 C 440.224 -2.03987 -0.345943 0
M  V30 4546 C 440.639 -1.15279 -1.4952 0
M  V30 4547 O 439.996 -0.172759 -1.8168 0
M  V30 4548 C 440.047 -3.51898 -0.827631 0
M  V30 4549 O 439.768 -4.37231 0.275855 0
M  V30 4550 C 441.269 -4.16577 -1.51587 0
M  V30 4551 H 438.489 -0.666335 -0.0789892 0
M  V30 4552 H 441.033 -2.00423 0.406294 0
M  V30 4553 H 439.188 -3.55909 -1.52996 0
M  V30 4554 H 439.602 -5.24415 -0.0943638 0
M  V30 4555 H 441.076 -5.21678 -1.80433 0
M  V30 4556 H 441.553 -3.64707 -2.44716 0
M  V30 4557 H 442.159 -4.16568 -0.857409 0
M  V30 4558 N 440.474 -0.00167713 -1.576 0
M  V30 4559 C 441.404 0.988091 -2.11563 0
M  V30 4560 C 442.385 1.35736 -1.02517 0
M  V30 4561 O 443.57 1.44082 -1.30208 0
M  V30 4562 C 440.7 2.27941 -2.62031 0
M  V30 4563 C 439.654 2.0517 -3.75619 0
M  V30 4564 C 438.98 3.4033 -4.12407 0
M  V30 4565 C 440.28 1.41294 -5.02825 0
M  V30 4566 H 441.974 0.538771 -2.94513 0
M  V30 4567 H 439.52 0.257712 -1.41675 0
M  V30 4568 H 441.473 2.97539 -2.9841 0
M  V30 4569 H 440.197 2.74989 -1.76205 0
M  V30 4570 H 438.856 1.37998 -3.39635 0
M  V30 4571 H 438.504 3.85085 -3.23603 0
M  V30 4572 H 438.204 3.25909 -4.88935 0
M  V30 4573 H 439.728 4.1124 -4.51347 0
M  V30 4574 H 441.142 2.00851 -5.36965 0
M  V30 4575 H 439.539 1.37356 -5.84169 0
M  V30 4576 H 440.609 0.382362 -4.8339 0
M  V30 4577 N 441.952 1.55251 0.271103 0
M  V30 4578 C 443.201 1.75151 1.00025 0
M  V30 4579 C 443.514 0.561041 1.87381 0
M  V30 4580 O 444.72 0.642506 2.63788 0
M  V30 4581 C 443.176 3.09999 1.82835 0
M  V30 4582 C 442.784 4.3662 1.00336 0
M  V30 4583 C 444.528 3.39249 2.55168 0
M  V30 4584 C 442.435 5.62506 1.82595 0
M  V30 4585 H 441.365 0.652877 0.377183 0
M  V30 4586 H 444.016 1.81708 0.255843 0
M  V30 4587 H 442.398 2.97485 2.61378 0
M  V30 4588 H 443.572 4.60055 0.261959 0
M  V30 4589 H 441.887 4.14527 0.394486 0
M  V30 4590 H 444.484 4.3051 3.1712 0
M  V30 4591 H 444.827 2.59467 3.2555 0
M  V30 4592 H 445.36 3.52869 1.83653 0
M  V30 4593 H 442.099 6.45041 1.16631 0
M  V30 4594 H 441.619 5.43211 2.54327 0
M  V30 4595 H 443.298 6.00875 2.39913 0
M  V30 4596 N 443.43 -0.535701 1.48216 0
M  V30 4597 C 444.36 -1.65014 1.65204 0
M  V30 4598 C 445.341 -1.62554 0.501011 0
M  V30 4599 O 446.526 -1.7984 0.732886 0
M  V30 4600 C 443.656 -3.03616 1.68626 0
M  V30 4601 C 442.61 -3.20932 2.83172 0
M  V30 4602 C 441.936 -4.60537 2.71679 0
M  V30 4603 C 443.236 -3.04249 4.24535 0
M  V30 4604 H 444.93 -1.51053 2.58502 0
M  V30 4605 H 442.476 -0.725262 1.24402 0
M  V30 4606 H 444.429 -3.81446 1.79099 0
M  V30 4607 H 443.153 -3.18587 0.719026 0
M  V30 4608 H 441.812 -2.45517 2.72244 0
M  V30 4609 H 441.46 -4.72336 1.72937 0
M  V30 4610 H 441.16 -4.73069 3.48538 0
M  V30 4611 H 442.684 -5.40475 2.84112 0
M  V30 4612 H 444.098 -3.71877 4.36326 0
M  V30 4613 H 442.495 -3.28278 5.02348 0
M  V30 4614 H 443.565 -2.00739 4.41397 0
M  V30 4615 N 444.908 -1.36708 -0.784132 0
M  V30 4616 C 446.156 -1.30972 -1.53918 0
M  V30 4617 C 446.477 0.109086 -1.94695 0
M  V30 4618 O 445.747 1.05048 -1.65353 0
M  V30 4619 H 444.327 -0.481819 -0.570841 0
M  V30 4620 H 446.989 -1.71063 -0.934002 0
M  V30 4621 H 446.085 -1.94061 -2.44431 0
M  V30 4622 N 446.386 1.0089 -1.21074 0
M  V30 4623 C 447.634 1.74262 -1.02358 0
M  V30 4624 C 447.955 1.89869 0.444393 0
M  V30 4625 O 447.225 1.44677 1.32081 0
M  V30 4626 H 445.805 0.645615 -0.375754 0
M  V30 4627 H 448.467 1.21596 -1.52317 0
M  V30 4628 H 447.563 2.74328 -1.4883 0
M  V30 4629 N 447.864 1.01787 1.20321 0
M  V30 4630 C 449.112 0.706538 1.89347 0
M  V30 4631 C 449.433 -0.766289 1.79313 0
M  V30 4632 O 448.703 -1.55126 1.19635 0
M  V30 4633 H 447.283 0.258348 0.700903 0
M  V30 4634 H 449.945 1.28974 1.46122 0
M  V30 4635 H 449.041 0.991066 2.95946 0
M  V30 4636 N 449.342 -1.36122 0.79427 0
M  V30 4637 C 450.59 -1.98718 0.368177 0
M  V30 4638 C 450.911 -1.63345 -1.06506 0
M  V30 4639 O 450.181 -0.909825 -1.73491 0
M  V30 4640 H 448.761 -0.735038 0.133146 0
M  V30 4641 H 451.423 -1.66239 1.01739 0
M  V30 4642 H 450.519 -3.08633 0.463923 0
M  V30 4643 N 450.82 -0.546701 -1.47814 0
M  V30 4644 C 452.05 -0.0232519 -2.06587 0
M  V30 4645 C 452.458 1.2712 -1.40133 0
M  V30 4646 O 451.801 1.77091 -0.488305 0
M  V30 4647 C 451.863 0.254117 -3.58601 0
M  V30 4648 C 451.527 -0.949331 -4.47031 0
M  V30 4649 C 452.524 -1.85216 -4.85789 0
M  V30 4650 C 450.209 -1.16104 -4.88697 0
M  V30 4651 C 452.203 -2.95047 -5.65001 0
M  V30 4652 C 449.89 -2.26247 -5.67676 0
M  V30 4653 C 450.888 -3.1555 -6.05737 0
M  V30 4654 O 450.576 -4.23784 -6.83127 0
M  V30 4655 H 450.308 -0.0380082 -0.674931 0
M  V30 4656 H 452.862 -0.756631 -1.90956 0
M  V30 4657 H 451.092 1.04168 -3.72406 0
M  V30 4658 H 452.781 0.72167 -3.99433 0
M  V30 4659 H 453.547 -1.70061 -4.54207 0
M  V30 4660 H 449.426 -0.475159 -4.58545 0
M  V30 4661 H 452.97 -3.64778 -5.94628 0
M  V30 4662 H 448.867 -2.41379 -5.98671 0
M  V30 4663 H 449.635 -4.21701 -7.01506 0
M  V30 4664 N 452.299 1.55045 -0.282633 0
M  V30 4665 C 453.247 2.24254 0.617478 0
M  V30 4666 C 454.241 1.24215 1.15183 0
M  V30 4667 O 455.447 1.42123 1.10459 0
M  V30 4668 H 451.822 0.719801 0.217693 0
M  V30 4669 H 453.793 2.98398 0.0110076 0
M  V30 4670 C 452.542 2.98281 1.78672 0
M  V30 4671 H 451.865 3.75053 1.38475 0
M  V30 4672 H 453.305 3.50017 2.393 0
M  V30 4673 C 451.764 2.04184 2.67975 0
M  V30 4674 O 452.294 1.59792 3.6855 0
M  V30 4675 N 450.5 1.70526 2.35307 0
M  V30 4676 H 450.047 2.06821 1.53567 0
M  V30 4677 H 450.005 1.07839 2.95327 0
M  V30 4678 N 453.777 0.010035 1.57597 0
M  V30 4679 C 454.707 -0.976857 2.12084 0
M  V30 4680 C 455.688 -1.35191 1.03235 0
M  V30 4681 O 456.873 -1.43389 1.3097 0
M  V30 4682 C 454.003 -2.26548 2.63236 0
M  V30 4683 C 452.957 -2.03175 3.76701 0
M  V30 4684 C 452.283 -3.38138 4.14206 0
M  V30 4685 C 453.583 -1.38625 5.03568 0
M  V30 4686 H 455.277 -0.523145 2.94794 0
M  V30 4687 H 452.823 -0.250195 1.4181 0
M  V30 4688 H 454.776 -2.95952 2.99984 0
M  V30 4689 H 453.5 -2.74051 1.77661 0
M  V30 4690 H 452.159 -1.36195 3.40362 0
M  V30 4691 H 451.807 -3.83363 3.25641 0
M  V30 4692 H 451.507 -3.23312 4.90656 0
M  V30 4693 H 453.031 -4.08841 4.53521 0
M  V30 4694 H 454.445 -1.98 5.38023 0
M  V30 4695 H 452.842 -1.34256 5.84889 0
M  V30 4696 H 453.912 -0.356722 4.83586 0
M  V30 4697 N 455.255 -1.55392 -0.262866 0
M  V30 4698 C 456.218 -1.88181 -1.30846 0
M  V30 4699 C 457.218 -0.757079 -1.41862 0
M  V30 4700 O 458.408 -1.02519 -1.40838 0
M  V30 4701 C 455.54 -2.09609 -2.68844 0
M  V30 4702 H 456.733 -2.81659 -1.02997 0
M  V30 4703 H 454.286 -1.48039 -0.501414 0
M  V30 4704 H 455.021 -1.18547 -3.01856 0
M  V30 4705 H 454.806 -2.91508 -2.62231 0
M  V30 4706 H 456.296 -2.36215 -3.44372 0
M  V30 4707 N 456.733 0.527833 -1.48498 0
M  V30 4708 C 457.681 1.65313 -1.63628 0
M  V30 4709 C 458.675 1.6177 -0.502676 0
M  V30 4710 O 459.881 1.66601 -0.681469 0
M  V30 4711 H 456.256 0.547518 -0.515488 0
M  V30 4712 H 458.227 1.49696 -2.58135 0
M  V30 4713 C 456.976 3.03576 -1.6952 0
M  V30 4714 H 456.299 3.06997 -2.56111 0
M  V30 4715 H 457.739 3.81923 -1.84149 0
M  V30 4716 C 456.198 3.34089 -0.43432 0
M  V30 4717 O 456.728 3.99151 0.451852 0
M  V30 4718 N 454.934 2.88991 -0.305368 0
M  V30 4719 H 454.481 2.36222 -1.02747 0
M  V30 4720 H 454.439 3.09776 0.537249 0
M  V30 4721 N 458.211 1.37122 0.776871 0
M  V30 4722 C 459.439 1.3523 1.5659 0
M  V30 4723 C 459.854 -0.0635518 1.88693 0
M  V30 4724 O 459.211 -1.02394 1.51069 0
M  V30 4725 C 459.262 2.18583 2.8793 0
M  V30 4726 O 458.983 3.5465 2.57206 0
M  V30 4727 C 460.484 2.24612 3.82183 0
M  V30 4728 H 457.704 0.4634 0.485285 0
M  V30 4729 H 460.248 1.80392 0.963266 0
M  V30 4730 H 458.403 1.76943 3.4463 0
M  V30 4731 H 458.817 3.98286 3.41275 0
M  V30 4732 H 460.291 2.87267 4.71361 0
M  V30 4733 H 460.768 1.25309 4.20944 0
M  V30 4734 H 461.374 2.66543 3.31414 0
M  V30 4735 N 459.689 -1.00246 1.21608 0
M  V30 4736 C 460.652 -2.07233 0.979133 0
M  V30 4737 C 461.652 -1.6072 -0.0508219 0
M  V30 4738 O 462.842 -1.73196 0.186712 0
M  V30 4739 C 459.974 -3.37546 0.477016 0
M  V30 4740 H 461.167 -2.29687 1.92831 0
M  V30 4741 H 458.72 -1.17261 1.03342 0
M  V30 4742 H 459.455 -3.20773 -0.476966 0
M  V30 4743 H 459.24 -3.72638 1.21997 0
M  V30 4744 H 460.73 -4.16285 0.331181 0
M  V30 4745 N 461.167 -1.02423 -1.1978 0
M  V30 4746 C 462.583 -0.740459 -1.41384 0
M  V30 4747 C 462.783 0.676827 -1.89793 0
M  V30 4748 O 461.839 1.4435 -2.0717 0
M  V30 4749 C 463.152 -1.77264 -2.42895 0
M  V30 4750 C 464.7 -1.79165 -2.56649 0
M  V30 4751 C 465.175 -2.8133 -3.6141 0
M  V30 4752 N 466.666 -2.80118 -3.68901 0
M  V30 4753 C 467.401 -3.55824 -4.49641 0
M  V30 4754 N 466.897 -4.41231 -5.34123 0
M  V30 4755 N 468.69 -3.44387 -4.44246 0
M  V30 4756 H 460.841 -1.9391 -0.866764 0
M  V30 4757 H 463.104 -0.838074 -0.443098 0
M  V30 4758 H 462.81 -2.7884 -2.14339 0
M  V30 4759 H 462.684 -1.59108 -3.42001 0
M  V30 4760 H 465.071 -0.782702 -2.84531 0
M  V30 4761 H 465.152 -2.01396 -1.57713 0
M  V30 4762 H 464.796 -3.82394 -3.34271 0
M  V30 4763 H 464.726 -2.56359 -4.59986 0
M  V30 4764 H 467.217 -2.1817 -3.08562 0
M  V30 4765 H 467.53 -4.95747 -5.92836 0
M  V30 4766 H 465.875 -4.45306 -5.33599 0
M  V30 4767 H 469.066 -2.7708 -3.77285 0
M  V30 4768 H 469.239 -4.0364 -5.06931 0
M  V30 4769 N 462.645 1.35699 -0.801477 0
M  V30 4770 C 463.885 2.00741 -0.385027 0
M  V30 4771 C 464.249 1.62213 1.02718 0
M  V30 4772 O 465.45 2.19936 1.54537 0
M  V30 4773 C 463.721 3.53032 -0.557057 0
M  V30 4774 S 465.28 4.38195 -0.230272 0
M  V30 4775 H 462.098 0.695748 -0.146477 0
M  V30 4776 H 464.7 1.65378 -1.04261 0
M  V30 4777 H 463.404 3.7856 -1.58494 0
M  V30 4778 H 462.935 3.93229 0.116029 0
M  V30 4779 H 464.95 4.86748 0.963895 0
M  V30 4780 N 464.123 0.554532 1.47522 0
M  V30 4781 C 465.369 0.0377449 2.03365 0
M  V30 4782 C 465.724 -1.29654 1.42154 0
M  V30 4783 O 465.017 -1.83022 0.566865 0
M  V30 4784 C 465.211 -0.115927 3.57212 0
M  V30 4785 C 465.04 1.20191 4.33341 0
M  V30 4786 C 463.81 1.76849 4.73342 0
M  V30 4787 C 466.008 2.11849 4.68641 0
M  V30 4788 N 463.99 3.02665 5.34104 0
M  V30 4789 C 465.361 3.22245 5.29677 0
M  V30 4790 C 467.416 2.11876 4.5057 0
M  V30 4791 C 466.119 4.32763 5.74551 0
M  V30 4792 C 468.145 3.21405 4.9644 0
M  V30 4793 C 467.507 4.30519 5.57523 0
M  V30 4794 H 463.606 0.0559107 0.779999 0
M  V30 4795 H 466.19 0.741232 1.80038 0
M  V30 4796 H 464.361 -0.788533 3.80311 0
M  V30 4797 H 466.093 -0.634538 3.99695 0
M  V30 4798 H 462.848 1.30681 4.55214 0
M  V30 4799 H 463.272 3.66788 5.69031 0
M  V30 4800 H 467.914 1.28801 4.02704 0
M  V30 4801 H 465.632 5.166 6.2141 0
M  V30 4802 H 469.218 3.22509 4.8423 0
M  V30 4803 H 468.098 5.13873 5.92371 0
M  V30 4804 N 465.601 -1.54893 0.290851 0
M  V30 4805 C 466.829 -2.04343 -0.324288 0
M  V30 4806 C 467.244 -1.16859 -1.48289 0
M  V30 4807 O 466.601 -0.192018 -1.81487 0
M  V30 4808 C 466.652 -3.52756 -0.79026 0
M  V30 4809 O 466.373 -4.36913 0.322213 0
M  V30 4810 C 467.874 -4.18161 -1.4716 0
M  V30 4811 H 465.094 -0.667135 -0.0719173 0
M  V30 4812 H 467.638 -1.99981 0.427529 0
M  V30 4813 H 465.793 -3.57511 -1.49213 0
M  V30 4814 H 466.207 -5.24486 -0.0387372 0
M  V30 4815 H 467.681 -5.23562 -1.7489 0
M  V30 4816 H 468.158 -3.67282 -2.40834 0
M  V30 4817 H 468.764 -4.17454 -0.813178 0
M  V30 4818 N 467.08 -0.0183926 -1.57589 0
M  V30 4819 C 468.31 0.67207 -1.95363 0
M  V30 4820 C 468.718 1.66807 -0.892872 0
M  V30 4821 O 468.061 1.83204 0.134958 0
M  V30 4822 C 468.123 1.44397 -3.29226 0
M  V30 4823 C 467.787 0.607511 -4.52944 0
M  V30 4824 C 468.784 -0.112657 -5.19778 0
M  V30 4825 C 466.469 0.548068 -4.99301 0
M  V30 4826 C 468.463 -0.881057 -6.31281 0
M  V30 4827 C 466.15 -0.224044 -6.10689 0
M  V30 4828 C 467.148 -0.937323 -6.76538 0
M  V30 4829 O 466.836 -1.6968 -7.85789 0
M  V30 4830 H 466.568 0.190925 -0.648478 0
M  V30 4831 H 469.122 -0.0711994 -2.05277 0
M  V30 4832 H 467.352 2.23214 -3.15773 0
M  V30 4833 H 469.041 2.02152 -3.51979 0
M  V30 4834 H 469.807 -0.0759998 -4.8494 0
M  V30 4835 H 465.686 1.09281 -4.4786 0
M  V30 4836 H 469.23 -1.43832 -6.82611 0
M  V30 4837 H 465.127 -0.262457 -6.44966 0
M  V30 4838 H 465.895 -1.61544 -8.024 0
M  V30 4839 N 468.558 1.5553 0.254621 0
M  V30 4840 C 469.488 1.9268 1.31897 0
M  V30 4841 C 470.469 0.790797 1.506 0
M  V30 4842 O 471.654 1.05045 1.63337 0
M  V30 4843 C 468.784 2.21477 2.67517 0
M  V30 4844 C 467.738 3.37256 2.63519 0
M  V30 4845 C 467.064 3.51576 4.02862 0
M  V30 4846 C 468.364 4.73157 2.21179 0
M  V30 4847 H 470.058 2.81832 1.01051 0
M  V30 4848 H 467.604 1.35599 0.484662 0
M  V30 4849 H 469.557 2.46055 3.42104 0
M  V30 4850 H 468.281 1.29144 2.99982 0
M  V30 4851 H 466.94 3.12675 1.9139 0
M  V30 4852 H 466.588 2.56676 4.32581 0
M  V30 4853 H 466.288 4.2943 4.01078 0
M  V30 4854 H 467.812 3.78467 4.79161 0
M  V30 4855 H 469.226 4.97158 2.85494 0
M  V30 4856 H 467.623 5.54058 2.30521 0
M  V30 4857 H 468.693 4.70739 1.16332 0
M  V30 4858 N 470.036 -0.519951 1.48776 0
M  V30 4859 C 471.264 -1.29971 1.60982 0
M  V30 4860 C 471.679 -1.86803 0.273885 0
M  V30 4861 O 471.036 -1.66904 -0.738193 0
M  V30 4862 C 471.087 -2.44346 2.66415 0
M  V30 4863 O 470.808 -1.89855 3.94825 0
M  V30 4864 C 472.309 -3.36014 2.89153 0
M  V30 4865 H 469.529 -0.394891 0.542496 0
M  V30 4866 H 472.073 -0.626214 1.94676 0
M  V30 4867 H 470.228 -3.07562 2.35552 0
M  V30 4868 H 470.642 -2.64798 4.5275 0
M  V30 4869 H 472.116 -4.12593 3.66703 0
M  V30 4870 H 472.593 -3.91859 1.98351 0
M  V30 4871 H 473.199 -2.78582 3.21359 0
M  V30 4872 N 471.514 -1.37532 -0.769588 0
M  V30 4873 C 472.762 -1.32597 -1.5252 0
M  V30 4874 C 473.083 0.0884294 -1.94799 0
M  V30 4875 O 472.353 1.03289 -1.66458 0
M  V30 4876 H 470.933 -0.487846 -0.565699 0
M  V30 4877 H 473.595 -1.72044 -0.915806 0
M  V30 4878 H 472.691 -1.96643 -2.42359 0
M  V30 4879 N 472.992 0.995999 -1.22138 0
M  V30 4880 C 474.238 1.73767 -1.04561 0
M  V30 4881 C 474.571 1.89633 0.418698 0
M  V30 4882 O 473.846 1.43723 1.3105 0
M  V30 4883 C 474.129 3.14505 -1.75382 0
M  V30 4884 C 473.982 3.06306 -3.29388 0
M  V30 4885 C 475.301 4.13615 -1.50369 0
M  V30 4886 H 472.42 0.630728 -0.38125 0
M  V30 4887 H 475.062 1.16057 -1.50435 0
M  V30 4888 H 473.212 3.63775 -1.36383 0
M  V30 4889 H 474.884 2.64681 -3.77812 0
M  V30 4890 H 473.127 2.43186 -3.59226 0
M  V30 4891 H 473.798 4.05884 -3.74116 0
M  V30 4892 H 476.274 3.73089 -1.84239 0
M  V30 4893 H 475.15 5.10212 -2.02421 0
M  V30 4894 H 475.411 4.39949 -0.435611 0
M  V30 4895 N 474.47 1.03057 1.19235 0
M  V30 4896 C 475.719 0.72326 1.88287 0
M  V30 4897 C 476.032 -0.751333 1.80594 0
M  V30 4898 O 477.238 -1.17176 2.44912 0
M  V30 4899 C 475.694 1.24338 3.3774 0
M  V30 4900 C 475.302 2.74587 3.53986 0
M  V30 4901 C 477.046 1.01213 4.12257 0
M  V30 4902 C 474.953 3.20009 4.97341 0
M  V30 4903 H 473.883 0.266848 0.705201 0
M  V30 4904 H 476.534 1.24509 1.34795 0
M  V30 4905 H 474.916 0.649457 3.90638 0
M  V30 4906 H 476.09 3.39649 3.11408 0
M  V30 4907 H 474.405 2.9601 2.9286 0
M  V30 4908 H 477.002 1.32675 5.17978 0
M  V30 4909 H 477.345 -0.051001 4.16269 0
M  V30 4910 H 477.878 1.57014 3.65501 0
M  V30 4911 H 474.617 4.25659 4.98493 0
M  V30 4912 H 474.137 2.59676 5.40674 0
M  V30 4913 H 475.816 3.13447 5.66003 0
M  V30 4914 N 475.948 -1.35272 0.808662 0
M  V30 4915 C 476.878 -2.32315 0.234981 0
M  V30 4916 C 477.859 -1.57572 -0.64071 0
M  V30 4917 O 479.044 -1.8563 -0.570551 0
M  V30 4918 C 476.174 -3.41801 -0.615601 0
M  V30 4919 C 475.128 -4.27694 0.161767 0
M  V30 4920 C 474.454 -5.28519 -0.810649 0
M  V30 4921 C 475.754 -5.04231 1.36193 0
M  V30 4922 H 477.448 -2.80543 1.04575 0
M  V30 4923 H 474.994 -1.3488 0.504315 0
M  V30 4924 H 476.947 -4.08693 -1.02702 0
M  V30 4925 H 475.671 -2.92186 -1.45928 0
M  V30 4926 H 474.33 -3.62384 0.554382 0
M  V30 4927 H 473.978 -4.75171 -1.64988 0
M  V30 4928 H 473.678 -5.8686 -0.294822 0
M  V30 4929 H 475.202 -5.98283 -1.22023 0
M  V30 4930 H 476.616 -5.64058 1.02528 0
M  V30 4931 H 475.013 -5.72077 1.81239 0
M  V30 4932 H 476.083 -4.34753 2.14751 0
M  V30 4933 N 477.426 -0.562348 -1.47226 0
M  V30 4934 C 478.674 -0.0401371 -2.0206 0
M  V30 4935 C 478.995 1.3165 -1.43852 0
M  V30 4936 O 478.265 1.85976 -0.615599 0
M  V30 4937 H 476.845 -0.0118479 -0.746906 0
M  V30 4938 H 479.507 -0.73352 -1.8057 0
M  V30 4939 H 478.603 0.0441254 -3.12069 0
M  V30 4940 N 478.904 1.54736 -0.299062 0
M  V30 4941 C 479.851 2.23448 0.577899 0
M  V30 4942 C 480.821 1.21637 1.13109 0
M  V30 4943 O 482.006 1.50252 1.17597 0
M  V30 4944 C 479.146 2.9774 1.74484 0
M  V30 4945 C 478.259 4.1432 1.22323 0
M  V30 4946 C 477.394 4.76199 2.35388 0
M  V30 4947 C 476.433 5.84927 1.80351 0
M  V30 4948 N 475.57 6.4077 2.86982 0
M  V30 4949 H 480.41 2.97996 -0.0146545 0
M  V30 4950 H 477.947 1.47088 -0.0190013 0
M  V30 4951 H 479.905 3.39045 2.43114 0
M  V30 4952 H 478.535 2.25572 2.30905 0
M  V30 4953 H 477.587 3.7797 0.429249 0
M  V30 4954 H 478.899 4.92659 0.780309 0
M  V30 4955 H 478.053 5.20346 3.11969 0
M  V30 4956 H 476.792 3.97188 2.83006 0
M  V30 4957 H 475.797 5.40207 1.02259 0
M  V30 4958 H 477.022 6.65821 1.3364 0
M  V30 4959 H 474.968 5.64643 3.33938 0
M  V30 4960 H 474.885 7.1445 2.4718 0
M  V30 4961 H 476.153 6.89574 3.63466 0
M  V30 4962 N 480.382 0.0267497 1.57577 0
M  V30 4963 C 481.61 -0.662661 1.96001 0
M  V30 4964 C 482.025 -1.65799 0.903117 0
M  V30 4965 O 481.382 -1.82135 -0.115317 0
M  V30 4966 C 481.433 -1.37112 3.34488 0
M  V30 4967 O 481.154 -0.415683 4.36123 0
M  V30 4968 C 482.655 -2.15257 3.8753 0
M  V30 4969 H 479.875 -0.18287 0.6456 0
M  V30 4970 H 482.419 0.0858116 2.0432 0
M  V30 4971 H 480.574 -2.07101 3.27395 0
M  V30 4972 H 480.988 -0.918496 5.16395 0
M  V30 4973 H 482.462 -2.60285 4.86781 0
M  V30 4974 H 482.939 -2.99063 3.21649 0
M  V30 4975 H 483.545 -1.50231 3.97883 0
M  V30 4976 N 481.861 -1.55662 -0.24637 0
M  V30 4977 C 482.791 -1.93377 -1.30873 0
M  V30 4978 C 483.772 -0.798773 -1.50179 0
M  V30 4979 O 484.957 -1.0591 -1.62778 0
M  V30 4980 C 482.087 -2.22893 -2.66338 0
M  V30 4981 C 481.041 -3.38649 -2.61727 0
M  V30 4982 C 480.367 -3.53708 -4.00992 0
M  V30 4983 C 481.667 -4.74323 -2.18666 0
M  V30 4984 H 483.361 -2.82363 -0.995552 0
M  V30 4985 H 480.907 -1.35854 -0.477464 0
M  V30 4986 H 482.86 -2.47866 -3.40794 0
M  V30 4987 H 481.584 -1.30733 -2.99293 0
M  V30 4988 H 480.243 -3.13685 -1.89729 0
M  V30 4989 H 479.891 -2.58967 -4.31214 0
M  V30 4990 H 479.591 -4.31551 -3.98795 0
M  V30 4991 H 481.115 -3.81003 -4.77147 0
M  V30 4992 H 482.529 -4.98665 -2.82854 0
M  V30 4993 H 480.926 -5.55273 -2.27579 0
M  V30 4994 H 481.996 -4.71349 -1.13834 0
M  V30 4995 N 483.339 0.512053 -1.4905 0
M  V30 4996 C 484.564 1.2959 -1.6193 0
M  V30 4997 C 484.989 1.85906 -0.286454 0
M  V30 4998 O 484.347 1.65312 0.744426 0
M  V30 4999 C 484.395 2.40987 -2.68249 0
M  V30 5000 O 483.499 3.44531 -2.26654 0
M  V30 5001 H 482.84 0.383053 -0.542371 0
M  V30 5002 H 485.37 0.614231 -1.95162 0
M  V30 5003 H 485.38 2.86913 -2.90078 0
M  V30 5004 H 484.055 1.99361 -3.65004 0
M  V30 5005 H 482.632 3.046 -2.15112 0
M  V30 5006 N 484.817 1.37938 0.762283 0
M  V30 5007 C 486.042 1.37059 1.55659 0
M  V30 5008 C 486.467 -0.0396123 1.88058 0
M  V30 5009 O 485.825 -1.01929 1.49934 0
M  V30 5010 C 485.873 2.22494 2.83776 0
M  V30 5011 O 484.977 1.63607 3.78559 0
M  V30 5012 H 484.318 0.467892 0.47114 0
M  V30 5013 H 486.848 1.81587 0.942725 0
M  V30 5014 H 486.858 2.36045 3.32786 0
M  V30 5015 H 485.533 3.24993 2.59524 0
M  V30 5016 H 484.11 1.5915 3.37233 0
M  V30 5017 N 486.295 -0.989507 1.22664 0
M  V30 5018 C 487.205 -2.11449 1.01619 0
M  V30 5019 C 488.221 -1.73962 -0.036545 0
M  V30 5020 O 489.397 -2.00788 0.156924 0
M  V30 5021 C 486.462 -3.41465 0.600204 0
M  V30 5022 C 485.523 -3.93033 1.72695 0
M  V30 5023 C 484.756 -5.16844 1.33071 0
M  V30 5024 O 484.979 -5.7001 0.210975 0
M  V30 5025 O 483.913 -5.6225 2.14845 0
M  V30 5026 H 487.739 -2.32088 1.9588 0
M  V30 5027 H 485.324 -1.09823 1.01289 0
M  V30 5028 H 487.206 -4.19695 0.37873 0
M  V30 5029 H 485.881 -3.22178 -0.313511 0
M  V30 5030 H 484.788 -3.15961 2.00298 0
M  V30 5031 H 486.121 -4.16758 2.61865 0
M  V30 5032 N 487.773 -1.03688 -1.18687 0
M  V30 5033 C 489.022 -0.733235 -1.879 0
M  V30 5034 C 489.335 0.741745 -1.8099 0
M  V30 5035 O 490.541 1.15875 -2.4553 0
M  V30 5036 C 488.997 -1.26127 -3.37076 0
M  V30 5037 C 488.605 -2.76461 -3.52524 0
M  V30 5038 C 490.349 -1.03398 -4.11715 0
M  V30 5039 C 488.256 -3.22642 -4.95637 0
M  V30 5040 H 487.186 -0.270584 -0.703776 0
M  V30 5041 H 489.837 -1.25222 -1.34133 0
M  V30 5042 H 488.219 -0.670165 -3.90288 0
M  V30 5043 H 489.393 -3.41296 -3.09602 0
M  V30 5044 H 487.708 -2.97559 -2.91286 0
M  V30 5045 H 490.305 -1.3542 -5.17267 0
M  V30 5046 H 490.648 0.0289246 -4.1629 0
M  V30 5047 H 491.181 -1.5895 -3.64664 0
M  V30 5048 H 487.92 -4.28296 -4.96228 0
M  V30 5049 H 487.44 -2.62539 -5.39289 0
M  V30 5050 H 489.119 -3.16444 -5.64333 0
M  V30 5051 N 489.251 1.34841 -0.815825 0
M  V30 5052 C 490.662 1.80937 -0.46029 0
M  V30 5053 C 491.013 1.67685 1.01863 0
M  V30 5054 O 490.138 1.21277 1.79223 0
M  V30 5055 C 490.733 3.28509 -0.828708 0
M  V30 5056 C 489.292 3.72712 -0.525644 0
M  V30 5057 C 488.439 2.56676 -1.04941 0
M  V30 5058 H 491.39 1.22688 -1.00664 0
M  V30 5059 H 491.411 3.80279 -0.129757 0
M  V30 5060 H 490.923 3.38122 -1.90513 0
M  V30 5061 H 489.024 3.68642 0.541666 0
M  V30 5062 H 489.137 4.67119 -1.06474 0
M  V30 5063 H 487.501 2.50302 -0.471286 0
M  V30 5064 H 488.284 2.69063 -2.13214 0
M  V30 5065 N 490.729 0.570148 1.46925 0
M  V30 5066 C 492.006 -0.0153259 1.95594 0
M  V30 5067 C 492.386 -1.47232 1.51281 0
M  V30 5068 O 491.734 -2.15574 0.757624 0
M  V30 5069 C 491.944 0.143624 3.48704 0
M  V30 5070 C 493.292 0.00494484 4.246 0
M  V30 5071 O 494.316 0.0718214 3.56128 0
M  V30 5072 O 493.175 -0.141175 5.46318 0
M  V30 5073 H 490.269 -0.0568819 0.825041 0
M  V30 5074 H 492.815 0.637583 1.57267 0
M  V30 5075 H 491.587 1.15699 3.73804 0
M  V30 5076 H 491.21 -0.5463 3.93829 0
M  V30 5077 N 492.207 -1.54576 0.307264 0
M  V30 5078 C 493.157 -2.20467 -0.581249 0
M  V30 5079 C 494.141 -1.17972 -1.09414 0
M  V30 5080 O 495.333 -1.43667 -1.03387 0
M  V30 5081 C 492.462 -2.95369 -1.74963 0
M  V30 5082 C 491.548 -4.05186 -1.25241 0
M  V30 5083 N 491.939 -5.03577 -0.47364 0
M  V30 5084 C 490.237 -4.18841 -1.53259 0
M  V30 5085 C 490.938 -5.81328 -0.208083 0
M  V30 5086 N 489.914 -5.37834 -0.789651 0
M  V30 5087 H 493.716 -2.93892 0.0212221 0
M  V30 5088 H 491.23 -1.62011 0.112325 0
M  V30 5089 H 493.227 -3.41046 -2.39777 0
M  V30 5090 H 491.887 -2.23461 -2.35574 0
M  V30 5091 H 492.898 -5.17766 -0.117963 0
M  V30 5092 H 489.575 -3.58141 -2.14573 0
M  V30 5093 H 490.965 -6.706 0.417793 0
M  V30 5094 N 493.685 -0.035106 -1.57561 0
M  V30 5095 C 494.595 0.960295 -2.14046 0
M  V30 5096 C 495.611 1.3529 -1.0942 0
M  V30 5097 O 496.787 1.43309 -1.41508 0
M  V30 5098 C 493.852 2.22214 -2.66124 0
M  V30 5099 C 492.913 1.8894 -3.85487 0
M  V30 5100 C 492.146 3.09109 -4.35072 0
M  V30 5101 O 492.369 4.21963 -3.83802 0
M  V30 5102 O 491.303 2.91058 -5.26848 0
M  V30 5103 H 495.129 0.509983 -2.99387 0
M  V30 5104 H 492.714 0.185853 -1.48239 0
M  V30 5105 H 494.596 2.96279 -2.99661 0
M  V30 5106 H 493.271 2.66414 -1.83862 0
M  V30 5107 H 492.178 1.12241 -3.56865 0
M  V30 5108 H 493.511 1.49551 -4.6893 0
M  V30 5109 N 495.163 1.55791 0.238111 0
M  V30 5110 C 496.41 1.78033 0.964907 0
M  V30 5111 C 496.738 0.600984 1.84982 0
M  V30 5112 O 495.993 -0.41536 1.91241 0
M  V30 5113 C 496.292 3.05869 1.84875 0
M  V30 5114 C 495.958 4.36808 1.11846 0
M  V30 5115 C 494.62 4.72388 0.916662 0
M  V30 5116 C 496.972 5.17717 0.60151 0
M  V30 5117 C 494.3 5.86406 0.185756 0
M  V30 5118 C 496.652 6.32494 -0.115972 0
M  V30 5119 C 495.316 6.66688 -0.329168 0
M  V30 5120 H 494.586 0.651469 0.353085 0
M  V30 5121 H 497.233 1.90061 0.234318 0
M  V30 5122 H 495.538 2.88891 2.64668 0
M  V30 5123 H 497.235 3.20278 2.41294 0
M  V30 5124 H 493.825 4.08862 1.28569 0
M  V30 5125 H 498.009 4.90678 0.744932 0
M  V30 5126 H 493.265 6.11399 0.0101886 0
M  V30 5127 H 497.439 6.94425 -0.524127 0
M  V30 5128 H 495.066 7.54884 -0.897474 0
M  V30 5129 N 496.642 -0.504142 1.49319 0
M  V30 5130 C 497.889 -1.25846 1.58647 0
M  V30 5131 C 498.217 -1.92592 0.27177 0
M  V30 5132 O 497.472 -1.81167 -0.74007 0
M  V30 5133 C 497.771 -2.35021 2.69258 0
M  V30 5134 C 497.437 -1.85755 4.1086 0
M  V30 5135 C 496.099 -1.72038 4.49395 0
M  V30 5136 C 498.451 -1.48844 4.99495 0
M  V30 5137 C 495.779 -1.19783 5.74342 0
M  V30 5138 C 498.131 -0.980422 6.24956 0
M  V30 5139 C 496.795 -0.829622 6.62324 0
M  V30 5140 H 496.065 -0.460505 0.580531 0
M  V30 5141 H 498.712 -0.559716 1.83138 0
M  V30 5142 H 497.017 -3.10672 2.38726 0
M  V30 5143 H 498.714 -2.93083 2.73685 0
M  V30 5144 H 495.304 -1.9739 3.80441 0
M  V30 5145 H 499.488 -1.5829 4.70381 0
M  V30 5146 H 494.744 -1.06817 6.01997 0
M  V30 5147 H 498.918 -0.685608 6.93017 0
M  V30 5148 H 496.545 -0.42253 7.59025 0
M  V30 5149 N 498.12 -1.38341 -0.754957 0
M  V30 5150 C 499.348 -1.37704 -1.54419 0
M  V30 5151 C 499.763 0.0335243 -1.8877 0
M  V30 5152 O 499.12 0.999773 -1.52679 0
M  V30 5153 C 499.171 -2.23136 -2.84416 0
M  V30 5154 O 498.892 -3.58697 -2.51531 0
M  V30 5155 C 500.393 -2.30664 -3.78562 0
M  V30 5156 H 497.613 -0.471061 -0.477852 0
M  V30 5157 H 500.157 -1.81902 -0.934446 0
M  V30 5158 H 498.312 -1.82403 -3.41772 0
M  V30 5159 H 498.726 -4.03665 -3.34896 0
M  V30 5160 H 500.2 -2.9473 -4.66732 0
M  V30 5161 H 500.677 -1.3199 -4.18898 0
M  V30 5162 H 501.283 -2.71781 -3.27131 0
M  V30 5163 N 499.598 0.982988 -1.23187 0
M  V30 5164 C 500.561 2.05649 -1.01198 0
M  V30 5165 C 501.561 1.6078 0.0252464 0
M  V30 5166 O 502.751 1.72878 -0.214243 0
M  V30 5167 C 499.883 3.36744 -0.530656 0
M  V30 5168 H 501.076 2.2659 -1.96461 0
M  V30 5169 H 498.629 1.15602 -1.05195 0
M  V30 5170 H 499.364 3.21492 0.425873 0
M  V30 5171 H 499.149 3.7065 -1.2791 0
M  V30 5172 H 500.639 4.15705 -0.397366 0
M  V30 5173 N 501.076 1.04316 1.18135 0
M  V30 5174 C 502.306 0.767003 1.91835 0
M  V30 5175 C 502.714 -0.68002 1.76557 0
M  V30 5176 O 502.057 -1.47548 1.09432 0
M  V30 5177 C 502.119 1.05674 3.43618 0
M  V30 5178 C 501.783 2.49818 3.82675 0
M  V30 5179 C 502.78 3.48003 3.86251 0
M  V30 5180 C 500.465 2.84596 4.13897 0
M  V30 5181 C 502.459 4.79016 4.20503 0
M  V30 5182 C 500.146 4.15813 4.4782 0
M  V30 5183 C 501.144 5.12834 4.51099 0
M  V30 5184 O 500.832 6.41699 4.84229 0
M  V30 5185 H 500.564 0.278948 0.615763 0
M  V30 5186 H 503.118 1.3946 1.50798 0
M  V30 5187 H 501.348 0.372029 3.84906 0
M  V30 5188 H 503.037 0.767994 3.98568 0
M  V30 5189 H 503.803 3.22475 3.62264 0
M  V30 5190 H 499.682 2.09748 4.1052 0
M  V30 5191 H 503.226 5.54739 4.22978 0
M  V30 5192 H 499.123 4.41109 4.71268 0
M  V30 5193 H 499.891 6.46387 5.02121 0
M  V30 5194 N 502.554 -1.34406 0.822964 0
M  V30 5195 C 503.802 -1.97892 0.410245 0
M  V30 5196 C 504.123 -1.65567 -1.03017 0
M  V30 5197 O 503.393 -0.94642 -1.71522 0
M  V30 5198 H 501.973 -0.732049 0.148707 0
M  V30 5199 H 504.635 -1.64043 1.05242 0
M  V30 5200 H 503.731 -3.07579 0.529284 0
M  V30 5201 N 504.032 -0.577932 -1.46621 0
M  V30 5202 C 505.443 -0.150071 -1.86096 0
M  V30 5203 C 505.794 1.28563 -1.48209 0
M  V30 5204 O 504.919 1.97036 -0.894754 0
M  V30 5205 C 505.514 -0.265576 -3.37758 0
M  V30 5206 C 504.073 0.10738 -3.76247 0
M  V30 5207 C 503.22 -0.603711 -2.70649 0
M  V30 5208 H 506.171 -0.786438 -1.37844 0
M  V30 5209 H 506.192 0.510352 -3.77062 0
M  V30 5210 H 505.704 -1.3106 -3.65301 0
M  V30 5211 H 503.805 1.15272 -3.54321 0
M  V30 5212 H 503.918 -0.26561 -4.78363 0
M  V30 5213 H 502.282 -0.0444884 -2.54661 0
M  V30 5214 H 503.065 -1.65029 -3.01032 0
M  V30 5215 N 505.51 1.54411 -0.315457 0
M  V30 5216 C 506.787 1.92562 0.343398 0
M  V30 5217 C 507.167 1.24423 1.70535 0
M  V30 5218 O 506.515 0.385051 2.25232 0
M  V30 5219 C 506.725 3.46168 0.443687 0
M  V30 5220 C 508.073 4.18659 0.707783 0
M  V30 5221 O 509.097 3.52281 0.52693 0
M  V30 5222 O 507.956 5.36198 1.05612 0
M  V30 5223 H 505.05 0.80379 0.194552 0
M  V30 5224 H 507.596 1.65738 -0.364577 0
M  V30 5225 H 506.368 3.8792 -0.513172 0
M  V30 5226 H 505.991 3.79073 1.19956 0
M  V30 5227 N 506.988 0.0434614 1.5754 0
M  V30 5228 C 508.218 -0.640905 1.96408 0
M  V30 5229 C 508.626 -1.65365 0.919297 0
M  V30 5230 O 507.969 -1.83395 -0.105795 0
M  V30 5231 C 508.031 -1.39141 3.31482 0
M  V30 5232 C 507.695 -0.535375 4.53853 0
M  V30 5233 C 508.692 0.195335 5.19533 0
M  V30 5234 C 506.377 -0.468564 5.0011 0
M  V30 5235 C 508.371 0.981377 6.298 0
M  V30 5236 C 506.058 0.321171 6.10255 0
M  V30 5237 C 507.056 1.04484 6.74961 0
M  V30 5238 O 506.744 1.8216 7.8299 0
M  V30 5239 H 506.476 -0.180584 0.651433 0
M  V30 5240 H 509.03 0.103848 2.05137 0
M  V30 5241 H 507.26 -2.18162 3.19284 0
M  V30 5242 H 508.949 -1.96526 3.55151 0
M  V30 5243 H 509.715 0.15314 4.84758 0
M  V30 5244 H 505.594 -1.02142 4.49542 0
M  V30 5245 H 509.138 1.54674 6.80237 0
M  V30 5246 H 505.035 0.365032 6.44467 0
M  V30 5247 H 505.803 1.74289 7.99728 0
M  V30 5248 N 508.466 -1.55915 -0.229846 0
M  V30 5249 C 509.712 -1.78807 -0.956868 0
M  V30 5250 C 510.045 -0.611687 -1.84315 0
M  V30 5251 O 509.32 0.389398 -1.90562 0
M  V30 5252 C 509.603 -3.11718 -1.80288 0
M  V30 5253 C 509.456 -4.3979 -0.943649 0
M  V30 5254 C 510.775 -3.40999 -2.78222 0
M  V30 5255 H 507.894 -0.6505 -0.346437 0
M  V30 5256 H 510.536 -1.88648 -0.226252 0
M  V30 5257 H 508.686 -3.03459 -2.42579 0
M  V30 5258 H 510.358 -4.60059 -0.338121 0
M  V30 5259 H 508.601 -4.33086 -0.248705 0
M  V30 5260 H 509.272 -5.29208 -1.5698 0
M  V30 5261 H 511.748 -3.49332 -2.26067 0
M  V30 5262 H 510.624 -4.35183 -3.34526 0
M  V30 5263 H 510.885 -2.62754 -3.55546 0
M  V30 5264 N 509.944 0.496216 -1.49584 0
M  V30 5265 C 510.874 1.60576 -1.69521 0
M  V30 5266 C 511.855 1.61169 -0.543933 0
M  V30 5267 O 513.04 1.77834 -0.78031 0
M  V30 5268 C 510.17 2.99038 -1.76616 0
M  V30 5269 C 509.124 3.13312 -2.91581 0
M  V30 5270 C 508.45 4.53172 -2.83794 0
M  V30 5271 C 509.75 2.92886 -4.32452 0
M  V30 5272 H 511.444 1.44146 -2.62416 0
M  V30 5273 H 508.99 0.692024 -1.26282 0
M  V30 5274 H 510.943 3.76564 -1.8915 0
M  V30 5275 H 509.667 3.16568 -0.80324 0
M  V30 5276 H 508.326 2.38213 -2.78658 0
M  V30 5277 H 507.974 4.67585 -1.854 0
M  V30 5278 H 507.674 4.63662 -3.60958 0
M  V30 5279 H 509.198 5.32752 -2.98342 0
M  V30 5280 H 510.612 3.60178 -4.46032 0
M  V30 5281 H 509.009 3.14844 -5.10875 0
M  V30 5282 H 510.079 1.88966 -4.46565 0
M  V30 5283 N 511.423 1.38739 0.74761 0
M  V30 5284 C 512.333 1.38696 1.89211 0
M  V30 5285 C 513.349 0.283303 1.71678 0
M  V30 5286 O 514.525 0.522713 1.94498 0
M  V30 5287 C 511.59 1.21662 3.24653 0
M  V30 5288 C 510.651 2.41886 3.54669 0
M  V30 5289 C 509.884 2.25655 4.83648 0
M  V30 5290 O 510.107 1.25339 5.56459 0
M  V30 5291 O 509.041 3.14372 5.13277 0
M  V30 5292 H 512.867 2.35143 1.92202 0
M  V30 5293 H 510.452 1.19721 0.893708 0
M  V30 5294 H 512.334 1.14246 4.05618 0
M  V30 5295 H 511.009 0.283024 3.2246 0
M  V30 5296 H 509.916 2.54877 2.73841 0
M  V30 5297 H 511.249 3.33895 3.61628 0
M  V30 5298 N 512.901 -0.976442 1.23707 0
M  V30 5299 C 514.15 -1.71254 1.06559 0
M  V30 5300 C 514.463 -1.91528 -0.397024 0
M  V30 5301 O 515.669 -2.62625 -0.688518 0
M  V30 5302 C 514.125 -3.08207 1.8584 0
M  V30 5303 C 513.733 -2.95806 3.36456 0
M  V30 5304 C 515.477 -3.85749 1.77194 0
M  V30 5305 C 513.384 -4.28015 4.08114 0
M  V30 5306 H 512.314 -0.642171 0.395136 0
M  V30 5307 H 514.965 -1.08877 1.4771 0
M  V30 5308 H 513.347 -3.71363 1.37498 0
M  V30 5309 H 514.521 -2.41716 3.92314 0
M  V30 5310 H 512.836 -2.31736 3.45959 0
M  V30 5311 H 515.433 -4.83633 2.28041 0
M  V30 5312 H 515.776 -4.09752 0.735477 0
M  V30 5313 H 516.309 -3.29303 2.23169 0
M  V30 5314 H 513.048 -4.09208 5.12083 0
M  V30 5315 H 512.568 -4.81955 3.57043 0
M  V30 5316 H 514.247 -4.96681 4.14629 0
M  V30 5317 N 514.379 -1.04941 -1.1758 0
M  V30 5318 C 515.607 -0.778294 -1.91703 0
M  V30 5319 C 516.022 0.665697 -1.76675 0
M  V30 5320 O 515.379 1.45456 -1.10222 0
M  V30 5321 C 515.43 -1.14628 -3.42845 0
M  V30 5322 O 515.151 -2.53359 -3.57409 0
M  V30 5323 C 516.652 -0.900931 -4.34049 0
M  V30 5324 H 513.872 -0.283167 -0.608323 0
M  V30 5325 H 516.416 -1.39942 -1.49119 0
M  V30 5326 H 514.571 -0.569953 -3.83184 0
M  V30 5327 H 514.985 -2.67709 -4.51035 0
M  V30 5328 H 516.459 -1.20817 -5.38616 0
M  V30 5329 H 516.936 0.163966 -4.38894 0
M  V30 5330 H 517.542 -1.46097 -3.99419 0
M  V30 5331 N 515.857 1.33968 -0.830081 0
M  V30 5332 C 517.268 1.80439 -0.479455 0
M  V30 5333 C 517.619 1.68756 1.00079 0
M  V30 5334 O 516.744 1.23171 1.77927 0
M  V30 5335 C 517.339 3.27611 -0.863505 0
M  V30 5336 C 515.898 3.72133 -0.565145 0
M  V30 5337 C 515.045 2.55549 -1.07657 0
M  V30 5338 H 517.996 1.21614 -1.0196 0
M  V30 5339 H 518.017 3.8012 -0.170083 0
M  V30 5340 H 517.529 3.36082 -1.94089 0
M  V30 5341 H 515.63 3.69196 0.502536 0
M  V30 5342 H 515.743 4.65963 -1.11422 0
M  V30 5343 H 514.107 2.49788 -0.497807 0
M  V30 5344 H 514.89 2.66786 -2.16055 0
M  V30 5345 N 517.335 0.585699 1.46312 0
M  V30 5346 C 518.56 0.0762461 2.0726 0
M  V30 5347 C 518.985 -1.22071 1.43109 0
M  V30 5348 O 518.343 -1.73804 0.515942 0
M  V30 5349 C 518.391 -0.0729404 3.60526 0
M  V30 5350 O 517.495 -1.1287 3.96654 0
M  V30 5351 H 516.836 0.0641558 0.660893 0
M  V30 5352 H 519.366 0.809492 1.87905 0
M  V30 5353 H 519.376 -0.278158 4.07051 0
M  V30 5354 H 518.051 0.874188 4.06609 0
M  V30 5355 H 516.628 -0.901703 3.61834 0
M  V30 5356 N 518.813 -1.54241 0.323641 0
M  V30 5357 C 520.053 -2.0248 -0.279502 0
M  V30 5358 C 520.417 -1.20672 -1.49339 0
M  V30 5359 O 521.618 -1.58715 -2.1694 0
M  V30 5360 C 519.889 -3.52238 -0.605266 0
M  V30 5361 S 521.448 -4.22411 -1.18805 0
M  V30 5362 H 518.266 -0.705957 -0.0845313 0
M  V30 5363 H 520.868 -1.90089 0.456781 0
M  V30 5364 H 519.572 -4.094 0.286339 0
M  V30 5365 H 519.103 -3.6871 -1.37174 0
M  V30 5366 H 521.118 -4.30075 -2.47487 0
M  V30 5367 N 520.291 -0.0518155 -1.57515 0
M  V30 5368 C 521.707 0.304735 -1.56664 0
M  V30 5369 C 521.907 1.71395 -1.05953 0
M  V30 5370 O 520.963 2.42123 -0.716414 0
M  V30 5371 C 522.276 0.132614 -3.00407 0
M  V30 5372 C 523.824 0.20367 -3.12337 0
M  V30 5373 C 524.299 0.0600706 -4.57961 0
M  V30 5374 N 525.79 0.116326 -4.63054 0
M  V30 5375 C 526.525 0.0293363 -5.73392 0
M  V30 5376 N 526.021 -0.110038 -6.92713 0
M  V30 5377 N 527.814 0.0849651 -5.62036 0
M  V30 5378 H 519.965 -0.973056 -1.888 0
M  V30 5379 H 522.228 -0.377781 -0.869474 0
M  V30 5380 H 521.934 -0.839019 -3.41546 0
M  V30 5381 H 521.808 0.893376 -3.66468 0
M  V30 5382 H 524.195 1.16578 -2.71097 0
M  V30 5383 H 524.276 -0.587857 -2.48954 0
M  V30 5384 H 523.92 -0.898715 -4.99886 0
M  V30 5385 H 523.85 0.87075 -5.19351 0
M  V30 5386 H 526.341 0.22327 -3.7724 0
M  V30 5387 H 526.654 -0.169104 -7.72615 0
M  V30 5388 H 524.999 -0.145132 -6.94848 0
M  V30 5389 H 528.19 0.192411 -4.67704 0
M  V30 5390 H 528.363 0.0137131 -6.47999 0
M  V30 5391 N 521.769 1.56035 0.221574 0
M  V30 5392 C 523.18 1.69229 0.788567 0
M  V30 5393 C 523.531 0.653814 1.84986 0
M  V30 5394 O 522.656 -0.195065 2.15519 0
M  V30 5395 C 523.251 3.06809 1.43713 0
M  V30 5396 C 521.81 3.21858 1.95152 0
M  V30 5397 C 520.957 2.65155 0.811685 0
M  V30 5398 H 523.908 1.587 -0.00307894 0
M  V30 5399 H 523.929 3.02666 2.30594 0
M  V30 5400 H 523.441 3.82369 0.664475 0
M  V30 5401 H 521.542 2.51167 2.7522 0
M  V30 5402 H 521.655 4.29073 2.1315 0
M  V30 5403 H 520.019 2.23635 1.21899 0
M  V30 5404 H 520.802 3.43261 0.0516987 0
M  V30 5405 N 523.247 -0.488276 1.49845 0
M  V30 5406 C 524.524 -1.24959 1.50481 0
M  V30 5407 C 524.904 -2.09735 0.239698 0
M  V30 5408 O 524.252 -2.14865 -0.777524 0
M  V30 5409 C 524.462 -2.0954 2.79095 0
M  V30 5410 C 525.81 -2.68305 3.29086 0
M  V30 5411 O 526.834 -2.19797 2.80299 0
M  V30 5412 O 525.693 -3.56643 4.14087 0
M  V30 5413 H 522.787 -0.566133 0.602845 0
M  V30 5414 H 525.333 -0.501504 1.6212 0
M  V30 5415 H 524.105 -1.46958 3.62656 0
M  V30 5416 H 523.728 -2.91517 2.70377 0
M  V30 5417 N 524.725 -1.39134 -0.740242 0
M  V30 5418 C 526.141 -1.20623 -1.0451 0
M  V30 5419 C 526.341 -0.0641651 -2.01398 0
M  V30 5420 O 525.397 0.585843 -2.4561 0
M  V30 5421 C 526.71 -2.53815 -1.6124 0
M  V30 5422 C 528.258 -2.60615 -1.73346 0
M  V30 5423 C 528.733 -3.94015 -2.33486 0
M  V30 5424 N 530.224 -3.95627 -2.40902 0
M  V30 5425 C 530.959 -4.95616 -2.88361 0
M  V30 5426 N 530.455 -6.06003 -3.35756 0
M  V30 5427 N 532.248 -4.82998 -2.87523 0
M  V30 5428 H 524.399 -2.12176 -0.0975576 0
M  V30 5429 H 526.662 -0.942066 -0.105904 0
M  V30 5430 H 526.368 -3.37911 -0.975144 0
M  V30 5431 H 526.242 -2.73162 -2.6012 0
M  V30 5432 H 528.629 -1.76906 -2.36195 0
M  V30 5433 H 528.71 -2.45123 -0.731336 0
M  V30 5434 H 528.354 -4.78153 -1.71267 0
M  V30 5435 H 528.284 -4.06825 -3.34366 0
M  V30 5436 H 530.775 -3.15903 -2.07398 0
M  V30 5437 H 531.088 -6.78215 -3.70464 0
M  V30 5438 H 529.433 -6.09604 -3.33778 0
M  V30 5439 H 532.624 -3.95866 -2.49816 0
M  V30 5440 H 532.797 -5.61072 -3.24196 0
M  V30 5441 N 526.204 0.969867 -1.24223 0
M  V30 5442 C 527.152 2.08535 -1.03034 0
M  V30 5443 C 528.146 1.69366 0.0340379 0
M  V30 5444 O 529.352 1.79597 -0.12034 0
M  V30 5445 H 525.727 0.682313 -0.316154 0
M  V30 5446 H 527.698 2.23569 -1.97635 0
M  V30 5447 C 526.447 3.4158 -0.649509 0
M  V30 5448 H 525.77 3.72177 -1.46028 0
M  V30 5449 H 527.21 4.20536 -0.540841 0
M  V30 5450 C 525.669 3.30703 0.643194 0
M  V30 5451 O 526.199 3.64443 1.68951 0
M  V30 5452 N 524.405 2.83841 0.623095 0
M  V30 5453 H 523.952 2.56583 -0.228719 0
M  V30 5454 H 523.91 2.76946 1.48823 0
M  V30 5455 N 527.682 1.05563 1.17022 0
M  V30 5456 C 528.592 0.670758 2.24807 0
M  V30 5457 C 529.608 -0.309865 1.71219 0
M  V30 5458 O 530.784 -0.161025 2.00755 0
M  V30 5459 C 527.849 0.055337 3.46656 0
M  V30 5460 C 526.91 1.08688 4.15314 0
M  V30 5461 C 526.143 0.500736 5.31346 0
M  V30 5462 O 526.366 -0.688718 5.66227 0
M  V30 5463 O 525.3 1.23683 5.89055 0
M  V30 5464 H 529.126 1.56914 2.60023 0
M  V30 5465 H 526.711 0.827428 1.24395 0
M  V30 5466 H 528.593 -0.286492 4.20425 0
M  V30 5467 H 527.268 -0.816638 3.13229 0
M  V30 5468 H 526.175 1.48077 3.43546 0
M  V30 5469 H 527.508 1.93014 4.52777 0
M  V30 5470 N 529.16 -1.33526 0.837174 0
M  V30 5471 C 530.571 -1.80182 0.489017 0
M  V30 5472 C 530.922 -1.69285 -0.991826 0
M  V30 5473 O 530.047 -1.24113 -1.77271 0
M  V30 5474 C 530.642 -3.27149 0.880866 0
M  V30 5475 C 529.201 -3.71828 0.584872 0
M  V30 5476 C 528.348 -2.54974 1.09011 0
M  V30 5477 H 531.299 -1.21071 1.02603 0
M  V30 5478 H 531.32 -3.80024 0.190239 0
M  V30 5479 H 530.832 -3.35048 1.95869 0
M  V30 5480 H 528.933 -3.69457 -0.48295 0
M  V30 5481 H 529.046 -4.65366 1.13892 0
M  V30 5482 H 527.41 -2.4952 0.511047 0
M  V30 5483 H 528.193 -2.65637 2.17467 0
M  V30 5484 N 530.638 -0.59345 -1.46 0
M  V30 5485 C 531.588 0.154751 -2.27474 0
M  V30 5486 C 532.572 0.851849 -1.365 0
M  V30 5487 O 533.764 0.744171 -1.60596 0
M  V30 5488 C 530.893 1.16079 -3.2308 0
M  V30 5489 C 529.979 0.465256 -4.2154 0
M  V30 5490 N 530.37 -0.485197 -5.03467 0
M  V30 5491 C 528.668 0.714634 -4.40237 0
M  V30 5492 C 529.369 -0.892709 -5.74809 0
M  V30 5493 N 528.345 -0.239511 -5.43072 0
M  V30 5494 H 532.147 -0.57546 -2.88211 0
M  V30 5495 H 529.661 -0.416046 -1.5698 0
M  V30 5496 H 531.658 1.71108 -3.80168 0
M  V30 5497 H 530.318 1.89171 -2.63903 0
M  V30 5498 H 531.329 -0.861258 -5.10689 0
M  V30 5499 H 528.006 1.43131 -3.92199 0
M  V30 5500 H 529.396 -1.67581 -6.50666 0
M  V30 5501 N 532.116 1.54067 -0.331816 0
M  V30 5502 C 533.532 1.59587 0.0205388 0
M  V30 5503 C 533.732 1.34813 1.49759 0
M  V30 5504 O 532.788 1.13661 2.25471 0
M  V30 5505 C 534.101 2.97959 -0.405103 0
M  V30 5506 C 535.649 3.10964 -0.356454 0
M  V30 5507 C 536.124 4.51694 -0.757384 0
M  V30 5508 N 537.615 4.57709 -0.71111 0
M  V30 5509 C 538.35 5.64729 -0.993427 0
M  V30 5510 N 537.846 6.79652 -1.3433 0
M  V30 5511 N 539.639 5.54546 -0.918442 0
M  V30 5512 H 531.79 1.68426 -1.29407 0
M  V30 5513 H 534.053 0.78819 -0.526745 0
M  V30 5514 H 533.759 3.21115 -1.43451 0
M  V30 5515 H 533.633 3.76524 0.225692 0
M  V30 5516 H 536.02 2.87538 0.663763 0
M  V30 5517 H 536.101 2.34484 -1.02229 0
M  V30 5518 H 535.745 4.75853 -1.77555 0
M  V30 5519 H 535.675 5.26555 -0.0691444 0
M  V30 5520 H 538.166 3.75176 -0.452883 0
M  V30 5521 H 538.479 7.57221 -1.54388 0
M  V30 5522 H 536.824 6.81128 -1.38164 0
M  V30 5523 H 540.015 4.63641 -0.644536 0
M  V30 5524 H 540.188 6.37861 -1.14181 0
M  V30 5525 N 533.594 0.0601682 1.57485 0
M  V30 5526 C 534.843 -0.611101 1.9222 0
M  V30 5527 C 535.156 -1.71469 0.941159 0
M  V30 5528 O 536.362 -2.44473 1.18089 0
M  V30 5529 C 534.818 -1.13832 3.41424 0
M  V30 5530 C 534.426 -0.0663596 4.47951 0
M  V30 5531 C 536.17 -1.78432 3.85178 0
M  V30 5532 C 534.077 -0.606965 5.88277 0
M  V30 5533 H 533.007 -0.232033 0.71741 0
M  V30 5534 H 535.658 0.130518 1.83035 0
M  V30 5535 H 534.04 -1.93254 3.45643 0
M  V30 5536 H 535.214 0.707682 4.55333 0
M  V30 5537 H 533.529 0.482715 4.13593 0
M  V30 5538 H 536.126 -2.1989 4.87394 0
M  V30 5539 H 536.469 -2.63966 3.21913 0
M  V30 5540 H 537.002 -1.05651 3.83514 0
M  V30 5541 H 533.741 0.21095 6.5516 0
M  V30 5542 H 533.261 -1.34879 5.84438 0
M  V30 5543 H 534.94 -1.08704 6.37803 0
M  V30 5544 N 535.072 -1.5615 -0.213296 0
M  V30 5545 C 536.004 -1.89586 -1.28802 0
M  V30 5546 C 537.017 -0.784844 -1.42633 0
M  V30 5547 O 538.206 -1.06319 -1.43383 0
M  V30 5548 C 535.306 -2.09665 -2.66259 0
M  V30 5549 C 534.479 -3.40726 -2.7427 0
M  V30 5550 C 533.538 -3.50137 -3.92798 0
M  V30 5551 O 532.564 -4.23105 -3.8075 0
M  V30 5552 N 533.766 -2.81886 -5.07465 0
M  V30 5553 H 536.531 -2.82368 -1.00442 0
M  V30 5554 H 534.092 -1.56796 -0.403302 0
M  V30 5555 H 536.084 -2.13268 -3.43946 0
M  V30 5556 H 534.654 -1.23469 -2.87183 0
M  V30 5557 H 533.874 -3.4915 -1.82997 0
M  V30 5558 H 535.162 -4.27048 -2.76599 0
M  V30 5559 H 534.56 -2.22397 -5.2015 0
M  V30 5560 H 533.117 -2.91139 -5.83165 0
M  V30 5561 N 536.55 0.480323 -1.50102 0
M  V30 5562 C 537.482 1.59669 -1.64433 0
M  V30 5563 C 538.495 1.54063 -0.52615 0
M  V30 5564 O 539.684 1.59619 -0.798992 0
M  V30 5565 C 536.784 2.98527 -1.6042 0
M  V30 5566 C 535.957 3.291 -2.88117 0
M  V30 5567 C 535.016 4.47468 -2.76873 0
M  V30 5568 O 534.042 4.4823 -3.50825 0
M  V30 5569 N 535.244 5.48593 -1.89806 0
M  V30 5570 H 538.009 1.47795 -2.60723 0
M  V30 5571 H 535.57 0.66858 -1.4745 0
M  V30 5572 H 537.562 3.75666 -1.50523 0
M  V30 5573 H 536.132 3.04218 -0.719036 0
M  V30 5574 H 535.352 2.40662 -3.12211 0
M  V30 5575 H 536.64 3.46334 -3.72734 0
M  V30 5576 H 536.038 5.50791 -1.2902 0
M  V30 5577 H 534.595 6.24752 -1.85819 0
M  V30 5578 N 538.028 1.39524 0.732853 0
M  V30 5579 C 539.277 1.36175 1.48792 0
M  V30 5580 C 539.59 -0.0388195 1.95561 0
M  V30 5581 O 540.796 -0.194899 2.708 0
M  V30 5582 C 539.252 2.39242 2.68871 0
M  V30 5583 C 538.86 3.85024 2.29042 0
M  V30 5584 C 540.604 2.44972 3.46683 0
M  V30 5585 C 538.511 4.79727 3.45856 0
M  V30 5586 H 537.441 0.506267 0.558757 0
M  V30 5587 H 540.092 1.65181 0.799226 0
M  V30 5588 H 538.474 2.0331 3.39825 0
M  V30 5589 H 539.648 4.30008 1.6562 0
M  V30 5590 H 537.963 3.82609 1.64316 0
M  V30 5591 H 540.56 3.12918 4.33574 0
M  V30 5592 H 540.903 1.4749 3.89297 0
M  V30 5593 H 541.436 2.79808 2.82759 0
M  V30 5594 H 538.175 5.78479 3.08289 0
M  V30 5595 H 537.695 4.39421 4.08251 0
M  V30 5596 H 539.374 4.98731 4.12161 0
M  V30 5597 N 539.506 -0.963266 1.24736 0
M  V30 5598 C 540.436 -2.07628 1.06832 0
M  V30 5599 C 541.417 -1.70088 -0.0200566 0
M  V30 5600 O 542.602 -1.93636 0.147854 0
M  V30 5601 C 539.732 -3.40636 0.677069 0
M  V30 5602 C 538.686 -3.9215 1.71471 0
M  V30 5603 C 538.012 -5.21553 1.1784 0
M  V30 5604 C 539.312 -4.19493 3.11164 0
M  V30 5605 H 541.006 -2.22864 1.9993 0
M  V30 5606 H 538.552 -1.07093 0.96266 0
M  V30 5607 H 540.505 -4.17941 0.538792 0
M  V30 5608 H 539.229 -3.25313 -0.289612 0
M  V30 5609 H 537.888 -3.17005 1.84128 0
M  V30 5610 H 537.536 -5.02593 0.202195 0
M  V30 5611 H 537.236 -5.56988 1.87185 0
M  V30 5612 H 538.76 -6.01463 1.05233 0
M  V30 5613 H 540.174 -4.87487 3.01711 0
M  V30 5614 H 538.571 -4.66165 3.77902 0
M  V30 5615 H 539.641 -3.26097 3.58871 0
M  V30 5616 N 540.985 -1.06182 -1.16461 0
M  V30 5617 C 541.933 -0.665716 -2.2287 0
M  V30 5618 C 542.927 0.317822 -1.66392 0
M  V30 5619 O 544.133 0.182807 -1.79069 0
M  V30 5620 H 540.508 -0.197148 -0.725697 0
M  V30 5621 H 542.479 -1.57307 -2.53569 0
M  V30 5622 C 541.228 -0.0669803 -3.47635 0
M  V30 5623 H 540.551 -0.814899 -3.91407 0
M  V30 5624 H 541.991 0.172669 -4.23648 0
M  V30 5625 C 540.45 1.18913 -3.15216 0
M  V30 5626 O 540.98 2.27723 -3.30916 0
M  V30 5627 N 539.186 1.09066 -2.69357 0
M  V30 5628 H 538.733 0.20518 -2.56782 0
M  V30 5629 H 538.691 1.93195 -2.48039 0
M  V30 5630 N 542.463 1.3308 -0.844243 0
M  V30 5631 C 543.693 2.01515 -0.455541 0
M  V30 5632 C 544.101 1.63655 0.949406 0
M  V30 5633 O 543.444 0.84848 1.62931 0
M  V30 5634 C 543.506 3.55967 -0.502801 0
M  V30 5635 C 543.17 4.17222 -1.86481 0
M  V30 5636 C 544.167 4.36205 -2.8288 0
M  V30 5637 C 541.852 4.53528 -2.15911 0
M  V30 5638 C 543.846 4.90649 -4.06869 0
M  V30 5639 C 541.533 5.07679 -3.40155 0
M  V30 5640 C 542.531 5.26186 -4.35451 0
M  V30 5641 O 542.219 5.79183 -5.57496 0
M  V30 5642 H 541.951 0.65199 -0.178565 0
M  V30 5643 H 544.505 1.70867 -1.1399 0
M  V30 5644 H 542.735 3.85965 0.23836 0
M  V30 5645 H 544.424 4.05688 -0.131169 0
M  V30 5646 H 545.19 4.085 -2.61444 0
M  V30 5647 H 541.069 4.38414 -1.42528 0
M  V30 5648 H 544.613 5.0501 -4.81259 0
M  V30 5649 H 540.51 5.34815 -3.61446 0
M  V30 5650 H 541.278 5.97591 -5.5931 0
M  V30 5651 N 543.941 0.601185 1.45683 0
M  V30 5652 C 545.19 0.0914953 2.01492 0
M  V30 5653 C 545.503 -1.28331 1.47616 0
M  V30 5654 O 546.709 -1.88537 1.95362 0
M  V30 5655 C 545.165 0.11291 3.59723 0
M  V30 5656 C 544.773 1.48717 4.22596 0
M  V30 5657 C 546.517 -0.341871 4.23121 0
M  V30 5658 C 544.424 1.46531 5.7296 0
M  V30 5659 H 543.354 0.0304365 0.753385 0
M  V30 5660 H 546.005 0.755568 1.67223 0
M  V30 5661 H 544.387 -0.617692 3.91153 0
M  V30 5662 H 545.561 2.23897 4.02749 0
M  V30 5663 H 543.876 1.88351 3.71366 0
M  V30 5664 H 546.473 -0.377304 5.33367 0
M  V30 5665 H 546.816 -1.36325 3.93346 0
M  V30 5666 H 547.349 0.335256 3.96385 0
M  V30 5667 H 544.088 2.46408 6.07423 0
M  V30 5668 H 543.608 0.755997 5.95017 0
M  V30 5669 H 545.287 1.18618 6.36034 0
M  V30 5670 N 545.419 -1.53889 0.339982 0
M  V30 5671 C 546.366 -2.24902 -0.518452 0
M  V30 5672 C 547.336 -1.24593 -1.09844 0
M  V30 5673 O 548.521 -1.53317 -1.13572 0
M  V30 5674 C 545.661 -3.02262 -1.66529 0
M  V30 5675 C 544.774 -4.17418 -1.11295 0
M  V30 5676 C 543.909 -4.82273 -2.2268 0
M  V30 5677 C 542.948 -5.89503 -1.6478 0
M  V30 5678 N 542.085 -6.48153 -2.69893 0
M  V30 5679 H 546.925 -2.97853 0.0936579 0
M  V30 5680 H 544.462 -1.46986 0.0579924 0
M  V30 5681 H 546.42 -3.45371 -2.3404 0
M  V30 5682 H 545.05 -2.31614 -2.24844 0
M  V30 5683 H 544.102 -3.78976 -0.328886 0
M  V30 5684 H 545.414 -4.94554 -0.649414 0
M  V30 5685 H 544.568 -5.28435 -2.98063 0
M  V30 5686 H 543.307 -4.04552 -2.72376 0
M  V30 5687 H 542.312 -5.42728 -0.879004 0
M  V30 5688 H 543.537 -6.6913 -1.1594 0
M  V30 5689 H 541.483 -5.73298 -3.1885 0
M  V30 5690 H 541.4 -7.20752 -2.28151 0
M  V30 5691 H 542.668 -6.98968 -3.45056 0
M  V30 5692 N 546.897 -0.0685191 -1.57451 0
M  V30 5693 C 548.145 0.60016 -1.92983 0
M  V30 5694 C 548.466 1.70348 -0.949028 0
M  V30 5695 O 547.736 1.959 0.00335647 0
M  V30 5696 H 546.316 0.224682 -0.712409 0
M  V30 5697 H 548.978 -0.125605 -1.94495 0
M  V30 5698 H 548.074 1.02759 -2.94698 0
M  V30 5699 N 548.375 1.56261 0.205012 0
M  V30 5700 C 549.323 1.94631 1.27364 0
M  V30 5701 C 550.317 0.830434 1.47649 0
M  V30 5702 O 551.523 1.01538 1.48627 0
M  V30 5703 H 547.898 0.618755 0.427371 0
M  V30 5704 H 549.869 2.83768 0.922941 0
M  V30 5705 C 548.618 2.29358 2.61324 0
M  V30 5706 H 547.941 3.14744 2.46528 0
M  V30 5707 H 549.381 2.60076 3.34868 0
M  V30 5708 C 547.84 1.12461 3.17575 0
M  V30 5709 O 548.37 0.394407 3.99759 0
M  V30 5710 N 546.576 0.904036 2.7618 0
M  V30 5711 H 546.123 1.49956 2.09454 0
M  V30 5712 H 546.081 0.123662 3.14157 0
M  V30 5713 N 549.853 -0.472356 1.50355 0
M  V30 5714 C 550.783 -1.57859 1.72055 0
M  V30 5715 C 551.764 -1.60283 0.569505 0
M  V30 5716 O 552.949 -1.7657 0.808503 0
M  V30 5717 C 550.079 -2.96191 1.81351 0
M  V30 5718 C 549.033 -3.08633 2.96529 0
M  V30 5719 C 548.359 -4.486 2.90968 0
M  V30 5720 C 549.659 -2.85969 4.37057 0
M  V30 5721 H 551.353 -1.39953 2.64676 0
M  V30 5722 H 548.899 -0.671846 1.27367 0
M  V30 5723 H 550.852 -3.73507 1.95117 0
M  V30 5724 H 549.576 -3.15251 0.853502 0
M  V30 5725 H 548.235 -2.33749 2.82413 0
M  V30 5726 H 547.883 -4.64577 1.92815 0
M  V30 5727 H 547.583 -4.57861 3.68289 0
M  V30 5728 H 549.107 -5.27938 3.0678 0
M  V30 5729 H 550.521 -3.53036 4.51706 0
M  V30 5730 H 548.918 -3.06677 5.15819 0
M  V30 5731 H 549.988 -1.81838 4.49514 0
M  V30 5732 N 551.331 -1.39911 -0.725443 0
M  V30 5733 C 552.278 -1.39393 -1.83952 0
M  V30 5734 C 553.248 -0.252249 -1.64173 0
M  V30 5735 O 554.433 -0.44882 -1.85446 0
M  V30 5736 C 551.573 -1.25262 -3.21564 0
M  V30 5737 C 550.686 -2.49054 -3.52982 0
M  V30 5738 C 549.821 -2.27439 -4.80047 0
M  V30 5739 C 548.86 -3.46857 -5.04338 0
M  V30 5740 N 547.997 -3.24499 -6.22611 0
M  V30 5741 H 552.837 -2.34622 -1.83729 0
M  V30 5742 H 550.374 -1.16537 -0.897636 0
M  V30 5743 H 552.332 -1.15077 -4.01015 0
M  V30 5744 H 550.962 -0.33657 -3.21041 0
M  V30 5745 H 550.014 -2.69805 -2.6816 0
M  V30 5746 H 551.326 -3.37973 -3.66846 0
M  V30 5747 H 550.48 -2.14551 -5.67497 0
M  V30 5748 H 549.219 -1.35929 -4.68374 0
M  V30 5749 H 548.224 -3.60232 -4.15346 0
M  V30 5750 H 549.449 -4.3928 -5.17889 0
M  V30 5751 H 547.395 -2.35663 -6.12208 0
M  V30 5752 H 547.312 -4.06978 -6.37106 0
M  V30 5753 H 548.58 -3.15325 -7.12875 0
M  V30 5754 N 552.809 0.956637 -1.25245 0
M  V30 5755 C 553.759 2.03841 -1.02141 0
M  V30 5756 C 554.743 1.60848 0.0410058 0
M  V30 5757 O 555.935 1.76142 -0.174084 0
M  V30 5758 C 553.064 3.37282 -0.639963 0
M  V30 5759 C 552.15 3.86805 -1.73903 0
M  V30 5760 N 552.541 4.09143 -2.97381 0
M  V30 5761 C 550.839 4.15574 -1.61909 0
M  V30 5762 C 551.54 4.49923 -3.68707 0
M  V30 5763 N 550.516 4.55737 -2.96318 0
M  V30 5764 H 554.318 2.19102 -1.95886 0
M  V30 5765 H 551.832 1.1413 -1.15534 0
M  V30 5766 H 553.829 4.14403 -0.455643 0
M  V30 5767 H 552.489 3.23401 0.29018 0
M  V30 5768 H 553.5 3.96275 -3.33447 0
M  V30 5769 H 550.177 4.10566 -0.757764 0
M  V30 5770 H 551.567 4.75526 -4.74684 0
M  V30 5771 N 554.287 1.06798 1.15896 0
M  V30 5772 C 555.533 0.788934 1.86825 0
M  V30 5773 C 555.866 -0.683084 1.8179 0
M  V30 5774 O 555.141 -1.50086 1.23711 0
M  V30 5775 C 555.424 1.29065 3.36176 0
M  V30 5776 C 555.277 2.8268 3.49874 0
M  V30 5777 C 556.596 0.902655 4.30744 0
M  V30 5778 H 553.715 0.288066 0.678371 0
M  V30 5779 H 556.357 1.32479 1.36195 0
M  V30 5780 H 554.507 0.834806 3.79425 0
M  V30 5781 H 556.179 3.36511 3.15528 0
M  V30 5782 H 554.422 3.21157 2.91617 0
M  V30 5783 H 555.093 3.12852 4.54783 0
M  V30 5784 H 557.569 1.29535 3.95424 0
M  V30 5785 H 556.445 1.28111 5.3374 0
M  V30 5786 H 556.706 -0.191951 4.41683 0
M  V30 5787 N 555.766 -1.3263 0.851289 0
M  V30 5788 C 557.012 -1.9766 0.453694 0
M  V30 5789 C 557.345 -1.67225 -0.987396 0
M  V30 5790 O 556.62 -0.958693 -1.69232 0
M  V30 5791 C 556.903 -3.5344 0.68936 0
M  V30 5792 C 556.756 -3.93517 2.17862 0
M  V30 5793 C 558.075 -4.39866 0.143555 0
M  V30 5794 H 555.194 -0.717989 0.166314 0
M  V30 5795 H 557.836 -1.57068 1.06909 0
M  V30 5796 H 555.986 -3.88147 0.165546 0
M  V30 5797 H 557.658 -3.69006 2.76826 0
M  V30 5798 H 555.901 -3.42798 2.65841 0
M  V30 5799 H 556.572 -5.02065 2.29422 0
M  V30 5800 H 559.048 -4.11875 0.591451 0
M  V30 5801 H 557.924 -5.47858 0.338043 0
M  V30 5802 H 558.185 -4.31696 -0.953466 0
M  V30 5803 O 557.283 -0.749239 -1.43069 0
M  V30 5804 H 557.974 -0.305579 -1.91274 0
M  V30 END ATOM
M  V30 BEGIN BOND
M  V30 END BOND
M  V30 END CTAB
M  END
$$$$
