drugbank_target|P10844 Botulinum neurotoxin type B (DB01705; DB02379; DB03721; DB13903)
 OpenBabel12092119513D

  0  0  0     0  0            999 V3000
M  V30 BEGIN CTAB
M  V30 COUNTS 21173 21406 0 0 0
M  V30 BEGIN ATOM
M  V30 1 H -0.908 1.98254 -0.117106 0
M  V30 2 N 0 1.576 0 0
M  V30 3 C 0.933 2.03868 1.02534 0
M  V30 4 C 1.911 0.928543 1.3348 0
M  V30 5 O 3.095 1.19667 1.45644 0
M  V30 6 C 0.222 2.43627 2.35294 0
M  V30 7 C -0.732 3.65373 2.2001 0
M  V30 8 S 0.101 5.13292 1.52614 0
M  V30 9 C 1.257 5.56322 2.86805 0
M  V30 10 H 1.49 2.90518 0.631377 0
M  V30 11 H -0.977 1.52953 0.210867 0
M  V30 12 H 0.981 2.67203 3.11629 0
M  V30 13 H -0.358 1.57376 2.7183 0
M  V30 14 H -1.165 3.90944 3.18086 0
M  V30 15 H -1.563 3.418 1.51819 0
M  V30 16 H 0.729 5.58782 3.83104 0
M  V30 17 H 1.672 6.56266 2.65933 0
M  V30 18 H 2.08 4.83886 2.90714 0
M  V30 19 N 1.4781 -0.272755 1.55222 0
M  V30 20 C 2.8891 -0.84378 1.66545 0
M  V30 21 C 3.2401 -1.87035 0.592641 0
M  V30 22 O 2.3651 -2.14761 -0.265818 0
M  V30 23 C 2.9601 -1.53723 3.01918 0
M  V30 24 C 1.5191 -2.05628 3.15268 0
M  V30 25 C 0.6661 -0.898424 2.62343 0
M  V30 26 H 3.6171 -0.0490998 1.58624 0
M  V30 27 H 3.6381 -2.40421 2.94921 0
M  V30 28 H 3.1501 -0.78983 3.79978 0
M  V30 29 H 1.2511 -2.83329 2.41983 0
M  V30 30 H 1.3641 -2.27142 4.21833 0
M  V30 31 H -0.2719 -1.29186 2.19506 0
M  V30 32 H 0.5111 -0.164528 3.42906 0
M  V30 33 N 2.9562 -1.48159 -0.537278 0
M  V30 34 C 4.2022 -1.56035 -1.29541 0
M  V30 35 C 4.5352 -0.230377 -1.92829 0
M  V30 36 O 3.8102 0.762952 -1.78911 0
M  V30 37 C 4.0932 -2.69323 -2.39034 0
M  V30 38 C 3.9462 -4.12002 -1.80485 0
M  V30 39 C 5.2652 -2.78408 -3.40847 0
M  V30 40 H 2.3842 -0.567992 -0.469632 0
M  V30 41 H 5.0262 -1.80302 -0.599277 0
M  V30 42 H 3.1762 -2.48763 -2.98412 0
M  V30 43 H 4.8482 -4.43981 -1.25215 0
M  V30 44 H 3.0912 -4.19344 -1.11055 0
M  V30 45 H 3.7622 -4.87077 -2.59731 0
M  V30 46 H 6.2382 -2.97012 -2.91416 0
M  V30 47 H 5.1142 -3.59416 -4.14863 0
M  V30 48 H 5.3752 -1.86269 -4.00944 0
M  V30 49 N 4.4343 0.785586 -1.36625 0
M  V30 50 C 5.6623 1.57448 -1.3423 0
M  V30 51 C 6.0773 1.88649 0.0755653 0
M  V30 52 O 5.4343 1.50414 1.03354 0
M  V30 53 C 5.4853 2.89316 -2.16745 0
M  V30 54 O 5.2063 2.59459 -3.53005 0
M  V30 55 C 6.7073 3.83606 -2.22174 0
M  V30 56 H 3.9273 0.488226 -0.4603 0
M  V30 57 H 6.4713 0.974733 -1.79775 0
M  V30 58 H 4.6263 3.4575 -1.74745 0
M  V30 59 H 5.0403 3.43804 -3.96105 0
M  V30 60 H 6.5143 4.73181 -2.8426 0
M  V30 61 H 6.9913 4.21734 -1.22627 0
M  V30 62 H 7.5973 3.33104 -2.64427 0
M  V30 63 N 5.9124 1.20967 1.01018 0
M  V30 64 C 7.1614 1.01796 1.74128 0
M  V30 65 C 7.4744 -0.449691 1.90361 0
M  V30 66 O 8.6804 -0.76068 2.60626 0
M  V30 67 C 7.1364 1.7727 3.13215 0
M  V30 68 C 6.7444 3.28171 3.04972 0
M  V30 69 C 8.4884 1.66489 3.90489 0
M  V30 70 C 6.3954 3.96156 4.39107 0
M  V30 71 H 5.3254 0.377276 0.652824 0
M  V30 72 H 7.9764 1.44651 1.12909 0
M  V30 73 H 6.3584 1.27205 3.75013 0
M  V30 74 H 7.5324 3.85499 2.52443 0
M  V30 75 H 5.8474 3.39437 2.41188 0
M  V30 76 H 8.4444 2.14617 4.89738 0
M  V30 77 H 8.7874 0.6222 4.11624 0
M  V30 78 H 9.3204 2.14003 3.35332 0
M  V30 79 H 6.0594 5.00604 4.23174 0
M  V30 80 H 5.5794 3.43617 4.91617 0
M  V30 81 H 7.2584 4.00774 5.07926 0
M  V30 82 N 7.3905 -1.2043 1.01659 0
M  V30 83 C 8.3385 -2.25249 0.580143 0
M  V30 84 C 9.3325 -1.65057 -0.381115 0
M  V30 85 O 10.5385 -1.78241 -0.251039 0
M  V30 86 H 6.9135 -0.732695 0.169299 0
M  V30 87 H 8.8845 -2.59389 1.47512 0
M  V30 88 C 7.6335 -3.47638 -0.065788 0
M  V30 89 H 6.9565 -3.94233 0.664874 0
M  V30 90 H 8.3965 -4.2268 -0.334282 0
M  V30 91 C 6.8555 -3.10447 -1.3086 0
M  V30 92 O 7.3855 -3.21981 -2.4019 0
M  V30 93 N 5.5915 -2.64996 -1.1927 0
M  V30 94 H 5.1385 -2.55811 -0.303064 0
M  V30 95 H 5.0965 -2.40482 -2.02523 0
M  V30 96 N 8.8686 -0.792821 -1.36206 0
M  V30 97 C 9.8166 -0.181555 -2.3189 0
M  V30 98 C 10.8106 0.661025 -1.55971 0
M  V30 99 O 12.0166 0.555728 -1.71206 0
M  V30 100 H 8.3916 -0.0399382 -0.750939 0
M  V30 101 H 10.3626 -1.00394 -2.81005 0
M  V30 102 C 9.1116 0.666444 -3.41253 0
M  V30 103 H 8.4346 0.0274489 -3.99791 0
M  V30 104 H 9.8746 1.06076 -4.10517 0
M  V30 105 C 8.3336 1.82614 -2.83114 0
M  V30 106 O 8.8636 2.9229 -2.75553 0
M  V30 107 N 7.0696 1.63333 -2.40356 0
M  V30 108 H 6.6166 0.741217 -2.46706 0
M  V30 109 H 6.5746 2.41087 -2.01803 0
M  V30 110 N 10.3467 1.47872 -0.545128 0
M  V30 111 C 11.5937 2.02493 -0.0165858 0
M  V30 112 C 11.9217 1.42073 1.32836 0
M  V30 113 O 11.1767 0.561459 1.87473 0
M  V30 114 C 11.4757 3.57131 0.13867 0
M  V30 115 C 11.1417 4.36411 -1.13384 0
M  V30 116 C 9.8037 4.57792 -1.48256 0
M  V30 117 C 12.1557 4.82223 -1.97764 0
M  V30 118 C 9.4837 5.22233 -2.67376 0
M  V30 119 C 11.8357 5.47977 -3.16076 0
M  V30 120 C 10.4997 5.67593 -3.51275 0
M  V30 121 H 9.7697 0.740975 -0.00606918 0
M  V30 122 H 12.4167 1.77683 -0.714207 0
M  V30 123 H 10.7217 3.80865 0.919172 0
M  V30 124 H 12.4187 3.97031 0.562782 0
M  V30 125 H 9.0087 4.2004 -0.852297 0
M  V30 126 H 13.1927 4.65493 -1.72132 0
M  V30 127 H 8.4487 5.35616 -2.94831 0
M  V30 128 H 12.6227 5.8244 -3.81755 0
M  V30 129 H 10.2497 6.17298 -4.43675 0
M  V30 130 N 11.8248 0.280983 1.55075 0
M  V30 131 C 12.7728 -0.619864 2.24188 0
M  V30 132 C 13.7668 -1.15315 1.24092 0
M  V30 133 O 14.9728 -1.1061 1.42005 0
M  V30 134 H 11.3478 -0.218459 0.719569 0
M  V30 135 H 13.3188 -0.0141831 2.98397 0
M  V30 136 C 12.0678 -1.7899 2.98091 0
M  V30 137 H 11.3908 -1.38874 3.74905 0
M  V30 138 H 12.8308 -2.39672 3.49762 0
M  V30 139 C 11.2898 -2.68192 2.03899 0
M  V30 140 O 11.8198 -3.6872 1.594 0
M  V30 141 N 10.0258 -2.35488 1.70275 0
M  V30 142 H 9.5728 -1.53787 2.06658 0
M  V30 143 H 9.5308 -2.95442 1.07524 0
M  V30 144 N 13.3029 -1.57598 0.00835791 0
M  V30 145 C 14.5329 -1.94931 -0.684496 0
M  V30 146 C 14.9409 -0.882233 -1.67372 0
M  V30 147 O 14.2839 0.146621 -1.83114 0
M  V30 148 C 14.3459 -3.283 -1.4649 0
M  V30 149 C 14.0099 -4.52548 -0.63634 0
M  V30 150 C 15.0069 -5.19839 0.0795586 0
M  V30 151 C 12.6919 -4.98942 -0.579849 0
M  V30 152 C 14.6859 -6.3183 0.840843 0
M  V30 153 C 12.3729 -6.10819 0.185155 0
M  V30 154 C 13.3709 -6.77121 0.894227 0
M  V30 155 O 13.0589 -7.86853 1.64673 0
M  V30 156 H 12.7909 -0.647249 -0.19505 0
M  V30 157 H 15.3449 -2.05318 0.0581272 0
M  V30 158 H 13.5749 -3.14345 -2.2522 0
M  V30 159 H 15.2639 -3.50685 -2.04389 0
M  V30 160 H 16.0299 -4.84979 0.0451202 0
M  V30 161 H 11.9089 -4.47155 -1.1213 0
M  V30 162 H 15.4529 -6.83513 1.39483 0
M  V30 163 H 11.3499 -6.4512 0.221384 0
M  V30 164 H 12.1179 -8.03412 1.56432 0
M  V30 165 N 14.781 0.264519 -1.55364 0
M  V30 166 C 15.729 1.34702 -1.89626 0
M  V30 167 C 16.723 1.50712 -0.773459 0
M  V30 168 O 17.929 1.52395 -0.957897 0
M  V30 169 H 14.304 0.450682 -0.601988 0
M  V30 170 H 16.275 1.0306 -2.80038 0
M  V30 171 C 15.024 2.6989 -2.19214 0
M  V30 172 H 14.347 2.58365 -3.05103 0
M  V30 173 H 15.787 3.44553 -2.47102 0
M  V30 174 C 14.246 3.21637 -1.00254 0
M  V30 175 O 14.776 4.00973 -0.241501 0
M  V30 176 N 12.982 2.7943 -0.797938 0
M  V30 177 H 12.529 2.15026 -1.4185 0
M  V30 178 H 12.487 3.144 -0.00363422 0
M  V30 179 N 16.2591 1.48442 0.529413 0
M  V30 180 C 17.5361 1.46978 1.29062 0
M  V30 181 C 17.9161 0.181769 2.10316 0
M  V30 182 O 17.2641 -0.836481 2.12639 0
M  V30 183 C 17.4741 2.7321 2.17157 0
M  V30 184 C 18.8221 3.21562 2.77278 0
M  V30 185 O 19.8461 2.74131 2.27444 0
M  V30 186 O 18.7051 4.04094 3.67927 0
M  V30 187 H 15.7991 0.587003 0.582543 0
M  V30 188 H 18.3451 1.60676 0.546021 0
M  V30 189 H 17.1171 3.58465 1.56903 0
M  V30 190 H 16.7401 2.62235 2.98862 0
M  V30 191 N 17.7372 -0.778329 1.37039 0
M  V30 192 C 19.1482 -1.35421 1.28523 0
M  V30 193 C 19.4992 -1.96075 -0.0700901 0
M  V30 194 O 18.6242 -1.93352 -0.971801 0
M  V30 195 C 19.2192 -2.46211 2.32735 0
M  V30 196 C 17.7782 -2.99585 2.27873 0
M  V30 197 C 16.9252 -1.72748 2.16918 0
M  V30 198 H 19.8762 -0.5791 1.47757 0
M  V30 199 H 19.8972 -3.2552 1.9702 0
M  V30 200 H 19.4092 -2.02036 3.31365 0
M  V30 201 H 17.5102 -3.48152 1.32745 0
M  V30 202 H 17.6232 -3.55646 3.21018 0
M  V30 203 H 15.9872 -1.95416 1.63354 0
M  V30 204 H 16.7702 -1.30686 3.17452 0
M  V30 205 N 19.2153 -1.21501 -1.00376 0
M  V30 206 C 20.4643 -1.02718 -1.73586 0
M  V30 207 C 20.7773 0.439589 -1.90596 0
M  V30 208 O 21.9833 0.746848 -2.61026 0
M  V30 209 C 20.4393 -1.78929 -3.1227 0
M  V30 210 C 20.0473 -3.29783 -3.03228 0
M  V30 211 C 21.7913 -1.68557 -3.89601 0
M  V30 212 C 19.6983 -3.98479 -4.36999 0
M  V30 213 H 18.6283 -0.380733 -0.650814 0
M  V30 214 H 21.2793 -1.45248 -1.1214 0
M  V30 215 H 19.6613 -1.29192 -3.74333 0
M  V30 216 H 20.8353 -3.86832 -2.50395 0
M  V30 217 H 19.1503 -3.40711 -2.39385 0
M  V30 218 H 21.7473 -2.17211 -4.88593 0
M  V30 219 H 22.0903 -0.644021 -4.11288 0
M  V30 220 H 22.6233 -2.15778 -3.34193 0
M  V30 221 H 19.3623 -5.02841 -4.20513 0
M  V30 222 H 18.8823 -3.46219 -4.89788 0
M  V30 223 H 20.5613 -4.03462 -5.05794 0
M  V30 224 N 20.6934 1.19889 -1.02296 0
M  V30 225 C 21.9704 1.85148 -0.630832 0
M  V30 226 C 22.3504 1.91385 0.890782 0
M  V30 227 O 21.6984 1.42642 1.78509 0
M  V30 228 C 21.9084 3.24442 -1.28602 0
M  V30 229 C 23.2564 4.00663 -1.4055 0
M  V30 230 O 24.2804 3.33818 -1.24273 0
M  V30 231 O 23.1394 5.20387 -1.66913 0
M  V30 232 H 20.2334 0.797613 -0.218499 0
M  V30 233 H 22.7794 1.27427 -1.12074 0
M  V30 234 H 21.5514 3.14704 -2.32545 0
M  V30 235 H 21.1744 3.89802 -0.7836 0
M  V30 236 N 22.1715 0.800033 1.35784 0
M  V30 237 C 23.1195 0.193851 2.31791 0
M  V30 238 C 24.1135 -0.652744 1.56319 0
M  V30 239 O 25.3195 -0.546641 1.71499 0
M  V30 240 H 21.6945 0.04392 0.750716 0
M  V30 241 H 23.6655 1.01883 2.80468 0
M  V30 242 C 22.4145 -0.648338 3.41602 0
M  V30 243 H 21.7375 -0.00624665 3.998 0
M  V30 244 H 23.1775 -1.03898 4.11073 0
M  V30 245 C 21.6365 -1.8111 2.84079 0
M  V30 246 O 22.1665 -2.90825 2.77099 0
M  V30 247 N 20.3725 -1.62056 2.41218 0
M  V30 248 H 19.9195 -0.728123 2.47095 0
M  V30 249 H 19.8775 -2.40013 2.03079 0
M  V30 250 N 23.6496 -1.47581 0.552962 0
M  V30 251 C 24.5976 -2.31648 -0.21023 0
M  V30 252 C 25.5916 -1.42663 -0.913432 0
M  V30 253 O 26.7976 -1.5945 -0.835201 0
M  V30 254 H 23.1726 -0.746989 -0.0866676 0
M  V30 255 H 25.1436 -2.93869 0.518051 0
M  V30 256 C 23.8926 -3.25226 -1.22976 0
M  V30 257 H 23.2156 -3.93658 -0.698077 0
M  V30 258 H 24.6556 -3.86889 -1.73473 0
M  V30 259 C 23.1146 -2.48448 -2.27542 0
M  V30 260 O 23.6446 -2.22585 -3.34393 0
M  V30 261 N 21.8506 -2.09532 -2.01357 0
M  V30 262 H 21.3976 -2.30765 -1.14478 0
M  V30 263 H 21.3556 -1.58476 -2.71538 0
M  V30 264 N 25.1277 -0.289203 -1.54924 0
M  V30 265 C 26.0757 0.607966 -2.24514 0
M  V30 266 C 27.0697 1.14655 -1.24702 0
M  V30 267 O 28.2757 1.09856 -1.4259 0
M  V30 268 H 24.6507 0.21464 -0.720718 0
M  V30 269 H 26.6217 -0.00164182 -2.984 0
M  V30 270 C 25.3707 1.77406 -2.99036 0
M  V30 271 H 24.6937 1.36884 -3.75637 0
M  V30 272 H 26.1337 2.37814 -3.51028 0
M  V30 273 C 24.5927 2.67107 -2.05318 0
M  V30 274 O 25.1227 3.6787 -1.61353 0
M  V30 275 N 23.3287 2.34582 -1.71521 0
M  V30 276 H 22.8757 1.52688 -2.07471 0
M  V30 277 H 22.8337 2.94867 -1.0909 0
M  V30 278 N 26.6058 1.57591 -0.0167156 0
M  V30 279 C 27.8548 1.90461 0.663877 0
M  V30 280 C 28.1678 0.893515 1.73999 0
M  V30 281 O 29.3738 1.11302 2.47637 0
M  V30 282 C 27.8298 3.38155 1.23204 0
M  V30 283 C 27.4378 4.47597 0.189866 0
M  V30 284 C 29.1818 3.80111 1.88986 0
M  V30 285 C 27.0888 5.86379 0.768964 0
M  V30 286 H 26.0188 0.710738 0.251729 0
M  V30 287 H 28.6698 1.83326 -0.0799926 0
M  V30 288 H 27.0518 3.40182 2.02712 0
M  V30 289 H 28.2258 4.57112 -0.581846 0
M  V30 290 H 26.5408 4.14766 -0.368475 0
M  V30 291 H 29.1378 4.81145 2.33247 0
M  V30 292 H 29.4808 3.14511 2.72743 0
M  V30 293 H 30.0138 3.80454 1.16187 0
M  V30 294 H 26.7528 6.55493 -0.0301957 0
M  V30 295 H 26.2728 5.80496 1.50945 0
M  V30 296 H 27.9518 6.34563 1.26251 0
M  V30 297 N 28.0839 -0.256276 1.55502 0
M  V30 298 C 29.3329 -0.983486 1.76098 0
M  V30 299 C 29.6459 -1.86837 0.578896 0
M  V30 300 O 30.8519 -2.63163 0.667648 0
M  V30 301 C 29.3079 -1.79868 3.1173 0
M  V30 302 C 28.9159 -0.961648 4.37557 0
M  V30 303 C 30.6599 -2.51919 3.41668 0
M  V30 304 C 28.5669 -1.77219 5.64223 0
M  V30 305 H 27.4969 -0.370936 0.656447 0
M  V30 306 H 30.1479 -0.238492 1.81944 0
M  V30 307 H 28.5299 -2.58527 2.99966 0
M  V30 308 H 29.7039 -0.218048 4.60284 0
M  V30 309 H 28.0189 -0.354913 4.14885 0
M  V30 310 H 30.6159 -3.12998 4.33516 0
M  V30 311 H 30.9589 -3.23059 2.62562 0
M  V30 312 H 31.4919 -1.80278 3.54605 0
M  V30 313 H 28.2309 -1.10471 6.46124 0
M  V30 314 H 27.7509 -2.49132 5.45613 0
M  V30 315 H 29.4299 -2.34169 6.03137 0
M  V30 316 N 29.562 -1.4872 -0.521534 0
M  V30 317 C 30.495 -1.58451 -1.64221 0
M  V30 318 C 31.473 -0.434513 -1.56687 0
M  V30 319 O 32.657 -0.647275 -1.77038 0
M  V30 320 C 29.784 -1.52037 -3.02659 0
M  V30 321 C 28.83 -2.71981 -3.28525 0
M  V30 322 S 29.663 -4.33869 -3.13876 0
M  V30 323 C 30.819 -4.30067 -4.54745 0
M  V30 324 H 31.052 -2.53256 -1.55719 0
M  V30 325 H 28.585 -1.37358 -0.705143 0
M  V30 326 H 30.543 -1.49023 -3.82495 0
M  V30 327 H 29.204 -0.585541 -3.08594 0
M  V30 328 H 28.397 -2.63656 -4.29536 0
M  V30 329 H 27.999 -2.72302 -2.56374 0
M  V30 330 H 30.291 -4.00521 -5.46433 0
M  V30 331 H 31.234 -5.31287 -4.68123 0
M  V30 332 H 31.642 -3.60419 -4.34463 0
M  V30 333 N 31.0401 0.771051 -1.3745 0
M  V30 334 C 31.9731 1.89166 -1.27638 0
M  V30 335 C 32.9511 1.61842 -0.156782 0
M  V30 336 O 34.1351 1.85569 -0.331111 0
M  V30 337 C 31.2621 3.24405 -0.973621 0
M  V30 338 C 30.3081 3.70638 -2.1102 0
M  V30 339 S 31.1411 3.84228 -3.73 0
M  V30 340 C 32.2971 5.22313 -3.44876 0
M  V30 341 H 32.5301 1.972 -2.22485 0
M  V30 342 H 30.0631 0.932224 -1.23081 0
M  V30 343 H 32.0211 4.02514 -0.805766 0
M  V30 344 H 30.6821 3.14071 -0.0426279 0
M  V30 345 H 29.8751 4.68685 -1.85338 0
M  V30 346 H 29.4771 2.99632 -2.23822 0
M  V30 347 H 31.7691 6.07505 -2.99908 0
M  V30 348 H 32.7121 5.53008 -4.42253 0
M  V30 349 H 33.1201 4.90284 -2.79789 0
M  V30 350 N 32.5182 1.22032 0.997298 0
M  V30 351 C 33.4282 1.00271 2.12092 0
M  V30 352 C 34.4442 -0.047621 1.73935 0
M  V30 353 O 35.6202 0.144136 2.00884 0
M  V30 354 C 32.6852 0.578449 3.4184 0
M  V30 355 C 31.7462 1.70189 3.94125 0
M  V30 356 C 30.9792 1.29778 5.17681 0
M  V30 357 O 31.2022 0.174676 5.70132 0
M  V30 358 O 30.1362 2.11261 5.63607 0
M  V30 359 H 33.9622 1.94398 2.3333 0
M  V30 360 H 31.5472 1.00587 1.10465 0
M  V30 361 H 33.4292 0.351998 4.19927 0
M  V30 362 H 32.1042 -0.334019 3.21972 0
M  V30 363 H 31.0112 1.98282 3.1723 0
M  V30 364 H 32.3442 2.59206 4.18417 0
M  V30 365 N 33.9963 -1.19345 1.0293 0
M  V30 366 C 35.4073 -1.70725 0.755633 0
M  V30 367 C 35.7583 -1.82326 -0.724676 0
M  V30 368 O 34.8833 -1.49471 -1.56484 0
M  V30 369 C 35.4783 -3.10084 1.36503 0
M  V30 370 C 34.0373 -3.58723 1.13994 0
M  V30 371 C 33.1843 -2.35577 1.46283 0
M  V30 372 H 36.1353 -1.0418 1.19718 0
M  V30 373 H 36.1563 -3.72787 0.762217 0
M  V30 374 H 35.6683 -3.01609 2.44241 0
M  V30 375 H 33.7693 -3.72512 0.0807901 0
M  V30 376 H 33.8823 -4.42816 1.82894 0
M  V30 377 H 32.2463 -2.38935 0.88217 0
M  V30 378 H 33.0293 -2.29731 2.55105 0
M  V30 379 N 35.4744 -0.807222 -1.35358 0
M  V30 380 C 36.8854 -0.44876 -1.81226 0
M  V30 381 C 37.2364 1.02929 -1.67033 0
M  V30 382 O 36.3614 1.79991 -1.20133 0
M  V30 383 C 36.9564 -0.807774 -3.2903 0
M  V30 384 C 35.5154 -0.501901 -3.73039 0
M  V30 385 C 34.6624 -1.03304 -2.57339 0
M  V30 386 H 37.6134 -0.998808 -1.23327 0
M  V30 387 H 37.6344 -0.10554 -3.80354 0
M  V30 388 H 37.1464 -1.88357 -3.39328 0
M  V30 389 H 35.2474 0.565128 -3.68289 0
M  V30 390 H 35.3604 -1.03497 -4.67787 0
M  V30 391 H 33.7244 -0.455339 -2.50597 0
M  V30 392 H 34.5074 -2.11496 -2.70415 0
M  V30 393 N 36.9525 1.47285 -0.560781 0
M  V30 394 C 38.1995 2.02464 -0.038062 0
M  V30 395 C 38.5275 1.43474 1.31322 0
M  V30 396 O 37.7825 0.581311 1.86867 0
M  V30 397 C 38.0815 3.57258 0.100784 0
M  V30 398 C 37.7475 4.35184 -1.18007 0
M  V30 399 C 36.4095 4.56194 -1.53103 0
M  V30 400 C 38.7615 4.80098 -2.02867 0
M  V30 401 C 36.0895 5.19367 -2.729 0
M  V30 402 C 38.4415 5.44593 -3.21871 0
M  V30 403 C 37.1055 5.63835 -3.57276 0
M  V30 404 H 36.3755 0.740869 -0.0139279 0
M  V30 405 H 39.0225 1.76916 -0.733012 0
M  V30 406 H 37.3275 3.81819 0.878724 0
M  V30 407 H 39.0245 3.97606 0.520639 0
M  V30 408 H 35.6145 4.19113 -0.8968 0
M  V30 409 H 39.7985 4.63642 -1.7706 0
M  V30 410 H 35.0545 5.32459 -3.00496 0
M  V30 411 H 39.2285 5.78358 -3.87911 0
M  V30 412 H 36.8555 6.12557 -4.50197 0
M  V30 413 N 38.4306 0.297415 1.54768 0
M  V30 414 C 39.3936 -0.567375 2.22066 0
M  V30 415 C 40.3936 -1.06409 1.20556 0
M  V30 416 O 41.5836 -0.960691 1.45315 0
M  V30 417 C 38.7156 -1.78517 2.90421 0
M  V30 418 H 39.9086 0.0205534 2.99893 0
M  V30 419 H 37.4616 0.0482163 1.56226 0
M  V30 420 H 38.1966 -2.41303 2.16664 0
M  V30 421 H 37.9816 -1.43669 3.64831 0
M  V30 422 H 39.4716 -2.39964 3.41771 0
M  V30 423 N 39.9087 -1.5758 0.0250728 0
M  V30 424 C 41.3247 -1.56124 -0.331282 0
M  V30 425 C 41.5247 -1.03029 -1.73169 0
M  V30 426 O 40.5807 -0.675215 -2.43305 0
M  V30 427 C 41.8937 -3.00139 -0.183584 0
M  V30 428 C 43.4417 -3.11946 -0.256654 0
M  V30 429 C 43.9167 -4.57793 -0.137792 0
M  V30 430 N 45.4077 -4.6279 -0.194904 0
M  V30 431 C 46.1427 -5.7326 -0.126655 0
M  V30 432 N 45.6387 -6.928 -0.00755288 0
M  V30 433 N 47.4317 -5.61811 -0.180348 0
M  V30 434 H 39.5827 -1.90424 0.94087 0
M  V30 435 H 41.8457 -0.875761 0.362968 0
M  V30 436 H 41.5517 -3.4292 0.780927 0
M  V30 437 H 41.4257 -3.64899 -0.955448 0
M  V30 438 H 43.8127 -2.69079 -1.21162 0
M  V30 439 H 43.8937 -2.49915 0.545517 0
M  V30 440 H 43.5377 -5.01339 0.813739 0
M  V30 441 H 43.4677 -5.17798 -0.958775 0
M  V30 442 H 45.9587 -3.76807 -0.287267 0
M  V30 443 H 46.2717 -7.72791 0.0379428 0
M  V30 444 H 44.6167 -6.94995 0.0271731 0
M  V30 445 H 47.8077 -4.6731 -0.271767 0
M  V30 446 H 47.9807 -6.47882 -0.123697 0
M  V30 447 N 41.3868 0.248026 -1.55636 0
M  V30 448 C 42.6348 0.974295 -1.77065 0
M  V30 449 C 42.9558 1.85897 -0.588849 0
M  V30 450 O 42.2258 1.91868 0.395407 0
M  V30 451 H 40.8058 0.362733 -0.653019 0
M  V30 452 H 43.4678 0.266244 -1.93073 0
M  V30 453 H 42.5638 1.59667 -2.68166 0
M  V30 454 N 42.8649 1.48995 0.513639 0
M  V30 455 C 44.0929 1.61531 1.29288 0
M  V30 456 C 44.5079 0.281801 1.86685 0
M  V30 457 O 43.8649 -0.731111 1.67215 0
M  V30 458 C 43.9159 2.67449 2.43215 0
M  V30 459 O 43.6369 3.95626 1.88179 0
M  V30 460 C 45.1379 2.90575 3.34785 0
M  V30 461 H 42.3579 0.544165 0.392588 0
M  V30 462 H 44.9019 1.9494 0.617956 0
M  V30 463 H 43.0569 2.36853 3.0656 0
M  V30 464 H 43.4709 4.53868 2.62876 0
M  V30 465 H 44.9449 3.68449 4.11035 0
M  V30 466 H 45.4219 2.00011 3.91015 0
M  V30 467 H 46.0279 3.22538 2.77218 0
M  V30 468 N 44.343 -0.763751 1.37857 0
M  V30 469 C 45.591 -1.51957 1.33243 0
M  V30 470 C 45.912 -1.94835 -0.0801709 0
M  V30 471 O 45.182 -1.66894 -1.02582 0
M  V30 472 H 43.762 -0.563626 0.49024 0
M  V30 473 H 46.424 -0.908504 1.7243 0
M  V30 474 H 45.52 -2.41523 1.97669 0
M  V30 475 N 45.8211 -1.22559 -0.990812 0
M  V30 476 C 47.2371 -0.985996 -1.255 0
M  V30 477 C 47.4371 0.319173 -1.98956 0
M  V30 478 O 46.4931 1.04127 -2.3003 0
M  V30 479 C 47.8061 -2.18607 -2.06474 0
M  V30 480 C 49.3541 -2.22985 -2.19651 0
M  V30 481 C 49.8291 -3.4255 -3.04012 0
M  V30 482 N 51.3201 -3.42725 -3.11599 0
M  V30 483 C 52.0551 -4.31892 -3.7717 0
M  V30 484 N 51.5511 -5.31279 -4.44651 0
M  V30 485 N 53.3441 -4.19662 -3.73952 0
M  V30 486 H 45.4951 -2.06469 -0.49841 0
M  V30 487 H 47.7581 -0.904853 -0.282747 0
M  V30 488 H 47.4641 -3.13267 -1.59865 0
M  V30 489 H 47.3381 -2.18838 -3.07229 0
M  V30 490 H 49.7251 -1.28871 -2.65474 0
M  V30 491 H 49.8061 -2.26791 -1.18319 0
M  V30 492 H 49.4501 -4.36965 -2.58889 0
M  V30 493 H 49.3801 -3.35984 -4.0549 0
M  V30 494 H 51.8711 -2.70807 -2.63575 0
M  V30 495 H 52.1841 -5.95593 -4.92431 0
M  V30 496 H 50.5291 -5.3519 -4.43392 0
M  V30 497 H 53.7201 -3.41268 -3.20396 0
M  V30 498 H 53.8931 -4.89358 -4.24774 0
M  V30 499 N 47.2992 1.18797 -1.03562 0
M  V30 500 C 48.5292 1.92319 -0.754773 0
M  V30 501 C 48.9372 1.7612 0.691248 0
M  V30 502 O 48.2802 1.08491 1.48241 0
M  V30 503 C 48.3422 3.44284 -1.03484 0
M  V30 504 C 48.0062 3.84258 -2.47376 0
M  V30 505 C 49.0032 3.88459 -3.45537 0
M  V30 506 C 46.6882 4.15701 -2.81954 0
M  V30 507 C 48.6822 4.23545 -4.76328 0
M  V30 508 C 46.3692 4.50458 -4.12954 0
M  V30 509 C 47.3672 4.54356 -5.09951 0
M  V30 510 O 47.0552 4.88305 -6.38603 0
M  V30 511 H 46.7872 0.617527 -0.275021 0
M  V30 512 H 49.3412 1.51683 -1.38497 0
M  V30 513 H 47.5712 3.85135 -0.347513 0
M  V30 514 H 49.2602 3.99049 -0.7426 0
M  V30 515 H 50.0262 3.6431 -3.20162 0
M  V30 516 H 45.9052 4.11847 -2.0713 0
M  V30 517 H 49.4492 4.26502 -5.52035 0
M  V30 518 H 45.3462 4.74067 -4.38099 0
M  V30 519 H 46.1142 5.06227 -6.43177 0
M  V30 520 N 48.7773 0.814389 1.34928 0
M  V30 521 C 50.0073 0.41054 2.0248 0
M  V30 522 C 50.4153 -0.985625 1.61499 0
M  V30 523 O 49.7583 -1.64781 0.811976 0
M  V30 524 C 49.8203 0.423384 3.56998 0
M  V30 525 C 49.4843 1.77141 4.21272 0
M  V30 526 C 50.4813 2.73093 4.42398 0
M  V30 527 C 48.1663 2.05755 4.58225 0
M  V30 528 C 50.1603 3.95838 4.9959 0
M  V30 529 C 47.8473 3.28762 5.1513 0
M  V30 530 C 48.8453 4.23621 5.35755 0
M  V30 531 O 48.5333 5.44456 5.91458 0
M  V30 532 H 48.2653 0.163997 0.655806 0
M  V30 533 H 50.8193 1.10155 1.73364 0
M  V30 534 H 49.0493 -0.324276 3.85338 0
M  V30 535 H 50.7383 0.0407683 4.0588 0
M  V30 536 H 51.5043 2.5228 4.14222 0
M  V30 537 H 47.3833 1.32727 4.4148 0
M  V30 538 H 50.9273 4.69891 5.15605 0
M  V30 539 H 46.8243 3.49443 5.42734 0
M  V30 540 H 47.5923 5.4586 6.09901 0
M  V30 541 N 50.2554 -1.46986 0.568584 0
M  V30 542 C 51.2024 -2.30153 -0.172707 0
M  V30 543 C 52.1724 -1.39759 -0.897586 0
M  V30 544 O 53.3574 -1.68716 -0.891044 0
M  V30 545 C 50.4974 -3.23952 -1.1895 0
M  V30 546 C 49.6104 -4.29441 -0.469517 0
M  V30 547 C 48.7454 -5.1038 -1.47259 0
M  V30 548 C 47.7844 -6.07632 -0.738225 0
M  V30 549 N 46.9214 -6.8149 -1.68868 0
M  V30 550 H 51.7614 -2.93019 0.542596 0
M  V30 551 H 49.2984 -1.44422 0.279401 0
M  V30 552 H 51.2564 -3.76767 -1.79173 0
M  V30 553 H 49.8864 -2.62926 -1.87269 0
M  V30 554 H 48.9384 -3.79594 0.247467 0
M  V30 555 H 50.2504 -4.98689 0.105241 0
M  V30 556 H 49.4044 -5.67402 -2.14803 0
M  V30 557 H 48.1434 -4.4106 -2.08128 0
M  V30 558 H 47.1484 -5.49778 -0.0489293 0
M  V30 559 H 48.3734 -6.78966 -0.135129 0
M  V30 560 H 46.3194 -6.14891 -2.28573 0
M  V30 561 H 46.2364 -7.46948 -1.16636 0
M  V30 562 H 47.5044 -7.43078 -2.3549 0
M  V30 563 N 51.7335 -0.305618 -1.54608 0
M  V30 564 C 52.6965 0.555591 -2.22364 0
M  V30 565 C 53.6965 1.05768 -1.21119 0
M  V30 566 O 54.8865 0.952972 -1.45822 0
M  V30 567 C 52.0185 1.76974 -2.91364 0
M  V30 568 H 53.2115 -0.0364572 -2.99878 0
M  V30 569 H 50.7645 -0.0565007 -1.56198 0
M  V30 570 H 51.4995 2.40151 -2.17941 0
M  V30 571 H 51.2845 1.41732 -3.65588 0
M  V30 572 H 52.7745 2.38148 -3.43038 0
M  V30 573 N 53.2116 1.57565 -0.0334293 0
M  V30 574 C 54.4586 1.91978 0.644272 0
M  V30 575 C 54.7866 0.910231 1.71887 0
M  V30 576 O 54.0416 -0.0801961 1.95536 0
M  V30 577 C 54.3406 3.33112 1.29504 0
M  V30 578 C 54.0066 4.49537 0.350388 0
M  V30 579 C 52.6686 4.81115 0.0903974 0
M  V30 580 C 55.0206 5.20347 -0.298032 0
M  V30 581 C 52.3486 5.8086 -0.825746 0
M  V30 582 C 54.7006 6.2107 -1.20226 0
M  V30 583 C 53.3646 6.51088 -1.4711 0
M  V30 584 H 52.6346 0.702496 0.235756 0
M  V30 585 H 55.2816 1.91259 -0.0961176 0
M  V30 586 H 53.5866 3.30113 2.11028 0
M  V30 587 H 55.2836 3.57011 1.82603 0
M  V30 588 H 51.8736 4.24883 0.563205 0
M  V30 589 H 56.0576 4.96178 -0.110234 0
M  V30 590 H 51.3136 6.02461 -1.04169 0
M  V30 591 H 55.4876 6.75057 -1.71086 0
M  V30 592 H 53.1146 7.28193 -2.18264 0
M  V30 593 N 54.6897 -0.239769 1.55765 0
M  V30 594 C 55.6367 -1.29696 1.90913 0
M  V30 595 C 56.6067 -1.47478 0.764164 0
M  V30 596 O 57.7917 -1.61345 1.01845 0
M  V30 597 C 54.9317 -2.64598 2.21544 0
M  V30 598 C 54.0447 -2.54765 3.48882 0
M  V30 599 C 53.1797 -3.82069 3.69049 0
M  V30 600 C 52.2187 -3.66883 4.89963 0
M  V30 601 N 51.3557 -4.86094 5.06614 0
M  V30 602 H 56.1957 -0.990224 2.81067 0
M  V30 603 H 53.7327 -0.477684 1.39128 0
M  V30 604 H 55.6907 -3.43132 2.3731 0
M  V30 605 H 54.3207 -2.93405 1.34585 0
M  V30 606 H 53.3727 -1.67763 3.41409 0
M  V30 607 H 54.6847 -2.39457 4.37563 0
M  V30 608 H 53.8387 -4.69046 3.84812 0
M  V30 609 H 52.5777 -4.00282 2.78614 0
M  V30 610 H 51.5827 -2.78289 4.74168 0
M  V30 611 H 52.8077 -3.50157 5.81865 0
M  V30 612 H 50.7537 -5.04655 4.19117 0
M  V30 613 H 50.6707 -4.73443 5.89396 0
M  V30 614 H 51.9387 -5.74549 5.26795 0
M  V30 615 N 56.1678 -1.49265 -0.50573 0
M  V30 616 C 57.4168 -1.57761 -1.25675 0
M  V30 617 C 57.7298 -0.267371 -1.93764 0
M  V30 618 O 58.9358 -0.230827 -2.70517 0
M  V30 619 C 57.3918 -2.78332 -2.28165 0
M  V30 620 C 56.9998 -4.16096 -1.66037 0
M  V30 621 C 58.7438 -2.96155 -3.04125 0
M  V30 622 C 56.6508 -5.27895 -2.6661 0
M  V30 623 H 55.5808 -0.587391 -0.472745 0
M  V30 624 H 58.2318 -1.75644 -0.53118 0
M  V30 625 H 56.6138 -2.53934 -3.03865 0
M  V30 626 H 57.7878 -4.50612 -0.963622 0
M  V30 627 H 56.1028 -4.03591 -1.02484 0
M  V30 628 H 58.6998 -3.76849 -3.79327 0
M  V30 629 H 59.0428 -2.06534 -3.61455 0
M  V30 630 H 59.5758 -3.2057 -2.35541 0
M  V30 631 H 56.3148 -6.1956 -2.14068 0
M  V30 632 H 55.8348 -4.97839 -3.34539 0
M  V30 633 H 57.5138 -5.57031 -3.29129 0
M  V30 634 N 57.6459 0.756429 -1.3826 0
M  V30 635 C 58.8739 1.54565 -1.3754 0
M  V30 636 C 59.2889 1.88767 0.0355331 0
M  V30 637 O 58.6459 1.52572 1.0014 0
M  V30 638 C 58.6969 2.84654 -2.22833 0
M  V30 639 O 58.4179 2.51912 -3.5843 0
M  V30 640 C 59.9189 3.78807 -2.30261 0
M  V30 641 H 57.1389 0.478353 -0.470553 0
M  V30 642 H 59.6829 0.936381 -1.81803 0
M  V30 643 H 57.8379 3.41965 -1.8204 0
M  V30 644 H 58.2519 3.35325 -4.03308 0
M  V30 645 H 59.7259 4.67045 -2.94233 0
M  V30 646 H 60.2029 4.19038 -1.31545 0
M  V30 647 H 60.8089 3.2742 -2.71433 0
M  V30 648 N 59.124 1.23083 0.984299 0
M  V30 649 C 60.401 0.9689 1.69917 0
M  V30 650 C 60.781 -0.513604 2.04757 0
M  V30 651 O 60.129 -1.48383 1.73767 0
M  V30 652 C 60.339 1.87518 2.94343 0
M  V30 653 C 61.687 2.13636 3.6694 0
M  V30 654 O 62.711 1.85036 3.04368 0
M  V30 655 O 61.57 2.62119 4.79537 0
M  V30 656 H 58.664 0.365095 0.742048 0
M  V30 657 H 61.21 1.34107 1.03987 0
M  V30 658 H 59.982 2.87756 2.65164 0
M  V30 659 H 59.605 1.50514 3.6801 0
M  V30 660 N 60.6021 -1.18246 1.0419 0
M  V30 661 C 62.0181 -1.40269 0.761366 0
M  V30 662 C 62.2181 -1.90777 -0.648578 0
M  V30 663 O 61.2741 -2.0929 -1.41258 0
M  V30 664 C 62.5871 -2.40237 1.8085 0
M  V30 665 C 64.1351 -2.53961 1.82955 0
M  V30 666 C 64.6101 -3.57194 2.86664 0
M  V30 667 N 66.1011 -3.64702 2.85563 0
M  V30 668 C 66.8361 -4.44309 3.6246 0
M  V30 669 N 66.3321 -5.27514 4.49111 0
M  V30 670 N 68.1251 -4.39084 3.50944 0
M  V30 671 H 60.2761 -0.837882 1.95175 0
M  V30 672 H 62.5391 -0.430608 0.84456 0
M  V30 673 H 62.2451 -2.10176 2.81991 0
M  V30 674 H 62.1191 -3.39601 1.64168 0
M  V30 675 H 64.5061 -2.83338 0.824855 0
M  V30 676 H 64.5871 -1.54706 2.03715 0
M  V30 677 H 64.2311 -3.28558 3.87314 0
M  V30 678 H 64.1611 -4.5613 2.6316 0
M  V30 679 H 66.6521 -3.05289 2.22727 0
M  V30 680 H 66.9651 -5.85411 5.04493 0
M  V30 681 H 65.3101 -5.2693 4.53178 0
M  V30 682 H 68.5011 -3.7313 2.82651 0
M  V30 683 H 68.6741 -5.00883 4.11121 0
M  V30 684 N 62.0802 -0.821533 -1.34494 0
M  V30 685 C 63.3292 -0.405355 -1.97585 0
M  V30 686 C 63.6422 1.03677 -1.65863 0
M  V30 687 O 64.8482 1.55679 -2.22433 0
M  V30 688 C 63.3042 -0.673861 -3.53535 0
M  V30 689 C 62.9122 -2.12951 -3.94152 0
M  V30 690 C 64.6562 -0.32378 -4.23263 0
M  V30 691 C 62.5632 -2.34298 -5.43009 0
M  V30 692 H 61.4932 -0.147836 -0.739365 0
M  V30 693 H 64.1442 -1.00769 -1.53355 0
M  V30 694 H 62.5262 -0.00137554 -3.96 0
M  V30 695 H 63.7002 -2.84104 -3.62797 0
M  V30 696 H 62.0152 -2.44089 -3.37356 0
M  V30 697 H 64.6122 -0.461126 -5.32708 0
M  V30 698 H 64.9552 0.731586 -4.09821 0
M  V30 699 H 65.4882 -0.950786 -3.8627 0
M  V30 700 H 62.2272 -3.38335 -5.61435 0
M  V30 701 H 61.7472 -1.67687 -5.75883 0
M  V30 702 H 63.4262 -2.16588 -6.09671 0
M  V30 703 N 63.5583 1.46682 -0.576371 0
M  V30 704 C 64.8043 2.03287 -0.0679305 0
M  V30 705 C 65.1593 1.44063 1.27529 0
M  V30 706 O 64.4523 0.593973 1.82161 0
M  V30 707 C 64.6463 3.57345 0.062886 0
M  V30 708 C 64.4753 4.31509 -1.26611 0
M  V30 709 C 63.2453 4.70664 -1.83856 0
M  V30 710 C 65.4433 4.65444 -2.18783 0
M  V30 711 N 63.4253 5.29552 -3.10561 0
M  V30 712 C 64.7963 5.24835 -3.30072 0
M  V30 713 C 66.8513 4.47375 -2.18542 0
M  V30 714 C 65.5543 5.68063 -4.41244 0
M  V30 715 C 67.5803 4.91614 -3.28739 0
M  V30 716 C 66.9423 5.51071 -4.38748 0
M  V30 717 H 63.0413 0.779083 -0.0674836 0
M  V30 718 H 65.6253 1.78918 -0.767877 0
M  V30 719 H 63.7963 3.8144 0.731988 0
M  V30 720 H 65.5283 4.00592 0.575134 0
M  V30 721 H 62.2833 4.53224 -1.37424 0
M  V30 722 H 62.7073 5.63523 -3.75195 0
M  V30 723 H 67.3493 4.00747 -1.34765 0
M  V30 724 H 65.0673 6.13672 -5.25768 0
M  V30 725 H 68.6533 4.79389 -3.29662 0
M  V30 726 H 67.5333 5.84678 -5.22611 0
M  V30 727 N 65.0364 0.313813 1.54444 0
M  V30 728 C 66.2854 -0.292519 1.99568 0
M  V30 729 C 66.5984 -1.54011 1.20582 0
M  V30 730 O 67.8044 -2.22183 1.56035 0
M  V30 731 C 66.2604 -0.571752 3.55329 0
M  V30 732 C 65.8684 0.658229 4.43138 0
M  V30 733 C 67.6124 -1.13857 4.08946 0
M  V30 734 C 65.5194 0.351439 5.90355 0
M  V30 735 H 64.4494 -0.113079 0.745472 0
M  V30 736 H 67.1004 0.424518 1.78522 0
M  V30 737 H 65.4824 -1.34872 3.72325 0
M  V30 738 H 66.6564 1.43403 4.37918 0
M  V30 739 H 64.9714 1.14458 4.0036 0
M  V30 740 H 67.5684 -1.38257 5.16516 0
M  V30 741 H 67.9114 -2.08489 3.6033 0
M  V30 742 H 68.4444 -0.423015 3.95544 0
M  V30 743 H 65.1834 1.26667 6.43145 0
M  V30 744 H 64.7034 -0.386842 5.98551 0
M  V30 745 H 66.3824 -0.0423134 6.46986 0
M  V30 746 N 66.5145 -1.57545 0.0417849 0
M  V30 747 C 67.7635 -1.91494 -0.633492 0
M  V30 748 C 68.0765 -0.921084 -1.72556 0
M  V30 749 O 69.2825 -1.15228 -2.45835 0
M  V30 750 C 67.7385 -3.40072 -1.17808 0
M  V30 751 C 67.3465 -4.47843 -0.118633 0
M  V30 752 C 69.0905 -3.8307 -1.82915 0
M  V30 753 C 66.9975 -5.87529 -0.675578 0
M  V30 754 H 65.9275 -0.714653 -0.24039 0
M  V30 755 H 68.5785 -1.83175 0.109148 0
M  V30 756 H 66.9605 -3.43364 -1.97274 0
M  V30 757 H 68.1345 -4.56128 0.654494 0
M  V30 758 H 66.4495 -4.14128 0.434414 0
M  V30 759 H 69.0465 -4.84794 -2.25563 0
M  V30 760 H 69.3895 -3.1881 -2.67705 0
M  V30 761 H 69.9225 -3.82255 -1.10119 0
M  V30 762 H 66.6615 -6.55362 0.134475 0
M  V30 763 H 66.1815 -5.82824 -1.4169 0
M  V30 764 H 67.8605 -6.36491 -1.1614 0
M  V30 765 N 67.9926 0.231505 -1.5589 0
M  V30 766 C 69.4036 0.799327 -1.68724 0
M  V30 767 C 69.7546 1.85398 -0.642022 0
M  V30 768 O 68.8796 2.1539 0.208784 0
M  V30 769 C 69.4746 1.45664 -3.05888 0
M  V30 770 C 68.0336 1.97197 -3.20609 0
M  V30 771 C 67.1806 0.828552 -2.64632 0
M  V30 772 H 70.1316 0.00702616 -1.58698 0
M  V30 773 H 70.1526 2.32517 -3.01191 0
M  V30 774 H 69.6646 0.688808 -3.81939 0
M  V30 775 H 67.7656 2.76813 -2.4941 0
M  V30 776 H 67.8786 2.15878 -4.27707 0
M  V30 777 H 66.2426 1.23321 -2.22854 0
M  V30 778 H 67.0256 0.0735544 -3.43221 0
M  V30 779 N 69.4707 1.49531 0.497807 0
M  V30 780 C 70.3807 1.69176 1.62532 0
M  V30 781 C 71.3967 0.5744 1.64246 0
M  V30 782 O 72.5727 0.849497 1.82608 0
M  V30 783 C 69.6377 1.75695 2.98885 0
M  V30 784 C 68.6987 2.9929 3.07773 0
M  V30 785 C 67.9317 3.05488 4.37622 0
M  V30 786 O 68.1547 2.19192 5.26603 0
M  V30 787 O 67.0887 3.9798 4.51548 0
M  V30 788 H 70.9147 2.647 1.48887 0
M  V30 789 H 68.4997 1.3331 0.674441 0
M  V30 790 H 70.3817 1.82317 3.79919 0
M  V30 791 H 69.0567 0.8335 3.12785 0
M  V30 792 H 67.9637 2.98183 2.25915 0
M  V30 793 H 69.2967 3.91125 2.98801 0
M  V30 794 N 70.9488 -0.749086 1.3866 0
M  V30 795 C 72.3648 -1.05276 1.19955 0
M  V30 796 C 72.5648 -2.01435 0.05134 0
M  V30 797 O 71.6208 -2.45232 -0.60147 0
M  V30 798 C 72.9338 -1.62853 2.52783 0
M  V30 799 C 74.4818 -1.75002 2.59506 0
M  V30 800 C 74.9568 -2.35991 3.92521 0
M  V30 801 N 76.4478 -2.43416 3.94085 0
M  V30 802 C 77.1828 -2.91511 4.9377 0
M  V30 803 N 76.6788 -3.39608 6.03853 0
M  V30 804 N 78.4718 -2.90592 4.81157 0
M  V30 805 H 70.6228 -0.111066 2.12109 0
M  V30 806 H 72.8858 -0.111901 0.941373 0
M  V30 807 H 72.5918 -0.99664 3.37283 0
M  V30 808 H 72.4658 -2.61854 2.715 0
M  V30 809 H 74.8528 -2.37317 1.75398 0
M  V30 810 H 74.9338 -0.74693 2.44652 0
M  V30 811 H 74.5778 -1.74308 4.77053 0
M  V30 812 H 74.5078 -3.3695 4.04688 0
M  V30 813 H 76.9988 -2.09405 3.14576 0
M  V30 814 H 77.3118 -3.74775 6.75843 0
M  V30 815 H 75.6568 -3.37653 6.07466 0
M  V30 816 H 78.8478 -2.52332 3.94267 0
M  V30 817 H 79.0208 -3.27762 5.58996 0
M  V30 818 N 72.4269 -1.23603 -0.977757 0
M  V30 819 C 73.6569 -1.09487 -1.75203 0
M  V30 820 C 74.0649 0.356321 -1.85814 0
M  V30 821 O 73.4079 1.25816 -1.33851 0
M  V30 822 C 73.4699 -1.64905 -3.19447 0
M  V30 823 C 73.1339 -3.13688 -3.32338 0
M  V30 824 C 74.1309 -4.10953 -3.18455 0
M  V30 825 C 71.8159 -3.53449 -3.56902 0
M  V30 826 C 73.8099 -5.45962 -3.28944 0
M  V30 827 C 71.4969 -4.88602 -3.6703 0
M  V30 828 C 72.4949 -5.84668 -3.53062 0
M  V30 829 O 72.1829 -7.17365 -3.62826 0
M  V30 830 H 71.9149 -0.38367 -0.556573 0
M  V30 831 H 74.4689 -1.6398 -1.23693 0
M  V30 832 H 72.6989 -1.04835 -3.72218 0
M  V30 833 H 74.3879 -1.46226 -3.78646 0
M  V30 834 H 75.1539 -3.81577 -2.99372 0
M  V30 835 H 71.0329 -2.79188 -3.66844 0
M  V30 836 H 74.5769 -6.20925 -3.17958 0
M  V30 837 H 70.4739 -5.17653 -3.85623 0
M  V30 838 H 71.2419 -7.2515 -3.79605 0
M  V30 839 N 73.905 1.17692 -1.04816 0
M  V30 840 C 75.133 1.91786 -0.776254 0
M  V30 841 C 75.548 1.76604 0.667577 0
M  V30 842 O 74.905 1.10067 1.45573 0
M  V30 843 C 74.956 3.42967 -1.14263 0
M  V30 844 O 74.677 3.57678 -2.52978 0
M  V30 845 C 76.178 4.34144 -0.896311 0
M  V30 846 H 73.398 0.608624 -0.282519 0
M  V30 847 H 75.942 1.49268 -1.39783 0
M  V30 848 H 74.097 3.83245 -0.565874 0
M  V30 849 H 74.511 4.51319 -2.67229 0
M  V30 850 H 75.985 5.38744 -1.20244 0
M  V30 851 H 76.462 4.38876 0.168636 0
M  V30 852 H 77.068 3.99574 -1.45672 0
M  V30 853 N 75.3831 0.828654 1.34056 0
M  V30 854 C 76.6301 0.419458 1.98108 0
M  V30 855 C 76.9581 -1.01886 1.65679 0
M  V30 856 O 76.2131 -1.72539 0.923512 0
M  V30 857 C 76.5121 0.575226 3.52741 0
M  V30 858 C 76.1781 1.98012 4.05095 0
M  V30 859 C 74.8401 2.36442 4.19104 0
M  V30 860 C 77.1921 2.89824 4.33188 0
M  V30 861 C 74.5201 3.66009 4.58535 0
M  V30 862 C 76.8721 4.1886 4.74066 0
M  V30 863 C 75.5361 4.5726 4.86281 0
M  V30 864 H 74.8061 0.153491 0.724929 0
M  V30 865 H 77.4531 1.05371 1.59904 0
M  V30 866 H 75.7581 -0.142385 3.91541 0
M  V30 867 H 77.4551 0.239057 4.00287 0
M  V30 868 H 74.0451 1.67162 3.94658 0
M  V30 869 H 78.2291 2.61375 4.21897 0
M  V30 870 H 73.4851 3.95579 4.66184 0
M  V30 871 H 77.6591 4.90086 4.94761 0
M  V30 872 H 75.2861 5.57707 5.16592 0
M  V30 873 N 76.8612 -1.46375 0.584142 0
M  V30 874 C 78.1092 -2.01978 0.0701287 0
M  V30 875 C 78.4302 -1.4579 -1.295 0
M  V30 876 O 77.7002 -0.64314 -1.85042 0
M  V30 877 H 76.2802 -0.746648 0.0229345 0
M  V30 878 H 78.9422 -1.79461 0.760245 0
M  V30 879 H 78.0382 -3.121 0.0022064 0
M  V30 880 N 78.3393 -0.321999 -1.54275 0
M  V30 881 C 79.5693 0.282642 -2.04658 0
M  V30 882 C 79.9773 1.46453 -1.19784 0
M  V30 883 O 79.3203 1.82367 -0.220932 0
M  V30 884 C 79.3823 0.781857 -3.50895 0
M  V30 885 C 79.0463 -0.277517 -4.56157 0
M  V30 886 C 80.0433 -1.11307 -5.07845 0
M  V30 887 C 77.7283 -0.425256 -5.00497 0
M  V30 888 C 79.7223 -2.08211 -6.02434 0
M  V30 889 C 77.4093 -1.39771 -5.94901 0
M  V30 890 C 78.4073 -2.2246 -6.45756 0
M  V30 891 O 78.0953 -3.18054 -7.38307 0
M  V30 892 H 77.8273 0.0622636 -0.673126 0
M  V30 893 H 80.3813 -0.465792 -2.00049 0
M  V30 894 H 78.6113 1.58118 -3.52896 0
M  V30 895 H 80.3003 1.30467 -3.84361 0
M  V30 896 H 81.0663 -1.00991 -4.74369 0
M  V30 897 H 76.9453 0.20847 -4.60528 0
M  V30 898 H 80.4893 -2.72791 -6.42052 0
M  V30 899 H 76.3863 -1.50152 -6.27794 0
M  V30 900 H 77.1543 -3.13275 -7.56175 0
M  V30 901 N 79.8174 1.5752 -0.0501392 0
M  V30 902 C 80.7644 2.1147 0.924603 0
M  V30 903 C 81.7344 1.02182 1.30951 0
M  V30 904 O 82.9194 1.29723 1.39916 0
M  V30 905 C 80.0594 2.66337 2.19451 0
M  V30 906 C 79.1724 3.89708 1.86418 0
M  V30 907 C 78.3074 4.32893 3.07859 0
M  V30 908 C 77.3464 5.48967 2.70742 0
M  V30 909 N 76.4834 5.87211 3.84874 0
M  V30 910 H 81.3234 2.94465 0.457639 0
M  V30 911 H 78.8604 1.45531 0.214266 0
M  V30 912 H 80.8184 2.96247 2.93758 0
M  V30 913 H 79.4484 1.86141 2.63726 0
M  V30 914 H 78.5004 3.66396 1.02264 0
M  V30 915 H 79.8124 4.74074 1.55096 0
M  V30 916 H 78.9664 4.6435 3.90466 0
M  V30 917 H 77.7054 3.47336 3.42358 0
M  V30 918 H 76.7104 5.17183 1.86551 0
M  V30 919 H 77.9354 6.3624 2.37436 0
M  V30 920 H 75.8814 5.04607 4.19175 0
M  V30 921 H 75.7984 6.66266 3.57247 0
M  V30 922 H 77.0664 6.23282 4.68123 0
M  V30 923 N 81.2955 -0.223234 1.56011 0
M  V30 924 C 82.7065 -0.790368 1.69145 0
M  V30 925 C 83.0575 -1.85055 0.651845 0
M  V30 926 O 82.1825 -2.15498 -0.197359 0
M  V30 927 C 82.7775 -1.4404 3.06656 0
M  V30 928 C 81.3365 -1.95494 3.2165 0
M  V30 929 C 80.4835 -0.814506 2.65068 0
M  V30 930 H 83.4345 0.00139011 1.587 0
M  V30 931 H 83.4555 -2.30916 3.0242 0
M  V30 932 H 82.9675 -0.668543 3.82298 0
M  V30 933 H 81.0685 -2.75487 2.50874 0
M  V30 934 H 81.1815 -2.13607 4.28846 0
M  V30 935 H 79.5455 -1.22137 2.23505 0
M  V30 936 H 80.3285 -0.0553515 3.43255 0
M  V30 937 N 82.7736 -1.49793 -0.48987 0
M  V30 938 C 83.6836 -1.70036 -1.61632 0
M  V30 939 C 84.6996 -0.583102 -1.63939 0
M  V30 940 O 85.8756 -0.859169 -1.82154 0
M  V30 941 C 82.9406 -1.77277 -2.97949 0
M  V30 942 C 82.0016 -3.00918 -3.06181 0
M  V30 943 C 81.2346 -3.07804 -4.35996 0
M  V30 944 O 81.4576 -2.21982 -5.25433 0
M  V30 945 O 80.3916 -4.00369 -4.49431 0
M  V30 946 H 84.2176 -2.65486 -1.47482 0
M  V30 947 H 81.8026 -1.33666 -0.667362 0
M  V30 948 H 83.6846 -1.84329 -3.78947 0
M  V30 949 H 82.3596 -0.850076 -3.12339 0
M  V30 950 H 81.2666 -2.99377 -2.2433 0
M  V30 951 H 82.5996 -3.92704 -2.96723 0
M  V30 952 N 84.2517 0.741722 -1.39055 0
M  V30 953 C 85.5287 1.49252 -1.26425 0
M  V30 954 C 85.9087 2.10705 0.129144 0
M  V30 955 O 85.2567 1.98045 1.13976 0
M  V30 956 C 85.4667 2.54934 -2.38347 0
M  V30 957 C 86.8147 3.21506 -2.77343 0
M  V30 958 O 87.8387 2.65245 -2.37747 0
M  V30 959 O 86.6977 4.23294 -3.45665 0
M  V30 960 H 83.7917 0.662451 -0.495064 0
M  V30 961 H 86.3377 0.776121 -1.50912 0
M  V30 962 H 85.1097 2.07857 -3.31529 0
M  V30 963 H 84.7327 3.34141 -2.15489 0
M  V30 964 N 85.7298 1.2412 0.971189 0
M  V30 965 C 86.9768 1.07881 1.71371 0
M  V30 966 C 87.3048 -0.382901 1.90694 0
M  V30 967 O 86.5598 -1.29945 1.46331 0
M  V30 968 C 86.8588 1.75983 3.11071 0
M  V30 969 C 86.5248 3.25909 3.11599 0
M  V30 970 C 85.1868 3.66813 3.11451 0
M  V30 971 C 87.5388 4.21771 3.062 0
M  V30 972 C 84.8668 5.02021 3.03631 0
M  V30 973 C 87.2188 5.56982 2.99923 0
M  V30 974 C 85.8828 5.97237 2.98102 0
M  V30 975 H 85.1528 0.394764 0.62709 0
M  V30 976 H 87.7998 1.54176 1.13587 0
M  V30 977 H 86.1048 1.22072 3.72298 0
M  V30 978 H 87.8018 1.60887 3.6731 0
M  V30 979 H 84.3918 2.93353 3.12477 0
M  V30 980 H 88.5758 3.91172 3.05447 0
M  V30 981 H 83.8318 5.32411 3.0058 0
M  V30 982 H 88.0058 6.30969 2.94704 0
M  V30 983 H 85.6328 7.01967 2.91798 0
M  V30 984 N 87.2079 -1.17134 1.05439 0
M  V30 985 C 88.1559 -2.23289 0.651511 0
M  V30 986 C 89.1499 -1.66186 -0.328411 0
M  V30 987 O 90.3559 -1.78949 -0.194206 0
M  V30 988 H 86.7309 -0.726938 0.192523 0
M  V30 989 H 88.7019 -2.54565 1.55689 0
M  V30 990 C 87.4509 -3.47671 0.0448436 0
M  V30 991 H 86.7739 -3.91918 0.78996 0
M  V30 992 H 88.2139 -4.2353 -0.19964 0
M  V30 993 C 86.6729 -3.14453 -1.20918 0
M  V30 994 O 87.2029 -3.29459 -2.29825 0
M  V30 995 N 85.4089 -2.68657 -1.10779 0
M  V30 996 H 84.9559 -2.56646 -0.221526 0
M  V30 997 H 84.9139 -2.46804 -1.9477 0
M  V30 998 N 88.686 -0.835752 -1.33615 0
M  V30 999 C 89.633 -0.26473 -2.29277 0
M  V30 1000 C 90.603 0.617712 -1.54187 0
M  V30 1001 O 91.788 0.556641 -1.825 0
M  V30 1002 C 88.928 0.556777 -3.40579 0
M  V30 1003 C 88.041 -0.349339 -4.30585 0
M  V30 1004 C 87.176 0.482969 -5.29 0
M  V30 1005 C 86.215 -0.421732 -6.10645 0
M  V30 1006 N 85.352 0.372262 -7.01112 0
M  V30 1007 H 90.192 -1.08582 -2.77514 0
M  V30 1008 H 87.729 -0.546927 -1.36554 0
M  V30 1009 H 89.687 1.04852 -4.03809 0
M  V30 1010 H 88.317 1.34286 -2.93542 0
M  V30 1011 H 87.369 -0.959372 -3.68104 0
M  V30 1012 H 88.681 -1.04445 -4.87742 0
M  V30 1013 H 87.835 1.03866 -5.97743 0
M  V30 1014 H 86.574 1.21153 -4.72412 0
M  V30 1015 H 85.579 -0.989464 -5.40823 0
M  V30 1016 H 86.804 -1.14861 -6.69316 0
M  V30 1017 H 84.75 1.08426 -6.46977 0
M  V30 1018 H 84.667 -0.264198 -7.55538 0
M  V30 1019 H 85.935 0.910293 -7.74167 0
M  V30 1020 N 90.1641 1.46063 -0.591896 0
M  V30 1021 C 91.3891 2.07226 -0.0850314 0
M  V30 1022 C 91.8141 1.43625 1.21463 0
M  V30 1023 O 91.1721 0.523305 1.73583 0
M  V30 1024 C 91.2201 3.60554 0.0576567 0
M  V30 1025 O 90.3241 3.97128 1.11188 0
M  V30 1026 H 89.6651 0.660615 -0.0669568 0
M  V30 1027 H 92.1951 1.8756 -0.81745 0
M  V30 1028 H 92.2051 4.07165 0.2609 0
M  V30 1029 H 90.8801 4.06235 -0.891416 0
M  V30 1030 H 89.4571 3.62213 0.886356 0
M  V30 1031 N 91.6422 0.330177 1.54103 0
M  V30 1032 C 92.8672 -0.274893 2.0557 0
M  V30 1033 C 93.2922 -1.44487 1.20437 0
M  V30 1034 O 92.6502 -1.80021 0.214991 0
M  V30 1035 C 92.6982 -0.68079 3.54115 0
M  V30 1036 O 91.8022 -1.7824 3.71893 0
M  V30 1037 H 91.1432 -0.0483849 0.662235 0
M  V30 1038 H 93.6732 0.480508 1.98878 0
M  V30 1039 H 93.6832 -0.961635 3.96505 0
M  V30 1040 H 92.3582 0.174903 4.15532 0
M  V30 1041 H 90.9352 -1.49985 3.41407 0
M  V30 1042 N 93.1203 -1.57491 0.0584922 0
M  V30 1043 C 94.3683 -1.92597 -0.612436 0
M  V30 1044 C 94.6893 -0.938162 -1.70949 0
M  V30 1045 O 93.9593 0.0158301 -1.95894 0
M  V30 1046 H 92.5393 -0.710964 -0.229214 0
M  V30 1047 H 95.2013 -1.94571 0.113218 0
M  V30 1048 H 94.2973 -2.94038 -1.04633 0
M  V30 1049 N 94.5984 0.214957 -1.56127 0
M  V30 1050 C 95.8474 0.936451 -1.78643 0
M  V30 1051 C 96.1604 1.85237 -0.628229 0
M  V30 1052 O 97.3664 2.613 -0.737186 0
M  V30 1053 C 95.8224 1.7154 -3.16389 0
M  V30 1054 C 95.4304 0.845299 -4.39953 0
M  V30 1055 C 97.1744 2.42772 -3.48227 0
M  V30 1056 C 95.0814 1.62198 -5.68723 0
M  V30 1057 H 94.0114 0.353401 -0.666051 0
M  V30 1058 H 96.6624 0.190169 -1.82512 0
M  V30 1059 H 95.0444 2.50484 -3.06715 0
M  V30 1060 H 96.2184 0.0959353 -4.607 0
M  V30 1061 H 94.5334 0.244789 -4.1568 0
M  V30 1062 H 97.1304 3.01394 -4.41663 0
M  V30 1063 H 97.4734 3.15984 -2.71035 0
M  V30 1064 H 98.0064 1.70813 -3.5926 0
M  V30 1065 H 94.7454 0.933011 -6.48826 0
M  V30 1066 H 94.2654 2.34579 -5.52026 0
M  V30 1067 H 95.9444 2.18095 -6.09133 0
M  V30 1068 N 96.0765 1.50051 0.48192 0
M  V30 1069 C 97.3235 1.60498 1.23477 0
M  V30 1070 C 97.6515 0.300331 1.92167 0
M  V30 1071 O 96.9065 -0.713094 1.82246 0
M  V30 1072 C 97.2055 2.72717 2.30998 0
M  V30 1073 C 96.8715 4.13572 1.79636 0
M  V30 1074 C 95.5335 4.519 1.65348 0
M  V30 1075 C 97.8855 5.01649 1.41412 0
M  V30 1076 C 95.2135 5.76057 1.11244 0
M  V30 1077 C 97.5655 6.26343 0.887538 0
M  V30 1078 C 96.2295 6.63483 0.731207 0
M  V30 1079 H 95.4995 0.587303 0.451836 0
M  V30 1080 H 98.1465 1.83948 0.532468 0
M  V30 1081 H 96.4515 2.43312 3.07094 0
M  V30 1082 H 98.1485 2.78006 2.88988 0
M  V30 1083 H 94.7385 3.83329 1.91721 0
M  V30 1084 H 98.9225 4.72679 1.51289 0
M  V30 1085 H 94.1785 6.03516 0.978686 0
M  V30 1086 H 98.3525 6.93958 0.582654 0
M  V30 1087 H 95.9795 7.59568 0.309806 0
M  V30 1088 N 97.5546 -0.734337 1.39446 0
M  V30 1089 C 98.5026 -1.86971 1.38364 0
M  V30 1090 C 99.4966 -1.67288 0.266687 0
M  V30 1091 O 100.703 -1.74621 0.436755 0
M  V30 1092 H 97.0776 -0.615474 0.432082 0
M  V30 1093 H 99.0486 -1.85 2.34132 0
M  V30 1094 C 97.7976 -3.2466 1.24465 0
M  V30 1095 H 97.1206 -3.40402 2.09682 0
M  V30 1096 H 98.5606 -4.04292 1.27764 0
M  V30 1097 C 97.0196 -3.36867 -0.0468674 0
M  V30 1098 O 97.5496 -3.88618 -1.01681 0
M  V30 1099 N 95.7556 -2.90391 -0.110145 0
M  V30 1100 H 95.3026 -2.48466 0.679868 0
M  V30 1101 H 95.2606 -2.98939 -0.973799 0
M  V30 1102 N 99.0327 -1.24633 -0.964593 0
M  V30 1103 C 100.449 -1.01239 -1.2338 0
M  V30 1104 C 100.649 0.2769 -1.99588 0
M  V30 1105 O 99.7047 0.992241 -2.32187 0
M  V30 1106 C 101.018 -2.22937 -2.01791 0
M  V30 1107 C 102.566 -2.27594 -2.14872 0
M  V30 1108 C 103.041 -3.48921 -2.96678 0
M  V30 1109 N 104.532 -3.49257 -3.04259 0
M  V30 1110 C 105.267 -4.39795 -3.67924 0
M  V30 1111 N 104.763 -5.40591 -4.33281 0
M  V30 1112 N 106.556 -4.275 -3.64966 0
M  V30 1113 H 98.7067 -2.0748 -0.454502 0
M  V30 1114 H 100.97 -0.910647 -0.26349 0
M  V30 1115 H 100.676 -3.16587 -1.53184 0
M  V30 1116 H 100.55 -2.25306 -3.02518 0
M  V30 1117 H 102.937 -1.34473 -2.6268 0
M  V30 1118 H 103.018 -2.2925 -1.13482 0
M  V30 1119 H 102.662 -4.42359 -2.49562 0
M  V30 1120 H 102.592 -3.4451 -3.98272 0
M  V30 1121 H 105.083 -2.76337 -2.57771 0
M  V30 1122 H 105.396 -6.05904 -4.79687 0
M  V30 1123 H 103.741 -5.44475 -4.3194 0
M  V30 1124 H 106.932 -3.47987 -3.13086 0
M  V30 1125 H 107.105 -4.98258 -4.14298 0
M  V30 1126 N 100.511 1.16574 -1.06058 0
M  V30 1127 C 101.788 1.83048 -0.689416 0
M  V30 1128 C 102.168 1.94122 0.829443 0
M  V30 1129 O 101.516 1.48249 1.7388 0
M  V30 1130 C 101.726 3.20186 -1.38859 0
M  V30 1131 C 103.074 3.95989 -1.53226 0
M  V30 1132 O 104.098 3.29696 -1.3483 0
M  V30 1133 O 102.957 5.14813 -1.83384 0
M  V30 1134 H 100.051 0.790258 -0.243764 0
M  V30 1135 H 102.597 1.23797 -1.16071 0
M  V30 1136 H 101.369 3.07146 -2.4244 0
M  V30 1137 H 100.992 3.87112 -0.907216 0
M  V30 1138 N 101.989 0.842826 1.3317 0
M  V30 1139 C 103.235 0.441099 1.97945 0
M  V30 1140 C 103.568 -0.998024 1.66593 0
M  V30 1141 O 102.843 -1.69839 0.947898 0
M  V30 1142 C 103.126 0.666841 3.53872 0
M  V30 1143 C 102.979 2.15352 3.94897 0
M  V30 1144 C 104.298 0.115544 4.39948 0
M  V30 1145 H 101.417 0.161739 0.719034 0
M  V30 1146 H 104.059 1.05907 1.57746 0
M  V30 1147 H 102.209 0.140828 3.88245 0
M  V30 1148 H 103.881 2.7447 3.70761 0
M  V30 1149 H 102.124 2.63653 3.44484 0
M  V30 1150 H 102.795 2.26221 5.03516 0
M  V30 1151 H 105.271 0.565213 4.12243 0
M  V30 1152 H 104.147 0.303152 5.48062 0
M  V30 1153 H 104.408 -0.980935 4.3108 0
M  V30 1154 N 103.467 -1.45747 0.599634 0
M  V30 1155 C 104.707 -2.04181 0.0946309 0
M  V30 1156 C 105.071 -1.45895 -1.24815 0
M  V30 1157 O 106.272 -1.95633 -1.8434 0
M  V30 1158 C 104.543 -3.57368 0.047581 0
M  V30 1159 S 106.102 -4.36997 -0.397387 0
M  V30 1160 H 102.92 -0.70953 0.0456954 0
M  V30 1161 H 105.522 -1.78564 0.795946 0
M  V30 1162 H 104.226 -3.97303 1.02852 0
M  V30 1163 H 103.757 -3.87549 -0.675977 0
M  V30 1164 H 105.772 -4.68012 -1.64862 0
M  V30 1165 N 104.945 -0.338344 -1.53925 0
M  V30 1166 C 105.855 0.529421 -2.28548 0
M  V30 1167 C 106.871 1.11645 -1.3346 0
M  V30 1168 O 108.047 1.13325 -1.66492 0
M  V30 1169 C 105.112 1.66713 -3.03987 0
M  V30 1170 C 104.173 1.11041 -4.14691 0
M  V30 1171 C 103.406 2.19389 -4.86522 0
M  V30 1172 O 103.629 3.40013 -4.57982 0
M  V30 1173 O 102.563 1.83976 -5.73094 0
M  V30 1174 H 106.389 -0.0770399 -3.03602 0
M  V30 1175 H 103.974 -0.103555 -1.49041 0
M  V30 1176 H 105.856 2.32918 -3.5118 0
M  V30 1177 H 104.531 2.25949 -2.31794 0
M  V30 1178 H 103.438 0.413024 -3.71813 0
M  V30 1179 H 104.771 0.562975 -4.8897 0
M  V30 1180 N 106.423 1.57458 -0.0668435 0
M  V30 1181 C 107.653 1.97337 0.611677 0
M  V30 1182 C 108.061 0.943744 1.63982 0
M  V30 1183 O 107.404 -0.0785584 1.83532 0
M  V30 1184 C 107.466 3.33511 1.34205 0
M  V30 1185 C 107.13 4.54598 0.467941 0
M  V30 1186 C 108.127 5.19186 -0.272439 0
M  V30 1187 C 105.812 5.0075 0.39427 0
M  V30 1188 C 107.806 6.28274 -1.07476 0
M  V30 1189 C 105.493 6.09711 -0.411729 0
M  V30 1190 C 106.491 6.73335 -1.14492 0
M  V30 1191 O 106.179 7.80199 -1.93763 0
M  V30 1192 H 105.911 0.654042 0.170893 0
M  V30 1193 H 108.465 2.04961 -0.134289 0
M  V30 1194 H 106.695 3.22487 2.13398 0
M  V30 1195 H 108.384 3.58029 1.91233 0
M  V30 1196 H 109.15 4.84477 -0.225086 0
M  V30 1197 H 105.029 4.51009 0.954569 0
M  V30 1198 H 108.573 6.77866 -1.64755 0
M  V30 1199 H 104.47 6.43854 -0.460664 0
M  V30 1200 H 105.238 7.97053 -1.86142 0
M  V30 1201 N 107.901 -0.206675 1.56239 0
M  V30 1202 C 109.131 -0.943975 1.83773 0
M  V30 1203 C 109.539 -1.77841 0.645703 0
M  V30 1204 O 108.882 -1.79403 -0.395008 0
M  V30 1205 C 108.944 -1.899 3.05251 0
M  V30 1206 C 108.608 -1.24764 4.39639 0
M  V30 1207 C 109.605 -0.630216 5.16066 0
M  V30 1208 C 107.29 -1.25496 4.8637 0
M  V30 1209 C 109.284 -0.0287946 6.37393 0
M  V30 1210 C 106.971 -0.649698 6.07637 0
M  V30 1211 C 107.969 -0.0376845 6.8299 0
M  V30 1212 O 107.657 0.55812 8.0196 0
M  V30 1213 H 107.389 -0.281508 0.614597 0
M  V30 1214 H 109.943 -0.222458 2.04192 0
M  V30 1215 H 108.173 -2.6599 2.80689 0
M  V30 1216 H 109.862 -2.5031 3.1953 0
M  V30 1217 H 110.628 -0.616785 4.81062 0
M  V30 1218 H 106.507 -1.72072 4.27683 0
M  V30 1219 H 110.051 0.449518 6.9615 0
M  V30 1220 H 105.948 -0.660592 6.42111 0
M  V30 1221 H 106.716 0.453891 8.17241 0
M  V30 1222 N 109.379 -1.50304 -0.473955 0
M  V30 1223 C 110.656 -1.51667 -1.23518 0
M  V30 1224 C 111.036 -0.259701 -2.09496 0
M  V30 1225 O 110.384 0.756986 -2.15597 0
M  V30 1226 C 110.594 -2.81082 -2.06868 0
M  V30 1227 C 111.942 -3.31631 -2.65153 0
M  V30 1228 O 112.966 -2.82384 -2.17113 0
M  V30 1229 O 111.825 -4.17471 -3.52675 0
M  V30 1230 H 108.919 -0.60822 -0.560355 0
M  V30 1231 H 111.465 -1.62592 -0.486011 0
M  V30 1232 H 110.237 -3.64041 -1.4349 0
M  V30 1233 H 109.86 -2.73146 -2.88924 0
M  V30 1234 N 110.857 0.726932 -1.39834 0
M  V30 1235 C 112.268 1.30558 -1.3346 0
M  V30 1236 C 112.619 1.962 -0.00273003 0
M  V30 1237 O 111.744 1.96826 0.899371 0
M  V30 1238 C 112.339 2.37404 -2.41713 0
M  V30 1239 C 110.898 2.90921 -2.38835 0
M  V30 1240 C 110.045 1.64578 -2.2318 0
M  V30 1241 H 112.996 0.523862 -1.49804 0
M  V30 1242 H 113.017 3.17984 -2.08966 0
M  V30 1243 H 112.529 1.89599 -3.38635 0
M  V30 1244 H 110.63 3.42985 -1.45575 0
M  V30 1245 H 110.743 3.43487 -3.33997 0
M  V30 1246 H 109.107 1.89219 -1.70494 0
M  V30 1247 H 109.89 1.18814 -3.22084 0
M  V30 1248 N 112.336 1.25143 0.95797 0
M  V30 1249 C 113.613 1.00472 1.67823 0
M  V30 1250 C 113.993 -0.470056 2.058 0
M  V30 1251 O 113.341 -1.44663 1.76875 0
M  V30 1252 C 113.551 1.9372 2.90299 0
M  V30 1253 C 114.899 2.21371 3.62326 0
M  V30 1254 O 115.923 1.91451 3.00375 0
M  V30 1255 O 114.782 2.72231 4.7387 0
M  V30 1256 H 111.876 0.380752 0.734137 0
M  V30 1257 H 114.422 1.36283 1.01119 0
M  V30 1258 H 113.194 2.93316 2.59001 0
M  V30 1259 H 112.817 1.58286 3.64735 0
M  V30 1260 N 113.814 -1.1601 1.06675 0
M  V30 1261 C 115.044 -1.90251 0.805497 0
M  V30 1262 C 115.452 -1.77891 -0.64431 0
M  V30 1263 O 114.795 -1.12383 -1.45313 0
M  V30 1264 C 114.857 -3.41419 1.12576 0
M  V30 1265 C 114.521 -3.77564 2.57477 0
M  V30 1266 C 115.518 -3.79161 3.55715 0
M  V30 1267 C 113.203 -4.08079 2.92877 0
M  V30 1268 C 115.197 -4.10767 4.8739 0
M  V30 1269 C 112.884 -4.39351 4.24751 0
M  V30 1270 C 113.882 -4.40675 5.21818 0
M  V30 1271 O 113.57 -4.71202 6.51325 0
M  V30 1272 H 113.302 -0.610018 0.291297 0
M  V30 1273 H 115.856 -1.47958 1.4247 0
M  V30 1274 H 114.086 -3.84079 0.449503 0
M  V30 1275 H 115.775 -3.9694 0.84814 0
M  V30 1276 H 116.541 -3.55693 3.29708 0
M  V30 1277 H 112.42 -4.06211 2.17976 0
M  V30 1278 H 115.964 -4.11715 5.63148 0
M  V30 1279 H 111.861 -4.62285 4.50514 0
M  V30 1280 H 112.629 -4.88996 6.56373 0
M  V30 1281 N 115.292 -0.849877 -1.32721 0
M  V30 1282 C 116.222 -0.306308 -2.31482 0
M  V30 1283 C 117.203 0.591952 -1.59468 0
M  V30 1284 O 118.388 0.513199 -1.87296 0
M  V30 1285 C 115.518 0.510204 -3.43532 0
M  V30 1286 C 114.472 -0.293209 -4.26994 0
M  V30 1287 C 113.798 0.647743 -5.30762 0
M  V30 1288 C 115.098 -1.51634 -4.99804 0
M  V30 1289 H 116.792 -1.13153 -2.77195 0
M  V30 1290 H 114.338 -0.545553 -1.33266 0
M  V30 1291 H 116.291 0.900856 -4.11658 0
M  V30 1292 H 115.015 1.36874 -2.96535 0
M  V30 1293 H 113.674 -0.665555 -3.60508 0
M  V30 1294 H 113.322 1.50299 -4.8002 0
M  V30 1295 H 113.022 0.11422 -5.87489 0
M  V30 1296 H 114.546 1.03567 -6.01753 0
M  V30 1297 H 115.96 -1.19824 -5.60638 0
M  V30 1298 H 114.357 -1.98745 -5.66234 0
M  V30 1299 H 115.427 -2.28018 -4.27943 0
M  V30 1300 N 116.77 1.45427 -0.607355 0
M  V30 1301 C 117.718 2.32269 0.12411 0
M  V30 1302 C 118.712 1.45955 0.859854 0
M  V30 1303 O 119.918 1.6244 0.775447 0
M  V30 1304 H 116.293 0.749691 0.0588839 0
M  V30 1305 H 118.264 2.91743 -0.626762 0
M  V30 1306 C 117.013 3.29567 1.1082 0
M  V30 1307 H 116.336 3.95978 0.551492 0
M  V30 1308 H 117.776 3.93061 1.58995 0
M  V30 1309 C 116.235 2.56722 2.18164 0
M  V30 1310 O 116.765 2.34842 3.25902 0
M  V30 1311 N 114.971 2.16861 1.93442 0
M  V30 1312 H 114.518 2.34855 1.05834 0
M  V30 1313 H 114.476 1.68444 2.65469 0
M  V30 1314 N 118.248 0.346503 1.53744 0
M  V30 1315 C 119.476 -0.25041 2.05379 0
M  V30 1316 C 119.891 -1.43979 1.22129 0
M  V30 1317 O 119.248 -1.80677 0.257321 0
M  V30 1318 C 119.299 -0.662575 3.55376 0
M  V30 1319 O 119.02 0.479515 4.35468 0
M  V30 1320 C 120.521 -1.31989 4.23195 0
M  V30 1321 H 117.741 -0.0478198 0.669294 0
M  V30 1322 H 120.285 0.499346 1.9831 0
M  V30 1323 H 118.44 -1.36227 3.62658 0
M  V30 1324 H 118.854 0.15037 5.24284 0
M  V30 1325 H 120.328 -1.55902 5.29527 0
M  V30 1326 H 120.805 -2.27436 3.75725 0
M  V30 1327 H 121.411 -0.662154 4.20114 0
M  V30 1328 N 119.726 -1.57421 0.075193 0
M  V30 1329 C 120.674 -2.14124 -0.908508 0
M  V30 1330 C 121.668 -1.07898 -1.30592 0
M  V30 1331 O 122.874 -1.26273 -1.28277 0
M  V30 1332 H 119.249 -0.684707 -0.310935 0
M  V30 1333 H 121.22 -2.95634 -0.405374 0
M  V30 1334 C 119.969 -2.72044 -2.16535 0
M  V30 1335 H 119.292 -3.53456 -1.86839 0
M  V30 1336 H 120.732 -3.15311 -2.83469 0
M  V30 1337 C 119.191 -1.66968 -2.92615 0
M  V30 1338 O 119.721 -1.0967 -3.86439 0
M  V30 1339 N 117.927 -1.37923 -2.55784 0
M  V30 1340 H 117.474 -1.84706 -1.79559 0
M  V30 1341 H 117.432 -0.67852 -3.06991 0
M  V30 1342 N 121.204 0.198386 -1.56346 0
M  V30 1343 C 122.481 0.944982 -1.71258 0
M  V30 1344 C 122.861 2.0151 -0.629048 0
M  V30 1345 O 122.209 2.25639 0.360473 0
M  V30 1346 C 122.419 1.5344 -3.1346 0
M  V30 1347 C 123.767 2.01778 -3.73591 0
M  V30 1348 O 124.791 1.63288 -3.16568 0
M  V30 1349 O 123.65 2.72594 -4.73661 0
M  V30 1350 H 120.744 0.442939 -0.69838 0
M  V30 1351 H 123.29 0.188342 -1.68652 0
M  V30 1352 H 122.062 0.762869 -3.83792 0
M  V30 1353 H 121.685 2.35596 -3.20282 0
M  V30 1354 N 122.682 1.50554 0.465978 0
M  V30 1355 C 123.629 1.6979 1.56333 0
M  V30 1356 C 124.599 0.539239 1.57103 0
M  V30 1357 O 125.784 0.770401 1.74555 0
M  V30 1358 C 122.924 1.80273 2.94271 0
M  V30 1359 C 122.037 3.07674 3.0325 0
M  V30 1360 C 121.172 3.08922 4.32135 0
M  V30 1361 C 120.211 4.30755 4.34875 0
M  V30 1362 N 119.348 4.29714 5.55239 0
M  V30 1363 H 124.188 2.63472 1.39235 0
M  V30 1364 H 121.725 1.30602 0.676873 0
M  V30 1365 H 123.683 1.84332 3.74269 0
M  V30 1366 H 122.313 0.900258 3.09992 0
M  V30 1367 H 121.365 3.13062 2.16094 0
M  V30 1368 H 122.677 3.97642 3.01135 0
M  V30 1369 H 121.831 3.11738 5.20485 0
M  V30 1370 H 120.57 2.16792 4.36866 0
M  V30 1371 H 119.575 4.28146 3.44922 0
M  V30 1372 H 120.8 5.24117 4.31831 0
M  V30 1373 H 118.746 3.4044 5.60746 0
M  V30 1374 H 118.663 5.13456 5.54886 0
M  V30 1375 H 119.931 4.36683 6.457 0
M  V30 1376 N 124.16 -0.719506 1.40217 0
M  V30 1377 C 125.107 -1.83359 1.40172 0
M  V30 1378 C 126.077 -1.64065 0.259206 0
M  V30 1379 O 127.262 -1.85254 0.456677 0
M  V30 1380 C 124.402 -3.2103 1.26624 0
M  V30 1381 C 123.515 -3.51923 2.50548 0
M  V30 1382 C 122.65 -4.79079 2.29471 0
M  V30 1383 C 121.689 -5.02863 3.48992 0
M  V30 1384 N 120.826 -6.2123 3.27135 0
M  V30 1385 H 125.666 -1.82733 2.35399 0
M  V30 1386 H 123.203 -0.892688 1.16917 0
M  V30 1387 H 125.161 -4.00524 1.16776 0
M  V30 1388 H 123.791 -3.20895 0.350176 0
M  V30 1389 H 122.843 -2.67014 2.70939 0
M  V30 1390 H 124.155 -3.6541 3.39525 0
M  V30 1391 H 123.309 -5.66582 2.16955 0
M  V30 1392 H 122.048 -4.67794 1.37913 0
M  V30 1393 H 121.053 -4.13816 3.6199 0
M  V30 1394 H 122.278 -5.16023 4.41472 0
M  V30 1395 H 120.224 -6.11204 2.38256 0
M  V30 1396 H 120.141 -6.35375 4.09675 0
M  V30 1397 H 121.409 -7.11532 3.18344 0
M  V30 1398 N 125.638 -1.25649 -0.95132 0
M  V30 1399 C 126.586 -1.06118 -2.06982 0
M  V30 1400 C 127.58 0.00889169 -1.69398 0
M  V30 1401 O 128.786 -0.146988 -1.79399 0
M  V30 1402 H 125.161 -0.326248 -0.677544 0
M  V30 1403 H 127.132 -2.00932 -2.2061 0
M  V30 1404 C 125.881 -0.700145 -3.40578 0
M  V30 1405 H 125.204 -1.51537 -3.69968 0
M  V30 1406 H 126.644 -0.603211 -4.19687 0
M  V30 1407 C 125.103 0.59403 -3.31622 0
M  V30 1408 O 125.633 1.63522 -3.66911 0
M  V30 1409 N 123.839 0.58089 -2.84735 0
M  V30 1410 H 123.386 -0.266783 -2.56215 0
M  V30 1411 H 123.344 1.44695 -2.79125 0
M  V30 1412 N 127.117 1.15442 -1.07289 0
M  V30 1413 C 128.366 1.85557 -0.790669 0
M  V30 1414 C 128.679 1.83186 0.685739 0
M  V30 1415 O 129.885 2.48977 1.0827 0
M  V30 1416 C 128.341 3.33038 -1.36433 0
M  V30 1417 C 127.949 3.43856 -2.8717 0
M  V30 1418 C 129.693 4.0834 -1.1601 0
M  V30 1419 C 127.6 4.85482 -3.3773 0
M  V30 1420 H 126.53 0.695122 -0.292098 0
M  V30 1421 H 129.181 1.30219 -1.29287 0
M  V30 1422 H 127.563 3.88043 -0.789864 0
M  V30 1423 H 128.737 2.98961 -3.50655 0
M  V30 1424 H 127.052 2.81998 -3.06376 0
M  V30 1425 H 129.649 5.12859 -1.51262 0
M  V30 1426 H 129.992 4.16182 -0.0991007 0
M  V30 1427 H 130.525 3.59603 -1.70089 0
M  V30 1428 H 127.264 4.82823 -4.43353 0
M  V30 1429 H 126.784 5.30961 -2.78999 0
M  V30 1430 H 128.463 5.54335 -3.33648 0
M  V30 1431 N 128.595 0.856903 1.32268 0
M  V30 1432 C 129.842 0.461386 1.97174 0
M  V30 1433 C 130.17 -0.983491 1.67803 0
M  V30 1434 O 129.425 -1.70541 0.959903 0
M  V30 1435 C 129.724 0.649919 3.51441 0
M  V30 1436 C 129.39 2.0656 4.00804 0
M  V30 1437 C 128.052 2.45279 4.13995 0
M  V30 1438 C 130.404 2.98947 4.26943 0
M  V30 1439 C 127.732 3.75653 4.50668 0
M  V30 1440 C 130.084 4.28822 4.65075 0
M  V30 1441 C 128.748 4.67472 4.76472 0
M  V30 1442 H 128.018 0.168833 0.72151 0
M  V30 1443 H 130.665 1.08739 1.57633 0
M  V30 1444 H 128.97 -0.0593018 3.91755 0
M  V30 1445 H 130.667 0.32391 3.9969 0
M  V30 1446 H 127.257 1.75495 3.91024 0
M  V30 1447 H 131.441 2.70265 4.16258 0
M  V30 1448 H 126.697 4.05379 4.57688 0
M  V30 1449 H 130.871 5.0047 4.84255 0
M  V30 1450 H 128.498 5.68539 5.04646 0
M  V30 1451 N 130.073 -1.45103 0.615059 0
M  V30 1452 C 131.003 -2.33339 -0.0865619 0
M  V30 1453 C 131.984 -1.4727 -0.851209 0
M  V30 1454 O 133.169 -1.76026 -0.820281 0
M  V30 1455 C 130.299 -3.30095 -1.07956 0
M  V30 1456 C 129.253 -4.25858 -0.427628 0
M  V30 1457 C 128.579 -5.12361 -1.5294 0
M  V30 1458 C 129.879 -5.18165 0.655944 0
M  V30 1459 H 131.573 -2.92254 0.650224 0
M  V30 1460 H 129.119 -1.40532 0.314138 0
M  V30 1461 H 131.072 -3.90698 -1.57901 0
M  V30 1462 H 129.796 -2.69355 -1.84703 0
M  V30 1463 H 128.455 -3.66564 0.0510292 0
M  V30 1464 H 128.103 -4.47984 -2.28734 0
M  V30 1465 H 127.803 -5.77238 -1.09865 0
M  V30 1466 H 129.327 -5.75833 -2.03098 0
M  V30 1467 H 130.741 -5.72796 0.240257 0
M  V30 1468 H 129.138 -5.91559 1.00888 0
M  V30 1469 H 130.208 -4.60144 1.52957 0
M  V30 1470 N 131.551 -0.354651 -1.53558 0
M  V30 1471 C 132.483 0.5315 -2.22952 0
M  V30 1472 C 133.496 1.05503 -1.23988 0
M  V30 1473 O 134.685 0.963279 -1.50277 0
M  V30 1474 C 131.785 1.74538 -2.90499 0
M  V30 1475 C 130.958 1.35524 -4.15875 0
M  V30 1476 C 130.017 2.42999 -4.66731 0
M  V30 1477 O 129.043 2.05844 -5.30676 0
M  V30 1478 N 130.245 3.74423 -4.43608 0
M  V30 1479 H 133.01 -0.0628615 -2.99634 0
M  V30 1480 H 130.571 -0.179302 -1.60904 0
M  V30 1481 H 132.563 2.45892 -3.21433 0
M  V30 1482 H 131.133 2.24686 -2.17336 0
M  V30 1483 H 130.353 0.471998 -3.91364 0
M  V30 1484 H 131.641 1.07071 -4.97406 0
M  V30 1485 H 131.039 4.07391 -3.92491 0
M  V30 1486 H 129.596 4.41913 -4.7912 0
M  V30 1487 N 133.029 1.57378 -0.0835403 0
M  V30 1488 C 134.257 1.98263 0.59157 0
M  V30 1489 C 134.672 0.962302 1.62435 0
M  V30 1490 O 134.029 -0.049581 1.82433 0
M  V30 1491 C 134.08 3.39214 1.24965 0
M  V30 1492 O 133.801 4.37339 0.258186 0
M  V30 1493 C 135.302 3.95038 2.01147 0
M  V30 1494 H 132.522 0.651773 0.159477 0
M  V30 1495 H 135.066 2.03878 -0.159415 0
M  V30 1496 H 133.221 3.34649 1.95164 0
M  V30 1497 H 133.635 5.19371 0.731734 0
M  V30 1498 H 135.109 4.95848 2.42567 0
M  V30 1499 H 135.586 3.32222 2.87272 0
M  V30 1500 H 136.192 4.0304 1.35789 0
M  V30 1501 N 134.507 -0.190092 1.56449 0
M  V30 1502 C 135.44 -1.26375 1.90012 0
M  V30 1503 C 136.418 -1.43705 0.760765 0
M  V30 1504 O 137.602 -1.59014 1.01226 0
M  V30 1505 C 134.729 -2.62962 2.13468 0
M  V30 1506 C 133.775 -2.62474 3.36169 0
M  V30 1507 S 134.608 -2.13412 4.91137 0
M  V30 1508 C 135.764 -3.51812 5.17667 0
M  V30 1509 H 135.997 -0.977181 2.80782 0
M  V30 1510 H 133.53 -0.393814 1.49293 0
M  V30 1511 H 135.488 -3.41583 2.27664 0
M  V30 1512 H 134.149 -2.88828 1.23439 0
M  V30 1513 H 133.342 -3.62918 3.49723 0
M  V30 1514 H 132.944 -1.91937 3.20992 0
M  V30 1515 H 135.236 -4.47706 5.08494 0
M  V30 1516 H 136.179 -3.43148 6.19399 0
M  V30 1517 H 136.587 -3.46956 4.45288 0
M  V30 1518 N 135.985 -1.50799 -0.457987 0
M  V30 1519 C 137.234 -1.6168 -1.20593 0
M  V30 1520 C 137.547 -0.32888 -1.92815 0
M  V30 1521 O 138.753 -0.316773 -2.69646 0
M  V30 1522 C 137.209 -2.8545 -2.19195 0
M  V30 1523 C 136.817 -4.21168 -1.52715 0
M  V30 1524 C 138.561 -3.05681 -2.94549 0
M  V30 1525 C 136.468 -5.3611 -2.4968 0
M  V30 1526 H 135.398 -0.602134 -0.453818 0
M  V30 1527 H 138.049 -1.77245 -0.475031 0
M  V30 1528 H 136.431 -2.63472 -2.95632 0
M  V30 1529 H 137.605 -4.53449 -0.819775 0
M  V30 1530 H 135.92 -4.06648 -0.895922 0
M  V30 1531 H 138.517 -3.88727 -3.67145 0
M  V30 1532 H 138.86 -2.17929 -3.54701 0
M  V30 1533 H 139.393 -3.27901 -2.25223 0
M  V30 1534 H 136.132 -6.26057 -1.94249 0
M  V30 1535 H 135.652 -5.0823 -3.18532 0
M  V30 1536 H 137.331 -5.6722 -3.11241 0
M  V30 1537 N 137.463 0.71206 -1.40597 0
M  V30 1538 C 138.41 1.82613 -1.41142 0
M  V30 1539 C 139.38 1.63925 -0.267903 0
M  V30 1540 O 140.565 1.85009 -0.466495 0
M  V30 1541 C 137.705 3.20354 -1.28324 0
M  V30 1542 C 136.818 3.50589 -2.52411 0
M  V30 1543 C 135.953 4.77855 -2.32009 0
M  V30 1544 C 134.992 5.01005 -3.51654 0
M  V30 1545 N 134.129 6.19487 -3.30425 0
M  V30 1546 H 138.969 1.81482 -2.36365 0
M  V30 1547 H 136.506 0.886475 -1.17388 0
M  V30 1548 H 138.464 3.99899 -1.18899 0
M  V30 1549 H 137.094 3.20705 -0.367189 0
M  V30 1550 H 136.146 2.65573 -2.72351 0
M  V30 1551 H 137.458 3.63604 -3.41458 0
M  V30 1552 H 136.612 5.65424 -2.19956 0
M  V30 1553 H 135.351 4.67056 -1.40392 0
M  V30 1554 H 134.356 4.1189 -3.64179 0
M  V30 1555 H 135.581 5.13674 -4.44202 0
M  V30 1556 H 133.527 6.09932 -2.41494 0
M  V30 1557 H 133.444 6.33194 -4.13039 0
M  V30 1558 H 134.712 7.09834 -3.22113 0
M  V30 1559 N 138.941 1.26152 0.944643 0
M  V30 1560 C 139.871 1.09902 2.06019 0
M  V30 1561 C 140.852 0.00519538 1.70099 0
M  V30 1562 O 142.037 0.176583 1.93396 0
M  V30 1563 C 139.167 0.727562 3.39594 0
M  V30 1564 C 138.121 1.77274 3.89561 0
M  V30 1565 C 137.447 1.25569 5.19747 0
M  V30 1566 C 138.747 3.17357 4.14827 0
M  V30 1567 H 140.441 2.03217 2.19871 0
M  V30 1568 H 137.987 0.978452 1.05652 0
M  V30 1569 H 139.94 0.600777 4.17095 0
M  V30 1570 H 138.664 -0.241287 3.25707 0
M  V30 1571 H 137.323 1.88814 3.14237 0
M  V30 1572 H 136.971 0.276783 5.02238 0
M  V30 1573 H 136.671 1.95433 5.54148 0
M  V30 1574 H 138.195 1.1415 5.99835 0
M  V30 1575 H 139.609 3.08914 4.82954 0
M  V30 1576 H 138.006 3.84781 4.60504 0
M  V30 1577 H 139.076 3.63673 3.20734 0
M  V30 1578 N 140.419 -1.14872 1.07899 0
M  V30 1579 C 141.666 -1.85789 0.805532 0
M  V30 1580 C 141.994 -1.82649 -0.668561 0
M  V30 1581 O 141.249 -1.24858 -1.50695 0
M  V30 1582 C 141.548 -3.34223 1.26609 0
M  V30 1583 C 141.214 -3.57555 2.74709 0
M  V30 1584 C 139.876 -3.63631 3.1516 0
M  V30 1585 C 142.228 -3.66803 3.70277 0
M  V30 1586 C 139.556 -3.76473 4.49983 0
M  V30 1587 C 141.908 -3.8117 5.04869 0
M  V30 1588 C 140.572 -3.85494 5.44932 0
M  V30 1589 H 139.842 -0.679849 0.294765 0
M  V30 1590 H 142.489 -1.3572 1.35101 0
M  V30 1591 H 140.794 -3.86536 0.640103 0
M  V30 1592 H 142.491 -3.87511 1.03132 0
M  V30 1593 H 139.081 -3.5347 2.42398 0
M  V30 1594 H 143.265 -3.61404 3.40149 0
M  V30 1595 H 138.521 -3.7808 4.80484 0
M  V30 1596 H 142.695 -3.87268 5.78789 0
M  V30 1597 H 140.322 -3.95197 6.49403 0
M  V30 1598 N 141.898 -0.863906 -1.31812 0
M  V30 1599 C 142.846 -0.30422 -2.30602 0
M  V30 1600 C 143.84 0.577419 -1.59255 0
M  V30 1601 O 145.046 0.464194 -1.73912 0
M  V30 1602 H 141.421 -0.0796877 -0.747766 0
M  V30 1603 H 143.392 -1.15148 -2.75288 0
M  V30 1604 C 142.141 0.484617 -3.44306 0
M  V30 1605 H 141.464 -0.18451 -3.99374 0
M  V30 1606 H 142.904 0.841664 -4.15562 0
M  V30 1607 C 141.363 1.6735 -2.92396 0
M  V30 1608 O 141.893 2.77273 -2.90659 0
M  V30 1609 N 140.099 1.50362 -2.48676 0
M  V30 1610 H 139.646 0.609402 -2.50288 0
M  V30 1611 H 139.604 2.30051 -2.14299 0
M  V30 1612 N 143.376 1.44774 -0.622745 0
M  V30 1613 C 144.792 1.56986 -0.287652 0
M  V30 1614 C 144.992 1.61167 1.20944 0
M  V30 1615 O 144.048 1.55015 1.99315 0
M  V30 1616 C 145.361 2.84551 -0.972188 0
M  V30 1617 C 146.909 2.9825 -0.949536 0
M  V30 1618 C 147.384 4.28605 -1.61437 0
M  V30 1619 N 148.875 4.35399 -1.58057 0
M  V30 1620 C 149.61 5.34964 -2.064 0
M  V30 1621 N 149.106 6.40981 -2.62897 0
M  V30 1622 N 150.899 5.26419 -1.97078 0
M  V30 1623 H 143.05 1.40304 -1.59463 0
M  V30 1624 H 145.313 0.671794 -0.668878 0
M  V30 1625 H 145.019 2.87417 -2.02693 0
M  V30 1626 H 144.893 3.73807 -0.504771 0
M  V30 1627 H 147.28 2.94941 0.0967067 0
M  V30 1628 H 147.361 2.10364 -1.45536 0
M  V30 1629 H 147.005 4.32672 -2.66002 0
M  V30 1630 H 146.935 5.15334 -1.08344 0
M  V30 1631 H 149.426 3.59397 -1.16801 0
M  V30 1632 H 149.739 7.13225 -2.97539 0
M  V30 1633 H 148.084 6.4169 -2.66943 0
M  V30 1634 H 151.275 4.42504 -1.52669 0
M  V30 1635 H 151.448 6.03861 -2.35066 0
M  V30 1636 N 144.854 0.36279 1.53368 0
M  V30 1637 C 146.103 -0.22888 2.00397 0
M  V30 1638 C 146.416 -1.50096 1.25421 0
M  V30 1639 O 147.622 -2.17106 1.63025 0
M  V30 1640 C 146.078 -0.458417 3.56969 0
M  V30 1641 C 145.686 0.798877 4.4082 0
M  V30 1642 C 147.43 -1.00789 4.12361 0
M  V30 1643 C 145.337 0.539078 5.88938 0
M  V30 1644 H 144.267 -0.089305 0.748693 0
M  V30 1645 H 146.918 0.481099 1.77081 0
M  V30 1646 H 145.3 -1.22959 3.76427 0
M  V30 1647 H 146.474 1.57262 4.33134 0
M  V30 1648 H 144.789 1.27137 3.96516 0
M  V30 1649 H 147.386 -1.21754 5.20653 0
M  V30 1650 H 147.729 -1.9692 3.66781 0
M  V30 1651 H 148.262 -0.296961 3.9669 0
M  V30 1652 H 145.001 1.47064 6.3879 0
M  V30 1653 H 144.521 -0.196222 5.99479 0
M  V30 1654 H 146.2 0.163542 6.46793 0
M  V30 1655 N 146.332 -1.57332 0.0918853 0
M  V30 1656 C 147.279 -2.13847 -0.868211 0
M  V30 1657 C 148.249 -1.05618 -1.28196 0
M  V30 1658 O 149.434 -1.33387 -1.36427 0
M  V30 1659 C 146.574 -2.72062 -2.12312 0
M  V30 1660 C 145.687 -3.94514 -1.7602 0
M  V30 1661 C 144.822 -4.40903 -2.96273 0
M  V30 1662 C 143.861 -5.55953 -2.56092 0
M  V30 1663 N 142.998 -5.97209 -3.69169 0
M  V30 1664 H 147.838 -2.95575 -0.379406 0
M  V30 1665 H 145.375 -1.46048 -0.175606 0
M  V30 1666 H 147.333 -3.03931 -2.858 0
M  V30 1667 H 145.963 -1.93068 -2.58698 0
M  V30 1668 H 145.015 -3.68979 -0.925135 0
M  V30 1669 H 146.327 -4.7802 -1.42472 0
M  V30 1670 H 145.481 -4.74539 -3.78018 0
M  V30 1671 H 144.22 -3.56291 -3.33029 0
M  V30 1672 H 143.225 -5.21948 -1.72773 0
M  V30 1673 H 144.45 -6.42311 -2.20484 0
M  V30 1674 H 142.396 -5.15543 -4.05649 0
M  V30 1675 H 142.313 -6.75504 -3.39456 0
M  V30 1676 H 143.581 -6.35475 -4.51434 0
M  V30 1677 N 147.81 0.181792 -1.56548 0
M  V30 1678 C 149.035 0.920019 -1.85877 0
M  V30 1679 C 149.46 1.75494 -0.677021 0
M  V30 1680 O 148.818 1.77399 0.374056 0
M  V30 1681 C 148.866 1.78112 -3.13542 0
M  V30 1682 O 147.97 2.88152 -2.95029 0
M  V30 1683 H 147.311 0.258334 -0.611686 0
M  V30 1684 H 149.841 0.183092 -2.03779 0
M  V30 1685 H 149.851 2.18314 -3.44678 0
M  V30 1686 H 148.526 1.16777 -3.99169 0
M  V30 1687 H 147.103 2.51609 -2.75222 0
M  V30 1688 N 149.288 1.51039 0.449983 0
M  V30 1689 C 150.235 1.71439 1.54523 0
M  V30 1690 C 151.205 0.555871 1.56522 0
M  V30 1691 O 152.39 0.788871 1.73728 0
M  V30 1692 C 149.53 1.83384 2.92343 0
M  V30 1693 C 148.643 3.10873 2.9997 0
M  V30 1694 C 147.778 3.13488 4.28834 0
M  V30 1695 C 146.817 4.35343 4.30282 0
M  V30 1696 N 145.954 4.35579 5.5065 0
M  V30 1697 H 150.794 2.64934 1.36433 0
M  V30 1698 H 148.331 1.31312 0.662982 0
M  V30 1699 H 150.289 1.88291 3.72293 0
M  V30 1700 H 148.919 0.933086 3.0902 0
M  V30 1701 H 147.971 3.15336 2.12761 0
M  V30 1702 H 149.283 4.00814 2.96901 0
M  V30 1703 H 148.437 3.17241 5.17149 0
M  V30 1704 H 147.176 2.21414 4.34543 0
M  V30 1705 H 146.181 4.3178 3.40362 0
M  V30 1706 H 147.406 5.28668 4.26248 0
M  V30 1707 H 145.352 3.46369 5.57104 0
M  V30 1708 H 145.269 5.19313 5.49409 0
M  V30 1709 H 146.537 4.43507 6.41032 0
M  V30 1710 N 150.766 -0.704594 1.40972 0
M  V30 1711 C 152.177 -1.28418 1.3552 0
M  V30 1712 C 152.528 -1.96171 0.0339434 0
M  V30 1713 O 151.653 -1.98231 -0.867944 0
M  V30 1714 C 152.248 -2.33528 2.45459 0
M  V30 1715 C 150.807 -2.87085 2.43433 0
M  V30 1716 C 149.954 -1.61007 2.2577 0
M  V30 1717 H 152.905 -0.499963 1.50619 0
M  V30 1718 H 152.926 -3.14619 2.13998 0
M  V30 1719 H 152.438 -1.84187 3.41609 0
M  V30 1720 H 150.539 -3.40626 1.51013 0
M  V30 1721 H 150.652 -3.3813 3.39419 0
M  V30 1722 H 149.016 -1.86482 1.73483 0
M  V30 1723 H 149.799 -1.13675 3.23933 0
M  V30 1724 N 152.244 -1.26651 -0.937939 0
M  V30 1725 C 153.174 -1.10993 -2.05433 0
M  V30 1726 C 154.155 -0.0142161 -1.70094 0
M  V30 1727 O 155.34 -0.186837 -1.93299 0
M  V30 1728 C 152.47 -0.745561 -3.39203 0
M  V30 1729 C 151.424 -1.79337 -3.88616 0
M  V30 1730 C 150.75 -1.28324 -5.19073 0
M  V30 1731 C 152.05 -3.19553 -4.13138 0
M  V30 1732 H 153.744 -2.0438 -2.1879 0
M  V30 1733 H 151.29 -0.984041 -1.05131 0
M  V30 1734 H 153.243 -0.622888 -4.16771 0
M  V30 1735 H 151.967 0.22401 -3.25831 0
M  V30 1736 H 150.626 -1.90477 -3.13231 0
M  V30 1737 H 150.274 -0.303414 -5.02084 0
M  V30 1738 H 149.974 -1.98369 -5.53103 0
M  V30 1739 H 151.498 -1.1733 -5.99221 0
M  V30 1740 H 152.912 -3.11471 -4.81309 0
M  V30 1741 H 151.309 -3.87218 -4.58457 0
M  V30 1742 H 152.379 -3.65368 -3.18801 0
M  V30 1743 N 153.722 1.14298 -1.08507 0
M  V30 1744 C 154.97 1.84993 -0.813763 0
M  V30 1745 C 155.291 1.83405 0.662393 0
M  V30 1746 O 154.561 1.28319 1.48024 0
M  V30 1747 H 153.141 0.684966 -0.298045 0
M  V30 1748 H 155.803 1.385 -1.37126 0
M  V30 1749 H 154.899 2.89788 -1.15884 0
M  V30 1750 N 155.201 0.870884 1.31352 0
M  V30 1751 C 156.111 0.330783 2.32256 0
M  V30 1752 C 157.127 -0.559767 1.6475 0
M  V30 1753 O 158.303 -0.456263 1.96164 0
M  V30 1754 C 155.368 -0.458137 3.4366 0
M  V30 1755 C 154.429 0.460482 4.26823 0
M  V30 1756 C 153.662 -0.290881 5.32907 0
M  V30 1757 O 153.885 -1.51885 5.49806 0
M  V30 1758 O 152.819 0.351732 6.00871 0
M  V30 1759 H 156.645 1.16718 2.80376 0
M  V30 1760 H 154.23 0.634285 1.35267 0
M  V30 1761 H 156.112 -0.905343 4.1156 0
M  V30 1762 H 154.787 -1.27106 2.97701 0
M  V30 1763 H 153.694 0.956207 3.61673 0
M  V30 1764 H 155.027 1.23903 4.7635 0
M  V30 1765 N 156.679 -1.44442 0.630414 0
M  V30 1766 C 157.626 -2.30678 -0.0749355 0
M  V30 1767 C 158.596 -1.4344 -0.837502 0
M  V30 1768 O 159.781 -1.72343 -0.818684 0
M  V30 1769 C 156.921 -3.28706 -1.05103 0
M  V30 1770 C 156.034 -4.31046 -0.286954 0
M  V30 1771 C 155.169 -5.16167 -1.2548 0
M  V30 1772 C 154.208 -6.10216 -0.479843 0
M  V30 1773 N 153.345 -6.88039 -1.39811 0
M  V30 1774 H 158.185 -2.90454 0.666386 0
M  V30 1775 H 155.722 -1.43107 0.340404 0
M  V30 1776 H 157.68 -3.84027 -1.63031 0
M  V30 1777 H 156.31 -2.70632 -1.75949 0
M  V30 1778 H 155.362 -3.78203 0.408243 0
M  V30 1779 H 156.674 -4.97794 0.316657 0
M  V30 1780 H 155.828 -5.76002 -1.90544 0
M  V30 1781 H 154.567 -4.49491 -1.89233 0
M  V30 1782 H 153.572 -5.49491 0.184295 0
M  V30 1783 H 154.797 -6.78928 0.152965 0
M  V30 1784 H 152.743 -6.24032 -2.02287 0
M  V30 1785 H 152.66 -7.51223 -0.848508 0
M  V30 1786 H 153.928 -7.52397 -2.03762 0
M  V30 1787 N 158.157 -0.370918 -1.53173 0
M  V30 1788 C 159.087 0.464847 -2.28826 0
M  V30 1789 C 160.068 1.07936 -1.31468 0
M  V30 1790 O 161.253 1.0956 -1.60344 0
M  V30 1791 C 158.383 1.60196 -3.08147 0
M  V30 1792 C 157.337 1.11443 -4.13237 0
M  V30 1793 C 156.663 2.3422 -4.80672 0
M  V30 1794 C 157.963 0.195384 -5.21934 0
M  V30 1795 H 159.657 -0.166329 -2.98938 0
M  V30 1796 H 157.203 -0.0814359 -1.4377 0
M  V30 1797 H 159.156 2.19332 -3.59822 0
M  V30 1798 H 157.88 2.26045 -2.35735 0
M  V30 1799 H 156.539 0.545727 -3.62515 0
M  V30 1800 H 156.187 2.98537 -4.04827 0
M  V30 1801 H 155.887 2.02269 -5.51689 0
M  V30 1802 H 157.411 2.94032 -5.35143 0
M  V30 1803 H 158.825 0.694375 -5.69079 0
M  V30 1804 H 157.222 -0.0335027 -6.00091 0
M  V30 1805 H 158.292 -0.760961 -4.78892 0
M  V30 1806 N 159.635 1.57281 -0.100228 0
M  V30 1807 C 160.565 2.17328 0.853857 0
M  V30 1808 C 161.546 1.10804 1.2906 0
M  V30 1809 O 162.731 1.38963 1.35657 0
M  V30 1810 C 159.861 2.75772 2.11109 0
M  V30 1811 C 158.815 3.87713 1.81279 0
M  V30 1812 C 158.141 4.32882 3.13874 0
M  V30 1813 C 159.441 5.10677 1.09574 0
M  V30 1814 H 161.135 2.97305 0.353545 0
M  V30 1815 H 158.681 1.43009 0.168612 0
M  V30 1816 H 160.634 3.16433 2.78296 0
M  V30 1817 H 159.358 1.93057 2.63432 0
M  V30 1818 H 158.017 3.476 1.16489 0
M  V30 1819 H 157.665 3.47051 3.64095 0
M  V30 1820 H 157.365 5.08358 2.94696 0
M  V30 1821 H 158.889 4.7618 3.82211 0
M  V30 1822 H 160.303 5.48474 1.66879 0
M  V30 1823 H 158.7 5.91615 1.00557 0
M  V30 1824 H 159.77 4.84835 0.0793299 0
M  V30 1825 N 161.113 -0.173488 1.56642 0
M  V30 1826 C 162.023 -1.23482 1.99473 0
M  V30 1827 C 163.039 -1.48567 0.905752 0
M  V30 1828 O 164.215 -1.60758 1.21321 0
M  V30 1829 C 161.28 -2.55444 2.34413 0
M  V30 1830 C 160.341 -2.38241 3.57127 0
M  V30 1831 C 159.574 -3.63909 3.90392 0
M  V30 1832 O 159.797 -4.68996 3.24653 0
M  V30 1833 O 158.731 -3.58149 4.83749 0
M  V30 1834 H 162.557 -0.901279 2.90018 0
M  V30 1835 H 160.142 -0.380185 1.44482 0
M  V30 1836 H 162.024 -3.33292 2.57865 0
M  V30 1837 H 160.699 -2.88382 1.4703 0
M  V30 1838 H 159.606 -1.58431 3.38896 0
M  V30 1839 H 160.939 -2.10228 4.45045 0
M  V30 1840 N 162.591 -1.51276 -0.441967 0
M  V30 1841 C 163.524 -1.66933 -1.55591 0
M  V30 1842 C 164.502 -0.516958 -1.54163 0
M  V30 1843 O 165.686 -0.740209 -1.73358 0
M  V30 1844 C 162.813 -1.67866 -2.94174 0
M  V30 1845 C 161.859 -2.89013 -3.13646 0
M  V30 1846 S 162.692 -4.49897 -2.90436 0
M  V30 1847 C 163.848 -4.53568 -4.31308 0
M  V30 1848 H 164.081 -2.61155 -1.42076 0
M  V30 1849 H 161.614 -1.40902 -0.631341 0
M  V30 1850 H 163.572 -1.69089 -3.74058 0
M  V30 1851 H 162.233 -0.748296 -3.05056 0
M  V30 1852 H 161.426 -2.86054 -4.14957 0
M  V30 1853 H 161.028 -2.85509 -2.4158 0
M  V30 1854 H 163.32 -4.28924 -5.24434 0
M  V30 1855 H 164.263 -5.55355 -4.39303 0
M  V30 1856 H 164.671 -3.82943 -4.14747 0
M  V30 1857 N 164.069 0.697108 -1.41344 0
M  V30 1858 C 165.318 1.45279 -1.39918 0
M  V30 1859 C 165.631 1.95597 -0.0109624 0
M  V30 1860 O 166.837 2.71208 0.125919 0
M  V30 1861 C 165.293 2.62695 -2.46007 0
M  V30 1862 C 164.901 2.19169 -3.90729 0
M  V30 1863 C 166.645 3.40336 -2.53715 0
M  V30 1864 C 164.552 3.33535 -4.88373 0
M  V30 1865 H 163.482 0.545692 -0.520323 0
M  V30 1866 H 166.133 0.756929 -1.67161 0
M  V30 1867 H 164.515 3.34541 -2.11892 0
M  V30 1868 H 165.689 1.54623 -4.34083 0
M  V30 1869 H 164.004 1.54525 -3.86666 0
M  V30 1870 H 166.601 4.2547 -3.2385 0
M  V30 1871 H 166.944 3.85418 -1.5735 0
M  V30 1872 H 167.477 2.75546 -2.86913 0
M  V30 1873 H 164.216 2.93468 -5.86137 0
M  V30 1874 H 163.736 3.96936 -4.49668 0
M  V30 1875 H 165.415 3.99335 -5.09059 0
M  V30 1876 N 165.547 1.27147 0.931209 0
M  V30 1877 C 166.796 1.12664 1.67302 0
M  V30 1878 C 167.109 -0.327718 1.92835 0
M  V30 1879 O 168.315 -0.593392 2.64936 0
M  V30 1880 C 166.771 1.9683 3.01307 0
M  V30 1881 C 166.379 3.46901 2.83485 0
M  V30 1882 C 168.123 1.90985 3.79111 0
M  V30 1883 C 166.03 4.23279 4.13024 0
M  V30 1884 H 164.96 0.41803 0.627509 0
M  V30 1885 H 167.611 1.51539 1.03481 0
M  V30 1886 H 165.993 1.50797 3.66164 0
M  V30 1887 H 167.167 4.00773 2.27415 0
M  V30 1888 H 165.482 3.54088 2.19113 0
M  V30 1889 H 168.079 2.45328 4.75098 0
M  V30 1890 H 168.422 0.882718 4.06834 0
M  V30 1891 H 168.955 2.34895 3.21044 0
M  V30 1892 H 165.694 5.26503 3.90481 0
M  V30 1893 H 165.214 3.74186 4.6877 0
M  V30 1894 H 166.893 4.32265 4.81411 0
M  V30 1895 N 167.025 -1.13721 1.09112 0
M  V30 1896 C 167.973 -2.21103 0.722219 0
M  V30 1897 C 168.967 -1.67147 -0.275374 0
M  V30 1898 O 170.173 -1.79477 -0.137176 0
M  V30 1899 H 166.548 -0.720445 0.215553 0
M  V30 1900 H 168.519 -2.49483 1.63709 0
M  V30 1901 C 167.268 -3.47352 0.15543 0
M  V30 1902 H 166.591 -3.89206 0.914246 0
M  V30 1903 H 168.031 -4.2395 -0.0647967 0
M  V30 1904 C 166.49 -3.1814 -1.10852 0
M  V30 1905 O 167.02 -3.36604 -2.19227 0
M  V30 1906 N 165.226 -2.72045 -1.02176 0
M  V30 1907 H 164.773 -2.57221 -0.139764 0
M  V30 1908 H 164.731 -2.52875 -1.8682 0
M  V30 1909 N 168.503 -0.877838 -1.30888 0
M  V30 1910 C 169.751 -0.491723 -1.96027 0
M  V30 1911 C 170.072 0.960827 -1.69685 0
M  V30 1912 O 169.342 1.67462 -1.01654 0
M  V30 1913 H 167.922 -0.17885 -0.725273 0
M  V30 1914 H 170.584 -1.11935 -1.59551 0
M  V30 1915 H 169.68 -0.656016 -3.05128 0
M  V30 1916 N 169.982 1.44106 -0.638065 0
M  V30 1917 C 171.231 2.01194 -0.142744 0
M  V30 1918 C 171.544 1.50835 1.24532 0
M  V30 1919 O 172.75 2.00096 1.83504 0
M  V30 1920 C 171.206 3.59319 -0.20442 0
M  V30 1921 C 170.814 4.18674 -1.59423 0
M  V30 1922 C 172.558 4.23854 0.234079 0
M  V30 1923 C 170.465 5.69045 -1.61065 0
M  V30 1924 H 169.395 0.752367 -0.0495998 0
M  V30 1925 H 172.046 1.65246 -0.797881 0
M  V30 1926 H 170.428 3.92598 0.517946 0
M  V30 1927 H 171.602 3.96921 -2.34074 0
M  V30 1928 H 169.917 3.66453 -1.97741 0
M  V30 1929 H 172.514 5.34155 0.241443 0
M  V30 1930 H 172.857 3.96688 1.2627 0
M  V30 1931 H 173.39 3.95403 -0.436025 0
M  V30 1932 H 170.129 6.00956 -2.61787 0
M  V30 1933 H 169.649 5.929 -0.90718 0
M  V30 1934 H 171.328 6.32809 -1.34766 0
M  V30 1935 N 171.46 0.379036 1.52974 0
M  V30 1936 C 172.871 -0.0972525 1.86447 0
M  V30 1937 C 173.222 -1.47027 1.29914 0
M  V30 1938 O 172.347 -2.07135 0.626433 0
M  V30 1939 C 172.942 -0.183248 3.38304 0
M  V30 1940 C 171.501 -0.603812 3.71525 0
M  V30 1941 C 170.648 0.240632 2.76254 0
M  V30 1942 H 173.599 0.597316 1.4703 0
M  V30 1943 H 173.62 -1.00432 3.67006 0
M  V30 1944 H 173.132 0.816191 3.79421 0
M  V30 1945 H 171.233 -1.61099 3.35973 0
M  V30 1946 H 171.346 -0.369086 4.77676 0
M  V30 1947 H 169.71 -0.292548 2.53014 0
M  V30 1948 H 170.493 1.23786 3.20206 0
M  V30 1949 N 172.938 -1.57226 0.108567 0
M  V30 1950 C 174.168 -1.9889 -0.559142 0
M  V30 1951 C 174.576 -0.986889 -1.61422 0
M  V30 1952 O 173.919 0.0298705 -1.83676 0
M  V30 1953 C 173.981 -3.36952 -1.25315 0
M  V30 1954 C 173.645 -4.55679 -0.347248 0
M  V30 1955 C 174.642 -5.18281 0.409996 0
M  V30 1956 C 172.327 -5.0162 -0.261367 0
M  V30 1957 C 174.321 -6.25203 1.24096 0
M  V30 1958 C 172.008 -6.08405 0.573238 0
M  V30 1959 C 173.006 -6.70063 1.32304 0
M  V30 1960 O 172.694 -7.74788 2.14381 0
M  V30 1961 H 172.426 -0.658343 -0.153492 0
M  V30 1962 H 174.98 -2.04532 0.188584 0
M  V30 1963 H 173.21 -3.28032 -2.04773 0
M  V30 1964 H 174.899 -3.62974 -1.81673 0
M  V30 1965 H 175.665 -4.8371 0.353457 0
M  V30 1966 H 171.544 -4.53381 -0.834656 0
M  V30 1967 H 175.088 -6.73259 1.82669 0
M  V30 1968 H 170.985 -6.42406 0.631208 0
M  V30 1969 H 171.753 -7.91837 2.07209 0
M  V30 1970 N 174.416 0.165178 -1.56732 0
M  V30 1971 C 175.346 1.20651 -1.99914 0
M  V30 1972 C 176.327 1.45827 -0.875705 0
M  V30 1973 O 177.512 1.57057 -1.14223 0
M  V30 1974 C 174.642 2.54401 -2.36427 0
M  V30 1975 C 173.596 2.43782 -3.51787 0
M  V30 1976 C 172.922 3.82078 -3.7406 0
M  V30 1977 C 174.222 1.93732 -4.85041 0
M  V30 1978 H 175.916 0.847534 -2.87154 0
M  V30 1979 H 173.462 0.40625 -1.38151 0
M  V30 1980 H 175.415 3.27458 -2.65234 0
M  V30 1981 H 174.139 2.92098 -1.46103 0
M  V30 1982 H 172.798 1.73178 -3.23117 0
M  V30 1983 H 172.446 4.17179 -2.81017 0
M  V30 1984 H 172.146 3.7584 -4.51684 0
M  V30 1985 H 173.67 4.56712 -4.05274 0
M  V30 1986 H 175.084 2.56569 -5.12684 0
M  V30 1987 H 173.481 1.98428 -5.66345 0
M  V30 1988 H 174.551 0.891962 -4.76626 0
M  V30 1989 N 175.894 1.51508 0.433938 0
M  V30 1990 C 177.142 1.6402 1.18075 0
M  V30 1991 C 177.463 0.360328 1.91642 0
M  V30 1992 O 176.733 -0.623945 1.85698 0
M  V30 1993 H 175.313 0.6045 0.43885 0
M  V30 1994 H 177.975 1.88452 0.497178 0
M  V30 1995 H 177.071 2.46949 1.90847 0
M  V30 1996 N 177.372 -0.689602 1.41712 0
M  V30 1997 C 178.649 -1.44457 1.31877 0
M  V30 1998 C 179.029 -2.11039 -0.0508537 0
M  V30 1999 O 178.377 -2.02138 -1.06547 0
M  V30 2000 C 178.587 -2.45913 2.47645 0
M  V30 2001 C 179.935 -3.10991 2.89084 0
M  V30 2002 O 180.959 -2.56238 2.47428 0
M  V30 2003 O 179.818 -4.10174 3.61137 0
M  V30 2004 H 176.912 -0.64362 0.519309 0
M  V30 2005 H 179.458 -0.719576 1.53689 0
M  V30 2006 H 178.23 -1.95409 3.39015 0
M  V30 2007 H 177.853 -3.25913 2.27742 0
M  V30 2008 N 178.85 -1.27639 -0.924453 0
M  V30 2009 C 180.266 -1.05113 -1.20097 0
M  V30 2010 C 180.466 0.213262 -2.00368 0
M  V30 2011 O 179.522 0.91787 -2.35226 0
M  V30 2012 C 180.835 -2.29244 -1.94596 0
M  V30 2013 C 182.383 -2.34315 -2.07522 0
M  V30 2014 C 182.858 -3.58183 -2.85427 0
M  V30 2015 N 184.349 -3.5876 -2.92994 0
M  V30 2016 C 185.084 -4.51277 -3.53746 0
M  V30 2017 N 184.58 -5.54102 -4.15863 0
M  V30 2018 N 186.373 -4.38894 -3.51181 0
M  V30 2019 H 178.524 -2.08821 -0.388264 0
M  V30 2020 H 180.787 -0.918568 -0.234385 0
M  V30 2021 H 180.493 -3.21301 -1.43034 0
M  V30 2022 H 180.367 -2.34816 -2.95197 0
M  V30 2023 H 182.754 -1.42762 -2.58269 0
M  V30 2024 H 182.835 -2.32744 -1.06131 0
M  V30 2025 H 182.479 -4.50074 -2.35363 0
M  V30 2026 H 182.409 -3.57006 -3.8711 0
M  V30 2027 H 184.9 -2.84398 -2.4885 0
M  V30 2028 H 185.213 -6.20859 -4.60168 0
M  V30 2029 H 183.558 -5.57941 -4.144 0
M  V30 2030 H 186.749 -3.57772 -3.01856 0
M  V30 2031 H 186.922 -5.11186 -3.98237 0
M  V30 2032 N 180.328 1.1314 -1.09713 0
M  V30 2033 C 181.744 1.36477 -0.827423 0
M  V30 2034 C 181.944 1.93654 0.556817 0
M  V30 2035 O 181 2.15791 1.31112 0
M  V30 2036 C 182.313 2.31334 -1.92106 0
M  V30 2037 C 183.861 2.44943 -1.94864 0
M  V30 2038 C 184.336 3.4311 -3.0338 0
M  V30 2039 N 185.827 3.50662 -3.02639 0
M  V30 2040 C 186.562 4.2651 -3.83246 0
M  V30 2041 N 186.058 5.05485 -4.73768 0
M  V30 2042 N 187.851 4.2184 -3.71493 0
M  V30 2043 H 180.002 0.743807 -1.9895 0
M  V30 2044 H 182.265 0.389823 -0.864143 0
M  V30 2045 H 181.971 1.96483 -2.91698 0
M  V30 2046 H 181.845 3.31381 -1.80184 0
M  V30 2047 H 184.232 2.79079 -0.959099 0
M  V30 2048 H 184.313 1.4481 -2.10864 0
M  V30 2049 H 183.957 3.09704 -4.02549 0
M  V30 2050 H 183.887 4.43055 -2.84622 0
M  V30 2051 H 186.378 2.94315 -2.37039 0
M  V30 2052 H 186.691 5.60675 -5.3185 0
M  V30 2053 H 185.036 5.04708 -4.77802 0
M  V30 2054 H 188.227 3.5922 -3.00131 0
M  V30 2055 H 188.4 4.80697 -4.3455 0
M  V30 2056 N 181.806 0.884767 1.30421 0
M  V30 2057 C 183.052 0.503851 1.96441 0
M  V30 2058 C 183.385 -0.944518 1.69684 0
M  V30 2059 O 182.66 -1.66737 1.00145 0
M  V30 2060 C 182.943 0.779085 3.51571 0
M  V30 2061 C 182.796 2.27807 3.87846 0
M  V30 2062 C 184.115 0.255452 4.39358 0
M  V30 2063 H 181.234 0.184533 0.713524 0
M  V30 2064 H 183.876 1.10872 1.54297 0
M  V30 2065 H 182.026 0.264274 3.876 0
M  V30 2066 H 183.698 2.86127 3.61841 0
M  V30 2067 H 181.941 2.74479 3.35922 0
M  V30 2068 H 182.612 2.42125 4.96064 0
M  V30 2069 H 185.088 0.696079 4.10236 0
M  V30 2070 H 183.964 0.477361 5.4682 0
M  V30 2071 H 184.225 -0.843293 4.33983 0
M  V30 2072 N 183.284 -1.43765 0.645699 0
M  V30 2073 C 184.695 -1.85193 0.236719 0
M  V30 2074 C 185.046 -1.54045 -1.21509 0
M  V30 2075 O 184.171 -0.985694 -1.92647 0
M  V30 2076 C 184.766 -3.36151 0.422845 0
M  V30 2077 C 183.325 -3.76338 0.0682492 0
M  V30 2078 C 182.472 -2.67538 0.729306 0
M  V30 2079 H 185.423 -1.34025 0.849883 0
M  V30 2080 H 185.444 -3.79032 -0.333904 0
M  V30 2081 H 184.956 -3.5879 1.47958 0
M  V30 2082 H 183.057 -3.59312 -0.986179 0
M  V30 2083 H 183.17 -4.76603 0.488469 0
M  V30 2084 H 181.534 -2.54176 0.163235 0
M  V30 2085 H 182.317 -2.93006 1.78892 0
M  V30 2086 N 184.763 -0.387143 -1.52771 0
M  V30 2087 C 185.693 0.440551 -2.29306 0
M  V30 2088 C 186.674 1.06535 -1.32606 0
M  V30 2089 O 187.859 1.07853 -1.61497 0
M  V30 2090 C 184.989 1.56919 -3.09829 0
M  V30 2091 C 183.943 1.07054 -4.14395 0
M  V30 2092 C 183.269 2.29109 -4.83129 0
M  V30 2093 C 184.569 0.140015 -5.22112 0
M  V30 2094 H 186.263 -0.198026 -2.98744 0
M  V30 2095 H 183.809 -0.09668 -1.43675 0
M  V30 2096 H 185.762 2.15503 -3.62128 0
M  V30 2097 H 184.486 2.23532 -2.3812 0
M  V30 2098 H 183.145 0.507247 -3.63074 0
M  V30 2099 H 182.793 2.94227 -4.0797 0
M  V30 2100 H 182.493 1.96406 -5.53804 0
M  V30 2101 H 184.017 2.88339 -5.38231 0
M  V30 2102 H 185.431 0.633978 -5.69784 0
M  V30 2103 H 183.828 -0.0971485 -6.00021 0
M  V30 2104 H 184.898 -0.811711 -4.78058 0
M  V30 2105 N 186.241 1.57166 -0.116904 0
M  V30 2106 C 187.151 2.18745 0.847812 0
M  V30 2107 C 188.167 1.163 1.29423 0
M  V30 2108 O 189.343 1.48761 1.35765 0
M  V30 2109 C 186.408 2.77307 2.0809 0
M  V30 2110 C 185.469 3.94781 1.68661 0
M  V30 2111 C 184.702 4.50541 2.86091 0
M  V30 2112 O 184.925 4.05202 4.01456 0
M  V30 2113 O 183.859 5.41256 2.63298 0
M  V30 2114 H 187.685 3.01632 0.353778 0
M  V30 2115 H 185.27 1.49005 0.108599 0
M  V30 2116 H 187.152 3.14647 2.80313 0
M  V30 2117 H 185.827 1.97452 2.56504 0
M  V30 2118 H 184.734 3.62214 0.935518 0
M  V30 2119 H 186.067 4.76065 1.24991 0
M  V30 2120 N 187.719 -0.156864 1.56817 0
M  V30 2121 C 188.629 -1.2136 2.00771 0
M  V30 2122 C 189.645 -1.47598 0.921459 0
M  V30 2123 O 190.821 -1.59462 1.2302 0
M  V30 2124 C 187.886 -2.52943 2.37109 0
M  V30 2125 C 186.947 -2.34439 3.59634 0
M  V30 2126 C 186.18 -3.59748 3.94229 0
M  V30 2127 O 186.403 -4.65526 3.29609 0
M  V30 2128 O 185.337 -3.52998 4.8752 0
M  V30 2129 H 189.163 -0.870468 2.90958 0
M  V30 2130 H 186.748 -0.36484 1.44877 0
M  V30 2131 H 188.63 -3.30538 2.61386 0
M  V30 2132 H 187.305 -2.86806 1.5008 0
M  V30 2133 H 186.212 -1.54828 3.40557 0
M  V30 2134 H 187.545 -2.05496 4.4725 0
M  V30 2135 N 189.197 -1.51736 -0.425897 0
M  V30 2136 C 190.444 -1.6497 -1.17436 0
M  V30 2137 C 190.772 -0.371445 -1.9092 0
M  V30 2138 O 190.027 0.644963 -1.84767 0
M  V30 2139 C 190.326 -2.81103 -2.20717 0
M  V30 2140 C 189.992 -4.19954 -1.64162 0
M  V30 2141 C 188.654 -4.57725 -1.48462 0
M  V30 2142 C 191.006 -5.06552 -1.22696 0
M  V30 2143 C 188.334 -5.79789 -0.897873 0
M  V30 2144 C 190.686 -6.29205 -0.654464 0
M  V30 2145 C 189.35 -6.6574 -0.484456 0
M  V30 2146 H 188.62 -0.603668 -0.429727 0
M  V30 2147 H 191.267 -1.85798 -0.463829 0
M  V30 2148 H 189.572 -2.54542 -2.97852 0
M  V30 2149 H 191.269 -2.8854 -2.78471 0
M  V30 2150 H 187.859 -3.90181 -1.77361 0
M  V30 2151 H 192.043 -4.77968 -1.33642 0
M  V30 2152 H 187.299 -6.06733 -0.75402 0
M  V30 2153 H 191.473 -6.95643 -0.324694 0
M  V30 2154 H 189.1 -7.60195 -0.0276833 0
M  V30 2155 N 190.675 0.682077 -1.42076 0
M  V30 2156 C 191.623 1.81707 -1.45208 0
M  V30 2157 C 192.617 1.66183 -0.328591 0
M  V30 2158 O 193.823 1.7288 -0.501264 0
M  V30 2159 H 190.198 0.599014 -0.454628 0
M  V30 2160 H 192.169 1.76183 -2.40836 0
M  V30 2161 C 190.918 3.19816 -1.36428 0
M  V30 2162 H 190.241 3.32385 -2.22171 0
M  V30 2163 H 191.681 3.99272 -1.42681 0
M  V30 2164 C 190.14 3.36809 -0.078191 0
M  V30 2165 O 190.67 3.92124 0.87188 0
M  V30 2166 N 188.876 2.906 0.00229266 0
M  V30 2167 H 188.423 2.45772 -0.771616 0
M  V30 2168 H 188.381 3.02347 0.862179 0
M  V30 2169 N 192.153 1.28127 0.917671 0
M  V30 2170 C 193.381 1.17892 1.70026 0
M  V30 2171 C 193.796 -0.262958 1.8696 0
M  V30 2172 O 193.153 -1.17811 1.3938 0
M  V30 2173 C 193.204 1.86872 3.09453 0
M  V30 2174 O 192.925 3.25428 2.93306 0
M  V30 2175 C 194.426 1.8289 4.03815 0
M  V30 2176 H 191.646 0.40942 0.531617 0
M  V30 2177 H 194.19 1.69181 1.14883 0
M  V30 2178 H 192.345 1.39464 3.61426 0
M  V30 2179 H 192.759 3.59918 3.81523 0
M  V30 2180 H 194.233 2.35751 4.99125 0
M  V30 2181 H 194.71 0.800412 4.31845 0
M  V30 2182 H 195.316 2.29959 3.57769 0
M  V30 2183 N 193.631 -1.12557 1.10312 0
M  V30 2184 C 194.579 -2.20325 0.745629 0
M  V30 2185 C 195.573 -1.67429 -0.25763 0
M  V30 2186 O 196.779 -1.79612 -0.118132 0
M  V30 2187 H 193.154 -0.718118 0.223182 0
M  V30 2188 H 195.125 -2.47733 1.66346 0
M  V30 2189 C 193.874 -3.47168 0.192262 0
M  V30 2190 H 193.197 -3.88215 0.955475 0
M  V30 2191 H 194.637 -4.23995 -0.0198274 0
M  V30 2192 C 193.096 -3.19298 -1.07472 0
M  V30 2193 O 193.626 -3.3891 -2.15645 0
M  V30 2194 N 191.832 -2.73113 -0.992847 0
M  V30 2195 H 191.379 -2.57354 -0.112474 0
M  V30 2196 H 191.337 -2.54842 -1.84127 0
M  V30 2197 N 195.109 -0.891671 -1.2995 0
M  V30 2198 C 196.358 -0.509521 -1.95158 0
M  V30 2199 C 196.671 0.947388 -1.71125 0
M  V30 2200 O 197.877 1.43669 -2.30372 0
M  V30 2201 C 196.333 -0.860315 -3.49466 0
M  V30 2202 C 195.941 -2.33545 -3.8231 0
M  V30 2203 C 197.685 -0.547687 -4.20952 0
M  V30 2204 C 195.592 -2.62752 -5.29826 0
M  V30 2205 H 194.522 -0.18682 -0.730489 0
M  V30 2206 H 197.173 -1.08756 -1.47798 0
M  V30 2207 H 195.555 -0.211285 -3.95436 0
M  V30 2208 H 196.729 -3.02936 -3.47227 0
M  V30 2209 H 195.044 -2.61629 -3.23944 0
M  V30 2210 H 197.641 -0.742854 -5.29515 0
M  V30 2211 H 197.984 0.51332 -4.13123 0
M  V30 2212 H 198.517 -1.1542 -3.80688 0
M  V30 2213 H 195.256 -3.6762 -5.42712 0
M  V30 2214 H 194.776 -1.97977 -5.66185 0
M  V30 2215 H 196.455 -2.48601 -5.97333 0
M  V30 2216 N 196.587 1.43421 -0.653314 0
M  V30 2217 C 197.55 2.29182 0.0287951 0
M  V30 2218 C 198.55 1.42213 0.750465 0
M  V30 2219 O 199.74 1.63843 0.591701 0
M  V30 2220 C 196.872 3.24278 1.05151 0
M  V30 2221 H 198.065 2.90985 -0.725786 0
M  V30 2222 H 195.618 1.50702 -0.414545 0
M  V30 2223 H 196.353 2.6737 1.83532 0
M  V30 2224 H 196.138 3.88396 0.537687 0
M  V30 2225 H 197.628 3.88647 1.52786 0
M  V30 2226 N 198.065 0.39524 1.52563 0
M  V30 2227 C 199.29 -0.187456 2.06551 0
M  V30 2228 C 199.715 -1.39249 1.26457 0
M  V30 2229 O 199.073 -1.78947 0.291151 0
M  V30 2230 C 199.121 -0.529985 3.56684 0
M  V30 2231 O 198.225 -1.62307 3.79118 0
M  V30 2232 H 197.566 -0.0202537 0.663691 0
M  V30 2233 H 200.096 0.564426 1.96661 0
M  V30 2234 H 200.106 -0.792598 4.00227 0
M  V30 2235 H 198.781 0.350987 4.14416 0
M  V30 2236 H 197.358 -1.3537 3.47461 0
M  V30 2237 N 199.544 -1.57102 0.125237 0
M  V30 2238 C 200.79 -1.95697 -0.532035 0
M  V30 2239 C 201.123 -1.009 -1.6593 0
M  V30 2240 O 200.398 -0.047347 -1.94442 0
M  V30 2241 C 200.681 -3.44181 -1.05884 0
M  V30 2242 C 200.534 -4.49752 0.0654392 0
M  V30 2243 C 201.853 -3.94655 -1.9477 0
M  V30 2244 H 198.972 -0.711571 -0.191925 0
M  V30 2245 H 201.614 -1.88923 0.20206 0
M  V30 2246 H 199.764 -3.50085 -1.68442 0
M  V30 2247 H 201.436 -4.55943 0.700982 0
M  V30 2248 H 199.679 -4.27653 0.727709 0
M  V30 2249 H 200.35 -5.50924 -0.344505 0
M  V30 2250 H 202.826 -3.91094 -1.42074 0
M  V30 2251 H 201.702 -4.99057 -2.28546 0
M  V30 2252 H 201.963 -3.35718 -2.87656 0
M  V30 2253 N 201.022 0.148545 -1.56898 0
M  V30 2254 C 202.25 0.876389 -1.87422 0
M  V30 2255 C 202.665 1.74809 -0.713256 0
M  V30 2256 O 202.022 1.79725 0.317025 0
M  V30 2257 C 202.073 1.73438 -3.17178 0
M  V30 2258 O 201.794 0.897809 -4.28802 0
M  V30 2259 C 203.295 2.56993 -3.61205 0
M  V30 2260 H 200.515 0.253489 -0.621277 0
M  V30 2261 H 203.059 0.141798 -2.04008 0
M  V30 2262 H 201.214 2.42205 -3.0235 0
M  V30 2263 H 201.628 1.48672 -5.02988 0
M  V30 2264 H 203.102 3.12773 -4.54838 0
M  V30 2265 H 203.579 3.32958 -2.86419 0
M  V30 2266 H 204.185 1.9352 -3.78722 0
M  V30 2267 N 202.5 1.5196 0.417844 0
M  V30 2268 C 203.746 1.65836 1.16732 0
M  V30 2269 C 204.079 0.382881 1.90388 0
M  V30 2270 O 203.354 -0.618368 1.84408 0
M  V30 2271 C 203.637 2.87466 2.16876 0
M  V30 2272 C 203.49 4.25041 1.47174 0
M  V30 2273 C 204.809 3.04613 3.17646 0
M  V30 2274 H 201.928 0.603515 0.423011 0
M  V30 2275 H 204.57 1.84494 0.454105 0
M  V30 2276 H 202.72 2.71689 2.777 0
M  V30 2277 H 204.392 4.52527 0.895376 0
M  V30 2278 H 202.635 4.26843 0.773806 0
M  V30 2279 H 203.306 5.06176 2.20204 0
M  V30 2280 H 205.782 3.1923 2.66892 0
M  V30 2281 H 204.658 3.91247 3.8499 0
M  V30 2282 H 204.919 2.17541 3.84874 0
M  V30 2283 N 203.978 -0.674533 1.42435 0
M  V30 2284 C 204.926 -1.80934 1.46169 0
M  V30 2285 C 205.92 -1.66006 0.3374 0
M  V30 2286 O 207.126 -1.72611 0.510425 0
M  V30 2287 H 203.501 -0.596594 0.457798 0
M  V30 2288 H 205.472 -1.74903 2.41767 0
M  V30 2289 C 204.221 -3.19088 1.38123 0
M  V30 2290 H 203.544 -3.31203 2.23931 0
M  V30 2291 H 204.984 -3.9851 1.44797 0
M  V30 2292 C 203.443 -3.36763 0.0960517 0
M  V30 2293 O 203.973 -3.92581 -0.851073 0
M  V30 2294 N 202.179 -2.90597 0.0131186 0
M  V30 2295 H 201.726 -2.45359 0.784639 0
M  V30 2296 H 201.684 -3.028 -0.846133 0
M  V30 2297 N 205.456 -1.28612 -0.910864 0
M  V30 2298 C 206.403 -1.12786 -2.01365 0
M  V30 2299 C 207.373 -0.024201 -1.66082 0
M  V30 2300 O 208.558 -0.189667 -1.89855 0
M  V30 2301 C 205.698 -0.798743 -3.35729 0
M  V30 2302 C 204.811 -1.98173 -3.83864 0
M  V30 2303 C 203.946 -1.59298 -5.06752 0
M  V30 2304 C 202.985 -2.74245 -5.47226 0
M  V30 2305 N 202.122 -2.35842 -6.61304 0
M  V30 2306 H 206.962 -2.07142 -2.14234 0
M  V30 2307 H 204.499 -1.03093 -1.0493 0
M  V30 2308 H 206.457 -0.588662 -4.13026 0
M  V30 2309 H 205.087 0.10789 -3.2262 0
M  V30 2310 H 204.139 -2.30386 -3.02699 0
M  V30 2311 H 205.451 -2.84343 -4.09818 0
M  V30 2312 H 204.605 -1.34513 -5.916 0
M  V30 2313 H 203.344 -0.702618 -4.82612 0
M  V30 2314 H 202.349 -2.99725 -4.60918 0
M  V30 2315 H 203.574 -3.63928 -5.73353 0
M  V30 2316 H 201.52 -1.49279 -6.38789 0
M  V30 2317 H 201.437 -3.15546 -6.86998 0
M  V30 2318 H 202.705 -2.14348 -7.4945 0
M  V30 2319 N 206.934 1.1197 -1.10907 0
M  V30 2320 C 207.864 2.19928 -0.784473 0
M  V30 2321 C 208.845 1.6833 0.244726 0
M  V30 2322 O 210.03 1.93892 0.109418 0
M  V30 2323 C 207.16 3.46597 -0.220827 0
M  V30 2324 C 206.114 4.11376 -1.18127 0
M  V30 2325 C 205.44 5.32554 -0.478594 0
M  V30 2326 C 206.74 4.56945 -2.52979 0
M  V30 2327 H 208.434 2.47337 -1.68715 0
M  V30 2328 H 205.98 1.18879 -0.812642 0
M  V30 2329 H 207.933 4.21396 0.0184278 0
M  V30 2330 H 206.657 3.1863 0.717113 0
M  V30 2331 H 205.316 3.38564 -1.40606 0
M  V30 2332 H 204.964 5.00856 0.463976 0
M  V30 2333 H 204.664 5.76844 -1.11912 0
M  V30 2334 H 206.188 6.10096 -0.248 0
M  V30 2335 H 207.602 5.23093 -2.3462 0
M  V30 2336 H 205.999 5.1203 -3.12962 0
M  V30 2337 H 207.069 3.70676 -3.12614 0
M  V30 2338 N 208.412 0.89855 1.29475 0
M  V30 2339 C 209.661 0.519863 1.94885 0
M  V30 2340 C 209.974 -0.9383 1.71625 0
M  V30 2341 O 211.18 -1.42445 2.31131 0
M  V30 2342 C 209.636 0.878836 3.49005 0
M  V30 2343 C 209.244 2.35569 3.81066 0
M  V30 2344 C 210.988 0.570004 4.20656 0
M  V30 2345 C 208.895 2.65558 5.28425 0
M  V30 2346 H 207.825 0.190692 0.729488 0
M  V30 2347 H 210.476 1.09539 1.47219 0
M  V30 2348 H 208.858 0.232253 3.95318 0
M  V30 2349 H 210.032 3.04773 3.45616 0
M  V30 2350 H 208.347 2.63343 3.22552 0
M  V30 2351 H 210.944 0.770925 5.29113 0
M  V30 2352 H 211.287 -0.491404 4.1339 0
M  V30 2353 H 211.82 1.17438 3.8007 0
M  V30 2354 H 208.559 3.70493 5.40754 0
M  V30 2355 H 208.079 2.00977 5.65127 0
M  V30 2356 H 209.758 2.51765 5.96006 0
M  V30 2357 N 209.89 -1.43072 0.660911 0
M  V30 2358 C 211.115 -2.06584 0.183805 0
M  V30 2359 C 211.54 -1.49257 -1.14472 0
M  V30 2360 O 210.898 -0.605528 -1.70889 0
M  V30 2361 C 210.946 -3.60418 0.114434 0
M  V30 2362 O 210.05 -4.01981 -0.921137 0
M  V30 2363 H 209.391 -0.656669 0.0983994 0
M  V30 2364 H 211.921 -1.83447 0.906006 0
M  V30 2365 H 211.931 -4.07946 -0.0663394 0
M  V30 2366 H 210.606 -4.01519 1.08422 0
M  V30 2367 H 209.183 -3.66029 -0.71253 0
M  V30 2368 N 211.368 -0.403325 -1.52352 0
M  V30 2369 C 212.316 0.439752 -2.28405 0
M  V30 2370 C 213.31 1.05089 -1.32863 0
M  V30 2371 O 214.516 0.989759 -1.50345 0
M  V30 2372 H 210.891 0.160587 -0.734653 0
M  V30 2373 H 212.862 -0.222983 -2.97566 0
M  V30 2374 C 211.611 1.54736 -3.11371 0
M  V30 2375 H 210.934 1.08643 -3.84755 0
M  V30 2376 H 212.374 2.1112 -3.67701 0
M  V30 2377 C 210.833 2.51141 -2.24566 0
M  V30 2378 O 211.363 3.54887 -1.88196 0
M  V30 2379 N 209.569 2.21213 -1.8845 0
M  V30 2380 H 209.116 1.36878 -2.18225 0
M  V30 2381 H 209.074 2.85963 -1.30662 0
M  V30 2382 N 212.846 1.57033 -0.133567 0
M  V30 2383 C 214.257 1.82593 0.389464 0
M  V30 2384 C 214.608 1.05156 1.6564 0
M  V30 2385 O 213.733 0.292644 2.14412 0
M  V30 2386 C 214.328 3.31204 0.713377 0
M  V30 2387 C 212.887 3.57393 1.18098 0
M  V30 2388 C 212.034 2.76598 0.197126 0
M  V30 2389 H 214.985 1.54598 -0.358481 0
M  V30 2390 H 215.006 3.46627 1.56939 0
M  V30 2391 H 214.518 3.87537 -0.2089 0
M  V30 2392 H 212.619 3.06433 2.11966 0
M  V30 2393 H 212.732 4.65915 1.11624 0
M  V30 2394 H 211.096 2.45257 0.687088 0
M  V30 2395 H 211.879 3.35697 -0.718504 0
M  V30 2396 N 214.325 -0.140222 1.56975 0
M  V30 2397 C 215.573 -0.850005 1.83356 0
M  V30 2398 C 215.894 -1.81399 0.71551 0
M  V30 2399 O 215.164 -1.94136 -0.262294 0
M  V30 2400 H 213.744 -0.316886 0.676456 0
M  V30 2401 H 216.406 -0.132608 1.94448 0
M  V30 2402 H 215.502 -1.40814 2.78528 0
M  V30 2403 N 215.803 -1.52179 -0.40978 0
M  V30 2404 C 216.713 -1.78364 -1.52392 0
M  V30 2405 C 217.729 -0.669183 -1.60617 0
M  V30 2406 O 218.905 -0.954518 -1.77344 0
M  V30 2407 C 215.97 -1.92822 -2.88133 0
M  V30 2408 C 215.031 -3.16725 -2.898 0
M  V30 2409 C 214.264 -3.30483 -4.19067 0
M  V30 2410 O 214.487 -2.49522 -5.12928 0
M  V30 2411 O 213.421 -4.2363 -4.27576 0
M  V30 2412 H 217.247 -2.72931 -1.33201 0
M  V30 2413 H 214.832 -1.37016 -0.59557 0
M  V30 2414 H 216.714 -2.04157 -3.68643 0
M  V30 2415 H 215.389 -1.01444 -3.07393 0
M  V30 2416 H 214.296 -3.10848 -2.08146 0
M  V30 2417 H 215.629 -4.07881 -2.75489 0
M  V30 2418 N 217.281 0.66697 -1.42791 0
M  V30 2419 C 218.527 1.4291 -1.43891 0
M  V30 2420 C 218.86 1.94114 -0.0578972 0
M  V30 2421 O 218.135 1.71414 0.91911 0
M  V30 2422 C 218.418 2.62049 -2.46987 0
M  V30 2423 C 218.271 2.16426 -3.94309 0
M  V30 2424 C 219.59 3.64266 -2.46978 0
M  V30 2425 H 216.709 0.518306 -0.523954 0
M  V30 2426 H 219.351 0.757321 -1.74255 0
M  V30 2427 H 217.501 3.19361 -2.21225 0
M  V30 2428 H 219.173 1.64221 -4.31079 0
M  V30 2429 H 217.416 1.47925 -4.078 0
M  V30 2430 H 218.087 3.02038 -4.62036 0
M  V30 2431 H 220.563 3.16686 -2.69906 0
M  V30 2432 H 219.439 4.45196 -3.21079 0
M  V30 2433 H 219.7 4.15927 -1.49857 0
M  V30 2434 N 218.759 1.29093 0.90403 0
M  V30 2435 C 219.669 1.15727 2.0407 0
M  V30 2436 C 220.685 0.0815308 1.73809 0
M  V30 2437 O 221.861 0.292749 1.99261 0
M  V30 2438 C 218.926 0.830424 3.36608 0
M  V30 2439 C 217.987 1.98955 3.80415 0
M  V30 2440 C 217.22 1.6782 5.06628 0
M  V30 2441 O 217.443 0.597105 5.67266 0
M  V30 2442 O 216.377 2.52486 5.46383 0
M  V30 2443 H 220.203 2.11171 2.18267 0
M  V30 2444 H 217.788 1.08504 1.027 0
M  V30 2445 H 219.67 0.662521 4.16159 0
M  V30 2446 H 218.345 -0.0942678 3.23563 0
M  V30 2447 H 217.252 2.21267 3.01648 0
M  V30 2448 H 218.585 2.89529 3.98037 0
M  V30 2449 N 220.237 -1.11381 1.11499 0
M  V30 2450 C 221.653 -1.35143 0.849031 0
M  V30 2451 C 221.853 -1.94515 -0.525938 0
M  V30 2452 O 220.909 -2.1785 -1.27662 0
M  V30 2453 C 222.222 -2.28249 1.95762 0
M  V30 2454 C 223.77 -2.41812 1.98736 0
M  V30 2455 C 224.245 -3.3824 3.088 0
M  V30 2456 N 225.736 -3.45803 3.08179 0
M  V30 2457 C 226.471 -4.20358 3.89982 0
M  V30 2458 N 225.967 -4.97884 4.8175 0
M  V30 2459 N 227.76 -4.15877 3.78157 0
M  V30 2460 H 219.911 -0.712062 2.00109 0
M  V30 2461 H 222.174 -0.376025 0.870235 0
M  V30 2462 H 221.88 -1.91817 2.94787 0
M  V30 2463 H 221.754 -3.28473 1.85433 0
M  V30 2464 H 224.141 -2.77518 1.00338 0
M  V30 2465 H 224.222 -1.41437 2.13141 0
M  V30 2466 H 223.866 -3.03261 4.07425 0
M  V30 2467 H 223.796 -4.38471 2.91635 0
M  V30 2468 H 226.287 -2.90506 2.41691 0
M  V30 2469 H 226.6 -5.52142 5.40702 0
M  V30 2470 H 224.945 -4.97043 4.85771 0
M  V30 2471 H 228.136 -3.544 3.05808 0
M  V30 2472 H 228.309 -4.73723 4.42143 0
M  V30 2473 N 221.715 -0.905404 -1.28997 0
M  V30 2474 C 222.662 -0.385892 -2.27551 0
M  V30 2475 C 223.632 0.535113 -1.57244 0
M  V30 2476 O 224.817 0.459119 -1.85194 0
M  V30 2477 C 221.957 0.375461 -3.43051 0
M  V30 2478 C 221.07 -0.577092 -4.28128 0
M  V30 2479 C 220.205 0.201879 -5.30816 0
M  V30 2480 C 219.244 -0.744829 -6.07551 0
M  V30 2481 N 218.381 9.42587e-05 -7.021 0
M  V30 2482 H 223.221 -1.23139 -2.71368 0
M  V30 2483 H 220.758 -0.618542 -1.33463 0
M  V30 2484 H 222.716 0.832992 -4.088 0
M  V30 2485 H 221.346 1.18537 -3.00248 0
M  V30 2486 H 220.398 -1.15315 -3.62501 0
M  V30 2487 H 221.71 -1.30152 -4.8152 0
M  V30 2488 H 220.864 0.720351 -6.02408 0
M  V30 2489 H 219.603 0.959413 -4.7817 0
M  V30 2490 H 218.608 -1.27475 -5.34818 0
M  V30 2491 H 219.833 -1.50178 -6.62286 0
M  V30 2492 H 217.779 0.739791 -6.51815 0
M  V30 2493 H 217.696 -0.664321 -7.53076 0
M  V30 2494 H 218.964 0.498644 -7.77903 0
M  V30 2495 N 223.193 1.4272 -0.668489 0
M  V30 2496 C 224.14 2.30796 0.0137489 0
M  V30 2497 C 225.11 1.4561 0.799177 0
M  V30 2498 O 226.295 1.74453 0.772702 0
M  V30 2499 C 223.435 3.31377 0.963507 0
M  V30 2500 C 222.548 4.31655 0.172569 0
M  V30 2501 C 221.683 5.19312 1.1175 0
M  V30 2502 C 220.722 6.11274 0.317886 0
M  V30 2503 N 219.859 6.91504 1.2152 0
M  V30 2504 H 224.699 2.88585 -0.743161 0
M  V30 2505 H 222.236 1.42154 -0.378226 0
M  V30 2506 H 224.194 3.88214 1.52792 0
M  V30 2507 H 222.824 2.75202 1.68712 0
M  V30 2508 H 221.876 3.76988 -0.508374 0
M  V30 2509 H 223.188 4.96779 -0.448527 0
M  V30 2510 H 222.342 5.80851 1.75206 0
M  V30 2511 H 221.081 4.5435 1.77249 0
M  V30 2512 H 220.086 5.48809 -0.329918 0
M  V30 2513 H 221.311 6.78283 -0.332917 0
M  V30 2514 H 219.257 6.29176 1.85671 0
M  V30 2515 H 219.174 7.53209 0.649036 0
M  V30 2516 H 220.442 7.57535 1.83742 0
M  V30 2517 N 224.671 0.411399 1.52136 0
M  V30 2518 C 225.919 -0.163322 2.01439 0
M  V30 2519 C 226.24 -1.45453 1.29879 0
M  V30 2520 O 225.51 -1.91225 0.4254 0
M  V30 2521 H 224.09 -0.0633447 0.744309 0
M  V30 2522 H 226.752 0.548161 1.87033 0
M  V30 2523 H 225.848 -0.357817 3.10042 0
M  V30 2524 N 226.149 -1.5696 0.141893 0
M  V30 2525 C 227.398 -1.95135 -0.510427 0
M  V30 2526 C 227.711 -1.02896 -1.66348 0
M  V30 2527 O 228.917 -1.30629 -2.38009 0
M  V30 2528 C 227.373 -3.46876 -0.959427 0
M  V30 2529 C 226.981 -4.47691 0.166419 0
M  V30 2530 C 228.725 -3.93927 -1.58183 0
M  V30 2531 C 226.632 -5.90636 -0.300565 0
M  V30 2532 H 225.562 -0.728494 -0.194454 0
M  V30 2533 H 228.213 -1.8211 0.22542 0
M  V30 2534 H 226.595 -3.55215 -1.75038 0
M  V30 2535 H 227.769 -4.51043 0.94325 0
M  V30 2536 H 226.084 -4.10527 0.696905 0
M  V30 2537 H 228.681 -4.98158 -1.94275 0
M  V30 2538 H 229.024 -3.3519 -2.46888 0
M  V30 2539 H 229.557 -3.88484 -0.855863 0
M  V30 2540 H 226.296 -6.5318 0.550989 0
M  V30 2541 H 225.816 -5.90655 -1.04338 0
M  V30 2542 H 227.495 -6.42588 -0.754265 0
M  V30 2543 N 227.627 0.131896 -1.57047 0
M  V30 2544 C 228.874 0.841932 -1.84168 0
M  V30 2545 C 229.202 1.8048 -0.725066 0
M  V30 2546 O 228.457 1.93618 0.284692 0
M  V30 2547 C 228.756 1.63703 -3.17704 0
M  V30 2548 C 228.422 0.81961 -4.43388 0
M  V30 2549 C 227.084 0.594148 -4.77518 0
M  V30 2550 C 229.436 0.248977 -5.20605 0
M  V30 2551 C 226.764 -0.212409 -5.86315 0
M  V30 2552 C 229.116 -0.544701 -6.30251 0
M  V30 2553 C 227.78 -0.780599 -6.6292 0
M  V30 2554 H 227.05 0.308085 -0.673917 0
M  V30 2555 H 229.697 0.104867 -1.91213 0
M  V30 2556 H 228.002 2.44464 -3.06177 0
M  V30 2557 H 229.699 2.19015 -3.35907 0
M  V30 2558 H 226.289 1.00542 -4.16641 0
M  V30 2559 H 230.473 0.410408 -4.946 0
M  V30 2560 H 225.729 -0.404524 -6.1006 0
M  V30 2561 H 229.903 -0.993922 -6.89271 0
M  V30 2562 H 227.53 -1.40742 -7.47058 0
M  V30 2563 N 229.106 1.52395 0.401703 0
M  V30 2564 C 230.069 1.75636 1.47257 0
M  V30 2565 C 231.069 0.62628 1.48103 0
M  V30 2566 O 232.259 0.894227 1.49497 0
M  V30 2567 C 229.391 1.84553 2.86624 0
M  V30 2568 H 230.584 2.71241 1.27938 0
M  V30 2569 H 228.137 1.42923 0.632662 0
M  V30 2570 H 228.872 0.908882 3.11303 0
M  V30 2571 H 228.657 2.66715 2.87412 0
M  V30 2572 H 230.147 2.04251 3.64241 0
M  V30 2573 N 230.584 -0.659388 1.43143 0
M  V30 2574 C 231.532 -1.79374 1.4808 0
M  V30 2575 C 232.526 -1.65639 0.354988 0
M  V30 2576 O 233.732 -1.7206 0.528704 0
M  V30 2577 H 230.107 -0.591705 0.4641 0
M  V30 2578 H 232.078 -1.72329 2.43609 0
M  V30 2579 C 230.827 -3.17606 1.41499 0
M  V30 2580 H 230.15 -3.28809 2.27431 0
M  V30 2581 H 231.59 -3.96951 1.49015 0
M  V30 2582 C 230.049 -3.36642 0.131765 0
M  V30 2583 O 230.579 -3.93461 -0.809386 0
M  V30 2584 N 228.785 -2.90567 0.0439396 0
M  V30 2585 H 228.332 -2.44513 0.810619 0
M  V30 2586 H 228.29 -3.03681 -0.813969 0
M  V30 2587 N 232.062 -1.29571 -0.897171 0
M  V30 2588 C 232.992 -1.17473 -2.01798 0
M  V30 2589 C 233.973 -0.068323 -1.69963 0
M  V30 2590 O 235.158 -0.248239 -1.92607 0
M  V30 2591 C 232.288 -0.853099 -3.36659 0
M  V30 2592 C 231.242 -1.9161 -3.82713 0
M  V30 2593 C 230.568 -1.44773 -5.14728 0
M  V30 2594 C 231.868 -3.32535 -4.02763 0
M  V30 2595 H 233.562 -2.11237 -2.12177 0
M  V30 2596 H 231.108 -1.01699 -1.01948 0
M  V30 2597 H 233.061 -0.755165 -4.14578 0
M  V30 2598 H 231.785 0.120236 -3.26379 0
M  V30 2599 H 230.444 -2.00346 -3.07013 0
M  V30 2600 H 230.092 -0.462995 -5.00865 0
M  V30 2601 H 229.792 -2.15865 -5.46513 0
M  V30 2602 H 231.316 -1.36334 -5.95185 0
M  V30 2603 H 232.73 -3.26626 -4.71156 0
M  V30 2604 H 231.127 -4.01607 -4.45905 0
M  V30 2605 H 232.197 -3.75326 -3.07016 0
M  V30 2606 N 233.54 1.10788 -1.12088 0
M  V30 2607 C 234.789 1.82036 -0.868659 0
M  V30 2608 C 235.102 1.85929 0.607426 0
M  V30 2609 O 236.308 2.53346 0.97613 0
M  V30 2610 C 234.764 3.26951 -1.50435 0
M  V30 2611 C 234.372 3.31367 -3.01496 0
M  V30 2612 C 236.116 4.03053 -1.33225 0
M  V30 2613 C 234.023 4.7072 -3.58017 0
M  V30 2614 H 232.953 0.682108 -0.321318 0
M  V30 2615 H 235.604 1.24618 -1.34694 0
M  V30 2616 H 233.986 3.84343 -0.953735 0
M  V30 2617 H 235.16 2.83819 -3.6302 0
M  V30 2618 H 233.475 2.6875 -3.18061 0
M  V30 2619 H 236.072 5.05981 -1.72878 0
M  V30 2620 H 236.415 4.15387 -0.275529 0
M  V30 2621 H 236.948 3.52066 -1.85188 0
M  V30 2622 H 233.687 4.63585 -4.63432 0
M  V30 2623 H 233.207 5.1865 -3.01268 0
M  V30 2624 H 234.886 5.39685 -3.56859 0
M  V30 2625 N 235.018 0.912232 1.28515 0
M  V30 2626 C 236.267 0.540504 1.94323 0
M  V30 2627 C 236.58 -0.920044 1.72611 0
M  V30 2628 O 237.786 -1.39986 2.32629 0
M  V30 2629 C 236.242 0.915803 3.48053 0
M  V30 2630 C 235.85 2.39598 3.78546 0
M  V30 2631 C 237.594 0.614588 4.20027 0
M  V30 2632 C 235.501 2.71148 5.25578 0
M  V30 2633 H 234.431 0.198418 0.727424 0
M  V30 2634 H 237.082 1.11094 1.46049 0
M  V30 2635 H 235.464 0.274168 3.9505 0
M  V30 2636 H 236.638 3.08422 3.42364 0
M  V30 2637 H 234.953 2.66749 3.1974 0
M  V30 2638 H 237.55 0.827002 5.28266 0
M  V30 2639 H 237.893 -0.447531 4.13887 0
M  V30 2640 H 238.426 1.21462 3.78803 0
M  V30 2641 H 235.165 3.76207 5.36794 0
M  V30 2642 H 234.685 2.0696 5.62963 0
M  V30 2643 H 236.364 2.58072 5.93302 0
M  V30 2644 N 236.496 -1.42363 0.676048 0
M  V30 2645 C 237.743 -2.01522 0.19883 0
M  V30 2646 C 238.071 -1.53456 -1.19505 0
M  V30 2647 O 237.326 -0.727967 -1.81657 0
M  V30 2648 C 237.625 -3.56929 0.183431 0
M  V30 2649 C 237.291 -4.24431 1.52215 0
M  V30 2650 C 235.953 -4.42585 1.8887 0
M  V30 2651 C 238.305 -4.62459 2.40377 0
M  V30 2652 C 235.633 -4.96039 3.13309 0
M  V30 2653 C 237.985 -5.17294 3.64129 0
M  V30 2654 C 236.649 -5.33661 4.00951 0
M  V30 2655 H 235.919 -0.737419 0.0727571 0
M  V30 2656 H 238.566 -1.70531 0.871281 0
M  V30 2657 H 236.871 -3.87594 -0.572532 0
M  V30 2658 H 238.568 -4.00486 -0.203035 0
M  V30 2659 H 235.158 -4.10661 1.22701 0
M  V30 2660 H 239.342 -4.48105 2.13343 0
M  V30 2661 H 234.598 -5.06896 3.41857 0
M  V30 2662 H 238.772 -5.45704 4.32644 0
M  V30 2663 H 236.399 -5.74845 4.9745 0
M  V30 2664 N 237.974 -0.419461 -1.51915 0
M  V30 2665 C 239.222 0.152637 -2.01523 0
M  V30 2666 C 239.543 1.44762 -1.30649 0
M  V30 2667 O 238.813 1.90997 -0.435535 0
M  V30 2668 H 237.393 0.0593966 -0.744635 0
M  V30 2669 H 240.055 -0.558073 -1.86739 0
M  V30 2670 H 239.151 0.341369 -3.10227 0
M  V30 2671 N 239.452 1.56882 -0.150215 0
M  V30 2672 C 240.863 1.82995 0.370076 0
M  V30 2673 C 241.214 1.06907 1.64515 0
M  V30 2674 O 240.339 0.315369 2.1409 0
M  V30 2675 C 240.934 3.31942 0.678208 0
M  V30 2676 C 239.493 3.58625 1.14301 0
M  V30 2677 C 238.64 2.76792 0.167778 0
M  V30 2678 H 241.591 1.54209 -0.374858 0
M  V30 2679 H 241.612 3.48272 1.53254 0
M  V30 2680 H 241.124 3.87294 -0.249991 0
M  V30 2681 H 239.225 3.08664 2.08704 0
M  V30 2682 H 239.338 4.67073 1.06676 0
M  V30 2683 H 237.702 2.45972 0.661037 0
M  V30 2684 H 238.485 3.34916 -0.754069 0
M  V30 2685 N 240.93 -0.123565 1.57115 0
M  V30 2686 C 242.178 -0.83051 1.84247 0
M  V30 2687 C 242.499 -1.80629 0.73471 0
M  V30 2688 O 241.769 -1.94403 -0.241688 0
M  V30 2689 H 240.349 -0.309694 0.679778 0
M  V30 2690 H 243.011 -0.111976 1.94578 0
M  V30 2691 H 242.107 -1.37852 2.80006 0
M  V30 2692 N 242.408 -1.52605 -0.393616 0
M  V30 2693 C 243.819 -1.59417 -0.971761 0
M  V30 2694 C 244.17 -0.444173 -1.91106 0
M  V30 2695 O 243.295 0.433382 -2.12016 0
M  V30 2696 C 243.89 -2.88936 -1.76921 0
M  V30 2697 C 242.449 -2.98175 -2.29714 0
M  V30 2698 C 241.596 -2.54491 -1.10135 0
M  V30 2699 H 244.547 -1.57751 -0.173317 0
M  V30 2700 H 244.568 -2.75163 -2.62804 0
M  V30 2701 H 244.08 -3.72616 -1.08532 0
M  V30 2702 H 242.181 -2.19024 -3.01429 0
M  V30 2703 H 242.294 -4.02726 -2.59517 0
M  V30 2704 H 240.658 -2.08702 -1.45999 0
M  V30 2705 H 241.441 -3.4056 -0.432874 0
M  V30 2706 N 243.887 0.651787 -1.4349 0
M  V30 2707 C 245.133 1.41376 -1.45398 0
M  V30 2708 C 245.466 1.94041 -0.0784823 0
M  V30 2709 O 244.741 1.72379 0.900878 0
M  V30 2710 C 245.024 2.59414 -2.49752 0
M  V30 2711 C 244.877 2.12232 -3.96582 0
M  V30 2712 C 246.196 3.61626 -2.50827 0
M  V30 2713 H 243.315 0.512719 -0.529422 0
M  V30 2714 H 245.957 0.738796 -1.75048 0
M  V30 2715 H 244.107 3.16997 -2.246 0
M  V30 2716 H 245.779 1.59639 -4.32797 0
M  V30 2717 H 244.022 1.43592 -4.09346 0
M  V30 2718 H 244.693 2.9712 -4.65214 0
M  V30 2719 H 247.169 3.13805 -2.7325 0
M  V30 2720 H 246.045 4.41766 -3.25783 0
M  V30 2721 H 246.306 4.14314 -1.5426 0
M  V30 2722 N 245.365 1.30045 0.890287 0
M  V30 2723 C 246.295 1.18541 2.01172 0
M  V30 2724 C 247.276 0.0773356 1.69924 0
M  V30 2725 O 248.461 0.25845 1.92473 0
M  V30 2726 C 245.591 0.870941 3.36202 0
M  V30 2727 C 244.545 1.93637 3.81692 0
M  V30 2728 C 243.871 1.475 5.13953 0
M  V30 2729 C 245.171 3.34666 4.00994 0
M  V30 2730 H 246.865 2.12359 2.11054 0
M  V30 2731 H 244.411 1.02238 1.01407 0
M  V30 2732 H 246.364 0.777141 4.14172 0
M  V30 2733 H 245.088 -0.102926 3.26438 0
M  V30 2734 H 243.747 2.01972 3.05946 0
M  V30 2735 H 243.395 0.489551 5.00612 0
M  V30 2736 H 243.095 2.1876 5.4536 0
M  V30 2737 H 244.619 1.39489 5.94454 0
M  V30 2738 H 246.033 3.2912 4.69417 0
M  V30 2739 H 244.43 4.03966 4.43769 0
M  V30 2740 H 245.5 3.76949 3.05021 0
M  V30 2741 N 246.843 -1.10192 1.12674 0
M  V30 2742 C 247.791 -2.18694 0.792196 0
M  V30 2743 C 248.785 -1.67938 -0.222058 0
M  V30 2744 O 249.991 -1.79822 -0.0800074 0
M  V30 2745 H 246.366 -0.713223 0.238364 0
M  V30 2746 H 248.337 -2.44149 1.71564 0
M  V30 2747 C 247.086 -3.46682 0.265859 0
M  V30 2748 H 246.409 -3.86101 1.03761 0
M  V30 2749 H 247.849 -4.23942 0.0701128 0
M  V30 2750 C 246.308 -3.21506 -1.00675 0
M  V30 2751 O 246.838 -3.43408 -2.08408 0
M  V30 2752 N 245.044 -2.75158 -0.934692 0
M  V30 2753 H 244.591 -2.57535 -0.0578604 0
M  V30 2754 H 244.549 -2.58691 -1.7868 0
M  V30 2755 N 248.321 -0.919034 -1.28029 0
M  V30 2756 C 249.231 -0.416756 -2.30869 0
M  V30 2757 C 250.247 0.498235 -1.66714 0
M  V30 2758 O 251.423 0.383144 -1.97722 0
M  V30 2759 C 248.488 0.330274 -3.45123 0
M  V30 2760 C 247.549 -0.618578 -4.2482 0
M  V30 2761 C 246.782 0.0928959 -5.33619 0
M  V30 2762 O 247.005 1.31375 -5.55065 0
M  V30 2763 O 245.939 -0.574499 -5.99152 0
M  V30 2764 H 249.765 -1.27043 -2.75851 0
M  V30 2765 H 247.35 -0.684052 -1.3282 0
M  V30 2766 H 249.232 0.751972 -4.14636 0
M  V30 2767 H 247.907 1.1597 -3.02213 0
M  V30 2768 H 246.814 -1.08978 -3.57875 0
M  V30 2769 H 248.147 -1.41497 -4.71423 0
M  V30 2770 N 249.799 1.42003 -0.683588 0
M  V30 2771 C 250.747 2.326 0.000815408 0
M  V30 2772 C 251.741 1.50308 0.781278 0
M  V30 2773 O 252.947 1.66322 0.688251 0
M  V30 2774 H 249.322 0.751758 0.0190616 0
M  V30 2775 H 251.293 2.88011 -0.780528 0
M  V30 2776 C 250.042 3.34978 0.93195 0
M  V30 2777 H 249.365 3.98345 0.340817 0
M  V30 2778 H 250.805 4.00936 1.37936 0
M  V30 2779 C 249.264 2.67925 2.04249 0
M  V30 2780 O 249.794 2.51788 3.12995 0
M  V30 2781 N 248 2.2681 1.81675 0
M  V30 2782 H 247.547 2.40135 0.932363 0
M  V30 2783 H 247.505 1.8228 2.56167 0
M  V30 2784 N 251.277 0.427512 1.51691 0
M  V30 2785 C 252.187 -0.39527 2.31246 0
M  V30 2786 C 253.203 -1.03674 1.39742 0
M  V30 2787 O 254.379 -1.03425 1.72816 0
M  V30 2788 C 251.444 -1.48706 3.13189 0
M  V30 2789 C 250.505 -0.866743 4.20459 0
M  V30 2790 C 249.738 -1.90651 4.98486 0
M  V30 2791 O 249.961 -3.12733 4.77026 0
M  V30 2792 O 248.895 -1.5025 5.82845 0
M  V30 2793 H 252.721 0.253918 3.02637 0
M  V30 2794 H 250.306 0.190274 1.48183 0
M  V30 2795 H 252.188 -2.12047 3.64162 0
M  V30 2796 H 250.863 -2.12051 2.44573 0
M  V30 2797 H 249.77 -0.195544 3.73589 0
M  V30 2798 H 251.103 -0.276934 4.9142 0
M  V30 2799 N 252.755 -1.56801 0.158532 0
M  V30 2800 C 253.983 -2.00859 -0.496303 0
M  V30 2801 C 254.398 -1.03871 -1.57659 0
M  V30 2802 O 253.755 -0.0375165 -1.82461 0
M  V30 2803 C 253.806 -3.4479 -1.08638 0
M  V30 2804 O 253.527 -4.38072 -0.0492322 0
M  V30 2805 C 255.028 -4.04185 -1.8207 0
M  V30 2806 H 252.248 -0.65864 -0.128199 0
M  V30 2807 H 254.792 -2.02885 0.256506 0
M  V30 2808 H 252.947 -3.43579 -1.78975 0
M  V30 2809 H 253.361 -5.2227 -0.483102 0
M  V30 2810 H 254.835 -5.06857 -2.18633 0
M  V30 2811 H 255.312 -3.45549 -2.71095 0
M  V30 2812 H 255.918 -4.0906 -1.16405 0
M  V30 2813 N 254.233 0.115231 -1.57178 0
M  V30 2814 C 255.482 0.820945 -1.84237 0
M  V30 2815 C 255.795 1.80866 -0.744761 0
M  V30 2816 O 257.001 2.56083 -0.901871 0
M  V30 2817 C 255.457 1.51072 -3.26658 0
M  V30 2818 C 255.065 0.563795 -4.44438 0
M  V30 2819 C 256.809 2.20134 -3.62962 0
M  V30 2820 C 254.716 1.25701 -5.77887 0
M  V30 2821 H 253.646 0.310328 -0.687177 0
M  V30 2822 H 256.297 0.0737134 -1.83352 0
M  V30 2823 H 254.679 2.30471 -3.22024 0
M  V30 2824 H 255.853 -0.197247 -4.60378 0
M  V30 2825 H 254.168 -0.0200638 -4.16395 0
M  V30 2826 H 256.765 2.72696 -4.59936 0
M  V30 2827 H 257.108 2.98107 -2.90582 0
M  V30 2828 H 257.641 1.47619 -3.69396 0
M  V30 2829 H 254.38 0.518493 -6.53446 0
M  V30 2830 H 253.9 1.98997 -5.65827 0
M  V30 2831 H 255.579 1.78915 -6.2177 0
M  V30 2832 N 255.711 1.52812 0.385517 0
M  V30 2833 C 256.988 1.5861 1.14465 0
M  V30 2834 C 257.368 0.381402 2.07626 0
M  V30 2835 O 256.716 -0.629999 2.19643 0
M  V30 2836 C 256.926 2.92664 1.90128 0
M  V30 2837 C 258.274 3.46526 2.45367 0
M  V30 2838 O 259.298 2.94562 2.0028 0
M  V30 2839 O 258.157 4.37323 3.27736 0
M  V30 2840 H 255.251 0.639855 0.523941 0
M  V30 2841 H 257.797 1.65149 0.390389 0
M  V30 2842 H 256.569 3.71788 1.22022 0
M  V30 2843 H 256.192 2.89527 2.72507 0
M  V30 2844 N 257.189 -0.644168 1.43834 0
M  V30 2845 C 258.438 -1.39985 1.45214 0
M  V30 2846 C 258.751 -1.95421 0.0835494 0
M  V30 2847 O 259.957 -2.71488 -0.0251748 0
M  V30 2848 C 258.413 -2.53384 2.55587 0
M  V30 2849 C 258.021 -2.04517 3.98594 0
M  V30 2850 C 259.765 -3.30685 2.66172 0
M  V30 2851 C 257.672 -3.1518 5.00416 0
M  V30 2852 H 256.602 -0.526005 0.540218 0
M  V30 2853 H 259.253 -0.694367 1.69855 0
M  V30 2854 H 257.635 -3.26446 2.24163 0
M  V30 2855 H 258.809 -1.38405 4.39523 0
M  V30 2856 H 257.124 -1.40068 3.92135 0
M  V30 2857 H 259.721 -4.13158 3.39418 0
M  V30 2858 H 260.064 -3.79312 1.71546 0
M  V30 2859 H 260.597 -2.64708 2.96942 0
M  V30 2860 H 257.336 -2.71511 5.96625 0
M  V30 2861 H 256.856 -3.79974 4.64091 0
M  V30 2862 H 258.535 -3.80166 5.23529 0
M  V30 2863 N 258.668 -1.30515 -0.883378 0
M  V30 2864 C 259.916 -1.19194 -1.63209 0
M  V30 2865 C 260.237 0.253205 -1.93349 0
M  V30 2866 O 259.507 1.17025 -1.57105 0
M  V30 2867 H 258.087 -0.438148 -0.605009 0
M  V30 2868 H 260.749 -1.63663 -1.05832 0
M  V30 2869 H 259.845 -1.75396 -2.58153 0
M  V30 2870 N 260.146 1.09593 -1.13257 0
M  V30 2871 C 261.395 1.81105 -0.887917 0
M  V30 2872 C 261.708 1.86563 0.587672 0
M  V30 2873 O 262.914 2.54367 0.949204 0
M  V30 2874 C 261.37 3.25338 -1.53895 0
M  V30 2875 C 260.978 3.28151 -3.04994 0
M  V30 2876 C 262.722 4.01617 -1.37492 0
M  V30 2877 C 260.629 4.66897 -3.6299 0
M  V30 2878 H 259.559 0.678661 -0.328534 0
M  V30 2879 H 262.21 1.23183 -1.36008 0
M  V30 2880 H 260.592 3.8331 -0.994446 0
M  V30 2881 H 261.766 2.79953 -3.66009 0
M  V30 2882 H 260.081 2.65361 -3.20893 0
M  V30 2883 H 262.678 5.04119 -1.78235 0
M  V30 2884 H 263.021 4.15072 -0.31957 0
M  V30 2885 H 263.554 3.50082 -1.88912 0
M  V30 2886 H 260.293 4.58643 -4.68323 0
M  V30 2887 H 259.813 5.15426 -3.06752 0
M  V30 2888 H 261.492 5.3587 -3.62563 0
M  V30 2889 N 261.624 0.925811 1.2754 0
M  V30 2890 C 262.556 0.380753 2.26015 0
M  V30 2891 C 263.569 -0.487485 1.5533 0
M  V30 2892 O 264.758 -0.300413 1.75954 0
M  V30 2893 C 261.858 -0.473259 3.35579 0
M  V30 2894 C 261.031 0.375249 4.35787 0
M  V30 2895 C 260.09 -0.415809 5.24555 0
M  V30 2896 O 259.116 0.175834 5.68928 0
M  V30 2897 N 260.318 -1.71607 5.54555 0
M  V30 2898 H 263.083 1.22725 2.73421 0
M  V30 2899 H 260.644 0.793037 1.41147 0
M  V30 2900 H 262.636 -1.00949 3.91907 0
M  V30 2901 H 261.206 -1.2205 2.87789 0
M  V30 2902 H 260.426 1.09279 3.7875 0
M  V30 2903 H 261.714 0.955399 4.99749 0
M  V30 2904 H 261.112 -2.2191 5.20358 0
M  V30 2905 H 259.669 -2.19887 6.1359 0
M  V30 2906 N 263.102 -1.41638 0.69111 0
M  V30 2907 C 264.05 -2.32597 0.0115199 0
M  V30 2908 C 265.044 -1.5072 -0.773296 0
M  V30 2909 O 266.25 -1.66685 -0.67942 0
M  V30 2910 H 262.625 -0.751849 -0.0150746 0
M  V30 2911 H 264.596 -2.87593 0.795791 0
M  V30 2912 C 263.345 -3.35467 -0.914172 0
M  V30 2913 H 262.668 -3.9852 -0.319687 0
M  V30 2914 H 264.108 -4.01662 -1.35808 0
M  V30 2915 C 262.567 -2.69004 -2.02826 0
M  V30 2916 O 263.097 -2.53444 -3.11655 0
M  V30 2917 N 261.303 -2.2777 -1.80469 0
M  V30 2918 H 260.85 -2.40626 -0.919615 0
M  V30 2919 H 260.808 -1.83635 -2.55197 0
M  V30 2920 N 264.58 -0.43555 -1.51462 0
M  V30 2921 C 265.53 0.394701 -2.24558 0
M  V30 2922 C 266.514 0.99157 -1.26715 0
M  V30 2923 O 267.706 0.910007 -1.51815 0
M  V30 2924 C 264.835 1.4963 -3.08975 0
M  V30 2925 C 263.921 0.908912 -4.14246 0
M  V30 2926 N 264.312 0.0505335 -5.05775 0
M  V30 2927 C 262.61 1.17668 -4.30198 0
M  V30 2928 C 263.311 -0.279161 -5.8103 0
M  V30 2929 N 262.287 0.336767 -5.42556 0
M  V30 2930 H 266.089 -0.267106 -2.92684 0
M  V30 2931 H 263.603 -0.247518 -1.60503 0
M  V30 2932 H 265.6 2.10394 -3.59917 0
M  V30 2933 H 264.26 2.16046 -2.42393 0
M  V30 2934 H 265.271 -0.31577 -5.16936 0
M  V30 2935 H 261.948 1.83847 -3.74842 0
M  V30 2936 H 263.338 -0.977553 -6.64751 0
M  V30 2937 N 266.058 1.56714 -0.166846 0
M  V30 2938 C 267.305 1.96747 0.479252 0
M  V30 2939 C 267.633 1.05263 1.63554 0
M  V30 2940 O 266.888 0.0858098 1.95512 0
M  V30 2941 C 267.187 3.42889 1.00806 0
M  V30 2942 C 266.853 4.50889 -0.0318574 0
M  V30 2943 C 265.515 4.8015 -0.317675 0
M  V30 2944 C 267.867 5.15949 -0.737956 0
M  V30 2945 C 265.195 5.71772 -1.31506 0
M  V30 2946 C 267.547 6.08647 -1.72429 0
M  V30 2947 C 266.211 6.36277 -2.0176 0
M  V30 2948 H 265.481 0.719949 0.175371 0
M  V30 2949 H 268.128 1.89756 -0.257864 0
M  V30 2950 H 266.433 3.4681 1.82291 0
M  V30 2951 H 268.13 3.71203 1.51689 0
M  V30 2952 H 264.72 4.28128 0.201088 0
M  V30 2953 H 268.904 4.93458 -0.530351 0
M  V30 2954 H 264.16 5.91465 -1.54853 0
M  V30 2955 H 268.334 6.58129 -2.27682 0
M  V30 2956 H 265.961 7.07075 -2.79194 0
M  V30 2957 N 267.536 -0.106894 1.57237 0
M  V30 2958 C 268.499 -1.11466 2.0027 0
M  V30 2959 C 269.499 -1.33623 0.894519 0
M  V30 2960 O 270.689 -1.29935 1.16028 0
M  V30 2961 C 267.821 -2.46646 2.35327 0
M  V30 2962 H 269.014 -0.744516 2.90512 0
M  V30 2963 H 266.567 -0.351576 1.52295 0
M  V30 2964 H 267.302 -2.88558 1.48003 0
M  V30 2965 H 267.087 -2.31915 3.16161 0
M  V30 2966 H 268.577 -3.19151 2.69318 0
M  V30 2967 N 269.014 -1.53014 -0.377408 0
M  V30 2968 C 270.239 -1.72818 -1.14668 0
M  V30 2969 C 270.664 -0.450725 -1.8262 0
M  V30 2970 O 270.022 0.59439 -1.7128 0
M  V30 2971 C 270.07 -2.88627 -2.16164 0
M  V30 2972 O 269.174 -2.56409 -3.22998 0
M  V30 2973 H 268.515 -0.574301 -0.333278 0
M  V30 2974 H 271.045 -1.99853 -0.438152 0
M  V30 2975 H 271.055 -3.14455 -2.59966 0
M  V30 2976 H 269.73 -3.81294 -1.66095 0
M  V30 2977 H 268.307 -2.4136 -2.84253 0
M  V30 2978 N 270.492 0.636531 -1.44174 0
M  V30 2979 C 271.908 0.954104 -1.27941 0
M  V30 2980 C 272.108 2.0039 -0.211248 0
M  V30 2981 O 271.164 2.49236 0.404695 0
M  V30 2982 C 272.477 1.4225 -2.64925 0
M  V30 2983 C 274.025 1.53827 -2.72592 0
M  V30 2984 C 274.5 2.04053 -4.10032 0
M  V30 2985 N 275.991 2.11331 -4.12182 0
M  V30 2986 C 276.726 2.51352 -5.15374 0
M  V30 2987 N 276.222 2.90549 -6.2893 0
M  V30 2988 N 278.015 2.51438 -5.02728 0
M  V30 2989 H 270.166 -0.0578386 -2.12321 0
M  V30 2990 H 272.429 0.0367406 -0.947288 0
M  V30 2991 H 272.135 0.725466 -3.44136 0
M  V30 2992 H 272.009 2.39451 -2.9145 0
M  V30 2993 H 274.396 2.22628 -1.93702 0
M  V30 2994 H 274.477 0.550154 -2.49814 0
M  V30 2995 H 274.121 1.35848 -4.89395 0
M  V30 2996 H 274.051 3.03726 -4.30184 0
M  V30 2997 H 276.542 1.83745 -3.30222 0
M  V30 2998 H 276.855 3.19884 -7.03487 0
M  V30 2999 H 275.2 2.88313 -6.32377 0
M  V30 3000 H 278.391 2.20203 -4.13072 0
M  V30 3001 H 278.564 2.82304 -5.83274 0
M  V30 3002 N 271.97 1.30982 0.876444 0
M  V30 3003 C 272.88 1.2003 2.01569 0
M  V30 3004 C 273.896 0.11838 1.73597 0
M  V30 3005 O 275.072 0.33495 1.98595 0
M  V30 3006 C 272.137 0.901637 3.34771 0
M  V30 3007 C 271.198 2.06979 3.76109 0
M  V30 3008 C 270.431 1.78529 5.02954 0
M  V30 3009 O 270.654 0.717296 5.65872 0
M  V30 3010 O 269.588 2.64019 5.40905 0
M  V30 3011 H 273.414 2.15753 2.13739 0
M  V30 3012 H 270.999 1.10658 1.00375 0
M  V30 3013 H 272.881 0.750645 4.1466 0
M  V30 3014 H 271.556 -0.0256141 3.2369 0
M  V30 3015 H 270.463 2.27616 2.96887 0
M  V30 3016 H 271.796 2.97907 3.91807 0
M  V30 3017 N 273.449 -1.08991 1.13837 0
M  V30 3018 C 274.697 -1.80899 0.901098 0
M  V30 3019 C 275.018 -1.86356 -0.574134 0
M  V30 3020 O 274.288 -1.35235 -1.41733 0
M  V30 3021 H 272.868 -0.669966 0.330386 0
M  V30 3022 H 275.53 -1.318 1.43578 0
M  V30 3023 H 274.626 -2.83929 1.29578 0
M  V30 3024 N 274.927 -0.932562 -1.27047 0
M  V30 3025 C 276.174 -0.575559 -1.94148 0
M  V30 3026 C 276.502 0.883984 -1.73251 0
M  V30 3027 O 275.757 1.64655 -1.0577 0
M  V30 3028 C 276.056 -0.853713 -3.47054 0
M  V30 3029 C 275.722 -2.29577 -3.88079 0
M  V30 3030 C 274.384 -2.68999 -3.9899 0
M  V30 3031 C 276.736 -3.23331 -4.08787 0
M  V30 3032 C 274.064 -4.01289 -4.28 0
M  V30 3033 C 276.416 -4.55207 -4.39282 0
M  V30 3034 C 275.08 -4.94457 -4.48407 0
M  V30 3035 H 274.35 -0.210612 -0.710439 0
M  V30 3036 H 276.997 -1.17744 -1.51025 0
M  V30 3037 H 275.302 -0.169204 -3.91434 0
M  V30 3038 H 276.999 -0.55639 -3.97121 0
M  V30 3039 H 273.589 -1.97994 -3.80127 0
M  V30 3040 H 277.773 -2.94074 -3.99793 0
M  V30 3041 H 273.029 -4.31374 -4.33275 0
M  V30 3042 H 277.203 -5.27852 -4.54252 0
M  V30 3043 H 274.83 -5.96994 -4.7064 0
M  V30 3044 N 276.405 1.4127 -0.698611 0
M  V30 3045 C 277.653 2.00782 -0.230409 0
M  V30 3046 C 277.974 1.5562 1.17505 0
M  V30 3047 O 277.244 0.78815 1.79346 0
M  V30 3048 H 275.824 0.742464 -0.0821944 0
M  V30 3049 H 278.486 1.72852 -0.90045 0
M  V30 3050 H 277.582 3.11095 -0.25021 0
M  V30 3051 N 277.883 0.443576 1.51229 0
M  V30 3052 C 279.131 -0.120557 2.0174 0
M  V30 3053 C 279.452 -1.42665 1.32935 0
M  V30 3054 O 278.722 -1.9028 0.465866 0
M  V30 3055 H 277.302 -0.0475426 0.745486 0
M  V30 3056 H 279.964 0.587711 1.85828 0
M  V30 3057 H 279.06 -0.291972 3.10731 0
M  V30 3058 N 279.361 -1.56624 0.175154 0
M  V30 3059 C 280.61 -1.96173 -0.468921 0
M  V30 3060 C 280.923 -1.06401 -1.64128 0
M  V30 3061 O 282.129 -1.35648 -2.35185 0
M  V30 3062 C 280.585 -3.48833 -0.885633 0
M  V30 3063 C 280.193 -4.47237 0.261343 0
M  V30 3064 C 281.937 -3.97194 -1.49791 0
M  V30 3065 C 279.844 -5.9114 -0.175214 0
M  V30 3066 H 278.774 -0.732455 -0.178958 0
M  V30 3067 H 281.425 -1.81591 0.263997 0
M  V30 3068 H 279.807 -3.58848 -1.67464 0
M  V30 3069 H 280.981 -4.4894 1.03871 0
M  V30 3070 H 279.296 -4.08956 0.783827 0
M  V30 3071 H 281.893 -5.02167 -1.83665 0
M  V30 3072 H 282.236 -3.40351 -2.39722 0
M  V30 3073 H 282.769 -3.90212 -0.773267 0
M  V30 3074 H 279.508 -6.51865 0.689414 0
M  V30 3075 H 279.028 -5.92735 -0.91786 0
M  V30 3076 H 280.707 -6.44044 -0.617792 0
M  V30 3077 N 280.839 0.0985539 -1.57292 0
M  V30 3078 C 281.772 1.15082 -1.97057 0
M  V30 3079 C 282.75 1.39025 -0.843255 0
M  V30 3080 O 283.934 1.52842 -1.10325 0
M  V30 3081 C 281.061 2.50069 -2.28437 0
M  V30 3082 C 280.107 2.42428 -3.509 0
M  V30 3083 S 280.94 1.84414 -5.02744 0
M  V30 3084 C 282.096 3.21032 -5.37298 0
M  V30 3085 H 282.329 0.811815 -2.86002 0
M  V30 3086 H 279.862 0.306102 -1.51335 0
M  V30 3087 H 281.82 3.27729 -2.47192 0
M  V30 3088 H 280.481 2.8114 -1.40069 0
M  V30 3089 H 279.674 3.41911 -3.70288 0
M  V30 3090 H 279.276 1.72896 -3.31637 0
M  V30 3091 H 281.568 4.17297 -5.33731 0
M  V30 3092 H 282.511 3.06452 -6.38352 0
M  V30 3093 H 282.919 3.20404 -4.64759 0
M  V30 3094 N 282.317 1.53212 0.369288 0
M  V30 3095 C 283.249 1.75668 1.47219 0
M  V30 3096 C 284.262 0.637387 1.49804 0
M  V30 3097 O 285.451 0.913561 1.5335 0
M  V30 3098 C 282.551 1.81818 2.85999 0
M  V30 3099 C 281.724 3.11409 3.07153 0
M  V30 3100 C 280.783 3.08849 4.26026 0
M  V30 3101 O 279.809 3.82659 4.2138 0
M  V30 3102 N 281.011 2.29409 5.33246 0
M  V30 3103 H 283.776 2.70832 1.28337 0
M  V30 3104 H 281.337 1.51944 0.55898 0
M  V30 3105 H 283.329 1.77588 3.63655 0
M  V30 3106 H 281.899 0.939544 2.98146 0
M  V30 3107 H 281.119 3.28971 2.1719 0
M  V30 3108 H 282.407 3.97059 3.18154 0
M  V30 3109 H 281.805 1.68946 5.39883 0
M  V30 3110 H 280.362 2.31001 6.09493 0
M  V30 3111 N 283.795 -0.628877 1.44509 0
M  V30 3112 C 284.728 -1.75367 1.46019 0
M  V30 3113 C 285.706 -1.59444 0.318787 0
M  V30 3114 O 286.89 -1.81297 0.516099 0
M  V30 3115 C 284.017 -3.12965 1.29501 0
M  V30 3116 C 283.063 -3.47532 2.47233 0
M  V30 3117 S 283.896 -3.44758 4.09758 0
M  V30 3118 C 285.052 -4.84973 3.95667 0
M  V30 3119 H 285.285 -1.7382 2.41193 0
M  V30 3120 H 282.818 -0.803686 1.31834 0
M  V30 3121 H 284.776 -3.92367 1.20658 0
M  V30 3122 H 283.437 -3.12049 0.358341 0
M  V30 3123 H 282.63 -4.47664 2.31544 0
M  V30 3124 H 282.232 -2.75598 2.52828 0
M  V30 3125 H 284.524 -5.74255 3.59496 0
M  V30 3126 H 285.467 -5.05716 4.95638 0
M  V30 3127 H 285.875 -4.59653 3.27688 0
M  V30 3128 N 285.273 -1.31445 -0.869486 0
M  V30 3129 C 286.22 -1.19135 -1.97675 0
M  V30 3130 C 287.19 -0.0770266 -1.65921 0
M  V30 3131 O 288.375 -0.249972 -1.89155 0
M  V30 3132 C 285.515 -0.905149 -3.33018 0
M  V30 3133 C 284.628 -2.10285 -3.77365 0
M  V30 3134 C 283.763 -1.75339 -5.01427 0
M  V30 3135 C 282.802 -2.91515 -5.38224 0
M  V30 3136 N 281.939 -2.56762 -6.53466 0
M  V30 3137 H 286.779 -2.13853 -2.07535 0
M  V30 3138 H 284.316 -1.06379 -1.01597 0
M  V30 3139 H 286.274 -0.719765 -4.10944 0
M  V30 3140 H 284.904 0.00519624 -3.228 0
M  V30 3141 H 283.956 -2.39899 -2.95216 0
M  V30 3142 H 285.268 -2.97237 -4.00564 0
M  V30 3143 H 284.422 -1.53266 -5.87022 0
M  V30 3144 H 283.161 -0.855801 -4.80133 0
M  V30 3145 H 282.166 -3.14237 -4.51149 0
M  V30 3146 H 283.391 -3.81985 -5.61484 0
M  V30 3147 H 281.337 -1.69526 -6.33717 0
M  V30 3148 H 281.254 -3.37243 -6.76612 0
M  V30 3149 H 282.522 -2.38083 -7.42251 0
M  V30 3150 N 286.751 1.08385 -1.14413 0
M  V30 3151 C 287.998 1.80776 -0.912482 0
M  V30 3152 C 288.326 1.86236 0.560934 0
M  V30 3153 O 287.581 1.33431 1.43159 0
M  V30 3154 C 287.88 3.26273 -1.45879 0
M  V30 3155 C 287.546 3.4093 -2.95089 0
M  V30 3156 C 286.208 3.44638 -3.35824 0
M  V30 3157 C 288.56 3.44591 -3.91033 0
M  V30 3158 C 285.888 3.49597 -4.71167 0
M  V30 3159 C 288.24 3.51086 -5.26233 0
M  V30 3160 C 286.904 3.53067 -5.6648 0
M  V30 3161 H 286.174 0.661507 -0.333901 0
M  V30 3162 H 288.821 1.27613 -1.42784 0
M  V30 3163 H 287.126 3.82146 -0.864376 0
M  V30 3164 H 288.823 3.80839 -1.2555 0
M  V30 3165 H 285.413 3.38736 -2.62594 0
M  V30 3166 H 289.597 3.40957 -3.60641 0
M  V30 3167 H 284.853 3.49424 -5.0171 0
M  V30 3168 H 289.027 3.52864 -6.00383 0
M  V30 3169 H 286.654 3.56662 -6.71339 0
M  V30 3170 N 288.23 0.939286 1.26551 0
M  V30 3171 C 289.47 0.5933 1.956 0
M  V30 3172 C 289.834 -0.851515 1.72085 0
M  V30 3173 O 291.035 -1.30634 2.34921 0
M  V30 3174 C 289.306 0.923996 3.45249 0
M  V30 3175 S 290.865 0.688269 4.33369 0
M  V30 3176 H 287.683 0.218591 0.676564 0
M  V30 3177 H 290.285 1.2102 1.5354 0
M  V30 3178 H 288.989 1.97297 3.59864 0
M  V30 3179 H 288.52 0.296746 3.92279 0
M  V30 3180 H 290.535 -0.448434 4.9417 0
M  V30 3181 N 289.708 -1.40897 0.706093 0
M  V30 3182 C 291.119 -1.84023 0.315052 0
M  V30 3183 C 291.47 -1.5906 -1.14866 0
M  V30 3184 O 290.595 -1.06651 -1.88293 0
M  V30 3185 C 291.19 -3.34055 0.565038 0
M  V30 3186 C 289.749 -3.7571 0.227806 0
M  V30 3187 C 288.896 -2.64204 0.842122 0
M  V30 3188 H 291.847 -1.303 0.905963 0
M  V30 3189 H 291.868 -3.80107 -0.172843 0
M  V30 3190 H 291.38 -3.52192 1.63042 0
M  V30 3191 H 289.481 -3.63172 -0.832895 0
M  V30 3192 H 289.594 -4.74103 0.690174 0
M  V30 3193 H 287.958 -2.53255 0.270893 0
M  V30 3194 H 288.741 -2.85155 1.91158 0
M  V30 3195 N 291.186 -0.45159 -1.50991 0
M  V30 3196 C 292.096 0.358431 -2.31846 0
M  V30 3197 C 293.112 1.01438 -1.41373 0
M  V30 3198 O 294.288 1.00663 -1.74439 0
M  V30 3199 C 291.353 1.43704 -3.15515 0
M  V30 3200 C 290.414 0.799742 -4.21785 0
M  V30 3201 C 289.647 1.82696 -5.01456 0
M  V30 3202 O 289.87 3.05105 -4.81941 0
M  V30 3203 O 288.804 1.40958 -5.85162 0
M  V30 3204 H 292.63 -0.302032 -3.02194 0
M  V30 3205 H 290.215 -0.213825 -1.47862 0
M  V30 3206 H 292.097 2.06227 -3.67489 0
M  V30 3207 H 290.772 2.08133 -2.47916 0
M  V30 3208 H 289.679 0.136084 -3.73852 0
M  V30 3209 H 291.012 0.198718 -4.91799 0
M  V30 3210 N 292.664 1.56529 -0.183458 0
M  V30 3211 C 293.894 2.01331 0.463612 0
M  V30 3212 C 294.302 1.06278 1.5653 0
M  V30 3213 O 293.645 0.0577976 1.83609 0
M  V30 3214 C 293.707 3.42547 1.09096 0
M  V30 3215 C 293.371 4.56817 0.129442 0
M  V30 3216 C 294.368 5.15734 -0.656807 0
M  V30 3217 C 292.053 5.02295 0.02174 0
M  V30 3218 C 294.047 6.1857 -1.53784 0
M  V30 3219 C 291.734 6.04978 -0.862864 0
M  V30 3220 C 292.732 6.62988 -1.64123 0
M  V30 3221 O 292.42 7.63677 -2.51103 0
M  V30 3222 H 292.152 0.664917 0.121907 0
M  V30 3223 H 294.706 2.034 -0.285954 0
M  V30 3224 H 292.936 3.37428 1.88889 0
M  V30 3225 H 294.625 3.71228 1.64148 0
M  V30 3226 H 295.391 4.81473 -0.583839 0
M  V30 3227 H 291.27 4.56847 0.617392 0
M  V30 3228 H 294.814 6.63777 -2.14583 0
M  V30 3229 H 290.711 6.38663 -0.93699 0
M  V30 3230 H 291.479 7.81049 -2.44753 0
M  V30 3231 N 294.142 -0.090211 1.57342 0
M  V30 3232 C 295.388 -0.793982 1.86611 0
M  V30 3233 C 295.721 -1.78142 0.773252 0
M  V30 3234 O 294.996 -1.93271 -0.218304 0
M  V30 3235 C 295.279 -1.51839 3.26523 0
M  V30 3236 C 295.132 -0.548609 4.46442 0
M  V30 3237 C 296.451 -2.46779 3.64401 0
M  V30 3238 H 293.57 -0.287186 0.678744 0
M  V30 3239 H 296.212 -0.0575076 1.89913 0
M  V30 3240 H 294.362 -2.14617 3.23839 0
M  V30 3241 H 296.034 0.0725513 4.61243 0
M  V30 3242 H 294.277 0.137614 4.33582 0
M  V30 3243 H 294.948 -1.09271 5.41076 0
M  V30 3244 H 297.424 -1.94089 3.68061 0
M  V30 3245 H 296.3 -2.94479 4.63221 0
M  V30 3246 H 296.561 -3.30758 2.93346 0
M  V30 3247 N 295.62 -1.53406 -0.361157 0
M  V30 3248 C 296.845 -1.74024 -1.12829 0
M  V30 3249 C 297.27 -0.470069 -1.82132 0
M  V30 3250 O 296.628 0.57619 -1.719 0
M  V30 3251 C 296.676 -2.90903 -2.13091 0
M  V30 3252 O 295.78 -2.59821 -3.20261 0
M  V30 3253 H 295.121 -0.577804 -0.327168 0
M  V30 3254 H 297.651 -2.00307 -0.41693 0
M  V30 3255 H 297.661 -3.17194 -2.56616 0
M  V30 3256 H 296.336 -3.83034 -1.62042 0
M  V30 3257 H 294.913 -2.44362 -2.81677 0
M  V30 3258 N 297.098 0.621204 -1.44841 0
M  V30 3259 C 298.344 1.3826 -1.48365 0
M  V30 3260 C 298.677 1.93831 -0.119624 0
M  V30 3261 O 297.952 1.74251 0.864111 0
M  V30 3262 C 298.235 2.54058 -2.55199 0
M  V30 3263 C 298.088 2.03772 -4.00995 0
M  V30 3264 C 299.407 3.56225 -2.58442 0
M  V30 3265 H 296.526 0.501374 -0.540179 0
M  V30 3266 H 299.168 0.7015 -1.76576 0
M  V30 3267 H 297.318 3.12162 -2.31274 0
M  V30 3268 H 298.99 1.50423 -4.36086 0
M  V30 3269 H 297.233 1.34876 -4.12299 0
M  V30 3270 H 297.904 2.87185 -4.71411 0
M  V30 3271 H 300.38 3.07939 -2.79844 0
M  V30 3272 H 299.256 4.34756 -3.3508 0
M  V30 3273 H 299.517 4.10949 -1.63013 0
M  V30 3274 N 298.576 1.31904 0.862503 0
M  V30 3275 C 299.823 1.22017 1.61611 0
M  V30 3276 C 300.151 -0.21991 1.93253 0
M  V30 3277 O 299.406 -1.17076 1.56817 0
M  V30 3278 C 299.705 2.01713 2.95037 0
M  V30 3279 C 299.371 3.51145 2.82857 0
M  V30 3280 C 298.033 3.91889 2.79243 0
M  V30 3281 C 300.385 4.46204 2.69353 0
M  V30 3282 C 297.713 5.25947 2.59993 0
M  V30 3283 C 300.065 5.80397 2.5164 0
M  V30 3284 C 298.729 6.20352 2.46413 0
M  V30 3285 H 297.999 0.44649 0.591378 0
M  V30 3286 H 300.646 1.63248 1.00111 0
M  V30 3287 H 298.951 1.53185 3.60613 0
M  V30 3288 H 300.648 1.91437 3.52353 0
M  V30 3289 H 297.238 3.1878 2.86491 0
M  V30 3290 H 301.422 4.15652 2.71196 0
M  V30 3291 H 296.678 5.5597 2.54376 0
M  V30 3292 H 300.852 6.53676 2.40169 0
M  V30 3293 H 298.479 7.24172 2.31256 0
M  V30 3294 N 300.054 -1.07777 1.14986 0
M  V30 3295 C 301.002 -2.16964 0.838406 0
M  V30 3296 C 301.996 -1.68372 -0.186386 0
M  V30 3297 O 303.202 -1.79951 -0.0418465 0
M  V30 3298 H 299.577 -0.708006 0.253439 0
M  V30 3299 H 301.548 -2.40454 1.76704 0
M  V30 3300 C 300.297 -3.4604 0.339335 0
M  V30 3301 H 299.62 -3.83813 1.11927 0
M  V30 3302 H 301.06 -4.23698 0.160021 0
M  V30 3303 C 299.519 -3.23569 -0.938325 0
M  V30 3304 O 300.049 -3.47752 -2.01077 0
M  V30 3305 N 298.255 -2.77079 -0.876117 0
M  V30 3306 H 297.802 -2.576 -0.00322037 0
M  V30 3307 H 297.76 -2.62422 -1.73153 0
M  V30 3308 N 301.532 -0.945985 -1.26051 0
M  V30 3309 C 302.48 -0.450259 -2.282 0
M  V30 3310 C 303.474 0.47497 -1.62605 0
M  V30 3311 O 304.68 0.352653 -1.76512 0
M  V30 3312 H 301.055 -0.127081 -0.741184 0
M  V30 3313 H 303.026 -1.32422 -2.67408 0
M  V30 3314 C 301.775 0.26467 -3.46691 0
M  V30 3315 H 301.098 -0.438123 -3.97392 0
M  V30 3316 H 302.538 0.575678 -4.20074 0
M  V30 3317 C 300.997 1.48416 -3.02447 0
M  V30 3318 O 301.527 2.58227 -3.07704 0
M  V30 3319 N 299.733 1.34243 -2.57735 0
M  V30 3320 H 299.28 0.448994 -2.53657 0
M  V30 3321 H 299.238 2.15957 -2.28495 0
M  V30 3322 N 303.011 1.40521 -0.713556 0
M  V30 3323 C 304.257 2.01221 -0.252564 0
M  V30 3324 C 304.59 1.56444 1.1506 0
M  V30 3325 O 303.865 0.783597 1.78017 0
M  V30 3326 C 304.148 3.58582 -0.330332 0
M  V30 3327 C 304.001 4.13437 -1.77173 0
M  V30 3328 C 305.32 4.39079 0.299641 0
M  V30 3329 H 302.439 0.731077 -0.0932471 0
M  V30 3330 H 305.081 1.67026 -0.905673 0
M  V30 3331 H 303.231 3.87844 0.225737 0
M  V30 3332 H 304.903 3.9498 -2.38303 0
M  V30 3333 H 303.146 3.67801 -2.3001 0
M  V30 3334 H 303.817 5.22597 -1.77755 0
M  V30 3335 H 306.293 4.15735 -0.174139 0
M  V30 3336 H 305.169 5.4848 0.214771 0
M  V30 3337 H 305.43 4.19915 1.38288 0
M  V30 3338 N 304.489 0.459591 1.5075 0
M  V30 3339 C 305.421 -0.37665 2.26084 0
M  V30 3340 C 306.434 -0.967109 1.30961 0
M  V30 3341 O 307.623 -0.857468 1.56556 0
M  V30 3342 C 304.723 -1.54112 3.01832 0
M  V30 3343 C 303.896 -1.06553 4.24223 0
M  V30 3344 C 302.955 -2.1027 4.82362 0
M  V30 3345 O 301.981 -1.68798 5.43595 0
M  V30 3346 N 303.183 -3.42974 4.68347 0
M  V30 3347 H 305.948 0.269124 2.98489 0
M  V30 3348 H 303.509 0.28972 1.59287 0
M  V30 3349 H 305.501 -2.23165 3.37608 0
M  V30 3350 H 304.071 -2.0918 2.32298 0
M  V30 3351 H 303.291 -0.201274 3.93686 0
M  V30 3352 H 304.579 -0.725516 5.03601 0
M  V30 3353 H 303.977 -3.79385 4.19623 0
M  V30 3354 H 302.534 -4.07858 5.08424 0
M  V30 3355 N 305.967 -1.56429 0.191757 0
M  V30 3356 C 306.877 -2.22541 -0.742481 0
M  V30 3357 C 307.893 -1.22342 -1.23727 0
M  V30 3358 O 309.069 -1.55069 -1.28513 0
M  V30 3359 C 306.134 -2.8692 -1.94623 0
M  V30 3360 C 305.195 -4.02378 -1.49633 0
M  V30 3361 C 304.428 -4.63678 -2.6427 0
M  V30 3362 O 304.651 -4.23895 -3.81666 0
M  V30 3363 O 303.585 -5.53202 -2.37174 0
M  V30 3364 H 307.411 -3.02977 -0.209462 0
M  V30 3365 H 304.996 -1.49353 -0.0373832 0
M  V30 3366 H 306.878 -3.27663 -2.64982 0
M  V30 3367 H 305.553 -2.09466 -2.46791 0
M  V30 3368 H 304.46 -3.66265 -0.761636 0
M  V30 3369 H 305.793 -4.81487 -1.02134 0
M  V30 3370 N 307.445 0.0818655 -1.57387 0
M  V30 3371 C 308.393 1.11712 -2.04018 0
M  V30 3372 C 309.387 1.40683 -0.94364 0
M  V30 3373 O 310.593 1.40209 -1.12878 0
M  V30 3374 H 306.968 0.377542 -0.650358 0
M  V30 3375 H 308.939 0.697614 -2.90131 0
M  V30 3376 C 307.688 2.42537 -2.49141 0
M  V30 3377 H 307.011 2.21092 -3.33104 0
M  V30 3378 H 308.451 3.13446 -2.85531 0
M  V30 3379 C 306.91 3.0778 -1.37014 0
M  V30 3380 O 307.44 3.95436 -0.706621 0
M  V30 3381 N 305.646 2.68242 -1.11779 0
M  V30 3382 H 305.193 1.97052 -1.65917 0
M  V30 3383 H 305.151 3.1222 -0.369594 0
M  V30 3384 N 308.923 1.53595 0.353017 0
M  V30 3385 C 309.87 1.80919 1.43308 0
M  V30 3386 C 310.84 0.654288 1.5267 0
M  V30 3387 O 312.025 0.897759 1.6836 0
M  V30 3388 C 309.165 2.01605 2.80089 0
M  V30 3389 C 308.278 3.29321 2.79593 0
M  V30 3390 C 307.413 3.40125 4.0803 0
M  V30 3391 C 306.452 4.61826 4.01725 0
M  V30 3392 N 305.589 4.69716 5.21834 0
M  V30 3393 H 310.429 2.73074 1.19308 0
M  V30 3394 H 307.966 1.35263 0.578131 0
M  V30 3395 H 309.924 2.11586 3.59565 0
M  V30 3396 H 308.554 1.12772 3.0246 0
M  V30 3397 H 307.606 3.28229 1.92276 0
M  V30 3398 H 308.918 4.18884 2.70809 0
M  V30 3399 H 308.072 3.49488 4.95927 0
M  V30 3400 H 306.811 2.48601 4.19582 0
M  V30 3401 H 305.816 4.52552 3.12213 0
M  V30 3402 H 307.041 5.54705 3.91764 0
M  V30 3403 H 304.987 3.81097 5.33948 0
M  V30 3404 H 304.904 5.53202 5.1527 0
M  V30 3405 H 306.172 4.83376 6.11529 0
M  V30 3406 N 310.401 -0.613514 1.45168 0
M  V30 3407 C 311.649 -1.36997 1.48581 0
M  V30 3408 C 311.97 -1.94589 0.126545 0
M  V30 3409 O 311.24 -1.76816 -0.843372 0
M  V30 3410 H 309.82 -0.508558 0.547154 0
M  V30 3411 H 312.482 -0.720853 1.81079 0
M  V30 3412 H 311.578 -2.1924 2.22127 0
M  V30 3413 N 311.879 -1.3236 -0.855495 0
M  V30 3414 C 312.842 -1.21164 -1.94556 0
M  V30 3415 C 313.842 -0.134908 -1.60233 0
M  V30 3416 O 315.032 -0.385249 -1.69887 0
M  V30 3417 C 312.164 -0.863192 -3.29791 0
M  V30 3418 H 313.357 -2.18038 -2.05911 0
M  V30 3419 H 310.91 -1.16179 -1.04557 0
M  V30 3420 H 311.645 0.103769 -3.24134 0
M  V30 3421 H 311.43 -1.64166 -3.56078 0
M  V30 3422 H 312.92 -0.809156 -4.09686 0
M  V30 3423 N 313.357 1.07166 -1.15556 0
M  V30 3424 C 314.582 1.84053 -0.955988 0
M  V30 3425 C 315.007 1.81586 0.490739 0
M  V30 3426 O 314.365 1.21018 1.34997 0
M  V30 3427 C 314.413 3.28957 -1.47714 0
M  V30 3428 O 313.517 4.06795 -0.677593 0
M  V30 3429 H 312.858 0.569842 -0.340847 0
M  V30 3430 H 315.388 1.35178 -1.53584 0
M  V30 3431 H 315.398 3.79788 -1.4908 0
M  V30 3432 H 314.073 3.30068 -2.53037 0
M  V30 3433 H 312.65 3.6561 -0.733721 0
M  V30 3434 N 314.835 0.952656 1.25548 0
M  V30 3435 C 316.084 0.602053 1.92505 0
M  V30 3436 C 316.397 -0.864663 1.75451 0
M  V30 3437 O 317.603 -1.32514 2.36965 0
M  V30 3438 C 316.059 1.02607 3.44963 0
M  V30 3439 C 315.667 2.51519 3.70732 0
M  V30 3440 C 317.411 0.747905 4.1786 0
M  V30 3441 C 315.318 2.87732 5.16686 0
M  V30 3442 H 314.248 0.22146 0.720744 0
M  V30 3443 H 316.899 1.15684 1.42441 0
M  V30 3444 H 315.281 0.399712 3.93978 0
M  V30 3445 H 316.455 3.19157 3.32378 0
M  V30 3446 H 314.77 2.76786 3.11092 0
M  V30 3447 H 317.367 0.994647 5.25367 0
M  V30 3448 H 317.71 -0.315629 4.15102 0
M  V30 3449 H 318.243 1.33452 3.74747 0
M  V30 3450 H 314.982 3.93095 5.24554 0
M  V30 3451 H 314.502 2.24765 5.56094 0
M  V30 3452 H 316.181 2.76817 5.84792 0
M  V30 3453 N 316.313 -1.40141 0.720998 0
M  V30 3454 C 317.56 -2.00787 0.262842 0
M  V30 3455 C 317.888 -1.5718 -1.14563 0
M  V30 3456 O 317.143 -0.785391 -1.79249 0
M  V30 3457 C 317.442 -3.56165 0.296892 0
M  V30 3458 C 317.108 -4.19373 1.65641 0
M  V30 3459 C 315.77 -4.36352 2.02855 0
M  V30 3460 C 318.122 -4.54578 2.54968 0
M  V30 3461 C 315.45 -4.8582 3.28931 0
M  V30 3462 C 317.802 -5.05447 3.80402 0
M  V30 3463 C 316.466 -5.20635 4.17726 0
M  V30 3464 H 315.736 -0.734731 0.0961807 0
M  V30 3465 H 318.383 -1.67673 0.925093 0
M  V30 3466 H 316.688 -3.8922 -0.448932 0
M  V30 3467 H 318.385 -4.00929 -0.0755208 0
M  V30 3468 H 314.975 -4.06549 1.35704 0
M  V30 3469 H 319.159 -4.41091 2.27491 0
M  V30 3470 H 314.415 -4.95764 3.57811 0
M  V30 3471 H 318.589 -5.31663 4.49786 0
M  V30 3472 H 316.216 -5.58728 5.15487 0
M  V30 3473 N 317.792 -0.46758 -1.50504 0
M  V30 3474 C 318.74 0.342482 -2.30065 0
M  V30 3475 C 319.734 0.993596 -1.37201 0
M  V30 3476 O 320.94 0.925102 -1.54408 0
M  V30 3477 H 317.315 0.129283 -0.740803 0
M  V30 3478 H 319.286 -0.34899 -2.96352 0
M  V30 3479 C 318.035 1.4139 -3.17654 0
M  V30 3480 H 317.358 0.922264 -3.89017 0
M  V30 3481 H 318.798 1.95335 -3.76325 0
M  V30 3482 C 317.257 2.4139 -2.35016 0
M  V30 3483 O 317.787 3.46586 -2.03079 0
M  V30 3484 N 315.993 2.13021 -1.97662 0
M  V30 3485 H 315.54 1.27499 -2.23834 0
M  V30 3486 H 315.498 2.80164 -1.42673 0
M  V30 3487 N 319.27 1.56325 -0.20005 0
M  V30 3488 C 320.686 1.58839 0.155716 0
M  V30 3489 C 320.886 1.21636 1.60645 0
M  V30 3490 O 319.942 0.941437 2.34293 0
M  V30 3491 C 321.255 3.0032 -0.151124 0
M  V30 3492 C 322.803 3.12866 -0.0916284 0
M  V30 3493 C 323.278 4.56488 -0.371845 0
M  V30 3494 N 324.769 4.62089 -0.320641 0
M  V30 3495 C 325.504 5.71116 -0.511243 0
M  V30 3496 N 325 6.88592 -0.762461 0
M  V30 3497 N 326.793 5.60335 -0.445157 0
M  V30 3498 H 318.944 1.78788 -1.14668 0
M  V30 3499 H 321.207 0.829996 -0.458051 0
M  V30 3500 H 320.913 3.32117 -1.15721 0
M  V30 3501 H 320.787 3.73257 0.543986 0
M  V30 3502 H 323.174 2.80878 0.905065 0
M  V30 3503 H 323.255 2.42304 -0.81989 0
M  V30 3504 H 322.899 4.89189 -1.36588 0
M  V30 3505 H 322.829 5.25246 0.377362 0
M  V30 3506 H 325.32 3.77665 -0.13329 0
M  V30 3507 H 325.633 7.67581 -0.896576 0
M  V30 3508 H 323.978 6.90387 -0.799412 0
M  V30 3509 H 327.169 4.67436 -0.249278 0
M  V30 3510 H 327.342 6.45243 -0.597116 0
M  V30 3511 N 320.748 -0.0735177 1.57428 0
M  V30 3512 C 322.164 -0.428264 1.53747 0
M  V30 3513 C 322.364 -1.79272 0.91998 0
M  V30 3514 O 321.42 -2.47051 0.521745 0
M  V30 3515 C 322.733 -0.370914 2.98404 0
M  V30 3516 C 324.281 -0.451224 3.0973 0
M  V30 3517 C 324.756 -0.4238 4.56035 0
M  V30 3518 N 326.247 -0.483925 4.60665 0
M  V30 3519 C 326.982 -0.484891 5.71346 0
M  V30 3520 N 326.478 -0.440775 6.91396 0
M  V30 3521 N 328.271 -0.531319 5.59583 0
M  V30 3522 H 320.422 0.819949 1.95935 0
M  V30 3523 H 322.685 0.307493 0.896745 0
M  V30 3524 H 322.391 0.564956 3.47133 0
M  V30 3525 H 322.265 -1.18176 3.5821 0
M  V30 3526 H 324.652 -1.37752 2.60976 0
M  V30 3527 H 324.733 0.388167 2.52838 0
M  V30 3528 H 324.377 0.498638 5.05446 0
M  V30 3529 H 324.307 -1.2807 5.10789 0
M  V30 3530 H 326.798 -0.522338 3.74273 0
M  V30 3531 H 327.111 -0.44539 7.71515 0
M  V30 3532 H 325.456 -0.40749 6.93804 0
M  V30 3533 H 328.647 -0.563464 4.64696 0
M  V30 3534 H 328.82 -0.528603 6.4584 0
M  V30 3535 N 322.226 -1.5378 -0.344866 0
M  V30 3536 C 323.474 -1.70625 -1.08311 0
M  V30 3537 C 323.795 -0.471447 -1.89215 0
M  V30 3538 O 323.065 0.514616 -1.8902 0
M  V30 3539 H 321.645 -0.629058 -0.402859 0
M  V30 3540 H 324.307 -1.9103 -0.386459 0
M  V30 3541 H 323.403 -2.57656 -1.76124 0
M  V30 3542 N 323.704 0.605807 -1.45491 0
M  V30 3543 C 324.934 1.38934 -1.52908 0
M  V30 3544 C 325.342 1.88513 -0.161086 0
M  V30 3545 O 324.685 1.62962 0.847891 0
M  V30 3546 C 324.747 2.62737 -2.45376 0
M  V30 3547 C 324.411 2.34785 -3.92078 0
M  V30 3548 C 325.408 1.95038 -4.8193 0
M  V30 3549 C 323.093 2.47642 -4.37011 0
M  V30 3550 C 325.087 1.68511 -6.14722 0
M  V30 3551 C 322.774 2.20728 -5.69844 0
M  V30 3552 C 323.772 1.81225 -6.58519 0
M  V30 3553 O 323.46 1.54627 -7.88889 0
M  V30 3554 H 323.192 0.431629 -0.520262 0
M  V30 3555 H 325.746 0.74573 -1.91384 0
M  V30 3556 H 323.976 3.29824 -2.01874 0
M  V30 3557 H 325.665 3.24783 -2.43456 0
M  V30 3558 H 326.431 1.84639 -4.48479 0
M  V30 3559 H 322.31 2.77356 -3.68232 0
M  V30 3560 H 325.854 1.37602 -6.83894 0
M  V30 3561 H 321.751 2.30744 -6.02849 0
M  V30 3562 H 322.519 1.68665 -8.00933 0
M  V30 3563 N 325.182 1.32811 0.848464 0
M  V30 3564 C 326.429 1.23724 1.60308 0
M  V30 3565 C 326.757 -0.1994 1.93475 0
M  V30 3566 O 326.012 -1.15406 1.5805 0
M  V30 3567 C 326.311 2.04831 2.92881 0
M  V30 3568 C 325.977 3.54125 2.79117 0
M  V30 3569 C 324.639 3.94829 2.7507 0
M  V30 3570 C 326.991 4.49036 2.64606 0
M  V30 3571 C 324.319 5.28675 2.544 0
M  V30 3572 C 326.671 5.83033 2.4547 0
M  V30 3573 C 325.335 6.22931 2.39819 0
M  V30 3574 H 324.605 0.452737 0.586609 0
M  V30 3575 H 327.252 1.64301 0.983743 0
M  V30 3576 H 325.557 1.57001 3.58968 0
M  V30 3577 H 327.254 1.95164 3.50303 0
M  V30 3578 H 323.844 3.21801 2.83094 0
M  V30 3579 H 328.028 4.18505 2.66772 0
M  V30 3580 H 323.284 5.58637 2.48465 0
M  V30 3581 H 327.458 6.56186 2.33222 0
M  V30 3582 H 325.085 7.26584 2.23562 0
M  V30 3583 N 326.66 -1.06551 1.16123 0
M  V30 3584 C 327.885 -1.83544 0.965735 0
M  V30 3585 C 328.31 -1.81843 -0.481102 0
M  V30 3586 O 327.668 -1.21732 -1.34354 0
M  V30 3587 C 327.716 -3.28169 1.49457 0
M  V30 3588 O 326.82 -4.0643 0.699157 0
M  V30 3589 H 326.161 -0.568026 0.343864 0
M  V30 3590 H 328.691 -1.34362 1.54299 0
M  V30 3591 H 328.701 -3.78992 1.51092 0
M  V30 3592 H 327.376 -3.28722 2.54784 0
M  V30 3593 H 325.953 -3.65216 0.7531 0
M  V30 3594 N 328.138 -0.959301 -1.25041 0
M  V30 3595 C 329.415 -0.533805 -1.88175 0
M  V30 3596 C 329.795 0.988994 -1.865 0
M  V30 3597 O 329.143 1.85677 -1.33177 0
M  V30 3598 C 329.353 -1.11575 -3.30684 0
M  V30 3599 C 330.701 -1.19548 -4.07423 0
M  V30 3600 O 331.725 -1.06765 -3.39823 0
M  V30 3601 O 330.584 -1.39656 -5.28354 0
M  V30 3602 H 327.678 -0.176772 -0.807887 0
M  V30 3603 H 330.224 -1.05303 -1.33076 0
M  V30 3604 H 328.996 -2.15884 -3.26358 0
M  V30 3605 H 328.619 -0.580059 -3.93346 0
M  V30 3606 N 329.616 1.39756 -0.72842 0
M  V30 3607 C 331.027 1.83498 -0.344289 0
M  V30 3608 C 331.378 1.60868 1.12321 0
M  V30 3609 O 330.503 1.09634 1.86573 0
M  V30 3610 C 331.098 3.33114 -0.618112 0
M  V30 3611 C 329.657 3.753 -0.287549 0
M  V30 3612 C 328.804 2.62831 -0.884048 0
M  V30 3613 H 331.755 1.28842 -0.926578 0
M  V30 3614 H 331.776 3.80334 0.112349 0
M  V30 3615 H 331.288 3.49553 -1.68625 0
M  V30 3616 H 329.389 3.64451 0.775012 0
M  V30 3617 H 329.502 4.72945 -0.765512 0
M  V30 3618 H 327.866 2.52792 -0.311149 0
M  V30 3619 H 328.649 2.82078 -1.95671 0
M  V30 3620 N 331.094 0.475555 1.50254 0
M  V30 3621 C 332.057 -0.305016 2.27161 0
M  V30 3622 C 333.057 -0.916519 1.32123 0
M  V30 3623 O 334.247 -0.785003 1.5551 0
M  V30 3624 C 331.379 -1.43496 3.09227 0
M  V30 3625 H 332.572 0.369511 2.97615 0
M  V30 3626 H 330.125 0.229747 1.54602 0
M  V30 3627 H 330.86 -2.14441 2.43281 0
M  V30 3628 H 330.645 -1.00223 3.79075 0
M  V30 3629 H 332.135 -1.98548 3.67381 0
M  V30 3630 N 332.573 -1.56217 0.208337 0
M  V30 3631 C 333.503 -2.22694 -0.702116 0
M  V30 3632 C 334.484 -1.19432 -1.2112 0
M  V30 3633 O 335.669 -1.47978 -1.25762 0
M  V30 3634 C 332.799 -2.8966 -1.9161 0
M  V30 3635 C 331.753 -3.9928 -1.5414 0
M  V30 3636 C 331.079 -4.53476 -2.83308 0
M  V30 3637 C 332.379 -5.17012 -0.741339 0
M  V30 3638 H 334.073 -2.99034 -0.147898 0
M  V30 3639 H 331.619 -1.43831 -0.0696951 0
M  V30 3640 H 333.572 -3.34852 -2.55836 0
M  V30 3641 H 332.296 -2.10746 -2.49507 0
M  V30 3642 H 330.955 -3.54799 -0.922668 0
M  V30 3643 H 330.603 -3.71308 -3.39322 0
M  V30 3644 H 330.303 -5.27451 -2.58976 0
M  V30 3645 H 331.827 -5.01378 -3.485 0
M  V30 3646 H 333.241 -5.58667 -1.28699 0
M  V30 3647 H 331.638 -5.97137 -0.595627 0
M  V30 3648 H 332.708 -4.8423 0.254851 0
M  V30 3649 N 334.051 0.0651679 -1.57465 0
M  V30 3650 C 335.3 0.761916 -1.86756 0
M  V30 3651 C 335.613 1.78406 -0.801925 0
M  V30 3652 O 336.819 2.53084 -0.982885 0
M  V30 3653 C 335.275 1.40603 -3.31299 0
M  V30 3654 C 334.883 0.422115 -4.46007 0
M  V30 3655 C 336.627 2.08476 -3.69781 0
M  V30 3656 C 334.534 1.07252 -5.81593 0
M  V30 3657 H 333.464 0.288308 -0.696702 0
M  V30 3658 H 336.115 0.015344 -1.83494 0
M  V30 3659 H 334.497 2.20109 -3.29193 0
M  V30 3660 H 335.671 -0.343613 -4.59517 0
M  V30 3661 H 333.986 -0.152527 -4.16121 0
M  V30 3662 H 336.583 2.57925 -4.68379 0
M  V30 3663 H 336.926 2.88712 -2.99919 0
M  V30 3664 H 337.459 1.35792 -3.73905 0
M  V30 3665 H 334.198 0.310342 -6.54765 0
M  V30 3666 H 333.718 1.80895 -5.71872 0
M  V30 3667 H 335.397 1.59043 -6.27148 0
M  V30 3668 N 335.529 1.53961 0.336706 0
M  V30 3669 C 336.459 1.85417 1.41925 0
M  V30 3670 C 337.44 0.709856 1.5458 0
M  V30 3671 O 338.625 0.962396 1.68676 0
M  V30 3672 C 335.755 2.06985 2.78881 0
M  V30 3673 C 334.709 3.22813 2.81026 0
M  V30 3674 C 334.035 3.29727 4.20932 0
M  V30 3675 C 335.335 4.60767 2.45949 0
M  V30 3676 H 337.029 2.76079 1.15848 0
M  V30 3677 H 334.575 1.32839 0.555859 0
M  V30 3678 H 336.528 2.27575 3.54665 0
M  V30 3679 H 335.252 1.13061 3.06406 0
M  V30 3680 H 333.911 3.0209 2.07695 0
M  V30 3681 H 333.559 2.33385 4.45579 0
M  V30 3682 H 333.259 4.07566 4.23277 0
M  V30 3683 H 334.783 3.52536 4.98549 0
M  V30 3684 H 336.197 4.81325 3.11446 0
M  V30 3685 H 334.594 5.4106 2.59566 0
M  V30 3686 H 335.664 4.6391 1.41122 0
M  V30 3687 N 337.007 -0.598083 1.45811 0
M  V30 3688 C 337.94 -1.7223 1.49706 0
M  V30 3689 C 338.918 -1.58732 0.352535 0
M  V30 3690 O 340.102 -1.80162 0.554438 0
M  V30 3691 C 337.229 -3.10148 1.3611 0
M  V30 3692 C 336.275 -3.42209 2.54549 0
M  V30 3693 S 337.108 -3.35989 4.16979 0
M  V30 3694 C 338.264 -4.76471 4.05865 0
M  V30 3695 H 338.497 -1.68665 2.44826 0
M  V30 3696 H 336.03 -0.775541 1.33509 0
M  V30 3697 H 337.988 -3.8972 1.28953 0
M  V30 3698 H 336.649 -3.11219 0.424451 0
M  V30 3699 H 335.842 -4.42652 2.40988 0
M  V30 3700 H 335.444 -2.70173 2.58617 0
M  V30 3701 H 337.736 -5.665 3.71596 0
M  V30 3702 H 338.679 -4.95089 5.06253 0
M  V30 3703 H 339.087 -4.52599 3.37364 0
M  V30 3704 N 338.485 -1.33259 -0.841409 0
M  V30 3705 C 339.435 -1.19872 -1.93945 0
M  V30 3706 C 340.419 -0.102269 -1.60575 0
M  V30 3707 O 341.611 -0.330114 -1.73894 0
M  V30 3708 C 338.74 -0.937517 -3.30251 0
M  V30 3709 C 337.826 -2.07629 -3.69799 0
M  V30 3710 N 338.217 -3.32604 -3.81062 0
M  V30 3711 C 336.515 -1.98242 -3.9952 0
M  V30 3712 C 337.216 -4.07275 -4.15333 0
M  V30 3713 N 336.192 -3.35691 -4.27566 0
M  V30 3714 H 339.994 -2.14604 -2.00805 0
M  V30 3715 H 337.508 -1.2523 -1.03398 0
M  V30 3716 H 339.505 -0.822545 -4.08705 0
M  V30 3717 H 338.165 0.00128798 -3.247 0
M  V30 3718 H 339.176 -3.67382 -3.65035 0
M  V30 3719 H 335.853 -1.12005 -4.02195 0
M  V30 3720 H 337.243 -5.1511 -4.31406 0
M  V30 3721 N 339.963 1.05934 -1.16686 0
M  V30 3722 C 340.873 2.17014 -0.891183 0
M  V30 3723 C 341.889 1.73453 0.137907 0
M  V30 3724 O 343.065 2.01361 -0.039592 0
M  V30 3725 C 340.13 3.44384 -0.400099 0
M  V30 3726 C 339.191 4.02433 -1.49486 0
M  V30 3727 C 338.424 5.23723 -1.02711 0
M  V30 3728 O 338.647 5.7027 0.121716 0
M  V30 3729 O 337.581 5.7382 -1.81699 0
M  V30 3730 H 341.407 2.43113 -1.82015 0
M  V30 3731 H 338.992 1.15541 -0.947132 0
M  V30 3732 H 340.874 4.21189 -0.133392 0
M  V30 3733 H 339.549 3.19802 0.500817 0
M  V30 3734 H 338.456 3.27102 -1.81535 0
M  V30 3735 H 339.789 4.31317 -2.37121 0
M  V30 3736 N 341.441 0.965919 1.2453 0
M  V30 3737 C 342.371 0.513476 2.27784 0
M  V30 3738 C 343.352 -0.445974 1.6415 0
M  V30 3739 O 344.537 -0.342485 1.91156 0
M  V30 3740 C 341.667 -0.198839 3.4673 0
M  V30 3741 C 340.621 0.676456 4.2262 0
M  V30 3742 C 339.947 -0.167248 5.34438 0
M  V30 3743 C 341.247 1.96017 4.84123 0
M  V30 3744 H 342.941 1.3765 2.65881 0
M  V30 3745 H 340.487 0.663321 1.27813 0
M  V30 3746 H 342.44 -0.526567 4.18097 0
M  V30 3747 H 341.164 -1.0962 3.07654 0
M  V30 3748 H 339.823 0.98743 3.53052 0
M  V30 3749 H 339.471 -1.0647 4.91603 0
M  V30 3750 H 339.171 0.415181 5.86131 0
M  V30 3751 H 340.695 -0.489688 6.08633 0
M  V30 3752 H 342.109 1.69814 5.47573 0
M  V30 3753 H 340.506 2.48918 5.4604 0
M  V30 3754 H 341.576 2.65622 4.05676 0
M  V30 3755 N 342.919 -1.39368 0.735821 0
M  V30 3756 C 344.168 -1.99733 0.281004 0
M  V30 3757 C 344.481 -1.59055 -1.13846 0
M  V30 3758 O 345.687 -2.12262 -1.69284 0
M  V30 3759 C 344.143 -3.57057 0.451462 0
M  V30 3760 C 343.751 -4.06697 1.87886 0
M  V30 3761 C 345.495 -4.2446 0.0584616 0
M  V30 3762 C 343.402 -5.56598 1.99883 0
M  V30 3763 H 342.332 -0.747163 0.101311 0
M  V30 3764 H 344.983 -1.59357 0.909819 0
M  V30 3765 H 343.365 -3.95234 -0.246263 0
M  V30 3766 H 344.539 -3.79853 2.60861 0
M  V30 3767 H 342.854 -3.5196 2.22515 0
M  V30 3768 H 345.451 -5.34549 0.127099 0
M  V30 3769 H 345.794 -4.04444 -0.986433 0
M  V30 3770 H 346.327 -3.9146 0.707374 0
M  V30 3771 H 343.066 -5.81494 3.02564 0
M  V30 3772 H 342.586 -5.85242 1.31346 0
M  V30 3773 H 344.265 -6.22022 1.78039 0
M  V30 3774 N 344.397 -0.483516 -1.5 0
M  V30 3775 C 345.347 0.32306 -2.257 0
M  V30 3776 C 346.331 0.950755 -1.29805 0
M  V30 3777 O 347.523 0.861247 -1.54634 0
M  V30 3778 C 344.652 1.39724 -3.13579 0
M  V30 3779 C 343.738 0.776663 -4.16928 0
M  V30 3780 N 344.129 -0.1104 -5.0568 0
M  V30 3781 C 342.427 1.03922 -4.33724 0
M  V30 3782 C 343.128 -0.46387 -5.79848 0
M  V30 3783 N 342.104 0.163987 -5.43353 0
M  V30 3784 H 345.906 -0.360086 -2.91686 0
M  V30 3785 H 343.42 -0.298456 -1.59634 0
M  V30 3786 H 345.417 1.98837 -3.66428 0
M  V30 3787 H 344.077 2.08225 -2.49143 0
M  V30 3788 H 345.088 -0.480069 -5.1567 0
M  V30 3789 H 341.765 1.71829 -3.80501 0
M  V30 3790 H 343.155 -1.18854 -6.61304 0
M  V30 3791 N 345.875 1.56104 -0.216619 0
M  V30 3792 C 347.121 1.98466 0.417033 0
M  V30 3793 C 347.454 1.10403 1.59765 0
M  V30 3794 O 346.729 0.160632 1.93836 0
M  V30 3795 C 347.012 3.49769 0.85637 0
M  V30 3796 C 346.865 4.48606 -0.327546 0
M  V30 3797 C 348.184 4.05339 1.7143 0
M  V30 3798 H 345.303 0.721551 0.150112 0
M  V30 3799 H 347.945 1.87423 -0.311864 0
M  V30 3800 H 346.095 3.5931 1.47745 0
M  V30 3801 H 347.767 4.5108 -0.965618 0
M  V30 3802 H 346.01 4.22682 -0.975805 0
M  V30 3803 H 346.681 5.51995 0.0227149 0
M  V30 3804 H 349.157 3.98712 1.19031 0
M  V30 3805 H 348.033 5.11533 1.99061 0
M  V30 3806 H 348.294 3.51918 2.67593 0
M  V30 3807 N 347.353 -0.0568162 1.57498 0
M  V30 3808 C 348.283 -1.06593 2.0775 0
M  V30 3809 C 349.264 -1.39448 0.974082 0
M  V30 3810 O 350.449 -1.48815 1.24771 0
M  V30 3811 C 347.579 -2.37509 2.5339 0
M  V30 3812 C 346.533 -2.1897 3.67745 0
M  V30 3813 C 345.859 -3.55402 3.99492 0
M  V30 3814 C 347.159 -1.59859 4.97235 0
M  V30 3815 H 348.853 -0.647706 2.9231 0
M  V30 3816 H 346.399 -0.310116 1.40621 0
M  V30 3817 H 348.352 -3.08409 2.87162 0
M  V30 3818 H 347.076 -2.8134 1.65878 0
M  V30 3819 H 345.735 -1.50508 3.3428 0
M  V30 3820 H 345.383 -3.9683 3.09088 0
M  V30 3821 H 345.083 -3.43831 4.76502 0
M  V30 3822 H 346.607 -4.27708 4.35773 0
M  V30 3823 H 348.021 -2.20642 5.29141 0
M  V30 3824 H 346.418 -1.58942 5.78669 0
M  V30 3825 H 347.488 -0.561506 4.81638 0
M  V30 3826 N 348.832 -1.54138 -0.328536 0
M  V30 3827 C 349.782 -1.79557 -1.4051 0
M  V30 3828 C 350.766 -0.651373 -1.47126 0
M  V30 3829 O 351.958 -0.911226 -1.51742 0
M  V30 3830 C 349.087 -2.02196 -2.77438 0
M  V30 3831 C 348.173 -3.22724 -2.75155 0
M  V30 3832 N 348.564 -4.43881 -2.42494 0
M  V30 3833 C 346.862 -3.24196 -3.06289 0
M  V30 3834 C 347.563 -5.25797 -2.48822 0
M  V30 3835 N 346.539 -4.62862 -2.8506 0
M  V30 3836 H 350.341 -2.70814 -1.1418 0
M  V30 3837 H 347.855 -1.53265 -0.536991 0
M  V30 3838 H 349.852 -2.18546 -3.55026 0
M  V30 3839 H 348.512 -1.12191 -3.04702 0
M  V30 3840 H 349.523 -4.70969 -2.15428 0
M  V30 3841 H 346.2 -2.44208 -3.38627 0
M  V30 3842 H 347.59 -6.32535 -2.26603 0
M  V30 3843 N 350.31 0.590341 -1.46126 0
M  V30 3844 C 351.558 1.34616 -1.50742 0
M  V30 3845 C 351.879 1.94363 -0.157486 0
M  V30 3846 O 351.149 1.78136 0.815136 0
M  V30 3847 H 349.729 0.499789 -0.555175 0
M  V30 3848 H 352.391 0.691953 -1.82203 0
M  V30 3849 H 351.487 2.15678 -2.25587 0
M  V30 3850 N 351.788 1.33704 0.83433 0
M  V30 3851 C 352.718 1.26967 1.95963 0
M  V30 3852 C 353.699 0.149337 1.69443 0
M  V30 3853 O 354.884 0.339852 1.91203 0
M  V30 3854 C 352.014 1.01275 3.32206 0
M  V30 3855 C 350.968 2.09652 3.73136 0
M  V30 3856 C 350.294 1.69166 5.07235 0
M  V30 3857 C 351.594 3.51372 3.86439 0
M  V30 3858 H 353.288 2.2112 2.01857 0
M  V30 3859 H 350.834 1.06447 0.969793 0
M  V30 3860 H 352.787 0.952106 4.10503 0
M  V30 3861 H 351.511 0.0356203 3.26581 0
M  V30 3862 H 350.17 2.14766 2.97104 0
M  V30 3863 H 349.818 0.701437 4.98085 0
M  V30 3864 H 349.518 2.41694 5.35591 0
M  V30 3865 H 351.042 1.64576 5.88003 0
M  V30 3866 H 352.456 3.48734 4.55036 0
M  V30 3867 H 350.853 4.22425 4.26236 0
M  V30 3868 H 351.923 3.89546 2.88759 0
M  V30 3869 N 353.266 -1.05314 1.17247 0
M  V30 3870 C 354.496 -1.81707 0.983166 0
M  V30 3871 C 354.904 -1.83222 -0.471822 0
M  V30 3872 O 354.247 -1.25721 -1.3394 0
M  V30 3873 C 354.309 -3.29134 1.44606 0
M  V30 3874 C 353.973 -3.51304 2.92292 0
M  V30 3875 C 354.97 -3.4353 3.90235 0
M  V30 3876 C 352.655 -3.78306 3.30439 0
M  V30 3877 C 354.649 -3.62442 5.24323 0
M  V30 3878 C 352.336 -3.96866 4.64694 0
M  V30 3879 C 353.334 -3.88933 5.61445 0
M  V30 3880 O 353.022 -4.06976 6.93272 0
M  V30 3881 H 352.754 -0.579476 0.348114 0
M  V30 3882 H 355.308 -1.33705 1.55924 0
M  V30 3883 H 353.538 -3.78046 0.813537 0
M  V30 3884 H 355.227 -3.87049 1.22262 0
M  V30 3885 H 355.993 -3.22648 3.62109 0
M  V30 3886 H 351.872 -3.83585 2.55702 0
M  V30 3887 H 355.416 -3.56165 5.99827 0
M  V30 3888 H 351.313 -4.1724 4.92525 0
M  V30 3889 H 352.081 -4.24209 6.99992 0
M  V30 3890 N 354.744 -0.972509 -1.24016 0
M  V30 3891 C 355.992 -0.635776 -1.91839 0
M  V30 3892 C 356.313 0.832312 -1.76345 0
M  V30 3893 O 355.583 1.5946 -1.13795 0
M  V30 3894 H 354.163 -0.232157 -0.710009 0
M  V30 3895 H 356.825 -1.23462 -1.50809 0
M  V30 3896 H 355.921 -0.880545 -2.99421 0
M  V30 3897 N 356.222 1.38976 -0.743202 0
M  V30 3898 C 357.471 1.99581 -0.291592 0
M  V30 3899 C 357.784 1.59656 1.13001 0
M  V30 3900 O 358.99 2.13157 1.68156 0
M  V30 3901 C 357.446 3.56813 -0.470391 0
M  V30 3902 C 357.054 4.05695 -1.90041 0
M  V30 3903 C 358.798 4.24423 -0.0809709 0
M  V30 3904 C 356.705 5.5553 -2.02832 0
M  V30 3905 H 355.635 0.746615 -0.105272 0
M  V30 3906 H 358.286 1.58872 -0.918258 0
M  V30 3907 H 356.668 3.95359 0.225299 0
M  V30 3908 H 357.842 3.78464 -2.62872 0
M  V30 3909 H 356.157 3.50775 -2.24379 0
M  V30 3910 H 358.754 5.34474 -0.155445 0
M  V30 3911 H 359.097 4.04962 0.96497 0
M  V30 3912 H 359.63 3.9108 -0.728124 0
M  V30 3913 H 356.369 5.79881 -3.05643 0
M  V30 3914 H 355.889 5.84537 -1.34448 0
M  V30 3915 H 357.568 6.21069 -1.81335 0
M  V30 3916 N 357.7 0.491464 1.49741 0
M  V30 3917 C 358.647 -0.292027 2.28945 0
M  V30 3918 C 359.617 -0.968973 1.34908 0
M  V30 3919 O 360.802 -0.97748 1.6386 0
M  V30 3920 C 357.942 -1.35617 3.17336 0
M  V30 3921 C 357.055 -0.691957 4.26422 0
M  V30 3922 C 356.19 -1.73572 5.02042 0
M  V30 3923 C 355.229 -1.05286 6.02977 0
M  V30 3924 N 354.366 -2.0404 6.71798 0
M  V30 3925 H 359.206 0.389654 2.95442 0
M  V30 3926 H 356.743 0.204003 1.45679 0
M  V30 3927 H 358.701 -1.98502 3.66951 0
M  V30 3928 H 357.331 -2.00674 2.52844 0
M  V30 3929 H 356.383 0.0499523 3.80367 0
M  V30 3930 H 357.695 -0.153946 4.98562 0
M  V30 3931 H 356.849 -2.43987 5.55478 0
M  V30 3932 H 355.588 -2.30757 4.29654 0
M  V30 3933 H 354.593 -0.334446 5.48782 0
M  V30 3934 H 355.818 -0.487636 6.77347 0
M  V30 3935 H 353.764 -2.60205 6.02187 0
M  V30 3936 H 353.681 -1.55279 7.39881 0
M  V30 3937 H 354.949 -2.73772 7.29842 0
M  V30 3938 N 359.178 -1.55987 0.224894 0
M  V30 3939 C 360.424 -1.98684 -0.406502 0
M  V30 3940 C 360.757 -1.11248 -1.59177 0
M  V30 3941 O 360.032 -0.170909 -1.93748 0
M  V30 3942 C 360.315 -3.50218 -0.837808 0
M  V30 3943 C 360.168 -4.48426 0.351332 0
M  V30 3944 C 361.487 -4.06243 -1.69278 0
M  V30 3945 H 358.606 -0.722337 -0.146283 0
M  V30 3946 H 361.248 -1.87255 0.321799 0
M  V30 3947 H 359.398 -3.60089 -1.45837 0
M  V30 3948 H 361.07 -4.50562 0.989526 0
M  V30 3949 H 359.313 -4.22159 0.998207 0
M  V30 3950 H 359.984 -5.52 0.00655905 0
M  V30 3951 H 362.46 -3.99337 -1.16914 0
M  V30 3952 H 361.336 -5.12581 -1.96346 0
M  V30 3953 H 361.597 -3.53332 -2.65723 0
M  V30 3954 N 360.656 0.0484629 -1.57525 0
M  V30 3955 C 361.933 0.777447 -1.79486 0
M  V30 3956 C 362.313 1.94597 -0.818251 0
M  V30 3957 O 361.661 2.28047 0.143767 0
M  V30 3958 C 361.871 1.22864 -3.26658 0
M  V30 3959 C 363.219 1.65251 -3.91123 0
M  V30 3960 O 364.243 1.32372 -3.3069 0
M  V30 3961 O 363.102 2.26207 -4.97486 0
M  V30 3962 H 360.196 0.374357 -0.737419 0
M  V30 3963 H 362.742 0.0267359 -1.69679 0
M  V30 3964 H 361.514 0.393589 -3.89316 0
M  V30 3965 H 361.137 2.03996 -3.41279 0
M  V30 3966 N 362.134 1.5431 0.320358 0
M  V30 3967 C 363.411 1.63322 1.07635 0
M  V30 3968 C 363.791 0.46912 2.05821 0
M  V30 3969 O 363.139 -0.536274 2.22118 0
M  V30 3970 C 363.349 3.00465 1.77544 0
M  V30 3971 C 364.697 3.56621 2.30449 0
M  V30 3972 O 365.721 3.02791 1.87606 0
M  V30 3973 O 364.58 4.5083 3.08892 0
M  V30 3974 H 361.674 0.661502 0.496331 0
M  V30 3975 H 364.22 1.66656 0.319992 0
M  V30 3976 H 362.992 3.76629 1.06143 0
M  V30 3977 H 362.615 3.00824 2.59982 0
M  V30 3978 N 363.613 -0.582584 1.46437 0
M  V30 3979 C 364.543 -1.70187 1.59871 0
M  V30 3980 C 365.524 -1.64066 0.449042 0
M  V30 3981 O 366.709 -1.82081 0.6753 0
M  V30 3982 C 363.839 -3.08827 1.58881 0
M  V30 3983 C 362.793 -3.29779 2.72819 0
M  V30 3984 C 362.119 -4.68947 2.5689 0
M  V30 3985 C 363.419 -3.17601 4.1464 0
M  V30 3986 H 365.113 -1.592 2.53566 0
M  V30 3987 H 362.659 -0.764472 1.22032 0
M  V30 3988 H 364.612 -3.86951 1.66873 0
M  V30 3989 H 363.336 -3.20713 0.617306 0
M  V30 3990 H 361.995 -2.54054 2.64296 0
M  V30 3991 H 361.643 -4.77599 1.57823 0
M  V30 3992 H 361.343 -4.83919 3.33312 0
M  V30 3993 H 362.867 -5.4924 2.66773 0
M  V30 3994 H 364.281 -3.8557 4.24274 0
M  V30 3995 H 362.678 -3.44094 4.9165 0
M  V30 3996 H 363.748 -2.14681 4.34788 0
M  V30 3997 N 365.091 -1.34144 -0.827227 0
M  V30 3998 C 366.502 -1.23557 -1.39966 0
M  V30 3999 C 366.853 0.140731 -1.95695 0
M  V30 4000 O 365.978 1.04087 -1.89723 0
M  V30 4001 C 366.573 -2.23708 -2.54441 0
M  V30 4002 C 365.132 -2.16924 -3.07605 0
M  V30 4003 C 364.279 -2.10549 -1.80456 0
M  V30 4004 H 367.23 -1.45573 -0.631991 0
M  V30 4005 H 367.251 -1.85157 -3.32411 0
M  V30 4006 H 366.763 -3.23866 -2.13851 0
M  V30 4007 H 364.864 -1.20107 -3.52711 0
M  V30 4008 H 364.977 -3.07988 -3.66988 0
M  V30 4009 H 363.341 -1.56203 -2.01178 0
M  V30 4010 H 364.124 -3.12535 -1.42046 0
M  V30 4011 N 366.569 1.04691 -1.17803 0
M  V30 4012 C 367.818 1.77176 -0.963931 0
M  V30 4013 C 368.131 1.88888 0.508015 0
M  V30 4014 O 369.337 2.58164 0.840465 0
M  V30 4015 C 367.793 3.18518 -1.67555 0
M  V30 4016 C 367.401 3.14919 -3.18637 0
M  V30 4017 C 369.145 3.95424 -1.54402 0
M  V30 4018 C 367.052 4.51081 -3.82466 0
M  V30 4019 H 365.982 0.664116 -0.357023 0
M  V30 4020 H 368.633 1.17303 -1.4111 0
M  V30 4021 H 367.015 3.78748 -1.15613 0
M  V30 4022 H 368.189 2.64178 -3.77554 0
M  V30 4023 H 366.504 2.51512 -3.31859 0
M  V30 4024 H 369.101 4.96106 -1.99456 0
M  V30 4025 H 369.444 4.13343 -0.495329 0
M  V30 4026 H 369.977 3.41754 -2.0359 0
M  V30 4027 H 366.716 4.38368 -4.87354 0
M  V30 4028 H 366.236 5.01951 -3.28337 0
M  V30 4029 H 367.915 5.2001 -3.84965 0
M  V30 4030 N 368.047 0.979072 1.23499 0
M  V30 4031 C 369.293 0.648178 1.92163 0
M  V30 4032 C 369.626 -0.816049 1.76222 0
M  V30 4033 O 368.901 -1.58849 1.12237 0
M  V30 4034 C 369.184 1.03773 3.44824 0
M  V30 4035 C 369.037 2.55948 3.69879 0
M  V30 4036 C 370.356 0.580653 4.36253 0
M  V30 4037 H 367.475 0.236952 0.69787 0
M  V30 4038 H 370.117 1.22012 1.45647 0
M  V30 4039 H 368.267 0.551058 3.84572 0
M  V30 4040 H 369.939 3.12179 3.3962 0
M  V30 4041 H 368.182 2.98641 3.14636 0
M  V30 4042 H 368.853 2.78255 4.76737 0
M  V30 4043 H 371.329 0.998465 4.03943 0
M  V30 4044 H 370.205 0.881663 5.41773 0
M  V30 4045 H 370.466 -0.519052 4.39042 0
M  V30 4046 N 369.525 -1.3858 0.750561 0
M  V30 4047 C 370.936 -1.82927 0.373438 0
M  V30 4048 C 371.287 -1.62634 -1.09748 0
M  V30 4049 O 370.412 -1.12588 -1.84805 0
M  V30 4050 C 371.007 -3.32088 0.671029 0
M  V30 4051 C 369.566 -3.74795 0.34722 0
M  V30 4052 C 368.713 -2.61391 0.92575 0
M  V30 4053 H 371.664 -1.27351 0.946958 0
M  V30 4054 H 371.685 -3.80465 -0.0518269 0
M  V30 4055 H 371.197 -3.46826 1.74164 0
M  V30 4056 H 369.298 -3.65638 -0.716933 0
M  V30 4057 H 369.411 -4.71667 0.840656 0
M  V30 4058 H 367.775 -2.52265 0.351327 0
M  V30 4059 H 368.558 -2.78929 2.00133 0
M  V30 4060 N 371.003 -0.499398 -1.49478 0
M  V30 4061 C 371.951 0.293604 -2.3074 0
M  V30 4062 C 372.945 0.96427 -1.39277 0
M  V30 4063 O 374.151 0.892141 -1.56336 0
M  V30 4064 H 370.526 0.113541 -0.743379 0
M  V30 4065 H 372.497 -0.411772 -2.95545 0
M  V30 4066 C 371.246 1.3462 -3.20582 0
M  V30 4067 H 370.569 0.83954 -3.90886 0
M  V30 4068 H 372.009 1.87308 -3.80384 0
M  V30 4069 C 370.468 2.36351 -2.40083 0
M  V30 4070 O 370.998 3.422 -2.10385 0
M  V30 4071 N 369.204 2.0878 -2.02137 0
M  V30 4072 H 368.751 1.22723 -2.26488 0
M  V30 4073 H 368.709 2.77075 -1.48583 0
M  V30 4074 N 372.481 1.55866 -0.233164 0
M  V30 4075 C 373.391 2.24431 0.683217 0
M  V30 4076 C 374.407 1.2558 1.2044 0
M  V30 4077 O 375.583 1.58422 1.24356 0
M  V30 4078 C 372.648 2.91979 1.86947 0
M  V30 4079 C 371.709 4.06204 1.38912 0
M  V30 4080 C 370.942 4.70522 2.51883 0
M  V30 4081 O 371.165 4.33865 3.70293 0
M  V30 4082 O 370.099 5.59296 2.22423 0
M  V30 4083 H 373.925 3.03426 0.129059 0
M  V30 4084 H 371.51 1.494 -0.0022283 0
M  V30 4085 H 373.392 3.34573 2.56201 0
M  V30 4086 H 372.067 2.15935 2.41151 0
M  V30 4087 H 370.974 3.68155 0.664259 0
M  V30 4088 H 372.307 4.84025 0.893328 0
M  V30 4089 N 373.959 -0.0401083 1.57549 0
M  V30 4090 C 374.906 -1.04413 2.05831 0
M  V30 4091 C 375.876 -1.36585 0.945184 0
M  V30 4092 O 377.061 -1.47112 1.21502 0
M  V30 4093 C 374.201 -2.34336 2.53339 0
M  V30 4094 C 373.314 -2.08419 3.78398 0
M  V30 4095 C 372.449 -3.32133 4.14561 0
M  V30 4096 C 371.488 -3.01721 5.3257 0
M  V30 4097 N 370.625 -4.17855 5.64218 0
M  V30 4098 H 375.465 -0.625442 2.91363 0
M  V30 4099 H 373.002 -0.297218 1.44066 0
M  V30 4100 H 374.96 -3.10234 2.78946 0
M  V30 4101 H 373.59 -2.73948 1.7074 0
M  V30 4102 H 372.642 -1.23069 3.59942 0
M  V30 4103 H 373.954 -1.81978 4.64419 0
M  V30 4104 H 373.108 -4.16406 4.41238 0
M  V30 4105 H 371.847 -3.61678 3.2717 0
M  V30 4106 H 370.852 -2.15849 5.05657 0
M  V30 4107 H 372.077 -2.73466 6.21605 0
M  V30 4108 H 370.023 -4.47372 4.79786 0
M  V30 4109 H 369.94 -3.94798 6.44725 0
M  V30 4110 H 371.208 -5.03033 5.95465 0
M  V30 4111 N 375.437 -1.54477 -0.31217 0
M  V30 4112 C 376.384 -1.84655 -1.38461 0
M  V30 4113 C 377.354 -0.694536 -1.50882 0
M  V30 4114 O 378.539 -0.942081 -1.6592 0
M  V30 4115 C 375.679 -2.0896 -2.74645 0
M  V30 4116 C 374.792 -3.36618 -2.70763 0
M  V30 4117 C 373.927 -3.50824 -3.98868 0
M  V30 4118 C 372.966 -4.72315 -3.89339 0
M  V30 4119 N 372.103 -4.83387 -5.09197 0
M  V30 4120 H 376.943 -2.76142 -1.12026 0
M  V30 4121 H 374.48 -1.36748 -0.542065 0
M  V30 4122 H 376.438 -2.21045 -3.53829 0
M  V30 4123 H 375.068 -1.20752 -2.99364 0
M  V30 4124 H 374.12 -3.33211 -1.83506 0
M  V30 4125 H 375.432 -4.25917 -2.59608 0
M  V30 4126 H 374.586 -3.62513 -4.86486 0
M  V30 4127 H 373.325 -2.59638 -4.12843 0
M  V30 4128 H 372.33 -4.6067 -3.00105 0
M  V30 4129 H 373.555 -5.64897 -3.76919 0
M  V30 4130 H 371.501 -3.9512 -5.23657 0
M  V30 4131 H 371.418 -5.66669 -5.00422 0
M  V30 4132 H 372.686 -4.9942 -5.98498 0
M  V30 4133 N 376.915 0.57481 -1.46744 0
M  V30 4134 C 378.162 1.33272 -1.52462 0
M  V30 4135 C 378.49 1.93669 -0.179572 0
M  V30 4136 O 377.745 1.7743 0.825664 0
M  V30 4137 C 378.044 2.476 -2.57738 0
M  V30 4138 C 377.71 2.05146 -4.01529 0
M  V30 4139 C 376.372 1.93284 -4.40676 0
M  V30 4140 C 378.724 1.72506 -4.91824 0
M  V30 4141 C 376.052 1.47049 -5.67973 0
M  V30 4142 C 378.404 1.27748 -6.19567 0
M  V30 4143 C 377.068 1.14468 -6.57612 0
M  V30 4144 H 376.338 0.487678 -0.557899 0
M  V30 4145 H 378.985 0.646456 -1.80259 0
M  V30 4146 H 377.29 3.21708 -2.23632 0
M  V30 4147 H 378.987 3.05807 -2.5939 0
M  V30 4148 H 375.577 2.15316 -3.7059 0
M  V30 4149 H 379.761 1.80552 -4.62293 0
M  V30 4150 H 375.017 1.35417 -5.96215 0
M  V30 4151 H 379.191 1.01547 -6.88957 0
M  V30 4152 H 376.818 0.78419 -7.56145 0
M  V30 4153 N 378.394 1.34581 0.820102 0
M  V30 4154 C 379.641 1.27096 1.57648 0
M  V30 4155 C 379.969 -0.158317 1.93855 0
M  V30 4156 O 379.224 -1.12028 1.60463 0
M  V30 4157 C 379.523 2.10997 2.8847 0
M  V30 4158 C 379.189 3.59966 2.71543 0
M  V30 4159 C 377.851 4.00575 2.66634 0
M  V30 4160 C 380.203 4.54548 2.55021 0
M  V30 4161 C 377.531 5.33953 2.43128 0
M  V30 4162 C 379.883 5.88109 2.33047 0
M  V30 4163 C 378.547 6.27878 2.26552 0
M  V30 4164 H 377.817 0.465078 0.576874 0
M  V30 4165 H 380.464 1.6635 0.948671 0
M  V30 4166 H 378.769 1.6458 3.55557 0
M  V30 4167 H 380.466 2.0255 3.46084 0
M  V30 4168 H 377.056 3.27733 2.76205 0
M  V30 4169 H 381.24 4.24069 2.57835 0
M  V30 4170 H 376.496 5.63781 2.3656 0
M  V30 4171 H 380.67 6.60985 2.19251 0
M  V30 4172 H 378.297 7.31162 2.081 0
M  V30 4173 N 379.872 -1.04064 1.18357 0
M  V30 4174 C 380.805 -2.11618 0.854 0
M  V30 4175 C 381.783 -1.61555 -0.184043 0
M  V30 4176 O 382.967 -1.88395 -0.0630048 0
M  V30 4177 C 380.094 -3.37574 0.27597 0
M  V30 4178 C 379.14 -4.06485 1.2912 0
M  V30 4179 S 379.973 -4.53543 2.84709 0
M  V30 4180 C 381.129 -5.82732 2.28417 0
M  V30 4181 H 381.362 -2.39247 1.76488 0
M  V30 4182 H 378.895 -1.16832 1.00944 0
M  V30 4183 H 380.853 -4.10468 -0.051026 0
M  V30 4184 H 379.514 -3.0806 -0.613028 0
M  V30 4185 H 378.707 -4.97024 0.835633 0
M  V30 4186 H 378.309 -3.39708 1.56443 0
M  V30 4187 H 380.601 -6.56677 1.66677 0
M  V30 4188 H 381.544 -6.33052 3.17256 0
M  V30 4189 H 381.952 -5.37838 1.71436 0
M  V30 4190 N 381.35 -0.985608 -1.22978 0
M  V30 4191 C 382.282 -0.488154 -2.23941 0
M  V30 4192 C 383.295 0.41282 -1.57479 0
M  V30 4193 O 384.484 0.216121 -1.77187 0
M  V30 4194 C 381.584 0.312611 -3.37455 0
M  V30 4195 C 380.757 -0.582741 -4.33501 0
M  V30 4196 C 379.816 0.165064 -5.25941 0
M  V30 4197 O 378.842 -0.447077 -5.67442 0
M  V30 4198 N 380.044 1.44953 -5.62111 0
M  V30 4199 H 382.809 -1.3563 -2.67254 0
M  V30 4200 H 380.37 -0.859477 -1.37203 0
M  V30 4201 H 382.362 0.821357 -3.96277 0
M  V30 4202 H 380.932 1.0818 -2.93285 0
M  V30 4203 H 380.152 -1.27225 -3.73105 0
M  V30 4204 H 381.44 -1.19275 -4.94622 0
M  V30 4205 H 380.838 1.9683 -5.30353 0
M  V30 4206 H 379.395 1.90361 -6.23383 0
M  V30 4207 N 382.828 1.3818 -0.7579 0
M  V30 4208 C 384.053 2.04827 -0.325679 0
M  V30 4209 C 384.478 1.56788 1.03919 0
M  V30 4210 O 383.836 0.721811 1.66312 0
M  V30 4211 C 383.884 3.58774 -0.362447 0
M  V30 4212 O 382.988 4.07372 0.642033 0
M  V30 4213 H 382.329 0.64833 -0.143402 0
M  V30 4214 H 384.859 1.7677 -1.03023 0
M  V30 4215 H 384.869 4.07434 -0.214844 0
M  V30 4216 H 383.544 3.93096 -1.35824 0
M  V30 4217 H 382.121 3.70068 0.458688 0
M  V30 4218 N 384.306 0.507319 1.49211 0
M  V30 4219 C 385.534 -0.0315749 2.06876 0
M  V30 4220 C 385.949 -1.30241 1.36685 0
M  V30 4221 O 385.306 -1.76937 0.447152 0
M  V30 4222 C 385.357 -0.282627 3.60393 0
M  V30 4223 O 385.078 0.937835 4.27944 0
M  V30 4224 C 386.579 -0.864453 4.3479 0
M  V30 4225 H 383.799 0.0233048 0.670595 0
M  V30 4226 H 386.343 0.706484 1.91909 0
M  V30 4227 H 384.498 -0.97068 3.75042 0
M  V30 4228 H 384.912 0.704567 5.19746 0
M  V30 4229 H 386.386 -0.989664 5.43056 0
M  V30 4230 H 386.863 -1.86382 3.97692 0
M  V30 4231 H 387.469 -0.213672 4.24763 0
M  V30 4232 N 385.784 -1.5574 0.241426 0
M  V30 4233 C 387.061 -1.90704 -0.434881 0
M  V30 4234 C 387.441 -1.16145 -1.76277 0
M  V30 4235 O 386.789 -0.277152 -2.26813 0
M  V30 4236 C 386.999 -3.43657 -0.608343 0
M  V30 4237 C 388.347 -4.14806 -0.906725 0
M  V30 4238 O 389.371 -3.49366 -0.694408 0
M  V30 4239 O 388.23 -5.30548 -1.31075 0
M  V30 4240 H 385.324 -0.793592 -0.23268 0
M  V30 4241 H 387.87 -1.67288 0.285086 0
M  V30 4242 H 386.642 -3.89927 0.327505 0
M  V30 4243 H 386.265 -3.72918 -1.37906 0
M  V30 4244 N 387.262 0.0317525 -1.57568 0
M  V30 4245 C 388.225 1.01783 -2.0536 0
M  V30 4246 C 389.225 1.29203 -0.957253 0
M  V30 4247 O 390.415 1.24251 -1.22095 0
M  V30 4248 C 387.547 2.35137 -2.46827 0
M  V30 4249 H 388.74 0.605062 -2.93733 0
M  V30 4250 H 386.293 0.278514 -1.53799 0
M  V30 4251 H 387.028 2.81168 -1.61602 0
M  V30 4252 H 386.813 2.16566 -3.26866 0
M  V30 4253 H 388.303 3.05938 -2.84239 0
M  V30 4254 N 388.74 1.54641 0.303973 0
M  V30 4255 C 389.989 1.7299 1.03717 0
M  V30 4256 C 390.302 0.521168 1.88529 0
M  V30 4257 O 391.508 0.586408 2.65092 0
M  V30 4258 C 389.964 3.06051 1.89369 0
M  V30 4259 C 389.572 4.34393 1.09574 0
M  V30 4260 C 391.316 3.3376 2.62306 0
M  V30 4261 C 389.223 5.58506 1.94486 0
M  V30 4262 H 388.153 0.64473 0.390947 0
M  V30 4263 H 390.804 1.81124 0.294328 0
M  V30 4264 H 389.186 2.91874 2.67629 0
M  V30 4265 H 390.36 4.59396 0.359485 0
M  V30 4266 H 388.675 4.13597 0.482324 0
M  V30 4267 H 391.272 4.23687 3.26181 0
M  V30 4268 H 391.615 2.52503 3.3098 0
M  V30 4269 H 392.148 3.48894 1.91097 0
M  V30 4270 H 388.887 6.42422 1.30287 0
M  V30 4271 H 388.407 5.37694 2.65792 0
M  V30 4272 H 390.086 5.95651 2.52605 0
M  V30 4273 N 390.218 -0.567019 1.47046 0
M  V30 4274 C 391.15 -1.68985 1.54844 0
M  V30 4275 C 392.163 -1.56869 0.435431 0
M  V30 4276 O 393.352 -1.64006 0.70457 0
M  V30 4277 C 390.452 -3.07373 1.42742 0
M  V30 4278 C 389.625 -3.45339 2.6844 0
M  V30 4279 C 388.684 -4.62849 2.50314 0
M  V30 4280 O 387.71 -4.67922 3.24095 0
M  V30 4281 N 388.912 -5.58726 1.57499 0
M  V30 4282 H 391.677 -1.62745 2.51663 0
M  V30 4283 H 389.238 -0.753411 1.43302 0
M  V30 4284 H 391.23 -3.83803 1.28365 0
M  V30 4285 H 389.8 -3.07893 0.540445 0
M  V30 4286 H 389.02 -2.58455 2.97648 0
M  V30 4287 H 390.308 -3.67476 3.51907 0
M  V30 4288 H 389.706 -5.57376 0.966876 0
M  V30 4289 H 388.263 -6.34523 1.49078 0
M  V30 4290 N 391.696 -1.35014 -0.812953 0
M  V30 4291 C 392.659 -1.27292 -1.90602 0
M  V30 4292 C 393.659 -0.185817 -1.59723 0
M  V30 4293 O 394.849 -0.439102 -1.68575 0
M  V30 4294 C 391.981 -0.967676 -3.26877 0
M  V30 4295 H 393.174 -2.24479 -1.9887 0
M  V30 4296 H 390.727 -1.19446 -1.00808 0
M  V30 4297 H 391.462 0.0005954 -3.243 0
M  V30 4298 H 391.247 -1.75412 -3.50675 0
M  V30 4299 H 392.737 -0.939085 -4.06904 0
M  V30 4300 N 393.175 1.03435 -1.18907 0
M  V30 4301 C 394.085 2.15075 -0.937015 0
M  V30 4302 C 395.101 1.73706 0.101085 0
M  V30 4303 O 396.277 2.01232 -0.0822948 0
M  V30 4304 C 393.342 3.43458 -0.473057 0
M  V30 4305 C 392.403 3.99172 -1.57989 0
M  V30 4306 C 391.636 5.21427 -1.13797 0
M  V30 4307 O 391.859 5.704 0.000725941 0
M  V30 4308 O 390.793 5.69837 -1.9383 0
M  V30 4309 H 394.619 2.39198 -1.87131 0
M  V30 4310 H 392.204 1.13506 -0.971427 0
M  V30 4311 H 394.086 4.20811 -0.222702 0
M  V30 4312 H 392.761 3.20793 0.432869 0
M  V30 4313 H 391.668 3.23178 -1.88433 0
M  V30 4314 H 393.001 4.2619 -2.46217 0
M  V30 4315 N 394.653 0.992116 1.22453 0
M  V30 4316 C 395.563 0.55065 2.28046 0
M  V30 4317 C 396.579 -0.400189 1.69335 0
M  V30 4318 O 397.755 -0.267215 1.99619 0
M  V30 4319 C 394.82 -0.128496 3.46462 0
M  V30 4320 C 393.881 0.865208 4.20491 0
M  V30 4321 C 393.114 0.218377 5.33253 0
M  V30 4322 O 393.337 -0.987894 5.6178 0
M  V30 4323 O 392.271 0.922845 5.94783 0
M  V30 4324 H 396.097 1.4291 2.67975 0
M  V30 4325 H 393.682 0.760326 1.28606 0
M  V30 4326 H 395.564 -0.508947 4.18315 0
M  V30 4327 H 394.239 -0.981526 3.0846 0
M  V30 4328 H 393.146 1.29658 3.50913 0
M  V30 4329 H 394.479 1.68741 4.62371 0
M  V30 4330 N 396.131 -1.37776 0.765217 0
M  V30 4331 C 397.061 -2.32945 0.160953 0
M  V30 4332 C 398.042 -1.55454 -0.690516 0
M  V30 4333 O 399.227 -1.83721 -0.629318 0
M  V30 4334 C 396.357 -3.39669 -0.724031 0
M  V30 4335 C 395.311 -4.27992 0.0256173 0
M  V30 4336 C 394.637 -5.25673 -0.978383 0
M  V30 4337 C 395.937 -5.08309 1.20082 0
M  V30 4338 H 397.631 -2.83728 0.955969 0
M  V30 4339 H 395.177 -1.36416 0.461149 0
M  V30 4340 H 397.13 -4.05219 -1.15652 0
M  V30 4341 H 395.854 -2.87396 -1.5515 0
M  V30 4342 H 394.513 -3.63964 0.438812 0
M  V30 4343 H 394.161 -4.69682 -1.80022 0
M  V30 4344 H 393.861 -5.85625 -0.481378 0
M  V30 4345 H 395.385 -5.94098 -1.40995 0
M  V30 4346 H 396.799 -5.67034 0.845307 0
M  V30 4347 H 395.196 -5.77554 1.62947 0
M  V30 4348 H 396.266 -4.41365 2.00811 0
M  V30 4349 N 397.609 -0.515225 -1.4894 0
M  V30 4350 C 398.839 0.0205735 -2.0659 0
M  V30 4351 C 399.247 1.30064 -1.37405 0
M  V30 4352 O 398.59 1.78087 -0.450632 0
M  V30 4353 C 398.652 0.330124 -3.57981 0
M  V30 4354 C 398.316 -0.854295 -4.48944 0
M  V30 4355 C 399.313 -1.7487 -4.89609 0
M  V30 4356 C 396.998 -1.05712 -4.9105 0
M  V30 4357 C 398.992 -2.82996 -5.71132 0
M  V30 4358 C 396.679 -2.14154 -5.72347 0
M  V30 4359 C 397.677 -3.0263 -6.12294 0
M  V30 4360 O 397.365 -4.09198 -6.91962 0
M  V30 4361 H 397.097 -0.0236833 -0.675585 0
M  V30 4362 H 399.651 -0.715956 -1.92518 0
M  V30 4363 H 397.881 1.12044 -3.70112 0
M  V30 4364 H 399.57 0.806233 -3.97812 0
M  V30 4365 H 400.336 -1.60388 -4.57712 0
M  V30 4366 H 396.215 -0.377788 -4.59449 0
M  V30 4367 H 399.759 -3.52083 -6.02232 0
M  V30 4368 H 395.656 -2.28626 -6.03656 0
M  V30 4369 H 396.424 -4.06726 -7.10293 0
M  V30 4370 N 399.087 1.5561 -0.249682 0
M  V30 4371 C 400.315 2.03411 0.378352 0
M  V30 4372 C 400.73 1.12886 1.51335 0
M  V30 4373 O 400.087 0.143833 1.81932 0
M  V30 4374 C 400.138 3.50537 0.88351 0
M  V30 4375 O 399.859 4.37614 -0.20626 0
M  V30 4376 C 401.36 4.14113 1.58195 0
M  V30 4377 H 398.58 0.664994 0.08958 0
M  V30 4378 H 401.124 2.01044 -0.374357 0
M  V30 4379 H 399.279 3.5343 1.58639 0
M  V30 4380 H 399.693 5.24199 0.177782 0
M  V30 4381 H 401.167 5.18741 1.8871 0
M  V30 4382 H 401.644 3.60767 2.50487 0
M  V30 4383 H 402.25 4.15151 0.923573 0
M  V30 4384 N 400.565 -0.0233959 1.57583 0
M  V30 4385 C 401.812 -0.713063 1.8953 0
M  V30 4386 C 402.14 -1.75056 0.847673 0
M  V30 4387 O 401.395 -1.95119 -0.150636 0
M  V30 4388 C 401.694 -1.41428 3.28227 0
M  V30 4389 C 401.36 -0.512222 4.47981 0
M  V30 4390 C 400.022 -0.263785 4.80476 0
M  V30 4391 C 402.374 0.110248 5.21083 0
M  V30 4392 C 399.702 0.615804 5.83459 0
M  V30 4393 C 402.054 0.977573 6.25001 0
M  V30 4394 C 400.718 1.23542 6.55968 0
M  V30 4395 H 399.988 -0.260928 0.69354 0
M  V30 4396 H 402.635 0.0271047 1.91481 0
M  V30 4397 H 400.94 -2.22791 3.22291 0
M  V30 4398 H 402.637 -1.95355 3.50196 0
M  V30 4399 H 399.227 -0.716013 4.22577 0
M  V30 4400 H 403.411 -0.0687137 4.96252 0
M  V30 4401 H 398.667 0.82382 6.05824 0
M  V30 4402 H 402.841 1.46638 6.80786 0
M  V30 4403 H 400.468 1.91871 7.35588 0
M  V30 4404 N 402.043 -1.548 -0.295768 0
M  V30 4405 C 403.291 -1.73985 -1.02828 0
M  V30 4406 C 403.612 -0.531406 -1.87619 0
M  V30 4407 O 402.882 0.454221 -1.90561 0
M  V30 4408 H 401.462 -0.641556 -0.382642 0
M  V30 4409 H 404.124 -1.92163 -0.325489 0
M  V30 4410 H 403.22 -2.63129 -1.67838 0
M  V30 4411 N 403.521 0.559213 -1.47345 0
M  V30 4412 C 404.769 1.31388 -1.53563 0
M  V30 4413 C 405.09 1.93985 -0.198678 0
M  V30 4414 O 404.36 1.79825 0.777167 0
M  V30 4415 H 402.94 0.487901 -0.565652 0
M  V30 4416 H 405.602 0.65315 -1.8363 0
M  V30 4417 H 404.698 2.10844 -2.30111 0
M  V30 4418 N 404.999 1.35443 0.805782 0
M  V30 4419 C 405.931 1.24285 1.92577 0
M  V30 4420 C 406.944 0.165962 1.61952 0
M  V30 4421 O 408.133 0.419303 1.73505 0
M  V30 4422 C 405.233 0.891272 3.2697 0
M  V30 4423 C 404.406 2.06669 3.85495 0
M  V30 4424 C 403.465 1.69077 4.98297 0
M  V30 4425 O 402.491 2.4096 5.15681 0
M  V30 4426 N 403.693 0.614869 5.77234 0
M  V30 4427 H 406.458 2.20777 2.02676 0
M  V30 4428 H 404.019 1.28623 0.983243 0
M  V30 4429 H 406.011 0.621256 3.99903 0
M  V30 4430 H 404.581 0.016004 3.12596 0
M  V30 4431 H 403.801 2.50046 3.04747 0
M  V30 4432 H 405.089 2.85237 4.21328 0
M  V30 4433 H 404.487 0.017648 5.65697 0
M  V30 4434 H 403.044 0.404636 6.50543 0
M  V30 4435 N 406.477 -1.02803 1.19454 0
M  V30 4436 C 407.754 -1.73299 0.907013 0
M  V30 4437 C 408.134 -2.02772 -0.587086 0
M  V30 4438 O 407.482 -1.68304 -1.54551 0
M  V30 4439 C 407.692 -3.00912 1.76785 0
M  V30 4440 C 409.04 -3.74403 2.00268 0
M  V30 4441 O 410.064 -3.10841 1.73943 0
M  V30 4442 O 408.923 -4.88675 2.4466 0
M  V30 4443 H 406.017 -0.754727 0.338106 0
M  V30 4444 H 408.563 -1.08754 1.30271 0
M  V30 4445 H 407.335 -2.75366 2.7801 0
M  V30 4446 H 406.958 -3.73197 1.37149 0
M  V30 4447 N 407.956 -0.998596 -1.21925 0
M  V30 4448 C 409.367 -0.711939 -1.72593 0
M  V30 4449 C 409.718 0.770842 -1.80423 0
M  V30 4450 O 408.843 1.60237 -1.4544 0
M  V30 4451 C 409.438 -1.28567 -3.13458 0
M  V30 4452 C 407.997 -1.04828 -3.61508 0
M  V30 4453 C 407.144 -1.4024 -2.39224 0
M  V30 4454 H 410.095 -1.17027 -1.07193 0
M  V30 4455 H 410.116 -0.667098 -3.74607 0
M  V30 4456 H 409.628 -2.36486 -3.07727 0
M  V30 4457 H 407.729 0.0140383 -3.72597 0
M  V30 4458 H 407.842 -1.71566 -4.47328 0
M  V30 4459 H 406.206 -0.821077 -2.41103 0
M  V30 4460 H 406.989 -2.49176 -2.36149 0
M  V30 4461 N 409.434 1.37368 -0.772513 0
M  V30 4462 C 410.659 2.0447 -0.347386 0
M  V30 4463 C 411.084 1.57882 1.0225 0
M  V30 4464 O 410.442 0.73941 1.65537 0
M  V30 4465 C 410.49 3.58369 -0.400479 0
M  V30 4466 O 409.594 4.0803 0.598789 0
M  V30 4467 H 408.935 0.646773 -0.15027 0
M  V30 4468 H 411.465 1.75667 -1.04892 0
M  V30 4469 H 411.475 4.07183 -0.258045 0
M  V30 4470 H 410.15 3.91633 -1.39986 0
M  V30 4471 H 408.727 3.70534 0.419411 0
M  V30 4472 N 410.912 0.523116 1.48665 0
M  V30 4473 C 412.161 -0.01544 2.01694 0
M  V30 4474 C 412.474 -1.35975 1.40606 0
M  V30 4475 O 413.68 -1.98627 1.85093 0
M  V30 4476 C 412.136 -0.0779303 3.59816 0
M  V30 4477 C 411.744 1.26107 4.29885 0
M  V30 4478 C 413.488 -0.565678 4.20714 0
M  V30 4479 C 411.395 1.15954 5.79921 0
M  V30 4480 H 410.325 -0.00954163 0.75394 0
M  V30 4481 H 412.976 0.665865 1.70993 0
M  V30 4482 H 411.358 -0.824165 3.87329 0
M  V30 4483 H 412.532 2.02233 4.14051 0
M  V30 4484 H 410.847 1.68401 3.80828 0
M  V30 4485 H 413.444 -0.6595 5.30617 0
M  V30 4486 H 413.787 -1.56984 3.85567 0
M  V30 4487 H 414.32 0.12467 3.97605 0
M  V30 4488 H 411.059 2.13864 6.19631 0
M  V30 4489 H 410.579 0.439529 5.98187 0
M  V30 4490 H 412.258 0.847361 6.41427 0
M  V30 4491 N 412.39 -1.55475 0.257931 0
M  V30 4492 C 413.639 -1.98383 -0.364275 0
M  V30 4493 C 413.952 -1.14952 -1.58258 0
M  V30 4494 O 415.158 -1.47924 -2.27664 0
M  V30 4495 C 413.614 -3.53037 -0.699479 0
M  V30 4496 C 413.222 -4.45223 0.498046 0
M  V30 4497 C 414.966 -4.04575 -1.28526 0
M  V30 4498 C 412.873 -5.91238 0.138383 0
M  V30 4499 H 411.803 -0.740911 -0.13988 0
M  V30 4500 H 414.454 -1.79936 0.359883 0
M  V30 4501 H 412.836 -3.6722 -1.48207 0
M  V30 4502 H 414.01 -4.42803 1.27522 0
M  V30 4503 H 412.325 -4.04226 0.999503 0
M  V30 4504 H 414.922 -5.11196 -1.56788 0
M  V30 4505 H 415.265 -3.5258 -2.21344 0
M  V30 4506 H 415.798 -3.93762 -0.565337 0
M  V30 4507 H 412.537 -6.47294 1.03398 0
M  V30 4508 H 412.057 -5.96768 -0.602374 0
M  V30 4509 H 413.736 -6.46413 -0.27553 0
M  V30 4510 N 413.868 0.0150385 -1.57593 0
M  V30 4511 C 415.096 0.714395 -1.94175 0
M  V30 4512 C 415.511 1.68135 -0.858841 0
M  V30 4513 O 414.868 1.81766 0.163567 0
M  V30 4514 C 414.919 1.45933 -3.30735 0
M  V30 4515 O 414.64 0.531167 -4.34868 0
M  V30 4516 C 416.141 2.25456 -3.81686 0
M  V30 4517 H 413.361 0.199923 -0.640525 0
M  V30 4518 H 415.905 -0.0316096 -2.04476 0
M  V30 4519 H 414.06 2.15709 -3.21789 0
M  V30 4520 H 414.474 1.05509 -5.13778 0
M  V30 4521 H 415.948 2.731 -4.79709 0
M  V30 4522 H 416.425 3.07485 -3.13607 0
M  V30 4523 H 417.031 1.60727 -3.9376 0
M  V30 4524 N 415.346 1.54954 0.287554 0
M  V30 4525 C 416.757 1.65732 0.859634 0
M  V30 4526 C 417.108 0.574767 1.87592 0
M  V30 4527 O 416.233 -0.286299 2.14498 0
M  V30 4528 C 416.828 3.00438 1.56597 0
M  V30 4529 C 415.387 3.13292 2.08627 0
M  V30 4530 C 414.534 2.61473 0.923416 0
M  V30 4531 H 417.485 1.5857 0.0642338 0
M  V30 4532 H 417.506 2.92613 2.43224 0
M  V30 4533 H 417.018 3.79207 0.826053 0
M  V30 4534 H 415.119 2.39268 2.85625 0
M  V30 4535 H 415.232 4.19647 2.31157 0
M  V30 4536 H 413.596 2.18264 1.31275 0
M  V30 4537 H 414.379 3.42733 0.197241 0
M  V30 4538 N 416.824 -0.551391 1.4764 0
M  V30 4539 C 418.049 -1.33837 1.58437 0
M  V30 4540 C 418.474 -1.866 0.237063 0
M  V30 4541 O 417.832 -1.6328 -0.787994 0
M  V30 4542 C 417.88 -2.48014 2.61766 0
M  V30 4543 O 416.984 -3.50419 2.1744 0
M  V30 4544 H 416.325 -0.397299 0.532024 0
M  V30 4545 H 418.855 -0.665759 1.93465 0
M  V30 4546 H 418.865 -2.94503 2.82369 0
M  V30 4547 H 417.54 -2.08969 3.5959 0
M  V30 4548 H 416.117 -3.10196 2.06961 0
M  V30 4549 N 418.302 -1.35869 -0.798587 0
M  V30 4550 C 419.53 -1.32722 -1.58722 0
M  V30 4551 C 419.945 0.0935631 -1.88568 0
M  V30 4552 O 419.302 1.04784 -1.49421 0
M  V30 4553 C 419.353 -2.13974 -2.91371 0
M  V30 4554 O 419.074 -3.50514 -2.62815 0
M  V30 4555 C 420.575 -2.18504 -3.85708 0
M  V30 4556 H 417.795 -0.45562 -0.492596 0
M  V30 4557 H 420.339 -1.78837 -0.991843 0
M  V30 4558 H 418.494 -1.71438 -3.47402 0
M  V30 4559 H 418.908 -3.92806 -3.47568 0
M  V30 4560 H 420.382 -2.79732 -4.75872 0
M  V30 4561 H 420.859 -1.18597 -4.22885 0
M  V30 4562 H 421.465 -2.61236 -3.35612 0
M  V30 4563 N 419.78 1.02168 -1.19998 0
M  V30 4564 C 421.057 1.72816 -0.916191 0
M  V30 4565 C 421.437 2.03081 0.576325 0
M  V30 4566 O 420.785 1.69122 1.53656 0
M  V30 4567 C 420.995 2.9997 -1.78378 0
M  V30 4568 C 422.343 3.73336 -2.02251 0
M  V30 4569 O 423.367 3.09914 -1.75589 0
M  V30 4570 O 422.226 4.87371 -2.47249 0
M  V30 4571 H 419.32 0.752924 -0.342103 0
M  V30 4572 H 421.866 1.08062 -1.30846 0
M  V30 4573 H 420.638 2.73888 -2.79466 0
M  V30 4574 H 420.261 3.72464 -1.39126 0
M  V30 4575 N 421.258 1.00505 1.21394 0
M  V30 4576 C 422.205 0.565496 2.23765 0
M  V30 4577 C 423.175 -0.408466 1.60999 0
M  V30 4578 O 424.36 -0.310503 1.88257 0
M  V30 4579 C 421.5 -0.101667 3.4495 0
M  V30 4580 C 420.613 0.915479 4.22188 0
M  V30 4581 C 419.748 0.220574 5.30742 0
M  V30 4582 C 418.787 1.22527 5.99711 0
M  V30 4583 N 417.924 0.557831 6.9988 0
M  V30 4584 H 422.764 1.44314 2.60725 0
M  V30 4585 H 420.301 0.722643 1.28126 0
M  V30 4586 H 422.259 -0.505504 4.14126 0
M  V30 4587 H 420.889 -0.94303 3.08718 0
M  V30 4588 H 419.941 1.43756 3.52191 0
M  V30 4589 H 421.253 1.68005 4.69655 0
M  V30 4590 H 420.407 -0.239368 6.06228 0
M  V30 4591 H 419.146 -0.576401 4.84282 0
M  V30 4592 H 418.151 1.69571 5.22997 0
M  V30 4593 H 419.376 2.02332 6.48258 0
M  V30 4594 H 417.322 -0.219486 6.55633 0
M  V30 4595 H 417.239 1.26065 7.45415 0
M  V30 4596 H 418.507 0.121095 7.79406 0
M  V30 4597 N 422.737 -1.36956 0.779787 0
M  V30 4598 C 423.962 -2.04283 0.358224 0
M  V30 4599 C 424.387 -1.58422 -1.01411 0
M  V30 4600 O 423.745 -0.748179 -1.65142 0
M  V30 4601 C 423.793 -3.58152 0.419479 0
M  V30 4602 O 422.897 -4.08342 -0.577142 0
M  V30 4603 H 422.238 -0.645967 0.153698 0
M  V30 4604 H 424.768 -1.75108 1.05822 0
M  V30 4605 H 424.778 -4.07041 0.279636 0
M  V30 4606 H 423.453 -3.90886 1.42061 0
M  V30 4607 H 422.03 -3.70751 -0.399755 0
M  V30 4608 N 424.215 -0.530993 -1.48385 0
M  V30 4609 C 425.464 0.00474348 -2.01699 0
M  V30 4610 C 425.777 1.35227 -1.41325 0
M  V30 4611 O 426.983 1.97643 -1.86144 0
M  V30 4612 C 425.439 0.0588473 -3.59852 0
M  V30 4613 C 425.047 -1.28385 -4.2921 0
M  V30 4614 C 426.791 0.543358 -4.21008 0
M  V30 4615 C 424.698 -1.19028 -5.79298 0
M  V30 4616 H 423.628 0.00554317 -0.75398 0
M  V30 4617 H 426.279 -0.674924 -1.70637 0
M  V30 4618 H 424.661 0.803612 -3.8776 0
M  V30 4619 H 425.835 -2.04426 -4.12973 0
M  V30 4620 H 424.15 -1.70418 -3.7993 0
M  V30 4621 H 426.747 0.631351 -5.3096 0
M  V30 4622 H 427.09 1.54937 -3.86394 0
M  V30 4623 H 427.623 -0.145754 -3.97533 0
M  V30 4624 H 424.362 -2.17147 -6.18488 0
M  V30 4625 H 423.882 -0.471246 -5.97946 0
M  V30 4626 H 425.561 -0.881365 -6.40969 0
M  V30 4627 N 425.693 1.55336 -0.266172 0
M  V30 4628 C 426.923 2.03506 0.356239 0
M  V30 4629 C 427.331 1.14426 1.50676 0
M  V30 4630 O 426.674 0.155043 1.83045 0
M  V30 4631 C 426.736 3.47848 0.90785 0
M  V30 4632 C 426.4 4.56861 -0.112888 0
M  V30 4633 C 427.397 5.11528 -0.929264 0
M  V30 4634 C 425.082 5.01704 -0.244546 0
M  V30 4635 C 427.076 6.09549 -1.86357 0
M  V30 4636 C 424.763 5.99553 -1.18234 0
M  V30 4637 C 425.761 6.53356 -1.99036 0
M  V30 4638 O 425.449 7.49293 -2.91231 0
M  V30 4639 H 425.181 0.670444 0.08649 0
M  V30 4640 H 427.735 2.01598 -0.39337 0
M  V30 4641 H 425.965 3.46967 1.70737 0
M  V30 4642 H 427.654 3.79407 1.44239 0
M  V30 4643 H 428.42 4.77701 -0.838237 0
M  V30 4644 H 424.299 4.59477 0.374359 0
M  V30 4645 H 427.843 6.51469 -2.49467 0
M  V30 4646 H 423.74 6.32799 -1.27421 0
M  V30 4647 H 424.508 7.66978 -2.8581 0
M  V30 4648 N 427.171 -0.0066808 1.57599 0
M  V30 4649 C 428.448 -0.729586 1.81484 0
M  V30 4650 C 428.828 -1.92359 0.869558 0
M  V30 4651 O 428.176 -2.28348 -0.0832533 0
M  V30 4652 C 428.386 -1.1416 3.29801 0
M  V30 4653 C 429.734 -1.54823 3.95367 0
M  V30 4654 O 430.758 -1.23558 3.34084 0
M  V30 4655 O 429.617 -2.12937 5.03309 0
M  V30 4656 H 426.711 -0.354674 0.747085 0
M  V30 4657 H 429.257 0.0182609 1.6969 0
M  V30 4658 H 428.029 -0.290231 3.90222 0
M  V30 4659 H 427.652 -1.94876 3.46568 0
M  V30 4660 N 428.649 -1.55105 -0.279332 0
M  V30 4661 C 429.596 -1.8755 -1.34513 0
M  V30 4662 C 430.566 -0.726384 -1.49375 0
M  V30 4663 O 431.751 -0.977063 -1.63884 0
M  V30 4664 C 428.891 -2.14738 -2.70151 0
M  V30 4665 C 428.004 -3.42285 -2.63562 0
M  V30 4666 C 427.139 -3.59206 -3.91337 0
M  V30 4667 C 426.178 -4.80467 -3.79233 0
M  V30 4668 N 425.315 -4.94079 -4.98829 0
M  V30 4669 H 430.155 -2.78456 -1.06143 0
M  V30 4670 H 427.692 -1.37867 -0.512936 0
M  V30 4671 H 429.65 -2.28501 -3.49061 0
M  V30 4672 H 428.28 -1.27075 -2.96735 0
M  V30 4673 H 427.332 -3.37029 -1.76397 0
M  V30 4674 H 428.644 -4.31328 -2.50515 0
M  V30 4675 H 427.798 -3.72751 -4.78687 0
M  V30 4676 H 426.537 -2.68337 -4.07243 0
M  V30 4677 H 425.542 -4.66932 -2.90266 0
M  V30 4678 H 426.767 -5.72765 -3.64852 0
M  V30 4679 H 424.713 -4.06139 -5.15158 0
M  V30 4680 H 424.63 -5.77156 -4.8829 0
M  V30 4681 H 425.898 -5.12003 -5.8777 0
M  V30 4682 N 430.127 0.543554 -1.4793 0
M  V30 4683 C 431.373 1.30201 -1.55485 0
M  V30 4684 C 431.706 1.92925 -0.222201 0
M  V30 4685 O 430.981 1.78586 0.77053 0
M  V30 4686 C 431.264 2.40174 -2.68307 0
M  V30 4687 C 431.117 1.8223 -4.11233 0
M  V30 4688 C 432.436 3.42024 -2.76961 0
M  V30 4689 H 429.555 0.472036 -0.565996 0
M  V30 4690 H 432.197 0.606914 -1.80046 0
M  V30 4691 H 430.347 2.99463 -2.47495 0
M  V30 4692 H 432.019 1.27096 -4.43446 0
M  V30 4693 H 430.262 1.12832 -4.18869 0
M  V30 4694 H 430.933 2.61793 -4.85972 0
M  V30 4695 H 433.409 2.92672 -2.95774 0
M  V30 4696 H 432.285 4.16383 -3.57654 0
M  V30 4697 H 432.546 4.0173 -1.84568 0
M  V30 4698 N 431.605 1.3629 0.791371 0
M  V30 4699 C 432.535 1.33137 1.91825 0
M  V30 4700 C 433.516 0.203168 1.68882 0
M  V30 4701 O 434.701 0.400509 1.90025 0
M  V30 4702 C 431.831 1.11793 3.28816 0
M  V30 4703 C 430.785 2.21417 3.66277 0
M  V30 4704 C 430.111 1.85218 5.01596 0
M  V30 4705 C 431.411 3.63489 3.75064 0
M  V30 4706 H 433.105 2.2743 1.9472 0
M  V30 4707 H 430.651 1.09479 0.935437 0
M  V30 4708 H 432.604 1.08222 4.07266 0
M  V30 4709 H 431.328 0.139501 3.26302 0
M  V30 4710 H 429.987 2.2411 2.90121 0
M  V30 4711 H 429.635 0.859544 4.95602 0
M  V30 4712 H 429.335 2.58611 5.27631 0
M  V30 4713 H 430.859 1.832 5.82469 0
M  V30 4714 H 432.273 3.63034 4.43711 0
M  V30 4715 H 430.67 4.35771 4.12582 0
M  V30 4716 H 431.74 3.98536 2.76219 0
M  V30 4717 N 433.083 -1.0153 1.20538 0
M  V30 4718 C 434.015 -2.10224 0.913155 0
M  V30 4719 C 435.028 -1.62495 -0.0995998 0
M  V30 4720 O 436.217 -1.78014 0.131582 0
M  V30 4721 C 433.317 -3.37111 0.347717 0
M  V30 4722 C 432.49 -4.13971 1.41233 0
M  V30 4723 C 431.549 -5.19158 0.857976 0
M  V30 4724 O 430.575 -5.48 1.53897 0
M  V30 4725 N 431.777 -5.7955 -0.331966 0
M  V30 4726 H 434.542 -2.35879 1.84881 0
M  V30 4727 H 432.103 -1.17931 1.10923 0
M  V30 4728 H 434.095 -4.04683 -0.0373026 0
M  V30 4729 H 432.665 -3.08696 -0.492527 0
M  V30 4730 H 431.885 -3.41351 1.97163 0
M  V30 4731 H 433.173 -4.62103 2.12928 0
M  V30 4732 H 432.571 -5.58455 -0.902478 0
M  V30 4733 H 431.128 -6.48464 -0.65861 0
M  V30 4734 N 434.561 -1.01147 -1.20859 0
M  V30 4735 C 435.509 -0.57059 -2.25493 0
M  V30 4736 C 436.503 0.388109 -1.64894 0
M  V30 4737 O 437.709 0.258592 -1.78133 0
M  V30 4738 H 434.084 -0.166191 -0.733406 0
M  V30 4739 H 436.055 -1.46411 -2.60012 0
M  V30 4740 C 434.804 0.0805241 -3.47607 0
M  V30 4741 H 434.127 -0.648156 -3.94511 0
M  V30 4742 H 435.567 0.352197 -4.22535 0
M  V30 4743 C 434.026 1.32175 -3.09889 0
M  V30 4744 O 434.556 2.41553 -3.20959 0
M  V30 4745 N 432.762 1.20392 -2.64488 0
M  V30 4746 H 432.309 0.313905 -2.5568 0
M  V30 4747 H 432.267 2.03541 -2.39621 0
M  V30 4748 N 436.039 1.36541 -0.78704 0
M  V30 4749 C 437.286 1.99304 -0.358341 0
M  V30 4750 C 437.614 1.62467 1.06933 0
M  V30 4751 O 436.869 0.870019 1.75297 0
M  V30 4752 C 437.168 3.54343 -0.466485 0
M  V30 4753 C 436.834 4.10993 -1.85461 0
M  V30 4754 C 435.496 4.26177 -2.23443 0
M  V30 4755 C 437.848 4.41895 -2.76366 0
M  V30 4756 C 435.176 4.69573 -3.51736 0
M  V30 4757 C 437.528 4.86722 -4.04084 0
M  V30 4758 C 436.192 5.00112 -4.42091 0
M  V30 4759 H 435.462 0.729306 -0.131126 0
M  V30 4760 H 438.109 1.63068 -1.00404 0
M  V30 4761 H 436.414 3.90918 0.262719 0
M  V30 4762 H 438.111 4.00833 -0.115854 0
M  V30 4763 H 434.701 3.99612 -1.54946 0
M  V30 4764 H 438.885 4.29735 -2.48277 0
M  V30 4765 H 434.141 4.78127 -3.81057 0
M  V30 4766 H 438.315 5.09598 -4.7464 0
M  V30 4767 H 435.942 5.33498 -5.41557 0
M  V30 4768 N 437.518 0.538854 1.48102 0
M  V30 4769 C 438.934 0.19732 1.58376 0
M  V30 4770 C 439.134 -1.29971 1.5398 0
M  V30 4771 O 438.19 -2.07861 1.43352 0
M  V30 4772 C 439.503 0.807716 2.89649 0
M  V30 4773 C 441.051 0.77726 3.03196 0
M  V30 4774 C 441.526 1.36639 4.37143 0
M  V30 4775 N 443.017 1.32875 4.43732 0
M  V30 4776 C 443.752 1.7544 5.45901 0
M  V30 4777 N 443.248 2.25776 6.54979 0
M  V30 4778 N 445.041 1.66623 5.36836 0
M  V30 4779 H 437.192 1.5117 1.49202 0
M  V30 4780 H 439.455 0.629327 0.708979 0
M  V30 4781 H 439.161 1.85909 2.98548 0
M  V30 4782 H 439.035 0.289975 3.76084 0
M  V30 4783 H 441.422 -0.265374 2.93904 0
M  V30 4784 H 441.503 1.33256 2.18349 0
M  V30 4785 H 441.147 2.408 4.47189 0
M  V30 4786 H 441.077 0.786689 5.20691 0
M  V30 4787 H 443.568 0.96037 3.65493 0
M  V30 4788 H 443.881 2.56226 7.29087 0
M  V30 4789 H 442.226 2.29775 6.55918 0
M  V30 4790 H 445.417 1.27089 4.50517 0
M  V30 4791 H 445.59 2.00115 6.16326 0
M  V30 4792 N 438.996 -1.55193 0.274407 0
M  V30 4793 C 440.244 -1.99187 -0.341902 0
M  V30 4794 C 440.565 -1.16422 -1.56431 0
M  V30 4795 O 439.835 -0.253573 -1.94252 0
M  V30 4796 H 438.415 -0.735721 -0.129317 0
M  V30 4797 H 441.077 -1.91168 0.379578 0
M  V30 4798 H 440.173 -3.05629 -0.632253 0
M  V30 4799 N 440.474 -0.00167713 -1.576 0
M  V30 4800 C 441.723 0.682021 -1.89819 0
M  V30 4801 C 442.036 1.74844 -0.876871 0
M  V30 4802 O 443.242 2.48688 -1.08934 0
M  V30 4803 C 441.698 1.26425 -3.36964 0
M  V30 4804 C 441.306 0.232568 -4.47396 0
M  V30 4805 C 443.05 1.92604 -3.78291 0
M  V30 4806 C 440.957 0.824882 -5.85619 0
M  V30 4807 H 439.887 0.258499 -0.708304 0
M  V30 4808 H 442.538 -0.0624957 -1.83394 0
M  V30 4809 H 440.92 2.05949 -3.38232 0
M  V30 4810 H 442.094 -0.5382 -4.57646 0
M  V30 4811 H 440.409 -0.32888 -4.15099 0
M  V30 4812 H 443.006 2.37827 -4.78897 0
M  V30 4813 H 443.349 2.75732 -3.11894 0
M  V30 4814 H 443.882 1.19812 -3.79328 0
M  V30 4815 H 440.621 0.0323542 -6.55492 0
M  V30 4816 H 440.141 1.56477 -5.79029 0
M  V30 4817 H 441.82 1.32301 -6.33329 0
M  V30 4818 N 441.952 1.55251 0.271103 0
M  V30 4819 C 443.198 1.76207 1.00394 0
M  V30 4820 C 443.531 0.562604 1.85872 0
M  V30 4821 O 442.806 -0.439785 1.89463 0
M  V30 4822 C 443.089 3.06828 1.8849 0
M  V30 4823 C 442.942 4.37134 1.05992 0
M  V30 4824 C 444.261 3.33503 2.87165 0
M  V30 4825 H 441.38 0.641086 0.363562 0
M  V30 4826 H 444.022 1.87982 0.276189 0
M  V30 4827 H 442.172 2.96921 2.5054 0
M  V30 4828 H 443.844 4.59001 0.459978 0
M  V30 4829 H 442.087 4.32275 0.363443 0
M  V30 4830 H 442.758 5.2486 1.70955 0
M  V30 4831 H 445.234 3.43215 2.3525 0
M  V30 4832 H 444.11 4.2616 3.45946 0
M  V30 4833 H 444.371 2.53235 3.62387 0
M  V30 4834 N 443.43 -0.535701 1.48216 0
M  V30 4835 C 444.707 -1.29683 1.46429 0
M  V30 4836 C 445.087 -2.10391 0.172852 0
M  V30 4837 O 444.435 -2.12282 -0.845488 0
M  V30 4838 C 444.645 -2.18313 2.72287 0
M  V30 4839 C 445.993 -2.78639 3.20383 0
M  V30 4840 O 447.017 -2.28604 2.73164 0
M  V30 4841 O 445.876 -3.69636 4.02531 0
M  V30 4842 H 442.97 -0.585026 0.584529 0
M  V30 4843 H 445.516 -0.552827 1.60443 0
M  V30 4844 H 444.288 -1.58421 3.57797 0
M  V30 4845 H 443.911 -2.99971 2.60966 0
M  V30 4846 N 444.908 -1.36708 -0.784132 0
M  V30 4847 C 446.324 -1.17237 -1.08294 0
M  V30 4848 C 446.524 -5.93947e-05 -2.015 0
M  V30 4849 O 445.58 0.663686 -2.43622 0
M  V30 4850 C 446.893 -2.48557 -1.69233 0
M  V30 4851 C 448.441 -2.54968 -1.8155 0
M  V30 4852 C 448.916 -3.86388 -2.45904 0
M  V30 4853 N 450.407 -3.87762 -2.53367 0
M  V30 4854 C 451.142 -4.86191 -3.03983 0
M  V30 4855 N 450.638 -5.95015 -3.54866 0
M  V30 4856 N 452.431 -4.73606 -3.02743 0
M  V30 4857 H 444.582 -2.11758 -0.16501 0
M  V30 4858 H 446.845 -0.93822 -0.135822 0
M  V30 4859 H 446.551 -3.34638 -1.08215 0
M  V30 4860 H 446.425 -2.64748 -2.68679 0
M  V30 4861 H 448.812 -1.69302 -2.41704 0
M  V30 4862 H 448.893 -2.42672 -0.80895 0
M  V30 4863 H 448.537 -4.72462 -1.86392 0
M  V30 4864 H 448.467 -3.95982 -3.4714 0
M  V30 4865 H 450.958 -3.09145 -2.17343 0
M  V30 4866 H 451.271 -6.66086 -3.91854 0
M  V30 4867 H 449.616 -5.98676 -3.53003 0
M  V30 4868 H 452.807 -3.87717 -2.62284 0
M  V30 4869 H 452.98 -5.50473 -3.41881 0
M  V30 4870 N 446.386 1.0089 -1.21074 0
M  V30 4871 C 447.316 2.1145 -0.990523 0
M  V30 4872 C 448.297 1.69897 0.0831699 0
M  V30 4873 O 449.482 1.94052 -0.0758853 0
M  V30 4874 C 446.612 3.42914 -0.550177 0
M  V30 4875 C 445.566 3.98244 -1.56799 0
M  V30 4876 C 444.892 5.25568 -0.984013 0
M  V30 4877 C 446.192 4.30752 -2.95381 0
M  V30 4878 H 447.886 2.3013 -1.91521 0
M  V30 4879 H 445.432 1.10592 -0.92225 0
M  V30 4880 H 447.385 4.19653 -0.383305 0
M  V30 4881 H 446.109 3.24014 0.41015 0
M  V30 4882 H 444.768 3.23621 -1.72236 0
M  V30 4883 H 444.416 5.02998 -0.0155216 0
M  V30 4884 H 444.116 5.63551 -1.66384 0
M  V30 4885 H 445.64 6.04955 -0.828378 0
M  V30 4886 H 447.054 4.98349 -2.8341 0
M  V30 4887 H 445.451 4.79869 -3.60341 0
M  V30 4888 H 446.521 3.39192 -3.46521 0
M  V30 4889 N 447.864 1.01787 1.20321 0
M  V30 4890 C 448.812 0.58254 2.25187 0
M  V30 4891 C 449.806 -0.379359 1.65098 0
M  V30 4892 O 451.012 -0.249142 1.78267 0
M  V30 4893 H 447.387 0.170078 0.732514 0
M  V30 4894 H 449.358 1.47788 2.59232 0
M  V30 4895 C 448.107 -0.0620885 3.47645 0
M  V30 4896 H 447.43 0.669069 3.94162 0
M  V30 4897 H 448.87 -0.329784 4.22716 0
M  V30 4898 C 447.329 -1.3053 3.10586 0
M  V30 4899 O 447.859 -2.39848 3.22236 0
M  V30 4900 N 446.065 -1.18988 2.65123 0
M  V30 4901 H 445.612 -0.300341 2.55843 0
M  V30 4902 H 445.57 -2.02267 2.40698 0
M  V30 4903 N 449.342 -1.36122 0.79427 0
M  V30 4904 C 450.289 -2.29982 0.194101 0
M  V30 4905 C 451.259 -1.52214 -0.664833 0
M  V30 4906 O 452.444 -1.80702 -0.612498 0
M  V30 4907 C 449.584 -3.38706 -0.661244 0
M  V30 4908 C 448.697 -4.31456 0.216766 0
M  V30 4909 C 447.832 -5.27265 -0.645411 0
M  V30 4910 C 446.871 -6.11653 0.233756 0
M  V30 4911 N 446.008 -6.99636 -0.587682 0
M  V30 4912 H 450.848 -2.80722 0.999965 0
M  V30 4913 H 448.385 -1.38172 0.504677 0
M  V30 4914 H 450.343 -4.00394 -1.17219 0
M  V30 4915 H 448.973 -2.89274 -1.43249 0
M  V30 4916 H 448.025 -3.7088 0.845724 0
M  V30 4917 H 449.337 -4.90724 0.893973 0
M  V30 4918 H 448.491 -5.94266 -1.22198 0
M  V30 4919 H 447.23 -4.68463 -1.35623 0
M  V30 4920 H 446.235 -5.4361 0.82269 0
M  V30 4921 H 447.46 -6.72531 0.942247 0
M  V30 4922 H 445.406 -6.43337 -1.2827 0
M  V30 4923 H 445.323 -7.55993 0.0317402 0
M  V30 4924 H 446.591 -7.71001 -1.14792 0
M  V30 4925 N 450.82 -0.546701 -1.47814 0
M  V30 4926 C 452.066 -0.0187684 -2.02791 0
M  V30 4927 C 452.399 1.32338 -1.42128 0
M  V30 4928 O 451.674 1.85867 -0.573023 0
M  V30 4929 C 451.957 0.0854985 -3.59998 0
M  V30 4930 C 451.81 -1.283 -4.31114 0
M  V30 4931 C 453.129 0.80412 -4.32691 0
M  V30 4932 H 450.248 -0.0082946 -0.736953 0
M  V30 4933 H 452.89 -0.706962 -1.76358 0
M  V30 4934 H 451.04 0.671609 -3.82651 0
M  V30 4935 H 452.712 -1.91151 -4.19832 0
M  V30 4936 H 450.955 -1.86049 -3.91878 0
M  V30 4937 H 451.626 -1.16287 -5.39612 0
M  V30 4938 H 454.102 0.306576 -4.14969 0
M  V30 4939 H 452.978 0.846011 -5.42341 0
M  V30 4940 H 453.239 1.85802 -4.01161 0
M  V30 4941 N 452.299 1.55045 -0.282633 0
M  V30 4942 C 453.229 2.2579 0.595066 0
M  V30 4943 C 454.21 1.25074 1.15284 0
M  V30 4944 O 455.395 1.5381 1.18559 0
M  V30 4945 C 452.525 2.98472 1.77572 0
M  V30 4946 C 451.479 4.0618 1.34914 0
M  V30 4947 C 450.805 4.66477 2.6135 0
M  V30 4948 C 452.105 5.1996 0.493821 0
M  V30 4949 H 453.799 2.994 0.00505653 0
M  V30 4950 H 451.345 1.44 0.000992001 0
M  V30 4951 H 453.298 3.46677 2.39568 0
M  V30 4952 H 452.022 2.2241 2.39168 0
M  V30 4953 H 450.681 3.58797 0.752338 0
M  V30 4954 H 450.329 3.87074 3.2122 0
M  V30 4955 H 450.029 5.39207 2.33516 0
M  V30 4956 H 451.553 5.17435 3.24181 0
M  V30 4957 H 452.967 5.64172 1.01898 0
M  V30 4958 H 451.364 5.99299 0.310047 0
M  V30 4959 H 452.434 4.82462 -0.485593 0
M  V30 4960 N 453.777 0.010035 1.57597 0
M  V30 4961 C 455.023 -0.673697 1.91283 0
M  V30 4962 C 455.356 -1.72863 0.884979 0
M  V30 4963 O 454.631 -1.94268 -0.0949487 0
M  V30 4964 C 454.914 -1.30766 3.35518 0
M  V30 4965 C 454.767 -0.263578 4.49027 0
M  V30 4966 C 456.086 -2.23105 3.79358 0
M  V30 4967 H 453.205 -0.243439 0.695634 0
M  V30 4968 H 455.847 0.0633864 1.89894 0
M  V30 4969 H 453.997 -1.93588 3.36832 0
M  V30 4970 H 455.669 0.365738 4.59848 0
M  V30 4971 H 453.912 0.413077 4.31829 0
M  V30 4972 H 454.583 -0.746398 5.4693 0
M  V30 4973 H 457.059 -1.70289 3.79659 0
M  V30 4974 H 455.935 -2.64424 4.81011 0
M  V30 4975 H 456.196 -3.11433 3.13787 0
M  V30 4976 N 455.255 -1.55392 -0.262866 0
M  V30 4977 C 456.495 -1.78231 -1.00064 0
M  V30 4978 C 456.859 -0.576966 -1.83126 0
M  V30 4979 O 458.06 -0.683809 -2.59957 0
M  V30 4980 C 456.331 -3.05701 -1.85153 0
M  V30 4981 S 457.89 -3.49699 -2.65058 0
M  V30 4982 H 454.708 -0.626138 -0.336856 0
M  V30 4983 H 457.31 -1.93626 -0.27005 0
M  V30 4984 H 456.014 -3.91511 -1.23074 0
M  V30 4985 H 455.545 -2.93 -2.62515 0
M  V30 4986 H 457.56 -3.09772 -3.87629 0
M  V30 4987 N 456.733 0.527833 -1.48498 0
M  V30 4988 C 457.982 1.28003 -1.55878 0
M  V30 4989 C 458.295 1.9414 -0.238577 0
M  V30 4990 O 459.501 2.7083 -0.190643 0
M  V30 4991 C 457.957 2.32272 -2.74914 0
M  V30 4992 C 457.565 1.72196 -4.13585 0
M  V30 4993 C 459.309 3.08488 -2.91608 0
M  V30 4994 C 457.216 2.74417 -5.23879 0
M  V30 4995 H 456.146 0.481413 -0.580308 0
M  V30 4996 H 458.797 0.557195 -1.74836 0
M  V30 4997 H 457.179 3.07601 -2.49395 0
M  V30 4998 H 458.353 1.03041 -4.49132 0
M  V30 4999 H 456.668 1.08464 -4.02025 0
M  V30 5000 H 459.265 3.84879 -3.71177 0
M  V30 5001 H 459.608 3.64481 -2.01145 0
M  V30 5002 H 460.141 2.40274 -3.17038 0
M  V30 5003 H 456.88 2.23242 -6.16314 0
M  V30 5004 H 456.4 3.41893 -4.92818 0
M  V30 5005 H 458.079 3.37362 -5.52083 0
M  V30 5006 N 458.211 1.37122 0.776871 0
M  V30 5007 C 459.436 1.354 1.57104 0
M  V30 5008 C 459.861 -0.0595562 1.88006 0
M  V30 5009 O 459.219 -1.03514 1.48844 0
M  V30 5010 C 459.267 2.19472 2.8612 0
M  V30 5011 O 458.371 1.59582 3.80273 0
M  V30 5012 H 457.712 0.462869 0.476076 0
M  V30 5013 H 460.242 1.80577 0.961932 0
M  V30 5014 H 460.252 2.32502 3.35271 0
M  V30 5015 H 458.927 3.22222 2.62956 0
M  V30 5016 H 457.504 1.55564 3.38902 0
M  V30 5017 N 459.689 -1.00246 1.21608 0
M  V30 5018 C 460.966 -1.71336 0.943568 0
M  V30 5019 C 461.346 -2.03972 -0.543943 0
M  V30 5020 O 460.694 -1.71545 -1.50946 0
M  V30 5021 C 460.904 -2.97094 1.83128 0
M  V30 5022 C 462.252 -3.70071 2.08165 0
M  V30 5023 O 463.276 -3.07081 1.80498 0
M  V30 5024 O 462.135 -4.83376 2.54971 0
M  V30 5025 H 459.229 -0.747386 0.354039 0
M  V30 5026 H 461.775 -1.05967 1.32549 0
M  V30 5027 H 460.547 -2.69407 2.83788 0
M  V30 5028 H 460.17 -3.70204 1.45034 0
M  V30 5029 N 461.167 -1.02423 -1.1978 0
M  V30 5030 C 462.578 -0.748389 -1.71044 0
M  V30 5031 C 462.929 0.732398 -1.82017 0
M  V30 5032 O 462.054 1.57116 -1.48807 0
M  V30 5033 C 462.649 -1.35187 -3.1066 0
M  V30 5034 C 461.208 -1.12472 -3.59203 0
M  V30 5035 C 460.355 -1.45283 -2.36195 0
M  V30 5036 H 463.306 -1.19275 -1.04686 0
M  V30 5037 H 463.327 -0.746408 -3.73107 0
M  V30 5038 H 462.839 -2.4296 -3.02642 0
M  V30 5039 H 460.94 -0.0649983 -3.72543 0
M  V30 5040 H 461.053 -1.81016 -4.43588 0
M  V30 5041 H 459.417 -0.872034 -2.39307 0
M  V30 5042 H 460.2 -2.54129 -2.30811 0
M  V30 5043 N 462.645 1.35699 -0.801477 0
M  V30 5044 C 463.593 2.3177 -0.196317 0
M  V30 5045 C 464.587 1.56388 0.651081 0
M  V30 5046 O 465.793 1.71557 0.544815 0
M  V30 5047 H 462.168 0.750669 -0.0447189 0
M  V30 5048 H 464.139 2.8036 -1.02181 0
M  V30 5049 C 462.888 3.41671 0.644702 0
M  V30 5050 H 462.211 3.998 0.0019921 0
M  V30 5051 H 463.651 4.11184 1.0346 0
M  V30 5052 C 462.11 2.84271 1.80808 0
M  V30 5053 O 462.64 2.77408 2.9053 0
M  V30 5054 N 460.846 2.41391 1.61799 0
M  V30 5055 H 460.393 2.47173 0.725493 0
M  V30 5056 H 460.351 2.03334 2.39797 0
M  V30 5057 N 464.123 0.554532 1.47522 0
M  V30 5058 C 465.372 0.0273458 2.01681 0
M  V30 5059 C 465.685 -1.32962 1.43459 0
M  V30 5060 O 466.891 -1.94657 1.89265 0
M  V30 5061 C 465.347 -0.00159057 3.599 0
M  V30 5062 C 464.955 1.35197 4.27113 0
M  V30 5063 C 466.699 -0.476311 4.21819 0
M  V30 5064 C 464.606 1.28229 5.77331 0
M  V30 5065 H 463.536 0.00645269 0.753972 0
M  V30 5066 H 466.187 0.701985 1.69542 0
M  V30 5067 H 464.569 -0.741821 3.8899 0
M  V30 5068 H 465.743 2.1097 4.09668 0
M  V30 5069 H 464.058 1.76441 3.77171 0
M  V30 5070 H 466.655 -0.5468 5.31897 0
M  V30 5071 H 466.998 -1.4877 3.8881 0
M  V30 5072 H 467.531 0.20898 3.97251 0
M  V30 5073 H 464.27 2.26959 6.14955 0
M  V30 5074 H 463.79 0.566314 5.97121 0
M  V30 5075 H 465.469 0.983226 6.39485 0
M  V30 5076 N 465.601 -1.54893 0.290851 0
M  V30 5077 C 466.549 -2.24579 -0.605576 0
M  V30 5078 C 467.543 -1.24824 -1.14522 0
M  V30 5079 O 468.749 -1.42706 -1.09704 0
M  V30 5080 H 465.124 -0.720946 -0.213872 0
M  V30 5081 H 467.095 -2.984 0.0048173 0
M  V30 5082 C 465.844 -2.99224 -1.77088 0
M  V30 5083 H 465.167 -3.75782 -1.36484 0
M  V30 5084 H 466.607 -3.51281 -2.3744 0
M  V30 5085 C 465.066 -2.05602 -2.66888 0
M  V30 5086 O 465.596 -1.61745 -3.67698 0
M  V30 5087 N 463.802 -1.71771 -2.34399 0
M  V30 5088 H 463.349 -2.07633 -1.52468 0
M  V30 5089 H 463.307 -1.09403 -2.94751 0
M  V30 5090 N 467.08 -0.0183926 -1.57589 0
M  V30 5091 C 468.329 0.66185 -1.90532 0
M  V30 5092 C 468.642 1.73904 -0.895366 0
M  V30 5093 O 469.848 2.47518 -1.11566 0
M  V30 5094 C 468.304 1.22844 -3.38286 0
M  V30 5095 C 467.912 0.185103 -4.47617 0
M  V30 5096 C 469.656 1.88581 -3.80312 0
M  V30 5097 C 467.563 0.762723 -5.86461 0
M  V30 5098 H 466.493 0.250972 -0.711006 0
M  V30 5099 H 469.144 -0.0819435 -1.83317 0
M  V30 5100 H 467.526 2.0235 -3.40398 0
M  V30 5101 H 468.7 -0.58671 -4.5705 0
M  V30 5102 H 467.015 -0.372889 -4.14727 0
M  V30 5103 H 469.612 2.32735 -4.81392 0
M  V30 5104 H 469.955 2.72408 -3.14801 0
M  V30 5105 H 470.488 1.15782 -3.80578 0
M  V30 5106 H 467.227 -0.0371713 -6.55489 0
M  V30 5107 H 466.747 1.50327 -5.80656 0
M  V30 5108 H 468.426 1.25576 -6.34697 0
M  V30 5109 N 468.558 1.5553 0.254621 0
M  V30 5110 C 469.506 1.9048 1.33492 0
M  V30 5111 C 470.5 0.78304 1.50216 0
M  V30 5112 O 471.706 0.967582 1.51782 0
M  V30 5113 H 468.081 0.604846 0.44684 0
M  V30 5114 H 470.052 2.80688 1.01275 0
M  V30 5115 C 468.801 2.20928 2.68489 0
M  V30 5116 H 468.124 3.06742 2.56417 0
M  V30 5117 H 469.564 2.49291 3.42972 0
M  V30 5118 C 468.023 1.023 3.20993 0
M  V30 5119 O 468.553 0.267027 4.00811 0
M  V30 5120 N 466.759 0.815714 2.78917 0
M  V30 5121 H 466.306 1.43217 2.14119 0
M  V30 5122 H 466.264 0.0236532 3.14391 0
M  V30 5123 N 470.036 -0.519951 1.48776 0
M  V30 5124 C 471.285 -1.27175 1.56555 0
M  V30 5125 C 471.598 -1.9401 0.248869 0
M  V30 5126 O 472.804 -2.70725 0.205004 0
M  V30 5127 C 471.26 -2.30811 2.76142 0
M  V30 5128 C 470.868 -1.7 4.14493 0
M  V30 5129 C 472.612 -3.06937 2.9324 0
M  V30 5130 C 470.519 -2.71635 5.25327 0
M  V30 5131 H 469.449 -0.478329 0.582853 0
M  V30 5132 H 472.1 -0.547916 1.75129 0
M  V30 5133 H 470.482 -3.06274 2.51023 0
M  V30 5134 H 471.656 -1.00658 4.49672 0
M  V30 5135 H 469.971 -1.06331 4.02595 0
M  V30 5136 H 472.568 -3.82905 3.73213 0
M  V30 5137 H 472.911 -3.63409 2.03075 0
M  V30 5138 H 473.444 -2.38589 3.18308 0
M  V30 5139 H 470.183 -2.1997 6.1749 0
M  V30 5140 H 469.703 -3.39275 4.94624 0
M  V30 5141 H 471.382 -3.34429 5.53865 0
M  V30 5142 N 471.514 -1.37532 -0.769588 0
M  V30 5143 C 472.744 -1.35861 -1.55645 0
M  V30 5144 C 473.152 0.0574398 -1.89113 0
M  V30 5145 O 472.495 1.03021 -1.52093 0
M  V30 5146 C 472.557 -2.13431 -2.89288 0
M  V30 5147 C 472.221 -3.62378 -2.78444 0
M  V30 5148 C 473.218 -4.56215 -2.49326 0
M  V30 5149 C 470.903 -4.05529 -2.96398 0
M  V30 5150 C 472.897 -5.91181 -2.38294 0
M  V30 5151 C 470.584 -5.40579 -2.84987 0
M  V30 5152 C 471.582 -6.33218 -2.55975 0
M  V30 5153 O 471.27 -7.65787 -2.44594 0
M  V30 5154 H 471.002 -0.467001 -0.48876 0
M  V30 5155 H 473.556 -1.81505 -0.961515 0
M  V30 5156 H 471.786 -1.62481 -3.50909 0
M  V30 5157 H 473.475 -2.04368 -3.50697 0
M  V30 5158 H 474.241 -4.24187 -2.35139 0
M  V30 5159 H 470.12 -3.33781 -3.1798 0
M  V30 5160 H 473.664 -6.63457 -2.15571 0
M  V30 5161 H 469.561 -5.72209 -2.98743 0
M  V30 5162 H 470.329 -7.76132 -2.59927 0
M  V30 5163 N 472.992 0.995999 -1.22138 0
M  V30 5164 C 473.939 2.08551 -0.988687 0
M  V30 5165 C 474.909 1.65864 0.0885021 0
M  V30 5166 O 476.094 1.90704 -0.0604589 0
M  V30 5167 C 473.234 3.40374 -0.569191 0
M  V30 5168 C 472.347 3.96421 -1.71681 0
M  V30 5169 C 471.482 5.1639 -1.2456 0
M  V30 5170 C 470.521 5.64567 -2.36497 0
M  V30 5171 N 469.658 6.75777 -1.90445 0
M  V30 5172 H 474.498 2.2779 -1.92135 0
M  V30 5173 H 472.035 1.1168 -0.957388 0
M  V30 5174 H 473.993 4.16068 -0.307166 0
M  V30 5175 H 472.623 3.21145 0.326462 0
M  V30 5176 H 471.675 3.17628 -2.09324 0
M  V30 5177 H 472.987 4.2816 -2.55891 0
M  V30 5178 H 472.141 5.99362 -0.940774 0
M  V30 5179 H 470.88 4.86266 -0.373662 0
M  V30 5180 H 469.885 4.80185 -2.67772 0
M  V30 5181 H 471.11 5.96716 -3.24202 0
M  V30 5182 H 469.056 6.47443 -1.05609 0
M  V30 5183 H 468.973 7.06818 -2.68223 0
M  V30 5184 H 470.241 7.62262 -1.63022 0
M  V30 5185 N 474.47 1.03057 1.19235 0
M  V30 5186 C 475.418 0.606391 2.24557 0
M  V30 5187 C 476.412 -0.361826 1.65491 0
M  V30 5188 O 477.618 -0.23022 1.78522 0
M  V30 5189 H 473.993 0.177838 0.730669 0
M  V30 5190 H 475.964 1.50529 2.5765 0
M  V30 5191 C 474.713 -0.0252127 3.47691 0
M  V30 5192 H 474.036 0.710838 3.9343 0
M  V30 5193 H 475.476 -0.284931 4.23042 0
M  V30 5194 C 473.935 -1.27229 3.11953 0
M  V30 5195 O 474.465 -2.36416 3.24762 0
M  V30 5196 N 472.671 -1.16169 2.6637 0
M  V30 5197 H 472.218 -0.273189 2.56147 0
M  V30 5198 H 472.176 -1.99703 2.42829 0
M  V30 5199 N 475.948 -1.35272 0.808662 0
M  V30 5200 C 476.895 -2.29764 0.218482 0
M  V30 5201 C 477.865 -1.52911 -0.648652 0
M  V30 5202 O 479.05 -1.81341 -0.593297 0
M  V30 5203 C 476.19 -3.39388 -0.625282 0
M  V30 5204 C 475.303 -4.31202 0.262516 0
M  V30 5205 C 474.438 -5.27919 -0.589451 0
M  V30 5206 C 473.477 -6.11371 0.298617 0
M  V30 5207 N 472.614 -7.0022 -0.513443 0
M  V30 5208 H 477.454 -2.79645 1.02968 0
M  V30 5209 H 474.991 -1.37629 0.519303 0
M  V30 5210 H 476.949 -4.01615 -1.12966 0
M  V30 5211 H 475.579 -2.90777 -1.40173 0
M  V30 5212 H 474.631 -3.69962 0.885013 0
M  V30 5213 H 475.943 -4.89748 0.945971 0
M  V30 5214 H 475.097 -5.95529 -1.15888 0
M  V30 5215 H 473.836 -4.69875 -1.30647 0
M  V30 5216 H 472.841 -5.42707 0.880301 0
M  V30 5217 H 474.066 -6.71494 1.01352 0
M  V30 5218 H 472.012 -6.44662 -1.21439 0
M  V30 5219 H 471.929 -7.55917 0.111922 0
M  V30 5220 H 473.197 -7.72175 -1.06608 0
M  V30 5221 N 477.426 -0.562348 -1.47226 0
M  V30 5222 C 478.673 -0.0402165 -2.0246 0
M  V30 5223 C 479.001 1.31169 -1.43614 0
M  V30 5224 O 478.256 1.86805 -0.5833 0
M  V30 5225 C 478.555 0.0969817 -3.57268 0
M  V30 5226 C 478.221 -1.1847 -4.35058 0
M  V30 5227 C 476.883 -1.53588 -4.56031 0
M  V30 5228 C 479.235 -2.03378 -4.79882 0
M  V30 5229 C 476.563 -2.73452 -5.19077 0
M  V30 5230 C 478.915 -3.2245 -5.44251 0
M  V30 5231 C 477.579 -3.57876 -5.63455 0
M  V30 5232 H 476.849 -0.0147163 -0.740854 0
M  V30 5233 H 479.496 -0.734895 -1.76838 0
M  V30 5234 H 477.801 0.87466 -3.81912 0
M  V30 5235 H 479.498 0.516408 -3.97661 0
M  V30 5236 H 476.088 -0.90126 -4.19017 0
M  V30 5237 H 480.272 -1.77553 -4.63453 0
M  V30 5238 H 475.528 -3.01062 -5.32139 0
M  V30 5239 H 479.702 -3.88526 -5.77945 0
M  V30 5240 H 477.329 -4.50849 -6.12078 0
M  V30 5241 N 478.904 1.54736 -0.299062 0
M  V30 5242 C 479.851 2.23448 0.577899 0
M  V30 5243 C 480.821 1.21637 1.13109 0
M  V30 5244 O 482.006 1.50252 1.17597 0
M  V30 5245 C 479.146 2.9774 1.74484 0
M  V30 5246 C 478.259 4.1432 1.22323 0
M  V30 5247 C 477.394 4.76199 2.35388 0
M  V30 5248 C 476.433 5.84927 1.80351 0
M  V30 5249 N 475.57 6.4077 2.86982 0
M  V30 5250 H 480.41 2.97996 -0.0146545 0
M  V30 5251 H 477.947 1.47088 -0.0190013 0
M  V30 5252 H 479.905 3.39045 2.43114 0
M  V30 5253 H 478.535 2.25572 2.30905 0
M  V30 5254 H 477.587 3.7797 0.429249 0
M  V30 5255 H 478.899 4.92659 0.780309 0
M  V30 5256 H 478.053 5.20346 3.11969 0
M  V30 5257 H 476.792 3.97188 2.83006 0
M  V30 5258 H 475.797 5.40207 1.02259 0
M  V30 5259 H 477.022 6.65821 1.3364 0
M  V30 5260 H 474.968 5.64643 3.33938 0
M  V30 5261 H 474.885 7.1445 2.4718 0
M  V30 5262 H 476.153 6.89574 3.63466 0
M  V30 5263 N 480.382 0.0267497 1.57577 0
M  V30 5264 C 481.659 -0.690926 1.82991 0
M  V30 5265 C 482.039 -1.90471 0.910164 0
M  V30 5266 O 481.387 -2.28474 -0.0347985 0
M  V30 5267 C 481.597 -1.07139 3.32148 0
M  V30 5268 C 482.945 -1.46402 3.98562 0
M  V30 5269 O 483.969 -1.16443 3.36629 0
M  V30 5270 O 482.828 -2.02214 5.07712 0
M  V30 5271 H 479.922 -0.338747 0.75444 0
M  V30 5272 H 482.468 0.0542506 1.69613 0
M  V30 5273 H 481.24 -0.207394 3.9075 0
M  V30 5274 H 480.863 -1.87481 3.50623 0
M  V30 5275 N 481.861 -1.55662 -0.24637 0
M  V30 5276 C 482.808 -1.90361 -1.30504 0
M  V30 5277 C 483.778 -0.757905 -1.47801 0
M  V30 5278 O 484.963 -1.01161 -1.61775 0
M  V30 5279 C 482.103 -2.2042 -2.65535 0
M  V30 5280 C 481.216 -3.47799 -2.56242 0
M  V30 5281 C 480.351 -3.67426 -3.8363 0
M  V30 5282 C 479.39 -4.88403 -3.68956 0
M  V30 5283 N 478.527 -5.04548 -4.88237 0
M  V30 5284 H 483.367 -2.80645 -1.00213 0
M  V30 5285 H 480.904 -1.38924 -0.483577 0
M  V30 5286 H 482.862 -2.35853 -3.44135 0
M  V30 5287 H 481.492 -1.3334 -2.93973 0
M  V30 5288 H 480.544 -3.40694 -1.69208 0
M  V30 5289 H 481.856 -4.36544 -2.4131 0
M  V30 5290 H 481.01 -3.82821 -4.70673 0
M  V30 5291 H 479.749 -2.76914 -4.01459 0
M  V30 5292 H 478.754 -4.72984 -2.80296 0
M  V30 5293 H 479.979 -5.80375 -3.52621 0
M  V30 5294 H 477.925 -4.16974 -5.06427 0
M  V30 5295 H 477.842 -5.87384 -4.75937 0
M  V30 5296 H 479.11 -5.24355 -5.76777 0
M  V30 5297 N 483.339 0.512053 -1.4905 0
M  V30 5298 C 484.569 1.28928 -1.61434 0
M  V30 5299 C 484.977 1.87107 -0.280647 0
M  V30 5300 O 484.32 1.68024 0.742537 0
M  V30 5301 C 484.382 2.466 -2.61588 0
M  V30 5302 C 484.046 2.09375 -4.06216 0
M  V30 5303 C 485.043 1.63994 -4.93358 0
M  V30 5304 C 482.728 2.19348 -4.51876 0
M  V30 5305 C 484.722 1.29076 -6.24194 0
M  V30 5306 C 482.409 1.84041 -5.82728 0
M  V30 5307 C 483.407 1.38978 -6.68711 0
M  V30 5308 O 483.095 1.04144 -7.97126 0
M  V30 5309 H 482.827 0.397668 -0.546659 0
M  V30 5310 H 485.381 0.622507 -1.9574 0
M  V30 5311 H 483.611 3.16318 -2.22441 0
M  V30 5312 H 485.3 3.08642 -2.63619 0
M  V30 5313 H 486.066 1.55744 -4.59313 0
M  V30 5314 H 481.945 2.53376 -3.85125 0
M  V30 5315 H 485.489 0.938303 -6.91261 0
M  V30 5316 H 481.386 1.91938 -6.16304 0
M  V30 5317 H 482.154 1.17387 -8.10039 0
M  V30 5318 N 484.817 1.37938 0.762283 0
M  V30 5319 C 485.764 1.34467 1.87583 0
M  V30 5320 C 486.734 0.208633 1.64785 0
M  V30 5321 O 487.919 0.399494 1.86571 0
M  V30 5322 C 485.059 1.16692 3.24772 0
M  V30 5323 C 484.172 2.39608 3.59461 0
M  V30 5324 C 483.307 2.14631 4.85908 0
M  V30 5325 C 482.346 3.33364 5.13357 0
M  V30 5326 N 481.483 3.07877 6.30996 0
M  V30 5327 H 486.323 2.29669 1.89885 0
M  V30 5328 H 483.86 1.14116 0.928219 0
M  V30 5329 H 485.818 1.04405 4.03925 0
M  V30 5330 H 484.448 0.251333 3.2182 0
M  V30 5331 H 483.5 2.626 2.75219 0
M  V30 5332 H 484.812 3.28128 3.75678 0
M  V30 5333 H 483.966 1.99429 5.72986 0
M  V30 5334 H 482.705 1.23463 4.71814 0
M  V30 5335 H 481.71 3.49094 4.24751 0
M  V30 5336 H 482.935 4.25395 5.29354 0
M  V30 5337 H 480.881 2.19348 6.18241 0
M  V30 5338 H 480.798 3.89944 6.47673 0
M  V30 5339 H 482.066 2.96313 7.20985 0
M  V30 5340 N 486.295 -0.989507 1.22664 0
M  V30 5341 C 487.542 -1.72953 1.05325 0
M  V30 5342 C 487.87 -1.90104 -0.411168 0
M  V30 5343 O 487.125 -1.44386 -1.32103 0
M  V30 5344 C 487.424 -3.13649 1.71345 0
M  V30 5345 C 487.09 -3.16403 3.21248 0
M  V30 5346 C 485.752 -3.16862 3.62149 0
M  V30 5347 C 488.104 -3.12428 4.17179 0
M  V30 5348 C 485.432 -3.11051 4.97458 0
M  V30 5349 C 487.784 -3.08159 5.52468 0
M  V30 5350 C 486.448 -3.06935 5.92746 0
M  V30 5351 H 485.718 -0.632881 0.385412 0
M  V30 5352 H 488.365 -1.15863 1.52473 0
M  V30 5353 H 486.67 -3.74069 1.16532 0
M  V30 5354 H 488.367 -3.69658 1.55416 0
M  V30 5355 H 484.957 -3.16798 2.88682 0
M  V30 5356 H 489.141 -3.11221 3.86595 0
M  V30 5357 H 484.397 -3.0845 5.27891 0
M  V30 5358 H 488.571 -3.04039 6.26525 0
M  V30 5359 H 486.198 -3.02186 6.97558 0
M  V30 5360 N 487.773 -1.03688 -1.18687 0
M  V30 5361 C 489.019 -0.739123 -1.88851 0
M  V30 5362 C 489.352 0.731042 -1.79915 0
M  V30 5363 O 488.627 1.53313 -1.19688 0
M  V30 5364 C 488.91 -1.20106 -3.3948 0
M  V30 5365 C 488.763 -2.73304 -3.57246 0
M  V30 5366 C 490.082 -0.788134 -4.32986 0
M  V30 5367 H 487.201 -0.269978 -0.68577 0
M  V30 5368 H 489.843 -1.28822 -1.3966 0
M  V30 5369 H 487.993 -0.733915 -3.81505 0
M  V30 5370 H 489.665 -3.28027 -3.24339 0
M  V30 5371 H 487.908 -3.13313 -3.00029 0
M  V30 5372 H 488.579 -3.00684 -4.62918 0
M  V30 5373 H 491.055 -1.19005 -3.98719 0
M  V30 5374 H 489.931 -1.13915 -5.36949 0
M  V30 5375 H 490.192 0.308988 -4.41019 0
M  V30 5376 N 489.251 1.34841 -0.815825 0
M  V30 5377 C 490.161 2.33425 -0.234462 0
M  V30 5378 C 491.177 1.62295 0.627413 0
M  V30 5379 O 492.353 1.94109 0.536987 0
M  V30 5380 C 489.418 3.41471 0.599849 0
M  V30 5381 C 488.479 4.28362 -0.283596 0
M  V30 5382 C 487.712 5.31248 0.51099 0
M  V30 5383 O 487.935 5.43056 1.7449 0
M  V30 5384 O 486.869 6.01812 -0.10297 0
M  V30 5385 H 490.695 2.84962 -1.05024 0
M  V30 5386 H 488.28 1.37774 -0.577809 0
M  V30 5387 H 490.162 4.07464 1.07475 0
M  V30 5388 H 488.837 2.9219 1.39308 0
M  V30 5389 H 487.744 3.65318 -0.805836 0
M  V30 5390 H 489.077 4.81066 -1.041 0
M  V30 5391 N 490.729 0.570148 1.46925 0
M  V30 5392 C 492.006 -0.0153259 1.95594 0
M  V30 5393 C 492.386 -1.47232 1.51281 0
M  V30 5394 O 491.734 -2.15574 0.757624 0
M  V30 5395 C 491.944 0.143624 3.48704 0
M  V30 5396 C 493.292 0.00494484 4.246 0
M  V30 5397 O 494.316 0.0718214 3.56128 0
M  V30 5398 O 493.175 -0.141175 5.46318 0
M  V30 5399 H 490.269 -0.0568819 0.825041 0
M  V30 5400 H 492.815 0.637583 1.57267 0
M  V30 5401 H 491.587 1.15699 3.73804 0
M  V30 5402 H 491.21 -0.5463 3.93829 0
M  V30 5403 N 492.207 -1.54576 0.307264 0
M  V30 5404 C 493.432 -2.05139 -0.305379 0
M  V30 5405 C 493.857 -1.18278 -1.46259 0
M  V30 5406 O 493.215 -0.188243 -1.8032 0
M  V30 5407 C 493.263 -3.53066 -0.733283 0
M  V30 5408 O 492.367 -3.69206 -1.83741 0
M  V30 5409 H 491.708 -0.661444 -0.0582105 0
M  V30 5410 H 494.238 -1.99569 0.450931 0
M  V30 5411 H 494.248 -3.95034 -1.02039 0
M  V30 5412 H 492.923 -4.15746 0.113198 0
M  V30 5413 H 491.5 -3.39143 -1.55037 0
M  V30 5414 N 493.685 -0.035106 -1.57561 0
M  V30 5415 C 494.595 0.960295 -2.14046 0
M  V30 5416 C 495.611 1.3529 -1.0942 0
M  V30 5417 O 496.787 1.43309 -1.41508 0
M  V30 5418 C 493.852 2.22214 -2.66124 0
M  V30 5419 C 492.913 1.8894 -3.85487 0
M  V30 5420 C 492.146 3.09109 -4.35072 0
M  V30 5421 O 492.369 4.21963 -3.83802 0
M  V30 5422 O 491.303 2.91058 -5.26848 0
M  V30 5423 H 495.129 0.509983 -2.99387 0
M  V30 5424 H 492.714 0.185853 -1.48239 0
M  V30 5425 H 494.596 2.96279 -2.99661 0
M  V30 5426 H 493.271 2.66414 -1.83862 0
M  V30 5427 H 492.178 1.12241 -3.56865 0
M  V30 5428 H 493.511 1.49551 -4.6893 0
M  V30 5429 N 495.163 1.55791 0.238111 0
M  V30 5430 C 496.411 1.77681 0.963001 0
M  V30 5431 C 496.732 0.600674 1.85518 0
M  V30 5432 O 496.002 -0.383182 1.92116 0
M  V30 5433 H 494.582 0.655315 0.358568 0
M  V30 5434 H 497.244 1.93239 0.253945 0
M  V30 5435 H 496.34 2.69177 1.57956 0
M  V30 5436 N 496.642 -0.504142 1.49319 0
M  V30 5437 C 497.589 -1.60603 1.65756 0
M  V30 5438 C 498.559 -1.58425 0.499082 0
M  V30 5439 O 499.744 -1.76459 0.725728 0
M  V30 5440 C 496.884 -2.98764 1.72726 0
M  V30 5441 C 495.997 -3.10982 2.99857 0
M  V30 5442 C 495.132 -4.39857 2.97824 0
M  V30 5443 C 494.171 -4.45697 4.19548 0
M  V30 5444 N 493.308 -5.65995 4.15444 0
M  V30 5445 H 498.148 -1.45895 2.59843 0
M  V30 5446 H 495.685 -0.709891 1.28837 0
M  V30 5447 H 497.643 -3.78839 1.74747 0
M  V30 5448 H 496.273 -3.12183 0.821075 0
M  V30 5449 H 495.325 -2.23991 3.07461 0
M  V30 5450 H 496.637 -3.11157 3.89849 0
M  V30 5451 H 495.791 -5.2825 2.98391 0
M  V30 5452 H 494.53 -4.42242 2.05604 0
M  V30 5453 H 493.535 -3.55707 4.19229 0
M  V30 5454 H 494.76 -4.4503 5.12957 0
M  V30 5455 H 492.706 -5.69229 3.26059 0
M  V30 5456 H 492.623 -5.67773 4.99169 0
M  V30 5457 H 493.891 -6.56604 4.20109 0
M  V30 5458 N 498.12 -1.38341 -0.754957 0
M  V30 5459 C 499.35 -1.37504 -1.54195 0
M  V30 5460 C 499.758 0.0373787 -1.89163 0
M  V30 5461 O 499.101 1.01402 -1.53178 0
M  V30 5462 C 499.163 -2.16488 -2.87008 0
M  V30 5463 C 498.827 -3.65311 -2.74585 0
M  V30 5464 C 499.824 -4.58834 -2.44474 0
M  V30 5465 C 497.509 -4.08649 -2.9208 0
M  V30 5466 C 499.503 -5.93675 -2.32011 0
M  V30 5467 C 497.19 -5.43571 -2.79237 0
M  V30 5468 C 498.188 -6.35898 -2.49245 0
M  V30 5469 O 497.876 -7.68338 -2.36458 0
M  V30 5470 H 497.608 -0.472159 -0.483779 0
M  V30 5471 H 500.162 -1.82515 -0.94221 0
M  V30 5472 H 498.392 -1.66194 -3.49166 0
M  V30 5473 H 500.081 -2.08076 -3.4851 0
M  V30 5474 H 500.847 -4.26657 -2.30627 0
M  V30 5475 H 496.726 -3.37134 -3.14422 0
M  V30 5476 H 500.27 -6.65706 -2.08522 0
M  V30 5477 H 496.167 -5.75345 -2.92657 0
M  V30 5478 H 496.935 -7.78845 -2.5168 0
M  V30 5479 N 499.598 0.982988 -1.23187 0
M  V30 5480 C 500.823 1.76455 -1.08988 0
M  V30 5481 C 501.248 1.84726 0.354691 0
M  V30 5482 O 500.606 1.30699 1.25649 0
M  V30 5483 C 500.654 3.17094 -1.71708 0
M  V30 5484 O 499.758 4.00648 -0.977477 0
M  V30 5485 H 499.099 0.542988 -0.382177 0
M  V30 5486 H 501.629 1.23413 -1.63188 0
M  V30 5487 H 501.639 3.67684 -1.76841 0
M  V30 5488 H 500.314 3.10389 -2.76823 0
M  V30 5489 H 498.891 3.59161 -1.0029 0
M  V30 5490 N 501.076 1.04316 1.18135 0
M  V30 5491 C 502.325 0.74319 1.87509 0
M  V30 5492 C 502.638 -0.732136 1.81381 0
M  V30 5493 O 503.844 -1.14572 2.46141 0
M  V30 5494 C 502.3 1.27913 3.36402 0
M  V30 5495 C 501.908 2.78326 3.51053 0
M  V30 5496 C 503.652 1.0558 4.11161 0
M  V30 5497 C 501.559 3.25266 4.93919 0
M  V30 5498 H 500.489 0.274313 0.702331 0
M  V30 5499 H 503.14 1.25931 1.33467 0
M  V30 5500 H 501.522 0.690853 3.89927 0
M  V30 5501 H 502.696 3.42933 3.07788 0
M  V30 5502 H 501.011 2.991 2.89704 0
M  V30 5503 H 503.608 1.38161 5.16542 0
M  V30 5504 H 503.951 -0.00684729 4.16299 0
M  V30 5505 H 504.484 1.60882 3.63816 0
M  V30 5506 H 501.223 4.30922 4.9395 0
M  V30 5507 H 500.743 2.65396 5.3789 0
M  V30 5508 H 502.422 3.19433 5.62647 0
M  V30 5509 N 502.554 -1.34406 0.822964 0
M  V30 5510 C 503.831 -1.92733 0.333641 0
M  V30 5511 C 504.211 -1.75107 -1.17901 0
M  V30 5512 O 503.559 -1.12983 -1.98613 0
M  V30 5513 C 503.769 -3.40557 0.763023 0
M  V30 5514 C 505.117 -4.17709 0.761879 0
M  V30 5515 O 506.141 -3.49141 0.705606 0
M  V30 5516 O 505 -5.40082 0.835109 0
M  V30 5517 H 502.094 -0.821964 0.0911249 0
M  V30 5518 H 504.64 -1.4338 0.907757 0
M  V30 5519 H 503.412 -3.47187 1.8049 0
M  V30 5520 H 503.035 -3.97259 0.164605 0
M  V30 5521 N 504.032 -0.577932 -1.46621 0
M  V30 5522 C 505.278 -0.0617793 -2.02706 0
M  V30 5523 C 505.611 1.29294 -1.44903 0
M  V30 5524 O 504.886 1.8461 -0.61232 0
M  V30 5525 C 505.169 0.00911824 -3.60099 0
M  V30 5526 C 505.022 -1.37416 -4.28295 0
M  V30 5527 C 506.341 0.712159 -4.343 0
M  V30 5528 H 503.46 -0.0239246 -0.736612 0
M  V30 5529 H 506.102 -0.744211 -1.74818 0
M  V30 5530 H 504.252 0.590292 -3.83989 0
M  V30 5531 H 505.924 -2.00013 -4.15683 0
M  V30 5532 H 504.167 -1.94319 -3.87843 0
M  V30 5533 H 504.838 -1.27707 -5.37024 0
M  V30 5534 H 507.314 0.218486 -4.15526 0
M  V30 5535 H 506.19 0.730782 -5.44014 0
M  V30 5536 H 506.451 1.77251 -4.05012 0
M  V30 5537 N 505.51 1.54411 -0.315457 0
M  V30 5538 C 506.42 2.27737 0.56329 0
M  V30 5539 C 507.436 1.31787 1.13614 0
M  V30 5540 O 508.612 1.64791 1.15784 0
M  V30 5541 C 505.677 3.01478 1.71207 0
M  V30 5542 C 504.738 4.12997 1.17185 0
M  V30 5543 C 503.971 4.83212 2.26588 0
M  V30 5544 O 504.194 4.52884 3.46775 0
M  V30 5545 O 503.128 5.70299 1.92463 0
M  V30 5546 H 506.954 3.03683 -0.0319614 0
M  V30 5547 H 504.539 1.49178 -0.0814188 0
M  V30 5548 H 506.421 3.47683 2.38106 0
M  V30 5549 H 505.096 2.28414 2.29366 0
M  V30 5550 H 504.003 3.71159 0.468174 0
M  V30 5551 H 505.336 4.8808 0.635501 0
M  V30 5552 N 506.988 0.0434614 1.5754 0
M  V30 5553 C 508.213 -0.645358 1.97104 0
M  V30 5554 C 508.638 -1.64037 0.920521 0
M  V30 5555 O 507.996 -1.80922 -0.11708 0
M  V30 5556 C 508.044 -1.31547 3.35749 0
M  V30 5557 O 507.148 -2.43103 3.33129 0
M  V30 5558 H 506.489 -0.168403 0.64229 0
M  V30 5559 H 509.019 0.109573 2.04306 0
M  V30 5560 H 509.029 -1.66895 3.72304 0
M  V30 5561 H 507.704 -0.586205 4.11748 0
M  V30 5562 H 506.281 -2.0976 3.0831 0
M  V30 5563 N 508.466 -1.55915 -0.229846 0
M  V30 5564 C 509.713 -1.78542 -0.955452 0
M  V30 5565 C 510.041 -0.610785 -1.84661 0
M  V30 5566 O 509.296 0.405213 -1.91459 0
M  V30 5567 C 509.595 -3.06845 -1.8325 0
M  V30 5568 C 509.261 -4.37395 -1.09528 0
M  V30 5569 C 507.923 -4.72868 -0.891598 0
M  V30 5570 C 510.275 -5.18029 -0.574046 0
M  V30 5571 C 507.603 -5.86496 -0.154655 0
M  V30 5572 C 509.955 -6.32423 0.149513 0
M  V30 5573 C 508.619 -6.66504 0.364519 0
M  V30 5574 H 507.889 -0.653333 -0.349625 0
M  V30 5575 H 510.536 -1.90183 -0.224235 0
M  V30 5576 H 508.841 -2.90291 -2.63132 0
M  V30 5577 H 510.538 -3.21553 -2.39592 0
M  V30 5578 H 507.128 -4.09538 -1.26399 0
M  V30 5579 H 511.312 -4.91066 -0.718899 0
M  V30 5580 H 506.568 -6.11396 0.0222356 0
M  V30 5581 H 510.742 -6.94137 0.560947 0
M  V30 5582 H 508.369 -7.54397 0.937495 0
M  V30 5583 N 509.944 0.496216 -1.49584 0
M  V30 5584 C 511.221 1.25755 -1.49816 0
M  V30 5585 C 511.601 2.09859 -0.228572 0
M  V30 5586 O 510.949 2.14449 0.788908 0
M  V30 5587 C 511.159 2.11017 -2.7798 0
M  V30 5588 C 512.507 2.70047 -3.27658 0
M  V30 5589 O 513.531 2.21281 -2.79129 0
M  V30 5590 O 512.39 3.58834 -4.1219 0
M  V30 5591 H 509.484 0.569322 -0.599834 0
M  V30 5592 H 512.03 0.510094 -1.61852 0
M  V30 5593 H 510.802 1.48879 -3.61871 0
M  V30 5594 H 510.425 2.92947 -2.68827 0
M  V30 5595 N 511.423 1.38739 0.74761 0
M  V30 5596 C 512.37 1.36449 1.86146 0
M  V30 5597 C 513.34 0.226098 1.64554 0
M  V30 5598 O 514.525 0.41926 1.86137 0
M  V30 5599 C 511.665 1.2013 3.23516 0
M  V30 5600 C 510.778 2.43407 3.56899 0
M  V30 5601 C 509.913 2.19773 4.83605 0
M  V30 5602 C 508.952 3.3879 5.09792 0
M  V30 5603 N 508.089 3.14553 6.27695 0
M  V30 5604 H 512.929 2.3167 1.87438 0
M  V30 5605 H 510.466 1.15094 0.916063 0
M  V30 5606 H 512.424 1.08683 4.02795 0
M  V30 5607 H 511.054 0.285453 3.21535 0
M  V30 5608 H 510.106 2.65504 2.72418 0
M  V30 5609 H 511.418 3.32094 3.72176 0
M  V30 5610 H 510.572 2.05496 5.70838 0
M  V30 5611 H 509.311 1.28461 4.70478 0
M  V30 5612 H 508.316 3.53579 4.21025 0
M  V30 5613 H 509.541 4.30986 5.24812 0
M  V30 5614 H 507.487 2.25893 6.1588 0
M  V30 5615 H 507.404 3.96791 6.435 0
M  V30 5616 H 508.672 3.03943 7.17801 0
M  V30 5617 N 512.901 -0.976442 1.23707 0
M  V30 5618 C 513.831 -2.08749 1.04624 0
M  V30 5619 C 514.812 -1.70057 -0.0380956 0
M  V30 5620 O 515.997 -1.93782 0.127308 0
M  V30 5621 C 513.127 -3.41335 0.640902 0
M  V30 5622 C 512.081 -3.93947 1.67302 0
M  V30 5623 C 511.407 -5.22774 1.12301 0
M  V30 5624 C 512.707 -4.22769 3.06697 0
M  V30 5625 H 514.401 -2.24972 1.97555 0
M  V30 5626 H 511.947 -1.08108 0.951247 0
M  V30 5627 H 513.9 -4.18489 0.494434 0
M  V30 5628 H 512.624 -3.24988 -0.324099 0
M  V30 5629 H 511.283 -3.18941 1.80755 0
M  V30 5630 H 510.931 -5.0278 0.148877 0
M  V30 5631 H 510.631 -5.58942 1.81267 0
M  V30 5632 H 512.155 -6.02546 0.988479 0
M  V30 5633 H 513.569 -4.90659 2.96524 0
M  V30 5634 H 511.966 -4.70147 3.72937 0
M  V30 5635 H 513.036 -3.29885 3.55392 0
M  V30 5636 N 514.379 -1.04941 -1.1758 0
M  V30 5637 C 515.609 -0.777166 -1.91425 0
M  V30 5638 C 516.017 0.670647 -1.76915 0
M  V30 5639 O 515.36 1.46965 -1.10213 0
M  V30 5640 C 515.422 -1.07495 -3.43052 0
M  V30 5641 C 515.086 -2.51844 -3.81345 0
M  V30 5642 C 516.083 -3.50047 -3.844 0
M  V30 5643 C 513.768 -2.86787 -4.12382 0
M  V30 5644 C 515.762 -4.81239 -4.17957 0
M  V30 5645 C 513.449 -4.18182 -4.45608 0
M  V30 5646 C 514.447 -5.15219 -4.48373 0
M  V30 5647 O 514.135 -6.44258 -4.80819 0
M  V30 5648 H 513.867 -0.282209 -0.614275 0
M  V30 5649 H 516.421 -1.40258 -1.50056 0
M  V30 5650 H 514.651 -0.392437 -3.84704 0
M  V30 5651 H 516.34 -0.78912 -3.98155 0
M  V30 5652 H 517.106 -3.24391 -3.60548 0
M  V30 5653 H 512.985 -2.11922 -4.09402 0
M  V30 5654 H 516.529 -5.56974 -4.2003 0
M  V30 5655 H 512.426 -4.43602 -4.68922 0
M  V30 5656 H 513.194 -6.49041 -4.98686 0
M  V30 5657 N 515.857 1.33968 -0.830081 0
M  V30 5658 C 516.804 2.29387 -0.255008 0
M  V30 5659 C 517.774 1.53923 0.624243 0
M  V30 5660 O 518.959 1.82262 0.564372 0
M  V30 5661 C 516.099 3.4034 0.571209 0
M  V30 5662 C 515.212 4.30729 -0.331083 0
M  V30 5663 C 514.347 5.2879 0.505389 0
M  V30 5664 C 513.386 6.10819 -0.395843 0
M  V30 5665 N 512.523 7.00948 0.401979 0
M  V30 5666 H 517.363 2.77972 -1.07404 0
M  V30 5667 H 514.9 1.36785 -0.541133 0
M  V30 5668 H 516.858 4.03361 1.06562 0
M  V30 5669 H 515.488 2.9297 1.35529 0
M  V30 5670 H 514.54 3.68507 -0.943759 0
M  V30 5671 H 515.852 4.88181 -1.02377 0
M  V30 5672 H 515.006 5.97297 1.06399 0
M  V30 5673 H 513.745 4.71894 1.23155 0
M  V30 5674 H 512.75 5.41238 -0.966529 0
M  V30 5675 H 513.975 6.69797 -1.12023 0
M  V30 5676 H 511.921 6.46512 1.11168 0
M  V30 5677 H 511.838 7.55643 -0.232167 0
M  V30 5678 H 513.106 7.73774 0.943102 0
M  V30 5679 N 517.335 0.585699 1.46312 0
M  V30 5680 C 518.56 0.0762461 2.0726 0
M  V30 5681 C 518.985 -1.22071 1.43109 0
M  V30 5682 O 518.343 -1.73804 0.515942 0
M  V30 5683 C 518.391 -0.0729404 3.60526 0
M  V30 5684 O 517.495 -1.1287 3.96654 0
M  V30 5685 H 516.836 0.0641558 0.660893 0
M  V30 5686 H 519.366 0.809492 1.87905 0
M  V30 5687 H 519.376 -0.278158 4.07051 0
M  V30 5688 H 518.051 0.874188 4.06609 0
M  V30 5689 H 516.628 -0.901703 3.61834 0
M  V30 5690 N 518.813 -1.54241 0.323641 0
M  V30 5691 C 519.743 -2.27289 -0.534993 0
M  V30 5692 C 520.724 -1.28087 -1.11927 0
M  V30 5693 O 521.909 -1.56899 -1.14439 0
M  V30 5694 C 519.039 -3.03075 -1.69596 0
M  V30 5695 C 517.993 -4.09614 -1.24098 0
M  V30 5696 C 517.319 -4.73242 -2.4889 0
M  V30 5697 C 518.619 -5.21087 -0.355789 0
M  V30 5698 H 520.313 -2.99308 0.0743257 0
M  V30 5699 H 517.859 -1.43952 0.0371874 0
M  V30 5700 H 519.812 -3.52907 -2.30293 0
M  V30 5701 H 518.536 -2.28673 -2.33187 0
M  V30 5702 H 517.195 -3.60666 -0.656945 0
M  V30 5703 H 516.843 -3.95455 -3.10845 0
M  V30 5704 H 516.543 -5.45209 -2.19138 0
M  V30 5705 H 518.067 -5.25848 -3.10348 0
M  V30 5706 H 519.481 -5.66675 -0.869042 0
M  V30 5707 H 517.878 -5.9991 -0.151045 0
M  V30 5708 H 518.948 -4.81005 0.613339 0
M  V30 5709 N 520.291 -0.0518155 -1.57515 0
M  V30 5710 C 521.224 0.957758 -2.07129 0
M  V30 5711 C 522.202 1.30355 -0.971927 0
M  V30 5712 O 523.386 1.41631 -1.2439 0
M  V30 5713 C 520.513 2.27157 -2.51232 0
M  V30 5714 C 519.559 2.07879 -3.72409 0
M  V30 5715 S 520.392 1.35656 -5.18033 0
M  V30 5716 C 521.548 2.68359 -5.65451 0
M  V30 5717 H 521.781 0.53552 -2.92437 0
M  V30 5718 H 519.314 0.160465 -1.53564 0
M  V30 5719 H 521.272 3.02676 -2.77304 0
M  V30 5720 H 519.933 2.66509 -1.66228 0
M  V30 5721 H 519.126 3.05061 -4.01191 0
M  V30 5722 H 518.728 1.40499 -3.46606 0
M  V30 5723 H 521.02 3.64526 -5.71076 0
M  V30 5724 H 521.963 2.44213 -6.64654 0
M  V30 5725 H 522.371 2.74647 -4.93183 0
M  V30 5726 N 521.769 1.56035 0.221574 0
M  V30 5727 C 523.016 1.79047 0.94597 0
M  V30 5728 C 523.344 0.62057 1.84334 0
M  V30 5729 O 522.599 -0.395053 1.91671 0
M  V30 5730 C 522.898 3.07813 1.8162 0
M  V30 5731 C 522.564 4.3797 1.07206 0
M  V30 5732 C 521.226 4.73334 0.866508 0
M  V30 5733 C 523.578 5.18326 0.546565 0
M  V30 5734 C 520.906 5.8657 0.123549 0
M  V30 5735 C 523.258 6.32335 -0.18305 0
M  V30 5736 C 521.922 6.66301 -0.399861 0
M  V30 5737 H 521.192 0.655178 0.346155 0
M  V30 5738 H 523.839 1.90299 0.214146 0
M  V30 5739 H 522.144 2.91682 2.61589 0
M  V30 5740 H 523.841 3.2282 2.37884 0
M  V30 5741 H 520.431 4.10202 1.24226 0
M  V30 5742 H 524.615 4.9144 0.692847 0
M  V30 5743 H 519.871 6.11376 -0.0546591 0
M  V30 5744 H 524.045 6.9383 -0.59775 0
M  V30 5745 H 521.672 7.53889 -0.977489 0
M  V30 5746 N 523.247 -0.488276 1.49845 0
M  V30 5747 C 524.495 -1.23911 1.59657 0
M  V30 5748 C 524.816 -1.92816 0.291005 0
M  V30 5749 O 524.086 -1.83328 -0.690485 0
M  V30 5750 H 522.666 -0.460357 0.588286 0
M  V30 5751 H 525.328 -0.564794 1.86537 0
M  V30 5752 H 524.424 -1.99625 2.39909 0
M  V30 5753 N 524.725 -1.39134 -0.740242 0
M  V30 5754 C 525.972 -1.36071 -1.49969 0
M  V30 5755 C 526.3 0.0450245 -1.94448 0
M  V30 5756 O 525.555 1.02482 -1.66721 0
M  V30 5757 C 525.854 -2.27457 -2.75678 0
M  V30 5758 C 525.52 -3.75185 -2.50094 0
M  V30 5759 C 524.182 -4.15439 -2.42825 0
M  V30 5760 C 526.534 -4.68643 -2.28086 0
M  V30 5761 C 523.862 -5.4722 -2.11584 0
M  V30 5762 C 526.214 -6.00695 -1.98363 0
M  V30 5763 C 524.878 -6.40018 -1.8956 0
M  V30 5764 H 524.148 -0.497921 -0.548777 0
M  V30 5765 H 526.795 -1.71599 -0.85007 0
M  V30 5766 H 525.1 -1.8503 -3.45356 0
M  V30 5767 H 526.797 -2.22384 -3.33686 0
M  V30 5768 H 523.387 -3.43279 -2.56627 0
M  V30 5769 H 527.571 -4.3838 -2.32672 0
M  V30 5770 H 522.827 -5.76615 -2.03287 0
M  V30 5771 H 527.001 -6.72644 -1.80341 0
M  V30 5772 H 524.628 -7.42051 -1.65117 0
M  V30 5773 N 526.204 0.969867 -1.24223 0
M  V30 5774 C 527.432 1.74756 -1.10761 0
M  V30 5775 C 527.847 1.85713 0.340041 0
M  V30 5776 O 527.204 1.34389 1.23474 0
M  V30 5777 C 527.255 3.16915 -1.73917 0
M  V30 5778 O 526.976 3.06511 -3.13021 0
M  V30 5779 C 528.477 4.11032 -1.66036 0
M  V30 5780 H 525.697 0.548092 -0.387087 0
M  V30 5781 H 528.241 1.2178 -1.64286 0
M  V30 5782 H 526.396 3.66884 -1.244 0
M  V30 5783 H 526.81 3.96079 -3.43834 0
M  V30 5784 H 528.284 5.08446 -2.14911 0
M  V30 5785 H 528.761 4.34785 -0.621159 0
M  V30 5786 H 529.367 3.66972 -2.14969 0
M  V30 5787 N 527.682 1.05563 1.17022 0
M  V30 5788 C 528.592 0.670758 2.24807 0
M  V30 5789 C 529.608 -0.309865 1.71219 0
M  V30 5790 O 530.784 -0.161025 2.00755 0
M  V30 5791 C 527.849 0.055337 3.46656 0
M  V30 5792 C 526.91 1.08688 4.15314 0
M  V30 5793 C 526.143 0.500736 5.31346 0
M  V30 5794 O 526.366 -0.688718 5.66227 0
M  V30 5795 O 525.3 1.23683 5.89055 0
M  V30 5796 H 529.126 1.56914 2.60023 0
M  V30 5797 H 526.711 0.827428 1.24395 0
M  V30 5798 H 528.593 -0.286492 4.20425 0
M  V30 5799 H 527.268 -0.816638 3.13229 0
M  V30 5800 H 526.175 1.48077 3.43546 0
M  V30 5801 H 527.508 1.93014 4.52777 0
M  V30 5802 N 529.16 -1.33526 0.837174 0
M  V30 5803 C 530.388 -2.02047 0.445494 0
M  V30 5804 C 530.803 -1.62995 -0.952788 0
M  V30 5805 O 530.16 -0.842447 -1.61892 0
M  V30 5806 C 530.211 -3.57221 0.554577 0
M  V30 5807 O 529.932 -3.94863 1.89776 0
M  V30 5808 C 531.433 -4.43012 0.159634 0
M  V30 5809 H 528.653 -0.647221 0.177048 0
M  V30 5810 H 531.197 -1.70492 1.12928 0
M  V30 5811 H 529.352 -3.87315 -0.0812781 0
M  V30 5812 H 529.766 -4.89569 1.88208 0
M  V30 5813 H 531.24 -5.51253 0.28701 0
M  V30 5814 H 531.717 -4.29916 -0.898289 0
M  V30 5815 H 532.323 -4.18274 0.769855 0
M  V30 5816 N 530.638 -0.59345 -1.46 0
M  V30 5817 C 531.586 0.146268 -2.3214 0
M  V30 5818 C 532.58 0.873743 -1.45128 0
M  V30 5819 O 533.786 0.790912 -1.61693 0
M  V30 5820 H 530.161 0.0660349 -0.749095 0
M  V30 5821 H 532.132 -0.598895 -2.92328 0
M  V30 5822 C 530.881 1.1396 -3.28494 0
M  V30 5823 H 530.204 0.589252 -3.95434 0
M  V30 5824 H 531.644 1.62738 -3.91526 0
M  V30 5825 C 530.103 2.20604 -2.54628 0
M  V30 5826 O 530.633 3.28128 -2.31722 0
M  V30 5827 N 528.839 1.95502 -2.15005 0
M  V30 5828 H 528.386 1.0807 -2.33834 0
M  V30 5829 H 528.344 2.67064 -1.65904 0
M  V30 5830 N 532.116 1.54067 -0.331816 0
M  V30 5831 C 533.365 1.99895 0.269209 0
M  V30 5832 C 533.678 1.22371 1.52593 0
M  V30 5833 O 534.884 1.58618 2.20347 0
M  V30 5834 C 533.34 3.55972 0.530244 0
M  V30 5835 C 532.948 4.4234 -0.709901 0
M  V30 5836 C 534.692 4.10247 1.09077 0
M  V30 5837 C 532.599 5.89905 -0.420312 0
M  V30 5838 H 531.529 0.746741 0.104371 0
M  V30 5839 H 534.18 1.78014 -0.445324 0
M  V30 5840 H 532.562 3.73873 1.30518 0
M  V30 5841 H 533.736 4.36215 -1.48504 0
M  V30 5842 H 532.051 3.98997 -1.19123 0
M  V30 5843 H 534.648 5.18095 1.32219 0
M  V30 5844 H 534.991 3.62739 2.0427 0
M  V30 5845 H 535.524 3.96011 0.376824 0
M  V30 5846 H 532.263 6.41623 -1.34164 0
M  V30 5847 H 531.783 5.98962 0.316962 0
M  V30 5848 H 533.462 6.46991 -0.0331956 0
M  V30 5849 N 533.594 0.0601682 1.57485 0
M  V30 5850 C 534.557 -0.896373 2.10945 0
M  V30 5851 C 535.557 -1.23402 1.03095 0
M  V30 5852 O 536.747 -1.16921 1.29132 0
M  V30 5853 C 533.879 -2.20346 2.60116 0
M  V30 5854 H 535.072 -0.432778 2.96761 0
M  V30 5855 H 532.625 -0.188372 1.55161 0
M  V30 5856 H 533.36 -2.71268 1.7772 0
M  V30 5857 H 533.145 -1.9714 3.38937 0
M  V30 5858 H 534.635 -2.88846 3.01592 0
M  V30 5859 N 535.072 -1.5615 -0.213296 0
M  V30 5860 C 535.982 -1.96265 -1.28519 0
M  V30 5861 C 536.998 -0.86765 -1.50824 0
M  V30 5862 O 538.174 -1.17191 -1.63793 0
M  V30 5863 C 535.239 -2.27836 -2.61327 0
M  V30 5864 C 534.3 -3.50949 -2.47252 0
M  V30 5865 C 533.533 -3.81004 -3.73727 0
M  V30 5866 O 533.756 -3.12612 -4.77106 0
M  V30 5867 O 532.69 -4.74477 -3.70344 0
M  V30 5868 H 536.516 -2.87631 -0.974795 0
M  V30 5869 H 534.101 -1.43467 -0.416832 0
M  V30 5870 H 535.983 -2.49299 -3.39747 0
M  V30 5871 H 534.658 -1.39643 -2.9203 0
M  V30 5872 H 533.565 -3.34754 -1.67004 0
M  V30 5873 H 534.898 -4.39551 -2.21486 0
M  V30 5874 N 536.55 0.480323 -1.50102 0
M  V30 5875 C 537.498 1.60024 -1.68805 0
M  V30 5876 C 538.492 1.60089 -0.553888 0
M  V30 5877 O 539.698 1.64349 -0.734127 0
M  V30 5878 H 536.073 0.530841 -0.532646 0
M  V30 5879 H 538.044 1.41408 -2.62767 0
M  V30 5880 C 536.793 2.98029 -1.79092 0
M  V30 5881 H 536.116 2.98694 -2.65748 0
M  V30 5882 H 537.556 3.75871 -1.96206 0
M  V30 5883 C 536.015 3.32538 -0.540388 0
M  V30 5884 O 536.545 4.00386 0.324637 0
M  V30 5885 N 534.751 2.87873 -0.397154 0
M  V30 5886 H 534.298 2.32834 -1.1021 0
M  V30 5887 H 534.256 3.11328 0.438425 0
M  V30 5888 N 538.028 1.39524 0.732853 0
M  V30 5889 C 539.258 1.3994 1.51988 0
M  V30 5890 C 539.666 -0.00727973 1.89199 0
M  V30 5891 O 539.009 -0.989521 1.54771 0
M  V30 5892 C 539.071 2.21026 2.83527 0
M  V30 5893 C 538.735 3.69633 2.68738 0
M  V30 5894 C 539.732 4.62665 2.37143 0
M  V30 5895 C 537.417 4.13244 2.85542 0
M  V30 5896 C 539.411 5.97291 2.22536 0
M  V30 5897 C 537.098 5.47945 2.70554 0
M  V30 5898 C 538.096 6.39783 2.39097 0
M  V30 5899 O 537.784 7.72002 2.24204 0
M  V30 5900 H 537.516 0.479795 0.476206 0
M  V30 5901 H 540.07 1.8399 0.913054 0
M  V30 5902 H 538.3 1.71728 3.46477 0
M  V30 5903 H 539.989 2.13594 3.45156 0
M  V30 5904 H 540.755 4.30272 2.2381 0
M  V30 5905 H 536.634 3.42094 3.09019 0
M  V30 5906 H 540.178 6.68939 1.97905 0
M  V30 5907 H 536.075 5.79928 2.83466 0
M  V30 5908 H 536.843 7.8275 2.39258 0
M  V30 5909 N 539.506 -0.963266 1.24736 0
M  V30 5910 C 540.453 -2.05857 1.04363 0
M  V30 5911 C 541.423 -1.6604 -0.0444951 0
M  V30 5912 O 542.608 -1.90477 0.110999 0
M  V30 5913 C 539.748 -3.38745 0.659235 0
M  V30 5914 C 538.861 -3.9173 1.82131 0
M  V30 5915 C 537.996 -5.12906 1.38208 0
M  V30 5916 C 537.035 -5.58098 2.51382 0
M  V30 5917 N 536.172 -6.7049 2.08295 0
M  V30 5918 H 541.012 -2.22616 1.98107 0
M  V30 5919 H 538.549 -1.09103 0.986661 0
M  V30 5920 H 540.507 -4.15107 0.417371 0
M  V30 5921 H 539.137 -3.21898 -0.241201 0
M  V30 5922 H 538.189 -3.11966 2.17672 0
M  V30 5923 H 539.501 -4.21225 2.67153 0
M  V30 5924 H 538.655 -5.96657 1.09935 0
M  V30 5925 H 537.394 -4.85105 0.502456 0
M  V30 5926 H 536.399 -4.72917 2.80409 0
M  V30 5927 H 537.624 -5.87911 3.39909 0
M  V30 5928 H 535.57 -6.44416 1.22737 0
M  V30 5929 H 535.487 -6.99458 2.86869 0
M  V30 5930 H 536.755 -7.57672 1.83175 0
M  V30 5931 N 540.985 -1.06182 -1.16461 0
M  V30 5932 C 542.234 -0.772927 -1.86303 0
M  V30 5933 C 542.547 0.703187 -1.82523 0
M  V30 5934 O 543.753 1.10641 -2.47933 0
M  V30 5935 C 542.209 -1.33249 -3.34324 0
M  V30 5936 C 541.817 -2.83876 -3.46581 0
M  V30 5937 C 543.561 -1.12108 -4.09429 0
M  V30 5938 C 541.468 -3.33082 -4.88682 0
M  V30 5939 H 540.398 -0.285452 -0.697878 0
M  V30 5940 H 543.049 -1.28039 -1.31447 0
M  V30 5941 H 541.431 -0.7528 -3.88779 0
M  V30 5942 H 542.605 -3.47786 -3.02293 0
M  V30 5943 H 540.92 -3.03671 -2.84909 0
M  V30 5944 H 543.517 -1.46361 -5.14279 0
M  V30 5945 H 543.86 -0.0593832 -4.16258 0
M  V30 5946 H 544.393 -1.6665 -3.6121 0
M  V30 5947 H 541.132 -4.38726 -4.87032 0
M  V30 5948 H 540.652 -2.73919 -5.33599 0
M  V30 5949 H 542.331 -3.28344 -5.57494 0
M  V30 5950 N 542.463 1.3308 -0.844243 0
M  V30 5951 C 543.41 2.29104 -0.279323 0
M  V30 5952 C 544.38 1.54577 0.607882 0
M  V30 5953 O 545.565 1.8285 0.545009 0
M  V30 5954 C 542.705 3.40927 0.53508 0
M  V30 5955 C 541.818 4.30354 -0.376749 0
M  V30 5956 C 540.953 5.29297 0.449276 0
M  V30 5957 C 539.992 6.10365 -0.460606 0
M  V30 5958 N 539.129 7.01335 0.327612 0
M  V30 5959 H 543.969 2.76817 -1.10346 0
M  V30 5960 H 541.506 1.36203 -0.555611 0
M  V30 5961 H 543.464 4.04469 1.02278 0
M  V30 5962 H 542.094 2.94391 1.32414 0
M  V30 5963 H 541.146 3.67485 -0.982791 0
M  V30 5964 H 542.458 4.87067 -1.07549 0
M  V30 5965 H 541.612 5.98392 1.00058 0
M  V30 5966 H 540.351 4.73174 1.18143 0
M  V30 5967 H 539.356 5.40182 -1.02388 0
M  V30 5968 H 540.581 6.68571 -1.1912 0
M  V30 5969 H 538.527 6.47655 1.04305 0
M  V30 5970 H 538.444 7.55355 -0.3123 0
M  V30 5971 H 539.712 7.74731 0.86098 0
M  V30 5972 N 543.941 0.601185 1.45683 0
M  V30 5973 C 545.169 0.100054 2.06658 0
M  V30 5974 C 545.584 -1.21285 1.44691 0
M  V30 5975 O 544.941 -1.73735 0.558772 0
M  V30 5976 C 544.992 -0.0528579 3.61461 0
M  V30 5977 O 544.713 1.20809 4.21114 0
M  V30 5978 C 546.214 -0.586193 4.39407 0
M  V30 5979 H 543.434 0.065905 0.667756 0
M  V30 5980 H 545.978 0.827101 1.87028 0
M  V30 5981 H 544.133 -0.730203 3.80456 0
M  V30 5982 H 544.547 1.03368 5.14213 0
M  V30 5983 H 546.021 -0.642297 5.4825 0
M  V30 5984 H 546.498 -1.60713 4.0874 0
M  V30 5985 H 547.104 0.0568935 4.25262 0
M  V30 5986 N 545.419 -1.53889 0.339982 0
M  V30 5987 C 546.835 -1.59595 -0.0120752 0
M  V30 5988 C 547.035 -1.35605 -1.49042 0
M  V30 5989 O 546.091 -1.14856 -2.24865 0
M  V30 5990 C 547.404 -2.9774 0.420898 0
M  V30 5991 C 548.952 -3.1077 0.37294 0
M  V30 5992 C 549.427 -4.51286 0.781327 0
M  V30 5993 N 550.918 -4.57325 0.735374 0
M  V30 5994 C 551.653 -5.64194 1.02336 0
M  V30 5995 N 551.149 -6.7893 1.37933 0
M  V30 5996 N 552.942 -5.54051 0.947838 0
M  V30 5997 H 545.093 -1.67738 1.30299 0
M  V30 5998 H 547.356 -0.785385 0.530918 0
M  V30 5999 H 547.062 -3.20349 1.45152 0
M  V30 6000 H 546.936 -3.76639 -0.205721 0
M  V30 6001 H 549.323 -2.87886 -0.648505 0
M  V30 6002 H 549.404 -2.33939 1.03472 0
M  V30 6003 H 549.048 -4.74905 1.80077 0
M  V30 6004 H 548.978 -5.26511 0.0970679 0
M  V30 6005 H 551.469 -3.74931 0.472773 0
M  V30 6006 H 551.782 -7.56392 1.58402 0
M  V30 6007 H 550.127 -6.80386 1.41774 0
M  V30 6008 H 553.318 -4.63293 0.669115 0
M  V30 6009 H 553.491 -6.37246 1.17563 0
M  V30 6010 N 546.897 -0.0685191 -1.57451 0
M  V30 6011 C 547.86 0.885173 -2.11417 0
M  V30 6012 C 548.86 1.22853 -1.03748 0
M  V30 6013 O 550.05 1.16235 -1.2975 0
M  V30 6014 C 547.182 2.18964 -2.61281 0
M  V30 6015 H 548.375 0.417034 -2.96986 0
M  V30 6016 H 545.928 0.18014 -1.55258 0
M  V30 6017 H 546.663 2.70321 -1.79156 0
M  V30 6018 H 546.448 1.9534 -3.39977 0
M  V30 6019 H 547.938 2.87242 -3.0312 0
M  V30 6020 N 548.375 1.56261 0.205012 0
M  V30 6021 C 549.6 1.84491 0.947512 0
M  V30 6022 C 550.025 0.650894 1.76479 0
M  V30 6023 O 549.383 -0.40035 1.76824 0
M  V30 6024 C 549.431 3.10863 1.82747 0
M  V30 6025 O 548.535 2.90719 2.925 0
M  V30 6026 H 547.876 0.607783 0.267386 0
M  V30 6027 H 550.406 2.03485 0.213323 0
M  V30 6028 H 550.416 3.41399 2.23407 0
M  V30 6029 H 549.091 3.97392 1.2269 0
M  V30 6030 H 547.668 2.71457 2.55667 0
M  V30 6031 N 549.853 -0.472356 1.50355 0
M  V30 6032 C 551.083 -1.24603 1.64796 0
M  V30 6033 C 551.491 -1.86297 0.330156 0
M  V30 6034 O 550.834 -1.69934 -0.697728 0
M  V30 6035 C 550.896 -2.39578 2.68035 0
M  V30 6036 C 550.56 -1.98531 4.11624 0
M  V30 6037 C 551.557 -1.50856 4.97532 0
M  V30 6038 C 549.242 -2.0729 4.57532 0
M  V30 6039 C 551.236 -1.12481 6.27397 0
M  V30 6040 C 548.923 -1.68527 5.87403 0
M  V30 6041 C 549.921 -1.212 6.7216 0
M  V30 6042 O 549.609 -0.829728 7.99607 0
M  V30 6043 H 549.341 -0.383035 0.55701 0
M  V30 6044 H 551.895 -0.570392 1.97321 0
M  V30 6045 H 550.125 -3.10309 2.30749 0
M  V30 6046 H 551.814 -3.01544 2.71709 0
M  V30 6047 H 552.58 -1.43511 4.63281 0
M  V30 6048 H 548.459 -2.43076 3.91708 0
M  V30 6049 H 552.003 -0.754698 6.93506 0
M  V30 6050 H 547.9 -1.7553 6.21176 0
M  V30 6051 H 548.668 -0.958689 8.12866 0
M  V30 6052 N 551.331 -1.39911 -0.725443 0
M  V30 6053 C 552.578 -1.37654 -1.48518 0
M  V30 6054 C 552.906 0.0243982 -1.94485 0
M  V30 6055 O 552.161 1.00708 -1.67799 0
M  V30 6056 C 552.46 -2.30368 -2.7325 0
M  V30 6057 C 552.126 -3.77817 -2.461 0
M  V30 6058 C 550.788 -4.17991 -2.38405 0
M  V30 6059 C 553.14 -4.71036 -2.23103 0
M  V30 6060 C 550.468 -5.49433 -2.05768 0
M  V30 6061 C 552.82 -6.02766 -1.9198 0
M  V30 6062 C 551.484 -6.41993 -1.82761 0
M  V30 6063 H 550.754 -0.503713 -0.543465 0
M  V30 6064 H 553.401 -1.7249 -0.831822 0
M  V30 6065 H 551.706 -1.88683 -3.43375 0
M  V30 6066 H 553.403 -2.2591 -3.31309 0
M  V30 6067 H 549.993 -3.45982 -2.52972 0
M  V30 6068 H 554.177 -4.40823 -2.2801 0
M  V30 6069 H 549.433 -5.78738 -1.9716 0
M  V30 6070 H 553.607 -6.74519 -1.73197 0
M  V30 6071 H 551.234 -7.43761 -1.57237 0
M  V30 6072 N 552.809 0.956637 -1.25245 0
M  V30 6073 C 554.034 1.74104 -1.12706 0
M  V30 6074 C 554.459 1.85436 0.315429 0
M  V30 6075 O 553.817 1.33334 1.22848 0
M  V30 6076 C 553.865 3.1338 -1.78396 0
M  V30 6077 O 552.969 3.98485 -1.06224 0
M  V30 6078 H 552.31 0.53476 -0.393609 0
M  V30 6079 H 554.84 1.19924 -1.65769 0
M  V30 6080 H 554.85 3.6385 -1.846 0
M  V30 6081 H 553.525 3.04448 -2.83345 0
M  V30 6082 H 552.102 3.56952 -1.07886 0
M  V30 6083 N 554.287 1.06798 1.15896 0
M  V30 6084 C 555.564 0.701057 1.82605 0
M  V30 6085 C 555.944 -0.817066 1.94646 0
M  V30 6086 O 555.292 -1.72933 1.49353 0
M  V30 6087 C 555.502 1.40895 3.19296 0
M  V30 6088 C 556.85 1.55744 3.95005 0
M  V30 6089 O 557.874 1.36927 3.28831 0
M  V30 6090 O 556.733 1.86658 5.13635 0
M  V30 6091 H 553.827 0.248791 0.78869 0
M  V30 6092 H 556.373 1.16857 1.23055 0
M  V30 6093 H 555.145 2.4439 3.05596 0
M  V30 6094 H 554.768 0.931847 3.86526 0
M  V30 6095 N 555.766 -1.3263 0.851289 0
M  V30 6096 C 556.991 -2.02097 0.466006 0
M  V30 6097 C 557.416 -1.63574 -0.928709 0
M  V30 6098 O 556.774 -0.834665 -1.60944 0
M  V30 6099 C 556.822 -3.55425 0.608737 0
M  V30 6100 O 555.926 -4.10827 -0.359878 0
M  V30 6101 H 555.267 -0.636911 0.187724 0
M  V30 6102 H 557.797 -1.69253 1.14955 0
M  V30 6103 H 557.807 -4.04986 0.495006 0
M  V30 6104 H 556.482 -3.82806 1.62581 0
M  V30 6105 H 555.059 -3.72349 -0.202666 0
M  V30 6106 N 557.244 -0.608902 -1.45362 0
M  V30 6107 C 558.174 0.0964526 -2.33301 0
M  V30 6108 C 559.155 0.857444 -1.46908 0
M  V30 6109 O 560.34 0.827735 -1.75676 0
M  V30 6110 C 557.47 1.09354 -3.29635 0
M  V30 6111 C 556.424 0.445676 -4.25673 0
M  V30 6112 C 555.75 1.5511 -5.11708 0
M  V30 6113 C 557.05 -0.633972 -5.18438 0
M  V30 6114 H 558.744 -0.637829 -2.92527 0
M  V30 6115 H 556.29 -0.308178 -1.40664 0
M  V30 6116 H 558.243 1.59556 -3.90025 0
M  V30 6117 H 556.967 1.85843 -2.6857 0
M  V30 6118 H 555.626 -0.0354897 -3.66583 0
M  V30 6119 H 555.274 2.30631 -4.4701 0
M  V30 6120 H 554.974 1.12311 -5.76767 0
M  V30 6121 H 556.498 2.05537 -5.74967 0
M  V30 6122 H 557.912 -0.215974 -5.72893 0
M  V30 6123 H 556.309 -0.983789 -5.91981 0
M  V30 6124 H 557.379 -1.51005 -4.60788 0
M  V30 6125 N 558.722 1.53707 -0.348139 0
M  V30 6126 C 560.133 1.86213 0.134797 0
M  V30 6127 C 560.484 1.26925 1.49614 0
M  V30 6128 O 559.609 0.584573 2.08355 0
M  V30 6129 C 560.204 3.37866 0.251371 0
M  V30 6130 C 558.763 3.70233 0.678543 0
M  V30 6131 C 557.91 2.76683 -0.184925 0
M  V30 6132 H 560.861 1.48204 -0.567571 0
M  V30 6133 H 560.882 3.64908 1.07806 0
M  V30 6134 H 560.394 3.80988 -0.739581 0
M  V30 6135 H 558.495 3.32659 1.67835 0
M  V30 6136 H 558.608 4.76836 0.465251 0
M  V30 6137 H 556.972 2.52374 0.343465 0
M  V30 6138 H 557.755 3.22635 -1.1731 0
M  V30 6139 N 560.2 0.0768682 1.57412 0
M  V30 6140 C 561.611 -0.455037 1.8107 0
M  V30 6141 C 561.962 -1.69323 0.991162 0
M  V30 6142 O 561.087 -2.15328 0.215156 0
M  V30 6143 C 561.682 -0.832316 3.28417 0
M  V30 6144 C 560.241 -1.30906 3.52903 0
M  V30 6145 C 559.388 -0.296714 2.75708 0
M  V30 6146 H 562.339 0.302514 1.5579 0
M  V30 6147 H 562.36 -1.69333 3.40744 0
M  V30 6148 H 561.872 0.0690532 3.88039 0
M  V30 6149 H 559.973 -2.22875 2.98592 0
M  V30 6150 H 560.086 -1.28348 4.61588 0
M  V30 6151 H 558.45 -0.775059 2.42621 0
M  V30 6152 H 559.233 0.597015 3.38069 0
M  V30 6153 N 561.678 -1.56367 -0.196722 0
M  V30 6154 C 562.924 -1.80796 -0.918725 0
M  V30 6155 C 563.257 -0.650645 -1.82976 0
M  V30 6156 O 562.532 0.348889 -1.91345 0
M  V30 6157 C 562.815 -3.15472 -1.73636 0
M  V30 6158 C 562.668 -4.41693 -0.85015 0
M  V30 6159 C 563.987 -3.46824 -2.70927 0
M  V30 6160 H 561.106 -0.657702 -0.332561 0
M  V30 6161 H 563.748 -1.89086 -0.186186 0
M  V30 6162 H 561.898 -3.08536 -2.36088 0
M  V30 6163 H 563.57 -4.60673 -0.240459 0
M  V30 6164 H 561.813 -4.33517 -0.156785 0
M  V30 6165 H 562.484 -5.32419 -1.45719 0
M  V30 6166 H 564.96 -3.54049 -2.18607 0
M  V30 6167 H 563.836 -4.4218 -3.25219 0
M  V30 6168 H 564.097 -2.70236 -3.49893 0
M  V30 6169 N 563.156 0.464375 -1.50603 0
M  V30 6170 C 564.103 1.56152 -1.69956 0
M  V30 6171 C 565.073 1.57046 -0.54091 0
M  V30 6172 O 566.258 1.74473 -0.772258 0
M  V30 6173 C 563.398 2.94079 -1.80586 0
M  V30 6174 C 562.511 3.02923 -3.07996 0
M  V30 6175 C 561.646 4.31806 -3.09382 0
M  V30 6176 C 560.685 4.34417 -4.31218 0
M  V30 6177 N 559.822 5.54782 -4.30304 0
M  V30 6178 H 564.662 1.38955 -2.6362 0
M  V30 6179 H 562.199 0.675482 -1.30674 0
M  V30 6180 H 564.157 3.74073 -1.8473 0
M  V30 6181 H 562.787 3.09896 -0.903556 0
M  V30 6182 H 561.839 2.1576 -3.13292 0
M  V30 6183 H 563.151 3.00712 -3.97962 0
M  V30 6184 H 562.305 5.20153 -3.12292 0
M  V30 6185 H 561.044 4.36636 -2.17257 0
M  V30 6186 H 560.049 3.44467 -4.28512 0
M  V30 6187 H 561.274 4.31273 -5.24576 0
M  V30 6188 H 559.22 5.60384 -3.41037 0
M  V30 6189 H 559.137 5.54339 -5.14047 0
M  V30 6190 H 560.405 6.45235 -4.3737 0
M  V30 6191 N 564.634 1.40294 0.718013 0
M  V30 6192 C 565.883 1.37746 1.4734 0
M  V30 6193 C 566.196 -0.0180754 1.95592 0
M  V30 6194 O 567.402 -0.166166 2.70991 0
M  V30 6195 C 565.858 2.4208 2.66318 0
M  V30 6196 C 565.466 3.87432 2.24945 0
M  V30 6197 C 567.21 2.48635 3.44065 0
M  V30 6198 C 565.117 4.83368 3.40748 0
M  V30 6199 H 564.047 0.512165 0.553356 0
M  V30 6200 H 566.698 1.66019 0.781661 0
M  V30 6201 H 565.08 2.06903 3.3765 0
M  V30 6202 H 566.254 4.3174 1.6105 0
M  V30 6203 H 564.569 3.8433 1.60249 0
M  V30 6204 H 567.166 3.17499 4.30231 0
M  V30 6205 H 567.509 1.51611 3.87711 0
M  V30 6206 H 568.042 2.82791 2.79775 0
M  V30 6207 H 564.781 5.81716 3.02136 0
M  V30 6208 H 564.301 4.43726 4.03568 0
M  V30 6209 H 565.98 5.03074 4.06848 0
M  V30 6210 N 566.112 -0.949982 1.2575 0
M  V30 6211 C 567.059 -2.04738 1.06541 0
M  V30 6212 C 568.029 -1.66078 -0.0268818 0
M  V30 6213 O 569.214 -1.90348 0.131196 0
M  V30 6214 C 566.354 -3.38027 0.695127 0
M  V30 6215 C 565.467 -3.89776 1.86276 0
M  V30 6216 C 564.602 -5.11411 1.4364 0
M  V30 6217 C 563.641 -5.554 2.57287 0
M  V30 6218 N 562.778 -6.68244 2.15395 0
M  V30 6219 H 567.618 -2.20502 2.00457 0
M  V30 6220 H 565.155 -1.0805 0.998178 0
M  V30 6221 H 567.113 -4.14641 0.461375 0
M  V30 6222 H 565.743 -3.22135 -0.207046 0
M  V30 6223 H 564.795 -3.0964 2.20969 0
M  V30 6224 H 566.107 -4.18368 2.71606 0
M  V30 6225 H 565.261 -5.95457 1.16257 0
M  V30 6226 H 564 -4.84545 0.553879 0
M  V30 6227 H 563.005 -4.69916 2.85409 0
M  V30 6228 H 564.23 -5.84272 3.46125 0
M  V30 6229 H 562.176 -6.43078 1.29565 0
M  V30 6230 H 562.093 -6.96377 2.94272 0
M  V30 6231 H 563.361 -7.55687 1.91201 0
M  V30 6232 N 567.59 -1.07411 -1.15328 0
M  V30 6233 C 568.538 -0.689316 -2.22151 0
M  V30 6234 C 569.532 0.300156 -1.6672 0
M  V30 6235 O 570.738 0.163804 -1.79253 0
M  V30 6236 H 567.113 -0.204834 -0.723566 0
M  V30 6237 H 569.084 -1.59988 -2.51886 0
M  V30 6238 C 567.833 -0.103848 -3.47545 0
M  V30 6239 H 567.156 -0.856367 -3.90521 0
M  V30 6240 H 568.596 0.127725 -4.23808 0
M  V30 6241 C 567.055 1.15563 -3.1646 0
M  V30 6242 O 567.585 2.242 -3.33312 0
M  V30 6243 N 565.791 1.06203 -2.70498 0
M  V30 6244 H 565.338 0.177933 -2.56985 0
M  V30 6245 H 565.296 1.90553 -2.50074 0
M  V30 6246 N 569.068 1.32177 -0.85831 0
M  V30 6247 C 569.998 2.31282 -0.321041 0
M  V30 6248 C 570.979 1.59841 0.581786 0
M  V30 6249 O 572.164 1.87619 0.501262 0
M  V30 6250 C 569.294 3.4385 0.48832 0
M  V30 6251 C 568.248 4.26799 -0.320391 0
M  V30 6252 C 567.574 5.31164 0.613934 0
M  V30 6253 C 568.874 4.98829 -1.54813 0
M  V30 6254 H 570.568 2.76469 -1.14915 0
M  V30 6255 H 568.114 1.32916 -0.554028 0
M  V30 6256 H 570.067 4.12224 0.874626 0
M  V30 6257 H 568.791 2.97401 1.34983 0
M  V30 6258 H 567.45 3.60077 -0.688497 0
M  V30 6259 H 567.098 4.80967 1.47239 0
M  V30 6260 H 566.798 5.8755 0.0768097 0
M  V30 6261 H 568.322 6.024 0.997336 0
M  V30 6262 H 569.736 5.59864 -1.23392 0
M  V30 6263 H 568.133 5.64957 -2.02346 0
M  V30 6264 H 569.203 4.26483 -2.30739 0
M  V30 6265 N 570.547 0.616602 1.45037 0
M  V30 6266 C 571.477 -0.0840787 2.33349 0
M  V30 6267 C 572.458 -0.849641 1.4736 0
M  V30 6268 O 573.643 -0.818407 1.76113 0
M  V30 6269 C 570.773 -1.07604 3.3021 0
M  V30 6270 C 569.727 -0.423096 4.25904 0
M  V30 6271 C 569.053 -1.52394 5.12523 0
M  V30 6272 C 570.353 0.661457 5.18095 0
M  V30 6273 H 572.047 0.653333 2.92185 0
M  V30 6274 H 569.593 0.315634 1.40498 0
M  V30 6275 H 571.546 -1.57485 3.90866 0
M  V30 6276 H 570.27 -1.84416 2.69552 0
M  V30 6277 H 568.929 0.05493 3.66559 0
M  V30 6278 H 568.577 -2.28257 4.48227 0
M  V30 6279 H 568.277 -1.09251 5.77354 0
M  V30 6280 H 569.801 -2.02485 5.76049 0
M  V30 6281 H 571.215 0.246353 5.7277 0
M  V30 6282 H 569.612 1.01517 5.91451 0
M  V30 6283 H 570.682 1.53446 4.59981 0
M  V30 6284 N 572.025 -1.5352 0.356285 0
M  V30 6285 C 573.302 -1.93405 -0.292223 0
M  V30 6286 C 573.682 -1.28901 -1.67176 0
M  V30 6287 O 573.03 -0.444632 -2.24132 0
M  V30 6288 C 573.24 -3.47223 -0.35175 0
M  V30 6289 C 574.588 -4.20389 -0.596534 0
M  V30 6290 O 575.612 -3.53554 -0.433344 0
M  V30 6291 O 574.471 -5.3881 -0.913589 0
M  V30 6292 H 571.565 -0.808666 -0.173172 0
M  V30 6293 H 574.111 -1.64713 0.408391 0
M  V30 6294 H 572.883 -3.86423 0.615841 0
M  V30 6295 H 572.506 -3.8212 -1.09864 0
M  V30 6296 N 573.503 -0.0852151 -1.57369 0
M  V30 6297 C 574.451 0.894856 -2.14698 0
M  V30 6298 C 575.445 1.29903 -1.08727 0
M  V30 6299 O 576.651 1.27471 -1.27088 0
M  V30 6300 H 573.026 0.306569 -0.686673 0
M  V30 6301 H 574.997 0.386542 -2.95886 0
M  V30 6302 C 573.746 2.14798 -2.73417 0
M  V30 6303 H 573.069 1.84585 -3.54638 0
M  V30 6304 H 574.509 2.81456 -3.1711 0
M  V30 6305 C 572.968 2.91546 -1.68828 0
M  V30 6306 O 573.498 3.85733 -1.12129 0
M  V30 6307 N 571.704 2.54901 -1.39549 0
M  V30 6308 H 571.251 1.7838 -1.85845 0
M  V30 6309 H 571.209 3.06553 -0.698054 0
M  V30 6310 N 574.981 1.5647 0.188427 0
M  V30 6311 C 575.891 1.98285 1.2538 0
M  V30 6312 C 576.907 0.891535 1.49424 0
M  V30 6313 O 578.083 1.19782 1.61908 0
M  V30 6314 C 575.148 2.31965 2.57669 0
M  V30 6315 C 574.209 3.54838 2.41638 0
M  V30 6316 C 573.442 3.86901 3.67618 0
M  V30 6317 O 573.665 3.20163 4.72072 0
M  V30 6318 O 572.599 4.80309 3.62749 0
M  V30 6319 H 576.425 2.89145 0.928912 0
M  V30 6320 H 574.01 1.44112 0.393955 0
M  V30 6321 H 575.892 2.54673 3.35737 0
M  V30 6322 H 574.567 1.44271 2.89771 0
M  V30 6323 H 573.474 3.37369 1.61658 0
M  V30 6324 H 574.807 4.43019 2.14465 0
M  V30 6325 N 576.459 -0.456382 1.50847 0
M  V30 6326 C 577.708 -1.2042 1.61808 0
M  V30 6327 C 578.021 -1.9278 0.330932 0
M  V30 6328 O 579.227 -2.69612 0.319643 0
M  V30 6329 C 577.683 -2.18891 2.85683 0
M  V30 6330 C 577.291 -1.52267 4.2133 0
M  V30 6331 C 579.035 -2.94224 3.05994 0
M  V30 6332 C 576.942 -2.4911 5.36375 0
M  V30 6333 H 575.872 -0.453177 0.602616 0
M  V30 6334 H 578.523 -0.473144 1.77295 0
M  V30 6335 H 576.905 -2.95351 2.63787 0
M  V30 6336 H 578.079 -0.814949 4.53536 0
M  V30 6337 H 576.394 -0.891594 4.06743 0
M  V30 6338 H 578.991 -3.66732 3.89117 0
M  V30 6339 H 579.334 -3.54469 2.18306 0
M  V30 6340 H 579.867 -2.24874 3.28141 0
M  V30 6341 H 576.606 -1.93582 6.26264 0
M  V30 6342 H 576.126 -3.17991 5.08569 0
M  V30 6343 H 577.805 -3.10637 5.67551 0
M  V30 6344 N 577.937 -1.40673 -0.710563 0
M  V30 6345 C 579.167 -1.4234 -1.49742 0
M  V30 6346 C 579.575 -0.022821 -1.89186 0
M  V30 6347 O 578.918 0.964773 -1.56326 0
M  V30 6348 C 578.98 -2.25509 -2.79975 0
M  V30 6349 C 578.644 -3.73862 -2.62824 0
M  V30 6350 C 579.641 -4.66379 -2.29752 0
M  V30 6351 C 577.326 -4.17735 -2.78932 0
M  V30 6352 C 579.32 -6.00756 -2.13006 0
M  V30 6353 C 577.007 -5.5218 -2.61802 0
M  V30 6354 C 578.005 -6.43505 -2.28888 0
M  V30 6355 O 577.693 -7.75472 -2.11894 0
M  V30 6356 H 577.425 -0.487311 -0.468513 0
M  V30 6357 H 579.979 -1.8542 -0.883668 0
M  V30 6358 H 578.209 -1.77218 -3.43701 0
M  V30 6359 H 579.898 -2.19058 -3.41714 0
M  V30 6360 H 580.664 -4.33778 -2.16936 0
M  V30 6361 H 576.543 -3.46967 -3.03537 0
M  V30 6362 H 580.087 -6.72003 -1.87237 0
M  V30 6363 H 575.984 -5.84365 -2.74204 0
M  V30 6364 H 576.752 -7.86458 -2.26775 0
M  V30 6365 N 579.415 0.9433 -1.26252 0
M  V30 6366 C 580.643 1.72367 -1.14443 0
M  V30 6367 C 581.058 1.86392 0.300572 0
M  V30 6368 O 580.415 1.36978 1.20596 0
M  V30 6369 C 580.466 3.13155 -1.806 0
M  V30 6370 O 580.187 2.99803 -3.19452 0
M  V30 6371 C 581.688 4.07417 -1.74717 0
M  V30 6372 H 578.908 0.539758 -0.398626 0
M  V30 6373 H 581.452 1.18268 -1.66832 0
M  V30 6374 H 579.607 3.64162 -1.32154 0
M  V30 6375 H 580.021 3.88697 -3.52158 0
M  V30 6376 H 581.495 5.03773 -2.25647 0
M  V30 6377 H 581.972 4.3337 -0.713244 0
M  V30 6378 H 582.578 3.6233 -2.22704 0
M  V30 6379 N 580.893 1.08022 1.14757 0
M  V30 6380 C 582.142 0.802468 1.8505 0
M  V30 6381 C 582.455 -0.674061 1.83619 0
M  V30 6382 O 583.661 -1.06683 2.49662 0
M  V30 6383 C 582.117 1.38551 3.32162 0
M  V30 6384 C 581.725 2.89354 3.42021 0
M  V30 6385 C 583.469 1.18608 4.07594 0
M  V30 6386 C 581.376 3.40815 4.83321 0
M  V30 6387 H 580.306 0.296518 0.693248 0
M  V30 6388 H 582.957 1.30114 1.29393 0
M  V30 6389 H 581.339 0.814556 3.87532 0
M  V30 6390 H 582.513 3.52552 2.96722 0
M  V30 6391 H 580.828 3.08165 2.80041 0
M  V30 6392 H 583.425 1.54525 5.11885 0
M  V30 6393 H 583.768 0.125599 4.1611 0
M  V30 6394 H 584.301 1.72375 3.58513 0
M  V30 6395 H 581.04 4.46418 4.79991 0
M  V30 6396 H 580.56 2.82374 5.29174 0
M  V30 6397 H 582.239 3.37171 5.522 0
M  V30 6398 N 582.371 -1.3172 0.865308 0
M  V30 6399 C 583.281 -2.32394 0.320935 0
M  V30 6400 C 584.297 -1.64511 -0.566746 0
M  V30 6401 O 585.473 -1.95969 -0.464575 0
M  V30 6402 C 582.538 -3.43462 -0.472701 0
M  V30 6403 C 581.599 -4.27015 0.442385 0
M  V30 6404 C 580.832 -5.32779 -0.313469 0
M  V30 6405 O 581.055 -5.49158 -1.54214 0
M  V30 6406 O 579.989 -6.01015 0.326257 0
M  V30 6407 H 583.815 -2.80868 1.15528 0
M  V30 6408 H 581.4 -1.35535 0.628545 0
M  V30 6409 H 583.282 -4.11172 -0.922781 0
M  V30 6410 H 581.957 -2.97159 -1.28367 0
M  V30 6411 H 580.864 -3.62075 0.940866 0
M  V30 6412 H 582.197 -4.76871 1.21882 0
M  V30 6413 N 583.85 -0.624285 -1.44708 0
M  V30 6414 C 584.76 0.0861083 -2.34442 0
M  V30 6415 C 585.776 0.84291 -1.5222 0
M  V30 6416 O 586.952 0.796723 -1.84971 0
M  V30 6417 C 584.017 1.05999 -3.30099 0
M  V30 6418 C 583.077 0.303316 -4.28227 0
M  V30 6419 C 582.311 1.23081 -5.19314 0
M  V30 6420 O 582.534 2.46929 -5.14181 0
M  V30 6421 O 581.468 0.71883 -5.97592 0
M  V30 6422 H 585.293 -0.651756 -2.96624 0
M  V30 6423 H 582.879 -0.384493 -1.44368 0
M  V30 6424 H 584.76 1.62046 -3.88997 0
M  V30 6425 H 583.436 1.77859 -2.70459 0
M  V30 6426 H 582.343 -0.300033 -3.72895 0
M  V30 6427 H 583.676 -0.375123 -4.90768 0
M  V30 6428 N 585.328 1.53329 -0.364422 0
M  V30 6429 C 586.576 2.00842 0.225189 0
M  V30 6430 C 586.897 1.25345 1.49378 0
M  V30 6431 O 586.167 0.366396 1.92443 0
M  V30 6432 H 584.747 0.742009 0.0862027 0
M  V30 6433 H 587.409 1.8863 -0.490389 0
M  V30 6434 H 586.505 3.08795 0.452987 0
M  V30 6435 N 586.806 0.0935595 1.57322 0
M  V30 6436 C 588.053 -0.570509 1.94297 0
M  V30 6437 C 588.381 -1.68286 0.97519 0
M  V30 6438 O 587.636 -1.95699 -0.00548655 0
M  V30 6439 C 587.935 -1.16692 3.37813 0
M  V30 6440 C 587.601 -0.178509 4.50547 0
M  V30 6441 C 586.263 0.0933475 4.81109 0
M  V30 6442 C 588.615 0.496472 5.1883 0
M  V30 6443 C 585.943 1.0469 5.77284 0
M  V30 6444 C 588.295 1.43849 6.16028 0
M  V30 6445 C 586.959 1.71859 6.44997 0
M  V30 6446 H 586.229 -0.208764 0.710984 0
M  V30 6447 H 588.876 0.169066 1.90752 0
M  V30 6448 H 587.181 -1.98271 3.37929 0
M  V30 6449 H 588.878 -1.6884 3.63722 0
M  V30 6450 H 585.468 -0.400584 4.26724 0
M  V30 6451 H 589.652 0.299584 4.95395 0
M  V30 6452 H 584.908 1.27094 5.98044 0
M  V30 6453 H 589.082 1.96734 6.68034 0
M  V30 6454 H 586.709 2.45906 7.19329 0
M  V30 6455 N 588.284 -1.56567 -0.180126 0
M  V30 6456 C 589.232 -1.96632 -1.24251 0
M  V30 6457 C 590.226 -0.853818 -1.46309 0
M  V30 6458 O 591.432 -1.0389 -1.46993 0
M  V30 6459 H 587.807 -0.625476 -0.417473 0
M  V30 6460 H 589.778 -2.85201 -0.877679 0
M  V30 6461 C 588.527 -2.33486 -2.57642 0
M  V30 6462 H 587.85 -3.18626 -2.4149 0
M  V30 6463 H 589.29 -2.65371 -3.30688 0
M  V30 6464 C 587.749 -1.17499 -3.15746 0
M  V30 6465 O 588.279 -0.457956 -3.99081 0
M  V30 6466 N 586.485 -0.94786 -2.74707 0
M  V30 6467 H 586.032 -1.53269 -2.07042 0
M  V30 6468 H 585.99 -0.173626 -3.1392 0
M  V30 6469 N 589.762 0.448376 -1.51087 0
M  V30 6470 C 591.011 1.19561 -1.62444 0
M  V30 6471 C 591.324 1.92602 -0.341151 0
M  V30 6472 O 592.53 2.69439 -0.333936 0
M  V30 6473 C 590.986 2.17373 -2.8684 0
M  V30 6474 C 590.594 1.5003 -4.22131 0
M  V30 6475 C 592.338 2.92597 -3.0755 0
M  V30 6476 C 590.245 2.46262 -5.37689 0
M  V30 6477 H 589.175 0.449975 -0.605011 0
M  V30 6478 H 591.826 0.463735 -1.77544 0
M  V30 6479 H 590.208 2.93948 -2.65349 0
M  V30 6480 H 591.382 0.790886 -4.53962 0
M  V30 6481 H 589.697 0.870011 -4.0721 0
M  V30 6482 H 592.294 3.64663 -3.91056 0
M  V30 6483 H 592.637 3.53306 -2.20183 0
M  V30 6484 H 593.17 2.23131 -3.29329 0
M  V30 6485 H 589.909 1.90258 -6.27281 0
M  V30 6486 H 589.429 3.15289 -5.10248 0
M  V30 6487 H 591.108 3.07623 -5.6919 0
M  V30 6488 N 591.24 1.41047 0.703093 0
M  V30 6489 C 592.465 1.43537 1.49706 0
M  V30 6490 C 592.89 0.0401853 1.88057 0
M  V30 6491 O 592.248 -0.954785 1.54122 0
M  V30 6492 C 592.296 2.3433 2.74084 0
M  V30 6493 O 591.4 1.79515 3.71279 0
M  V30 6494 H 590.741 0.487454 0.450871 0
M  V30 6495 H 593.271 1.85422 0.86486 0
M  V30 6496 H 593.281 2.49947 3.22476 0
M  V30 6497 H 591.956 3.35708 2.45506 0
M  V30 6498 H 590.533 1.7331 3.30179 0
M  V30 6499 N 592.718 -0.936591 1.26751 0
M  V30 6500 C 593.995 -1.66094 1.03306 0
M  V30 6501 C 594.375 -2.06568 -0.435058 0
M  V30 6502 O 593.723 -1.79305 -1.41641 0
M  V30 6503 C 593.933 -2.86969 1.98619 0
M  V30 6504 C 595.281 -3.58516 2.27489 0
M  V30 6505 O 596.305 -2.97082 1.96522 0
M  V30 6506 O 595.164 -4.69181 2.80235 0
M  V30 6507 H 592.258 -0.727568 0.393158 0
M  V30 6508 H 594.804 -0.987914 1.3798 0
M  V30 6509 H 593.576 -2.53985 2.9767 0
M  V30 6510 H 593.199 -3.61996 1.64454 0
M  V30 6511 N 594.196 -1.08629 -1.14182 0
M  V30 6512 C 595.143 -0.718299 -2.19338 0
M  V30 6513 C 596.113 0.296587 -1.63431 0
M  V30 6514 O 597.298 0.180079 -1.89948 0
M  V30 6515 C 594.438 -0.136203 -3.44831 0
M  V30 6516 C 593.551 -1.20414 -4.14879 0
M  V30 6517 C 592.686 -0.585666 -5.27962 0
M  V30 6518 C 591.725 -1.63548 -5.89846 0
M  V30 6519 N 590.862 -1.03864 -6.94375 0
M  V30 6520 H 595.702 -1.61932 -2.50164 0
M  V30 6521 H 593.239 -0.80919 -1.22844 0
M  V30 6522 H 595.197 0.219021 -4.16625 0
M  V30 6523 H 593.827 0.728121 -3.14481 0
M  V30 6524 H 592.879 -1.67676 -3.41451 0
M  V30 6525 H 594.191 -1.99959 -4.56966 0
M  V30 6526 H 593.345 -0.178818 -6.06436 0
M  V30 6527 H 592.084 0.24142 -4.87102 0
M  V30 6528 H 591.089 -2.05197 -5.10073 0
M  V30 6529 H 592.314 -2.46509 -6.3278 0
M  V30 6530 H 590.26 -0.232687 -6.55587 0
M  V30 6531 H 590.177 -1.77116 -7.3496 0
M  V30 6532 H 591.445 -0.657724 -7.7672 0
M  V30 6533 N 595.674 1.31259 -0.872281 0
M  V30 6534 C 596.951 1.91362 -0.404943 0
M  V30 6535 C 597.331 1.79362 1.11321 0
M  V30 6536 O 596.679 1.20277 1.94283 0
M  V30 6537 C 596.889 3.3749 -0.888893 0
M  V30 6538 C 598.237 4.14593 -0.916384 0
M  V30 6539 O 599.261 3.46282 -0.834701 0
M  V30 6540 O 598.12 5.3661 -1.03498 0
M  V30 6541 H 595.214 0.818016 -0.121569 0
M  V30 6542 H 597.76 1.39912 -0.960346 0
M  V30 6543 H 596.532 3.40249 -1.93251 0
M  V30 6544 H 596.155 3.96375 -0.311932 0
M  V30 6545 N 597.152 0.631951 1.44375 0
M  V30 6546 C 598.085 -0.121822 2.27875 0
M  V30 6547 C 599.063 -0.850457 1.38586 0
M  V30 6548 O 600.247 -0.854378 1.68026 0
M  V30 6549 C 597.374 -1.17859 3.17533 0
M  V30 6550 C 596.42 -0.550391 4.22934 0
M  V30 6551 S 597.253 0.660145 5.31415 0
M  V30 6552 C 598.409 -0.396613 6.24642 0
M  V30 6553 H 598.642 0.586537 2.91457 0
M  V30 6554 H 596.175 0.420146 1.48574 0
M  V30 6555 H 598.133 -1.78335 3.69739 0
M  V30 6556 H 596.794 -1.85915 2.53169 0
M  V30 6557 H 595.987 -1.34631 4.85685 0
M  V30 6558 H 595.589 -0.0202306 3.73995 0
M  V30 6559 H 597.881 -1.26893 6.65511 0
M  V30 6560 H 598.824 0.195345 7.0783 0
M  V30 6561 H 599.232 -0.72288 5.59852 0
M  V30 6562 N 598.631 -1.53133 0.372548 0
M  V30 6563 C 599.541 -2.29671 -0.478379 0
M  V30 6564 C 600.557 -1.35913 -1.08644 0
M  V30 6565 O 601.733 -1.68975 -1.09588 0
M  V30 6566 C 598.798 -3.07625 -1.599 0
M  V30 6567 C 597.859 -4.17061 -1.01776 0
M  V30 6568 C 597.092 -4.91289 -2.08497 0
M  V30 6569 O 597.315 -4.65442 -3.29727 0
M  V30 6570 O 596.249 -5.7705 -1.71164 0
M  V30 6571 H 600.075 -3.03355 0.144649 0
M  V30 6572 H 597.66 -1.48773 0.136729 0
M  V30 6573 H 599.542 -3.56281 -2.25038 0
M  V30 6574 H 598.217 -2.3677 -2.2073 0
M  V30 6575 H 597.124 -3.72641 -0.330098 0
M  V30 6576 H 598.457 -4.90102 -0.453915 0
M  V30 6577 N 600.109 -0.101901 -1.5727 0
M  V30 6578 C 601.056 0.854577 -2.14396 0
M  V30 6579 C 602.026 1.27521 -1.06432 0
M  V30 6580 O 603.211 1.35575 -1.34253 0
M  V30 6581 C 600.351 2.10576 -2.73408 0
M  V30 6582 C 599.464 1.73504 -3.95626 0
M  V30 6583 C 598.599 2.9346 -4.42781 0
M  V30 6584 C 597.638 2.52547 -5.57572 0
M  V30 6585 N 596.775 3.65359 -5.99547 0
M  V30 6586 H 601.615 0.360578 -2.9581 0
M  V30 6587 H 599.152 0.166303 -1.46157 0
M  V30 6588 H 601.11 2.83859 -3.05745 0
M  V30 6589 H 599.74 2.57463 -1.94711 0
M  V30 6590 H 598.792 0.901622 -3.6956 0
M  V30 6591 H 600.104 1.39426 -4.78917 0
M  V30 6592 H 599.258 3.74988 -4.76937 0
M  V30 6593 H 597.997 3.30753 -3.58404 0
M  V30 6594 H 597.002 1.69446 -5.23037 0
M  V30 6595 H 598.227 2.1639 -6.43702 0
M  V30 6596 H 596.173 4.02358 -5.18116 0
M  V30 6597 H 596.09 3.35148 -6.77652 0
M  V30 6598 H 597.358 4.47378 -6.38336 0
M  V30 6599 N 601.587 1.56661 0.17182 0
M  V30 6600 C 602.497 1.99604 1.2327 0
M  V30 6601 C 603.513 0.907333 1.4847 0
M  V30 6602 O 604.689 1.21492 1.60629 0
M  V30 6603 C 601.754 2.34685 2.55194 0
M  V30 6604 C 600.815 3.57381 2.3786 0
M  V30 6605 C 600.048 3.90779 3.63494 0
M  V30 6606 O 600.271 3.25152 4.6865 0
M  V30 6607 O 599.205 4.84129 3.57634 0
M  V30 6608 H 603.031 2.90114 0.898192 0
M  V30 6609 H 600.616 1.44522 0.378647 0
M  V30 6610 H 602.498 2.5822 3.33017 0
M  V30 6611 H 601.173 1.47336 2.88225 0
M  V30 6612 H 600.08 3.39064 1.5807 0
M  V30 6613 H 601.413 4.45268 2.09754 0
M  V30 6614 N 603.065 -0.440357 1.51323 0
M  V30 6615 C 604.295 -1.21079 1.67402 0
M  V30 6616 C 604.703 -1.85555 0.369599 0
M  V30 6617 O 604.046 -1.71375 -0.661525 0
M  V30 6618 C 604.108 -2.33839 2.73056 0
M  V30 6619 C 603.772 -1.89755 4.15743 0
M  V30 6620 C 604.769 -1.40268 5.0062 0
M  V30 6621 C 602.454 -1.97539 4.61826 0
M  V30 6622 C 604.448 -0.991474 6.29642 0
M  V30 6623 C 602.135 -1.56029 5.90845 0
M  V30 6624 C 603.133 -1.06915 6.7458 0
M  V30 6625 O 602.821 -0.659933 8.01187 0
M  V30 6626 H 602.553 -0.371133 0.56501 0
M  V30 6627 H 605.107 -0.528409 1.98487 0
M  V30 6628 H 603.337 -3.05345 2.37279 0
M  V30 6629 H 605.026 -2.95713 2.78044 0
M  V30 6630 H 605.792 -1.33652 4.66221 0
M  V30 6631 H 601.671 -2.34713 3.96776 0
M  V30 6632 H 605.215 -0.607425 6.9495 0
M  V30 6633 H 601.112 -1.62315 6.24759 0
M  V30 6634 H 601.88 -0.786052 8.14717 0
M  V30 6635 N 604.543 -1.41418 -0.695603 0
M  V30 6636 C 605.959 -1.23887 -1.00619 0
M  V30 6637 C 606.159 -0.128206 -2.01092 0
M  V30 6638 O 605.215 0.507408 -2.47349 0
M  V30 6639 C 606.528 -2.58816 -1.53083 0
M  V30 6640 C 608.076 -2.65998 -1.64967 0
M  V30 6641 C 608.551 -4.01244 -2.20833 0
M  V30 6642 N 610.042 -4.0309 -2.28194 0
M  V30 6643 C 610.777 -5.04539 -2.72448 0
M  V30 6644 N 610.273 -6.16378 -3.16306 0
M  V30 6645 N 612.066 -4.91901 -2.72011 0
M  V30 6646 H 604.217 -2.12379 -0.0300061 0
M  V30 6647 H 606.48 -0.944958 -0.0758797 0
M  V30 6648 H 606.186 -3.40842 -0.867147 0
M  V30 6649 H 606.06 -2.81299 -2.51298 0
M  V30 6650 H 608.447 -1.84331 -2.30448 0
M  V30 6651 H 608.528 -2.47325 -0.652982 0
M  V30 6652 H 608.172 -4.83359 -1.55968 0
M  V30 6653 H 608.102 -4.17257 -3.21254 0
M  V30 6654 H 610.593 -3.22341 -1.97242 0
M  V30 6655 H 610.906 -6.89658 -3.487 0
M  V30 6656 H 609.251 -6.19914 -3.14215 0
M  V30 6657 H 612.442 -4.03613 -2.37095 0
M  V30 6658 H 612.615 -5.71102 -3.06181 0
M  V30 6659 N 606.021 0.929856 -1.27246 0
M  V30 6660 C 607.269 1.674 -1.13233 0
M  V30 6661 C 607.59 1.92311 0.322744 0
M  V30 6662 O 606.86 1.52784 1.22612 0
M  V30 6663 H 605.44 0.620411 -0.416052 0
M  V30 6664 H 608.102 1.11663 -1.59741 0
M  V30 6665 H 607.198 2.64308 -1.65975 0
M  V30 6666 N 607.499 1.09233 1.13605 0
M  V30 6667 C 608.431 0.687794 2.18637 0
M  V30 6668 C 609.444 -0.26936 1.60556 0
M  V30 6669 O 610.633 -0.0557162 1.78413 0
M  V30 6670 C 607.733 -0.00751901 3.38899 0
M  V30 6671 C 606.906 0.97067 4.26494 0
M  V30 6672 C 605.965 0.309129 5.25291 0
M  V30 6673 O 604.991 0.956149 5.61112 0
M  V30 6674 N 606.193 -0.937555 5.72879 0
M  V30 6675 H 608.958 1.59141 2.53957 0
M  V30 6676 H 606.519 0.979515 1.28907 0
M  V30 6677 H 608.511 -0.461238 4.02063 0
M  V30 6678 H 607.081 -0.813353 3.01833 0
M  V30 6679 H 606.301 1.603 3.60135 0
M  V30 6680 H 607.589 1.63323 4.81875 0
M  V30 6681 H 606.987 -1.48281 5.4592 0
M  V30 6682 H 605.544 -1.33463 6.3799 0
M  V30 6683 N 608.977 -1.30795 0.87923 0
M  V30 6684 C 609.925 -2.30231 0.331112 0
M  V30 6685 C 610.919 -1.59918 -0.558794 0
M  V30 6686 O 612.125 -1.74441 -0.443866 0
M  V30 6687 H 608.5 -0.746785 0.088409 0
M  V30 6688 H 610.471 -2.73925 1.18353 0
M  V30 6689 C 609.22 -3.44848 -0.444401 0
M  V30 6690 H 608.543 -3.99131 0.231106 0
M  V30 6691 H 609.983 -4.16516 -0.793109 0
M  V30 6692 C 608.442 -2.94329 -1.63926 0
M  V30 6693 O 608.972 -2.93875 -2.73862 0
M  V30 6694 N 607.178 -2.50413 -1.4745 0
M  V30 6695 H 606.725 -2.50982 -0.58015 0
M  V30 6696 H 606.683 -2.16969 -2.27534 0
M  V30 6697 N 610.455 -0.639598 -1.44038 0
M  V30 6698 C 611.402 0.0602458 -2.30721 0
M  V30 6699 C 612.372 0.828352 -1.43971 0
M  V30 6700 O 613.557 0.807693 -1.72861 0
M  V30 6701 C 610.697 1.03008 -3.29368 0
M  V30 6702 C 609.81 0.259502 -4.3122 0
M  V30 6703 C 608.945 1.22191 -5.16955 0
M  V30 6704 C 607.984 0.440978 -6.10509 0
M  V30 6705 N 607.121 1.35428 -6.88915 0
M  V30 6706 H 611.961 -0.684867 -2.90023 0
M  V30 6707 H 609.498 -0.349509 -1.42888 0
M  V30 6708 H 611.456 1.60583 -3.85057 0
M  V30 6709 H 610.086 1.74222 -2.71747 0
M  V30 6710 H 609.138 -0.432317 -3.77935 0
M  V30 6711 H 610.45 -0.348347 -4.97582 0
M  V30 6712 H 609.604 1.86873 -5.77203 0
M  V30 6713 H 608.343 1.86367 -4.50687 0
M  V30 6714 H 607.348 -0.219279 -5.49363 0
M  V30 6715 H 608.573 -0.196192 -6.78817 0
M  V30 6716 H 606.519 1.9831 -6.25307 0
M  V30 6717 H 606.436 0.800657 -7.51748 0
M  V30 6718 H 607.704 1.98967 -7.53679 0
M  V30 6719 N 611.933 1.52934 -0.380664 0
M  V30 6720 C 612.896 2.24809 0.446473 0
M  V30 6721 C 613.896 1.26133 0.997347 0
M  V30 6722 O 615.086 1.50297 0.880714 0
M  V30 6723 C 612.218 2.99649 1.62553 0
M  V30 6724 H 613.411 2.99343 -0.182677 0
M  V30 6725 H 610.964 1.55736 -0.132618 0
M  V30 6726 H 611.699 2.29395 2.29235 0
M  V30 6727 H 611.484 3.72066 1.23732 0
M  V30 6728 H 612.974 3.54246 2.21133 0
M  V30 6729 N 613.412 0.11024 1.57214 0
M  V30 6730 C 614.661 -0.549638 1.94067 0
M  V30 6731 C 614.974 -1.68388 0.995234 0
M  V30 6732 O 616.18 -2.40593 1.25807 0
M  V30 6733 C 614.636 -1.02912 3.44873 0
M  V30 6734 C 614.244 0.0761861 4.47935 0
M  V30 6735 C 615.988 -1.66087 3.9066 0
M  V30 6736 C 613.895 -0.419502 5.8991 0
M  V30 6737 H 612.825 -0.209092 0.724428 0
M  V30 6738 H 615.476 0.188683 1.82527 0
M  V30 6739 H 613.858 -1.82159 3.51616 0
M  V30 6740 H 615.032 0.852185 4.52851 0
M  V30 6741 H 613.347 0.614052 4.11847 0
M  V30 6742 H 615.944 -2.04272 4.94143 0
M  V30 6743 H 616.287 -2.53591 3.30148 0
M  V30 6744 H 616.82 -0.933959 3.86681 0
M  V30 6745 H 613.559 0.419277 6.54158 0
M  V30 6746 H 613.079 -1.16217 5.88433 0
M  V30 6747 H 614.758 -0.883577 6.40938 0
M  V30 6748 N 614.89 -1.56749 -0.16351 0
M  V30 6749 C 615.838 -1.97939 -1.22159 0
M  V30 6750 C 616.832 -0.869288 -1.45395 0
M  V30 6751 O 618.038 -1.05443 -1.45883 0
M  V30 6752 H 614.413 -0.629869 -0.410815 0
M  V30 6753 H 616.384 -2.86115 -0.847381 0
M  V30 6754 C 615.133 -2.36206 -2.55151 0
M  V30 6755 H 614.456 -3.2117 -2.38097 0
M  V30 6756 H 615.896 -2.68863 -3.27854 0
M  V30 6757 C 614.355 -1.20841 -3.14482 0
M  V30 6758 O 614.885 -0.500258 -3.98573 0
M  V30 6759 N 613.091 -0.976943 -2.73686 0
M  V30 6760 H 612.638 -1.55457 -2.05404 0
M  V30 6761 H 612.596 -0.206912 -3.13718 0
M  V30 6762 N 616.368 0.432326 -1.51554 0
M  V30 6763 C 617.315 1.52512 -1.7323 0
M  V30 6764 C 618.285 1.55863 -0.5741 0
M  V30 6765 O 619.47 1.72796 -0.809093 0
M  V30 6766 C 616.61 2.90183 -1.86783 0
M  V30 6767 C 615.723 2.96322 -3.14352 0
M  V30 6768 C 614.858 4.25147 -3.18471 0
M  V30 6769 C 613.897 4.25172 -4.40335 0
M  V30 6770 N 613.034 5.45529 -4.41975 0
M  V30 6771 H 617.874 1.33332 -2.66508 0
M  V30 6772 H 615.411 0.647613 -1.32077 0
M  V30 6773 H 617.369 3.70071 -1.92623 0
M  V30 6774 H 615.999 3.0791 -0.969087 0
M  V30 6775 H 615.051 2.09066 -3.17798 0
M  V30 6776 H 616.363 2.92203 -4.04251 0
M  V30 6777 H 615.517 5.13411 -3.23255 0
M  V30 6778 H 614.256 4.31929 -2.2647 0
M  V30 6779 H 613.261 3.353 -4.35723 0
M  V30 6780 H 614.486 4.20049 -5.33606 0
M  V30 6781 H 612.432 5.53024 -3.52847 0
M  V30 6782 H 612.349 5.43311 -5.25689 0
M  V30 6783 H 613.617 6.35812 -4.50958 0
M  V30 6784 N 617.846 1.41785 0.688094 0
M  V30 6785 C 618.778 1.40159 1.81351 0
M  V30 6786 C 619.791 0.30262 1.59963 0
M  V30 6787 O 620.98 0.564841 1.69327 0
M  V30 6788 C 618.08 1.16517 3.1824 0
M  V30 6789 C 617.253 2.38597 3.66593 0
M  V30 6790 C 616.312 2.10699 4.82174 0
M  V30 6791 O 615.338 2.83798 4.93404 0
M  V30 6792 N 616.54 1.10187 5.69947 0
M  V30 6793 H 619.305 2.3716 1.83236 0
M  V30 6794 H 616.866 1.36494 0.870697 0
M  V30 6795 H 618.858 0.957941 3.93199 0
M  V30 6796 H 617.428 0.280873 3.11336 0
M  V30 6797 H 616.648 2.74974 2.82459 0
M  V30 6798 H 617.936 3.19919 3.95638 0
M  V30 6799 H 617.334 0.497016 5.63512 0
M  V30 6800 H 615.891 0.954518 6.44773 0
M  V30 6801 N 619.324 -0.923095 1.27737 0
M  V30 6802 C 620.287 -2.00587 1.10894 0
M  V30 6803 C 621.287 -1.60718 0.0514927 0
M  V30 6804 O 622.477 -1.71658 0.296481 0
M  V30 6805 C 619.609 -3.33829 0.690717 0
M  V30 6806 H 620.802 -2.16959 2.07048 0
M  V30 6807 H 618.355 -1.10451 1.1059 0
M  V30 6808 H 619.09 -3.23157 -0.272 0
M  V30 6809 H 618.875 -3.64125 1.45448 0
M  V30 6810 H 620.365 -4.13336 0.595252 0
M  V30 6811 N 620.802 -1.09834 -1.13024 0
M  V30 6812 C 622.032 -0.857657 -1.87957 0
M  V30 6813 C 622.44 0.595008 -1.796 0
M  V30 6814 O 621.783 1.42158 -1.16347 0
M  V30 6815 C 621.845 -1.21949 -3.38185 0
M  V30 6816 C 621.509 -2.67791 -3.7032 0
M  V30 6817 C 622.506 -3.66036 -3.69207 0
M  V30 6818 C 620.191 -3.04019 -3.99847 0
M  V30 6819 C 622.185 -4.98533 -3.9717 0
M  V30 6820 C 619.872 -4.36706 -4.27471 0
M  V30 6821 C 620.87 -5.33772 -4.26118 0
M  V30 6822 O 620.558 -6.64072 -4.53061 0
M  V30 6823 H 620.29 -0.308009 -0.601753 0
M  V30 6824 H 622.844 -1.46496 -1.43973 0
M  V30 6825 H 621.074 -0.555249 -3.82693 0
M  V30 6826 H 622.763 -0.957281 -3.9445 0
M  V30 6827 H 623.529 -3.39392 -3.46465 0
M  V30 6828 H 619.408 -2.29096 -4.00045 0
M  V30 6829 H 622.952 -5.74288 -3.96029 0
M  V30 6830 H 618.849 -4.63091 -4.49685 0
M  V30 6831 H 619.617 -6.69608 -4.7071 0
M  V30 6832 N 622.28 1.30327 -0.886154 0
M  V30 6833 C 623.19 2.31854 -0.357866 0
M  V30 6834 C 624.206 1.65392 0.540502 0
M  V30 6835 O 625.382 1.96683 0.433339 0
M  V30 6836 C 622.447 3.44171 0.417999 0
M  V30 6837 C 621.508 4.26257 -0.510263 0
M  V30 6838 C 620.741 5.3321 0.228669 0
M  V30 6839 O 620.964 5.51542 1.45458 0
M  V30 6840 O 619.898 6.0042 -0.421832 0
M  V30 6841 H 623.724 2.78995 -1.19982 0
M  V30 6842 H 621.309 1.34518 -0.650028 0
M  V30 6843 H 623.191 4.12588 0.857251 0
M  V30 6844 H 621.866 2.99164 1.23623 0
M  V30 6845 H 620.773 3.60533 -0.99835 0
M  V30 6846 H 622.106 4.74871 -1.29454 0
M  V30 6847 N 623.758 0.647228 1.43697 0
M  V30 6848 C 624.668 -0.0487997 2.34549 0
M  V30 6849 C 625.684 -0.818586 1.53542 0
M  V30 6850 O 626.86 -0.767195 1.86215 0
M  V30 6851 C 623.925 -1.00734 3.31743 0
M  V30 6852 C 622.986 -0.23515 4.28655 0
M  V30 6853 C 622.219 -1.14803 5.21206 0
M  V30 6854 O 622.442 -2.38717 5.18045 0
M  V30 6855 O 621.376 -0.623667 5.9866 0
M  V30 6856 H 625.202 0.698863 2.9555 0
M  V30 6857 H 622.787 0.407412 1.43738 0
M  V30 6858 H 624.669 -1.55837 3.91526 0
M  V30 6859 H 623.344 -1.73534 2.73254 0
M  V30 6860 H 622.251 0.359319 3.7237 0
M  V30 6861 H 623.584 0.453152 4.9011 0
M  V30 6862 N 625.236 -1.5273 0.388769 0
M  V30 6863 C 626.485 -2.00757 -0.194833 0
M  V30 6864 C 626.798 -1.27951 -1.47946 0
M  V30 6865 O 628.004 -1.66686 -2.14308 0
M  V30 6866 C 626.46 -3.57695 -0.397762 0
M  V30 6867 C 626.068 -4.394 0.873583 0
M  V30 6868 C 627.812 -4.14012 -0.937759 0
M  V30 6869 C 625.719 -5.87938 0.638962 0
M  V30 6870 H 624.649 -0.750101 -0.0765845 0
M  V30 6871 H 627.3 -1.76239 0.511086 0
M  V30 6872 H 625.682 -3.7846 -1.16552 0
M  V30 6873 H 626.856 -4.30403 1.64591 0
M  V30 6874 H 625.171 -3.94301 1.33849 0
M  V30 6875 H 627.768 -5.22645 -1.12899 0
M  V30 6876 H 628.111 -3.7007 -1.90666 0
M  V30 6877 H 628.644 -3.97137 -0.229588 0
M  V30 6878 H 625.383 -6.36202 1.57885 0
M  V30 6879 H 624.903 -5.99726 -0.094443 0
M  V30 6880 H 626.582 -6.46423 0.273299 0
M  V30 6881 N 626.714 -0.118576 -1.57153 0
M  V30 6882 C 627.939 0.550582 -1.99958 0
M  V30 6883 C 628.364 1.59458 -0.997736 0
M  V30 6884 O 627.722 1.81274 0.0306269 0
M  V30 6885 C 627.77 1.15379 -3.41643 0
M  V30 6886 O 626.874 2.26932 -3.44348 0
M  V30 6887 H 626.215 0.137567 -0.649593 0
M  V30 6888 H 628.745 -0.206926 -2.03551 0
M  V30 6889 H 628.755 1.48942 -3.79843 0
M  V30 6890 H 627.43 0.389087 -4.14076 0
M  V30 6891 H 626.007 1.94812 -3.17967 0
M  V30 6892 N 628.193 1.56834 0.155195 0
M  V30 6893 C 629.14 1.97646 1.19184 0
M  V30 6894 C 630.11 0.842788 1.4313 0
M  V30 6895 O 631.295 1.1042 1.55602 0
M  V30 6896 C 628.435 2.35527 2.52232 0
M  V30 6897 C 627.548 3.62147 2.35529 0
M  V30 6898 C 626.683 3.89167 3.61555 0
M  V30 6899 C 625.722 5.09084 3.39853 0
M  V30 6900 N 624.859 5.32156 4.5799 0
M  V30 6901 H 629.699 2.8601 0.836802 0
M  V30 6902 H 627.236 1.41507 0.401758 0
M  V30 6903 H 629.194 2.55516 3.29799 0
M  V30 6904 H 627.824 1.50253 2.85699 0
M  V30 6905 H 626.876 3.4998 1.49057 0
M  V30 6906 H 628.188 4.49871 2.15448 0
M  V30 6907 H 627.342 4.09611 4.47553 0
M  V30 6908 H 626.081 2.9985 3.84632 0
M  V30 6909 H 625.086 4.88522 2.52243 0
M  V30 6910 H 626.311 5.99947 3.18183 0
M  V30 6911 H 624.257 4.45791 4.81255 0
M  V30 6912 H 624.174 6.14133 4.40882 0
M  V30 6913 H 625.442 5.57091 5.45225 0
M  V30 6914 N 629.671 -0.424282 1.51781 0
M  V30 6915 C 630.581 -1.54087 1.76902 0
M  V30 6916 C 631.597 -1.61249 0.653826 0
M  V30 6917 O 632.773 -1.78247 0.937552 0
M  V30 6918 C 629.838 -2.8996 1.90063 0
M  V30 6919 C 628.899 -2.92809 3.13945 0
M  V30 6920 C 628.132 -4.22201 3.26469 0
M  V30 6921 O 628.355 -5.15286 2.44616 0
M  V30 6922 O 627.289 -4.31599 4.1953 0
M  V30 6923 H 631.115 -1.358 2.71647 0
M  V30 6924 H 628.7 -0.608618 1.36441 0
M  V30 6925 H 630.582 -3.70575 2.0063 0
M  V30 6926 H 629.257 -3.08347 0.985067 0
M  V30 6927 H 628.164 -2.11102 3.08847 0
M  V30 6928 H 629.497 -2.79369 4.05233 0
M  V30 6929 N 631.149 -1.42148 -0.680565 0
M  V30 6930 C 632.099 -1.41634 -1.78672 0
M  V30 6931 C 633.083 -0.288494 -1.58293 0
M  V30 6932 O 634.275 -0.530295 -1.68869 0
M  V30 6933 C 631.404 -1.31558 -3.17092 0
M  V30 6934 C 630.49 -2.49265 -3.43115 0
M  V30 6935 N 630.881 -3.74702 -3.39753 0
M  V30 6936 C 629.179 -2.43401 -3.73727 0
M  V30 6937 C 629.88 -4.52854 -3.651 0
M  V30 6938 N 628.856 -3.83181 -3.85582 0
M  V30 6939 H 632.658 -2.3652 -1.74458 0
M  V30 6940 H 630.172 -1.36415 -0.881171 0
M  V30 6941 H 632.169 -1.29272 -3.96351 0
M  V30 6942 H 630.829 -0.376696 -3.22508 0
M  V30 6943 H 631.84 -4.07378 -3.19787 0
M  V30 6944 H 628.517 -1.58062 -3.86423 0
M  V30 6945 H 629.907 -5.61827 -3.6851 0
M  V30 6946 N 632.627 0.916307 -1.28225 0
M  V30 6947 C 633.557 2.0352 -1.14464 0
M  V30 6948 C 634.538 1.70045 -0.0430844 0
M  V30 6949 O 635.723 1.92954 -0.219619 0
M  V30 6950 C 632.853 3.37889 -0.803027 0
M  V30 6951 C 631.807 3.85516 -1.85908 0
M  V30 6952 C 631.133 5.1682 -1.37116 0
M  V30 6953 C 632.433 4.07655 -3.26519 0
M  V30 6954 H 634.127 2.1529 -2.08064 0
M  V30 6955 H 631.673 1.03446 -1.00174 0
M  V30 6956 H 633.626 4.15654 -0.693537 0
M  V30 6957 H 632.35 3.26164 0.168674 0
M  V30 6958 H 631.009 3.09953 -1.95767 0
M  V30 6959 H 630.657 5.01497 -0.38859 0
M  V30 6960 H 630.357 5.49657 -2.07728 0
M  V30 6961 H 631.881 5.97143 -1.27484 0
M  V30 6962 H 633.295 4.75953 -3.19596 0
M  V30 6963 H 631.692 4.51818 -3.94943 0
M  V30 6964 H 632.762 3.12553 -3.70727 0
M  V30 6965 N 634.105 1.10431 1.1244 0
M  V30 6966 C 635.068 0.756542 2.16354 0
M  V30 6967 C 636.068 -0.21899 1.59302 0
M  V30 6968 O 637.258 0.00415969 1.742 0
M  V30 6969 C 634.39 0.120612 3.40687 0
M  V30 6970 H 635.583 1.67696 2.48632 0
M  V30 6971 H 633.136 0.904832 1.27446 0
M  V30 6972 H 633.871 -0.810536 3.14008 0
M  V30 6973 H 633.656 0.822693 3.83372 0
M  V30 6974 H 635.146 -0.106945 4.17463 0
M  V30 6975 N 635.583 -1.29855 0.893053 0
M  V30 6976 C 636.829 -1.96116 0.516349 0
M  V30 6977 C 637.162 -1.70281 -0.933695 0
M  V30 6978 O 636.437 -1.01205 -1.66096 0
M  V30 6979 C 636.72 -3.51068 0.801455 0
M  V30 6980 C 636.573 -3.86387 2.30272 0
M  V30 6981 C 637.892 -4.39186 0.283423 0
M  V30 6982 H 635.011 -0.712335 0.189072 0
M  V30 6983 H 637.653 -1.53587 1.11852 0
M  V30 6984 H 635.803 -3.87424 0.288949 0
M  V30 6985 H 637.475 -3.60012 2.88425 0
M  V30 6986 H 635.718 -3.34167 2.76613 0
M  V30 6987 H 636.389 -4.94512 2.45279 0
M  V30 6988 H 638.865 -4.09785 0.722187 0
M  V30 6989 H 637.741 -5.46505 0.512169 0
M  V30 6990 H 638.002 -4.34511 -0.815643 0
M  V30 6991 N 637.061 -0.65484 -1.43351 0
M  V30 6992 C 638.291 -0.176429 -2.05845 0
M  V30 6993 C 638.699 1.16375 -1.49176 0
M  V30 6994 O 638.042 1.72981 -0.618322 0
M  V30 6995 C 638.104 -0.0125844 -3.59498 0
M  V30 6996 C 637.768 -1.27831 -4.38758 0
M  V30 6997 C 638.765 -2.2074 -4.70712 0
M  V30 6998 C 636.45 -1.52035 -4.78739 0
M  V30 6999 C 638.444 -3.36145 -5.41558 0
M  V30 7000 C 636.131 -2.67732 -5.49329 0
M  V30 7001 C 637.129 -3.59612 -5.80662 0
M  V30 7002 O 636.817 -4.73289 -6.4981 0
M  V30 7003 H 636.549 -0.0879682 -0.670252 0
M  V30 7004 H 639.103 -0.896193 -1.84818 0
M  V30 7005 H 637.333 0.762567 -3.79107 0
M  V30 7006 H 639.022 0.423392 -4.03686 0
M  V30 7007 H 639.788 -2.03284 -4.40341 0
M  V30 7008 H 635.667 -0.813987 -4.53757 0
M  V30 7009 H 639.211 -4.07881 -5.65932 0
M  V30 7010 H 635.108 -2.85122 -5.79116 0
M  V30 7011 H 635.876 -4.72575 -6.68293 0
M  V30 7012 N 638.539 1.52521 -0.396863 0
M  V30 7013 C 639.486 2.26671 0.434624 0
M  V30 7014 C 640.456 1.28584 1.05144 0
M  V30 7015 O 641.641 1.57426 1.07804 0
M  V30 7016 C 638.781 3.08234 1.55196 0
M  V30 7017 C 637.894 4.21261 0.957262 0
M  V30 7018 C 637.029 4.90205 2.04627 0
M  V30 7019 C 636.068 5.95213 1.42787 0
M  V30 7020 N 635.205 6.57723 2.45651 0
M  V30 7021 H 640.045 2.973 -0.204139 0
M  V30 7022 H 637.582 1.46669 -0.112505 0
M  V30 7023 H 639.54 3.53819 2.2106 0
M  V30 7024 H 638.17 2.398 2.16092 0
M  V30 7025 H 637.222 3.79935 0.188005 0
M  V30 7026 H 638.534 4.96624 0.465416 0
M  V30 7027 H 637.688 5.39133 2.78246 0
M  V30 7028 H 636.427 4.14383 2.57174 0
M  V30 7029 H 635.432 5.45616 0.676968 0
M  V30 7030 H 636.657 6.72972 0.910255 0
M  V30 7031 H 634.603 5.84737 2.97353 0
M  V30 7032 H 634.52 7.28723 2.01243 0
M  V30 7033 H 635.788 7.11293 3.18876 0
M  V30 7034 N 640.017 0.126909 1.57088 0
M  V30 7035 C 641.266 -0.529024 1.94639 0
M  V30 7036 C 641.579 -1.67323 1.01304 0
M  V30 7037 O 642.785 -2.39245 1.28352 0
M  V30 7038 C 641.241 -0.992483 3.45945 0
M  V30 7039 C 640.849 0.123691 4.47829 0
M  V30 7040 C 642.593 -1.61934 3.924 0
M  V30 7041 C 640.5 -0.356911 5.90322 0
M  V30 7042 H 639.43 -0.201397 0.726605 0
M  V30 7043 H 642.081 0.208032 1.82317 0
M  V30 7044 H 640.463 -1.7842 3.53528 0
M  V30 7045 H 641.637 0.900168 4.51922 0
M  V30 7046 H 639.952 0.657699 4.11173 0
M  V30 7047 H 642.549 -1.9902 4.96281 0
M  V30 7048 H 642.892 -2.50075 3.32819 0
M  V30 7049 H 643.425 -0.892894 3.8765 0
M  V30 7050 H 640.164 0.488636 6.53676 0
M  V30 7051 H 639.684 -1.0997 5.89633 0
M  V30 7052 H 641.363 -0.815547 6.41839 0
M  V30 7053 N 641.495 -1.56914 -0.146875 0
M  V30 7054 C 642.427 -1.94878 -1.20645 0
M  V30 7055 C 643.44 -0.844633 -1.39175 0
M  V30 7056 O 644.629 -1.12304 -1.38744 0
M  V30 7057 C 641.729 -2.20769 -2.57127 0
M  V30 7058 C 640.902 -3.52053 -2.59572 0
M  V30 7059 C 639.961 -3.66482 -3.77594 0
M  V30 7060 O 638.987 -4.38873 -3.62462 0
M  V30 7061 N 640.189 -3.03156 -4.95052 0
M  V30 7062 H 642.954 -2.86374 -0.883757 0
M  V30 7063 H 640.515 -1.58366 -0.336436 0
M  V30 7064 H 642.507 -2.27664 -3.34591 0
M  V30 7065 H 641.077 -1.35538 -2.81688 0
M  V30 7066 H 640.297 -3.56598 -1.68023 0
M  V30 7067 H 641.585 -4.38396 -2.58238 0
M  V30 7068 H 640.983 -2.44258 -5.10249 0
M  V30 7069 H 639.54 -3.15611 -5.70292 0
M  V30 7070 N 642.974 0.416227 -1.52004 0
M  V30 7071 C 643.907 1.52736 -1.6955 0
M  V30 7072 C 644.885 1.53264 -0.54305 0
M  V30 7073 O 646.069 1.72077 -0.769527 0
M  V30 7074 C 643.196 2.91283 -1.72835 0
M  V30 7075 C 642.242 3.08695 -2.94295 0
M  V30 7076 S 643.075 2.82758 -4.54762 0
M  V30 7077 C 644.231 4.23548 -4.60823 0
M  V30 7078 H 644.464 1.37623 -2.63528 0
M  V30 7079 H 641.997 0.607335 -1.41954 0
M  V30 7080 H 643.955 3.71134 -1.75413 0
M  V30 7081 H 642.616 3.03742 -0.799966 0
M  V30 7082 H 641.809 4.10042 -2.93056 0
M  V30 7083 H 641.411 2.36699 -2.89568 0
M  V30 7084 H 643.703 5.17078 -4.37763 0
M  V30 7085 H 644.646 4.29813 -5.62731 0
M  V30 7086 H 645.054 4.08188 -3.89927 0
M  V30 7087 N 644.452 1.42507 0.673017 0
M  V30 7088 C 645.692 1.44559 1.44507 0
M  V30 7089 C 646.056 0.0606206 1.91904 0
M  V30 7090 O 647.257 -0.044139 2.68764 0
M  V30 7091 C 645.528 2.44291 2.60877 0
M  V30 7092 S 647.087 2.65059 3.49699 0
M  V30 7093 H 643.905 0.51181 0.49353 0
M  V30 7094 H 646.507 1.79124 0.783256 0
M  V30 7095 H 645.211 3.43685 2.24297 0
M  V30 7096 H 644.742 2.11157 3.31928 0
M  V30 7097 H 646.757 1.93494 4.56919 0
M  V30 7098 N 645.93 -0.909495 1.28709 0
M  V30 7099 C 646.877 -2.01245 1.13 0
M  V30 7100 C 647.847 -1.6608 0.0259684 0
M  V30 7101 O 649.032 -1.89835 0.191687 0
M  V30 7102 C 646.172 -3.35644 0.802315 0
M  V30 7103 C 645.285 -3.83653 1.98582 0
M  V30 7104 C 644.42 -5.06582 1.59837 0
M  V30 7105 C 643.459 -5.46934 2.74827 0
M  V30 7106 N 642.596 -6.61053 2.36546 0
M  V30 7107 H 647.436 -2.14013 2.0737 0
M  V30 7108 H 644.973 -1.0482 1.03205 0
M  V30 7109 H 646.931 -4.12963 0.593057 0
M  V30 7110 H 645.561 -3.22631 -0.104457 0
M  V30 7111 H 644.613 -3.02454 2.30708 0
M  V30 7112 H 645.925 -4.09515 2.84779 0
M  V30 7113 H 645.079 -5.91457 1.35143 0
M  V30 7114 H 643.818 -4.82537 0.707753 0
M  V30 7115 H 642.823 -4.60599 3.00215 0
M  V30 7116 H 644.048 -5.72965 3.64538 0
M  V30 7117 H 641.994 -6.3863 1.49959 0
M  V30 7118 H 641.911 -6.86662 3.16277 0
M  V30 7119 H 643.179 -7.49221 2.15146 0
M  V30 7120 N 647.408 -1.11026 -1.11852 0
M  V30 7121 C 648.633 -0.879064 -1.87849 0
M  V30 7122 C 649.058 0.565406 -1.79401 0
M  V30 7123 O 648.416 1.39886 -1.15333 0
M  V30 7124 C 648.464 -1.33985 -3.34784 0
M  V30 7125 O 647.568 -0.508803 -4.09249 0
M  V30 7126 H 646.909 -0.316992 -0.583448 0
M  V30 7127 H 649.439 -1.47863 -1.41413 0
M  V30 7128 H 649.449 -1.33248 -3.85628 0
M  V30 7129 H 648.124 -2.39172 -3.40249 0
M  V30 7130 H 646.701 -0.581913 -3.68332 0
M  V30 7131 N 648.886 1.2938 -0.899927 0
M  V30 7132 C 650.132 1.9584 -0.526742 0
M  V30 7133 C 650.465 1.70774 0.924651 0
M  V30 7134 O 649.74 1.02084 1.65557 0
M  V30 7135 C 650.023 3.50638 -0.820062 0
M  V30 7136 C 649.876 3.85161 -2.32317 0
M  V30 7137 C 651.195 4.3903 -0.30671 0
M  V30 7138 H 648.314 0.711322 -0.192848 0
M  V30 7139 H 650.956 1.52992 -1.12665 0
M  V30 7140 H 649.106 3.87265 -0.309491 0
M  V30 7141 H 650.778 3.58477 -2.9033 0
M  V30 7142 H 649.021 3.32696 -2.78381 0
M  V30 7143 H 649.692 4.93204 -2.47898 0
M  V30 7144 H 652.168 4.09396 -0.743908 0
M  V30 7145 H 651.044 5.46226 -0.541144 0
M  V30 7146 H 651.305 4.34937 0.792588 0
M  V30 7147 N 650.364 0.662433 1.43002 0
M  V30 7148 C 651.311 -0.0235324 2.30788 0
M  V30 7149 C 652.281 -0.805342 1.4527 0
M  V30 7150 O 653.466 -0.78009 1.74124 0
M  V30 7151 C 650.606 -0.977545 3.30965 0
M  V30 7152 C 649.719 -0.190865 4.31578 0
M  V30 7153 C 648.854 -1.13951 5.18834 0
M  V30 7154 C 647.893 -0.343796 6.11134 0
M  V30 7155 N 647.03 -1.2445 6.90982 0
M  V30 7156 H 651.87 0.730921 2.88897 0
M  V30 7157 H 649.407 0.372197 1.42313 0
M  V30 7158 H 651.365 -1.54437 3.87563 0
M  V30 7159 H 649.995 -1.69877 2.74484 0
M  V30 7160 H 649.047 0.492388 3.772 0
M  V30 7161 H 650.359 0.427464 4.96965 0
M  V30 7162 H 649.513 -1.77666 5.80103 0
M  V30 7163 H 648.252 -1.79174 4.53595 0
M  V30 7164 H 647.257 0.30665 5.48944 0
M  V30 7165 H 648.482 0.304161 6.78419 0
M  V30 7166 H 646.428 -1.88336 6.28383 0
M  V30 7167 H 646.345 -0.680959 7.52927 0
M  V30 7168 H 647.613 -1.86952 7.56749 0
M  V30 7169 N 651.842 -1.52309 0.404946 0
M  V30 7170 C 652.805 -2.25491 -0.410651 0
M  V30 7171 C 653.805 -1.27704 -0.977154 0
M  V30 7172 O 654.995 -1.51679 -0.856691 0
M  V30 7173 C 652.127 -3.02197 -1.57765 0
M  V30 7174 H 653.32 -2.99015 0.230277 0
M  V30 7175 H 650.873 -1.55506 0.157377 0
M  V30 7176 H 651.608 -2.33013 -2.25556 0
M  V30 7177 H 651.393 -3.73987 -1.17797 0
M  V30 7178 H 652.883 -3.57719 -2.15469 0
M  V30 7179 N 653.32 -0.135238 -1.57019 0
M  V30 7180 C 654.731 0.387521 -1.82634 0
M  V30 7181 C 655.082 1.65528 -1.05332 0
M  V30 7182 O 654.207 2.14381 -0.294926 0
M  V30 7183 C 654.802 0.709852 -3.3128 0
M  V30 7184 C 653.361 1.17718 -3.57518 0
M  V30 7185 C 652.508 0.194183 -2.76619 0
M  V30 7186 H 655.459 -0.360126 -1.5456 0
M  V30 7187 H 655.48 1.5657 -3.46794 0
M  V30 7188 H 654.992 -0.213024 -3.87515 0
M  V30 7189 H 653.093 2.1164 -3.06658 0
M  V30 7190 H 653.206 1.11128 -4.66034 0
M  V30 7191 H 651.57 0.684478 -2.4533 0
M  V30 7192 H 652.353 -0.722076 -3.3562 0
M  V30 7193 N 654.798 1.5699 0.138552 0
M  V30 7194 C 656.046 1.83446 0.848053 0
M  V30 7195 C 656.367 0.71744 1.81322 0
M  V30 7196 O 655.637 -0.260228 1.94164 0
M  V30 7197 H 654.217 0.676792 0.316166 0
M  V30 7198 H 656.879 1.94462 0.130538 0
M  V30 7199 H 655.975 2.78677 1.40518 0
M  V30 7200 N 656.276 -0.40816 1.52223 0
M  V30 7201 C 657.525 -1.15212 1.65557 0
M  V30 7202 C 657.838 -1.9163 0.392096 0
M  V30 7203 O 659.044 -2.68458 0.405256 0
M  V30 7204 C 657.5 -2.09691 2.92502 0
M  V30 7205 C 657.108 -1.38785 4.25961 0
M  V30 7206 C 658.852 -2.8434 3.152 0
M  V30 7207 C 656.759 -2.31919 5.44029 0
M  V30 7208 H 655.689 -0.433776 0.616729 0
M  V30 7209 H 658.34 -0.4165 1.78711 0
M  V30 7210 H 656.722 -2.8681 2.7305 0
M  V30 7211 H 657.896 -0.670248 4.55899 0
M  V30 7212 H 656.211 -0.761741 4.09373 0
M  V30 7213 H 658.808 -3.54166 4.00587 0
M  V30 7214 H 659.151 -3.47344 2.29473 0
M  V30 7215 H 659.684 -2.14321 3.35129 0
M  V30 7216 H 656.423 -1.7356 6.32105 0
M  V30 7217 H 655.943 -3.0165 5.18428 0
M  V30 7218 H 657.622 -2.92424 5.77146 0
M  V30 7219 N 657.755 -1.42862 -0.66545 0
M  V30 7220 C 658.995 -1.45323 -1.43738 0
M  V30 7221 C 659.359 -0.0707969 -1.91869 0
M  V30 7222 O 660.56 0.0298852 -2.68783 0
M  V30 7223 C 658.831 -2.45671 -2.59577 0
M  V30 7224 S 660.39 -2.6691 -3.48288 0
M  V30 7225 H 657.208 -0.51442 -0.490809 0
M  V30 7226 H 659.81 -1.79537 -0.773745 0
M  V30 7227 H 658.514 -3.44869 -2.22471 0
M  V30 7228 H 658.045 -2.12914 -3.30804 0
M  V30 7229 H 660.06 -1.95914 -4.55886 0
M  V30 7230 N 659.233 0.902656 -1.29189 0
M  V30 7231 C 660.482 1.6475 -1.16362 0
M  V30 7232 C 660.795 1.93517 0.284682 0
M  V30 7233 O 662.001 2.66192 0.534229 0
M  V30 7234 C 660.457 2.96848 -2.03493 0
M  V30 7235 C 660.065 2.75687 -3.5313 0
M  V30 7236 C 661.809 3.74762 -1.99383 0
M  V30 7237 C 659.716 4.03492 -4.32375 0
M  V30 7238 H 658.646 0.618041 -0.431904 0
M  V30 7239 H 661.297 1.0008 -1.53806 0
M  V30 7240 H 659.679 3.62715 -1.58916 0
M  V30 7241 H 660.853 2.18431 -4.05739 0
M  V30 7242 H 659.168 2.11171 -3.58881 0
M  V30 7243 H 661.765 4.69515 -2.5585 0
M  V30 7244 H 662.108 4.04767 -0.973123 0
M  V30 7245 H 662.641 3.15732 -2.41988 0
M  V30 7246 H 659.38 3.78656 -5.3507 0
M  V30 7247 H 658.9 4.60318 -3.84535 0
M  V30 7248 H 660.579 4.71662 -4.42881 0
M  V30 7249 N 660.711 1.11618 1.11262 0
M  V30 7250 C 661.988 0.777876 1.79467 0
M  V30 7251 C 662.368 -0.733774 1.97937 0
M  V30 7252 O 661.716 -1.66443 1.56554 0
M  V30 7253 C 661.926 1.5431 3.13032 0
M  V30 7254 C 663.274 1.72357 3.88044 0
M  V30 7255 O 664.298 1.5075 3.22727 0
M  V30 7256 O 663.157 2.08276 5.05256 0
M  V30 7257 H 660.251 0.282018 0.777428 0
M  V30 7258 H 662.797 1.21971 1.17988 0
M  V30 7259 H 661.569 2.57132 2.94956 0
M  V30 7260 H 661.192 1.09495 3.82226 0
M  V30 7261 N 662.189 -1.289 0.906776 0
M  V30 7262 C 663.435 -1.95558 0.53712 0
M  V30 7263 C 663.768 -1.71262 -0.915582 0
M  V30 7264 O 663.043 -1.02961 -1.65013 0
M  V30 7265 C 663.326 -3.50198 0.838645 0
M  V30 7266 C 663.179 -3.83923 2.34357 0
M  V30 7267 C 664.498 -4.38861 0.329988 0
M  V30 7268 H 661.617 -0.710289 0.196617 0
M  V30 7269 H 664.259 -1.52392 1.13475 0
M  V30 7270 H 662.409 -3.87096 0.330024 0
M  V30 7271 H 664.081 -3.56933 2.92227 0
M  V30 7272 H 662.324 -3.31215 2.80141 0
M  V30 7273 H 662.995 -4.91883 2.5051 0
M  V30 7274 H 665.471 -4.08996 0.765609 0
M  V30 7275 H 664.347 -5.45931 0.570105 0
M  V30 7276 H 664.608 -4.35352 -0.769511 0
M  V30 7277 N 663.667 -0.670007 -1.42649 0
M  V30 7278 C 664.944 -0.119451 -1.95235 0
M  V30 7279 C 665.324 1.36461 -1.61064 0
M  V30 7280 O 664.672 2.09843 -0.904329 0
M  V30 7281 C 664.882 -0.383498 -3.46887 0
M  V30 7282 C 666.23 -0.297431 -4.23557 0
M  V30 7283 O 667.254 -0.31698 -3.54787 0
M  V30 7284 O 666.113 -0.235507 -5.45992 0
M  V30 7285 H 663.207 -8.85474e-05 -0.827 0
M  V30 7286 H 665.753 -0.744406 -1.52501 0
M  V30 7287 H 664.525 -1.41174 -3.64946 0
M  V30 7288 H 664.148 0.273702 -3.96657 0
M  V30 7289 N 665.145 1.52092 -0.413018 0
M  V30 7290 C 666.093 2.28681 0.425199 0
M  V30 7291 C 667.087 1.3353 1.04241 0
M  V30 7292 O 668.293 1.50973 0.980166 0
M  V30 7293 H 664.668 0.735661 0.155906 0
M  V30 7294 H 666.639 2.97418 -0.241926 0
M  V30 7295 C 665.388 3.1235 1.5275 0
M  V30 7296 H 664.711 3.85439 1.06191 0
M  V30 7297 H 666.151 3.69038 2.08774 0
M  V30 7298 C 664.61 2.26161 2.49706 0
M  V30 7299 O 665.14 1.90452 3.53682 0
M  V30 7300 N 663.346 1.89854 2.20008 0
M  V30 7301 H 662.893 2.19092 1.35486 0
M  V30 7302 H 662.851 1.3248 2.85125 0
M  V30 7303 N 666.623 0.143563 1.56945 0
M  V30 7304 C 667.533 -0.810562 2.20152 0
M  V30 7305 C 668.549 -1.27431 1.1848 0
M  V30 7306 O 669.725 -1.33221 1.51044 0
M  V30 7307 C 666.79 -2.03353 2.80799 0
M  V30 7308 C 665.851 -1.61936 3.97587 0
M  V30 7309 C 665.084 -2.78403 4.55332 0
M  V30 7310 O 665.307 -3.94521 4.11958 0
M  V30 7311 O 664.241 -2.54073 5.45647 0
M  V30 7312 H 668.067 -0.30253 3.02189 0
M  V30 7313 H 665.652 -0.0832925 1.49168 0
M  V30 7314 H 667.534 -2.74932 3.19359 0
M  V30 7315 H 666.209 -2.53116 2.01777 0
M  V30 7316 H 665.116 -0.873904 3.6375 0
M  V30 7317 H 666.449 -1.16892 4.78118 0
M  V30 7318 N 668.101 -1.57061 -0.130224 0
M  V30 7319 C 669.378 -1.75205 -0.869631 0
M  V30 7320 C 669.758 -0.716063 -1.98584 0
M  V30 7321 O 669.106 0.262032 -2.26993 0
M  V30 7322 C 669.316 -3.19835 -1.39666 0
M  V30 7323 C 670.664 -3.82011 -1.85345 0
M  V30 7324 O 671.688 -3.23368 -1.49371 0
M  V30 7325 O 670.547 -4.85064 -2.51744 0
M  V30 7326 H 667.641 -0.716977 -0.412157 0
M  V30 7327 H 670.187 -1.69311 -0.11484 0
M  V30 7328 H 668.959 -3.86745 -0.595288 0
M  V30 7329 H 668.582 -3.30222 -2.21448 0
M  V30 7330 N 669.579 0.400081 -1.52437 0
M  V30 7331 C 670.509 1.4947 -1.7939 0
M  V30 7332 C 671.49 1.57383 -0.645329 0
M  V30 7333 O 672.675 1.72511 -0.891826 0
M  V30 7334 C 669.805 2.87201 -1.95276 0
M  V30 7335 C 668.759 2.94134 -3.10917 0
M  V30 7336 C 668.085 4.34207 -3.1204 0
M  V30 7337 C 669.385 2.64791 -4.50203 0
M  V30 7338 H 671.079 1.27165 -2.71052 0
M  V30 7339 H 668.625 0.610312 -1.30427 0
M  V30 7340 H 670.578 3.63772 -2.12715 0
M  V30 7341 H 669.302 3.10819 -1.00294 0
M  V30 7342 H 667.961 2.20009 -2.93243 0
M  V30 7343 H 667.609 4.54848 -2.14761 0
M  V30 7344 H 667.309 4.39768 -3.89715 0
M  V30 7345 H 668.833 5.127 -3.31619 0
M  V30 7346 H 670.247 3.31083 -4.68035 0
M  V30 7347 H 668.644 2.81717 -5.29864 0
M  V30 7348 H 669.714 1.60184 -4.57678 0
M  V30 7349 N 671.057 1.43213 0.657864 0
M  V30 7350 C 672.304 1.44584 1.41781 0
M  V30 7351 C 672.632 0.0684208 1.9438 0
M  V30 7352 O 671.887 -0.925872 1.72413 0
M  V30 7353 C 672.186 2.43143 2.61947 0
M  V30 7354 C 671.852 3.89128 2.27794 0
M  V30 7355 C 670.514 4.28889 2.18191 0
M  V30 7356 C 672.866 4.81144 2.00375 0
M  V30 7357 C 670.194 5.58625 1.79319 0
M  V30 7358 C 672.546 6.11239 1.63003 0
M  V30 7359 C 671.21 6.49981 1.51922 0
M  V30 7360 H 670.48 0.529069 0.518813 0
M  V30 7361 H 673.127 1.76263 0.748577 0
M  V30 7362 H 671.432 2.04851 3.33981 0
M  V30 7363 H 673.129 2.4146 3.20153 0
M  V30 7364 H 669.719 3.57657 2.36176 0
M  V30 7365 H 673.903 4.512 2.06718 0
M  V30 7366 H 669.159 5.87486 1.69323 0
M  V30 7367 H 673.333 6.82014 1.40817 0
M  V30 7368 H 670.96 7.50416 1.21572 0
M  V30 7369 N 672.536 -0.895792 1.29666 0
M  V30 7370 C 673.783 -1.64664 1.17864 0
M  V30 7371 C 674.111 -1.92631 -0.26902 0
M  V30 7372 O 673.366 -1.53787 -1.21029 0
M  V30 7373 C 673.665 -3.00075 1.94139 0
M  V30 7374 C 673.331 -2.91702 3.43833 0
M  V30 7375 C 671.993 -2.89126 3.84656 0
M  V30 7376 C 674.345 -2.80622 4.39205 0
M  V30 7377 C 671.673 -2.73293 5.1916 0
M  V30 7378 C 674.025 -2.66329 5.73805 0
M  V30 7379 C 672.689 -2.62121 6.1388 0
M  V30 7380 H 671.959 -0.602549 0.431295 0
M  V30 7381 H 674.606 -1.04234 1.60648 0
M  V30 7382 H 672.911 -3.64394 1.43958 0
M  V30 7383 H 674.608 -3.57111 1.82408 0
M  V30 7384 H 671.198 -2.94511 3.11386 0
M  V30 7385 H 675.382 -2.81686 4.08615 0
M  V30 7386 H 670.638 -2.68443 5.49316 0
M  V30 7387 H 674.812 -2.56727 6.47352 0
M  V30 7388 H 672.439 -2.49611 7.18052 0
M  V30 7389 N 674.014 -1.12206 -1.10668 0
M  V30 7390 C 675.263 -0.870595 -1.81944 0
M  V30 7391 C 675.576 0.605447 -1.85994 0
M  V30 7392 O 676.782 0.973433 -2.53449 0
M  V30 7393 C 675.238 -1.50783 -3.26791 0
M  V30 7394 C 674.846 -3.01849 -3.31046 0
M  V30 7395 C 676.59 -1.33653 -4.02911 0
M  V30 7396 C 674.497 -3.58518 -4.70339 0
M  V30 7397 H 673.427 -0.322043 -0.681765 0
M  V30 7398 H 676.078 -1.34827 -1.24475 0
M  V30 7399 H 674.46 -0.957825 -3.84242 0
M  V30 7400 H 675.634 -3.63321 -2.83433 0
M  V30 7401 H 673.949 -3.18346 -2.68411 0
M  V30 7402 H 676.546 -1.73416 -5.05797 0
M  V30 7403 H 676.889 -0.279949 -4.15358 0
M  V30 7404 H 677.422 -1.85562 -3.51868 0
M  V30 7405 H 674.161 -4.63925 -4.63091 0
M  V30 7406 H 673.681 -3.01819 -5.18329 0
M  V30 7407 H 675.36 -3.57434 -5.39305 0
M  V30 7408 N 675.492 1.28418 -0.913599 0
M  V30 7409 C 676.455 2.25564 -0.406624 0
M  V30 7410 C 677.455 1.5387 0.466965 0
M  V30 7411 O 678.645 1.72094 0.270042 0
M  V30 7412 C 675.777 3.38339 0.417053 0
M  V30 7413 H 676.97 2.71926 -1.26477 0
M  V30 7414 H 674.523 1.40098 -0.692986 0
M  V30 7415 H 675.258 2.97339 1.29461 0
M  V30 7416 H 675.043 3.91542 -0.209102 0
M  V30 7417 H 676.533 4.10578 0.762602 0
M  V30 7418 N 676.97 0.677563 1.42291 0
M  V30 7419 C 678.247 0.129803 1.95169 0
M  V30 7420 C 678.627 -1.35605 1.61786 0
M  V30 7421 O 677.975 -2.09361 0.915444 0
M  V30 7422 C 678.185 0.401889 3.46678 0
M  V30 7423 C 679.533 0.319889 4.23393 0
M  V30 7424 O 680.557 0.33579 3.54614 0
M  V30 7425 O 679.416 0.264459 5.4586 0
M  V30 7426 H 676.51 0.00447433 0.826988 0
M  V30 7427 H 679.056 0.752483 1.52105 0
M  V30 7428 H 677.828 1.43108 3.64192 0
M  V30 7429 H 677.451 -0.252662 3.96796 0
M  V30 7430 N 678.448 -1.51871 0.421078 0
M  V30 7431 C 679.395 -2.27334 -0.398508 0
M  V30 7432 C 680.365 -1.30241 -1.03085 0
M  V30 7433 O 681.55 -1.59121 -1.05285 0
M  V30 7434 C 678.69 -3.10664 -1.50272 0
M  V30 7435 C 677.803 -4.2273 -0.890122 0
M  V30 7436 C 676.938 -4.93399 -1.96803 0
M  V30 7437 C 675.977 -5.97409 -1.333 0
M  V30 7438 N 675.114 -6.61548 -2.35156 0
M  V30 7439 H 679.954 -2.96938 0.251411 0
M  V30 7440 H 677.491 -1.46472 0.135825 0
M  V30 7441 H 679.449 -3.57292 -2.15403 0
M  V30 7442 H 678.079 -2.43207 -2.1225 0
M  V30 7443 H 677.131 -3.80186 -0.127537 0
M  V30 7444 H 678.443 -4.97302 -0.386349 0
M  V30 7445 H 677.597 -5.43491 -2.69633 0
M  V30 7446 H 676.336 -4.18421 -2.50549 0
M  V30 7447 H 675.341 -5.46624 -0.59008 0
M  V30 7448 H 676.566 -6.74335 -0.803076 0
M  V30 7449 H 674.512 -5.89394 -2.88012 0
M  V30 7450 H 674.429 -7.31832 -1.89624 0
M  V30 7451 H 675.697 -7.16276 -3.0752 0
M  V30 7452 N 679.926 -0.151884 -1.56866 0
M  V30 7453 C 680.874 0.80299 -2.183 0
M  V30 7454 C 681.868 1.25174 -1.14139 0
M  V30 7455 O 683.074 1.21966 -1.3238 0
M  V30 7456 H 679.449 0.277169 -0.699057 0
M  V30 7457 H 681.42 0.260699 -2.97259 0
M  V30 7458 C 680.169 2.03009 -2.82281 0
M  V30 7459 H 679.492 1.69377 -3.62148 0
M  V30 7460 H 680.932 2.67753 -3.28762 0
M  V30 7461 C 679.391 2.84123 -1.81041 0
M  V30 7462 O 679.921 3.8063 -1.28388 0
M  V30 7463 N 678.127 2.48753 -1.50234 0
M  V30 7464 H 677.674 1.70337 -1.93244 0
M  V30 7465 H 677.632 3.03316 -0.827445 0
M  V30 7466 N 681.404 1.57128 0.121893 0
M  V30 7467 C 682.629 1.89254 0.848385 0
M  V30 7468 C 683.054 0.743527 1.72781 0
M  V30 7469 O 682.412 -0.306056 1.78698 0
M  V30 7470 C 682.46 3.20113 1.66012 0
M  V30 7471 O 681.564 3.05815 2.76679 0
M  V30 7472 H 680.905 0.621103 0.234793 0
M  V30 7473 H 683.435 2.0433 0.10516 0
M  V30 7474 H 683.445 3.52761 2.04996 0
M  V30 7475 H 682.12 4.03336 1.01452 0
M  V30 7476 H 680.697 2.84627 2.40918 0
M  V30 7477 N 682.882 -0.391992 1.52647 0
M  V30 7478 C 684.129 -1.13732 1.67545 0
M  V30 7479 C 684.457 -1.90045 0.413881 0
M  V30 7480 O 683.712 -1.86157 -0.603646 0
M  V30 7481 C 684.011 -2.14401 2.85949 0
M  V30 7482 C 683.677 -1.54767 4.23507 0
M  V30 7483 C 682.339 -1.38229 4.60919 0
M  V30 7484 C 684.691 -1.11382 5.0916 0
M  V30 7485 C 682.019 -0.7685 5.81645 0
M  V30 7486 C 684.371 -0.514143 6.30507 0
M  V30 7487 C 683.035 -0.33604 6.66654 0
M  V30 7488 H 682.305 -0.416174 0.613091 0
M  V30 7489 H 684.952 -0.422327 1.86785 0
M  V30 7490 H 683.257 -2.92108 2.61114 0
M  V30 7491 H 684.954 -2.71974 2.94671 0
M  V30 7492 H 681.544 -1.68626 3.94035 0
M  V30 7493 H 685.728 -1.22962 4.80826 0
M  V30 7494 H 680.984 -0.618681 6.08262 0
M  V30 7495 H 685.158 -0.169657 6.96193 0
M  V30 7496 H 682.785 0.14166 7.60068 0
M  V30 7497 N 684.36 -1.4356 -0.65026 0
M  V30 7498 C 685.585 -1.48995 -1.44275 0
M  V30 7499 C 686.01 -0.109954 -1.87778 0
M  V30 7500 O 685.368 0.896926 -1.57559 0
M  V30 7501 C 685.416 -2.44341 -2.65198 0
M  V30 7502 O 684.52 -1.93172 -3.6436 0
M  V30 7503 H 683.861 -0.503852 -0.432469 0
M  V30 7504 H 686.391 -1.88504 -0.795446 0
M  V30 7505 H 686.401 -2.61743 -3.12977 0
M  V30 7506 H 685.076 -3.44588 -2.32877 0
M  V30 7507 H 683.653 -1.85445 -3.23519 0
M  V30 7508 N 685.838 0.888903 -1.30139 0
M  V30 7509 C 687.115 1.62145 -1.094 0
M  V30 7510 C 687.495 2.08041 0.358091 0
M  V30 7511 O 686.843 1.84438 1.34888 0
M  V30 7512 C 687.053 2.794 -2.09133 0
M  V30 7513 C 688.401 3.49826 -2.40638 0
M  V30 7514 O 689.425 2.89583 -2.07412 0
M  V30 7515 O 688.284 4.58457 -2.97455 0
M  V30 7516 H 685.378 0.712475 -0.41989 0
M  V30 7517 H 687.924 0.936023 -1.41551 0
M  V30 7518 H 686.696 2.42762 -3.06891 0
M  V30 7519 H 686.319 3.55643 -1.77776 0
M  V30 7520 N 687.317 1.12792 1.10072 0
M  V30 7521 C 688.594 0.796867 1.78632 0
M  V30 7522 C 688.974 -0.712739 1.98704 0
M  V30 7523 O 688.322 -1.64773 1.5831 0
M  V30 7524 C 688.532 1.57622 3.11378 0
M  V30 7525 C 689.88 1.76463 3.86194 0
M  V30 7526 O 690.904 1.54165 3.2111 0
M  V30 7527 O 689.763 2.13623 5.03018 0
M  V30 7528 H 686.857 0.290248 0.774394 0
M  V30 7529 H 689.403 1.23215 1.16688 0
M  V30 7530 H 688.175 2.60246 2.92212 0
M  V30 7531 H 687.798 1.13543 3.81043 0
M  V30 7532 N 688.795 -1.27931 0.920396 0
M  V30 7533 C 689.725 -2.29487 0.431024 0
M  V30 7534 C 690.706 -1.62435 -0.504861 0
M  V30 7535 O 691.891 -1.89797 -0.411176 0
M  V30 7536 C 689.021 -3.45788 -0.323709 0
M  V30 7537 C 687.975 -4.24784 0.523658 0
M  V30 7538 C 687.301 -5.33488 -0.359809 0
M  V30 7539 C 688.601 -4.90874 1.78437 0
M  V30 7540 H 690.295 -2.70671 1.27975 0
M  V30 7541 H 687.841 -1.30121 0.616813 0
M  V30 7542 H 689.794 -4.15927 -0.676952 0
M  V30 7543 H 688.518 -3.03502 -1.2064 0
M  V30 7544 H 687.177 -3.56382 0.85951 0
M  V30 7545 H 686.825 -4.87445 -1.24124 0
M  V30 7546 H 686.525 -5.87247 0.203605 0
M  V30 7547 H 688.049 -6.06472 -0.708787 0
M  V30 7548 H 689.463 -5.53339 1.49963 0
M  V30 7549 H 687.86 -5.54659 2.29071 0
M  V30 7550 H 688.93 -4.14988 2.50824 0
M  V30 7551 N 690.273 -0.685099 -1.4193 0
M  V30 7552 C 691.498 -0.218842 -2.06242 0
M  V30 7553 C 691.923 1.11923 -1.51178 0
M  V30 7554 O 691.281 1.69837 -0.634446 0
M  V30 7555 C 691.329 -0.175592 -3.60172 0
M  V30 7556 O 690.433 0.852776 -4.03487 0
M  V30 7557 H 689.774 -0.109531 -0.654904 0
M  V30 7558 H 692.304 -0.937013 -1.81882 0
M  V30 7559 H 692.314 -0.00291151 -4.08 0
M  V30 7560 H 690.989 -1.15222 -3.99621 0
M  V30 7561 H 689.566 0.650301 -3.67186 0
M  V30 7562 N 691.751 1.51645 -0.429126 0
M  V30 7563 C 692.698 2.27542 0.386446 0
M  V30 7564 C 693.668 1.30786 1.02393 0
M  V30 7565 O 694.853 1.59678 1.0444 0
M  V30 7566 C 691.993 3.11457 1.48623 0
M  V30 7567 C 691.106 4.23196 0.867691 0
M  V30 7568 C 690.241 4.94435 1.94183 0
M  V30 7569 C 689.28 5.98108 1.30129 0
M  V30 7570 N 688.417 6.62786 2.31644 0
M  V30 7571 H 693.257 2.968 -0.267155 0
M  V30 7572 H 690.794 1.46397 -0.143591 0
M  V30 7573 H 692.752 3.58429 2.13506 0
M  V30 7574 H 691.382 2.44329 2.10957 0
M  V30 7575 H 690.434 3.80248 0.107373 0
M  V30 7576 H 691.746 4.97499 0.35997 0
M  V30 7577 H 690.9 5.44914 2.66747 0
M  V30 7578 H 689.639 4.19744 2.48326 0
M  V30 7579 H 688.644 5.4693 0.561082 0
M  V30 7580 H 689.869 6.74751 0.767303 0
M  V30 7581 H 687.815 5.90913 2.84883 0
M  V30 7582 H 687.732 7.32828 1.85741 0
M  V30 7583 H 689 7.17897 3.03717 0
M  V30 7584 N 693.229 0.160201 1.56784 0
M  V30 7585 C 694.177 -0.791402 2.18723 0
M  V30 7586 C 695.171 -1.24567 1.14801 0
M  V30 7587 O 696.377 -1.21262 1.33025 0
M  V30 7588 H 692.752 -0.273458 0.700517 0
M  V30 7589 H 694.723 -0.244931 2.97393 0
M  V30 7590 C 693.472 -2.01509 2.83354 0
M  V30 7591 H 692.795 -1.67454 3.63041 0
M  V30 7592 H 694.235 -2.66006 3.30177 0
M  V30 7593 C 692.694 -2.83159 1.82545 0
M  V30 7594 O 693.224 -3.79944 1.30405 0
M  V30 7595 N 691.43 -2.47953 1.51552 0
M  V30 7596 H 690.977 -1.69309 1.94144 0
M  V30 7597 H 690.935 -3.02873 0.843519 0
M  V30 7598 N 694.707 -1.5719 -0.113559 0
M  V30 7599 C 695.617 -2.04041 -1.15777 0
M  V30 7600 C 696.633 -0.961812 -1.45001 0
M  V30 7601 O 697.809 -1.2737 -1.56009 0
M  V30 7602 C 694.874 -2.43994 -2.46308 0
M  V30 7603 C 693.935 -3.65962 -2.24433 0
M  V30 7604 C 693.168 -4.04 -3.4874 0
M  V30 7605 O 693.391 -3.42321 -4.56259 0
M  V30 7606 O 692.325 -4.97069 -3.3942 0
M  V30 7607 H 696.151 -2.93248 -0.789899 0
M  V30 7608 H 693.736 -1.45828 -0.324748 0
M  V30 7609 H 695.618 -2.70401 -3.23204 0
M  V30 7610 H 694.293 -1.57932 -2.82558 0
M  V30 7611 H 693.2 -3.44697 -1.45377 0
M  V30 7612 H 694.533 -4.52746 -1.93084 0
M  V30 7613 N 696.185 0.383891 -1.52853 0
M  V30 7614 C 697.601 0.724316 -1.42218 0
M  V30 7615 C 697.801 1.93943 -0.546654 0
M  V30 7616 O 696.857 2.5249 -0.0220562 0
M  V30 7617 C 698.17 0.954635 -2.85144 0
M  V30 7618 C 699.718 1.05579 -2.94656 0
M  V30 7619 C 700.193 1.3187 -4.38605 0
M  V30 7620 N 701.684 1.38681 -4.41952 0
M  V30 7621 C 702.419 1.60699 -5.50421 0
M  V30 7622 N 701.915 1.80154 -6.68967 0
M  V30 7623 N 703.708 1.6292 -5.37972 0
M  V30 7624 H 695.859 -0.4156 -2.08294 0
M  V30 7625 H 698.122 -0.123776 -0.939885 0
M  V30 7626 H 697.828 0.133829 -3.51445 0
M  V30 7627 H 697.702 1.86788 -3.27704 0
M  V30 7628 H 700.089 1.86716 -2.2852 0
M  V30 7629 H 700.17 0.120338 -2.55517 0
M  V30 7630 H 699.814 0.512416 -5.05309 0
M  V30 7631 H 699.744 2.26708 -4.75301 0
M  V30 7632 H 702.235 1.25334 -3.56511 0
M  V30 7633 H 702.548 1.96476 -7.47407 0
M  V30 7634 H 700.893 1.77368 -6.71986 0
M  V30 7635 H 704.084 1.47276 -4.44328 0
M  V30 7636 H 704.257 1.79739 -6.22574 0
M  V30 7637 N 697.663 1.43903 0.642637 0
M  V30 7638 C 698.912 1.45362 1.39831 0
M  V30 7639 C 699.225 0.0856289 1.95412 0
M  V30 7640 O 700.431 -0.0222856 2.71491 0
M  V30 7641 C 698.887 2.55857 2.53111 0
M  V30 7642 C 698.495 3.98811 2.04092 0
M  V30 7643 C 700.239 2.66524 3.30402 0
M  V30 7644 C 698.146 5.00751 3.14647 0
M  V30 7645 H 697.076 0.540777 0.52543 0
M  V30 7646 H 699.727 1.69929 0.692559 0
M  V30 7647 H 698.109 2.2451 3.26207 0
M  V30 7648 H 699.283 4.3967 1.37938 0
M  V30 7649 H 697.598 3.92284 1.39651 0
M  V30 7650 H 700.195 3.39858 4.12796 0
M  V30 7651 H 700.538 1.71949 3.79129 0
M  V30 7652 H 701.071 2.97224 2.64392 0
M  V30 7653 H 697.81 5.96914 2.70876 0
M  V30 7654 H 697.33 4.64495 3.79479 0
M  V30 7655 H 699.009 5.23933 3.79609 0
M  V30 7656 N 699.141 -0.881989 1.30609 0
M  V30 7657 C 700.051 -2.02076 1.19174 0
M  V30 7658 C 701.067 -1.73645 0.11102 0
M  V30 7659 O 702.243 -1.98735 0.326528 0
M  V30 7660 C 699.308 -3.3515 0.887438 0
M  V30 7661 C 698.369 -3.76983 2.05383 0
M  V30 7662 C 697.602 -5.03707 1.76395 0
M  V30 7663 O 697.825 -5.66171 0.693302 0
M  V30 7664 O 696.759 -5.42019 2.61723 0
M  V30 7665 H 700.585 -2.14652 2.14845 0
M  V30 7666 H 698.17 -1.00843 1.10232 0
M  V30 7667 H 700.052 -4.14975 0.73306 0
M  V30 7668 H 698.727 -3.23676 -0.0393354 0
M  V30 7669 H 697.634 -2.97849 2.26355 0
M  V30 7670 H 698.967 -3.93066 2.96243 0
M  V30 7671 N 700.619 -1.13374 -1.09472 0
M  V30 7672 C 701.849 -0.917019 -1.85133 0
M  V30 7673 C 702.257 0.537568 -1.81402 0
M  V30 7674 O 701.6 1.38385 -1.20811 0
M  V30 7675 C 701.662 -1.32646 -3.34134 0
M  V30 7676 C 701.326 -2.79437 -3.61613 0
M  V30 7677 C 702.323 -3.77596 -3.57375 0
M  V30 7678 C 700.008 -3.16586 -3.89973 0
M  V30 7679 C 702.002 -5.10916 -3.81108 0
M  V30 7680 C 699.689 -4.50085 -4.13361 0
M  V30 7681 C 700.687 -5.47059 -4.0892 0
M  V30 7682 O 700.375 -6.78149 -4.31705 0
M  V30 7683 H 700.107 -0.326997 -0.591649 0
M  V30 7684 H 702.661 -1.51002 -1.39239 0
M  V30 7685 H 700.891 -0.676719 -3.80733 0
M  V30 7686 H 702.58 -1.08229 -3.91205 0
M  V30 7687 H 703.346 -3.50242 -3.35493 0
M  V30 7688 H 699.225 -2.41707 -3.92554 0
M  V30 7689 H 702.769 -5.86597 -3.77558 0
M  V30 7690 H 698.666 -4.77163 -4.34724 0
M  V30 7691 H 699.434 -6.84244 -4.49168 0
M  V30 7692 N 702.098 1.27442 -0.927168 0
M  V30 7693 C 703.046 2.28844 -0.416333 0
M  V30 7694 C 704.04 1.61882 0.499057 0
M  V30 7695 O 705.246 1.75969 0.378817 0
M  V30 7696 H 701.621 0.742989 -0.116065 0
M  V30 7697 H 703.592 2.69344 -1.28438 0
M  V30 7698 C 702.341 3.4626 0.316107 0
M  V30 7699 H 701.664 3.97999 -0.379082 0
M  V30 7700 H 703.104 4.19173 0.637975 0
M  V30 7701 C 701.563 3.00211 1.5289 0
M  V30 7702 O 702.093 3.03837 2.62766 0
M  V30 7703 N 700.299 2.55713 1.38054 0
M  V30 7704 H 699.846 2.52962 0.4866 0
M  V30 7705 H 699.804 2.25264 2.19325 0
M  V30 7706 N 703.576 0.692616 1.41565 0
M  V30 7707 C 704.804 0.231279 2.05603 0
M  V30 7708 C 705.219 -1.11837 1.52111 0
M  V30 7709 O 704.576 -1.6983 0.66813 0
M  V30 7710 C 704.627 0.177125 3.61066 0
M  V30 7711 O 704.348 1.47346 4.12578 0
M  V30 7712 C 705.849 -0.30556 4.42246 0
M  V30 7713 H 703.069 0.108238 0.662213 0
M  V30 7714 H 705.613 0.944369 1.81389 0
M  V30 7715 H 703.768 -0.486769 3.8433 0
M  V30 7716 H 704.182 1.35861 5.06599 0
M  V30 7717 H 705.656 -0.29233 5.51225 0
M  V30 7718 H 706.133 -1.34393 4.18133 0
M  V30 7719 H 706.739 0.327229 4.24039 0
M  V30 7720 N 705.054 -1.51416 0.437162 0
M  V30 7721 C 705.986 -2.255 -0.410171 0
M  V30 7722 C 706.999 -1.29511 -0.986444 0
M  V30 7723 O 708.188 -1.55266 -0.880614 0
M  V30 7724 C 705.288 -2.99511 -1.58575 0
M  V30 7725 C 704.461 -4.22595 -1.12839 0
M  V30 7726 C 703.52 -4.79187 -2.17407 0
M  V30 7727 O 702.546 -5.4103 -1.76849 0
M  V30 7728 N 703.748 -4.63204 -3.49889 0
M  V30 7729 H 706.513 -2.98856 0.224783 0
M  V30 7730 H 704.074 -1.59699 0.266041 0
M  V30 7731 H 706.066 -3.34258 -2.28152 0
M  V30 7732 H 704.636 -2.29167 -2.12606 0
M  V30 7733 H 703.856 -3.93344 -0.259695 0
M  V30 7734 H 705.144 -5.02468 -0.800196 0
M  V30 7735 H 704.542 -4.13945 -3.85573 0
M  V30 7736 H 703.099 -5.02313 -4.15361 0
M  V30 7737 N 706.532 -0.168513 -1.56696 0
M  V30 7738 C 707.757 0.486688 -2.01609 0
M  V30 7739 C 708.182 1.56203 -1.04796 0
M  V30 7740 O 707.54 1.8128 -0.0270596 0
M  V30 7741 C 707.588 1.04451 -3.45141 0
M  V30 7742 O 706.692 2.15862 -3.51393 0
M  V30 7743 H 706.033 0.116831 -0.653641 0
M  V30 7744 H 708.563 -0.271579 -2.0279 0
M  V30 7745 H 708.573 1.36782 -3.84389 0
M  V30 7746 H 707.248 0.257155 -4.15104 0
M  V30 7747 H 705.825 1.84597 -3.24004 0
M  V30 7748 N 708.01 1.57248 0.105221 0
M  V30 7749 C 708.958 2.02337 1.14728 0
M  V30 7750 C 709.952 0.922652 1.42069 0
M  V30 7751 O 711.158 1.10785 1.41869 0
M  V30 7752 H 707.533 0.644682 0.387155 0
M  V30 7753 H 709.504 2.89063 0.740607 0
M  V30 7754 C 708.253 2.45513 2.46209 0
M  V30 7755 H 707.576 3.29785 2.26013 0
M  V30 7756 H 709.016 2.80846 3.1765 0
M  V30 7757 C 707.475 1.3243 3.09781 0
M  V30 7758 O 708.005 0.647841 3.96442 0
M  V30 7759 N 706.211 1.07785 2.69872 0
M  V30 7760 H 705.758 1.62973 1.99493 0
M  V30 7761 H 705.716 0.323204 3.12734 0
M  V30 7762 N 709.488 -0.375779 1.53054 0
M  V30 7763 C 710.718 -1.1387 1.72386 0
M  V30 7764 C 711.126 -1.8382 0.447966 0
M  V30 7765 O 710.469 -1.74027 -0.588244 0
M  V30 7766 C 710.531 -2.22047 2.82728 0
M  V30 7767 C 710.195 -1.71951 4.23417 0
M  V30 7768 C 711.192 -1.18909 5.06119 0
M  V30 7769 C 708.877 -1.77773 4.69789 0
M  V30 7770 C 710.871 -0.723529 6.3328 0
M  V30 7771 C 708.558 -1.30829 5.96931 0
M  V30 7772 C 709.556 -0.782077 6.78508 0
M  V30 7773 O 709.244 -0.319529 8.03265 0
M  V30 7774 H 708.976 -0.346835 0.580242 0
M  V30 7775 H 711.53 -0.443748 2.00549 0
M  V30 7776 H 709.76 -2.95006 2.50017 0
M  V30 7777 H 711.449 -2.83654 2.90336 0
M  V30 7778 H 712.215 -1.13758 4.7147 0
M  V30 7779 H 708.094 -2.17673 4.06373 0
M  V30 7780 H 711.638 -0.312126 6.96901 0
M  V30 7781 H 707.535 -1.3567 6.31081 0
M  V30 7782 H 708.303 -0.439796 8.17318 0
M  V30 7783 N 710.966 -1.44241 -0.634997 0
M  V30 7784 C 712.215 -1.46102 -1.39058 0
M  V30 7785 C 712.528 -0.0959909 -1.95364 0
M  V30 7786 O 713.734 0.00788751 -2.71499 0
M  V30 7787 C 712.19 -2.57195 -2.51751 0
M  V30 7788 C 711.798 -3.99888 -2.01974 0
M  V30 7789 C 713.542 -2.68272 -3.28984 0
M  V30 7790 C 711.449 -5.02412 -3.11987 0
M  V30 7791 H 710.379 -0.543556 -0.522554 0
M  V30 7792 H 713.03 -1.70294 -0.683538 0
M  V30 7793 H 711.412 -2.26237 -3.25012 0
M  V30 7794 H 712.586 -4.40396 -1.35604 0
M  V30 7795 H 710.901 -3.93019 -1.37568 0
M  V30 7796 H 713.498 -3.42042 -4.10988 0
M  V30 7797 H 713.841 -1.73957 -3.78212 0
M  V30 7798 H 714.374 -2.98622 -2.62812 0
M  V30 7799 H 711.113 -5.98342 -2.67707 0
M  V30 7800 H 710.633 -4.66501 -3.77011 0
M  V30 7801 H 712.312 -5.25939 -3.76825 0
M  V30 7802 N 712.444 0.87505 -1.31075 0
M  V30 7803 C 713.354 2.01441 -1.20244 0
M  V30 7804 C 714.37 1.73584 -0.120227 0
M  V30 7805 O 715.546 1.98559 -0.337063 0
M  V30 7806 C 712.611 3.34675 -0.905199 0
M  V30 7807 C 711.672 3.75889 -2.0738 0
M  V30 7808 C 710.905 5.02764 -1.79064 0
M  V30 7809 O 711.128 5.65795 -0.723318 0
M  V30 7810 O 710.062 5.40623 -2.64594 0
M  V30 7811 H 713.888 2.13509 -2.1598 0
M  V30 7812 H 711.473 1.00257 -1.10765 0
M  V30 7813 H 713.355 4.1458 -0.755057 0
M  V30 7814 H 712.03 3.23692 0.0221695 0
M  V30 7815 H 710.937 2.96645 -2.27931 0
M  V30 7816 H 712.27 3.91489 -2.98324 0
M  V30 7817 N 713.922 1.13953 1.08869 0
M  V30 7818 C 714.87 0.817664 2.17754 0
M  V30 7819 C 715.864 -0.202444 1.68186 0
M  V30 7820 O 717.07 -0.0590159 1.79903 0
M  V30 7821 H 713.445 0.246671 0.710392 0
M  V30 7822 H 715.416 1.74401 2.4213 0
M  V30 7823 C 714.165 0.3063 3.46348 0
M  V30 7824 H 713.488 1.08259 3.84864 0
M  V30 7825 H 714.928 0.119584 4.23831 0
M  V30 7826 C 713.387 -0.969158 3.22659 0
M  V30 7827 O 713.917 -2.04386 3.45817 0
M  V30 7828 N 712.123 -0.902516 2.7623 0
M  V30 7829 H 711.67 -0.027801 2.57585 0
M  V30 7830 H 711.628 -1.75649 2.60758 0
M  V30 7831 N 715.4 -1.26948 0.933913 0
M  V30 7832 C 716.677 -1.89212 0.495784 0
M  V30 7833 C 717.057 -1.84469 -1.02637 0
M  V30 7834 O 716.405 -1.29409 -1.88323 0
M  V30 7835 C 716.615 -3.32865 1.0489 0
M  V30 7836 C 717.963 -4.09749 1.11315 0
M  V30 7837 O 718.987 -3.41905 0.998966 0
M  V30 7838 O 717.846 -5.31061 1.28983 0
M  V30 7839 H 714.94 -0.811284 0.160459 0
M  V30 7840 H 717.486 -1.35171 1.02601 0
M  V30 7841 H 716.258 -3.30642 2.09265 0
M  V30 7842 H 715.881 -3.94435 0.500692 0
M  V30 7843 N 716.879 -0.700114 -1.41195 0
M  V30 7844 C 718.126 -0.233006 -2.01155 0
M  V30 7845 C 718.454 1.16883 -1.55462 0
M  V30 7846 O 717.709 1.80395 -0.758695 0
M  V30 7847 C 718.008 -0.243986 -3.56566 0
M  V30 7848 C 717.674 -1.59397 -4.21786 0
M  V30 7849 C 716.336 -1.96355 -4.39316 0
M  V30 7850 C 718.688 -2.48192 -4.58312 0
M  V30 7851 C 716.016 -3.21683 -4.9065 0
M  V30 7852 C 718.368 -3.72857 -5.11039 0
M  V30 7853 C 717.032 -4.09951 -5.26779 0
M  V30 7854 H 716.302 -0.085263 -0.736078 0
M  V30 7855 H 718.949 -0.9001 -1.69028 0
M  V30 7856 H 717.254 0.506663 -3.8851 0
M  V30 7857 H 718.951 0.135031 -4.00773 0
M  V30 7858 H 715.541 -1.29654 -4.08519 0
M  V30 7859 H 719.725 -2.20918 -4.4442 0
M  V30 7860 H 714.981 -3.50412 -5.01021 0
M  V30 7861 H 719.155 -4.41844 -5.38282 0
M  V30 7862 H 716.782 -5.07136 -5.66319 0
M  V30 7863 N 718.357 1.51182 -0.445186 0
M  V30 7864 C 719.768 1.86693 0.0160999 0
M  V30 7865 C 720.119 1.36183 1.4124 0
M  V30 7866 O 719.244 0.715895 2.04215 0
M  V30 7867 C 719.839 3.38781 0.0359918 0
M  V30 7868 C 718.398 3.73799 0.441715 0
M  V30 7869 C 717.545 2.74947 -0.360511 0
M  V30 7870 H 720.496 1.44294 -0.660674 0
M  V30 7871 H 720.517 3.71026 0.843813 0
M  V30 7872 H 720.029 3.75513 -0.980378 0
M  V30 7873 H 718.13 3.42659 1.4634 0
M  V30 7874 H 718.243 4.78829 0.16106 0
M  V30 7875 H 716.607 2.54047 0.182269 0
M  V30 7876 H 717.39 3.14521 -1.3759 0
M  V30 7877 N 719.835 0.176821 1.56605 0
M  V30 7878 C 721.084 -0.466833 1.96223 0
M  V30 7879 C 721.397 -1.64015 1.06576 0
M  V30 7880 O 722.603 -2.3504 1.35898 0
M  V30 7881 C 721.059 -0.881921 3.48927 0
M  V30 7882 C 720.667 0.266102 4.47209 0
M  V30 7883 C 722.411 -1.49368 3.97353 0
M  V30 7884 C 720.318 -0.168923 5.91159 0
M  V30 7885 H 719.248 -0.178178 0.732645 0
M  V30 7886 H 721.899 0.265929 1.81563 0
M  V30 7887 H 720.281 -1.67082 3.59026 0
M  V30 7888 H 721.455 1.04349 4.4883 0
M  V30 7889 H 719.77 0.788178 4.08872 0
M  V30 7890 H 722.367 -1.8313 5.02362 0
M  V30 7891 H 722.71 -2.3936 3.40606 0
M  V30 7892 H 723.243 -0.769114 3.90294 0
M  V30 7893 H 719.982 0.696351 6.51791 0
M  V30 7894 H 719.502 -0.911552 5.92833 0
M  V30 7895 H 721.181 -0.610938 6.44109 0
M  V30 7896 N 721.313 -1.57302 -0.09688 0
M  V30 7897 C 722.261 -2.02942 -1.13654 0
M  V30 7898 C 723.255 -0.930173 -1.41577 0
M  V30 7899 O 724.461 -1.11535 -1.41279 0
M  V30 7900 H 720.836 -0.646726 -0.383731 0
M  V30 7901 H 722.807 -2.89452 -0.725267 0
M  V30 7902 C 721.556 -2.46815 -2.44903 0
M  V30 7903 H 720.879 -3.30979 -2.24261 0
M  V30 7904 H 722.319 -2.82527 -3.16156 0
M  V30 7905 C 720.778 -1.34071 -3.09074 0
M  V30 7906 O 721.308 -0.668856 -3.96092 0
M  V30 7907 N 719.514 -1.09214 -2.69296 0
M  V30 7908 H 719.061 -1.64029 -1.98626 0
M  V30 7909 H 719.019 -0.339785 -3.12559 0
M  V30 7910 N 722.791 0.367657 -1.53252 0
M  V30 7911 C 723.701 1.47415 -1.82499 0
M  V30 7912 C 724.717 1.58711 -0.713222 0
M  V30 7913 O 725.893 1.74644 -1.00306 0
M  V30 7914 C 722.958 2.82706 -2.00694 0
M  V30 7915 C 722.019 2.80955 -3.24596 0
M  V30 7916 C 721.252 4.09793 -3.41914 0
M  V30 7917 O 721.475 5.05852 -2.63572 0
M  V30 7918 O 720.409 4.15731 -4.3526 0
M  V30 7919 H 724.235 1.25624 -2.765 0
M  V30 7920 H 721.82 0.557559 -1.38606 0
M  V30 7921 H 723.702 3.62873 -2.14246 0
M  V30 7922 H 722.377 3.04479 -1.09883 0
M  V30 7923 H 721.284 1.99494 -3.16469 0
M  V30 7924 H 722.617 2.64136 -4.15323 0
M  V30 7925 N 724.269 1.44576 0.627338 0
M  V30 7926 C 725.199 1.54562 1.75022 0
M  V30 7927 C 726.18 0.398378 1.65369 0
M  V30 7928 O 727.365 0.61899 1.84071 0
M  V30 7929 C 724.495 1.49309 3.13567 0
M  V30 7930 C 723.449 2.62549 3.38012 0
M  V30 7931 C 722.775 2.42348 4.76625 0
M  V30 7932 C 724.075 4.04678 3.30202 0
M  V30 7933 H 725.769 2.4855 1.66922 0
M  V30 7934 H 723.315 1.19624 0.801636 0
M  V30 7935 H 725.268 1.54895 3.919 0
M  V30 7936 H 723.992 0.518392 3.2246 0
M  V30 7937 H 722.651 2.56358 2.62061 0
M  V30 7938 H 722.299 1.43062 4.82226 0
M  V30 7939 H 721.999 3.18273 4.93939 0
M  V30 7940 H 723.523 2.49758 5.57183 0
M  V30 7941 H 724.937 4.12217 3.98435 0
M  V30 7942 H 723.334 4.80836 3.5905 0
M  V30 7943 H 724.404 4.2798 2.27949 0
M  V30 7944 N 725.747 -0.868086 1.31537 0
M  V30 7945 C 726.996 -1.61607 1.20689 0
M  V30 7946 C 727.309 -1.94204 -0.233275 0
M  V30 7947 O 728.515 -2.67515 -0.463465 0
M  V30 7948 C 726.971 -2.91348 2.11292 0
M  V30 7949 C 726.579 -2.66227 3.60315 0
M  V30 7950 C 728.323 -3.69344 2.09249 0
M  V30 7951 C 726.23 -3.91887 4.42921 0
M  V30 7952 H 725.16 -0.606373 0.448138 0
M  V30 7953 H 727.811 -0.959666 1.56405 0
M  V30 7954 H 726.193 -3.58374 1.68477 0
M  V30 7955 H 727.367 -2.07597 4.11388 0
M  V30 7956 H 725.682 -2.01582 3.64354 0
M  V30 7957 H 728.279 -4.62567 2.68209 0
M  V30 7958 H 728.622 -4.02044 1.0801 0
M  V30 7959 H 729.155 -3.09205 2.50274 0
M  V30 7960 H 725.894 -3.64336 5.44922 0
M  V30 7961 H 725.414 -4.49961 3.96605 0
M  V30 7962 H 727.093 -4.59754 4.55231 0
M  V30 7963 N 727.225 -1.14528 -1.08264 0
M  V30 7964 C 728.155 -0.856356 -2.1723 0
M  V30 7965 C 729.136 0.189251 -1.69044 0
M  V30 7966 O 730.321 0.0456119 -1.94146 0
M  V30 7967 C 727.451 -0.334662 -3.45684 0
M  V30 7968 C 726.405 -1.31588 -4.0727 0
M  V30 7969 C 725.731 -0.653428 -5.30692 0
M  V30 7970 C 727.031 -2.67866 -4.48381 0
M  V30 7971 H 728.725 -1.76755 -2.41657 0
M  V30 7972 H 726.271 -0.851287 -1.16143 0
M  V30 7973 H 728.224 -0.120128 -4.21229 0
M  V30 7974 H 726.948 0.611967 -3.20815 0
M  V30 7975 H 725.607 -1.51661 -3.33758 0
M  V30 7976 H 725.255 0.299054 -5.0211 0
M  V30 7977 H 724.955 -1.30817 -5.72853 0
M  V30 7978 H 726.479 -0.448453 -6.08951 0
M  V30 7979 H 727.893 -2.51692 -5.15096 0
M  V30 7980 H 726.29 -3.29627 -5.01464 0
M  V30 7981 H 727.36 -3.24632 -3.60198 0
M  V30 7982 N 728.703 1.26451 -0.940633 0
M  V30 7983 C 729.98 1.88947 -0.505811 0
M  V30 7984 C 730.36 1.85011 1.01657 0
M  V30 7985 O 729.708 1.30406 1.87634 0
M  V30 7986 C 729.918 3.32304 -1.06654 0
M  V30 7987 C 731.266 4.09153 -1.13486 0
M  V30 7988 O 732.29 3.41371 -1.01708 0
M  V30 7989 O 731.149 5.30369 -1.31797 0
M  V30 7990 H 728.243 0.810422 -0.164759 0
M  V30 7991 H 730.789 1.34625 -1.03316 0
M  V30 7992 H 729.561 3.29527 -2.11015 0
M  V30 7993 H 729.184 3.94164 -0.521603 0
M  V30 7994 N 730.181 0.707592 1.40822 0
M  V30 7995 C 731.409 0.253073 2.05346 0
M  V30 7996 C 731.824 -1.10218 1.53289 0
M  V30 7997 O 731.181 -1.69112 0.686105 0
M  V30 7998 C 731.232 0.215411 3.60858 0
M  V30 7999 O 730.953 1.51714 4.10992 0
M  V30 8000 C 732.454 -0.258636 4.42545 0
M  V30 8001 H 729.674 0.115256 0.661027 0
M  V30 8002 H 732.218 0.963555 1.80377 0
M  V30 8003 H 730.373 -0.445978 3.84824 0
M  V30 8004 H 730.787 1.41226 5.05129 0
M  V30 8005 H 732.261 -0.233849 5.51504 0
M  V30 8006 H 732.738 -1.2995 4.19535 0
M  V30 8007 H 733.344 0.372186 4.23668 0
M  V30 8008 N 731.66 -1.50943 0.453197 0
M  V30 8009 C 732.937 -1.94872 -0.168633 0
M  V30 8010 C 733.317 -1.39272 -1.5864 0
M  V30 8011 O 732.665 -0.586272 -2.20851 0
M  V30 8012 C 732.875 -3.48757 -0.130217 0
M  V30 8013 C 734.223 -4.23331 -0.327975 0
M  V30 8014 O 735.247 -3.55594 -0.207619 0
M  V30 8015 O 734.106 -5.43529 -0.569077 0
M  V30 8016 H 731.2 -0.818042 -0.121394 0
M  V30 8017 H 733.746 -1.61782 0.512316 0
M  V30 8018 H 732.518 -3.81725 0.860346 0
M  V30 8019 H 732.141 -3.88333 -0.853397 0
M  V30 8020 N 733.138 -0.185124 -1.56509 0
M  V30 8021 C 734.068 0.735098 -2.21627 0
M  V30 8022 C 735.049 1.2288 -1.1762 0
M  V30 8023 O 736.234 1.27945 -1.46095 0
M  V30 8024 C 733.364 1.95889 -2.86783 0
M  V30 8025 C 732.318 1.6005 -3.96948 0
M  V30 8026 C 731.644 2.90009 -4.4922 0
M  V30 8027 C 732.944 0.818008 -5.15855 0
M  V30 8028 H 734.638 0.192274 -2.98782 0
M  V30 8029 H 732.184 0.0910393 -1.43712 0
M  V30 8030 H 734.137 2.60779 -3.31017 0
M  V30 8031 H 732.861 2.52608 -2.07018 0
M  V30 8032 H 731.52 0.975237 -3.5339 0
M  V30 8033 H 731.168 3.44797 -3.6623 0
M  V30 8034 H 730.868 2.66778 -5.23549 0
M  V30 8035 H 732.392 3.55904 -4.9615 0
M  V30 8036 H 733.806 1.36979 -5.56695 0
M  V30 8037 H 732.203 0.684207 -5.96187 0
M  V30 8038 H 733.273 -0.182939 -4.84555 0
M  V30 8039 N 734.616 1.57351 0.0885366 0
M  V30 8040 C 735.865 1.85604 0.789556 0
M  V30 8041 C 736.178 0.775352 1.79576 0
M  V30 8042 O 737.384 0.945206 2.54515 0
M  V30 8043 C 735.84 3.29175 1.45506 0
M  V30 8044 C 735.448 4.45331 0.488278 0
M  V30 8045 C 737.192 3.66646 2.13942 0
M  V30 8046 C 735.099 5.79937 1.15874 0
M  V30 8047 H 734.029 0.692346 0.298619 0
M  V30 8048 H 736.68 1.83451 0.0425821 0
M  V30 8049 H 735.062 3.25889 2.24972 0
M  V30 8050 H 736.236 4.59977 -0.275359 0
M  V30 8051 H 734.551 4.16301 -0.0907363 0
M  V30 8052 H 737.148 4.64498 2.6485 0
M  V30 8053 H 737.491 2.956 2.93132 0
M  V30 8054 H 738.024 3.71848 1.41328 0
M  V30 8055 H 734.763 6.54232 0.407508 0
M  V30 8056 H 734.283 5.69123 1.89364 0
M  V30 8057 H 735.962 6.24718 1.68336 0
M  V30 8058 N 736.094 -0.359525 1.53444 0
M  V30 8059 C 737.319 -1.12644 1.74144 0
M  V30 8060 C 737.744 -1.82082 0.472007 0
M  V30 8061 O 737.102 -1.71962 -0.57436 0
M  V30 8062 C 737.15 -2.12781 2.9113 0
M  V30 8063 O 736.254 -3.19984 2.60162 0
M  V30 8064 H 735.595 -0.326553 0.578152 0
M  V30 8065 H 738.125 -0.414798 2.00351 0
M  V30 8066 H 738.135 -2.56278 3.17467 0
M  V30 8067 H 736.81 -1.61634 3.83207 0
M  V30 8068 H 735.387 -2.81417 2.44661 0
M  V30 8069 N 737.572 -1.44907 -0.619662 0
M  V30 8070 C 738.519 -1.52654 -1.73105 0
M  V30 8071 C 739.489 -0.373334 -1.6185 0
M  V30 8072 O 740.674 -0.585143 -1.81606 0
M  V30 8073 C 737.814 -1.48769 -3.11387 0
M  V30 8074 C 736.927 -2.74551 -3.33535 0
M  V30 8075 C 736.062 -2.62421 -4.61854 0
M  V30 8076 C 735.101 -3.83312 -4.77219 0
M  V30 8077 N 734.238 -3.69789 -5.96826 0
M  V30 8078 H 739.078 -2.47605 -1.65819 0
M  V30 8079 H 736.615 -1.22875 -0.808719 0
M  V30 8080 H 738.573 -1.44507 -3.91374 0
M  V30 8081 H 737.203 -0.573783 -3.1766 0
M  V30 8082 H 736.255 -2.88953 -2.47408 0
M  V30 8083 H 737.567 -3.64253 -3.40765 0
M  V30 8084 H 736.721 -2.56056 -5.50019 0
M  V30 8085 H 735.46 -1.70298 -4.57001 0
M  V30 8086 H 734.465 -3.90049 -3.87481 0
M  V30 8087 H 735.69 -4.76486 -4.83878 0
M  V30 8088 H 733.636 -2.80426 -5.93041 0
M  V30 8089 H 733.553 -4.53116 -6.05163 0
M  V30 8090 H 734.821 -3.67335 -6.87521 0
M  V30 8091 N 739.05 0.861098 -1.31996 0
M  V30 8092 C 740.299 1.60965 -1.21545 0
M  V30 8093 C 740.612 1.94325 0.222972 0
M  V30 8094 O 741.818 2.67757 0.449272 0
M  V30 8095 C 740.274 2.90223 -2.12834 0
M  V30 8096 C 739.882 2.64313 -3.61722 0
M  V30 8097 C 741.626 3.68229 -2.11205 0
M  V30 8098 C 739.533 3.89532 -4.44993 0
M  V30 8099 H 738.463 0.603988 -0.451348 0
M  V30 8100 H 741.114 0.951358 -1.56912 0
M  V30 8101 H 739.496 3.57475 -1.70375 0
M  V30 8102 H 740.67 2.05413 -4.12483 0
M  V30 8103 H 738.985 1.99647 -3.65418 0
M  V30 8104 H 741.582 4.61138 -2.70658 0
M  V30 8105 H 741.925 4.01466 -1.1014 0
M  V30 8106 H 742.458 3.07873 -2.51911 0
M  V30 8107 H 739.197 3.61441 -5.46846 0
M  V30 8108 H 738.717 4.47851 -3.98985 0
M  V30 8109 H 740.396 4.57334 -4.57663 0
M  V30 8110 N 740.528 1.15101 1.07655 0
M  V30 8111 C 741.438 0.858869 2.18313 0
M  V30 8112 C 742.454 -0.163641 1.73229 0
M  V30 8113 O 743.63 0.00969541 2.01398 0
M  V30 8114 C 740.695 0.34893 3.4494 0
M  V30 8115 C 739.756 1.43495 4.04608 0
M  V30 8116 C 738.989 0.949253 5.2519 0
M  V30 8117 O 739.212 -0.20636 5.70027 0
M  V30 8118 O 738.146 1.73161 5.76454 0
M  V30 8119 H 741.972 1.78386 2.45788 0
M  V30 8120 H 739.557 0.929876 1.16934 0
M  V30 8121 H 741.439 0.070851 4.2134 0
M  V30 8122 H 740.114 -0.548237 3.19024 0
M  V30 8123 H 739.021 1.7666 3.29761 0
M  V30 8124 H 740.354 2.30692 4.3479 0
M  V30 8125 N 742.006 -1.2595 0.947325 0
M  V30 8126 C 742.936 -2.28521 0.479604 0
M  V30 8127 C 743.917 -1.63469 -0.470293 0
M  V30 8128 O 745.102 -1.90627 -0.370824 0
M  V30 8129 C 742.232 -3.46397 -0.250289 0
M  V30 8130 C 741.186 -4.23578 0.613643 0
M  V30 8131 C 740.512 -5.34131 -0.246568 0
M  V30 8132 C 741.812 -4.86979 1.88809 0
M  V30 8133 H 743.506 -2.67895 1.33688 0
M  V30 8134 H 741.052 -1.28783 0.644274 0
M  V30 8135 H 743.005 -4.17269 -0.588576 0
M  V30 8136 H 741.729 -3.05993 -1.14175 0
M  V30 8137 H 740.388 -3.54478 0.93491 0
M  V30 8138 H 740.036 -4.89968 -1.13756 0
M  V30 8139 H 739.736 -5.86683 0.328123 0
M  V30 8140 H 741.26 -6.07839 -0.579986 0
M  V30 8141 H 742.674 -5.50034 1.61666 0
M  V30 8142 H 741.071 -5.49675 2.40784 0
M  V30 8143 H 742.141 -4.09575 2.5957 0
M  V30 8144 N 743.484 -0.715051 -1.40445 0
M  V30 8145 C 744.895 -0.326763 -1.83818 0
M  V30 8146 C 745.246 1.13851 -1.59789 0
M  V30 8147 O 744.371 1.87611 -1.07848 0
M  V30 8148 C 744.966 -0.586297 -3.33688 0
M  V30 8149 C 743.525 -0.251724 -3.75557 0
M  V30 8150 C 742.672 -0.858928 -2.63662 0
M  V30 8151 H 745.623 -0.914241 -1.2972 0
M  V30 8152 H 745.644 0.148636 -3.8021 0
M  V30 8153 H 745.156 -1.65281 -3.51146 0
M  V30 8154 H 743.257 0.809754 -3.63695 0
M  V30 8155 H 743.37 -0.720348 -4.73654 0
M  V30 8156 H 741.734 -0.287013 -2.53078 0
M  V30 8157 H 742.517 -1.9297 -2.83932 0
M  V30 8158 N 744.962 1.50701 -0.461195 0
M  V30 8159 C 746.187 2.07171 0.0974773 0
M  V30 8160 C 746.612 1.32391 1.3362 0
M  V30 8161 O 745.97 0.368676 1.77512 0
M  V30 8162 C 746.018 3.58651 0.374409 0
M  V30 8163 O 745.122 3.85816 1.4567 0
M  V30 8164 H 744.463 0.663944 -0.00862047 0
M  V30 8165 H 746.993 1.94021 -0.649394 0
M  V30 8166 H 747.003 4.03295 0.617843 0
M  V30 8167 H 745.678 4.12498 -0.530829 0
M  V30 8168 H 744.255 3.53018 1.20136 0
M  V30 8169 N 746.441 0.193421 1.56409 0
M  V30 8170 C 747.351 -0.740112 2.2262 0
M  V30 8171 C 748.367 -1.23597 1.22474 0
M  V30 8172 O 749.543 -1.28348 1.55206 0
M  V30 8173 C 746.608 -1.94317 2.87127 0
M  V30 8174 C 745.669 -1.49205 4.02538 0
M  V30 8175 C 744.902 -2.63776 4.63959 0
M  V30 8176 O 745.125 -3.81215 4.24301 0
M  V30 8177 O 744.059 -2.36585 5.53454 0
M  V30 8178 H 747.885 -0.206238 3.02999 0
M  V30 8179 H 745.47 -0.0357938 1.49357 0
M  V30 8180 H 747.352 -2.64633 3.27944 0
M  V30 8181 H 746.027 -2.46568 2.09728 0
M  V30 8182 H 744.934 -0.757738 3.66346 0
M  V30 8183 H 746.267 -1.01622 4.81595 0
M  V30 8184 N 747.919 -1.57396 -0.0801906 0
M  V30 8185 C 748.867 -2.04136 -1.11495 0
M  V30 8186 C 749.861 -0.945137 -1.40583 0
M  V30 8187 O 751.067 -1.13028 -1.40088 0
M  V30 8188 H 747.442 -0.65076 -0.37685 0
M  V30 8189 H 749.413 -2.90205 -0.694526 0
M  V30 8190 C 748.162 -2.49399 -2.42272 0
M  V30 8191 H 747.485 -3.33339 -2.20737 0
M  V30 8192 H 748.925 -2.85864 -3.13142 0
M  V30 8193 C 747.384 -1.37341 -3.07635 0
M  V30 8194 O 747.914 -0.710829 -3.95361 0
M  V30 8195 N 746.12 -1.12064 -2.68123 0
M  V30 8196 H 745.667 -1.66126 -1.96875 0
M  V30 8197 H 745.625 -0.372916 -3.12181 0
M  V30 8198 N 749.397 0.351382 -1.53633 0
M  V30 8199 C 750.625 1.11275 -1.74429 0
M  V30 8200 C 751.04 1.82602 -0.479798 0
M  V30 8201 O 750.397 1.74074 0.548125 0
M  V30 8202 C 750.448 2.13223 -2.91921 0
M  V30 8203 O 750.169 1.44798 -4.13479 0
M  V30 8204 C 751.67 3.01797 -3.24706 0
M  V30 8205 H 748.89 0.332153 -0.583023 0
M  V30 8206 H 751.434 0.405974 -2.0043 0
M  V30 8207 H 749.589 2.79477 -2.68274 0
M  V30 8208 H 750.003 2.12839 -4.79374 0
M  V30 8209 H 751.477 3.69282 -4.10286 0
M  V30 8210 H 751.954 3.67387 -2.40673 0
M  V30 8211 H 752.56 2.41141 -3.5033 0
M  V30 8212 N 750.875 1.45233 0.611969 0
M  V30 8213 C 751.785 1.56098 1.7513 0
M  V30 8214 C 752.801 0.445646 1.68196 0
M  V30 8215 O 753.977 0.705718 1.88631 0
M  V30 8216 C 751.042 1.52052 3.11579 0
M  V30 8217 C 750.103 2.74589 3.29999 0
M  V30 8218 C 749.336 2.70726 4.59938 0
M  V30 8219 O 749.559 1.77806 5.41979 0
M  V30 8220 O 748.493 3.61864 4.80976 0
M  V30 8221 H 752.319 2.52392 1.68914 0
M  V30 8222 H 749.904 1.27695 0.775528 0
M  V30 8223 H 751.786 1.52387 3.92882 0
M  V30 8224 H 750.461 0.589085 3.18295 0
M  V30 8225 H 749.368 2.79817 2.48301 0
M  V30 8226 H 750.701 3.66843 3.28157 0
M  V30 8227 N 752.353 -0.854086 1.3245 0
M  V30 8228 C 753.578 -1.64597 1.26185 0
M  V30 8229 C 754.003 -1.87357 -0.167074 0
M  V30 8230 O 753.361 -1.42675 -1.11864 0
M  V30 8231 C 753.409 -2.98213 2.02734 0
M  V30 8232 O 752.513 -3.88784 1.37554 0
M  V30 8233 H 751.854 -0.50179 0.434859 0
M  V30 8234 H 754.384 -1.06372 1.74775 0
M  V30 8235 H 754.394 -3.4803 2.1293 0
M  V30 8236 H 753.069 -2.80969 3.06642 0
M  V30 8237 H 751.646 -3.4725 1.3591 0
M  V30 8238 N 753.831 -1.1567 -1.07043 0
M  V30 8239 C 754.761 -0.879348 -2.16309 0
M  V30 8240 C 755.742 0.171311 -1.69235 0
M  V30 8241 O 756.927 0.0250175 -1.94184 0
M  V30 8242 C 754.057 -0.371307 -3.45309 0
M  V30 8243 C 753.011 -1.359 -4.05851 0
M  V30 8244 C 752.337 -0.709678 -5.29969 0
M  V30 8245 C 753.637 -2.72606 -4.45514 0
M  V30 8246 H 755.331 -1.79308 -2.39768 0
M  V30 8247 H 752.877 -0.863558 -1.15233 0
M  V30 8248 H 754.83 -0.164798 -4.21078 0
M  V30 8249 H 753.554 0.577906 -3.21446 0
M  V30 8250 H 752.213 -1.55193 -3.32131 0
M  V30 8251 H 751.861 0.245782 -5.02399 0
M  V30 8252 H 751.561 -1.36886 -5.71433 0
M  V30 8253 H 753.085 -0.513015 -6.08441 0
M  V30 8254 H 754.499 -2.57141 -5.12398 0
M  V30 8255 H 752.896 -3.34927 -4.97939 0
M  V30 8256 H 753.966 -3.28434 -3.56734 0
M  V30 8257 N 755.309 1.25446 -0.953992 0
M  V30 8258 C 756.537 1.97215 -0.625595 0
M  V30 8259 C 756.952 1.70911 0.802168 0
M  V30 8260 O 756.309 0.984782 1.5365 0
M  V30 8261 C 756.36 3.50777 -0.873943 0
M  V30 8262 O 756.081 3.76173 -2.24556 0
M  V30 8263 C 757.582 4.39776 -0.557845 0
M  V30 8264 H 754.802 0.628652 -0.2346 0
M  V30 8265 H 757.346 1.59632 -1.27819 0
M  V30 8266 H 755.501 3.86474 -0.267765 0
M  V30 8267 H 755.915 4.70636 -2.31522 0
M  V30 8268 H 757.389 5.46431 -0.782157 0
M  V30 8269 H 757.866 4.36257 0.507573 0
M  V30 8270 H 758.472 4.09644 -1.14332 0
M  V30 8271 N 756.787 0.722489 1.40064 0
M  V30 8272 C 758.064 0.191829 1.94657 0
M  V30 8273 C 758.444 -1.30389 1.66018 0
M  V30 8274 O 757.792 -2.06342 0.981588 0
M  V30 8275 C 758.002 0.511978 3.45224 0
M  V30 8276 C 759.35 0.454426 4.22161 0
M  V30 8277 O 760.374 0.448438 3.53366 0
M  V30 8278 O 759.233 0.437986 5.44742 0
M  V30 8279 H 756.327 0.0307821 0.826427 0
M  V30 8280 H 758.873 0.800493 1.49634 0
M  V30 8281 H 757.645 1.54622 3.59455 0
M  V30 8282 H 757.268 -0.126296 3.97399 0
M  V30 8283 N 758.265 -1.50454 0.469181 0
M  V30 8284 C 759.512 -2.02315 -0.086469 0
M  V30 8285 C 759.84 -1.3513 -1.39893 0
M  V30 8286 O 759.095 -0.465341 -1.90087 0
M  V30 8287 C 759.394 -3.55963 -0.320207 0
M  V30 8288 C 759.06 -4.41615 0.910318 0
M  V30 8289 C 757.722 -4.64743 1.2477 0
M  V30 8290 C 760.074 -4.91661 1.72971 0
M  V30 8291 C 757.402 -5.35161 2.40457 0
M  V30 8292 C 759.754 -5.6335 2.87785 0
M  V30 8293 C 758.418 -5.84732 3.2194 0
M  V30 8294 H 757.688 -0.740324 -0.0316412 0
M  V30 8295 H 760.335 -1.81087 0.622872 0
M  V30 8296 H 758.64 -3.75695 -1.11177 0
M  V30 8297 H 760.337 -3.93653 -0.764071 0
M  V30 8298 H 756.927 -4.23833 0.637467 0
M  V30 8299 H 761.111 -4.73649 1.48224 0
M  V30 8300 H 756.367 -5.49924 2.67196 0
M  V30 8301 H 760.541 -6.0111 3.51624 0
M  V30 8302 H 758.168 -6.39074 4.1169 0
M  V30 8303 N 759.743 -0.201713 -1.56304 0
M  V30 8304 C 760.691 0.733133 -2.20744 0
M  V30 8305 C 761.685 1.2148 -1.18064 0
M  V30 8306 O 762.891 1.17692 -1.36193 0
M  V30 8307 H 759.266 0.254789 -0.707521 0
M  V30 8308 H 761.237 0.165996 -2.97938 0
M  V30 8309 C 759.986 1.93925 -2.88597 0
M  V30 8310 H 759.309 1.5777 -3.67353 0
M  V30 8311 H 760.749 2.57158 -3.37114 0
M  V30 8312 C 759.208 2.78219 -1.89989 0
M  V30 8313 O 759.738 3.76353 -1.40432 0
M  V30 8314 N 757.944 2.43847 -1.58072 0
M  V30 8315 H 757.491 1.64103 -1.98565 0
M  V30 8316 H 757.449 3.0053 -0.923524 0
M  V30 8317 N 761.222 1.57436 0.0718424 0
M  V30 8318 C 762.468 1.87525 0.772149 0
M  V30 8319 C 762.801 0.79399 1.77227 0
M  V30 8320 O 762.076 -0.195733 1.93513 0
M  V30 8321 C 762.359 3.28272 1.48018 0
M  V30 8322 C 762.212 4.47052 0.49647 0
M  V30 8323 C 763.531 3.67256 2.42509 0
M  V30 8324 H 760.65 0.682049 0.279245 0
M  V30 8325 H 763.292 1.89967 0.03534 0
M  V30 8326 H 761.442 3.26321 2.10824 0
M  V30 8327 H 763.114 4.61127 -0.126375 0
M  V30 8328 H 761.357 4.33392 -0.188205 0
M  V30 8329 H 762.028 5.42315 1.02949 0
M  V30 8330 H 764.504 3.70301 1.89781 0
M  V30 8331 H 763.38 4.66626 2.89053 0
M  V30 8332 H 763.641 2.97186 3.27312 0
M  V30 8333 N 762.7 -0.34323 1.53817 0
M  V30 8334 C 763.977 -1.10047 1.61706 0
M  V30 8335 C 764.357 -2.06495 0.438514 0
M  V30 8336 O 763.705 -2.21297 -0.569188 0
M  V30 8337 C 763.915 -1.81985 2.97796 0
M  V30 8338 C 765.263 -2.35717 3.53161 0
M  V30 8339 O 766.287 -1.9208 2.99973 0
M  V30 8340 O 765.146 -3.15551 4.46195 0
M  V30 8341 H 762.24 -0.506096 0.654061 0
M  V30 8342 H 764.786 -0.344697 1.66162 0
M  V30 8343 H 763.558 -1.11722 3.75012 0
M  V30 8344 H 763.181 -2.64419 2.96931 0
M  V30 8345 N 764.178 -1.45556 -0.604258 0
M  V30 8346 C 765.424 -1.49968 -1.36519 0
M  V30 8347 C 765.757 -0.142236 -1.93678 0
M  V30 8348 O 765.032 0.843717 -1.75247 0
M  V30 8349 C 765.315 -2.58146 -2.51063 0
M  V30 8350 C 765.168 -4.03346 -1.99078 0
M  V30 8351 C 766.487 -2.62581 -3.53184 0
M  V30 8352 H 763.606 -0.545993 -0.495036 0
M  V30 8353 H 766.248 -1.77382 -0.680845 0
M  V30 8354 H 764.398 -2.34901 -3.09441 0
M  V30 8355 H 766.07 -4.37811 -1.45323 0
M  V30 8356 H 764.313 -4.13845 -1.30055 0
M  V30 8357 H 764.984 -4.74731 -2.81664 0
M  V30 8358 H 767.46 -2.83419 -3.04652 0
M  V30 8359 H 766.336 -3.40131 -4.30816 0
M  V30 8360 H 766.597 -1.67798 -4.09019 0
M  V30 8361 N 765.656 0.84705 -1.32902 0
M  V30 8362 C 767.067 1.41785 -1.21466 0
M  V30 8363 C 767.418 1.95464 0.169767 0
M  V30 8364 O 766.543 1.88157 1.06892 0
M  V30 8365 C 767.138 2.57734 -2.19906 0
M  V30 8366 C 765.697 3.10791 -2.12334 0
M  V30 8367 C 764.844 1.83562 -2.07847 0
M  V30 8368 H 767.795 0.653532 -1.44619 0
M  V30 8369 H 767.816 3.35123 -1.80202 0
M  V30 8370 H 767.328 2.18635 -3.20656 0
M  V30 8371 H 765.429 3.54455 -1.14858 0
M  V30 8372 H 765.542 3.71519 -3.02506 0
M  V30 8373 H 763.906 2.03475 -1.53199 0
M  V30 8374 H 764.689 1.4667 -3.10392 0
M  V30 8375 N 767.134 1.16236 1.06428 0
M  V30 8376 C 768.38 0.944431 1.79467 0
M  V30 8377 C 768.713 -0.526558 1.86925 0
M  V30 8378 O 767.988 -1.39061 1.35986 0
M  V30 8379 C 768.271 1.57092 3.24028 0
M  V30 8380 C 768.124 3.11315 3.24658 0
M  V30 8381 C 769.443 1.26447 4.21544 0
M  V30 8382 H 766.562 0.344521 0.651517 0
M  V30 8383 H 769.204 1.43545 1.24478 0
M  V30 8384 H 767.354 1.15337 3.70985 0
M  V30 8385 H 769.026 3.62042 2.85873 0
M  V30 8386 H 767.269 3.44716 2.6335 0
M  V30 8387 H 767.94 3.50269 4.26633 0
M  V30 8388 H 770.416 1.62581 3.83023 0
M  V30 8389 H 769.292 1.72885 5.20963 0
M  V30 8390 H 769.553 0.183068 4.41721 0
M  V30 8391 N 768.612 -1.24939 0.960631 0
M  V30 8392 C 769.842 -1.96595 0.635123 0
M  V30 8393 C 770.25 -1.71538 -0.798206 0
M  V30 8394 O 769.593 -0.991727 -1.5463 0
M  V30 8395 C 769.655 -3.49994 0.821248 0
M  V30 8396 C 769.319 -3.98738 2.23287 0
M  V30 8397 C 770.316 -4.08965 3.21004 0
M  V30 8398 C 768.001 -4.32247 2.55867 0
M  V30 8399 C 769.995 -4.52025 4.49391 0
M  V30 8400 C 767.682 -4.74991 3.84482 0
M  V30 8401 C 768.68 -4.84844 4.81056 0
M  V30 8402 O 768.368 -5.26638 6.07378 0
M  V30 8403 H 768.1 -0.633265 0.23654 0
M  V30 8404 H 770.654 -1.5991 1.28911 0
M  V30 8405 H 768.884 -3.86543 0.110105 0
M  V30 8406 H 770.573 -4.02859 0.495892 0
M  V30 8407 H 771.339 -3.83302 2.97161 0
M  V30 8408 H 767.218 -4.23801 1.81421 0
M  V30 8409 H 770.762 -4.5963 5.24773 0
M  V30 8410 H 766.659 -5.00101 4.08129 0
M  V30 8411 H 767.427 -5.44807 6.10842 0
M  V30 8412 N 770.09 -0.729906 -1.39679 0
M  V30 8413 C 771 -0.0880322 -2.34435 0
M  V30 8414 C 772.016 0.727674 -1.58053 0
M  V30 8415 O 773.192 0.657321 -1.90371 0
M  V30 8416 C 770.257 0.812211 -3.37052 0
M  V30 8417 C 769.318 -0.0151681 -4.29297 0
M  V30 8418 C 768.551 0.842202 -5.27013 0
M  V30 8419 O 768.774 2.08108 -5.31081 0
M  V30 8420 O 767.708 0.27357 -6.01278 0
M  V30 8421 H 771.534 -0.869989 -2.90972 0
M  V30 8422 H 769.119 -0.490522 -1.41118 0
M  V30 8423 H 771.001 1.32745 -3.99946 0
M  V30 8424 H 769.676 1.57307 -2.82907 0
M  V30 8425 H 768.583 -0.575811 -3.69642 0
M  V30 8426 H 769.916 -0.738129 -4.86634 0
M  V30 8427 N 771.568 1.50203 -0.477153 0
M  V30 8428 C 772.515 2.28656 0.31386 0
M  V30 8429 C 773.485 1.33977 0.981802 0
M  V30 8430 O 774.67 1.62919 0.993072 0
M  V30 8431 C 771.81 3.16027 1.38639 0
M  V30 8432 C 770.923 4.25743 0.732615 0
M  V30 8433 C 770.058 5.00363 1.78355 0
M  V30 8434 C 769.097 6.01945 1.11035 0
M  V30 8435 N 768.234 6.6982 2.10441 0
M  V30 8436 H 773.074 2.958 -0.361445 0
M  V30 8437 H 770.611 1.45867 -0.190093 0
M  V30 8438 H 772.569 3.6504 2.01994 0
M  V30 8439 H 771.199 2.50917 2.03077 0
M  V30 8440 H 770.251 3.80398 -0.0136546 0
M  V30 8441 H 771.563 4.98393 0.201513 0
M  V30 8442 H 770.717 5.53124 2.49276 0
M  V30 8443 H 769.456 4.27432 2.34847 0
M  V30 8444 H 768.461 5.48438 0.386797 0
M  V30 8445 H 769.686 6.76851 0.552248 0
M  V30 8446 H 767.632 5.99677 2.65939 0
M  V30 8447 H 767.549 7.38366 1.62332 0
M  V30 8448 H 768.817 7.27196 2.80724 0
M  V30 8449 N 773.046 0.209999 1.56195 0
M  V30 8450 C 773.978 -0.736967 2.17029 0
M  V30 8451 C 774.991 -1.16599 1.13616 0
M  V30 8452 O 776.18 -1.09914 1.40646 0
M  V30 8453 C 773.28 -2.00852 2.72969 0
M  V30 8454 C 772.453 -1.73691 4.01435 0
M  V30 8455 C 771.512 -2.85439 4.42053 0
M  V30 8456 O 770.538 -2.54405 5.09183 0
M  V30 8457 N 771.74 -4.14135 4.06783 0
M  V30 8458 H 774.505 -0.216656 2.98916 0
M  V30 8459 H 772.066 0.0285672 1.61875 0
M  V30 8460 H 774.058 -2.74778 2.97118 0
M  V30 8461 H 772.628 -2.43963 1.95451 0
M  V30 8462 H 771.848 -0.834676 3.85262 0
M  V30 8463 H 773.136 -1.52961 4.85263 0
M  V30 8464 H 772.534 -4.42196 3.52816 0
M  V30 8465 H 771.091 -4.84642 4.35851 0
M  V30 8466 N 774.524 -1.57472 -0.0634922 0
M  V30 8467 C 775.935 -1.76303 -0.614337 0
M  V30 8468 C 776.286 -0.836578 -1.77471 0
M  V30 8469 O 775.411 -0.0227184 -2.16388 0
M  V30 8470 C 776.006 -3.19709 -1.12122 0
M  V30 8471 C 774.565 -3.39856 -1.61786 0
M  V30 8472 C 773.712 -2.71975 -0.540845 0
M  V30 8473 H 776.663 -1.57864 0.162702 0
M  V30 8474 H 776.684 -3.24326 -1.98979 0
M  V30 8475 H 776.196 -3.87114 -0.276472 0
M  V30 8476 H 774.297 -2.77578 -2.48558 0
M  V30 8477 H 774.41 -4.48338 -1.68908 0
M  V30 8478 H 772.774 -2.34763 -0.987854 0
M  V30 8479 H 773.557 -3.4204 0.293856 0
M  V30 8480 N 776.003 0.335068 -1.53997 0
M  V30 8481 C 776.966 1.39481 -1.81872 0
M  V30 8482 C 777.966 1.4524 -0.690078 0
M  V30 8483 O 779.156 1.45467 -0.958377 0
M  V30 8484 C 776.288 2.78329 -1.9684 0
M  V30 8485 H 777.481 1.16024 -2.76547 0
M  V30 8486 H 775.034 0.569926 -1.45539 0
M  V30 8487 H 775.769 3.07058 -1.04337 0
M  V30 8488 H 775.554 2.75544 -2.78958 0
M  V30 8489 H 777.044 3.55016 -2.19894 0
M  V30 8490 N 777.481 1.45874 0.596531 0
M  V30 8491 C 778.73 1.49737 1.35135 0
M  V30 8492 C 779.043 0.147755 1.95041 0
M  V30 8493 O 780.249 0.0640984 2.71424 0
M  V30 8494 C 778.705 2.6378 2.44843 0
M  V30 8495 C 778.313 4.05102 1.91301 0
M  V30 8496 C 780.057 2.769 3.21755 0
M  V30 8497 C 777.964 5.10508 2.98557 0
M  V30 8498 H 776.894 0.557219 0.507959 0
M  V30 8499 H 779.545 1.72046 0.638147 0
M  V30 8500 H 777.927 2.34774 3.189 0
M  V30 8501 H 779.101 4.43836 1.2388 0
M  V30 8502 H 777.416 3.96528 1.271 0
M  V30 8503 H 780.013 3.52819 4.01775 0
M  V30 8504 H 780.356 1.83924 3.73467 0
M  V30 8505 H 780.889 3.05485 2.54802 0
M  V30 8506 H 777.628 6.0523 2.51749 0
M  V30 8507 H 777.148 4.76332 3.6451 0
M  V30 8508 H 778.827 5.35745 3.62748 0
M  V30 8509 N 778.959 -0.83999 1.33349 0
M  V30 8510 C 779.906 -1.94972 1.23509 0
M  V30 8511 C 780.876 -1.65709 0.113967 0
M  V30 8512 O 782.061 -1.88552 0.292045 0
M  V30 8513 C 779.201 -3.30919 0.979105 0
M  V30 8514 C 778.314 -3.72587 2.18639 0
M  V30 8515 C 777.449 -4.97397 1.86465 0
M  V30 8516 C 776.488 -5.31597 3.03432 0
M  V30 8517 N 775.625 -6.47584 2.71254 0
M  V30 8518 H 780.465 -2.0272 2.18423 0
M  V30 8519 H 778.002 -0.992017 1.08616 0
M  V30 8520 H 779.96 -4.09239 0.811126 0
M  V30 8521 H 778.59 -3.22731 0.0667099 0
M  V30 8522 H 777.642 -2.89799 2.46416 0
M  V30 8523 H 778.954 -3.93844 3.06086 0
M  V30 8524 H 778.108 -5.83462 1.66305 0
M  V30 8525 H 776.847 -4.78107 0.96254 0
M  V30 8526 H 775.852 -4.44037 3.24208 0
M  V30 8527 H 777.077 -5.52836 3.94397 0
M  V30 8528 H 775.023 -6.29783 1.836 0
M  V30 8529 H 774.94 -6.68931 3.52231 0
M  V30 8530 H 776.208 -7.36764 2.54558 0
M  V30 8531 N 780.437 -1.16799 -1.0581 0
M  V30 8532 C 781.384 -0.87902 -2.13405 0
M  V30 8533 C 782.354 0.174541 -1.6518 0
M  V30 8534 O 783.539 0.0386843 -1.90761 0
M  V30 8535 C 780.679 -0.391616 -3.42871 0
M  V30 8536 C 779.792 -1.50857 -4.04804 0
M  V30 8537 C 778.927 -0.975682 -5.22163 0
M  V30 8538 C 777.966 -2.06851 -5.76089 0
M  V30 8539 N 777.103 -1.55085 -6.84758 0
M  V30 8540 H 781.943 -1.80043 -2.37463 0
M  V30 8541 H 779.48 -0.898083 -1.16503 0
M  V30 8542 H 781.438 -0.0906247 -4.17102 0
M  V30 8543 H 780.068 0.49284 -3.19016 0
M  V30 8544 H 779.12 -1.92542 -3.28073 0
M  V30 8545 H 780.432 -2.33305 -4.40874 0
M  V30 8546 H 779.586 -0.628165 -6.03439 0
M  V30 8547 H 778.325 -0.120566 -4.87551 0
M  V30 8548 H 777.33 -2.42467 -4.93447 0
M  V30 8549 H 778.555 -2.92768 -6.12751 0
M  V30 8550 H 776.501 -0.718345 -6.52055 0
M  V30 8551 H 776.418 -2.31145 -7.19797 0
M  V30 8552 H 777.686 -1.23206 -7.69702 0
M  V30 8553 N 781.915 1.24427 -0.967243 0
M  V30 8554 C 783.164 1.91789 -0.624478 0
M  V30 8555 C 783.477 1.76448 0.844129 0
M  V30 8556 O 784.683 2.38495 1.2974 0
M  V30 8557 C 783.139 3.43743 -1.06626 0
M  V30 8558 C 782.747 3.67771 -2.55829 0
M  V30 8559 C 784.491 4.16958 -0.79662 0
M  V30 8560 C 782.398 5.13293 -2.93742 0
M  V30 8561 H 781.328 0.71811 -0.229856 0
M  V30 8562 H 783.979 1.41081 -1.17339 0
M  V30 8563 H 782.361 3.93484 -0.445663 0
M  V30 8564 H 783.535 3.28631 -3.23015 0
M  V30 8565 H 781.85 3.07841 -2.80398 0
M  V30 8566 H 784.447 5.24171 -1.05589 0
M  V30 8567 H 784.79 4.15442 0.267163 0
M  V30 8568 H 785.323 3.73164 -1.37816 0
M  V30 8569 H 782.062 5.19931 -3.9919 0
M  V30 8570 H 781.582 5.53433 -2.3124 0
M  V30 8571 H 783.261 5.81521 -2.83623 0
M  V30 8572 N 783.393 0.737304 1.3929 0
M  V30 8573 C 784.64 0.286257 2.00467 0
M  V30 8574 C 784.968 -1.1272 1.58507 0
M  V30 8575 O 784.223 -1.7832 0.806257 0
M  V30 8576 C 784.522 0.338438 3.55794 0
M  V30 8577 C 784.188 1.70524 4.17411 0
M  V30 8578 C 782.85 2.07934 4.33955 0
M  V30 8579 C 785.202 2.60256 4.51571 0
M  V30 8580 C 782.53 3.34578 4.81948 0
M  V30 8581 C 784.882 3.86275 5.00974 0
M  V30 8582 C 783.546 4.23774 5.15725 0
M  V30 8583 H 782.816 0.104749 0.733559 0
M  V30 8584 H 785.463 0.944598 1.66582 0
M  V30 8585 H 783.768 -0.403478 3.89717 0
M  V30 8586 H 785.465 -0.0287255 4.0099 0
M  V30 8587 H 782.055 1.40439 4.04938 0
M  V30 8588 H 786.239 2.32624 4.38406 0
M  V30 8589 H 781.495 3.63572 4.91554 0
M  V30 8590 H 785.669 4.5596 5.26378 0
M  V30 8591 H 783.296 5.21972 5.52674 0
M  V30 8592 N 784.871 -1.49948 0.485112 0
M  V30 8593 C 786.099 -2.06806 -0.0622824 0
M  V30 8594 C 786.514 -1.34736 -1.32256 0
M  V30 8595 O 785.871 -0.420836 -1.77582 0
M  V30 8596 C 785.922 -3.59934 -0.336096 0
M  V30 8597 O 785.643 -4.29289 0.874203 0
M  V30 8598 C 787.144 -4.33459 -0.928903 0
M  V30 8599 H 784.364 -0.670867 0.0133472 0
M  V30 8600 H 786.908 -1.92937 0.677917 0
M  V30 8601 H 785.063 -3.7356 -1.02625 0
M  V30 8602 H 785.477 -5.20735 0.627332 0
M  V30 8603 H 786.951 -5.41527 -1.07017 0
M  V30 8604 H 787.428 -3.94881 -1.92265 0
M  V30 8605 H 788.034 -4.24399 -0.276705 0
M  V30 8606 N 786.349 -0.21828 -1.56081 0
M  V30 8607 C 787.626 0.463143 -1.90038 0
M  V30 8608 C 788.006 1.77982 -1.13515 0
M  V30 8609 O 787.354 2.27199 -0.24345 0
M  V30 8610 C 787.564 0.659292 -3.42716 0
M  V30 8611 C 788.912 0.968203 -4.13414 0
M  V30 8612 O 789.936 0.746195 -3.48296 0
M  V30 8613 O 788.795 1.38936 -5.28544 0
M  V30 8614 H 785.889 0.244435 -0.790051 0
M  V30 8615 H 788.435 -0.260221 -1.67693 0
M  V30 8616 H 787.207 -0.269584 -3.9037 0
M  V30 8617 H 786.83 1.43426 -3.7083 0
M  V30 8618 N 787.827 1.57504 0.0551401 0
M  V30 8619 C 788.737 2.08198 1.08124 0
M  V30 8620 C 789.753 1.01496 1.41331 0
M  V30 8621 O 790.929 1.33073 1.51174 0
M  V30 8622 C 787.994 2.52968 2.37083 0
M  V30 8623 C 787.055 3.7404 2.10696 0
M  V30 8624 C 786.288 4.16665 3.33505 0
M  V30 8625 O 786.511 3.59019 4.4324 0
M  V30 8626 O 785.445 5.09324 3.20737 0
M  V30 8627 H 789.271 2.95977 0.680518 0
M  V30 8628 H 786.856 1.46933 0.270401 0
M  V30 8629 H 788.738 2.82211 3.12946 0
M  V30 8630 H 787.413 1.6831 2.76502 0
M  V30 8631 H 786.32 3.49855 1.32484 0
M  V30 8632 H 787.653 4.59601 1.76148 0
M  V30 8633 N 789.305 -0.326896 1.54172 0
M  V30 8634 C 790.253 -1.42232 1.84046 0
M  V30 8635 C 791.247 -1.53705 0.712115 0
M  V30 8636 O 792.453 -1.56131 0.895724 0
M  V30 8637 H 788.828 -0.474568 0.583343 0
M  V30 8638 H 790.799 -1.14259 2.75658 0
M  V30 8639 C 789.548 -2.78502 2.08163 0
M  V30 8640 H 788.871 -2.70447 2.94446 0
M  V30 8641 H 790.311 -3.54228 2.33021 0
M  V30 8642 C 788.77 -3.25415 0.872152 0
M  V30 8643 O 789.3 -4.01621 0.0797648 0
M  V30 8644 N 787.506 -2.82418 0.684716 0
M  V30 8645 H 787.053 -2.20566 1.33072 0
M  V30 8646 H 787.011 -3.14159 -0.123031 0
M  V30 8647 N 790.784 -1.46188 -0.588786 0
M  V30 8648 C 792.012 -1.54743 -1.37339 0
M  V30 8649 C 792.427 -0.186446 -1.87877 0
M  V30 8650 O 791.784 0.815247 -1.63279 0
M  V30 8651 C 791.835 -2.54727 -2.56508 0
M  V30 8652 O 791.556 -3.85539 -2.08066 0
M  V30 8653 C 793.057 -2.73163 -3.49137 0
M  V30 8654 H 790.277 -0.523484 -0.419768 0
M  V30 8655 H 792.821 -1.91543 -0.716345 0
M  V30 8656 H 790.976 -2.20948 -3.18215 0
M  V30 8657 H 791.39 -4.39905 -2.85629 0
M  V30 8658 H 792.864 -3.47057 -4.2925 0
M  V30 8659 H 793.341 -1.79856 -4.00685 0
M  V30 8660 H 793.947 -3.08014 -2.9327 0
M  V30 8661 N 792.262 0.832906 -1.33792 0
M  V30 8662 C 793.511 1.58351 -1.24932 0
M  V30 8663 C 793.824 1.94754 0.181703 0
M  V30 8664 O 795.03 2.6865 0.392375 0
M  V30 8665 C 793.486 2.85643 -2.18943 0
M  V30 8666 C 793.094 2.56581 -3.67247 0
M  V30 8667 C 794.838 3.63667 -2.18968 0
M  V30 8668 C 792.745 3.80006 -4.53155 0
M  V30 8669 H 791.675 0.594278 -0.464058 0
M  V30 8670 H 794.326 0.91786 -1.58895 0
M  V30 8671 H 792.708 3.53781 -1.77919 0
M  V30 8672 H 793.882 1.96617 -4.16747 0
M  V30 8673 H 792.197 1.91851 -3.6957 0
M  V30 8674 H 794.794 4.55293 -2.80379 0
M  V30 8675 H 795.137 3.99039 -1.18631 0
M  V30 8676 H 795.67 3.0246 -2.58384 0
M  V30 8677 H 792.409 3.4976 -5.5439 0
M  V30 8678 H 791.929 4.39288 -4.08395 0
M  V30 8679 H 793.608 4.47523 -4.6726 0
M  V30 8680 N 793.74 1.17359 1.05189 0
M  V30 8681 C 794.987 0.961987 1.78191 0
M  V30 8682 C 795.315 -0.509363 1.87712 0
M  V30 8683 O 794.57 -1.39425 1.37329 0
M  V30 8684 C 794.869 1.54821 3.22126 0
M  V30 8685 C 794.535 3.04378 3.32663 0
M  V30 8686 C 793.197 3.45201 3.35246 0
M  V30 8687 C 795.549 4.00387 3.33677 0
M  V30 8688 C 792.877 4.80629 3.36471 0
M  V30 8689 C 795.229 5.35715 3.36441 0
M  V30 8690 C 793.893 5.76002 3.37311 0
M  V30 8691 H 793.163 0.352016 0.652047 0
M  V30 8692 H 795.81 1.46249 1.23627 0
M  V30 8693 H 794.115 0.969432 3.79617 0
M  V30 8694 H 795.812 1.36004 3.77232 0
M  V30 8695 H 792.402 2.71836 3.31366 0
M  V30 8696 H 796.586 3.69906 3.30882 0
M  V30 8697 H 791.842 5.11155 3.35455 0
M  V30 8698 H 796.016 6.09886 3.36173 0
M  V30 8699 H 793.643 6.80919 3.38013 0
M  V30 8700 N 795.218 -1.23913 0.973828 0
M  V30 8701 C 796.15 -2.24397 0.466763 0
M  V30 8702 C 797.163 -1.57078 -0.427828 0
M  V30 8703 O 798.352 -1.76973 -0.233019 0
M  V30 8704 C 795.452 -3.37141 -0.344798 0
M  V30 8705 C 794.625 -4.34037 0.541349 0
M  V30 8706 C 793.684 -5.2576 -0.215243 0
M  V30 8707 O 792.71 -5.67842 0.39291 0
M  V30 8708 N 793.912 -5.60702 -1.5031 0
M  V30 8709 H 796.677 -2.68536 1.33074 0
M  V30 8710 H 794.238 -1.38017 0.846346 0
M  V30 8711 H 796.23 -3.95476 -0.859133 0
M  V30 8712 H 794.8 -2.92239 -1.10974 0
M  V30 8713 H 794.02 -3.74302 1.23659 0
M  V30 8714 H 795.308 -4.95738 1.1455 0
M  V30 8715 H 794.706 -5.28451 -2.01882 0
M  V30 8716 H 793.263 -6.21538 -1.96301 0
M  V30 8717 N 796.696 -0.74468 -1.38897 0
M  V30 8718 C 797.926 -0.306982 -2.04307 0
M  V30 8719 C 798.334 1.06652 -1.56275 0
M  V30 8720 O 797.677 1.68699 -0.72708 0
M  V30 8721 C 797.739 -0.241186 -3.5869 0
M  V30 8722 C 797.403 -1.55476 -4.2974 0
M  V30 8723 C 798.4 -2.50229 -4.55721 0
M  V30 8724 C 796.085 -1.82173 -4.68101 0
M  V30 8725 C 798.079 -3.69905 -5.19085 0
M  V30 8726 C 795.766 -3.02125 -5.31191 0
M  V30 8727 C 796.764 -3.95812 -5.56616 0
M  V30 8728 O 796.452 -5.13656 -6.18395 0
M  V30 8729 H 796.184 -0.130416 -0.663301 0
M  V30 8730 H 798.738 -1.01192 -1.78744 0
M  V30 8731 H 796.968 0.519925 -3.83189 0
M  V30 8732 H 798.657 0.165806 -4.05561 0
M  V30 8733 H 799.423 -2.30877 -4.26522 0
M  V30 8734 H 795.302 -1.10091 -4.47662 0
M  V30 8735 H 798.846 -4.43047 -5.38846 0
M  V30 8736 H 794.743 -3.21374 -5.59811 0
M  V30 8737 H 795.511 -5.14119 -6.36886 0
M  V30 8738 N 798.174 1.49689 -0.493057 0
M  V30 8739 C 799.104 2.31826 0.279073 0
M  V30 8740 C 800.085 1.39733 0.969987 0
M  V30 8741 O 801.27 1.68646 0.962925 0
M  V30 8742 C 798.4 3.20046 1.34862 0
M  V30 8743 C 797.354 4.20869 0.77805 0
M  V30 8744 C 796.68 4.97971 1.94753 0
M  V30 8745 C 797.98 5.21813 -0.225543 0
M  V30 8746 H 799.674 2.96627 -0.406512 0
M  V30 8747 H 797.22 1.42647 -0.196943 0
M  V30 8748 H 799.173 3.76315 1.89645 0
M  V30 8749 H 797.897 2.53172 2.06328 0
M  V30 8750 H 796.556 3.65733 0.252036 0
M  V30 8751 H 796.204 4.27552 2.64969 0
M  V30 8752 H 795.904 5.66186 1.57187 0
M  V30 8753 H 797.428 5.57082 2.49984 0
M  V30 8754 H 798.842 5.72823 0.233864 0
M  V30 8755 H 797.239 5.97872 -0.516622 0
M  V30 8756 H 798.309 4.71209 -1.14412 0
M  V30 8757 N 799.652 0.226554 1.55963 0
M  V30 8758 C 800.882 -0.407915 2.02533 0
M  V30 8759 C 801.29 -1.53539 1.10554 0
M  V30 8760 O 800.633 -1.8338 0.108409 0
M  V30 8761 C 800.695 -0.996081 3.45425 0
M  V30 8762 C 800.359 -0.00341651 4.57 0
M  V30 8763 C 801.356 0.798782 5.13727 0
M  V30 8764 C 799.041 0.116786 5.02164 0
M  V30 8765 C 801.035 1.70784 6.14094 0
M  V30 8766 C 798.722 1.02937 6.02368 0
M  V30 8767 C 799.72 1.82344 6.5821 0
M  V30 8768 O 799.408 2.72067 7.56462 0
M  V30 8769 H 799.14 -0.103524 0.668026 0
M  V30 8770 H 801.694 0.341937 2.02534 0
M  V30 8771 H 799.924 -1.79512 3.42509 0
M  V30 8772 H 801.613 -1.53848 3.75614 0
M  V30 8773 H 802.379 0.716393 4.7968 0
M  V30 8774 H 798.258 -0.491172 4.58376 0
M  V30 8775 H 801.802 2.32807 6.57607 0
M  V30 8776 H 797.699 1.11276 6.35836 0
M  V30 8777 H 798.467 2.66199 7.74003 0
M  V30 8778 N 801.13 -1.57531 -0.0467866 0
M  V30 8779 C 802.355 -1.93087 -0.757123 0
M  V30 8780 C 802.78 -0.825116 -1.69037 0
M  V30 8781 O 802.138 0.220449 -1.79955 0
M  V30 8782 C 802.186 -3.27669 -1.5055 0
M  V30 8783 O 801.29 -3.18667 -2.61773 0
M  V30 8784 H 800.631 -0.631597 -0.204892 0
M  V30 8785 H 803.161 -2.04599 -0.00755232 0
M  V30 8786 H 803.171 -3.6214 -1.87932 0
M  V30 8787 H 801.846 -4.07717 -0.820931 0
M  V30 8788 H 800.423 -2.95798 -2.27064 0
M  V30 8789 N 802.608 0.318715 -1.54344 0
M  V30 8790 C 803.54 1.41364 -1.80413 0
M  V30 8791 C 804.553 1.47627 -0.686294 0
M  V30 8792 O 805.742 1.50264 -0.963486 0
M  V30 8793 C 802.842 2.79867 -1.91123 0
M  V30 8794 C 802.015 2.96749 -3.21339 0
M  V30 8795 C 801.074 4.15642 -3.22689 0
M  V30 8796 O 800.1 4.08571 -3.96306 0
M  V30 8797 N 801.302 5.25416 -2.46817 0
M  V30 8798 H 804.067 1.19363 -2.74905 0
M  V30 8799 H 801.628 0.508722 -1.537 0
M  V30 8800 H 803.62 3.57619 -1.89448 0
M  V30 8801 H 802.19 2.94896 -1.03706 0
M  V30 8802 H 801.41 2.06257 -3.35934 0
M  V30 8803 H 802.698 3.04927 -4.07304 0
M  V30 8804 H 802.096 5.34037 -1.86605 0
M  V30 8805 H 800.653 6.01569 -2.50915 0
M  V30 8806 N 804.086 1.46499 0.581025 0
M  V30 8807 C 805.314 1.5547 1.36517 0
M  V30 8808 C 805.729 0.196407 1.87776 0
M  V30 8809 O 805.086 -0.806577 1.63709 0
M  V30 8810 C 805.137 2.56084 2.55154 0
M  V30 8811 O 804.858 3.86637 2.06018 0
M  V30 8812 C 806.359 2.75011 3.47683 0
M  V30 8813 H 803.579 0.525703 0.416986 0
M  V30 8814 H 806.123 1.9192 0.706177 0
M  V30 8815 H 804.278 2.22633 3.17039 0
M  V30 8816 H 804.692 4.41413 2.83292 0
M  V30 8817 H 806.166 3.49329 4.27403 0
M  V30 8818 H 806.643 1.81978 3.99726 0
M  V30 8819 H 807.249 3.09565 2.91632 0
M  V30 8820 N 805.565 -0.825799 1.34232 0
M  V30 8821 C 806.812 -1.58185 1.26427 0
M  V30 8822 C 807.14 -1.93786 -0.166533 0
M  V30 8823 O 806.395 -1.59986 -1.12707 0
M  V30 8824 C 806.694 -2.89362 2.09772 0
M  V30 8825 C 806.36 -2.73066 3.58812 0
M  V30 8826 C 805.022 -2.68329 3.99441 0
M  V30 8827 C 807.374 -2.56946 4.53462 0
M  V30 8828 C 804.702 -2.4539 5.32917 0
M  V30 8829 C 807.054 -2.35538 5.87115 0
M  V30 8830 C 805.718 -2.29212 6.26912 0
M  V30 8831 H 804.988 -0.57884 0.462629 0
M  V30 8832 H 807.635 -0.955714 1.65947 0
M  V30 8833 H 805.94 -3.56251 1.63071 0
M  V30 8834 H 807.637 -3.4694 2.01081 0
M  V30 8835 H 804.227 -2.77591 3.26559 0
M  V30 8836 H 808.411 -2.59631 4.22972 0
M  V30 8837 H 803.667 -2.38947 5.62774 0
M  V30 8838 H 807.841 -2.22051 6.6005 0
M  V30 8839 H 805.468 -2.11197 7.30274 0
M  V30 8840 N 807.043 -1.17915 -1.04565 0
M  V30 8841 C 808.454 -0.976383 -1.59134 0
M  V30 8842 C 808.805 0.475267 -1.90357 0
M  V30 8843 O 807.93 1.35172 -1.6899 0
M  V30 8844 C 808.525 -1.76604 -2.89131 0
M  V30 8845 C 807.084 -1.60777 -3.40335 0
M  V30 8846 C 806.231 -1.76369 -2.13985 0
M  V30 8847 H 809.182 -1.32532 -0.872985 0
M  V30 8848 H 809.203 -1.25215 -3.59307 0
M  V30 8849 H 808.715 -2.82252 -2.66375 0
M  V30 8850 H 806.816 -0.576436 -3.68114 0
M  V30 8851 H 806.929 -2.40268 -4.14497 0
M  V30 8852 H 805.293 -1.19268 -2.25049 0
M  V30 8853 H 806.076 -2.83441 -1.9369 0
M  V30 8854 N 808.521 1.23394 -0.980386 0
M  V30 8855 C 809.451 2.2717 -0.540024 0
M  V30 8856 C 810.432 1.64659 0.426787 0
M  V30 8857 O 811.617 1.91543 0.320153 0
M  V30 8858 C 808.747 3.46939 0.15836 0
M  V30 8859 C 807.701 4.21802 -0.725732 0
M  V30 8860 C 807.027 5.34597 0.104866 0
M  V30 8861 C 808.327 4.81802 -2.01654 0
M  V30 8862 H 810.021 2.64257 -1.40743 0
M  V30 8863 H 807.567 1.2703 -0.678193 0
M  V30 8864 H 809.52 4.18683 0.477737 0
M  V30 8865 H 808.244 3.08912 1.06022 0
M  V30 8866 H 806.903 3.51875 -1.02857 0
M  V30 8867 H 806.551 4.92812 1.00726 0
M  V30 8868 H 806.251 5.85607 -0.483557 0
M  V30 8869 H 807.775 6.09163 0.418624 0
M  V30 8870 H 809.189 5.45554 -1.76193 0
M  V30 8871 H 807.586 5.43098 -2.55273 0
M  V30 8872 H 808.656 4.02549 -2.70338 0
M  V30 8873 N 809.999 0.752036 1.385 0
M  V30 8874 C 811.276 0.233075 1.94206 0
M  V30 8875 C 811.656 -1.26838 1.68746 0
M  V30 8876 O 811.004 -2.04214 1.02513 0
M  V30 8877 C 811.214 0.58509 3.44061 0
M  V30 8878 C 812.562 0.543871 4.21102 0
M  V30 8879 O 813.586 0.523291 3.52335 0
M  V30 8880 O 812.445 0.553436 5.4369 0
M  V30 8881 H 809.539 0.0483049 0.825588 0
M  V30 8882 H 812.085 0.832053 1.47902 0
M  V30 8883 H 810.857 1.62212 3.56094 0
M  V30 8884 H 810.48 -0.0419738 3.97578 0
M  V30 8885 N 811.477 -1.49425 0.500989 0
M  V30 8886 C 812.726 -2.01649 -0.04538 0
M  V30 8887 C 813.039 -1.38572 -1.38047 0
M  V30 8888 O 814.245 -1.82124 -2.01353 0
M  V30 8889 C 812.701 -3.5966 -0.131337 0
M  V30 8890 C 812.309 -4.3171 1.19711 0
M  V30 8891 C 814.053 -4.19828 -0.628071 0
M  V30 8892 C 811.96 -5.81579 1.07332 0
M  V30 8893 H 810.89 -0.753715 -0.0207329 0
M  V30 8894 H 813.541 -1.71962 0.640407 0
M  V30 8895 H 811.923 -3.86063 -0.881574 0
M  V30 8896 H 813.097 -4.17008 1.96064 0
M  V30 8897 H 811.412 -3.83286 1.62729 0
M  V30 8898 H 814.009 -5.2958 -0.738198 0
M  V30 8899 H 814.352 -3.83194 -1.6269 0
M  V30 8900 H 814.885 -3.97746 0.0656314 0
M  V30 8901 H 811.624 -6.22738 2.04642 0
M  V30 8902 H 811.144 -5.98774 0.350679 0
M  V30 8903 H 812.823 -6.42614 0.752047 0
M  V30 8904 N 812.955 -0.234822 -1.55841 0
M  V30 8905 C 814.371 0.120295 -1.59146 0
M  V30 8906 C 814.571 1.57896 -1.25184 0
M  V30 8907 O 813.627 2.32138 -0.993393 0
M  V30 8908 C 814.94 -0.217984 -2.99909 0
M  V30 8909 C 816.488 -0.161298 -3.12584 0
M  V30 8910 C 816.963 -0.473438 -4.55546 0
M  V30 8911 N 818.454 -0.423494 -4.6126 0
M  V30 8912 C 819.189 -0.638334 -5.69836 0
M  V30 8913 N 818.685 -0.915659 -6.86722 0
M  V30 8914 N 820.478 -0.569864 -5.59204 0
M  V30 8915 H 812.629 -1.18622 -1.76189 0
M  V30 8916 H 814.892 -0.476426 -0.819587 0
M  V30 8917 H 814.598 -1.2309 -3.29457 0
M  V30 8918 H 814.472 0.460707 -3.74376 0
M  V30 8919 H 816.859 0.842274 -2.82825 0
M  V30 8920 H 816.94 -0.873661 -2.40418 0
M  V30 8921 H 816.584 -1.47451 -4.86025 0
M  V30 8922 H 816.514 0.260268 -5.25956 0
M  V30 8923 H 819.005 -0.217383 -3.77274 0
M  V30 8924 H 819.318 -1.06734 -7.65394 0
M  V30 8925 H 817.663 -0.953 -6.88435 0
M  V30 8926 H 820.854 -0.35334 -4.66765 0
M  V30 8927 H 821.027 -0.740698 -6.43753 0
M  V30 8928 N 814.433 1.57553 0.0384317 0
M  V30 8929 C 815.71 1.79977 0.766002 0
M  V30 8930 C 816.09 0.830625 1.94072 0
M  V30 8931 O 815.438 -0.129243 2.28134 0
M  V30 8932 C 815.648 3.27434 1.20781 0
M  V30 8933 C 816.996 3.92167 1.62758 0
M  V30 8934 O 818.02 3.31527 1.30263 0
M  V30 8935 O 816.879 4.98917 2.23035 0
M  V30 8936 H 813.973 0.739787 0.369654 0
M  V30 8937 H 816.519 1.69693 0.0159312 0
M  V30 8938 H 815.291 3.89558 0.368792 0
M  V30 8939 H 814.914 3.42571 2.01819 0
M  V30 8940 N 815.911 -0.310526 1.54511 0
M  V30 8941 C 817.16 -1.0445 1.72549 0
M  V30 8942 C 817.473 -1.88748 0.513172 0
M  V30 8943 O 818.679 -2.65338 0.575165 0
M  V30 8944 C 817.135 -1.90665 3.05246 0
M  V30 8945 C 816.743 -1.11415 4.33925 0
M  V30 8946 C 818.487 -2.63719 3.32645 0
M  V30 8947 C 816.394 -1.96852 5.57677 0
M  V30 8948 H 815.324 -0.393676 0.643067 0
M  V30 8949 H 817.975 -0.302003 1.80998 0
M  V30 8950 H 816.357 -2.68864 2.90737 0
M  V30 8951 H 817.531 -0.378956 4.59239 0
M  V30 8952 H 815.846 -0.499853 4.13389 0
M  V30 8953 H 818.443 -3.27974 4.223 0
M  V30 8954 H 818.786 -3.32047 2.51098 0
M  V30 8955 H 819.319 -1.92574 3.48081 0
M  V30 8956 H 816.058 -1.33009 6.41864 0
M  V30 8957 H 815.578 -2.68069 5.36562 0
M  V30 8958 H 817.257 -2.55127 5.94575 0
M  V30 8959 N 817.389 -1.46805 -0.573248 0
M  V30 8960 C 818.614 -1.56433 -1.36175 0
M  V30 8961 C 819.039 -0.209336 -1.86932 0
M  V30 8962 O 818.397 0.812146 -1.62092 0
M  V30 8963 C 818.445 -2.58055 -2.51873 0
M  V30 8964 O 817.549 -2.12214 -3.53609 0
M  V30 8965 H 816.89 -0.526068 -0.405153 0
M  V30 8966 H 819.42 -1.92456 -0.694405 0
M  V30 8967 H 819.43 -2.77966 -2.98662 0
M  V30 8968 H 818.105 -3.56448 -2.14284 0
M  V30 8969 H 816.682 -2.02333 -3.13234 0
M  V30 8970 N 818.867 0.818669 -1.34668 0
M  V30 8971 C 819.797 1.94468 -1.29245 0
M  V30 8972 C 820.778 1.69257 -0.169101 0
M  V30 8973 O 821.963 1.90794 -0.362143 0
M  V30 8974 C 819.093 3.31001 -1.05145 0
M  V30 8975 C 818.047 3.70663 -2.13992 0
M  V30 8976 C 817.373 5.05226 -1.75074 0
M  V30 8977 C 818.673 3.82312 -3.55858 0
M  V30 8978 H 820.367 1.99263 -2.2346 0
M  V30 8979 H 817.913 0.957304 -1.07572 0
M  V30 8980 H 819.866 4.09364 -0.999949 0
M  V30 8981 H 818.59 3.26517 -0.0737312 0
M  V30 8982 H 817.249 2.94578 -2.18219 0
M  V30 8983 H 816.897 4.97233 -0.759518 0
M  V30 8984 H 816.597 5.32734 -2.47928 0
M  V30 8985 H 818.121 5.86042 -1.71427 0
M  V30 8986 H 819.535 4.50935 -3.5402 0
M  V30 8987 H 817.932 4.21278 -4.2737 0
M  V30 8988 H 819.002 2.84193 -3.9289 0
M  V30 8989 N 820.346 1.18468 1.03938 0
M  V30 8990 C 821.574 1.00576 1.80809 0
M  V30 8991 C 821.989 -0.445786 1.83462 0
M  V30 8992 O 821.346 -1.30964 1.27101 0
M  V30 8993 C 821.397 1.55491 3.26351 0
M  V30 8994 O 821.118 2.94963 3.23926 0
M  V30 8995 C 822.619 1.42236 4.19862 0
M  V30 8996 H 819.839 0.35508 0.56935 0
M  V30 8997 H 822.383 1.57046 1.30984 0
M  V30 8998 H 820.538 1.03195 3.73403 0
M  V30 8999 H 820.952 3.20598 4.15111 0
M  V30 9000 H 822.426 1.85455 5.19914 0
M  V30 9001 H 822.903 0.371267 4.37628 0
M  V30 9002 H 823.509 1.9361 3.78675 0
M  V30 9003 N 821.824 -1.22873 0.986916 0
M  V30 9004 C 823.049 -1.96028 0.677341 0
M  V30 9005 C 823.474 -1.72487 -0.750319 0
M  V30 9006 O 822.832 -1.00036 -1.51203 0
M  V30 9007 C 822.88 -3.46983 0.981593 0
M  V30 9008 O 821.984 -4.12328 0.0770729 0
M  V30 9009 H 821.325 -0.613458 0.254096 0
M  V30 9010 H 823.855 -1.56132 1.32227 0
M  V30 9011 H 823.865 -3.9747 0.920969 0
M  V30 9012 H 822.54 -3.63442 2.02194 0
M  V30 9013 H 821.117 -3.72402 0.192666 0
M  V30 9014 N 823.302 -0.75937 -1.38099 0
M  V30 9015 C 824.527 -0.327859 -2.04792 0
M  V30 9016 C 824.952 1.03752 -1.56899 0
M  V30 9017 O 824.31 1.66235 -0.723581 0
M  V30 9018 C 824.358 -0.366264 -3.58735 0
M  V30 9019 O 823.462 0.637697 -4.0744 0
M  V30 9020 H 822.803 -0.144092 -0.648177 0
M  V30 9021 H 825.333 -1.03211 -1.7666 0
M  V30 9022 H 825.343 -0.219179 -4.07411 0
M  V30 9023 H 824.018 -1.36243 -3.92951 0
M  V30 9024 H 822.595 0.454749 -3.70117 0
M  V30 9025 N 824.78 1.49157 -0.508906 0
M  V30 9026 C 826.027 2.02473 0.0327983 0
M  V30 9027 C 826.355 1.38792 1.36261 0
M  V30 9028 O 825.61 0.515576 1.88786 0
M  V30 9029 C 825.909 3.56687 0.225717 0
M  V30 9030 C 825.575 4.39046 -1.02708 0
M  V30 9031 C 824.237 4.61271 -1.37048 0
M  V30 9032 C 826.589 4.86902 -1.85946 0
M  V30 9033 C 823.917 5.28598 -2.54562 0
M  V30 9034 C 826.269 5.55521 -3.0262 0
M  V30 9035 C 824.933 5.7599 -3.3733 0
M  V30 9036 H 824.203 0.740903 0.0120017 0
M  V30 9037 H 826.85 1.79372 -0.670665 0
M  V30 9038 H 825.155 3.78511 1.01177 0
M  V30 9039 H 826.852 3.95541 0.659433 0
M  V30 9040 H 823.442 4.21994 -0.749615 0
M  V30 9041 H 827.626 4.69553 -1.6073 0
M  V30 9042 H 822.882 5.42646 -2.81682 0
M  V30 9043 H 827.056 5.91576 -3.67438 0
M  V30 9044 H 824.683 6.27934 -4.2849 0
M  V30 9045 N 826.258 0.243083 1.55714 0
M  V30 9046 C 827.535 -0.432851 1.90751 0
M  V30 9047 C 827.915 -1.76153 1.16333 0
M  V30 9048 O 827.263 -2.26783 0.279565 0
M  V30 9049 C 827.473 -0.604685 3.43722 0
M  V30 9050 C 828.821 -0.90231 4.14902 0
M  V30 9051 O 829.845 -0.690689 3.49439 0
M  V30 9052 O 828.704 -1.3051 5.30688 0
M  V30 9053 H 825.798 -0.231835 0.79384 0
M  V30 9054 H 828.344 0.286867 1.67258 0
M  V30 9055 H 827.116 0.331655 3.89892 0
M  V30 9056 H 826.739 -1.37509 3.73065 0
M  V30 9057 N 827.736 -1.57571 -0.0300757 0
M  V30 9058 C 829.013 -1.80381 -0.756447 0
M  V30 9059 C 829.393 -0.840906 -1.93628 0
M  V30 9060 O 828.741 0.117143 -2.282 0
M  V30 9061 C 828.951 -3.2807 -1.19043 0
M  V30 9062 C 830.299 -3.93025 -1.60676 0
M  V30 9063 O 831.323 -3.32213 -1.28503 0
M  V30 9064 O 830.182 -5.00092 -2.20386 0
M  V30 9065 H 827.276 -0.741737 -0.365725 0
M  V30 9066 H 829.822 -1.69699 -0.00693177 0
M  V30 9067 H 828.594 -3.89748 -0.348128 0
M  V30 9068 H 828.217 -3.43637 -1.99999 0
M  V30 9069 N 829.214 0.302327 -1.54673 0
M  V30 9070 C 830.177 1.35592 -1.8479 0
M  V30 9071 C 831.177 1.43743 -0.72073 0
M  V30 9072 O 832.367 1.43402 -0.989017 0
M  V30 9073 C 829.499 2.74091 -2.02699 0
M  V30 9074 H 830.692 1.10132 -2.78946 0
M  V30 9075 H 828.245 0.538926 -1.46715 0
M  V30 9076 H 828.98 3.04775 -1.10826 0
M  V30 9077 H 828.765 2.69565 -2.8474 0
M  V30 9078 H 830.255 3.50272 -2.27374 0
M  V30 9079 N 830.692 1.47107 0.565454 0
M  V30 9080 C 831.622 1.61846 1.68309 0
M  V30 9081 C 832.603 0.468159 1.63531 0
M  V30 9082 O 833.788 0.696504 1.8128 0
M  V30 9083 C 830.918 1.62474 3.06952 0
M  V30 9084 C 829.872 2.76649 3.26572 0
M  V30 9085 C 829.198 2.62345 4.65917 0
M  V30 9086 C 830.498 4.18319 3.12741 0
M  V30 9087 H 832.192 2.55407 1.5623 0
M  V30 9088 H 829.738 1.22916 0.750179 0
M  V30 9089 H 831.691 1.71378 3.84977 0
M  V30 9090 H 830.415 0.654692 3.19971 0
M  V30 9091 H 829.074 2.67242 2.50952 0
M  V30 9092 H 828.722 1.63386 4.75725 0
M  V30 9093 H 828.422 3.38936 4.79996 0
M  V30 9094 H 829.946 2.73165 5.46089 0
M  V30 9095 H 831.36 4.28745 3.80593 0
M  V30 9096 H 829.757 4.95632 3.38333 0
M  V30 9097 H 830.827 4.37263 2.09592 0
M  V30 9098 N 832.17 -0.811516 1.35101 0
M  V30 9099 C 833.1 -1.9378 1.30275 0
M  V30 9100 C 834.081 -1.69165 0.178075 0
M  V30 9101 O 835.266 -1.90599 0.372256 0
M  V30 9102 C 832.396 -3.30439 1.06899 0
M  V30 9103 C 831.35 -3.69523 2.15955 0
M  V30 9104 C 830.676 -5.0429 1.77751 0
M  V30 9105 C 831.976 -3.80419 3.57881 0
M  V30 9106 H 833.67 -1.98075 2.24514 0
M  V30 9107 H 831.216 -0.951586 1.08078 0
M  V30 9108 H 833.169 -4.08828 1.02164 0
M  V30 9109 H 831.893 -3.26473 0.0910462 0
M  V30 9110 H 830.552 -2.93416 2.19778 0
M  V30 9111 H 830.2 -4.96823 0.785876 0
M  V30 9112 H 829.9 -5.31411 2.5075 0
M  V30 9113 H 831.424 -5.85125 1.74533 0
M  V30 9114 H 832.838 -4.49051 3.56407 0
M  V30 9115 H 831.235 -4.19005 4.29598 0
M  V30 9116 H 832.305 -2.82105 3.94391 0
M  V30 9117 N 833.648 -1.19017 -1.03309 0
M  V30 9118 C 834.895 -0.990214 -1.76638 0
M  V30 9119 C 835.223 0.479435 -1.88498 0
M  V30 9120 O 834.478 1.37223 -1.39529 0
M  V30 9121 C 834.777 -1.59927 -3.19622 0
M  V30 9122 C 834.443 -3.09632 -3.27779 0
M  V30 9123 C 833.105 -3.50491 -3.29712 0
M  V30 9124 C 835.457 -4.05644 -3.27264 0
M  V30 9125 C 832.785 -4.85921 -3.28782 0
M  V30 9126 C 835.137 -5.41 -3.27875 0
M  V30 9127 C 833.801 -5.81295 -3.28104 0
M  V30 9128 H 833.071 -0.362345 -0.646364 0
M  V30 9129 H 835.718 -1.48197 -1.21284 0
M  V30 9130 H 834.023 -1.0297 -3.78027 0
M  V30 9131 H 835.72 -1.41989 -3.7502 0
M  V30 9132 H 832.31 -2.77073 -3.26999 0
M  V30 9133 H 836.494 -3.75124 -3.24955 0
M  V30 9134 H 831.75 -5.16427 -3.27281 0
M  V30 9135 H 835.924 -6.15157 -3.26428 0
M  V30 9136 H 833.551 -6.86211 -3.27138 0
M  V30 9137 N 835.127 1.22348 -0.993418 0
M  V30 9138 C 836.352 1.95666 -0.687727 0
M  V30 9139 C 836.777 1.72883 0.741161 0
M  V30 9140 O 836.135 1.00837 1.50671 0
M  V30 9141 C 836.183 3.46457 -0.99998 0
M  V30 9142 O 835.287 4.12281 -0.0989386 0
M  V30 9143 H 834.628 0.612102 -0.257346 0
M  V30 9144 H 837.158 1.55428 -1.33054 0
M  V30 9145 H 837.168 3.96976 -0.942035 0
M  V30 9146 H 835.843 3.62365 -2.04118 0
M  V30 9147 H 834.42 3.72295 -0.212413 0
M  V30 9148 N 836.605 0.766683 1.37694 0
M  V30 9149 C 837.553 0.137269 2.32195 0
M  V30 9150 C 838.547 -0.69067 1.54681 0
M  V30 9151 O 839.753 -0.588299 1.70115 0
M  V30 9152 H 836.128 0.0256003 0.751564 0
M  V30 9153 H 838.099 0.950129 2.82869 0
M  V30 9154 C 836.848 -0.731446 3.39919 0
M  V30 9155 H 836.171 -0.103738 3.99665 0
M  V30 9156 H 837.611 -1.13891 4.08417 0
M  V30 9157 C 836.07 -1.87984 2.79578 0
M  V30 9158 O 836.6 -2.97496 2.69924 0
M  V30 9159 N 834.806 -1.6789 2.37195 0
M  V30 9160 H 834.353 -0.788162 2.45246 0
M  V30 9161 H 834.311 -2.44894 1.97165 0
M  V30 9162 N 838.083 -1.48885 0.516809 0
M  V30 9163 C 839.03 -2.29408 -0.253125 0
M  V30 9164 C 840 -1.36533 -0.945935 0
M  V30 9165 O 841.185 -1.65495 -0.949527 0
M  V30 9166 C 838.325 -3.19592 -1.30211 0
M  V30 9167 C 837.438 -4.27535 -0.61948 0
M  V30 9168 C 836.573 -5.04916 -1.65026 0
M  V30 9169 C 835.612 -6.04677 -0.950368 0
M  V30 9170 N 834.749 -6.75164 -1.92608 0
M  V30 9171 H 839.589 -2.94738 0.439744 0
M  V30 9172 H 837.126 -1.45311 0.2287 0
M  V30 9173 H 839.084 -3.70267 -1.92245 0
M  V30 9174 H 837.714 -2.56213 -1.96353 0
M  V30 9175 H 836.766 -3.80228 0.114505 0
M  V30 9176 H 838.078 -4.98752 -0.0693016 0
M  V30 9177 H 837.232 -5.59539 -2.34523 0
M  V30 9178 H 835.971 -4.33508 -2.23432 0
M  V30 9179 H 834.976 -5.4927 -0.241252 0
M  V30 9180 H 836.201 -6.78077 -0.372599 0
M  V30 9181 H 834.147 -6.06517 -2.49946 0
M  V30 9182 H 834.064 -7.4241 -1.42699 0
M  V30 9183 H 835.332 -7.34384 -2.61345 0
M  V30 9184 N 839.561 -0.251338 -1.55583 0
M  V30 9185 C 840.807 0.37272 -1.99346 0
M  V30 9186 C 841.14 1.57266 -1.13934 0
M  V30 9187 O 840.415 1.9343 -0.20377 0
M  V30 9188 C 840.698 0.778245 -3.5159 0
M  V30 9189 C 840.551 -0.427394 -4.47765 0
M  V30 9190 C 841.87 1.62358 -4.09057 0
M  V30 9191 H 838.989 0.134002 -0.724715 0
M  V30 9192 H 841.631 -0.353536 -1.86682 0
M  V30 9193 H 839.781 1.39704 -3.62512 0
M  V30 9194 H 841.453 -1.06586 -4.48818 0
M  V30 9195 H 839.696 -1.06972 -4.20404 0
M  V30 9196 H 840.367 -0.10025 -5.51909 0
M  V30 9197 H 842.843 1.1012 -4.01264 0
M  V30 9198 H 841.719 1.87617 -5.1584 0
M  V30 9199 H 841.98 2.59688 -3.57791 0
M  V30 9200 N 841.039 1.57585 0.0217189 0
M  V30 9201 C 842.269 1.9359 0.721572 0
M  V30 9202 C 842.677 0.850132 1.69025 0
M  V30 9203 O 842.02 -0.181539 1.82801 0
M  V30 9204 C 842.082 3.25445 1.52729 0
M  V30 9205 C 841.746 4.51251 0.722586 0
M  V30 9206 C 842.743 5.19896 0.0196598 0
M  V30 9207 C 840.428 4.97745 0.674959 0
M  V30 9208 C 842.422 6.33319 -0.720114 0
M  V30 9209 C 840.109 6.11062 -0.068555 0
M  V30 9210 C 841.107 6.78704 -0.764845 0
M  V30 9211 O 840.795 7.89852 -1.49627 0
M  V30 9212 H 840.527 0.643409 0.207366 0
M  V30 9213 H 843.081 2.05391 -0.0189346 0
M  V30 9214 H 841.311 3.0999 2.31178 0
M  V30 9215 H 843 3.46721 2.11044 0
M  V30 9216 H 843.766 4.84977 0.0474394 0
M  V30 9217 H 839.645 4.44934 1.20643 0
M  V30 9218 H 843.189 6.86051 -1.26413 0
M  V30 9219 H 839.086 6.45425 -0.0982318 0
M  V30 9220 H 839.854 8.06251 -1.41071 0
M  V30 9221 N 842.517 -0.29412 1.54831 0
M  V30 9222 C 843.742 -1.05156 1.78765 0
M  V30 9223 C 844.167 -1.79916 0.548809 0
M  V30 9224 O 843.525 -1.74243 -0.500909 0
M  V30 9225 C 843.573 -2.00242 2.99893 0
M  V30 9226 O 842.677 -3.08662 2.73499 0
M  V30 9227 H 842.018 -0.301737 0.591482 0
M  V30 9228 H 844.548 -0.329449 2.0193 0
M  V30 9229 H 844.558 -2.42583 3.28051 0
M  V30 9230 H 843.233 -1.45235 3.89717 0
M  V30 9231 H 841.81 -2.70786 2.56377 0
M  V30 9232 N 843.995 -1.47404 -0.557645 0
M  V30 9233 C 845.242 -1.54007 -1.31484 0
M  V30 9234 C 845.57 -0.202162 -1.93447 0
M  V30 9235 O 844.825 0.804901 -1.78381 0
M  V30 9236 C 845.124 -2.6061 -2.44575 0
M  V30 9237 C 844.79 -4.03896 -2.00446 0
M  V30 9238 C 843.452 -4.42901 -1.88127 0
M  V30 9239 C 845.804 -4.93804 -1.66754 0
M  V30 9240 C 843.132 -5.6965 -1.40411 0
M  V30 9241 C 845.484 -6.21016 -1.20509 0
M  V30 9242 C 844.148 -6.58903 -1.06786 0
M  V30 9243 H 843.418 -0.563552 -0.481134 0
M  V30 9244 H 846.065 -1.81001 -0.625375 0
M  V30 9245 H 844.37 -2.27371 -3.19076 0
M  V30 9246 H 846.067 -2.62941 -3.02759 0
M  V30 9247 H 842.657 -3.73077 -2.10977 0
M  V30 9248 H 846.841 -4.64369 -1.75144 0
M  V30 9249 H 842.097 -5.97755 -1.2845 0
M  V30 9250 H 846.271 -6.90095 -0.935001 0
M  V30 9251 H 843.898 -7.57008 -0.695891 0
M  V30 9252 N 845.473 0.80434 -1.35529 0
M  V30 9253 C 846.72 1.56154 -1.28927 0
M  V30 9254 C 847.048 1.94026 0.135682 0
M  V30 9255 O 846.303 1.61759 1.10148 0
M  V30 9256 C 846.602 2.85988 -2.14349 0
M  V30 9257 C 846.268 2.67323 -3.6311 0
M  V30 9258 C 844.93 2.61941 -4.03659 0
M  V30 9259 C 847.282 2.49699 -4.57493 0
M  V30 9260 C 844.61 2.3688 -5.36754 0
M  V30 9261 C 846.962 2.26168 -5.90788 0
M  V30 9262 C 845.626 2.19209 -6.30479 0
M  V30 9263 H 844.896 0.571407 -0.471779 0
M  V30 9264 H 847.543 0.929193 -1.67446 0
M  V30 9265 H 845.848 3.53612 -1.68718 0
M  V30 9266 H 847.545 3.43697 -2.06576 0
M  V30 9267 H 844.135 2.72361 -3.30934 0
M  V30 9268 H 848.319 2.52869 -4.27049 0
M  V30 9269 H 843.575 2.29964 -5.66504 0
M  V30 9270 H 847.749 2.11522 -6.63499 0
M  V30 9271 H 845.376 1.99553 -7.33541 0
M  V30 9272 N 846.951 1.19563 1.02676 0
M  V30 9273 C 848.176 1.02556 1.80269 0
M  V30 9274 C 848.601 -0.421056 1.83327 0
M  V30 9275 O 847.959 -1.30279 1.26084 0
M  V30 9276 C 848.007 1.60165 3.23078 0
M  V30 9277 O 847.111 0.832404 4.03912 0
M  V30 9278 H 846.452 0.362354 0.556413 0
M  V30 9279 H 848.982 1.58633 1.29216 0
M  V30 9280 H 848.992 1.6347 3.7382 0
M  V30 9281 H 847.667 2.65454 3.20167 0
M  V30 9282 H 846.244 0.872768 3.62543 0
M  V30 9283 N 848.429 -1.21819 0.999893 0
M  V30 9284 C 849.362 -2.22635 0.500887 0
M  V30 9285 C 850.34 -1.56459 -0.442636 0
M  V30 9286 O 851.524 -1.84902 -0.366551 0
M  V30 9287 C 848.651 -3.37598 -0.273046 0
M  V30 9288 C 847.697 -4.22006 0.617511 0
M  V30 9289 S 848.53 -4.93583 2.07693 0
M  V30 9290 C 849.686 -6.1198 1.31269 0
M  V30 9291 H 849.919 -2.64618 1.35516 0
M  V30 9292 H 847.452 -1.31606 0.807419 0
M  V30 9293 H 849.41 -4.04251 -0.713515 0
M  V30 9294 H 848.071 -2.94108 -1.10268 0
M  V30 9295 H 847.264 -5.03995 0.0216543 0
M  V30 9296 H 846.866 -3.6052 0.99504 0
M  V30 9297 H 849.158 -6.74979 0.583933 0
M  V30 9298 H 850.101 -6.75991 2.10811 0
M  V30 9299 H 850.509 -5.5847 0.822901 0
M  V30 9300 N 849.908 -0.773975 -1.37286 0
M  V30 9301 C 851.185 -0.263942 -1.93811 0
M  V30 9302 C 851.565 1.24138 -1.70743 0
M  V30 9303 O 850.913 2.02557 -1.05749 0
M  V30 9304 C 851.123 -0.639753 -3.43086 0
M  V30 9305 C 852.471 -0.610796 -4.20184 0
M  V30 9306 O 853.495 -0.579278 -3.51458 0
M  V30 9307 O 852.354 -0.639862 -5.42741 0
M  V30 9308 H 849.448 -0.0614331 -0.824715 0
M  V30 9309 H 851.994 -0.855477 -1.46559 0
M  V30 9310 H 850.766 -1.67856 -3.53469 0
M  V30 9311 H 850.389 -0.0212827 -3.97594 0
M  V30 9312 N 851.386 1.48609 -0.524698 0
M  V30 9313 C 852.616 2.06599 0.00741868 0
M  V30 9314 C 853.024 1.3823 1.29186 0
M  V30 9315 O 852.367 0.461962 1.77797 0
M  V30 9316 C 852.429 3.58184 0.307324 0
M  V30 9317 C 852.093 4.48391 -0.882864 0
M  V30 9318 C 853.09 4.88485 -1.77984 0
M  V30 9319 C 850.775 4.90367 -1.08837 0
M  V30 9320 C 852.769 5.69319 -2.86627 0
M  V30 9321 C 850.456 5.70972 -2.17794 0
M  V30 9322 C 851.454 6.10355 -3.06523 0
M  V30 9323 O 851.142 6.89343 -4.13596 0
M  V30 9324 H 850.874 0.675421 -0.0279846 0
M  V30 9325 H 853.428 1.92058 -0.7282 0
M  V30 9326 H 851.658 3.70818 1.09685 0
M  V30 9327 H 853.347 3.98318 0.780886 0
M  V30 9328 H 854.113 4.56682 -1.63299 0
M  V30 9329 H 849.992 4.592 -0.407035 0
M  V30 9330 H 853.536 5.99978 -3.55911 0
M  V30 9331 H 849.433 6.02188 -2.32465 0
M  V30 9332 H 850.201 7.07689 -4.1124 0
M  V30 9333 N 852.864 0.259585 1.55447 0
M  V30 9334 C 854.113 -0.362163 1.98422 0
M  V30 9335 C 854.426 -1.58135 1.1512 0
M  V30 9336 O 855.632 -2.27506 1.48166 0
M  V30 9337 C 854.088 -0.695722 3.53111 0
M  V30 9338 C 853.696 0.502784 4.4517 0
M  V30 9339 C 855.44 -1.28096 4.04712 0
M  V30 9340 C 853.347 0.144674 5.91223 0
M  V30 9341 H 852.277 -0.139092 0.74106 0
M  V30 9342 H 854.928 0.361798 1.79898 0
M  V30 9343 H 853.31 -1.47816 3.67378 0
M  V30 9344 H 854.484 1.27994 4.42667 0
M  V30 9345 H 852.799 1.0038 4.0412 0
M  V30 9346 H 855.396 -1.56243 5.11363 0
M  V30 9347 H 855.739 -2.20969 3.52815 0
M  V30 9348 H 856.272 -0.561146 3.93822 0
M  V30 9349 H 853.011 1.04087 6.47183 0
M  V30 9350 H 852.531 -0.596023 5.96831 0
M  V30 9351 H 854.21 -0.268651 6.46442 0
M  V30 9352 N 854.342 -1.57594 -0.0133615 0
M  V30 9353 C 855.289 -2.07574 -1.00905 0
M  V30 9354 C 856.259 -0.968231 -1.34961 0
M  V30 9355 O 857.444 -1.23981 -1.45028 0
M  V30 9356 C 854.584 -2.5728 -2.30002 0
M  V30 9357 C 853.697 -3.81881 -2.01967 0
M  V30 9358 C 852.832 -4.20139 -3.25049 0
M  V30 9359 C 851.871 -5.37614 -2.92639 0
M  V30 9360 N 851.008 -5.71229 -4.08218 0
M  V30 9361 H 855.848 -2.92382 -0.575899 0
M  V30 9362 H 853.385 -1.4455 -0.272722 0
M  V30 9363 H 855.343 -2.84171 -3.05454 0
M  V30 9364 H 853.973 -1.75365 -2.71011 0
M  V30 9365 H 853.025 -3.61979 -1.16942 0
M  V30 9366 H 854.337 -4.67441 -1.74069 0
M  V30 9367 H 853.491 -4.48242 -4.08857 0
M  V30 9368 H 852.23 -3.33262 -3.56073 0
M  V30 9369 H 851.235 -5.09248 -2.07235 0
M  V30 9370 H 852.46 -6.26157 -2.62876 0
M  V30 9371 H 850.406 -4.8731 -4.39164 0
M  V30 9372 H 850.323 -6.51333 -3.83799 0
M  V30 9373 H 851.591 -6.03917 -4.92854 0
M  V30 9374 N 855.82 0.285905 -1.54985 0
M  V30 9375 C 857.048 1.03776 -1.78992 0
M  V30 9376 C 857.463 1.80402 -0.556814 0
M  V30 9377 O 856.82 1.76242 0.473801 0
M  V30 9378 C 856.871 2.0065 -3.00702 0
M  V30 9379 O 856.592 1.27131 -4.19249 0
M  V30 9380 C 858.093 2.87753 -3.37214 0
M  V30 9381 H 855.313 0.307126 -0.596586 0
M  V30 9382 H 857.857 0.3206 -2.01971 0
M  V30 9383 H 856.012 2.67847 -2.79887 0
M  V30 9384 H 856.426 1.92316 -4.8797 0
M  V30 9385 H 857.9 3.51548 -4.2558 0
M  V30 9386 H 858.377 3.56848 -2.56039 0
M  V30 9387 H 858.983 2.26065 -3.60242 0
M  V30 9388 N 857.298 1.47698 0.54982 0
M  V30 9389 C 858.261 1.60282 1.63837 0
M  V30 9390 C 859.261 0.477394 1.5355 0
M  V30 9391 O 860.451 0.742665 1.57576 0
M  V30 9392 C 857.583 1.55431 3.03404 0
M  V30 9393 H 858.776 2.57325 1.54026 0
M  V30 9394 H 856.329 1.35999 0.770329 0
M  V30 9395 H 857.064 0.597912 3.1874 0
M  V30 9396 H 856.849 2.37116 3.12279 0
M  V30 9397 H 858.339 1.6739 3.82584 0
M  V30 9398 N 858.776 -0.797141 1.35954 0
M  V30 9399 C 859.724 -1.93084 1.29697 0
M  V30 9400 C 860.718 -1.68329 0.190152 0
M  V30 9401 O 861.924 -1.7643 0.3567 0
M  V30 9402 H 858.299 -0.634531 0.403577 0
M  V30 9403 H 860.27 -1.95481 2.25455 0
M  V30 9404 C 859.019 -3.29996 1.09536 0
M  V30 9405 H 858.342 -3.49607 1.93946 0
M  V30 9406 H 859.782 -4.09696 1.09202 0
M  V30 9407 C 858.241 -3.36304 -0.200381 0
M  V30 9408 O 858.771 -3.83579 -1.19291 0
M  V30 9409 N 856.977 -2.89587 -0.242406 0
M  V30 9410 H 856.524 -2.51307 0.565897 0
M  V30 9411 H 856.482 -2.94189 -1.10906 0
M  V30 9412 N 860.254 -1.20106 -1.0204 0
M  V30 9413 C 861.201 -0.946468 -2.10501 0
M  V30 9414 C 862.171 0.121902 -1.65652 0
M  V30 9415 O 863.356 -0.0220244 -1.90787 0
M  V30 9416 C 860.496 -0.500499 -3.41451 0
M  V30 9417 C 859.609 -1.63659 -3.998 0
M  V30 9418 C 858.744 -1.14131 -5.18794 0
M  V30 9419 C 857.783 -2.25074 -5.69217 0
M  V30 9420 N 856.92 -1.76791 -6.79477 0
M  V30 9421 H 861.76 -1.87506 -2.31615 0
M  V30 9422 H 859.297 -0.934693 -1.13587 0
M  V30 9423 H 861.255 -0.223276 -4.16602 0
M  V30 9424 H 859.885 0.391099 -3.20422 0
M  V30 9425 H 858.937 -2.02882 -3.21781 0
M  V30 9426 H 860.249 -2.47213 -4.33229 0
M  V30 9427 H 859.403 -0.819826 -6.01135 0
M  V30 9428 H 858.142 -0.275615 -4.86921 0
M  V30 9429 H 857.147 -2.58043 -4.85483 0
M  V30 9430 H 858.372 -3.12114 -6.03127 0
M  V30 9431 H 856.318 -0.925428 -6.4944 0
M  V30 9432 H 856.235 -2.53928 -7.12079 0
M  V30 9433 H 857.503 -1.47631 -7.65392 0
M  V30 9434 N 861.732 1.21287 -1.00634 0
M  V30 9435 C 862.978 1.90671 -0.690822 0
M  V30 9436 C 863.311 1.77996 0.776592 0
M  V30 9437 O 862.586 1.15748 1.5631 0
M  V30 9438 C 862.869 3.42426 -1.11428 0
M  V30 9439 C 862.722 3.64086 -2.64124 0
M  V30 9440 C 864.041 4.34851 -0.677686 0
M  V30 9441 H 861.16 0.692419 -0.252439 0
M  V30 9442 H 863.802 1.42893 -1.25226 0
M  V30 9443 H 861.952 3.83249 -0.636586 0
M  V30 9444 H 863.624 3.32582 -3.19667 0
M  V30 9445 H 861.867 3.07906 -3.05576 0
M  V30 9446 H 862.538 4.7042 -2.88806 0
M  V30 9447 H 865.014 4.01619 -1.0882 0
M  V30 9448 H 863.89 5.39675 -1.00213 0
M  V30 9449 H 864.151 4.4009 0.421125 0
M  V30 9450 N 863.21 0.781244 1.36873 0
M  V30 9451 C 864.456 0.350407 1.9975 0
M  V30 9452 C 864.789 -1.07293 1.6187 0
M  V30 9453 O 864.064 -1.73983 0.869491 0
M  V30 9454 C 864.347 0.504834 3.56544 0
M  V30 9455 C 864.2 1.97127 4.04303 0
M  V30 9456 C 865.519 -0.0851272 4.40018 0
M  V30 9457 H 862.638 0.128794 0.725659 0
M  V30 9458 H 865.28 0.98606 1.6241 0
M  V30 9459 H 863.43 -0.0363006 3.88483 0
M  V30 9460 H 865.102 2.57284 3.82887 0
M  V30 9461 H 863.345 2.47676 3.56145 0
M  V30 9462 H 864.016 2.03033 5.13305 0
M  V30 9463 H 866.492 0.376704 4.14391 0
M  V30 9464 H 865.368 0.0530015 5.48874 0
M  V30 9465 H 865.629 -1.17642 4.2616 0
M  V30 9466 N 864.689 -1.48329 0.532571 0
M  V30 9467 C 865.599 -2.33445 -0.232546 0
M  V30 9468 C 866.615 -1.46651 -0.93645 0
M  V30 9469 O 867.791 -1.79627 -0.910834 0
M  V30 9470 C 864.856 -3.22824 -1.26434 0
M  V30 9471 C 863.917 -4.25492 -0.570511 0
M  V30 9472 C 863.15 -5.10601 -1.55315 0
M  V30 9473 O 863.373 -4.97733 -2.78599 0
M  V30 9474 O 862.307 -5.91927 -1.09112 0
M  V30 9475 H 866.133 -3.00119 0.464988 0
M  V30 9476 H 863.718 -1.46489 0.293462 0
M  V30 9477 H 865.6 -3.78103 -1.86055 0
M  V30 9478 H 864.275 -2.58807 -1.94424 0
M  V30 9479 H 863.182 -3.74041 0.0662587 0
M  V30 9480 H 864.515 -4.92154 0.0674904 0
M  V30 9481 N 866.167 -0.267825 -1.55308 0
M  V30 9482 C 867.13 0.60965 -2.20943 0
M  V30 9483 C 868.13 1.0869 -1.18504 0
M  V30 9484 O 869.32 0.988248 -1.43455 0
M  V30 9485 C 866.452 1.84027 -2.86961 0
M  V30 9486 H 867.645 0.0366806 -2.99878 0
M  V30 9487 H 865.198 -0.0183941 -1.56289 0
M  V30 9488 H 865.933 2.45394 -2.1202 0
M  V30 9489 H 865.718 1.50605 -3.62023 0
M  V30 9490 H 867.208 2.46442 -3.37129 0
M  V30 9491 N 867.645 1.57599 0.00500368 0
M  V30 9492 C 868.893 1.89973 0.68953 0
M  V30 9493 C 869.214 0.868531 1.7459 0
M  V30 9494 O 868.484 -0.0947367 1.95671 0
M  V30 9495 H 867.064 0.701153 0.25767 0
M  V30 9496 H 869.726 1.94869 -0.0347392 0
M  V30 9497 H 868.822 2.89584 1.16394 0
M  V30 9498 N 869.123 -0.277682 1.55134 0
M  V30 9499 C 870.053 -1.34742 1.90701 0
M  V30 9500 C 871.034 -1.51757 0.768354 0
M  V30 9501 O 872.219 -1.64879 1.02609 0
M  V30 9502 C 869.349 -2.70775 2.17481 0
M  V30 9503 C 868.303 -2.68497 3.33307 0
M  V30 9504 C 867.629 -4.08037 3.45557 0
M  V30 9505 C 868.929 -2.28178 4.69821 0
M  V30 9506 H 870.623 -1.05224 2.803 0
M  V30 9507 H 868.169 -0.504738 1.34864 0
M  V30 9508 H 870.122 -3.45719 2.40949 0
M  V30 9509 H 868.846 -3.01867 1.24676 0
M  V30 9510 H 867.505 -1.9601 3.09799 0
M  V30 9511 H 867.153 -4.36344 2.50226 0
M  V30 9512 H 866.853 -4.07409 4.23429 0
M  V30 9513 H 868.377 -4.84726 3.71312 0
M  V30 9514 H 869.791 -2.92843 4.92865 0
M  V30 9515 H 868.188 -2.3872 5.50575 0
M  V30 9516 H 869.258 -1.23308 4.6896 0
M  V30 9517 N 870.601 -1.47988 -0.541979 0
M  V30 9518 C 871.848 -1.55393 -1.29843 0
M  V30 9519 C 872.176 -0.222668 -1.93221 0
M  V30 9520 O 871.431 0.785936 -1.79225 0
M  V30 9521 C 871.73 -2.63189 -2.41798 0
M  V30 9522 C 871.396 -4.05999 -1.96151 0
M  V30 9523 C 870.058 -4.44872 -1.83419 0
M  V30 9524 C 872.41 -4.95545 -1.61507 0
M  V30 9525 C 869.738 -5.71108 -1.34361 0
M  V30 9526 C 872.09 -6.22259 -1.13915 0
M  V30 9527 C 870.754 -6.59998 -0.997911 0
M  V30 9528 H 870.024 -0.568623 -0.47513 0
M  V30 9529 H 872.671 -1.81654 -0.606142 0
M  V30 9530 H 870.976 -2.30743 -3.16647 0
M  V30 9531 H 872.673 -2.66138 -2.99953 0
M  V30 9532 H 869.263 -3.75294 -2.07008 0
M  V30 9533 H 873.447 -4.662 -1.70209 0
M  V30 9534 H 868.703 -5.99083 -1.22103 0
M  V30 9535 H 872.877 -6.91048 -0.861755 0
M  V30 9536 H 870.504 -7.57704 -0.615561 0
M  V30 9537 N 872.079 0.78992 -1.36375 0
M  V30 9538 C 873.042 1.88414 -1.30509 0
M  V30 9539 C 874.042 1.59384 -0.2129 0
M  V30 9540 O 875.232 1.67805 -0.467651 0
M  V30 9541 C 872.364 3.25188 -1.02302 0
M  V30 9542 H 873.557 1.95031 -2.27822 0
M  V30 9543 H 871.11 0.987664 -1.2114 0
M  V30 9544 H 871.845 3.24254 -0.0544486 0
M  V30 9545 H 871.63 3.47647 -1.81338 0
M  V30 9546 H 873.12 4.05252 -1.00801 0
M  V30 9547 N 873.557 1.20646 1.01402 0
M  V30 9548 C 874.805 1.01618 1.74695 0
M  V30 9549 C 875.126 -0.452438 1.89679 0
M  V30 9550 O 874.396 -1.32693 1.44116 0
M  V30 9551 H 872.976 0.373013 0.647202 0
M  V30 9552 H 875.638 1.518 1.22241 0
M  V30 9553 H 874.734 1.47666 2.74957 0
M  V30 9554 N 875.035 -1.20752 1.01276 0
M  V30 9555 C 876.281 -1.90582 0.710627 0
M  V30 9556 C 876.636 -1.7713 -0.751184 0
M  V30 9557 O 875.929 -1.14223 -1.5383 0
M  V30 9558 C 876.123 -3.40808 1.07633 0
M  V30 9559 C 875.952 -3.68878 2.57214 0
M  V30 9560 C 874.722 -3.87805 3.23937 0
M  V30 9561 C 876.92 -3.71753 3.55393 0
M  V30 9562 N 874.902 -4.0336 4.62789 0
M  V30 9563 C 876.273 -3.92686 4.79789 0
M  V30 9564 C 878.328 -3.54697 3.4942 0
M  V30 9565 C 877.031 -3.98332 5.98936 0
M  V30 9566 C 879.057 -3.61612 4.67964 0
M  V30 9567 C 878.419 -3.83014 5.91168 0
M  V30 9568 H 874.518 -0.717219 0.311643 0
M  V30 9569 H 877.102 -1.45228 1.2968 0
M  V30 9570 H 875.273 -3.84923 0.518527 0
M  V30 9571 H 877.005 -3.98096 0.728128 0
M  V30 9572 H 873.76 -3.86029 2.74369 0
M  V30 9573 H 874.184 -4.15023 5.34869 0
M  V30 9574 H 878.826 -3.3712 2.55166 0
M  V30 9575 H 876.544 -4.14706 6.93574 0
M  V30 9576 H 880.13 -3.49728 4.64954 0
M  V30 9577 H 879.01 -3.88219 6.81363 0
M  V30 9578 N 876.513 -0.788492 -1.36457 0
M  V30 9579 C 877.759 -0.360995 -1.99561 0
M  V30 9580 C 878.092 1.06433 -1.62437 0
M  V30 9581 O 877.367 1.7352 -0.878705 0
M  V30 9582 C 877.65 -0.523735 -3.56271 0
M  V30 9583 C 877.503 -1.99268 -4.03252 0
M  V30 9584 C 878.822 0.0617908 -4.40057 0
M  V30 9585 H 875.941 -0.13264 -0.724966 0
M  V30 9586 H 878.583 -0.994659 -1.61884 0
M  V30 9587 H 876.733 0.0156979 -3.88497 0
M  V30 9588 H 878.405 -2.59311 -3.81518 0
M  V30 9589 H 876.648 -2.49561 -3.54826 0
M  V30 9590 H 877.319 -2.05752 -5.12221 0
M  V30 9591 H 879.795 -0.398674 -4.14186 0
M  V30 9592 H 878.671 -0.0821089 -5.48839 0
M  V30 9593 H 878.932 1.15381 -4.26778 0
M  V30 9594 N 877.991 1.48044 -0.54043 0
M  V30 9595 C 878.938 2.29781 0.216597 0
M  V30 9596 C 879.908 1.38021 0.924094 0
M  V30 9597 O 881.093 1.66985 0.923078 0
M  V30 9598 C 878.233 3.21623 1.2511 0
M  V30 9599 C 877.346 4.28467 0.551384 0
M  V30 9600 C 876.481 5.07477 1.56972 0
M  V30 9601 C 875.52 6.06113 0.854048 0
M  V30 9602 N 874.657 6.78143 1.81842 0
M  V30 9603 H 879.497 2.94001 -0.486578 0
M  V30 9604 H 877.034 1.44929 -0.251789 0
M  V30 9605 H 878.992 3.73279 1.8633 0
M  V30 9606 H 877.622 2.59305 1.92252 0
M  V30 9607 H 876.674 3.79997 -0.174982 0
M  V30 9608 H 877.986 4.98799 -0.0100542 0
M  V30 9609 H 877.14 5.63199 2.25592 0
M  V30 9610 H 875.879 4.37008 2.16507 0
M  V30 9611 H 874.884 5.49585 0.153838 0
M  V30 9612 H 876.109 6.78584 0.264675 0
M  V30 9613 H 874.055 6.10417 2.40265 0
M  V30 9614 H 873.972 7.44587 1.3087 0
M  V30 9615 H 875.24 7.38448 2.49628 0
M  V30 9616 N 879.47 0.276058 1.55163 0
M  V30 9617 C 880.402 -0.644254 2.19959 0
M  V30 9618 C 881.415 -1.11675 1.18459 0
M  V30 9619 O 882.604 -1.0385 1.45181 0
M  V30 9620 C 879.704 -1.89093 2.81242 0
M  V30 9621 C 878.877 -1.56509 4.08441 0
M  V30 9622 C 877.936 -2.66433 4.53762 0
M  V30 9623 O 876.962 -2.32579 5.19515 0
M  V30 9624 N 878.164 -3.96509 4.23982 0
M  V30 9625 H 880.929 -0.0896808 2.99566 0
M  V30 9626 H 878.49 0.0971981 1.61608 0
M  V30 9627 H 880.482 -2.61929 3.08505 0
M  V30 9628 H 879.052 -2.35453 2.05622 0
M  V30 9629 H 878.272 -0.670522 3.88455 0
M  V30 9630 H 879.56 -1.32242 4.91314 0
M  V30 9631 H 878.958 -4.26834 3.71254 0
M  V30 9632 H 877.515 -4.6572 4.56014 0
M  V30 9633 N 880.948 -1.576 0.00335426 0
M  V30 9634 C 882.197 -1.89892 -0.680001 0
M  V30 9635 C 882.51 -0.878731 -1.7475 0
M  V30 9636 O 883.716 -1.09199 -2.48572 0
M  V30 9637 C 882.172 -3.37098 -1.26066 0
M  V30 9638 C 881.78 -4.4742 -0.227807 0
M  V30 9639 C 883.524 -3.78495 -1.92202 0
M  V30 9640 C 881.431 -5.85706 -0.81865 0
M  V30 9641 H 880.361 -0.708578 -0.257746 0
M  V30 9642 H 883.012 -1.83387 0.0644472 0
M  V30 9643 H 881.394 -3.38451 -2.05589 0
M  V30 9644 H 882.568 -4.57589 0.54307 0
M  V30 9645 H 880.883 -4.15064 0.333297 0
M  V30 9646 H 883.48 -4.7915 -2.37318 0
M  V30 9647 H 883.823 -3.12187 -2.75399 0
M  V30 9648 H 884.356 -3.79456 -1.19408 0
M  V30 9649 H 881.095 -6.55495 -0.0253787 0
M  V30 9650 H 880.615 -5.79196 -1.55861 0
M  V30 9651 H 882.294 -6.33469 -1.31627 0
M  V30 9652 N 882.426 0.269451 -1.5528 0
M  V30 9653 C 883.672 1.00206 -1.76314 0
M  V30 9654 C 884.005 1.85812 -0.564581 0
M  V30 9655 O 883.28 1.89509 0.437769 0
M  V30 9656 C 883.563 1.88163 -3.07029 0
M  V30 9657 C 883.416 1.05527 -4.37246 0
M  V30 9658 C 884.735 2.8681 -3.33808 0
M  V30 9659 H 881.854 0.36288 -0.641473 0
M  V30 9660 H 884.496 0.274188 -1.88011 0
M  V30 9661 H 882.646 2.50224 -2.97187 0
M  V30 9662 H 884.318 0.455094 -4.5905 0
M  V30 9663 H 882.561 0.358842 -4.32313 0
M  V30 9664 H 883.232 1.70397 -5.25042 0
M  V30 9665 H 885.708 2.34884 -3.43466 0
M  V30 9666 H 884.584 3.45492 -4.26528 0
M  V30 9667 H 884.845 3.62118 -2.5362 0
M  V30 9668 N 883.904 1.48273 0.534124 0
M  V30 9669 C 884.852 1.62926 1.66005 0
M  V30 9670 C 885.846 0.495814 1.61982 0
M  V30 9671 O 887.052 0.6744 1.66889 0
M  V30 9672 H 883.427 0.513163 0.549698 0
M  V30 9673 H 885.398 2.57498 1.50789 0
M  V30 9674 C 884.147 1.68231 3.04292 0
M  V30 9675 H 883.47 2.54807 3.0808 0
M  V30 9676 H 884.91 1.82528 3.827 0
M  V30 9677 C 883.369 0.420154 3.3427 0
M  V30 9678 O 883.899 -0.468769 3.98955 0
M  V30 9679 N 882.105 0.293115 2.89118 0
M  V30 9680 H 881.652 1.01745 2.36655 0
M  V30 9681 H 881.61 -0.550376 3.09545 0
M  V30 9682 N 885.382 -0.782676 1.36792 0
M  V30 9683 C 886.659 -1.52939 1.21939 0
M  V30 9684 C 887.039 -2.10228 -0.191639 0
M  V30 9685 O 886.387 -1.94574 -1.19805 0
M  V30 9686 C 886.597 -2.61898 2.30674 0
M  V30 9687 C 887.945 -3.29598 2.67676 0
M  V30 9688 O 888.969 -2.72186 2.29768 0
M  V30 9689 O 887.828 -4.3337 3.32946 0
M  V30 9690 H 884.922 -0.676856 0.47518 0
M  V30 9691 H 887.468 -0.82058 1.48542 0
M  V30 9692 H 886.24 -2.17607 3.25212 0
M  V30 9693 H 885.863 -3.40391 2.05475 0
M  V30 9694 N 886.86 -1.21182 -1.00761 0
M  V30 9695 C 888.107 -1.02746 -1.74498 0
M  V30 9696 C 888.435 0.439344 -1.89473 0
M  V30 9697 O 887.69 1.34232 -1.42409 0
M  V30 9698 C 887.989 -1.6667 -3.16158 0
M  V30 9699 C 887.655 -3.16515 -3.21137 0
M  V30 9700 C 886.317 -3.57405 -3.22203 0
M  V30 9701 C 888.669 -4.12495 -3.18587 0
M  V30 9702 C 885.997 -4.92786 -3.18401 0
M  V30 9703 C 888.349 -5.47833 -3.16326 0
M  V30 9704 C 887.013 -5.88124 -3.157 0
M  V30 9705 H 886.283 -0.375974 -0.638533 0
M  V30 9706 H 888.93 -1.50736 -1.18114 0
M  V30 9707 H 887.235 -1.10966 -3.75758 0
M  V30 9708 H 888.932 -1.49911 -3.71924 0
M  V30 9709 H 885.522 -2.83947 -3.21048 0
M  V30 9710 H 889.706 -3.81932 -3.16925 0
M  V30 9711 H 884.962 -5.23253 -3.16253 0
M  V30 9712 H 889.136 -6.21942 -3.13306 0
M  V30 9713 H 886.763 -6.92995 -3.12508 0
M  V30 9714 N 888.338 1.20213 -1.01915 0
M  V30 9715 C 889.584 1.89928 -0.711007 0
M  V30 9716 C 889.917 1.7881 0.75767 0
M  V30 9717 O 889.192 1.17399 1.55073 0
M  V30 9718 C 889.475 3.41225 -1.15053 0
M  V30 9719 C 889.328 3.61264 -2.67971 0
M  V30 9720 C 890.647 4.34108 -0.72377 0
M  V30 9721 H 887.766 0.689702 -0.259768 0
M  V30 9722 H 890.408 1.41557 -1.26734 0
M  V30 9723 H 888.558 3.82552 -0.677199 0
M  V30 9724 H 890.23 3.29173 -3.23176 0
M  V30 9725 H 888.473 3.04647 -3.08824 0
M  V30 9726 H 889.144 4.67331 -2.93779 0
M  V30 9727 H 891.62 4.00442 -1.13073 0
M  V30 9728 H 890.496 5.38581 -1.05931 0
M  V30 9729 H 890.757 4.40512 0.374424 0
M  V30 9730 N 889.816 0.795718 1.36037 0
M  V30 9731 C 891.065 0.367575 1.98322 0
M  V30 9732 C 891.378 -1.06823 1.63854 0
M  V30 9733 O 892.584 -1.59895 2.19421 0
M  V30 9734 C 891.04 0.606272 3.54757 0
M  V30 9735 C 890.648 2.0539 3.98144 0
M  V30 9736 C 892.392 0.242947 4.23804 0
M  V30 9737 C 890.299 2.23893 5.47381 0
M  V30 9738 H 889.229 0.133699 0.742052 0
M  V30 9739 H 891.88 0.978242 1.5525 0
M  V30 9740 H 890.262 -0.0741957 3.9593 0
M  V30 9741 H 891.436 2.77129 3.68152 0
M  V30 9742 H 889.751 2.37607 3.41953 0
M  V30 9743 H 892.348 0.359382 5.33491 0
M  V30 9744 H 892.691 -0.809661 4.08351 0
M  V30 9745 H 893.224 0.876899 3.88015 0
M  V30 9746 H 889.963 3.27559 5.6779 0
M  V30 9747 H 889.483 1.56666 5.78978 0
M  V30 9748 H 891.162 2.04914 6.13693 0
M  V30 9749 N 891.294 -1.47756 0.548274 0
M  V30 9750 C 892.204 -2.33678 -0.207773 0
M  V30 9751 C 893.22 -1.47636 -0.920843 0
M  V30 9752 O 894.396 -1.80583 -0.89173 0
M  V30 9753 C 891.461 -3.24147 -1.23003 0
M  V30 9754 C 890.522 -4.26073 -0.52535 0
M  V30 9755 C 889.755 -5.12219 -1.4989 0
M  V30 9756 O 889.978 -5.0066 -2.73305 0
M  V30 9757 O 888.912 -5.93051 -1.02828 0
M  V30 9758 H 892.738 -2.99609 0.496794 0
M  V30 9759 H 890.323 -1.4617 0.308982 0
M  V30 9760 H 892.205 -3.80055 -1.82034 0
M  V30 9761 H 890.88 -2.60855 -1.91668 0
M  V30 9762 H 889.787 -3.7395 0.105927 0
M  V30 9763 H 891.12 -4.92054 0.119686 0
M  V30 9764 N 892.772 -0.284283 -1.55015 0
M  V30 9765 C 893.735 0.586182 -2.21577 0
M  V30 9766 C 894.735 1.07427 -1.1965 0
M  V30 9767 O 895.925 0.972977 -1.44495 0
M  V30 9768 C 893.057 1.80973 -2.88897 0
M  V30 9769 H 894.25 0.00487253 -2.999 0
M  V30 9770 H 891.803 -0.0349696 -1.56261 0
M  V30 9771 H 892.538 2.43131 -2.14611 0
M  V30 9772 H 892.323 1.46757 -3.636 0
M  V30 9773 H 893.813 2.42853 -3.39724 0
M  V30 9774 N 894.251 1.57596 -0.0117121 0
M  V30 9775 C 895.199 2.1029 0.994035 0
M  V30 9776 C 896.193 1.02549 1.34833 0
M  V30 9777 O 897.399 1.21003 1.3326 0
M  V30 9778 H 893.774 0.671624 0.338268 0
M  V30 9779 H 895.745 2.93761 0.524147 0
M  V30 9780 C 894.494 2.63099 2.27319 0
M  V30 9781 H 893.817 3.45642 2.00927 0
M  V30 9782 H 895.257 3.03635 2.95942 0
M  V30 9783 C 893.716 1.55044 2.99104 0
M  V30 9784 O 894.246 0.940127 3.90544 0
M  V30 9785 N 892.452 1.27506 2.61133 0
M  V30 9786 H 891.999 1.77322 1.86855 0
M  V30 9787 H 891.957 0.554292 3.09475 0
M  V30 9788 N 895.729 -0.261212 1.5542 0
M  V30 9789 C 896.676 -1.32315 1.89107 0
M  V30 9790 C 897.646 -1.48517 0.743767 0
M  V30 9791 O 898.831 -1.62733 0.996123 0
M  V30 9792 C 895.971 -2.67626 2.17877 0
M  V30 9793 C 895.084 -2.59549 3.45338 0
M  V30 9794 C 894.219 -3.87118 3.63748 0
M  V30 9795 C 893.258 -3.736 4.8486 0
M  V30 9796 N 892.395 -4.93029 4.99867 0
M  V30 9797 H 897.235 -1.02886 2.79675 0
M  V30 9798 H 894.772 -0.496812 1.38456 0
M  V30 9799 H 896.73 -3.4637 2.32559 0
M  V30 9800 H 895.36 -2.95232 1.30529 0
M  V30 9801 H 894.412 -1.72452 3.39064 0
M  V30 9802 H 895.724 -2.45465 4.34222 0
M  V30 9803 H 894.878 -4.74305 3.78312 0
M  V30 9804 H 893.617 -4.04084 2.73071 0
M  V30 9805 H 892.622 -2.84797 4.70288 0
M  V30 9806 H 893.847 -3.58143 5.76984 0
M  V30 9807 H 891.793 -5.10383 4.12123 0
M  V30 9808 H 891.71 -4.81521 5.82815 0
M  V30 9809 H 892.978 -5.81754 5.18828 0
M  V30 9810 N 897.207 -1.48554 -0.526253 0
M  V30 9811 C 898.432 -1.60686 -1.31129 0
M  V30 9812 C 898.857 -0.268701 -1.86171 0
M  V30 9813 O 898.215 0.760167 -1.64594 0
M  V30 9814 C 898.263 -2.65938 -2.43536 0
M  V30 9815 O 897.367 -2.23356 -3.46678 0
M  V30 9816 H 896.708 -0.538691 -0.388211 0
M  V30 9817 H 899.238 -1.94567 -0.632826 0
M  V30 9818 H 899.248 -2.87327 -2.89668 0
M  V30 9819 H 897.923 -3.63085 -2.02835 0
M  V30 9820 H 896.5 -2.12196 -3.06639 0
M  V30 9821 N 898.685 0.775411 -1.37205 0
M  V30 9822 C 899.633 1.90996 -1.32752 0
M  V30 9823 C 900.627 1.68006 -0.216907 0
M  V30 9824 O 901.833 1.7584 -0.384723 0
M  V30 9825 H 898.208 0.62803 -0.413621 0
M  V30 9826 H 900.179 1.91869 -2.28536 0
M  V30 9827 C 898.928 3.28211 -1.14772 0
M  V30 9828 H 898.251 3.46477 -1.99484 0
M  V30 9829 H 899.691 4.07907 -1.15706 0
M  V30 9830 C 898.15 3.3658 0.146852 0
M  V30 9831 O 898.68 3.85428 1.13173 0
M  V30 9832 N 896.886 2.89936 0.196305 0
M  V30 9833 H 896.433 2.50375 -0.605807 0
M  V30 9834 H 896.391 2.95916 1.06212 0
M  V30 9835 N 900.163 1.21714 1.00117 0
M  V30 9836 C 901.391 1.06278 1.77518 0
M  V30 9837 C 901.806 -0.387193 1.84787 0
M  V30 9838 O 901.163 -1.26854 1.31203 0
M  V30 9839 C 901.214 1.65795 3.21239 0
M  V30 9840 O 900.935 3.05119 3.14378 0
M  V30 9841 C 902.436 1.55521 4.15124 0
M  V30 9842 H 899.656 0.373013 0.557765 0
M  V30 9843 H 902.2 1.61133 1.25922 0
M  V30 9844 H 900.355 1.15022 3.69931 0
M  V30 9845 H 900.769 3.33643 4.04701 0
M  V30 9846 H 902.243 2.01902 5.13751 0
M  V30 9847 H 902.72 0.510307 4.36225 0
M  V30 9848 H 903.326 2.0556 3.72324 0
M  V30 9849 N 901.641 -1.19671 1.02551 0
M  V30 9850 C 902.574 -2.21522 0.547998 0
M  V30 9851 C 903.552 -1.57363 -0.409349 0
M  V30 9852 O 904.736 -1.85638 -0.327248 0
M  V30 9853 C 901.863 -3.38101 -0.201375 0
M  V30 9854 C 900.909 -4.20601 0.706886 0
M  V30 9855 S 901.742 -4.89066 2.18116 0
M  V30 9856 C 902.898 -6.09058 1.4422 0
M  V30 9857 H 903.131 -2.61684 1.41099 0
M  V30 9858 H 900.664 -1.29864 0.835153 0
M  V30 9859 H 902.622 -4.05674 -0.627607 0
M  V30 9860 H 901.283 -2.96381 -1.04005 0
M  V30 9861 H 900.476 -5.03836 0.128554 0
M  V30 9862 H 900.078 -3.58329 1.07129 0
M  V30 9863 H 902.37 -6.73588 0.726975 0
M  V30 9864 H 903.313 -6.71368 2.25102 0
M  V30 9865 H 903.721 -5.56599 0.941176 0
M  V30 9866 N 903.119 -0.802921 -1.35613 0
M  V30 9867 C 904.396 -0.304993 -1.93208 0
M  V30 9868 C 904.776 1.20488 -1.73337 0
M  V30 9869 O 904.124 2.00268 -1.10022 0
M  V30 9870 C 904.334 -0.712383 -3.41652 0
M  V30 9871 C 905.682 -0.699785 -4.18794 0
M  V30 9872 O 906.706 -0.653698 -3.5015 0
M  V30 9873 O 905.565 -0.754842 -5.41262 0
M  V30 9874 H 902.659 -0.0789127 -0.823226 0
M  V30 9875 H 905.205 -0.886372 -1.44712 0
M  V30 9876 H 903.977 -1.75316 -3.49829 0
M  V30 9877 H 903.6 -0.105614 -3.9746 0
M  V30 9878 N 904.597 1.47463 -0.556102 0
M  V30 9879 C 905.544 2.29998 0.192213 0
M  V30 9880 C 906.514 1.38993 0.909403 0
M  V30 9881 O 907.699 1.67954 0.905316 0
M  V30 9882 C 904.839 3.22932 1.21692 0
M  V30 9883 C 903.952 4.29027 0.505908 0
M  V30 9884 C 903.087 5.09114 1.51581 0
M  V30 9885 C 902.126 6.06984 0.789714 0
M  V30 9886 N 901.263 6.80033 1.74639 0
M  V30 9887 H 906.103 2.93468 -0.517734 0
M  V30 9888 H 903.64 1.44654 -0.267147 0
M  V30 9889 H 905.598 3.75234 1.8236 0
M  V30 9890 H 904.228 2.61329 1.89491 0
M  V30 9891 H 903.28 3.7979 -0.215276 0
M  V30 9892 H 904.592 4.9876 -0.062958 0
M  V30 9893 H 903.746 5.6556 2.19606 0
M  V30 9894 H 902.485 4.3928 2.11859 0
M  V30 9895 H 901.49 5.49717 0.0955382 0
M  V30 9896 H 902.715 6.78827 0.192688 0
M  V30 9897 H 900.661 6.12931 2.33777 0
M  V30 9898 H 900.578 7.45933 1.22965 0
M  V30 9899 H 901.846 7.41054 2.41782 0
M  V30 9900 N 906.075 0.2925 1.54862 0
M  V30 9901 C 907.324 -0.319994 1.99146 0
M  V30 9902 C 907.637 -1.55658 1.18448 0
M  V30 9903 O 908.843 -2.24312 1.52959 0
M  V30 9904 C 907.299 -0.620665 3.54508 0
M  V30 9905 C 906.907 0.597098 4.44003 0
M  V30 9906 C 908.651 -1.19482 4.07338 0
M  V30 9907 C 906.558 0.270049 5.90783 0
M  V30 9908 H 905.488 -0.123342 0.743843 0
M  V30 9909 H 908.139 0.399876 1.7909 0
M  V30 9910 H 906.521 -1.3999 3.7043 0
M  V30 9911 H 907.695 1.37354 4.39853 0
M  V30 9912 H 906.01 1.0893 4.019 0
M  V30 9913 H 908.607 -1.45362 5.14562 0
M  V30 9914 H 908.95 -2.13435 3.57423 0
M  V30 9915 H 909.483 -0.477485 3.94924 0
M  V30 9916 H 906.222 1.17791 6.4483 0
M  V30 9917 H 905.742 -0.469292 5.97961 0
M  V30 9918 H 907.421 -0.131471 6.46866 0
M  V30 9919 N 907.553 -1.57587 0.0200696 0
M  V30 9920 C 908.516 -2.08595 -0.949767 0
M  V30 9921 C 909.516 -0.999215 -1.25985 0
M  V30 9922 O 910.706 -1.26115 -1.2017 0
M  V30 9923 C 907.838 -2.54424 -2.26895 0
M  V30 9924 H 909.031 -2.95563 -0.508161 0
M  V30 9925 H 906.584 -1.54631 -0.227798 0
M  V30 9926 H 907.319 -1.70758 -2.75703 0
M  V30 9927 H 907.104 -3.3381 -2.05702 0
M  V30 9928 H 908.594 -2.94144 -2.96427 0
M  V30 9929 N 909.032 0.252966 -1.55557 0
M  V30 9930 C 910.309 1.00432 -1.67847 0
M  V30 9931 C 910.689 2.03587 -0.55816 0
M  V30 9932 O 910.037 2.24239 0.439197 0
M  V30 9933 C 910.247 1.64313 -3.079 0
M  V30 9934 C 911.595 2.14726 -3.66303 0
M  V30 9935 O 912.619 1.74264 -3.10661 0
M  V30 9936 O 911.478 2.89 -4.63833 0
M  V30 9937 H 908.572 0.467102 -0.682455 0
M  V30 9938 H 911.118 0.247233 -1.67889 0
M  V30 9939 H 909.89 0.896681 -3.80888 0
M  V30 9940 H 909.513 2.46657 -3.11843 0
M  V30 9941 N 910.51 1.48831 0.518367 0
M  V30 9942 C 911.759 1.5669 1.27008 0
M  V30 9943 C 912.072 0.250934 1.93984 0
M  V30 9944 O 913.278 0.207884 2.70703 0
M  V30 9945 C 911.734 2.76387 2.30517 0
M  V30 9946 C 911.342 4.14673 1.69559 0
M  V30 9947 C 913.086 2.93566 3.06625 0
M  V30 9948 C 910.993 5.25616 2.71076 0
M  V30 9949 H 909.923 0.583362 0.477708 0
M  V30 9950 H 912.574 1.75187 0.546052 0
M  V30 9951 H 910.956 2.51348 3.06006 0
M  V30 9952 H 912.13 4.49779 1.00179 0
M  V30 9953 H 910.445 4.02708 1.05902 0
M  V30 9954 H 913.042 3.7362 3.82508 0
M  V30 9955 H 913.385 2.03462 3.63193 0
M  V30 9956 H 913.918 3.18562 2.38251 0
M  V30 9957 H 910.657 6.17723 2.19313 0
M  V30 9958 H 910.177 4.94985 3.38748 0
M  V30 9959 H 911.856 5.5422 3.3384 0
M  V30 9960 N 911.988 -0.768124 1.37614 0
M  V30 9961 C 913.213 -1.56239 1.36397 0
M  V30 9962 C 913.638 -1.8804 -0.0475839 0
M  V30 9963 O 912.996 -1.495 -1.02564 0
M  V30 9964 C 913.044 -2.84716 2.21289 0
M  V30 9965 O 912.148 -3.79249 1.62001 0
M  V30 9966 H 911.489 -0.473119 0.465891 0
M  V30 9967 H 914.019 -0.950415 1.81186 0
M  V30 9968 H 914.029 -3.33784 2.34632 0
M  V30 9969 H 912.704 -2.60899 3.2389 0
M  V30 9970 H 911.281 -3.37904 1.57719 0
M  V30 9971 N 913.466 -1.22244 -0.994698 0
M  V30 9972 C 914.396 -1.01513 -2.10279 0
M  V30 9973 C 915.377 0.0633365 -1.69982 0
M  V30 9974 O 916.562 -0.0985268 -1.9395 0
M  V30 9975 C 913.692 -0.59016 -3.42249 0
M  V30 9976 C 912.646 -1.61436 -3.96387 0
M  V30 9977 C 911.972 -1.04528 -5.24383 0
M  V30 9978 C 913.272 -3.00388 -4.27276 0
M  V30 9979 H 914.966 -1.94194 -2.2788 0
M  V30 9980 H 912.512 -0.935094 -1.09508 0
M  V30 9981 H 914.465 -0.432254 -4.19177 0
M  V30 9982 H 913.189 0.372308 -3.24471 0
M  V30 9983 H 911.848 -1.76001 -3.21589 0
M  V30 9984 H 911.496 -0.0742225 -5.02945 0
M  V30 9985 H 911.196 -1.72949 -5.61571 0
M  V30 9986 H 912.72 -0.898922 -6.03947 0
M  V30 9987 H 914.134 -2.89207 -4.95007 0
M  V30 9988 H 912.531 -3.65916 -4.75631 0
M  V30 9989 H 913.601 -3.50456 -3.35125 0
M  V30 9990 N 914.944 1.19125 -1.03184 0
M  V30 9991 C 916.193 1.8821 -0.725264 0
M  V30 9992 C 916.506 1.80674 0.749411 0
M  V30 9993 O 917.712 2.45037 1.16915 0
M  V30 9994 C 916.168 3.37607 -1.24697 0
M  V30 9995 C 915.776 3.53693 -2.74964 0
M  V30 9996 C 917.52 4.12149 -1.01652 0
M  V30 9997 C 915.427 4.97001 -3.20538 0
M  V30 9998 H 914.357 0.704916 -0.267599 0
M  V30 9999 H 917.008 1.34663 -1.24652 0
M  V30 10000 H 915.39 3.90569 -0.653614 0
M  V30 10001 H 916.564 3.11046 -3.39981 0
M  V30 10002 H 914.879 2.92544 -2.96322 0
M  V30 10003 H 917.476 5.17837 -1.33226 0
M  V30 10004 H 917.819 4.16274 0.0465712 0
M  V30 10005 H 918.352 3.65334 -1.57403 0
M  V30 10006 H 915.091 4.9804 -4.26189 0
M  V30 10007 H 914.611 5.40398 -2.60251 0
M  V30 10008 H 916.29 5.65669 -3.14049 0
M  V30 10009 N 916.422 0.810101 1.35185 0
M  V30 10010 C 917.668 0.392698 1.98962 0
M  V30 10011 C 918.001 -1.03835 1.64109 0
M  V30 10012 O 917.276 -1.721 0.9062 0
M  V30 10013 C 917.559 0.580349 3.55393 0
M  V30 10014 C 917.412 2.05658 4.00031 0
M  V30 10015 C 918.731 0.00822618 4.40099 0
M  V30 10016 H 915.85 0.144157 0.722764 0
M  V30 10017 H 918.492 1.02029 1.60281 0
M  V30 10018 H 916.642 0.0461106 3.88473 0
M  V30 10019 H 918.314 2.65348 3.77344 0
M  V30 10020 H 916.557 2.55174 3.50811 0
M  V30 10021 H 917.228 2.13875 5.08883 0
M  V30 10022 H 919.704 0.464517 4.13499 0
M  V30 10023 H 918.58 0.169414 5.48638 0
M  V30 10024 H 918.841 -1.08576 4.2856 0
M  V30 10025 N 917.9 -1.47166 0.563914 0
M  V30 10026 C 919.311 -1.86231 0.132307 0
M  V30 10027 C 919.662 -1.46976 -1.29971 0
M  V30 10028 O 918.787 -0.875911 -1.97881 0
M  V30 10029 C 919.382 -3.37996 0.233335 0
M  V30 10030 C 917.941 -3.76127 -0.143278 0
M  V30 10031 C 917.088 -2.71212 0.577857 0
M  V30 10032 H 920.039 -1.38588 0.773249 0
M  V30 10033 H 920.06 -3.76558 -0.546309 0
M  V30 10034 H 919.572 -3.66535 1.27568 0
M  V30 10035 H 917.673 -3.53205 -1.18648 0
M  V30 10036 H 917.786 -4.78595 0.219952 0
M  V30 10037 H 916.15 -2.54692 0.020186 0
M  V30 10038 H 916.933 -3.02593 1.62149 0
M  V30 10039 N 919.378 -0.300708 -1.54705 0
M  V30 10040 C 920.608 0.310819 -2.04249 0
M  V30 10041 C 921.016 1.4809 -1.17754 0
M  V30 10042 O 920.359 1.82654 -0.195779 0
M  V30 10043 C 920.421 0.83014 -3.49784 0
M  V30 10044 C 920.085 -0.214628 -4.56496 0
M  V30 10045 C 921.082 -1.04298 -5.09331 0
M  V30 10046 C 918.767 -0.356242 -5.01035 0
M  V30 10047 C 920.761 -1.99889 -6.05246 0
M  V30 10048 C 918.448 -1.3156 -5.96771 0
M  V30 10049 C 919.446 -2.1354 -6.4876 0
M  V30 10050 O 919.134 -3.07849 -7.4262 0
M  V30 10051 H 918.866 0.0715341 -0.672204 0
M  V30 10052 H 921.42 -0.438179 -2.00672 0
M  V30 10053 H 919.65 1.62966 -3.50684 0
M  V30 10054 H 921.339 1.35752 -3.82526 0
M  V30 10055 H 922.105 -0.944439 -4.75716 0
M  V30 10056 H 917.984 0.271916 -4.60197 0
M  V30 10057 H 921.528 -2.63917 -6.45751 0
M  V30 10058 H 917.425 -1.41486 -6.29803 0
M  V30 10059 H 918.193 -3.02824 -7.60421 0
M  V30 10060 N 920.856 1.57574 -0.0284266 0
M  V30 10061 C 922.105 1.9095 0.649704 0
M  V30 10062 C 922.418 0.906421 1.7333 0
M  V30 10063 O 923.624 1.1314 2.46803 0
M  V30 10064 C 922.08 3.39061 1.20687 0
M  V30 10065 C 921.688 4.47726 0.156597 0
M  V30 10066 C 923.432 3.81505 1.86156 0
M  V30 10067 C 921.339 5.86935 0.725365 0
M  V30 10068 H 920.269 0.712589 0.24644 0
M  V30 10069 H 922.92 1.83261 -0.0936143 0
M  V30 10070 H 921.302 3.41679 2.00178 0
M  V30 10071 H 922.476 4.56667 -0.6158 0
M  V30 10072 H 920.791 4.14481 -0.399288 0
M  V30 10073 H 923.388 4.82865 2.29665 0
M  V30 10074 H 923.731 3.16529 2.70398 0
M  V30 10075 H 924.264 3.81307 1.13356 0
M  V30 10076 H 921.003 6.55453 -0.0789081 0
M  V30 10077 H 920.523 5.81602 1.46627 0
M  V30 10078 H 922.202 6.35483 1.21532 0
M  V30 10079 N 922.334 -0.244713 1.55689 0
M  V30 10080 C 923.582 -0.970525 1.77272 0
M  V30 10081 C 923.903 -1.85771 0.592804 0
M  V30 10082 O 923.173 -1.91952 -0.391323 0
M  V30 10083 H 921.753 -0.361342 0.653789 0
M  V30 10084 H 924.415 -0.262134 1.93129 0
M  V30 10085 H 923.511 -1.59096 2.68505 0
M  V30 10086 N 923.813 -1.49104 -0.510467 0
M  V30 10087 C 924.743 -1.67981 -1.62187 0
M  V30 10088 C 925.724 -0.528529 -1.6168 0
M  V30 10089 O 926.909 -0.763305 -1.7857 0
M  V30 10090 C 924.039 -1.73755 -3.0071 0
M  V30 10091 C 922.993 -2.88579 -3.1608 0
M  V30 10092 C 922.319 -2.79457 -4.5586 0
M  V30 10093 C 923.619 -4.29638 -2.97 0
M  V30 10094 H 925.313 -2.61029 -1.46643 0
M  V30 10095 H 922.859 -1.25615 -0.704042 0
M  V30 10096 H 924.812 -1.85548 -3.78352 0
M  V30 10097 H 923.536 -0.772996 -3.17321 0
M  V30 10098 H 922.195 -2.76372 -2.40861 0
M  V30 10099 H 921.843 -1.80929 -4.69333 0
M  V30 10100 H 921.543 -3.56518 -4.67086 0
M  V30 10101 H 923.067 -2.93245 -5.35574 0
M  V30 10102 H 924.481 -4.42575 -3.64418 0
M  V30 10103 H 922.878 -5.07847 -3.19704 0
M  V30 10104 H 923.948 -4.44741 -1.93219 0
M  V30 10105 N 925.291 0.760815 -1.38019 0
M  V30 10106 C 926.254 1.85604 -1.34476 0
M  V30 10107 C 927.254 1.58897 -0.24666 0
M  V30 10108 O 928.444 1.66776 -0.50314 0
M  V30 10109 C 925.576 3.22945 -1.09176 0
M  V30 10110 H 926.769 1.90155 -2.31908 0
M  V30 10111 H 924.322 0.961746 -1.23208 0
M  V30 10112 H 925.057 3.24066 -0.123216 0
M  V30 10113 H 924.842 3.43723 -1.88672 0
M  V30 10114 H 926.332 4.03022 -1.09375 0
M  V30 10115 N 926.769 1.22769 0.988202 0
M  V30 10116 C 927.699 1.02627 2.09738 0
M  V30 10117 C 928.68 -0.0543211 1.70013 0
M  V30 10118 O 929.865 0.108811 1.93895 0
M  V30 10119 C 926.995 0.608302 3.41931 0
M  V30 10120 C 925.949 1.63536 3.95525 0
M  V30 10121 C 925.275 1.07308 5.23822 0
M  V30 10122 C 926.575 3.02649 4.25677 0
M  V30 10123 H 928.269 1.954 2.26847 0
M  V30 10124 H 925.815 0.940888 1.09011 0
M  V30 10125 H 927.768 0.454478 4.18942 0
M  V30 10126 H 926.492 -0.355095 3.24664 0
M  V30 10127 H 925.151 1.77704 3.20651 0
M  V30 10128 H 924.799 0.100894 5.02899 0
M  V30 10129 H 924.499 1.75925 5.60646 0
M  V30 10130 H 926.023 0.930938 6.03462 0
M  V30 10131 H 927.437 2.91828 4.93467 0
M  V30 10132 H 925.834 3.68434 4.73684 0
M  V30 10133 H 926.904 3.52228 3.33262 0
M  V30 10134 N 928.247 -1.18576 1.03814 0
M  V30 10135 C 929.195 -2.24166 0.620678 0
M  V30 10136 C 930.189 -1.65718 -0.351282 0
M  V30 10137 O 931.395 -1.78665 -0.218848 0
M  V30 10138 H 927.77 -0.729522 0.182487 0
M  V30 10139 H 929.741 -2.56686 1.52166 0
M  V30 10140 C 928.49 -3.477 -0.00307331 0
M  V30 10141 H 927.813 -3.92969 0.735874 0
M  V30 10142 H 929.253 -4.23214 -0.257988 0
M  V30 10143 C 927.712 -3.12757 -1.2524 0
M  V30 10144 O 928.242 -3.26261 -2.34344 0
M  V30 10145 N 926.448 -2.67104 -1.14471 0
M  V30 10146 H 925.995 -2.56316 -0.256873 0
M  V30 10147 H 925.953 -2.44096 -1.98153 0
M  V30 10148 N 929.725 -0.817259 -1.34754 0
M  V30 10149 C 930.971 -0.403244 -1.98751 0
M  V30 10150 C 931.304 1.02963 -1.64658 0
M  V30 10151 O 930.579 1.71617 -0.915314 0
M  V30 10152 C 930.862 -0.599188 -3.5508 0
M  V30 10153 C 930.715 -2.07777 -3.98934 0
M  V30 10154 C 932.034 -0.0315656 -4.40089 0
M  V30 10155 H 929.153 -0.147988 -0.721989 0
M  V30 10156 H 931.795 -1.02877 -1.59738 0
M  V30 10157 H 929.945 -0.0667116 -3.88443 0
M  V30 10158 H 931.617 -2.67345 -3.75931 0
M  V30 10159 H 929.86 -2.57031 -3.49453 0
M  V30 10160 H 930.531 -2.16571 -5.07741 0
M  V30 10161 H 933.007 -0.48644 -4.13247 0
M  V30 10162 H 931.883 -0.198507 -5.48541 0
M  V30 10163 H 932.144 1.06302 -4.2913 0
M  V30 10164 N 931.203 1.46865 -0.571711 0
M  V30 10165 C 932.451 2.0203 -0.0530022 0
M  V30 10166 C 932.772 1.44687 1.30731 0
M  V30 10167 O 932.042 0.627429 1.85581 0
M  V30 10168 H 930.622 0.746815 -0.0166035 0
M  V30 10169 H 933.284 1.80099 -0.745003 0
M  V30 10170 H 932.38 3.12091 0.0242538 0
M  V30 10171 N 932.681 0.308908 1.54543 0
M  V30 10172 C 933.629 -0.579326 2.2527 0
M  V30 10173 C 934.623 -1.13058 1.26152 0
M  V30 10174 O 935.829 -1.08031 1.43977 0
M  V30 10175 H 932.204 -0.205444 0.723392 0
M  V30 10176 H 934.175 0.0396415 2.98374 0
M  V30 10177 C 932.924 -1.73584 3.01271 0
M  V30 10178 H 932.247 -1.32089 3.77349 0
M  V30 10179 H 933.687 -2.33324 3.54028 0
M  V30 10180 C 932.146 -2.6447 2.08703 0
M  V30 10181 O 932.676 -3.65785 1.66025 0
M  V30 10182 N 930.882 -2.32379 1.74495 0
M  V30 10183 H 930.429 -1.50034 2.09398 0
M  V30 10184 H 930.387 -2.93454 1.12836 0
M  V30 10185 N 934.159 -1.57557 0.0367827 0
M  V30 10186 C 935.069 -2.14148 -0.958017 0
M  V30 10187 C 936.085 -1.09564 -1.35173 0
M  V30 10188 O 937.261 -1.4166 -1.43158 0
M  V30 10189 C 934.326 -2.6636 -2.21931 0
M  V30 10190 C 933.387 -3.85688 -1.8853 0
M  V30 10191 C 932.62 -4.35401 -3.08645 0
M  V30 10192 O 932.843 -3.8425 -4.21554 0
M  V30 10193 O 931.777 -5.27158 -2.90497 0
M  V30 10194 H 935.603 -2.99442 -0.506797 0
M  V30 10195 H 933.188 -1.48259 -0.184275 0
M  V30 10196 H 935.07 -2.99976 -2.9596 0
M  V30 10197 H 933.745 -1.84145 -2.66219 0
M  V30 10198 H 932.652 -3.56985 -1.11861 0
M  V30 10199 H 933.985 -4.69089 -1.49052 0
M  V30 10200 N 935.637 0.236453 -1.55816 0
M  V30 10201 C 936.865 0.980295 -1.82203 0
M  V30 10202 C 937.28 1.7854 -0.613926 0
M  V30 10203 O 936.637 1.77661 0.417491 0
M  V30 10204 C 936.688 1.90982 -3.06933 0
M  V30 10205 O 936.409 1.13728 -4.23081 0
M  V30 10206 C 937.91 2.76879 -3.46198 0
M  V30 10207 H 935.13 0.28799 -0.606055 0
M  V30 10208 H 937.674 0.256182 -2.02889 0
M  V30 10209 H 935.829 2.58808 -2.88266 0
M  V30 10210 H 936.243 1.76694 -4.93842 0
M  V30 10211 H 937.717 3.37831 -4.36548 0
M  V30 10212 H 938.194 3.48522 -2.67262 0
M  V30 10213 H 938.8 2.1449 -3.67252 0
M  V30 10214 N 937.115 1.49373 0.502552 0
M  V30 10215 C 938.078 1.65413 1.58654 0
M  V30 10216 C 939.078 0.526003 1.51953 0
M  V30 10217 O 940.268 0.792421 1.55133 0
M  V30 10218 C 937.4 1.65005 2.98306 0
M  V30 10219 H 938.593 2.62095 1.45762 0
M  V30 10220 H 936.146 1.38381 0.726672 0
M  V30 10221 H 936.881 0.699014 3.16677 0
M  V30 10222 H 936.666 2.46931 3.04578 0
M  V30 10223 H 938.156 1.79477 3.77065 0
M  V30 10224 N 938.594 -0.753485 1.38421 0
M  V30 10225 C 939.541 -1.86723 1.35659 0
M  V30 10226 C 940.511 -1.64648 0.219121 0
M  V30 10227 O 941.696 -1.86313 0.411366 0
M  V30 10228 C 938.836 -3.24023 1.18758 0
M  V30 10229 C 937.949 -3.57928 2.41892 0
M  V30 10230 C 937.084 -4.84532 2.17721 0
M  V30 10231 C 936.123 -5.11224 3.36626 0
M  V30 10232 N 935.26 -6.29023 3.11889 0
M  V30 10233 H 940.1 -1.88419 2.30873 0
M  V30 10234 H 937.637 -0.920934 1.14705 0
M  V30 10235 H 939.595 -4.03252 1.06974 0
M  V30 10236 H 938.225 -3.21654 0.27182 0
M  V30 10237 H 937.277 -2.73541 2.64347 0
M  V30 10238 H 938.589 -3.73581 3.30513 0
M  V30 10239 H 937.743 -5.71704 2.03074 0
M  V30 10240 H 936.482 -4.71018 1.26465 0
M  V30 10241 H 935.487 -4.2252 3.51791 0
M  V30 10242 H 936.712 -5.26635 4.28757 0
M  V30 10243 H 934.658 -6.16832 2.2328 0
M  V30 10244 H 934.575 -6.45177 3.9406 0
M  V30 10245 H 935.843 -7.19083 3.00898 0
M  V30 10246 N 940.072 -1.23292 -0.981677 0
M  V30 10247 C 941.32 -1.06214 -1.71939 0
M  V30 10248 C 941.641 0.401989 -1.90812 0
M  V30 10249 O 940.911 1.28825 -1.47584 0
M  V30 10250 H 939.491 -0.390042 -0.637084 0
M  V30 10251 H 942.153 -1.54988 -1.18173 0
M  V30 10252 H 941.249 -1.54904 -2.70945 0
M  V30 10253 N 941.55 1.18024 -1.04442 0
M  V30 10254 C 942.498 2.23834 -0.632557 0
M  V30 10255 C 943.492 1.65902 0.342488 0
M  V30 10256 O 944.698 1.78778 0.20937 0
M  V30 10257 H 941.073 0.728544 -0.186353 0
M  V30 10258 H 943.044 2.55876 -1.53526 0
M  V30 10259 C 941.793 3.47697 -0.0153661 0
M  V30 10260 H 941.116 3.92574 -0.756704 0
M  V30 10261 H 942.556 4.23345 0.235541 0
M  V30 10262 C 941.015 3.13416 1.23579 0
M  V30 10263 O 941.545 3.27499 2.3261 0
M  V30 10264 N 939.751 2.67708 1.13053 0
M  V30 10265 H 939.298 2.56449 0.243277 0
M  V30 10266 H 939.256 2.45143 1.96855 0
M  V30 10267 N 943.028 0.824394 1.34319 0
M  V30 10268 C 944.275 0.413167 1.9824 0
M  V30 10269 C 944.603 -1.02412 1.65354 0
M  V30 10270 O 943.858 -1.72831 0.91803 0
M  V30 10271 C 944.157 0.564024 3.52921 0
M  V30 10272 C 943.823 1.96725 4.05722 0
M  V30 10273 C 942.485 2.35111 4.19853 0
M  V30 10274 C 944.837 2.88447 4.34106 0
M  V30 10275 C 942.165 3.64551 4.59695 0
M  V30 10276 C 944.517 4.17353 4.75394 0
M  V30 10277 C 943.181 4.55714 4.8773 0
M  V30 10278 H 942.451 0.151188 0.725412 0
M  V30 10279 H 945.098 1.04863 1.60238 0
M  V30 10280 H 943.403 -0.154816 3.91494 0
M  V30 10281 H 945.1 0.226347 4.00361 0
M  V30 10282 H 941.69 1.65908 3.95187 0
M  V30 10283 H 945.874 2.60034 4.22725 0
M  V30 10284 H 941.13 3.94097 4.67437 0
M  V30 10285 H 945.304 4.88512 4.96315 0
M  V30 10286 H 942.931 5.56064 5.1836 0
M  V30 10287 N 944.506 -1.46559 0.579492 0
M  V30 10288 C 945.416 -2.34066 -0.15816 0
M  V30 10289 C 946.432 -1.49556 -0.88932 0
M  V30 10290 O 947.608 -1.82434 -0.853226 0
M  V30 10291 C 944.673 -3.26683 -1.161 0
M  V30 10292 C 943.734 -4.27092 -0.434855 0
M  V30 10293 C 942.967 -5.15283 -1.38992 0
M  V30 10294 O 943.19 -5.06345 -2.62623 0
M  V30 10295 O 942.124 -5.95099 -0.902253 0
M  V30 10296 H 945.95 -2.98488 0.560234 0
M  V30 10297 H 943.535 -1.45482 0.339918 0
M  V30 10298 H 945.417 -3.8383 -1.73932 0
M  V30 10299 H 944.092 -2.64862 -1.86091 0
M  V30 10300 H 942.999 -3.73641 0.185224 0
M  V30 10301 H 944.332 -4.9169 0.224031 0
M  V30 10302 N 945.984 -0.3171 -1.54377 0
M  V30 10303 C 946.932 0.567371 -2.25574 0
M  V30 10304 C 947.926 1.12387 -1.2675 0
M  V30 10305 O 949.132 1.07266 -1.44548 0
M  V30 10306 H 945.507 0.201605 -0.724472 0
M  V30 10307 H 947.478 -0.0554644 -2.98348 0
M  V30 10308 C 946.227 1.71984 -3.02187 0
M  V30 10309 H 945.55 1.30086 -3.78044 0
M  V30 10310 H 946.99 2.31443 -3.5526 0
M  V30 10311 C 945.449 2.6336 -2.10103 0
M  V30 10312 O 945.979 3.64899 -1.67962 0
M  V30 10313 N 944.185 2.3145 -1.75725 0
M  V30 10314 H 943.732 1.48921 -2.10191 0
M  V30 10315 H 943.69 2.92852 -1.14391 0
M  V30 10316 N 947.462 1.57535 -0.0451378 0
M  V30 10317 C 948.425 2.1008 0.916461 0
M  V30 10318 C 949.425 1.01913 1.2438 0
M  V30 10319 O 950.615 1.2801 1.18148 0
M  V30 10320 C 947.747 2.58001 2.22818 0
M  V30 10321 H 948.94 2.96334 0.461076 0
M  V30 10322 H 946.493 1.54974 0.203169 0
M  V30 10323 H 947.228 1.75123 2.72951 0
M  V30 10324 H 947.013 3.3704 2.00366 0
M  V30 10325 H 948.503 2.98822 2.9171 0
M  V30 10326 N 948.94 -0.228186 1.55939 0
M  V30 10327 C 950.187 -0.953552 1.78644 0
M  V30 10328 C 950.515 -1.84596 0.61275 0
M  V30 10329 O 949.77 -1.91502 -0.403175 0
M  V30 10330 C 950.069 -1.82924 3.0704 0
M  V30 10331 C 949.735 -1.09062 4.37511 0
M  V30 10332 C 948.397 -0.886565 4.72962 0
M  V30 10333 C 950.749 -0.568533 5.1809 0
M  V30 10334 C 948.077 -0.148413 5.86512 0
M  V30 10335 C 950.429 0.156243 6.32407 0
M  V30 10336 C 949.093 0.371612 6.66465 0
M  V30 10337 H 948.363 -0.348929 0.653704 0
M  V30 10338 H 951.01 -0.222211 1.90206 0
M  V30 10339 H 949.315 -2.62823 2.90571 0
M  V30 10340 H 951.012 -2.3925 3.21808 0
M  V30 10341 H 947.602 -1.25963 4.09672 0
M  V30 10342 H 951.786 -0.713673 4.91142 0
M  V30 10343 H 947.042 0.0287418 6.11393 0
M  V30 10344 H 951.216 0.568333 6.94077 0
M  V30 10345 H 948.843 0.945522 7.54297 0
M  V30 10346 N 950.418 -1.49637 -0.494624 0
M  V30 10347 C 951.328 -1.69522 -1.62172 0
M  V30 10348 C 952.344 -0.577894 -1.64123 0
M  V30 10349 O 953.52 -0.853382 -1.82426 0
M  V30 10350 C 950.585 -1.7633 -2.9851 0
M  V30 10351 C 949.646 -2.99944 -3.07135 0
M  V30 10352 C 948.879 -3.06419 -4.36971 0
M  V30 10353 O 949.102 -2.20312 -5.26136 0
M  V30 10354 O 948.036 -3.9894 -4.507 0
M  V30 10355 H 951.862 -2.65017 -1.48324 0
M  V30 10356 H 949.447 -1.33454 -0.671603 0
M  V30 10357 H 951.329 -1.83125 -3.7953 0
M  V30 10358 H 950.004 -0.840155 -3.12607 0
M  V30 10359 H 948.911 -2.98664 -2.2528 0
M  V30 10360 H 950.244 -3.9176 -2.97968 0
M  V30 10361 N 951.896 0.746133 -1.38819 0
M  V30 10362 C 953.145 1.50085 -1.34749 0
M  V30 10363 C 953.458 1.95516 0.0574786 0
M  V30 10364 O 954.664 2.70601 0.22073 0
M  V30 10365 C 953.12 2.71141 -2.36665 0
M  V30 10366 C 952.728 2.32706 -3.82821 0
M  V30 10367 C 954.472 3.49005 -2.41652 0
M  V30 10368 C 952.379 3.50418 -4.76405 0
M  V30 10369 H 951.309 0.563563 -0.500912 0
M  V30 10370 H 953.96 0.814951 -1.6441 0
M  V30 10371 H 952.342 3.4175 -2.00058 0
M  V30 10372 H 953.516 1.69715 -4.28408 0
M  V30 10373 H 951.831 1.67959 -3.81023 0
M  V30 10374 H 954.428 4.36541 -3.08766 0
M  V30 10375 H 954.771 3.90687 -1.43769 0
M  V30 10376 H 955.304 2.85416 -2.77097 0
M  V30 10377 H 952.043 3.13795 -5.75511 0
M  V30 10378 H 951.563 4.12426 -4.35505 0
M  V30 10379 H 953.242 4.16901 -4.94775 0
M  V30 10380 N 953.375 1.23811 0.975125 0
M  V30 10381 C 954.338 1.02505 2.05001 0
M  V30 10382 C 955.338 -0.0150084 1.60793 0
M  V30 10383 O 956.528 0.225246 1.72738 0
M  V30 10384 C 953.66 0.552087 3.364 0
M  V30 10385 H 954.853 1.979 2.25335 0
M  V30 10386 H 952.406 1.05929 1.1493 0
M  V30 10387 H 953.141 -0.405394 3.21756 0
M  V30 10388 H 952.926 1.30267 3.69828 0
M  V30 10389 H 954.416 0.423828 4.15444 0
M  V30 10390 N 954.853 -1.17469 1.05066 0
M  V30 10391 C 956.101 -1.87327 0.758485 0
M  V30 10392 C 956.422 -1.81358 -0.716549 0
M  V30 10393 O 955.692 -1.23868 -1.51768 0
M  V30 10394 H 954.272 -0.693512 0.277579 0
M  V30 10395 H 956.934 -1.4251 1.32954 0
M  V30 10396 H 956.03 -2.93101 1.0723 0
M  V30 10397 N 956.331 -0.831506 -1.3388 0
M  V30 10398 C 957.294 -0.264773 -2.27666 0
M  V30 10399 C 958.294 0.562273 -1.50649 0
M  V30 10400 O 959.484 0.377131 -1.70069 0
M  V30 10401 C 956.616 0.627814 -3.35069 0
M  V30 10402 H 957.809 -1.09225 -2.79303 0
M  V30 10403 H 955.362 -0.604021 -1.44157 0
M  V30 10404 H 956.097 1.47802 -2.88661 0
M  V30 10405 H 955.882 0.0361552 -3.92083 0
M  V30 10406 H 957.372 1.01786 -4.05005 0
M  V30 10407 N 957.809 1.4625 -0.587256 0
M  V30 10408 C 959.034 2.07252 -0.0784517 0
M  V30 10409 C 959.459 1.43239 1.21919 0
M  V30 10410 O 958.817 0.517791 1.73749 0
M  V30 10411 C 958.865 3.60534 0.0691037 0
M  V30 10412 O 957.969 3.96773 1.12448 0
M  V30 10413 H 957.31 0.660825 -0.064859 0
M  V30 10414 H 959.84 1.87819 -0.811491 0
M  V30 10415 H 959.85 4.0708 0.273826 0
M  V30 10416 H 958.525 4.06516 -0.878514 0
M  V30 10417 H 957.102 3.6193 0.897852 0
M  V30 10418 N 959.287 0.325282 1.54207 0
M  V30 10419 C 960.536 -0.27768 1.99779 0
M  V30 10420 C 960.849 -1.5311 1.21723 0
M  V30 10421 O 962.055 -2.21017 1.57682 0
M  V30 10422 C 960.511 -0.545329 3.55745 0
M  V30 10423 C 960.119 0.691143 4.42637 0
M  V30 10424 C 961.863 -1.10815 4.09781 0
M  V30 10425 C 959.77 0.395302 5.90077 0
M  V30 10426 H 958.7 -0.107536 0.746292 0
M  V30 10427 H 961.351 0.437773 1.78202 0
M  V30 10428 H 959.733 -1.32101 3.73317 0
M  V30 10429 H 960.907 1.46653 4.3684 0
M  V30 10430 H 959.222 1.1743 3.99499 0
M  V30 10431 H 961.819 -1.34414 5.1753 0
M  V30 10432 H 962.162 -2.05806 3.6187 0
M  V30 10433 H 962.695 -0.393608 3.95848 0
M  V30 10434 H 959.434 1.31443 6.42186 0
M  V30 10435 H 958.954 -0.34235 5.98822 0
M  V30 10436 H 960.633 0.00576877 6.47 0
M  V30 10437 N 960.765 -1.57509 0.0534917 0
M  V30 10438 C 961.695 -2.14698 -0.917999 0
M  V30 10439 C 962.676 -1.06924 -1.32292 0
M  V30 10440 O 963.861 -1.34875 -1.39723 0
M  V30 10441 C 960.991 -2.69383 -2.19203 0
M  V30 10442 C 959.945 -3.82161 -1.9271 0
M  V30 10443 C 959.271 -4.23373 -3.26587 0
M  V30 10444 C 960.571 -5.07199 -1.24686 0
M  V30 10445 H 962.265 -2.96125 -0.44165 0
M  V30 10446 H 959.811 -1.42446 -0.210993 0
M  V30 10447 H 961.764 -3.08031 -2.87567 0
M  V30 10448 H 960.488 -1.85151 -2.69048 0
M  V30 10449 H 959.147 -3.43989 -1.26757 0
M  V30 10450 H 958.795 -3.36089 -3.74237 0
M  V30 10451 H 958.495 -4.99385 -3.09658 0
M  V30 10452 H 960.019 -4.64623 -3.96178 0
M  V30 10453 H 961.433 -5.43279 -1.83088 0
M  V30 10454 H 959.83 -5.88369 -1.18076 0
M  V30 10455 H 960.9 -4.84386 -0.223227 0
M  V30 10456 N 962.243 0.219913 -1.56058 0
M  V30 10457 C 963.173 1.27572 -1.9557 0
M  V30 10458 C 964.154 1.48801 -0.824148 0
M  V30 10459 O 965.339 1.60957 -1.08658 0
M  V30 10460 C 962.469 2.62517 -2.27381 0
M  V30 10461 C 961.423 2.55941 -3.43042 0
M  V30 10462 C 960.749 3.94931 -3.60463 0
M  V30 10463 C 962.049 2.10584 -4.77966 0
M  V30 10464 H 963.743 0.947482 -2.84013 0
M  V30 10465 H 961.289 0.454337 -1.36645 0
M  V30 10466 H 963.242 3.36538 -2.53615 0
M  V30 10467 H 961.966 2.97031 -1.35794 0
M  V30 10468 H 960.625 1.84377 -3.1686 0
M  V30 10469 H 960.273 4.26756 -2.66249 0
M  V30 10470 H 959.973 3.91413 -4.38258 0
M  V30 10471 H 961.497 4.70611 -3.89046 0
M  V30 10472 H 962.911 2.74349 -5.03394 0
M  V30 10473 H 961.308 2.18122 -5.59055 0
M  V30 10474 H 962.378 1.05818 -4.73213 0
M  V30 10475 N 963.721 1.49897 0.486681 0
M  V30 10476 C 964.631 1.70379 1.6127 0
M  V30 10477 C 965.647 0.58659 1.63814 0
M  V30 10478 O 966.823 0.863044 1.81971 0
M  V30 10479 C 963.888 1.77911 2.97571 0
M  V30 10480 C 962.949 3.01569 3.0554 0
M  V30 10481 C 962.182 3.08732 4.35339 0
M  V30 10482 O 962.405 2.23099 5.2496 0
M  V30 10483 O 961.339 4.01325 4.48578 0
M  V30 10484 H 965.165 2.65799 1.46916 0
M  V30 10485 H 962.75 1.33808 0.664516 0
M  V30 10486 H 964.632 1.85135 3.78554 0
M  V30 10487 H 963.307 0.856722 3.12157 0
M  V30 10488 H 962.214 2.99854 2.23693 0
M  V30 10489 H 963.547 3.93335 2.95886 0
M  V30 10490 N 965.199 -0.738761 1.39212 0
M  V30 10491 C 966.446 -1.49824 1.36231 0
M  V30 10492 C 966.774 -1.94453 -0.0429552 0
M  V30 10493 O 966.029 -1.6683 -1.02304 0
M  V30 10494 C 966.328 -2.75435 2.2775 0
M  V30 10495 C 965.994 -2.49694 3.75451 0
M  V30 10496 C 964.656 -2.42383 4.15697 0
M  V30 10497 C 967.008 -2.27587 4.68885 0
M  V30 10498 C 964.336 -2.11001 5.47444 0
M  V30 10499 C 966.688 -1.97723 6.00906 0
M  V30 10500 C 965.352 -1.88879 6.4022 0
M  V30 10501 H 964.622 -0.548247 0.498504 0
M  V30 10502 H 967.269 -0.848244 1.71689 0
M  V30 10503 H 965.574 -3.45159 1.85398 0
M  V30 10504 H 967.271 -3.33449 2.22739 0
M  V30 10505 H 963.861 -2.56261 3.43552 0
M  V30 10506 H 968.045 -2.32206 4.38628 0
M  V30 10507 H 963.301 -2.02673 5.76831 0
M  V30 10508 H 967.475 -1.79625 6.72836 0
M  V30 10509 H 965.102 -1.64327 7.42227 0
M  V30 10510 N 966.677 -1.24326 -0.968545 0
M  V30 10511 C 967.926 -1.07647 -1.70572 0
M  V30 10512 C 968.239 0.384821 -1.91777 0
M  V30 10513 O 969.445 0.671782 -2.63058 0
M  V30 10514 C 967.901 -1.87799 -3.07017 0
M  V30 10515 C 967.509 -3.38333 -2.93658 0
M  V30 10516 C 969.253 -1.79647 -3.84613 0
M  V30 10517 C 967.16 -4.10831 -4.25407 0
M  V30 10518 H 966.09 -0.399216 -0.639642 0
M  V30 10519 H 968.741 -1.484 -1.07934 0
M  V30 10520 H 967.123 -1.3986 -3.7048 0
M  V30 10521 H 968.297 -3.93845 -2.39213 0
M  V30 10522 H 966.612 -3.47427 -2.29528 0
M  V30 10523 H 969.209 -2.31116 -4.82172 0
M  V30 10524 H 969.552 -0.761553 -4.09275 0
M  V30 10525 H 970.085 -2.25261 -3.27875 0
M  V30 10526 H 966.824 -5.14679 -4.05939 0
M  V30 10527 H 966.344 -3.60105 -4.79671 0
M  V30 10528 H 968.023 -4.17783 -4.94031 0
M  V30 10529 N 968.156 1.1691 -1.05688 0
M  V30 10530 C 969.567 1.68915 -0.795273 0
M  V30 10531 C 969.918 1.83968 0.681925 0
M  V30 10532 O 969.043 1.53083 1.52953 0
M  V30 10533 C 969.638 3.06814 -1.43703 0
M  V30 10534 C 968.197 3.55965 -1.22335 0
M  V30 10535 C 967.344 2.32099 -1.51741 0
M  V30 10536 H 970.295 1.01357 -1.22116 0
M  V30 10537 H 970.316 3.70907 -0.849016 0
M  V30 10538 H 969.828 2.95826 -2.51214 0
M  V30 10539 H 967.929 3.72222 -0.16771 0
M  V30 10540 H 968.042 4.38427 -1.9318 0
M  V30 10541 H 966.406 2.36811 -0.937696 0
M  V30 10542 H 967.189 2.23715 -2.60397 0
M  V30 10543 N 969.634 0.838594 1.33437 0
M  V30 10544 C 970.544 0.274048 2.32994 0
M  V30 10545 C 971.56 -0.599776 1.63336 0
M  V30 10546 O 972.736 -0.503963 1.94993 0
M  V30 10547 C 969.801 -0.541804 3.4244 0
M  V30 10548 C 968.862 0.356262 4.27819 0
M  V30 10549 C 968.095 -0.420747 5.32039 0
M  V30 10550 O 968.318 -1.65247 5.45939 0
M  V30 10551 O 967.252 0.205101 6.0155 0
M  V30 10552 H 971.078 1.09846 2.83139 0
M  V30 10553 H 968.663 0.601111 1.36774 0
M  V30 10554 H 970.545 -1.00544 4.0923 0
M  V30 10555 H 969.22 -1.34328 2.94513 0
M  V30 10556 H 968.127 0.867726 3.63897 0
M  V30 10557 H 969.46 1.1225 4.79229 0
M  V30 10558 N 971.112 -1.45937 0.595003 0
M  V30 10559 C 972.042 -2.33198 -0.11871 0
M  V30 10560 C 973.023 -1.46083 -0.871423 0
M  V30 10561 O 974.208 -1.74879 -0.844461 0
M  V30 10562 C 971.338 -3.28576 -1.12495 0
M  V30 10563 C 970.292 -4.25229 -0.486275 0
M  V30 10564 C 969.618 -5.10204 -1.59986 0
M  V30 10565 C 970.918 -5.19019 0.584473 0
M  V30 10566 H 972.612 -2.93122 0.609886 0
M  V30 10567 H 970.158 -1.40951 0.294742 0
M  V30 10568 H 972.111 -3.88485 -1.6327 0
M  V30 10569 H 970.835 -2.66784 -1.88398 0
M  V30 10570 H 969.494 -3.666 0.000507962 0
M  V30 10571 H 969.142 -4.44789 -2.34886 0
M  V30 10572 H 968.842 -5.75669 -1.1781 0
M  V30 10573 H 970.366 -5.7298 -2.11014 0
M  V30 10574 H 971.78 -5.73073 0.161297 0
M  V30 10575 H 970.177 -5.92893 0.927256 0
M  V30 10576 H 971.247 -4.62208 1.46601 0
M  V30 10577 N 972.59 -0.333456 -1.54032 0
M  V30 10578 C 973.52 0.52051 -2.27625 0
M  V30 10579 C 974.501 1.1111 -1.28797 0
M  V30 10580 O 975.686 1.13438 -1.57625 0
M  V30 10581 C 972.816 1.67663 -3.04149 0
M  V30 10582 C 971.77 1.21487 -4.10396 0
M  V30 10583 C 971.096 2.45872 -4.74817 0
M  V30 10584 C 972.396 0.322603 -5.21303 0
M  V30 10585 H 974.09 -0.0933823 -2.99254 0
M  V30 10586 H 971.636 -0.0463526 -1.43925 0
M  V30 10587 H 973.589 2.28041 -3.54366 0
M  V30 10588 H 972.313 2.31727 -2.30153 0
M  V30 10589 H 970.972 0.633966 -3.61077 0
M  V30 10590 H 970.62 3.0832 -3.97426 0
M  V30 10591 H 970.32 2.15662 -5.46593 0
M  V30 10592 H 971.844 3.06994 -5.27814 0
M  V30 10593 H 973.258 0.832942 -5.67217 0
M  V30 10594 H 971.655 0.112843 -5.99994 0
M  V30 10595 H 972.725 -0.643954 -4.80605 0
M  V30 10596 N 974.068 1.57479 -0.061844 0
M  V30 10597 C 975.317 1.92285 0.609055 0
M  V30 10598 C 975.63 0.942983 1.71369 0
M  V30 10599 O 976.836 1.18349 2.44348 0
M  V30 10600 C 975.292 3.41545 1.13468 0
M  V30 10601 C 974.9 4.47958 0.0615926 0
M  V30 10602 C 976.644 3.85368 1.78022 0
M  V30 10603 C 974.551 5.88341 0.600705 0
M  V30 10604 H 973.481 0.717656 0.23127 0
M  V30 10605 H 976.132 1.83021 -0.132466 0
M  V30 10606 H 974.514 3.45848 1.92886 0
M  V30 10607 H 975.688 4.55258 -0.712527 0
M  V30 10608 H 974.003 4.13541 -0.487116 0
M  V30 10609 H 976.6 4.87627 2.19371 0
M  V30 10610 H 976.943 3.22193 2.63623 0
M  V30 10611 H 977.476 3.83626 1.05242 0
M  V30 10612 H 974.215 6.55138 -0.217922 0
M  V30 10613 H 973.735 5.84581 1.34257 0
M  V30 10614 H 975.414 6.37918 1.08025 0
M  V30 10615 N 975.546 -0.211634 1.56173 0
M  V30 10616 C 976.957 -0.777776 1.69728 0
M  V30 10617 C 977.308 -1.84566 0.66558 0
M  V30 10618 O 976.433 -2.15639 -0.181338 0
M  V30 10619 C 977.028 -1.41757 3.07718 0
M  V30 10620 C 975.587 -1.93098 3.23094 0
M  V30 10621 C 974.734 -0.794785 2.65666 0
M  V30 10622 H 977.685 0.0131839 1.58695 0
M  V30 10623 H 977.706 -2.28662 3.04128 0
M  V30 10624 H 977.218 -0.640114 3.82785 0
M  V30 10625 H 975.319 -2.73615 2.52914 0
M  V30 10626 H 975.432 -2.10414 4.30422 0
M  V30 10627 H 973.796 -1.20473 2.24407 0
M  V30 10628 H 974.579 -0.0298408 3.43287 0
M  V30 10629 N 977.024 -1.50153 -0.478725 0
M  V30 10630 C 978.27 -1.60998 -1.23318 0
M  V30 10631 C 978.603 -0.305868 -1.91776 0
M  V30 10632 O 977.878 0.692158 -1.81767 0
M  V30 10633 C 978.161 -2.78495 -2.28282 0
M  V30 10634 C 978.014 -4.18767 -1.64178 0
M  V30 10635 C 979.333 -2.91569 -3.2966 0
M  V30 10636 H 976.452 -0.585983 -0.446982 0
M  V30 10637 H 979.094 -1.82514 -0.528063 0
M  V30 10638 H 977.244 -2.60281 -2.8842 0
M  V30 10639 H 978.916 -4.48552 -1.07696 0
M  V30 10640 H 977.159 -4.23379 -0.94514 0
M  V30 10641 H 977.83 -4.96894 -2.40417 0
M  V30 10642 H 980.306 -3.08219 -2.79536 0
M  V30 10643 H 979.182 -3.75419 -4.0044 0
M  V30 10644 H 979.443 -2.01859 -3.93326 0
M  V30 10645 N 978.502 0.731368 -1.39602 0
M  V30 10646 C 979.748 1.49321 -1.37227 0
M  V30 10647 C 980.081 1.94176 0.0306502 0
M  V30 10648 O 979.356 1.67046 0.996294 0
M  V30 10649 C 979.639 2.73035 -2.34784 0
M  V30 10650 C 979.492 2.34176 -3.84033 0
M  V30 10651 C 980.811 3.75146 -2.30116 0
M  V30 10652 H 977.93 0.541652 -0.499783 0
M  V30 10653 H 980.572 0.835968 -1.70621 0
M  V30 10654 H 978.722 3.29114 -2.06437 0
M  V30 10655 H 980.394 1.83701 -4.23145 0
M  V30 10656 H 978.637 1.66361 -4.00633 0
M  V30 10657 H 979.308 3.22786 -4.47787 0
M  V30 10658 H 981.784 3.28661 -2.55189 0
M  V30 10659 H 980.66 4.5937 -3.00451 0
M  V30 10660 H 980.921 4.22326 -1.30741 0
M  V30 10661 N 979.98 1.24838 0.961938 0
M  V30 10662 C 981.228 1.08936 1.70227 0
M  V30 10663 C 981.549 -0.371582 1.91427 0
M  V30 10664 O 980.819 -1.26461 1.49614 0
M  V30 10665 H 979.399 0.400128 0.630799 0
M  V30 10666 H 982.061 1.56848 1.15692 0
M  V30 10667 H 981.157 1.59195 2.68446 0
M  V30 10668 N 981.458 -1.16348 1.06306 0
M  V30 10669 C 982.421 -2.18941 0.678053 0
M  V30 10670 C 983.421 -1.58409 -0.276277 0
M  V30 10671 O 984.611 -1.74101 -0.0586435 0
M  V30 10672 C 981.743 -3.409 -0.00228684 0
M  V30 10673 H 982.936 -2.54516 1.58624 0
M  V30 10674 H 980.489 -1.30625 0.858298 0
M  V30 10675 H 981.224 -3.10881 -0.923212 0
M  V30 10676 H 981.009 -3.86089 0.683949 0
M  V30 10677 H 982.499 -4.16806 -0.257374 0
M  V30 10678 N 982.937 -0.845659 -1.3299 0
M  V30 10679 C 984.184 -0.444653 -1.97558 0
M  V30 10680 C 984.512 0.997682 -1.66963 0
M  V30 10681 O 983.767 1.71349 -0.94541 0
M  V30 10682 C 984.066 -0.6201 -3.51979 0
M  V30 10683 C 983.732 -2.03155 -4.02541 0
M  V30 10684 C 982.394 -2.4176 -4.16059 0
M  V30 10685 C 984.746 -2.95317 -4.29462 0
M  V30 10686 C 982.074 -3.71818 -4.53837 0
M  V30 10687 C 984.426 -4.24863 -4.68694 0
M  V30 10688 C 983.09 -4.63416 -4.80419 0
M  V30 10689 H 982.36 -0.16271 -0.722915 0
M  V30 10690 H 985.007 -1.07399 -1.58549 0
M  V30 10691 H 983.312 0.092513 -3.91691 0
M  V30 10692 H 985.009 -0.290012 -3.9995 0
M  V30 10693 H 981.599 -1.72174 -3.92497 0
M  V30 10694 H 985.783 -2.66726 -4.18534 0
M  V30 10695 H 981.039 -4.01484 -4.61108 0
M  V30 10696 H 985.213 -4.96347 -4.8848 0
M  V30 10697 H 982.84 -5.6424 -5.09448 0
M  V30 10698 N 984.415 1.45619 -0.602734 0
M  V30 10699 C 985.345 2.33258 0.106342 0
M  V30 10700 C 986.326 1.46543 0.863664 0
M  V30 10701 O 987.511 1.75324 0.835175 0
M  V30 10702 C 984.641 3.29168 1.10751 0
M  V30 10703 C 983.595 4.25481 0.463717 0
M  V30 10704 C 982.921 5.11046 1.57278 0
M  V30 10705 C 984.221 5.18702 -0.61199 0
M  V30 10706 H 985.915 2.92795 -0.625423 0
M  V30 10707 H 983.461 1.40793 -0.302213 0
M  V30 10708 H 985.414 3.89346 1.61208 0
M  V30 10709 H 984.138 2.6778 1.8698 0
M  V30 10710 H 982.797 3.66595 -0.0199496 0
M  V30 10711 H 982.445 4.46029 2.32524 0
M  V30 10712 H 982.145 5.76286 1.14755 0
M  V30 10713 H 983.669 5.74091 2.07972 0
M  V30 10714 H 985.083 5.72979 -0.191686 0
M  V30 10715 H 983.48 5.92393 -0.958686 0
M  V30 10716 H 984.55 4.61424 -1.4905 0
M  V30 10717 N 985.893 0.34162 1.53853 0
M  V30 10718 C 986.823 -0.508431 2.27897 0
M  V30 10719 C 987.804 -1.10425 1.29384 0
M  V30 10720 O 988.989 -1.126 1.58224 0
M  V30 10721 C 986.119 -1.66048 3.05034 0
M  V30 10722 C 985.073 -1.19309 4.11035 0
M  V30 10723 C 984.399 -2.4335 4.76114 0
M  V30 10724 C 985.699 -0.294952 5.21467 0
M  V30 10725 H 987.393 0.109251 2.99201 0
M  V30 10726 H 984.939 0.0539847 1.43899 0
M  V30 10727 H 986.892 -2.26158 3.5557 0
M  V30 10728 H 985.616 -2.30503 2.31379 0
M  V30 10729 H 984.275 -0.614809 3.61408 0
M  V30 10730 H 983.923 -3.06208 3.99056 0
M  V30 10731 H 983.623 -2.1276 5.47729 0
M  V30 10732 H 985.147 -3.0419 5.29434 0
M  V30 10733 H 986.561 -0.80285 5.67651 0
M  V30 10734 H 984.958 -0.0810221 6.00045 0
M  V30 10735 H 986.028 0.669433 4.80257 0
M  V30 10736 N 987.371 -1.57444 0.0701946 0
M  V30 10737 C 988.281 -2.16132 -0.912377 0
M  V30 10738 C 989.297 -1.12406 -1.32819 0
M  V30 10739 O 990.473 -1.44665 -1.40121 0
M  V30 10740 C 987.538 -2.71008 -2.16231 0
M  V30 10741 C 986.599 -3.896 -1.80306 0
M  V30 10742 C 985.832 -4.4185 -2.9934 0
M  V30 10743 O 986.055 -3.93106 -4.13309 0
M  V30 10744 O 984.989 -5.33201 -2.7925 0
M  V30 10745 H 988.815 -3.00449 -0.443167 0
M  V30 10746 H 986.4 -1.48617 -0.152786 0
M  V30 10747 H 988.282 -3.06186 -2.8953 0
M  V30 10748 H 986.957 -1.8975 -2.62253 0
M  V30 10749 H 985.864 -3.59277 -1.04264 0
M  V30 10750 H 987.197 -4.72145 -1.39068 0
M  V30 10751 N 988.849 0.203349 -1.56283 0
M  V30 10752 C 990.074 0.945548 -1.84592 0
M  V30 10753 C 990.499 1.7641 -0.652772 0
M  V30 10754 O 989.857 1.76867 0.398468 0
M  V30 10755 C 989.905 1.82416 -3.11057 0
M  V30 10756 O 989.009 2.92191 -2.9103 0
M  V30 10757 H 988.35 0.266739 -0.608068 0
M  V30 10758 H 990.88 0.211158 -2.03507 0
M  V30 10759 H 990.89 2.23044 -3.41636 0
M  V30 10760 H 989.565 1.22267 -3.97522 0
M  V30 10761 H 988.142 2.55378 -2.71728 0
M  V30 10762 N 990.327 1.50405 0.470755 0
M  V30 10763 C 991.557 1.64928 1.24428 0
M  V30 10764 C 991.965 0.332139 1.86262 0
M  V30 10765 O 991.308 -0.695919 1.70008 0
M  V30 10766 C 991.37 2.6829 2.39293 0
M  V30 10767 C 991.034 4.11835 1.98093 0
M  V30 10768 C 992.031 4.97693 1.50326 0
M  V30 10769 C 989.716 4.57753 2.06803 0
M  V30 10770 C 991.71 6.27516 1.11813 0
M  V30 10771 C 989.397 5.87582 1.67902 0
M  V30 10772 C 990.395 6.72289 1.20485 0
M  V30 10773 O 990.083 7.99694 0.821219 0
M  V30 10774 H 989.815 0.557418 0.382442 0
M  V30 10775 H 992.369 1.97382 0.568292 0
M  V30 10776 H 990.599 2.31079 3.10063 0
M  V30 10777 H 992.288 2.7203 3.01255 0
M  V30 10778 H 993.054 4.63434 1.43018 0
M  V30 10779 H 988.933 3.91966 2.42659 0
M  V30 10780 H 992.477 6.93586 0.747317 0
M  V30 10781 H 988.374 6.21362 1.74869 0
M  V30 10782 H 989.142 8.12968 0.950038 0
M  V30 10783 N 991.805 -0.723954 1.39988 0
M  V30 10784 C 993.054 -1.47922 1.3712 0
M  V30 10785 C 993.367 -1.95582 -0.0263665 0
M  V30 10786 O 994.573 -2.70918 -0.177652 0
M  V30 10787 C 993.029 -2.67342 2.40949 0
M  V30 10788 C 992.637 -2.26586 3.86475 0
M  V30 10789 C 994.381 -3.45116 2.47174 0
M  V30 10790 C 992.288 -3.42794 4.81919 0
M  V30 10791 H 991.218 -0.555522 0.509815 0
M  V30 10792 H 993.869 -0.788692 1.65686 0
M  V30 10793 H 992.251 -3.38524 2.0547 0
M  V30 10794 H 993.425 -1.62878 4.31054 0
M  V30 10795 H 991.74 -1.61876 3.83647 0
M  V30 10796 H 994.337 -4.31573 3.15672 0
M  V30 10797 H 994.68 -3.8835 1.49966 0
M  V30 10798 H 995.213 -2.80971 2.81602 0
M  V30 10799 H 991.952 -3.046 5.8043 0
M  V30 10800 H 991.472 -4.05445 4.42012 0
M  V30 10801 H 993.151 -4.08977 5.01345 0
M  V30 10802 N 993.283 -1.25346 -0.955304 0
M  V30 10803 C 994.56 -1.00829 -1.67609 0
M  V30 10804 C 994.94 0.465675 -2.059 0
M  V30 10805 O 994.288 1.44287 -1.77182 0
M  V30 10806 C 994.498 -1.94337 -2.89886 0
M  V30 10807 C 995.846 -2.22142 -3.61854 0
M  V30 10808 O 996.87 -1.9209 -2.99967 0
M  V30 10809 O 995.729 -2.73239 -4.73289 0
M  V30 10810 H 992.823 -0.382314 -0.733325 0
M  V30 10811 H 995.369 -1.36498 -1.00829 0
M  V30 10812 H 994.141 -2.93867 -2.58376 0
M  V30 10813 H 993.764 -1.59062 -3.64397 0
M  V30 10814 N 994.761 1.15782 -1.06922 0
M  V30 10815 C 995.709 2.22441 -0.679893 0
M  V30 10816 C 996.703 1.66591 0.307221 0
M  V30 10817 O 997.909 1.79182 0.171402 0
M  V30 10818 H 994.284 0.724427 -0.201765 0
M  V30 10819 H 996.255 2.52562 -1.58918 0
M  V30 10820 C 995.004 3.47586 -0.0891142 0
M  V30 10821 H 994.327 3.9088 -0.839805 0
M  V30 10822 H 995.767 4.2375 0.14569 0
M  V30 10823 C 994.226 3.15967 1.16903 0
M  V30 10824 O 994.756 3.32359 2.25611 0
M  V30 10825 N 992.962 2.70046 1.07349 0
M  V30 10826 H 992.509 2.56907 0.188825 0
M  V30 10827 H 992.467 2.49264 1.91611 0
M  V30 10828 N 996.239 0.8527 1.3254 0
M  V30 10829 C 997.186 0.293905 2.28921 0
M  V30 10830 C 998.156 -0.598027 1.54961 0
M  V30 10831 O 999.341 -0.533355 1.83194 0
M  V30 10832 C 996.481 -0.513361 3.4126 0
M  V30 10833 C 995.594 0.404144 4.30105 0
M  V30 10834 C 994.729 -0.415564 5.29572 0
M  V30 10835 C 993.768 0.499461 6.10059 0
M  V30 10836 N 992.905 -0.282949 7.0153 0
M  V30 10837 H 997.745 1.12107 2.76109 0
M  V30 10838 H 995.282 0.564272 1.35847 0
M  V30 10839 H 997.24 -0.997008 4.05112 0
M  V30 10840 H 995.87 -1.30537 2.95229 0
M  V30 10841 H 994.922 1.00617 3.66852 0
M  V30 10842 H 996.234 1.10648 4.86373 0
M  V30 10843 H 995.388 -0.962458 5.99017 0
M  V30 10844 H 994.127 -1.15127 4.73917 0
M  V30 10845 H 993.132 1.05825 5.39519 0
M  V30 10846 H 994.357 1.23375 6.67799 0
M  V30 10847 H 992.303 -1.00179 6.48306 0
M  V30 10848 H 992.22 0.36039 7.55141 0
M  V30 10849 H 993.488 -0.811632 7.75263 0
M  V30 10850 N 997.718 -1.45297 0.610449 0
M  V30 10851 C 998.666 -2.32295 -0.119167 0
M  V30 10852 C 999.66 -1.46138 -0.856746 0
M  V30 10853 O 1000.87 -1.62605 -0.771988 0
M  V30 10854 H 997.241 -0.749815 -0.0572881 0
M  V30 10855 H 999.212 -2.91609 0.63297 0
M  V30 10856 C 997.961 -3.29802 -1.10119 0
M  V30 10857 H 997.284 -3.96095 -0.543063 0
M  V30 10858 H 998.724 -3.93398 -1.58158 0
M  V30 10859 C 997.183 -2.57185 -2.17617 0
M  V30 10860 O 997.713 -2.35535 -3.25401 0
M  V30 10861 N 995.919 -2.17272 -1.9298 0
M  V30 10862 H 995.466 -2.3508 -1.05334 0
M  V30 10863 H 995.424 -1.69009 -2.6511 0
M  V30 10864 N 999.196 -0.349774 -1.5367 0
M  V30 10865 C 1000.14 0.504121 -2.25227 0
M  V30 10866 C 1001.11 1.09048 -1.2529 0
M  V30 10867 O 1002.3 1.12594 -1.54037 0
M  V30 10868 C 999.438 1.64601 -3.03316 0
M  V30 10869 C 998.551 1.08635 -4.18118 0
M  V30 10870 C 997.686 2.19605 -4.83681 0
M  V30 10871 C 996.725 1.61023 -5.90541 0
M  V30 10872 N 995.862 2.6576 -6.49858 0
M  V30 10873 H 1000.7 -0.112621 -2.97787 0
M  V30 10874 H 998.239 -0.0673503 -1.46946 0
M  V30 10875 H 1000.2 2.31836 -3.46854 0
M  V30 10876 H 998.827 2.23364 -2.33041 0
M  V30 10877 H 997.879 0.304748 -3.79177 0
M  V30 10878 H 999.191 0.617911 -4.94958 0
M  V30 10879 H 998.345 2.94693 -5.30322 0
M  V30 10880 H 997.084 2.69795 -4.06278 0
M  V30 10881 H 996.089 0.844428 -5.43277 0
M  V30 10882 H 997.314 1.11677 -6.69855 0
M  V30 10883 H 995.26 3.15193 -5.75317 0
M  V30 10884 H 995.177 2.23557 -7.2219 0
M  V30 10885 H 996.445 3.40598 -7.01151 0
M  V30 10886 N 1000.67 1.57404 -0.0785433 0
M  V30 10887 C 1001.92 1.9292 0.588626 0
M  V30 10888 C 1002.24 0.961106 1.70359 0
M  V30 10889 O 1003.44 1.20934 2.43079 0
M  V30 10890 C 1001.9 3.42729 1.09839 0
M  V30 10891 C 1001.51 4.47998 0.0140773 0
M  V30 10892 C 1003.25 3.87235 1.73924 0
M  V30 10893 C 1001.16 5.88945 0.538269 0
M  V30 10894 H 1000.09 0.720069 0.223645 0
M  V30 10895 H 1002.74 1.8287 -0.15187 0
M  V30 10896 H 1001.12 3.47875 1.89207 0
M  V30 10897 H 1002.29 4.54476 -0.760773 0
M  V30 10898 H 1000.61 4.13001 -0.53095 0
M  V30 10899 H 1003.21 4.89927 2.14186 0
M  V30 10900 H 1003.55 3.24971 2.60191 0
M  V30 10901 H 1004.08 3.84721 1.01168 0
M  V30 10902 H 1000.82 6.5487 -0.287395 0
M  V30 10903 H 1000.34 5.85972 1.28049 0
M  V30 10904 H 1002.02 6.39028 1.01253 0
M  V30 10905 N 1002.15 -0.195058 1.56388 0
M  V30 10906 C 1003.4 -0.913626 1.79821 0
M  V30 10907 C 1003.71 -1.84422 0.651767 0
M  V30 10908 O 1004.92 -2.6034 0.770402 0
M  V30 10909 C 1003.38 -1.67497 3.18548 0
M  V30 10910 C 1002.98 -0.789205 4.40994 0
M  V30 10911 C 1004.73 -2.38318 3.5129 0
M  V30 10912 C 1002.63 -1.54942 5.70742 0
M  V30 10913 H 1001.56 -0.344891 0.670497 0
M  V30 10914 H 1004.22 -0.166912 1.82739 0
M  V30 10915 H 1002.6 -2.46557 3.0988 0
M  V30 10916 H 1003.77 -0.0372595 4.60785 0
M  V30 10917 H 1002.09 -0.191834 4.15958 0
M  V30 10918 H 1004.68 -2.95745 4.45465 0
M  V30 10919 H 1005.03 -3.12507 2.75037 0
M  V30 10920 H 1005.56 -1.66224 3.61406 0
M  V30 10921 H 1002.3 -0.85031 6.49962 0
M  V30 10922 H 1001.82 -2.2753 5.54969 0
M  V30 10923 H 1003.5 -2.1032 6.11861 0
M  V30 10924 N 1003.63 -1.50653 -0.462772 0
M  V30 10925 C 1004.58 -1.70122 -1.55971 0
M  V30 10926 C 1005.55 -0.542581 -1.56988 0
M  V30 10927 O 1006.73 -0.774114 -1.74391 0
M  V30 10928 C 1003.87 -1.80899 -2.93887 0
M  V30 10929 C 1002.98 -3.08318 -3.02595 0
M  V30 10930 C 1002.12 -3.09841 -4.31477 0
M  V30 10931 C 1001.16 -4.3168 -4.33957 0
M  V30 10932 N 1000.3 -4.30894 -5.54323 0
M  V30 10933 H 1005.14 -2.63768 -1.38674 0
M  V30 10934 H 1002.67 -1.30746 -0.674091 0
M  V30 10935 H 1004.63 -1.85128 -3.73876 0
M  V30 10936 H 1003.26 -0.906854 -3.098 0
M  V30 10937 H 1002.31 -3.13521 -2.15427 0
M  V30 10938 H 1003.62 -3.98282 -3.00288 0
M  V30 10939 H 1002.78 -3.12845 -5.1982 0
M  V30 10940 H 1001.52 -2.17722 -4.36404 0
M  V30 10941 H 1000.52 -4.28879 -3.4401 0
M  V30 10942 H 1001.75 -5.25035 -4.30715 0
M  V30 10943 H 999.694 -3.41633 -5.6002 0
M  V30 10944 H 999.611 -5.14636 -5.53792 0
M  V30 10945 H 1000.88 -4.38056 -6.44769 0
M  V30 10946 N 1005.11 0.71652 -1.4037 0
M  V30 10947 C 1006.34 1.50563 -1.4191 0
M  V30 10948 C 1006.75 1.88791 -0.0185456 0
M  V30 10949 O 1006.11 1.55378 0.957289 0
M  V30 10950 C 1006.16 2.78155 -2.30894 0
M  V30 10951 O 1005.88 2.41543 -3.65497 0
M  V30 10952 C 1007.38 3.72057 -2.41016 0
M  V30 10953 H 1004.6 0.464679 -0.48406 0
M  V30 10954 H 1007.15 0.883927 -1.8441 0
M  V30 10955 H 1005.3 3.36611 -1.91759 0
M  V30 10956 H 1005.71 3.23636 -4.12747 0
M  V30 10957 H 1007.19 4.58426 -3.07489 0
M  V30 10958 H 1007.67 4.15098 -1.43492 0
M  V30 10959 H 1008.27 3.19512 -2.80699 0
M  V30 10960 N 1006.59 1.25851 0.948643 0
M  V30 10961 C 1007.84 1.10347 1.68838 0
M  V30 10962 C 1008.15 -0.354262 1.92365 0
M  V30 10963 O 1009.35 -0.629847 2.64093 0
M  V30 10964 C 1007.81 1.92659 3.03991 0
M  V30 10965 C 1007.42 3.42962 2.88238 0
M  V30 10966 C 1009.16 1.85743 3.81707 0
M  V30 10967 C 1007.07 4.17547 4.18818 0
M  V30 10968 H 1006 0.409342 0.63321 0
M  V30 10969 H 1008.65 1.50098 1.05559 0
M  V30 10970 H 1007.03 1.45736 3.68208 0
M  V30 10971 H 1008.21 3.97601 2.32917 0
M  V30 10972 H 1006.52 3.51035 2.23972 0
M  V30 10973 H 1009.12 2.38758 4.78434 0
M  V30 10974 H 1009.46 0.826568 4.08012 0
M  V30 10975 H 1009.99 2.30449 3.2425 0
M  V30 10976 H 1006.73 5.21072 3.97699 0
M  V30 10977 H 1006.25 3.6769 4.73882 0
M  V30 10978 H 1007.93 4.25589 4.87322 0
M  V30 10979 N 1008.06 -1.15214 1.07534 0
M  V30 10980 C 1009.34 -1.82155 0.71267 0
M  V30 10981 C 1009.72 -1.95163 -0.804655 0
M  V30 10982 O 1009.07 -1.50451 -1.71979 0
M  V30 10983 C 1009.28 -3.18392 1.42925 0
M  V30 10984 C 1010.63 -3.94005 1.58256 0
M  V30 10985 O 1011.65 -3.27952 1.39018 0
M  V30 10986 O 1010.51 -5.12436 1.89925 0
M  V30 10987 H 1007.6 -0.78709 0.253808 0
M  V30 10988 H 1010.15 -1.22309 1.17638 0
M  V30 10989 H 1008.92 -3.04034 2.46331 0
M  V30 10990 H 1008.55 -3.85925 0.956439 0
M  V30 10991 N 1009.54 -0.859717 -1.32086 0
M  V30 10992 C 1010.49 -0.296897 -2.30697 0
M  V30 10993 C 1011.48 0.582473 -1.59071 0
M  V30 10994 O 1012.69 0.469713 -1.73763 0
M  V30 10995 H 1009.07 -0.0773132 -0.748015 0
M  V30 10996 H 1011.04 -1.14273 -2.75652 0
M  V30 10997 C 1009.79 0.495546 -3.44151 0
M  V30 10998 H 1009.11 -0.171829 -3.99431 0
M  V30 10999 H 1010.55 0.854854 -4.15293 0
M  V30 11000 C 1009.01 1.68278 -2.91863 0
M  V30 11001 O 1009.54 2.78194 -2.89777 0
M  V30 11002 N 1007.74 1.51151 -2.48197 0
M  V30 11003 H 1007.29 0.617345 -2.50093 0
M  V30 11004 H 1007.25 2.3073 -2.13567 0
M  V30 11005 N 1011.02 1.44971 -0.618145 0
M  V30 11006 C 1011.98 2.29044 0.0846739 0
M  V30 11007 C 1012.98 1.40341 0.784921 0
M  V30 11008 O 1014.17 1.62351 0.631479 0
M  V30 11009 C 1011.31 3.21617 1.13027 0
M  V30 11010 H 1012.5 2.92668 -0.654612 0
M  V30 11011 H 1010.05 1.51668 -0.377672 0
M  V30 11012 H 1010.79 2.62815 1.89997 0
M  V30 11013 H 1010.57 3.86969 0.63224 0
M  V30 11014 H 1012.06 3.84805 1.62218 0
M  V30 11015 N 1012.5 0.357919 1.53482 0
M  V30 11016 C 1013.43 -0.484231 2.28424 0
M  V30 11017 C 1014.41 -1.09046 1.30548 0
M  V30 11018 O 1015.59 -1.10916 1.59409 0
M  V30 11019 C 1012.72 -1.62803 3.06778 0
M  V30 11020 C 1011.68 -1.14943 4.12277 0
M  V30 11021 C 1011 -2.38287 4.78669 0
M  V30 11022 C 1012.3 -0.239627 5.2175 0
M  V30 11023 H 1014 0.140979 2.99068 0
M  V30 11024 H 1011.54 0.069244 1.43833 0
M  V30 11025 H 1013.5 -2.22374 3.57949 0
M  V30 11026 H 1012.22 -2.28036 2.3381 0
M  V30 11027 H 1010.88 -0.576442 3.6204 0
M  V30 11028 H 1010.53 -3.01959 4.02281 0
M  V30 11029 H 1010.23 -2.06939 5.49955 0
M  V30 11030 H 1011.75 -2.98558 5.32631 0
M  V30 11031 H 1013.17 -0.742597 5.6847 0
M  V30 11032 H 1011.56 -0.0173747 6.00097 0
M  V30 11033 H 1012.63 0.720333 4.7952 0
M  V30 11034 N 1013.98 -1.5736 0.0868897 0
M  V30 11035 C 1015.2 -1.98388 -0.587349 0
M  V30 11036 C 1015.62 -0.965757 -1.6223 0
M  V30 11037 O 1014.98 0.0456981 -1.82443 0
M  V30 11038 C 1015.03 -3.39479 -1.24242 0
M  V30 11039 O 1014.75 -4.37393 -0.248878 0
M  V30 11040 C 1016.25 -3.95465 -2.00305 0
M  V30 11041 H 1013.47 -0.652111 -0.15809 0
M  V30 11042 H 1016.01 -2.03843 0.163754 0
M  V30 11043 H 1014.17 -3.35063 -1.94451 0
M  V30 11044 H 1014.58 -5.19525 -0.720678 0
M  V30 11045 H 1016.06 -4.96363 -2.41511 0
M  V30 11046 H 1016.53 -3.32832 -2.86565 0
M  V30 11047 H 1017.14 -4.03328 -1.34931 0
M  V30 11048 N 1015.45 0.186762 -1.56489 0
M  V30 11049 C 1016.4 1.23141 -1.95205 0
M  V30 11050 C 1017.37 1.44799 -0.81378 0
M  V30 11051 O 1018.56 1.57795 -1.07263 0
M  V30 11052 C 1015.7 2.56926 -2.30397 0
M  V30 11053 C 1014.81 2.42777 -3.57328 0
M  V30 11054 C 1013.94 3.69323 -3.81804 0
M  V30 11055 C 1012.98 3.50041 -5.02133 0
M  V30 11056 N 1012.12 4.68619 -5.2282 0
M  V30 11057 H 1016.96 0.894256 -2.84266 0
M  V30 11058 H 1014.5 0.430187 -1.40669 0
M  V30 11059 H 1016.46 3.3488 -2.4882 0
M  V30 11060 H 1015.09 2.88668 -1.44466 0
M  V30 11061 H 1014.14 1.56078 -3.46906 0
M  V30 11062 H 1015.45 2.24468 -4.45439 0
M  V30 11063 H 1014.6 4.55715 -4.00511 0
M  V30 11064 H 1013.34 3.90595 -2.92039 0
M  V30 11065 H 1012.35 2.62034 -4.8334 0
M  V30 11066 H 1013.57 3.30206 -5.93414 0
M  V30 11067 H 1011.52 4.90139 -4.36005 0
M  V30 11068 H 1011.44 4.53165 -6.05126 0
M  V30 11069 H 1012.7 5.56338 -5.45993 0
M  V30 11070 N 1016.93 1.50896 0.454776 0
M  V30 11071 C 1018.35 1.38684 0.78987 0
M  V30 11072 C 1018.55 0.455587 1.96282 0
M  V30 11073 O 1017.6 -0.0957503 2.52318 0
M  V30 11074 C 1018.92 2.80381 1.08661 0
M  V30 11075 C 1020.47 2.8941 1.19209 0
M  V30 11076 C 1020.94 4.31976 1.52187 0
M  V30 11077 N 1022.43 4.35002 1.59146 0
M  V30 11078 C 1023.17 5.42326 1.862 0
M  V30 11079 N 1022.66 6.59835 2.11164 0
M  V30 11080 N 1024.46 5.29786 1.87838 0
M  V30 11081 H 1016.61 2.10006 -0.317981 0
M  V30 11082 H 1018.87 0.944636 -0.0797969 0
M  V30 11083 H 1018.58 3.50438 0.297626 0
M  V30 11084 H 1018.45 3.18634 2.01872 0
M  V30 11085 H 1020.84 2.19561 1.97173 0
M  V30 11086 H 1020.92 2.54677 0.239401 0
M  V30 11087 H 1020.56 5.02368 0.747576 0
M  V30 11088 H 1020.49 4.64208 2.48633 0
M  V30 11089 H 1022.98 3.50276 1.41828 0
M  V30 11090 H 1023.3 7.37428 2.31128 0
M  V30 11091 H 1021.64 6.62981 2.08522 0
M  V30 11092 H 1024.83 4.36974 1.67843 0
M  V30 11093 H 1025 6.13511 2.08585 0
M  V30 11094 N 1018.41 -0.709066 1.40748 0
M  V30 11095 C 1019.36 -1.84445 1.41714 0
M  V30 11096 C 1020.35 -1.66779 0.296818 0
M  V30 11097 O 1021.56 -1.73805 0.468181 0
M  V30 11098 H 1017.93 -0.607581 0.443114 0
M  V30 11099 H 1019.9 -1.80747 2.3743 0
M  V30 11100 C 1018.65 -3.22362 1.303 0
M  V30 11101 H 1017.98 -3.36565 2.15787 0
M  V30 11102 H 1019.42 -4.01922 1.35036 0
M  V30 11103 C 1017.88 -3.36897 0.0139015 0
M  V30 11104 O 1018.41 -3.90389 -0.946553 0
M  V30 11105 N 1016.61 -2.90543 -0.0577491 0
M  V30 11106 H 1016.16 -2.472 0.724574 0
M  V30 11107 H 1016.12 -3.00647 -0.919721 0
M  V30 11108 N 1019.89 -1.26353 -0.941956 0
M  V30 11109 C 1020.8 -1.09618 -2.07415 0
M  V30 11110 C 1021.82 -0.0298963 -1.73974 0
M  V30 11111 O 1022.99 -0.233466 -2.00042 0
M  V30 11112 C 1020.06 -0.73013 -3.38925 0
M  V30 11113 C 1019.12 -1.87574 -3.86153 0
M  V30 11114 C 1018.35 -1.52706 -5.11387 0
M  V30 11115 O 1018.57 -0.428438 -5.68789 0
M  V30 11116 O 1017.51 -2.36154 -5.53638 0
M  V30 11117 H 1021.33 -2.04598 -2.2444 0
M  V30 11118 H 1018.92 -1.05407 -1.05876 0
M  V30 11119 H 1020.8 -0.538684 -4.17943 0
M  V30 11120 H 1019.48 0.190282 -3.2314 0
M  V30 11121 H 1018.38 -2.12214 -3.08084 0
M  V30 11122 H 1019.72 -2.77585 -4.06457 0
M  V30 11123 N 1021.37 1.14642 -1.08144 0
M  V30 11124 C 1022.31 2.1964 -0.708995 0
M  V30 11125 C 1023.28 1.63303 0.303512 0
M  V30 11126 O 1024.47 1.8987 0.18813 0
M  V30 11127 C 1021.61 3.44886 -0.121585 0
M  V30 11128 C 1020.72 4.15386 -1.18654 0
M  V30 11129 C 1019.86 5.28205 -0.56328 0
M  V30 11130 C 1018.9 5.90534 -1.61046 0
M  V30 11131 N 1018.03 6.94809 -1.00919 0
M  V30 11132 H 1022.87 2.50848 -1.6087 0
M  V30 11133 H 1020.41 1.23185 -0.803975 0
M  V30 11134 H 1022.37 4.16528 0.23668 0
M  V30 11135 H 1021 3.14169 0.741445 0
M  V30 11136 H 1020.05 3.42159 -1.66227 0
M  V30 11137 H 1021.36 4.57809 -1.9802 0
M  V30 11138 H 1020.52 6.06507 -0.153109 0
M  V30 11139 H 1019.26 4.86995 0.262066 0
M  V30 11140 H 1018.26 5.10938 -2.03033 0
M  V30 11141 H 1019.49 6.33819 -2.43824 0
M  V30 11142 H 1017.43 6.5568 -0.204894 0
M  V30 11143 H 1017.35 7.35704 -1.73999 0
M  V30 11144 H 1018.62 7.76992 -0.624792 0
M  V30 11145 N 1022.85 0.866709 1.31628 0
M  V30 11146 C 1024.09 0.486046 1.97507 0
M  V30 11147 C 1024.45 -0.95049 1.67283 0
M  V30 11148 O 1023.74 -1.65979 0.957158 0
M  V30 11149 C 1023.93 0.676018 3.50948 0
M  V30 11150 C 1023.76 2.12947 3.96086 0
M  V30 11151 C 1022.53 2.77041 4.22583 0
M  V30 11152 C 1024.73 3.10139 4.10266 0
M  V30 11153 N 1022.71 4.13172 4.54051 0
M  V30 11154 C 1024.08 4.3129 4.45409 0
M  V30 11155 C 1026.14 3.06173 3.92635 0
M  V30 11156 C 1024.84 5.4899 4.6476 0
M  V30 11157 C 1026.87 4.23128 4.13178 0
M  V30 11158 C 1026.23 5.43041 4.48649 0
M  V30 11159 H 1022.33 0.226831 0.748379 0
M  V30 11160 H 1024.91 1.12063 1.59217 0
M  V30 11161 H 1023.08 0.071055 3.88335 0
M  V30 11162 H 1024.82 0.264062 4.03838 0
M  V30 11163 H 1021.57 2.28009 4.15101 0
M  V30 11164 H 1021.99 4.83426 4.7395 0
M  V30 11165 H 1026.64 2.14576 3.64303 0
M  V30 11166 H 1024.35 6.41108 4.91942 0
M  V30 11167 H 1027.94 4.21509 4.01026 0
M  V30 11168 H 1026.82 6.32034 4.64223 0
M  V30 11169 N 1024.32 -1.44642 0.625825 0
M  V30 11170 C 1025.55 -2.06971 0.133373 0
M  V30 11171 C 1025.97 -1.46421 -1.18078 0
M  V30 11172 O 1025.33 -0.563676 -1.72315 0
M  V30 11173 C 1025.38 -3.6059 0.0265097 0
M  V30 11174 O 1024.48 -3.99615 -1.01889 0
M  V30 11175 H 1023.82 -0.658873 0.0823568 0
M  V30 11176 H 1026.35 -1.85601 0.861002 0
M  V30 11177 H 1026.36 -4.07663 -0.1658 0
M  V30 11178 H 1025.04 -4.04043 0.985986 0
M  V30 11179 H 1023.62 -3.64183 -0.801577 0
M  V30 11180 N 1025.8 -0.366053 -1.5329 0
M  V30 11181 C 1027.08 0.279902 -1.93587 0
M  V30 11182 C 1027.46 1.66352 -1.29963 0
M  V30 11183 O 1026.81 2.23845 -0.458895 0
M  V30 11184 C 1027.02 0.329634 -3.4744 0
M  V30 11185 C 1028.36 0.569754 -4.2076 0
M  V30 11186 O 1029.39 0.410823 -3.53823 0
M  V30 11187 O 1028.25 0.879262 -5.3938 0
M  V30 11188 H 1025.34 0.16802 -0.809752 0
M  V30 11189 H 1027.89 -0.418871 -1.64449 0
M  V30 11190 H 1026.66 -0.640434 -3.86023 0
M  V30 11191 H 1026.28 1.07428 -3.82812 0
M  V30 11192 N 1027.28 1.57312 -0.0952337 0
M  V30 11193 C 1028.21 2.09691 0.900274 0
M  V30 11194 C 1029.19 1.0075 1.27625 0
M  V30 11195 O 1030.37 1.28249 1.38147 0
M  V30 11196 C 1027.5 2.574 2.20142 0
M  V30 11197 C 1026.55 3.78 1.9753 0
M  V30 11198 S 1027.38 5.21577 1.21318 0
M  V30 11199 C 1028.54 5.72636 2.52663 0
M  V30 11200 H 1028.77 2.93803 0.45467 0
M  V30 11201 H 1026.3 1.53948 0.118056 0
M  V30 11202 H 1028.26 2.85546 2.94914 0
M  V30 11203 H 1026.92 1.73514 2.61824 0
M  V30 11204 H 1026.11 4.09451 2.93881 0
M  V30 11205 H 1025.72 3.50349 1.30888 0
M  V30 11206 H 1028.01 5.80911 3.48638 0
M  V30 11207 H 1028.95 6.71136 2.25791 0
M  V30 11208 H 1029.36 5.00569 2.60943 0
M  V30 11209 N 1028.76 -0.17846 1.56586 0
M  V30 11210 C 1029.99 -0.910674 1.85446 0
M  V30 11211 C 1030.4 -1.76647 0.677675 0
M  V30 11212 O 1029.74 -1.80086 -0.362584 0
M  V30 11213 C 1029.8 -1.84363 3.08627 0
M  V30 11214 C 1029.46 -1.16814 4.41818 0
M  V30 11215 C 1030.46 -0.53703 5.17119 0
M  V30 11216 C 1028.15 -1.16703 4.88555 0
M  V30 11217 C 1030.14 0.0861778 6.37342 0
M  V30 11218 C 1027.83 -0.539992 6.0871 0
M  V30 11219 C 1028.83 0.0855135 6.82946 0
M  V30 11220 O 1028.51 0.70268 8.00823 0
M  V30 11221 H 1028.25 -0.270377 0.619574 0
M  V30 11222 H 1030.8 -0.185591 2.0456 0
M  V30 11223 H 1029.03 -2.60884 2.85441 0
M  V30 11224 H 1030.72 -2.44506 3.23993 0
M  V30 11225 H 1031.48 -0.529915 4.82096 0
M  V30 11226 H 1027.36 -1.64329 4.30717 0
M  V30 11227 H 1030.91 0.575011 6.95226 0
M  V30 11228 H 1026.8 -0.544666 6.43198 0
M  V30 11229 H 1027.57 0.601224 8.16289 0
M  V30 11230 N 1030.24 -1.51135 -0.446768 0
M  V30 11231 C 1031.48 -1.63013 -1.19461 0
M  V30 11232 C 1031.8 -0.344067 -1.91941 0
M  V30 11233 O 1031.07 0.639666 -1.85162 0
M  V30 11234 H 1029.65 -0.600757 -0.443959 0
M  V30 11235 H 1032.32 -1.88024 -0.513137 0
M  V30 11236 H 1031.41 -2.45322 -1.92933 0
M  V30 11237 N 1031.71 0.701592 -1.41122 0
M  V30 11238 C 1032.64 1.82815 -1.45262 0
M  V30 11239 C 1033.62 1.67215 -0.311939 0
M  V30 11240 O 1034.81 1.87038 -0.522538 0
M  V30 11241 C 1031.94 3.20899 -1.32819 0
M  V30 11242 C 1030.89 3.51194 -2.44636 0
M  V30 11243 C 1030.22 4.8857 -2.17263 0
M  V30 11244 C 1031.52 3.50777 -3.86979 0
M  V30 11245 H 1033.21 1.79608 -2.39544 0
M  V30 11246 H 1030.76 0.862693 -1.15298 0
M  V30 11247 H 1032.71 3.99417 -1.34329 0
M  V30 11248 H 1031.44 3.24717 -0.350191 0
M  V30 11249 H 1030.1 2.75024 -2.42399 0
M  V30 11250 H 1029.74 4.89007 -1.17819 0
M  V30 11251 H 1029.44 5.09805 -2.92186 0
M  V30 11252 H 1030.97 5.69405 -2.20478 0
M  V30 11253 H 1032.38 4.19309 -3.90964 0
M  V30 11254 H 1030.78 3.83542 -4.61536 0
M  V30 11255 H 1031.85 2.49873 -4.15562 0
M  V30 11256 N 1033.19 1.2685 0.935242 0
M  V30 11257 C 1034.44 1.12132 1.67658 0
M  V30 11258 C 1034.75 -0.333839 1.9273 0
M  V30 11259 O 1035.96 -0.601801 2.64746 0
M  V30 11260 C 1034.42 1.95873 3.0193 0
M  V30 11261 C 1034.02 3.46 2.84584 0
M  V30 11262 C 1035.77 1.89781 3.79715 0
M  V30 11263 C 1033.67 4.21966 4.14365 0
M  V30 11264 H 1032.6 0.416035 0.628833 0
M  V30 11265 H 1035.26 1.51209 1.03962 0
M  V30 11266 H 1033.64 1.49633 3.66641 0
M  V30 11267 H 1034.81 4.00049 2.28687 0
M  V30 11268 H 1033.13 3.53391 2.20236 0
M  V30 11269 H 1035.72 2.43819 4.75875 0
M  V30 11270 H 1036.07 0.869797 4.07112 0
M  V30 11271 H 1036.6 2.33875 3.21788 0
M  V30 11272 H 1033.34 5.2526 3.9215 0
M  V30 11273 H 1032.86 3.72696 4.69955 0
M  V30 11274 H 1034.54 4.30734 4.82781 0
M  V30 11275 N 1034.67 -1.14067 1.0875 0
M  V30 11276 C 1035.92 -1.85459 0.82053 0
M  V30 11277 C 1036.25 -1.82923 -0.65213 0
M  V30 11278 O 1035.52 -1.26241 -1.47965 0
M  V30 11279 C 1035.81 -3.33937 1.34752 0
M  V30 11280 C 1035.66 -3.45026 2.88578 0
M  V30 11281 C 1036.98 -4.2915 0.975636 0
M  V30 11282 H 1034.1 -0.673384 0.299538 0
M  V30 11283 H 1036.74 -1.33927 1.34772 0
M  V30 11284 H 1034.89 -3.77953 0.899086 0
M  V30 11285 H 1036.56 -3.09771 3.41818 0
M  V30 11286 H 1034.81 -2.86124 3.26061 0
M  V30 11287 H 1035.48 -4.49408 3.20526 0
M  V30 11288 H 1037.95 -3.93168 1.36228 0
M  V30 11289 H 1036.83 -5.31489 1.37152 0
M  V30 11290 H 1037.09 -4.41945 -0.116956 0
M  V30 11291 N 1036.15 -0.873678 -1.31166 0
M  V30 11292 C 1037.11 -0.337069 -2.26708 0
M  V30 11293 C 1038.11 0.51406 -1.52362 0
M  V30 11294 O 1039.3 0.322834 -1.71182 0
M  V30 11295 C 1036.43 0.520897 -3.36897 0
M  V30 11296 H 1037.63 -1.18056 -2.75686 0
M  V30 11297 H 1035.18 -0.649577 -1.42163 0
M  V30 11298 H 1035.91 1.38543 -2.93217 0
M  V30 11299 H 1035.7 -0.0886015 -3.92 0
M  V30 11300 H 1037.19 0.888497 -4.08039 0
M  V30 11301 N 1037.63 1.44308 -0.633487 0
M  V30 11302 C 1038.56 2.28943 0.108474 0
M  V30 11303 C 1039.57 1.41415 0.806582 0
M  V30 11304 O 1040.76 1.65544 0.667634 0
M  V30 11305 C 1037.86 3.17845 1.1759 0
M  V30 11306 C 1037.03 4.33802 0.559842 0
M  V30 11307 C 1036.09 5.03722 1.52154 0
M  V30 11308 O 1035.12 5.5966 1.03776 0
M  V30 11309 N 1036.32 5.05392 2.85586 0
M  V30 11310 H 1039.09 2.93262 -0.617879 0
M  V30 11311 H 1036.65 1.54781 -0.474819 0
M  V30 11312 H 1038.64 3.61485 1.81963 0
M  V30 11313 H 1037.21 2.55261 1.80445 0
M  V30 11314 H 1036.43 3.93325 -0.262559 0
M  V30 11315 H 1037.72 5.08637 0.128942 0
M  V30 11316 H 1037.11 4.61282 3.27468 0
M  V30 11317 H 1035.67 5.52813 3.45313 0
M  V30 11318 N 1039.1 0.374177 1.53094 0
M  V30 11319 C 1040.35 -0.205669 2.02358 0
M  V30 11320 C 1040.71 -1.4572 1.25633 0
M  V30 11321 O 1040 -1.88487 0.343977 0
M  V30 11322 C 1040.19 -0.542179 3.53264 0
M  V30 11323 C 1040.02 0.675186 4.44602 0
M  V30 11324 C 1038.79 1.18987 4.91091 0
M  V30 11325 C 1040.99 1.54299 4.90608 0
M  V30 11326 N 1038.97 2.36637 5.66459 0
M  V30 11327 C 1040.34 2.56605 5.64406 0
M  V30 11328 C 1042.4 1.56486 4.7267 0
M  V30 11329 C 1041.1 3.60965 6.22171 0
M  V30 11330 C 1043.13 2.59745 5.31307 0
M  V30 11331 C 1042.49 3.60774 6.04997 0
M  V30 11332 H 1038.59 -0.0377471 0.781088 0
M  V30 11333 H 1041.17 0.520661 1.87609 0
M  V30 11334 H 1039.34 -1.23758 3.68156 0
M  V30 11335 H 1041.07 -1.10786 3.89241 0
M  V30 11336 H 1037.83 0.753181 4.67573 0
M  V30 11337 H 1038.25 2.96123 6.08802 0
M  V30 11338 H 1042.9 0.797296 4.15214 0
M  V30 11339 H 1040.61 4.38599 6.78717 0
M  V30 11340 H 1044.2 2.62301 5.19316 0
M  V30 11341 H 1043.08 4.39363 6.49561 0
M  V30 11342 N 1040.58 -1.57259 0.103575 0
M  V30 11343 C 1041.51 -2.17509 -0.84923 0
M  V30 11344 C 1042.49 -1.11079 -1.28824 0
M  V30 11345 O 1043.68 -1.39252 -1.35361 0
M  V30 11346 C 1040.81 -2.76221 -2.10522 0
M  V30 11347 C 1039.76 -3.88098 -1.80454 0
M  V30 11348 C 1039.09 -4.33549 -3.12952 0
M  V30 11349 C 1040.39 -5.10909 -1.08486 0
M  V30 11350 H 1042.08 -2.9738 -0.347217 0
M  V30 11351 H 1039.63 -1.43045 -0.165568 0
M  V30 11352 H 1041.58 -3.17024 -2.77621 0
M  V30 11353 H 1040.31 -1.93617 -2.63021 0
M  V30 11354 H 1038.96 -3.47847 -1.15749 0
M  V30 11355 H 1038.61 -3.47825 -3.63355 0
M  V30 11356 H 1038.31 -5.08984 -2.93614 0
M  V30 11357 H 1039.84 -4.76992 -3.81196 0
M  V30 11358 H 1041.25 -5.48828 -1.65711 0
M  V30 11359 H 1039.65 -5.91828 -0.992973 0
M  V30 11360 H 1040.72 -4.84851 -0.0690108 0
M  V30 11361 N 1042.06 0.170153 -1.56679 0
M  V30 11362 C 1043.29 0.90618 -1.86556 0
M  V30 11363 C 1043.71 1.74986 -0.690044 0
M  V30 11364 O 1043.07 1.77672 0.360862 0
M  V30 11365 C 1043.12 1.75777 -3.14857 0
M  V30 11366 O 1042.22 2.85952 -2.97162 0
M  V30 11367 H 1041.56 0.253781 -0.613589 0
M  V30 11368 H 1044.09 0.167943 -2.0391 0
M  V30 11369 H 1044.1 2.15747 -3.46291 0
M  V30 11370 H 1042.78 1.13807 -4.00026 0
M  V30 11371 H 1041.35 2.49557 -2.77084 0
M  V30 11372 N 1043.54 1.5137 0.438746 0
M  V30 11373 C 1044.77 1.67774 1.21077 0
M  V30 11374 C 1045.18 0.374489 1.85049 0
M  V30 11375 O 1044.54 -0.646867 1.70651 0
M  V30 11376 C 1044.59 2.79238 2.29584 0
M  V30 11377 O 1044.31 4.04513 1.68228 0
M  V30 11378 C 1045.81 3.06898 3.19888 0
M  V30 11379 H 1043.03 0.563054 0.364981 0
M  V30 11380 H 1045.58 1.97777 0.520035 0
M  V30 11381 H 1043.73 2.51837 2.94375 0
M  V30 11382 H 1044.14 4.66405 2.3993 0
M  V30 11383 H 1045.62 3.88476 3.92162 0
M  V30 11384 H 1046.1 2.19249 3.80561 0
M  V30 11385 H 1046.7 3.35952 2.60799 0
M  V30 11386 N 1045.02 -0.694098 1.41492 0
M  V30 11387 C 1046.26 -1.4563 1.41137 0
M  V30 11388 C 1046.6 -1.94189 0.0208428 0
M  V30 11389 O 1045.87 -1.69628 -0.951655 0
M  V30 11390 C 1046.15 -2.66714 2.41941 0
M  V30 11391 C 1046.01 -2.23912 3.90107 0
M  V30 11392 C 1047.33 -3.68913 2.39981 0
M  V30 11393 H 1044.44 -0.52821 0.513968 0
M  V30 11394 H 1047.09 -0.790437 1.72778 0
M  V30 11395 H 1045.24 -3.23525 2.1509 0
M  V30 11396 H 1046.91 -1.72417 4.27867 0
M  V30 11397 H 1045.15 -1.5568 4.04903 0
M  V30 11398 H 1045.82 -3.108 4.56188 0
M  V30 11399 H 1048.3 -3.21779 2.63813 0
M  V30 11400 H 1047.17 -4.51242 3.12524 0
M  V30 11401 H 1047.44 -4.18711 1.41892 0
M  V30 11402 N 1046.49 -1.27344 -0.928501 0
M  V30 11403 C 1047.44 -1.09835 -2.05034 0
M  V30 11404 C 1048.44 -0.0216643 -1.69386 0
M  V30 11405 O 1049.64 -0.179323 -1.79105 0
M  V30 11406 H 1046.02 -0.338416 -0.671549 0
M  V30 11407 H 1047.99 -2.04879 -2.1695 0
M  V30 11408 C 1046.74 -0.761462 -3.3926 0
M  V30 11409 H 1046.06 -1.58186 -3.67175 0
M  V30 11410 H 1047.5 -0.678812 -4.18531 0
M  V30 11411 C 1045.96 0.534118 -3.32639 0
M  V30 11412 O 1046.49 1.56877 -3.69801 0
M  V30 11413 N 1044.7 0.529437 -2.85736 0
M  V30 11414 H 1044.24 -0.312954 -2.55692 0
M  V30 11415 H 1044.2 1.39637 -2.81689 0
M  V30 11416 N 1047.97 1.13488 -1.09353 0
M  V30 11417 C 1049.2 1.88592 -0.850915 0
M  V30 11418 C 1049.62 1.79087 0.597761 0
M  V30 11419 O 1048.97 1.15695 1.41142 0
M  V30 11420 C 1049.02 3.38219 -1.27633 0
M  V30 11421 O 1048.74 3.47476 -2.66819 0
M  V30 11422 C 1050.25 4.30293 -1.06598 0
M  V30 11423 H 1047.47 0.597069 -0.306185 0
M  V30 11424 H 1050.01 1.43668 -1.45533 0
M  V30 11425 H 1048.16 3.80729 -0.715828 0
M  V30 11426 H 1048.58 4.40485 -2.84733 0
M  V30 11427 H 1050.05 5.33611 -1.41293 0
M  V30 11428 H 1050.53 4.392 -0.0037135 0
M  V30 11429 H 1051.14 3.9355 -1.6124 0
M  V30 11430 N 1049.45 0.880621 1.30701 0
M  V30 11431 C 1050.38 0.301443 2.27209 0
M  V30 11432 C 1051.4 -0.541533 1.53529 0
M  V30 11433 O 1052.59 -0.361791 1.74795 0
M  V30 11434 C 1049.69 -0.59038 3.33718 0
M  V30 11435 C 1048.86 0.222549 4.36833 0
M  V30 11436 C 1047.92 -0.599083 5.22779 0
M  V30 11437 O 1046.94 -0.0233267 5.69195 0
M  V30 11438 N 1048.15 -1.90904 5.48211 0
M  V30 11439 H 1050.91 1.13083 2.77547 0
M  V30 11440 H 1048.47 0.743168 1.43835 0
M  V30 11441 H 1050.46 -1.14599 3.88135 0
M  V30 11442 H 1049.03 -1.32044 2.83343 0
M  V30 11443 H 1048.25 0.959606 3.82342 0
M  V30 11444 H 1049.54 0.779965 5.02786 0
M  V30 11445 H 1048.94 -2.3998 5.12275 0
M  V30 11446 H 1047.5 -2.4122 6.05521 0
M  V30 11447 N 1050.93 -1.4397 0.641131 0
M  V30 11448 C 1052.18 -2.01946 0.149629 0
M  V30 11449 C 1052.5 -1.50496 -1.23212 0
M  V30 11450 O 1051.76 -0.683453 -1.83378 0
M  V30 11451 C 1052.06 -3.5727 0.0963368 0
M  V30 11452 C 1051.72 -4.28016 1.4182 0
M  V30 11453 C 1050.39 -4.47059 1.78021 0
M  V30 11454 C 1052.74 -4.68183 2.29028 0
M  V30 11455 C 1050.07 -5.03532 3.01119 0
M  V30 11456 C 1052.42 -5.26019 3.51406 0
M  V30 11457 C 1051.08 -5.4328 3.87818 0
M  V30 11458 H 1050.35 -0.738974 0.0547531 0
M  V30 11459 H 1053 -1.72605 0.829436 0
M  V30 11460 H 1051.3 -3.86083 -0.666879 0
M  V30 11461 H 1053 -3.99871 -0.300635 0
M  V30 11462 H 1049.59 -4.13531 1.12651 0
M  V30 11463 H 1053.78 -4.53175 2.02353 0
M  V30 11464 H 1049.03 -5.15082 3.29395 0
M  V30 11465 H 1053.21 -5.56092 4.19208 0
M  V30 11466 H 1050.83 -5.86805 4.83284 0
M  V30 11467 N 1052.41 -0.382291 -1.52893 0
M  V30 11468 C 1053.64 0.202114 -2.05609 0
M  V30 11469 C 1054.05 1.4164 -1.25438 0
M  V30 11470 O 1053.39 1.81359 -0.292324 0
M  V30 11471 C 1053.45 0.64356 -3.53693 0
M  V30 11472 C 1053.11 -0.456305 -4.54716 0
M  V30 11473 C 1054.11 -1.3115 -5.03086 0
M  V30 11474 C 1051.8 -0.621329 -4.98442 0
M  V30 11475 C 1053.79 -2.3169 -5.938 0
M  V30 11476 C 1051.48 -1.63008 -5.88958 0
M  V30 11477 C 1052.48 -2.47629 -6.36529 0
M  V30 11478 O 1052.16 -3.46781 -7.25257 0
M  V30 11479 H 1051.9 0.0358014 -0.675051 0
M  V30 11480 H 1054.45 -0.543935 -1.98067 0
M  V30 11481 H 1052.68 1.44148 -3.58829 0
M  V30 11482 H 1054.37 1.15284 -3.89184 0
M  V30 11483 H 1055.13 -1.19528 -4.70041 0
M  V30 11484 H 1051.01 0.027593 -4.60992 0
M  V30 11485 H 1054.56 -2.97776 -6.30853 0
M  V30 11486 H 1050.45 -1.74671 -6.21418 0
M  V30 11487 H 1051.22 -3.42707 -7.433 0
M  V30 11488 N 1053.89 1.57202 -0.111913 0
M  V30 11489 C 1055.11 1.99297 0.555713 0
M  V30 11490 C 1055.53 0.991444 1.60673 0
M  V30 11491 O 1054.89 -0.0166672 1.82492 0
M  V30 11492 C 1054.94 3.41413 1.18826 0
M  V30 11493 O 1054.66 4.37733 0.179261 0
M  V30 11494 C 1056.16 3.98602 1.93989 0
M  V30 11495 H 1053.38 0.654543 0.147695 0
M  V30 11496 H 1055.92 2.03557 -0.196163 0
M  V30 11497 H 1054.08 3.38115 1.89096 0
M  V30 11498 H 1054.49 5.20606 0.637935 0
M  V30 11499 H 1055.97 5.00143 2.33584 0
M  V30 11500 H 1056.44 3.37349 2.81233 0
M  V30 11501 H 1057.05 4.05424 1.28497 0
M  V30 11502 N 1055.36 -0.161842 1.56767 0
M  V30 11503 C 1056.61 -0.875278 1.81719 0
M  V30 11504 C 1056.93 -1.82998 0.690739 0
M  V30 11505 O 1058.13 -2.58648 0.82545 0
M  V30 11506 C 1056.59 -1.60703 3.22029 0
M  V30 11507 C 1056.2 -0.695486 4.42569 0
M  V30 11508 C 1057.94 -2.30813 3.56266 0
M  V30 11509 C 1055.85 -1.42801 5.73901 0
M  V30 11510 H 1054.78 -0.330591 0.677662 0
M  V30 11511 H 1057.43 -0.128112 1.83052 0
M  V30 11512 H 1055.81 -2.39929 3.1504 0
M  V30 11513 H 1056.98 0.0604882 4.6076 0
M  V30 11514 H 1055.3 -0.10356 4.16271 0
M  V30 11515 H 1057.9 -2.86229 4.51638 0
M  V30 11516 H 1058.24 -3.06603 2.81604 0
M  V30 11517 H 1058.77 -1.5852 3.64851 0
M  V30 11518 H 1055.51 -0.712253 6.51619 0
M  V30 11519 H 1055.03 -2.15707 5.5967 0
M  V30 11520 H 1056.71 -1.97295 6.16185 0
M  V30 11521 N 1056.84 -1.516 -0.430713 0
M  V30 11522 C 1057.79 -1.73392 -1.52328 0
M  V30 11523 C 1058.76 -0.575758 -1.55802 0
M  V30 11524 O 1059.94 -0.810931 -1.72709 0
M  V30 11525 C 1057.08 -1.87092 -2.89984 0
M  V30 11526 C 1056.2 -3.14668 -2.95987 0
M  V30 11527 C 1055.33 -3.18923 -4.24807 0
M  V30 11528 C 1054.37 -4.40787 -4.24703 0
M  V30 11529 N 1053.51 -4.42556 -5.45059 0
M  V30 11530 H 1058.35 -2.6665 -1.33048 0
M  V30 11531 H 1055.88 -1.32146 -0.646207 0
M  V30 11532 H 1057.84 -1.93017 -3.69865 0
M  V30 11533 H 1056.47 -0.972363 -3.07807 0
M  V30 11534 H 1055.52 -3.1802 -2.08728 0
M  V30 11535 H 1056.84 -4.04562 -2.91772 0
M  V30 11536 H 1055.99 -3.23801 -5.13067 0
M  V30 11537 H 1054.73 -2.2693 -4.31688 0
M  V30 11538 H 1053.73 -4.36079 -3.34836 0
M  V30 11539 H 1054.96 -5.34053 -4.19481 0
M  V30 11540 H 1052.91 -3.53435 -5.52648 0
M  V30 11541 H 1052.82 -5.26267 -5.42751 0
M  V30 11542 H 1054.09 -4.51634 -6.35332 0
M  V30 11543 N 1058.32 0.686584 -1.41858 0
M  V30 11544 C 1059.23 1.83002 -1.46791 0
M  V30 11545 C 1060.25 1.70284 -0.357675 0
M  V30 11546 O 1061.42 1.92042 -0.606781 0
M  V30 11547 C 1058.49 3.19056 -1.35661 0
M  V30 11548 C 1057.55 3.43817 -2.57077 0
M  V30 11549 C 1056.78 4.7338 -2.46469 0
M  V30 11550 O 1057 5.50483 -1.49413 0
M  V30 11551 O 1055.94 4.99124 -3.36391 0
M  V30 11552 H 1059.76 1.81797 -2.43277 0
M  V30 11553 H 1057.35 0.840812 -1.23494 0
M  V30 11554 H 1059.23 4.00267 -1.31773 0
M  V30 11555 H 1057.91 3.20925 -0.422951 0
M  V30 11556 H 1056.81 2.625 -2.66541 0
M  V30 11557 H 1058.15 3.4677 -3.49302 0
M  V30 11558 N 1059.8 1.27835 0.921735 0
M  V30 11559 C 1061.05 1.14296 1.66676 0
M  V30 11560 C 1061.37 -0.310493 1.92512 0
M  V30 11561 O 1060.64 -1.21637 1.53562 0
M  V30 11562 H 1059.22 0.419994 0.617749 0
M  V30 11563 H 1061.88 1.60449 1.10644 0
M  V30 11564 H 1060.97 1.67654 2.63246 0
M  V30 11565 N 1061.28 -1.12907 1.09954 0
M  V30 11566 C 1062.21 -2.17589 0.687769 0
M  V30 11567 C 1063.19 -1.59648 -0.308444 0
M  V30 11568 O 1064.37 -1.87343 -0.208527 0
M  V30 11569 C 1061.5 -3.38697 0.0140519 0
M  V30 11570 C 1060.54 -4.15254 0.972942 0
M  V30 11571 S 1061.38 -4.74205 2.48777 0
M  V30 11572 C 1062.53 -5.98653 1.82662 0
M  V30 11573 H 1062.77 -2.52181 1.57455 0
M  V30 11574 H 1060.3 -1.24289 0.916051 0
M  V30 11575 H 1062.26 -4.08844 -0.368343 0
M  V30 11576 H 1060.92 -3.02396 -0.849456 0
M  V30 11577 H 1060.11 -5.01999 0.448715 0
M  V30 11578 H 1059.71 -3.5079 1.297 0
M  V30 11579 H 1062 -6.67602 1.15388 0
M  V30 11580 H 1062.95 -6.55693 2.67343 0
M  V30 11581 H 1063.36 -5.49486 1.29325 0
M  V30 11582 N 1062.75 -0.88754 -1.30232 0
M  V30 11583 C 1063.98 -0.521549 -1.99909 0
M  V30 11584 C 1064.39 0.895086 -1.66688 0
M  V30 11585 O 1063.73 1.60053 -0.90159 0
M  V30 11586 C 1063.8 -0.619564 -3.54121 0
M  V30 11587 C 1063.46 -2.00097 -4.10865 0
M  V30 11588 C 1064.46 -2.97068 -4.26669 0
M  V30 11589 C 1062.14 -2.30706 -4.46184 0
M  V30 11590 C 1064.14 -4.2278 -4.77007 0
M  V30 11591 C 1061.82 -3.56663 -4.96221 0
M  V30 11592 C 1062.82 -4.52515 -5.11585 0
M  V30 11593 O 1062.51 -5.76237 -5.60541 0
M  V30 11594 H 1062.24 -0.199904 -0.645766 0
M  V30 11595 H 1064.8 -1.19546 -1.67027 0
M  V30 11596 H 1063.03 0.111334 -3.8654 0
M  V30 11597 H 1064.71 -0.26448 -4.05037 0
M  V30 11598 H 1065.48 -2.74734 -3.99683 0
M  V30 11599 H 1061.36 -1.56865 -4.33491 0
M  V30 11600 H 1064.9 -4.97603 -4.88914 0
M  V30 11601 H 1060.8 -3.78834 -5.22643 0
M  V30 11602 H 1061.57 -5.78655 -5.78879 0
M  V30 11603 N 1064.23 1.43628 -0.648757 0
M  V30 11604 C 1065.18 2.30755 0.0455536 0
M  V30 11605 C 1066.15 1.44495 0.819168 0
M  V30 11606 O 1067.33 1.73372 0.79667 0
M  V30 11607 C 1064.47 3.30017 1.00908 0
M  V30 11608 C 1063.59 4.31376 0.232039 0
M  V30 11609 C 1062.72 5.17723 1.18897 0
M  V30 11610 C 1061.76 6.10778 0.402096 0
M  V30 11611 N 1060.9 6.89763 1.31038 0
M  V30 11612 H 1065.74 2.89581 -0.70332 0
M  V30 11613 H 1063.28 1.42662 -0.3586 0
M  V30 11614 H 1065.23 3.86072 1.58128 0
M  V30 11615 H 1063.86 2.72851 1.72488 0
M  V30 11616 H 1062.92 3.77652 -0.456373 0
M  V30 11617 H 1064.23 4.9735 -0.380023 0
M  V30 11618 H 1063.38 5.78381 1.83194 0
M  V30 11619 H 1062.12 4.51864 1.83494 0
M  V30 11620 H 1061.13 5.49212 -0.254255 0
M  V30 11621 H 1062.35 6.78678 -0.239411 0
M  V30 11622 H 1060.3 6.26557 1.94324 0
M  V30 11623 H 1060.21 7.52243 0.752774 0
M  V30 11624 H 1061.48 7.54931 1.94164 0
M  V30 11625 N 1065.71 0.390394 1.52688 0
M  V30 11626 C 1066.67 -0.432149 2.25089 0
M  V30 11627 C 1067.67 -0.989296 1.26766 0
M  V30 11628 O 1068.86 -0.871126 1.50854 0
M  V30 11629 C 1066 -1.60642 3.00678 0
M  V30 11630 H 1067.19 0.201734 2.99221 0
M  V30 11631 H 1064.74 0.142531 1.55649 0
M  V30 11632 H 1065.48 -2.2777 2.3085 0
M  V30 11633 H 1065.26 -1.21361 3.72846 0
M  V30 11634 H 1066.75 -2.18873 3.55647 0
M  V30 11635 N 1067.19 -1.57141 0.120249 0
M  V30 11636 C 1068.12 -2.18398 -0.826112 0
M  V30 11637 C 1069.1 -1.12439 -1.27638 0
M  V30 11638 O 1070.28 -1.40679 -1.33877 0
M  V30 11639 C 1067.41 -2.78438 -2.0758 0
M  V30 11640 C 1066.37 -3.89991 -1.76327 0
M  V30 11641 C 1065.69 -4.36844 -3.08336 0
M  V30 11642 C 1066.99 -5.12031 -1.03062 0
M  V30 11643 H 1068.69 -2.97731 -0.315656 0
M  V30 11644 H 1066.23 -1.43213 -0.150387 0
M  V30 11645 H 1068.19 -3.19951 -2.74243 0
M  V30 11646 H 1066.91 -1.96396 -2.60953 0
M  V30 11647 H 1065.57 -3.49055 -1.12053 0
M  V30 11648 H 1065.22 -3.51659 -3.59646 0
M  V30 11649 H 1064.92 -5.1207 -2.88199 0
M  V30 11650 H 1066.44 -4.81009 -3.76116 0
M  V30 11651 H 1067.86 -5.50555 -1.59881 0
M  V30 11652 H 1066.25 -5.92848 -0.930146 0
M  V30 11653 H 1067.32 -4.84897 -0.017582 0
M  V30 11654 N 1068.67 0.153526 -1.5685 0
M  V30 11655 C 1069.61 1.20896 -1.98713 0
M  V30 11656 C 1070.61 1.44839 -0.878529 0
M  V30 11657 O 1071.81 1.45208 -1.0637 0
M  V30 11658 H 1068.19 0.406797 -0.632472 0
M  V30 11659 H 1070.16 0.829145 -2.86649 0
M  V30 11660 C 1068.91 2.53642 -2.37825 0
M  V30 11661 H 1068.23 2.36047 -3.22679 0
M  V30 11662 H 1069.67 3.26136 -2.70946 0
M  V30 11663 C 1068.13 3.13706 -1.22841 0
M  V30 11664 O 1068.66 3.98246 -0.525626 0
M  V30 11665 N 1066.87 2.73059 -0.99435 0
M  V30 11666 H 1066.41 2.0441 -1.56761 0
M  V30 11667 H 1066.37 3.1358 -0.226883 0
M  V30 11668 N 1070.14 1.51827 0.422667 0
M  V30 11669 C 1071.37 1.68803 1.19117 0
M  V30 11670 C 1071.78 0.391228 1.85111 0
M  V30 11671 O 1071.13 -0.64148 1.72136 0
M  V30 11672 C 1071.19 2.75767 2.30636 0
M  V30 11673 C 1070.85 4.17929 1.8489 0
M  V30 11674 C 1071.85 5.02223 1.34416 0
M  V30 11675 C 1069.53 4.641 1.92136 0
M  V30 11676 C 1071.53 6.30756 0.917925 0
M  V30 11677 C 1069.21 5.92626 1.49123 0
M  V30 11678 C 1070.21 6.75782 0.990352 0
M  V30 11679 O 1069.9 8.01902 0.566386 0
M  V30 11680 H 1069.63 0.569303 0.364514 0
M  V30 11681 H 1072.19 1.9909 0.505208 0
M  V30 11682 H 1070.42 2.40827 3.02555 0
M  V30 11683 H 1072.11 2.81476 2.92448 0
M  V30 11684 H 1072.87 4.67749 1.28202 0
M  V30 11685 H 1068.75 3.99488 2.30066 0
M  V30 11686 H 1072.29 6.95612 0.52628 0
M  V30 11687 H 1068.19 6.26611 1.55012 0
M  V30 11688 H 1068.96 8.15579 0.690918 0
M  V30 11689 N 1071.62 -0.679052 1.4222 0
M  V30 11690 C 1072.55 -1.80455 1.41311 0
M  V30 11691 C 1073.57 -1.59767 0.312799 0
M  V30 11692 O 1074.76 -1.68964 0.575612 0
M  V30 11693 C 1071.86 -3.17492 1.18541 0
M  V30 11694 C 1071.03 -3.65066 2.40926 0
M  V30 11695 C 1070.09 -4.80823 2.13765 0
M  V30 11696 O 1069.11 -4.91587 2.86934 0
M  V30 11697 N 1070.32 -5.69233 1.13813 0
M  V30 11698 H 1073.08 -1.81722 2.38322 0
M  V30 11699 H 1070.64 -0.861988 1.37045 0
M  V30 11700 H 1072.63 -3.92581 0.982958 0
M  V30 11701 H 1071.2 -3.1115 0.300691 0
M  V30 11702 H 1070.42 -2.80702 2.76767 0
M  V30 11703 H 1071.71 -3.93593 3.22431 0
M  V30 11704 H 1071.11 -5.63185 0.532887 0
M  V30 11705 H 1069.67 -6.44152 0.995554 0
M  V30 11706 N 1073.1 -1.28322 -0.914942 0
M  V30 11707 C 1074.06 -1.12169 -1.99877 0
M  V30 11708 C 1075.06 -0.0617252 -1.60681 0
M  V30 11709 O 1076.25 -0.307405 -1.71466 0
M  V30 11710 C 1073.39 -0.711959 -3.33383 0
M  V30 11711 H 1074.58 -2.08425 -2.15636 0
M  V30 11712 H 1072.13 -1.11291 -1.09745 0
M  V30 11713 H 1072.87 0.251418 -3.23324 0
M  V30 11714 H 1072.65 -1.47764 -3.63192 0
M  V30 11715 H 1074.14 -0.621558 -4.12948 0
M  V30 11716 N 1074.58 1.12322 -1.10551 0
M  V30 11717 C 1075.51 2.17819 -0.713263 0
M  V30 11718 C 1076.52 1.6086 0.250604 0
M  V30 11719 O 1077.71 1.78466 0.0348909 0
M  V30 11720 C 1074.81 3.38885 -0.0320325 0
M  V30 11721 C 1073.99 4.25332 -1.02038 0
M  V30 11722 C 1073.04 5.24895 -0.370412 0
M  V30 11723 O 1072.07 5.59958 -1.02157 0
M  V30 11724 N 1073.27 5.73934 0.870633 0
M  V30 11725 H 1076.04 2.52083 -1.62094 0
M  V30 11726 H 1073.6 1.27755 -0.994492 0
M  V30 11727 H 1075.59 4.02574 0.414285 0
M  V30 11728 H 1074.16 3.02762 0.778072 0
M  V30 11729 H 1073.38 3.5824 -1.64492 0
M  V30 11730 H 1074.67 4.79936 -1.68936 0
M  V30 11731 H 1074.07 5.47614 1.419 0
M  V30 11732 H 1072.62 6.39504 1.26008 0
M  V30 11733 N 1076.06 0.894434 1.2976 0
M  V30 11734 C 1077.02 0.373094 2.26143 0
M  V30 11735 C 1078.02 -0.489756 1.5316 0
M  V30 11736 O 1079.21 -0.29556 1.71674 0
M  V30 11737 C 1076.34 -0.467234 3.37683 0
M  V30 11738 H 1077.53 1.22427 2.73773 0
M  V30 11739 H 1075.09 0.672112 1.41111 0
M  V30 11740 H 1075.82 -1.33861 2.95384 0
M  V30 11741 H 1075.61 0.150954 3.91809 0
M  V30 11742 H 1077.1 -0.823469 4.094 0
M  V30 11743 N 1077.53 -1.43282 0.656365 0
M  V30 11744 C 1078.46 -2.33492 -0.0196962 0
M  V30 11745 C 1079.45 -1.49647 -0.80868 0
M  V30 11746 O 1080.63 -1.78303 -0.769529 0
M  V30 11747 C 1077.76 -3.33052 -0.984574 0
M  V30 11748 C 1076.71 -4.26908 -0.305483 0
M  V30 11749 C 1076.04 -5.16531 -1.38202 0
M  V30 11750 C 1077.34 -5.16073 0.804081 0
M  V30 11751 H 1079.03 -2.90272 0.733661 0
M  V30 11752 H 1076.58 -1.39574 0.354259 0
M  V30 11753 H 1078.53 -3.9506 -1.46647 0
M  V30 11754 H 1077.26 -2.74535 -1.76913 0
M  V30 11755 H 1075.92 -3.66268 0.155995 0
M  V30 11756 H 1075.56 -4.54351 -2.1581 0
M  V30 11757 H 1075.26 -5.80148 -0.932878 0
M  V30 11758 H 1076.79 -5.81414 -1.86522 0
M  V30 11759 H 1078.2 -5.71873 0.404212 0
M  V30 11760 H 1076.6 -5.88427 1.17789 0
M  V30 11761 H 1077.67 -4.55574 1.66073 0
M  V30 11762 N 1079.01 -0.398486 -1.52479 0
M  V30 11763 C 1079.92 0.439328 -2.3045 0
M  V30 11764 C 1080.94 1.06322 -1.37738 0
M  V30 11765 O 1082.12 1.06704 -1.7081 0
M  V30 11766 C 1079.18 1.54655 -3.10294 0
M  V30 11767 C 1078.24 0.946824 -4.18729 0
M  V30 11768 C 1077.47 2.00129 -4.94757 0
M  V30 11769 O 1077.7 3.2178 -4.70971 0
M  V30 11770 O 1076.63 1.61345 -5.79872 0
M  V30 11771 H 1080.46 -0.196118 -3.03066 0
M  V30 11772 H 1078.04 -0.161961 -1.4852 0
M  V30 11773 H 1079.92 2.18958 -3.60049 0
M  V30 11774 H 1078.6 2.1668 -2.40482 0
M  V30 11775 H 1077.51 0.266802 -3.73147 0
M  V30 11776 H 1078.84 0.370664 -4.90802 0
M  V30 11777 N 1080.49 1.57075 -0.12858 0
M  V30 11778 C 1081.4 2.19369 0.831533 0
M  V30 11779 C 1082.42 1.17258 1.28555 0
M  V30 11780 O 1083.59 1.49766 1.34656 0
M  V30 11781 C 1080.66 2.78846 2.06024 0
M  V30 11782 C 1079.72 3.96024 1.65722 0
M  V30 11783 C 1078.95 4.52655 2.82735 0
M  V30 11784 O 1079.18 4.08175 3.98434 0
M  V30 11785 O 1078.11 5.43198 2.59268 0
M  V30 11786 H 1081.94 3.01887 0.331352 0
M  V30 11787 H 1079.52 1.49081 0.0975226 0
M  V30 11788 H 1081.4 3.16721 2.77967 0
M  V30 11789 H 1080.08 1.99353 2.5503 0
M  V30 11790 H 1078.98 3.62899 0.908574 0
M  V30 11791 H 1080.32 4.76981 1.21449 0
M  V30 11792 N 1081.97 -0.145205 1.5693 0
M  V30 11793 C 1083.22 -0.855955 1.82637 0
M  V30 11794 C 1083.53 -1.82255 0.710109 0
M  V30 11795 O 1084.74 -2.57758 0.852837 0
M  V30 11796 C 1083.19 -1.57278 3.23715 0
M  V30 11797 C 1082.8 -0.648507 4.43281 0
M  V30 11798 C 1084.55 -2.27021 3.58695 0
M  V30 11799 C 1082.45 -1.36706 5.75383 0
M  V30 11800 H 1081.38 -0.323385 0.68113 0
M  V30 11801 H 1084.03 -0.10869 1.83178 0
M  V30 11802 H 1082.42 -2.36574 3.17567 0
M  V30 11803 H 1083.59 0.109355 4.6067 0
M  V30 11804 H 1081.9 -0.0594029 4.16358 0
M  V30 11805 H 1084.5 -2.81423 4.54648 0
M  V30 11806 H 1084.84 -3.03598 2.8484 0
M  V30 11807 H 1085.38 -1.54642 3.66512 0
M  V30 11808 H 1082.12 -0.6431 6.52338 0
M  V30 11809 H 1081.64 -2.09759 5.61926 0
M  V30 11810 H 1083.32 -1.90748 6.18243 0
M  V30 11811 N 1083.45 -1.52049 -0.414609 0
M  V30 11812 C 1084.7 -1.65067 -1.15912 0
M  V30 11813 C 1085.01 -0.383969 -1.91794 0
M  V30 11814 O 1086.22 -0.393872 -2.68628 0
M  V30 11815 C 1084.67 -2.91611 -2.1093 0
M  V30 11816 C 1084.28 -4.25369 -1.4059 0
M  V30 11817 C 1086.02 -3.13992 -2.85674 0
M  V30 11818 C 1083.93 -5.43041 -2.34223 0
M  V30 11819 H 1082.86 -0.614884 -0.436387 0
M  V30 11820 H 1085.51 -1.78533 -0.424072 0
M  V30 11821 H 1083.89 -2.71831 -2.87965 0
M  V30 11822 H 1085.07 -4.55611 -0.689568 0
M  V30 11823 H 1083.38 -4.09047 -0.779088 0
M  V30 11824 H 1085.98 -3.99082 -3.55861 0
M  V30 11825 H 1086.32 -2.27998 -3.48314 0
M  V30 11826 H 1086.86 -3.34217 -2.1574 0
M  V30 11827 H 1083.59 -6.31364 -1.76238 0
M  V30 11828 H 1083.11 -5.17144 -3.03845 0
M  V30 11829 H 1084.79 -5.75901 -2.94868 0
M  V30 11830 N 1084.93 0.6715 -1.42579 0
M  V30 11831 C 1085.87 1.78496 -1.46314 0
M  V30 11832 C 1086.84 1.63091 -0.314743 0
M  V30 11833 O 1088.03 1.83597 -0.519292 0
M  V30 11834 C 1085.17 3.16548 -1.37447 0
M  V30 11835 C 1084.28 3.43216 -2.62348 0
M  V30 11836 C 1083.42 4.71014 -2.456 0
M  V30 11837 C 1082.45 4.90728 -3.65859 0
M  V30 11838 N 1081.59 6.09769 -3.48032 0
M  V30 11839 H 1086.43 1.74638 -2.41466 0
M  V30 11840 H 1083.97 0.852491 -1.19879 0
M  V30 11841 H 1085.93 3.96329 -1.30303 0
M  V30 11842 H 1084.56 3.19522 -0.458891 0
M  V30 11843 H 1083.61 2.57664 -2.79846 0
M  V30 11844 H 1084.92 3.53675 -3.51732 0
M  V30 11845 H 1084.07 5.58892 -2.3606 0
M  V30 11846 H 1082.81 4.62843 -1.53712 0
M  V30 11847 H 1081.82 4.01291 -3.75827 0
M  V30 11848 H 1083.04 5.00741 -4.58732 0
M  V30 11849 H 1080.99 6.02765 -2.58864 0
M  V30 11850 H 1080.91 6.21104 -4.31005 0
M  V30 11851 H 1082.17 7.00317 -3.42311 0
M  V30 11852 N 1086.4 1.28806 0.908124 0
M  V30 11853 C 1087.63 1.1898 1.689 0
M  V30 11854 C 1088.04 -0.253334 1.87496 0
M  V30 11855 O 1087.38 -1.18245 1.40584 0
M  V30 11856 C 1087.45 1.82266 3.0987 0
M  V30 11857 C 1087.11 3.31534 3.14538 0
M  V30 11858 C 1088.11 4.27886 2.95313 0
M  V30 11859 C 1085.79 3.72589 3.36872 0
M  V30 11860 C 1087.79 5.63267 2.98343 0
M  V30 11861 C 1085.47 5.08095 3.39534 0
M  V30 11862 C 1086.47 6.03244 3.2029 0
M  V30 11863 O 1086.16 7.36277 3.22724 0
M  V30 11864 H 1085.89 0.413772 0.534574 0
M  V30 11865 H 1088.45 1.7055 1.14464 0
M  V30 11866 H 1086.68 1.25197 3.65872 0
M  V30 11867 H 1088.36 1.6688 3.70008 0
M  V30 11868 H 1089.13 3.97502 2.77879 0
M  V30 11869 H 1085.01 2.98989 3.50894 0
M  V30 11870 H 1088.55 6.37511 2.83241 0
M  V30 11871 H 1084.45 5.38126 3.56497 0
M  V30 11872 H 1085.22 7.44976 3.39048 0
M  V30 11873 N 1087.88 -1.11734 1.11145 0
M  V30 11874 C 1089.3 -1.35412 0.844736 0
M  V30 11875 C 1089.5 -1.94347 -0.532111 0
M  V30 11876 O 1088.55 -2.17443 -1.28353 0
M  V30 11877 C 1089.87 -2.28869 1.95037 0
M  V30 11878 C 1091.41 -2.42442 1.97967 0
M  V30 11879 C 1091.89 -3.39219 3.07725 0
M  V30 11880 N 1093.38 -3.4678 3.07079 0
M  V30 11881 C 1094.12 -4.21595 3.88646 0
M  V30 11882 N 1093.61 -4.99411 4.80167 0
M  V30 11883 N 1095.4 -4.17075 3.76835 0
M  V30 11884 H 1087.56 -0.718412 1.99881 0
M  V30 11885 H 1089.82 -0.378787 0.869037 0
M  V30 11886 H 1089.52 -1.92752 2.94176 0
M  V30 11887 H 1089.4 -3.2906 1.84389 0
M  V30 11888 H 1091.79 -2.77835 0.994561 0
M  V30 11889 H 1091.87 -1.42113 2.12691 0
M  V30 11890 H 1091.51 -3.04553 4.0646 0
M  V30 11891 H 1091.44 -4.39394 2.90242 0
M  V30 11892 H 1093.93 -2.91272 2.40767 0
M  V30 11893 H 1094.24 -5.53856 5.38946 0
M  V30 11894 H 1092.59 -4.98582 4.84191 0
M  V30 11895 H 1095.78 -3.55369 3.04681 0
M  V30 11896 H 1095.95 -4.75125 4.40637 0
M  V30 11897 N 1089.36 -0.901303 -1.29284 0
M  V30 11898 C 1090.59 -0.542723 -1.99344 0
M  V30 11899 C 1091 0.877357 -1.67628 0
M  V30 11900 O 1090.34 1.59088 -0.918515 0
M  V30 11901 C 1090.4 -0.657088 -3.53444 0
M  V30 11902 C 1090.07 -2.04444 -4.0872 0
M  V30 11903 C 1091.06 -3.01577 -4.23494 0
M  V30 11904 C 1088.75 -2.35425 -4.43712 0
M  V30 11905 C 1090.74 -4.27816 -4.72496 0
M  V30 11906 C 1088.43 -3.61906 -4.9241 0
M  V30 11907 C 1089.43 -4.57916 -5.06757 0
M  V30 11908 O 1089.12 -5.8215 -5.54397 0
M  V30 11909 H 1088.85 -0.206742 -0.64361 0
M  V30 11910 H 1091.4 -1.21311 -1.65749 0
M  V30 11911 H 1089.63 0.0703305 -3.86636 0
M  V30 11912 H 1091.32 -0.307425 -4.04734 0
M  V30 11913 H 1092.09 -2.78957 -3.96747 0
M  V30 11914 H 1087.97 -1.61454 -4.31803 0
M  V30 11915 H 1091.51 -5.0276 -4.83609 0
M  V30 11916 H 1087.41 -3.84356 -5.18595 0
M  V30 11917 H 1088.17 -5.84762 -5.72709 0
M  V30 11918 N 1090.84 1.42931 -0.663954 0
M  V30 11919 C 1091.79 2.32577 0.03287 0
M  V30 11920 C 1092.78 1.49217 0.801918 0
M  V30 11921 O 1093.99 1.65358 0.711106 0
M  V30 11922 H 1090.36 0.751424 0.0294198 0
M  V30 11923 H 1092.33 2.89059 -0.740763 0
M  V30 11924 C 1091.08 3.33661 0.978025 0
M  V30 11925 H 1090.4 3.97837 0.395681 0
M  V30 11926 H 1091.84 3.98997 1.43448 0
M  V30 11927 C 1090.3 2.65085 2.07922 0
M  V30 11928 O 1090.83 2.4745 3.16435 0
M  V30 11929 N 1089.04 2.24285 1.84783 0
M  V30 11930 H 1088.59 2.38827 0.965368 0
M  V30 11931 H 1088.54 1.78732 2.58655 0
M  V30 11932 N 1092.32 0.406567 1.52266 0
M  V30 11933 C 1093.56 -0.171391 2.00971 0
M  V30 11934 C 1093.88 -1.46443 1.29668 0
M  V30 11935 O 1095.08 -2.12348 1.69176 0
M  V30 11936 C 1093.54 -0.35599 3.58135 0
M  V30 11937 C 1093.15 0.924803 4.38351 0
M  V30 11938 C 1094.89 -0.889378 4.15079 0
M  V30 11939 C 1092.8 0.707534 5.87152 0
M  V30 11940 H 1091.73 -0.0678253 0.750943 0
M  V30 11941 H 1094.38 0.531619 1.7563 0
M  V30 11942 H 1092.76 -1.12127 3.79794 0
M  V30 11943 H 1093.94 1.69603 4.28452 0
M  V30 11944 H 1092.25 1.38442 3.92712 0
M  V30 11945 H 1094.85 -1.06792 5.23927 0
M  V30 11946 H 1095.19 -1.86334 3.7227 0
M  V30 11947 H 1095.72 -0.183224 3.97378 0
M  V30 11948 H 1092.46 1.65299 6.34316 0
M  V30 11949 H 1091.98 -0.024446 5.99795 0
M  V30 11950 H 1093.66 0.348721 6.4606 0
M  V30 11951 N 1093.79 -1.57004 0.136909 0
M  V30 11952 C 1095.02 -1.99866 -0.523177 0
M  V30 11953 C 1095.43 -1.01584 -1.59616 0
M  V30 11954 O 1094.78 -0.00326426 -1.837 0
M  V30 11955 C 1094.84 -3.39157 -1.19217 0
M  V30 11956 C 1094.5 -4.56231 -0.265 0
M  V30 11957 C 1095.5 -5.17457 0.503412 0
M  V30 11958 C 1093.18 -5.02009 -0.170846 0
M  V30 11959 C 1095.18 -6.22863 1.35353 0
M  V30 11960 C 1092.86 -6.07273 0.682884 0
M  V30 11961 C 1093.86 -6.67568 1.44369 0
M  V30 11962 O 1093.55 -7.70795 2.28321 0
M  V30 11963 H 1093.28 -0.661005 -0.141593 0
M  V30 11964 H 1095.84 -2.04159 0.225445 0
M  V30 11965 H 1094.07 -3.31672 -1.98823 0
M  V30 11966 H 1095.76 -3.66191 -1.75096 0
M  V30 11967 H 1096.52 -4.82994 0.440648 0
M  V30 11968 H 1092.4 -4.54813 -0.752744 0
M  V30 11969 H 1095.94 -6.69855 1.94783 0
M  V30 11970 H 1091.84 -6.41163 0.746978 0
M  V30 11971 H 1092.61 -7.87971 2.21458 0
M  V30 11972 N 1095.27 0.136881 -1.57004 0
M  V30 11973 C 1096.5 0.866405 -1.88436 0
M  V30 11974 C 1096.92 1.73483 -0.727006 0
M  V30 11975 O 1096.28 1.78398 0.323094 0
M  V30 11976 C 1096.33 1.69059 -3.18514 0
M  V30 11977 O 1095.43 2.79584 -3.03161 0
M  V30 11978 H 1094.77 0.240709 -0.618834 0
M  V30 11979 H 1097.3 0.124653 -2.0422 0
M  V30 11980 H 1097.31 2.08353 -3.50789 0
M  V30 11981 H 1095.99 1.05296 -4.0235 0
M  V30 11982 H 1094.57 2.43623 -2.82315 0
M  V30 11983 N 1096.75 1.52266 0.40654 0
M  V30 11984 C 1097.66 1.78688 1.52012 0
M  V30 11985 C 1098.68 0.6726 1.60475 0
M  V30 11986 O 1099.85 0.95829 1.77141 0
M  V30 11987 C 1096.92 1.93434 2.87722 0
M  V30 11988 C 1095.98 3.17341 2.89125 0
M  V30 11989 C 1095.21 3.31374 4.18362 0
M  V30 11990 O 1095.43 2.50613 5.12396 0
M  V30 11991 O 1094.37 4.24539 4.26674 0
M  V30 11992 H 1098.19 2.73213 1.3262 0
M  V30 11993 H 1095.78 1.37142 0.592653 0
M  V30 11994 H 1097.66 2.04941 3.68208 0
M  V30 11995 H 1096.34 1.02099 3.07177 0
M  V30 11996 H 1095.24 3.1129 2.07483 0
M  V30 11997 H 1096.58 4.08466 2.7462 0
M  V30 11998 N 1098.23 -0.663929 1.42933 0
M  V30 11999 C 1099.18 -1.77717 1.47259 0
M  V30 12000 C 1100.15 -1.62922 0.323387 0
M  V30 12001 O 1101.33 -1.83319 0.529021 0
M  V30 12002 C 1098.47 -3.15814 1.39124 0
M  V30 12003 C 1097.58 -3.4182 2.64165 0
M  V30 12004 C 1096.72 -4.69705 2.48094 0
M  V30 12005 C 1095.76 -4.88781 3.68456 0
M  V30 12006 N 1094.89 -6.07915 3.51261 0
M  V30 12007 H 1099.73 -1.73355 2.42388 0
M  V30 12008 H 1097.27 -0.846121 1.2033 0
M  V30 12009 H 1099.23 -3.95633 1.32403 0
M  V30 12010 H 1097.86 -3.19274 0.475829 0
M  V30 12011 H 1096.91 -2.56176 2.81208 0
M  V30 12012 H 1098.22 -3.51805 3.53602 0
M  V30 12013 H 1097.38 -5.57632 2.39021 0
M  V30 12014 H 1096.12 -4.62022 1.56164 0
M  V30 12015 H 1095.12 -3.99292 3.7795 0
M  V30 12016 H 1096.35 -4.98301 4.61381 0
M  V30 12017 H 1094.29 -6.01384 2.62057 0
M  V30 12018 H 1094.21 -6.1881 4.34293 0
M  V30 12019 H 1095.48 -6.98492 3.4602 0
M  V30 12020 N 1099.71 -1.29285 -0.901281 0
M  V30 12021 C 1100.62 -1.16161 -2.03823 0
M  V30 12022 C 1101.63 -0.0852298 -1.73791 0
M  V30 12023 O 1102.81 -0.29699 -1.99198 0
M  V30 12024 C 1099.87 -0.837586 -3.3643 0
M  V30 12025 C 1098.93 -1.99764 -3.7999 0
M  V30 12026 C 1098.17 -1.68898 -5.0627 0
M  V30 12027 O 1098.39 -0.609177 -5.67138 0
M  V30 12028 O 1097.32 -2.53648 -5.45845 0
M  V30 12029 H 1101.15 -2.11635 -2.17817 0
M  V30 12030 H 1098.74 -1.08722 -1.02468 0
M  V30 12031 H 1100.62 -0.671376 -4.16017 0
M  V30 12032 H 1099.29 0.0873811 -3.23582 0
M  V30 12033 H 1098.2 -2.21908 -3.01177 0
M  V30 12034 H 1099.53 -2.90376 -3.9742 0
M  V30 12035 N 1101.18 1.11143 -1.11736 0
M  V30 12036 C 1102.13 2.17274 -0.778513 0
M  V30 12037 C 1103.1 1.64186 0.251405 0
M  V30 12038 O 1104.29 1.90373 0.127629 0
M  V30 12039 C 1101.43 3.44324 -0.231246 0
M  V30 12040 C 1100.54 4.114 -1.31809 0
M  V30 12041 C 1099.67 5.26146 -0.73104 0
M  V30 12042 C 1098.71 5.85112 -1.79752 0
M  V30 12043 N 1097.85 6.91247 -1.22973 0
M  V30 12044 H 1102.69 2.45603 -1.68769 0
M  V30 12045 H 1100.23 1.20565 -0.842759 0
M  V30 12046 H 1102.19 4.1707 0.104045 0
M  V30 12047 H 1100.82 3.16369 0.641119 0
M  V30 12048 H 1099.87 3.36697 -1.77029 0
M  V30 12049 H 1101.18 4.51278 -2.12485 0
M  V30 12050 H 1100.33 6.05713 -0.345987 0
M  V30 12051 H 1099.07 4.87583 0.107 0
M  V30 12052 H 1098.08 5.0422 -2.19185 0
M  V30 12053 H 1099.3 6.25741 -2.63865 0
M  V30 12054 H 1097.25 6.54696 -0.41339 0
M  V30 12055 H 1097.17 7.29796 -1.97316 0
M  V30 12056 H 1098.43 7.74611 -0.87167 0
M  V30 12057 N 1102.66 0.908147 1.28804 0
M  V30 12058 C 1103.89 0.553431 1.9988 0
M  V30 12059 C 1104.31 -0.856714 1.67458 0
M  V30 12060 O 1103.67 -1.57163 0.903849 0
M  V30 12061 C 1103.72 0.762688 3.52442 0
M  V30 12062 O 1102.82 -0.180924 4.12003 0
M  V30 12063 H 1102.16 0.215237 0.628147 0
M  V30 12064 H 1104.69 1.22205 1.64095 0
M  V30 12065 H 1104.7 0.670612 4.02451 0
M  V30 12066 H 1103.38 1.79071 3.75375 0
M  V30 12067 H 1101.96 -0.0405897 3.72878 0
M  V30 12068 N 1104.14 -1.42577 0.671525 0
M  V30 12069 C 1105.09 -2.32591 -0.0205354 0
M  V30 12070 C 1106.08 -1.4964 -0.793993 0
M  V30 12071 O 1107.29 -1.65733 -0.702327 0
M  V30 12072 H 1103.66 -0.75157 -0.0254344 0
M  V30 12073 H 1105.63 -2.88662 0.756082 0
M  V30 12074 C 1104.38 -3.34175 -0.960316 0
M  V30 12075 H 1103.71 -3.98041 -0.374577 0
M  V30 12076 H 1105.15 -3.99752 -1.4133 0
M  V30 12077 C 1103.61 -2.66184 -2.06513 0
M  V30 12078 O 1104.14 -2.49125 -3.15119 0
M  V30 12079 N 1102.34 -2.25261 -1.83591 0
M  V30 12080 H 1101.89 -2.39336 -0.952689 0
M  V30 12081 H 1101.85 -1.80101 -2.57703 0
M  V30 12082 N 1105.62 -0.414636 -1.52048 0
M  V30 12083 C 1106.87 0.16073 -2.01059 0
M  V30 12084 C 1107.18 1.45753 -1.30443 0
M  V30 12085 O 1108.39 2.11448 -1.703 0
M  V30 12086 C 1106.84 0.336993 -3.58319 0
M  V30 12087 C 1106.45 -0.948037 -4.37854 0
M  V30 12088 C 1108.19 0.867353 -4.15545 0
M  V30 12089 C 1106.1 -0.738662 -5.86769 0
M  V30 12090 H 1105.03 0.0638419 -0.751292 0
M  V30 12091 H 1107.68 -0.540925 -1.75346 0
M  V30 12092 H 1106.06 1.10111 -3.80383 0
M  V30 12093 H 1107.24 -1.71873 -4.27547 0
M  V30 12094 H 1105.55 -1.40522 -3.91972 0
M  V30 12095 H 1108.15 1.04012 -5.24486 0
M  V30 12096 H 1108.49 1.84358 -3.73253 0
M  V30 12097 H 1109.03 0.162148 -3.97469 0
M  V30 12098 H 1105.77 -1.6866 -6.3343 0
M  V30 12099 H 1105.29 -0.00736294 -5.998 0
M  V30 12100 H 1106.96 -0.382978 -6.45866 0
M  V30 12101 N 1107.1 1.56929 -0.145233 0
M  V30 12102 C 1108.04 2.17958 0.812237 0
M  V30 12103 C 1109.04 1.13608 1.25657 0
M  V30 12104 O 1110.24 1.31861 1.22526 0
M  V30 12105 H 1106.62 0.697876 0.28013 0
M  V30 12106 H 1108.59 2.97146 0.273297 0
M  V30 12107 C 1107.34 2.81418 2.04203 0
M  V30 12108 H 1106.66 3.61427 1.70911 0
M  V30 12109 H 1108.1 3.27624 2.69144 0
M  V30 12110 C 1106.56 1.79835 2.84888 0
M  V30 12111 O 1107.09 1.26773 3.81171 0
M  V30 12112 N 1105.3 1.49179 2.49387 0
M  V30 12113 H 1104.84 1.9252 1.71154 0
M  V30 12114 H 1104.8 0.81458 3.03664 0
M  V30 12115 N 1108.58 -0.128553 1.57075 0
M  V30 12116 C 1109.82 -0.836536 1.83535 0
M  V30 12117 C 1110.14 -1.81491 0.7294 0
M  V30 12118 O 1111.34 -2.56838 0.880128 0
M  V30 12119 C 1109.8 -1.53836 3.25365 0
M  V30 12120 C 1109.41 -0.601454 4.43944 0
M  V30 12121 C 1111.15 -2.23204 3.61082 0
M  V30 12122 C 1109.06 -1.30596 5.768 0
M  V30 12123 H 1107.99 -0.316142 0.684522 0
M  V30 12124 H 1110.64 -0.0892555 1.83283 0
M  V30 12125 H 1109.02 -2.33192 3.20058 0
M  V30 12126 H 1110.2 0.158209 4.60528 0
M  V30 12127 H 1108.51 -0.0152393 4.16397 0
M  V30 12128 H 1111.11 -2.76585 4.57608 0
M  V30 12129 H 1111.45 -3.0056 2.88044 0
M  V30 12130 H 1111.98 -1.50746 3.68131 0
M  V30 12131 H 1108.72 -0.573874 6.52983 0
M  V30 12132 H 1108.24 -2.03787 5.6412 0
M  V30 12133 H 1109.92 -1.8418 6.20231 0
M  V30 12134 N 1110.05 -1.5248 -0.398459 0
M  V30 12135 C 1111.33 -1.57634 -1.15805 0
M  V30 12136 C 1111.71 -0.363785 -2.07942 0
M  V30 12137 O 1111.06 0.648598 -2.19101 0
M  V30 12138 C 1111.27 -2.91042 -1.92602 0
M  V30 12139 C 1112.62 -3.44433 -2.48296 0
M  V30 12140 O 1113.64 -2.92853 -2.0277 0
M  V30 12141 O 1112.5 -4.34529 -3.31432 0
M  V30 12142 H 1109.59 -0.63539 -0.529347 0
M  V30 12143 H 1112.14 -1.64812 -0.404376 0
M  V30 12144 H 1110.91 -3.7074 -1.25169 0
M  V30 12145 H 1110.53 -2.87206 -2.74952 0
M  V30 12146 N 1111.53 0.65634 -1.43283 0
M  V30 12147 C 1112.78 1.41627 -1.44734 0
M  V30 12148 C 1113.11 1.94372 -0.0704893 0
M  V30 12149 O 1112.36 1.72511 0.924037 0
M  V30 12150 C 1112.66 2.61688 -2.43421 0
M  V30 12151 C 1112.33 2.2738 -3.8937 0
M  V30 12152 C 1110.99 2.17735 -4.29121 0
M  V30 12153 C 1113.34 1.99863 -4.81357 0
M  V30 12154 C 1110.67 1.78725 -5.58815 0
M  V30 12155 C 1113.02 1.62352 -6.11412 0
M  V30 12156 C 1111.68 1.51231 -6.50143 0
M  V30 12157 H 1110.95 0.51825 -0.529621 0
M  V30 12158 H 1113.6 0.746701 -1.76342 0
M  V30 12159 H 1111.91 3.33763 -2.05206 0
M  V30 12160 H 1113.6 3.19896 -2.41801 0
M  V30 12161 H 1110.19 2.35795 -3.57908 0
M  V30 12162 H 1114.38 2.06237 -4.5142 0
M  V30 12163 H 1109.63 1.68698 -5.87666 0
M  V30 12164 H 1113.81 1.40091 -6.82164 0
M  V30 12165 H 1111.43 1.20774 -7.50545 0
M  V30 12166 N 1113.01 1.29761 0.894412 0
M  V30 12167 C 1113.96 1.15232 2.0205 0
M  V30 12168 C 1114.95 0.0665664 1.69269 0
M  V30 12169 O 1116.16 0.226746 1.78566 0
M  V30 12170 H 1112.53 0.356102 0.662341 0
M  V30 12171 H 1114.5 2.10559 2.11442 0
M  V30 12172 C 1113.25 0.851143 3.37121 0
M  V30 12173 H 1112.58 1.67865 3.62852 0
M  V30 12174 H 1114.02 0.78954 4.16584 0
M  V30 12175 C 1112.47 -0.445737 3.33938 0
M  V30 12176 O 1113 -1.47017 3.7383 0
M  V30 12177 N 1111.21 -0.453493 2.8704 0
M  V30 12178 H 1110.76 0.380636 2.54772 0
M  V30 12179 H 1110.72 -1.32119 2.85293 0
M  V30 12180 N 1114.49 -1.10549 1.12324 0
M  V30 12181 C 1115.76 -1.78968 0.789287 0
M  V30 12182 C 1116.14 -1.984 -0.721156 0
M  V30 12183 O 1115.49 -1.5761 -1.65443 0
M  V30 12184 C 1115.7 -3.12044 1.563 0
M  V30 12185 C 1117.05 -3.86939 1.74825 0
M  V30 12186 O 1118.07 -3.21761 1.52802 0
M  V30 12187 O 1116.93 -5.0392 2.11488 0
M  V30 12188 H 1114.03 -0.775617 0.286962 0
M  V30 12189 H 1116.57 -1.17209 1.2272 0
M  V30 12190 H 1115.35 -2.93313 2.59005 0
M  V30 12191 H 1114.97 -3.81521 1.11926 0
M  V30 12192 N 1115.97 -0.914965 -1.28321 0
M  V30 12193 C 1117.21 -0.544639 -1.94208 0
M  V30 12194 C 1117.53 0.916368 -1.72806 0
M  V30 12195 O 1118.73 1.39491 -2.32926 0
M  V30 12196 C 1117.19 -0.923209 -3.47858 0
M  V30 12197 C 1116.8 -2.40403 -3.78035 0
M  V30 12198 C 1118.54 -0.623526 -4.19896 0
M  V30 12199 C 1116.45 -2.72266 -5.25 0
M  V30 12200 H 1115.38 -0.199966 -0.727 0
M  V30 12201 H 1118.03 -1.11405 -1.45812 0
M  V30 12202 H 1116.41 -0.282576 -3.94991 0
M  V30 12203 H 1117.59 -3.09149 -3.41706 0
M  V30 12204 H 1115.9 -2.67429 -3.19172 0
M  V30 12205 H 1118.5 -0.838243 -5.28089 0
M  V30 12206 H 1118.84 0.438721 -4.13982 0
M  V30 12207 H 1119.37 -1.22268 -3.78544 0
M  V30 12208 H 1116.11 -3.77349 -5.35993 0
M  V30 12209 H 1115.63 -2.08157 -5.62522 0
M  V30 12210 H 1117.31 -2.59334 -5.92752 0
M  V30 12211 N 1117.44 1.42219 -0.679077 0
M  V30 12212 C 1118.39 2.32599 0.00820028 0
M  V30 12213 C 1119.39 1.50059 0.786046 0
M  V30 12214 O 1120.59 1.66103 0.693528 0
M  V30 12215 H 1116.97 0.751694 0.0214483 0
M  V30 12216 H 1118.94 2.88257 -0.77138 0
M  V30 12217 C 1117.69 3.3468 0.942581 0
M  V30 12218 H 1117.01 3.98234 0.353463 0
M  V30 12219 H 1118.45 4.00496 1.39208 0
M  V30 12220 C 1116.91 2.67275 2.05099 0
M  V30 12221 O 1117.44 2.50793 3.13793 0
M  V30 12222 N 1115.64 2.26232 1.82394 0
M  V30 12223 H 1115.19 2.39838 0.939983 0
M  V30 12224 H 1115.15 1.81465 2.56744 0
M  V30 12225 N 1118.92 0.422693 1.51826 0
M  V30 12226 C 1120.15 -0.15017 2.06856 0
M  V30 12227 C 1120.57 -1.36946 1.28948 0
M  V30 12228 O 1119.93 -1.78393 0.32338 0
M  V30 12229 C 1119.98 -0.465563 3.57582 0
M  V30 12230 O 1119.08 -1.55442 3.81984 0
M  V30 12231 H 1118.42 -0.00827931 0.663948 0
M  V30 12232 H 1120.95 0.599806 1.95611 0
M  V30 12233 H 1120.96 -0.720279 4.01592 0
M  V30 12234 H 1119.64 0.425679 4.13716 0
M  V30 12235 H 1118.21 -1.29081 3.49846 0
M  V30 12236 N 1120.4 -1.5685 0.153553 0
M  V30 12237 C 1121.35 -2.1709 -0.783626 0
M  V30 12238 C 1122.32 -1.10567 -1.23952 0
M  V30 12239 O 1123.5 -1.38638 -1.31088 0
M  V30 12240 C 1120.64 -2.80183 -2.01473 0
M  V30 12241 C 1119.75 -4.01117 -1.60403 0
M  V30 12242 C 1118.89 -4.5219 -2.78743 0
M  V30 12243 C 1117.93 -5.65574 -2.34079 0
M  V30 12244 N 1117.07 -6.11235 -3.4545 0
M  V30 12245 H 1121.91 -2.96836 -0.263127 0
M  V30 12246 H 1119.44 -1.46625 -0.11816 0
M  V30 12247 H 1121.4 -3.14912 -2.73654 0
M  V30 12248 H 1120.03 -2.03071 -2.50923 0
M  V30 12249 H 1119.08 -3.72325 -0.779631 0
M  V30 12250 H 1120.39 -4.83243 -1.23605 0
M  V30 12251 H 1119.55 -4.89008 -3.59105 0
M  V30 12252 H 1118.29 -3.69085 -3.18791 0
M  V30 12253 H 1117.29 -5.28326 -1.52158 0
M  V30 12254 H 1118.52 -6.50468 -1.95109 0
M  V30 12255 H 1116.46 -5.31064 -3.85106 0
M  V30 12256 H 1116.38 -6.88304 -3.12687 0
M  V30 12257 H 1117.65 -6.527 -4.26149 0
M  V30 12258 N 1121.88 0.120221 -1.57141 0
M  V30 12259 C 1122.81 1.14876 -2.03287 0
M  V30 12260 C 1123.79 1.43259 -0.917112 0
M  V30 12261 O 1124.97 1.53721 -1.18674 0
M  V30 12262 C 1122.1 2.47525 -2.43616 0
M  V30 12263 C 1121.06 2.33607 -3.58625 0
M  V30 12264 C 1120.38 3.71207 -3.84849 0
M  V30 12265 C 1121.68 1.79761 -4.90391 0
M  V30 12266 H 1123.38 0.764943 -2.89463 0
M  V30 12267 H 1120.92 0.366516 -1.39258 0
M  V30 12268 H 1122.88 3.19728 -2.74504 0
M  V30 12269 H 1121.6 2.87794 -1.54409 0
M  V30 12270 H 1120.26 1.63853 -3.27945 0
M  V30 12271 H 1119.91 4.0896 -2.9285 0
M  V30 12272 H 1119.61 3.62749 -4.62263 0
M  V30 12273 H 1121.13 4.44917 -4.18188 0
M  V30 12274 H 1122.55 2.4178 -5.19822 0
M  V30 12275 H 1120.94 1.82126 -5.71795 0
M  V30 12276 H 1122.01 0.755087 -4.78985 0
M  V30 12277 N 1123.36 1.52689 0.390367 0
M  V30 12278 C 1124.3 1.78007 1.4972 0
M  V30 12279 C 1125.3 0.647948 1.56518 0
M  V30 12280 O 1126.5 0.830398 1.59701 0
M  V30 12281 H 1122.88 0.56322 0.498284 0
M  V30 12282 H 1124.85 2.70698 1.25559 0
M  V30 12283 C 1123.6 1.96469 2.86872 0
M  V30 12284 H 1122.92 2.83012 2.82391 0
M  V30 12285 H 1124.36 2.18174 3.6356 0
M  V30 12286 C 1122.82 0.736847 3.28743 0
M  V30 12287 O 1123.35 -0.0863743 4.01607 0
M  V30 12288 N 1121.56 0.56735 2.85008 0
M  V30 12289 H 1121.1 1.23838 2.2588 0
M  V30 12290 H 1121.06 -0.252831 3.13382 0
M  V30 12291 N 1124.83 -0.648732 1.43629 0
M  V30 12292 C 1125.74 -1.79046 1.51591 0
M  V30 12293 C 1126.76 -1.69276 0.402697 0
M  V30 12294 O 1127.94 -1.90366 0.657484 0
M  V30 12295 C 1125 -3.15347 1.44073 0
M  V30 12296 C 1124.06 -3.3688 2.66102 0
M  V30 12297 C 1123.3 -4.66679 2.58933 0
M  V30 12298 O 1123.52 -5.46328 1.63956 0
M  V30 12299 O 1122.45 -4.9003 3.49506 0
M  V30 12300 H 1126.28 -1.75283 2.48011 0
M  V30 12301 H 1123.86 -0.807774 1.2568 0
M  V30 12302 H 1125.75 -3.96633 1.42339 0
M  V30 12303 H 1124.42 -3.19691 0.50789 0
M  V30 12304 H 1123.33 -2.55341 2.73407 0
M  V30 12305 H 1124.66 -3.37386 3.58373 0
M  V30 12306 N 1126.31 -1.30234 -0.887518 0
M  V30 12307 C 1127.56 -1.18675 -1.63587 0
M  V30 12308 C 1127.88 0.259342 -1.93268 0
M  V30 12309 O 1127.15 1.17523 -1.56733 0
M  V30 12310 H 1125.73 -0.436224 -0.606397 0
M  V30 12311 H 1128.39 -1.63326 -1.06351 0
M  V30 12312 H 1127.49 -1.74575 -2.58708 0
M  V30 12313 N 1127.79 1.09952 -1.12909 0
M  V30 12314 C 1129.04 1.81386 -0.882163 0
M  V30 12315 C 1129.35 1.86376 0.593592 0
M  V30 12316 O 1130.56 2.54064 0.957275 0
M  V30 12317 C 1129.01 3.25824 -1.52861 0
M  V30 12318 C 1128.62 3.29117 -3.0395 0
M  V30 12319 C 1130.37 4.02051 -1.36216 0
M  V30 12320 C 1128.27 4.68047 -3.61505 0
M  V30 12321 H 1127.2 0.679701 -0.326378 0
M  V30 12322 H 1129.85 1.23614 -1.35616 0
M  V30 12323 H 1128.24 3.83624 -0.982271 0
M  V30 12324 H 1129.41 2.81114 -3.65119 0
M  V30 12325 H 1127.73 2.66379 -3.20049 0
M  V30 12326 H 1130.32 5.04683 -1.76633 0
M  V30 12327 H 1130.67 4.15171 -0.306391 0
M  V30 12328 H 1131.2 3.5068 -1.87799 0
M  V30 12329 H 1127.94 4.60128 -4.66865 0
M  V30 12330 H 1127.46 5.16397 -3.05114 0
M  V30 12331 H 1129.14 5.37018 -3.6086 0
M  V30 12332 N 1129.27 0.921757 1.27833 0
M  V30 12333 C 1130.22 0.406628 2.29018 0
M  V30 12334 C 1131.21 -0.505914 1.61669 0
M  V30 12335 O 1132.42 -0.386273 1.75807 0
M  V30 12336 H 1128.79 0.112914 0.743475 0
M  V30 12337 H 1130.76 1.27295 2.69886 0
M  V30 12338 C 1129.51 -0.330783 3.46123 0
M  V30 12339 H 1128.83 0.362207 3.98156 0
M  V30 12340 H 1130.27 -0.655738 4.18899 0
M  V30 12341 C 1128.73 -1.54161 2.9956 0
M  V30 12342 O 1129.26 -2.64052 3.0272 0
M  V30 12343 N 1127.47 -1.39137 2.55126 0
M  V30 12344 H 1127.02 -0.497319 2.52754 0
M  V30 12345 H 1126.97 -2.20278 2.24333 0
M  V30 12346 N 1130.75 -1.41857 0.686609 0
M  V30 12347 C 1131.68 -2.29188 -0.0234289 0
M  V30 12348 C 1132.69 -1.44311 -0.753541 0
M  V30 12349 O 1133.88 -1.67908 -0.605734 0
M  V30 12350 C 1130.98 -3.21991 -1.05713 0
M  V30 12351 C 1130.15 -4.35581 -0.398453 0
M  V30 12352 C 1129.21 -5.09022 -1.33354 0
M  V30 12353 O 1128.24 -5.63126 -0.829334 0
M  V30 12354 N 1129.44 -5.15643 -2.66632 0
M  V30 12355 H 1132.21 -2.90766 0.726295 0
M  V30 12356 H 1129.77 -1.52912 0.531937 0
M  V30 12357 H 1131.76 -3.6799 -1.68421 0
M  V30 12358 H 1130.33 -2.61782 -1.70847 0
M  V30 12359 H 1129.55 -3.92079 0.408358 0
M  V30 12360 H 1130.84 -5.08765 0.0599239 0
M  V30 12361 H 1130.23 -4.73118 -3.10122 0
M  V30 12362 H 1128.79 -5.65248 -3.24558 0
M  V30 12363 N 1132.22 -0.430739 -1.51599 0
M  V30 12364 C 1133.19 0.372319 -2.26156 0
M  V30 12365 C 1134.19 0.955338 -1.29344 0
M  V30 12366 O 1135.38 0.830823 -1.53111 0
M  V30 12367 C 1132.51 1.52613 -3.04831 0
M  V30 12368 H 1133.7 -0.280996 -2.98581 0
M  V30 12369 H 1131.26 -0.183749 -1.55216 0
M  V30 12370 H 1131.99 2.21569 -2.36807 0
M  V30 12371 H 1131.78 1.11433 -3.75932 0
M  V30 12372 H 1133.27 2.09366 -3.61325 0
M  V30 12373 N 1133.7 1.56767 -0.161869 0
M  V30 12374 C 1134.95 1.95769 0.485536 0
M  V30 12375 C 1135.26 1.05006 1.65025 0
M  V30 12376 O 1136.47 1.33649 2.36326 0
M  V30 12377 C 1134.93 3.4807 0.915176 0
M  V30 12378 C 1134.53 4.47443 -0.223416 0
M  V30 12379 C 1136.28 3.95909 1.53153 0
M  V30 12380 C 1134.19 5.90971 0.225325 0
M  V30 12381 H 1133.12 0.730911 0.185161 0
M  V30 12382 H 1135.77 1.81808 -0.248592 0
M  V30 12383 H 1134.15 3.57415 1.705 0
M  V30 12384 H 1135.32 4.49805 -1.00061 0
M  V30 12385 H 1133.64 4.09606 -0.749127 0
M  V30 12386 H 1136.23 5.00592 1.87915 0
M  V30 12387 H 1136.58 3.38307 2.42599 0
M  V30 12388 H 1137.11 3.89542 0.806322 0
M  V30 12389 H 1133.85 6.52426 -0.634124 0
M  V30 12390 H 1133.37 5.91936 0.96808 0
M  V30 12391 H 1135.05 6.43497 0.672373 0
M  V30 12392 N 1135.18 -0.111886 1.57202 0
M  V30 12393 C 1136.46 -0.849125 1.76208 0
M  V30 12394 C 1136.84 -1.97735 0.73919 0
M  V30 12395 O 1136.19 -2.27283 -0.235523 0
M  V30 12396 C 1136.4 -1.35924 3.21443 0
M  V30 12397 C 1137.74 -1.80874 3.84148 0
M  V30 12398 O 1138.77 -1.45587 3.25089 0
M  V30 12399 O 1137.63 -2.46065 4.87969 0
M  V30 12400 H 1134.72 -0.403761 0.721738 0
M  V30 12401 H 1137.27 -0.0950726 1.69433 0
M  V30 12402 H 1136.04 -0.550113 3.87414 0
M  V30 12403 H 1135.66 -2.17579 3.32784 0
M  V30 12404 N 1136.66 -1.52894 -0.382264 0
M  V30 12405 C 1137.61 -1.78799 -1.48774 0
M  V30 12406 C 1138.6 -0.65624 -1.56173 0
M  V30 12407 O 1139.81 -0.838856 -1.59258 0
M  V30 12408 H 1136.18 -0.565855 -0.49529 0
M  V30 12409 H 1138.15 -2.7136 -1.24122 0
M  V30 12410 C 1136.9 -1.97987 -2.85826 0
M  V30 12411 H 1136.22 -2.84505 -2.80886 0
M  V30 12412 H 1137.66 -2.20099 -3.62398 0
M  V30 12413 C 1136.12 -0.75427 -3.28348 0
M  V30 12414 O 1136.65 0.0650749 -4.01647 0
M  V30 12415 N 1134.86 -0.582457 -2.84703 0
M  V30 12416 H 1134.41 -1.25034 -2.2522 0
M  V30 12417 H 1134.36 0.236208 -3.13511 0
M  V30 12418 N 1138.14 0.641106 -1.43971 0
M  V30 12419 C 1139.39 1.39676 -1.45511 0
M  V30 12420 C 1139.7 1.95403 -0.0877084 0
M  V30 12421 O 1140.91 2.71493 0.0193965 0
M  V30 12422 C 1139.36 2.52839 -2.56126 0
M  V30 12423 C 1138.97 2.03668 -3.99028 0
M  V30 12424 C 1140.71 3.30118 -2.66875 0
M  V30 12425 C 1138.62 3.14114 -5.01085 0
M  V30 12426 H 1137.55 0.524854 -0.541336 0
M  V30 12427 H 1140.2 0.69075 -1.70003 0
M  V30 12428 H 1138.58 3.25968 -2.24857 0
M  V30 12429 H 1139.76 1.3747 -4.39817 0
M  V30 12430 H 1138.07 1.39233 -3.92432 0
M  V30 12431 H 1140.67 4.12434 -3.40297 0
M  V30 12432 H 1141.01 3.78946 -1.72353 0
M  V30 12433 H 1141.55 2.64075 -2.97505 0
M  V30 12434 H 1138.28 2.70241 -5.97202 0
M  V30 12435 H 1137.8 3.78985 -4.64898 0
M  V30 12436 H 1139.48 3.79051 -5.24337 0
M  V30 12437 N 1139.62 1.30703 0.880598 0
M  V30 12438 C 1140.56 1.17369 2.00817 0
M  V30 12439 C 1141.56 0.0845159 1.69189 0
M  V30 12440 O 1142.76 0.245673 1.78316 0
M  V30 12441 H 1139.14 0.363107 0.658527 0
M  V30 12442 H 1141.11 2.12789 2.09197 0
M  V30 12443 C 1139.86 0.886851 3.362 0
M  V30 12444 H 1139.18 1.71704 3.61051 0
M  V30 12445 H 1140.62 0.83368 4.15723 0
M  V30 12446 C 1139.08 -0.410293 3.34392 0
M  V30 12447 O 1139.61 -1.43044 3.75368 0
M  V30 12448 N 1137.82 -0.423023 2.87505 0
M  V30 12449 H 1137.36 0.407637 2.54354 0
M  V30 12450 H 1137.32 -1.29086 2.86678 0
M  V30 12451 N 1141.09 -1.09351 1.1349 0
M  V30 12452 C 1142.04 -2.18099 0.808426 0
M  V30 12453 C 1143.04 -1.68099 -0.209571 0
M  V30 12454 O 1144.24 -1.79877 -0.0666417 0
M  V30 12455 H 1140.62 -0.711432 0.243658 0
M  V30 12456 H 1142.59 -2.42867 1.73373 0
M  V30 12457 C 1141.34 -3.46475 0.291615 0
M  V30 12458 H 1140.66 -3.85319 1.06627 0
M  V30 12459 H 1142.1 -4.23878 0.101616 0
M  V30 12460 C 1140.56 -3.22245 -0.982827 0
M  V30 12461 O 1141.09 -3.44947 -2.0585 0
M  V30 12462 N 1139.29 -2.75845 -0.914218 0
M  V30 12463 H 1138.84 -2.57571 -0.03872 0
M  V30 12464 H 1138.8 -2.60011 -1.76753 0
M  V30 12465 N 1142.57 -0.928524 -1.27343 0
M  V30 12466 C 1143.82 -0.569392 -1.9433 0
M  V30 12467 C 1144.15 0.889481 -1.7297 0
M  V30 12468 O 1143.4 1.6499 -1.05247 0
M  V30 12469 C 1143.7 -0.84269 -3.47323 0
M  V30 12470 C 1143.37 -2.28344 -3.88806 0
M  V30 12471 C 1142.03 -2.67731 -3.99842 0
M  V30 12472 C 1144.38 -3.22031 -4.09811 0
M  V30 12473 C 1141.71 -3.99928 -4.29272 0
M  V30 12474 C 1144.06 -4.5381 -4.40725 0
M  V30 12475 C 1142.72 -4.93031 -4.49975 0
M  V30 12476 H 1141.99 -0.208355 -0.711104 0
M  V30 12477 H 1144.64 -1.17264 -1.51398 0
M  V30 12478 H 1142.95 -0.156775 -3.91486 0
M  V30 12479 H 1144.64 -0.543779 -3.97296 0
M  V30 12480 H 1141.23 -1.96787 -3.80753 0
M  V30 12481 H 1145.42 -2.92803 -4.00724 0
M  V30 12482 H 1140.67 -4.29996 -4.34642 0
M  V30 12483 H 1144.85 -5.26407 -4.55926 0
M  V30 12484 H 1142.47 -5.95497 -4.72533 0
M  V30 12485 N 1144.05 1.41491 -0.694123 0
M  V30 12486 C 1145.3 2.00479 -0.221585 0
M  V30 12487 C 1145.61 1.55605 1.18518 0
M  V30 12488 O 1146.82 2.07143 1.7551 0
M  V30 12489 C 1145.27 3.5824 -0.345264 0
M  V30 12490 C 1144.88 4.12096 -1.7573 0
M  V30 12491 C 1146.63 4.24446 0.0675731 0
M  V30 12492 C 1144.53 5.62286 -1.83271 0
M  V30 12493 H 1143.46 0.749841 -0.0790854 0
M  V30 12494 H 1146.11 1.61987 -0.86211 0
M  V30 12495 H 1144.5 3.94328 0.363487 0
M  V30 12496 H 1145.67 3.8743 -2.49469 0
M  V30 12497 H 1143.98 3.58411 -2.11969 0
M  V30 12498 H 1146.58 5.34691 0.0316485 0
M  V30 12499 H 1146.92 4.01338 1.10606 0
M  V30 12500 H 1147.46 3.93388 -0.59085 0
M  V30 12501 H 1144.2 5.9022 -2.85168 0
M  V30 12502 H 1143.72 5.88883 -1.13914 0
M  V30 12503 H 1145.4 6.27033 -1.59494 0
M  V30 12504 N 1145.53 0.438773 1.51369 0
M  V30 12505 C 1146.48 -0.386324 2.29369 0
M  V30 12506 C 1147.47 -1.0196 1.3528 0
M  V30 12507 O 1148.68 -0.9544 1.52615 0
M  V30 12508 H 1145.05 -0.143397 0.738201 0
M  V30 12509 H 1147.02 0.292372 2.96964 0
M  V30 12510 C 1145.77 -1.47426 3.14898 0
M  V30 12511 H 1145.09 -0.996335 3.87186 0
M  V30 12512 H 1146.53 -2.02481 3.72529 0
M  V30 12513 C 1144.99 -2.45831 2.30366 0
M  V30 12514 O 1145.52 -3.50398 1.96428 0
M  V30 12515 N 1143.73 -2.16754 1.93561 0
M  V30 12516 H 1143.28 -1.31748 2.2136 0
M  V30 12517 H 1143.23 -2.82836 1.373 0
M  V30 12518 N 1147.01 -1.56678 0.170181 0
M  V30 12519 C 1148.25 -1.9646 -0.474125 0
M  V30 12520 C 1148.57 -1.05719 -1.63855 0
M  V30 12521 O 1147.84 -0.123316 -1.95511 0
M  V30 12522 H 1146.42 -0.725446 -0.178149 0
M  V30 12523 H 1149.09 -1.93276 0.251099 0
M  V30 12524 H 1148.18 -3.00726 -0.834894 0
M  V30 12525 N 1148.48 0.103547 -1.57259 0
M  V30 12526 C 1149.72 0.814289 -1.8748 0
M  V30 12527 C 1150.09 1.76312 -0.760126 0
M  V30 12528 O 1151.29 2.51659 -0.944514 0
M  V30 12529 C 1149.56 1.53119 -3.22938 0
M  V30 12530 S 1151.12 2.28138 -3.74831 0
M  V30 12531 H 1147.94 0.271464 -0.657136 0
M  V30 12532 H 1150.54 0.07183 -1.95368 0
M  V30 12533 H 1149.24 0.826397 -4.01994 0
M  V30 12534 H 1148.77 2.31372 -3.18167 0
M  V30 12535 H 1150.79 3.54132 -3.4757 0
M  V30 12536 N 1149.96 1.53094 0.37415 0
M  V30 12537 C 1151.19 1.73061 1.143 0
M  V30 12538 C 1151.61 0.454611 1.82524 0
M  V30 12539 O 1150.97 -0.590743 1.71406 0
M  V30 12540 C 1151.02 2.89086 2.15549 0
M  V30 12541 O 1150.12 2.57096 3.22452 0
M  V30 12542 H 1149.46 0.575009 0.332055 0
M  V30 12543 H 1151.99 1.99946 0.433897 0
M  V30 12544 H 1152 3.15007 2.59296 0
M  V30 12545 H 1150.68 3.81647 1.65283 0
M  V30 12546 H 1149.25 2.41965 2.83738 0
M  V30 12547 N 1151.44 -0.633461 1.44309 0
M  V30 12548 C 1152.69 -1.39513 1.47187 0
M  V30 12549 C 1153.02 -1.93926 0.103186 0
M  V30 12550 O 1152.29 -1.73512 -0.878853 0
M  V30 12551 C 1152.58 -2.56213 2.53036 0
M  V30 12552 C 1152.43 -2.07164 3.99253 0
M  V30 12553 C 1153.75 -3.58403 2.55412 0
M  V30 12554 H 1150.87 -0.505936 0.535908 0
M  V30 12555 H 1153.51 -0.716445 1.75975 0
M  V30 12556 H 1151.66 -3.14111 2.28619 0
M  V30 12557 H 1153.33 -1.54115 4.34795 0
M  V30 12558 H 1151.57 -1.38367 4.11141 0
M  V30 12559 H 1152.25 -2.91172 4.6896 0
M  V30 12560 H 1154.72 -3.103 2.77224 0
M  V30 12561 H 1153.6 -4.37581 3.31382 0
M  V30 12562 H 1153.86 -4.12316 1.59523 0
M  V30 12563 N 1152.92 -1.31168 -0.873655 0
M  V30 12564 C 1154.14 -1.23728 -1.66452 0
M  V30 12565 C 1154.57 0.194869 -1.87088 0
M  V30 12566 O 1153.93 1.1397 -1.40998 0
M  V30 12567 C 1153.97 -1.98285 -3.0119 0
M  V30 12568 O 1153.08 -1.31767 -3.90783 0
M  V30 12569 H 1152.42 -0.427362 -0.508191 0
M  V30 12570 H 1154.95 -1.73176 -1.08955 0
M  V30 12571 H 1154.96 -2.0774 -3.51153 0
M  V30 12572 H 1153.63 -3.02437 -2.8549 0
M  V30 12573 H 1152.21 -1.3074 -3.4923 0
M  V30 12574 N 1154.4 1.08748 -1.14068 0
M  V30 12575 C 1155.63 1.84546 -0.928789 0
M  V30 12576 C 1156.03 1.81741 0.526007 0
M  V30 12577 O 1155.38 1.2169 1.37613 0
M  V30 12578 C 1155.44 3.33282 -1.34771 0
M  V30 12579 C 1155.1 3.59826 -2.81734 0
M  V30 12580 C 1156.1 3.54964 -3.79864 0
M  V30 12581 C 1153.79 3.87949 -3.19063 0
M  V30 12582 C 1155.78 3.77847 -5.13332 0
M  V30 12583 C 1153.47 4.10487 -4.52707 0
M  V30 12584 C 1154.46 4.05429 -5.49651 0
M  V30 12585 O 1154.15 4.27378 -6.80884 0
M  V30 12586 H 1153.88 0.589555 -0.330758 0
M  V30 12587 H 1156.44 1.38275 -1.51886 0
M  V30 12588 H 1154.67 3.80294 -0.700948 0
M  V30 12589 H 1156.36 3.90508 -1.10718 0
M  V30 12590 H 1157.12 3.33256 -3.52371 0
M  V30 12591 H 1153 3.91007 -2.44201 0
M  V30 12592 H 1156.55 3.73815 -5.88989 0
M  V30 12593 H 1152.44 4.31677 -4.79922 0
M  V30 12594 H 1153.21 4.44802 -6.8709 0
M  V30 12595 N 1155.87 0.935264 1.26849 0
M  V30 12596 C 1156.8 0.457776 2.28969 0
M  V30 12597 C 1157.79 -0.48587 1.63013 0
M  V30 12598 O 1158.97 -0.388998 1.90264 0
M  V30 12599 C 1156.1 -0.283332 3.46142 0
M  V30 12600 C 1155.05 0.573196 4.24144 0
M  V30 12601 C 1154.38 -0.297525 5.33872 0
M  V30 12602 C 1155.68 1.84153 4.88759 0
M  V30 12603 H 1157.37 1.31125 2.69159 0
M  V30 12604 H 1154.92 0.631956 1.29392 0
M  V30 12605 H 1156.87 -0.628366 4.16689 0
M  V30 12606 H 1155.6 -1.1709 3.04889 0
M  V30 12607 H 1154.26 0.901043 3.55354 0
M  V30 12608 H 1153.9 -1.18427 4.8886 0
M  V30 12609 H 1153.6 0.272126 5.8697 0
M  V30 12610 H 1155.13 -0.637961 6.07258 0
M  V30 12611 H 1156.54 1.5641 5.51551 0
M  V30 12612 H 1154.94 2.35528 5.51948 0
M  V30 12613 H 1156.01 2.5565 4.12033 0
M  V30 12614 N 1157.35 -1.41121 0.701616 0
M  V30 12615 C 1158.29 -2.28198 -0.010533 0
M  V30 12616 C 1159.26 -1.42569 -0.78185 0
M  V30 12617 O 1160.45 -1.71993 -0.771408 0
M  V30 12618 C 1157.57 -3.22903 -1.02231 0
M  V30 12619 C 1156.62 -4.25115 -0.343454 0
M  V30 12620 S 1157.45 -5.27563 0.918553 0
M  V30 12621 C 1158.61 -6.25833 -0.0914763 0
M  V30 12622 H 1158.84 -2.88249 0.727995 0
M  V30 12623 H 1156.38 -1.46348 0.492112 0
M  V30 12624 H 1158.33 -3.77997 -1.60089 0
M  V30 12625 H 1156.99 -2.61936 -1.73345 0
M  V30 12626 H 1156.19 -4.91674 -1.10782 0
M  V30 12627 H 1155.79 -3.73648 0.162206 0
M  V30 12628 H 1158.08 -6.70908 -0.942826 0
M  V30 12629 H 1159.02 -7.06035 0.540351 0
M  V30 12630 H 1159.43 -5.62712 -0.448956 0
M  V30 12631 N 1158.83 -0.446794 -1.51134 0
M  V30 12632 C 1159.78 0.359865 -2.27977 0
M  V30 12633 C 1160.75 1.0086 -1.31972 0
M  V30 12634 O 1161.93 1.02569 -1.60886 0
M  V30 12635 C 1159.07 1.44978 -3.1317 0
M  V30 12636 C 1158.19 0.818243 -4.2418 0
M  V30 12637 C 1157.32 1.884 -4.96668 0
M  V30 12638 C 1156.36 1.2314 -5.99586 0
M  V30 12639 N 1155.5 2.23894 -6.65444 0
M  V30 12640 H 1160.34 -0.301775 -2.96468 0
M  V30 12641 H 1157.87 -0.160666 -1.4622 0
M  V30 12642 H 1159.83 2.09308 -3.60896 0
M  V30 12643 H 1158.46 2.08092 -2.46775 0
M  V30 12644 H 1157.51 0.0629889 -3.80348 0
M  V30 12645 H 1158.83 0.301885 -4.97886 0
M  V30 12646 H 1157.98 2.6037 -5.4799 0
M  V30 12647 H 1156.72 2.43411 -4.22614 0
M  V30 12648 H 1155.72 0.497215 -5.47547 0
M  V30 12649 H 1156.95 0.688505 -6.75601 0
M  V30 12650 H 1154.89 2.77967 -5.94197 0
M  V30 12651 H 1154.81 1.77176 -7.34945 0
M  V30 12652 H 1156.08 2.95318 -7.21393 0
M  V30 12653 N 1160.31 1.56586 -0.178487 0
M  V30 12654 C 1161.26 2.18309 0.74899 0
M  V30 12655 C 1162.23 1.12525 1.22178 0
M  V30 12656 O 1163.41 1.40706 1.28866 0
M  V30 12657 C 1160.55 2.83353 1.9699 0
M  V30 12658 C 1159.66 4.03618 1.54002 0
M  V30 12659 C 1158.8 4.56567 2.71514 0
M  V30 12660 C 1157.84 5.69226 2.25051 0
M  V30 12661 N 1156.97 6.16654 3.35682 0
M  V30 12662 H 1161.81 2.97217 0.21587 0
M  V30 12663 H 1159.35 1.46794 0.0948182 0
M  V30 12664 H 1161.31 3.19226 2.68609 0
M  V30 12665 H 1159.94 2.07037 2.4766 0
M  V30 12666 H 1158.99 3.73518 0.720298 0
M  V30 12667 H 1160.3 4.85148 1.15901 0
M  V30 12668 H 1159.46 4.94659 3.5128 0
M  V30 12669 H 1158.2 3.7411 3.12879 0
M  V30 12670 H 1157.2 5.30679 1.43734 0
M  V30 12671 H 1158.43 6.5349 1.84736 0
M  V30 12672 H 1156.37 5.37124 3.76609 0
M  V30 12673 H 1156.29 6.93192 3.01697 0
M  V30 12674 H 1157.56 6.59397 4.15711 0
M  V30 12675 N 1161.79 -0.095206 1.57312 0
M  V30 12676 C 1162.72 -1.14662 1.97301 0
M  V30 12677 C 1163.7 -1.38845 0.846212 0
M  V30 12678 O 1164.88 -1.52607 1.1065 0
M  V30 12679 C 1162.01 -2.49582 2.28968 0
M  V30 12680 C 1161.05 -2.41681 3.51415 0
M  V30 12681 S 1161.89 -1.83343 5.03136 0
M  V30 12682 C 1163.04 -3.19888 5.3798 0
M  V30 12683 H 1163.28 -0.805726 2.86174 0
M  V30 12684 H 1160.81 -0.302881 1.514 0
M  V30 12685 H 1162.77 -3.27202 2.47889 0
M  V30 12686 H 1161.43 -2.80841 1.40667 0
M  V30 12687 H 1160.62 -3.41122 3.71015 0
M  V30 12688 H 1160.22 -1.7219 3.32004 0
M  V30 12689 H 1162.52 -4.16161 5.34618 0
M  V30 12690 H 1163.46 -3.05093 6.39002 0
M  V30 12691 H 1163.87 -3.19414 4.6544 0
M  V30 12692 N 1163.26 -1.53291 -0.366026 0
M  V30 12693 C 1164.51 -1.68671 -1.10602 0
M  V30 12694 C 1164.83 -0.444793 -1.90476 0
M  V30 12695 O 1166.03 -0.479135 -2.67239 0
M  V30 12696 C 1164.49 -2.98174 -2.01545 0
M  V30 12697 C 1164.1 -4.29626 -1.26986 0
M  V30 12698 C 1165.84 -3.22921 -2.7554 0
M  V30 12699 C 1163.75 -5.50218 -2.16828 0
M  V30 12700 H 1162.68 -0.628456 -0.416604 0
M  V30 12701 H 1165.33 -1.79791 -0.367058 0
M  V30 12702 H 1163.71 -2.80855 -2.79171 0
M  V30 12703 H 1164.88 -4.57574 -0.544269 0
M  V30 12704 H 1163.2 -4.11318 -0.648558 0
M  V30 12705 H 1165.8 -4.10202 -3.42985 0
M  V30 12706 H 1166.14 -2.38964 -3.40884 0
M  V30 12707 H 1166.67 -3.40912 -2.04997 0
M  V30 12708 H 1163.41 -6.36651 -1.56063 0
M  V30 12709 H 1162.93 -5.26549 -2.87238 0
M  V30 12710 H 1164.61 -5.84991 -2.76396 0
M  V30 12711 N 1164.74 0.6258 -1.44643 0
M  V30 12712 C 1166.15 1.20751 -1.42394 0
M  V30 12713 C 1166.5 1.95685 -0.142047 0
M  V30 12714 O 1165.63 2.02715 0.757332 0
M  V30 12715 C 1166.22 2.1964 -2.57961 0
M  V30 12716 C 1164.78 2.73227 -2.5889 0
M  V30 12717 C 1163.93 1.48315 -2.34303 0
M  V30 12718 H 1166.88 0.416162 -1.53146 0
M  V30 12719 H 1166.9 3.02342 -2.31019 0
M  V30 12720 H 1166.41 1.65073 -3.51244 0
M  V30 12721 H 1164.52 3.31782 -1.69563 0
M  V30 12722 H 1164.63 3.18902 -3.57545 0
M  V30 12723 H 1162.99 1.76634 -1.83501 0
M  V30 12724 H 1163.78 0.956427 -3.29708 0
M  V30 12725 N 1166.22 1.31629 0.866686 0
M  V30 12726 C 1167.15 1.22151 1.99001 0
M  V30 12727 C 1168.13 0.107972 1.69757 0
M  V30 12728 O 1169.32 0.293125 1.91975 0
M  V30 12729 C 1166.45 0.93144 3.34577 0
M  V30 12730 C 1165.4 2.0049 3.78137 0
M  V30 12731 C 1164.73 1.56747 5.11209 0
M  V30 12732 C 1166.03 3.41844 3.94892 0
M  V30 12733 H 1167.72 2.16132 2.0719 0
M  V30 12734 H 1165.27 1.04051 0.995463 0
M  V30 12735 H 1167.22 0.851719 4.12703 0
M  V30 12736 H 1165.94 -0.0440289 3.2657 0
M  V30 12737 H 1164.6 2.07457 3.02253 0
M  V30 12738 H 1164.25 0.579767 4.99648 0
M  V30 12739 H 1163.95 2.28562 5.41326 0
M  V30 12740 H 1165.47 1.50188 5.91841 0
M  V30 12741 H 1166.89 3.37534 4.63405 0
M  V30 12742 H 1165.29 4.11905 4.36411 0
M  V30 12743 H 1166.36 3.82389 2.98172 0
M  V30 12744 N 1167.7 -1.08142 1.14644 0
M  V30 12745 C 1168.66 -2.13308 0.83859 0
M  V30 12746 C 1169.66 -1.60022 -0.158012 0
M  V30 12747 O 1170.85 -1.74057 0.0706621 0
M  V30 12748 C 1167.98 -3.39978 0.250591 0
M  V30 12749 H 1169.18 -2.42049 1.77066 0
M  V30 12750 H 1166.73 -1.23899 0.952828 0
M  V30 12751 H 1167.47 -3.16873 -0.690064 0
M  V30 12752 H 1167.25 -3.79952 0.968456 0
M  V30 12753 H 1168.74 -4.17567 0.0525115 0
M  V30 12754 N 1169.18 -0.941978 -1.26351 0
M  V30 12755 C 1170.42 -0.590845 -1.94002 0
M  V30 12756 C 1170.76 0.868004 -1.73722 0
M  V30 12757 O 1170.03 1.62111 -1.07472 0
M  V30 12758 C 1170.31 -0.934901 -3.47752 0
M  V30 12759 C 1170.17 -2.44855 -3.77314 0
M  V30 12760 C 1171.49 -0.450888 -4.37784 0
M  V30 12761 H 1168.61 -0.21613 -0.704597 0
M  V30 12762 H 1171.25 -1.17634 -1.49205 0
M  V30 12763 H 1169.4 -0.436648 -3.86038 0
M  V30 12764 H 1171.07 -3.01959 -3.48738 0
M  V30 12765 H 1169.31 -2.89169 -3.23363 0
M  V30 12766 H 1169.98 -2.6398 -4.84787 0
M  V30 12767 H 1172.46 -0.878107 -4.06729 0
M  V30 12768 H 1171.34 -0.720439 -5.44152 0
M  V30 12769 H 1171.6 0.649162 -4.37308 0
M  V30 12770 N 1170.66 1.40747 -0.709091 0
M  V30 12771 C 1171.57 2.3454 -0.0532205 0
M  V30 12772 C 1172.58 1.56956 0.751057 0
M  V30 12773 O 1173.76 1.89375 0.685509 0
M  V30 12774 C 1170.82 3.35809 0.862157 0
M  V30 12775 C 1169.88 4.29273 0.0485632 0
M  V30 12776 C 1169.12 5.25705 0.920345 0
M  V30 12777 O 1169.34 5.27933 2.15969 0
M  V30 12778 O 1168.27 6.00806 0.3628 0
M  V30 12779 H 1172.1 2.92232 -0.826698 0
M  V30 12780 H 1169.68 1.4183 -0.469519 0
M  V30 12781 H 1171.57 3.97931 1.38668 0
M  V30 12782 H 1170.24 2.8054 1.61489 0
M  V30 12783 H 1169.15 3.70456 -0.520873 0
M  V30 12784 H 1170.48 4.87676 -0.665807 0
M  V30 12785 N 1172.13 0.454803 1.50895 0
M  V30 12786 C 1173.08 -0.347769 2.28165 0
M  V30 12787 C 1174.05 -1.00158 1.32505 0
M  V30 12788 O 1175.24 -1.01715 1.61427 0
M  V30 12789 C 1172.38 -1.43315 3.13934 0
M  V30 12790 C 1171.49 -0.795736 4.24608 0
M  V30 12791 C 1170.62 -1.85763 4.9766 0
M  V30 12792 C 1169.66 -1.19959 6.0023 0
M  V30 12793 N 1168.8 -2.20361 6.66622 0
M  V30 12794 H 1173.64 0.317493 2.96304 0
M  V30 12795 H 1171.18 0.168418 1.46133 0
M  V30 12796 H 1173.13 -2.07391 3.62001 0
M  V30 12797 H 1171.76 -2.0678 2.47875 0
M  V30 12798 H 1170.82 -0.0428173 3.80376 0
M  V30 12799 H 1172.13 -0.275477 4.98039 0
M  V30 12800 H 1171.28 -2.5746 5.49363 0
M  V30 12801 H 1170.02 -2.41166 4.23899 0
M  V30 12802 H 1169.03 -0.46817 5.47803 0
M  V30 12803 H 1170.25 -0.652666 6.75956 0
M  V30 12804 H 1168.2 -2.74812 5.95663 0
M  V30 12805 H 1168.11 -1.73275 7.35875 0
M  V30 12806 H 1169.38 -2.91488 7.22949 0
M  V30 12807 N 1173.61 -1.56489 0.186789 0
M  V30 12808 C 1174.54 -2.21705 -0.732739 0
M  V30 12809 C 1175.52 -1.17751 -1.22755 0
M  V30 12810 O 1176.71 -1.46231 -1.27789 0
M  V30 12811 C 1173.84 -2.86992 -1.95584 0
M  V30 12812 C 1172.79 -3.97118 -1.59628 0
M  V30 12813 C 1172.12 -4.49529 -2.89531 0
M  V30 12814 C 1173.42 -5.15941 -0.812518 0
M  V30 12815 H 1175.11 -2.98802 -0.189094 0
M  V30 12816 H 1172.66 -1.43722 -0.0895099 0
M  V30 12817 H 1174.61 -3.31295 -2.60426 0
M  V30 12818 H 1173.33 -2.07287 -2.52388 0
M  V30 12819 H 1171.99 -3.53494 -0.971475 0
M  V30 12820 H 1171.64 -3.66596 -3.44407 0
M  V30 12821 H 1171.34 -5.23832 -2.66221 0
M  V30 12822 H 1172.87 -4.96528 -3.55376 0
M  V30 12823 H 1174.28 -5.56841 -1.36386 0
M  V30 12824 H 1172.68 -5.96259 -0.677862 0
M  V30 12825 H 1173.75 -4.84535 0.188095 0
M  V30 12826 N 1175.09 0.086862 -1.5736 0
M  V30 12827 C 1176.02 1.10538 -2.05678 0
M  V30 12828 C 1177 1.41281 -0.947293 0
M  V30 12829 O 1178.19 1.51169 -1.21908 0
M  V30 12830 C 1175.32 2.42302 -2.48812 0
M  V30 12831 C 1174.27 2.25948 -3.63499 0
M  V30 12832 C 1173.6 3.62961 -3.92637 0
M  V30 12833 C 1174.9 1.69319 -4.94094 0
M  V30 12834 H 1176.59 0.703371 -2.91021 0
M  V30 12835 H 1174.14 0.336895 -1.40004 0
M  V30 12836 H 1176.09 3.13833 -2.81224 0
M  V30 12837 H 1174.81 2.84454 -1.60479 0
M  V30 12838 H 1173.47 1.5686 -3.31347 0
M  V30 12839 H 1173.12 4.02656 -3.01459 0
M  V30 12840 H 1172.82 3.52862 -4.69853 0
M  V30 12841 H 1174.34 4.35946 -4.27531 0
M  V30 12842 H 1175.76 2.30699 -5.24834 0
M  V30 12843 H 1174.15 1.69957 -5.7553 0
M  V30 12844 H 1175.22 0.653318 -4.80479 0
M  V30 12845 N 1176.57 1.53483 0.357892 0
M  V30 12846 C 1177.84 1.60649 1.11585 0
M  V30 12847 C 1178.22 0.418789 2.06904 0
M  V30 12848 O 1177.57 -0.590279 2.20744 0
M  V30 12849 C 1177.78 2.96046 1.84818 0
M  V30 12850 C 1179.13 3.50895 2.39076 0
M  V30 12851 O 1180.15 2.98126 1.94934 0
M  V30 12852 O 1179.01 4.43163 3.19794 0
M  V30 12853 H 1176.11 0.649202 0.512315 0
M  V30 12854 H 1178.65 1.65826 0.360537 0
M  V30 12855 H 1177.43 3.73929 1.15296 0
M  V30 12856 H 1177.05 2.94395 2.6724 0
M  V30 12857 N 1178.05 -0.61812 1.44973 0
M  V30 12858 C 1179.29 -1.3774 1.48439 0
M  V30 12859 C 1179.62 -1.94117 0.121999 0
M  V30 12860 O 1178.88 -1.749 -0.877974 0
M  V30 12861 C 1179.17 -2.55143 2.50274 0
M  V30 12862 C 1178.84 -2.16976 3.95262 0
M  V30 12863 C 1177.5 -2.06281 4.34743 0
M  V30 12864 C 1179.85 -1.8703 4.86486 0
M  V30 12865 C 1177.18 -1.63846 5.63357 0
M  V30 12866 C 1179.53 -1.46085 6.15501 0
M  V30 12867 C 1178.2 -1.3394 6.53924 0
M  V30 12868 H 1177.47 -0.504026 0.543175 0
M  V30 12869 H 1180.12 -0.699685 1.7826 0
M  V30 12870 H 1178.42 -3.28205 2.13983 0
M  V30 12871 H 1180.12 -3.13373 2.50197 0
M  V30 12872 H 1176.71 -2.26223 3.64034 0
M  V30 12873 H 1180.89 -1.94196 4.56729 0
M  V30 12874 H 1176.15 -1.53058 5.91932 0
M  V30 12875 H 1180.32 -1.21956 6.85638 0
M  V30 12876 H 1177.95 -1.00832 7.53483 0
M  V30 12877 N 1179.52 -1.32087 -0.859693 0
M  V30 12878 C 1180.8 -1.12984 -1.59668 0
M  V30 12879 C 1181.18 0.311661 -2.08787 0
M  V30 12880 O 1180.53 1.30746 -1.87397 0
M  V30 12881 C 1180.74 -2.15305 -2.74672 0
M  V30 12882 C 1182.09 -2.48371 -3.44379 0
M  V30 12883 O 1183.11 -2.13811 -2.84891 0
M  V30 12884 O 1181.97 -3.07594 -4.51717 0
M  V30 12885 H 1179.06 -0.435657 -0.702945 0
M  V30 12886 H 1181.61 -1.43601 -0.90426 0
M  V30 12887 H 1180.38 -3.12223 -2.35866 0
M  V30 12888 H 1180 -1.85653 -3.51594 0
M  V30 12889 N 1181 1.07532 -1.15215 0
M  V30 12890 C 1181.95 2.16785 -0.843022 0
M  V30 12891 C 1182.94 1.68411 0.182802 0
M  V30 12892 O 1184.15 1.7996 0.0380164 0
M  V30 12893 H 1180.52 0.707465 -0.254945 0
M  V30 12894 H 1182.5 2.40078 -1.77215 0
M  V30 12895 C 1181.24 3.45967 -0.346699 0
M  V30 12896 H 1180.57 3.83574 -1.12744 0
M  V30 12897 H 1182.01 4.23663 -0.169039 0
M  V30 12898 C 1180.47 3.23768 0.931437 0
M  V30 12899 O 1181 3.48179 2.00336 0
M  V30 12900 N 1179.2 2.77264 0.870217 0
M  V30 12901 H 1178.75 2.576 -0.00226223 0
M  V30 12902 H 1178.71 2.6279 1.72594 0
M  V30 12903 N 1182.48 0.948665 1.2585 0
M  V30 12904 C 1183.71 0.617229 1.97479 0
M  V30 12905 C 1184.12 -0.809406 1.7057 0
M  V30 12906 O 1183.48 -1.54066 0.97826 0
M  V30 12907 C 1183.53 0.859065 3.51144 0
M  V30 12908 O 1183.25 2.2296 3.77121 0
M  V30 12909 C 1184.75 0.539197 4.40009 0
M  V30 12910 H 1181.97 0.231933 0.629641 0
M  V30 12911 H 1184.52 1.27141 1.60173 0
M  V30 12912 H 1182.67 0.25138 3.86584 0
M  V30 12913 H 1183.09 2.29524 4.71613 0
M  V30 12914 H 1184.56 0.758986 5.46757 0
M  V30 12915 H 1185.04 -0.526062 4.36038 0
M  V30 12916 H 1185.64 1.12594 4.10125 0
M  V30 12917 N 1183.96 -1.40369 0.716545 0
M  V30 12918 C 1184.89 -2.33365 0.0793533 0
M  V30 12919 C 1185.87 -1.52943 -0.744482 0
M  V30 12920 O 1187.05 -1.81406 -0.693212 0
M  V30 12921 C 1184.18 -3.36928 -0.842429 0
M  V30 12922 C 1183.14 -4.2782 -0.124142 0
M  V30 12923 C 1182.46 -5.21928 -1.1617 0
M  V30 12924 C 1183.76 -5.12199 1.02224 0
M  V30 12925 H 1185.46 -2.86899 0.856115 0
M  V30 12926 H 1183 -1.37946 0.413138 0
M  V30 12927 H 1184.96 -4.00925 -1.29759 0
M  V30 12928 H 1183.68 -2.81791 -1.6511 0
M  V30 12929 H 1182.34 -3.65277 0.311201 0
M  V30 12930 H 1181.99 -4.63096 -1.96345 0
M  V30 12931 H 1181.69 -5.83582 -0.685978 0
M  V30 12932 H 1183.21 -5.88802 -1.61694 0
M  V30 12933 H 1184.63 -5.69644 0.646399 0
M  V30 12934 H 1183.02 -5.82901 1.4264 0
M  V30 12935 H 1184.09 -4.4812 1.85246 0
M  V30 12936 N 1185.44 -0.462799 -1.50652 0
M  V30 12937 C 1186.38 0.335664 -2.28346 0
M  V30 12938 C 1187.35 0.994541 -1.33034 0
M  V30 12939 O 1188.54 1.00857 -1.61964 0
M  V30 12940 C 1185.68 1.41648 -3.1469 0
M  V30 12941 C 1184.79 0.773207 -4.25024 0
M  V30 12942 C 1183.93 1.83121 -4.98638 0
M  V30 12943 C 1182.97 1.16774 -6.00858 0
M  V30 12944 N 1182.1 2.16823 -6.67782 0
M  V30 12945 H 1186.94 -0.333202 -2.96131 0
M  V30 12946 H 1184.48 -0.176166 -1.46041 0
M  V30 12947 H 1186.44 2.05468 -3.63096 0
M  V30 12948 H 1185.07 2.05462 -2.48968 0
M  V30 12949 H 1184.12 0.0226444 -3.80393 0
M  V30 12950 H 1185.43 0.249061 -4.98178 0
M  V30 12951 H 1184.59 2.54543 -5.5072 0
M  V30 12952 H 1183.32 2.38915 -4.25172 0
M  V30 12953 H 1182.33 0.439112 -5.48044 0
M  V30 12954 H 1183.55 0.616809 -6.76293 0
M  V30 12955 H 1181.5 2.71649 -5.97112 0
M  V30 12956 H 1181.42 1.69371 -7.36783 0
M  V30 12957 H 1182.69 2.8765 -7.24484 0
M  V30 12958 N 1186.91 1.56388 -0.195085 0
M  V30 12959 C 1187.86 2.19091 0.725793 0
M  V30 12960 C 1188.83 1.13814 1.20977 0
M  V30 12961 O 1190.02 1.42065 1.27366 0
M  V30 12962 C 1187.16 2.85427 1.93973 0
M  V30 12963 C 1186.27 4.05229 1.49712 0
M  V30 12964 C 1185.4 4.59421 2.66656 0
M  V30 12965 C 1184.44 5.71581 2.19001 0
M  V30 12966 N 1183.58 6.2018 3.29123 0
M  V30 12967 H 1188.42 2.97429 0.184334 0
M  V30 12968 H 1185.96 1.46886 0.0792434 0
M  V30 12969 H 1187.92 3.22057 2.65208 0
M  V30 12970 H 1186.55 2.09652 2.4545 0
M  V30 12971 H 1185.6 3.74261 0.680641 0
M  V30 12972 H 1186.91 4.8635 1.10749 0
M  V30 12973 H 1186.06 4.98357 3.46014 0
M  V30 12974 H 1184.8 3.77407 3.08893 0
M  V30 12975 H 1183.81 5.32174 1.38097 0
M  V30 12976 H 1185.03 6.55413 1.77795 0
M  V30 12977 H 1182.98 5.41088 3.70891 0
M  V30 12978 H 1182.9 6.96353 2.94328 0
M  V30 12979 H 1184.16 6.63769 4.08694 0
M  V30 12980 N 1188.39 -0.0785156 1.57404 0
M  V30 12981 C 1189.34 -1.11278 2.04255 0
M  V30 12982 C 1190.33 -1.40482 0.946633 0
M  V30 12983 O 1191.54 -1.39968 1.13177 0
M  V30 12984 H 1187.92 -0.376157 0.65116 0
M  V30 12985 H 1189.89 -0.691437 2.90279 0
M  V30 12986 C 1188.64 -2.42006 2.49656 0
M  V30 12987 H 1187.96 -2.20383 3.33574 0
M  V30 12988 H 1189.4 -3.12837 2.86197 0
M  V30 12989 C 1187.86 -3.07488 1.37669 0
M  V30 12990 O 1188.39 -3.95285 0.715036 0
M  V30 12991 N 1186.59 -2.68004 1.1235 0
M  V30 12992 H 1186.14 -1.96698 1.66336 0
M  V30 12993 H 1186.1 -3.12141 0.376238 0
M  V30 12994 N 1189.87 -1.5367 -0.349747 0
M  V30 12995 C 1190.8 -1.84208 -1.43492 0
M  V30 12996 C 1191.78 -0.696725 -1.55177 0
M  V30 12997 O 1192.97 -0.948061 -1.69486 0
M  V30 12998 C 1190.1 -2.04613 -2.80625 0
M  V30 12999 C 1189.05 -3.20419 -2.83753 0
M  V30 13000 C 1188.38 -3.26147 -4.23713 0
M  V30 13001 C 1189.68 -4.58666 -2.49846 0
M  V30 13002 H 1191.37 -2.75087 -1.18185 0
M  V30 13003 H 1188.92 -1.32363 -0.567101 0
M  V30 13004 H 1190.87 -2.2456 -3.56582 0
M  V30 13005 H 1189.59 -1.10459 -3.07354 0
M  V30 13006 H 1188.25 -3.00318 -2.10249 0
M  V30 13007 H 1187.9 -2.29599 -4.47541 0
M  V30 13008 H 1187.6 -4.03963 -4.26717 0
M  V30 13009 H 1189.12 -3.48296 -5.0152 0
M  V30 13010 H 1190.54 -4.78668 -3.15516 0
M  V30 13011 H 1188.94 -5.3884 -2.64144 0
M  V30 13012 H 1190.01 -4.62697 -1.4505 0
M  V30 13013 N 1191.35 0.610423 -1.45298 0
M  V30 13014 C 1192.28 1.73207 -1.56594 0
M  V30 13015 C 1193.26 1.64893 -0.417651 0
M  V30 13016 O 1194.44 1.83336 -0.64043 0
M  V30 13017 C 1191.57 3.11803 -1.52959 0
M  V30 13018 C 1190.53 3.34925 -2.66475 0
M  V30 13019 C 1189.85 4.73764 -2.47894 0
M  V30 13020 C 1191.15 3.25456 -4.08504 0
M  V30 13021 H 1192.85 1.6401 -2.50482 0
M  V30 13022 H 1190.39 0.787621 -1.20551 0
M  V30 13023 H 1192.35 3.90065 -1.59458 0
M  V30 13024 H 1191.07 3.21833 -0.55599 0
M  V30 13025 H 1189.73 2.59051 -2.59399 0
M  V30 13026 H 1189.38 4.80524 -1.4868 0
M  V30 13027 H 1189.08 4.90191 -3.24016 0
M  V30 13028 H 1190.6 5.54231 -2.56243 0
M  V30 13029 H 1192.02 3.93597 -4.16839 0
M  V30 13030 H 1190.41 3.53414 -4.84994 0
M  V30 13031 H 1191.48 2.22939 -4.30612 0
M  V30 13032 N 1192.83 1.32541 0.852676 0
M  V30 13033 C 1193.77 1.21602 1.98282 0
M  V30 13034 C 1194.77 0.120384 1.68972 0
M  V30 13035 O 1195.97 0.283441 1.77754 0
M  V30 13036 H 1192.35 0.376994 0.650676 0
M  V30 13037 H 1194.32 2.17179 2.04636 0
M  V30 13038 C 1193.07 0.957965 3.34243 0
M  V30 13039 H 1192.39 1.79324 3.57327 0
M  V30 13040 H 1193.83 0.921673 4.13861 0
M  V30 13041 C 1192.29 -0.339271 3.35187 0
M  V30 13042 O 1192.82 -1.3505 3.78318 0
M  V30 13043 N 1191.03 -0.361944 2.88337 0
M  V30 13044 H 1190.57 0.461497 2.53432 0
M  V30 13045 H 1190.53 -1.22976 2.89352 0
M  V30 13046 N 1194.3 -1.0692 1.15784 0
M  V30 13047 C 1195.53 -1.83045 0.958031 0
M  V30 13048 C 1195.94 -1.82555 -0.497027 0
M  V30 13049 O 1195.29 -1.23864 -1.35659 0
M  V30 13050 C 1195.35 -3.31096 1.40056 0
M  V30 13051 C 1195.01 -3.55299 2.87423 0
M  V30 13052 C 1196.01 -3.48875 3.85463 0
M  V30 13053 C 1193.69 -3.82824 3.25194 0
M  V30 13054 C 1195.69 -3.69633 5.19279 0
M  V30 13055 C 1193.37 -4.03232 4.59181 0
M  V30 13056 C 1194.37 -3.96633 5.56032 0
M  V30 13057 O 1194.06 -4.16492 6.87597 0
M  V30 13058 H 1193.79 -0.584218 0.340095 0
M  V30 13059 H 1196.35 -1.35841 1.54066 0
M  V30 13060 H 1194.58 -3.79131 0.761361 0
M  V30 13061 H 1196.27 -3.88697 1.16916 0
M  V30 13062 H 1197.03 -3.27608 3.57629 0
M  V30 13063 H 1192.91 -3.87073 2.50391 0
M  V30 13064 H 1196.45 -3.64398 5.94861 0
M  V30 13065 H 1192.35 -4.23988 4.86729 0
M  V30 13066 H 1193.12 -4.33815 6.9408 0
M  V30 13067 N 1195.78 -0.955326 -1.25345 0
M  V30 13068 C 1197.03 -0.606149 -1.92377 0
M  V30 13069 C 1197.34 0.860927 -1.75634 0
M  V30 13070 O 1198.55 1.3201 -2.37246 0
M  V30 13071 C 1197.01 -1.03341 -3.44744 0
M  V30 13072 C 1196.61 -2.52308 -3.70196 0
M  V30 13073 C 1198.36 -0.756797 -4.17699 0
M  V30 13074 C 1196.27 -2.88831 -5.16072 0
M  V30 13075 H 1195.2 -0.222994 -0.720271 0
M  V30 13076 H 1197.85 -1.15987 -1.42194 0
M  V30 13077 H 1196.23 -0.408096 -3.93892 0
M  V30 13078 H 1197.4 -3.19864 -3.31698 0
M  V30 13079 H 1195.72 -2.77448 -3.10502 0
M  V30 13080 H 1198.31 -1.00583 -5.25154 0
M  V30 13081 H 1198.66 0.306794 -4.15168 0
M  V30 13082 H 1199.19 -1.34249 -3.74462 0
M  V30 13083 H 1195.93 -3.9421 -5.23716 0
M  V30 13084 H 1195.45 -2.25948 -5.55614 0
M  V30 13085 H 1197.13 -2.78061 -5.84201 0
M  V30 13086 N 1197.26 1.39987 -0.723979 0
M  V30 13087 C 1198.54 1.94637 -0.1939 0
M  V30 13088 C 1198.92 1.66156 1.30212 0
M  V30 13089 O 1198.27 0.983783 2.06238 0
M  V30 13090 C 1198.48 3.4517 -0.515652 0
M  V30 13091 C 1199.82 4.22113 -0.458919 0
M  V30 13092 O 1200.85 3.53318 -0.452198 0
M  V30 13093 O 1199.71 5.44695 -0.443783 0
M  V30 13094 H 1196.8 0.826394 -0.0316615 0
M  V30 13095 H 1199.35 1.49548 -0.802085 0
M  V30 13096 H 1198.12 3.5929 -1.55004 0
M  V30 13097 H 1197.74 3.97413 0.122067 0
M  V30 13098 N 1198.74 0.470782 1.50404 0
M  V30 13099 C 1199.65 -0.328877 2.32283 0
M  V30 13100 C 1200.67 -0.99629 1.42654 0
M  V30 13101 O 1201.84 -0.984331 1.75707 0
M  V30 13102 C 1198.91 -1.39675 3.1732 0
M  V30 13103 C 1197.97 -0.745965 4.22769 0
M  V30 13104 C 1197.2 -1.76295 5.03742 0
M  V30 13105 O 1197.42 -2.98943 4.85788 0
M  V30 13106 O 1196.36 -1.33495 5.86909 0
M  V30 13107 H 1200.18 0.340491 3.01785 0
M  V30 13108 H 1197.77 0.232637 1.47578 0
M  V30 13109 H 1199.65 -2.0153 3.70086 0
M  V30 13110 H 1198.33 -2.04959 2.50546 0
M  V30 13111 H 1197.23 -0.0884647 3.73995 0
M  V30 13112 H 1198.57 -0.136074 4.92012 0
M  V30 13113 N 1200.22 -1.56282 0.203376 0
M  V30 13114 C 1201.17 -2.20822 -0.730784 0
M  V30 13115 C 1202.16 -1.18193 -1.21354 0
M  V30 13116 O 1203.37 -1.36318 -1.17547 0
M  V30 13117 H 1199.74 -0.707792 -0.254036 0
M  V30 13118 H 1201.71 -2.97955 -0.162825 0
M  V30 13119 C 1200.46 -2.88803 -1.93618 0
M  V30 13120 H 1199.78 -3.67521 -1.57379 0
M  V30 13121 H 1201.22 -3.37387 -2.56799 0
M  V30 13122 C 1199.68 -1.90285 -2.78017 0
M  V30 13123 O 1200.21 -1.40833 -3.76203 0
M  V30 13124 N 1198.42 -1.58332 -2.43679 0
M  V30 13125 H 1197.97 -1.9874 -1.63891 0
M  V30 13126 H 1197.92 -0.926722 -3.00432 0
M  V30 13127 N 1201.7 0.070167 -1.57444 0
M  V30 13128 C 1202.64 1.08322 -2.03801 0
M  V30 13129 C 1203.61 1.38364 -0.918946 0
M  V30 13130 O 1204.8 1.49404 -1.18672 0
M  V30 13131 C 1201.94 2.39128 -2.48821 0
M  V30 13132 C 1201.05 2.15603 -3.74352 0
M  V30 13133 C 1200.19 3.39984 -4.08148 0
M  V30 13134 C 1199.22 3.1183 -5.26715 0
M  V30 13135 N 1198.36 4.28546 -5.56141 0
M  V30 13136 H 1203.2 0.680931 -2.90116 0
M  V30 13137 H 1200.74 0.324657 -1.43473 0
M  V30 13138 H 1202.7 3.15501 -2.72975 0
M  V30 13139 H 1201.33 2.77157 -1.65481 0
M  V30 13140 H 1200.38 1.29915 -3.57528 0
M  V30 13141 H 1201.69 1.90808 -4.60862 0
M  V30 13142 H 1200.84 4.2475 -4.33211 0
M  V30 13143 H 1199.58 3.67856 -3.20208 0
M  V30 13144 H 1198.59 2.2546 -5.01446 0
M  V30 13145 H 1199.81 2.85278 -6.16273 0
M  V30 13146 H 1197.76 4.56447 -4.71161 0
M  V30 13147 H 1197.68 4.0703 -6.37073 0
M  V30 13148 H 1198.94 5.14305 -5.85757 0
M  V30 13149 N 1203.17 1.53854 0.341593 0
M  V30 13150 C 1204.1 1.84966 1.42513 0
M  V30 13151 C 1205.08 0.704944 1.54805 0
M  V30 13152 O 1206.27 0.957036 1.68981 0
M  V30 13153 C 1203.4 2.06099 2.79536 0
M  V30 13154 C 1202.35 3.21919 2.82049 0
M  V30 13155 C 1201.68 3.28389 4.21977 0
M  V30 13156 C 1202.98 4.59984 2.4741 0
M  V30 13157 H 1204.67 2.7571 1.16724 0
M  V30 13158 H 1202.22 1.32662 0.560073 0
M  V30 13159 H 1204.17 2.26448 3.55386 0
M  V30 13160 H 1202.9 1.12087 3.06764 0
M  V30 13161 H 1201.56 3.01429 2.08653 0
M  V30 13162 H 1201.2 2.3197 4.46317 0
M  V30 13163 H 1200.9 4.0622 4.24569 0
M  V30 13164 H 1202.43 3.50951 4.99666 0
M  V30 13165 H 1203.84 4.80334 3.12973 0
M  V30 13166 H 1202.24 5.40233 2.61282 0
M  V30 13167 H 1203.31 4.6346 1.42594 0
M  V30 13168 N 1204.65 -0.602709 1.4562 0
M  V30 13169 C 1205.88 -1.38608 1.53203 0
M  V30 13170 C 1206.29 -1.88478 0.165098 0
M  V30 13171 O 1205.63 -1.63142 -0.844421 0
M  V30 13172 C 1205.69 -2.62214 2.45935 0
M  V30 13173 C 1205.36 -2.3395 3.92577 0
M  V30 13174 C 1206.36 -1.94011 4.82344 0
M  V30 13175 C 1204.04 -2.46711 4.37537 0
M  V30 13176 C 1206.03 -1.67202 6.15079 0
M  V30 13177 C 1203.72 -2.19515 5.70313 0
M  V30 13178 C 1204.72 -1.79823 6.58903 0
M  V30 13179 O 1204.41 -1.52948 7.89216 0
M  V30 13180 H 1204.14 -0.43052 0.52118 0
M  V30 13181 H 1206.69 -0.741655 1.91543 0
M  V30 13182 H 1204.92 -3.29394 2.02575 0
M  V30 13183 H 1206.61 -3.24264 2.44147 0
M  V30 13184 H 1207.38 -1.83684 4.48871 0
M  V30 13185 H 1203.26 -2.76572 3.68821 0
M  V30 13186 H 1206.8 -1.36146 6.84186 0
M  V30 13187 H 1202.7 -2.2946 6.03339 0
M  V30 13188 H 1203.47 -1.6696 8.01291 0
M  V30 13189 N 1206.13 -1.32992 -0.845635 0
M  V30 13190 C 1207.06 -1.25301 -1.97033 0
M  V30 13191 C 1208.04 -0.134966 -1.69564 0
M  V30 13192 O 1209.23 -0.323629 -1.91484 0
M  V30 13193 C 1206.36 -0.984551 -3.33052 0
M  V30 13194 C 1205.31 -2.06481 -3.749 0
M  V30 13195 C 1204.64 -1.6486 -5.08651 0
M  V30 13196 C 1205.94 -3.48083 -3.89404 0
M  V30 13197 H 1207.63 -2.194 -2.03725 0
M  V30 13198 H 1205.18 -1.05621 -0.978783 0
M  V30 13199 H 1207.13 -0.917269 -4.11296 0
M  V30 13200 H 1205.85 -0.00793116 -3.26599 0
M  V30 13201 H 1204.51 -2.1224 -2.98915 0
M  V30 13202 H 1204.16 -0.659183 -4.98662 0
M  V30 13203 H 1203.86 -2.37145 -5.37621 0
M  V30 13204 H 1205.38 -1.59585 -5.89377 0
M  V30 13205 H 1206.8 -3.44863 -4.57976 0
M  V30 13206 H 1205.19 -4.18796 -4.29802 0
M  V30 13207 H 1206.26 -3.87084 -2.92051 0
M  V30 13208 N 1207.61 1.06304 -1.1635 0
M  V30 13209 C 1208.86 1.78487 -0.939423 0
M  V30 13210 C 1209.17 1.8817 0.533998 0
M  V30 13211 O 1210.38 2.56981 0.875962 0
M  V30 13212 C 1208.83 3.20796 -1.63149 0
M  V30 13213 C 1208.44 3.19281 -3.14267 0
M  V30 13214 C 1210.18 3.97514 -1.48938 0
M  V30 13215 C 1208.09 4.56309 -3.76213 0
M  V30 13216 H 1207.02 0.668973 -0.347837 0
M  V30 13217 H 1209.67 1.19237 -1.3948 0
M  V30 13218 H 1208.05 3.80305 -1.10382 0
M  V30 13219 H 1209.23 2.69356 -3.73877 0
M  V30 13220 H 1207.54 2.56062 -3.28362 0
M  V30 13221 H 1210.14 4.98808 -1.926 0
M  V30 13222 H 1210.48 4.13986 -0.438319 0
M  V30 13223 H 1211.02 3.44528 -1.98861 0
M  V30 13224 H 1207.75 4.45042 -4.81267 0
M  V30 13225 H 1207.27 5.06429 -3.21388 0
M  V30 13226 H 1208.95 5.25266 -3.77762 0
M  V30 13227 N 1209.09 0.96196 1.24836 0
M  V30 13228 C 1210.33 0.619489 1.92371 0
M  V30 13229 C 1210.65 -0.847233 1.75633 0
M  V30 13230 O 1209.92 -1.60419 1.12439 0
M  V30 13231 H 1208.5 0.226129 0.711951 0
M  V30 13232 H 1211.17 1.22179 1.5185 0
M  V30 13233 H 1210.26 0.855128 3.00157 0
M  V30 13234 N 1210.56 -1.39601 0.731392 0
M  V30 13235 C 1211.79 -2.05411 0.286532 0
M  V30 13236 C 1212.21 -1.54777 -1.06892 0
M  V30 13237 O 1211.57 -0.689942 -1.67659 0
M  V30 13238 C 1211.62 -3.594 0.293914 0
M  V30 13239 O 1210.72 -4.06072 -0.719657 0
M  V30 13240 H 1210.06 -0.650949 0.131004 0
M  V30 13241 H 1212.59 -1.78703 0.996305 0
M  V30 13242 H 1212.6 -4.0777 0.137052 0
M  V30 13243 H 1211.28 -3.95617 1.28298 0
M  V30 13244 H 1209.86 -3.69125 -0.529226 0
M  V30 13245 N 1212.04 -0.478751 -1.50152 0
M  V30 13246 C 1213.01 0.300181 -2.27226 0
M  V30 13247 C 1214.01 0.913705 -1.32318 0
M  V30 13248 O 1215.2 0.781692 -1.55677 0
M  V30 13249 C 1212.33 1.42838 -3.09532 0
M  V30 13250 H 1213.52 -0.375845 -2.97536 0
M  V30 13251 H 1211.07 -0.233037 -1.54553 0
M  V30 13252 H 1211.81 2.13923 -2.43737 0
M  V30 13253 H 1211.59 0.994161 -3.79287 0
M  V30 13254 H 1213.08 1.97765 -3.67802 0
M  V30 13255 N 1213.52 1.56172 -0.211661 0
M  V30 13256 C 1214.43 2.23468 0.714081 0
M  V30 13257 C 1215.45 1.23908 1.22159 0
M  V30 13258 O 1216.62 1.56693 1.26528 0
M  V30 13259 C 1213.69 2.89375 1.90953 0
M  V30 13260 C 1212.75 4.04251 1.44497 0
M  V30 13261 C 1211.98 4.67006 2.58343 0
M  V30 13262 O 1212.2 4.28721 3.76237 0
M  V30 13263 O 1211.14 5.56177 2.3011 0
M  V30 13264 H 1214.96 3.03219 0.170862 0
M  V30 13265 H 1212.55 1.49389 0.0183607 0
M  V30 13266 H 1214.43 3.3101 2.60787 0
M  V30 13267 H 1213.11 2.12591 2.44104 0
M  V30 13268 H 1212.01 3.67205 0.714932 0
M  V30 13269 H 1213.35 4.82748 0.959947 0
M  V30 13270 N 1215 -0.0618163 1.57479 0
M  V30 13271 C 1216.23 -0.770605 1.9169 0
M  V30 13272 C 1216.64 -1.71134 0.806841 0
M  V30 13273 O 1215.98 -1.8228 -0.228002 0
M  V30 13274 C 1216.04 -1.60962 3.21452 0
M  V30 13275 C 1215.71 -0.837193 4.49266 0
M  V30 13276 C 1216.7 -0.151964 5.19678 0
M  V30 13277 C 1214.39 -0.801414 4.95866 0
M  V30 13278 C 1216.38 0.558705 6.34947 0
M  V30 13279 C 1214.07 -0.0869788 6.11038 0
M  V30 13280 C 1215.07 0.591871 6.80431 0
M  V30 13281 O 1214.75 1.29478 7.93405 0
M  V30 13282 H 1214.49 -0.223673 0.637923 0
M  V30 13283 H 1217.04 -0.0333424 2.05373 0
M  V30 13284 H 1215.27 -2.38992 3.04006 0
M  V30 13285 H 1216.96 -2.19799 3.41238 0
M  V30 13286 H 1217.73 -0.170848 4.84699 0
M  V30 13287 H 1213.6 -1.31927 4.4172 0
M  V30 13288 H 1217.15 1.08913 6.89046 0
M  V30 13289 H 1213.05 -0.066057 6.45466 0
M  V30 13290 H 1213.81 1.20507 8.0958 0
M  V30 13291 N 1216.48 -1.54033 -0.333429 0
M  V30 13292 C 1217.39 -1.85737 -1.43314 0
M  V30 13293 C 1218.4 -0.748398 -1.57083 0
M  V30 13294 O 1219.58 -1.04171 -1.72367 0
M  V30 13295 C 1216.64 -2.06942 -2.78165 0
M  V30 13296 C 1215.7 -3.30774 -2.73655 0
M  V30 13297 C 1214.94 -3.50957 -4.02075 0
M  V30 13298 O 1215.16 -2.74774 -4.99855 0
M  V30 13299 O 1214.09 -4.44412 -4.05933 0
M  V30 13300 H 1217.92 -2.7923 -1.19434 0
M  V30 13301 H 1215.51 -1.39814 -0.526546 0
M  V30 13302 H 1217.39 -2.22276 -3.58011 0
M  V30 13303 H 1216.06 -1.16638 -3.01956 0
M  V30 13304 H 1214.97 -3.20835 -1.92395 0
M  V30 13305 H 1216.3 -4.21103 -2.54819 0
M  V30 13306 N 1217.95 0.594978 -1.45938 0
M  V30 13307 C 1218.9 1.70489 -1.5557 0
M  V30 13308 C 1219.87 1.61193 -0.400751 0
M  V30 13309 O 1221.06 1.80587 -0.615882 0
M  V30 13310 C 1218.2 3.08817 -1.54033 0
M  V30 13311 C 1217.31 3.28827 -2.80173 0
M  V30 13312 C 1216.44 4.57333 -2.70222 0
M  V30 13313 C 1215.48 4.70644 -3.91357 0
M  V30 13314 N 1214.62 5.90463 -3.79865 0
M  V30 13315 H 1219.46 1.61593 -2.50383 0
M  V30 13316 H 1217 0.787747 -1.24229 0
M  V30 13317 H 1218.96 3.88865 -1.51129 0
M  V30 13318 H 1217.59 3.1664 -0.627617 0
M  V30 13319 H 1216.64 2.42467 -2.9311 0
M  V30 13320 H 1217.95 3.34534 -3.69985 0
M  V30 13321 H 1217.1 5.45593 -2.65354 0
M  V30 13322 H 1215.84 4.54045 -1.7803 0
M  V30 13323 H 1214.85 3.80805 -3.9657 0
M  V30 13324 H 1216.07 4.75721 -4.8463 0
M  V30 13325 H 1214.02 5.88196 -2.90451 0
M  V30 13326 H 1213.94 5.97385 -4.63322 0
M  V30 13327 H 1215.2 6.81187 -3.78952 0
M  V30 13328 N 1219.43 1.33438 0.838571 0
M  V30 13329 C 1220.66 1.28097 1.63113 0
M  V30 13330 C 1221.08 -0.145197 1.87539 0
M  V30 13331 O 1220.44 -1.10191 1.43971 0
M  V30 13332 C 1220.49 2.06201 2.95827 0
M  V30 13333 O 1219.59 1.42082 3.87152 0
M  V30 13334 H 1218.93 0.440685 0.496681 0
M  V30 13335 H 1221.46 1.76004 1.04325 0
M  V30 13336 H 1221.47 2.16977 3.45521 0
M  V30 13337 H 1220.15 3.099 2.77371 0
M  V30 13338 H 1218.73 1.39953 3.45641 0
M  V30 13339 N 1220.91 -1.05686 1.16912 0
M  V30 13340 C 1221.86 -2.13312 0.88129 0
M  V30 13341 C 1222.83 -1.65199 -0.172783 0
M  V30 13342 O 1224.01 -1.90765 -0.0366542 0
M  V30 13343 C 1221.15 -3.42829 0.395264 0
M  V30 13344 C 1220.27 -4.04643 1.51288 0
M  V30 13345 C 1219.4 -5.22059 0.981238 0
M  V30 13346 C 1218.44 -5.75869 2.07464 0
M  V30 13347 N 1217.58 -6.84592 1.55813 0
M  V30 13348 H 1222.42 -2.37271 1.80295 0
M  V30 13349 H 1219.95 -1.16407 0.899322 0
M  V30 13350 H 1221.91 -4.17092 0.0950633 0
M  V30 13351 H 1220.54 -3.19068 -0.489445 0
M  V30 13352 H 1219.59 -3.27867 1.92891 0
M  V30 13353 H 1220.91 -4.40626 2.33774 0
M  V30 13354 H 1220.06 -6.03372 0.634586 0
M  V30 13355 H 1218.8 -4.87538 0.125754 0
M  V30 13356 H 1217.8 -4.93188 2.42992 0
M  V30 13357 H 1219.03 -6.12439 2.93419 0
M  V30 13358 H 1216.97 -6.51978 0.725283 0
M  V30 13359 H 1216.89 -7.19551 2.31911 0
M  V30 13360 H 1218.16 -7.6957 1.24025 0
M  V30 13361 N 1222.39 -0.968567 -1.24324 0
M  V30 13362 C 1223.63 -0.631863 -1.92705 0
M  V30 13363 C 1223.97 0.83096 -1.75524 0
M  V30 13364 O 1223.24 1.59795 -1.10887 0
M  V30 13365 C 1223.53 -1.00845 -3.45691 0
M  V30 13366 C 1223.38 -2.52803 -3.72036 0
M  V30 13367 C 1224.7 -0.543647 -4.36729 0
M  V30 13368 H 1221.82 -0.231027 -0.699854 0
M  V30 13369 H 1224.46 -1.20773 -1.46676 0
M  V30 13370 H 1222.61 -0.518434 -3.85025 0
M  V30 13371 H 1224.28 -3.09289 -3.42255 0
M  V30 13372 H 1222.52 -2.95963 -3.17157 0
M  V30 13373 H 1223.19 -2.74203 -4.79079 0
M  V30 13374 H 1225.67 -0.964182 -4.04775 0
M  V30 13375 H 1224.55 -0.8357 -5.42501 0
M  V30 13376 H 1224.81 0.556256 -4.38587 0
M  V30 13377 N 1223.87 1.39211 -0.738786 0
M  V30 13378 C 1224.81 2.32424 -0.0904601 0
M  V30 13379 C 1225.81 1.53258 0.721694 0
M  V30 13380 O 1227.01 1.68895 0.622454 0
M  V30 13381 H 1223.39 0.751927 -0.010453 0
M  V30 13382 H 1225.36 2.84726 -0.892945 0
M  V30 13383 C 1224.11 3.38377 0.799783 0
M  V30 13384 H 1223.43 3.99375 0.18424 0
M  V30 13385 H 1224.87 4.0604 1.22096 0
M  V30 13386 C 1223.33 2.75734 1.93578 0
M  V30 13387 O 1223.86 2.63876 3.02874 0
M  V30 13388 N 1222.07 2.33764 1.72634 0
M  V30 13389 H 1221.61 2.43609 0.837413 0
M  V30 13390 H 1221.57 1.92191 2.48817 0
M  V30 13391 N 1225.34 0.486708 1.49896 0
M  V30 13392 C 1226.29 -0.299294 2.28851 0
M  V30 13393 C 1227.26 -0.973251 1.346 0
M  V30 13394 O 1228.45 -0.982678 1.63548 0
M  V30 13395 C 1225.59 -1.36624 3.16904 0
M  V30 13396 C 1224.7 -0.705492 4.262 0
M  V30 13397 C 1223.83 -1.75165 5.01488 0
M  V30 13398 C 1222.87 -1.072 6.0264 0
M  V30 13399 N 1222.01 -2.06172 6.71147 0
M  V30 13400 H 1226.85 0.380272 2.95564 0
M  V30 13401 H 1224.39 0.199377 1.45743 0
M  V30 13402 H 1226.35 -1.99666 3.66319 0
M  V30 13403 H 1224.98 -2.01476 2.52205 0
M  V30 13404 H 1224.03 0.0378757 3.80381 0
M  V30 13405 H 1225.34 -0.169774 4.98511 0
M  V30 13406 H 1224.49 -2.45749 5.547 0
M  V30 13407 H 1223.23 -2.3212 4.28919 0
M  V30 13408 H 1222.24 -0.351868 5.48673 0
M  V30 13409 H 1223.46 -0.509139 6.77189 0
M  V30 13410 H 1221.41 -2.62115 6.01358 0
M  V30 13411 H 1221.33 -1.57627 7.39385 0
M  V30 13412 H 1222.59 -2.76088 7.28969 0
M  V30 13413 N 1226.82 -1.56058 0.219941 0
M  V30 13414 C 1228.05 -2.02358 -0.416497 0
M  V30 13415 C 1228.46 -1.09903 -1.54007 0
M  V30 13416 O 1227.8 -0.100635 -1.83424 0
M  V30 13417 C 1227.87 -3.45 -1.01072 0
M  V30 13418 C 1227.53 -4.56994 -0.0227891 0
M  V30 13419 C 1228.53 -5.14061 0.776997 0
M  V30 13420 C 1226.21 -5.02209 0.0954981 0
M  V30 13421 C 1228.21 -6.14813 1.68179 0
M  V30 13422 C 1225.89 -6.02799 1.00383 0
M  V30 13423 C 1226.89 -6.58977 1.79552 0
M  V30 13424 O 1226.58 -7.57608 2.68858 0
M  V30 13425 H 1226.31 -0.667581 -0.106355 0
M  V30 13426 H 1228.87 -2.02677 0.333348 0
M  V30 13427 H 1227.1 -3.41745 -1.80962 0
M  V30 13428 H 1228.78 -3.74958 -1.55439 0
M  V30 13429 H 1229.55 -4.79979 0.696053 0
M  V30 13430 H 1225.43 -4.58164 -0.510599 0
M  V30 13431 H 1228.97 -6.58588 2.30017 0
M  V30 13432 H 1224.87 -6.36302 1.08579 0
M  V30 13433 H 1225.64 -7.75124 2.62915 0
M  V30 13434 N 1228.3 0.053464 -1.57509 0
M  V30 13435 C 1229.23 1.06151 -2.07977 0
M  V30 13436 C 1230.21 1.3924 -0.977047 0
M  V30 13437 O 1231.4 1.48549 -1.25087 0
M  V30 13438 C 1228.53 2.36969 -2.53895 0
M  V30 13439 C 1227.48 2.18186 -3.6821 0
M  V30 13440 C 1226.81 3.54551 -4.00247 0
M  V30 13441 C 1228.11 1.588 -4.97574 0
M  V30 13442 H 1229.8 0.641483 -2.92447 0
M  V30 13443 H 1227.35 0.307122 -1.40687 0
M  V30 13444 H 1229.3 3.07797 -2.87817 0
M  V30 13445 H 1228.02 2.80986 -1.66476 0
M  V30 13446 H 1226.68 1.49796 -3.34599 0
M  V30 13447 H 1226.33 3.96171 -3.09932 0
M  V30 13448 H 1226.03 3.42816 -4.77232 0
M  V30 13449 H 1227.56 4.2678 -4.36682 0
M  V30 13450 H 1228.97 2.19515 -5.29609 0
M  V30 13451 H 1227.37 1.57711 -5.79006 0
M  V30 13452 H 1228.44 0.551254 -4.81756 0
M  V30 13453 N 1229.78 1.54207 0.325255 0
M  V30 13454 C 1230.73 1.83474 1.40021 0
M  V30 13455 C 1231.7 0.681719 1.51466 0
M  V30 13456 O 1232.88 0.92798 1.66713 0
M  V30 13457 C 1230.02 2.06624 2.76407 0
M  V30 13458 C 1229.13 3.3431 2.73607 0
M  V30 13459 C 1228.27 3.4743 4.01828 0
M  V30 13460 C 1227.31 4.68997 3.93329 0
M  V30 13461 N 1226.45 4.79052 5.13277 0
M  V30 13462 H 1231.29 2.75182 1.14363 0
M  V30 13463 H 1228.82 1.36284 0.553639 0
M  V30 13464 H 1230.78 2.18037 3.5569 0
M  V30 13465 H 1229.41 1.18209 3.00377 0
M  V30 13466 H 1228.46 3.31643 1.86324 0
M  V30 13467 H 1229.77 4.237 2.6321 0
M  V30 13468 H 1228.93 3.58376 4.89542 0
M  V30 13469 H 1227.67 2.56128 4.1503 0
M  V30 13470 H 1226.67 4.58109 3.04 0
M  V30 13471 H 1227.9 5.61681 3.81695 0
M  V30 13472 H 1225.84 3.90666 5.26988 0
M  V30 13473 H 1225.76 5.62406 5.05208 0
M  V30 13474 H 1227.03 4.94328 6.02711 0
M  V30 13475 N 1231.26 -0.58723 1.46251 0
M  V30 13476 C 1232.49 -1.37174 1.5489 0
M  V30 13477 C 1232.9 -1.87857 0.188445 0
M  V30 13478 O 1232.26 -1.63365 -0.813509 0
M  V30 13479 C 1232.31 -2.56237 2.55 0
M  V30 13480 O 1232.03 -2.07655 3.8576 0
M  V30 13481 C 1233.53 -3.48846 2.73535 0
M  V30 13482 H 1230.75 -0.419211 0.523931 0
M  V30 13483 H 1233.29 -0.714307 1.91619 0
M  V30 13484 H 1231.45 -3.1798 2.21287 0
M  V30 13485 H 1231.86 -2.85161 4.40208 0
M  V30 13486 H 1233.34 -4.2888 3.47514 0
M  V30 13487 H 1233.81 -4.00493 1.80282 0
M  V30 13488 H 1234.42 -2.92942 3.08326 0
M  V30 13489 N 1232.74 -1.33881 -0.831482 0
M  V30 13490 C 1233.98 -1.251 -1.58218 0
M  V30 13491 C 1234.3 0.17963 -1.94773 0
M  V30 13492 O 1235.5 0.389516 -2.68691 0
M  V30 13493 C 1233.96 -2.19246 -2.8541 0
M  V30 13494 C 1233.57 -3.6752 -2.5619 0
M  V30 13495 C 1235.31 -2.19355 -3.63433 0
M  V30 13496 C 1233.22 -4.53559 -3.79523 0
M  V30 13497 H 1232.15 -0.46469 -0.593784 0
M  V30 13498 H 1234.8 -1.58992 -0.916169 0
M  V30 13499 H 1233.18 -1.78295 -3.53591 0
M  V30 13500 H 1234.36 -4.16956 -1.96173 0
M  V30 13501 H 1232.67 -3.69774 -1.91458 0
M  V30 13502 H 1235.27 -2.80863 -4.54995 0
M  V30 13503 H 1235.61 -1.19056 -3.98913 0
M  V30 13504 H 1236.14 -2.58706 -3.02185 0
M  V30 13505 H 1232.88 -5.54762 -3.4917 0
M  V30 13506 H 1232.4 -4.08862 -4.38853 0
M  V30 13507 H 1234.08 -4.67736 -4.47025 0
M  V30 13508 N 1234.21 1.05064 -1.1747 0
M  V30 13509 C 1235.15 2.12334 -0.836028 0
M  V30 13510 C 1236.12 1.61393 0.197733 0
M  V30 13511 O 1237.31 1.88334 0.0789748 0
M  V30 13512 C 1234.44 3.37796 -0.24734 0
M  V30 13513 C 1233.48 4.07565 -1.25669 0
M  V30 13514 S 1234.31 4.55941 -2.80853 0
M  V30 13515 C 1235.47 5.84648 -2.23468 0
M  V30 13516 H 1235.7 2.40735 -1.74453 0
M  V30 13517 H 1233.24 1.17684 -0.999495 0
M  V30 13518 H 1235.19 4.1041 0.0858241 0
M  V30 13519 H 1233.86 3.07529 0.639124 0
M  V30 13520 H 1233.05 4.97715 -0.793465 0
M  V30 13521 H 1232.65 3.41022 -1.53557 0
M  V30 13522 H 1234.94 6.58067 -1.61104 0
M  V30 13523 H 1235.89 6.35719 -3.11877 0
M  V30 13524 H 1236.29 5.39272 -1.6687 0
M  V30 13525 N 1235.69 0.975146 1.23809 0
M  V30 13526 C 1237.1 0.678873 1.7392 0
M  V30 13527 C 1237.45 -0.805133 1.78919 0
M  V30 13528 O 1236.58 -1.62984 1.42356 0
M  V30 13529 C 1237.17 1.22562 3.15854 0
M  V30 13530 C 1235.73 0.979096 3.63443 0
M  V30 13531 C 1234.88 1.35649 2.41857 0
M  V30 13532 H 1237.83 1.14961 1.09406 0
M  V30 13533 H 1237.85 0.595489 3.75811 0
M  V30 13534 H 1237.36 2.30571 3.12184 0
M  V30 13535 H 1235.46 -0.0851407 3.72503 0
M  V30 13536 H 1235.58 1.62998 4.5052 0
M  V30 13537 H 1233.94 0.774916 2.42626 0
M  V30 13538 H 1234.72 2.44624 2.40861 0
M  V30 13539 N 1237.17 -1.38817 0.746158 0
M  V30 13540 C 1238.42 -2.0028 0.299016 0
M  V30 13541 C 1238.74 -1.59221 -1.11709 0
M  V30 13542 O 1238 -0.817595 -1.77803 0
M  V30 13543 C 1238.3 -3.55571 0.361086 0
M  V30 13544 C 1237.96 -4.16317 1.73179 0
M  V30 13545 C 1236.63 -4.32622 2.10693 0
M  V30 13546 C 1238.98 -4.49905 2.63126 0
M  V30 13547 C 1236.31 -4.79808 3.3764 0
M  V30 13548 C 1238.66 -4.98504 3.89457 0
M  V30 13549 C 1237.32 -5.13016 4.27049 0
M  V30 13550 H 1236.59 -0.732877 0.109418 0
M  V30 13551 H 1239.24 -1.65977 0.955186 0
M  V30 13552 H 1237.54 -3.89966 -0.378655 0
M  V30 13553 H 1239.24 -4.01 -0.00319228 0
M  V30 13554 H 1235.83 -4.04035 1.43015 0
M  V30 13555 H 1240.02 -4.36916 2.3541 0
M  V30 13556 H 1235.27 -4.89229 3.66695 0
M  V30 13557 H 1239.45 -5.23464 4.59302 0
M  V30 13558 H 1237.07 -5.4934 5.25481 0
M  V30 13559 N 1238.65 -0.49465 -1.49636 0
M  V30 13560 C 1239.92 0.114829 -1.95263 0
M  V30 13561 C 1240.3 1.54739 -1.43593 0
M  V30 13562 O 1239.65 2.1915 -0.646953 0
M  V30 13563 C 1239.86 0.0339912 -3.48983 0
M  V30 13564 C 1241.21 0.211108 -4.24075 0
M  V30 13565 O 1242.23 0.109478 -3.56032 0
M  V30 13566 O 1241.09 0.418971 -5.44892 0
M  V30 13567 H 1238.19 0.0987883 -0.821078 0
M  V30 13568 H 1240.73 -0.556736 -1.60308 0
M  V30 13569 H 1239.51 -0.965287 -3.79207 0
M  V30 13570 H 1239.13 0.745982 -3.90539 0
M  V30 13571 N 1240.13 1.55939 -0.228214 0
M  V30 13572 C 1241.06 2.2357 0.6737 0
M  V30 13573 C 1242.04 1.20964 1.1959 0
M  V30 13574 O 1243.22 1.49568 1.23867 0
M  V30 13575 C 1240.35 2.92076 1.87906 0
M  V30 13576 C 1239.31 4.01211 1.49043 0
M  V30 13577 C 1238.63 4.57047 2.77511 0
M  V30 13578 C 1239.93 5.17914 0.67544 0
M  V30 13579 H 1241.63 2.99199 0.109806 0
M  V30 13580 H 1239.17 1.43908 0.0513732 0
M  V30 13581 H 1241.12 3.38083 2.51551 0
M  V30 13582 H 1239.85 2.13906 2.46803 0
M  V30 13583 H 1238.51 3.55945 0.877411 0
M  V30 13584 H 1238.16 3.75599 3.34566 0
M  V30 13585 H 1237.86 5.30707 2.52239 0
M  V30 13586 H 1239.38 5.05776 3.42087 0
M  V30 13587 H 1240.79 5.60261 1.21575 0
M  V30 13588 H 1239.19 5.97847 0.519536 0
M  V30 13589 H 1240.26 4.83866 -0.316495 0
M  V30 13590 N 1241.6 -0.0451101 1.57535 0
M  V30 13591 C 1242.83 -0.755068 1.93167 0
M  V30 13592 C 1243.25 -1.68949 0.826915 0
M  V30 13593 O 1242.61 -1.79978 -0.218534 0
M  V30 13594 C 1242.66 -1.50201 3.27829 0
M  V30 13595 O 1241.76 -2.61434 3.18945 0
M  V30 13596 H 1241.11 -0.204219 0.631815 0
M  V30 13597 H 1243.64 -0.00537504 2.04599 0
M  V30 13598 H 1243.65 -1.87547 3.6234 0
M  V30 13599 H 1242.32 -0.816591 4.07805 0
M  V30 13600 H 1240.9 -2.26749 2.96039 0
M  V30 13601 N 1243.08 -1.54377 -0.317073 0
M  V30 13602 C 1244.33 -1.72105 -1.0518 0
M  V30 13603 C 1244.64 -0.505166 -1.88964 0
M  V30 13604 O 1245.85 -0.563912 -2.65579 0
M  V30 13605 C 1244.31 -3.04435 -1.91957 0
M  V30 13606 C 1243.91 -4.33449 -1.13253 0
M  V30 13607 C 1245.66 -3.31524 -2.65127 0
M  V30 13608 C 1243.57 -5.56837 -1.99214 0
M  V30 13609 H 1242.5 -0.641392 -0.396399 0
M  V30 13610 H 1245.15 -1.80868 -0.309673 0
M  V30 13611 H 1243.53 -2.89595 -2.70094 0
M  V30 13612 H 1244.7 -4.59074 -0.39842 0
M  V30 13613 H 1243.02 -4.13173 -0.517372 0
M  V30 13614 H 1245.61 -4.20906 -3.29761 0
M  V30 13615 H 1245.96 -2.49688 -3.33109 0
M  V30 13616 H 1246.49 -3.47261 -1.94048 0
M  V30 13617 H 1243.23 -6.41294 -1.35729 0
M  V30 13618 H 1242.75 -5.35421 -2.70341 0
M  V30 13619 H 1244.43 -5.93488 -2.57646 0
M  V30 13620 N 1244.56 0.579466 -1.4656 0
M  V30 13621 C 1245.79 1.36153 -1.55389 0
M  V30 13622 C 1246.2 1.88192 -0.195062 0
M  V30 13623 O 1245.54 1.64464 0.81836 0
M  V30 13624 C 1245.6 2.58269 -2.50075 0
M  V30 13625 C 1245.27 2.27675 -3.96249 0
M  V30 13626 C 1246.26 1.86313 -4.85369 0
M  V30 13627 C 1243.95 2.39719 -4.41407 0
M  V30 13628 C 1245.94 1.57395 -6.17661 0
M  V30 13629 C 1243.63 2.10414 -5.73733 0
M  V30 13630 C 1244.63 1.69317 -6.6168 0
M  V30 13631 O 1244.32 1.40373 -7.9155 0
M  V30 13632 H 1244.05 0.422174 -0.527963 0
M  V30 13633 H 1246.6 0.711089 -1.92698 0
M  V30 13634 H 1244.83 3.26129 -2.0779 0
M  V30 13635 H 1246.52 3.20339 -2.49275 0
M  V30 13636 H 1247.29 1.7652 -4.51736 0
M  V30 13637 H 1243.17 2.70669 -3.73175 0
M  V30 13638 H 1246.71 1.25244 -6.86265 0
M  V30 13639 H 1242.61 2.19833 -6.06913 0
M  V30 13640 H 1243.38 1.54191 -8.03845 0
M  V30 13641 N 1246.04 1.3432 0.824371 0
M  V30 13642 C 1247.27 1.29669 1.61226 0
M  V30 13643 C 1247.68 -0.129532 1.88355 0
M  V30 13644 O 1247.04 -1.07616 1.47394 0
M  V30 13645 C 1247.09 2.08375 2.95402 0
M  V30 13646 O 1246.81 3.45434 2.69456 0
M  V30 13647 C 1248.31 2.11103 3.89808 0
M  V30 13648 H 1245.53 0.446137 0.501201 0
M  V30 13649 H 1248.08 1.76912 1.02579 0
M  V30 13650 H 1246.23 1.64777 3.5061 0
M  V30 13651 H 1246.64 3.86101 3.55001 0
M  V30 13652 H 1248.12 2.706 4.81124 0
M  V30 13653 H 1248.6 1.10505 4.25071 0
M  V30 13654 H 1249.2 2.54784 3.40537 0
M  V30 13655 N 1247.52 -1.0444 1.18026 0
M  V30 13656 C 1248.46 -2.14474 0.900202 0
M  V30 13657 C 1249.46 -1.68836 -0.138086 0
M  V30 13658 O 1250.66 -1.79997 0.00971011 0
M  V30 13659 H 1247.04 -0.700457 0.273613 0
M  V30 13660 H 1249.01 -2.35295 1.83518 0
M  V30 13661 C 1247.76 -3.44926 0.438305 0
M  V30 13662 H 1247.08 -3.8045 1.22874 0
M  V30 13663 H 1248.52 -4.23066 0.281306 0
M  V30 13664 C 1246.98 -3.26124 -0.845268 0
M  V30 13665 O 1247.51 -3.53368 -1.91034 0
M  V30 13666 N 1245.72 -2.79474 -0.7964 0
M  V30 13667 H 1245.26 -2.57503 0.0705595 0
M  V30 13668 H 1245.22 -2.67274 -1.65566 0
M  V30 13669 N 1248.99 -0.981699 -1.2329 0
M  V30 13670 C 1250.27 -0.567659 -1.87182 0
M  V30 13671 C 1250.65 0.955194 -1.88253 0
M  V30 13672 O 1250 1.83245 -1.36504 0
M  V30 13673 C 1250.21 -1.17522 -3.28618 0
M  V30 13674 C 1251.56 -1.26877 -4.052 0
M  V30 13675 O 1252.58 -1.12877 -3.37842 0
M  V30 13676 O 1251.44 -1.49163 -5.2575 0
M  V30 13677 H 1248.53 -0.191315 -0.804567 0
M  V30 13678 H 1251.08 -1.07686 -1.31155 0
M  V30 13679 H 1249.85 -2.21735 -3.22411 0
M  V30 13680 H 1249.48 -0.650913 -3.92236 0
M  V30 13681 N 1250.47 1.3842 -0.753509 0
M  V30 13682 C 1251.7 2.04403 -0.320449 0
M  V30 13683 C 1252.12 1.5683 1.05118 0
M  V30 13684 O 1251.47 0.741335 1.66765 0
M  V30 13685 C 1251.52 3.59954 -0.333937 0
M  V30 13686 O 1251.24 4.05782 -1.65144 0
M  V30 13687 C 1252.75 4.43156 0.112997 0
M  V30 13688 H 1249.97 0.656881 -0.136927 0
M  V30 13689 H 1252.51 1.77112 -1.02234 0
M  V30 13690 H 1250.66 3.86083 0.319215 0
M  V30 13691 H 1251.08 5.00213 -1.57757 0
M  V30 13692 H 1252.55 5.51975 0.0523995 0
M  V30 13693 H 1253.03 4.23581 1.16087 0
M  V30 13694 H 1253.64 4.22216 -0.511278 0
M  V30 13695 N 1251.95 0.502579 1.49372 0
M  V30 13696 C 1253.2 -0.0432341 2.01654 0
M  V30 13697 C 1253.51 -1.379 1.38719 0
M  V30 13698 O 1254.72 -2.01159 1.82338 0
M  V30 13699 C 1253.17 -0.127509 3.59674 0
M  V30 13700 C 1252.78 1.20171 4.31582 0
M  V30 13701 C 1254.53 -0.623603 4.19895 0
M  V30 13702 C 1252.43 1.07951 5.81464 0
M  V30 13703 H 1251.36 -0.0199308 0.753737 0
M  V30 13704 H 1254.01 0.642237 1.71894 0
M  V30 13705 H 1252.4 -0.877465 3.86156 0
M  V30 13706 H 1253.57 1.96508 4.16799 0
M  V30 13707 H 1251.89 1.63136 3.83113 0
M  V30 13708 H 1254.48 -0.732562 5.29658 0
M  V30 13709 H 1254.83 -1.62282 3.83367 0
M  V30 13710 H 1255.36 0.0698641 3.97739 0
M  V30 13711 H 1252.1 2.05304 6.22519 0
M  V30 13712 H 1251.62 0.357051 5.98736 0
M  V30 13713 H 1253.3 0.758885 6.42534 0
M  V30 13714 N 1253.43 -1.55816 0.23648 0
M  V30 13715 C 1254.36 -2.23924 -0.661834 0
M  V30 13716 C 1255.34 -1.21597 -1.18946 0
M  V30 13717 O 1256.52 -1.50222 -1.23073 0
M  V30 13718 C 1253.65 -2.93069 -1.86355 0
M  V30 13719 C 1252.61 -4.01996 -1.46913 0
M  V30 13720 C 1251.93 -4.58512 -2.75083 0
M  V30 13721 C 1253.23 -5.18265 -0.647964 0
M  V30 13722 H 1254.93 -2.99253 -0.0939368 0
M  V30 13723 H 1252.47 -1.43934 -0.0437407 0
M  V30 13724 H 1254.43 -3.39412 -2.49755 0
M  V30 13725 H 1253.15 -2.15212 -2.45665 0
M  V30 13726 H 1251.81 -3.56406 -0.858522 0
M  V30 13727 H 1251.46 -3.77368 -3.3257 0
M  V30 13728 H 1251.16 -5.32037 -2.49421 0
M  V30 13729 H 1252.68 -5.07583 -3.39399 0
M  V30 13730 H 1254.1 -5.60898 -1.18602 0
M  V30 13731 H 1252.49 -5.98114 -0.487823 0
M  V30 13732 H 1253.56 -4.83691 0.342151 0
M  V30 13733 N 1254.91 0.036755 -1.57557 0
M  V30 13734 C 1256.16 0.728107 -1.881 0
M  V30 13735 C 1256.47 1.7693 -0.833974 0
M  V30 13736 O 1257.67 2.5127 -1.02837 0
M  V30 13737 C 1256.13 1.34604 -3.33781 0
M  V30 13738 C 1255.74 0.341599 -4.46696 0
M  V30 13739 C 1257.48 2.01772 -3.73481 0
M  V30 13740 C 1255.39 0.967444 -5.83433 0
M  V30 13741 H 1254.32 0.275695 -0.701789 0
M  V30 13742 H 1256.97 -0.0177555 -1.83491 0
M  V30 13743 H 1255.35 2.14135 -3.3311 0
M  V30 13744 H 1256.53 -0.426441 -4.58823 0
M  V30 13745 H 1254.84 -0.227558 -4.15778 0
M  V30 13746 H 1257.44 2.49435 -4.72955 0
M  V30 13747 H 1257.78 2.83255 -3.05077 0
M  V30 13748 H 1258.31 1.29026 -3.76294 0
M  V30 13749 H 1255.05 0.19219 -6.55218 0
M  V30 13750 H 1254.57 1.70551 -5.75041 0
M  V30 13751 H 1256.25 1.47705 -6.29914 0
M  V30 13752 N 1256.39 1.54543 0.308881 0
M  V30 13753 C 1257.3 1.87994 1.4034 0
M  V30 13754 C 1258.31 0.773294 1.55872 0
M  V30 13755 O 1259.49 1.069 1.70688 0
M  V30 13756 C 1256.55 2.11341 2.74838 0
M  V30 13757 C 1255.61 3.35086 2.68358 0
M  V30 13758 C 1254.85 3.5731 3.96441 0
M  V30 13759 O 1255.07 2.82692 4.9542 0
M  V30 13760 O 1254 4.50814 3.98811 0
M  V30 13761 H 1257.83 2.81094 1.14976 0
M  V30 13762 H 1255.41 1.40634 0.504236 0
M  V30 13763 H 1257.3 2.27943 3.54429 0
M  V30 13764 H 1255.97 1.21427 3.00062 0
M  V30 13765 H 1254.88 3.23855 1.87267 0
M  V30 13766 H 1256.21 4.25104 2.48087 0
M  V30 13767 N 1257.86 -0.571685 1.46866 0
M  V30 13768 C 1258.8 -1.69502 1.52788 0
M  V30 13769 C 1259.77 -1.58071 0.381109 0
M  V30 13770 O 1260.96 -1.79132 0.586844 0
M  V30 13771 C 1258.09 -3.07642 1.41682 0
M  V30 13772 C 1257.13 -3.37562 2.6068 0
M  V30 13773 S 1257.96 -3.28413 4.22971 0
M  V30 13774 C 1259.12 -4.69073 4.14393 0
M  V30 13775 H 1259.35 -1.64221 2.47828 0
M  V30 13776 H 1256.89 -0.751334 1.34886 0
M  V30 13777 H 1258.84 -3.8733 1.35962 0
M  V30 13778 H 1257.51 -3.10403 0.480517 0
M  V30 13779 H 1256.7 -4.38233 2.48933 0
M  V30 13780 H 1256.3 -2.65464 2.63448 0
M  V30 13781 H 1258.59 -5.59706 3.81754 0
M  V30 13782 H 1259.54 -4.85877 5.15101 0
M  V30 13783 H 1259.94 -4.4644 3.45473 0
M  V30 13784 N 1259.34 -1.34755 -0.817236 0
M  V30 13785 C 1260.59 -1.27432 -1.57377 0
M  V30 13786 C 1260.92 0.15419 -1.93888 0
M  V30 13787 O 1260.17 1.11686 -1.60701 0
M  V30 13788 C 1260.47 -2.11611 -2.8802 0
M  V30 13789 C 1260.14 -3.60543 -2.70776 0
M  V30 13790 C 1258.8 -4.01141 -2.6578 0
M  V30 13791 C 1261.15 -4.55089 -2.54053 0
M  V30 13792 C 1258.48 -5.34469 -2.41991 0
M  V30 13793 C 1260.83 -5.88603 -2.31795 0
M  V30 13794 C 1259.49 -6.28358 -2.25215 0
M  V30 13795 H 1258.76 -0.466305 -0.575882 0
M  V30 13796 H 1261.41 -1.66552 -0.945128 0
M  V30 13797 H 1259.72 -1.65336 -3.55206 0
M  V30 13798 H 1261.41 -2.03287 -3.45652 0
M  V30 13799 H 1258 -3.2832 -2.75506 0
M  V30 13800 H 1262.19 -4.24617 -2.56932 0
M  V30 13801 H 1257.44 -5.64284 -2.35359 0
M  V30 13802 H 1261.62 -6.61451 -2.17844 0
M  V30 13803 H 1259.24 -7.31604 -2.06543 0
M  V30 13804 N 1260.82 1.03812 -1.18578 0
M  V30 13805 C 1261.77 2.13994 -0.911563 0
M  V30 13806 C 1262.76 1.68907 0.129131 0
M  V30 13807 O 1263.97 1.7999 -0.0192557 0
M  V30 13808 H 1260.34 0.698996 -0.277324 0
M  V30 13809 H 1262.31 2.34318 -1.84763 0
M  V30 13810 C 1261.06 3.44689 -0.456591 0
M  V30 13811 H 1260.39 3.79793 -1.2489 0
M  V30 13812 H 1261.83 4.22911 -0.303738 0
M  V30 13813 C 1260.28 3.26568 0.827961 0
M  V30 13814 O 1260.81 3.54376 1.89158 0
M  V30 13815 N 1259.02 2.79893 0.781567 0
M  V30 13816 H 1258.57 2.57462 -0.0842145 0
M  V30 13817 H 1258.53 2.68148 1.64146 0
M  V30 13818 N 1262.3 0.988223 1.22768 0
M  V30 13819 C 1263.24 0.534605 2.24523 0
M  V30 13820 C 1264.21 -0.430615 1.60421 0
M  V30 13821 O 1265.4 -0.336417 1.87811 0
M  V30 13822 C 1262.54 -0.149195 3.44777 0
M  V30 13823 C 1261.65 0.85721 4.2341 0
M  V30 13824 C 1260.79 0.147411 5.30995 0
M  V30 13825 C 1259.83 1.1425 6.01343 0
M  V30 13826 N 1258.96 0.461327 7.00583 0
M  V30 13827 H 1263.8 1.40708 2.62689 0
M  V30 13828 H 1261.34 0.704918 1.2911 0
M  V30 13829 H 1263.3 -0.562527 4.1339 0
M  V30 13830 H 1261.93 -0.985485 3.07389 0
M  V30 13831 H 1260.98 1.38889 3.54138 0
M  V30 13832 H 1262.29 1.61517 4.71926 0
M  V30 13833 H 1261.45 -0.32289 6.0584 0
M  V30 13834 H 1260.19 -0.643085 4.83442 0
M  V30 13835 H 1259.19 1.62348 5.25284 0
M  V30 13836 H 1260.42 1.93379 6.50985 0
M  V30 13837 H 1258.36 -0.309818 6.55268 0
M  V30 13838 H 1258.28 1.15781 7.47082 0
M  V30 13839 H 1259.55 0.0136734 7.79499 0
M  V30 13840 N 1263.78 -1.38018 0.760839 0
M  V30 13841 C 1265.01 -2.03934 0.330804 0
M  V30 13842 C 1265.41 -1.57509 -1.04821 0
M  V30 13843 O 1264.76 -0.746718 -1.67839 0
M  V30 13844 C 1264.82 -3.58384 0.28303 0
M  V30 13845 C 1264.48 -4.27896 1.6048 0
M  V30 13846 C 1265.48 -4.52769 2.5553 0
M  V30 13847 C 1263.16 -4.65943 1.87624 0
M  V30 13848 C 1265.16 -5.14732 3.75938 0
M  V30 13849 C 1262.85 -5.27629 3.08304 0
M  V30 13850 C 1263.84 -5.51959 4.02281 0
M  V30 13851 O 1263.53 -6.12358 5.20838 0
M  V30 13852 H 1263.26 -0.661733 0.138148 0
M  V30 13853 H 1265.82 -1.77551 1.03271 0
M  V30 13854 H 1264.05 -3.83769 -0.47517 0
M  V30 13855 H 1265.74 -4.05727 -0.118464 0
M  V30 13856 H 1266.5 -4.23798 2.35839 0
M  V30 13857 H 1262.38 -4.46346 1.15308 0
M  V30 13858 H 1265.93 -5.33639 4.49305 0
M  V30 13859 H 1261.82 -5.56023 3.27886 0
M  V30 13860 H 1262.59 -6.30842 5.21517 0
M  V30 13861 N 1265.25 -0.510493 -1.49103 0
M  V30 13862 C 1266.2 0.276449 -2.30951 0
M  V30 13863 C 1267.2 0.953893 -1.3999 0
M  V30 13864 O 1268.4 0.880499 -1.56994 0
M  V30 13865 H 1264.78 0.108013 -0.744202 0
M  V30 13866 H 1266.75 -0.433725 -2.95231 0
M  V30 13867 C 1265.5 1.32234 -3.21573 0
M  V30 13868 H 1264.82 0.810468 -3.91499 0
M  V30 13869 H 1266.26 1.84476 -3.81765 0
M  V30 13870 C 1264.72 2.3456 -2.41833 0
M  V30 13871 O 1265.25 3.40627 -2.12922 0
M  V30 13872 N 1263.45 2.07272 -2.03682 0
M  V30 13873 H 1263 1.21036 -2.27394 0
M  V30 13874 H 1262.96 2.75963 -1.50638 0
M  V30 13875 N 1266.73 1.55688 -0.24474 0
M  V30 13876 C 1267.96 2.03743 0.387776 0
M  V30 13877 C 1268.38 1.1229 1.50906 0
M  V30 13878 O 1267.74 0.115445 1.80932 0
M  V30 13879 C 1267.79 3.49825 0.874927 0
M  V30 13880 O 1266.89 3.61504 1.98466 0
M  V30 13881 H 1266.23 0.658561 0.0848107 0
M  V30 13882 H 1268.76 2.01224 -0.370165 0
M  V30 13883 H 1268.77 3.90603 1.17871 0
M  V30 13884 H 1267.45 4.15864 0.0543852 0
M  V30 13885 H 1266.02 3.32622 1.68574 0
M  V30 13886 N 1268.21 -0.0283989 1.57574 0
M  V30 13887 C 1269.12 -1.04575 2.10003 0
M  V30 13888 C 1270.14 -1.39588 1.03881 0
M  V30 13889 O 1271.31 -1.48894 1.35619 0
M  V30 13890 C 1268.38 -2.32755 2.56955 0
M  V30 13891 C 1267.44 -2.04317 3.77562 0
M  V30 13892 C 1266.67 -3.26385 4.22266 0
M  V30 13893 O 1266.89 -4.37082 3.66491 0
M  V30 13894 O 1265.83 -3.12046 5.14695 0
M  V30 13895 H 1269.65 -0.630183 2.9709 0
M  V30 13896 H 1267.24 -0.245423 1.4737 0
M  V30 13897 H 1269.12 -3.08111 2.87482 0
M  V30 13898 H 1267.8 -2.73605 1.72979 0
M  V30 13899 H 1266.7 -1.26527 3.52054 0
M  V30 13900 H 1268.04 -1.68321 4.62524 0
M  V30 13901 N 1269.69 -1.54705 -0.300681 0
M  V30 13902 C 1270.94 -1.73211 -1.03349 0
M  V30 13903 C 1271.25 -0.52518 -1.88418 0
M  V30 13904 O 1272.46 -0.592049 -2.64966 0
M  V30 13905 C 1270.91 -3.06453 -1.88717 0
M  V30 13906 C 1270.52 -4.34625 -1.0865 0
M  V30 13907 C 1272.26 -3.34317 -2.61595 0
M  V30 13908 C 1270.17 -5.58919 -1.93297 0
M  V30 13909 H 1269.1 -0.64556 -0.389574 0
M  V30 13910 H 1271.75 -1.81186 -0.290472 0
M  V30 13911 H 1270.13 -2.92443 -2.67008 0
M  V30 13912 H 1271.31 -4.59471 -0.349707 0
M  V30 13913 H 1269.62 -4.13699 -0.473521 0
M  V30 13914 H 1272.22 -4.2438 -3.25278 0
M  V30 13915 H 1272.56 -2.53207 -3.30442 0
M  V30 13916 H 1273.1 -3.493 -1.90354 0
M  V30 13917 H 1269.83 -6.42697 -1.2892 0
M  V30 13918 H 1269.35 -5.38258 -2.64647 0
M  V30 13919 H 1271.03 -5.96187 -2.51336 0
M  V30 13920 N 1271.17 0.563888 -1.47167 0
M  V30 13921 C 1272.1 1.68137 -1.62025 0
M  V30 13922 C 1273.08 1.63481 -0.469899 0
M  V30 13923 O 1274.26 1.81206 -0.698432 0
M  V30 13924 C 1271.39 3.06779 -1.62801 0
M  V30 13925 C 1270.35 3.26278 -2.76996 0
M  V30 13926 C 1269.67 4.65638 -2.62841 0
M  V30 13927 C 1270.97 3.12295 -4.18651 0
M  V30 13928 H 1272.67 1.55958 -2.55573 0
M  V30 13929 H 1270.21 0.74887 -1.22996 0
M  V30 13930 H 1272.17 3.84795 -1.71787 0
M  V30 13931 H 1270.89 3.19901 -0.658097 0
M  V30 13932 H 1269.55 2.50668 -2.67509 0
M  V30 13933 H 1269.2 4.75551 -1.63892 0
M  V30 13934 H 1268.9 4.79635 -3.39447 0
M  V30 13935 H 1270.42 5.45798 -2.73746 0
M  V30 13936 H 1271.83 3.80136 -4.2915 0
M  V30 13937 H 1270.23 3.37805 -4.95992 0
M  V30 13938 H 1271.3 2.09126 -4.37486 0
M  V30 13939 N 1272.64 1.35187 0.810078 0
M  V30 13940 C 1273.59 1.27848 1.94313 0
M  V30 13941 C 1274.59 0.174081 1.68503 0
M  V30 13942 O 1275.79 0.339848 1.76763 0
M  V30 13943 H 1272.17 0.397504 0.638353 0
M  V30 13944 H 1274.14 2.23579 1.97623 0
M  V30 13945 C 1272.89 1.06382 3.31026 0
M  V30 13946 H 1272.21 1.90601 3.51441 0
M  V30 13947 H 1273.65 1.05287 4.1072 0
M  V30 13948 C 1272.11 -0.232462 3.36097 0
M  V30 13949 O 1272.64 -1.22946 3.82423 0
M  V30 13950 N 1270.85 -0.270028 2.89343 0
M  V30 13951 H 1270.39 0.541891 2.51836 0
M  V30 13952 H 1270.35 -1.13708 2.93117 0
M  V30 13953 N 1274.12 -1.03182 1.19127 0
M  V30 13954 C 1275.07 -2.13507 0.922899 0
M  V30 13955 C 1276.06 -1.68973 -0.120171 0
M  V30 13956 O 1277.27 -1.79977 0.0288007 0
M  V30 13957 H 1273.65 -0.697516 0.281027 0
M  V30 13958 H 1275.62 -2.33335 1.86003 0
M  V30 13959 C 1274.37 -3.44442 0.474864 0
M  V30 13960 H 1273.69 -3.79125 1.26902 0
M  V30 13961 H 1275.13 -4.22744 0.326162 0
M  V30 13962 C 1273.59 -3.27002 -0.81063 0
M  V30 13963 O 1274.12 -3.55374 -1.87276 0
M  V30 13964 N 1272.32 -2.80303 -0.766713 0
M  V30 13965 H 1271.87 -2.57414 0.0978672 0
M  V30 13966 H 1271.83 -2.69015 -1.62721 0
M  V30 13967 N 1275.6 -0.99472 -1.22242 0
M  V30 13968 C 1276.85 -0.667045 -1.90351 0
M  V30 13969 C 1277.16 0.804615 -1.78284 0
M  V30 13970 O 1278.37 1.24395 -2.41326 0
M  V30 13971 C 1276.82 -1.14256 -3.41282 0
M  V30 13972 C 1276.43 -2.63958 -3.61981 0
M  V30 13973 C 1278.18 -0.889302 -4.1508 0
M  V30 13974 C 1276.08 -3.05103 -5.06622 0
M  V30 13975 H 1275.01 -0.245795 -0.712812 0
M  V30 13976 H 1277.66 -1.20452 -1.38432 0
M  V30 13977 H 1276.05 -0.533203 -3.92394 0
M  V30 13978 H 1277.22 -3.30255 -3.21354 0
M  V30 13979 H 1275.54 -2.87186 -3.01518 0
M  V30 13980 H 1278.13 -1.17239 -5.21689 0
M  V30 13981 H 1278.48 0.174556 -4.15934 0
M  V30 13982 H 1279.01 -1.46095 -3.70002 0
M  V30 13983 H 1275.75 -4.10672 -5.1091 0
M  V30 13984 H 1275.27 -2.4351 -5.48145 0
M  V30 13985 H 1276.95 -2.96506 -5.75059 0
M  V30 13986 N 1277.08 1.37613 -0.768148 0
M  V30 13987 C 1278.33 1.99023 -0.327543 0
M  V30 13988 C 1278.64 1.61669 1.10103 0
M  V30 13989 O 1279.85 2.16155 1.64284 0
M  V30 13990 C 1278.3 3.55906 -0.534674 0
M  V30 13991 C 1277.91 4.02201 -1.97327 0
M  V30 13992 C 1279.65 4.24208 -0.157512 0
M  V30 13993 C 1277.56 5.51781 -2.12819 0
M  V30 13994 H 1276.49 0.744595 -0.118722 0
M  V30 13995 H 1279.14 1.5719 -0.946764 0
M  V30 13996 H 1277.52 3.95701 0.153951 0
M  V30 13997 H 1278.7 3.73661 -2.69655 0
M  V30 13998 H 1277.01 3.46671 -2.30669 0
M  V30 13999 H 1279.61 5.34107 -0.251824 0
M  V30 14000 H 1279.95 4.06636 0.89177 0
M  V30 14001 H 1280.49 3.89703 -0.798546 0
M  V30 14002 H 1277.23 5.74274 -3.16053 0
M  V30 14003 H 1276.75 5.82017 -1.4497 0
M  V30 14004 H 1278.42 6.17697 -1.92508 0
M  V30 14005 N 1278.56 0.518393 1.4883 0
M  V30 14006 C 1279.49 -0.239685 2.32267 0
M  V30 14007 C 1280.47 -0.94613 1.41359 0
M  V30 14008 O 1281.65 -0.934162 1.70256 0
M  V30 14009 C 1278.78 -1.29411 3.22289 0
M  V30 14010 C 1277.74 -0.706504 4.22129 0
M  V30 14011 C 1277.06 -1.86273 5.01205 0
M  V30 14012 C 1278.36 0.314079 5.21355 0
M  V30 14013 H 1280.06 0.4568 2.95895 0
M  V30 14014 H 1277.6 0.221126 1.42292 0
M  V30 14015 H 1279.56 -1.8323 3.7948 0
M  V30 14016 H 1278.28 -2.02001 2.56638 0
M  V30 14017 H 1276.94 -0.189924 3.66108 0
M  V30 14018 H 1276.59 -2.57674 4.31988 0
M  V30 14019 H 1276.29 -1.47554 5.68772 0
M  V30 14020 H 1277.81 -2.40492 5.61245 0
M  V30 14021 H 1279.22 -0.136604 5.73137 0
M  V30 14022 H 1277.62 0.618026 5.96909 0
M  V30 14023 H 1278.69 1.22394 4.69199 0
M  V30 14024 N 1280.03 -1.55556 0.252993 0
M  V30 14025 C 1280.98 -2.23035 -0.660161 0
M  V30 14026 C 1281.98 -1.21994 -1.17532 0
M  V30 14027 O 1283.18 -1.39989 -1.13151 0
M  V30 14028 H 1279.56 -0.715516 -0.23139 0
M  V30 14029 H 1281.53 -2.98323 -0.0679506 0
M  V30 14030 C 1280.28 -2.94817 -1.84332 0
M  V30 14031 H 1279.6 -3.72342 -1.45607 0
M  V30 14032 H 1281.04 -3.45386 -2.45936 0
M  V30 14033 C 1279.5 -1.99033 -2.71822 0
M  V30 14034 O 1280.03 -1.5273 -3.71533 0
M  V30 14035 N 1278.24 -1.66004 -2.38518 0
M  V30 14036 H 1277.78 -2.03853 -1.57485 0
M  V30 14037 H 1277.74 -1.02183 -2.97331 0
M  V30 14038 N 1281.51 0.0200419 -1.57587 0
M  V30 14039 C 1282.44 1.01715 -2.10181 0
M  V30 14040 C 1283.42 1.37136 -1.00636 0
M  V30 14041 O 1284.61 1.45862 -1.2821 0
M  V30 14042 C 1281.74 2.31531 -2.58865 0
M  V30 14043 C 1280.69 2.10327 -3.72755 0
M  V30 14044 C 1280.02 3.45981 -4.07678 0
M  V30 14045 C 1281.32 1.4821 -5.0083 0
M  V30 14046 H 1283.01 0.579307 -2.93742 0
M  V30 14047 H 1280.56 0.277211 -1.41307 0
M  V30 14048 H 1282.51 3.01623 -2.94281 0
M  V30 14049 H 1281.24 2.77392 -1.72399 0
M  V30 14050 H 1279.89 1.42665 -3.37701 0
M  V30 14051 H 1279.54 3.89508 -3.18265 0
M  V30 14052 H 1279.24 3.32616 -4.84397 0
M  V30 14053 H 1280.77 4.17421 -4.45637 0
M  V30 14054 H 1282.18 2.08232 -5.34146 0
M  V30 14055 H 1280.58 1.45393 -5.82221 0
M  V30 14056 H 1281.65 0.448942 -4.82817 0
M  V30 14057 N 1282.99 1.54862 0.292472 0
M  V30 14058 C 1284.41 1.46267 0.638611 0
M  V30 14059 C 1284.61 0.660824 1.90356 0
M  V30 14060 O 1283.66 0.171909 2.51914 0
M  V30 14061 C 1284.98 2.90309 0.783675 0
M  V30 14062 C 1286.52 3.00404 0.879004 0
M  V30 14063 C 1287 4.4566 1.056 0
M  V30 14064 N 1288.49 4.49406 1.122 0
M  V30 14065 C 1289.22 5.5899 1.2774 0
M  V30 14066 N 1288.72 6.78482 1.40123 0
M  V30 14067 N 1290.51 5.46695 1.30696 0
M  V30 14068 H 1282.66 2.0546 -0.538521 0
M  V30 14069 H 1284.93 0.930879 -0.179354 0
M  V30 14070 H 1284.63 3.5162 -0.0750437 0
M  V30 14071 H 1284.51 3.38215 1.67004 0
M  V30 14072 H 1286.89 2.39201 1.7282 0
M  V30 14073 H 1286.98 2.55781 -0.0315624 0
M  V30 14074 H 1286.62 5.07459 0.211535 0
M  V30 14075 H 1286.55 4.87921 1.98092 0
M  V30 14076 H 1289.04 3.63322 1.03948 0
M  V30 14077 H 1289.35 7.57752 1.5176 0
M  V30 14078 H 1287.7 6.81331 1.37163 0
M  V30 14079 H 1290.89 4.52288 1.20638 0
M  V30 14080 H 1291.06 6.32146 1.42463 0
M  V30 14081 N 1284.47 -0.556076 1.47464 0
M  V30 14082 C 1285.7 -1.33664 1.57536 0
M  V30 14083 C 1286.11 -1.87858 0.224977 0
M  V30 14084 O 1285.45 -1.65746 -0.792091 0
M  V30 14085 C 1285.51 -2.54257 2.54152 0
M  V30 14086 C 1285.18 -2.21342 3.99821 0
M  V30 14087 C 1286.17 -1.78568 4.88272 0
M  V30 14088 C 1283.86 -2.32666 4.45165 0
M  V30 14089 C 1285.85 -1.47549 6.20087 0
M  V30 14090 C 1283.54 -2.0126 5.77008 0
M  V30 14091 C 1284.54 -1.58769 6.6429 0
M  V30 14092 O 1284.22 -1.27762 7.93683 0
M  V30 14093 H 1283.96 -0.413721 0.534613 0
M  V30 14094 H 1286.51 -0.680342 1.93805 0
M  V30 14095 H 1284.74 -3.22782 2.12952 0
M  V30 14096 H 1286.43 -3.16332 2.5434 0
M  V30 14097 H 1287.2 -1.69311 4.54487 0
M  V30 14098 H 1283.07 -2.64698 3.77433 0
M  V30 14099 H 1286.62 -1.1431 6.88171 0
M  V30 14100 H 1282.52 -2.10149 6.10334 0
M  V30 14101 H 1283.28 -1.41383 8.06197 0
M  V30 14102 N 1285.95 -1.35615 -0.802897 0
M  V30 14103 C 1286.89 -1.28839 -1.91492 0
M  V30 14104 C 1287.86 -0.159621 -1.65331 0
M  V30 14105 O 1289.05 -0.343931 -1.87675 0
M  V30 14106 C 1286.19 -1.06999 -3.28093 0
M  V30 14107 C 1285.3 -2.28831 -3.66416 0
M  V30 14108 C 1284.44 -2.00111 -4.92066 0
M  V30 14109 C 1283.48 -3.17977 -5.23027 0
M  V30 14110 N 1282.61 -2.89009 -6.39858 0
M  V30 14111 H 1287.45 -2.2393 -1.96619 0
M  V30 14112 H 1284.99 -1.1131 -0.961687 0
M  V30 14113 H 1286.95 -0.923673 -4.06847 0
M  V30 14114 H 1285.58 -0.155684 -3.22424 0
M  V30 14115 H 1284.63 -2.54314 -2.82893 0
M  V30 14116 H 1285.94 -3.1683 -3.85253 0
M  V30 14117 H 1285.1 -1.82331 -5.78654 0
M  V30 14118 H 1283.84 -1.09402 -4.75271 0
M  V30 14119 H 1282.84 -3.3633 -4.34928 0
M  V30 14120 H 1284.07 -4.09493 -5.41749 0
M  V30 14121 H 1282.01 -2.00898 -6.24481 0
M  V30 14122 H 1281.93 -3.70544 -6.58964 0
M  V30 14123 H 1283.2 -2.74779 -7.29463 0
M  V30 14124 N 1287.43 1.02549 -1.19673 0
M  V30 14125 C 1288.7 1.73106 -0.9107 0
M  V30 14126 C 1289.08 2.02897 0.582769 0
M  V30 14127 O 1288.43 1.68633 1.54192 0
M  V30 14128 C 1288.64 3.00535 -1.77425 0
M  V30 14129 C 1289.99 3.73976 -2.01065 0
M  V30 14130 O 1291.01 3.1047 -1.74605 0
M  V30 14131 O 1289.87 4.88153 -2.457 0
M  V30 14132 H 1286.97 0.754006 -0.339711 0
M  V30 14133 H 1289.51 1.08477 -1.30502 0
M  V30 14134 H 1288.28 2.74773 -2.78595 0
M  V30 14135 H 1287.91 3.72904 -1.37943 0
M  V30 14136 N 1288.9 1.00119 1.21713 0
M  V30 14137 C 1289.85 0.551452 2.25969 0
M  V30 14138 C 1290.85 -0.402075 1.64559 0
M  V30 14139 O 1292.05 -0.273685 1.77907 0
M  V30 14140 H 1288.43 0.159968 0.734789 0
M  V30 14141 H 1290.4 1.44201 2.61244 0
M  V30 14142 C 1289.15 -0.109992 3.47526 0
M  V30 14143 H 1288.47 0.614686 3.95046 0
M  V30 14144 H 1289.91 -0.388007 4.22221 0
M  V30 14145 C 1288.37 -1.34798 3.08757 0
M  V30 14146 O 1288.9 -2.44266 3.189 0
M  V30 14147 N 1287.1 -1.2263 2.63458 0
M  V30 14148 H 1286.65 -0.335571 2.55405 0
M  V30 14149 H 1286.61 -2.05565 2.37887 0
M  V30 14150 N 1290.38 -1.37203 0.775435 0
M  V30 14151 C 1291.33 -2.32102 0.152051 0
M  V30 14152 C 1292.32 -1.55117 -0.680806 0
M  V30 14153 O 1293.53 -1.70486 -0.577455 0
M  V30 14154 H 1289.9 -0.751386 0.0303853 0
M  V30 14155 H 1291.88 -2.82259 0.968121 0
M  V30 14156 C 1290.62 -3.40378 -0.709788 0
M  V30 14157 H 1289.95 -3.99723 -0.0782879 0
M  V30 14158 H 1291.39 -4.09134 -1.11288 0
M  V30 14159 C 1289.85 -2.80769 -1.862 0
M  V30 14160 O 1290.38 -2.71813 -2.95771 0
M  V30 14161 N 1288.58 -2.38259 -1.66376 0
M  V30 14162 H 1288.13 -2.45743 -0.772531 0
M  V30 14163 H 1288.09 -1.98721 -2.43634 0
M  V30 14164 N 1291.86 -0.526279 -1.48553 0
M  V30 14165 C 1292.79 0.227364 -2.3239 0
M  V30 14166 C 1293.77 0.93862 -1.41859 0
M  V30 14167 O 1294.96 0.925119 -1.70749 0
M  V30 14168 C 1292.09 1.277 -3.22971 0
M  V30 14169 C 1291.04 0.684107 -4.22497 0
M  V30 14170 C 1290.37 1.83612 -5.02186 0
M  V30 14171 C 1291.67 -0.341723 -5.21181 0
M  V30 14172 H 1293.36 -0.472486 -2.95648 0
M  V30 14173 H 1290.91 -0.228669 -1.42173 0
M  V30 14174 H 1292.86 1.81215 -3.80446 0
M  V30 14175 H 1291.58 2.00638 -2.57705 0
M  V30 14176 H 1290.24 0.170505 -3.66203 0
M  V30 14177 H 1289.89 2.55379 -4.33348 0
M  V30 14178 H 1289.59 1.44536 -5.69547 0
M  V30 14179 H 1291.11 2.37513 -5.62512 0
M  V30 14180 H 1292.53 0.106207 -5.73202 0
M  V30 14181 H 1290.92 -0.649673 -5.96573 0
M  V30 14182 H 1291.99 -1.2488 -4.68543 0
M  V30 14183 N 1293.34 1.5542 -0.261239 0
M  V30 14184 C 1294.59 1.9846 0.360052 0
M  V30 14185 C 1294.9 1.15288 1.58013 0
M  V30 14186 O 1296.11 1.48408 2.27348 0
M  V30 14187 C 1294.56 3.53185 0.691964 0
M  V30 14188 C 1294.17 4.45116 -0.507521 0
M  V30 14189 C 1295.91 4.04848 1.27665 0
M  V30 14190 C 1293.82 5.91207 -0.150966 0
M  V30 14191 H 1292.75 0.741207 0.138303 0
M  V30 14192 H 1295.4 1.79859 -0.363712 0
M  V30 14193 H 1293.78 3.67535 1.47425 0
M  V30 14194 H 1294.96 4.42531 -1.28465 0
M  V30 14195 H 1293.27 4.04013 -1.0081 0
M  V30 14196 H 1295.87 5.11529 1.55699 0
M  V30 14197 H 1296.21 3.5305 2.20593 0
M  V30 14198 H 1296.75 3.93882 0.556955 0
M  V30 14199 H 1293.48 6.47072 -1.04776 0
M  V30 14200 H 1293 5.96894 0.589671 0
M  V30 14201 H 1294.68 6.4647 0.261772 0
M  V30 14202 N 1294.82 -0.0116844 1.57596 0
M  V30 14203 C 1296.09 -0.735344 1.81251 0
M  V30 14204 C 1296.47 -1.92634 0.863446 0
M  V30 14205 O 1295.82 -2.28321 -0.0905028 0
M  V30 14206 C 1296.03 -1.15206 3.29437 0
M  V30 14207 C 1297.38 -1.56078 3.94873 0
M  V30 14208 O 1298.4 -1.24618 3.3369 0
M  V30 14209 O 1297.26 -2.14534 5.0263 0
M  V30 14210 H 1294.36 -0.357044 0.745955 0
M  V30 14211 H 1296.9 0.0128733 1.69695 0
M  V30 14212 H 1295.67 -0.302619 3.90128 0
M  V30 14213 H 1295.3 -1.95975 3.45947 0
M  V30 14214 N 1296.29 -1.55015 -0.284256 0
M  V30 14215 C 1297.22 -1.90128 -1.3555 0
M  V30 14216 C 1298.2 -0.761914 -1.52082 0
M  V30 14217 O 1299.39 -1.01909 -1.65312 0
M  V30 14218 C 1296.52 -2.16332 -2.71695 0
M  V30 14219 C 1295.47 -3.32166 -2.69907 0
M  V30 14220 C 1294.8 -3.43824 -4.09498 0
M  V30 14221 C 1296.1 -4.6885 -2.30168 0
M  V30 14222 H 1297.79 -2.79852 -1.06411 0
M  V30 14223 H 1295.34 -1.34649 -0.510451 0
M  V30 14224 H 1297.29 -2.39482 -3.46737 0
M  V30 14225 H 1296.02 -1.23395 -3.02392 0
M  V30 14226 H 1294.68 -3.08965 -1.97322 0
M  V30 14227 H 1294.32 -2.48375 -4.374 0
M  V30 14228 H 1294.02 -4.21698 -4.092 0
M  V30 14229 H 1295.55 -3.69254 -4.86296 0
M  V30 14230 H 1296.96 -4.91619 -2.9493 0
M  V30 14231 H 1295.36 -5.49558 -2.41052 0
M  V30 14232 H 1296.43 -4.68433 -1.25294 0
M  V30 14233 N 1297.77 0.548248 -1.47757 0
M  V30 14234 C 1299 1.335 -1.58722 0
M  V30 14235 C 1299.42 1.86549 -0.241034 0
M  V30 14236 O 1298.78 1.63447 0.784517 0
M  V30 14237 C 1298.83 2.47457 -2.62293 0
M  V30 14238 O 1297.93 3.49956 -2.18185 0
M  V30 14239 H 1297.27 0.396166 -0.532868 0
M  V30 14240 H 1299.8 0.66164 -1.93607 0
M  V30 14241 H 1299.81 2.93901 -2.82995 0
M  V30 14242 H 1298.49 2.08203 -3.60034 0
M  V30 14243 H 1297.06 3.09755 -2.0762 0
M  V30 14244 N 1299.25 1.36039 0.795694 0
M  V30 14245 C 1300.5 1.29663 1.55023 0
M  V30 14246 C 1300.82 -0.125588 1.94595 0
M  V30 14247 O 1300.09 -1.06447 1.64456 0
M  V30 14248 H 1298.67 0.476962 0.574906 0
M  V30 14249 H 1301.33 1.70265 0.948471 0
M  V30 14250 H 1300.43 1.91982 2.46068 0
M  V30 14251 N 1300.73 -1.01913 1.20215 0
M  V30 14252 C 1301.96 -1.78817 1.0348 0
M  V30 14253 C 1302.37 -1.84499 -0.419152 0
M  V30 14254 O 1301.71 -1.29506 -1.30284 0
M  V30 14255 C 1301.77 -3.24858 1.53973 0
M  V30 14256 C 1301.44 -3.42788 3.02234 0
M  V30 14257 C 1302.43 -3.32213 3.99914 0
M  V30 14258 C 1300.12 -3.68687 3.41138 0
M  V30 14259 C 1302.11 -3.47276 5.34489 0
M  V30 14260 C 1299.8 -3.83394 4.7587 0
M  V30 14261 C 1300.8 -3.72693 5.72354 0
M  V30 14262 O 1300.48 -3.86953 7.04643 0
M  V30 14263 H 1300.22 -0.569268 0.364568 0
M  V30 14264 H 1302.77 -1.29184 1.59689 0
M  V30 14265 H 1301 -3.7556 0.921478 0
M  V30 14266 H 1302.69 -3.83388 1.33297 0
M  V30 14267 H 1303.46 -3.12145 3.71202 0
M  V30 14268 H 1299.33 -3.76104 2.66583 0
M  V30 14269 H 1302.88 -3.3884 6.09782 0
M  V30 14270 H 1298.78 -4.02962 5.04273 0
M  V30 14271 H 1299.54 -4.03986 7.11855 0
M  V30 14272 N 1302.21 -1.00763 -1.2118 0
M  V30 14273 C 1303.45 -0.690459 -1.8994 0
M  V30 14274 C 1303.78 0.781464 -1.78656 0
M  V30 14275 O 1303.05 1.56135 -1.18316 0
M  V30 14276 H 1301.63 -0.252397 -0.703068 0
M  V30 14277 H 1304.29 -1.2773 -1.47211 0
M  V30 14278 H 1303.38 -0.96594 -2.96776 0
M  V30 14279 N 1303.68 1.3679 -0.7827 0
M  V30 14280 C 1304.65 2.28472 -0.182525 0
M  V30 14281 C 1305.65 1.48524 0.616217 0
M  V30 14282 O 1306.84 1.68599 0.438197 0
M  V30 14283 C 1303.97 3.32588 0.748202 0
M  V30 14284 H 1305.16 2.83059 -0.99085 0
M  V30 14285 H 1302.72 1.46241 -0.551658 0
M  V30 14286 H 1303.45 2.83145 1.58112 0
M  V30 14287 H 1303.24 3.91698 0.177481 0
M  V30 14288 H 1304.73 4.01073 1.16321 0
M  V30 14289 N 1305.16 0.53415 1.48272 0
M  V30 14290 C 1306.11 -0.226335 2.29688 0
M  V30 14291 C 1307.08 -0.929937 1.37628 0
M  V30 14292 O 1308.26 -0.930149 1.66592 0
M  V30 14293 C 1305.4 -1.26472 3.2109 0
M  V30 14294 C 1304.52 -0.569542 4.28229 0
M  V30 14295 C 1303.65 -1.59122 5.06807 0
M  V30 14296 C 1302.69 -0.879734 6.05745 0
M  V30 14297 N 1301.83 -1.84715 6.77366 0
M  V30 14298 H 1306.67 0.474111 2.94204 0
M  V30 14299 H 1304.21 0.245643 1.45034 0
M  V30 14300 H 1306.16 -1.87911 3.72485 0
M  V30 14301 H 1304.79 -1.9335 2.58487 0
M  V30 14302 H 1303.85 0.158872 3.80068 0
M  V30 14303 H 1305.16 -0.0110904 4.98799 0
M  V30 14304 H 1304.31 -2.27977 5.62238 0
M  V30 14305 H 1303.05 -2.18357 4.36086 0
M  V30 14306 H 1302.06 -0.177134 5.49515 0
M  V30 14307 H 1303.28 -0.293439 6.78466 0
M  V30 14308 H 1301.23 -2.42851 6.09393 0
M  V30 14309 H 1301.14 -1.34025 7.44025 0
M  V30 14310 H 1302.41 -2.52756 7.37384 0
M  V30 14311 N 1306.64 -1.55279 0.269478 0
M  V30 14312 C 1307.89 -1.99767 -0.34943 0
M  V30 14313 C 1308.22 -1.15762 -1.55926 0
M  V30 14314 O 1307.49 -0.22633 -1.93179 0
M  V30 14315 C 1307.78 -3.52474 -0.73716 0
M  V30 14316 C 1307.63 -4.47236 0.479621 0
M  V30 14317 C 1308.95 -4.10924 -1.57573 0
M  V30 14318 H 1306.07 -0.72623 -0.125535 0
M  V30 14319 H 1308.71 -1.86257 0.375298 0
M  V30 14320 H 1306.86 -3.64118 -1.35464 0
M  V30 14321 H 1308.53 -4.47543 1.11816 0
M  V30 14322 H 1306.78 -4.19127 1.11871 0
M  V30 14323 H 1307.45 -5.51754 0.164653 0
M  V30 14324 H 1309.92 -4.02522 -1.05429 0
M  V30 14325 H 1308.8 -5.17995 -1.81584 0
M  V30 14326 H 1309.06 -3.60798 -2.55495 0
M  V30 14327 N 1308.12 0.00332656 -1.576 0
M  V30 14328 C 1309.03 1.01221 -2.1164 0
M  V30 14329 C 1310.04 1.37918 -1.06088 0
M  V30 14330 O 1311.22 1.46717 -1.37971 0
M  V30 14331 C 1308.29 2.28638 -2.60626 0
M  V30 14332 C 1307.35 1.98284 -3.80765 0
M  V30 14333 C 1306.58 3.19626 -4.27405 0
M  V30 14334 O 1306.8 4.31196 -3.73398 0
M  V30 14335 O 1305.74 3.03819 -5.19594 0
M  V30 14336 H 1309.56 0.582839 -2.98055 0
M  V30 14337 H 1307.15 0.221947 -1.47742 0
M  V30 14338 H 1309.03 3.03498 -2.92347 0
M  V30 14339 H 1307.7 2.70819 -1.7731 0
M  V30 14340 H 1306.61 1.2091 -3.54022 0
M  V30 14341 H 1307.94 1.60942 -4.65144 0
M  V30 14342 N 1309.6 1.55164 0.276031 0
M  V30 14343 C 1310.84 1.75887 1.00953 0
M  V30 14344 C 1311.18 0.5567 1.8605 0
M  V30 14345 O 1310.45 -0.445799 1.89322 0
M  V30 14346 C 1310.73 3.06228 1.89463 0
M  V30 14347 C 1310.59 4.36795 1.07379 0
M  V30 14348 C 1311.91 3.32589 2.88223 0
M  V30 14349 H 1309.02 0.639929 0.365596 0
M  V30 14350 H 1311.67 1.87893 0.282156 0
M  V30 14351 H 1309.82 2.96124 2.51481 0
M  V30 14352 H 1311.49 4.58853 0.474549 0
M  V30 14353 H 1309.73 4.32157 0.377165 0
M  V30 14354 H 1310.4 5.24315 1.72621 0
M  V30 14355 H 1312.88 3.42467 2.36338 0
M  V30 14356 H 1311.75 4.2506 3.47297 0
M  V30 14357 H 1312.02 2.52083 3.6319 0
M  V30 14358 N 1311.07 -0.540404 1.48045 0
M  V30 14359 C 1312.3 -1.31986 1.58944 0
M  V30 14360 C 1312.71 -1.87608 0.244889 0
M  V30 14361 O 1312.06 -1.66576 -0.774467 0
M  V30 14362 C 1312.12 -2.51547 2.56835 0
M  V30 14363 C 1311.78 -2.17089 4.02146 0
M  V30 14364 C 1312.78 -1.73379 4.90138 0
M  V30 14365 C 1310.46 -2.27932 4.47607 0
M  V30 14366 C 1312.46 -1.40964 6.21617 0
M  V30 14367 C 1310.14 -1.95129 5.7911 0
M  V30 14368 C 1311.14 -1.51715 6.65937 0
M  V30 14369 O 1310.83 -1.19337 7.94993 0
M  V30 14370 H 1310.56 -0.408028 0.538971 0
M  V30 14371 H 1313.12 -0.659748 1.94516 0
M  V30 14372 H 1311.35 -3.20505 2.16364 0
M  V30 14373 H 1313.04 -3.13617 2.57681 0
M  V30 14374 H 1313.8 -1.64481 4.56258 0
M  V30 14375 H 1309.68 -2.6068 3.8022 0
M  V30 14376 H 1313.22 -1.07005 6.89344 0
M  V30 14377 H 1309.12 -2.03664 6.12528 0
M  V30 14378 H 1309.89 -1.32824 8.07651 0
M  V30 14379 N 1312.55 -1.36459 -0.788468 0
M  V30 14380 C 1313.83 -1.21289 -1.53455 0
M  V30 14381 C 1314.21 0.200549 -2.10145 0
M  V30 14382 O 1313.56 1.20629 -1.94064 0
M  V30 14383 C 1313.77 -2.29562 -2.62873 0
M  V30 14384 C 1315.12 -2.66277 -3.30729 0
M  V30 14385 O 1316.14 -2.28612 -2.73157 0
M  V30 14386 O 1315 -3.31106 -4.34777 0
M  V30 14387 H 1312.09 -0.472306 -0.678864 0
M  V30 14388 H 1314.64 -1.48192 -0.826869 0
M  V30 14389 H 1313.41 -3.24286 -2.18984 0
M  V30 14390 H 1313.03 -2.0403 -3.41259 0
M  V30 14391 N 1314.03 1.01274 -1.20754 0
M  V30 14392 C 1315.28 1.74586 -1.01804 0
M  V30 14393 C 1315.6 1.89727 0.450419 0
M  V30 14394 O 1314.87 1.44257 1.32539 0
M  V30 14395 H 1313.45 0.646804 -0.373702 0
M  V30 14396 H 1316.11 1.22079 -1.5193 0
M  V30 14397 H 1315.21 2.748 -1.47958 0
M  V30 14398 N 1315.51 1.01404 1.20644 0
M  V30 14399 C 1316.76 0.702949 1.90227 0
M  V30 14400 C 1317.09 -0.765243 1.78487 0
M  V30 14401 O 1316.36 -1.55569 1.16741 0
M  V30 14402 C 1316.65 1.13606 3.4171 0
M  V30 14403 C 1316.5 2.66437 3.62397 0
M  V30 14404 C 1317.82 0.705361 4.34411 0
M  V30 14405 H 1314.94 0.256842 0.690797 0
M  V30 14406 H 1317.58 1.26133 1.42093 0
M  V30 14407 H 1315.73 0.660977 3.82836 0
M  V30 14408 H 1317.4 3.21778 3.3054 0
M  V30 14409 H 1315.64 3.0753 3.05954 0
M  V30 14410 H 1316.32 2.91795 4.68572 0
M  V30 14411 H 1318.79 1.11375 4.00918 0
M  V30 14412 H 1317.67 1.03647 5.39026 0
M  V30 14413 H 1317.93 -0.393094 4.40349 0
M  V30 14414 N 1316.99 -1.36373 0.789944 0
M  V30 14415 C 1317.9 -2.3383 0.189873 0
M  V30 14416 C 1318.91 -1.61068 -0.65827 0
M  V30 14417 O 1320.09 -1.93049 -0.573932 0
M  V30 14418 C 1317.15 -3.40264 -0.664905 0
M  V30 14419 C 1316.22 -4.28825 0.201798 0
M  V30 14420 C 1315.45 -5.30176 -0.612278 0
M  V30 14421 O 1315.67 -5.39627 -1.84821 0
M  V30 14422 O 1314.61 -6.01899 -0.0118964 0
M  V30 14423 H 1318.43 -2.86915 0.995671 0
M  V30 14424 H 1316.02 -1.38852 0.551412 0
M  V30 14425 H 1317.9 -4.05339 -1.15231 0
M  V30 14426 H 1316.57 -2.89478 -1.44858 0
M  V30 14427 H 1315.48 -3.66789 0.735974 0
M  V30 14428 H 1316.81 -4.82965 0.949003 0
M  V30 14429 N 1318.47 -0.542005 -1.47987 0
M  V30 14430 C 1319.4 0.202703 -2.32618 0
M  V30 14431 C 1320.38 0.923521 -1.42846 0
M  V30 14432 O 1321.56 0.906957 -1.7172 0
M  V30 14433 C 1318.69 1.24267 -3.24307 0
M  V30 14434 C 1317.65 0.639257 -4.23199 0
M  V30 14435 C 1316.97 1.78275 -5.04105 0
M  V30 14436 C 1318.27 -0.396982 -5.20789 0
M  V30 14437 H 1319.97 -0.503817 -2.95131 0
M  V30 14438 H 1317.51 -0.243736 -1.41922 0
M  V30 14439 H 1319.46 1.7717 -3.82347 0
M  V30 14440 H 1318.19 1.97893 -2.59819 0
M  V30 14441 H 1316.85 0.131655 -3.66364 0
M  V30 14442 H 1316.5 2.50768 -4.36032 0
M  V30 14443 H 1316.2 1.38487 -5.71047 0
M  V30 14444 H 1317.72 2.31533 -5.65 0
M  V30 14445 H 1319.13 0.0454057 -5.73282 0
M  V30 14446 H 1317.53 -0.712911 -5.9585 0
M  V30 14447 H 1318.6 -1.29843 -4.67193 0
M  V30 14448 N 1319.94 1.55134 -0.277709 0
M  V30 14449 C 1320.89 2.24057 0.624594 0
M  V30 14450 C 1321.89 1.23848 1.15577 0
M  V30 14451 O 1323.09 1.41771 1.1091 0
M  V30 14452 H 1319.47 0.719106 0.219977 0
M  V30 14453 H 1321.44 2.98393 0.0204815 0
M  V30 14454 C 1320.19 2.97712 1.79618 0
M  V30 14455 H 1319.51 3.74611 1.39665 0
M  V30 14456 H 1320.95 3.49255 2.4041 0
M  V30 14457 C 1319.41 2.03332 2.68622 0
M  V30 14458 O 1319.94 1.58622 3.69056 0
M  V30 14459 N 1318.14 1.69778 2.35847 0
M  V30 14460 H 1317.69 2.06333 1.54222 0
M  V30 14461 H 1317.65 1.06901 2.95668 0
M  V30 14462 N 1321.42 0.00503138 1.57599 0
M  V30 14463 C 1322.7 -0.716079 1.82021 0
M  V30 14464 C 1323.08 -1.91707 0.883829 0
M  V30 14465 O 1322.43 -2.28404 -0.0662812 0
M  V30 14466 C 1322.64 -1.11706 3.3064 0
M  V30 14467 C 1323.98 -1.51881 3.96506 0
M  V30 14468 O 1325.01 -1.21071 3.34993 0
M  V30 14469 O 1323.87 -2.09191 5.04877 0
M  V30 14470 H 1320.96 -0.349112 0.7497 0
M  V30 14471 H 1323.51 0.030871 1.69672 0
M  V30 14472 H 1322.28 -0.261223 3.90427 0
M  V30 14473 H 1321.9 -1.92295 3.48006 0
M  V30 14474 N 1322.9 -1.55308 -0.267798 0
M  V30 14475 C 1323.85 -1.88544 -1.33115 0
M  V30 14476 C 1324.82 -0.737465 -1.48831 0
M  V30 14477 O 1326 -0.989215 -1.63154 0
M  V30 14478 C 1323.14 -2.1674 -2.68547 0
M  V30 14479 C 1322.25 -3.44234 -2.61011 0
M  V30 14480 C 1321.39 -3.62104 -3.88657 0
M  V30 14481 C 1320.43 -4.83272 -3.75652 0
M  V30 14482 N 1319.57 -4.97772 -4.95144 0
M  V30 14483 H 1324.41 -2.79237 -1.04071 0
M  V30 14484 H 1321.94 -1.38245 -0.502677 0
M  V30 14485 H 1323.9 -2.31088 -3.47353 0
M  V30 14486 H 1322.53 -1.29276 -2.95783 0
M  V30 14487 H 1321.58 -3.3833 -1.73887 0
M  V30 14488 H 1322.89 -4.33177 -2.47303 0
M  V30 14489 H 1322.05 -3.76298 -4.75904 0
M  V30 14490 H 1320.79 -2.71356 -4.05238 0
M  V30 14491 H 1319.79 -4.69076 -2.86788 0
M  V30 14492 H 1321.02 -5.75461 -3.60585 0
M  V30 14493 H 1318.96 -4.09956 -5.12125 0
M  V30 14494 H 1318.88 -5.80769 -4.83987 0
M  V30 14495 H 1320.15 -5.16357 -5.83949 0
M  V30 14496 N 1324.38 0.532545 -1.4833 0
M  V30 14497 C 1325.33 1.65832 -1.63103 0
M  V30 14498 C 1326.32 1.61929 -0.497538 0
M  V30 14499 O 1327.53 1.66817 -0.676176 0
M  V30 14500 H 1323.9 0.549152 -0.513748 0
M  V30 14501 H 1325.87 1.50515 -2.57658 0
M  V30 14502 C 1324.62 3.04113 -1.68555 0
M  V30 14503 H 1323.94 3.07809 -2.55135 0
M  V30 14504 H 1325.38 3.82506 -1.82936 0
M  V30 14505 C 1323.84 3.34225 -0.423711 0
M  V30 14506 O 1324.37 3.99005 0.464523 0
M  V30 14507 N 1322.58 2.89087 -0.296192 0
M  V30 14508 H 1322.13 2.36547 -1.01997 0
M  V30 14509 H 1322.08 3.09604 0.547082 0
M  V30 14510 N 1325.86 1.36875 0.78122 0
M  V30 14511 C 1326.79 1.27738 1.90304 0
M  V30 14512 C 1327.8 0.195147 1.61626 0
M  V30 14513 O 1328.99 0.450531 1.72721 0
M  V30 14514 C 1326.09 0.950103 3.25309 0
M  V30 14515 C 1325.26 2.13589 3.81705 0
M  V30 14516 C 1324.32 1.78037 4.95166 0
M  V30 14517 O 1323.35 2.50223 5.11251 0
M  V30 14518 N 1324.55 0.718886 5.76031 0
M  V30 14519 H 1327.31 2.24397 1.98661 0
M  V30 14520 H 1324.88 1.30376 0.959883 0
M  V30 14521 H 1326.87 0.693286 3.98717 0
M  V30 14522 H 1325.44 0.0723849 3.12516 0
M  V30 14523 H 1324.66 2.55502 3.00187 0
M  V30 14524 H 1325.95 2.9279 4.16114 0
M  V30 14525 H 1325.34 0.119681 5.65573 0
M  V30 14526 H 1323.9 0.521909 6.49707 0
M  V30 14527 N 1327.33 -1.00632 1.21289 0
M  V30 14528 C 1328.58 -1.74388 1.02932 0
M  V30 14529 C 1328.91 -1.8952 -0.437327 0
M  V30 14530 O 1328.16 -1.42551 -1.3408 0
M  V30 14531 C 1328.46 -3.1598 1.67007 0
M  V30 14532 C 1328.13 -3.208 3.16857 0
M  V30 14533 C 1326.79 -3.21823 3.57748 0
M  V30 14534 C 1329.14 -3.18147 4.12834 0
M  V30 14535 C 1326.47 -3.17877 4.93124 0
M  V30 14536 C 1328.82 -3.15743 5.48169 0
M  V30 14537 C 1327.49 -3.15074 5.88459 0
M  V30 14538 H 1326.76 -0.638133 0.376653 0
M  V30 14539 H 1329.4 -1.17953 1.50862 0
M  V30 14540 H 1327.71 -3.75639 1.11365 0
M  V30 14541 H 1329.41 -3.71764 1.50307 0
M  V30 14542 H 1326 -3.20746 2.84289 0
M  V30 14543 H 1330.18 -3.16519 3.82269 0
M  V30 14544 H 1325.44 -3.15696 5.2359 0
M  V30 14545 H 1329.61 -3.12644 6.22275 0
M  V30 14546 H 1327.24 -3.11771 6.93327 0
M  V30 14547 N 1328.81 -1.02043 -1.20104 0
M  V30 14548 C 1329.76 -0.593945 -2.23027 0
M  V30 14549 C 1330.73 0.387931 -1.61506 0
M  V30 14550 O 1331.91 0.286504 -1.88637 0
M  V30 14551 C 1329.05 0.0577309 -3.45052 0
M  V30 14552 C 1328.17 -0.969169 -4.20988 0
M  V30 14553 C 1327.3 -0.288143 -5.30418 0
M  V30 14554 C 1326.34 -1.30154 -5.98102 0
M  V30 14555 N 1325.48 -0.646912 -6.99113 0
M  V30 14556 H 1330.32 -1.47623 -2.58866 0
M  V30 14557 H 1327.85 -0.738901 -1.27195 0
M  V30 14558 H 1329.81 0.452726 -4.14736 0
M  V30 14559 H 1328.44 0.90364 -3.09894 0
M  V30 14560 H 1327.49 -1.48229 -3.50332 0
M  V30 14561 H 1328.81 -1.73972 -4.67477 0
M  V30 14562 H 1327.96 0.162149 -6.06483 0
M  V30 14563 H 1326.7 0.514683 -4.84977 0
M  V30 14564 H 1325.7 -1.76218 -5.20795 0
M  V30 14565 H 1326.93 -2.10571 -6.45629 0
M  V30 14566 H 1324.88 0.135976 -6.55859 0
M  V30 14567 H 1324.79 -1.35548 -7.43749 0
M  V30 14568 H 1326.06 -0.220339 -7.79189 0
M  V30 14569 N 1330.29 1.35952 -0.797165 0
M  V30 14570 C 1331.22 2.32506 -0.215277 0
M  V30 14571 C 1332.2 1.57023 0.654046 0
M  V30 14572 O 1333.39 1.85139 0.586268 0
M  V30 14573 C 1330.52 3.41266 0.644557 0
M  V30 14574 C 1329.47 4.27816 -0.125501 0
M  V30 14575 C 1328.8 5.27813 0.855428 0
M  V30 14576 C 1330.1 5.05367 -1.31913 0
M  V30 14577 H 1331.79 2.8142 -1.02193 0
M  V30 14578 H 1329.34 1.35303 -0.492862 0
M  V30 14579 H 1331.29 4.07808 1.06163 0
M  V30 14580 H 1330.01 2.90938 1.484 0
M  V30 14581 H 1328.67 3.62841 -0.523639 0
M  V30 14582 H 1328.32 4.73755 1.69011 0
M  V30 14583 H 1328.02 5.86589 0.344566 0
M  V30 14584 H 1329.54 5.97227 1.2709 0
M  V30 14585 H 1330.96 5.64907 -0.977418 0
M  V30 14586 H 1329.36 5.73593 -1.76382 0
M  V30 14587 H 1330.43 4.36558 -2.11057 0
M  V30 14588 N 1331.77 0.549846 1.47697 0
M  V30 14589 C 1333 0.0276889 2.06881 0
M  V30 14590 C 1333.41 -1.26273 1.40359 0
M  V30 14591 O 1332.77 -1.75584 0.497644 0
M  V30 14592 C 1332.82 -0.179291 3.61055 0
M  V30 14593 O 1332.54 1.06002 4.25083 0
M  V30 14594 C 1334.04 -0.739571 4.37087 0
M  V30 14595 H 1331.26 0.0425016 0.669653 0
M  V30 14596 H 1333.81 0.761158 1.89807 0
M  V30 14597 H 1331.96 -0.862867 3.77668 0
M  V30 14598 H 1332.37 0.853137 5.17515 0
M  V30 14599 H 1333.85 -0.833722 5.45668 0
M  V30 14600 H 1334.33 -1.74915 4.02867 0
M  V30 14601 H 1334.93 -0.0919294 4.25201 0
M  V30 14602 N 1333.25 -1.54984 0.285932 0
M  V30 14603 C 1334.47 -2.04699 -0.333621 0
M  V30 14604 C 1334.9 -1.16252 -1.47875 0
M  V30 14605 O 1334.25 -0.163376 -1.80562 0
M  V30 14606 C 1334.3 -3.52022 -0.78187 0
M  V30 14607 O 1333.41 -3.66639 -1.88812 0
M  V30 14608 H 1332.75 -0.660579 -0.0673203 0
M  V30 14609 H 1335.28 -2.00171 0.423386 0
M  V30 14610 H 1335.29 -3.93591 -1.07473 0
M  V30 14611 H 1333.96 -4.15862 0.055893 0
M  V30 14612 H 1332.54 -3.36974 -1.59696 0
M  V30 14613 N 1334.72 -0.0133892 -1.57594 0
M  V30 14614 C 1335.95 0.682855 -1.95836 0
M  V30 14615 C 1336.37 1.65763 -0.889049 0
M  V30 14616 O 1335.73 1.80665 0.151585 0
M  V30 14617 C 1335.78 1.37931 -3.33178 0
M  V30 14618 O 1334.88 2.49416 -3.28429 0
M  V30 14619 H 1334.23 0.180629 -0.638959 0
M  V30 14620 H 1336.76 -0.0705644 -2.04478 0
M  V30 14621 H 1336.77 1.73969 -3.69051 0
M  V30 14622 H 1335.44 0.664675 -4.10554 0
M  V30 14623 H 1334.02 2.15606 -3.04251 0
M  V30 14624 N 1336.2 1.55448 0.259558 0
M  V30 14625 C 1337.17 1.88459 1.30445 0
M  V30 14626 C 1338.17 0.760096 1.41701 0
M  V30 14627 O 1339.36 1.02819 1.4062 0
M  V30 14628 C 1336.49 2.10181 2.68397 0
M  V30 14629 H 1337.68 2.81877 1.02398 0
M  V30 14630 H 1335.23 1.48145 0.498262 0
M  V30 14631 H 1335.97 1.19189 3.01603 0
M  V30 14632 H 1335.75 2.92066 2.6161 0
M  V30 14633 H 1337.24 2.36947 3.43869 0
M  V30 14634 N 1337.68 -0.524672 1.4861 0
M  V30 14635 C 1338.63 -1.64965 1.6398 0
M  V30 14636 C 1339.62 -1.61663 0.506118 0
M  V30 14637 O 1340.83 -1.66456 0.685013 0
M  V30 14638 H 1337.2 -0.546419 0.516653 0
M  V30 14639 H 1339.17 -1.49146 2.58453 0
M  V30 14640 C 1337.92 -3.03215 1.70165 0
M  V30 14641 H 1337.25 -3.06451 2.56764 0
M  V30 14642 H 1338.69 -3.8153 1.84962 0
M  V30 14643 C 1337.15 -3.33996 0.44143 0
M  V30 14644 O 1337.68 -3.99246 -0.443356 0
M  V30 14645 N 1335.88 -2.88925 0.311518 0
M  V30 14646 H 1335.43 -2.36003 1.0325 0
M  V30 14647 H 1335.39 -3.09889 -0.530655 0
M  V30 14648 N 1339.16 -1.37287 -0.77395 0
M  V30 14649 C 1340.38 -1.35734 -1.56815 0
M  V30 14650 C 1340.81 0.0555546 -1.88018 0
M  V30 14651 O 1340.17 1.03197 -1.49064 0
M  V30 14652 C 1340.21 -2.2008 -2.85652 0
M  V30 14653 O 1339.32 -1.60391 -3.79932 0
M  V30 14654 H 1338.66 -0.463881 -0.47509 0
M  V30 14655 H 1341.19 -1.80781 -0.958087 0
M  V30 14656 H 1341.2 -2.33215 -3.34776 0
M  V30 14657 H 1339.87 -3.22781 -2.6227 0
M  V30 14658 H 1338.45 -1.56285 -3.3857 0
M  V30 14659 N 1340.64 0.999871 -1.21821 0
M  V30 14660 C 1341.58 2.08864 -0.98206 0
M  V30 14661 C 1342.55 1.65835 0.0937677 0
M  V30 14662 O 1343.74 1.90722 -0.0544038 0
M  V30 14663 C 1340.88 3.40553 -0.558382 0
M  V30 14664 C 1339.99 3.96964 -1.70422 0
M  V30 14665 C 1339.13 5.16782 -1.2292 0
M  V30 14666 C 1338.17 5.65315 -2.34703 0
M  V30 14667 N 1337.3 6.76379 -1.88299 0
M  V30 14668 H 1342.14 2.28399 -1.9141 0
M  V30 14669 H 1339.68 1.11984 -0.953837 0
M  V30 14670 H 1341.64 4.16163 -0.293955 0
M  V30 14671 H 1340.27 3.2104 0.336656 0
M  V30 14672 H 1339.32 3.18291 -2.08315 0
M  V30 14673 H 1340.63 4.2897 -2.54531 0
M  V30 14674 H 1339.79 5.99657 -0.92174 0
M  V30 14675 H 1338.52 4.86383 -0.358222 0
M  V30 14676 H 1337.53 4.81033 -2.66246 0
M  V30 14677 H 1338.75 5.97742 -3.22306 0
M  V30 14678 H 1336.7 6.47775 -1.03552 0
M  V30 14679 H 1336.62 7.07666 -2.65978 0
M  V30 14680 H 1337.89 7.62776 -1.60601 0
M  V30 14681 N 1342.11 1.02678 1.19562 0
M  V30 14682 C 1343.36 0.717279 1.88515 0
M  V30 14683 C 1343.68 -0.757063 1.80355 0
M  V30 14684 O 1344.88 -1.17953 2.44539 0
M  V30 14685 C 1343.34 1.23265 3.38133 0
M  V30 14686 C 1342.95 2.73462 3.54856 0
M  V30 14687 C 1344.69 0.99904 4.12577 0
M  V30 14688 C 1342.6 3.18428 4.98355 0
M  V30 14689 H 1341.53 0.264608 0.706044 0
M  V30 14690 H 1344.18 1.2408 1.3519 0
M  V30 14691 H 1342.56 0.637052 3.90842 0
M  V30 14692 H 1343.73 3.38659 3.12485 0
M  V30 14693 H 1342.05 2.95079 2.93798 0
M  V30 14694 H 1344.65 1.3103 5.18397 0
M  V30 14695 H 1344.99 -0.064217 4.1625 0
M  V30 14696 H 1345.52 1.55853 3.65998 0
M  V30 14697 H 1342.26 4.24074 4.99842 0
M  V30 14698 H 1341.78 2.57958 5.41496 0
M  V30 14699 H 1343.46 3.11649 5.66996 0
M  V30 14700 N 1343.59 -1.35528 0.804364 0
M  V30 14701 C 1345.01 -1.51962 0.487831 0
M  V30 14702 C 1345.21 -1.75426 -0.991353 0
M  V30 14703 O 1344.26 -1.7944 -1.77644 0
M  V30 14704 C 1345.58 -2.69626 1.33126 0
M  V30 14705 C 1347.13 -2.83502 1.32648 0
M  V30 14706 C 1347.6 -4.04188 2.15397 0
M  V30 14707 N 1349.09 -4.11362 2.12922 0
M  V30 14708 C 1349.83 -5.03856 2.73709 0
M  V30 14709 N 1349.32 -6.01696 3.43415 0
M  V30 14710 N 1351.12 -4.96585 2.63363 0
M  V30 14711 H 1343.27 -1.18553 1.76235 0
M  V30 14712 H 1345.53 -0.57986 0.749977 0
M  V30 14713 H 1345.24 -2.58857 2.38088 0
M  V30 14714 H 1345.11 -3.64168 0.982934 0
M  V30 14715 H 1347.5 -2.93723 0.284712 0
M  V30 14716 H 1347.58 -1.89824 1.71466 0
M  V30 14717 H 1347.22 -3.94728 3.19613 0
M  V30 14718 H 1347.15 -4.97044 1.7394 0
M  V30 14719 H 1349.64 -3.41319 1.62203 0
M  V30 14720 H 1349.96 -6.68866 3.8709 0
M  V30 14721 H 1348.3 -6.01877 3.47519 0
M  V30 14722 H 1351.49 -4.19103 2.08496 0
M  V30 14723 H 1351.66 -5.68478 3.11026 0
M  V30 14724 N 1345.07 -0.557671 -1.47404 0
M  V30 14725 C 1346.32 -0.0338384 -2.02772 0
M  V30 14726 C 1346.65 1.31278 -1.43107 0
M  V30 14727 O 1345.93 1.85436 -0.58682 0
M  V30 14728 C 1346.21 0.0587427 -3.60052 0
M  V30 14729 C 1346.06 -1.315 -4.30148 0
M  V30 14730 C 1347.38 0.771942 -4.33277 0
M  V30 14731 H 1344.5 -0.0137711 -0.736871 0
M  V30 14732 H 1347.14 -0.720049 -1.75827 0
M  V30 14733 H 1345.29 0.643154 -3.83139 0
M  V30 14734 H 1346.96 -1.94265 -4.184 0
M  V30 14735 H 1345.21 -1.88956 -3.90484 0
M  V30 14736 H 1345.88 -1.20294 -5.38733 0
M  V30 14737 H 1348.35 0.275729 -4.15185 0
M  V30 14738 H 1347.23 0.805683 -5.42955 0
M  V30 14739 H 1347.49 1.82816 -4.0253 0
M  V30 14740 N 1346.55 1.54831 -0.294147 0
M  V30 14741 C 1347.78 2.04411 0.319938 0
M  V30 14742 C 1348.19 1.17174 1.4804 0
M  V30 14743 O 1347.55 0.195881 1.81446 0
M  V30 14744 C 1347.6 3.52924 0.782751 0
M  V30 14745 O 1347.32 4.36844 -0.331512 0
M  V30 14746 C 1348.82 4.18474 1.4627 0
M  V30 14747 H 1346.04 0.667286 0.0704973 0
M  V30 14748 H 1348.59 1.9989 -0.431785 0
M  V30 14749 H 1346.74 3.57828 1.48451 0
M  V30 14750 H 1347.16 5.24493 0.0275743 0
M  V30 14751 H 1348.63 5.23933 1.73776 0
M  V30 14752 H 1349.11 3.67793 2.40052 0
M  V30 14753 H 1349.71 4.17626 0.804291 0
M  V30 14754 N 1348.03 0.0217466 1.57585 0
M  V30 14755 C 1348.96 -0.99116 2.06661 0
M  V30 14756 C 1349.97 -1.29346 0.988604 0
M  V30 14757 O 1351.16 -1.25941 1.26496 0
M  V30 14758 C 1348.26 -2.32047 2.46997 0
M  V30 14759 C 1347.43 -2.20441 3.77789 0
M  V30 14760 C 1346.49 -3.36243 4.04755 0
M  V30 14761 O 1345.52 -3.13458 4.75114 0
M  V30 14762 N 1346.72 -4.598 3.54351 0
M  V30 14763 H 1349.49 -0.572486 2.94181 0
M  V30 14764 H 1347.05 -0.165175 1.61055 0
M  V30 14765 H 1349.04 -3.0833 2.62135 0
M  V30 14766 H 1347.61 -2.65581 1.64881 0
M  V30 14767 H 1346.83 -1.28931 3.72519 0
M  V30 14768 H 1348.12 -2.09882 4.63494 0
M  V30 14769 H 1347.52 -4.81207 2.97416 0
M  V30 14770 H 1346.07 -5.33276 3.7478 0
M  V30 14771 N 1349.51 -1.55583 -0.251311 0
M  V30 14772 C 1350.45 -1.90764 -1.33086 0
M  V30 14773 C 1351.45 -0.786236 -1.50049 0
M  V30 14774 O 1352.65 -0.97081 -1.51576 0
M  V30 14775 H 1349.03 -0.605795 -0.445551 0
M  V30 14776 H 1351 -2.80903 -1.00678 0
M  V30 14777 C 1349.75 -2.21499 -2.68018 0
M  V30 14778 H 1349.07 -3.07287 -2.55763 0
M  V30 14779 H 1350.51 -2.50021 -3.42441 0
M  V30 14780 C 1348.97 -1.02983 -3.20774 0
M  V30 14781 O 1349.5 -0.275557 -4.00754 0
M  V30 14782 N 1347.71 -0.821649 -2.78742 0
M  V30 14783 H 1347.25 -1.43672 -2.13813 0
M  V30 14784 H 1347.21 -0.0303445 -3.14385 0
M  V30 14785 N 1350.98 0.516783 -1.48886 0
M  V30 14786 C 1351.92 1.63632 -1.60491 0
M  V30 14787 C 1352.93 1.55301 -0.488424 0
M  V30 14788 O 1354.12 1.6152 -0.75983 0
M  V30 14789 C 1351.22 3.02351 -1.53093 0
M  V30 14790 C 1350.39 3.36028 -2.80006 0
M  V30 14791 C 1349.45 4.54087 -2.65879 0
M  V30 14792 O 1348.48 4.56652 -3.3979 0
M  V30 14793 N 1349.68 5.53058 -1.76372 0
M  V30 14794 H 1352.44 1.54109 -2.57042 0
M  V30 14795 H 1350 0.704338 -1.45776 0
M  V30 14796 H 1352 3.79225 -1.41318 0
M  V30 14797 H 1350.57 3.05881 -0.644637 0
M  V30 14798 H 1349.79 2.48204 -3.06249 0
M  V30 14799 H 1351.07 3.5532 -3.64177 0
M  V30 14800 H 1350.47 5.53773 -1.1555 0
M  V30 14801 H 1349.03 6.29097 -1.70529 0
M  V30 14802 N 1352.46 1.37696 0.766659 0
M  V30 14803 C 1353.41 1.33966 1.90147 0
M  V30 14804 C 1354.4 0.2276 1.67864 0
M  V30 14805 O 1355.61 0.395912 1.75592 0
M  V30 14806 H 1351.98 0.417611 0.625384 0
M  V30 14807 H 1353.96 2.29753 1.9041 0
M  V30 14808 C 1352.7 1.16859 3.27474 0
M  V30 14809 H 1352.03 2.01686 3.452 0
M  V30 14810 H 1353.47 1.18301 4.07162 0
M  V30 14811 C 1351.93 -0.125418 3.36666 0
M  V30 14812 O 1352.46 -1.10717 3.86141 0
M  V30 14813 N 1350.66 -0.17784 2.90055 0
M  V30 14814 H 1350.21 0.621737 2.49984 0
M  V30 14815 H 1350.17 -1.04325 2.96587 0
M  V30 14816 N 1353.94 -0.993397 1.22349 0
M  V30 14817 C 1355.19 -1.72707 1.04189 0
M  V30 14818 C 1355.5 -1.90963 -0.423381 0
M  V30 14819 O 1356.71 -2.61651 -0.724645 0
M  V30 14820 C 1355.16 -3.10739 1.81575 0
M  V30 14821 C 1354.77 -3.00415 3.32347 0
M  V30 14822 C 1356.52 -3.88155 1.71861 0
M  V30 14823 C 1354.42 -4.33598 4.02177 0
M  V30 14824 H 1353.35 -0.647556 0.386248 0
M  V30 14825 H 1356 -1.10902 1.46195 0
M  V30 14826 H 1354.39 -3.73222 1.32367 0
M  V30 14827 H 1355.56 -2.47099 3.88946 0
M  V30 14828 H 1353.87 -2.36482 3.42732 0
M  V30 14829 H 1356.47 -4.8673 2.21354 0
M  V30 14830 H 1356.81 -4.10726 0.678939 0
M  V30 14831 H 1357.35 -3.32347 2.18609 0
M  V30 14832 H 1354.09 -4.16226 5.06395 0
M  V30 14833 H 1353.61 -4.86829 3.50367 0
M  V30 14834 H 1355.29 -5.02348 4.07744 0
M  V30 14835 N 1355.42 -1.03311 -1.19015 0
M  V30 14836 C 1356.67 -0.727266 -1.88132 0
M  V30 14837 C 1356.98 0.747488 -1.80754 0
M  V30 14838 O 1358.19 1.16654 -2.45161 0
M  V30 14839 C 1356.64 -1.25056 -3.37474 0
M  V30 14840 C 1356.25 -2.7534 -3.534 0
M  V30 14841 C 1357.99 -1.02091 -4.12041 0
M  V30 14842 C 1355.9 -3.21066 -4.96659 0
M  V30 14843 H 1354.83 -0.268349 -0.704631 0
M  V30 14844 H 1357.48 -1.24795 -1.3453 0
M  V30 14845 H 1355.86 -0.65777 -3.90499 0
M  V30 14846 H 1357.04 -3.40311 -3.10684 0
M  V30 14847 H 1355.35 -2.96633 -2.92229 0
M  V30 14848 H 1357.95 -1.33777 -5.17695 0
M  V30 14849 H 1358.29 0.0421413 -4.16279 0
M  V30 14850 H 1358.83 -1.57792 -3.65166 0
M  V30 14851 H 1355.56 -4.26719 -4.97586 0
M  V30 14852 H 1355.08 -2.60826 -5.4012 0
M  V30 14853 H 1356.76 -3.14651 -5.65335 0
M  V30 14854 N 1356.9 1.35099 -0.81154 0
M  V30 14855 C 1358.14 1.98625 -0.394231 0
M  V30 14856 C 1358.47 1.6437 1.03985 0
M  V30 14857 O 1357.73 0.901496 1.737 0
M  V30 14858 C 1358.02 3.53444 -0.530322 0
M  V30 14859 C 1357.69 4.0758 -1.92844 0
M  V30 14860 C 1356.35 4.22077 -2.31094 0
M  V30 14861 C 1358.7 4.36838 -2.84292 0
M  V30 14862 C 1356.03 4.63153 -3.60148 0
M  V30 14863 C 1358.38 4.79355 -4.12798 0
M  V30 14864 C 1357.05 4.92057 -4.51039 0
M  V30 14865 H 1356.32 0.726822 -0.144259 0
M  V30 14866 H 1358.97 1.61231 -1.03329 0
M  V30 14867 H 1357.27 3.91328 0.192166 0
M  V30 14868 H 1358.97 4.00558 -0.188134 0
M  V30 14869 H 1355.56 3.96752 -1.62129 0
M  V30 14870 H 1359.74 4.25187 -2.55988 0
M  V30 14871 H 1355 4.71176 -3.89619 0
M  V30 14872 H 1359.17 5.00954 -4.83754 0
M  V30 14873 H 1356.8 5.23643 -5.51092 0
M  V30 14874 N 1358.37 0.56548 1.47106 0
M  V30 14875 C 1359.32 -0.190542 2.31818 0
M  V30 14876 C 1360.32 -0.901279 1.43434 0
M  V30 14877 O 1361.52 -0.821625 1.60154 0
M  V30 14878 H 1357.9 -0.0803183 0.747698 0
M  V30 14879 H 1359.87 0.542999 2.93418 0
M  V30 14880 C 1358.62 -1.20208 3.2626 0
M  V30 14881 H 1357.94 -0.664608 3.94237 0
M  V30 14882 H 1359.38 -1.7018 3.88349 0
M  V30 14883 C 1357.84 -2.25423 2.50372 0
M  V30 14884 O 1358.37 -3.3249 2.25418 0
M  V30 14885 N 1356.57 -1.9957 2.11235 0
M  V30 14886 H 1356.12 -1.12513 2.31729 0
M  V30 14887 H 1356.08 -2.70182 1.60777 0
M  V30 14888 N 1359.85 -1.54672 0.302354 0
M  V30 14889 C 1361.08 -2.05041 -0.311891 0
M  V30 14890 C 1361.5 -1.17814 -1.46634 0
M  V30 14891 O 1360.86 -0.182517 -1.80379 0
M  V30 14892 C 1360.91 -3.52831 -0.744489 0
M  V30 14893 O 1360.01 -3.68621 -1.84913 0
M  V30 14894 H 1359.35 -0.661255 -0.0603102 0
M  V30 14895 H 1361.88 -1.99711 0.444593 0
M  V30 14896 H 1361.89 -3.94708 -1.03293 0
M  V30 14897 H 1360.57 -4.1578 0.0999976 0
M  V30 14898 H 1359.15 -3.38649 -1.56113 0
M  V30 14899 N 1361.33 -0.0301034 -1.57571 0
M  V30 14900 C 1362.58 0.649283 -1.92125 0
M  V30 14901 C 1362.91 1.71722 -0.90692 0
M  V30 14902 O 1362.18 1.94373 0.0702019 0
M  V30 14903 C 1362.47 1.26482 -3.37156 0
M  V30 14904 C 1362.32 0.206375 -4.49326 0
M  V30 14905 C 1363.64 2.18256 -3.82168 0
M  V30 14906 H 1360.76 0.234561 -0.698678 0
M  V30 14907 H 1363.4 -0.0875634 -1.89798 0
M  V30 14908 H 1361.55 1.89283 -3.3927 0
M  V30 14909 H 1363.22 -0.424268 -4.59345 0
M  V30 14910 H 1361.47 -0.468035 -4.31268 0
M  V30 14911 H 1362.14 0.676689 -5.47837 0
M  V30 14912 H 1364.61 1.65441 -3.81797 0
M  V30 14913 H 1363.49 2.58277 -4.84339 0
M  V30 14914 H 1363.75 3.07411 -3.17727 0
M  V30 14915 N 1362.81 1.55714 0.243056 0
M  V30 14916 C 1364.06 1.77726 0.970555 0
M  V30 14917 C 1364.38 0.595108 1.85172 0
M  V30 14918 O 1363.64 -0.42143 1.91108 0
M  V30 14919 C 1363.94 3.05281 1.85845 0
M  V30 14920 C 1363.6 4.36451 1.13232 0
M  V30 14921 C 1362.27 4.72095 0.931656 0
M  V30 14922 C 1364.62 5.17524 0.617944 0
M  V30 14923 C 1361.95 5.86344 0.204373 0
M  V30 14924 C 1364.3 6.32527 -0.0958899 0
M  V30 14925 C 1362.96 6.66789 -0.308 0
M  V30 14926 H 1362.23 0.650345 0.355151 0
M  V30 14927 H 1364.88 1.89986 0.240351 0
M  V30 14928 H 1363.18 2.8805 2.65584 0
M  V30 14929 H 1364.88 3.19511 2.4231 0
M  V30 14930 H 1361.47 4.08451 1.29867 0
M  V30 14931 H 1365.65 4.90439 0.760507 0
M  V30 14932 H 1360.91 6.11393 0.0296 0
M  V30 14933 H 1365.08 6.94588 -0.502077 0
M  V30 14934 H 1362.71 7.55165 -0.873502 0
M  V30 14935 N 1364.29 -0.50888 1.49158 0
M  V30 14936 C 1365.22 -1.62008 1.68154 0
M  V30 14937 C 1366.2 -1.61624 0.53025 0
M  V30 14938 O 1367.38 -1.78489 0.765205 0
M  V30 14939 C 1364.51 -3.00525 1.74075 0
M  V30 14940 C 1363.47 -3.15773 2.88915 0
M  V30 14941 C 1362.79 -4.55562 2.79942 0
M  V30 14942 C 1364.09 -2.96542 4.29953 0
M  V30 14943 H 1365.79 -1.46365 2.61185 0
M  V30 14944 H 1363.33 -0.702705 1.2569 0
M  V30 14945 H 1365.29 -3.78154 1.8595 0
M  V30 14946 H 1364.01 -3.17238 0.776373 0
M  V30 14947 H 1362.67 -2.40567 2.76628 0
M  V30 14948 H 1362.32 -4.6914 1.81429 0
M  V30 14949 H 1362.02 -4.66706 3.57015 0
M  V30 14950 H 1363.54 -5.35262 2.93814 0
M  V30 14951 H 1364.95 -3.63947 4.42963 0
M  V30 14952 H 1363.35 -3.19164 5.08187 0
M  V30 14953 H 1364.42 -1.92745 4.44946 0
M  V30 14954 N 1365.76 -1.381 -0.759346 0
M  V30 14955 C 1367.04 -1.24517 -1.50847 0
M  V30 14956 C 1367.42 0.155929 -2.10523 0
M  V30 14957 O 1366.77 1.16485 -1.96579 0
M  V30 14958 C 1366.98 -2.35086 -2.57945 0
M  V30 14959 C 1368.33 -2.73232 -3.25007 0
M  V30 14960 O 1369.35 -2.34355 -2.68247 0
M  V30 14961 O 1368.21 -3.40254 -4.27656 0
M  V30 14962 H 1365.3 -0.486599 -0.668693 0
M  V30 14963 H 1367.85 -1.49913 -0.795249 0
M  V30 14964 H 1366.62 -3.28858 -2.12056 0
M  V30 14965 H 1366.25 -2.11222 -3.36854 0
M  V30 14966 N 1367.24 0.986894 -1.22875 0
M  V30 14967 C 1368.49 1.72729 -1.05693 0
M  V30 14968 C 1368.82 1.90191 0.407121 0
M  V30 14969 O 1368.07 1.44667 1.31796 0
M  V30 14970 C 1368.37 3.13283 -1.72012 0
M  V30 14971 C 1368.04 3.15719 -3.2192 0
M  V30 14972 C 1366.7 3.1609 -3.62823 0
M  V30 14973 C 1369.05 3.11539 -4.17843 0
M  V30 14974 C 1366.38 3.09991 -4.98119 0
M  V30 14975 C 1368.73 3.06982 -5.53123 0
M  V30 14976 C 1367.4 3.05672 -5.93397 0
M  V30 14977 H 1366.67 0.63206 -0.386758 0
M  V30 14978 H 1369.31 1.15538 -1.52719 0
M  V30 14979 H 1367.62 3.7382 -1.17327 0
M  V30 14980 H 1369.31 3.69326 -1.56203 0
M  V30 14981 H 1365.9 3.16183 -2.89355 0
M  V30 14982 H 1370.09 3.10397 -3.87256 0
M  V30 14983 H 1365.34 3.07326 -5.28546 0
M  V30 14984 H 1369.52 3.02705 -6.27171 0
M  V30 14985 H 1367.15 3.00701 -6.982 0
M  V30 14986 N 1368.72 1.0394 1.18466 0
M  V30 14987 C 1369.95 0.761926 1.92897 0
M  V30 14988 C 1370.37 -0.674618 1.75586 0
M  V30 14989 O 1369.73 -1.46711 1.06515 0
M  V30 14990 C 1369.78 1.13152 3.42387 0
M  V30 14991 O 1368.88 0.256266 4.11603 0
M  V30 14992 H 1368.22 0.280527 0.601831 0
M  V30 14993 H 1370.75 1.3889 1.50235 0
M  V30 14994 H 1370.76 1.0929 3.9309 0
M  V30 14995 H 1369.44 2.17804 3.54308 0
M  V30 14996 H 1368.01 0.354392 3.71212 0
M  V30 14997 N 1370.2 -1.34667 0.818693 0
M  V30 14998 C 1371.44 -1.98708 0.405359 0
M  V30 14999 C 1371.78 -1.64767 -1.02788 0
M  V30 15000 O 1371.05 -0.91714 -1.71519 0
M  V30 15001 C 1371.34 -3.55016 0.602966 0
M  V30 15002 C 1371.19 -3.98713 2.08201 0
M  V30 15003 C 1372.51 -4.40085 0.0362489 0
M  V30 15004 H 1369.63 -0.721831 0.148756 0
M  V30 15005 H 1372.27 -1.59628 1.03047 0
M  V30 15006 H 1370.42 -3.88435 0.0708453 0
M  V30 15007 H 1372.09 -3.75647 2.67745 0
M  V30 15008 H 1370.33 -3.49179 2.57403 0
M  V30 15009 H 1371 -5.0751 2.17111 0
M  V30 15010 H 1373.48 -4.13195 0.490837 0
M  V30 15011 H 1372.36 -5.4852 0.204344 0
M  V30 15012 H 1372.62 -4.29243 -1.05845 0
M  V30 15013 N 1371.68 -0.573274 -1.46804 0
M  V30 15014 C 1372.9 -0.0586717 -2.07317 0
M  V30 15015 C 1373.33 1.2328 -1.42069 0
M  V30 15016 O 1372.68 1.74235 -0.501188 0
M  V30 15017 C 1372.73 0.103503 -3.60451 0
M  V30 15018 O 1371.84 1.16229 -3.95682 0
M  V30 15019 H 1371.18 -0.0585504 -0.661414 0
M  V30 15020 H 1373.71 -0.793532 -1.88585 0
M  V30 15021 H 1373.72 0.312658 -4.068 0
M  V30 15022 H 1372.39 -0.839684 -4.07335 0
M  V30 15023 H 1370.97 0.932347 -3.61056 0
M  V30 15024 N 1373.15 1.5451 -0.310553 0
M  V30 15025 C 1374.4 2.00326 0.295904 0
M  V30 15026 C 1374.73 1.19887 1.53158 0
M  V30 15027 O 1373.98 0.265615 1.93889 0
M  V30 15028 C 1374.28 3.5072 0.68779 0
M  V30 15029 C 1373.95 4.48677 -0.447229 0
M  V30 15030 C 1372.61 4.7518 -0.758796 0
M  V30 15031 C 1374.96 5.06953 -1.21028 0
M  V30 15032 C 1372.29 5.5722 -1.83637 0
M  V30 15033 C 1374.64 5.90167 -2.27784 0
M  V30 15034 C 1373.31 6.14977 -2.59537 0
M  V30 15035 H 1372.58 0.733046 0.108279 0
M  V30 15036 H 1375.22 1.86572 -0.431633 0
M  V30 15037 H 1373.53 3.62133 1.49556 0
M  V30 15038 H 1375.23 3.83602 1.16836 0
M  V30 15039 H 1371.82 4.28159 -0.1943 0
M  V30 15040 H 1376 4.86471 -0.98283 0
M  V30 15041 H 1371.26 5.74678 -2.08699 0
M  V30 15042 H 1375.43 6.34347 -2.87362 0
M  V30 15043 H 1373.06 6.78338 -3.43165 0
M  V30 15044 N 1374.63 0.0384594 1.57553 0
M  V30 15045 C 1375.88 -0.633249 1.93291 0
M  V30 15046 C 1376.23 -1.69196 0.915995 0
M  V30 15047 O 1375.53 -1.91484 -0.0666597 0
M  V30 15048 C 1375.72 -1.28439 3.33524 0
M  V30 15049 C 1375.55 -0.290279 4.48762 0
M  V30 15050 C 1374.32 0.113206 5.05173 0
M  V30 15051 C 1376.52 0.459201 5.12246 0
M  V30 15052 N 1374.5 1.10151 6.03937 0
M  V30 15053 C 1375.87 1.30097 6.06197 0
M  V30 15054 C 1377.93 0.518891 4.95189 0
M  V30 15055 C 1376.63 2.19706 6.84924 0
M  V30 15056 C 1378.66 1.40236 5.74533 0
M  V30 15057 C 1378.02 2.23189 6.68106 0
M  V30 15058 H 1374.12 -0.203752 0.754989 0
M  V30 15059 H 1376.7 0.107819 1.94401 0
M  V30 15060 H 1374.87 -1.99555 3.33215 0
M  V30 15061 H 1376.6 -1.91388 3.56585 0
M  V30 15062 H 1373.36 -0.26316 4.72868 0
M  V30 15063 H 1373.78 1.59218 6.58011 0
M  V30 15064 H 1378.42 -0.108201 4.22662 0
M  V30 15065 H 1376.14 2.83467 7.56751 0
M  V30 15066 H 1379.73 1.45295 5.63365 0
M  V30 15067 H 1378.61 2.90443 7.28432 0
M  V30 15068 N 1376.11 -1.55841 -0.234795 0
M  V30 15069 C 1377.36 -1.77438 -0.959094 0
M  V30 15070 C 1377.67 -0.604621 -1.86021 0
M  V30 15071 O 1378.88 -0.703897 -2.62217 0
M  V30 15072 C 1377.34 -3.14182 -1.7555 0
M  V30 15073 C 1376.94 -4.38843 -0.90118 0
M  V30 15074 C 1378.69 -3.45112 -2.47181 0
M  V30 15075 C 1376.59 -5.66614 -1.69417 0
M  V30 15076 H 1375.52 -0.661503 -0.361843 0
M  V30 15077 H 1378.18 -1.82255 -0.213364 0
M  V30 15078 H 1376.56 -3.03505 -2.54364 0
M  V30 15079 H 1377.73 -4.60541 -0.154515 0
M  V30 15080 H 1376.05 -4.15335 -0.297631 0
M  V30 15081 H 1378.64 -4.37794 -3.06986 0
M  V30 15082 H 1378.99 -2.66995 -3.19405 0
M  V30 15083 H 1379.52 -3.57059 -1.75368 0
M  V30 15084 H 1376.26 -6.47587 -1.01545 0
M  V30 15085 H 1375.78 -5.48998 -2.4158 0
M  V30 15086 H 1377.46 -6.06311 -2.25824 0
M  V30 15087 N 1377.59 0.500963 -1.49426 0
M  V30 15088 C 1379.01 0.832142 -1.36189 0
M  V30 15089 C 1379.21 1.9759 -0.395014 0
M  V30 15090 O 1378.26 2.51905 0.173294 0
M  V30 15091 C 1379.57 1.17232 -2.76907 0
M  V30 15092 C 1381.12 1.28052 -2.85607 0
M  V30 15093 C 1381.6 1.65399 -4.27092 0
M  V30 15094 N 1383.09 1.72448 -4.29902 0
M  V30 15095 C 1383.82 2.02789 -5.36343 0
M  V30 15096 N 1383.32 2.31354 -6.53029 0
M  V30 15097 N 1385.11 2.0404 -5.23759 0
M  V30 15098 H 1377.26 -0.253253 -2.10885 0
M  V30 15099 H 1379.53 -0.0507111 -0.946643 0
M  V30 15100 H 1379.23 0.405247 -3.49357 0
M  V30 15101 H 1379.11 2.11574 -3.12276 0
M  V30 15102 H 1381.49 2.03831 -2.13394 0
M  V30 15103 H 1381.57 0.317603 -2.53821 0
M  V30 15104 H 1381.22 0.901704 -4.99832 0
M  V30 15105 H 1381.15 2.6279 -4.56343 0
M  V30 15106 H 1383.64 1.52532 -3.45749 0
M  V30 15107 H 1383.95 2.53695 -7.29972 0
M  V30 15108 H 1382.3 2.28811 -6.56255 0
M  V30 15109 H 1385.49 1.812 -4.31606 0
M  V30 15110 H 1385.66 2.27353 -6.06807 0
M  V30 15111 N 1379.07 1.38501 0.752011 0
M  V30 15112 C 1380.32 1.34112 1.50655 0
M  V30 15113 C 1380.63 -0.0657661 1.95489 0
M  V30 15114 O 1381.84 -0.232199 2.70505 0
M  V30 15115 C 1380.29 2.35514 2.72142 0
M  V30 15116 C 1379.9 3.81831 2.34326 0
M  V30 15117 C 1381.64 2.40171 3.50026 0
M  V30 15118 C 1379.55 4.74915 3.52434 0
M  V30 15119 H 1378.48 0.498519 0.565681 0
M  V30 15120 H 1381.13 1.64064 0.821913 0
M  V30 15121 H 1379.51 1.98607 3.42595 0
M  V30 15122 H 1380.69 4.27685 1.7153 0
M  V30 15123 H 1379 3.80308 1.69573 0
M  V30 15124 H 1381.6 3.06913 4.37845 0
M  V30 15125 H 1381.94 1.42111 3.91293 0
M  V30 15126 H 1382.48 2.75884 2.86588 0
M  V30 15127 H 1379.21 5.74176 3.16232 0
M  V30 15128 H 1378.73 4.33753 4.14268 0
M  V30 15129 H 1380.41 4.93003 4.18995 0
M  V30 15130 N 1380.55 -0.980364 1.23396 0
M  V30 15131 C 1381.96 -1.53622 1.061 0
M  V30 15132 C 1382.31 -1.92648 -0.371645 0
M  V30 15133 O 1381.43 -1.76051 -1.25837 0
M  V30 15134 C 1382.03 -2.79159 1.91979 0
M  V30 15135 C 1380.59 -3.31144 1.78943 0
M  V30 15136 C 1379.73 -2.04135 1.87681 0
M  V30 15137 H 1382.68 -0.800047 1.37058 0
M  V30 15138 H 1382.71 -3.52011 1.4446 0
M  V30 15139 H 1382.22 -2.50723 2.96242 0
M  V30 15140 H 1380.32 -3.64459 0.774634 0
M  V30 15141 H 1380.43 -4.009 2.62329 0
M  V30 15142 H 1378.8 -2.18271 1.31262 0
M  V30 15143 H 1379.58 -1.78081 2.93499 0
M  V30 15144 N 1382.02 -1.04567 -1.17913 0
M  V30 15145 C 1382.97 -0.641119 -2.21717 0
M  V30 15146 C 1383.94 0.353585 -1.62293 0
M  V30 15147 O 1385.13 0.246427 -1.89202 0
M  V30 15148 C 1382.27 -0.0154726 -3.45097 0
M  V30 15149 C 1381.38 -1.05825 -4.18838 0
M  V30 15150 C 1380.51 -0.400588 -5.29687 0
M  V30 15151 C 1379.55 -1.42811 -5.95207 0
M  V30 15152 N 1378.69 -0.795059 -6.97584 0
M  V30 15153 H 1383.53 -1.5308 -2.55676 0
M  V30 15154 H 1381.07 -0.765715 -1.25599 0
M  V30 15155 H 1383.02 0.364653 -4.15603 0
M  V30 15156 H 1381.65 0.837704 -3.11741 0
M  V30 15157 H 1380.71 -1.55627 -3.47109 0
M  V30 15158 H 1382.02 -1.83849 -4.63682 0
M  V30 15159 H 1381.17 0.0334682 -6.06691 0
M  V30 15160 H 1379.91 0.411696 -4.85959 0
M  V30 15161 H 1378.92 -1.87225 -5.1694 0
M  V30 15162 H 1380.14 -2.24218 -6.41017 0
M  V30 15163 H 1378.09 -0.00317202 -6.56 0
M  V30 15164 H 1378 -1.51293 -7.40707 0
M  V30 15165 H 1379.27 -0.385567 -7.78546 0
M  V30 15166 N 1383.5 1.34231 -0.825823 0
M  V30 15167 C 1384.73 2.02124 -0.427727 0
M  V30 15168 C 1385.14 1.62331 0.971869 0
M  V30 15169 O 1384.48 0.825946 1.64085 0
M  V30 15170 C 1384.54 3.56626 -0.453698 0
M  V30 15171 C 1384.21 4.19752 -1.80713 0
M  V30 15172 C 1385.21 4.40062 -2.76842 0
M  V30 15173 C 1382.89 4.5646 -2.09641 0
M  V30 15174 C 1384.88 4.9621 -4.00069 0
M  V30 15175 C 1382.57 5.12318 -3.33127 0
M  V30 15176 C 1383.57 5.32137 -4.28158 0
M  V30 15177 O 1383.26 5.86811 -5.49462 0
M  V30 15178 H 1382.99 0.654389 -0.169563 0
M  V30 15179 H 1385.54 1.72421 -1.11624 0
M  V30 15180 H 1383.77 3.856 0.291527 0
M  V30 15181 H 1385.46 4.0583 -0.075249 0
M  V30 15182 H 1386.23 4.12064 -2.5579 0
M  V30 15183 H 1382.11 4.40337 -1.36473 0
M  V30 15184 H 1385.65 5.11594 -4.74254 0
M  V30 15185 H 1381.55 5.39746 -3.54041 0
M  V30 15186 H 1382.32 6.05242 -5.51022 0
M  V30 15187 N 1384.98 0.581051 1.46498 0
M  V30 15188 C 1385.93 -0.153147 2.30291 0
M  V30 15189 C 1386.9 -0.885681 1.40517 0
M  V30 15190 O 1388.08 -0.876678 1.69467 0
M  V30 15191 C 1385.22 -1.16193 3.24951 0
M  V30 15192 C 1384.33 -0.433016 4.29824 0
M  V30 15193 C 1383.47 -1.42918 5.11613 0
M  V30 15194 C 1382.51 -0.686576 6.08237 0
M  V30 15195 N 1381.65 -1.63072 6.829 0
M  V30 15196 H 1386.49 0.56747 2.92547 0
M  V30 15197 H 1384.02 0.29166 1.4418 0
M  V30 15198 H 1385.98 -1.75965 3.78275 0
M  V30 15199 H 1384.61 -1.85028 2.64508 0
M  V30 15200 H 1383.66 0.279707 3.7937 0
M  V30 15201 H 1384.97 0.147604 4.98582 0
M  V30 15202 H 1384.13 -2.09975 5.69206 0
M  V30 15203 H 1382.87 -2.04373 4.42813 0
M  V30 15204 H 1381.87 -0.00222013 5.498 0
M  V30 15205 H 1383.1 -0.0774416 6.79056 0
M  V30 15206 H 1381.04 -2.2334 6.1681 0
M  V30 15207 H 1380.96 -1.10286 7.47912 0
M  V30 15208 H 1382.23 -2.29169 7.45052 0
M  V30 15209 N 1386.46 -1.54343 0.318742 0
M  V30 15210 C 1387.41 -2.25634 -0.56497 0
M  V30 15211 C 1388.4 -1.26869 -1.12252 0
M  V30 15212 O 1389.61 -1.44662 -1.07112 0
M  V30 15213 H 1385.98 -0.724686 -0.200834 0
M  V30 15214 H 1387.95 -2.98342 0.0586393 0
M  V30 15215 C 1386.7 -3.0237 -1.71662 0
M  V30 15216 H 1386.02 -3.78183 -1.29684 0
M  V30 15217 H 1387.46 -3.55507 -2.31065 0
M  V30 15218 C 1385.92 -2.10383 -2.63136 0
M  V30 15219 O 1386.45 -1.68351 -3.6472 0
M  V30 15220 N 1384.66 -1.75971 -2.31263 0
M  V30 15221 H 1384.21 -2.10349 -1.48698 0
M  V30 15222 H 1384.16 -1.14702 -2.9273 0
M  V30 15223 N 1387.94 -0.0468143 -1.5753 0
M  V30 15224 C 1389.21 0.667567 -1.83856 0
M  V30 15225 C 1389.59 1.89297 -0.934346 0
M  V30 15226 O 1388.94 2.28499 0.00570067 0
M  V30 15227 C 1389.15 1.029 -3.33485 0
M  V30 15228 C 1390.5 1.41315 -4.00394 0
M  V30 15229 O 1391.52 1.12147 -3.38085 0
M  V30 15230 O 1390.38 1.95732 -5.10246 0
M  V30 15231 H 1387.48 0.329112 -0.758692 0
M  V30 15232 H 1390.02 -0.0758456 -1.6953 0
M  V30 15233 H 1388.79 0.157617 -3.90982 0
M  V30 15234 H 1388.42 1.83 -3.52982 0
M  V30 15235 N 1389.41 1.55964 0.226527 0
M  V30 15236 C 1390.66 1.78392 0.94977 0
M  V30 15237 C 1390.98 0.614444 1.85066 0
M  V30 15238 O 1390.25 -0.368894 1.92395 0
M  V30 15239 H 1388.83 0.657962 0.353688 0
M  V30 15240 H 1391.5 1.93422 0.239577 0
M  V30 15241 H 1390.59 2.70343 1.55952 0
M  V30 15242 N 1390.89 -0.493031 1.4969 0
M  V30 15243 C 1392.14 -1.2433 1.58823 0
M  V30 15244 C 1392.45 -1.9353 0.283823 0
M  V30 15245 O 1393.66 -2.70311 0.253801 0
M  V30 15246 C 1392.12 -2.25792 2.8026 0
M  V30 15247 C 1391.72 -1.62496 4.17491 0
M  V30 15248 C 1393.47 -3.01598 2.98729 0
M  V30 15249 C 1391.38 -2.62115 5.30141 0
M  V30 15250 H 1390.31 -0.467738 0.591386 0
M  V30 15251 H 1392.96 -0.516238 1.76089 0
M  V30 15252 H 1391.34 -3.01696 2.56506 0
M  V30 15253 H 1392.51 -0.925305 4.51414 0
M  V30 15254 H 1390.83 -0.990516 4.04447 0
M  V30 15255 H 1393.42 -3.76111 3.80058 0
M  V30 15256 H 1393.77 -3.59687 2.09597 0
M  V30 15257 H 1394.3 -2.32809 3.2256 0
M  V30 15258 H 1391.04 -2.08797 6.21357 0
M  V30 15259 H 1390.56 -3.30298 5.00663 0
M  V30 15260 H 1392.24 -3.24385 5.59807 0
M  V30 15261 N 1392.37 -1.38898 -0.744656 0
M  V30 15262 C 1393.3 -1.32739 -1.8685 0
M  V30 15263 C 1394.32 -0.23793 -1.61052 0
M  V30 15264 O 1395.5 -0.496166 -1.71466 0
M  V30 15265 C 1392.6 -1.03602 -3.22676 0
M  V30 15266 C 1391.78 -2.23634 -3.75908 0
M  V30 15267 C 1390.84 -1.91103 -4.90271 0
M  V30 15268 O 1389.86 -2.6369 -5.04437 0
M  V30 15269 N 1391.06 -0.871358 -5.73923 0
M  V30 15270 H 1393.83 -2.29585 -1.92641 0
M  V30 15271 H 1391.39 -1.32875 -0.924979 0
M  V30 15272 H 1393.38 -0.798755 -3.96739 0
M  V30 15273 H 1391.95 -0.155218 -3.12214 0
M  V30 15274 H 1391.17 -2.63371 -2.93307 0
M  V30 15275 H 1392.46 -3.0372 -4.08205 0
M  V30 15276 H 1391.86 -0.269591 -5.65057 0
M  V30 15277 H 1390.42 -0.693984 -6.48095 0
M  V30 15278 N 1393.85 0.973806 -1.23914 0
M  V30 15279 C 1394.8 2.08861 -1.02372 0
M  V30 15280 C 1395.79 1.69354 0.039415 0
M  V30 15281 O 1397 1.79635 -0.114637 0
M  V30 15282 H 1393.37 0.683313 -0.313986 0
M  V30 15283 H 1395.34 2.24195 -1.96924 0
M  V30 15284 C 1394.09 3.41784 -0.638661 0
M  V30 15285 H 1393.41 3.72639 -1.44846 0
M  V30 15286 H 1394.85 4.20706 -0.527487 0
M  V30 15287 C 1393.31 3.30497 0.65369 0
M  V30 15288 O 1393.84 3.63905 1.70107 0
M  V30 15289 N 1392.05 2.83642 0.632104 0
M  V30 15290 H 1391.6 2.56654 -0.220571 0
M  V30 15291 H 1391.55 2.76472 1.49701 0
M  V30 15292 N 1395.33 1.05191 1.17357 0
M  V30 15293 C 1396.56 0.781238 1.9126 0
M  V30 15294 C 1396.96 -0.66688 1.77057 0
M  V30 15295 O 1396.31 -1.4673 1.10526 0
M  V30 15296 C 1396.37 1.08225 3.42823 0
M  V30 15297 C 1396.03 2.52655 3.80808 0
M  V30 15298 C 1397.03 3.50864 3.83654 0
M  V30 15299 C 1394.72 2.87664 4.11771 0
M  V30 15300 C 1396.71 4.82127 4.16932 0
M  V30 15301 C 1394.4 4.1913 4.44717 0
M  V30 15302 C 1395.39 5.16172 4.47276 0
M  V30 15303 O 1395.08 6.4528 4.79447 0
M  V30 15304 H 1394.81 0.283516 0.613673 0
M  V30 15305 H 1397.37 1.40577 1.49758 0
M  V30 15306 H 1395.6 0.400623 3.84619 0
M  V30 15307 H 1397.29 0.797593 3.97987 0
M  V30 15308 H 1398.05 3.25158 3.59857 0
M  V30 15309 H 1393.93 2.12793 4.0895 0
M  V30 15310 H 1397.48 5.57867 4.18844 0
M  V30 15311 H 1393.37 4.44599 4.67976 0
M  V30 15312 H 1394.14 6.50101 4.97304 0
M  V30 15313 N 1396.8 -1.33791 0.83293 0
M  V30 15314 C 1398.05 -1.97233 0.422127 0
M  V30 15315 C 1398.37 -1.66738 -1.02264 0
M  V30 15316 O 1399.57 -2.23747 -1.53783 0
M  V30 15317 C 1398.03 -3.5295 0.703872 0
M  V30 15318 C 1397.64 -3.92329 2.16292 0
M  V30 15319 C 1399.38 -4.22973 0.359727 0
M  V30 15320 C 1397.29 -5.40999 2.38903 0
M  V30 15321 H 1396.22 -0.738082 0.154112 0
M  V30 15322 H 1398.87 -1.52494 1.02068 0
M  V30 15323 H 1397.25 -3.95985 0.0350184 0
M  V30 15324 H 1398.42 -3.6037 2.87176 0
M  V30 15325 H 1396.74 -3.35271 2.46947 0
M  V30 15326 H 1399.34 -5.32297 0.506366 0
M  V30 15327 H 1399.68 -4.10428 -0.696743 0
M  V30 15328 H 1400.21 -3.85449 0.983568 0
M  V30 15329 H 1396.95 -5.58541 3.43093 0
M  V30 15330 H 1396.47 -5.74438 1.72573 0
M  V30 15331 H 1398.15 -6.07809 2.2176 0
M  V30 15332 N 1398.28 -0.588812 -1.46187 0
M  V30 15333 C 1399.23 0.161973 -2.27424 0
M  V30 15334 C 1400.22 0.856178 -1.36229 0
M  V30 15335 O 1401.41 0.749266 -1.60359 0
M  V30 15336 C 1398.54 1.17104 -3.2271 0
M  V30 15337 C 1397.62 0.478637 -4.2139 0
M  V30 15338 N 1398.01 -0.46921 -5.03619 0
M  V30 15339 C 1396.31 0.728608 -4.40008 0
M  V30 15340 C 1397.01 -0.874455 -5.7509 0
M  V30 15341 N 1395.99 -0.222267 -5.43145 0
M  V30 15342 H 1399.79 -0.566306 -2.88392 0
M  V30 15343 H 1397.31 -0.41106 -1.57112 0
M  V30 15344 H 1399.3 1.72314 -3.79623 0
M  V30 15345 H 1397.96 1.90008 -2.63301 0
M  V30 15346 H 1398.97 -0.84504 -5.10959 0
M  V30 15347 H 1395.65 1.44375 -3.91742 0
M  V30 15348 H 1397.04 -1.65514 -6.51195 0
M  V30 15349 N 1399.76 1.54172 -0.326923 0
M  V30 15350 C 1400.71 2.25931 0.552996 0
M  V30 15351 C 1401.7 1.27463 1.11578 0
M  V30 15352 O 1402.91 1.45228 1.06343 0
M  V30 15353 H 1399.28 0.725741 0.196988 0
M  V30 15354 H 1401.25 2.98307 -0.0744603 0
M  V30 15355 C 1400 3.03276 1.70056 0
M  V30 15356 H 1399.33 3.78865 1.27676 0
M  V30 15357 H 1400.77 3.56727 2.29177 0
M  V30 15358 C 1399.23 2.11775 2.62017 0
M  V30 15359 O 1399.76 1.70282 3.63822 0
M  V30 15360 N 1397.96 1.77195 2.30327 0
M  V30 15361 H 1397.51 2.11135 1.4758 0
M  V30 15362 H 1397.47 1.16253 2.92117 0
M  V30 15363 N 1401.24 0.0551678 1.57503 0
M  V30 15364 C 1402.15 -0.932959 2.15251 0
M  V30 15365 C 1403.16 -1.33885 1.11134 0
M  V30 15366 O 1404.34 -1.41495 1.43321 0
M  V30 15367 C 1401.41 -2.18807 2.68932 0
M  V30 15368 C 1400.47 -1.84016 3.87862 0
M  V30 15369 C 1399.7 -3.03543 4.38973 0
M  V30 15370 O 1399.92 -4.17041 3.89144 0
M  V30 15371 O 1398.86 -2.84325 5.30512 0
M  V30 15372 H 1402.68 -0.471816 3.00013 0
M  V30 15373 H 1400.27 -0.16696 1.48464 0
M  V30 15374 H 1402.15 -2.92439 3.0341 0
M  V30 15375 H 1400.82 -2.64051 1.87239 0
M  V30 15376 H 1399.73 -1.07687 3.58266 0
M  V30 15377 H 1401.06 -1.43567 4.70796 0
M  V30 15378 N 1402.72 -1.56081 -0.218252 0
M  V30 15379 C 1403.95 -1.83069 -0.957574 0
M  V30 15380 C 1404.35 -0.6325 -1.78315 0
M  V30 15381 O 1403.7 0.408298 -1.79105 0
M  V30 15382 C 1403.76 -3.03835 -1.92157 0
M  V30 15383 C 1403.42 -4.38702 -1.2802 0
M  V30 15384 C 1404.42 -5.15585 -0.66846 0
M  V30 15385 C 1402.11 -4.85427 -1.29098 0
M  V30 15386 C 1404.1 -6.37355 -0.0760499 0
M  V30 15387 C 1401.79 -6.07138 -0.69473 0
M  V30 15388 C 1402.78 -6.82943 -0.0883201 0
M  V30 15389 O 1402.47 -8.02352 0.498648 0
M  V30 15390 H 1402.2 -0.612493 -0.286057 0
M  V30 15391 H 1404.76 -2.04021 -0.23759 0
M  V30 15392 H 1402.99 -2.78709 -2.68064 0
M  V30 15393 H 1404.68 -3.17666 -2.52672 0
M  V30 15394 H 1405.44 -4.80592 -0.652434 0
M  V30 15395 H 1401.32 -4.26395 -1.75238 0
M  V30 15396 H 1404.87 -6.96464 0.397893 0
M  V30 15397 H 1400.76 -6.41604 -0.70818 0
M  V30 15398 H 1401.53 -8.17555 0.393289 0
M  V30 15399 N 1404.2 0.485086 -1.49949 0
M  V30 15400 C 1405.42 1.26179 -1.63971 0
M  V30 15401 C 1405.84 1.86113 -0.317408 0
M  V30 15402 O 1405.2 1.68581 0.699038 0
M  V30 15403 C 1405.25 2.38062 -2.72046 0
M  V30 15404 O 1404.97 1.80588 -3.99149 0
M  V30 15405 C 1406.47 3.29174 -2.96916 0
M  V30 15406 H 1403.69 0.382122 -0.551565 0
M  V30 15407 H 1406.23 0.580607 -1.96085 0
M  V30 15408 H 1404.39 3.0198 -2.42666 0
M  V30 15409 H 1404.8 2.54159 -4.58807 0
M  V30 15410 H 1406.28 4.03922 -3.76233 0
M  V30 15411 H 1406.75 3.87123 -2.07443 0
M  V30 15412 H 1407.36 2.71006 -3.27774 0
M  V30 15413 N 1405.67 1.39291 0.737279 0
M  V30 15414 C 1406.92 1.35702 1.49224 0
M  V30 15415 C 1407.24 -0.0450282 1.95548 0
M  V30 15416 O 1408.44 -0.203495 2.70736 0
M  V30 15417 C 1406.9 2.38387 2.69629 0
M  V30 15418 C 1406.51 3.84295 2.30263 0
M  V30 15419 C 1408.25 2.4387 3.47459 0
M  V30 15420 C 1406.16 4.78626 3.47377 0
M  V30 15421 H 1405.09 0.50449 0.560362 0
M  V30 15422 H 1407.74 1.64926 0.804466 0
M  V30 15423 H 1406.12 2.0223 3.40469 0
M  V30 15424 H 1407.29 4.2948 1.66984 0
M  V30 15425 H 1405.61 3.82085 1.6553 0
M  V30 15426 H 1408.21 3.11539 4.34566 0
M  V30 15427 H 1408.55 1.46253 3.89764 0
M  V30 15428 H 1409.08 2.78908 2.83646 0
M  V30 15429 H 1405.82 5.77497 3.10124 0
M  V30 15430 H 1405.34 4.38123 4.09645 0
M  V30 15431 H 1407.02 4.9742 4.13742 0
M  V30 15432 N 1407.15 -0.967221 1.24429 0
M  V30 15433 C 1408.4 -1.70458 1.07829 0
M  V30 15434 C 1408.71 -1.91818 -0.38278 0
M  V30 15435 O 1409.92 -2.63129 -0.668982 0
M  V30 15436 C 1408.38 -3.06817 1.88125 0
M  V30 15437 C 1407.98 -2.93298 3.38645 0
M  V30 15438 C 1409.73 -3.84422 1.80056 0
M  V30 15439 C 1407.63 -4.2497 4.11284 0
M  V30 15440 H 1406.56 -0.639217 0.399897 0
M  V30 15441 H 1409.22 -1.07776 1.48515 0
M  V30 15442 H 1407.6 -3.70331 1.40254 0
M  V30 15443 H 1408.77 -2.38793 3.94099 0
M  V30 15444 H 1407.09 -2.29159 3.47671 0
M  V30 15445 H 1409.68 -4.81925 2.31629 0
M  V30 15446 H 1410.03 -4.09194 0.765908 0
M  V30 15447 H 1410.56 -3.27636 2.2561 0
M  V30 15448 H 1407.3 -4.05391 5.1511 0
M  V30 15449 H 1406.82 -4.79288 3.60615 0
M  V30 15450 H 1408.5 -4.93586 4.18308 0
M  V30 15451 N 1408.63 -1.05812 -1.16797 0
M  V30 15452 C 1409.58 -0.658636 -2.2308 0
M  V30 15453 C 1410.57 0.323104 -1.6629 0
M  V30 15454 O 1411.78 0.188492 -1.7901 0
M  V30 15455 H 1408.15 -0.194843 -0.72632 0
M  V30 15456 H 1410.12 -1.56501 -2.54067 0
M  V30 15457 C 1408.87 -0.0559428 -3.47655 0
M  V30 15458 H 1408.2 -0.802468 -3.91664 0
M  V30 15459 H 1409.64 0.186118 -4.23591 0
M  V30 15460 C 1408.09 1.19913 -3.14837 0
M  V30 15461 O 1408.62 2.28772 -3.30191 0
M  V30 15462 N 1406.83 1.09921 -2.69009 0
M  V30 15463 H 1406.38 0.213331 -2.56715 0
M  V30 15464 H 1406.34 1.93981 -2.47424 0
M  V30 15465 N 1410.11 1.33347 -0.840014 0
M  V30 15466 C 1411.35 1.99556 -0.442363 0
M  V30 15467 C 1411.71 1.65088 0.980304 0
M  V30 15468 O 1412.91 2.24272 1.48174 0
M  V30 15469 C 1411.18 3.51292 -0.657939 0
M  V30 15470 S 1412.74 4.37356 -0.35568 0
M  V30 15471 H 1409.56 0.691267 -0.166344 0
M  V30 15472 H 1412.16 1.62324 -1.08955 0
M  V30 15473 H 1410.87 3.73866 -1.69271 0
M  V30 15474 H 1410.4 3.934 0.00335805 0
M  V30 15475 H 1412.41 4.89309 0.824091 0
M  V30 15476 N 1411.59 0.596556 1.45873 0
M  V30 15477 C 1412.52 -0.177354 2.2751 0
M  V30 15478 C 1413.5 -0.883999 1.36471 0
M  V30 15479 O 1414.68 -0.895098 1.65892 0
M  V30 15480 C 1411.81 -1.25567 3.14564 0
M  V30 15481 C 1410.85 -0.653363 4.21466 0
M  V30 15482 S 1411.69 0.53036 5.32867 0
M  V30 15483 C 1412.84 -0.548817 6.23489 0
M  V30 15484 H 1413.08 0.515289 2.928 0
M  V30 15485 H 1410.61 0.383791 1.49554 0
M  V30 15486 H 1412.57 -1.87298 3.6528 0
M  V30 15487 H 1411.23 -1.92033 2.4856 0
M  V30 15488 H 1410.42 -1.46435 4.82258 0
M  V30 15489 H 1410.02 -0.111425 3.73834 0
M  V30 15490 H 1412.31 -1.43085 6.62218 0
M  V30 15491 H 1413.26 0.0226785 7.08096 0
M  V30 15492 H 1413.67 -0.859188 5.57923 0
M  V30 15493 N 1413.06 -1.53996 0.335095 0
M  V30 15494 C 1414.01 -2.24736 -0.52559 0
M  V30 15495 C 1414.98 -1.24244 -1.10239 0
M  V30 15496 O 1416.17 -1.52955 -1.14058 0
M  V30 15497 C 1413.31 -3.01732 -1.67487 0
M  V30 15498 C 1412.42 -4.17062 -1.1262 0
M  V30 15499 C 1411.55 -4.81563 -2.2421 0
M  V30 15500 C 1410.59 -5.88977 -1.6665 0
M  V30 15501 N 1409.73 -6.47293 -2.71949 0
M  V30 15502 H 1414.57 -2.97881 0.0842008 0
M  V30 15503 H 1412.11 -1.47003 0.0533254 0
M  V30 15504 H 1414.06 -3.44626 -2.35135 0
M  V30 15505 H 1412.69 -2.30899 -2.25578 0
M  V30 15506 H 1411.75 -3.78869 -0.340917 0
M  V30 15507 H 1413.06 -4.94346 -0.665113 0
M  V30 15508 H 1412.21 -5.27486 -2.9974 0
M  V30 15509 H 1410.95 -4.03685 -2.73659 0
M  V30 15510 H 1409.96 -5.42446 -0.89623 0
M  V30 15511 H 1411.18 -6.68758 -1.18064 0
M  V30 15512 H 1409.13 -5.72283 -3.20668 0
M  V30 15513 H 1409.04 -7.20024 -2.30438 0
M  V30 15514 H 1410.31 -6.97869 -3.47273 0
M  V30 15515 N 1414.54 -0.0635198 -1.57472 0
M  V30 15516 C 1415.49 0.924358 -2.13444 0
M  V30 15517 C 1416.48 1.31389 -1.06927 0
M  V30 15518 O 1417.69 1.2921 -1.25319 0
M  V30 15519 H 1414.06 0.316003 -0.682383 0
M  V30 15520 H 1416.04 0.427281 -2.95325 0
M  V30 15521 C 1414.78 2.18546 -2.70431 0
M  V30 15522 H 1414.11 1.89455 -3.52061 0
M  V30 15523 H 1415.55 2.85799 -3.13201 0
M  V30 15524 C 1414.01 2.93845 -1.64794 0
M  V30 15525 O 1414.54 3.87242 -1.06802 0
M  V30 15526 N 1412.74 2.568 -1.36023 0
M  V30 15527 H 1412.29 1.80924 -1.83369 0
M  V30 15528 H 1412.25 3.07486 -0.655741 0
M  V30 15529 N 1416.02 1.56195 0.209972 0
M  V30 15530 C 1416.97 1.94226 1.27981 0
M  V30 15531 C 1417.96 0.825742 1.47912 0
M  V30 15532 O 1419.17 1.01066 1.48949 0
M  V30 15533 H 1415.54 0.617395 0.429333 0
M  V30 15534 H 1417.51 2.83474 0.931946 0
M  V30 15535 C 1416.26 2.28527 2.62051 0
M  V30 15536 H 1415.59 3.1396 2.47526 0
M  V30 15537 H 1417.03 2.59012 3.35692 0
M  V30 15538 C 1415.48 1.11452 3.17931 0
M  V30 15539 O 1416.01 0.381713 3.99882 0
M  V30 15540 N 1414.22 0.895263 2.76466 0
M  V30 15541 H 1413.77 1.4929 2.09929 0
M  V30 15542 H 1413.73 0.113688 3.14194 0
M  V30 15543 N 1417.5 -0.477127 1.50204 0
M  V30 15544 C 1418.72 -1.25775 1.6491 0
M  V30 15545 C 1419.15 -1.85187 0.329765 0
M  V30 15546 O 1418.51 -1.67004 -0.705641 0
M  V30 15547 C 1418.55 -2.3466 2.73801 0
M  V30 15548 O 1417.66 -3.39147 2.34634 0
M  V30 15549 H 1417 -0.370291 0.551163 0
M  V30 15550 H 1419.53 -0.568514 1.96543 0
M  V30 15551 H 1419.54 -2.80065 2.96695 0
M  V30 15552 H 1418.21 -1.90788 3.69557 0
M  V30 15553 H 1416.79 -2.99496 2.22163 0
M  V30 15554 N 1418.98 -1.3968 -0.729882 0
M  V30 15555 C 1420.22 -1.36911 -1.4866 0
M  V30 15556 C 1420.55 0.0326011 -1.94973 0
M  V30 15557 O 1419.82 0.984789 -1.69348 0
M  V30 15558 H 1418.4 -0.503848 -0.551495 0
M  V30 15559 H 1421.06 -1.74596 -0.866155 0
M  V30 15560 H 1420.15 -2.03504 -2.36628 0
M  V30 15561 N 1420.45 0.960609 -1.2494 0
M  V30 15562 C 1421.7 1.70765 -1.10503 0
M  V30 15563 C 1422.06 1.89164 0.351384 0
M  V30 15564 O 1421.35 1.44718 1.25568 0
M  V30 15565 C 1421.54 3.09564 -1.78619 0
M  V30 15566 C 1421.37 3.04705 -3.30734 0
M  V30 15567 C 1420.14 3.08793 -3.99969 0
M  V30 15568 C 1422.34 2.86333 -4.27221 0
M  V30 15569 N 1420.32 2.94028 -5.38907 0
M  V30 15570 C 1421.69 2.79938 -5.53204 0
M  V30 15571 C 1423.75 2.70967 -4.17709 0
M  V30 15572 C 1422.45 2.59747 -6.70764 0
M  V30 15573 C 1424.48 2.52146 -5.34954 0
M  V30 15574 C 1423.84 2.46466 -6.59874 0
M  V30 15575 H 1419.94 0.633102 -0.459027 0
M  V30 15576 H 1422.52 1.13833 -1.57956 0
M  V30 15577 H 1420.69 3.64674 -1.33669 0
M  V30 15578 H 1422.42 3.73015 -1.56978 0
M  V30 15579 H 1419.18 3.17751 -3.51185 0
M  V30 15580 H 1419.6 2.89867 -6.11806 0
M  V30 15581 H 1424.25 2.74137 -3.21883 0
M  V30 15582 H 1421.96 2.5532 -7.66705 0
M  V30 15583 H 1425.55 2.41191 -5.29451 0
M  V30 15584 H 1424.43 2.32091 -7.49068 0
M  V30 15585 N 1421.93 1.0643 1.16234 0
M  V30 15586 C 1422.88 0.676311 2.20669 0
M  V30 15587 C 1423.85 -0.327721 1.62835 0
M  V30 15588 O 1425.03 -0.216296 1.8957 0
M  V30 15589 C 1422.17 0.0703726 3.45028 0
M  V30 15590 C 1421.29 1.12475 4.17101 0
M  V30 15591 C 1420.42 0.484806 5.28983 0
M  V30 15592 C 1419.46 1.52262 5.9286 0
M  V30 15593 N 1418.6 0.905938 6.96231 0
M  V30 15594 H 1423.44 1.57129 2.53209 0
M  V30 15595 H 1420.98 0.7856 1.24365 0
M  V30 15596 H 1422.93 -0.298488 4.16131 0
M  V30 15597 H 1421.56 -0.788002 3.13034 0
M  V30 15598 H 1420.62 1.6113 3.44589 0
M  V30 15599 H 1421.93 1.91202 4.60698 0
M  V30 15600 H 1421.08 0.0630553 6.06667 0
M  V30 15601 H 1419.82 -0.334332 4.86553 0
M  V30 15602 H 1418.83 1.95425 5.13896 0
M  V30 15603 H 1420.05 2.34388 6.37369 0
M  V30 15604 H 1418 0.107536 6.55912 0
M  V30 15605 H 1417.91 1.63058 7.38206 0
M  V30 15606 H 1419.18 0.509378 7.77834 0
M  V30 15607 N 1423.41 -1.329 0.847073 0
M  V30 15608 C 1424.66 -1.96774 0.443022 0
M  V30 15609 C 1424.97 -1.67813 -1.0049 0
M  V30 15610 O 1426.18 -2.25366 -1.51402 0
M  V30 15611 C 1424.63 -3.52184 0.741268 0
M  V30 15612 C 1424.24 -3.90013 2.20441 0
M  V30 15613 C 1425.99 -4.22568 0.404569 0
M  V30 15614 C 1423.89 -5.38434 2.44627 0
M  V30 15615 H 1422.82 -0.736406 0.161932 0
M  V30 15616 H 1425.47 -1.51402 1.0368 0
M  V30 15617 H 1423.86 -3.95925 0.0770158 0
M  V30 15618 H 1425.03 -3.57304 2.90982 0
M  V30 15619 H 1423.35 -3.32633 2.50489 0
M  V30 15620 H 1425.94 -5.3173 0.562795 0
M  V30 15621 H 1426.29 -4.11144 -0.653172 0
M  V30 15622 H 1426.82 -3.84384 1.0244 0
M  V30 15623 H 1423.56 -5.5487 3.48997 0
M  V30 15624 H 1423.08 -5.72575 1.78656 0
M  V30 15625 H 1424.76 -6.05423 2.28194 0
M  V30 15626 N 1424.89 -0.604284 -1.45555 0
M  V30 15627 C 1426.11 -0.102634 -2.07146 0
M  V30 15628 C 1426.54 1.20239 -1.44652 0
M  V30 15629 O 1425.9 1.73133 -0.538033 0
M  V30 15630 C 1425.94 0.0270231 -3.6059 0
M  V30 15631 O 1425.05 1.0781 -3.98059 0
M  V30 15632 H 1424.39 -0.0725667 -0.660023 0
M  V30 15633 H 1426.92 -0.833355 -1.86859 0
M  V30 15634 H 1426.93 0.226299 -4.07372 0
M  V30 15635 H 1425.6 -0.925896 -4.05463 0
M  V30 15636 H 1424.18 0.855552 -3.62953 0
M  V30 15637 N 1426.37 1.53816 -0.343257 0
M  V30 15638 C 1427.62 2.0009 0.254346 0
M  V30 15639 C 1427.93 1.23502 1.51679 0
M  V30 15640 O 1429.13 1.60251 2.19162 0
M  V30 15641 C 1427.59 3.56357 0.503775 0
M  V30 15642 C 1427.2 4.418 -0.742754 0
M  V30 15643 C 1428.94 4.11046 1.06025 0
M  V30 15644 C 1426.85 5.89576 -0.46414 0
M  V30 15645 H 1425.78 0.747496 0.0988189 0
M  V30 15646 H 1428.43 1.77679 -0.45854 0
M  V30 15647 H 1426.81 3.74833 1.27736 0
M  V30 15648 H 1427.99 4.35099 -1.51742 0
M  V30 15649 H 1426.3 3.98101 -1.22085 0
M  V30 15650 H 1428.9 5.19063 1.28365 0
M  V30 15651 H 1429.24 3.64247 2.01568 0
M  V30 15652 H 1429.77 3.9628 0.347384 0
M  V30 15653 H 1426.51 6.40608 -1.38928 0
M  V30 15654 H 1426.03 5.99181 0.272441 0
M  V30 15655 H 1427.71 6.46949 -0.0812761 0
M  V30 15656 N 1427.84 0.0718701 1.57436 0
M  V30 15657 C 1429.26 -0.28476 1.57039 0
M  V30 15658 C 1429.46 -1.70032 1.08127 0
M  V30 15659 O 1428.52 -2.41191 0.747189 0
M  V30 15660 C 1429.83 -0.0943482 3.00552 0
M  V30 15661 C 1431.38 -0.163879 3.12571 0
M  V30 15662 C 1431.85 -0.00174658 4.58 0
M  V30 15663 N 1433.34 -0.0573489 4.63164 0
M  V30 15664 C 1434.08 0.0436849 5.73383 0
M  V30 15665 N 1433.57 0.198243 6.92516 0
M  V30 15666 N 1435.37 -0.0133856 5.62098 0
M  V30 15667 H 1427.52 0.99702 1.87545 0
M  V30 15668 H 1429.78 0.388822 0.864593 0
M  V30 15669 H 1429.49 0.882445 3.40449 0
M  V30 15670 H 1429.36 -0.846636 3.67576 0
M  V30 15671 H 1431.75 -1.13116 2.7256 0
M  V30 15672 H 1431.83 0.619513 2.48185 0
M  V30 15673 H 1431.47 0.9623 4.98701 0
M  V30 15674 H 1431.4 -0.804543 5.20418 0
M  V30 15675 H 1433.89 -0.175212 3.77494 0
M  V30 15676 H 1434.21 0.267479 7.72337 0
M  V30 15677 H 1432.55 0.233606 6.94607 0
M  V30 15678 H 1435.74 -0.132835 4.67911 0
M  V30 15679 H 1435.92 0.0688076 6.47963 0
M  V30 15680 N 1429.32 -1.56304 -0.201686 0
M  V30 15681 C 1430.57 -1.79881 -0.921269 0
M  V30 15682 C 1430.89 -0.643809 -1.84065 0
M  V30 15683 O 1430.16 0.338239 -1.92958 0
M  V30 15684 H 1428.74 -0.663506 -0.343175 0
M  V30 15685 H 1431.4 -1.93779 -0.208775 0
M  V30 15686 H 1430.5 -2.7279 -1.51631 0
M  V30 15687 N 1430.8 0.469154 -1.50455 0
M  V30 15688 C 1431.75 1.58765 -1.6999 0
M  V30 15689 C 1432.74 1.59673 -0.56577 0
M  V30 15690 O 1433.95 1.63799 -0.74632 0
M  V30 15691 H 1430.32 0.526868 -0.536577 0
M  V30 15692 H 1432.29 1.39451 -2.6381 0
M  V30 15693 C 1431.04 2.9669 -1.81302 0
M  V30 15694 H 1430.37 2.96711 -2.67961 0
M  V30 15695 H 1431.81 3.74403 -1.98994 0
M  V30 15696 C 1430.27 3.32127 -0.565086 0
M  V30 15697 O 1430.8 4.00616 0.294873 0
M  V30 15698 N 1429 2.8757 -0.418537 0
M  V30 15699 H 1428.55 2.32008 -1.11938 0
M  V30 15700 H 1428.51 3.11645 0.415276 0
M  V30 15701 N 1432.28 1.40065 0.722464 0
M  V30 15702 C 1433.69 1.21944 1.02965 0
M  V30 15703 C 1433.89 0.0898069 2.013 0
M  V30 15704 O 1432.95 -0.554519 2.46336 0
M  V30 15705 C 1434.26 2.55848 1.57995 0
M  V30 15706 C 1435.81 2.62801 1.70013 0
M  V30 15707 C 1436.29 3.96957 2.2845 0
M  V30 15708 N 1437.78 3.98662 2.35844 0
M  V30 15709 C 1438.51 4.99248 2.82026 0
M  V30 15710 N 1438.01 6.1023 3.28012 0
M  V30 15711 N 1439.8 4.8662 2.81349 0
M  V30 15712 H 1431.95 2.12283 0.0705301 0
M  V30 15713 H 1434.22 0.943338 0.0938991 0
M  V30 15714 H 1433.92 3.39125 0.932034 0
M  V30 15715 H 1433.8 2.76452 2.5662 0
M  V30 15716 H 1436.18 1.799 2.33923 0
M  V30 15717 H 1436.26 2.46034 0.700062 0
M  V30 15718 H 1435.91 4.80295 1.65164 0
M  V30 15719 H 1435.84 4.1105 3.29158 0
M  V30 15720 H 1438.33 3.18518 2.03358 0
M  V30 15721 H 1438.64 6.82878 3.61797 0
M  V30 15722 H 1436.99 6.13805 3.25988 0
M  V30 15723 H 1440.18 3.99015 2.44755 0
M  V30 15724 H 1440.35 5.65155 3.17024 0
M  V30 15725 N 1433.76 -0.95397 1.25448 0
M  V30 15726 C 1435.01 -1.69305 1.09631 0
M  V30 15727 C 1435.32 -1.92213 -0.362413 0
M  V30 15728 O 1436.53 -2.63824 -0.641036 0
M  V30 15729 C 1434.98 -3.04805 1.91369 0
M  V30 15730 C 1434.59 -2.8969 3.41737 0
M  V30 15731 C 1436.33 -3.82491 1.84123 0
M  V30 15732 C 1434.24 -4.20584 4.15768 0
M  V30 15733 H 1433.17 -0.63494 0.406654 0
M  V30 15734 H 1435.82 -1.06195 1.49649 0
M  V30 15735 H 1434.2 -3.68822 1.44174 0
M  V30 15736 H 1435.38 -2.346 3.9661 0
M  V30 15737 H 1433.69 -2.25458 3.50082 0
M  V30 15738 H 1436.29 -4.79442 2.36727 0
M  V30 15739 H 1436.63 -4.08358 0.809265 0
M  V30 15740 H 1437.17 -3.25224 2.29072 0
M  V30 15741 H 1433.9 -3.99905 5.19381 0
M  V30 15742 H 1433.42 -4.75436 3.65678 0
M  V30 15743 H 1435.1 -4.89122 4.2352 0
M  V30 15744 N 1435.24 -1.07045 -1.15668 0
M  V30 15745 C 1436.48 -0.786751 -1.85723 0
M  V30 15746 C 1436.8 0.689604 -1.83041 0
M  V30 15747 O 1438 1.08796 -2.48748 0
M  V30 15748 C 1436.46 -1.35729 -3.33325 0
M  V30 15749 C 1436.07 -2.86444 -3.44462 0
M  V30 15750 C 1437.81 -1.15148 -4.08584 0
M  V30 15751 C 1435.72 -3.36705 -4.86193 0
M  V30 15752 H 1434.65 -0.29063 -0.695737 0
M  V30 15753 H 1437.3 -1.29012 -1.30492 0
M  V30 15754 H 1435.68 -0.781671 -3.88209 0
M  V30 15755 H 1436.86 -3.50023 -2.997 0
M  V30 15756 H 1435.17 -3.0578 -2.82644 0
M  V30 15757 H 1437.77 -1.50179 -5.13177 0
M  V30 15758 H 1438.11 -0.0903159 -4.16202 0
M  V30 15759 H 1438.64 -1.6933 -3.59962 0
M  V30 15760 H 1435.38 -4.42333 -4.83758 0
M  V30 15761 H 1434.9 -2.77877 -5.31549 0
M  V30 15762 H 1436.58 -3.32478 -5.55038 0
M  V30 15763 N 1436.71 1.32449 -0.85411 0
M  V30 15764 C 1437.96 1.97962 -0.467177 0
M  V30 15765 C 1438.31 1.66368 0.966409 0
M  V30 15766 O 1437.61 0.941277 1.66885 0
M  V30 15767 C 1437.8 3.51577 -0.642499 0
M  V30 15768 C 1437.63 3.98099 -2.09158 0
M  V30 15769 C 1436.4 4.25207 -2.72996 0
M  V30 15770 C 1438.6 4.13207 -3.0621 0
M  V30 15771 N 1436.58 4.57973 -4.0882 0
M  V30 15772 C 1437.95 4.49504 -4.2702 0
M  V30 15773 C 1440.01 3.95539 -3.02412 0
M  V30 15774 C 1438.71 4.69978 -5.4453 0
M  V30 15775 C 1440.74 4.17197 -4.19167 0
M  V30 15776 C 1440.1 4.5381 -5.38735 0
M  V30 15777 H 1436.2 0.75051 -0.21968 0
M  V30 15778 H 1438.78 1.60279 -1.10538 0
M  V30 15779 H 1436.95 3.88385 -0.033996 0
M  V30 15780 H 1438.68 4.04071 -0.225515 0
M  V30 15781 H 1435.44 4.17258 -2.24038 0
M  V30 15782 H 1435.86 4.78541 -4.78881 0
M  V30 15783 H 1440.5 3.66334 -2.1109 0
M  V30 15784 H 1438.22 4.98037 -6.36384 0
M  V30 15785 H 1441.81 4.0503 -4.17663 0
M  V30 15786 H 1440.69 4.70233 -6.27575 0
M  V30 15787 N 1438.19 0.611994 1.45232 0
M  V30 15788 C 1439.42 0.115409 2.06578 0
M  V30 15789 C 1439.83 -1.20206 1.45588 0
M  V30 15790 O 1439.19 -1.73315 0.571668 0
M  V30 15791 C 1439.24 -0.0259943 3.61491 0
M  V30 15792 O 1438.96 1.23936 4.20204 0
M  V30 15793 C 1440.46 -0.553522 4.39831 0
M  V30 15794 H 1437.68 0.0708656 0.667247 0
M  V30 15795 H 1440.23 0.840977 1.86408 0
M  V30 15796 H 1438.38 -0.701909 3.80988 0
M  V30 15797 H 1438.8 1.07187 5.13431 0
M  V30 15798 H 1440.27 -0.601536 5.48713 0
M  V30 15799 H 1440.75 -1.57671 4.09923 0
M  V30 15800 H 1441.35 0.0884954 4.25208 0
M  V30 15801 N 1439.67 -1.53632 0.351409 0
M  V30 15802 C 1440.6 -2.28217 -0.49391 0
M  V30 15803 C 1441.58 -1.30085 -1.09599 0
M  V30 15804 O 1442.77 -1.58938 -1.1159 0
M  V30 15805 C 1439.9 -3.06085 -1.64102 0
M  V30 15806 C 1438.85 -4.11786 -1.16689 0
M  V30 15807 C 1438.18 -4.77654 -2.40314 0
M  V30 15808 C 1439.48 -5.21644 -0.261742 0
M  V30 15809 H 1441.17 -2.99125 0.1283 0
M  V30 15810 H 1438.72 -1.43861 0.0631462 0
M  V30 15811 H 1440.67 -3.57003 -2.2389 0
M  V30 15812 H 1439.39 -2.32842 -2.29025 0
M  V30 15813 H 1438.05 -3.61792 -0.591784 0
M  V30 15814 H 1437.7 -4.00997 -3.03661 0
M  V30 15815 H 1437.4 -5.49072 -2.09268 0
M  V30 15816 H 1438.92 -5.3136 -3.00813 0
M  V30 15817 H 1440.34 -5.6815 -0.766689 0
M  V30 15818 H 1438.73 -6.00085 -0.0428132 0
M  V30 15819 H 1439.8 -4.79821 0.699999 0
M  V30 15820 N 1441.15 -0.0802183 -1.57396 0
M  V30 15821 C 1442.4 0.586573 -1.92982 0
M  V30 15822 C 1442.71 1.70256 -0.962918 0
M  V30 15823 O 1443.92 2.4295 -1.21193 0
M  V30 15824 C 1442.37 1.09475 -3.42846 0
M  V30 15825 C 1441.98 0.0093098 -4.47999 0
M  V30 15826 C 1443.72 1.73512 -3.87419 0
M  V30 15827 C 1441.63 0.532002 -5.89002 0
M  V30 15828 H 1440.56 0.222878 -0.720306 0
M  V30 15829 H 1443.21 -0.153816 -1.82854 0
M  V30 15830 H 1441.59 1.88836 -3.48076 0
M  V30 15831 H 1442.77 -0.765609 -4.54395 0
M  V30 15832 H 1441.08 -0.535345 -4.12944 0
M  V30 15833 H 1443.68 2.13665 -4.90154 0
M  V30 15834 H 1444.02 2.59845 -3.25248 0
M  V30 15835 H 1444.56 1.00758 -3.84828 0
M  V30 15836 H 1441.29 -0.294364 -6.54839 0
M  V30 15837 H 1440.81 1.27425 -5.86108 0
M  V30 15838 H 1442.49 1.00573 -6.39135 0
M  V30 15839 N 1442.63 1.56409 0.193394 0
M  V30 15840 C 1443.9 1.71559 0.93951 0
M  V30 15841 C 1444.28 0.635478 2.01308 0
M  V30 15842 O 1443.63 -0.353267 2.25753 0
M  V30 15843 C 1443.84 3.13948 1.52438 0
M  V30 15844 C 1445.19 3.74234 2.00585 0
M  V30 15845 O 1446.21 3.17088 1.62277 0
M  V30 15846 O 1445.07 4.74529 2.71081 0
M  V30 15847 H 1442.17 0.69979 0.440707 0
M  V30 15848 H 1444.71 1.68711 0.182957 0
M  V30 15849 H 1443.48 3.84033 0.750613 0
M  V30 15850 H 1443.11 3.21032 2.34572 0
M  V30 15851 N 1444.1 -0.461169 1.50702 0
M  V30 15852 C 1445.35 -1.20934 1.61425 0
M  V30 15853 C 1445.67 -1.92884 0.32481 0
M  V30 15854 O 1446.87 -2.69712 0.311081 0
M  V30 15855 C 1445.33 -2.19797 2.84987 0
M  V30 15856 C 1444.94 -1.53604 4.20844 0
M  V30 15857 C 1446.68 -2.95194 3.05059 0
M  V30 15858 C 1444.59 -2.50811 5.35582 0
M  V30 15859 H 1443.52 -0.455088 0.601174 0
M  V30 15860 H 1446.17 -0.478771 1.77144 0
M  V30 15861 H 1444.55 -2.96187 2.62848 0
M  V30 15862 H 1445.72 -0.829345 4.53275 0
M  V30 15863 H 1444.04 -0.904504 4.06457 0
M  V30 15864 H 1446.64 -3.67965 3.87951 0
M  V30 15865 H 1446.98 -3.5516 2.1718 0
M  V30 15866 H 1447.51 -2.25915 3.27425 0
M  V30 15867 H 1444.25 -1.9557 6.25646 0
M  V30 15868 H 1443.77 -3.19604 5.07556 0
M  V30 15869 H 1445.45 -3.12437 5.66561 0
M  V30 15870 N 1445.58 -1.40446 -0.715026 0
M  V30 15871 C 1446.53 -1.40931 -1.85044 0
M  V30 15872 C 1447.52 -0.289745 -1.66904 0
M  V30 15873 O 1448.73 -0.460809 -1.74002 0
M  V30 15874 H 1445.1 -0.440534 -0.609454 0
M  V30 15875 H 1447.08 -2.36662 -1.81752 0
M  V30 15876 C 1445.82 -1.28933 -3.22911 0
M  V30 15877 H 1445.15 -2.14359 -3.37476 0
M  V30 15878 H 1446.59 -1.33331 -4.02491 0
M  V30 15879 C 1445.05 0.000379936 -3.369 0
M  V30 15880 O 1445.58 0.963093 -3.89984 0
M  V30 15881 N 1443.78 0.0700649 -2.90516 0
M  V30 15882 H 1443.33 -0.714088 -2.47505 0
M  V30 15883 H 1443.29 0.932457 -3.00254 0
M  V30 15884 N 1447.06 0.947303 -1.25952 0
M  V30 15885 C 1448.31 1.68945 -1.10915 0
M  V30 15886 C 1448.63 1.91848 0.349216 0
M  V30 15887 O 1447.9 1.5108 1.24706 0
M  V30 15888 H 1446.48 0.626086 -0.407462 0
M  V30 15889 H 1449.14 1.13854 -1.58187 0
M  V30 15890 H 1448.24 2.6657 -1.62317 0
M  V30 15891 N 1448.54 1.07657 1.15099 0
M  V30 15892 C 1449.49 0.699678 2.19939 0
M  V30 15893 C 1450.46 -0.310432 1.63173 0
M  V30 15894 O 1451.64 -0.196177 1.89789 0
M  V30 15895 C 1448.78 0.106963 3.44934 0
M  V30 15896 C 1447.89 1.16892 4.15885 0
M  V30 15897 C 1447.03 0.540884 5.28439 0
M  V30 15898 C 1446.07 1.58542 5.91211 0
M  V30 15899 N 1445.2 0.979731 6.95231 0
M  V30 15900 H 1450.04 1.59805 2.51528 0
M  V30 15901 H 1447.58 0.798746 1.23525 0
M  V30 15902 H 1449.54 -0.254335 4.16424 0
M  V30 15903 H 1448.17 -0.754756 3.13852 0
M  V30 15904 H 1447.22 1.64775 3.4286 0
M  V30 15905 H 1448.53 1.96078 4.58645 0
M  V30 15906 H 1447.69 0.127397 6.06566 0
M  V30 15907 H 1446.43 -0.282708 4.8688 0
M  V30 15908 H 1445.43 2.00865 5.11794 0
M  V30 15909 H 1446.66 2.41135 6.34847 0
M  V30 15910 H 1444.6 0.177098 6.55761 0
M  V30 15911 H 1444.52 1.70878 7.36435 0
M  V30 15912 H 1445.79 0.591849 7.7725 0
M  V30 15913 N 1450.02 -1.31994 0.861122 0
M  V30 15914 C 1451.24 -2.01211 0.481865 0
M  V30 15915 C 1451.66 -1.64687 -0.923233 0
M  V30 15916 O 1451.02 -0.87151 -1.60346 0
M  V30 15917 C 1451.07 -3.56162 0.618919 0
M  V30 15918 O 1450.79 -3.91376 1.96868 0
M  V30 15919 C 1452.29 -4.42652 0.239514 0
M  V30 15920 H 1449.51 -0.643922 0.188693 0
M  V30 15921 H 1452.05 -1.68427 1.15985 0
M  V30 15922 H 1450.21 -3.87398 -0.0114042 0
M  V30 15923 H 1450.62 -4.86095 1.97008 0
M  V30 15924 H 1452.1 -5.50646 0.386394 0
M  V30 15925 H 1452.57 -4.31466 -0.820598 0
M  V30 15926 H 1453.18 -4.16818 0.845175 0
M  V30 15927 N 1451.49 -0.619688 -1.44906 0
M  V30 15928 C 1452.44 0.0920359 -2.30616 0
M  V30 15929 C 1453.41 0.848114 -1.42815 0
M  V30 15930 O 1454.6 0.831439 -1.71732 0
M  V30 15931 C 1451.74 1.07537 -3.27917 0
M  V30 15932 C 1450.85 0.318904 -4.30821 0
M  V30 15933 C 1449.98 1.29303 -5.15222 0
M  V30 15934 C 1449.02 0.525071 -6.09844 0
M  V30 15935 N 1448.16 1.44909 -6.86983 0
M  V30 15936 H 1453 -0.644834 -2.9094 0
M  V30 15937 H 1450.54 -0.329785 -1.43356 0
M  V30 15938 H 1452.5 1.65874 -3.82808 0
M  V30 15939 H 1451.13 1.7795 -2.6932 0
M  V30 15940 H 1450.18 -0.380192 -3.78495 0
M  V30 15941 H 1451.49 -0.279742 -4.98015 0
M  V30 15942 H 1450.64 1.94809 -5.74573 0
M  V30 15943 H 1449.38 1.92561 -4.48076 0
M  V30 15944 H 1448.39 -0.14355 -5.49613 0
M  V30 15945 H 1449.61 -0.102625 -6.79022 0
M  V30 15946 H 1447.56 2.06908 -6.22515 0
M  V30 15947 H 1447.48 0.90418 -7.50574 0
M  V30 15948 H 1448.74 2.09335 -7.50866 0
M  V30 15949 N 1452.97 1.53444 -0.359552 0
M  V30 15950 C 1454.2 2.06058 0.235576 0
M  V30 15951 C 1454.62 1.23175 1.42161 0
M  V30 15952 O 1453.98 0.249338 1.79577 0
M  V30 15953 C 1454.03 3.55351 0.613025 0
M  V30 15954 O 1453.13 3.75229 1.71104 0
M  V30 15955 H 1452.47 0.663038 0.0357266 0
M  V30 15956 H 1455 1.97923 -0.518408 0
M  V30 15957 H 1455.01 3.9827 0.885722 0
M  V30 15958 H 1453.69 4.15122 -0.254243 0
M  V30 15959 H 1452.27 3.4421 1.43437 0
M  V30 15960 N 1454.45 0.0885642 1.57351 0
M  V30 15961 C 1455.7 -0.57753 1.94403 0
M  V30 15962 C 1456.03 -1.68238 0.970029 0
M  V30 15963 O 1455.3 -1.945 0.00198684 0
M  V30 15964 C 1455.59 -1.13882 3.41618 0
M  V30 15965 C 1455.44 -0.0394686 4.49783 0
M  V30 15966 C 1456.76 -2.03922 3.90005 0
M  V30 15967 H 1453.88 -0.208468 0.706902 0
M  V30 15968 H 1456.52 0.157945 1.89342 0
M  V30 15969 H 1454.67 -1.76561 3.46061 0
M  V30 15970 H 1456.34 0.594458 4.57454 0
M  V30 15971 H 1454.59 0.627775 4.29234 0
M  V30 15972 H 1455.26 -0.472897 5.49971 0
M  V30 15973 H 1457.73 -1.51156 3.87674 0
M  V30 15974 H 1456.61 -2.40123 4.93591 0
M  V30 15975 H 1456.87 -2.95407 3.28918 0
M  V30 15976 N 1455.93 -1.56509 -0.185096 0
M  V30 15977 C 1457.18 -1.81206 -0.903924 0
M  V30 15978 C 1457.5 -0.663423 -1.82836 0
M  V30 15979 O 1456.76 0.350211 -1.92541 0
M  V30 15980 C 1457.06 -3.11968 -1.74387 0
M  V30 15981 C 1456.72 -4.40353 -0.969552 0
M  V30 15982 C 1455.39 -4.75227 -0.755799 0
M  V30 15983 C 1457.74 -5.19461 -0.425443 0
M  V30 15984 C 1455.07 -5.86698 0.0133856 0
M  V30 15985 C 1457.42 -6.31736 0.330582 0
M  V30 15986 C 1456.08 -6.65187 0.555262 0
M  V30 15987 H 1455.35 -0.663078 -0.330769 0
M  V30 15988 H 1458 -1.90747 -0.169673 0
M  V30 15989 H 1456.3 -2.97708 -2.5471 0
M  V30 15990 H 1458 -3.28284 -2.30284 0
M  V30 15991 H 1454.59 -4.1299 -1.14618 0
M  V30 15992 H 1458.77 -4.92923 -0.577959 0
M  V30 15993 H 1454.03 -6.11081 0.197335 0
M  V30 15994 H 1458.2 -6.92246 0.759523 0
M  V30 15995 H 1455.83 -7.51403 1.15318 0
M  V30 15996 N 1457.41 0.45317 -1.50944 0
M  V30 15997 C 1458.65 1.20389 -1.62827 0
M  V30 15998 C 1458.98 1.91559 -0.336982 0
M  V30 15999 O 1458.24 1.83574 0.678153 0
M  V30 16000 C 1458.54 2.25747 -2.7708 0
M  V30 16001 C 1458.2 1.71703 -4.16928 0
M  V30 16002 C 1456.86 1.56686 -4.54976 0
M  V30 16003 C 1459.22 1.31804 -5.04259 0
M  V30 16004 C 1456.54 1.0022 -5.78077 0
M  V30 16005 C 1458.9 0.767738 -6.27924 0
M  V30 16006 C 1457.56 0.604341 -6.64759 0
M  V30 16007 H 1456.83 0.440536 -0.595827 0
M  V30 16008 H 1459.48 0.497234 -1.84932 0
M  V30 16009 H 1457.78 3.0239 -2.49134 0
M  V30 16010 H 1459.48 2.83625 -2.83475 0
M  V30 16011 H 1456.07 1.84364 -3.86921 0
M  V30 16012 H 1460.25 1.42233 -4.75482 0
M  V30 16013 H 1455.51 0.863228 -6.05275 0
M  V30 16014 H 1459.68 0.449994 -6.94945 0
M  V30 16015 H 1457.31 0.164663 -7.60022 0
M  V30 16016 N 1458.88 1.40823 0.707568 0
M  V30 16017 C 1459.79 1.44058 1.85161 0
M  V30 16018 C 1460.81 0.332357 1.70796 0
M  V30 16019 O 1461.99 0.578205 1.92922 0
M  V30 16020 C 1459.05 1.3091 3.21035 0
M  V30 16021 C 1458.11 2.51944 3.47595 0
M  V30 16022 C 1457.35 2.39414 4.76987 0
M  V30 16023 O 1457.57 1.41224 5.52641 0
M  V30 16024 O 1456.5 3.28944 5.04063 0
M  V30 16025 H 1460.33 2.40551 1.85388 0
M  V30 16026 H 1457.91 1.22232 0.859052 0
M  V30 16027 H 1459.8 1.25816 4.02179 0
M  V30 16028 H 1458.47 0.375263 3.21517 0
M  V30 16029 H 1457.38 2.62615 2.66428 0
M  V30 16030 H 1458.71 3.44115 3.51917 0
M  V30 16031 N 1460.36 -0.94061 1.26453 0
M  V30 16032 C 1461.59 -1.71874 1.14643 0
M  V30 16033 C 1462 -1.86791 -0.300969 0
M  V30 16034 O 1461.34 -1.37529 -1.21784 0
M  V30 16035 C 1461.41 -3.14408 1.74321 0
M  V30 16036 C 1461.07 -3.22873 3.23422 0
M  V30 16037 C 1462.07 -3.06107 4.20231 0
M  V30 16038 C 1459.75 -3.46245 3.63895 0
M  V30 16039 C 1461.75 -3.12581 5.55492 0
M  V30 16040 C 1459.43 -3.52354 4.99289 0
M  V30 16041 C 1460.43 -3.35539 5.94897 0
M  V30 16042 O 1460.12 -3.41357 7.27826 0
M  V30 16043 H 1459.85 -0.544931 0.400033 0
M  V30 16044 H 1462.4 -1.18767 1.67581 0
M  V30 16045 H 1460.63 -3.6894 1.15846 0
M  V30 16046 H 1462.32 -3.74135 1.57409 0
M  V30 16047 H 1463.09 -2.87906 3.90302 0
M  V30 16048 H 1458.97 -3.58389 2.89962 0
M  V30 16049 H 1462.51 -2.99374 6.30096 0
M  V30 16050 H 1458.41 -3.70077 5.2888 0
M  V30 16051 H 1459.18 -3.57897 7.36106 0
M  V30 16052 N 1461.84 -1.08266 -1.14527 0
M  V30 16053 C 1462.79 -0.705807 -2.21633 0
M  V30 16054 C 1463.78 0.287758 -1.66938 0
M  V30 16055 O 1464.99 0.150479 -1.7937 0
M  V30 16056 H 1461.36 -0.210206 -0.722023 0
M  V30 16057 H 1463.33 -1.61855 -2.5069 0
M  V30 16058 C 1462.08 -0.129673 -3.47458 0
M  V30 16059 H 1461.41 -0.885365 -3.89873 0
M  V30 16060 H 1462.85 0.0962264 -4.23891 0
M  V30 16061 C 1461.31 1.13208 -3.1731 0
M  V30 16062 O 1461.84 2.21717 -3.34969 0
M  V30 16063 N 1460.04 1.0419 -2.7128 0
M  V30 16064 H 1459.59 0.15883 -2.5711 0
M  V30 16065 H 1459.55 1.88689 -2.51483 0
M  V30 16066 N 1463.32 1.31536 -0.86811 0
M  V30 16067 C 1464.57 1.96045 -0.474271 0
M  V30 16068 C 1464.88 1.6939 0.978071 0
M  V30 16069 O 1466.09 2.27746 1.47797 0
M  V30 16070 C 1464.54 3.5096 -0.797203 0
M  V30 16071 C 1464.15 3.86456 -2.26618 0
M  V30 16072 C 1465.9 4.21871 -0.471745 0
M  V30 16073 C 1463.8 5.34474 -2.53162 0
M  V30 16074 H 1462.73 0.733737 -0.173627 0
M  V30 16075 H 1465.38 1.49734 -1.06076 0
M  V30 16076 H 1463.77 3.95752 -0.139994 0
M  V30 16077 H 1464.94 3.52629 -2.9663 0
M  V30 16078 H 1463.25 3.28605 -2.55749 0
M  V30 16079 H 1465.85 5.30767 -0.647317 0
M  V30 16080 H 1466.19 4.12131 0.58768 0
M  V30 16081 H 1466.73 3.82706 -1.08542 0
M  V30 16082 H 1463.47 5.49248 -3.57781 0
M  V30 16083 H 1462.99 5.6966 -1.87743 0
M  V30 16084 H 1464.67 6.01716 -2.37797 0
M  V30 16085 N 1464.8 0.627364 1.44575 0
M  V30 16086 C 1466.21 0.292662 1.56894 0
M  V30 16087 C 1466.41 -1.20429 1.61552 0
M  V30 16088 O 1465.47 -1.98819 1.55651 0
M  V30 16089 C 1466.78 0.981267 2.84239 0
M  V30 16090 C 1468.33 0.959053 2.97945 0
M  V30 16091 C 1468.81 1.62805 4.28087 0
M  V30 16092 N 1470.3 1.59446 4.34892 0
M  V30 16093 C 1471.03 2.08107 5.34302 0
M  V30 16094 N 1470.53 2.64942 6.40139 0
M  V30 16095 N 1472.32 1.98758 5.25787 0
M  V30 16096 H 1464.47 1.5991 1.39795 0
M  V30 16097 H 1466.73 0.671019 0.669655 0
M  V30 16098 H 1466.44 2.0361 2.86768 0
M  V30 16099 H 1466.31 0.516703 3.73644 0
M  V30 16100 H 1468.7 -0.0872902 2.94971 0
M  V30 16101 H 1468.78 1.46207 2.09898 0
M  V30 16102 H 1468.43 2.67382 4.31821 0
M  V30 16103 H 1468.36 1.09989 5.14985 0
M  V30 16104 H 1470.85 1.17947 3.59022 0
M  V30 16105 H 1471.16 2.99814 7.12272 0
M  V30 16106 H 1469.51 2.68991 6.40835 0
M  V30 16107 H 1472.7 1.54081 4.42014 0
M  V30 16108 H 1472.87 2.36992 6.03107 0
M  V30 16109 N 1466.28 -1.53251 0.367684 0
M  V30 16110 C 1467.19 -2.29518 -0.485669 0
M  V30 16111 C 1468.2 -1.35568 -1.09075 0
M  V30 16112 O 1469.38 -1.68626 -1.10124 0
M  V30 16113 C 1466.44 -3.07115 -1.60876 0
M  V30 16114 C 1465.5 -4.16736 -1.031 0
M  V30 16115 C 1464.74 -4.90624 -2.10056 0
M  V30 16116 O 1464.96 -4.64393 -3.31203 0
M  V30 16117 O 1463.89 -5.76503 -1.72996 0
M  V30 16118 H 1467.72 -3.034 0.135017 0
M  V30 16119 H 1465.3 -1.48816 0.132005 0
M  V30 16120 H 1467.19 -3.55564 -2.26168 0
M  V30 16121 H 1465.86 -2.36068 -2.21481 0
M  V30 16122 H 1464.77 -3.72534 -0.341928 0
M  V30 16123 H 1466.1 -4.89956 -0.469473 0
M  V30 16124 N 1467.75 -0.0969077 -1.57302 0
M  V30 16125 C 1469.03 0.608737 -1.85886 0
M  V30 16126 C 1469.41 1.86228 -0.994096 0
M  V30 16127 O 1468.76 2.28402 -0.0669975 0
M  V30 16128 C 1468.97 0.922385 -3.3659 0
M  V30 16129 C 1470.32 1.28505 -4.04687 0
M  V30 16130 O 1471.34 1.01334 -3.41482 0
M  V30 16131 O 1470.2 1.794 -5.16215 0
M  V30 16132 H 1467.29 0.304808 -0.768779 0
M  V30 16133 H 1469.84 -0.129742 -1.69203 0
M  V30 16134 H 1468.61 0.0331488 -3.91286 0
M  V30 16135 H 1468.23 1.71678 -3.58626 0
M  V30 16136 N 1469.23 1.56605 0.176793 0
M  V30 16137 C 1470.48 1.80875 0.892578 0
M  V30 16138 C 1470.79 0.673245 1.83648 0
M  V30 16139 O 1472 0.800732 2.59423 0
M  V30 16140 C 1470.46 3.20481 1.63768 0
M  V30 16141 C 1470.06 4.41885 0.737685 0
M  V30 16142 C 1471.81 3.54048 2.34202 0
M  V30 16143 C 1469.71 5.72512 1.48271 0
M  V30 16144 H 1468.64 0.674476 0.337042 0
M  V30 16145 H 1471.3 1.82922 0.145574 0
M  V30 16146 H 1469.68 3.12736 2.42924 0
M  V30 16147 H 1470.85 4.60797 -0.0165186 0
M  V30 16148 H 1469.17 4.16153 0.143277 0
M  V30 16149 H 1471.76 4.48886 2.90526 0
M  V30 16150 H 1472.11 2.78665 3.09276 0
M  V30 16151 H 1472.64 3.63322 1.61995 0
M  V30 16152 H 1469.38 6.5091 0.774399 0
M  V30 16153 H 1468.9 5.57586 2.21038 0
M  V30 16154 H 1470.58 6.14274 2.03165 0
M  V30 16155 N 1470.71 -0.445159 1.51182 0
M  V30 16156 C 1471.93 -1.22249 1.67541 0
M  V30 16157 C 1472.36 -1.84446 0.368972 0
M  V30 16158 O 1471.72 -1.68463 -0.670058 0
M  V30 16159 C 1471.77 -2.288 2.78717 0
M  V30 16160 O 1470.87 -3.34094 2.41775 0
M  V30 16161 H 1470.21 -0.358516 0.558894 0
M  V30 16162 H 1472.74 -0.526696 1.97704 0
M  V30 16163 H 1472.75 -2.73708 3.02569 0
M  V30 16164 H 1471.43 -1.82906 3.73521 0
M  V30 16165 H 1470 -2.94717 2.28466 0
M  V30 16166 N 1472.19 -1.41197 -0.700089 0
M  V30 16167 C 1473.1 -1.45038 -1.84394 0
M  V30 16168 C 1474.11 -0.34141 -1.70618 0
M  V30 16169 O 1475.29 -0.588428 -1.92612 0
M  V30 16170 C 1472.35 -1.32611 -3.20336 0
M  V30 16171 C 1471.42 -2.53784 -3.46254 0
M  V30 16172 C 1470.65 -2.4194 -4.75711 0
M  V30 16173 O 1470.87 -1.44153 -5.51884 0
M  V30 16174 O 1469.81 -3.31613 -5.02311 0
M  V30 16175 H 1473.63 -2.41531 -1.8411 0
M  V30 16176 H 1471.22 -1.22686 -0.852558 0
M  V30 16177 H 1473.1 -1.27947 -4.01507 0
M  V30 16178 H 1471.77 -0.392309 -3.21314 0
M  V30 16179 H 1470.68 -2.64024 -2.65032 0
M  V30 16180 H 1472.01 -3.45977 -3.50087 0
M  V30 16181 N 1473.67 0.933891 -1.2695 0
M  V30 16182 C 1474.9 1.71263 -1.15553 0
M  V30 16183 C 1475.3 1.86948 0.291059 0
M  V30 16184 O 1474.65 1.38173 1.21053 0
M  V30 16185 C 1474.71 3.13479 -1.75986 0
M  V30 16186 C 1474.37 3.21154 -3.2513 0
M  V30 16187 C 1475.37 3.03874 -4.21849 0
M  V30 16188 C 1473.05 3.44311 -3.65726 0
M  V30 16189 C 1475.05 3.09631 -5.57142 0
M  V30 16190 C 1472.74 3.49702 -5.01151 0
M  V30 16191 C 1473.73 3.32379 -5.96668 0
M  V30 16192 O 1473.42 3.37493 -7.29626 0
M  V30 16193 H 1473.15 0.542801 -0.402918 0
M  V30 16194 H 1475.71 1.17877 -1.68209 0
M  V30 16195 H 1473.94 3.6832 -1.178 0
M  V30 16196 H 1475.63 3.73295 -1.59391 0
M  V30 16197 H 1476.39 2.85832 -3.91823 0
M  V30 16198 H 1472.27 3.56847 -2.91859 0
M  V30 16199 H 1475.82 2.96028 -6.31675 0
M  V30 16200 H 1471.71 3.67267 -5.30835 0
M  V30 16201 H 1472.48 3.53988 -7.37994 0
M  V30 16202 N 1475.14 1.08871 1.13951 0
M  V30 16203 C 1476.39 0.816198 1.84448 0
M  V30 16204 C 1476.71 -0.660396 1.84114 0
M  V30 16205 O 1477.91 -1.04825 2.50448 0
M  V30 16206 C 1476.37 1.41015 3.31123 0
M  V30 16207 C 1475.98 2.91888 3.39861 0
M  V30 16208 C 1477.72 1.21633 4.06701 0
M  V30 16209 C 1475.63 3.44397 4.80775 0
M  V30 16210 H 1474.56 0.301662 0.691025 0
M  V30 16211 H 1477.21 1.31072 1.28423 0
M  V30 16212 H 1475.59 0.843333 3.86916 0
M  V30 16213 H 1476.76 3.54747 2.94094 0
M  V30 16214 H 1475.08 3.10238 2.77743 0
M  V30 16215 H 1477.68 1.58324 5.10723 0
M  V30 16216 H 1478.02 0.156519 4.16006 0
M  V30 16217 H 1478.55 1.75035 3.57222 0
M  V30 16218 H 1475.29 4.49973 4.7666 0
M  V30 16219 H 1474.81 2.86299 5.27061 0
M  V30 16220 H 1476.49 3.41266 5.49679 0
M  V30 16221 N 1476.62 -1.31073 0.875073 0
M  V30 16222 C 1477.57 -2.30335 0.3238 0
M  V30 16223 C 1478.56 -1.5974 -0.563869 0
M  V30 16224 O 1479.77 -1.743 -0.449402 0
M  V30 16225 H 1476.14 -0.747062 0.0860376 0
M  V30 16226 H 1478.12 -2.743 1.17483 0
M  V30 16227 C 1476.86 -3.44705 -0.455348 0
M  V30 16228 H 1476.19 -3.99203 0.218433 0
M  V30 16229 H 1477.63 -4.16262 -0.806329 0
M  V30 16230 C 1476.09 -2.93807 -1.6486 0
M  V30 16231 O 1476.62 -2.93004 -2.74794 0
M  V30 16232 N 1474.82 -2.49944 -1.48244 0
M  V30 16233 H 1474.37 -2.50797 -0.588116 0
M  V30 16234 H 1474.33 -2.16245 -2.28222 0
M  V30 16235 N 1478.1 -0.635022 -1.4424 0
M  V30 16236 C 1479.52 -0.300978 -1.56736 0
M  V30 16237 C 1479.72 1.19571 -1.62188 0
M  V30 16238 O 1478.77 1.97991 -1.56703 0
M  V30 16239 C 1480.09 -0.996327 -2.83714 0
M  V30 16240 C 1481.63 -0.97484 -2.97432 0
M  V30 16241 C 1482.11 -1.65073 -4.27218 0
M  V30 16242 N 1483.6 -1.6175 -4.3404 0
M  V30 16243 C 1484.33 -2.10938 -5.33191 0
M  V30 16244 N 1483.83 -2.68333 -6.38725 0
M  V30 16245 N 1485.62 -2.01544 -5.24725 0
M  V30 16246 H 1477.77 -1.60649 -1.38945 0
M  V30 16247 H 1480.04 -0.674561 -0.666087 0
M  V30 16248 H 1479.74 -2.05128 -2.85684 0
M  V30 16249 H 1479.62 -0.536511 -3.73365 0
M  V30 16250 H 1482 0.071646 -2.95013 0
M  V30 16251 H 1482.09 -1.47318 -2.0912 0
M  V30 16252 H 1481.73 -2.69669 -4.30397 0
M  V30 16253 H 1481.66 -1.12719 -5.14395 0
M  V30 16254 H 1484.15 -1.1985 -3.58392 0
M  V30 16255 H 1484.46 -3.03588 -7.10672 0
M  V30 16256 H 1482.81 -2.72385 -6.39399 0
M  V30 16257 H 1486 -1.56423 -4.41191 0
M  V30 16258 H 1486.17 -2.40187 -6.01842 0
M  V30 16259 N 1479.58 1.53054 -0.375806 0
M  V30 16260 C 1480.82 2.02379 0.203516 0
M  V30 16261 C 1481.18 1.25788 1.45586 0
M  V30 16262 O 1480.47 0.345983 1.8845 0
M  V30 16263 C 1480.67 3.53321 0.538419 0
M  V30 16264 C 1480.5 4.4453 -0.679917 0
M  V30 16265 C 1479.27 4.90964 -1.1951 0
M  V30 16266 C 1481.46 4.90444 -1.54821 0
M  V30 16267 N 1479.45 5.66207 -2.37239 0
M  V30 16268 C 1480.82 5.64132 -2.57206 0
M  V30 16269 C 1482.87 4.72503 -1.56989 0
M  V30 16270 C 1481.57 6.21786 -3.61627 0
M  V30 16271 C 1483.6 5.3103 -2.6031 0
M  V30 16272 C 1482.96 6.04613 -3.61417 0
M  V30 16273 H 1479.06 0.781128 0.0369159 0
M  V30 16274 H 1481.65 1.87554 -0.522657 0
M  V30 16275 H 1479.82 3.68287 1.23366 0
M  V30 16276 H 1481.55 3.89359 1.10372 0
M  V30 16277 H 1478.3 4.67492 -0.758156 0
M  V30 16278 H 1478.73 6.08487 -2.96771 0
M  V30 16279 H 1483.37 4.15129 -0.801715 0
M  V30 16280 H 1481.09 6.7825 -4.39321 0
M  V30 16281 H 1484.67 5.19037 -2.62854 0
M  V30 16282 H 1483.55 6.49093 -4.40054 0
M  V30 16283 N 1481.06 0.105248 1.57248 0
M  V30 16284 C 1482.3 -0.556054 1.94716 0
M  V30 16285 C 1482.63 -1.67557 0.987669 0
M  V30 16286 O 1481.89 -1.95698 0.00905706 0
M  V30 16287 C 1482.19 -1.14178 3.38671 0
M  V30 16288 C 1481.85 -0.145022 4.50667 0
M  V30 16289 C 1480.51 0.129099 4.81027 0
M  V30 16290 C 1482.87 0.535015 5.18447 0
M  V30 16291 C 1480.19 1.08978 5.7649 0
M  V30 16292 C 1482.55 1.48423 6.14942 0
M  V30 16293 C 1481.21 1.76648 6.43702 0
M  V30 16294 H 1480.48 -0.203475 0.712516 0
M  V30 16295 H 1483.13 0.183237 1.90621 0
M  V30 16296 H 1481.43 -1.95754 3.39393 0
M  V30 16297 H 1483.13 -1.66132 3.64967 0
M  V30 16298 H 1479.72 -0.36886 4.2701 0
M  V30 16299 H 1483.9 0.336391 4.95159 0
M  V30 16300 H 1479.16 1.31535 5.97083 0
M  V30 16301 H 1483.33 2.01693 6.66553 0
M  V30 16302 H 1480.96 2.51245 7.17482 0
M  V30 16303 N 1482.53 -1.56697 -0.168486 0
M  V30 16304 C 1483.78 -1.82154 -0.884654 0
M  V30 16305 C 1484.11 -0.682778 -1.82122 0
M  V30 16306 O 1483.36 0.32977 -1.92902 0
M  V30 16307 C 1483.66 -3.138 -1.71068 0
M  V30 16308 C 1483.33 -4.41356 -0.922793 0
M  V30 16309 C 1481.99 -4.76002 -0.705352 0
M  V30 16310 C 1484.34 -5.19883 -0.370323 0
M  V30 16311 C 1481.67 -5.86651 0.0756121 0
M  V30 16312 C 1484.02 -6.31349 0.397568 0
M  V30 16313 C 1482.69 -6.6456 0.625782 0
M  V30 16314 H 1481.96 -0.666549 -0.323718 0
M  V30 16315 H 1484.6 -1.90916 -0.149432 0
M  V30 16316 H 1482.91 -3.00393 -2.51538 0
M  V30 16317 H 1484.61 -3.30708 -2.2679 0
M  V30 16318 H 1481.2 -4.14182 -1.10231 0
M  V30 16319 H 1485.38 -4.93509 -0.525646 0
M  V30 16320 H 1480.64 -6.10838 0.262137 0
M  V30 16321 H 1484.81 -6.91401 0.832902 0
M  V30 16322 H 1482.44 -7.50137 1.23281 0
M  V30 16323 N 1484.01 0.437135 -1.51416 0
M  V30 16324 C 1485.26 1.18831 -1.64338 0
M  V30 16325 C 1485.59 1.9086 -0.358638 0
M  V30 16326 O 1484.87 1.83607 0.641769 0
M  V30 16327 C 1485.15 2.20515 -2.84685 0
M  V30 16328 C 1485 1.52568 -4.23135 0
M  V30 16329 C 1486.32 3.21494 -3.00549 0
M  V30 16330 H 1483.44 0.430652 -0.598087 0
M  V30 16331 H 1486.08 0.47753 -1.83901 0
M  V30 16332 H 1484.23 2.81132 -2.68136 0
M  V30 16333 H 1485.9 0.952851 -4.51352 0
M  V30 16334 H 1484.15 0.828025 -4.25824 0
M  V30 16335 H 1484.82 2.26623 -5.03335 0
M  V30 16336 H 1487.29 2.7093 -3.1581 0
M  V30 16337 H 1486.17 3.89934 -3.86319 0
M  V30 16338 H 1486.43 3.8761 -2.12629 0
M  V30 16339 N 1485.49 1.41566 0.692592 0
M  V30 16340 C 1486.72 1.44445 1.48132 0
M  V30 16341 C 1487.13 0.0505867 1.88732 0
M  V30 16342 O 1486.49 -0.930779 1.5698 0
M  V30 16343 C 1486.54 2.35582 2.74196 0
M  V30 16344 O 1486.26 3.69545 2.35305 0
M  V30 16345 C 1487.76 2.47296 3.67912 0
M  V30 16346 H 1484.98 0.491877 0.456396 0
M  V30 16347 H 1487.53 1.85884 0.852499 0
M  V30 16348 H 1485.68 1.97445 3.33308 0
M  V30 16349 H 1486.1 4.1818 3.16584 0
M  V30 16350 H 1487.57 3.15225 4.53141 0
M  V30 16351 H 1488.05 1.50517 4.12603 0
M  V30 16352 H 1488.65 2.86082 3.14702 0
M  V30 16353 N 1486.97 -0.927146 1.27443 0
M  V30 16354 C 1488.22 -1.66941 1.13197 0
M  V30 16355 C 1488.53 -1.92939 -0.32156 0
M  V30 16356 O 1489.74 -2.65124 -0.584931 0
M  V30 16357 C 1488.19 -3.00677 1.97791 0
M  V30 16358 C 1487.8 -2.82376 3.47805 0
M  V30 16359 C 1489.54 -3.78499 1.92195 0
M  V30 16360 C 1487.45 -4.1167 4.24596 0
M  V30 16361 H 1486.38 -0.626171 0.420031 0
M  V30 16362 H 1489.03 -1.02997 1.51868 0
M  V30 16363 H 1487.41 -3.65681 1.51965 0
M  V30 16364 H 1488.59 -2.26135 4.01497 0
M  V30 16365 H 1486.9 -2.17982 3.54786 0
M  V30 16366 H 1489.5 -4.74312 2.46844 0
M  V30 16367 H 1489.84 -4.0655 0.895702 0
M  V30 16368 H 1490.38 -3.20292 2.35919 0
M  V30 16369 H 1487.12 -3.88798 5.27747 0
M  V30 16370 H 1486.64 -4.67573 3.75681 0
M  V30 16371 H 1488.31 -4.80028 4.338 0
M  V30 16372 N 1488.45 -1.09474 -1.13372 0
M  V30 16373 C 1489.67 -0.852921 -1.88502 0
M  V30 16374 C 1490.09 0.595855 -1.79151 0
M  V30 16375 O 1489.45 1.41019 -1.15845 0
M  V30 16376 C 1489.5 -1.27993 -3.38083 0
M  V30 16377 O 1489.22 -2.67189 -3.47191 0
M  V30 16378 C 1490.72 -1.07056 -4.30179 0
M  V30 16379 H 1487.94 -0.30682 -0.596743 0
M  V30 16380 H 1490.48 -1.45685 -1.43513 0
M  V30 16381 H 1488.64 -0.719879 -3.80653 0
M  V30 16382 H 1489.05 -2.85202 -4.40182 0
M  V30 16383 H 1490.53 -1.4186 -5.3346 0
M  V30 16384 H 1491 -0.00838732 -4.39199 0
M  V30 16385 H 1491.61 -1.61659 -3.93378 0
M  V30 16386 N 1489.92 1.30607 -0.882012 0
M  V30 16387 C 1490.87 2.3016 -0.336011 0
M  V30 16388 C 1491.87 1.60037 0.555389 0
M  V30 16389 O 1493.07 1.74536 0.440152 0
M  V30 16390 H 1489.45 0.746595 -0.0899982 0
M  V30 16391 H 1491.42 2.73673 -1.18936 0
M  V30 16392 C 1490.17 3.44942 0.437061 0
M  V30 16393 H 1489.49 3.99081 -0.2396 0
M  V30 16394 H 1490.93 4.16684 0.784242 0
M  V30 16395 C 1489.39 2.94678 1.633 0
M  V30 16396 O 1489.92 2.94457 2.73236 0
M  V30 16397 N 1488.13 2.50727 1.46917 0
M  V30 16398 H 1487.67 2.51105 0.574807 0
M  V30 16399 H 1487.63 2.17453 2.27072 0
M  V30 16400 N 1491.4 0.642663 1.43901 0
M  V30 16401 C 1492.35 -0.0673926 2.32502 0
M  V30 16402 C 1493.34 -0.823981 1.4801 0
M  V30 16403 O 1494.55 -0.735575 1.64284 0
M  V30 16404 H 1490.93 -0.0405715 0.750905 0
M  V30 16405 H 1492.9 0.69777 2.90127 0
M  V30 16406 C 1491.65 -1.02745 3.32173 0
M  V30 16407 H 1490.97 -0.454697 3.97206 0
M  V30 16408 H 1492.41 -1.49355 3.96824 0
M  V30 16409 C 1490.87 -2.11835 2.61969 0
M  V30 16410 O 1491.4 -3.20074 2.42725 0
M  V30 16411 N 1489.6 -1.88092 2.21517 0
M  V30 16412 H 1489.15 -1.00072 2.37368 0
M  V30 16413 H 1489.11 -2.61279 1.74873 0
M  V30 16414 N 1492.88 -1.52852 0.383918 0
M  V30 16415 C 1493.81 -2.29213 -0.44539 0
M  V30 16416 C 1494.79 -1.3238 -1.06815 0
M  V30 16417 O 1495.98 -1.61269 -1.08194 0
M  V30 16418 C 1493.11 -3.09497 -1.57573 0
M  V30 16419 C 1492.06 -4.14168 -1.07928 0
M  V30 16420 C 1491.39 -4.82644 -2.30128 0
M  V30 16421 C 1492.69 -5.22082 -0.151035 0
M  V30 16422 H 1494.38 -2.98786 0.19172 0
M  V30 16423 H 1491.93 -1.43695 0.0936471 0
M  V30 16424 H 1493.88 -3.61672 -2.16267 0
M  V30 16425 H 1492.6 -2.37647 -2.24034 0
M  V30 16426 H 1491.26 -3.62966 -0.514909 0
M  V30 16427 H 1490.91 -4.07348 -2.95087 0
M  V30 16428 H 1490.61 -5.53388 -1.97574 0
M  V30 16429 H 1492.14 -5.37621 -2.89475 0
M  V30 16430 H 1493.55 -5.69649 -0.646003 0
M  V30 16431 H 1491.95 -6.00041 0.0844833 0
M  V30 16432 H 1493.02 -4.78228 0.801618 0
M  V30 16433 N 1494.36 -0.113586 -1.5719 0
M  V30 16434 C 1495.31 0.855985 -2.16277 0
M  V30 16435 C 1496.3 1.2792 -1.11053 0
M  V30 16436 O 1497.51 1.25158 -1.29366 0
M  V30 16437 H 1493.88 0.294134 -0.692091 0
M  V30 16438 H 1495.85 0.333109 -2.96535 0
M  V30 16439 C 1494.6 2.09832 -2.77247 0
M  V30 16440 H 1493.93 1.78158 -3.5791 0
M  V30 16441 H 1495.37 2.7569 -3.22135 0
M  V30 16442 C 1493.82 2.88453 -1.74059 0
M  V30 16443 O 1494.35 3.83648 -1.19068 0
M  V30 16444 N 1492.56 2.52342 -1.44124 0
M  V30 16445 H 1492.11 1.74998 -1.89033 0
M  V30 16446 H 1492.07 3.05244 -0.753234 0
M  V30 16447 N 1495.84 1.56784 0.160173 0
M  V30 16448 C 1496.79 1.98199 1.21737 0
M  V30 16449 C 1497.78 0.872381 1.4521 0
M  V30 16450 O 1498.99 1.05753 1.45658 0
M  V30 16451 H 1495.36 0.630742 0.409474 0
M  V30 16452 H 1497.33 2.86295 0.841289 0
M  V30 16453 C 1496.08 2.36748 2.54648 0
M  V30 16454 H 1495.4 3.21676 2.37413 0
M  V30 16455 H 1496.84 2.69561 3.27281 0
M  V30 16456 C 1495.3 1.2151 3.14224 0
M  V30 16457 O 1495.83 0.508739 3.98465 0
M  V30 16458 N 1494.04 0.982766 2.73478 0
M  V30 16459 H 1493.59 1.55893 2.05073 0
M  V30 16460 H 1493.54 0.213589 3.13674 0
M  V30 16461 N 1497.32 -0.429099 1.51646 0
M  V30 16462 C 1498.28 -1.50398 1.72954 0
M  V30 16463 C 1499.28 -1.49207 0.599491 0
M  V30 16464 O 1500.47 -1.51084 0.867143 0
M  V30 16465 C 1497.6 -2.89903 1.79358 0
M  V30 16466 H 1498.79 -1.32805 2.68892 0
M  V30 16467 H 1496.35 -0.658313 1.4176 0
M  V30 16468 H 1497.08 -3.12891 0.852639 0
M  V30 16469 H 1496.87 -2.92171 2.61492 0
M  V30 16470 H 1498.36 -3.67862 1.97654 0
M  V30 16471 N 1498.79 -1.41931 -0.685074 0
M  V30 16472 C 1499.74 -1.44604 -1.79884 0
M  V30 16473 C 1500.71 -0.299166 -1.63384 0
M  V30 16474 O 1501.9 -0.501749 -1.84085 0
M  V30 16475 C 1499.04 -1.3442 -3.17845 0
M  V30 16476 C 1498.15 -2.59061 -3.45704 0
M  V30 16477 C 1497.28 -2.41094 -4.73336 0
M  V30 16478 C 1496.32 -3.61159 -4.94197 0
M  V30 16479 N 1495.46 -3.42198 -6.13062 0
M  V30 16480 H 1500.3 -2.39788 -1.76934 0
M  V30 16481 H 1497.84 -1.1906 -0.863891 0
M  V30 16482 H 1499.79 -1.26515 -3.97555 0
M  V30 16483 H 1498.42 -0.42838 -3.19945 0
M  V30 16484 H 1497.48 -2.77374 -2.60322 0
M  V30 16485 H 1498.79 -3.48341 -3.57016 0
M  V30 16486 H 1497.94 -2.30717 -5.61119 0
M  V30 16487 H 1496.68 -1.49288 -4.64289 0
M  V30 16488 H 1495.69 -3.7198 -4.04859 0
M  V30 16489 H 1496.91 -4.53933 -5.05096 0
M  V30 16490 H 1494.86 -2.531 -6.05208 0
M  V30 16491 H 1494.77 -4.25059 -6.25189 0
M  V30 16492 H 1496.04 -3.35612 -7.03551 0
M  V30 16493 N 1500.27 0.920374 -1.27933 0
M  V30 16494 C 1501.52 1.66338 -1.14081 0
M  V30 16495 C 1501.83 1.93107 0.311324 0
M  V30 16496 O 1503.04 2.65431 0.570862 0
M  V30 16497 C 1501.5 2.99624 -1.99383 0
M  V30 16498 C 1501.1 2.80527 -3.49297 0
M  V30 16499 C 1502.85 3.77474 -1.94199 0
M  V30 16500 C 1500.75 4.09413 -4.26773 0
M  V30 16501 H 1499.68 0.623935 -0.423346 0
M  V30 16502 H 1502.34 1.0219 -1.52412 0
M  V30 16503 H 1500.72 3.6487 -1.53902 0
M  V30 16504 H 1501.89 2.24002 -4.02691 0
M  V30 16505 H 1500.21 2.16097 -3.55937 0
M  V30 16506 H 1502.8 4.72997 -2.49356 0
M  V30 16507 H 1503.15 4.06069 -0.917249 0
M  V30 16508 H 1503.68 3.19036 -2.37614 0
M  V30 16509 H 1500.42 3.85994 -5.29801 0
M  V30 16510 H 1499.94 4.65574 -3.78155 0
M  V30 16511 H 1501.62 4.77721 -4.36339 0
M  V30 16512 N 1501.75 1.10074 1.1279 0
M  V30 16513 C 1502.98 0.861655 1.87774 0
M  V30 16514 C 1503.39 -0.591184 1.79727 0
M  V30 16515 O 1502.73 -1.4191 1.1665 0
M  V30 16516 C 1502.79 1.22668 3.37924 0
M  V30 16517 C 1502.46 2.68579 3.69749 0
M  V30 16518 C 1503.45 3.66821 3.68427 0
M  V30 16519 C 1501.14 3.04869 3.99199 0
M  V30 16520 C 1503.13 4.99377 3.96108 0
M  V30 16521 C 1500.82 4.37615 4.2654 0
M  V30 16522 C 1501.82 5.34678 4.24981 0
M  V30 16523 O 1501.51 6.65034 4.51647 0
M  V30 16524 H 1501.24 0.309289 0.601096 0
M  V30 16525 H 1503.79 1.46802 1.43661 0
M  V30 16526 H 1502.02 0.563393 3.82574 0
M  V30 16527 H 1503.71 0.965675 3.94246 0
M  V30 16528 H 1504.48 3.40128 3.45742 0
M  V30 16529 H 1500.36 2.29947 3.99557 0
M  V30 16530 H 1503.9 5.7513 3.94806 0
M  V30 16531 H 1499.8 4.64047 4.48698 0
M  V30 16532 H 1500.56 6.70608 4.69283 0
M  V30 16533 N 1503.23 -1.30138 0.888926 0
M  V30 16534 C 1504.48 -1.95265 0.5054 0
M  V30 16535 C 1504.79 -1.70925 -0.950998 0
M  V30 16536 O 1506 -2.30069 -1.44155 0
M  V30 16537 C 1504.45 -3.49647 0.852937 0
M  V30 16538 C 1504.06 -3.82802 2.32737 0
M  V30 16539 C 1505.8 -4.21067 0.538801 0
M  V30 16540 C 1503.71 -5.30379 2.61633 0
M  V30 16541 H 1502.64 -0.730882 0.185278 0
M  V30 16542 H 1505.29 -1.48027 1.08444 0
M  V30 16543 H 1503.67 -3.9548 0.202937 0
M  V30 16544 H 1504.85 -3.47866 3.02202 0
M  V30 16545 H 1503.16 -3.24495 2.60944 0
M  V30 16546 H 1505.76 -5.2967 0.731676 0
M  V30 16547 H 1506.1 -4.13014 -0.522039 0
M  V30 16548 H 1506.64 -3.8093 1.14617 0
M  V30 16549 H 1503.37 -5.43486 3.66473 0
M  V30 16550 H 1502.89 -5.66601 1.96782 0
M  V30 16551 H 1504.57 -5.97856 2.47339 0
M  V30 16552 N 1504.71 -0.650285 -1.43559 0
M  V30 16553 C 1505.65 0.0550615 -2.32535 0
M  V30 16554 C 1506.65 0.81612 -1.48445 0
M  V30 16555 O 1507.85 0.726853 -1.64672 0
M  V30 16556 H 1504.23 0.0365887 -0.751109 0
M  V30 16557 H 1506.2 -0.713146 -2.89753 0
M  V30 16558 C 1504.95 1.00982 -3.32713 0
M  V30 16559 H 1504.27 0.433626 -3.97441 0
M  V30 16560 H 1505.71 1.47249 -3.9761 0
M  V30 16561 C 1504.17 2.10442 -2.63089 0
M  V30 16562 O 1504.7 3.18782 -2.44419 0
M  V30 16563 N 1502.91 1.86915 -2.22511 0
M  V30 16564 H 1502.45 0.988113 -2.37895 0
M  V30 16565 H 1502.41 2.60348 -1.76256 0
M  V30 16566 N 1506.18 1.52647 -0.392018 0
M  V30 16567 C 1507.43 2.01215 0.188926 0
M  V30 16568 C 1507.75 1.28019 1.47092 0
M  V30 16569 O 1507.02 0.401048 1.91751 0
M  V30 16570 H 1505.6 0.743444 0.0728049 0
M  V30 16571 H 1508.26 1.87715 -0.524332 0
M  V30 16572 H 1507.36 3.09562 0.397216 0
M  V30 16573 N 1507.66 0.121921 1.57128 0
M  V30 16574 C 1508.61 -0.827205 2.15467 0
M  V30 16575 C 1509.58 -1.26155 1.08047 0
M  V30 16576 O 1510.76 -1.33855 1.35969 0
M  V30 16577 C 1507.9 -2.07077 2.76067 0
M  V30 16578 C 1507.02 -1.68452 3.97804 0
M  V30 16579 C 1506.15 -2.87797 4.46482 0
M  V30 16580 C 1505.19 -2.45426 5.60743 0
M  V30 16581 N 1504.33 -3.57695 6.04151 0
M  V30 16582 H 1509.17 -0.322879 2.96246 0
M  V30 16583 H 1506.71 -0.147677 1.46357 0
M  V30 16584 H 1508.66 -2.79943 3.09335 0
M  V30 16585 H 1507.29 -2.54963 1.97974 0
M  V30 16586 H 1506.35 -0.854487 3.70679 0
M  V30 16587 H 1507.66 -1.33316 4.80654 0
M  V30 16588 H 1506.81 -3.68885 4.81673 0
M  V30 16589 H 1505.55 -3.26162 3.62587 0
M  V30 16590 H 1504.56 -1.62772 5.25153 0
M  V30 16591 H 1505.78 -2.08175 6.46405 0
M  V30 16592 H 1503.73 -3.95728 5.23197 0
M  V30 16593 H 1503.64 -3.26491 6.81865 0
M  V30 16594 H 1504.91 -4.39213 6.43981 0
M  V30 16595 N 1509.14 -1.56867 -0.151857 0
M  V30 16596 C 1510.07 -2.00932 -1.18949 0
M  V30 16597 C 1511.05 -0.888062 -1.45077 0
M  V30 16598 O 1512.24 -1.15553 -1.56081 0
M  V30 16599 C 1509.37 -2.3858 -2.52383 0
M  V30 16600 C 1508.32 -3.53845 -2.40785 0
M  V30 16601 C 1507.65 -3.77292 -3.78886 0
M  V30 16602 C 1508.95 -4.8667 -1.89605 0
M  V30 16603 H 1510.64 -2.87863 -0.823107 0
M  V30 16604 H 1508.19 -1.38491 -0.394499 0
M  V30 16605 H 1510.14 -2.68006 -3.25193 0
M  V30 16606 H 1508.86 -1.48579 -2.90847 0
M  V30 16607 H 1507.52 -3.24577 -1.70427 0
M  V30 16608 H 1507.17 -2.84551 -4.14777 0
M  V30 16609 H 1506.87 -4.54861 -3.71989 0
M  V30 16610 H 1508.39 -4.09139 -4.53252 0
M  V30 16611 H 1509.81 -5.14846 -2.52204 0
M  V30 16612 H 1508.21 -5.6801 -1.93609 0
M  V30 16613 H 1509.28 -4.77366 -0.851438 0
M  V30 16614 N 1510.62 0.421051 -1.51871 0
M  V30 16615 C 1511.53 1.5371 -1.7723 0
M  V30 16616 C 1512.54 1.61109 -0.657256 0
M  V30 16617 O 1513.72 1.78047 -0.941343 0
M  V30 16618 C 1510.79 2.89555 -1.9068 0
M  V30 16619 C 1509.85 2.9214 -3.14567 0
M  V30 16620 C 1509.08 4.21505 -3.27367 0
M  V30 16621 O 1509.3 5.14764 -2.45712 0
M  V30 16622 O 1508.24 4.30706 -4.20448 0
M  V30 16623 H 1512.06 1.35221 -2.71935 0
M  V30 16624 H 1509.65 0.605712 -1.3657 0
M  V30 16625 H 1511.53 3.70147 -2.01418 0
M  V30 16626 H 1510.2 3.08137 -0.991627 0
M  V30 16627 H 1509.11 2.10444 -3.09296 0
M  V30 16628 H 1510.44 2.78505 -4.05827 0
M  V30 16629 N 1512.1 1.42293 0.677538 0
M  V30 16630 C 1513.32 1.46214 1.47092 0
M  V30 16631 C 1513.75 0.0740989 1.87954 0
M  V30 16632 O 1513.1 -0.926831 1.55819 0
M  V30 16633 C 1513.15 2.39236 2.69812 0
M  V30 16634 O 1512.26 1.86183 3.6798 0
M  V30 16635 H 1511.6 0.495507 0.442006 0
M  V30 16636 H 1514.13 1.86952 0.831274 0
M  V30 16637 H 1514.14 2.55723 3.17915 0
M  V30 16638 H 1512.81 3.40081 2.39411 0
M  V30 16639 H 1511.39 1.79237 3.26999 0
M  V30 16640 N 1513.57 -0.913576 1.28419 0
M  V30 16641 C 1514.52 -2.03739 1.1222 0
M  V30 16642 C 1515.52 -1.69349 0.0414309 0
M  V30 16643 O 1516.72 -1.78883 0.200213 0
M  V30 16644 H 1513.1 -0.667554 0.34623 0
M  V30 16645 H 1515.07 -2.14544 2.07397 0
M  V30 16646 C 1513.82 -3.38348 0.801003 0
M  V30 16647 H 1513.14 -3.65304 1.6246 0
M  V30 16648 H 1514.58 -4.1771 0.727611 0
M  V30 16649 C 1513.04 -3.3324 -0.495261 0
M  V30 16650 O 1513.57 -3.71606 -1.52551 0
M  V30 16651 N 1511.78 -2.86335 -0.496054 0
M  V30 16652 H 1511.32 -2.55309 0.342773 0
M  V30 16653 H 1511.28 -2.833 -1.3634 0
M  V30 16654 N 1515.05 -1.1067 -1.12204 0
M  V30 16655 C 1516.28 -0.872867 -1.87586 0
M  V30 16656 C 1516.7 0.57682 -1.79773 0
M  V30 16657 O 1516.05 1.39782 -1.17334 0
M  V30 16658 C 1516.1 -1.31572 -3.36706 0
M  V30 16659 O 1515.82 -2.70856 -3.44338 0
M  V30 16660 C 1517.33 -1.11613 -4.29019 0
M  V30 16661 H 1514.55 -0.313132 -0.593455 0
M  V30 16662 H 1517.09 -1.47199 -1.4196 0
M  V30 16663 H 1515.24 -0.760212 -3.79868 0
M  V30 16664 H 1515.66 -2.89854 -4.37132 0
M  V30 16665 H 1517.13 -1.4751 -5.31925 0
M  V30 16666 H 1517.61 -0.0549698 -4.39166 0
M  V30 16667 H 1518.22 -1.65822 -3.91642 0
M  V30 16668 N 1516.53 1.29665 -0.895815 0
M  V30 16669 C 1517.81 1.90601 -0.439394 0
M  V30 16670 C 1518.19 1.81341 1.08068 0
M  V30 16671 O 1517.54 1.23761 1.92082 0
M  V30 16672 C 1517.75 3.35832 -0.949622 0
M  V30 16673 C 1519.09 4.12873 -0.991015 0
M  V30 16674 O 1520.12 3.4472 -0.897025 0
M  V30 16675 O 1518.98 5.34656 -1.1316 0
M  V30 16676 H 1516.07 0.81569 -0.136304 0
M  V30 16677 H 1518.62 1.38157 -0.985426 0
M  V30 16678 H 1517.39 3.36708 -1.99357 0
M  V30 16679 H 1517.01 3.95747 -0.383376 0
M  V30 16680 N 1518.01 0.657889 1.43212 0
M  V30 16681 C 1519.26 0.170493 2.00978 0
M  V30 16682 C 1519.57 -1.22439 1.52539 0
M  V30 16683 O 1520.78 -1.80725 2.02609 0
M  V30 16684 C 1519.23 0.253982 3.59003 0
M  V30 16685 C 1518.84 1.65185 4.16435 0
M  V30 16686 C 1520.58 -0.17557 4.24137 0
M  V30 16687 C 1518.49 1.68902 5.66768 0
M  V30 16688 H 1517.42 0.0599767 0.751611 0
M  V30 16689 H 1520.07 0.820606 1.64129 0
M  V30 16690 H 1518.45 -0.463723 3.93275 0
M  V30 16691 H 1519.63 2.39529 3.93653 0
M  V30 16692 H 1517.94 2.02779 3.63689 0
M  V30 16693 H 1520.54 -0.167714 5.34437 0
M  V30 16694 H 1520.88 -1.20784 3.98393 0
M  V30 16695 H 1521.42 0.490544 3.94764 0
M  V30 16696 H 1518.16 2.70055 5.97286 0
M  V30 16697 H 1517.68 0.988906 5.91592 0
M  V30 16698 H 1519.35 1.43485 6.30889 0
M  V30 16699 N 1519.49 -1.52437 0.400108 0
M  V30 16700 C 1520.43 -2.26763 -0.429799 0
M  V30 16701 C 1521.4 -1.28808 -1.0487 0
M  V30 16702 O 1522.59 -1.57655 -1.07468 0
M  V30 16703 C 1519.73 -3.08564 -1.54539 0
M  V30 16704 C 1518.84 -4.21463 -0.948294 0
M  V30 16705 C 1517.98 -4.9064 -2.03584 0
M  V30 16706 C 1517.02 -5.95515 -1.4152 0
M  V30 16707 N 1516.15 -6.58245 -2.4425 0
M  V30 16708 H 1520.99 -2.97256 0.210467 0
M  V30 16709 H 1518.53 -1.46645 0.115627 0
M  V30 16710 H 1520.49 -3.54289 -2.20307 0
M  V30 16711 H 1519.12 -2.40259 -2.15582 0
M  V30 16712 H 1518.17 -3.79974 -0.179918 0
M  V30 16713 H 1519.48 -4.96722 -0.454845 0
M  V30 16714 H 1518.64 -5.39724 -2.77097 0
M  V30 16715 H 1517.37 -4.14929 -2.56291 0
M  V30 16716 H 1516.38 -5.45759 -0.665354 0
M  V30 16717 H 1517.6 -6.73164 -0.89593 0
M  V30 16718 H 1515.55 -5.85369 -2.96107 0
M  V30 16719 H 1515.47 -7.2915 -1.99692 0
M  V30 16720 H 1516.74 -7.1197 -3.17362 0
M  V30 16721 N 1520.96 -0.130252 -1.57061 0
M  V30 16722 C 1522.24 0.569171 -1.87136 0
M  V30 16723 C 1522.62 1.84078 -1.03337 0
M  V30 16724 O 1521.97 2.28208 -0.11543 0
M  V30 16725 C 1522.18 0.850782 -3.38471 0
M  V30 16726 C 1523.53 1.19892 -4.07322 0
M  V30 16727 O 1524.55 0.940682 -3.43554 0
M  V30 16728 O 1523.41 1.6841 -5.19904 0
M  V30 16729 H 1520.5 0.288433 -0.775071 0
M  V30 16730 H 1523.05 -0.165603 -1.6889 0
M  V30 16731 H 1521.82 -0.0498562 -3.91268 0
M  V30 16732 H 1521.45 1.64032 -3.62187 0
M  V30 16733 N 1522.44 1.56945 0.143535 0
M  V30 16734 C 1523.69 1.82728 0.854011 0
M  V30 16735 C 1524.01 0.712048 1.82179 0
M  V30 16736 O 1525.21 0.855579 2.57667 0
M  V30 16737 C 1523.67 3.23882 1.56934 0
M  V30 16738 C 1523.28 4.4335 0.643789 0
M  V30 16739 C 1525.02 3.58936 2.26639 0
M  V30 16740 C 1522.93 5.75528 1.36094 0
M  V30 16741 H 1521.86 0.681474 0.32266 0
M  V30 16742 H 1524.51 1.83189 0.106741 0
M  V30 16743 H 1522.89 3.17819 2.36236 0
M  V30 16744 H 1524.06 4.60658 -0.114257 0
M  V30 16745 H 1522.38 4.16364 0.0549721 0
M  V30 16746 H 1524.98 4.54948 2.80939 0
M  V30 16747 H 1525.32 2.85163 3.03295 0
M  V30 16748 H 1525.85 3.66676 1.54252 0
M  V30 16749 H 1522.59 6.52406 0.636157 0
M  V30 16750 H 1522.11 5.62149 2.09161 0
M  V30 16751 H 1523.79 6.18445 1.9009 0
M  V30 16752 N 1523.92 -0.412991 1.52093 0
M  V30 16753 C 1525.34 -0.751324 1.40809 0
M  V30 16754 C 1525.54 -1.94951 0.509543 0
M  V30 16755 O 1524.59 -2.52486 -0.026132 0
M  V30 16756 C 1525.91 -1.00888 2.8327 0
M  V30 16757 C 1527.45 -1.11183 2.92587 0
M  V30 16758 C 1527.93 -1.40217 4.36008 0
M  V30 16759 N 1529.42 -1.4709 4.39225 0
M  V30 16760 C 1530.16 -1.71174 5.47254 0
M  V30 16761 N 1529.65 -1.92887 6.65407 0
M  V30 16762 N 1531.44 -1.73157 5.34765 0
M  V30 16763 H 1523.6 0.375774 2.0905 0
M  V30 16764 H 1525.86 0.105817 0.942076 0
M  V30 16765 H 1525.56 -0.200872 3.51126 0
M  V30 16766 H 1525.44 -1.93008 3.2408 0
M  V30 16767 H 1527.83 -1.91043 2.24915 0
M  V30 16768 H 1527.91 -0.169078 2.55241 0
M  V30 16769 H 1527.55 -0.608754 5.04239 0
M  V30 16770 H 1527.48 -2.35737 4.70888 0
M  V30 16771 H 1529.97 -1.32114 3.54054 0
M  V30 16772 H 1530.28 -2.10704 7.43521 0
M  V30 16773 H 1528.63 -1.9016 6.68479 0
M  V30 16774 H 1531.82 -1.55728 4.41437 0
M  V30 16775 H 1531.99 -1.91587 6.1903 0
M  V30 16776 N 1525.4 -1.4265 -0.669982 0
M  V30 16777 C 1526.31 -1.48916 -1.81276 0
M  V30 16778 C 1527.33 -0.377523 -1.69855 0
M  V30 16779 O 1528.5 -0.629151 -1.91321 0
M  V30 16780 C 1525.57 -1.39376 -3.17451 0
M  V30 16781 C 1524.63 -2.61072 -3.40793 0
M  V30 16782 C 1523.86 -2.51976 -4.70472 0
M  V30 16783 O 1524.08 -1.55827 -5.48702 0
M  V30 16784 O 1523.02 -3.42193 -4.95164 0
M  V30 16785 H 1526.84 -2.45382 -1.78945 0
M  V30 16786 H 1524.43 -1.24467 -0.826342 0
M  V30 16787 H 1526.31 -1.36435 -3.98702 0
M  V30 16788 H 1524.99 -0.460376 -3.20409 0
M  V30 16789 H 1523.89 -2.69587 -2.59372 0
M  V30 16790 H 1525.23 -3.53325 -3.42669 0
M  V30 16791 N 1526.88 0.906753 -1.28902 0
M  V30 16792 C 1528.12 1.65903 -1.16636 0
M  V30 16793 C 1528.46 1.92127 0.282981 0
M  V30 16794 O 1527.73 1.52666 1.20513 0
M  V30 16795 C 1528.01 3.01257 -1.97272 0
M  V30 16796 C 1527.87 2.82143 -3.50308 0
M  V30 16797 C 1529.19 4.01893 -1.7936 0
M  V30 16798 H 1526.31 0.602063 -0.425076 0
M  V30 16799 H 1528.95 1.05081 -1.58297 0
M  V30 16800 H 1527.1 3.53172 -1.61871 0
M  V30 16801 H 1528.77 2.37184 -3.95653 0
M  V30 16802 H 1527.01 2.17063 -3.75588 0
M  V30 16803 H 1527.68 3.78293 -4.01993 0
M  V30 16804 H 1530.16 3.59064 -2.10267 0
M  V30 16805 H 1529.04 4.9455 -2.38141 0
M  V30 16806 H 1529.3 4.35745 -0.746923 0
M  V30 16807 N 1528.36 1.11264 1.11616 0
M  V30 16808 C 1529.6 0.855139 1.82675 0
M  V30 16809 C 1529.92 -0.621194 1.85474 0
M  V30 16810 O 1531.12 -0.994886 2.52615 0
M  V30 16811 C 1529.58 1.48007 3.28058 0
M  V30 16812 C 1529.19 2.99031 3.33593 0
M  V30 16813 C 1530.93 1.30233 4.04029 0
M  V30 16814 C 1528.84 3.54517 4.73362 0
M  V30 16815 H 1527.77 0.316252 0.684471 0
M  V30 16816 H 1530.42 1.33766 1.25614 0
M  V30 16817 H 1528.8 0.925214 3.8504 0
M  V30 16818 H 1529.98 3.60905 2.86503 0
M  V30 16819 H 1528.29 3.16059 2.711 0
M  V30 16820 H 1530.89 1.69122 5.07249 0
M  V30 16821 H 1531.23 0.244724 4.1558 0
M  V30 16822 H 1531.76 1.82573 3.53429 0
M  V30 16823 H 1528.5 4.59982 4.67008 0
M  V30 16824 H 1528.02 2.97414 5.20869 0
M  V30 16825 H 1529.7 3.52848 5.42316 0
M  V30 16826 N 1529.83 -1.29188 0.902679 0
M  V30 16827 C 1530.8 -2.25901 0.387485 0
M  V30 16828 C 1531.8 -1.53469 -0.479993 0
M  V30 16829 O 1532.99 -1.71859 -0.284623 0
M  V30 16830 C 1530.12 -3.37974 -0.445723 0
M  V30 16831 H 1531.31 -2.72988 1.24167 0
M  V30 16832 H 1528.86 -1.4068 0.681083 0
M  V30 16833 H 1529.6 -2.9623 -1.31977 0
M  V30 16834 H 1529.38 -3.91705 0.175899 0
M  V30 16835 H 1530.87 -4.09917 -0.797384 0
M  V30 16836 N 1531.31 -0.665475 -1.42861 0
M  V30 16837 C 1532.26 0.030395 -2.3258 0
M  V30 16838 C 1533.25 0.800329 -1.49302 0
M  V30 16839 O 1534.46 0.709346 -1.65434 0
M  V30 16840 H 1530.83 0.0286201 -0.751455 0
M  V30 16841 H 1532.81 -0.743838 -2.8898 0
M  V30 16842 C 1531.55 0.974474 -3.33765 0
M  V30 16843 H 1530.88 0.391447 -3.97879 0
M  V30 16844 H 1532.32 1.43023 -3.99149 0
M  V30 16845 C 1530.78 2.0764 -2.65306 0
M  V30 16846 O 1531.31 3.16172 -2.47787 0
M  V30 16847 N 1529.51 1.84544 -2.24481 0
M  V30 16848 H 1529.06 0.962826 -2.3893 0
M  V30 16849 H 1529.02 2.58464 -1.79007 0
M  V30 16850 N 1532.79 1.52222 -0.408187 0
M  V30 16851 C 1534.04 2.01404 0.167574 0
M  V30 16852 C 1534.36 1.29572 1.45726 0
M  V30 16853 O 1533.63 0.421363 1.91315 0
M  V30 16854 H 1532.21 0.744174 0.0649156 0
M  V30 16855 H 1534.87 1.87148 -0.544212 0
M  V30 16856 H 1533.97 3.09966 0.36436 0
M  V30 16857 N 1534.27 0.138579 1.5699 0
M  V30 16858 C 1535.18 -0.817548 2.19894 0
M  V30 16859 C 1536.19 -1.27806 1.18075 0
M  V30 16860 O 1537.37 -1.33699 1.5062 0
M  V30 16861 C 1534.43 -2.04244 2.80152 0
M  V30 16862 C 1533.5 -1.63197 3.97071 0
M  V30 16863 C 1532.73 -2.79847 4.54446 0
M  V30 16864 O 1532.95 -3.95827 4.10703 0
M  V30 16865 O 1531.89 -2.55804 5.44838 0
M  V30 16866 H 1535.71 -0.312123 3.02092 0
M  V30 16867 H 1533.3 -0.0880281 1.4914 0
M  V30 16868 H 1535.18 -2.75945 3.18485 0
M  V30 16869 H 1533.85 -2.53755 2.00973 0
M  V30 16870 H 1532.76 -0.885448 3.6347 0
M  V30 16871 H 1534.09 -1.1841 4.77745 0
M  V30 16872 N 1535.75 -1.57019 -0.13521 0
M  V30 16873 C 1536.99 -1.83178 -0.844308 0
M  V30 16874 C 1537.31 -0.7217 -1.81799 0
M  V30 16875 O 1538.51 -0.869232 -2.57209 0
M  V30 16876 C 1536.97 -3.2471 -1.55214 0
M  V30 16877 C 1536.58 -4.43685 -0.620268 0
M  V30 16878 C 1538.32 -3.60133 -2.24732 0
M  V30 16879 C 1536.23 -5.76242 -1.3304 0
M  V30 16880 H 1535.16 -0.683175 -0.319041 0
M  V30 16881 H 1537.81 -1.83243 -0.0970242 0
M  V30 16882 H 1536.19 -3.19067 -2.34547 0
M  V30 16883 H 1537.37 -4.60591 0.138685 0
M  V30 16884 H 1535.68 -4.16387 -0.0328906 0
M  V30 16885 H 1538.28 -4.56431 -2.78522 0
M  V30 16886 H 1538.62 -2.86767 -3.01779 0
M  V30 16887 H 1539.15 -3.67489 -1.52305 0
M  V30 16888 H 1535.89 -6.52734 -0.60155 0
M  V30 16889 H 1535.41 -5.63251 -2.06176 0
M  V30 16890 H 1537.09 -6.19445 -1.86808 0
M  V30 16891 N 1537.22 0.404919 -1.52309 0
M  V30 16892 C 1538.47 1.14859 -1.65802 0
M  V30 16893 C 1538.79 1.91546 -0.396174 0
M  V30 16894 O 1539.99 2.68372 -0.410969 0
M  V30 16895 C 1538.45 2.09068 -2.92948 0
M  V30 16896 C 1538.06 1.37878 -4.26255 0
M  V30 16897 C 1539.8 2.83669 -3.15804 0
M  V30 16898 C 1537.71 2.30761 -5.44521 0
M  V30 16899 H 1536.64 0.432463 -0.61765 0
M  V30 16900 H 1539.29 0.412695 -1.78799 0
M  V30 16901 H 1537.67 2.86228 -2.7366 0
M  V30 16902 H 1538.84 0.660543 -4.56041 0
M  V30 16903 H 1537.16 0.753026 -4.09534 0
M  V30 16904 H 1539.76 3.53313 -4.0134 0
M  V30 16905 H 1540.1 3.46855 -2.30212 0
M  V30 16906 H 1540.63 2.13607 -3.35584 0
M  V30 16907 H 1537.37 1.72214 -6.32473 0
M  V30 16908 H 1536.89 3.00546 -5.19069 0
M  V30 16909 H 1538.57 2.91195 -5.77767 0
M  V30 16910 N 1538.7 1.43003 0.662408 0
M  V30 16911 C 1539.95 1.44133 1.42239 0
M  V30 16912 C 1540.28 0.062249 1.944 0
M  V30 16913 O 1539.53 -0.931341 1.72118 0
M  V30 16914 C 1539.83 2.4231 2.62718 0
M  V30 16915 C 1539.5 3.88403 2.29028 0
M  V30 16916 C 1538.16 4.28194 2.19552 0
M  V30 16917 C 1540.51 4.80505 2.01902 0
M  V30 16918 C 1537.84 5.58052 1.81092 0
M  V30 16919 C 1540.19 6.10718 1.64943 0
M  V30 16920 C 1538.86 6.49496 1.53985 0
M  V30 16921 H 1538.13 0.527419 0.52049 0
M  V30 16922 H 1540.77 1.76024 0.75417 0
M  V30 16923 H 1539.08 2.03789 3.3463 0
M  V30 16924 H 1540.77 2.40442 3.20918 0
M  V30 16925 H 1537.36 3.56906 2.37311 0
M  V30 16926 H 1541.55 4.50542 2.08149 0
M  V30 16927 H 1536.8 5.86945 1.71187 0
M  V30 16928 H 1540.98 6.81564 1.42982 0
M  V30 16929 H 1538.61 7.50026 1.23954 0
M  V30 16930 N 1540.18 -0.899904 1.29381 0
M  V30 16931 C 1541.13 -2.004 1.14493 0
M  V30 16932 C 1542.1 -1.66056 0.0383099 0
M  V30 16933 O 1543.28 -1.89687 0.20579 0
M  V30 16934 C 1540.42 -3.35039 0.827237 0
M  V30 16935 C 1539.54 -3.82166 2.01427 0
M  V30 16936 C 1538.67 -5.0538 1.63598 0
M  V30 16937 C 1537.71 -5.44876 2.78884 0
M  V30 16938 N 1536.85 -6.59276 2.41452 0
M  V30 16939 H 1541.69 -2.12466 2.08955 0
M  V30 16940 H 1539.22 -1.0405 1.03981 0
M  V30 16941 H 1541.18 -4.12511 0.62373 0
M  V30 16942 H 1539.81 -3.227 -0.0804772 0
M  V30 16943 H 1538.86 -3.00731 2.32949 0
M  V30 16944 H 1540.18 -4.07387 2.87814 0
M  V30 16945 H 1539.33 -5.90436 1.39534 0
M  V30 16946 H 1538.07 -4.81998 0.743593 0
M  V30 16947 H 1537.07 -4.58355 3.0363 0
M  V30 16948 H 1538.3 -5.7024 3.68786 0
M  V30 16949 H 1536.24 -6.37498 1.54701 0
M  V30 16950 H 1536.16 -6.84293 3.21372 0
M  V30 16951 H 1537.43 -7.47602 2.20708 0
M  V30 16952 N 1541.66 -1.11854 -1.11024 0
M  V30 16953 C 1542.59 -0.803129 -2.19253 0
M  V30 16954 C 1543.57 0.230417 -1.68532 0
M  V30 16955 O 1544.75 0.0929421 -1.93977 0
M  V30 16956 C 1541.88 -0.250265 -3.46397 0
M  V30 16957 C 1540.84 -1.21617 -4.10357 0
M  V30 16958 C 1540.16 -0.523821 -5.32128 0
M  V30 16959 C 1541.46 -2.56852 -4.54779 0
M  V30 16960 H 1543.16 -1.7081 -2.45895 0
M  V30 16961 H 1540.7 -0.822712 -1.18184 0
M  V30 16962 H 1542.66 -0.0173732 -4.21396 0
M  V30 16963 H 1541.38 0.690018 -3.19228 0
M  V30 16964 H 1540.04 -1.43477 -3.37357 0
M  V30 16965 H 1539.69 0.421408 -5.01232 0
M  V30 16966 H 1539.39 -1.16809 -5.75873 0
M  V30 16967 H 1540.91 -0.299823 -6.09863 0
M  V30 16968 H 1542.33 -2.39056 -5.21081 0
M  V30 16969 H 1540.72 -3.17301 -5.09353 0
M  V30 16970 H 1541.79 -3.15751 -3.68007 0
M  V30 16971 N 1543.14 1.28707 -0.909517 0
M  V30 16972 C 1544.41 1.90124 -0.459585 0
M  V30 16973 C 1544.79 1.82477 1.06139 0
M  V30 16974 O 1544.14 1.25792 1.90758 0
M  V30 16975 C 1544.35 3.34806 -0.985188 0
M  V30 16976 C 1545.7 4.11799 -1.03475 0
M  V30 16977 O 1546.72 3.43749 -0.933536 0
M  V30 16978 O 1545.58 5.33426 -1.18825 0
M  V30 16979 H 1542.68 0.814199 -0.144948 0
M  V30 16980 H 1545.22 1.37104 -1.00002 0
M  V30 16981 H 1543.99 3.34575 -2.02917 0
M  V30 16982 H 1543.62 3.95318 -0.425329 0
M  V30 16983 N 1544.61 0.673042 1.42506 0
M  V30 16984 C 1545.86 0.194192 2.01165 0
M  V30 16985 C 1546.18 -1.2029 1.53477 0
M  V30 16986 O 1545.45 -1.80737 0.755704 0
M  V30 16987 H 1544.03 0.0688022 0.743825 0
M  V30 16988 H 1546.7 0.869157 1.74447 0
M  V30 16989 H 1545.79 0.194111 3.11496 0
M  V30 16990 N 1546.09 -1.52004 0.416254 0
M  V30 16991 C 1547.37 -1.94403 -0.216103 0
M  V30 16992 C 1547.75 -1.35362 -1.61989 0
M  V30 16993 O 1547.1 -0.532242 -2.22215 0
M  V30 16994 C 1547.31 -3.48336 -0.215225 0
M  V30 16995 C 1548.66 -4.22406 -0.431109 0
M  V30 16996 O 1549.68 -3.54982 -0.294271 0
M  V30 16997 O 1548.54 -5.4198 -0.70145 0
M  V30 16998 H 1545.63 -0.814838 -0.141306 0
M  V30 16999 H 1548.18 -1.62983 0.472712 0
M  V30 17000 H 1546.95 -3.83709 0.767004 0
M  V30 17001 H 1546.57 -3.86137 -0.947841 0
M  V30 17002 N 1547.57 -0.146903 -1.56914 0
M  V30 17003 C 1548.82 0.504195 -1.95297 0
M  V30 17004 C 1549.13 1.66019 -1.03426 0
M  V30 17005 O 1550.34 2.37591 -1.31388 0
M  V30 17006 C 1548.79 0.948348 -3.47181 0
M  V30 17007 C 1548.4 -0.18071 -4.47635 0
M  V30 17008 C 1550.15 1.56924 -3.9443 0
M  V30 17009 C 1548.05 0.281707 -5.90729 0
M  V30 17010 H 1546.98 0.192127 -0.729111 0
M  V30 17011 H 1549.63 -0.231232 -1.82037 0
M  V30 17012 H 1548.02 1.73903 -3.55772 0
M  V30 17013 H 1549.19 -0.957645 -4.50739 0
M  V30 17014 H 1547.51 -0.710007 -4.10302 0
M  V30 17015 H 1550.1 1.92684 -4.98776 0
M  V30 17016 H 1550.45 2.45816 -3.35976 0
M  V30 17017 H 1550.98 0.843456 -3.88755 0
M  V30 17018 H 1547.72 -0.571839 -6.53001 0
M  V30 17019 H 1547.24 1.02452 -5.90985 0
M  V30 17020 H 1548.92 0.733746 -6.42826 0
M  V30 17021 N 1549.05 1.57088 0.126881 0
M  V30 17022 C 1550.33 1.7539 0.8659 0
M  V30 17023 C 1550.71 0.720288 1.98432 0
M  V30 17024 O 1550.05 -0.2572 2.27048 0
M  V30 17025 C 1550.26 3.20131 1.38985 0
M  V30 17026 C 1551.61 3.82404 1.84532 0
M  V30 17027 O 1552.64 3.23685 1.48682 0
M  V30 17028 O 1551.49 4.85599 2.50711 0
M  V30 17029 H 1548.59 0.717853 0.41063 0
M  V30 17030 H 1551.13 1.69335 0.111236 0
M  V30 17031 H 1549.91 3.86871 0.587056 0
M  V30 17032 H 1549.53 3.30692 2.20745 0
M  V30 17033 N 1550.53 -0.396836 1.52522 0
M  V30 17034 C 1551.94 -0.736347 1.41598 0
M  V30 17035 C 1552.14 -1.944 0.530191 0
M  V30 17036 O 1551.2 -2.525 0.000649033 0
M  V30 17037 C 1552.51 -0.978775 2.84325 0
M  V30 17038 C 1554.06 -1.08073 2.9375 0
M  V30 17039 C 1554.53 -1.35584 4.37471 0
M  V30 17040 N 1556.03 -1.42423 4.40761 0
M  V30 17041 C 1556.76 -1.6536 5.49039 0
M  V30 17042 N 1556.26 -1.85819 6.67415 0
M  V30 17043 N 1558.05 -1.67475 5.36571 0
M  V30 17044 H 1550.2 0.397925 2.08639 0
M  V30 17045 H 1552.46 0.115803 0.9409 0
M  V30 17046 H 1552.17 -0.16362 3.51319 0
M  V30 17047 H 1552.04 -1.8956 3.26109 0
M  V30 17048 H 1554.43 -1.88646 2.26928 0
M  V30 17049 H 1554.51 -0.141996 2.55406 0
M  V30 17050 H 1554.16 -0.555238 5.04856 0
M  V30 17051 H 1554.09 -2.3073 4.73362 0
M  V30 17052 H 1556.58 -1.28352 3.55435 0
M  V30 17053 H 1556.89 -2.02806 7.45714 0
M  V30 17054 H 1555.23 -1.83059 6.70458 0
M  V30 17055 H 1558.43 -1.51038 4.43064 0
M  V30 17056 H 1558.6 -1.85011 6.21027 0
M  V30 17057 N 1552.01 -1.43353 -0.654814 0
M  V30 17058 C 1553.23 -1.48322 -1.4425 0
M  V30 17059 C 1553.65 -0.100608 -1.88532 0
M  V30 17060 O 1553.01 0.888831 -1.59393 0
M  V30 17061 C 1553.06 -2.42769 -2.67853 0
M  V30 17062 O 1552.78 -3.75653 -2.25424 0
M  V30 17063 C 1554.28 -2.56964 -3.61226 0
M  V30 17064 H 1551.5 -0.503805 -0.443195 0
M  V30 17065 H 1554.04 -1.88078 -0.802916 0
M  V30 17066 H 1552.2 -2.06212 -3.27956 0
M  V30 17067 H 1552.61 -4.26427 -3.05386 0
M  V30 17068 H 1554.09 -3.27129 -4.44624 0
M  V30 17069 H 1554.56 -1.61404 -4.08467 0
M  V30 17070 H 1555.17 -2.94325 -3.07006 0
M  V30 17071 N 1553.48 0.89303 -1.29857 0
M  V30 17072 C 1554.42 2.00327 -1.11364 0
M  V30 17073 C 1555.43 1.62692 -0.0591968 0
M  V30 17074 O 1556.62 1.75885 -0.3044 0
M  V30 17075 C 1553.72 3.3212 -0.674518 0
M  V30 17076 C 1552.89 3.98241 -1.80895 0
M  V30 17077 C 1551.95 5.08329 -1.35972 0
M  V30 17078 O 1550.98 5.30398 -2.06558 0
M  V30 17079 N 1552.18 5.80027 -0.234282 0
M  V30 17080 H 1554.94 2.16743 -2.06984 0
M  V30 17081 H 1552.5 1.06563 -1.21885 0
M  V30 17082 H 1554.5 4.03121 -0.357167 0
M  V30 17083 H 1553.07 3.12026 0.189414 0
M  V30 17084 H 1552.29 3.20517 -2.29483 0
M  V30 17085 H 1553.57 4.39158 -2.56939 0
M  V30 17086 H 1552.97 5.64591 0.354068 0
M  V30 17087 H 1551.53 6.51796 0.0236623 0
M  V30 17088 N 1554.96 1.12442 1.10429 0
M  V30 17089 C 1556.21 0.879758 1.82391 0
M  V30 17090 C 1556.54 -0.594402 1.85195 0
M  V30 17091 O 1555.79 -1.4554 1.3083 0
M  V30 17092 C 1556.09 1.39976 3.28849 0
M  V30 17093 C 1555.76 2.88897 3.46192 0
M  V30 17094 C 1554.42 3.2956 3.50633 0
M  V30 17095 C 1556.77 3.8476 3.51581 0
M  V30 17096 C 1554.1 4.64791 3.58031 0
M  V30 17097 C 1556.45 5.19821 3.60512 0
M  V30 17098 C 1555.11 5.60026 3.63217 0
M  V30 17099 H 1554.38 0.321926 0.667416 0
M  V30 17100 H 1557.03 1.40461 1.30165 0
M  V30 17101 H 1555.34 0.795374 3.83642 0
M  V30 17102 H 1557.03 1.18667 3.83039 0
M  V30 17103 H 1553.62 2.56448 3.43413 0
M  V30 17104 H 1557.81 3.54439 3.474 0
M  V30 17105 H 1553.06 4.95332 3.58408 0
M  V30 17106 H 1557.24 5.93927 3.63625 0
M  V30 17107 H 1554.86 6.64803 3.68702 0
M  V30 17108 N 1556.44 -1.28223 0.91633 0
M  V30 17109 C 1557.69 -1.94149 0.546705 0
M  V30 17110 C 1558 -1.72904 -0.914529 0
M  V30 17111 O 1559.21 -2.33075 -1.39243 0
M  V30 17112 C 1557.66 -3.47759 0.92691 0
M  V30 17113 C 1557.27 -3.77779 2.40805 0
M  V30 17114 C 1559.02 -4.19829 0.627994 0
M  V30 17115 C 1556.92 -5.2471 2.72825 0
M  V30 17116 H 1555.85 -0.726787 0.200739 0
M  V30 17117 H 1558.5 -1.45694 1.1156 0
M  V30 17118 H 1556.89 -3.9496 0.286779 0
M  V30 17119 H 1558.06 -3.41377 3.09513 0
M  V30 17120 H 1556.37 -3.18887 2.67769 0
M  V30 17121 H 1558.97 -5.27999 0.843862 0
M  V30 17122 H 1559.31 -4.14028 -0.434315 0
M  V30 17123 H 1559.85 -3.78413 1.22671 0
M  V30 17124 H 1556.59 -5.35591 3.77919 0
M  V30 17125 H 1556.11 -5.623 2.08756 0
M  V30 17126 H 1557.79 -5.92475 2.59965 0
M  V30 17127 N 1557.92 -0.68059 -1.42147 0
M  V30 17128 C 1559.16 -0.214267 -2.02268 0
M  V30 17129 C 1559.52 1.16815 -1.52879 0
M  V30 17130 O 1558.81 1.77406 -0.723716 0
M  V30 17131 C 1559.01 -0.194825 -3.56869 0
M  V30 17132 C 1558.83 -1.57381 -4.21261 0
M  V30 17133 C 1557.6 -2.173 -4.56189 0
M  V30 17134 C 1559.8 -2.5176 -4.48466 0
M  V30 17135 N 1557.78 -3.47919 -5.05792 0
M  V30 17136 C 1559.16 -3.6704 -4.99681 0
M  V30 17137 C 1561.21 -2.50217 -4.3046 0
M  V30 17138 C 1559.91 -4.81039 -5.34784 0
M  V30 17139 C 1561.94 -3.63316 -4.66643 0
M  V30 17140 C 1561.3 -4.77324 -5.18016 0
M  V30 17141 H 1557.4 -0.123459 -0.772193 0
M  V30 17142 H 1559.98 -0.894831 -1.72919 0
M  V30 17143 H 1558.16 0.455171 -3.85724 0
M  V30 17144 H 1559.89 0.284921 -4.03696 0
M  V30 17145 H 1556.64 -1.69732 -4.4214 0
M  V30 17146 H 1557.07 -4.14833 -5.35016 0
M  V30 17147 H 1561.71 -1.63297 -3.89992 0
M  V30 17148 H 1559.43 -5.68629 -5.74183 0
M  V30 17149 H 1563.01 -3.63356 -4.54383 0
M  V30 17150 H 1561.89 -5.63391 -5.45491 0
M  V30 17151 N 1559.4 1.51781 -0.424309 0
M  V30 17152 C 1560.33 2.23945 0.438604 0
M  V30 17153 C 1561.31 1.25363 1.03552 0
M  V30 17154 O 1562.49 1.5446 1.08048 0
M  V30 17155 C 1559.62 2.9798 1.61014 0
M  V30 17156 C 1558.66 4.11116 1.13516 0
M  V30 17157 S 1559.5 5.35428 0.0878448 0
M  V30 17158 C 1560.65 6.12997 1.26435 0
M  V30 17159 H 1560.89 2.9679 -0.174103 0
M  V30 17160 H 1558.42 1.52983 -0.208718 0
M  V30 17161 H 1560.38 3.41237 2.28183 0
M  V30 17162 H 1559.04 2.2475 2.19423 0
M  V30 17163 H 1558.23 4.62147 2.01086 0
M  V30 17164 H 1557.83 3.70053 0.5419 0
M  V30 17165 H 1560.12 6.41293 2.18517 0
M  V30 17166 H 1561.07 7.03631 0.794265 0
M  V30 17167 H 1561.48 5.44288 1.49702 0
M  V30 17168 N 1560.87 0.155222 1.56834 0
M  V30 17169 C 1561.82 -0.781315 2.17173 0
M  V30 17170 C 1562.79 -1.23835 1.10699 0
M  V30 17171 O 1563.98 -1.3094 1.38778 0
M  V30 17172 C 1561.12 -2.01174 2.80398 0
M  V30 17173 C 1560.23 -1.59976 4.01287 0
M  V30 17174 C 1559.36 -2.78262 4.52486 0
M  V30 17175 C 1558.4 -2.33477 5.65822 0
M  V30 17176 N 1557.54 -3.44799 6.11603 0
M  V30 17177 H 1562.38 -0.259968 2.96864 0
M  V30 17178 H 1559.92 -0.116599 1.46637 0
M  V30 17179 H 1561.87 -2.73318 3.15203 0
M  V30 17180 H 1560.5 -2.50706 2.03338 0
M  V30 17181 H 1559.56 -0.775668 3.72408 0
M  V30 17182 H 1560.87 -1.2309 4.83374 0
M  V30 17183 H 1560.02 -3.58585 4.89389 0
M  V30 17184 H 1558.76 -3.18398 3.69424 0
M  V30 17185 H 1557.77 -1.51596 5.28487 0
M  V30 17186 H 1558.99 -1.94417 6.50676 0
M  V30 17187 H 1556.94 -3.84541 5.31474 0
M  V30 17188 H 1556.85 -3.11955 6.88637 0
M  V30 17189 H 1558.12 -4.25454 6.53153 0
M  V30 17190 N 1562.35 -1.57153 -0.118549 0
M  V30 17191 C 1563.58 -1.88788 -0.83921 0
M  V30 17192 C 1563.99 -0.744621 -1.73931 0
M  V30 17193 O 1563.33 0.293567 -1.81339 0
M  V30 17194 C 1563.39 -3.15441 -1.72446 0
M  V30 17195 C 1563.06 -4.45956 -0.998613 0
M  V30 17196 C 1564.06 -5.18792 -0.339214 0
M  V30 17197 C 1561.74 -4.92654 -0.979657 0
M  V30 17198 C 1563.73 -6.36548 0.329438 0
M  V30 17199 C 1561.42 -6.10327 -0.307207 0
M  V30 17200 C 1562.42 -6.82122 0.346185 0
M  V30 17201 O 1562.11 -7.97557 1.0079 0
M  V30 17202 H 1561.84 -0.629445 -0.246526 0
M  V30 17203 H 1564.39 -2.05119 -0.10736 0
M  V30 17204 H 1562.62 -2.95193 -2.49796 0
M  V30 17205 H 1564.31 -3.33092 -2.31958 0
M  V30 17206 H 1565.08 -4.83768 -0.345475 0
M  V30 17207 H 1560.96 -4.36676 -1.47766 0
M  V30 17208 H 1564.5 -6.92524 0.840013 0
M  V30 17209 H 1560.4 -6.44808 -0.29871 0
M  V30 17210 H 1561.17 -8.13398 0.912427 0
M  V30 17211 N 1563.83 0.388742 -1.5273 0
M  V30 17212 C 1565.08 1.13375 -1.67787 0
M  V30 17213 C 1565.4 1.89957 -0.417925 0
M  V30 17214 O 1564.66 1.86286 0.599682 0
M  V30 17215 C 1564.96 2.13792 -2.86405 0
M  V30 17216 C 1564.62 1.53865 -4.23835 0
M  V30 17217 C 1563.29 1.37248 -4.61212 0
M  V30 17218 C 1565.64 1.10298 -5.09395 0
M  V30 17219 C 1562.97 0.756119 -5.81807 0
M  V30 17220 C 1565.32 0.500723 -6.30615 0
M  V30 17221 C 1563.98 0.321851 -6.66724 0
M  V30 17222 H 1563.25 0.414868 -0.613975 0
M  V30 17223 H 1565.9 0.418351 -1.86874 0
M  V30 17224 H 1564.2 2.91551 -2.61735 0
M  V30 17225 H 1565.9 2.71346 -2.95249 0
M  V30 17226 H 1562.49 1.67787 -3.94393 0
M  V30 17227 H 1566.68 1.21938 -4.81087 0
M  V30 17228 H 1561.93 0.605734 -6.08392 0
M  V30 17229 H 1566.11 0.154839 -6.96228 0
M  V30 17230 H 1563.73 -0.157836 -7.60036 0
M  V30 17231 N 1565.31 1.43698 0.647203 0
M  V30 17232 C 1566.53 1.49301 1.43958 0
M  V30 17233 C 1566.96 0.11395 1.87755 0
M  V30 17234 O 1566.32 -0.893571 1.5775 0
M  V30 17235 C 1566.36 2.44905 2.64677 0
M  V30 17236 O 1565.47 1.93947 3.63948 0
M  V30 17237 H 1564.81 0.504771 0.431396 0
M  V30 17238 H 1567.34 1.88673 0.791432 0
M  V30 17239 H 1567.35 2.62409 3.12419 0
M  V30 17240 H 1566.02 3.45083 2.32143 0
M  V30 17241 H 1564.6 1.86133 3.23124 0
M  V30 17242 N 1566.79 -0.886131 1.30328 0
M  V30 17243 C 1568.04 -1.63255 1.18451 0
M  V30 17244 C 1568.35 -1.93864 -0.260016 0
M  V30 17245 O 1569.55 -2.66851 -0.500288 0
M  V30 17246 C 1568.01 -2.94232 2.07257 0
M  V30 17247 C 1567.62 -2.71168 3.56612 0
M  V30 17248 C 1569.36 -3.72193 2.04139 0
M  V30 17249 C 1567.27 -3.97954 4.37478 0
M  V30 17250 H 1566.2 -0.612491 0.439739 0
M  V30 17251 H 1568.85 -0.981129 1.55068 0
M  V30 17252 H 1567.23 -3.60661 1.63522 0
M  V30 17253 H 1568.41 -2.13247 4.08488 0
M  V30 17254 H 1566.72 -2.06584 3.61541 0
M  V30 17255 H 1569.32 -4.66219 2.61809 0
M  V30 17256 H 1569.66 -4.03495 1.02459 0
M  V30 17257 H 1570.19 -3.12624 2.45989 0
M  V30 17258 H 1566.93 -3.71811 5.39849 0
M  V30 17259 H 1566.45 -4.55384 3.90366 0
M  V30 17260 H 1568.13 -4.65984 4.48852 0
M  V30 17261 N 1568.26 -1.13026 -1.09832 0
M  V30 17262 C 1569.51 -0.889419 -1.81922 0
M  V30 17263 C 1569.84 0.584572 -1.85507 0
M  V30 17264 O 1569.09 1.44844 -1.316 0
M  V30 17265 C 1569.39 -1.41718 -3.28102 0
M  V30 17266 C 1569.06 -2.90729 -3.44655 0
M  V30 17267 C 1567.72 -3.31415 -3.48881 0
M  V30 17268 C 1570.07 -3.86619 -3.49536 0
M  V30 17269 C 1567.4 -4.66683 -3.55561 0
M  V30 17270 C 1569.75 -5.21726 -3.5775 0
M  V30 17271 C 1568.42 -5.61945 -3.60242 0
M  V30 17272 H 1567.69 -0.325461 -0.6657 0
M  V30 17273 H 1570.33 -1.4115 -1.29418 0
M  V30 17274 H 1568.64 -0.815709 -3.83215 0
M  V30 17275 H 1570.34 -1.20696 -3.82405 0
M  V30 17276 H 1566.93 -2.58266 -3.42048 0
M  V30 17277 H 1571.11 -3.56276 -3.45516 0
M  V30 17278 H 1566.37 -4.97226 -3.55776 0
M  V30 17279 H 1570.54 -5.95847 -3.60471 0
M  V30 17280 H 1568.17 -6.66749 -3.65171 0
M  V30 17281 N 1569.74 1.27735 -0.923117 0
M  V30 17282 C 1570.69 2.28975 -0.409065 0
M  V30 17283 C 1571.68 1.61723 0.504194 0
M  V30 17284 O 1572.89 1.75848 0.384402 0
M  V30 17285 H 1569.27 0.743354 -0.113705 0
M  V30 17286 H 1571.24 2.69751 -1.27582 0
M  V30 17287 C 1569.99 3.46158 0.327099 0
M  V30 17288 H 1569.31 3.98117 -0.366444 0
M  V30 17289 H 1570.75 4.18968 0.65128 0
M  V30 17290 C 1569.21 2.99724 1.53842 0
M  V30 17291 O 1569.74 3.03001 2.6373 0
M  V30 17292 N 1567.94 2.55274 1.38865 0
M  V30 17293 H 1567.49 2.52807 0.494629 0
M  V30 17294 H 1567.45 2.24567 2.20039 0
M  V30 17295 N 1571.22 0.688118 1.41784 0
M  V30 17296 C 1572.45 0.22475 2.05676 0
M  V30 17297 C 1572.86 -1.1232 1.51755 0
M  V30 17298 O 1572.22 -1.70041 0.662735 0
M  V30 17299 C 1572.27 0.165661 3.6112 0
M  V30 17300 O 1571.99 1.46035 4.13044 0
M  V30 17301 C 1573.49 -0.319599 4.42146 0
M  V30 17302 H 1570.71 0.106135 0.662553 0
M  V30 17303 H 1573.26 0.938605 1.81688 0
M  V30 17304 H 1571.41 -0.498968 3.84173 0
M  V30 17305 H 1571.83 1.34252 5.07027 0
M  V30 17306 H 1573.3 -0.30983 5.5113 0
M  V30 17307 H 1573.78 -1.3572 4.17704 0
M  V30 17308 H 1574.38 0.313764 4.24141 0
M  V30 17309 N 1572.7 -1.51554 0.432352 0
M  V30 17310 C 1573.61 -2.31371 -0.387885 0
M  V30 17311 C 1574.62 -1.40072 -1.03227 0
M  V30 17312 O 1575.8 -1.73145 -1.02873 0
M  V30 17313 C 1572.87 -3.13662 -1.47705 0
M  V30 17314 C 1571.93 -4.20734 -0.853315 0
M  V30 17315 C 1571.16 -4.99092 -1.89058 0
M  V30 17316 O 1571.38 -4.78022 -3.11209 0
M  V30 17317 O 1570.32 -5.83322 -1.48389 0
M  V30 17318 H 1574.14 -3.02554 0.263578 0
M  V30 17319 H 1571.73 -1.48122 0.195004 0
M  V30 17320 H 1573.61 -3.64837 -2.10884 0
M  V30 17321 H 1572.28 -2.45249 -2.11269 0
M  V30 17322 H 1571.19 -3.73649 -0.183616 0
M  V30 17323 H 1572.52 -4.91506 -0.261244 0
M  V30 17324 N 1574.18 -0.163538 -1.56749 0
M  V30 17325 C 1575.11 0.765571 -2.20593 0
M  V30 17326 C 1576.09 1.24489 -1.15916 0
M  V30 17327 O 1577.27 1.29946 -1.44318 0
M  V30 17328 C 1574.4 1.99823 -2.84057 0
M  V30 17329 C 1573.36 1.65506 -3.94705 0
M  V30 17330 C 1572.68 2.96172 -4.45181 0
M  V30 17331 C 1573.98 0.88902 -5.14678 0
M  V30 17332 H 1575.68 0.233431 -2.98489 0
M  V30 17333 H 1573.22 0.110836 -1.43573 0
M  V30 17334 H 1575.18 2.65316 -3.27392 0
M  V30 17335 H 1573.9 2.55437 -2.03517 0
M  V30 17336 H 1572.56 1.02384 -3.52013 0
M  V30 17337 H 1572.21 3.49811 -3.61443 0
M  V30 17338 H 1571.91 2.73968 -5.19823 0
M  V30 17339 H 1573.43 3.62708 -4.91198 0
M  V30 17340 H 1574.84 1.44637 -5.54755 0
M  V30 17341 H 1573.24 0.766302 -5.95187 0
M  V30 17342 H 1574.31 -0.116145 -4.84761 0
M  V30 17343 N 1575.65 1.57214 0.110213 0
M  V30 17344 C 1576.88 1.8988 0.834297 0
M  V30 17345 C 1577.3 0.756347 1.72224 0
M  V30 17346 O 1576.66 -0.292768 1.78921 0
M  V30 17347 C 1576.71 3.21338 1.63629 0
M  V30 17348 O 1575.81 3.07862 2.74399 0
M  V30 17349 H 1575.16 0.62283 0.23017 0
M  V30 17350 H 1577.69 2.04402 0.0899726 0
M  V30 17351 H 1577.7 3.54275 2.02369 0
M  V30 17352 H 1576.37 4.04079 0.984521 0
M  V30 17353 H 1574.95 2.8641 2.38797 0
M  V30 17354 N 1577.13 -0.380637 1.52934 0
M  V30 17355 C 1578.06 -1.48518 1.74571 0
M  V30 17356 C 1579.08 -1.50272 0.626263 0
M  V30 17357 O 1580.27 -1.54023 0.902167 0
M  V30 17358 C 1577.37 -2.87339 1.79693 0
M  V30 17359 C 1576.54 -3.09454 3.09123 0
M  V30 17360 C 1575.6 -4.28305 3.05682 0
M  V30 17361 O 1574.62 -4.24205 3.79524 0
M  V30 17362 N 1575.83 -5.34932 2.2545 0
M  V30 17363 H 1578.59 -1.30341 2.69873 0
M  V30 17364 H 1576.15 -0.57023 1.51526 0
M  V30 17365 H 1578.14 -3.64961 1.74887 0
M  V30 17366 H 1576.71 -2.98835 0.917414 0
M  V30 17367 H 1575.93 -2.19623 3.27352 0
M  V30 17368 H 1577.22 -3.21089 3.94689 0
M  V30 17369 H 1576.62 -5.41121 1.64939 0
M  V30 17370 H 1575.18 -6.11189 2.26476 0
M  V30 17371 N 1578.61 -1.44039 -0.639573 0
M  V30 17372 C 1579.84 -1.50063 -1.43164 0
M  V30 17373 C 1580.26 -0.123906 -1.87691 0
M  V30 17374 O 1579.62 0.885192 -1.58221 0
M  V30 17375 C 1579.67 -2.46305 -2.63375 0
M  V30 17376 O 1578.77 -1.95874 -3.62915 0
M  V30 17377 H 1578.11 -0.507052 -0.428713 0
M  V30 17378 H 1580.64 -1.8909 -0.781415 0
M  V30 17379 H 1580.65 -2.64062 -3.11023 0
M  V30 17380 H 1579.33 -3.46309 -2.3031 0
M  V30 17381 H 1577.9 -1.87844 -3.22132 0
M  V30 17382 N 1580.09 0.879207 -1.30796 0
M  V30 17383 C 1581.04 2.00692 -1.17582 0
M  V30 17384 C 1582.03 1.6918 -0.0863163 0
M  V30 17385 O 1583.24 1.78289 -0.24757 0
M  V30 17386 H 1579.61 0.65814 -0.363808 0
M  V30 17387 H 1581.58 2.0897 -2.13012 0
M  V30 17388 C 1580.33 3.36105 -0.890429 0
M  V30 17389 H 1579.65 3.60868 -1.72088 0
M  V30 17390 H 1581.09 4.15634 -0.838103 0
M  V30 17391 C 1579.55 3.34436 0.406734 0
M  V30 17392 O 1580.08 3.7552 1.42645 0
M  V30 17393 N 1578.29 2.87549 0.419963 0
M  V30 17394 H 1577.84 2.54311 -0.410343 0
M  V30 17395 H 1577.79 2.86815 1.28781 0
M  V30 17396 N 1581.57 1.13606 1.09231 0
M  V30 17397 C 1582.82 0.893694 1.8082 0
M  V30 17398 C 1583.13 -0.581713 1.8675 0
M  V30 17399 O 1584.34 -0.941079 2.54668 0
M  V30 17400 C 1582.79 1.54932 3.24845 0
M  V30 17401 C 1582.4 3.0604 3.27175 0
M  V30 17402 C 1584.14 1.38773 4.01176 0
M  V30 17403 C 1582.05 3.64478 4.65735 0
M  V30 17404 H 1580.98 0.330699 0.677609 0
M  V30 17405 H 1583.63 1.36401 1.22748 0
M  V30 17406 H 1582.01 1.00668 3.82991 0
M  V30 17407 H 1583.19 3.66901 2.78783 0
M  V30 17408 H 1581.5 3.21739 2.64335 0
M  V30 17409 H 1584.1 1.79843 5.03548 0
M  V30 17410 H 1584.44 0.33282 4.14967 0
M  V30 17411 H 1584.98 1.90028 3.49477 0
M  V30 17412 H 1581.71 4.69785 4.57146 0
M  V30 17413 H 1581.23 3.08396 5.14444 0
M  V30 17414 H 1582.91 3.64272 5.3471 0
M  V30 17415 N 1583.05 -1.27244 0.929878 0
M  V30 17416 C 1583.96 -2.30506 0.436355 0
M  V30 17417 C 1584.97 -1.67131 -0.484054 0
M  V30 17418 O 1586.15 -1.9804 -0.366332 0
M  V30 17419 C 1583.21 -3.45391 -0.300942 0
M  V30 17420 C 1582.27 -4.24279 0.654647 0
M  V30 17421 C 1581.51 -5.33679 -0.047558 0
M  V30 17422 O 1581.73 -5.56161 -1.26654 0
M  V30 17423 O 1580.66 -5.98642 0.62538 0
M  V30 17424 H 1584.49 -2.74762 1.29382 0
M  V30 17425 H 1582.07 -1.32234 0.695311 0
M  V30 17426 H 1583.96 -4.1526 -0.716718 0
M  V30 17427 H 1582.63 -3.03187 -1.13398 0
M  V30 17428 H 1581.54 -3.56936 1.12015 0
M  V30 17429 H 1582.87 -4.70204 1.45497 0
M  V30 17430 N 1584.52 -0.695628 -1.41417 0
M  V30 17431 C 1585.43 -0.0308378 -2.3458 0
M  V30 17432 C 1586.45 0.766 -1.56232 0
M  V30 17433 O 1587.63 0.703548 -1.88712 0
M  V30 17434 C 1584.69 0.894162 -3.34971 0
M  V30 17435 C 1583.75 0.0895231 -4.29207 0
M  V30 17436 C 1582.98 0.970467 -5.24802 0
M  V30 17437 O 1583.21 2.20997 -5.25848 0
M  V30 17438 O 1582.14 0.420114 -6.00432 0
M  V30 17439 H 1585.97 -0.798775 -2.93007 0
M  V30 17440 H 1583.55 -0.455964 -1.42272 0
M  V30 17441 H 1585.43 1.42458 -3.9659 0
M  V30 17442 H 1584.11 1.64159 -2.78987 0
M  V30 17443 H 1583.02 -0.4855 -3.70936 0
M  V30 17444 H 1584.35 -0.619241 -4.88289 0
M  V30 17445 N 1586 1.51322 -0.440383 0
M  V30 17446 C 1587.42 1.5933 -0.0928372 0
M  V30 17447 C 1587.62 1.45107 1.39807 0
M  V30 17448 O 1586.67 1.29385 2.16831 0
M  V30 17449 C 1587.99 2.9433 -0.615663 0
M  V30 17450 C 1589.53 3.07647 -0.576373 0
M  V30 17451 C 1590.01 4.45176 -1.07622 0
M  V30 17452 N 1591.5 4.51504 -1.03434 0
M  V30 17453 C 1592.24 5.56249 -1.39194 0
M  V30 17454 N 1591.73 6.68398 -1.82254 0
M  V30 17455 N 1593.52 5.46624 -1.30991 0
M  V30 17456 H 1585.68 1.58812 -1.41041 0
M  V30 17457 H 1587.94 0.748795 -0.581386 0
M  V30 17458 H 1587.64 3.10117 -1.65892 0
M  V30 17459 H 1587.52 3.77176 -0.0422513 0
M  V30 17460 H 1589.91 2.91526 0.457904 0
M  V30 17461 H 1589.99 2.26633 -1.18622 0
M  V30 17462 H 1589.63 4.62044 -2.10898 0
M  V30 17463 H 1589.56 5.24734 -0.442882 0
M  V30 17464 H 1592.05 3.71013 -0.718156 0
M  V30 17465 H 1592.36 7.44347 -2.07769 0
M  V30 17466 H 1590.71 6.69598 -1.86183 0
M  V30 17467 H 1593.9 4.57894 -0.972145 0
M  V30 17468 H 1594.07 6.28143 -1.59188 0
M  V30 17469 N 1587.48 0.171848 1.5666 0
M  V30 17470 C 1588.71 -0.478526 2.00982 0
M  V30 17471 C 1589.12 -1.57313 1.05115 0
M  V30 17472 O 1588.46 -1.83647 0.0441833 0
M  V30 17473 C 1588.52 -1.11633 3.41729 0
M  V30 17474 C 1588.19 -0.163307 4.56708 0
M  V30 17475 C 1589.18 0.618553 5.16207 0
M  V30 17476 C 1586.87 -0.0589794 5.02265 0
M  V30 17477 C 1588.86 1.49194 6.19693 0
M  V30 17478 C 1586.55 0.817987 6.05601 0
M  V30 17479 C 1587.55 1.59203 6.64186 0
M  V30 17480 O 1587.24 2.45434 7.65518 0
M  V30 17481 H 1586.97 -0.126833 0.663995 0
M  V30 17482 H 1589.52 0.270866 2.03606 0
M  V30 17483 H 1587.75 -1.91385 3.36019 0
M  V30 17484 H 1589.44 -1.66896 3.70001 0
M  V30 17485 H 1590.21 0.548127 4.81893 0
M  V30 17486 H 1586.09 -0.651245 4.56377 0
M  V30 17487 H 1589.63 2.09656 6.6535 0
M  V30 17488 H 1585.53 0.889614 6.3934 0
M  V30 17489 H 1586.29 2.38955 7.82843 0
M  V30 17490 N 1588.96 -1.5727 -0.101874 0
M  V30 17491 C 1589.9 -2.01577 -1.12406 0
M  V30 17492 C 1590.87 -0.890883 -1.40187 0
M  V30 17493 O 1592.06 -1.15638 -1.51764 0
M  V30 17494 C 1589.2 -2.43952 -2.44093 0
M  V30 17495 C 1588.31 -3.69932 -2.23101 0
M  V30 17496 C 1587.45 -4.01215 -3.48138 0
M  V30 17497 C 1586.49 -5.20325 -3.22379 0
M  V30 17498 N 1585.62 -5.47394 -4.39664 0
M  V30 17499 H 1590.46 -2.88685 -0.739244 0
M  V30 17500 H 1588 -1.42789 -0.353497 0
M  V30 17501 H 1589.96 -2.66563 -3.20936 0
M  V30 17502 H 1588.59 -1.59863 -2.80435 0
M  V30 17503 H 1587.64 -3.54838 -1.37092 0
M  V30 17504 H 1588.95 -4.56924 -2.00054 0
M  V30 17505 H 1588.11 -4.24566 -4.33392 0
M  V30 17506 H 1586.85 -3.12732 -3.74233 0
M  V30 17507 H 1585.85 -4.96802 -2.35517 0
M  V30 17508 H 1587.08 -6.10401 -2.97637 0
M  V30 17509 H 1585.02 -4.61869 -4.65847 0
M  V30 17510 H 1584.94 -6.28743 -4.19783 0
M  V30 17511 H 1586.21 -5.75276 -5.26002 0
M  V30 17512 N 1590.44 0.372521 -1.53134 0
M  V30 17513 C 1591.68 1.11316 -1.68201 0
M  V30 17514 C 1592 1.90662 -0.436714 0
M  V30 17515 O 1593.2 2.67439 -0.467802 0
M  V30 17516 C 1591.66 2.02808 -2.97317 0
M  V30 17517 C 1591.27 1.28806 -4.29084 0
M  V30 17518 C 1593.01 2.76906 -3.2175 0
M  V30 17519 C 1590.92 2.19159 -5.49294 0
M  V30 17520 H 1589.85 0.419264 -0.626685 0
M  V30 17521 H 1592.5 0.374677 -1.79634 0
M  V30 17522 H 1590.88 2.80359 -2.79669 0
M  V30 17523 H 1592.06 0.563661 -4.5734 0
M  V30 17524 H 1590.37 0.665989 -4.1104 0
M  V30 17525 H 1592.97 3.44721 -4.08744 0
M  V30 17526 H 1593.31 3.41894 -2.37517 0
M  V30 17527 H 1593.84 2.06441 -3.4004 0
M  V30 17528 H 1590.58 1.5876 -6.35984 0
M  V30 17529 H 1590.1 2.89468 -5.25327 0
M  V30 17530 H 1591.78 2.78874 -5.83814 0
M  V30 17531 N 1591.91 1.44376 0.631925 0
M  V30 17532 C 1592.85 1.47167 1.75711 0
M  V30 17533 C 1593.86 0.365158 1.58652 0
M  V30 17534 O 1595.05 0.630852 1.66981 0
M  V30 17535 C 1592.15 1.28916 3.13423 0
M  V30 17536 C 1591.32 2.52798 3.56948 0
M  V30 17537 C 1590.38 2.29458 4.73535 0
M  V30 17538 O 1589.41 3.02941 4.81887 0
M  V30 17539 N 1590.61 1.32467 5.65184 0
M  V30 17540 H 1593.37 2.44168 1.73788 0
M  V30 17541 H 1590.93 1.39805 0.816465 0
M  V30 17542 H 1592.93 1.1115 3.89137 0
M  V30 17543 H 1591.5 0.402828 3.09994 0
M  V30 17544 H 1590.72 2.85846 2.71451 0
M  V30 17545 H 1592 3.35198 3.82779 0
M  V30 17546 H 1591.4 0.717762 5.61128 0
M  V30 17547 H 1589.96 1.2068 6.40531 0
M  V30 17548 N 1593.39 -0.872258 1.31261 0
M  V30 17549 C 1594.62 -1.6632 1.23905 0
M  V30 17550 C 1595.04 -1.87109 -0.192878 0
M  V30 17551 O 1594.4 -1.4112 -1.1382 0
M  V30 17552 C 1594.45 -3.00979 1.98606 0
M  V30 17553 O 1593.55 -3.90642 1.32183 0
M  V30 17554 H 1592.89 -0.507736 0.427902 0
M  V30 17555 H 1595.42 -1.0877 1.73292 0
M  V30 17556 H 1595.43 -3.50931 2.08113 0
M  V30 17557 H 1594.11 -2.85168 3.02741 0
M  V30 17558 H 1592.68 -3.4909 1.31112 0
M  V30 17559 N 1594.87 -1.14184 -1.08627 0
M  V30 17560 C 1596.1 -0.930752 -1.84447 0
M  V30 17561 C 1596.51 0.524072 -1.81797 0
M  V30 17562 O 1595.85 1.37483 -1.21836 0
M  V30 17563 C 1595.91 -1.35125 -3.33139 0
M  V30 17564 C 1595.58 -2.82117 -3.59526 0
M  V30 17565 C 1596.57 -3.80242 -3.54559 0
M  V30 17566 C 1594.26 -3.19475 -3.87609 0
M  V30 17567 C 1596.25 -5.13734 -3.77301 0
M  V30 17568 C 1593.94 -4.53144 -4.10005 0
M  V30 17569 C 1594.94 -5.50082 -4.04844 0
M  V30 17570 O 1594.63 -6.81339 -4.26653 0
M  V30 17571 H 1594.36 -0.331385 -0.589203 0
M  V30 17572 H 1596.91 -1.52033 -1.38113 0
M  V30 17573 H 1595.14 -0.704995 -3.80219 0
M  V30 17574 H 1596.83 -1.11133 -3.9039 0
M  V30 17575 H 1597.6 -3.52726 -3.32881 0
M  V30 17576 H 1593.48 -2.44617 -3.90747 0
M  V30 17577 H 1597.02 -5.89386 -3.73188 0
M  V30 17578 H 1592.92 -4.80381 -4.31166 0
M  V30 17579 H 1593.68 -6.87563 -4.44071 0
M  V30 17580 N 1596.35 1.26749 -0.936613 0
M  V30 17581 C 1597.57 1.98597 -0.597817 0
M  V30 17582 C 1598 1.69324 0.8192 0
M  V30 17583 O 1597.36 0.938634 1.55111 0
M  V30 17584 C 1597.4 3.50656 -0.841007 0
M  V30 17585 O 1596.51 4.12304 0.0891038 0
M  V30 17586 H 1595.85 0.623197 -0.229176 0
M  V30 17587 H 1598.38 1.61332 -1.2583 0
M  V30 17588 H 1598.39 4.00857 -0.760093 0
M  V30 17589 H 1597.06 3.71293 -1.87388 0
M  V30 17590 H 1595.64 3.72876 -0.0424804 0
M  V30 17591 N 1597.83 0.703118 1.41046 0
M  V30 17592 C 1598.74 0.0432777 2.3456 0
M  V30 17593 C 1599.75 -0.757704 1.56636 0
M  V30 17594 O 1600.93 -0.693531 1.89082 0
M  V30 17595 C 1597.99 -0.876385 3.35441 0
M  V30 17596 C 1597.05 -0.06676 4.29248 0
M  V30 17597 C 1596.29 -0.942622 5.2531 0
M  V30 17598 O 1596.51 -2.18205 5.27013 0
M  V30 17599 O 1595.44 -0.388266 6.00646 0
M  V30 17600 H 1599.27 0.814302 2.9258 0
M  V30 17601 H 1596.86 0.463503 1.42028 0
M  V30 17602 H 1598.74 -1.40353 3.9734 0
M  V30 17603 H 1597.41 -1.62677 2.79853 0
M  V30 17604 H 1596.32 0.505165 3.70674 0
M  V30 17605 H 1597.65 0.645128 4.87954 0
M  V30 17606 N 1599.3 -1.51086 0.448402 0
M  V30 17607 C 1600.53 -2.06293 -0.112531 0
M  V30 17608 C 1600.94 -1.31478 -1.36052 0
M  V30 17609 O 1600.29 -0.370897 -1.79917 0
M  V30 17610 C 1600.35 -3.56156 -0.489178 0
M  V30 17611 C 1600.01 -4.52302 0.653568 0
M  V30 17612 C 1601.01 -4.96909 1.52898 0
M  V30 17613 C 1598.69 -4.9527 0.837448 0
M  V30 17614 C 1600.69 -5.83165 2.57288 0
M  V30 17615 C 1598.37 -5.81314 1.8846 0
M  V30 17616 C 1599.37 -6.25161 2.75069 0
M  V30 17617 O 1599.06 -7.09495 3.77985 0
M  V30 17618 H 1598.79 -0.67597 -0.00641865 0
M  V30 17619 H 1601.35 -1.95515 0.629533 0
M  V30 17620 H 1599.58 -3.64757 -1.28411 0
M  V30 17621 H 1601.27 -3.93828 -0.982548 0
M  V30 17622 H 1602.03 -4.64399 1.3985 0
M  V30 17623 H 1597.91 -4.60676 0.172857 0
M  V30 17624 H 1601.45 -6.1731 3.24921 0
M  V30 17625 H 1597.35 -6.13236 2.01523 0
M  V30 17626 H 1598.12 -7.27697 3.74699 0
M  V30 17627 N 1600.78 -0.180154 -1.56567 0
M  V30 17628 C 1601.71 0.742131 -2.21393 0
M  V30 17629 C 1602.69 1.23253 -1.1723 0
M  V30 17630 O 1603.88 1.28408 -1.45688 0
M  V30 17631 C 1601.01 1.96799 -2.8616 0
M  V30 17632 C 1599.96 1.6131 -3.96438 0
M  V30 17633 C 1599.29 2.91434 -4.48297 0
M  V30 17634 C 1600.59 0.834382 -5.15592 0
M  V30 17635 H 1602.28 0.201759 -2.98719 0
M  V30 17636 H 1599.83 0.0956016 -1.43682 0
M  V30 17637 H 1601.78 2.61828 -3.30188 0
M  V30 17638 H 1600.51 2.53264 -2.06215 0
M  V30 17639 H 1599.16 0.986451 -3.53079 0
M  V30 17640 H 1598.81 3.45958 -3.65133 0
M  V30 17641 H 1598.51 2.68439 -5.22699 0
M  V30 17642 H 1600.04 3.57478 -4.95017 0
M  V30 17643 H 1601.45 1.38745 -5.56258 0
M  V30 17644 H 1599.85 0.703132 -5.95966 0
M  V30 17645 H 1600.92 -0.167554 -4.8461 0
M  V30 17646 N 1602.26 1.57322 0.0935319 0
M  V30 17647 C 1603.21 2.02171 1.11336 0
M  V30 17648 C 1604.18 0.898305 1.39713 0
M  V30 17649 O 1605.36 1.16441 1.51149 0
M  V30 17650 C 1602.5 2.45243 2.42796 0
M  V30 17651 C 1601.62 3.7111 2.21136 0
M  V30 17652 C 1600.75 4.03056 3.46005 0
M  V30 17653 C 1599.79 5.22028 3.19615 0
M  V30 17654 N 1598.93 5.49718 4.36755 0
M  V30 17655 H 1603.77 2.89073 0.723924 0
M  V30 17656 H 1601.3 1.42975 0.345919 0
M  V30 17657 H 1603.26 2.68261 3.19518 0
M  V30 17658 H 1601.89 1.61348 2.79583 0
M  V30 17659 H 1600.94 3.5556 1.35209 0
M  V30 17660 H 1602.26 4.57979 1.97628 0
M  V30 17661 H 1601.41 4.26858 4.31135 0
M  V30 17662 H 1600.15 3.14712 3.72569 0
M  V30 17663 H 1599.15 4.98044 2.32879 0
M  V30 17664 H 1600.38 6.11971 2.94396 0
M  V30 17665 H 1598.32 4.64333 4.63391 0
M  V30 17666 H 1598.24 6.30961 4.16443 0
M  V30 17667 H 1599.51 5.78057 5.22944 0
M  V30 17668 N 1603.74 -0.364395 1.53329 0
M  V30 17669 C 1605.02 -1.12265 1.60174 0
M  V30 17670 C 1605.4 -2.0708 0.410015 0
M  V30 17671 O 1604.74 -2.20492 -0.599631 0
M  V30 17672 C 1604.95 -1.86071 2.9526 0
M  V30 17673 C 1606.3 -2.40562 3.49879 0
M  V30 17674 O 1607.33 -1.96196 2.97297 0
M  V30 17675 O 1606.18 -3.2167 4.41804 0
M  V30 17676 H 1603.28 -0.515062 0.647024 0
M  V30 17677 H 1605.82 -0.367563 1.65672 0
M  V30 17678 H 1604.6 -1.1688 3.73436 0
M  V30 17679 H 1604.22 -2.68486 2.93259 0
M  V30 17680 N 1605.22 -1.44709 -0.62426 0
M  V30 17681 C 1606.46 -1.47853 -1.38368 0
M  V30 17682 C 1606.79 -0.113769 -1.94167 0
M  V30 17683 O 1606.05 0.88538 -1.74527 0
M  V30 17684 C 1606.35 -2.4919 -2.56201 0
M  V30 17685 C 1606.01 -3.94339 -2.1865 0
M  V30 17686 C 1604.67 -4.33865 -2.08122 0
M  V30 17687 C 1607.03 -4.85689 -1.89091 0
M  V30 17688 C 1604.35 -5.62658 -1.66233 0
M  V30 17689 C 1606.71 -6.14877 -1.48693 0
M  V30 17690 C 1605.37 -6.5335 -1.36711 0
M  V30 17691 H 1604.64 -0.541034 -0.506324 0
M  V30 17692 H 1607.29 -1.77962 -0.707235 0
M  V30 17693 H 1605.59 -2.1259 -3.29109 0
M  V30 17694 H 1607.29 -2.48867 -3.1443 0
M  V30 17695 H 1603.88 -3.63072 -2.27764 0
M  V30 17696 H 1608.06 -4.55902 -1.96131 0
M  V30 17697 H 1603.32 -5.91278 -1.55565 0
M  V30 17698 H 1607.49 -6.85115 -1.24861 0
M  V30 17699 H 1605.12 -7.53049 -1.04025 0
M  V30 17700 N 1606.69 0.865285 -1.31722 0
M  V30 17701 C 1607.94 1.62098 -1.22865 0
M  V30 17702 C 1608.3 1.91249 0.210099 0
M  V30 17703 O 1607.59 1.53634 1.14487 0
M  V30 17704 C 1607.78 2.95462 -2.0109 0
M  V30 17705 C 1607.61 2.79333 -3.52425 0
M  V30 17706 C 1606.38 2.78273 -4.21773 0
M  V30 17707 C 1608.58 2.53854 -4.47284 0
M  V30 17708 N 1606.56 2.53243 -5.59233 0
M  V30 17709 C 1607.93 2.38131 -5.72445 0
M  V30 17710 C 1609.99 2.39236 -4.36658 0
M  V30 17711 C 1608.69 2.09276 -6.88183 0
M  V30 17712 C 1610.72 2.1177 -5.52184 0
M  V30 17713 C 1610.08 1.96839 -6.76338 0
M  V30 17714 H 1606.18 0.597308 -0.504724 0
M  V30 17715 H 1608.76 1.01803 -1.65965 0
M  V30 17716 H 1606.93 3.53754 -1.60352 0
M  V30 17717 H 1608.66 3.60343 -1.84214 0
M  V30 17718 H 1605.42 2.90826 -3.73788 0
M  V30 17719 H 1605.84 2.43686 -6.31622 0
M  V30 17720 H 1610.49 2.49505 -3.41331 0
M  V30 17721 H 1608.2 1.97745 -7.83532 0
M  V30 17722 H 1611.79 2.01253 -5.45883 0
M  V30 17723 H 1610.67 1.75888 -7.64221 0
M  V30 17724 N 1608.17 1.14759 1.0802 0
M  V30 17725 C 1609.42 0.916435 1.80127 0
M  V30 17726 C 1609.74 -0.558281 1.86837 0
M  V30 17727 O 1609.01 -1.40579 1.36434 0
M  V30 17728 H 1607.59 0.336066 0.667135 0
M  V30 17729 H 1610.25 1.44693 1.30576 0
M  V30 17730 H 1609.35 1.31986 2.82818 0
M  V30 17731 N 1609.65 -1.26251 0.943322 0
M  V30 17732 C 1610.6 -2.28295 0.445441 0
M  V30 17733 C 1611.59 -1.62504 -0.478401 0
M  V30 17734 O 1612.8 -1.76437 -0.356378 0
M  V30 17735 H 1609.17 -0.741451 0.125517 0
M  V30 17736 H 1611.14 -2.67687 1.31858 0
M  V30 17737 C 1609.89 -3.46635 -0.271987 0
M  V30 17738 H 1609.22 -3.97484 0.429734 0
M  V30 17739 H 1610.66 -4.19951 -0.584544 0
M  V30 17740 C 1609.12 -3.02133 -1.49054 0
M  V30 17741 O 1609.65 -3.07158 -2.58876 0
M  V30 17742 N 1607.85 -2.57451 -1.34787 0
M  V30 17743 H 1607.4 -2.53562 -0.454347 0
M  V30 17744 H 1607.36 -2.28039 -2.16438 0
M  V30 17745 N 1611.13 -0.710588 -1.40671 0
M  V30 17746 C 1612.54 -0.320926 -1.83921 0
M  V30 17747 C 1612.89 1.14358 -1.59426 0
M  V30 17748 O 1612.02 1.87952 -1.07252 0
M  V30 17749 C 1612.61 -0.5757 -3.33873 0
M  V30 17750 C 1611.17 -0.239799 -3.75635 0
M  V30 17751 C 1610.32 -0.850552 -2.63934 0
M  V30 17752 H 1613.27 -0.910118 -1.3001 0
M  V30 17753 H 1613.29 0.160707 -3.8016 0
M  V30 17754 H 1612.8 -1.64166 -3.51669 0
M  V30 17755 H 1610.9 0.821297 -3.63436 0
M  V30 17756 H 1611.02 -0.705306 -4.7388 0
M  V30 17757 H 1609.38 -0.278977 -2.53168 0
M  V30 17758 H 1610.16 -1.92068 -2.84543 0
M  V30 17759 N 1612.61 1.50847 -0.456408 0
M  V30 17760 C 1613.54 2.31077 0.335523 0
M  V30 17761 C 1614.52 1.37326 1.00377 0
M  V30 17762 O 1615.7 1.66247 1.00376 0
M  V30 17763 C 1612.83 3.16662 1.42627 0
M  V30 17764 C 1611.79 4.18846 0.88045 0
M  V30 17765 C 1611.11 4.93074 2.06838 0
M  V30 17766 C 1612.41 5.22208 -0.0982288 0
M  V30 17767 H 1614.11 2.97531 -0.334056 0
M  V30 17768 H 1611.65 1.43085 -0.162099 0
M  V30 17769 H 1613.61 3.71578 1.98765 0
M  V30 17770 H 1612.33 2.48066 2.12441 0
M  V30 17771 H 1610.99 3.65009 0.341147 0
M  V30 17772 H 1610.64 4.20963 2.75316 0
M  V30 17773 H 1610.34 5.62184 1.70947 0
M  V30 17774 H 1611.86 5.5082 2.63494 0
M  V30 17775 H 1613.28 5.72082 0.373481 0
M  V30 17776 H 1611.67 5.98954 -0.370674 0
M  V30 17777 H 1612.74 4.73859 -1.02887 0
M  V30 17778 N 1614.09 0.188454 1.56469 0
M  V30 17779 C 1615.02 -0.774203 2.14666 0
M  V30 17780 C 1616 -1.21419 1.08149 0
M  V30 17781 O 1617.18 -1.30289 1.36224 0
M  V30 17782 C 1614.31 -2.04474 2.70015 0
M  V30 17783 C 1613.35 -1.74741 3.8906 0
M  V30 17784 S 1614.19 -0.901409 5.27859 0
M  V30 17785 C 1615.34 -2.18223 5.86626 0
M  V30 17786 H 1615.58 -0.279452 2.95984 0
M  V30 17787 H 1613.11 -0.0264561 1.54377 0
M  V30 17788 H 1615.07 -2.77442 3.0255 0
M  V30 17789 H 1613.73 -2.51061 1.88751 0
M  V30 17790 H 1612.92 -2.69055 4.26175 0
M  V30 17791 H 1612.52 -1.09858 3.57501 0
M  V30 17792 H 1614.81 -3.13538 6.00583 0
M  V30 17793 H 1615.76 -1.85551 6.83357 0
M  V30 17794 H 1616.17 -2.30766 5.15177 0
M  V30 17795 N 1615.56 -1.5737 -0.0851874 0
M  V30 17796 C 1616.79 -1.90525 -0.798977 0
M  V30 17797 C 1617.2 -0.781347 -1.72313 0
M  V30 17798 O 1616.54 0.255036 -1.81921 0
M  V30 17799 C 1616.61 -3.19027 -1.65716 0
M  V30 17800 C 1616.27 -4.47974 -0.903795 0
M  V30 17801 C 1617.27 -5.19395 -0.229094 0
M  V30 17802 C 1614.95 -4.94621 -0.874937 0
M  V30 17803 C 1616.95 -6.35706 0.464385 0
M  V30 17804 C 1614.63 -6.10842 -0.177678 0
M  V30 17805 C 1615.63 -6.81234 0.490795 0
M  V30 17806 O 1615.32 -7.95239 1.17685 0
M  V30 17807 H 1615.05 -0.634533 -0.233119 0
M  V30 17808 H 1617.61 -2.05301 -0.0638265 0
M  V30 17809 H 1615.84 -3.00425 -2.43479 0
M  V30 17810 H 1617.52 -3.37937 -2.24841 0
M  V30 17811 H 1618.29 -4.84392 -0.242783 0
M  V30 17812 H 1614.17 -4.39712 -1.3847 0
M  V30 17813 H 1617.71 -6.90586 0.986719 0
M  V30 17814 H 1613.61 -6.45297 -0.16187 0
M  V30 17815 H 1614.38 -8.1128 1.08476 0
M  V30 17816 N 1617.04 0.356258 -1.53521 0
M  V30 17817 C 1617.99 1.45718 -1.81298 0
M  V30 17818 C 1618.98 1.55036 -0.682652 0
M  V30 17819 O 1620.19 1.57812 -0.865766 0
M  V30 17820 H 1616.56 0.485614 -0.57418 0
M  V30 17821 H 1618.54 1.19498 -2.73428 0
M  V30 17822 C 1617.28 2.82424 -2.0281 0
M  V30 17823 H 1616.61 2.76016 -2.89232 0
M  V30 17824 H 1618.05 3.5861 -2.26218 0
M  V30 17825 C 1616.51 3.2702 -0.809893 0
M  V30 17826 O 1617.04 4.017 -0.00310668 0
M  V30 17827 N 1615.24 2.83673 -0.630696 0
M  V30 17828 H 1614.79 2.23066 -1.28839 0
M  V30 17829 H 1614.75 3.13867 0.182961 0
M  V30 17830 N 1618.52 1.45038 0.616577 0
M  V30 17831 C 1619.47 1.53022 1.7278 0
M  V30 17832 C 1620.44 0.376778 1.6177 0
M  V30 17833 O 1621.62 0.589006 1.81481 0
M  V30 17834 C 1618.76 1.49432 3.11069 0
M  V30 17835 C 1617.87 2.7526 3.3295 0
M  V30 17836 C 1617.01 2.63403 4.61294 0
M  V30 17837 C 1616.05 3.84327 4.76402 0
M  V30 17838 N 1615.19 3.71058 5.96037 0
M  V30 17839 H 1620.03 2.47957 1.65292 0
M  V30 17840 H 1617.56 1.23046 0.806102 0
M  V30 17841 H 1619.52 1.45339 3.91066 0
M  V30 17842 H 1618.15 0.580542 3.17537 0
M  V30 17843 H 1617.2 2.89479 2.46792 0
M  V30 17844 H 1618.51 3.64978 3.39989 0
M  V30 17845 H 1617.67 2.57226 5.49472 0
M  V30 17846 H 1616.41 1.7127 4.56638 0
M  V30 17847 H 1615.41 3.90873 3.8665 0
M  V30 17848 H 1616.64 4.77515 4.82863 0
M  V30 17849 H 1614.58 2.81687 5.92443 0
M  V30 17850 H 1614.5 4.54403 6.04197 0
M  V30 17851 H 1615.77 3.68798 6.86738 0
M  V30 17852 N 1620 -0.858287 1.32179 0
M  V30 17853 C 1620.91 -1.99894 1.228 0
M  V30 17854 C 1621.92 -1.73417 0.142323 0
M  V30 17855 O 1623.1 -1.98114 0.362321 0
M  V30 17856 C 1620.16 -3.33495 0.947745 0
M  V30 17857 C 1619.23 -3.73217 2.12149 0
M  V30 17858 C 1618.46 -5.00443 1.85452 0
M  V30 17859 O 1618.68 -5.64828 0.79531 0
M  V30 17860 O 1617.62 -5.3721 2.71457 0
M  V30 17861 H 1621.44 -2.10742 2.18682 0
M  V30 17862 H 1619.03 -0.988385 1.12033 0
M  V30 17863 H 1620.91 -4.13585 0.807791 0
M  V30 17864 H 1619.58 -3.23694 0.019053 0
M  V30 17865 H 1618.49 -2.93718 2.3169 0
M  V30 17866 H 1619.82 -3.87659 3.03285 0
M  V30 17867 N 1621.48 -1.1533 -1.07409 0
M  V30 17868 C 1622.71 -0.950263 -1.83449 0
M  V30 17869 C 1623.11 0.504761 -1.82343 0
M  V30 17870 O 1622.46 1.36183 -1.23287 0
M  V30 17871 C 1622.52 -1.38651 -3.31687 0
M  V30 17872 C 1622.18 -2.85914 -3.56514 0
M  V30 17873 C 1623.18 -3.83981 -3.50506 0
M  V30 17874 C 1620.86 -3.23568 -3.84199 0
M  V30 17875 C 1622.86 -5.17707 -3.71831 0
M  V30 17876 C 1620.55 -4.57467 -4.05175 0
M  V30 17877 C 1621.54 -5.54345 -3.98986 0
M  V30 17878 O 1621.23 -6.85826 -4.19403 0
M  V30 17879 H 1620.96 -0.337616 -0.585655 0
M  V30 17880 H 1623.52 -1.53489 -1.36493 0
M  V30 17881 H 1621.75 -0.745282 -3.7945 0
M  V30 17882 H 1623.44 -1.15267 -3.89189 0
M  V30 17883 H 1624.2 -3.56237 -3.29121 0
M  V30 17884 H 1620.08 -2.48748 -3.88131 0
M  V30 17885 H 1623.63 -5.93311 -3.66916 0
M  V30 17886 H 1619.52 -4.84927 -4.26047 0
M  V30 17887 H 1620.29 -6.92235 -4.36753 0
M  V30 17888 N 1622.95 1.25748 -0.950004 0
M  V30 17889 C 1624.18 1.97127 -0.618432 0
M  V30 17890 C 1624.59 1.70855 0.81272 0
M  V30 17891 O 1623.93 0.978581 1.55465 0
M  V30 17892 C 1624 3.50678 -0.791546 0
M  V30 17893 C 1623.66 4.00617 -2.19899 0
M  V30 17894 C 1624.66 4.11672 -3.17525 0
M  V30 17895 C 1622.34 4.34401 -2.52193 0
M  V30 17896 C 1624.34 4.55818 -4.45543 0
M  V30 17897 C 1622.02 4.78234 -3.80441 0
M  V30 17898 C 1623.02 4.88905 -4.76929 0
M  V30 17899 O 1622.71 5.31768 -6.02891 0
M  V30 17900 H 1622.44 0.635248 -0.231163 0
M  V30 17901 H 1625 1.60997 -1.2755 0
M  V30 17902 H 1623.23 3.86623 -0.0773298 0
M  V30 17903 H 1624.91 4.03265 -0.461719 0
M  V30 17904 H 1625.68 3.85807 -2.93901 0
M  V30 17905 H 1621.56 4.25324 -1.77821 0
M  V30 17906 H 1625.1 4.64062 -5.20857 0
M  V30 17907 H 1621 5.03543 -4.03874 0
M  V30 17908 H 1621.77 5.49966 -6.06201 0
M  V30 17909 N 1624.43 0.718038 1.40292 0
M  V30 17910 C 1625.36 0.0160994 2.28194 0
M  V30 17911 C 1626.34 -0.765159 1.43472 0
M  V30 17912 O 1627.53 -0.751283 1.72881 0
M  V30 17913 C 1624.65 -0.984558 3.24074 0
M  V30 17914 C 1623.7 -0.293817 4.25487 0
M  V30 17915 S 1624.53 0.980059 5.26455 0
M  V30 17916 C 1625.69 -0.0184326 6.25897 0
M  V30 17917 H 1625.92 0.761585 2.8738 0
M  V30 17918 H 1623.45 0.509158 1.45763 0
M  V30 17919 H 1625.41 -1.55667 3.7984 0
M  V30 17920 H 1624.07 -1.70276 2.63941 0
M  V30 17921 H 1623.27 -1.05037 4.92933 0
M  V30 17922 H 1622.87 0.205802 3.73433 0
M  V30 17923 H 1625.16 -0.864464 6.71962 0
M  V30 17924 H 1626.1 0.622712 7.05357 0
M  V30 17925 H 1626.51 -0.383254 5.63197 0
M  V30 17926 N 1625.91 -1.50602 0.464402 0
M  V30 17927 C 1627.16 -2.02287 -0.0928919 0
M  V30 17928 C 1627.49 -1.34685 -1.40321 0
M  V30 17929 O 1626.74 -0.459304 -1.90234 0
M  V30 17930 C 1627.04 -3.55859 -0.331507 0
M  V30 17931 C 1626.71 -4.41902 0.896292 0
M  V30 17932 C 1625.37 -4.65137 1.23294 0
M  V30 17933 C 1627.72 -4.92208 1.71409 0
M  V30 17934 C 1625.05 -5.35922 2.38757 0
M  V30 17935 C 1627.4 -5.6426 2.85995 0
M  V30 17936 C 1626.06 -5.85751 3.20082 0
M  V30 17937 H 1625.33 -0.74022 -0.0339916 0
M  V30 17938 H 1627.98 -1.81284 0.61712 0
M  V30 17939 H 1626.29 -3.7534 -1.1237 0
M  V30 17940 H 1627.98 -3.93409 -0.776566 0
M  V30 17941 H 1624.57 -4.24033 0.624007 0
M  V30 17942 H 1628.76 -4.74117 1.46719 0
M  V30 17943 H 1624.01 -5.50769 2.65449 0
M  V30 17944 H 1628.19 -6.02223 3.49714 0
M  V30 17945 H 1625.81 -6.40377 4.09659 0
M  V30 17946 N 1627.39 -0.19675 -1.56367 0
M  V30 17947 C 1628.34 0.740138 -2.2051 0
M  V30 17948 C 1629.33 1.21854 -1.17677 0
M  V30 17949 O 1630.54 1.18124 -1.35819 0
M  V30 17950 H 1626.91 0.257034 -0.706709 0
M  V30 17951 H 1628.88 0.175454 -2.97884 0
M  V30 17952 C 1627.63 1.94841 -2.8798 0
M  V30 17953 H 1626.95 1.58936 -3.66851 0
M  V30 17954 H 1628.39 2.58227 -3.36296 0
M  V30 17955 C 1626.85 2.78821 -1.89104 0
M  V30 17956 O 1627.38 3.76797 -1.39237 0
M  V30 17957 N 1625.59 2.44348 -1.57297 0
M  V30 17958 H 1625.14 1.64732 -1.98043 0
M  V30 17959 H 1625.09 3.00822 -0.913978 0
M  V30 17960 N 1628.87 1.57413 0.0768405 0
M  V30 17961 C 1629.83 2.02363 1.0762 0
M  V30 17962 C 1630.83 0.919879 1.3189 0
M  V30 17963 O 1632.02 1.18489 1.27695 0
M  V30 17964 C 1629.15 2.39995 2.42106 0
M  V30 17965 H 1630.34 2.91881 0.688889 0
M  V30 17966 H 1627.9 1.52938 0.322422 0
M  V30 17967 H 1628.63 1.53488 2.85678 0
M  V30 17968 H 1628.42 3.20534 2.25833 0
M  V30 17969 H 1629.91 2.75365 3.13948 0
M  V30 17970 N 1630.34 -0.348112 1.53707 0
M  V30 17971 C 1631.59 -1.08671 1.70396 0
M  V30 17972 C 1631.91 -1.89314 0.467453 0
M  V30 17973 O 1631.18 -1.88911 -0.518605 0
M  V30 17974 H 1629.76 -0.404186 0.628206 0
M  V30 17975 H 1632.43 -0.390491 1.90948 0
M  V30 17976 H 1631.52 -1.76668 2.57284 0
M  V30 17977 N 1631.82 -1.45363 -0.608876 0
M  V30 17978 C 1632.77 -1.54268 -1.7408 0
M  V30 17979 C 1633.76 -0.412752 -1.64295 0
M  V30 17980 O 1634.97 -0.58861 -1.70104 0
M  V30 17981 H 1631.35 -0.484528 -0.575097 0
M  V30 17982 H 1633.32 -2.49492 -1.63696 0
M  V30 17983 C 1632.07 -1.5253 -3.12458 0
M  V30 17984 H 1631.39 -2.38801 -3.20646 0
M  V30 17985 H 1632.83 -1.62819 -3.91492 0
M  V30 17986 C 1631.29 -0.249525 -3.35975 0
M  V30 17987 O 1631.82 0.671159 -3.96053 0
M  V30 17988 N 1630.02 -0.145625 -2.90235 0
M  V30 17989 H 1629.57 -0.895714 -2.41526 0
M  V30 17990 H 1629.53 0.707167 -3.06344 0
M  V30 17991 N 1633.3 0.851265 -1.32632 0
M  V30 17992 C 1634.25 1.96012 -1.21852 0
M  V30 17993 C 1635.22 1.65799 -0.0999141 0
M  V30 17994 O 1636.4 1.88793 -0.276049 0
M  V30 17995 C 1633.54 3.31737 -0.951014 0
M  V30 17996 C 1632.66 3.74427 -2.15472 0
M  V30 17997 C 1631.79 4.9896 -1.82242 0
M  V30 17998 C 1630.83 5.3415 -2.98914 0
M  V30 17999 N 1629.97 6.49861 -2.65754 0
M  V30 18000 H 1634.81 2.04565 -2.16696 0
M  V30 18001 H 1632.34 1.00119 -1.07771 0
M  V30 18002 H 1634.3 4.09912 -0.776401 0
M  V30 18003 H 1632.93 3.22776 -0.0393461 0
M  V30 18004 H 1631.98 2.91878 -2.4395 0
M  V30 18005 H 1633.3 3.96425 -3.02736 0
M  V30 18006 H 1632.45 5.84851 -1.61352 0
M  V30 18007 H 1631.19 4.78906 -0.921971 0
M  V30 18008 H 1630.19 4.4677 -3.20432 0
M  V30 18009 H 1631.42 5.5616 -3.89696 0
M  V30 18010 H 1629.36 6.31317 -1.78254 0
M  V30 18011 H 1629.28 6.71894 -3.46547 0
M  V30 18012 H 1630.55 7.38895 -2.48302 0
M  V30 18013 N 1634.78 1.15898 1.06796 0
M  V30 18014 C 1635.73 0.856808 2.16244 0
M  V30 18015 C 1636.72 -0.172075 1.68524 0
M  V30 18016 O 1637.93 -0.0265569 1.7998 0
M  V30 18017 H 1634.3 0.259445 0.705827 0
M  V30 18018 H 1636.27 1.7874 2.38945 0
M  V30 18019 C 1635.02 0.368721 3.45739 0
M  V30 18020 H 1634.34 1.15184 3.82848 0
M  V30 18021 H 1635.78 0.196012 4.23547 0
M  V30 18022 C 1634.24 -0.910802 3.24355 0
M  V30 18023 O 1634.77 -1.98115 3.49447 0
M  V30 18024 N 1632.98 -0.852545 2.77813 0
M  V30 18025 H 1632.53 0.0186646 2.57593 0
M  V30 18026 H 1632.48 -1.70917 2.63884 0
M  V30 18027 N 1636.26 -1.25243 0.956659 0
M  V30 18028 C 1637.48 -1.97621 0.629337 0
M  V30 18029 C 1637.91 -1.70606 -0.792158 0
M  V30 18030 O 1637.26 -0.963192 -1.53598 0
M  V30 18031 C 1637.31 -3.49273 0.896687 0
M  V30 18032 O 1636.42 -4.12393 -0.0234986 0
M  V30 18033 H 1635.76 -0.619472 0.239061 0
M  V30 18034 H 1638.29 -1.5931 1.28381 0
M  V30 18035 H 1638.3 -3.99597 0.82377 0
M  V30 18036 H 1636.97 -3.68265 1.93271 0
M  V30 18037 H 1635.55 -3.72761 0.101796 0
M  V30 18038 N 1637.73 -0.725468 -1.3991 0
M  V30 18039 C 1638.96 -0.278797 -2.0471 0
M  V30 18040 C 1639.37 1.08796 -1.54791 0
M  V30 18041 O 1638.72 1.69685 -0.703763 0
M  V30 18042 C 1638.78 -0.191732 -3.58988 0
M  V30 18043 C 1638.44 -1.49539 -4.31842 0
M  V30 18044 C 1639.44 -2.43925 -4.59126 0
M  V30 18045 C 1637.12 -1.75705 -4.70567 0
M  V30 18046 C 1639.12 -3.62717 -5.24133 0
M  V30 18047 C 1636.8 -2.94776 -5.35304 0
M  V30 18048 C 1637.8 -3.88104 -5.62018 0
M  V30 18049 O 1637.49 -5.05085 -6.25415 0
M  V30 18050 H 1637.22 -0.121262 -0.665035 0
M  V30 18051 H 1639.78 -0.987188 -1.80122 0
M  V30 18052 H 1638.01 0.572683 -3.82436 0
M  V30 18053 H 1639.7 0.22168 -4.05294 0
M  V30 18054 H 1640.46 -2.24977 -4.29663 0
M  V30 18055 H 1636.34 -1.03912 -4.49136 0
M  V30 18056 H 1639.88 -4.35579 -5.44901 0
M  V30 18057 H 1635.78 -3.13629 -5.64187 0
M  V30 18058 H 1636.55 -5.05294 -6.4391 0
M  V30 18059 N 1639.21 1.50354 -0.472382 0
M  V30 18060 C 1640.46 2.01526 0.0838536 0
M  V30 18061 C 1640.77 1.35913 1.40667 0
M  V30 18062 O 1641.98 1.78248 2.04792 0
M  V30 18063 C 1640.44 3.59344 0.199949 0
M  V30 18064 C 1640.04 4.33916 -1.11451 0
M  V30 18065 C 1641.79 4.18553 0.708075 0
M  V30 18066 C 1639.7 5.83521 -0.962138 0
M  V30 18067 H 1638.63 0.753182 0.0351127 0
M  V30 18068 H 1641.28 1.73153 -0.607474 0
M  V30 18069 H 1639.66 3.8431 0.955088 0
M  V30 18070 H 1640.83 4.20673 -1.8807 0
M  V30 18071 H 1639.15 3.86322 -1.55385 0
M  V30 18072 H 1641.74 5.28075 0.839126 0
M  V30 18073 H 1642.09 3.80019 1.69973 0
M  V30 18074 H 1642.62 3.97799 0.0102847 0
M  V30 18075 H 1639.36 6.26529 -1.9272 0
M  V30 18076 H 1638.88 5.99334 -0.236348 0
M  V30 18077 H 1640.56 6.43933 -0.629276 0
M  V30 18078 N 1640.69 0.205039 1.56261 0
M  V30 18079 C 1641.64 -0.711828 2.19549 0
M  V30 18080 C 1642.61 -1.2025 1.14582 0
M  V30 18081 O 1643.79 -1.26459 1.42873 0
M  V30 18082 C 1640.93 -1.92152 2.86656 0
M  V30 18083 C 1640.05 -1.47129 4.06174 0
M  V30 18084 C 1639.18 -2.63726 4.6111 0
M  V30 18085 C 1638.22 -2.15357 5.72964 0
M  V30 18086 N 1637.36 -3.25167 6.22263 0
M  V30 18087 H 1642.2 -0.165392 2.97541 0
M  V30 18088 H 1639.73 -0.0698889 1.46934 0
M  V30 18089 H 1641.69 -2.63152 3.23739 0
M  V30 18090 H 1640.32 -2.4411 2.11211 0
M  V30 18091 H 1639.37 -0.656797 3.74687 0
M  V30 18092 H 1640.69 -1.0765 4.87045 0
M  V30 18093 H 1639.84 -3.42833 5.0055 0
M  V30 18094 H 1638.58 -3.06484 3.79367 0
M  V30 18095 H 1637.58 -1.34706 5.33043 0
M  V30 18096 H 1638.81 -1.73618 6.56532 0
M  V30 18097 H 1636.76 -3.67438 5.43439 0
M  V30 18098 H 1636.67 -2.89888 6.98213 0
M  V30 18099 H 1637.94 -4.0446 6.66358 0
M  V30 18100 N 1642.17 -1.57451 -0.0684915 0
M  V30 18101 C 1643.1 -2.06954 -1.0813 0
M  V30 18102 C 1644.08 -0.963716 -1.40166 0
M  V30 18103 O 1645.27 -1.23664 -1.49736 0
M  V30 18104 C 1642.4 -2.51622 -2.39381 0
M  V30 18105 C 1641.35 -3.66111 -2.2169 0
M  V30 18106 C 1640.68 -3.96846 -3.58354 0
M  V30 18107 C 1641.98 -4.96036 -1.63541 0
M  V30 18108 H 1643.67 -2.91822 -0.66936 0
M  V30 18109 H 1641.22 -1.40387 -0.320533 0
M  V30 18110 H 1643.17 -2.84867 -3.1053 0
M  V30 18111 H 1641.89 -1.63788 -2.82562 0
M  V30 18112 H 1640.55 -3.33155 -1.52982 0
M  V30 18113 H 1640.2 -3.06137 -3.9911 0
M  V30 18114 H 1639.9 -4.73939 -3.47354 0
M  V30 18115 H 1641.42 -4.3259 -4.30927 0
M  V30 18116 H 1642.84 -5.27491 -2.24559 0
M  V30 18117 H 1641.23 -5.77474 -1.63228 0
M  V30 18118 H 1642.3 -4.81208 -0.597199 0
M  V30 18119 N 1643.65 0.339955 -1.5389 0
M  V30 18120 C 1644.59 1.41765 -1.8213 0
M  V30 18121 C 1645.56 1.52109 -0.667235 0
M  V30 18122 O 1646.75 1.67591 -0.91203 0
M  V30 18123 C 1643.89 2.78366 -2.03977 0
M  V30 18124 C 1643 2.76785 -3.31684 0
M  V30 18125 C 1642.14 4.05125 -3.4358 0
M  V30 18126 C 1641.18 3.97787 -4.65223 0
M  V30 18127 N 1640.31 5.17825 -4.74133 0
M  V30 18128 H 1645.15 1.16984 -2.74078 0
M  V30 18129 H 1642.69 0.566618 -1.35749 0
M  V30 18130 H 1644.65 3.57755 -2.14633 0
M  V30 18131 H 1643.28 3.01491 -1.15338 0
M  V30 18132 H 1642.33 1.89481 -3.2985 0
M  V30 18133 H 1643.64 2.67241 -4.2117 0
M  V30 18134 H 1642.8 4.9294 -3.53688 0
M  V30 18135 H 1641.54 4.17455 -2.52157 0
M  V30 18136 H 1640.54 3.08357 -4.55188 0
M  V30 18137 H 1641.77 3.87037 -5.58014 0
M  V30 18138 H 1639.71 5.30691 -3.8562 0
M  V30 18139 H 1639.63 5.10552 -5.5756 0
M  V30 18140 H 1640.9 6.074 -4.88554 0
M  V30 18141 N 1645.13 1.45684 0.601159 0
M  V30 18142 C 1646.07 1.54846 1.71147 0
M  V30 18143 C 1647.04 0.393914 1.61361 0
M  V30 18144 O 1648.23 0.608222 1.80846 0
M  V30 18145 C 1645.37 1.52723 3.09467 0
M  V30 18146 C 1644.48 2.78776 3.30012 0
M  V30 18147 C 1643.62 2.68281 4.58474 0
M  V30 18148 C 1642.65 3.89358 4.72299 0
M  V30 18149 N 1641.79 3.77359 5.92068 0
M  V30 18150 H 1646.63 2.49696 1.62653 0
M  V30 18151 H 1644.17 1.23894 0.793006 0
M  V30 18152 H 1646.13 1.49479 3.89502 0
M  V30 18153 H 1644.76 0.614189 3.16903 0
M  V30 18154 H 1643.81 2.9208 2.43708 0
M  V30 18155 H 1645.12 3.68563 3.36099 0
M  V30 18156 H 1644.27 2.63039 5.46713 0
M  V30 18157 H 1643.01 1.76103 4.54795 0
M  V30 18158 H 1642.02 3.94952 3.82482 0
M  V30 18159 H 1643.24 4.82609 4.77771 0
M  V30 18160 H 1641.19 2.87955 5.89422 0
M  V30 18161 H 1641.11 4.60786 5.99343 0
M  V30 18162 H 1642.37 3.76061 6.82787 0
M  V30 18163 N 1646.6 -0.84422 1.33082 0
M  V30 18164 C 1647.88 -1.58339 1.1484 0
M  V30 18165 C 1648.26 -2.09136 -0.287273 0
M  V30 18166 O 1647.61 -1.8891 -1.2855 0
M  V30 18167 C 1647.82 -2.72141 2.18496 0
M  V30 18168 C 1649.17 -3.41457 2.52373 0
M  V30 18169 O 1650.19 -2.82377 2.17122 0
M  V30 18170 O 1649.05 -4.48096 3.12845 0
M  V30 18171 H 1646.14 -0.697813 0.443831 0
M  V30 18172 H 1648.69 -0.88744 1.44646 0
M  V30 18173 H 1647.46 -2.32206 3.14954 0
M  V30 18174 H 1647.08 -3.49404 1.89744 0
M  V30 18175 N 1648.08 -1.16463 -1.0618 0
M  V30 18176 C 1649.31 -0.97159 -1.83235 0
M  V30 18177 C 1649.73 0.475295 -1.81996 0
M  V30 18178 O 1649.09 1.33964 -1.22161 0
M  V30 18179 C 1649.14 -1.50504 -3.2769 0
M  V30 18180 O 1648.24 -0.712128 -4.06205 0
M  V30 18181 H 1647.58 -0.345676 -0.566925 0
M  V30 18182 H 1650.11 -1.54727 -1.33868 0
M  V30 18183 H 1650.12 -1.52301 -3.78508 0
M  V30 18184 H 1648.8 -2.55832 -3.27907 0
M  V30 18185 H 1647.37 -0.764756 -3.64974 0
M  V30 18186 N 1649.56 1.24734 -0.963288 0
M  V30 18187 C 1650.97 1.7456 -0.662246 0
M  V30 18188 C 1651.32 1.78143 0.822169 0
M  V30 18189 O 1650.45 1.40794 1.64335 0
M  V30 18190 C 1651.04 3.1701 -1.19542 0
M  V30 18191 C 1649.6 3.64361 -0.944371 0
M  V30 18192 C 1648.75 2.4314 -1.33335 0
M  V30 18193 H 1651.7 1.10498 -1.13911 0
M  V30 18194 H 1651.72 3.76362 -0.559601 0
M  V30 18195 H 1651.23 3.1437 -2.27581 0
M  V30 18196 H 1649.33 3.72405 0.120682 0
M  V30 18197 H 1649.45 4.52055 -1.58692 0
M  V30 18198 H 1647.81 2.43354 -0.751729 0
M  V30 18199 H 1648.59 2.43185 -2.42314 0
M  V30 18200 N 1651.04 0.732878 1.39523 0
M  V30 18201 C 1652.28 0.280305 2.00854 0
M  V30 18202 C 1652.62 -1.12891 1.58017 0
M  V30 18203 O 1651.89 -1.76919 0.808086 0
M  V30 18204 C 1652.17 0.37978 3.58092 0
M  V30 18205 C 1652.03 1.82861 4.10953 0
M  V30 18206 C 1653.35 -0.239026 4.3945 0
M  V30 18207 H 1650.47 0.103326 0.729721 0
M  V30 18208 H 1653.11 0.928634 1.6576 0
M  V30 18209 H 1651.26 -0.172198 3.88118 0
M  V30 18210 H 1652.93 2.4373 3.91655 0
M  V30 18211 H 1651.17 2.35064 3.64592 0
M  V30 18212 H 1651.84 1.84949 5.20094 0
M  V30 18213 H 1654.32 0.231488 4.15456 0
M  V30 18214 H 1653.2 -0.139068 5.48724 0
M  V30 18215 H 1653.46 -1.32481 4.21783 0
M  V30 18216 N 1652.52 -1.50101 0.480349 0
M  V30 18217 C 1653.76 -2.01974 -0.0712904 0
M  V30 18218 C 1654.08 -1.36377 -1.39378 0
M  V30 18219 O 1653.35 -0.512162 -1.89087 0
M  V30 18220 H 1651.93 -0.746424 -0.0293362 0
M  V30 18221 H 1654.6 -1.84338 0.632883 0
M  V30 18222 H 1653.69 -3.11351 -0.216057 0
M  V30 18223 N 1653.99 -0.213323 -1.5615 0
M  V30 18224 C 1654.9 0.711703 -2.23544 0
M  V30 18225 C 1655.92 1.22027 -1.24038 0
M  V30 18226 O 1657.1 1.26361 -1.56828 0
M  V30 18227 C 1654.16 1.90645 -2.89578 0
M  V30 18228 C 1653.22 1.44066 -4.04405 0
M  V30 18229 C 1652.45 2.57846 -4.6728 0
M  V30 18230 O 1652.68 3.75781 -4.29121 0
M  V30 18231 O 1651.61 2.29518 -5.56422 0
M  V30 18232 H 1655.44 0.167635 -3.03237 0
M  V30 18233 H 1653.02 0.016771 -1.49391 0
M  V30 18234 H 1654.9 2.60435 -3.31288 0
M  V30 18235 H 1653.58 2.43877 -2.12851 0
M  V30 18236 H 1652.49 0.711024 -3.67281 0
M  V30 18237 H 1653.82 0.954809 -4.8285 0
M  V30 18238 N 1655.47 1.57485 0.0601405 0
M  V30 18239 C 1656.72 1.86998 0.75595 0
M  V30 18240 C 1657.03 0.807616 1.78149 0
M  V30 18241 O 1658.24 0.99096 2.52769 0
M  V30 18242 C 1656.7 3.31746 1.39545 0
M  V30 18243 C 1656.3 4.46139 0.407874 0
M  V30 18244 C 1658.05 3.70445 2.07294 0
M  V30 18245 C 1655.96 5.81933 1.05395 0
M  V30 18246 H 1654.89 0.697619 0.286083 0
M  V30 18247 H 1657.54 1.83498 0.00948593 0
M  V30 18248 H 1655.92 3.29894 2.19057 0
M  V30 18249 H 1657.09 4.59405 -0.358281 0
M  V30 18250 H 1655.41 4.1607 -0.16581 0
M  V30 18251 H 1658 4.692 2.56428 0
M  V30 18252 H 1658.35 3.00839 2.87753 0
M  V30 18253 H 1658.88 3.74337 1.34598 0
M  V30 18254 H 1655.62 6.54861 0.289437 0
M  V30 18255 H 1655.14 5.72446 1.79068 0
M  V30 18256 H 1656.82 6.27652 1.5704 0
M  V30 18257 N 1656.95 -0.331789 1.54068 0
M  V30 18258 C 1657.88 -1.41332 1.8587 0
M  V30 18259 C 1658.86 -1.54353 0.714787 0
M  V30 18260 O 1660.05 -1.68368 0.967777 0
M  V30 18261 C 1657.18 -2.78218 2.07875 0
M  V30 18262 C 1656.13 -2.79994 3.23709 0
M  V30 18263 C 1655.46 -4.19878 3.31069 0
M  V30 18264 C 1656.76 -2.44476 4.6155 0
M  V30 18265 H 1658.45 -1.14966 2.76447 0
M  V30 18266 H 1656 -0.551615 1.33016 0
M  V30 18267 H 1657.95 -3.53937 2.28706 0
M  V30 18268 H 1656.67 -3.06044 1.14038 0
M  V30 18269 H 1655.33 -2.0673 3.02751 0
M  V30 18270 H 1654.98 -4.44831 2.34807 0
M  V30 18271 H 1654.68 -4.21974 4.08915 0
M  V30 18272 H 1656.2 -4.97421 3.54125 0
M  V30 18273 H 1657.62 -3.09908 4.82317 0
M  V30 18274 H 1656.02 -2.57837 5.41886 0
M  V30 18275 H 1657.09 -1.3964 4.64358 0
M  V30 18276 N 1658.43 -1.46001 -0.593424 0
M  V30 18277 C 1659.66 -1.54307 -1.3783 0
M  V30 18278 C 1660.07 -0.18048 -1.87935 0
M  V30 18279 O 1659.43 0.820427 -1.63019 0
M  V30 18280 C 1659.48 -2.53911 -2.57316 0
M  V30 18281 O 1659.2 -3.84876 -2.09289 0
M  V30 18282 C 1660.7 -2.72054 -3.50002 0
M  V30 18283 H 1657.92 -0.522149 -0.421428 0
M  V30 18284 H 1660.47 -1.91315 -0.722423 0
M  V30 18285 H 1658.62 -2.19937 -3.18915 0
M  V30 18286 H 1659.03 -4.38996 -2.87025 0
M  V30 18287 H 1660.51 -3.45692 -4.3035 0
M  V30 18288 H 1660.99 -1.78583 -4.01254 0
M  V30 18289 H 1661.59 -3.07082 -2.94246 0
M  V30 18290 N 1659.91 0.83715 -1.33527 0
M  V30 18291 C 1661.32 1.12809 -1.12899 0
M  V30 18292 C 1661.52 2.01345 0.0789761 0
M  V30 18293 O 1660.58 2.40831 0.758732 0
M  V30 18294 C 1661.89 1.78852 -2.41728 0
M  V30 18295 C 1663.44 1.91411 -2.47651 0
M  V30 18296 C 1663.91 2.6087 -3.76445 0
M  V30 18297 N 1665.41 2.68381 -3.77526 0
M  V30 18298 C 1666.14 3.22819 -4.73894 0
M  V30 18299 N 1665.64 3.77931 -5.80638 0
M  V30 18300 N 1667.43 3.21087 -4.61367 0
M  V30 18301 H 1659.58 0.247942 -2.10948 0
M  V30 18302 H 1661.84 0.172518 -0.93217 0
M  V30 18303 H 1661.55 1.21258 -3.30135 0
M  V30 18304 H 1661.42 2.78856 -2.54006 0
M  V30 18305 H 1663.81 2.48159 -1.59691 0
M  V30 18306 H 1663.89 0.903512 -2.39312 0
M  V30 18307 H 1663.54 2.0478 -4.64787 0
M  V30 18308 H 1663.47 3.62404 -3.82061 0
M  V30 18309 H 1665.96 2.29301 -3.00382 0
M  V30 18310 H 1666.27 4.17678 -6.50204 0
M  V30 18311 H 1664.61 3.76214 -5.8437 0
M  V30 18312 H 1667.81 2.7729 -3.77131 0
M  V30 18313 H 1667.98 3.6321 -5.3664 0
M  V30 18314 N 1661.38 1.17024 1.05561 0
M  V30 18315 C 1662.61 0.981293 1.82717 0
M  V30 18316 C 1663.03 -0.465636 1.82246 0
M  V30 18317 O 1662.39 -1.33315 1.22869 0
M  V30 18318 C 1662.44 1.52239 3.26888 0
M  V30 18319 O 1661.54 0.73366 4.05822 0
M  V30 18320 H 1660.89 0.348677 0.565084 0
M  V30 18321 H 1663.42 1.55435 1.33046 0
M  V30 18322 H 1663.43 1.54306 3.77695 0
M  V30 18323 H 1662.1 2.57567 3.26545 0
M  V30 18324 H 1660.68 0.784101 3.64563 0
M  V30 18325 N 1662.86 -1.24221 0.969889 0
M  V30 18326 C 1663.81 -2.25292 0.501215 0
M  V30 18327 C 1664.78 -1.59764 -0.454382 0
M  V30 18328 O 1665.96 -1.87291 -0.364261 0
M  V30 18329 C 1663.1 -3.44518 -0.200361 0
M  V30 18330 C 1662.22 -4.24636 0.79426 0
M  V30 18331 C 1661.35 -5.31156 0.068568 0
M  V30 18332 C 1660.39 -6.02973 1.05311 0
M  V30 18333 N 1659.53 -7.0119 0.357274 0
M  V30 18334 H 1664.37 -2.64749 1.36792 0
M  V30 18335 H 1661.91 -1.30142 0.685673 0
M  V30 18336 H 1663.86 -4.1251 -0.623833 0
M  V30 18337 H 1662.49 -3.05892 -1.03101 0
M  V30 18338 H 1661.55 -3.56161 1.33616 0
M  V30 18339 H 1662.86 -4.74271 1.54493 0
M  V30 18340 H 1662.01 -6.05294 -0.412792 0
M  V30 18341 H 1660.75 -4.82434 -0.714781 0
M  V30 18342 H 1659.76 -5.27636 1.54532 0
M  V30 18343 H 1660.98 -6.53784 1.83694 0
M  V30 18344 H 1658.93 -6.54736 -0.407059 0
M  V30 18345 H 1658.84 -7.48718 1.04677 0
M  V30 18346 H 1660.11 -7.79433 -0.102045 0
M  V30 18347 N 1664.34 -0.740267 -1.39132 0
M  V30 18348 C 1665.57 -0.300494 -2.04403 0
M  V30 18349 C 1665.98 1.07148 -1.55936 0
M  V30 18350 O 1665.32 1.68929 -0.72172 0
M  V30 18351 C 1665.38 -0.229797 -3.58765 0
M  V30 18352 C 1665.05 -1.54111 -4.30231 0
M  V30 18353 C 1666.04 -2.48781 -4.56513 0
M  V30 18354 C 1663.73 -1.80686 -4.68677 0
M  V30 18355 C 1665.72 -3.68255 -5.20256 0
M  V30 18356 C 1663.41 -3.00437 -5.32147 0
M  V30 18357 C 1664.41 -3.94043 -5.5787 0
M  V30 18358 O 1664.1 -5.1169 -6.20023 0
M  V30 18359 H 1663.83 -0.128309 -0.663711 0
M  V30 18360 H 1666.38 -1.00624 -1.79064 0
M  V30 18361 H 1664.61 0.532089 -3.83022 0
M  V30 18362 H 1666.3 0.178681 -4.05507 0
M  V30 18363 H 1667.07 -2.29521 -4.27253 0
M  V30 18364 H 1662.95 -1.08669 -4.48009 0
M  V30 18365 H 1666.49 -4.41334 -5.4025 0
M  V30 18366 H 1662.39 -3.19595 -5.60829 0
M  V30 18367 H 1663.16 -5.12095 -6.38515 0
M  V30 18368 N 1665.82 1.49844 -0.488302 0
M  V30 18369 C 1666.77 2.30515 0.310703 0
M  V30 18370 C 1667.76 1.38559 0.974569 0
M  V30 18371 O 1668.97 1.5567 0.903708 0
M  V30 18372 H 1665.34 0.742517 0.119049 0
M  V30 18373 H 1667.31 2.95842 -0.389849 0
M  V30 18374 C 1666.06 3.19575 1.36994 0
M  V30 18375 H 1665.38 3.90253 0.868497 0
M  V30 18376 H 1666.82 3.78984 1.90123 0
M  V30 18377 C 1665.28 2.38324 2.38124 0
M  V30 18378 O 1665.81 2.07842 3.43751 0
M  V30 18379 N 1664.02 2.00583 2.10273 0
M  V30 18380 H 1663.57 2.25572 1.24399 0
M  V30 18381 H 1663.52 1.46525 2.78169 0
M  V30 18382 N 1667.3 0.221601 1.56034 0
M  V30 18383 C 1668.23 -0.720818 2.1757 0
M  V30 18384 C 1669.24 -1.15751 1.14479 0
M  V30 18385 O 1670.43 -1.08865 1.41459 0
M  V30 18386 C 1667.53 -1.98817 2.74454 0
M  V30 18387 C 1666.7 -1.70703 4.02715 0
M  V30 18388 C 1665.76 -2.82146 4.44162 0
M  V30 18389 O 1664.79 -2.50614 5.11059 0
M  V30 18390 N 1665.99 -4.11101 4.09849 0
M  V30 18391 H 1668.76 -0.194436 2.99069 0
M  V30 18392 H 1666.32 0.0405962 1.61849 0
M  V30 18393 H 1668.31 -2.72562 2.99152 0
M  V30 18394 H 1666.88 -2.42503 1.97258 0
M  V30 18395 H 1666.1 -0.806022 3.85872 0
M  V30 18396 H 1667.39 -1.49351 4.86387 0
M  V30 18397 H 1666.78 -4.39562 3.56092 0
M  V30 18398 H 1665.34 -4.81389 4.3944 0
M  V30 18399 N 1668.77 -1.57515 -0.0517878 0
M  V30 18400 C 1669.72 -2.06114 -1.07795 0
M  V30 18401 C 1670.72 -0.97034 -1.38855 0
M  V30 18402 O 1671.92 -1.15536 -1.38027 0
M  V30 18403 H 1668.3 -0.657451 -0.365051 0
M  V30 18404 H 1670.27 -2.9141 -0.642068 0
M  V30 18405 C 1669.02 -2.53728 -2.37734 0
M  V30 18406 H 1668.34 -3.37266 -2.14689 0
M  V30 18407 H 1669.78 -2.91466 -3.07934 0
M  V30 18408 C 1668.24 -1.42868 -3.05107 0
M  V30 18409 O 1668.77 -0.782025 -3.94014 0
M  V30 18410 N 1666.98 -1.16882 -2.66058 0
M  V30 18411 H 1666.52 -1.6965 -1.93847 0
M  V30 18412 H 1666.48 -0.429164 -3.11457 0
M  V30 18413 N 1670.25 0.323614 -1.54242 0
M  V30 18414 C 1671.48 1.08548 -1.76726 0
M  V30 18415 C 1671.9 1.8093 -0.514375 0
M  V30 18416 O 1671.26 1.73255 0.534069 0
M  V30 18417 C 1671.31 2.05928 -2.96017 0
M  V30 18418 O 1670.41 3.13825 -2.67559 0
M  V30 18419 H 1669.75 0.31297 -0.585616 0
M  V30 18420 H 1672.28 0.367925 -2.01265 0
M  V30 18421 H 1672.29 2.48799 -3.23362 0
M  V30 18422 H 1670.97 1.52646 -3.86875 0
M  V30 18423 H 1669.55 2.7563 -2.51163 0
M  V30 18424 N 1671.73 1.46313 0.585673 0
M  V30 18425 C 1672.68 1.56653 1.69495 0
M  V30 18426 C 1673.65 0.411007 1.60935 0
M  V30 18427 O 1674.83 0.627369 1.80191 0
M  V30 18428 C 1671.97 1.55996 3.0783 0
M  V30 18429 C 1671.09 2.82261 3.27036 0
M  V30 18430 C 1670.22 2.73129 4.55603 0
M  V30 18431 C 1669.26 3.94346 4.68143 0
M  V30 18432 N 1668.4 3.83617 5.88032 0
M  V30 18433 H 1673.24 2.51407 1.59995 0
M  V30 18434 H 1670.77 1.24729 0.779821 0
M  V30 18435 H 1672.73 1.53602 3.87895 0
M  V30 18436 H 1671.36 0.647766 3.16234 0
M  V30 18437 H 1670.41 2.94648 2.40596 0
M  V30 18438 H 1671.73 3.72107 3.32171 0
M  V30 18439 H 1670.88 2.68823 5.43893 0
M  V30 18440 H 1669.62 1.80917 4.52902 0
M  V30 18441 H 1668.62 3.98987 3.78272 0
M  V30 18442 H 1669.85 4.8765 4.72625 0
M  V30 18443 H 1667.8 2.9419 5.86334 0
M  V30 18444 H 1667.71 4.67117 5.94422 0
M  V30 18445 H 1668.98 3.83281 6.7876 0
M  V30 18446 N 1673.21 -0.830057 1.33969 0
M  V30 18447 C 1674.44 -1.61539 1.28797 0
M  V30 18448 C 1674.85 -1.8867 -0.14158 0
M  V30 18449 O 1674.19 -1.47356 -1.0969 0
M  V30 18450 C 1674.25 -2.98503 2.0034 0
M  V30 18451 C 1673.92 -2.94302 3.49622 0
M  V30 18452 C 1674.91 -2.69391 4.44662 0
M  V30 18453 C 1672.6 -3.14159 3.9193 0
M  V30 18454 C 1674.59 -2.64379 5.79985 0
M  V30 18455 C 1672.28 -3.08772 5.27355 0
M  V30 18456 C 1673.28 -2.83914 6.21194 0
M  V30 18457 O 1672.97 -2.78446 7.54137 0
M  V30 18458 H 1672.7 -0.509067 0.444777 0
M  V30 18459 H 1675.25 -1.04137 1.77044 0
M  V30 18460 H 1673.48 -3.57795 1.46697 0
M  V30 18461 H 1675.17 -3.59449 1.88551 0
M  V30 18462 H 1675.94 -2.53792 4.13298 0
M  V30 18463 H 1671.82 -3.32526 3.19293 0
M  V30 18464 H 1675.36 -2.44896 6.53201 0
M  V30 18465 H 1671.26 -3.23922 5.58341 0
M  V30 18466 H 1672.02 -2.94224 7.63789 0
M  V30 18467 N 1674.69 -1.17582 -1.04939 0
M  V30 18468 C 1675.94 -0.960189 -1.77379 0
M  V30 18469 C 1676.25 0.512001 -1.8878 0
M  V30 18470 O 1677.46 0.845912 -2.57986 0
M  V30 18471 C 1675.91 -1.66882 -3.18871 0
M  V30 18472 C 1675.52 -3.17972 -3.15591 0
M  V30 18473 C 1677.26 -1.53567 -3.95749 0
M  V30 18474 C 1675.17 -3.81513 -4.51887 0
M  V30 18475 H 1674.1 -0.35562 -0.664869 0
M  V30 18476 H 1676.75 -1.40863 -1.17601 0
M  V30 18477 H 1675.13 -1.14813 -3.78991 0
M  V30 18478 H 1676.31 -3.76995 -2.64974 0
M  V30 18479 H 1674.62 -3.31328 -2.52212 0
M  V30 18480 H 1677.22 -1.98408 -4.96526 0
M  V30 18481 H 1677.56 -0.486603 -4.13446 0
M  V30 18482 H 1678.1 -2.02868 -3.42183 0
M  V30 18483 H 1674.83 -4.86428 -4.39395 0
M  V30 18484 H 1674.35 -3.27276 -5.02643 0
M  V30 18485 H 1676.03 -3.83867 -5.20822 0
M  V30 18486 N 1676.17 1.23705 -0.976463 0
M  V30 18487 C 1677.11 2.27034 -0.505813 0
M  V30 18488 C 1678.11 1.63716 0.435148 0
M  V30 18489 O 1679.31 1.7732 0.309474 0
M  V30 18490 H 1675.69 0.737862 -0.145131 0
M  V30 18491 H 1677.66 2.64097 -1.38908 0
M  V30 18492 C 1676.41 3.47234 0.179987 0
M  V30 18493 H 1675.73 3.96205 -0.534969 0
M  V30 18494 H 1677.17 4.21353 0.472996 0
M  V30 18495 C 1675.63 3.05979 1.40991 0
M  V30 18496 O 1676.16 3.13914 2.50641 0
M  V30 18497 N 1674.37 2.60934 1.27913 0
M  V30 18498 H 1673.91 2.54677 0.38696 0
M  V30 18499 H 1673.87 2.33697 2.10316 0
M  V30 18500 N 1677.64 0.747635 1.38738 0
M  V30 18501 C 1678.87 0.311329 2.04241 0
M  V30 18502 C 1679.28 -1.06319 1.56502 0
M  V30 18503 O 1678.62 -1.68544 0.730669 0
M  V30 18504 C 1678.69 0.24882 3.58638 0
M  V30 18505 C 1678.35 1.5639 4.29408 0
M  V30 18506 C 1679.35 2.51198 4.55187 0
M  V30 18507 C 1677.03 1.83169 4.67712 0
M  V30 18508 C 1679.03 3.71009 5.18296 0
M  V30 18509 C 1676.71 3.03255 5.30546 0
M  V30 18510 C 1677.71 3.96996 5.55773 0
M  V30 18511 O 1677.4 5.14971 6.173 0
M  V30 18512 H 1677.13 0.131827 0.663022 0
M  V30 18513 H 1679.69 1.01572 1.78528 0
M  V30 18514 H 1677.92 -0.511769 3.83299 0
M  V30 18515 H 1679.6 -0.157174 4.05596 0
M  V30 18516 H 1680.37 2.31784 4.2603 0
M  V30 18517 H 1676.25 1.11044 4.47426 0
M  V30 18518 H 1679.79 4.44193 5.37902 0
M  V30 18519 H 1675.69 3.22565 5.59126 0
M  V30 18520 H 1676.46 5.15474 6.3579 0
M  V30 18521 N 1679.12 -1.49583 0.496242 0
M  V30 18522 C 1680.54 -1.58875 0.151907 0
M  V30 18523 C 1680.74 -1.50196 -1.34326 0
M  V30 18524 O 1679.79 -1.37344 -2.11879 0
M  V30 18525 C 1681.11 -2.91842 0.724478 0
M  V30 18526 C 1682.65 -3.05296 0.690157 0
M  V30 18527 C 1683.13 -4.40875 1.24071 0
M  V30 18528 N 1684.62 -4.47354 1.2012 0
M  V30 18529 C 1685.36 -5.50699 1.59743 0
M  V30 18530 N 1684.85 -6.61173 2.06936 0
M  V30 18531 N 1686.64 -5.41386 1.51189 0
M  V30 18532 H 1678.8 -1.53468 1.46838 0
M  V30 18533 H 1681.06 -0.726702 0.608776 0
M  V30 18534 H 1680.76 -3.03747 1.77287 0
M  V30 18535 H 1680.64 -3.7676 0.182209 0
M  V30 18536 H 1683.03 -2.93024 -0.34939 0
M  V30 18537 H 1683.11 -2.22074 1.26952 0
M  V30 18538 H 1682.75 -4.53898 2.27901 0
M  V30 18539 H 1682.68 -5.22729 0.637328 0
M  V30 18540 H 1685.17 -3.68092 0.855361 0
M  V30 18541 H 1685.48 -7.36122 2.35252 0
M  V30 18542 H 1683.83 -6.62226 2.10906 0
M  V30 18543 H 1687.02 -4.53971 1.14142 0
M  V30 18544 H 1687.19 -6.21802 1.82392 0
M  V30 18545 N 1680.6 -0.229873 -1.55915 0
M  V30 18546 C 1681.88 0.449007 -1.90377 0
M  V30 18547 C 1682.26 1.77133 -1.14835 0
M  V30 18548 O 1681.6 2.27012 -0.260328 0
M  V30 18549 C 1681.81 0.633805 -3.43197 0
M  V30 18550 C 1683.16 0.937453 -4.14122 0
M  V30 18551 O 1684.19 0.72029 -3.48841 0
M  V30 18552 O 1683.05 1.35005 -5.29562 0
M  V30 18553 H 1680.14 0.238557 -0.791846 0
M  V30 18554 H 1682.69 -0.272676 -1.67495 0
M  V30 18555 H 1681.46 -0.298587 -3.90159 0
M  V30 18556 H 1681.08 1.40667 -3.71885 0
M  V30 18557 N 1682.08 1.5754 0.0434337 0
M  V30 18558 C 1683.01 2.08648 1.04824 0
M  V30 18559 C 1683.99 0.985894 1.38615 0
M  V30 18560 O 1685.17 1.2603 1.4775 0
M  V30 18561 C 1682.3 2.55399 2.35348 0
M  V30 18562 C 1681.26 3.69592 2.15837 0
M  V30 18563 C 1680.58 4.02497 3.51995 0
M  V30 18564 C 1681.88 4.98575 1.55629 0
M  V30 18565 H 1683.58 2.9285 0.622849 0
M  V30 18566 H 1681.12 1.40879 0.298158 0
M  V30 18567 H 1683.08 2.89771 3.05958 0
M  V30 18568 H 1681.8 1.68262 2.7992 0
M  V30 18569 H 1680.46 3.35546 1.47663 0
M  V30 18570 H 1680.11 3.12448 3.94189 0
M  V30 18571 H 1679.81 4.79406 3.39771 0
M  V30 18572 H 1681.33 4.39391 4.23991 0
M  V30 18573 H 1682.75 5.30996 2.16138 0
M  V30 18574 H 1681.14 5.79998 1.54021 0
M  V30 18575 H 1682.21 4.82098 0.520567 0
M  V30 18576 N 1683.56 -0.31543 1.54411 0
M  V30 18577 C 1684.79 -1.07018 1.76722 0
M  V30 18578 C 1685.19 -1.81921 0.519754 0
M  V30 18579 O 1684.54 -1.76201 -0.519501 0
M  V30 18580 C 1684.6 -2.10781 2.91224 0
M  V30 18581 C 1684.26 -1.55204 4.29838 0
M  V30 18582 C 1685.26 -0.989568 5.10395 0
M  V30 18583 C 1682.94 -1.59201 4.76403 0
M  V30 18584 C 1684.94 -0.474466 6.35632 0
M  V30 18585 C 1682.63 -1.07304 6.01605 0
M  V30 18586 C 1683.62 -0.51522 6.81054 0
M  V30 18587 O 1683.31 -0.00407259 8.039 0
M  V30 18588 H 1683.04 -0.323799 0.593406 0
M  V30 18589 H 1685.6 -0.364708 2.02136 0
M  V30 18590 H 1683.83 -2.84968 2.614 0
M  V30 18591 H 1685.52 -2.72043 3.01243 0
M  V30 18592 H 1686.28 -0.951691 4.75571 0
M  V30 18593 H 1682.16 -2.01559 4.14602 0
M  V30 18594 H 1685.71 -0.0384139 6.97589 0
M  V30 18595 H 1681.6 -1.10802 6.35919 0
M  V30 18596 H 1682.37 -0.118732 8.18414 0
M  V30 18597 N 1685.03 -1.46622 -0.577906 0
M  V30 18598 C 1686.28 -1.51446 -1.33218 0
M  V30 18599 C 1686.6 -0.17258 -1.94837 0
M  V30 18600 O 1687.8 -0.0986578 -2.71321 0
M  V30 18601 C 1686.26 -2.66876 -2.41465 0
M  V30 18602 C 1685.87 -4.07506 -1.86127 0
M  V30 18603 C 1687.61 -2.80975 -3.18203 0
M  V30 18604 C 1685.52 -5.14268 -2.92031 0
M  V30 18605 H 1684.45 -0.563643 -0.500822 0
M  V30 18606 H 1687.1 -1.72845 -0.616186 0
M  V30 18607 H 1685.48 -2.38816 -3.15884 0
M  V30 18608 H 1686.65 -4.45378 -1.18218 0
M  V30 18609 H 1684.97 -3.98115 -1.2204 0
M  V30 18610 H 1687.57 -3.57906 -3.97249 0
M  V30 18611 H 1687.91 -1.88665 -3.71095 0
M  V30 18612 H 1688.44 -3.08705 -2.50891 0
M  V30 18613 H 1685.18 -6.08386 -2.44021 0
M  V30 18614 H 1684.7 -4.80936 -3.58414 0
M  V30 18615 H 1686.38 -5.40321 -3.55896 0
M  V30 18616 N 1686.51 0.822941 -1.34408 0
M  V30 18617 C 1687.76 1.57604 -1.26513 0
M  V30 18618 C 1688.08 1.94303 0.164769 0
M  V30 18619 O 1687.35 1.62278 1.09738 0
M  V30 18620 H 1685.93 0.584399 -0.465282 0
M  V30 18621 H 1688.59 0.982582 -1.68319 0
M  V30 18622 H 1687.69 2.49886 -1.86986 0
M  V30 18623 N 1687.99 1.18137 1.04314 0
M  V30 18624 C 1688.9 0.921044 2.15764 0
M  V30 18625 C 1689.92 -0.11396 1.73626 0
M  V30 18626 O 1691.09 0.0673733 2.01287 0
M  V30 18627 C 1688.16 0.447581 3.43799 0
M  V30 18628 C 1687.22 1.55025 4.00332 0
M  V30 18629 C 1686.45 1.09928 5.22256 0
M  V30 18630 O 1686.67 -0.0430152 5.70384 0
M  V30 18631 O 1685.61 1.896 5.71258 0
M  V30 18632 H 1689.43 1.85353 2.40579 0
M  V30 18633 H 1687.02 0.962985 1.14223 0
M  V30 18634 H 1688.9 0.191497 4.20965 0
M  V30 18635 H 1687.58 -0.456641 3.20463 0
M  V30 18636 H 1686.48 1.86032 3.24566 0
M  V30 18637 H 1687.82 2.4305 4.28004 0
M  V30 18638 N 1689.47 -1.23186 0.98301 0
M  V30 18639 C 1690.42 -2.24748 0.525082 0
M  V30 18640 C 1691.39 -1.60237 -0.437411 0
M  V30 18641 O 1692.57 -1.87666 -0.344376 0
M  V30 18642 C 1689.71 -3.44711 -0.163809 0
M  V30 18643 C 1688.82 -4.23769 0.839254 0
M  V30 18644 C 1687.96 -5.31053 0.1249 0
M  V30 18645 C 1687 -6.01822 1.117 0
M  V30 18646 N 1686.13 -7.00772 0.431625 0
M  V30 18647 H 1690.97 -2.63283 1.39593 0
M  V30 18648 H 1688.51 -1.29407 0.699438 0
M  V30 18649 H 1690.47 -4.13148 -0.580046 0
M  V30 18650 H 1689.1 -3.06969 -0.998507 0
M  V30 18651 H 1688.15 -3.54724 1.37386 0
M  V30 18652 H 1689.46 -4.72606 1.59515 0
M  V30 18653 H 1688.62 -6.05698 -0.348569 0
M  V30 18654 H 1687.36 -4.83165 -0.663573 0
M  V30 18655 H 1686.36 -5.25967 1.6012 0
M  V30 18656 H 1687.59 -6.51799 1.90618 0
M  V30 18657 H 1685.53 -6.55131 -0.337592 0
M  V30 18658 H 1685.45 -7.47566 1.12613 0
M  V30 18659 H 1686.72 -7.79498 -0.0193703 0
M  V30 18660 N 1690.95 -0.754982 -1.38339 0
M  V30 18661 C 1692.19 -0.311762 -2.00086 0
M  V30 18662 C 1692.52 1.10693 -1.59929 0
M  V30 18663 O 1691.78 1.77279 -0.8289 0
M  V30 18664 C 1692.08 -0.383719 -3.55334 0
M  V30 18665 C 1691.74 -1.75826 -4.15206 0
M  V30 18666 C 1690.4 -2.13443 -4.31272 0
M  V30 18667 C 1692.76 -2.65985 -4.4822 0
M  V30 18668 C 1690.08 -3.40689 -4.77649 0
M  V30 18669 C 1692.44 -3.92623 -4.96014 0
M  V30 18670 C 1691.1 -4.30307 -5.10286 0
M  V30 18671 H 1690.37 -0.114082 -0.732166 0
M  V30 18672 H 1693.02 -0.965735 -1.65366 0
M  V30 18673 H 1691.32 0.353817 -3.90199 0
M  V30 18674 H 1693.02 -0.022341 -4.00994 0
M  V30 18675 H 1689.61 -1.45585 -4.03117 0
M  V30 18676 H 1693.79 -2.38188 -4.35408 0
M  V30 18677 H 1689.05 -3.69802 -4.86884 0
M  V30 18678 H 1693.22 -4.62626 -5.20529 0
M  V30 18679 H 1690.85 -5.28968 -5.45982 0
M  V30 18680 N 1692.42 1.49318 -0.504168 0
M  V30 18681 C 1693.67 2.01658 0.0410881 0
M  V30 18682 C 1693.99 1.38866 1.37752 0
M  V30 18683 O 1695.19 1.82552 2.00965 0
M  V30 18684 C 1693.65 3.59687 0.123682 0
M  V30 18685 C 1693.26 4.31454 -1.2063 0
M  V30 18686 C 1695 4.19961 0.619134 0
M  V30 18687 C 1692.91 5.81349 -1.0857 0
M  V30 18688 H 1691.84 0.753757 0.0191287 0
M  V30 18689 H 1694.49 1.71826 -0.644066 0
M  V30 18690 H 1692.87 3.86249 0.873355 0
M  V30 18691 H 1694.04 4.1659 -1.96951 0
M  V30 18692 H 1692.36 3.82939 -1.63544 0
M  V30 18693 H 1694.96 5.29736 0.726925 0
M  V30 18694 H 1695.3 3.83539 1.61874 0
M  V30 18695 H 1695.83 3.97731 -0.0740966 0
M  V30 18696 H 1692.57 6.22301 -2.05967 0
M  V30 18697 H 1692.09 5.98698 -0.363422 0
M  V30 18698 H 1693.77 6.42453 -0.765722 0
M  V30 18699 N 1693.9 0.238138 1.5579 0
M  V30 18700 C 1695.15 -0.389474 1.97904 0
M  V30 18701 C 1695.46 -1.59707 1.1293 0
M  V30 18702 O 1696.67 -2.29526 1.45017 0
M  V30 18703 C 1695.13 -0.744319 3.52119 0
M  V30 18704 C 1694.73 0.441387 4.4582 0
M  V30 18705 C 1696.48 -1.33661 4.02908 0
M  V30 18706 C 1694.39 0.063184 5.91366 0
M  V30 18707 H 1693.32 -0.149291 0.739072 0
M  V30 18708 H 1695.97 0.336972 1.80379 0
M  V30 18709 H 1694.35 -1.52865 3.65306 0
M  V30 18710 H 1695.52 1.21881 4.44389 0
M  V30 18711 H 1693.84 0.948017 4.05465 0
M  V30 18712 H 1696.43 -1.63276 5.09161 0
M  V30 18713 H 1696.78 -2.2581 3.49737 0
M  V30 18714 H 1697.31 -0.615366 3.93012 0
M  V30 18715 H 1694.05 0.951584 6.48556 0
M  V30 18716 H 1693.57 -0.678216 5.95953 0
M  V30 18717 H 1695.25 -0.357712 6.4601 0
M  V30 18718 N 1695.38 -1.57561 -0.0350783 0
M  V30 18719 C 1696.8 -1.54746 -0.390618 0
M  V30 18720 C 1697 -0.963454 -1.76974 0
M  V30 18721 O 1696.05 -0.581878 -2.45704 0
M  V30 18722 C 1697.37 -2.9922 -0.297984 0
M  V30 18723 C 1698.91 -3.10739 -0.375506 0
M  V30 18724 C 1699.39 -4.56933 -0.312387 0
M  V30 18725 N 1700.88 -4.61709 -0.371364 0
M  V30 18726 C 1701.61 -5.72359 -0.34532 0
M  V30 18727 N 1701.11 -6.92266 -0.271921 0
M  V30 18728 N 1702.9 -5.60713 -0.394605 0
M  V30 18729 H 1695.05 -1.93876 0.867519 0
M  V30 18730 H 1697.32 -0.888974 0.329285 0
M  V30 18731 H 1697.02 -3.45651 0.649499 0
M  V30 18732 H 1696.9 -3.60987 -1.094 0
M  V30 18733 H 1699.28 -2.6426 -1.31342 0
M  V30 18734 H 1699.37 -2.51815 0.449752 0
M  V30 18735 H 1699.01 -5.04079 0.621834 0
M  V30 18736 H 1698.94 -5.13762 -1.15567 0
M  V30 18737 H 1701.43 -3.75436 -0.430848 0
M  V30 18738 H 1701.74 -7.72373 -0.256983 0
M  V30 18739 H 1700.09 -6.94592 -0.238058 0
M  V30 18740 H 1703.28 -4.65933 -0.449896 0
M  V30 18741 H 1703.45 -6.46938 -0.37084 0
M  V30 18742 N 1696.86 0.307236 -1.54576 0
M  V30 18743 C 1698.27 0.652539 -1.45651 0
M  V30 18744 C 1698.47 1.90978 -0.64263 0
M  V30 18745 O 1697.53 2.52067 -0.147863 0
M  V30 18746 C 1698.84 0.811341 -2.89547 0
M  V30 18747 C 1700.39 0.90763 -2.99551 0
M  V30 18748 C 1700.87 1.09848 -4.44632 0
M  V30 18749 N 1702.36 1.16483 -4.48315 0
M  V30 18750 C 1703.09 1.33068 -5.57746 0
M  V30 18751 N 1702.59 1.46591 -6.77114 0
M  V30 18752 N 1704.38 1.35906 -5.45423 0
M  V30 18753 H 1696.53 -0.518891 -2.05964 0
M  V30 18754 H 1698.8 -0.170463 -0.932548 0
M  V30 18755 H 1698.5 -0.0414879 -3.51676 0
M  V30 18756 H 1698.38 1.70224 -3.36606 0
M  V30 18757 H 1700.76 1.75095 -2.37541 0
M  V30 18758 H 1700.84 -0.00715386 -2.55799 0
M  V30 18759 H 1700.49 0.259948 -5.07234 0
M  V30 18760 H 1700.42 2.02739 -4.86009 0
M  V30 18761 H 1702.91 1.07411 -3.62314 0
M  V30 18762 H 1703.22 1.58983 -7.5627 0
M  V30 18763 H 1701.57 1.43658 -6.79991 0
M  V30 18764 H 1704.76 1.24949 -4.51116 0
M  V30 18765 H 1704.93 1.48489 -6.30758 0
M  V30 18766 N 1698.34 1.46926 0.570122 0
M  V30 18767 C 1699.28 1.58442 1.67824 0
M  V30 18768 C 1700.25 0.428053 1.6049 0
M  V30 18769 O 1701.44 0.646445 1.79515 0
M  V30 18770 C 1698.58 1.59253 3.06158 0
M  V30 18771 C 1697.69 2.85714 3.24024 0
M  V30 18772 C 1696.83 2.77945 4.52681 0
M  V30 18773 C 1695.87 3.99289 4.63934 0
M  V30 18774 N 1695 3.89833 5.83931 0
M  V30 18775 H 1699.84 2.5309 1.5732 0
M  V30 18776 H 1697.38 1.25549 0.766548 0
M  V30 18777 H 1699.34 1.57707 3.86244 0
M  V30 18778 H 1697.97 0.68127 3.15529 0
M  V30 18779 H 1697.02 2.97184 2.37458 0
M  V30 18780 H 1698.33 3.7561 3.28206 0
M  V30 18781 H 1697.49 2.74576 5.41011 0
M  V30 18782 H 1696.22 1.85711 4.50958 0
M  V30 18783 H 1695.23 4.02976 3.74019 0
M  V30 18784 H 1696.45 4.92635 4.67427 0
M  V30 18785 H 1694.4 3.00393 5.83181 0
M  V30 18786 H 1694.32 4.73395 5.89434 0
M  V30 18787 H 1695.59 3.90459 6.74657 0
M  V30 18788 N 1699.82 -0.815801 1.34842 0
M  V30 18789 C 1701.04 -1.60915 1.30848 0
M  V30 18790 C 1701.47 -1.87758 -0.113345 0
M  V30 18791 O 1700.82 -1.4582 -1.07732 0
M  V30 18792 C 1700.87 -2.92284 2.11192 0
M  V30 18793 O 1699.98 -3.84685 1.48632 0
M  V30 18794 H 1699.32 -0.48913 0.449052 0
M  V30 18795 H 1701.85 -1.01322 1.7775 0
M  V30 18796 H 1701.86 -3.41789 2.2281 0
M  V30 18797 H 1700.53 -2.72071 3.14563 0
M  V30 18798 H 1699.11 -3.43215 1.458 0
M  V30 18799 N 1701.29 -1.18689 -1.03686 0
M  V30 18800 C 1702.24 -0.91384 -2.13897 0
M  V30 18801 C 1703.24 0.127333 -1.68921 0
M  V30 18802 O 1704.44 -0.0211711 -1.79988 0
M  V30 18803 H 1700.82 -0.278067 -0.698701 0
M  V30 18804 H 1702.79 -1.85013 -2.34122 0
M  V30 18805 C 1701.54 -0.460259 -3.4464 0
M  V30 18806 H 1700.86 -1.25294 -3.7966 0
M  V30 18807 H 1702.3 -0.308239 -4.22878 0
M  V30 18808 C 1700.76 0.824485 -3.26656 0
M  V30 18809 O 1701.29 1.8878 -3.54577 0
M  V30 18810 N 1699.49 0.778588 -2.79976 0
M  V30 18811 H 1699.04 -0.0869543 -2.57453 0
M  V30 18812 H 1699 1.6386 -2.68323 0
M  V30 18813 N 1702.77 1.22662 -0.989529 0
M  V30 18814 C 1704 1.95883 -0.681511 0
M  V30 18815 C 1704.42 1.72646 0.746646 0
M  V30 18816 O 1703.78 1.00358 1.5099 0
M  V30 18817 C 1703.83 3.46773 -0.988975 0
M  V30 18818 O 1702.93 4.12311 -0.0858485 0
M  V30 18819 H 1702.27 0.612916 -0.255401 0
M  V30 18820 H 1704.8 1.5585 -1.32559 0
M  V30 18821 H 1704.81 3.97273 -0.929426 0
M  V30 18822 H 1703.49 3.63011 -2.02967 0
M  V30 18823 H 1702.06 3.7236 -0.200592 0
M  V30 18824 N 1704.25 0.762308 1.37937 0
M  V30 18825 C 1705.18 0.100528 2.28979 0
M  V30 18826 C 1706.19 -0.674409 1.48174 0
M  V30 18827 O 1707.38 -0.514059 1.70938 0
M  V30 18828 C 1704.48 -0.881478 3.27236 0
M  V30 18829 C 1703.66 -0.162349 4.37099 0
M  V30 18830 C 1702.72 -1.05636 5.15488 0
M  V30 18831 O 1701.74 -0.523636 5.66786 0
M  V30 18832 N 1702.94 -2.3836 5.29306 0
M  V30 18833 H 1705.71 0.882451 2.86414 0
M  V30 18834 H 1703.27 0.613839 1.49812 0
M  V30 18835 H 1705.26 -1.48278 3.76558 0
M  V30 18836 H 1703.83 -1.56443 2.70637 0
M  V30 18837 H 1703.05 0.61976 3.89298 0
M  V30 18838 H 1704.34 0.334928 5.07696 0
M  V30 18839 H 1703.74 -2.84087 4.89194 0
M  V30 18840 H 1702.29 -2.9352 5.8197 0
M  V30 18841 N 1705.73 -1.49049 0.51208 0
M  V30 18842 C 1706.95 -2.07382 -0.0271044 0
M  V30 18843 C 1707.38 -1.3685 -1.29049 0
M  V30 18844 O 1706.74 -0.428713 -1.76158 0
M  V30 18845 C 1706.78 -3.59715 -0.252462 0
M  V30 18846 O 1705.89 -3.90538 -1.32491 0
M  V30 18847 H 1705.23 -0.663269 0.0311507 0
M  V30 18848 H 1707.76 -1.91705 0.714873 0
M  V30 18849 H 1707.77 -4.05159 -0.480603 0
M  V30 18850 H 1706.44 -4.10459 0.670531 0
M  V30 18851 H 1705.02 -3.56892 -1.08085 0
M  V30 18852 N 1707.21 -0.246397 -1.55662 0
M  V30 18853 C 1708.45 0.378973 -1.98108 0
M  V30 18854 C 1708.77 1.59106 -1.13775 0
M  V30 18855 O 1709.97 2.28754 -1.46232 0
M  V30 18856 C 1708.43 0.725634 -3.52509 0
M  V30 18857 C 1708.04 -0.465024 -4.4558 0
M  V30 18858 C 1709.78 1.31522 -4.03611 0
M  V30 18859 C 1707.69 -0.0945447 -5.91324 0
M  V30 18860 H 1706.62 0.14537 -0.739854 0
M  V30 18861 H 1709.27 -0.346533 -1.80198 0
M  V30 18862 H 1707.65 1.50925 -3.66111 0
M  V30 18863 H 1708.83 -1.24236 -4.43736 0
M  V30 18864 H 1707.14 -0.969507 -4.04956 0
M  V30 18865 H 1709.74 1.60573 -5.1002 0
M  V30 18866 H 1710.08 2.23952 -3.50929 0
M  V30 18867 H 1710.61 0.594515 -3.93332 0
M  V30 18868 H 1707.35 -0.985965 -6.48042 0
M  V30 18869 H 1706.87 0.646601 -5.96305 0
M  V30 18870 H 1708.55 0.323447 -6.46191 0
M  V30 18871 N 1708.68 1.57577 0.026722 0
M  V30 18872 C 1709.63 2.07803 1.04502 0
M  V30 18873 C 1710.63 0.992308 1.37294 0
M  V30 18874 O 1711.83 1.17717 1.36171 0
M  V30 18875 H 1708.21 0.663176 0.354545 0
M  V30 18876 H 1710.18 2.92395 0.595626 0
M  V30 18877 C 1708.93 2.57478 2.33667 0
M  V30 18878 H 1708.25 3.40639 2.09296 0
M  V30 18879 H 1709.69 2.96328 3.03258 0
M  V30 18880 C 1708.15 1.47704 3.02796 0
M  V30 18881 O 1708.68 0.844611 3.9272 0
M  V30 18882 N 1706.88 1.211 2.64165 0
M  V30 18883 H 1706.43 1.72713 1.91123 0
M  V30 18884 H 1706.39 0.47866 3.10735 0
M  V30 18885 N 1710.16 -0.299034 1.54737 0
M  V30 18886 C 1711.44 -1.05371 1.64792 0
M  V30 18887 C 1711.82 -2.05155 0.497475 0
M  V30 18888 O 1711.17 -2.22837 -0.505573 0
M  V30 18889 C 1711.38 -1.73381 3.02886 0
M  V30 18890 C 1712.72 -2.25506 3.59767 0
M  V30 18891 O 1713.75 -1.8341 3.05351 0
M  V30 18892 O 1712.61 -3.02642 4.55049 0
M  V30 18893 H 1709.7 -0.487156 0.668287 0
M  V30 18894 H 1712.25 -0.296965 1.67081 0
M  V30 18895 H 1711.02 -1.00936 3.78058 0
M  V30 18896 H 1710.64 -2.55806 3.04383 0
M  V30 18897 N 1711.64 -1.47227 -0.562322 0
M  V30 18898 C 1712.92 -1.44069 -1.32301 0
M  V30 18899 C 1713.3 -0.134912 -2.10668 0
M  V30 18900 O 1712.64 0.883603 -2.10724 0
M  V30 18901 C 1712.85 -2.68309 -2.23184 0
M  V30 18902 C 1714.2 -3.1531 -2.84367 0
M  V30 18903 O 1715.23 -2.69001 -2.33489 0
M  V30 18904 O 1714.09 -3.95805 -3.7683 0
M  V30 18905 H 1711.18 -0.573892 -0.595464 0
M  V30 18906 H 1713.73 -1.59421 -0.581648 0
M  V30 18907 H 1712.5 -3.54884 -1.64842 0
M  V30 18908 H 1712.12 -2.55518 -3.04625 0
M  V30 18909 N 1713.12 0.808639 -1.35273 0
M  V30 18910 C 1714.37 1.56071 -1.27768 0
M  V30 18911 C 1714.68 1.9505 0.146545 0
M  V30 18912 O 1715.89 2.69314 0.343855 0
M  V30 18913 C 1714.34 2.81648 -2.24059 0
M  V30 18914 C 1713.95 2.49915 -3.71815 0
M  V30 18915 C 1715.69 3.59658 -2.25492 0
M  V30 18916 C 1713.6 3.7177 -4.59936 0
M  V30 18917 H 1712.53 0.585811 -0.474701 0
M  V30 18918 H 1715.18 0.889051 -1.60525 0
M  V30 18919 H 1713.56 3.50514 -1.84271 0
M  V30 18920 H 1714.74 1.89068 -4.20226 0
M  V30 18921 H 1713.05 1.85154 -3.72971 0
M  V30 18922 H 1715.65 4.50162 -2.88545 0
M  V30 18923 H 1715.99 3.96835 -1.2581 0
M  V30 18924 H 1716.53 2.97751 -2.63798 0
M  V30 18925 H 1713.26 3.39704 -5.60608 0
M  V30 18926 H 1712.78 4.3185 -4.16252 0
M  V30 18927 H 1714.46 4.39022 -4.75256 0
M  V30 18928 N 1714.6 1.19237 1.03055 0
M  V30 18929 C 1715.84 0.995444 1.76688 0
M  V30 18930 C 1716.18 -0.472805 1.88357 0
M  V30 18931 O 1715.45 -1.3511 1.39913 0
M  V30 18932 C 1715.73 1.66308 3.19396 0
M  V30 18933 C 1715.59 3.20486 3.15609 0
M  V30 18934 C 1716.91 1.38468 4.17749 0
M  V30 18935 H 1714.02 0.36304 0.641382 0
M  V30 18936 H 1716.67 1.47052 1.20315 0
M  V30 18937 H 1714.82 1.25915 3.67529 0
M  V30 18938 H 1716.49 3.70081 2.75387 0
M  V30 18939 H 1714.73 3.52118 2.53369 0
M  V30 18940 H 1715.4 3.62345 4.16426 0
M  V30 18941 H 1717.88 1.73485 3.78209 0
M  V30 18942 H 1716.75 1.87735 5.15797 0
M  V30 18943 H 1717.02 0.309505 4.41015 0
M  V30 18944 N 1716.07 -1.22136 0.99602 0
M  V30 18945 C 1717.49 -1.43072 0.707285 0
M  V30 18946 C 1717.69 -1.88163 -0.720906 0
M  V30 18947 O 1716.75 -2.03747 -1.49142 0
M  V30 18948 C 1718.06 -2.46963 1.71551 0
M  V30 18949 C 1719.61 -2.60758 1.73131 0
M  V30 18950 C 1720.08 -3.67873 2.72825 0
M  V30 18951 N 1721.57 -3.75334 2.71438 0
M  V30 18952 C 1722.31 -4.57817 3.45241 0
M  V30 18953 N 1721.8 -5.44268 4.28654 0
M  V30 18954 N 1723.6 -4.52157 3.33932 0
M  V30 18955 H 1715.75 -0.911751 1.91836 0
M  V30 18956 H 1718.01 -0.462523 0.827512 0
M  V30 18957 H 1717.72 -2.20784 2.73765 0
M  V30 18958 H 1717.59 -3.45618 1.51089 0
M  V30 18959 H 1719.98 -2.86279 0.716132 0
M  V30 18960 H 1720.06 -1.62367 1.97663 0
M  V30 18961 H 1719.7 -3.43098 3.74494 0
M  V30 18962 H 1719.63 -4.6584 2.45562 0
M  V30 18963 H 1722.12 -3.13566 2.10915 0
M  V30 18964 H 1722.44 -6.04236 4.81786 0
M  V30 18965 H 1720.78 -5.43839 4.3274 0
M  V30 18966 H 1723.97 -3.83645 2.68206 0
M  V30 18967 H 1724.15 -5.16207 3.91707 0
M  V30 18968 N 1717.55 -0.769612 -1.37531 0
M  V30 18969 C 1718.5 -0.152627 -2.30295 0
M  V30 18970 C 1719.47 0.692154 -1.50992 0
M  V30 18971 O 1720.65 0.64496 -1.79569 0
M  V30 18972 C 1717.79 0.72217 -3.37459 0
M  V30 18973 C 1716.91 -0.138985 -4.31776 0
M  V30 18974 C 1716.04 0.740317 -5.26016 0
M  V30 18975 C 1715.08 -0.1235 -6.11975 0
M  V30 18976 N 1714.22 0.713658 -6.98464 0
M  V30 18977 H 1719.06 -0.949218 -2.82478 0
M  V30 18978 H 1716.6 -0.479697 -1.39059 0
M  V30 18979 H 1718.55 1.24415 -3.98217 0
M  V30 18980 H 1717.18 1.48438 -2.86646 0
M  V30 18981 H 1716.24 -0.778756 -3.72343 0
M  V30 18982 H 1717.55 -0.805402 -4.92255 0
M  V30 18983 H 1716.7 1.32887 -5.91968 0
M  V30 18984 H 1715.44 1.44042 -4.65943 0
M  V30 18985 H 1714.45 -0.7246 -5.45004 0
M  V30 18986 H 1715.67 -0.820907 -6.7412 0
M  V30 18987 H 1713.62 1.39842 -6.40921 0
M  V30 18988 H 1713.53 0.104492 -7.55928 0
M  V30 18989 H 1714.8 1.28667 -7.68808 0
M  V30 18990 N 1719.03 1.48775 -0.519977 0
M  V30 18991 C 1719.94 2.33239 0.252329 0
M  V30 18992 C 1720.96 1.45852 0.948849 0
M  V30 18993 O 1722.13 1.78848 0.92603 0
M  V30 18994 C 1719.2 3.2174 1.29166 0
M  V30 18995 C 1718.26 4.24993 0.606564 0
M  V30 18996 C 1717.49 5.09266 1.59638 0
M  V30 18997 O 1717.71 4.95353 2.82809 0
M  V30 18998 O 1716.65 5.90981 1.14127 0
M  V30 18999 H 1720.47 3.00503 -0.439527 0
M  V30 19000 H 1718.06 1.46733 -0.281032 0
M  V30 19001 H 1719.94 3.76512 1.89254 0
M  V30 19002 H 1718.62 2.5715 1.96611 0
M  V30 19003 H 1717.52 3.74084 -0.0345447 0
M  V30 19004 H 1718.86 4.92193 -0.0257627 0
M  V30 19005 N 1720.51 0.254649 1.55529 0
M  V30 19006 C 1721.79 -0.418663 1.91067 0
M  V30 19007 C 1722.17 -1.75284 1.17638 0
M  V30 19008 O 1721.51 -2.26569 0.296411 0
M  V30 19009 C 1721.72 -0.579125 3.44162 0
M  V30 19010 C 1723.07 -0.871451 4.15561 0
M  V30 19011 O 1724.1 -0.664702 3.49943 0
M  V30 19012 O 1722.95 -1.26563 5.31643 0
M  V30 19013 H 1720.05 -0.22593 0.795541 0
M  V30 19014 H 1722.59 0.299288 1.6704 0
M  V30 19015 H 1721.37 0.36062 3.89635 0
M  V30 19016 H 1720.99 -1.34732 3.74076 0
M  V30 19017 N 1721.99 -1.57589 -0.0183649 0
M  V30 19018 C 1723.22 -1.93743 -0.71745 0
M  V30 19019 C 1723.62 -0.853727 -1.68844 0
M  V30 19020 O 1722.97 0.177648 -1.82839 0
M  V30 19021 C 1723.03 -3.25769 -1.52036 0
M  V30 19022 C 1722.69 -4.51404 -0.71298 0
M  V30 19023 C 1723.69 -5.19899 -0.00859461 0
M  V30 19024 C 1721.38 -4.97887 -0.664364 0
M  V30 19025 C 1723.37 -6.33164 0.733592 0
M  V30 19026 C 1721.06 -6.11046 0.0815603 0
M  V30 19027 C 1722.05 -6.7854 0.779288 0
M  V30 19028 O 1721.74 -7.89532 1.51308 0
M  V30 19029 H 1721.47 -0.643849 -0.205996 0
M  V30 19030 H 1724.03 -2.05387 0.023306 0
M  V30 19031 H 1722.26 -3.10481 -2.30518 0
M  V30 19032 H 1723.95 -3.47169 -2.10305 0
M  V30 19033 H 1724.71 -4.84986 -0.0371173 0
M  V30 19034 H 1720.59 -4.4519 -1.19696 0
M  V30 19035 H 1724.14 -6.8578 1.27873 0
M  V30 19036 H 1720.03 -6.45403 0.111968 0
M  V30 19037 H 1720.8 -8.05949 1.42787 0
M  V30 19038 N 1723.46 0.290824 -1.54893 0
M  V30 19039 C 1724.71 1.02244 -1.73865 0
M  V30 19040 C 1725.03 1.88079 -0.537166 0
M  V30 19041 O 1726.23 2.64584 -0.608908 0
M  V30 19042 C 1724.69 1.86762 -3.07649 0
M  V30 19043 C 1724.3 1.0588 -4.35308 0
M  V30 19044 C 1726.04 2.59461 -3.35976 0
M  V30 19045 C 1723.95 1.89734 -5.60138 0
M  V30 19046 H 1722.88 0.385455 -0.648028 0
M  V30 19047 H 1725.53 0.27893 -1.81368 0
M  V30 19048 H 1723.91 2.6514 -2.94137 0
M  V30 19049 H 1725.08 0.320443 -4.59684 0
M  V30 19050 H 1723.4 0.447169 -4.13992 0
M  V30 19051 H 1726 3.22569 -4.26442 0
M  V30 19052 H 1726.34 3.28823 -2.55306 0
M  V30 19053 H 1726.87 1.88126 -3.50505 0
M  V30 19054 H 1723.61 1.24825 -6.43505 0
M  V30 19055 H 1723.13 2.61215 -5.39932 0
M  V30 19056 H 1724.81 2.47535 -5.97775 0
M  V30 19057 N 1724.94 1.47523 0.554506 0
M  V30 19058 C 1726.17 1.57678 1.33496 0
M  V30 19059 C 1726.58 0.226976 1.87834 0
M  V30 19060 O 1725.92 -0.790327 1.6583 0
M  V30 19061 C 1725.99 2.54423 2.53987 0
M  V30 19062 C 1725.65 4.00056 2.20916 0
M  V30 19063 C 1726.65 4.88462 1.78048 0
M  V30 19064 C 1724.33 4.45412 2.32192 0
M  V30 19065 C 1726.33 6.20244 1.46889 0
M  V30 19066 C 1724.01 5.77221 2.00646 0
M  V30 19067 C 1725.01 6.64459 1.58062 0
M  V30 19068 O 1724.7 7.93818 1.26917 0
M  V30 19069 H 1724.43 0.535053 0.413152 0
M  V30 19070 H 1726.98 1.93878 0.678279 0
M  V30 19071 H 1725.21 2.13296 3.22555 0
M  V30 19072 H 1726.9 2.54676 3.16061 0
M  V30 19073 H 1727.67 4.54667 1.68827 0
M  V30 19074 H 1723.55 3.77715 2.64296 0
M  V30 19075 H 1727.09 6.88292 1.13578 0
M  V30 19076 H 1722.99 6.10557 2.095 0
M  V30 19077 H 1723.76 8.06347 1.40525 0
M  V30 19078 N 1726.42 -0.801453 1.357 0
M  V30 19079 C 1727.35 -1.92807 1.31711 0
M  V30 19080 C 1728.33 -1.69028 0.190642 0
M  V30 19081 O 1729.52 -1.90317 0.38641 0
M  V30 19082 C 1726.65 -3.29635 1.09352 0
M  V30 19083 C 1725.6 -3.67908 2.18695 0
M  V30 19084 C 1724.93 -5.02955 1.81494 0
M  V30 19085 C 1726.23 -3.77749 3.60698 0
M  V30 19086 H 1727.92 -1.96401 2.2598 0
M  V30 19087 H 1725.47 -0.943528 1.08782 0
M  V30 19088 H 1727.42 -4.08058 1.052 0
M  V30 19089 H 1726.14 -3.26396 0.115306 0
M  V30 19090 H 1724.8 -2.91775 2.21952 0
M  V30 19091 H 1724.45 -4.96225 0.822776 0
M  V30 19092 H 1724.15 -5.29533 2.54692 0
M  V30 19093 H 1725.67 -5.83811 1.78876 0
M  V30 19094 H 1727.09 -4.4639 3.59734 0
M  V30 19095 H 1725.49 -4.15801 4.327 0
M  V30 19096 H 1726.56 -2.79167 3.96477 0
M  V30 19097 N 1727.9 -1.19782 -1.02421 0
M  V30 19098 C 1729.18 -0.912541 -1.73009 0
M  V30 19099 C 1729.56 0.58061 -2.02958 0
M  V30 19100 O 1728.9 1.54013 -1.68797 0
M  V30 19101 C 1729.11 -1.77745 -3.00346 0
M  V30 19102 C 1730.46 -2.01462 -3.73762 0
M  V30 19103 O 1731.49 -1.74935 -3.10284 0
M  V30 19104 O 1730.34 -2.46219 -4.87892 0
M  V30 19105 H 1727.44 -0.340513 -0.753644 0
M  V30 19106 H 1729.98 -1.30618 -1.08338 0
M  V30 19107 H 1728.76 -2.78887 -2.74477 0
M  V30 19108 H 1728.38 -1.38339 -3.72757 0
M  V30 19109 N 1729.38 1.21606 -1.00248 0
M  V30 19110 C 1730.62 1.90607 -0.683752 0
M  V30 19111 C 1730.95 1.77945 0.785228 0
M  V30 19112 O 1730.21 1.14856 1.58451 0
M  V30 19113 C 1730.51 3.41708 -1.04739 0
M  V30 19114 C 1730.17 3.74565 -2.51022 0
M  V30 19115 C 1728.83 3.83243 -2.90995 0
M  V30 19116 C 1731.19 3.89971 -3.45792 0
M  V30 19117 C 1728.51 4.04773 -4.24707 0
M  V30 19118 C 1730.87 4.13008 -4.79174 0
M  V30 19119 C 1729.53 4.19912 -5.18874 0
M  V30 19120 H 1728.8 0.697481 -0.250203 0
M  V30 19121 H 1731.45 1.4417 -1.26045 0
M  V30 19122 H 1729.75 3.89865 -0.388905 0
M  V30 19123 H 1731.45 3.93367 -0.778675 0
M  V30 19124 H 1728.04 3.68399 -2.19043 0
M  V30 19125 H 1732.22 3.82635 -3.16076 0
M  V30 19126 H 1727.48 4.08349 -4.5504 0
M  V30 19127 H 1731.65 4.23871 -5.52545 0
M  V30 19128 H 1729.28 4.36348 -6.22499 0
M  V30 19129 N 1730.86 0.776895 1.37121 0
M  V30 19130 C 1732.1 0.343555 1.99564 0
M  V30 19131 C 1732.43 -1.08134 1.6167 0
M  V30 19132 O 1731.69 -1.75938 0.856998 0
M  V30 19133 C 1731.98 0.440201 3.54679 0
M  V30 19134 C 1731.65 1.82409 4.12356 0
M  V30 19135 C 1730.31 2.20277 4.27822 0
M  V30 19136 C 1732.66 2.73082 4.43932 0
M  V30 19137 C 1729.99 3.48244 4.72168 0
M  V30 19138 C 1732.34 4.00465 4.89705 0
M  V30 19139 C 1731.01 4.38371 5.03376 0
M  V30 19140 H 1730.28 0.125716 0.730258 0
M  V30 19141 H 1732.93 0.991921 1.63808 0
M  V30 19142 H 1731.23 -0.291695 3.90713 0
M  V30 19143 H 1732.93 0.0861328 4.00907 0
M  V30 19144 H 1729.52 1.5198 4.0075 0
M  V30 19145 H 1733.7 2.45085 4.31564 0
M  V30 19146 H 1728.96 3.77501 4.80939 0
M  V30 19147 H 1733.13 4.70849 5.13103 0
M  V30 19148 H 1730.76 5.37587 5.37498 0
M  V30 19149 N 1732.33 -1.48497 0.527859 0
M  V30 19150 C 1733.28 -2.31258 -0.249477 0
M  V30 19151 C 1734.28 -1.41094 -0.93749 0
M  V30 19152 O 1735.48 -1.58011 -0.862117 0
M  V30 19153 H 1731.86 -0.745412 -0.0993208 0
M  V30 19154 H 1733.83 -2.94705 0.46815 0
M  V30 19155 C 1732.58 -3.23095 -1.28472 0
M  V30 19156 H 1731.9 -3.92418 -0.764724 0
M  V30 19157 H 1733.34 -3.83892 -1.80008 0
M  V30 19158 C 1731.8 -2.44554 -2.31722 0
M  V30 19159 O 1732.33 -2.16883 -3.38119 0
M  V30 19160 N 1730.53 -2.06088 -2.04881 0
M  V30 19161 H 1730.08 -2.28791 -1.18374 0
M  V30 19162 H 1730.04 -1.53849 -2.74186 0
M  V30 19163 N 1733.81 -0.262893 -1.55392 0
M  V30 19164 C 1734.74 0.623732 -2.25015 0
M  V30 19165 C 1735.72 1.16865 -1.23598 0
M  V30 19166 O 1736.91 1.20505 -1.5229 0
M  V30 19167 C 1734.04 1.81353 -2.9619 0
M  V30 19168 C 1732.99 1.40069 -4.04431 0
M  V30 19169 C 1732.32 2.67261 -4.63115 0
M  V30 19170 C 1733.62 0.559905 -5.1929 0
M  V30 19171 H 1735.31 0.0431306 -2.99369 0
M  V30 19172 H 1732.86 0.0193043 -1.43987 0
M  V30 19173 H 1734.81 2.43958 -3.43602 0
M  V30 19174 H 1733.53 2.41977 -2.1935 0
M  V30 19175 H 1732.19 0.797905 -3.57811 0
M  V30 19176 H 1731.84 3.26117 -3.82958 0
M  V30 19177 H 1731.54 2.40354 -5.36194 0
M  V30 19178 H 1733.07 3.30735 -5.1327 0
M  V30 19179 H 1734.48 1.09064 -5.6283 0
M  V30 19180 H 1732.88 0.386234 -5.98856 0
M  V30 19181 H 1733.95 -0.424199 -4.83041 0
M  V30 19182 N 1735.29 1.57597 0.0100073 0
M  V30 19183 C 1736.24 2.089 1.02292 0
M  V30 19184 C 1737.23 1.00681 1.36234 0
M  V30 19185 O 1738.44 1.19155 1.34915 0
M  V30 19186 H 1734.81 0.666899 0.347491 0
M  V30 19187 H 1736.78 2.9301 0.56458 0
M  V30 19188 C 1735.53 2.59942 2.30923 0
M  V30 19189 H 1734.86 3.4284 2.05672 0
M  V30 19190 H 1736.3 2.99528 3.00098 0
M  V30 19191 C 1734.75 1.50907 3.01212 0
M  V30 19192 O 1735.28 0.886216 3.91802 0
M  V30 19193 N 1733.49 1.23895 2.62866 0
M  V30 19194 H 1733.04 1.7473 1.89281 0
M  V30 19195 H 1733 0.511591 3.1021 0
M  V30 19196 N 1736.77 -0.282606 1.55045 0
M  V30 19197 C 1737.7 -1.37115 1.83663 0
M  V30 19198 C 1738.71 -1.45985 0.720563 0
M  V30 19199 O 1739.9 -1.47974 0.998294 0
M  V30 19200 C 1737 -2.7533 1.97603 0
M  V30 19201 C 1736.17 -2.89168 3.28177 0
M  V30 19202 C 1735.23 -4.07997 3.32302 0
M  V30 19203 O 1734.26 -3.9921 4.05734 0
M  V30 19204 N 1735.46 -5.19512 2.59013 0
M  V30 19205 H 1738.23 -1.12914 2.77616 0
M  V30 19206 H 1735.79 -0.472711 1.54845 0
M  V30 19207 H 1737.78 -3.531 1.97743 0
M  V30 19208 H 1736.35 -2.92396 1.1056 0
M  V30 19209 H 1735.57 -1.9836 3.40657 0
M  V30 19210 H 1736.86 -2.95338 4.1431 0
M  V30 19211 H 1736.26 -5.29536 1.99018 0
M  V30 19212 H 1734.81 -5.95549 2.64887 0
M  V30 19213 N 1738.25 -1.47815 -0.546675 0
M  V30 19214 C 1739.16 -1.63744 -1.68003 0
M  V30 19215 C 1740.17 -0.520118 -1.66044 0
M  V30 19216 O 1741.35 -0.789033 -1.853 0
M  V30 19217 C 1738.41 -1.65778 -3.04497 0
M  V30 19218 C 1737.47 -2.89015 -3.17441 0
M  V30 19219 C 1736.71 -2.90943 -4.47424 0
M  V30 19220 O 1736.93 -2.01769 -5.33522 0
M  V30 19221 O 1735.86 -3.82927 -4.64382 0
M  V30 19222 H 1739.69 -2.59665 -1.57505 0
M  V30 19223 H 1737.27 -1.31022 -0.717883 0
M  V30 19224 H 1739.16 -1.69734 -3.85705 0
M  V30 19225 H 1737.83 -0.730268 -3.15355 0
M  V30 19226 H 1736.74 -2.90599 -2.35591 0
M  V30 19227 H 1738.07 -3.81095 -3.11492 0
M  V30 19228 N 1739.72 0.794246 -1.36123 0
M  V30 19229 C 1740.97 1.55357 -1.31285 0
M  V30 19230 C 1741.32 1.92094 0.108426 0
M  V30 19231 O 1740.62 1.59486 1.06182 0
M  V30 19232 C 1740.81 2.84387 -2.16469 0
M  V30 19233 C 1740.64 2.60259 -3.66736 0
M  V30 19234 C 1739.41 2.55525 -4.3593 0
M  V30 19235 C 1741.61 2.29787 -4.60111 0
M  V30 19236 N 1739.59 2.23243 -5.7187 0
M  V30 19237 C 1740.96 2.07452 -5.84263 0
M  V30 19238 C 1743.02 2.15753 -4.48726 0
M  V30 19239 C 1741.72 1.72503 -6.98309 0
M  V30 19240 C 1743.75 1.82202 -5.62633 0
M  V30 19241 C 1743.11 1.60711 -6.85822 0
M  V30 19242 H 1739.21 0.569714 -0.535677 0
M  V30 19243 H 1741.79 0.928621 -1.71128 0
M  V30 19244 H 1739.96 3.44757 -1.78878 0
M  V30 19245 H 1741.69 3.50072 -2.03056 0
M  V30 19246 H 1738.45 2.70603 -3.88678 0
M  V30 19247 H 1738.87 2.09862 -6.43651 0
M  V30 19248 H 1743.51 2.31061 -3.54077 0
M  V30 19249 H 1741.23 1.55933 -7.92913 0
M  V30 19250 H 1744.82 1.72034 -5.55784 0
M  V30 19251 H 1743.7 1.35131 -7.7247 0
M  V30 19252 N 1741.2 1.20323 1.01785 0
M  V30 19253 C 1742.62 0.957818 1.27664 0
M  V30 19254 C 1742.82 -0.363377 1.98196 0
M  V30 19255 O 1741.87 -1.09221 2.27656 0
M  V30 19256 C 1743.19 2.13957 2.11289 0
M  V30 19257 C 1744.73 2.18041 2.2456 0
M  V30 19258 C 1745.21 3.35698 3.11562 0
M  V30 19259 N 1746.7 3.35704 3.1915 0
M  V30 19260 C 1747.44 4.2339 3.86689 0
M  V30 19261 N 1746.93 5.21251 4.56366 0
M  V30 19262 N 1748.72 4.11235 3.832 0
M  V30 19263 H 1740.88 2.05309 0.544242 0
M  V30 19264 H 1743.14 0.898335 0.302817 0
M  V30 19265 H 1742.84 3.09631 1.66798 0
M  V30 19266 H 1742.72 2.11946 3.12024 0
M  V30 19267 H 1745.11 1.22931 2.68276 0
M  V30 19268 H 1745.19 2.24101 1.23338 0
M  V30 19269 H 1744.83 4.31095 2.68551 0
M  V30 19270 H 1744.76 3.26876 4.12868 0
M  V30 19271 H 1747.25 2.64874 2.69537 0
M  V30 19272 H 1747.56 5.84485 5.05566 0
M  V30 19273 H 1745.91 5.25189 4.55195 0
M  V30 19274 H 1749.1 3.34052 3.27913 0
M  V30 19275 H 1749.27 4.79782 4.35561 0
M  V30 19276 N 1742.68 -1.21073 1.00892 0
M  V30 19277 C 1743.93 -1.90524 0.694879 0
M  V30 19278 C 1744.26 -1.78161 -0.772802 0
M  V30 19279 O 1743.53 -1.1608 -1.56063 0
M  V30 19280 C 1743.82 -3.42188 1.12156 0
M  V30 19281 C 1743.67 -3.63523 2.64898 0
M  V30 19282 C 1744.99 -4.34706 0.68694 0
M  V30 19283 H 1742.11 -0.69188 0.253912 0
M  V30 19284 H 1744.75 -1.42626 1.2553 0
M  V30 19285 H 1742.9 -3.83113 0.644742 0
M  V30 19286 H 1744.57 -3.31901 3.20374 0
M  V30 19287 H 1742.81 -3.07255 3.0623 0
M  V30 19288 H 1743.49 -4.69805 2.89806 0
M  V30 19289 H 1745.96 -4.01386 1.09674 0
M  V30 19290 H 1744.84 -5.3946 1.01361 0
M  V30 19291 H 1745.1 -4.40178 -0.411757 0
M  V30 19292 N 1744.16 -0.784156 -1.36707 0
M  V30 19293 C 1745.39 -0.365371 -2.03344 0
M  V30 19294 C 1745.8 1.02133 -1.59266 0
M  V30 19295 O 1745.14 1.66547 -0.775098 0
M  V30 19296 C 1745.2 -0.343819 -3.57852 0
M  V30 19297 C 1744.87 -1.6772 -4.25111 0
M  V30 19298 C 1745.86 -2.63179 -4.48367 0
M  V30 19299 C 1743.55 -1.95505 -4.62691 0
M  V30 19300 C 1745.54 -3.84621 -5.08277 0
M  V30 19301 C 1743.23 -3.17215 -5.2232 0
M  V30 19302 C 1744.23 -4.11592 -5.45052 0
M  V30 19303 O 1743.91 -5.31157 -6.0343 0
M  V30 19304 H 1743.65 -0.14936 -0.659293 0
M  V30 19305 H 1746.2 -1.06269 -1.75772 0
M  V30 19306 H 1744.43 0.409964 -3.84521 0
M  V30 19307 H 1746.12 0.0495818 -4.0587 0
M  V30 19308 H 1746.89 -2.42998 -4.19735 0
M  V30 19309 H 1742.76 -1.22867 -4.44325 0
M  V30 19310 H 1746.31 -4.58298 -5.25936 0
M  V30 19311 H 1742.21 -3.37276 -5.50377 0
M  V30 19312 H 1742.97 -5.32149 -6.219 0
M  V30 19313 N 1745.64 1.48215 -0.535727 0
M  V30 19314 C 1746.86 2.06898 -0.0079465 0
M  V30 19315 C 1747.28 1.39148 1.27606 0
M  V30 19316 O 1746.64 0.480867 1.76051 0
M  V30 19317 C 1746.69 3.60868 0.213736 0
M  V30 19318 O 1746.41 4.26075 -1.01941 0
M  V30 19319 C 1747.91 4.36362 0.781245 0
M  V30 19320 H 1745.13 0.670028 -0.0361097 0
M  V30 19321 H 1747.67 1.90524 -0.743012 0
M  V30 19322 H 1745.83 3.76828 0.898866 0
M  V30 19323 H 1746.24 5.18306 -0.803716 0
M  V30 19324 H 1747.72 5.44847 0.885753 0
M  V30 19325 H 1748.19 4.01179 1.78751 0
M  V30 19326 H 1748.8 4.25094 0.132499 0
M  V30 19327 N 1747.11 0.27113 1.5525 0
M  V30 19328 C 1748.34 -0.34974 2.03618 0
M  V30 19329 C 1748.75 -1.5031 1.14907 0
M  V30 19330 O 1748.1 -1.82994 0.160886 0
M  V30 19331 C 1748.16 -0.89674 3.48136 0
M  V30 19332 C 1747.82 0.127473 4.56822 0
M  V30 19333 C 1748.82 0.945589 5.11229 0
M  V30 19334 C 1746.5 0.260562 5.01624 0
M  V30 19335 C 1748.5 1.88302 6.08951 0
M  V30 19336 C 1746.18 1.20147 5.99173 0
M  V30 19337 C 1747.18 2.01121 6.52717 0
M  V30 19338 O 1746.87 2.93621 7.48359 0
M  V30 19339 H 1746.6 -0.0843491 0.670717 0
M  V30 19340 H 1749.16 0.399804 2.01471 0
M  V30 19341 H 1747.39 -1.69628 3.4751 0
M  V30 19342 H 1749.08 -1.43027 3.79866 0
M  V30 19343 H 1749.84 0.853483 4.77431 0
M  V30 19344 H 1745.72 -0.359689 4.59595 0
M  V30 19345 H 1749.26 2.51545 6.50669 0
M  V30 19346 H 1745.16 1.29441 6.32389 0
M  V30 19347 H 1745.93 2.88258 7.66061 0
M  V30 19348 N 1748.59 -1.576 -0.00164943 0
M  V30 19349 C 1749.54 -2.08318 -0.993594 0
M  V30 19350 C 1750.51 -0.978234 -1.34238 0
M  V30 19351 O 1751.69 -1.25056 -1.44103 0
M  V30 19352 C 1748.83 -2.58982 -2.28084 0
M  V30 19353 C 1747.95 -3.83372 -1.99123 0
M  V30 19354 C 1747.08 -4.22543 -3.21917 0
M  V30 19355 C 1746.12 -5.39774 -2.88635 0
M  V30 19356 N 1745.26 -5.74247 -4.03962 0
M  V30 19357 H 1750.1 -2.92802 -0.554154 0
M  V30 19358 H 1747.64 -1.44748 -0.261973 0
M  V30 19359 H 1749.59 -2.86434 -3.03334 0
M  V30 19360 H 1748.22 -1.77374 -2.697 0
M  V30 19361 H 1747.28 -3.62838 -1.14248 0
M  V30 19362 H 1748.59 -4.68722 -1.70591 0
M  V30 19363 H 1747.74 -4.51268 -4.05514 0
M  V30 19364 H 1746.48 -3.35899 -3.53587 0
M  V30 19365 H 1745.49 -5.10774 -2.03445 0
M  V30 19366 H 1746.71 -6.28094 -2.58215 0
M  V30 19367 H 1744.66 -4.9056 -4.35531 0
M  V30 19368 H 1744.57 -6.54167 -3.78948 0
M  V30 19369 H 1745.84 -6.07563 -4.88352 0
M  V30 19370 N 1750.07 0.274379 -1.55193 0
M  V30 19371 C 1751.3 1.02295 -1.79497 0
M  V30 19372 C 1751.71 1.80479 -0.567805 0
M  V30 19373 O 1751.05 1.77517 0.472601 0
M  V30 19374 C 1751.11 2.02986 -2.9671 0
M  V30 19375 C 1750.78 1.43753 -4.33802 0
M  V30 19376 C 1751.77 0.853898 -5.1284 0
M  V30 19377 C 1749.46 1.46514 -4.80457 0
M  V30 19378 C 1751.45 0.305773 -6.36666 0
M  V30 19379 C 1749.14 0.913158 -6.04239 0
M  V30 19380 C 1750.14 0.33447 -6.82181 0
M  V30 19381 O 1749.83 -0.209069 -8.03628 0
M  V30 19382 H 1749.56 0.307952 -0.601782 0
M  V30 19383 H 1752.11 0.310987 -2.03032 0
M  V30 19384 H 1750.34 2.77937 -2.68864 0
M  V30 19385 H 1752.03 2.6396 -3.0835 0
M  V30 19386 H 1752.8 0.825268 -4.77927 0
M  V30 19387 H 1748.68 1.90496 -4.198 0
M  V30 19388 H 1752.22 -0.146553 -6.97446 0
M  V30 19389 H 1748.12 0.939023 -6.38633 0
M  V30 19390 H 1748.89 -0.0982973 -8.18441 0
M  V30 19391 N 1751.55 1.48103 0.538828 0
M  V30 19392 C 1752.8 1.55669 1.29512 0
M  V30 19393 C 1753.12 0.22678 1.93173 0
M  V30 19394 O 1752.38 -0.78212 1.79392 0
M  V30 19395 C 1752.68 2.63703 2.41237 0
M  V30 19396 C 1752.34 4.06416 1.95287 0
M  V30 19397 C 1751.01 4.45261 1.82472 0
M  V30 19398 C 1753.36 4.95888 1.60452 0
M  V30 19399 C 1750.69 5.71392 1.33145 0
M  V30 19400 C 1753.04 6.225 1.12591 0
M  V30 19401 C 1751.7 6.60209 0.983861 0
M  V30 19402 H 1750.97 0.569633 0.473919 0
M  V30 19403 H 1753.62 1.81783 0.602275 0
M  V30 19404 H 1751.92 2.31416 3.16155 0
M  V30 19405 H 1753.62 2.66775 2.99386 0
M  V30 19406 H 1750.21 3.75734 2.06209 0
M  V30 19407 H 1754.39 4.66561 1.69217 0
M  V30 19408 H 1749.65 5.99342 1.20828 0
M  V30 19409 H 1753.82 6.91229 0.847045 0
M  V30 19410 H 1751.45 7.57833 0.599433 0
M  V30 19411 N 1753.03 -0.787016 1.36542 0
M  V30 19412 C 1753.97 -1.89975 1.31065 0
M  V30 19413 C 1754.94 -1.65134 0.178905 0
M  V30 19414 O 1756.13 -1.8726 0.36581 0
M  V30 19415 C 1753.27 -3.26822 1.10821 0
M  V30 19416 C 1752.38 -3.6372 2.33091 0
M  V30 19417 C 1751.52 -4.89697 2.0584 0
M  V30 19418 C 1750.56 -5.1928 3.24059 0
M  V30 19419 N 1749.69 -6.36441 2.96457 0
M  V30 19420 H 1754.53 -1.93993 2.2621 0
M  V30 19421 H 1752.07 -0.948631 1.12425 0
M  V30 19422 H 1754.03 -4.05741 0.971091 0
M  V30 19423 H 1752.66 -3.22221 0.193302 0
M  V30 19424 H 1751.71 -2.79906 2.57598 0
M  V30 19425 H 1753.02 -3.81529 3.21305 0
M  V30 19426 H 1752.18 -5.76486 1.89072 0
M  V30 19427 H 1750.91 -4.73962 1.14941 0
M  V30 19428 H 1749.92 -4.30973 3.41383 0
M  V30 19429 H 1751.14 -5.36934 4.15787 0
M  V30 19430 H 1749.09 -6.22093 2.08172 0
M  V30 19431 H 1749.01 -6.54594 3.78209 0
M  V30 19432 H 1750.28 -7.26207 2.83273 0
M  V30 19433 N 1754.5 -1.20861 -1.01145 0
M  V30 19434 C 1755.45 -0.962085 -2.09792 0
M  V30 19435 C 1756.42 0.109588 -1.65738 0
M  V30 19436 O 1757.61 -0.0362022 -1.90766 0
M  V30 19437 C 1754.75 -0.52586 -3.4107 0
M  V30 19438 C 1753.86 -1.66626 -3.98572 0
M  V30 19439 C 1752.99 -1.17983 -5.17932 0
M  V30 19440 C 1752.03 -2.29298 -5.67529 0
M  V30 19441 N 1751.17 -1.81836 -6.78145 0
M  V30 19442 H 1756.01 -1.89222 -2.30215 0
M  V30 19443 H 1753.55 -0.943108 -1.12889 0
M  V30 19444 H 1755.51 -0.25423 -4.16425 0
M  V30 19445 H 1754.14 0.367275 -3.20704 0
M  V30 19446 H 1753.19 -2.05268 -3.20264 0
M  V30 19447 H 1754.5 -2.50426 -4.3138 0
M  V30 19448 H 1753.65 -0.864477 -6.0051 0
M  V30 19449 H 1752.39 -0.311793 -4.86702 0
M  V30 19450 H 1751.4 -2.61644 -4.83552 0
M  V30 19451 H 1752.62 -3.16587 -6.00791 0
M  V30 19452 H 1750.57 -0.973665 -6.48734 0
M  V30 19453 H 1750.49 -2.59213 -7.10172 0
M  V30 19454 H 1751.75 -1.53315 -7.64274 0
M  V30 19455 N 1755.98 1.20536 -1.01532 0
M  V30 19456 C 1756.89 2.26953 -0.594109 0
M  V30 19457 C 1757.91 1.70069 0.367771 0
M  V30 19458 O 1759.08 2.00093 0.229036 0
M  V30 19459 C 1756.15 3.46644 0.0622939 0
M  V30 19460 C 1755.21 4.18762 -0.945368 0
M  V30 19461 C 1754.44 5.32739 -0.320195 0
M  V30 19462 O 1754.67 5.63565 0.880407 0
M  V30 19463 O 1753.6 5.92912 -1.03629 0
M  V30 19464 H 1757.43 2.65196 -1.48003 0
M  V30 19465 H 1755.01 1.2713 -0.784752 0
M  V30 19466 H 1756.89 4.19211 0.428952 0
M  V30 19467 H 1755.57 3.10279 0.922428 0
M  V30 19468 H 1754.48 3.48372 -1.36337 0
M  V30 19469 H 1755.81 4.59064 -1.77543 0
M  V30 19470 N 1757.46 0.791395 1.36289 0
M  V30 19471 C 1758.37 0.192362 2.3381 0
M  V30 19472 C 1759.39 -0.656556 1.61138 0
M  V30 19473 O 1760.56 -0.571877 1.9311 0
M  V30 19474 C 1757.63 -0.661283 3.40335 0
M  V30 19475 C 1756.69 0.206361 4.28804 0
M  V30 19476 C 1755.92 -0.606636 5.30241 0
M  V30 19477 O 1756.14 -1.84247 5.39823 0
M  V30 19478 O 1755.08 -0.00549116 6.019 0
M  V30 19479 H 1758.9 0.998723 2.86809 0
M  V30 19480 H 1756.49 0.552889 1.38793 0
M  V30 19481 H 1758.37 -1.148 4.05461 0
M  V30 19482 H 1757.05 -1.4455 2.89632 0
M  V30 19483 H 1755.95 0.739877 3.66711 0
M  V30 19484 H 1757.29 0.954142 4.82863 0
M  V30 19485 N 1758.94 -1.47929 0.54358 0
M  V30 19486 C 1759.85 -2.33611 -0.215191 0
M  V30 19487 C 1760.87 -1.47343 -0.925526 0
M  V30 19488 O 1762.04 -1.80299 -0.897459 0
M  V30 19489 C 1759.11 -3.23755 -1.24031 0
M  V30 19490 C 1758.17 -4.25904 -0.538874 0
M  V30 19491 C 1757.4 -5.11741 -1.51516 0
M  V30 19492 O 1757.62 -4.9979 -2.74893 0
M  V30 19493 O 1756.56 -5.92722 -1.0471 0
M  V30 19494 H 1760.38 -2.99765 0.487279 0
M  V30 19495 H 1757.97 -1.46267 0.30434 0
M  V30 19496 H 1759.85 -3.79475 -1.8324 0
M  V30 19497 H 1758.53 -2.60245 -1.92495 0
M  V30 19498 H 1757.43 -3.73982 0.0940539 0
M  V30 19499 H 1758.77 -4.9209 0.104063 0
M  V30 19500 N 1760.42 -0.27936 -1.55104 0
M  V30 19501 C 1761.36 0.606268 -2.22695 0
M  V30 19502 C 1762.33 1.14646 -1.20189 0
M  V30 19503 O 1763.52 1.19498 -1.48744 0
M  V30 19504 C 1760.66 1.78256 -2.95497 0
M  V30 19505 C 1759.77 1.27582 -4.12731 0
M  V30 19506 C 1758.91 2.41425 -4.73167 0
M  V30 19507 C 1757.95 1.87775 -5.82586 0
M  V30 19508 N 1757.08 2.95108 -6.37068 0
M  V30 19509 H 1761.92 0.0232427 -2.97991 0
M  V30 19510 H 1759.46 -0.000294714 -1.471 0
M  V30 19511 H 1761.42 2.47406 -3.35925 0
M  V30 19512 H 1760.05 2.33755 -2.22617 0
M  V30 19513 H 1759.1 0.477281 -3.77394 0
M  V30 19514 H 1760.41 0.842897 -4.91627 0
M  V30 19515 H 1759.57 3.18561 -5.16337 0
M  V30 19516 H 1758.31 2.88035 -3.93557 0
M  V30 19517 H 1757.31 1.0912 -5.38862 0
M  V30 19518 H 1758.54 1.42096 -6.64067 0
M  V30 19519 H 1756.48 3.41091 -5.60351 0
M  V30 19520 H 1756.4 2.56246 -7.11248 0
M  V30 19521 H 1757.67 3.72206 -6.84896 0
M  V30 19522 N 1761.9 1.57599 -0.0067085 0
M  V30 19523 C 1762.83 2.11878 0.981331 0
M  V30 19524 C 1763.81 1.02949 1.35408 0
M  V30 19525 O 1764.99 1.30667 1.43665 0
M  V30 19526 C 1762.12 2.62757 2.27104 0
M  V30 19527 C 1761.08 3.76272 2.0397 0
M  V30 19528 C 1760.4 4.13491 3.39012 0
M  V30 19529 C 1761.7 5.03274 1.39688 0
M  V30 19530 H 1763.4 2.94683 0.529366 0
M  V30 19531 H 1760.94 1.41757 0.253187 0
M  V30 19532 H 1762.89 2.99359 2.96585 0
M  V30 19533 H 1761.62 1.77082 2.74426 0
M  V30 19534 H 1760.28 3.40074 1.36913 0
M  V30 19535 H 1759.93 3.24831 3.8405 0
M  V30 19536 H 1759.63 4.89972 3.24347 0
M  V30 19537 H 1761.15 4.52657 4.09797 0
M  V30 19538 H 1762.56 5.37604 1.99136 0
M  V30 19539 H 1760.96 5.84604 1.3549 0
M  V30 19540 H 1762.03 4.8351 0.366928 0
M  V30 19541 N 1763.37 -0.266145 1.55336 0
M  V30 19542 C 1764.62 -0.996831 1.76265 0
M  V30 19543 C 1764.95 -1.86035 0.567553 0
M  V30 19544 O 1764.2 -1.90462 -0.449754 0
M  V30 19545 C 1764.5 -1.90357 3.02488 0
M  V30 19546 C 1764.17 -1.19699 4.34722 0
M  V30 19547 C 1762.83 -1.00164 4.7066 0
M  V30 19548 C 1765.18 -0.694703 5.16549 0
M  V30 19549 C 1762.51 -0.291394 5.85976 0
M  V30 19550 C 1764.86 0.00198006 6.326 0
M  V30 19551 C 1763.53 0.20898 6.67173 0
M  V30 19552 H 1762.8 -0.364766 0.645001 0
M  V30 19553 H 1765.44 -0.268528 1.89608 0
M  V30 19554 H 1763.75 -2.69831 2.84075 0
M  V30 19555 H 1765.45 -2.47026 3.15878 0
M  V30 19556 H 1762.04 -1.35916 4.06479 0
M  V30 19557 H 1766.22 -0.833229 4.89256 0
M  V30 19558 H 1761.48 -0.120359 6.11282 0
M  V30 19559 H 1765.65 0.398909 6.95257 0
M  V30 19560 H 1763.28 0.761301 7.56378 0
M  V30 19561 N 1764.85 -1.48386 -0.530967 0
M  V30 19562 C 1765.78 -1.6573 -1.64486 0
M  V30 19563 C 1766.76 -0.506198 -1.62393 0
M  V30 19564 O 1767.95 -0.738623 -1.79605 0
M  V30 19565 C 1765.08 -1.69594 -3.03076 0
M  V30 19566 C 1764.03 -2.84195 -3.20027 0
M  V30 19567 C 1763.36 -2.73148 -4.59668 0
M  V30 19568 C 1764.66 -4.25504 -3.02892 0
M  V30 19569 H 1766.35 -2.58983 -1.50227 0
M  V30 19570 H 1763.9 -1.24633 -0.721286 0
M  V30 19571 H 1765.85 -1.80316 -3.80873 0
M  V30 19572 H 1764.57 -0.729193 -3.18356 0
M  V30 19573 H 1763.23 -2.73027 -2.44647 0
M  V30 19574 H 1762.88 -1.74444 -4.71782 0
M  V30 19575 H 1762.58 -3.50047 -4.71954 0
M  V30 19576 H 1764.11 -2.85836 -5.39565 0
M  V30 19577 H 1765.52 -4.37511 -3.70482 0
M  V30 19578 H 1763.92 -5.03393 -3.26673 0
M  V30 19579 H 1764.99 -4.42036 -1.99329 0
M  V30 19580 N 1766.33 0.779763 -1.36958 0
M  V30 19581 C 1767.29 1.87439 -1.31906 0
M  V30 19582 C 1768.29 1.59222 -0.224739 0
M  V30 19583 O 1769.48 1.67453 -0.480109 0
M  V30 19584 C 1766.61 3.24419 -1.04716 0
M  V30 19585 H 1767.81 1.93333 -2.29265 0
M  V30 19586 H 1765.36 0.978634 -1.21871 0
M  V30 19587 H 1766.1 3.24205 -0.0785442 0
M  V30 19588 H 1765.88 3.4629 -1.83917 0
M  V30 19589 H 1767.37 4.04491 -1.0381 0
M  V30 19590 N 1767.81 1.21396 1.00503 0
M  V30 19591 C 1769.22 1.02983 1.55728 0
M  V30 19592 C 1769.57 -0.410383 1.9186 0
M  V30 19593 O 1768.69 -1.29358 1.7348 0
M  V30 19594 C 1769.29 1.86316 2.8297 0
M  V30 19595 C 1767.85 1.72235 3.34682 0
M  V30 19596 C 1767 1.8353 2.07875 0
M  V30 19597 H 1769.95 1.35418 0.827499 0
M  V30 19598 H 1769.97 1.37339 3.5485 0
M  V30 19599 H 1769.48 2.91131 2.56641 0
M  V30 19600 H 1767.58 0.701047 3.65945 0
M  V30 19601 H 1767.69 2.54198 4.06103 0
M  V30 19602 H 1766.06 1.26838 2.20872 0
M  V30 19603 H 1766.84 2.89852 1.83958 0
M  V30 19604 N 1769.29 -1.19996 1.0217 0
M  V30 19605 C 1770.53 -1.88818 0.709281 0
M  V30 19606 C 1770.85 -1.80032 -0.764702 0
M  V30 19607 O 1772.05 -2.44037 -1.18988 0
M  V30 19608 C 1770.51 -3.38652 1.2183 0
M  V30 19609 C 1770.12 -3.56012 2.71955 0
M  V30 19610 C 1771.86 -4.12996 0.981542 0
M  V30 19611 C 1769.77 -4.997 3.16313 0
M  V30 19612 H 1768.7 -0.70716 0.261613 0
M  V30 19613 H 1771.35 -1.35715 1.23506 0
M  V30 19614 H 1769.73 -3.91109 0.620478 0
M  V30 19615 H 1770.91 -3.13918 3.37331 0
M  V30 19616 H 1769.22 -2.95046 2.93831 0
M  V30 19617 H 1771.82 -5.18948 1.28831 0
M  V30 19618 H 1772.16 -4.1622 -0.0818616 0
M  V30 19619 H 1772.69 -3.66656 1.543 0
M  V30 19620 H 1769.43 -5.01635 4.21951 0
M  V30 19621 H 1768.95 -5.42585 2.5566 0
M  V30 19622 H 1770.63 -5.68312 3.09242 0
M  V30 19623 N 1770.76 -0.798611 -1.35867 0
M  V30 19624 C 1771.99 -0.386378 -2.03769 0
M  V30 19625 C 1772.41 0.992154 -1.59806 0
M  V30 19626 O 1771.77 1.64094 -0.770895 0
M  V30 19627 C 1771.82 -0.468859 -3.57539 0
M  V30 19628 O 1770.92 0.520742 -4.09099 0
M  V30 19629 H 1770.26 -0.162597 -0.643784 0
M  V30 19630 H 1772.79 -1.08228 -1.73631 0
M  V30 19631 H 1772.8 -0.335775 -4.06616 0
M  V30 19632 H 1771.48 -1.47441 -3.88888 0
M  V30 19633 H 1770.06 0.348559 -3.71267 0
M  V30 19634 N 1772.24 1.47639 -0.551417 0
M  V30 19635 C 1773.52 1.95559 0.0401983 0
M  V30 19636 C 1773.9 1.49396 1.49144 0
M  V30 19637 O 1773.25 0.730148 2.1652 0
M  V30 19638 C 1773.46 3.48859 -0.0992677 0
M  V30 19639 C 1774.8 4.24572 0.0490517 0
M  V30 19640 O 1775.83 3.5619 -0.026527 0
M  V30 19641 O 1774.69 5.46094 0.210638 0
M  V30 19642 H 1771.78 0.824251 0.0673694 0
M  V30 19643 H 1774.33 1.58065 -0.617532 0
M  V30 19644 H 1773.1 3.75245 -1.10936 0
M  V30 19645 H 1772.72 3.93102 0.596339 0
M  V30 19646 N 1773.72 0.287581 1.54954 0
M  V30 19647 C 1774.95 -0.331442 2.04735 0
M  V30 19648 C 1775.37 -1.47752 1.16409 0
M  V30 19649 O 1774.73 -1.80545 0.165297 0
M  V30 19650 C 1774.78 -0.778123 3.52105 0
M  V30 19651 O 1773.88 -1.88422 3.66839 0
M  V30 19652 H 1773.22 -0.0666173 0.66065 0
M  V30 19653 H 1775.75 0.425516 2.00126 0
M  V30 19654 H 1775.76 -1.07054 3.93705 0
M  V30 19655 H 1774.44 0.0603184 4.15856 0
M  V30 19656 H 1773.01 -1.59338 3.37144 0
M  V30 19657 N 1775.2 -1.57593 0.0150662 0
M  V30 19658 C 1776.48 -1.82473 -0.704474 0
M  V30 19659 C 1776.86 -0.896018 -1.91141 0
M  V30 19660 O 1776.2 0.0517365 -2.28441 0
M  V30 19661 C 1776.41 -3.31345 -1.09598 0
M  V30 19662 C 1777.76 -3.97465 -1.49353 0
M  V30 19663 O 1778.79 -3.35757 -1.18936 0
M  V30 19664 O 1777.64 -5.06199 -2.05972 0
M  V30 19665 H 1774.74 -0.751908 -0.344331 0
M  V30 19666 H 1777.28 -1.69649 0.041674 0
M  V30 19667 H 1776.06 -3.90586 -0.236358 0
M  V30 19668 H 1775.68 -3.49224 -1.90075 0
M  V30 19669 N 1776.68 0.257904 -1.55475 0
M  V30 19670 C 1777.59 1.34084 -1.92506 0
M  V30 19671 C 1778.6 1.53246 -0.824123 0
M  V30 19672 O 1779.78 1.67081 -1.12455 0
M  V30 19673 C 1776.84 2.67741 -2.20263 0
M  V30 19674 C 1775.9 2.57196 -3.43728 0
M  V30 19675 C 1775.14 3.84479 -3.7015 0
M  V30 19676 O 1775.36 4.85858 -2.98827 0
M  V30 19677 O 1774.29 3.83774 -4.63682 0
M  V30 19678 H 1778.12 1.05672 -2.84723 0
M  V30 19679 H 1775.71 0.457726 -1.42215 0
M  V30 19680 H 1777.59 3.46743 -2.39473 0
M  V30 19681 H 1776.26 2.95907 -1.31227 0
M  V30 19682 H 1775.17 1.76518 -3.29837 0
M  V30 19683 H 1776.5 2.33977 -4.33031 0
M  V30 19684 N 1778.15 1.48666 0.52309 0
M  V30 19685 C 1779.4 1.57034 1.27854 0
M  V30 19686 C 1779.73 0.247256 1.92922 0
M  V30 19687 O 1778.98 -0.763049 1.80211 0
M  V30 19688 C 1779.28 2.66247 2.38426 0
M  V30 19689 C 1778.95 4.08464 1.90965 0
M  V30 19690 C 1777.61 4.47171 1.77739 0
M  V30 19691 C 1779.96 4.97562 1.55184 0
M  V30 19692 C 1777.29 5.72772 1.27077 0
M  V30 19693 C 1779.64 6.23659 1.05982 0
M  V30 19694 C 1778.31 6.61216 0.913782 0
M  V30 19695 H 1777.58 0.574628 0.46785 0
M  V30 19696 H 1780.22 1.82411 0.582961 0
M  V30 19697 H 1778.53 2.34756 3.13682 0
M  V30 19698 H 1780.23 2.69936 2.9654 0
M  V30 19699 H 1776.82 3.779 2.02212 0
M  V30 19700 H 1781 4.6833 1.64259 0
M  V30 19701 H 1776.26 6.0059 1.14464 0
M  V30 19702 H 1780.43 6.92089 0.773684 0
M  V30 19703 H 1778.06 7.58426 0.519021 0
M  V30 19704 N 1779.63 -0.772489 1.37369 0
M  V30 19705 C 1780.86 -1.55931 1.35532 0
M  V30 19706 C 1781.27 -1.891 -0.0614314 0
M  V30 19707 O 1780.61 -1.51876 -1.03342 0
M  V30 19708 C 1780.68 -2.89737 2.1282 0
M  V30 19709 C 1780.34 -2.79208 3.6179 0
M  V30 19710 C 1781.34 -2.50289 4.55688 0
M  V30 19711 C 1779.02 -2.97253 4.04902 0
M  V30 19712 C 1781.02 -2.39542 5.90676 0
M  V30 19713 C 1778.7 -2.86127 5.39976 0
M  V30 19714 C 1779.7 -2.57311 6.32677 0
M  V30 19715 O 1779.39 -2.4621 7.65269 0
M  V30 19716 H 1779.12 -0.489744 0.465968 0
M  V30 19717 H 1781.67 -0.965344 1.81302 0
M  V30 19718 H 1779.9 -3.51251 1.6174 0
M  V30 19719 H 1781.59 -3.51128 2.03627 0
M  V30 19720 H 1782.36 -2.36034 4.2369 0
M  V30 19721 H 1778.24 -3.18684 3.33109 0
M  V30 19722 H 1781.78 -2.16971 6.63 0
M  V30 19723 H 1777.68 -2.9995 5.71577 0
M  V30 19724 H 1778.45 -2.61564 7.75581 0
M  V30 19725 N 1781.11 -1.21927 -0.998575 0
M  V30 19726 C 1782.06 -0.981427 -2.10881 0
M  V30 19727 C 1783.05 0.0735277 -1.6924 0
M  V30 19728 O 1784.26 -0.078422 -1.79829 0
M  V30 19729 H 1780.63 -0.300155 -0.6895 0
M  V30 19730 H 1782.6 -1.92367 -2.28117 0
M  V30 19731 C 1781.35 -0.56967 -3.43002 0
M  V30 19732 H 1780.68 -1.37309 -3.75481 0
M  V30 19733 H 1782.12 -0.442618 -4.21683 0
M  V30 19734 C 1780.58 0.720145 -3.29113 0
M  V30 19735 O 1781.11 1.77404 -3.60403 0
M  V30 19736 N 1779.31 0.689122 -2.82311 0
M  V30 19737 H 1778.86 -0.168817 -2.57046 0
M  V30 19738 H 1778.82 1.55241 -2.734 0
M  V30 19739 N 1782.59 1.19452 -1.02805 0
M  V30 19740 C 1783.82 1.93075 -0.743624 0
M  V30 19741 C 1784.23 1.75446 0.697425 0
M  V30 19742 O 1783.59 1.07583 1.47418 0
M  V30 19743 C 1783.64 3.44855 -1.08431 0
M  V30 19744 O 1783.36 3.61916 -2.46877 0
M  V30 19745 C 1784.86 4.35601 -0.822571 0
M  V30 19746 H 1782.08 0.613327 -0.272159 0
M  V30 19747 H 1784.63 1.51617 -1.37232 0
M  V30 19748 H 1782.78 3.84149 -0.500812 0
M  V30 19749 H 1783.19 4.55785 -2.59538 0
M  V30 19750 H 1784.67 5.40706 -1.11092 0
M  V30 19751 H 1785.15 4.38527 0.243026 0
M  V30 19752 H 1785.75 4.01987 -1.38876 0
M  V30 19753 N 1784.07 0.805805 1.35442 0
M  V30 19754 C 1785.32 0.382303 1.98044 0
M  V30 19755 C 1785.63 -1.05602 1.64644 0
M  V30 19756 O 1786.83 -1.5826 2.20604 0
M  V30 19757 C 1785.29 0.632619 3.54296 0
M  V30 19758 C 1784.9 2.08344 3.96607 0
M  V30 19759 C 1786.64 0.274435 4.23612 0
M  V30 19760 C 1784.55 2.27954 5.45702 0
M  V30 19761 H 1783.48 0.13921 0.741037 0
M  V30 19762 H 1786.13 0.989752 1.54519 0
M  V30 19763 H 1784.51 -0.0447699 3.95975 0
M  V30 19764 H 1785.69 2.79857 3.66083 0
M  V30 19765 H 1784 2.40142 3.40178 0
M  V30 19766 H 1786.6 0.399019 5.33209 0
M  V30 19767 H 1786.94 -0.779292 4.08941 0
M  V30 19768 H 1787.47 0.90571 3.87352 0
M  V30 19769 H 1784.21 3.3177 5.6534 0
M  V30 19770 H 1783.73 1.60965 5.77798 0
M  V30 19771 H 1785.41 2.09469 6.12153 0
M  V30 19772 N 1785.54 -1.47344 0.559239 0
M  V30 19773 C 1786.48 -2.28095 -0.224826 0
M  V30 19774 C 1787.49 -1.37127 -0.877492 0
M  V30 19775 O 1788.68 -1.61933 -0.751002 0
M  V30 19776 C 1785.78 -3.1145 -1.33611 0
M  V30 19777 C 1784.95 -4.30392 -0.779845 0
M  V30 19778 C 1784.01 -4.95327 -1.77587 0
M  V30 19779 O 1783.04 -5.53654 -1.32119 0
M  V30 19780 N 1784.24 -4.90206 -3.10931 0
M  V30 19781 H 1787 -2.96026 0.46786 0
M  V30 19782 H 1784.56 -1.56996 0.395448 0
M  V30 19783 H 1786.56 -3.51758 -2.00121 0
M  V30 19784 H 1785.13 -2.45749 -1.932 0
M  V30 19785 H 1784.35 -3.94151 0.0620861 0
M  V30 19786 H 1785.63 -5.07322 -0.387581 0
M  V30 19787 H 1785.03 -4.44022 -3.50515 0
M  V30 19788 H 1783.59 -5.34527 -3.72994 0
M  V30 19789 N 1787.02 -0.295795 -1.54799 0
M  V30 19790 C 1788.27 0.315754 -1.99213 0
M  V30 19791 C 1788.58 1.55405 -1.18779 0
M  V30 19792 O 1789.79 2.23986 -1.53436 0
M  V30 19793 C 1788.25 0.613119 -3.54639 0
M  V30 19794 C 1787.85 -0.606546 -4.43875 0
M  V30 19795 C 1789.6 1.18615 -4.07591 0
M  V30 19796 C 1787.51 -0.282622 -5.90724 0
M  V30 19797 H 1786.44 0.121758 -0.744104 0
M  V30 19798 H 1789.09 -0.403686 -1.79005 0
M  V30 19799 H 1787.47 1.39202 -3.70728 0
M  V30 19800 H 1788.64 -1.3829 -4.39559 0
M  V30 19801 H 1786.96 -1.09785 -4.01667 0
M  V30 19802 H 1789.55 1.44266 -5.1487 0
M  V30 19803 H 1789.9 2.12674 -3.57876 0
M  V30 19804 H 1790.43 0.469078 -3.95025 0
M  V30 19805 H 1787.17 -1.19164 -6.44578 0
M  V30 19806 H 1786.69 0.456564 -5.9806 0
M  V30 19807 H 1788.37 0.117703 -6.46893 0
M  V30 19808 N 1788.5 1.57583 -0.0234236 0
M  V30 19809 C 1789.45 2.09872 0.960327 0
M  V30 19810 C 1790.42 0.999466 1.32665 0
M  V30 19811 O 1791.6 1.27332 1.42095 0
M  V30 19812 C 1788.74 2.62578 2.23935 0
M  V30 19813 C 1787.86 3.86491 1.92999 0
M  V30 19814 C 1786.99 4.27611 3.15154 0
M  V30 19815 C 1786.03 5.44298 2.80011 0
M  V30 19816 N 1785.17 5.80601 3.94775 0
M  V30 19817 H 1790.01 2.93647 0.507502 0
M  V30 19818 H 1787.54 1.45147 0.238911 0
M  V30 19819 H 1789.5 2.91223 2.98739 0
M  V30 19820 H 1788.13 1.81643 2.66844 0
M  V30 19821 H 1787.18 3.6461 1.08462 0
M  V30 19822 H 1788.5 4.71377 1.63112 0
M  V30 19823 H 1787.65 4.57663 3.98284 0
M  V30 19824 H 1786.39 3.41481 3.48198 0
M  V30 19825 H 1785.39 5.13946 1.95293 0
M  V30 19826 H 1786.62 6.32122 2.4819 0
M  V30 19827 H 1784.57 4.97427 4.27671 0
M  V30 19828 H 1784.48 6.60113 3.68492 0
M  V30 19829 H 1785.75 6.15255 4.78624 0
M  V30 19830 N 1789.98 -0.249655 1.5561 0
M  V30 19831 C 1790.89 -1.33061 1.93215 0
M  V30 19832 C 1791.91 -1.52806 0.832239 0
M  V30 19833 O 1793.08 -1.66482 1.13339 0
M  V30 19834 C 1790.15 -2.66569 2.2168 0
M  V30 19835 C 1789.21 -2.5537 3.45087 0
M  V30 19836 C 1788.44 -3.82511 3.72184 0
M  V30 19837 O 1788.66 -4.84267 3.014 0
M  V30 19838 O 1787.6 -3.81309 4.65711 0
M  V30 19839 H 1791.42 -1.04161 2.85279 0
M  V30 19840 H 1789.01 -0.450177 1.42456 0
M  V30 19841 H 1790.89 -3.45468 2.41308 0
M  V30 19842 H 1789.57 -2.95207 1.32794 0
M  V30 19843 H 1788.47 -1.74766 3.30768 0
M  V30 19844 H 1789.81 -2.31677 4.34266 0
M  V30 19845 N 1791.46 -1.48941 -0.515198 0
M  V30 19846 C 1792.69 -1.61162 -1.29269 0
M  V30 19847 C 1793.1 -0.276697 -1.87166 0
M  V30 19848 O 1792.44 0.746082 -1.67867 0
M  V30 19849 C 1792.5 -2.61067 -2.47152 0
M  V30 19850 C 1792.16 -4.05773 -2.10232 0
M  V30 19851 C 1793.16 -4.93011 -1.65035 0
M  V30 19852 C 1790.85 -4.51412 -2.20302 0
M  V30 19853 C 1792.84 -6.2392 -1.30393 0
M  V30 19854 C 1790.53 -5.82338 -1.85271 0
M  V30 19855 C 1791.53 -6.68416 -1.4039 0
M  V30 19856 O 1791.21 -7.96904 -1.05826 0
M  V30 19857 H 1790.95 -0.545818 -0.398821 0
M  V30 19858 H 1793.5 -1.95608 -0.626638 0
M  V30 19859 H 1791.73 -2.21773 -3.16787 0
M  V30 19860 H 1793.42 -2.62967 -3.09198 0
M  V30 19861 H 1794.18 -4.58984 -1.56713 0
M  V30 19862 H 1790.06 -3.8459 -2.54189 0
M  V30 19863 H 1793.61 -6.91061 -0.952892 0
M  V30 19864 H 1789.5 -6.15897 -1.93238 0
M  V30 19865 H 1790.27 -8.09789 -1.19096 0
M  V30 19866 N 1792.94 0.765193 -1.37777 0
M  V30 19867 C 1794.21 1.51374 -1.23876 0
M  V30 19868 C 1794.59 2.10455 0.164852 0
M  V30 19869 O 1793.94 1.96084 1.17318 0
M  V30 19870 C 1794.15 2.58939 -2.33991 0
M  V30 19871 C 1795.5 3.26162 -2.71852 0
M  V30 19872 O 1796.52 2.69238 -2.33216 0
M  V30 19873 O 1795.38 4.29094 -3.38438 0
M  V30 19874 H 1792.48 0.670749 -0.48376 0
M  V30 19875 H 1795.02 0.801597 -1.49574 0
M  V30 19876 H 1793.79 2.13448 -3.27957 0
M  V30 19877 H 1793.42 3.37747 -2.09793 0
M  V30 19878 N 1794.41 1.22455 0.992094 0
M  V30 19879 C 1795.32 1.01173 2.11663 0
M  V30 19880 C 1796.34 -0.0402168 1.73954 0
M  V30 19881 O 1797.52 0.152685 2.0082 0
M  V30 19882 C 1794.58 0.592995 3.41591 0
M  V30 19883 C 1793.64 1.71865 3.93397 0
M  V30 19884 C 1792.87 1.3198 5.17124 0
M  V30 19885 O 1793.1 0.198943 5.70053 0
M  V30 19886 O 1792.03 2.13658 5.62702 0
M  V30 19887 H 1795.86 1.9539 2.32501 0
M  V30 19888 H 1793.44 1.01056 1.10036 0
M  V30 19889 H 1795.32 0.36987 4.19774 0
M  V30 19890 H 1794 -0.320311 3.22111 0
M  V30 19891 H 1792.91 1.9963 3.16384 0
M  V30 19892 H 1794.24 2.60985 4.1731 0
M  V30 19893 N 1795.89 -1.18905 1.03437 0
M  V30 19894 C 1796.82 -2.21792 0.578016 0
M  V30 19895 C 1797.84 -1.59015 -0.349014 0
M  V30 19896 O 1799.03 -1.77914 -0.144532 0
M  V30 19897 C 1796.13 -3.38441 -0.176348 0
M  V30 19898 C 1795.3 -4.308 0.756988 0
M  V30 19899 C 1794.36 -5.26179 0.0470478 0
M  V30 19900 O 1793.38 -5.65179 0.675418 0
M  V30 19901 N 1794.59 -5.67497 -1.2218 0
M  V30 19902 H 1797.35 -2.6157 1.46291 0
M  V30 19903 H 1794.91 -1.33627 0.914078 0
M  V30 19904 H 1796.9 -3.99266 -0.660972 0
M  V30 19905 H 1795.47 -2.97406 -0.962715 0
M  V30 19906 H 1794.69 -3.67674 1.4216 0
M  V30 19907 H 1795.98 -4.89413 1.39113 0
M  V30 19908 H 1795.38 -5.37855 -1.75295 0
M  V30 19909 H 1793.94 -6.30548 -1.65081 0
M  V30 19910 N 1797.37 -0.812977 -1.35013 0
M  V30 19911 C 1798.78 -0.45647 -1.81034 0
M  V30 19912 C 1799.13 1.02217 -1.6747 0
M  V30 19913 O 1798.26 1.79478 -1.20898 0
M  V30 19914 C 1798.85 -0.821773 -3.28683 0
M  V30 19915 C 1797.41 -0.517776 -3.72822 0
M  V30 19916 C 1796.56 -1.04399 -2.56897 0
M  V30 19917 H 1799.51 -1.00405 -1.22901 0
M  V30 19918 H 1799.53 -0.12173 -3.80305 0
M  V30 19919 H 1799.04 -1.89799 -3.38523 0
M  V30 19920 H 1797.14 0.549446 -3.68527 0
M  V30 19921 H 1797.26 -1.05488 -4.67343 0
M  V30 19922 H 1795.62 -0.466002 -2.50401 0
M  V30 19923 H 1796.4 -2.12645 -2.69512 0
M  V30 19924 N 1798.85 1.47045 -0.567045 0
M  V30 19925 C 1800.08 2.06835 -0.0518309 0
M  V30 19926 C 1800.49 1.41823 1.24626 0
M  V30 19927 O 1799.85 0.518102 1.74991 0
M  V30 19928 C 1799.9 3.6124 0.137142 0
M  V30 19929 O 1799.62 4.23817 -1.10955 0
M  V30 19930 C 1801.12 4.37921 0.688511 0
M  V30 19931 H 1798.34 0.669111 -0.0503138 0
M  V30 19932 H 1800.88 1.88906 -0.783258 0
M  V30 19933 H 1799.04 3.7865 0.818733 0
M  V30 19934 H 1799.45 5.16484 -0.913475 0
M  V30 19935 H 1800.93 5.46603 0.769984 0
M  V30 19936 H 1801.4 4.0488 1.70201 0
M  V30 19937 H 1802.01 4.25279 0.0423004 0
M  V30 19938 N 1800.33 0.304 1.5464 0
M  V30 19939 C 1801.56 -0.306471 2.04314 0
M  V30 19940 C 1801.96 -1.47839 1.18069 0
M  V30 19941 O 1801.31 -1.82612 0.199666 0
M  V30 19942 C 1801.37 -0.822694 3.4996 0
M  V30 19943 C 1801.03 0.224343 4.56449 0
M  V30 19944 C 1802.03 1.05382 5.09108 0
M  V30 19945 C 1799.71 0.366905 5.00958 0
M  V30 19946 C 1801.71 2.01176 6.0482 0
M  V30 19947 C 1799.4 1.32829 5.96489 0
M  V30 19948 C 1800.39 2.1492 6.48304 0
M  V30 19949 O 1800.08 3.09429 7.41963 0
M  V30 19950 H 1799.81 -0.0701033 0.672355 0
M  V30 19951 H 1802.37 0.442449 2.00578 0
M  V30 19952 H 1800.6 -1.62219 3.5103 0
M  V30 19953 H 1802.29 -1.34938 3.82814 0
M  V30 19954 H 1803.05 0.954561 4.75514 0
M  V30 19955 H 1798.93 -0.262121 4.60254 0
M  V30 19956 H 1802.48 2.65291 6.45187 0
M  V30 19957 H 1798.37 1.42826 6.29501 0
M  V30 19958 H 1799.14 3.04442 7.59774 0
M  V30 19959 N 1801.8 -1.57568 0.0317802 0
M  V30 19960 C 1803.03 -1.9662 -0.659953 0
M  V30 19961 C 1803.45 -0.908334 -1.64715 0
M  V30 19962 O 1802.81 0.130491 -1.8083 0
M  V30 19963 C 1802.86 -3.34765 -1.34033 0
M  V30 19964 O 1801.96 -3.31317 -2.45566 0
M  V30 19965 H 1801.3 -0.641024 -0.17316 0
M  V30 19966 H 1803.83 -2.04382 0.0944231 0
M  V30 19967 H 1803.84 -3.71056 -1.69651 0
M  V30 19968 H 1802.52 -4.11302 -0.616716 0
M  V30 19969 H 1801.1 -3.06746 -2.1204 0
M  V30 19970 N 1803.28 0.241399 -1.5574 0
M  V30 19971 C 1804.52 0.975956 -1.79595 0
M  V30 19972 C 1804.89 1.82312 -0.60218 0
M  V30 19973 O 1806.09 2.58988 -0.719614 0
M  V30 19974 C 1804.36 1.80917 -3.08227 0
M  V30 19975 S 1805.92 2.60208 -3.53323 0
M  V30 19976 H 1802.74 0.328184 -0.630727 0
M  V30 19977 H 1805.34 0.243307 -1.9398 0
M  V30 19978 H 1804.04 1.1766 -3.93172 0
M  V30 19979 H 1803.57 2.58447 -2.96595 0
M  V30 19980 H 1805.59 3.83317 -3.15091 0
M  V30 19981 N 1804.76 1.49212 0.507292 0
M  V30 19982 C 1805.69 1.61529 1.62606 0
M  V30 19983 C 1806.71 0.498303 1.54986 0
M  V30 19984 O 1807.89 0.7701 1.61033 0
M  V30 19985 C 1804.99 1.55015 3.0137 0
M  V30 19986 C 1804.17 2.8214 3.34239 0
M  V30 19987 C 1803.23 2.68765 4.52385 0
M  V30 19988 O 1802.25 3.42691 4.54479 0
M  V30 19989 N 1803.45 1.7989 5.51924 0
M  V30 19990 H 1806.22 2.58018 1.52469 0
M  V30 19991 H 1803.78 1.46222 0.695042 0
M  V30 19992 H 1805.77 1.4373 3.78317 0
M  V30 19993 H 1804.34 0.6641 3.05464 0
M  V30 19994 H 1803.56 3.07823 2.46249 0
M  V30 19995 H 1804.85 3.66432 3.52994 0
M  V30 19996 H 1804.25 1.19074 5.53026 0
M  V30 19997 H 1802.81 1.74531 6.27999 0
M  V30 19998 N 1806.24 -0.757876 1.38181 0
M  V30 19999 C 1807.17 -1.88519 1.37779 0
M  V30 20000 C 1808.15 -1.68336 0.24432 0
M  V30 20001 O 1809.33 -1.88991 0.446762 0
M  V30 20002 C 1806.46 -3.2599 1.19784 0
M  V30 20003 C 1805.42 -3.60764 2.30289 0
M  V30 20004 C 1804.74 -4.96927 1.97403 0
M  V30 20005 C 1806.04 -3.66082 3.72533 0
M  V30 20006 H 1807.74 -1.89112 2.32114 0
M  V30 20007 H 1805.28 -0.908442 1.11729 0
M  V30 20008 H 1807.24 -4.04504 1.18129 0
M  V30 20009 H 1805.96 -3.25864 0.219088 0
M  V30 20010 H 1804.62 -2.84566 2.31123 0
M  V30 20011 H 1804.27 -4.93356 0.98023 0
M  V30 20012 H 1803.97 -5.21162 2.7141 0
M  V30 20013 H 1805.49 -5.77825 1.97359 0
M  V30 20014 H 1806.91 -4.3472 3.73754 0
M  V30 20015 H 1805.3 -4.01824 4.4571 0
M  V30 20016 H 1806.37 -2.66412 4.05158 0
M  V30 20017 N 1807.72 -1.22979 -0.985586 0
M  V30 20018 C 1808.65 -1.03073 -2.09519 0
M  V30 20019 C 1809.63 0.0507025 -1.70024 0
M  V30 20020 O 1810.81 -0.112938 -1.93871 0
M  V30 20021 C 1807.94 -0.615578 -3.41801 0
M  V30 20022 C 1806.9 -1.64377 -3.95176 0
M  V30 20023 C 1806.22 -1.08422 -5.23592 0
M  V30 20024 C 1807.52 -3.03555 -4.25032 0
M  V30 20025 H 1809.22 -1.95882 -2.2643 0
M  V30 20026 H 1806.76 -0.943206 -1.0881 0
M  V30 20027 H 1808.72 -0.463394 -4.18844 0
M  V30 20028 H 1807.44 0.348185 -3.24739 0
M  V30 20029 H 1806.1 -1.78386 -3.20272 0
M  V30 20030 H 1805.75 -0.111597 -5.02876 0
M  V30 20031 H 1805.45 -1.77118 -5.6027 0
M  V30 20032 H 1806.97 -0.94378 -6.03262 0
M  V30 20033 H 1808.38 -2.92878 -4.92844 0
M  V30 20034 H 1806.78 -3.69441 -4.72899 0
M  V30 20035 H 1807.85 -3.52937 -3.32511 0
M  V30 20036 N 1809.19 1.18355 -1.04066 0
M  V30 20037 C 1810.44 1.88335 -0.744046 0
M  V30 20038 C 1810.77 1.80353 0.728219 0
M  V30 20039 O 1810.02 1.19839 1.54717 0
M  V30 20040 C 1810.32 3.38203 -1.15557 0
M  V30 20041 C 1809.99 3.66389 -2.62812 0
M  V30 20042 C 1808.65 3.73791 -3.03041 0
M  V30 20043 C 1811 3.78773 -3.58023 0
M  V30 20044 C 1808.33 3.91056 -4.37369 0
M  V30 20045 C 1810.68 3.97554 -4.92071 0
M  V30 20046 C 1809.35 4.03192 -5.3197 0
M  V30 20047 H 1808.62 0.689168 -0.272266 0
M  V30 20048 H 1811.26 1.40087 -1.30568 0
M  V30 20049 H 1809.57 3.8843 -0.512741 0
M  V30 20050 H 1811.27 3.90691 -0.903428 0
M  V30 20051 H 1807.86 3.61244 -2.30652 0
M  V30 20052 H 1812.04 3.72386 -3.28089 0
M  V30 20053 H 1807.3 3.93665 -4.67801 0
M  V30 20054 H 1811.47 4.06078 -5.65751 0
M  V30 20055 H 1809.1 4.16323 -6.36066 0
M  V30 20056 N 1810.67 0.820125 1.3458 0
M  V30 20057 C 1811.62 0.237994 2.2957 0
M  V30 20058 C 1812.59 -0.635637 1.53456 0
M  V30 20059 O 1813.77 -0.57787 1.81839 0
M  V30 20060 C 1810.91 -0.596426 3.39907 0
M  V30 20061 C 1810.03 0.29914 4.30963 0
M  V30 20062 C 1809.16 -0.54458 5.28401 0
M  V30 20063 C 1808.2 0.350546 6.11095 0
M  V30 20064 N 1807.34 -0.453936 7.00631 0
M  V30 20065 H 1812.18 1.0534 2.7876 0
M  V30 20066 H 1809.72 0.530977 1.37183 0
M  V30 20067 H 1811.67 -1.0955 4.0256 0
M  V30 20068 H 1810.3 -1.37697 2.91958 0
M  V30 20069 H 1809.36 0.916412 3.69196 0
M  V30 20070 H 1810.67 0.987544 4.88926 0
M  V30 20071 H 1809.82 -1.10825 5.96492 0
M  V30 20072 H 1808.56 -1.2665 4.70968 0
M  V30 20073 H 1807.57 0.926375 5.41939 0
M  V30 20074 H 1808.79 1.07054 6.70609 0
M  V30 20075 H 1806.74 -1.15958 6.4567 0
M  V30 20076 H 1806.65 0.176138 7.55795 0
M  V30 20077 H 1807.92 -1.00044 7.73053 0
M  V30 20078 N 1812.15 -1.46743 0.574835 0
M  V30 20079 C 1813.1 -2.30224 -0.162908 0
M  V30 20080 C 1814.07 -1.4014 -0.891629 0
M  V30 20081 O 1815.25 -1.69094 -0.883854 0
M  V30 20082 C 1812.39 -3.24456 -1.1757 0
M  V30 20083 C 1811.51 -4.29637 -0.451233 0
M  V30 20084 C 1810.64 -5.11003 -1.45085 0
M  V30 20085 C 1809.68 -6.07941 -0.712353 0
M  V30 20086 N 1808.82 -6.82202 -1.65965 0
M  V30 20087 H 1813.66 -2.92785 0.555063 0
M  V30 20088 H 1811.19 -1.44302 0.285546 0
M  V30 20089 H 1813.15 -3.77526 -1.77567 0
M  V30 20090 H 1811.78 -2.63721 -1.86148 0
M  V30 20091 H 1810.83 -3.79485 0.263623 0
M  V30 20092 H 1812.15 -4.9864 0.126468 0
M  V30 20093 H 1811.3 -5.68311 -2.12386 0
M  V30 20094 H 1810.04 -4.41942 -2.06248 0
M  V30 20095 H 1809.04 -5.49794 -0.0255266 0
M  V30 20096 H 1810.27 -6.79017 -0.106227 0
M  V30 20097 H 1808.21 -6.15858 -2.25953 0
M  V30 20098 H 1808.13 -7.47438 -1.13456 0
M  V30 20099 H 1809.4 -7.44073 -2.32325 0
M  V30 20100 N 1813.63 -0.312197 -1.54477 0
M  V30 20101 C 1814.91 0.347462 -1.92489 0
M  V30 20102 C 1815.29 1.70797 -1.24063 0
M  V30 20103 O 1814.63 2.25313 -0.380296 0
M  V30 20104 C 1814.84 0.450992 -3.46074 0
M  V30 20105 C 1816.19 0.716618 -4.18509 0
M  V30 20106 O 1817.22 0.534364 -3.52169 0
M  V30 20107 O 1816.07 1.06744 -5.35974 0
M  V30 20108 H 1813.17 0.196248 -0.803378 0
M  V30 20109 H 1815.71 -0.361078 -1.65814 0
M  V30 20110 H 1814.49 -0.504982 -3.88028 0
M  V30 20111 H 1814.11 1.20756 -3.78819 0
M  V30 20112 N 1815.11 1.57549 -0.040136 0
M  V30 20113 C 1816.02 2.14351 0.953457 0
M  V30 20114 C 1817.03 1.09851 1.3494 0
M  V30 20115 O 1818.21 1.41965 1.42857 0
M  V30 20116 C 1815.27 2.66832 2.21363 0
M  V30 20117 C 1814.33 3.86088 1.87708 0
M  V30 20118 C 1813.57 4.36057 3.07718 0
M  V30 20119 O 1813.79 3.85147 4.20735 0
M  V30 20120 O 1812.72 5.27775 2.89374 0
M  V30 20121 H 1816.55 2.99549 0.500423 0
M  V30 20122 H 1814.14 1.48298 0.18112 0
M  V30 20123 H 1816.02 3.00605 2.95321 0
M  V30 20124 H 1814.69 1.84711 2.65826 0
M  V30 20125 H 1813.6 3.57222 1.11101 0
M  V30 20126 H 1814.93 4.69405 1.48053 0
M  V30 20127 N 1816.58 -0.233136 1.55866 0
M  V30 20128 C 1817.49 -1.31004 1.94615 0
M  V30 20129 C 1818.51 -1.51915 0.848399 0
M  V30 20130 O 1819.69 -1.6527 1.15098 0
M  V30 20131 C 1816.75 -2.64203 2.24494 0
M  V30 20132 C 1815.81 -2.51695 3.47776 0
M  V30 20133 C 1815.05 -3.78542 3.7622 0
M  V30 20134 O 1815.27 -4.81043 3.06519 0
M  V30 20135 O 1814.2 -3.76348 4.69729 0
M  V30 20136 H 1818.03 -1.01129 2.86368 0
M  V30 20137 H 1815.61 -0.435043 1.42926 0
M  V30 20138 H 1817.5 -3.42889 2.44959 0
M  V30 20139 H 1816.17 -2.93782 1.35918 0
M  V30 20140 H 1815.08 -1.71248 3.32603 0
M  V30 20141 H 1816.41 -2.27058 4.36698 0
M  V30 20142 N 1818.06 -1.49479 -0.499372 0
M  V30 20143 C 1819.29 -1.63025 -1.28209 0
M  V30 20144 C 1819.71 -0.302238 -1.85656 0
M  V30 20145 O 1819.07 0.730355 -1.65938 0
M  V30 20146 C 1819.12 -2.70287 -2.38699 0
M  V30 20147 O 1818.22 -2.29573 -3.42593 0
M  V30 20148 H 1817.56 -0.545605 -0.378432 0
M  V30 20149 H 1820.09 -1.95677 -0.597628 0
M  V30 20150 H 1820.1 -2.92505 -2.84438 0
M  V30 20151 H 1818.78 -3.66684 -1.96253 0
M  V30 20152 H 1817.36 -2.17692 -3.02761 0
M  V30 20153 N 1819.54 0.750537 -1.38581 0
M  V30 20154 C 1820.77 1.53978 -1.38196 0
M  V30 20155 C 1821.18 1.8878 0.0274976 0
M  V30 20156 O 1820.54 1.52997 0.994894 0
M  V30 20157 C 1820.59 2.83702 -2.24043 0
M  V30 20158 O 1820.31 2.50384 -3.59499 0
M  V30 20159 C 1821.81 3.77823 -2.31872 0
M  V30 20160 H 1819.03 0.476345 -0.472585 0
M  V30 20161 H 1821.58 0.928634 -1.82199 0
M  V30 20162 H 1819.73 3.41187 -1.83494 0
M  V30 20163 H 1820.15 3.33605 -4.04732 0
M  V30 20164 H 1821.62 4.65788 -2.96218 0
M  V30 20165 H 1822.1 4.18474 -1.33327 0
M  V30 20166 H 1822.7 3.26262 -2.72824 0
M  V30 20167 N 1821.02 1.235 0.979051 0
M  V30 20168 C 1822.3 0.976124 1.69503 0
M  V30 20169 C 1822.68 -0.504883 2.04974 0
M  V30 20170 O 1822.02 -1.47642 1.74397 0
M  V30 20171 C 1822.23 1.8877 2.93542 0
M  V30 20172 C 1823.58 2.15196 3.66027 0
M  V30 20173 O 1824.61 1.8633 3.03578 0
M  V30 20174 O 1823.47 2.64157 4.78417 0
M  V30 20175 H 1820.56 0.36825 0.740487 0
M  V30 20176 H 1823.11 1.34549 1.03415 0
M  V30 20177 H 1821.88 2.88882 2.63937 0
M  V30 20178 H 1821.5 1.52079 3.67366 0
M  V30 20179 N 1822.5 -1.17802 1.04693 0
M  V30 20180 C 1823.41 -2.25298 0.654072 0
M  V30 20181 C 1824.42 -1.70984 -0.32255 0
M  V30 20182 O 1825.6 -2.0063 -0.175904 0
M  V30 20183 C 1822.66 -3.46687 0.0296345 0
M  V30 20184 C 1821.73 -4.16108 1.05606 0
M  V30 20185 C 1820.96 -5.31702 0.461329 0
M  V30 20186 O 1821.18 -5.65701 -0.730679 0
M  V30 20187 O 1820.12 -5.89956 1.19312 0
M  V30 20188 H 1823.94 -2.61179 1.54982 0
M  V30 20189 H 1821.53 -1.25005 0.818182 0
M  V30 20190 H 1823.41 -4.20201 -0.317654 0
M  V30 20191 H 1822.08 -3.12615 -0.839839 0
M  V30 20192 H 1820.99 -3.44635 1.45526 0
M  V30 20193 H 1822.32 -4.54195 1.89651 0
M  V30 20194 N 1823.98 -0.827251 -1.34143 0
M  V30 20195 C 1825.22 -0.413762 -1.9741 0
M  V30 20196 C 1825.54 1.0297 -1.66303 0
M  V30 20197 O 1826.74 1.5473 -2.23094 0
M  V30 20198 C 1825.2 -0.688904 -3.53245 0
M  V30 20199 C 1824.81 -2.14627 -3.93242 0
M  V30 20200 C 1826.55 -0.341794 -4.23122 0
M  V30 20201 C 1824.46 -2.36607 -5.42006 0
M  V30 20202 H 1823.39 -0.150982 -0.738729 0
M  V30 20203 H 1826.04 -1.01421 -1.52925 0
M  V30 20204 H 1824.42 -0.0182319 -3.95996 0
M  V30 20205 H 1825.6 -2.85646 -3.61584 0
M  V30 20206 H 1823.91 -2.45523 -3.36314 0
M  V30 20207 H 1826.51 -0.483797 -5.32507 0
M  V30 20208 H 1826.85 0.714135 -4.10129 0
M  V30 20209 H 1827.38 -0.96722 -3.85862 0
M  V30 20210 H 1824.12 -3.40722 -5.5999 0
M  V30 20211 H 1823.64 -1.70137 -5.75164 0
M  V30 20212 H 1825.32 -2.19181 -6.08744 0
M  V30 20213 N 1825.45 1.46436 -0.582609 0
M  V30 20214 C 1826.7 2.01986 -0.0680147 0
M  V30 20215 C 1827.02 1.45654 1.29653 0
M  V30 20216 O 1826.29 0.641203 1.85109 0
M  V30 20217 H 1824.87 0.746671 -0.022153 0
M  V30 20218 H 1827.53 1.79541 -0.758367 0
M  V30 20219 H 1826.63 3.121 0.00106001 0
M  V30 20220 N 1826.93 0.320385 1.54309 0
M  V30 20221 C 1827.86 -0.539789 2.27175 0
M  V30 20222 C 1828.84 -1.12198 1.2785 0
M  V30 20223 O 1830.03 -1.1477 1.56657 0
M  V30 20224 C 1827.16 -1.70236 3.02716 0
M  V30 20225 C 1826.11 -1.24962 4.09351 0
M  V30 20226 C 1825.44 -2.49888 4.72715 0
M  V30 20227 C 1826.74 -0.366788 5.21011 0
M  V30 20228 H 1828.43 0.0680079 2.99323 0
M  V30 20229 H 1825.98 0.0341488 1.4396 0
M  V30 20230 H 1827.93 -2.31037 3.5242 0
M  V30 20231 H 1826.65 -2.33669 2.2818 0
M  V30 20232 H 1825.31 -0.664556 3.60526 0
M  V30 20233 H 1824.96 -3.11679 3.94798 0
M  V30 20234 H 1824.66 -2.20288 5.44745 0
M  V30 20235 H 1826.19 -3.11458 5.25192 0
M  V30 20236 H 1827.6 -0.881001 5.6649 0
M  V30 20237 H 1826 -0.163707 5.99877 0
M  V30 20238 H 1827.07 0.603185 4.81134 0
M  V30 20239 N 1828.41 -1.57525 0.0484906 0
M  V30 20240 C 1829.66 -1.91761 -0.625335 0
M  V30 20241 C 1829.97 -0.928421 -1.72162 0
M  V30 20242 O 1831.18 -1.16273 -2.45342 0
M  V30 20243 C 1829.63 -3.40571 -1.1636 0
M  V30 20244 C 1829.24 -4.47889 -0.0995687 0
M  V30 20245 C 1830.99 -3.83845 -1.81282 0
M  V30 20246 C 1828.89 -5.87811 -0.650563 0
M  V30 20247 H 1827.82 -0.71567 -0.237346 0
M  V30 20248 H 1830.47 -1.83127 0.116944 0
M  V30 20249 H 1828.86 -3.44201 -1.95811 0
M  V30 20250 H 1830.03 -4.55846 0.673904 0
M  V30 20251 H 1828.34 -4.13939 0.452038 0
M  V30 20252 H 1830.94 -4.8575 -2.23497 0
M  V30 20253 H 1831.28 -3.19947 -2.66345 0
M  V30 20254 H 1831.82 -3.8272 -1.08491 0
M  V30 20255 H 1828.56 -6.55299 0.162371 0
M  V30 20256 H 1828.08 -5.83422 -1.39208 0
M  V30 20257 H 1829.76 -6.36979 -1.1343 0
M  V30 20258 N 1829.89 0.224867 -1.55988 0
M  V30 20259 C 1831.14 0.947871 -1.78493 0
M  V30 20260 C 1831.46 1.85001 -0.616413 0
M  V30 20261 O 1830.73 1.92435 0.366847 0
M  V30 20262 H 1829.31 0.352987 -0.658338 0
M  V30 20263 H 1831.97 0.237519 -1.93447 0
M  V30 20264 H 1831.06 1.55664 -2.70509 0
M  V30 20265 N 1831.37 1.49742 0.491438 0
M  V30 20266 C 1832.61 1.58956 1.24161 0
M  V30 20267 C 1832.93 0.285882 1.935 0
M  V30 20268 O 1834.13 0.256678 2.70284 0
M  V30 20269 C 1832.59 2.805 2.25494 0
M  V30 20270 C 1832.2 4.17664 1.62051 0
M  V30 20271 C 1833.94 2.99049 3.0128 0
M  V30 20272 C 1831.85 5.3042 2.61551 0
M  V30 20273 H 1830.78 0.591883 0.467108 0
M  V30 20274 H 1833.43 1.76144 0.514364 0
M  V30 20275 H 1831.81 2.56827 3.01423 0
M  V30 20276 H 1832.99 4.51512 0.9205 0
M  V30 20277 H 1831.3 4.04553 0.986211 0
M  V30 20278 H 1833.9 3.80458 3.75707 0
M  V30 20279 H 1834.24 2.0998 3.59464 0
M  V30 20280 H 1834.77 3.22807 2.32466 0
M  V30 20281 H 1831.51 6.21579 2.08135 0
M  V30 20282 H 1831.03 5.01014 3.29765 0
M  V30 20283 H 1832.71 5.60152 3.23789 0
M  V30 20284 N 1832.84 -0.743177 1.38977 0
M  V30 20285 C 1833.79 -1.84801 1.33539 0
M  V30 20286 C 1834.78 -1.5942 0.217733 0
M  V30 20287 O 1835.97 -1.71063 0.454585 0
M  V30 20288 C 1833.1 -3.22635 1.1731 0
M  V30 20289 C 1832.19 -3.53872 2.33741 0
M  V30 20290 N 1832.58 -3.56099 3.59204 0
M  V30 20291 C 1830.87 -3.84193 2.26521 0
M  V30 20292 C 1831.58 -3.849 4.3615 0
M  V30 20293 N 1830.55 -4.02259 3.65634 0
M  V30 20294 H 1834.35 -1.84816 2.28518 0
M  V30 20295 H 1831.87 -0.941033 1.32357 0
M  V30 20296 H 1833.86 -4.01714 1.11497 0
M  V30 20297 H 1832.52 -3.23865 0.232735 0
M  V30 20298 H 1833.54 -3.37607 3.92736 0
M  V30 20299 H 1830.21 -3.93077 1.40701 0
M  V30 20300 H 1831.6 -3.93158 5.44863 0
M  V30 20301 N 1834.32 -1.24018 -0.972487 0
M  V30 20302 C 1835.74 -1.00454 -1.24021 0
M  V30 20303 C 1835.94 0.289568 -1.99409 0
M  V30 20304 O 1834.99 1.00696 -2.31552 0
M  V30 20305 C 1836.31 -2.21651 -2.03202 0
M  V30 20306 C 1837.86 -2.26225 -2.16312 0
M  V30 20307 C 1838.33 -3.47031 -2.98888 0
M  V30 20308 N 1839.82 -3.47318 -3.06471 0
M  V30 20309 C 1840.56 -4.3745 -3.70709 0
M  V30 20310 N 1840.05 -5.37829 -4.36705 0
M  V30 20311 N 1841.85 -4.25173 -3.67674 0
M  V30 20312 H 1834 -2.07187 -0.467668 0
M  V30 20313 H 1836.26 -0.908955 -0.269267 0
M  V30 20314 H 1835.97 -3.15608 -1.55191 0
M  V30 20315 H 1835.84 -2.2338 -3.03943 0
M  V30 20316 H 1838.23 -1.32803 -2.63529 0
M  V30 20317 H 1838.31 -2.28525 -1.14936 0
M  V30 20318 H 1837.95 -4.40765 -2.52366 0
M  V30 20319 H 1837.88 -3.41974 -4.00452 0
M  V30 20320 H 1840.37 -2.74695 -2.59521 0
M  V30 20321 H 1840.69 -6.02846 -4.83525 0
M  V30 20322 H 1839.03 -5.41721 -4.35389 0
M  V30 20323 H 1842.22 -3.45992 -3.15289 0
M  V30 20324 H 1842.39 -4.95617 -4.17454 0
M  V30 20325 N 1835.8 1.17245 -1.05316 0
M  V30 20326 C 1837.05 1.87536 -0.76398 0
M  V30 20327 C 1837.38 1.81115 0.709049 0
M  V30 20328 O 1836.63 1.21473 1.53437 0
M  V30 20329 C 1836.93 3.36958 -1.19138 0
M  V30 20330 C 1836.6 3.63581 -2.66683 0
M  V30 20331 C 1835.26 3.70556 -3.06988 0
M  V30 20332 C 1837.61 3.74954 -3.62021 0
M  V30 20333 C 1834.94 3.86396 -4.41492 0
M  V30 20334 C 1837.29 3.92313 -4.9626 0
M  V30 20335 C 1835.95 3.97527 -5.36217 0
M  V30 20336 H 1835.22 0.686241 -0.27956 0
M  V30 20337 H 1837.87 1.38694 -1.32047 0
M  V30 20338 H 1836.18 3.87865 -0.55391 0
M  V30 20339 H 1837.87 3.8971 -0.944815 0
M  V30 20340 H 1834.46 3.58778 -2.34471 0
M  V30 20341 H 1838.65 3.68885 -3.3202 0
M  V30 20342 H 1833.9 3.88681 -4.7195 0
M  V30 20343 H 1838.08 4.00055 -5.70026 0
M  V30 20344 H 1835.7 4.09553 -6.40445 0
M  V30 20345 N 1837.28 0.834353 1.33702 0
M  V30 20346 C 1838.51 0.440589 2.01847 0
M  V30 20347 C 1838.92 -0.961513 1.62947 0
M  V30 20348 O 1838.26 -1.63556 0.836377 0
M  V30 20349 C 1838.32 0.476396 3.5633 0
M  V30 20350 C 1837.99 1.83382 4.18593 0
M  V30 20351 C 1838.98 2.79638 4.3829 0
M  V30 20352 C 1836.67 2.12543 4.55116 0
M  V30 20353 C 1838.66 4.0322 4.93652 0
M  V30 20354 C 1836.35 3.36382 5.10187 0
M  V30 20355 C 1837.35 4.31537 5.294 0
M  V30 20356 O 1837.03 5.53187 5.833 0
M  V30 20357 H 1836.77 0.173726 0.653296 0
M  V30 20358 H 1839.32 1.1272 1.71707 0
M  V30 20359 H 1837.55 -0.266969 3.85777 0
M  V30 20360 H 1839.24 0.101088 4.05774 0
M  V30 20361 H 1840.01 2.58409 4.10427 0
M  V30 20362 H 1835.88 1.39274 4.39459 0
M  V30 20363 H 1839.43 4.77502 5.08564 0
M  V30 20364 H 1835.33 3.5747 5.3748 0
M  V30 20365 H 1836.09 5.54864 6.01721 0
M  V30 20366 N 1838.76 -1.46125 0.590367 0
M  V30 20367 C 1839.67 -2.34177 -0.140761 0
M  V30 20368 C 1840.68 -1.50213 -0.878181 0
M  V30 20369 O 1841.86 -1.83063 -0.839644 0
M  V30 20370 C 1838.92 -3.27537 -1.13669 0
M  V30 20371 C 1837.98 -4.27403 -0.403103 0
M  V30 20372 C 1837.22 -5.16302 -1.35159 0
M  V30 20373 O 1837.44 -5.08283 -2.58853 0
M  V30 20374 O 1836.37 -5.95753 -0.858003 0
M  V30 20375 H 1840.2 -2.98063 0.582401 0
M  V30 20376 H 1837.79 -1.45225 0.35072 0
M  V30 20377 H 1839.67 -3.85112 -1.71074 0
M  V30 20378 H 1838.34 -2.66237 -1.84118 0
M  V30 20379 H 1837.25 -3.73493 0.212986 0
M  V30 20380 H 1838.58 -4.9151 0.260565 0
M  V30 20381 N 1840.23 -0.328564 -1.54137 0
M  V30 20382 C 1841.46 0.277044 -2.05541 0
M  V30 20383 C 1841.88 1.44613 -1.20285 0
M  V30 20384 O 1841.24 1.80043 -0.213107 0
M  V30 20385 C 1841.29 0.684495 -3.54044 0
M  V30 20386 O 1840.39 1.78629 -3.71706 0
M  V30 20387 H 1839.74 0.049078 -0.662184 0
M  V30 20388 H 1842.27 -0.478426 -1.98928 0
M  V30 20389 H 1842.28 0.965784 -3.96405 0
M  V30 20390 H 1840.95 -0.170554 -4.1555 0
M  V30 20391 H 1839.53 1.50343 -3.4125 0
M  V30 20392 N 1841.71 1.57497 -0.0568439 0
M  V30 20393 C 1842.96 1.92533 0.614452 0
M  V30 20394 C 1843.28 0.936373 1.71047 0
M  V30 20395 O 1842.55 -0.0178803 1.95892 0
M  V30 20396 H 1841.13 0.710724 0.229958 0
M  V30 20397 H 1843.79 1.94583 -0.111181 0
M  V30 20398 H 1842.89 2.93928 1.04941 0
M  V30 20399 N 1843.19 -0.216591 1.56105 0
M  V30 20400 C 1844.44 -0.938321 1.78545 0
M  V30 20401 C 1844.75 -1.85302 0.62629 0
M  V30 20402 O 1845.96 -2.61377 0.734451 0
M  V30 20403 C 1844.41 -1.71871 3.16209 0
M  V30 20404 C 1844.02 -0.849904 4.39864 0
M  V30 20405 C 1845.77 -2.43136 3.47973 0
M  V30 20406 C 1843.67 -1.62793 5.68553 0
M  V30 20407 H 1842.6 -0.354098 0.66568 0
M  V30 20408 H 1845.25 -0.192079 1.82492 0
M  V30 20409 H 1843.64 -2.50804 3.06453 0
M  V30 20410 H 1844.81 -0.100757 4.6069 0
M  V30 20411 H 1843.13 -0.249139 4.15654 0
M  V30 20412 H 1845.72 -3.01856 4.41347 0
M  V30 20413 H 1846.07 -3.16267 2.70704 0
M  V30 20414 H 1846.6 -1.71189 3.59081 0
M  V30 20415 H 1843.34 -0.939801 6.48728 0
M  V30 20416 H 1842.86 -2.35156 5.5178 0
M  V30 20417 H 1844.54 -2.18733 6.08905 0
M  V30 20418 N 1844.67 -1.5 -0.48349 0
M  V30 20419 C 1845.91 -1.60606 -1.23829 0
M  V30 20420 C 1846.25 -0.299778 -1.91872 0
M  V30 20421 O 1845.52 0.697925 -1.81547 0
M  V30 20422 C 1845.81 -2.77769 -2.29165 0
M  V30 20423 C 1845.66 -4.18243 -1.65507 0
M  V30 20424 C 1846.98 -2.90521 -3.30584 0
M  V30 20425 H 1844.1 -0.584561 -0.44884 0
M  V30 20426 H 1846.74 -1.82346 -0.533855 0
M  V30 20427 H 1844.89 -2.59364 -2.89245 0
M  V30 20428 H 1846.56 -4.48208 -1.09119 0
M  V30 20429 H 1844.8 -4.23077 -0.958577 0
M  V30 20430 H 1845.47 -4.96128 -2.41994 0
M  V30 20431 H 1847.95 -3.0733 -2.80513 0
M  V30 20432 H 1846.83 -3.74146 -4.0163 0
M  V30 20433 H 1847.09 -2.00609 -3.93965 0
M  V30 20434 N 1846.15 0.735796 -1.39369 0
M  V30 20435 C 1847.39 1.49534 -1.3655 0
M  V30 20436 C 1847.72 1.94461 0.0388165 0
M  V30 20437 O 1846.98 1.67048 1.01949 0
M  V30 20438 C 1847.28 2.7495 -2.28336 0
M  V30 20439 C 1846.94 2.48894 -3.75982 0
M  V30 20440 C 1845.6 2.41498 -4.16212 0
M  V30 20441 C 1847.96 2.26589 -4.69369 0
M  V30 20442 C 1845.28 2.09836 -5.47892 0
M  V30 20443 C 1847.64 1.96444 -6.01326 0
M  V30 20444 C 1846.3 1.87515 -6.4062 0
M  V30 20445 H 1845.57 0.547184 -0.49967 0
M  V30 20446 H 1848.22 0.844587 -1.71869 0
M  V30 20447 H 1846.52 3.44764 -1.86132 0
M  V30 20448 H 1848.22 3.32975 -2.23448 0
M  V30 20449 H 1844.81 2.5553 -3.44097 0
M  V30 20450 H 1848.99 2.31272 -4.39121 0
M  V30 20451 H 1844.25 2.01445 -5.77261 0
M  V30 20452 H 1848.42 1.78193 -6.73216 0
M  V30 20453 H 1846.05 1.62747 -7.42575 0
M  V30 20454 N 1847.63 1.24532 0.965897 0
M  V30 20455 C 1848.54 1.0564 2.09469 0
M  V30 20456 C 1849.55 -0.00330962 1.74 0
M  V30 20457 O 1850.73 0.195248 2.00451 0
M  V30 20458 C 1847.79 0.665318 3.40256 0
M  V30 20459 C 1846.85 1.80171 3.89663 0
M  V30 20460 C 1846.09 1.42919 5.14208 0
M  V30 20461 O 1846.31 0.319815 5.69503 0
M  V30 20462 O 1845.24 2.25546 5.58044 0
M  V30 20463 H 1849.07 2.00277 2.28304 0
M  V30 20464 H 1846.65 1.03368 1.07868 0
M  V30 20465 H 1848.54 0.458827 4.18895 0
M  V30 20466 H 1847.21 -0.251914 3.22718 0
M  V30 20467 H 1846.12 2.06296 3.12078 0
M  V30 20468 H 1847.45 2.69778 4.11681 0
M  V30 20469 N 1849.1 -1.16685 1.05936 0
M  V30 20470 C 1850.01 -2.24591 0.677931 0
M  V30 20471 C 1851.03 -1.71317 -0.304397 0
M  V30 20472 O 1852.21 -2.00806 -0.154615 0
M  V30 20473 C 1849.27 -3.46636 0.0664037 0
M  V30 20474 C 1848.33 -4.14964 1.10014 0
M  V30 20475 C 1847.56 -5.31183 0.517697 0
M  V30 20476 O 1847.79 -5.66444 -0.670637 0
M  V30 20477 O 1846.72 -5.88657 1.25563 0
M  V30 20478 H 1850.55 -2.5952 1.57743 0
M  V30 20479 H 1848.13 -1.2413 0.831395 0
M  V30 20480 H 1850.01 -4.20514 -0.273069 0
M  V30 20481 H 1848.69 -3.13489 -0.806634 0
M  V30 20482 H 1847.6 -3.43072 1.49173 0
M  V30 20483 H 1848.93 -4.52158 1.94458 0
M  V30 20484 N 1850.58 -0.841432 -1.33258 0
M  V30 20485 C 1851.81 -0.451287 -2.01611 0
M  V30 20486 C 1852.22 0.952858 -1.63454 0
M  V30 20487 O 1851.56 1.6311 -0.845039 0
M  V30 20488 C 1851.62 -0.495287 -3.56072 0
M  V30 20489 C 1851.29 -1.856 -4.17614 0
M  V30 20490 C 1852.29 -2.81959 -4.36801 0
M  V30 20491 C 1849.97 -2.14953 -4.53983 0
M  V30 20492 C 1851.96 -4.05832 -4.91507 0
M  V30 20493 C 1849.65 -3.39083 -5.08395 0
M  V30 20494 C 1850.65 -4.34339 -5.27104 0
M  V30 20495 O 1850.34 -5.56273 -5.80359 0
M  V30 20496 H 1850.07 -0.177188 -0.652365 0
M  V30 20497 H 1852.62 -1.13629 -1.71107 0
M  V30 20498 H 1850.85 0.246506 -3.85914 0
M  V30 20499 H 1852.54 -0.122606 -4.05715 0
M  V30 20500 H 1853.31 -2.60582 -4.0905 0
M  V30 20501 H 1849.19 -1.41602 -4.38714 0
M  V30 20502 H 1852.73 -4.80192 -5.06025 0
M  V30 20503 H 1848.63 -3.60316 -5.35577 0
M  V30 20504 H 1849.4 -5.58047 -5.9877 0
M  V30 20505 N 1852.06 1.4581 -0.598108 0
M  V30 20506 C 1853.01 2.30454 0.126261 0
M  V30 20507 C 1853.98 1.41541 0.869221 0
M  V30 20508 O 1855.16 1.70478 0.856841 0
M  V30 20509 C 1852.3 3.26285 1.12393 0
M  V30 20510 C 1851.41 4.303 0.382824 0
M  V30 20511 C 1850.55 5.13246 1.36937 0
M  V30 20512 C 1849.59 6.08997 0.615545 0
M  V30 20513 N 1848.73 6.84756 1.55091 0
M  V30 20514 H 1853.57 2.91865 -0.601573 0
M  V30 20515 H 1851.1 1.43829 -0.308467 0
M  V30 20516 H 1853.06 3.80303 1.71539 0
M  V30 20517 H 1851.69 2.66649 1.81929 0
M  V30 20518 H 1850.74 3.79018 -0.323962 0
M  V30 20519 H 1852.05 4.98375 -0.205781 0
M  V30 20520 H 1851.21 5.71618 2.03318 0
M  V30 20521 H 1849.95 4.45168 1.99191 0
M  V30 20522 H 1848.95 5.49765 -0.0619441 0
M  V30 20523 H 1850.18 6.791 -0.00181251 0
M  V30 20524 H 1848.12 6.19375 2.16127 0
M  V30 20525 H 1848.04 7.49149 1.0155 0
M  V30 20526 H 1849.31 7.47675 2.20458 0
M  V30 20527 N 1853.54 0.336733 1.53961 0
M  V30 20528 C 1854.81 -0.316794 1.93018 0
M  V30 20529 C 1855.19 -1.68802 1.26764 0
M  V30 20530 O 1854.54 -2.2468 0.416094 0
M  V30 20531 C 1854.75 -0.395878 3.46747 0
M  V30 20532 C 1856.1 -0.649946 4.19596 0
M  V30 20533 O 1857.12 -0.47827 3.52975 0
M  V30 20534 O 1855.98 -0.982035 5.37604 0
M  V30 20535 H 1853.08 -0.183442 0.806398 0
M  V30 20536 H 1855.62 0.387412 1.65219 0
M  V30 20537 H 1854.4 0.56665 3.87175 0
M  V30 20538 H 1854.02 -1.14714 3.80692 0
M  V30 20539 N 1855.02 -1.57465 0.0651956 0
M  V30 20540 C 1856.25 -1.97273 -0.613742 0
M  V30 20541 C 1856.65 -0.942027 -1.64081 0
M  V30 20542 O 1856 0.0804791 -1.83524 0
M  V30 20543 C 1856.06 -3.3337 -1.34554 0
M  V30 20544 C 1855.72 -4.54549 -0.472698 0
M  V30 20545 C 1856.72 -5.19214 0.267005 0
M  V30 20546 C 1854.4 -5.00709 -0.399511 0
M  V30 20547 C 1856.4 -6.28386 1.06819 0
M  V30 20548 C 1854.09 -6.09754 0.405348 0
M  V30 20549 C 1855.08 -6.73455 1.13787 0
M  V30 20550 O 1854.77 -7.80402 1.92947 0
M  V30 20551 H 1854.5 -0.653863 -0.171578 0
M  V30 20552 H 1857.06 -2.04974 0.132144 0
M  V30 20553 H 1855.29 -3.22264 -2.13735 0
M  V30 20554 H 1856.98 -3.57829 -1.91607 0
M  V30 20555 H 1857.74 -4.84501 0.220015 0
M  V30 20556 H 1853.62 -4.50909 -0.959289 0
M  V30 20557 H 1857.17 -6.78038 1.64045 0
M  V30 20558 H 1853.06 -6.43902 0.453925 0
M  V30 20559 H 1853.83 -7.97247 1.85308 0
M  V30 20560 N 1856.49 0.20831 -1.56217 0
M  V30 20561 C 1857.74 0.930725 -1.79844 0
M  V30 20562 C 1858.07 1.83801 -0.636208 0
M  V30 20563 O 1857.32 1.92 0.378755 0
M  V30 20564 C 1857.62 1.78999 -3.09345 0
M  V30 20565 C 1857.29 1.03482 -4.38865 0
M  V30 20566 C 1855.95 0.826263 -4.74053 0
M  V30 20567 C 1858.3 0.50251 -5.18772 0
M  V30 20568 C 1855.63 0.0737118 -5.86654 0
M  V30 20569 C 1857.98 -0.236764 -6.32157 0
M  V30 20570 C 1856.65 -0.456453 -6.65938 0
M  V30 20571 H 1855.92 0.340576 -0.658095 0
M  V30 20572 H 1858.56 0.197971 -1.90474 0
M  V30 20573 H 1856.87 2.59101 -2.93894 0
M  V30 20574 H 1858.57 2.35132 -3.24829 0
M  V30 20575 H 1855.16 1.20736 -4.11243 0
M  V30 20576 H 1859.34 0.651071 -4.92011 0
M  V30 20577 H 1854.6 -0.106598 -6.11307 0
M  V30 20578 H 1858.77 -0.656674 -6.93297 0
M  V30 20579 H 1856.4 -1.0415 -7.53032 0
M  V30 20580 N 1857.97 1.50255 0.475528 0
M  V30 20581 C 1859.21 1.62657 1.23783 0
M  V30 20582 C 1859.58 0.317805 1.89352 0
M  V30 20583 O 1860.78 0.317219 2.66922 0
M  V30 20584 C 1859.05 2.77114 2.25704 0
M  V30 20585 S 1860.61 3.09623 3.10932 0
M  V30 20586 H 1857.42 0.573455 0.420321 0
M  V30 20587 H 1860.03 1.8802 0.535591 0
M  V30 20588 H 1858.73 3.70695 1.76107 0
M  V30 20589 H 1858.26 2.53823 3.00562 0
M  V30 20590 H 1860.28 2.53106 4.26792 0
M  V30 20591 N 1859.45 -0.728395 1.39758 0
M  V30 20592 C 1860.7 -1.48357 1.3665 0
M  V30 20593 C 1861.01 -1.95573 -0.0325759 0
M  V30 20594 O 1862.22 -2.7086 -0.186252 0
M  V30 20595 C 1860.67 -2.68105 2.40099 0
M  V30 20596 C 1860.28 -2.27812 3.85754 0
M  V30 20597 C 1862.03 -3.45899 2.46077 0
M  V30 20598 C 1859.93 -3.44322 4.80828 0
M  V30 20599 H 1858.86 -0.557138 0.508048 0
M  V30 20600 H 1861.51 -0.793948 1.65435 0
M  V30 20601 H 1859.9 -3.39174 2.04394 0
M  V30 20602 H 1861.07 -1.64246 4.30534 0
M  V30 20603 H 1859.38 -1.63094 3.83131 0
M  V30 20604 H 1861.98 -4.32573 3.143 0
M  V30 20605 H 1862.32 -3.88824 1.48732 0
M  V30 20606 H 1862.86 -2.81864 2.80709 0
M  V30 20607 H 1859.6 -3.06441 5.7946 0
M  V30 20608 H 1859.12 -4.06847 4.40722 0
M  V30 20609 H 1860.8 -4.10567 5.00044 0
M  V30 20610 N 1860.93 -1.25042 -0.959279 0
M  V30 20611 C 1862.15 -1.12339 -1.74341 0
M  V30 20612 C 1862.58 0.319342 -1.85369 0
M  V30 20613 O 1861.94 1.23129 -1.33075 0
M  V30 20614 C 1861.98 -1.77734 -3.13756 0
M  V30 20615 O 1861.09 -1.05383 -3.98708 0
M  V30 20616 H 1860.43 -0.392479 -0.535589 0
M  V30 20617 H 1862.96 -1.65516 -1.20274 0
M  V30 20618 H 1862.97 -1.83832 -3.64239 0
M  V30 20619 H 1861.64 -2.82702 -3.05045 0
M  V30 20620 H 1860.22 -1.07132 -3.57179 0
M  V30 20621 N 1862.41 1.16121 -1.06553 0
M  V30 20622 C 1863.35 2.20597 -0.678659 0
M  V30 20623 C 1864.32 1.6287 0.325988 0
M  V30 20624 O 1865.51 1.89593 0.214278 0
M  V30 20625 C 1862.65 3.45021 -0.0740442 0
M  V30 20626 C 1861.76 4.16981 -1.12919 0
M  V30 20627 C 1860.9 5.28931 -0.490435 0
M  V30 20628 C 1859.94 5.92697 -1.52893 0
M  V30 20629 N 1859.07 6.96134 -0.913346 0
M  V30 20630 H 1863.91 2.53041 -1.57398 0
M  V30 20631 H 1861.45 1.24282 -0.786923 0
M  V30 20632 H 1863.41 4.16162 0.294059 0
M  V30 20633 H 1862.04 3.13118 0.784671 0
M  V30 20634 H 1861.09 3.44417 -1.61496 0
M  V30 20635 H 1862.4 4.60495 -1.91693 0
M  V30 20636 H 1861.56 6.0666 -0.0695112 0
M  V30 20637 H 1860.29 4.86588 0.329154 0
M  V30 20638 H 1859.3 5.13688 -1.95972 0
M  V30 20639 H 1860.52 6.37119 -2.35066 0
M  V30 20640 H 1858.47 6.559 -0.114515 0
M  V30 20641 H 1858.39 7.38032 -1.63843 0
M  V30 20642 H 1859.66 7.77779 -0.517655 0
M  V30 20643 N 1863.88 0.848487 1.3281 0
M  V30 20644 C 1865.13 0.458781 1.98158 0
M  V30 20645 C 1865.49 -0.973453 1.65957 0
M  V30 20646 O 1864.78 -1.67282 0.934194 0
M  V30 20647 C 1864.97 0.62759 3.51847 0
M  V30 20648 C 1864.8 2.07468 3.98983 0
M  V30 20649 C 1863.57 2.71191 4.26361 0
M  V30 20650 C 1865.77 3.04456 4.14501 0
M  V30 20651 N 1863.75 4.06875 4.59702 0
M  V30 20652 C 1865.12 4.25111 4.5131 0
M  V30 20653 C 1867.18 3.00733 3.96817 0
M  V30 20654 C 1865.88 5.42533 4.72282 0
M  V30 20655 C 1867.91 4.17394 4.1897 0
M  V30 20656 C 1867.27 5.36807 4.5609 0
M  V30 20657 H 1863.37 0.216496 0.751434 0
M  V30 20658 H 1865.95 1.09858 1.60746 0
M  V30 20659 H 1864.12 0.0175317 3.88396 0
M  V30 20660 H 1865.85 0.208384 4.04163 0
M  V30 20661 H 1862.61 2.22267 4.18204 0
M  V30 20662 H 1863.03 4.76848 4.80567 0
M  V30 20663 H 1867.68 2.09535 3.67226 0
M  V30 20664 H 1865.39 6.34267 5.0073 0
M  V30 20665 H 1868.98 4.15942 4.06796 0
M  V30 20666 H 1867.86 6.25576 4.72889 0
M  V30 20667 N 1865.36 -1.4549 0.605832 0
M  V30 20668 C 1866.59 -2.06325 0.106497 0
M  V30 20669 C 1867 -1.45142 -1.21369 0
M  V30 20670 O 1866.34 -0.559284 -1.74979 0
M  V30 20671 C 1866.41 -3.59334 -0.109378 0
M  V30 20672 C 1866.07 -4.42842 1.12873 0
M  V30 20673 C 1867.07 -4.77929 2.04645 0
M  V30 20674 C 1864.75 -4.83621 1.35707 0
M  V30 20675 C 1866.75 -5.5265 3.1758 0
M  V30 20676 C 1864.43 -5.58096 2.48943 0
M  V30 20677 C 1865.43 -5.92527 3.39707 0
M  V30 20678 O 1865.12 -6.65492 4.50973 0
M  V30 20679 H 1864.85 -0.67285 0.06518 0
M  V30 20680 H 1867.4 -1.87751 0.83298 0
M  V30 20681 H 1865.63 -3.76301 -0.890735 0
M  V30 20682 H 1867.32 -4.02017 -0.560094 0
M  V30 20683 H 1868.09 -4.46984 1.88229 0
M  V30 20684 H 1863.97 -4.56257 0.659587 0
M  V30 20685 H 1867.51 -5.79443 3.88448 0
M  V30 20686 H 1863.41 -5.88455 2.65312 0
M  V30 20687 H 1864.18 -6.8394 4.49632 0
M  V30 20688 N 1866.84 -0.344893 -1.5378 0
M  V30 20689 C 1867.77 0.503579 -2.28005 0
M  V30 20690 C 1868.75 1.10149 -1.29619 0
M  V30 20691 O 1869.94 1.12263 -1.58463 0
M  V30 20692 C 1867.07 1.65398 -3.05386 0
M  V30 20693 C 1866.02 1.18434 -4.11288 0
M  V30 20694 C 1865.35 2.42336 -4.76631 0
M  V30 20695 C 1866.65 0.283853 -5.21528 0
M  V30 20696 H 1868.34 -0.115619 -2.99177 0
M  V30 20697 H 1865.89 -0.0570472 -1.43887 0
M  V30 20698 H 1867.84 2.25401 -3.56051 0
M  V30 20699 H 1866.56 2.3001 -2.31869 0
M  V30 20700 H 1865.22 0.607115 -3.61538 0
M  V30 20701 H 1864.87 3.05358 -3.99707 0
M  V30 20702 H 1864.57 2.11594 -5.4818 0
M  V30 20703 H 1866.09 3.03063 -5.3008 0
M  V30 20704 H 1867.51 0.790766 -5.6782 0
M  V30 20705 H 1865.91 0.0682509 -6.00061 0
M  V30 20706 H 1866.98 -0.679653 -4.80113 0
M  V30 20707 N 1868.32 1.57428 -0.0735454 0
M  V30 20708 C 1869.27 2.12821 0.893071 0
M  V30 20709 C 1870.24 1.04117 1.29418 0
M  V30 20710 O 1871.42 1.31789 1.37972 0
M  V30 20711 C 1868.56 2.69569 2.15468 0
M  V30 20712 C 1867.67 3.92436 1.80605 0
M  V30 20713 C 1866.81 4.37421 3.01391 0
M  V30 20714 C 1865.85 5.52931 2.62553 0
M  V30 20715 N 1864.98 5.92866 3.76104 0
M  V30 20716 H 1869.82 2.95113 0.413823 0
M  V30 20717 H 1867.36 1.45834 0.192613 0
M  V30 20718 H 1869.32 3.0058 2.89323 0
M  V30 20719 H 1867.95 1.9004 2.6093 0
M  V30 20720 H 1867 3.67876 0.968068 0
M  V30 20721 H 1868.31 4.76327 1.48033 0
M  V30 20722 H 1867.47 4.70102 3.83522 0
M  V30 20723 H 1866.21 3.52386 3.37158 0
M  V30 20724 H 1865.21 5.19899 1.78844 0
M  V30 20725 H 1866.44 6.39698 2.27954 0
M  V30 20726 H 1864.38 5.10781 4.11629 0
M  V30 20727 H 1864.3 6.71502 3.47305 0
M  V30 20728 H 1865.57 6.30171 4.58808 0
M  V30 20729 N 1869.8 -0.200022 1.56326 0
M  V30 20730 C 1870.71 -1.26847 1.9735 0
M  V30 20731 C 1871.72 -1.50081 0.880432 0
M  V30 20732 O 1872.9 -1.62792 1.18578 0
M  V30 20733 C 1869.96 -2.59382 2.30048 0
M  V30 20734 C 1869.02 -2.44262 3.53036 0
M  V30 20735 C 1868.26 -3.70476 3.84165 0
M  V30 20736 O 1868.48 -4.74433 3.16654 0
M  V30 20737 O 1867.41 -3.663 4.77606 0
M  V30 20738 H 1871.24 -0.950324 2.88449 0
M  V30 20739 H 1868.83 -0.404628 1.43816 0
M  V30 20740 H 1870.71 -3.37616 2.52177 0
M  V30 20741 H 1869.38 -2.90833 1.42119 0
M  V30 20742 H 1868.29 -1.64154 3.36161 0
M  V30 20743 H 1869.62 -2.17744 4.41416 0
M  V30 20744 N 1871.27 -1.50505 -0.467553 0
M  V30 20745 C 1872.52 -1.6191 -1.22118 0
M  V30 20746 C 1872.85 -0.320112 -1.91544 0
M  V30 20747 O 1872.13 0.678631 -1.82277 0
M  V30 20748 C 1872.41 -2.80184 -2.26206 0
M  V30 20749 C 1872.26 -4.19975 -1.61062 0
M  V30 20750 C 1873.58 -2.94011 -3.27484 0
M  V30 20751 H 1870.7 -0.589289 -0.442615 0
M  V30 20752 H 1873.34 -1.82902 -0.514484 0
M  V30 20753 H 1871.49 -2.62417 -2.86478 0
M  V30 20754 H 1873.17 -4.4934 -1.04359 0
M  V30 20755 H 1871.41 -4.24069 -0.91365 0
M  V30 20756 H 1872.08 -4.98667 -2.36718 0
M  V30 20757 H 1874.56 -3.10288 -2.77238 0
M  V30 20758 H 1873.43 -3.78384 -3.97639 0
M  V30 20759 H 1873.69 -2.04777 -3.91815 0
M  V30 20760 N 1872.75 0.720973 -1.40142 0
M  V30 20761 C 1873.7 1.83506 -1.3998 0
M  V30 20762 C 1874.67 1.64092 -0.257489 0
M  V30 20763 O 1875.85 1.85302 -0.454738 0
M  V30 20764 C 1872.99 3.21163 -1.26288 0
M  V30 20765 C 1872.11 3.52185 -2.5018 0
M  V30 20766 C 1871.24 4.79318 -2.2897 0
M  V30 20767 C 1870.28 5.03228 -3.48465 0
M  V30 20768 N 1869.42 6.21572 -3.26485 0
M  V30 20769 H 1874.26 1.82979 -2.35208 0
M  V30 20770 H 1871.8 0.893911 -1.16823 0
M  V30 20771 H 1873.75 4.00646 -1.16357 0
M  V30 20772 H 1872.38 3.20931 -0.346817 0
M  V30 20773 H 1871.44 2.67297 -2.70659 0
M  V30 20774 H 1872.75 3.65765 -3.39142 0
M  V30 20775 H 1871.9 5.66809 -2.16362 0
M  V30 20776 H 1870.64 4.67938 -1.37424 0
M  V30 20777 H 1869.65 4.14194 -3.61557 0
M  V30 20778 H 1870.87 5.16484 -4.40932 0
M  V30 20779 H 1868.82 6.11453 -2.37616 0
M  V30 20780 H 1868.73 6.35804 -4.0901 0
M  V30 20781 H 1870 7.11865 -3.17599 0
M  V30 20782 N 1874.23 1.25549 0.952634 0
M  V30 20783 C 1875.65 1.02414 1.22407 0
M  V30 20784 C 1875.85 -0.257807 1.99844 0
M  V30 20785 O 1874.9 -0.969999 2.33125 0
M  V30 20786 C 1876.22 2.24856 1.9965 0
M  V30 20787 C 1877.76 2.29638 2.12686 0
M  V30 20788 C 1878.24 3.51742 2.93329 0
M  V30 20789 N 1879.73 3.5215 3.00907 0
M  V30 20790 C 1880.46 4.43292 3.63703 0
M  V30 20791 N 1879.96 5.44709 4.28094 0
M  V30 20792 N 1881.75 4.30969 3.60863 0
M  V30 20793 H 1873.9 2.07905 0.434647 0
M  V30 20794 H 1876.17 0.913124 0.254772 0
M  V30 20795 H 1875.87 3.18037 1.5015 0
M  V30 20796 H 1875.75 2.28188 3.0035 0
M  V30 20797 H 1878.13 1.36978 2.61383 0
M  V30 20798 H 1878.22 2.30324 1.11285 0
M  V30 20799 H 1877.86 4.44724 2.45322 0
M  V30 20800 H 1877.79 3.48301 3.9496 0
M  V30 20801 H 1880.28 2.78789 2.55118 0
M  V30 20802 H 1880.59 6.10462 4.73873 0
M  V30 20803 H 1878.94 5.48579 4.26715 0
M  V30 20804 H 1882.13 3.50964 3.09745 0
M  V30 20805 H 1882.3 5.02196 4.09516 0
M  V30 20806 N 1875.71 -1.15554 1.07168 0
M  V30 20807 C 1876.66 -2.20234 0.690348 0
M  V30 20808 C 1877.63 -1.6304 -0.317346 0
M  V30 20809 O 1878.81 -1.89704 -0.20422 0
M  V30 20810 C 1875.95 -3.44976 0.0923404 0
M  V30 20811 C 1875.06 -4.16377 1.15128 0
M  V30 20812 C 1874.2 -5.28664 0.518478 0
M  V30 20813 C 1873.24 -5.91878 1.56034 0
M  V30 20814 N 1872.37 -6.9564 0.950251 0
M  V30 20815 H 1877.21 -2.52203 1.58738 0
M  V30 20816 H 1874.75 -1.23863 0.793502 0
M  V30 20817 H 1876.71 -4.16312 -0.271985 0
M  V30 20818 H 1875.34 -3.1353 -0.768054 0
M  V30 20819 H 1874.39 -3.43556 1.63321 0
M  V30 20820 H 1875.7 -4.59472 1.94132 0
M  V30 20821 H 1874.86 -6.06615 0.101683 0
M  V30 20822 H 1873.6 -4.86756 -0.303345 0
M  V30 20823 H 1872.6 -5.12641 1.98694 0
M  V30 20824 H 1873.83 -6.35864 2.38442 0
M  V30 20825 H 1871.77 -6.5583 0.149298 0
M  V30 20826 H 1871.69 -7.37153 1.67755 0
M  V30 20827 H 1872.96 -7.77494 0.558895 0
M  V30 20828 N 1877.19 -0.855519 -1.32358 0
M  V30 20829 C 1878.6 -0.513833 -1.7949 0
M  V30 20830 C 1878.95 0.968373 -1.70637 0
M  V30 20831 O 1878.07 1.75541 -1.26547 0
M  V30 20832 C 1878.67 -0.925925 -3.25902 0
M  V30 20833 C 1877.23 -0.636124 -3.70986 0
M  V30 20834 C 1876.38 -1.12519 -2.53446 0
M  V30 20835 H 1879.33 -1.04264 -1.19644 0
M  V30 20836 H 1879.35 -0.242659 -3.79725 0
M  V30 20837 H 1878.86 -2.00473 -3.32313 0
M  V30 20838 H 1876.96 0.431924 -3.70088 0
M  V30 20839 H 1877.07 -1.20302 -4.6375 0
M  V30 20840 H 1875.44 -0.545429 -2.48791 0
M  V30 20841 H 1876.22 -2.21112 -2.62611 0
M  V30 20842 N 1878.67 1.45167 -0.61354 0
M  V30 20843 C 1879.9 2.06266 -0.117437 0
M  V30 20844 C 1880.3 1.45784 1.20597 0
M  V30 20845 O 1879.65 0.568556 1.7468 0
M  V30 20846 C 1879.71 3.59387 0.0903205 0
M  V30 20847 C 1879.37 4.42237 -1.1522 0
M  V30 20848 C 1880.37 4.76837 -2.07177 0
M  V30 20849 C 1878.05 4.82894 -1.3827 0
M  V30 20850 C 1880.05 5.50958 -3.20506 0
M  V30 20851 C 1877.74 5.56768 -2.51899 0
M  V30 20852 C 1878.73 5.90717 -3.42845 0
M  V30 20853 O 1878.42 6.63091 -4.54495 0
M  V30 20854 H 1878.15 0.672495 -0.0687474 0
M  V30 20855 H 1880.71 1.87307 -0.842926 0
M  V30 20856 H 1878.94 3.76769 0.870766 0
M  V30 20857 H 1880.63 4.02308 0.538766 0
M  V30 20858 H 1881.39 4.4598 -1.90597 0
M  V30 20859 H 1877.27 4.55901 -0.683774 0
M  V30 20860 H 1880.82 5.77375 -3.91515 0
M  V30 20861 H 1876.71 5.8704 -2.68429 0
M  V30 20862 H 1877.48 6.81545 -4.53253 0
M  V30 20863 N 1880.14 0.353044 1.53595 0
M  V30 20864 C 1881.09 -0.514569 2.26837 0
M  V30 20865 C 1882.09 -1.09398 1.29338 0
M  V30 20866 O 1883.29 -1.03863 1.47012 0
M  V30 20867 H 1879.67 -0.184641 0.72898 0
M  V30 20868 H 1881.64 0.125082 2.98138 0
M  V30 20869 C 1880.39 -1.64884 3.06119 0
M  V30 20870 H 1879.71 -1.21227 3.80978 0
M  V30 20871 H 1881.15 -2.23089 3.60565 0
M  V30 20872 C 1879.61 -2.58385 2.16192 0
M  V30 20873 O 1880.14 -3.6088 1.76433 0
M  V30 20874 N 1878.34 -2.27286 1.81079 0
M  V30 20875 H 1877.89 -1.43975 2.13609 0
M  V30 20876 H 1877.85 -2.90102 1.21194 0
M  V30 20877 N 1881.62 -1.57387 0.0818932 0
M  V30 20878 C 1882.55 -2.16318 -0.879124 0
M  V30 20879 C 1883.53 -1.09293 -1.30342 0
M  V30 20880 O 1884.72 -1.37373 -1.37267 0
M  V30 20881 C 1881.85 -2.73293 -2.14308 0
M  V30 20882 C 1880.8 -3.85575 -1.85785 0
M  V30 20883 C 1880.13 -4.29195 -3.18897 0
M  V30 20884 C 1881.43 -5.09365 -1.15517 0
M  V30 20885 H 1883.12 -2.96873 -0.388166 0
M  V30 20886 H 1880.67 -1.42803 -0.185265 0
M  V30 20887 H 1882.62 -3.13168 -2.81964 0
M  V30 20888 H 1881.34 -1.89974 -2.65664 0
M  V30 20889 H 1880 -3.46219 -1.20532 0
M  V30 20890 H 1879.65 -3.42784 -3.68114 0
M  V30 20891 H 1879.35 -5.04889 -3.006 0
M  V30 20892 H 1880.88 -4.71694 -3.87734 0
M  V30 20893 H 1882.29 -5.46493 -1.73259 0
M  V30 20894 H 1880.69 -5.90403 -1.07444 0
M  V30 20895 H 1881.76 -4.8471 -0.135822 0
M  V30 20896 N 1883.1 0.191729 -1.56429 0
M  V30 20897 C 1884.05 1.23761 -1.94813 0
M  V30 20898 C 1885.02 1.45057 -0.809178 0
M  V30 20899 O 1886.2 1.58135 -1.06762 0
M  V30 20900 C 1883.34 2.57656 -2.2958 0
M  V30 20901 C 1882.45 2.4391 -3.56555 0
M  V30 20902 C 1881.59 3.70533 -3.8063 0
M  V30 20903 C 1880.63 3.51634 -5.01019 0
M  V30 20904 N 1879.77 4.70276 -5.2133 0
M  V30 20905 H 1884.61 0.903277 -2.8398 0
M  V30 20906 H 1882.14 0.434651 -1.40532 0
M  V30 20907 H 1884.1 3.35668 -2.47755 0
M  V30 20908 H 1882.73 2.89125 -1.43549 0
M  V30 20909 H 1881.78 1.57179 -3.46409 0
M  V30 20910 H 1883.09 2.25881 -4.44724 0
M  V30 20911 H 1882.25 4.56984 -3.99062 0
M  V30 20912 H 1880.99 3.9152 -2.90798 0
M  V30 20913 H 1879.99 2.63568 -4.82506 0
M  V30 20914 H 1881.22 3.32089 -5.92363 0
M  V30 20915 H 1879.16 4.9152 -4.34446 0
M  V30 20916 H 1879.08 4.55084 -6.03684 0
M  V30 20917 H 1880.35 5.58069 -5.44224 0
M  V30 20918 N 1884.58 1.50751 0.459565 0
M  V30 20919 C 1885.51 1.73389 1.56392 0
M  V30 20920 C 1886.49 0.583101 1.59793 0
M  V30 20921 O 1887.67 0.823474 1.75876 0
M  V30 20922 C 1884.8 1.83861 2.94639 0
M  V30 20923 C 1883.76 2.9914 3.06103 0
M  V30 20924 C 1883.08 2.94768 4.46112 0
M  V30 20925 C 1884.38 4.39471 2.82246 0
M  V30 20926 H 1886.08 2.65856 1.37699 0
M  V30 20927 H 1883.62 1.27933 0.661001 0
M  V30 20928 H 1885.58 1.98283 3.71836 0
M  V30 20929 H 1884.3 0.880254 3.14514 0
M  V30 20930 H 1882.96 2.84388 2.31342 0
M  V30 20931 H 1882.61 1.96755 4.62922 0
M  V30 20932 H 1882.31 3.72166 4.54716 0
M  V30 20933 H 1883.83 3.11254 5.25313 0
M  V30 20934 H 1885.25 4.54689 3.49186 0
M  V30 20935 H 1883.64 5.18406 3.02283 0
M  V30 20936 H 1884.71 4.51043 1.78012 0
M  V30 20937 N 1886.06 -0.713531 1.40522 0
M  V30 20938 C 1887.3 -1.47052 1.38637 0
M  V30 20939 C 1887.62 -1.94998 -0.00984474 0
M  V30 20940 O 1886.89 -1.70486 -0.964959 0
M  V30 20941 H 1885.47 -0.545577 0.51025 0
M  V30 20942 H 1888.14 -0.84572 1.75595 0
M  V30 20943 H 1887.23 -2.34237 2.06251 0
M  V30 20944 N 1887.53 -1.26053 -0.945962 0
M  V30 20945 C 1888.77 -1.1253 -1.70635 0
M  V30 20946 C 1889.14 0.326708 -1.892 0
M  V30 20947 O 1890.34 0.583957 -2.6238 0
M  V30 20948 C 1888.61 -1.86811 -3.04691 0
M  V30 20949 S 1890.17 -1.89284 -3.95875 0
M  V30 20950 H 1886.99 -0.402052 -0.586409 0
M  V30 20951 H 1889.59 -1.59703 -1.12762 0
M  V30 20952 H 1888.29 -2.91531 -2.88856 0
M  V30 20953 H 1887.82 -1.40059 -3.67623 0
M  V30 20954 H 1889.84 -0.976107 -4.86504 0
M  V30 20955 N 1889.01 1.14984 -1.07779 0
M  V30 20956 C 1889.96 2.2193 -0.696405 0
M  V30 20957 C 1890.95 1.66815 0.294832 0
M  V30 20958 O 1892.16 1.79305 0.158081 0
M  V30 20959 H 1888.53 0.722908 -0.207143 0
M  V30 20960 H 1890.51 2.51374 -1.60791 0
M  V30 20961 C 1889.25 3.4751 -0.114943 0
M  V30 20962 H 1888.58 3.90245 -0.86883 0
M  V30 20963 H 1890.02 4.23846 0.114195 0
M  V30 20964 C 1888.48 3.16827 1.14552 0
M  V30 20965 O 1889.01 3.34026 2.23135 0
M  V30 20966 N 1887.21 2.70836 1.05339 0
M  V30 20967 H 1886.76 2.5704 0.169728 0
M  V30 20968 H 1886.72 2.50681 1.89754 0
M  V30 20969 N 1890.49 0.862526 1.31902 0
M  V30 20970 C 1891.74 0.479773 1.97661 0
M  V30 20971 C 1892.09 -0.955796 1.6698 0
M  V30 20972 O 1891.38 -1.66282 0.951884 0
M  V30 20973 C 1891.58 0.664872 3.51161 0
M  V30 20974 C 1891.41 2.11688 3.9676 0
M  V30 20975 C 1890.18 2.75698 4.2346 0
M  V30 20976 C 1892.37 3.08835 4.11249 0
M  V30 20977 N 1890.36 4.11728 4.5536 0
M  V30 20978 C 1891.73 4.29874 4.46776 0
M  V30 20979 C 1893.78 3.04925 3.93606 0
M  V30 20980 C 1892.49 5.47512 4.66501 0
M  V30 20981 C 1894.51 4.21814 4.1452 0
M  V30 20982 C 1893.87 5.41614 4.50371 0
M  V30 20983 H 1889.97 0.224454 0.749096 0
M  V30 20984 H 1892.56 1.11557 1.59572 0
M  V30 20985 H 1890.73 0.0587253 3.88356 0
M  V30 20986 H 1892.46 0.25124 4.03919 0
M  V30 20987 H 1889.21 2.2669 4.15823 0
M  V30 20988 H 1889.64 4.81918 4.75483 0
M  V30 20989 H 1894.28 2.13419 3.64983 0
M  V30 20990 H 1892 6.39542 4.93975 0
M  V30 20991 H 1895.58 4.20233 4.02362 0
M  V30 20992 H 1894.46 6.30557 4.66227 0
M  V30 20993 N 1891.97 -1.4484 0.62123 0
M  V30 20994 C 1892.9 -2.28843 -0.127881 0
M  V30 20995 C 1893.91 -1.40726 -0.818542 0
M  V30 20996 O 1895.1 -1.64972 -0.681645 0
M  V30 20997 C 1892.2 -3.16837 -1.20281 0
M  V30 20998 C 1891.38 -4.33312 -0.5966 0
M  V30 20999 C 1890.43 -5.02414 -1.56419 0
M  V30 21000 O 1889.46 -5.5876 -1.08517 0
M  V30 21001 N 1890.66 -5.02953 -2.8986 0
M  V30 21002 H 1893.43 -2.93775 0.592994 0
M  V30 21003 H 1890.99 -1.55178 0.461679 0
M  V30 21004 H 1892.98 -3.59929 -1.85021 0
M  V30 21005 H 1891.55 -2.53722 -1.82603 0
M  V30 21006 H 1890.77 -3.93533 0.229203 0
M  V30 21007 H 1892.06 -5.08509 -0.17206 0
M  V30 21008 H 1891.46 -4.58489 -3.31367 0
M  V30 21009 H 1890.01 -5.49866 -3.49987 0
M  V30 21010 N 1893.45 -0.361184 -1.53405 0
M  V30 21011 C 1894.69 0.229881 -2.01191 0
M  V30 21012 C 1895.02 1.49133 -1.24858 0
M  V30 21013 O 1894.28 1.92911 -0.329218 0
M  V30 21014 C 1894.58 0.572109 -3.52791 0
M  V30 21015 C 1894.24 -0.594503 -4.46964 0
M  V30 21016 C 1892.9 -0.914615 -4.72428 0
M  V30 21017 C 1895.26 -1.3763 -5.027 0
M  V30 21018 C 1892.58 -2.01858 -5.50881 0
M  V30 21019 C 1894.94 -2.47064 -5.82359 0
M  V30 21020 C 1893.6 -2.79615 -6.06112 0
M  V30 21021 H 1892.87 0.0841196 -0.73621 0
M  V30 21022 H 1895.52 -0.49274 -1.85052 0
M  V30 21023 H 1893.82 1.37569 -3.66854 0
M  V30 21024 H 1895.52 1.04161 -3.87236 0
M  V30 21025 H 1892.11 -0.334965 -4.27289 0
M  V30 21026 H 1896.29 -1.14224 -4.82977 0
M  V30 21027 H 1891.55 -2.27481 -5.67505 0
M  V30 21028 H 1895.72 -3.08062 -6.24556 0
M  V30 21029 H 1893.35 -3.65282 -6.66688 0
M  V30 21030 N 1894.92 1.57341 -0.0902386 0
M  V30 21031 C 1896.17 1.93352 0.574273 0
M  V30 21032 C 1896.49 0.97374 1.6964 0
M  V30 21033 O 1897.69 1.22737 2.42173 0
M  V30 21034 C 1896.15 3.43536 1.07289 0
M  V30 21035 C 1895.76 4.47996 -0.0192163 0
M  V30 21036 C 1897.5 3.88516 1.71042 0
M  V30 21037 C 1895.41 5.89329 0.494487 0
M  V30 21038 H 1894.34 0.721711 0.218287 0
M  V30 21039 H 1896.99 1.82753 -0.165456 0
M  V30 21040 H 1895.37 3.49271 1.86616 0
M  V30 21041 H 1896.54 4.53899 -0.794527 0
M  V30 21042 H 1894.86 4.12595 -0.561628 0
M  V30 21043 H 1897.46 4.91505 2.1054 0
M  V30 21044 H 1897.8 3.26896 2.57769 0
M  V30 21045 H 1898.33 3.85462 0.983058 0
M  V30 21046 H 1895.07 6.54638 -0.336054 0
M  V30 21047 H 1894.59 5.86908 1.23691 0
M  V30 21048 H 1896.27 6.39763 0.965014 0
M  V30 21049 N 1896.4 -0.183431 1.56529 0
M  V30 21050 C 1897.81 -0.747035 1.71103 0
M  V30 21051 C 1898.16 -1.83335 0.698762 0
M  V30 21052 O 1897.29 -2.15931 -0.142414 0
M  V30 21053 C 1897.88 -1.36183 3.10225 0
M  V30 21054 C 1896.44 -1.87239 3.26525 0
M  V30 21055 C 1895.59 -0.746737 2.67056 0
M  V30 21056 H 1898.54 0.0418058 1.58645 0
M  V30 21057 H 1898.56 -2.2314 3.08203 0
M  V30 21058 H 1898.07 -0.570966 3.83877 0
M  V30 21059 H 1896.18 -2.69008 2.57809 0
M  V30 21060 H 1896.29 -2.02616 4.34147 0
M  V30 21061 H 1894.65 -1.16406 2.26543 0
M  V30 21062 H 1895.44 0.0320833 3.43285 0
M  V30 21063 N 1897.88 -1.50992 -0.451564 0
M  V30 21064 C 1898.83 -1.71277 -1.54703 0
M  V30 21065 C 1899.8 -0.554233 -1.56581 0
M  V30 21066 O 1900.98 -0.787053 -1.73811 0
M  V30 21067 C 1898.12 -1.83078 -2.92535 0
M  V30 21068 C 1897.24 -3.10559 -3.00295 0
M  V30 21069 C 1896.37 -3.13039 -4.29162 0
M  V30 21070 C 1895.41 -4.34893 -4.30737 0
M  V30 21071 N 1894.55 -4.35002 -5.51106 0
M  V30 21072 H 1899.39 -2.64791 -1.3671 0
M  V30 21073 H 1896.92 -1.31243 -0.664356 0
M  V30 21074 H 1898.88 -1.87901 -3.7249 0
M  V30 21075 H 1897.51 -0.929851 -3.09117 0
M  V30 21076 H 1896.56 -3.15113 -2.13091 0
M  V30 21077 H 1897.88 -4.00503 -2.9732 0
M  V30 21078 H 1897.03 -3.167 -5.17481 0
M  V30 21079 H 1895.77 -2.20959 -4.34774 0
M  V30 21080 H 1894.77 -4.31423 -3.40814 0
M  V30 21081 H 1896 -5.28221 -4.26801 0
M  V30 21082 H 1893.94 -3.45785 -5.57466 0
M  V30 21083 H 1893.86 -5.18738 -5.49952 0
M  V30 21084 H 1895.13 -4.42836 -6.41496 0
M  V30 21085 N 1899.36 0.706069 -1.40899 0
M  V30 21086 C 1900.64 1.45984 -1.30185 0
M  V30 21087 C 1901.02 2.10965 0.0754423 0
M  V30 21088 O 1900.36 2.00883 1.08896 0
M  V30 21089 C 1900.57 2.48782 -2.44762 0
M  V30 21090 C 1901.92 3.14339 -2.85441 0
M  V30 21091 O 1902.95 2.59104 -2.44425 0
M  V30 21092 O 1901.8 4.14354 -3.56333 0
M  V30 21093 H 1898.9 0.649628 -0.511774 0
M  V30 21094 H 1901.44 0.737436 -1.5284 0
M  V30 21095 H 1900.22 1.99346 -3.36715 0
M  V30 21096 H 1899.84 3.28545 -2.23929 0
M  V30 21097 N 1900.84 1.26553 0.939264 0
M  V30 21098 C 1901.75 1.10059 2.07181 0
M  V30 21099 C 1902.76 0.033599 1.73968 0
M  V30 21100 O 1903.94 0.237723 1.99992 0
M  V30 21101 C 1901 0.737342 3.38769 0
M  V30 21102 C 1900.06 1.88395 3.85753 0
M  V30 21103 C 1899.3 1.53794 5.11061 0
M  V30 21104 O 1899.52 0.440543 5.68696 0
M  V30 21105 O 1898.45 2.37332 5.53134 0
M  V30 21106 H 1902.28 2.05075 2.24004 0
M  V30 21107 H 1899.87 1.05633 1.05651 0
M  V30 21108 H 1901.75 0.547578 4.17827 0
M  V30 21109 H 1900.42 -0.183404 3.2318 0
M  V30 21110 H 1899.33 2.1287 3.07632 0
M  V30 21111 H 1900.66 2.78449 4.05865 0
M  V30 21112 N 1902.31 -1.14411 1.08387 0
M  V30 21113 C 1903.56 -1.85078 0.811826 0
M  V30 21114 C 1903.88 -1.83335 -0.664312 0
M  V30 21115 O 1903.15 -1.28164 -1.48158 0
M  V30 21116 H 1901.73 -0.685278 0.297328 0
M  V30 21117 H 1904.4 -1.38644 1.36981 0
M  V30 21118 H 1903.49 -2.89909 1.15581 0
M  V30 21119 N 1903.79 -0.869509 -1.31443 0
M  V30 21120 C 1905.04 -0.490248 -1.97403 0
M  V30 21121 C 1905.39 0.946928 -1.67484 0
M  V30 21122 O 1904.69 1.65775 -0.960689 0
M  V30 21123 C 1904.88 -0.683486 -3.50804 0
M  V30 21124 C 1904.71 -2.13789 -3.95631 0
M  V30 21125 C 1903.48 -2.7794 -4.21992 0
M  V30 21126 C 1905.68 -3.11011 -4.09605 0
M  V30 21127 N 1903.66 -4.14137 -4.5317 0
M  V30 21128 C 1905.03 -4.32237 -4.4449 0
M  V30 21129 C 1907.09 -3.07008 -3.91983 0
M  V30 21130 C 1905.79 -5.49978 -4.63591 0
M  V30 21131 C 1907.81 -4.24007 -4.12277 0
M  V30 21132 C 1907.18 -5.43995 -4.47492 0
M  V30 21133 H 1903.28 -0.228424 -0.747895 0
M  V30 21134 H 1905.86 -1.12401 -1.58978 0
M  V30 21135 H 1904.03 -0.0793199 -3.88319 0
M  V30 21136 H 1905.76 -0.272657 -4.0378 0
M  V30 21137 H 1902.52 -2.28892 -4.14615 0
M  V30 21138 H 1902.94 -4.84433 -4.7292 0
M  V30 21139 H 1907.58 -2.15351 -3.63846 0
M  V30 21140 H 1905.3 -6.42153 -4.90576 0
M  V30 21141 H 1908.89 -4.22361 -4.00128 0
M  V30 21142 H 1907.77 -6.3302 -4.62877 0
M  V30 21143 N 1905.27 1.44508 -0.628902 0
M  V30 21144 C 1906.5 2.06429 -0.13951 0
M  V30 21145 C 1906.91 1.46981 1.18499 0
M  V30 21146 O 1906.27 0.591856 1.72636 0
M  V30 21147 C 1906.32 3.61496 -0.016195 0
M  V30 21148 O 1906.04 4.18729 -1.28831 0
M  V30 21149 C 1907.54 4.40447 0.502154 0
M  V30 21150 H 1904.76 0.666375 -0.0786479 0
M  V30 21151 H 1907.31 1.85414 -0.862674 0
M  V30 21152 H 1905.46 3.81781 0.657398 0
M  V30 21153 H 1905.88 5.12145 -1.13171 0
M  V30 21154 H 1907.35 5.49377 0.537458 0
M  V30 21155 H 1907.83 4.11735 1.52876 0
M  V30 21156 H 1908.43 4.25076 -0.138113 0
M  V30 21157 N 1906.75 0.369315 1.53212 0
M  V30 21158 C 1907.66 -0.483226 2.29569 0
M  V30 21159 C 1908.68 -1.08931 1.35684 0
M  V30 21160 O 1909.85 -1.09944 1.68743 0
M  V30 21161 C 1906.92 -1.60549 3.07286 0
M  V30 21162 C 1905.98 -1.02656 4.16846 0
M  V30 21163 C 1905.21 -2.09534 4.90847 0
M  V30 21164 O 1905.43 -3.30709 4.64745 0
M  V30 21165 O 1904.37 -1.72382 5.76687 0
M  V30 21166 H 1908.19 0.138246 3.03385 0
M  V30 21167 H 1905.78 0.133589 1.48802 0
M  V30 21168 H 1907.66 -2.25789 3.55805 0
M  V30 21169 H 1906.34 -2.21229 2.36303 0
M  V30 21170 H 1905.24 -0.337963 3.7257 0
M  V30 21171 H 1906.58 -0.464259 4.90006 0
M  V30 21172 O 1908.27 -1.59727 0.23868 0
M  V30 21173 H 1908.96 -1.90719 -0.33852 0
M  V30 END ATOM
M  V30 BEGIN BOND
M  V30 END BOND
M  V30 END CTAB
M  END
$$$$
