drugbank_target|P75914 Probable phosphatase YcdX (DB01942)
 OpenBabel12092120233D

  0  0  0     0  0            999 V3000
M  V30 BEGIN CTAB
M  V30 COUNTS 3732 3778 0 0 0
M  V30 BEGIN ATOM
M  V30 1 H -0.908 1.98254 -0.117106 0
M  V30 2 N 0 1.576 0 0
M  V30 3 C 0.933 2.03868 1.02534 0
M  V30 4 C 1.911 0.928543 1.3348 0
M  V30 5 O 3.095 1.19667 1.45644 0
M  V30 6 C 0.222 2.43627 2.35294 0
M  V30 7 C -0.732 3.65373 2.2001 0
M  V30 8 S 0.101 5.13292 1.52614 0
M  V30 9 C 1.257 5.56322 2.86805 0
M  V30 10 H 1.49 2.90518 0.631377 0
M  V30 11 H -0.977 1.52953 0.210867 0
M  V30 12 H 0.981 2.67203 3.11629 0
M  V30 13 H -0.358 1.57376 2.7183 0
M  V30 14 H -1.165 3.90944 3.18086 0
M  V30 15 H -1.563 3.418 1.51819 0
M  V30 16 H 0.729 5.58782 3.83104 0
M  V30 17 H 1.672 6.56266 2.65933 0
M  V30 18 H 2.08 4.83886 2.90714 0
M  V30 19 N 1.4781 -0.272755 1.55222 0
M  V30 20 C 2.7081 -1.02107 1.79604 0
M  V30 21 C 3.1161 -1.80419 0.569693 0
M  V30 22 O 2.4591 -1.77566 -0.470743 0
M  V30 23 C 2.5211 -2.02675 2.96922 0
M  V30 24 C 2.1851 -1.43299 4.33952 0
M  V30 25 C 3.1821 -0.84853 5.12929 0
M  V30 26 C 0.8671 -1.46012 4.8061 0
M  V30 27 C 2.8611 -0.299109 6.36698 0
M  V30 28 C 0.5481 -0.906833 6.04334 0
M  V30 29 C 1.5461 -0.32733 6.82215 0
M  V30 30 O 1.2341 0.217479 8.03606 0
M  V30 31 H 0.9661 -0.307322 0.602104 0
M  V30 32 H 3.5201 -0.308862 2.03065 0
M  V30 33 H 1.7501 -2.77656 2.69155 0
M  V30 34 H 3.4391 -2.63637 3.08626 0
M  V30 35 H 4.2051 -0.820265 4.78013 0
M  V30 36 H 0.0841 -1.90056 4.2 0
M  V30 37 H 3.6281 0.153852 6.9743 0
M  V30 38 H -0.4749 -0.932339 6.38731 0
M  V30 39 H 0.2931 0.106863 8.1843 0
M  V30 40 N 2.9562 -1.48159 -0.537278 0
M  V30 41 C 4.3672 -1.49429 -1.11928 0
M  V30 42 C 4.7182 -0.26 -1.9447 0
M  V30 43 O 3.8432 0.633489 -2.0692 0
M  V30 44 C 4.4382 -2.70758 -2.03656 0
M  V30 45 C 2.9972 -2.74923 -2.57088 0
M  V30 46 C 2.1442 -2.42835 -1.3389 0
M  V30 47 H 5.0952 -1.55381 -0.322886 0
M  V30 48 H 5.1162 -2.48861 -2.87834 0
M  V30 49 H 4.6282 -3.60575 -1.43553 0
M  V30 50 H 2.7292 -1.89296 -3.20933 0
M  V30 51 H 2.8422 -3.76157 -2.9672 0
M  V30 52 H 1.2062 -1.93836 -1.65226 0
M  V30 53 H 1.9892 -3.34884 -0.755504 0
M  V30 54 N 4.4343 0.785586 -1.36625 0
M  V30 55 C 5.6803 1.54591 -1.31261 0
M  V30 56 C 6.0133 1.93906 0.106823 0
M  V30 57 O 5.2883 1.63007 1.06108 0
M  V30 58 C 5.5713 2.82038 -2.23889 0
M  V30 59 C 5.4243 2.49066 -3.74548 0
M  V30 60 C 6.7433 3.83887 -2.15217 0
M  V30 61 H 3.8623 0.560846 -0.478143 0
M  V30 62 H 6.5043 0.902278 -1.67209 0
M  V30 63 H 4.6543 3.36961 -1.93363 0
M  V30 64 H 6.3263 2.00164 -4.15611 0
M  V30 65 H 4.5693 1.81954 -3.93796 0
M  V30 66 H 5.2403 3.40109 -4.34776 0
M  V30 67 H 7.7163 3.38421 -2.42096 0
M  V30 68 H 6.5923 4.70806 -2.82193 0
M  V30 69 H 6.8533 4.27131 -1.14068 0
M  V30 70 N 5.9124 1.20967 1.01018 0
M  V30 71 C 7.1894 0.93264 1.71934 0
M  V30 72 C 7.5694 -0.55692 2.03621 0
M  V30 73 O 6.9174 -1.52035 1.7058 0
M  V30 74 C 7.1274 1.81233 2.98254 0
M  V30 75 C 8.4754 2.05804 3.71389 0
M  V30 76 O 9.4994 1.78539 3.08225 0
M  V30 77 O 8.3584 2.51888 4.84989 0
M  V30 78 H 5.4524 0.349272 0.749625 0
M  V30 79 H 7.9984 1.31871 1.06808 0
M  V30 80 H 6.7704 2.82067 2.71208 0
M  V30 81 H 6.3934 1.42674 3.7112 0
M  V30 82 N 7.3905 -1.2043 1.01659 0
M  V30 83 C 8.3205 -2.25466 0.607226 0
M  V30 84 C 9.3015 -1.65853 -0.377716 0
M  V30 85 O 10.4865 -1.92409 -0.263149 0
M  V30 86 C 7.6165 -3.47256 -0.0552949 0
M  V30 87 C 6.5705 -4.19462 0.850632 0
M  V30 88 C 5.8965 -5.34673 0.0538859 0
M  V30 89 C 7.1965 -4.75603 2.15868 0
M  V30 90 H 8.8905 -2.59962 1.48526 0
M  V30 91 H 6.4365 -1.2496 0.715605 0
M  V30 92 H 8.3895 -4.19917 -0.353233 0
M  V30 93 H 7.1135 -3.11924 -0.968045 0
M  V30 94 H 5.7725 -3.48667 1.13257 0
M  V30 95 H 5.4205 -4.95585 -0.860514 0
M  V30 96 H 5.1205 -5.83913 0.657192 0
M  V30 97 H 6.6445 -6.10138 -0.237598 0
M  V30 98 H 8.0585 -5.40083 1.92311 0
M  V30 99 H 6.4555 -5.3528 2.71284 0
M  V30 100 H 7.5255 -3.94346 2.82169 0
M  V30 101 N 8.8686 -0.792821 -1.36206 0
M  V30 102 C 9.8186 -0.166598 -2.27391 0
M  V30 103 C 10.8026 0.651479 -1.47121 0
M  V30 104 O 11.9946 0.510994 -1.69463 0
M  V30 105 C 9.1236 0.695033 -3.36191 0
M  V30 106 C 8.2096 -0.132019 -4.23894 0
M  V30 107 N 8.6006 -1.18822 -4.91645 0
M  V30 108 C 6.8986 0.0885952 -4.45912 0
M  V30 109 C 7.5996 -1.69198 -5.56549 0
M  V30 110 N 6.5756 -1.00065 -5.34311 0
M  V30 111 H 10.3776 -0.974947 -2.77258 0
M  V30 112 H 7.8916 -0.632616 -1.49572 0
M  V30 113 H 9.8886 1.1596 -4.00448 0
M  V30 114 H 8.5486 1.50189 -2.87877 0
M  V30 115 H 9.5596 -1.57069 -4.93507 0
M  V30 116 H 6.2366 0.865688 -4.08426 0
M  V30 117 H 7.6266 -2.57395 -6.20643 0
M  V30 118 N 10.3467 1.47872 -0.545128 0
M  V30 119 C 11.2797 2.2675 0.256885 0
M  V30 120 C 12.2577 1.33293 0.931228 0
M  V30 121 O 13.4417 1.62657 0.95262 0
M  V30 122 C 10.5687 3.09976 1.36501 0
M  V30 123 C 9.6147 4.1892 0.800496 0
M  V30 124 S 10.4477 5.34397 -0.343505 0
M  V30 125 C 11.6037 6.21186 0.766733 0
M  V30 126 H 11.8367 2.94425 -0.412479 0
M  V30 127 H 9.3697 1.50806 -0.331204 0
M  V30 128 H 11.3277 3.585 1.9997 0
M  V30 129 H 9.9887 2.41686 2.00616 0
M  V30 130 H 9.1817 4.76836 1.63227 0
M  V30 131 H 8.7837 3.73215 0.242217 0
M  V30 132 H 11.0757 6.56804 1.66178 0
M  V30 133 H 12.0187 7.07742 0.225204 0
M  V30 134 H 12.4267 5.54574 1.05396 0
M  V30 135 N 11.8248 0.280983 1.55075 0
M  V30 136 C 12.7748 -0.618585 2.19448 0
M  V30 137 C 13.7588 -1.11401 1.16098 0
M  V30 138 O 14.9508 -1.0581 1.41891 0
M  V30 139 C 12.0798 -1.79951 2.92357 0
M  V30 140 C 11.1658 -1.321 4.03002 0
M  V30 141 N 11.5568 -0.559044 5.02701 0
M  V30 142 C 9.8548 -1.60346 4.16179 0
M  V30 143 C 10.5558 -0.306722 5.80891 0
M  V30 144 N 9.5318 -0.880825 5.36416 0
M  V30 145 H 13.3338 -0.0286638 2.93886 0
M  V30 146 H 10.8478 0.0848104 1.62178 0
M  V30 147 H 12.8448 -2.45531 3.36927 0
M  V30 148 H 11.5048 -2.39333 2.19431 0
M  V30 149 H 12.5158 -0.205827 5.17491 0
M  V30 150 H 9.1928 -2.20621 3.54447 0
M  V30 151 H 10.5828 0.30391 6.71212 0
M  V30 152 N 13.3029 -1.57598 0.00835791 0
M  V30 153 C 14.5309 -1.95214 -0.68549 0
M  V30 154 C 14.9459 -0.883706 -1.66841 0
M  V30 155 O 14.3029 0.136565 -1.81988 0
M  V30 156 C 14.3539 -3.32865 -1.41007 0
M  V30 157 O 14.0749 -4.35609 -0.466552 0
M  V30 158 C 15.5759 -3.84991 -2.19765 0
M  V30 159 H 12.7959 -0.643422 -0.190392 0
M  V30 160 H 15.3399 -2.04406 0.0619607 0
M  V30 161 H 13.4949 -3.24956 -2.10908 0
M  V30 162 H 13.9089 -5.15288 -0.978699 0
M  V30 163 H 15.3829 -4.8371 -2.65948 0
M  V30 164 H 15.8599 -3.18137 -3.02796 0
M  V30 165 H 16.4659 -3.96103 -1.54864 0
M  V30 166 N 14.781 0.264519 -1.55364 0
M  V30 167 C 16.027 0.99646 -1.76631 0
M  V30 168 C 16.36 1.85632 -0.570478 0
M  V30 169 O 15.635 1.89647 0.43175 0
M  V30 170 C 15.918 1.87187 -3.07625 0
M  V30 171 C 15.771 1.04138 -4.37579 0
M  V30 172 C 17.09 2.85749 -3.34717 0
M  V30 173 H 14.209 0.360841 -0.642622 0
M  V30 174 H 16.851 0.268218 -1.88097 0
M  V30 175 H 15.001 2.49279 -2.9798 0
M  V30 176 H 16.673 0.440517 -4.59192 0
M  V30 177 H 14.916 0.345115 -4.32425 0
M  V30 178 H 15.587 1.68729 -5.2558 0
M  V30 179 H 18.063 2.33793 -3.4421 0
M  V30 180 H 16.939 3.44136 -4.27623 0
M  V30 181 H 17.2 3.61311 -2.54768 0
M  V30 182 N 16.2591 1.48442 0.529413 0
M  V30 183 C 17.2221 1.62524 1.61612 0
M  V30 184 C 18.2221 0.498509 1.52877 0
M  V30 185 O 19.4121 0.76431 1.56537 0
M  V30 186 C 16.5441 1.59597 3.01233 0
M  V30 187 H 17.7371 2.59423 1.50465 0
M  V30 188 H 15.2901 1.37047 0.751514 0
M  V30 189 H 16.0251 0.641781 3.17886 0
M  V30 190 H 15.8101 2.41397 3.08982 0
M  V30 191 H 17.3001 1.72646 3.80241 0
M  V30 192 N 17.7372 -0.778329 1.37039 0
M  V30 193 C 18.9622 -1.57248 1.35233 0
M  V30 194 C 19.3872 -1.87999 -0.0615568 0
M  V30 195 O 18.7452 -1.48734 -1.03672 0
M  V30 196 C 18.7932 -2.86353 2.19167 0
M  V30 197 O 17.8972 -3.80442 1.59178 0
M  V30 198 H 17.2382 -0.476569 0.462362 0
M  V30 199 H 19.7682 -0.963853 1.80474 0
M  V30 200 H 19.7782 -3.35519 2.32145 0
M  V30 201 H 18.4532 -2.63299 3.21942 0
M  V30 202 H 17.0302 -3.39067 1.55203 0
M  V30 203 N 19.2153 -1.21501 -1.00376 0
M  V30 204 C 20.4433 -1.059 -1.77744 0
M  V30 205 C 20.8583 0.391125 -1.84704 0
M  V30 206 O 20.2153 1.27133 -1.30933 0
M  V30 207 C 20.2663 -1.65111 -3.21591 0
M  V30 208 O 19.9873 -3.0445 -3.15027 0
M  V30 209 C 21.4883 -1.54637 -4.15454 0
M  V30 210 H 18.7083 -0.371825 -0.558558 0
M  V30 211 H 21.2523 -1.60865 -1.26264 0
M  V30 212 H 19.4073 -1.14235 -3.70175 0
M  V30 213 H 19.8213 -3.3278 -4.0541 0
M  V30 214 H 21.2953 -2.00808 -5.14179 0
M  V30 215 H 21.7723 -0.501022 -4.36333 0
M  V30 216 H 22.3783 -2.04767 -3.72761 0
M  V30 217 N 20.6934 1.19889 -1.02296 0
M  V30 218 C 21.6434 2.20777 -0.56934 0
M  V30 219 C 22.6274 1.56379 0.378741 0
M  V30 220 O 23.8194 1.75859 0.200673 0
M  V30 221 C 20.9484 3.43196 0.0845077 0
M  V30 222 C 20.0344 4.14749 -0.88566 0
M  V30 223 N 20.4254 4.62584 -2.04573 0
M  V30 224 C 18.7234 4.40347 -0.707835 0
M  V30 225 C 19.4244 5.17466 -2.65714 0
M  V30 226 N 18.4004 5.0791 -1.93723 0
M  V30 227 H 22.2024 2.55434 -1.45365 0
M  V30 228 H 19.7164 1.35897 -0.88915 0
M  V30 229 H 21.7134 4.14707 0.427067 0
M  V30 230 H 20.3734 3.10042 0.964574 0
M  V30 231 H 21.3844 4.57597 -2.4254 0
M  V30 232 H 18.0614 4.17317 0.12364 0
M  V30 233 H 19.4514 5.64808 -3.63925 0
M  V30 234 N 22.1715 0.800033 1.35784 0
M  V30 235 C 23.1345 0.211565 2.28221 0
M  V30 236 C 24.1345 -0.59728 1.49296 0
M  V30 237 O 25.3245 -0.416721 1.69142 0
M  V30 238 C 22.4565 -0.705846 3.33513 0
M  V30 239 H 23.6495 1.02677 2.81776 0
M  V30 240 H 21.2025 0.570211 1.45528 0
M  V30 241 H 21.9375 -1.54498 2.85133 0
M  V30 242 H 21.7225 -0.127655 3.91892 0
M  V30 243 H 23.2125 -1.11211 4.02519 0
M  V30 244 N 23.6496 -1.47581 0.552962 0
M  V30 245 C 24.8796 -2.06575 0.0320091 0
M  V30 246 C 25.2876 -1.4067 -1.26525 0
M  V30 247 O 24.6306 -0.495808 -1.76883 0
M  V30 248 C 24.6926 -3.58705 -0.238913 0
M  V30 249 C 24.3566 -4.46625 0.968272 0
M  V30 250 C 25.3536 -4.85 1.87274 0
M  V30 251 C 23.0386 -4.88201 1.18175 0
M  V30 252 C 25.0326 -5.63745 2.9744 0
M  V30 253 C 22.7196 -5.66712 2.28651 0
M  V30 254 C 23.7176 -6.04394 3.18114 0
M  V30 255 O 23.4056 -6.81324 4.26676 0
M  V30 256 H 23.1376 -0.674763 0.0408689 0
M  V30 257 H 25.6916 -1.90634 0.764719 0
M  V30 258 H 23.9216 -3.72844 -1.02588 0
M  V30 259 H 25.6106 -3.99735 -0.704731 0
M  V30 260 H 26.3766 -4.53482 1.71984 0
M  V30 261 H 22.2556 -4.58339 0.494593 0
M  V30 262 H 25.7996 -5.93077 3.67296 0
M  V30 263 H 21.6966 -5.97642 2.43915 0
M  V30 264 H 22.4646 -6.99712 4.24671 0
M  V30 265 N 25.1277 -0.289203 -1.54924 0
M  V30 266 C 26.3527 0.329299 -2.04769 0
M  V30 267 C 26.7777 1.4763 -1.16564 0
M  V30 268 O 26.1357 1.80527 -0.167186 0
M  V30 269 C 26.1837 0.774438 -3.52186 0
M  V30 270 O 25.2877 1.88038 -3.67036 0
M  V30 271 H 24.6287 0.0659259 -0.660719 0
M  V30 272 H 27.1587 -0.42761 -2.00082 0
M  V30 273 H 27.1687 1.06642 -3.93816 0
M  V30 274 H 25.8437 -0.0646707 -4.1585 0
M  V30 275 H 24.4207 1.58985 -3.3731 0
M  V30 276 N 26.6058 1.57591 -0.0167156 0
M  V30 277 C 27.8338 1.95575 0.675128 0
M  V30 278 C 28.2488 0.892542 1.6637 0
M  V30 279 O 27.6058 -0.126912 1.82058 0
M  V30 280 C 27.6568 3.33608 1.39239 0
M  V30 281 O 27.3778 4.3585 0.443444 0
M  V30 282 C 28.8788 3.86151 2.17721 0
M  V30 283 H 26.0988 0.644423 0.186978 0
M  V30 284 H 28.6428 2.0437 -0.0728 0
M  V30 285 H 26.7978 3.2607 2.09182 0
M  V30 286 H 27.2118 5.158 0.951358 0
M  V30 287 H 28.6858 4.85114 2.63379 0
M  V30 288 H 29.1628 3.19738 3.01105 0
M  V30 289 H 29.7688 3.96918 1.52761 0
M  V30 290 N 28.0839 -0.256276 1.55502 0
M  V30 291 C 29.0139 -1.32102 1.92539 0
M  V30 292 C 29.9949 -1.50684 0.789194 0
M  V30 293 O 31.1799 -1.63449 1.04872 0
M  V30 294 C 28.3099 -2.67752 2.21192 0
M  V30 295 C 27.2639 -2.63878 3.36975 0
M  V30 296 C 26.5899 -4.03236 3.51147 0
M  V30 297 C 27.8899 -2.21682 4.72921 0
M  V30 298 H 29.5839 -1.01351 2.81724 0
M  V30 299 H 27.1299 -0.486105 1.35547 0
M  V30 300 H 29.0829 -3.42365 2.45691 0
M  V30 301 H 27.8069 -3.0012 1.28824 0
M  V30 302 H 26.4659 -1.91722 3.12471 0
M  V30 303 H 26.1139 -4.32854 2.56216 0
M  V30 304 H 25.8139 -4.01535 4.29003 0
M  V30 305 H 27.3379 -4.79563 3.77957 0
M  V30 306 H 28.7519 -2.86023 4.96854 0
M  V30 307 H 27.1489 -2.3111 5.53812 0
M  V30 308 H 28.2189 -1.16833 4.70615 0
M  V30 309 N 29.562 -1.4872 -0.521534 0
M  V30 310 C 30.787 -1.61101 -1.30618 0
M  V30 311 C 31.212 -0.274611 -1.86085 0
M  V30 312 O 30.57 0.754937 -1.64834 0
M  V30 313 C 30.618 -2.66709 -2.4269 0
M  V30 314 O 29.722 -2.24456 -3.45967 0
M  V30 315 H 29.063 -0.539921 -0.386499 0
M  V30 316 H 31.593 -1.94767 -0.626645 0
M  V30 317 H 31.603 -2.88245 -2.88754 0
M  V30 318 H 30.278 -3.63727 -2.01682 0
M  V30 319 H 28.855 -2.13168 -3.05964 0
M  V30 320 N 31.0401 0.771051 -1.3745 0
M  V30 321 C 32.3171 1.519 -1.23231 0
M  V30 322 C 32.6971 2.10383 0.173809 0
M  V30 323 O 32.0451 1.95583 1.18151 0
M  V30 324 C 32.2551 2.59933 -2.32886 0
M  V30 325 C 33.6031 3.27316 -2.70461 0
M  V30 326 O 34.6271 2.70228 -2.32068 0
M  V30 327 O 33.4861 4.30531 -3.36608 0
M  V30 328 H 30.5801 0.672803 -0.480901 0
M  V30 329 H 33.1261 0.807957 -1.49232 0
M  V30 330 H 31.8981 2.14842 -3.27045 0
M  V30 331 H 31.5211 3.38637 -2.08353 0
M  V30 332 N 32.5182 1.22032 0.997298 0
M  V30 333 C 33.7482 1.06686 1.76923 0
M  V30 334 C 34.1562 -0.385838 1.85224 0
M  V30 335 O 33.4992 -1.27929 1.31833 0
M  V30 336 C 33.5612 1.59802 3.22031 0
M  V30 337 C 33.2252 3.08362 3.37286 0
M  V30 338 C 34.2222 4.05835 3.24952 0
M  V30 339 C 31.9072 3.47727 3.6248 0
M  V30 340 C 33.9012 5.4066 3.37588 0
M  V30 341 C 31.5882 4.82701 3.74757 0
M  V30 342 C 32.5862 5.78977 3.62319 0
M  V30 343 O 32.2742 7.11502 3.74193 0
M  V30 344 H 32.0062 0.374767 0.562606 0
M  V30 345 H 34.5602 1.61991 1.26286 0
M  V30 346 H 32.7902 0.989003 3.73839 0
M  V30 347 H 34.4792 1.40184 3.80924 0
M  V30 348 H 35.2452 3.76766 3.05405 0
M  V30 349 H 31.1242 2.73317 3.7124 0
M  V30 350 H 34.6682 6.15788 3.27796 0
M  V30 351 H 30.5652 5.11453 3.9381 0
M  V30 352 H 31.3332 7.19019 3.91093 0
M  V30 353 N 33.9963 -1.19345 1.0293 0
M  V30 354 C 35.2453 -1.88363 0.721256 0
M  V30 355 C 35.5583 -1.80514 -0.753254 0
M  V30 356 O 36.7643 -2.44788 -1.17436 0
M  V30 357 C 35.2203 -3.37872 1.23978 0
M  V30 358 C 34.8283 -3.54278 2.74211 0
M  V30 359 C 36.5723 -4.12365 1.00775 0
M  V30 360 C 34.4793 -4.97682 3.19479 0
M  V30 361 H 33.4093 -0.705484 0.266098 0
M  V30 362 H 36.0603 -1.34928 1.24365 0
M  V30 363 H 34.4423 -3.90707 0.6453 0
M  V30 364 H 35.6163 -3.11769 3.39318 0
M  V30 365 H 33.9313 -2.93174 2.95699 0
M  V30 366 H 36.5283 -5.18119 1.32123 0
M  V30 367 H 36.8713 -4.16263 -0.0554308 0
M  V30 368 H 37.4043 -3.65668 1.56625 0
M  V30 369 H 34.1433 -4.98945 4.25128 0
M  V30 370 H 33.6633 -5.4095 2.591 0
M  V30 371 H 35.3423 -5.66337 3.12845 0
M  V30 372 N 35.4744 -0.807222 -1.35358 0
M  V30 373 C 36.4374 -0.223665 -2.28106 0
M  V30 374 C 37.4374 0.589354 -1.4961 0
M  V30 375 O 38.6274 0.407745 -1.69361 0
M  V30 376 C 35.7594 0.688149 -3.33882 0
M  V30 377 H 36.9524 -1.04169 -2.81227 0
M  V30 378 H 34.5054 -0.577921 -1.45223 0
M  V30 379 H 35.2404 1.52984 -2.85948 0
M  V30 380 H 35.0254 0.10687 -3.91954 0
M  V30 381 H 36.5154 1.09075 -4.03104 0
M  V30 382 N 36.9525 1.47285 -0.560781 0
M  V30 383 C 37.8845 2.28118 0.222438 0
M  V30 384 C 38.8975 1.37219 0.876056 0
M  V30 385 O 40.0865 1.62011 0.749307 0
M  V30 386 C 37.1865 3.1159 1.33285 0
M  V30 387 C 36.3595 4.30473 0.77534 0
M  V30 388 C 35.4185 4.95513 1.77069 0
M  V30 389 O 34.4445 5.53792 1.31539 0
M  V30 390 N 35.6465 4.90531 3.10418 0
M  V30 391 H 38.4115 2.95976 -0.470958 0
M  V30 392 H 35.9725 1.56955 -0.39709 0
M  V30 393 H 37.9645 3.51967 1.99752 0
M  V30 394 H 36.5345 2.45951 1.92943 0
M  V30 395 H 35.7545 3.94144 -0.0662113 0
M  V30 396 H 37.0425 5.07362 0.382272 0
M  V30 397 H 36.4405 4.44389 3.5005 0
M  V30 398 H 34.9975 5.34917 3.72434 0
M  V30 399 N 38.4306 0.297415 1.54768 0
M  V30 400 C 39.3936 -0.567375 2.22066 0
M  V30 401 C 40.3936 -1.06409 1.20556 0
M  V30 402 O 41.5836 -0.960691 1.45315 0
M  V30 403 C 38.7156 -1.78517 2.90421 0
M  V30 404 H 39.9086 0.0205534 2.99893 0
M  V30 405 H 37.4616 0.0482163 1.56226 0
M  V30 406 H 38.1966 -2.41303 2.16664 0
M  V30 407 H 37.9816 -1.43669 3.64831 0
M  V30 408 H 39.4716 -2.39964 3.41771 0
M  V30 409 N 39.9087 -1.5758 0.0250728 0
M  V30 410 C 40.8557 -2.09973 -0.958129 0
M  V30 411 C 41.8257 -1.00085 -1.3256 0
M  V30 412 O 43.0107 -1.27481 -1.41962 0
M  V30 413 C 40.1507 -2.62812 -2.2366 0
M  V30 414 C 39.2637 -3.86693 -1.92594 0
M  V30 415 C 38.3987 -4.27941 -3.14707 0
M  V30 416 C 37.4377 -5.44591 -2.79442 0
M  V30 417 N 36.5747 -5.81014 -3.94167 0
M  V30 418 H 41.4147 -2.937 -0.504428 0
M  V30 419 H 38.9517 -1.45172 -0.237392 0
M  V30 420 H 40.9097 -2.91536 -2.98434 0
M  V30 421 H 39.5397 -1.81922 -2.66654 0
M  V30 422 H 38.5917 -3.64723 -1.0808 0
M  V30 423 H 39.9037 -4.71547 -1.62619 0
M  V30 424 H 39.0577 -4.58079 -3.97804 0
M  V30 425 H 37.7967 -3.41845 -3.4784 0
M  V30 426 H 36.8017 -5.1415 -1.94755 0
M  V30 427 H 38.0267 -6.32382 -2.47528 0
M  V30 428 H 35.9727 -4.97874 -4.2715 0
M  V30 429 H 35.8897 -6.60498 -3.67801 0
M  V30 430 H 37.1577 -6.15756 -4.7798 0
M  V30 431 N 41.3868 0.248026 -1.55636 0
M  V30 432 C 42.3188 1.32993 -1.8667 0
M  V30 433 C 43.3318 1.44345 -0.752877 0
M  V30 434 O 44.5208 1.45715 -1.03098 0
M  V30 435 C 41.6208 2.70863 -2.03682 0
M  V30 436 C 40.7938 2.81792 -3.34532 0
M  V30 437 C 39.8528 4.005 -3.41301 0
M  V30 438 O 38.8788 3.9008 -4.14519 0
M  V30 439 N 40.0808 5.13618 -2.70512 0
M  V30 440 H 42.8458 1.06707 -2.8006 0
M  V30 441 H 40.4068 0.438129 -1.55859 0
M  V30 442 H 42.3988 3.48612 -2.05553 0
M  V30 443 H 40.9688 2.89862 -1.17041 0
M  V30 444 H 40.1888 1.90729 -3.44987 0
M  V30 445 H 41.4768 2.86043 -4.20781 0
M  V30 446 H 40.8748 5.24975 -2.10755 0
M  V30 447 H 39.4318 5.89505 -2.78077 0
M  V30 448 N 42.8649 1.48995 0.513639 0
M  V30 449 C 43.8119 1.6473 1.61656 0
M  V30 450 C 44.7819 0.488984 1.58739 0
M  V30 451 O 45.9669 0.714478 1.76918 0
M  V30 452 C 43.1069 1.7082 2.99858 0
M  V30 453 C 42.2199 2.9787 3.12885 0
M  V30 454 C 41.3549 2.95017 4.41744 0
M  V30 455 C 40.3939 4.16702 4.48359 0
M  V30 456 N 39.5309 4.11832 5.68629 0
M  V30 457 H 44.3709 2.58909 1.47547 0
M  V30 458 H 41.9079 1.28382 0.71808 0
M  V30 459 H 43.8659 1.72331 3.79944 0
M  V30 460 H 42.4959 0.801181 3.12699 0
M  V30 461 H 41.5479 3.06029 2.25944 0
M  V30 462 H 42.8599 3.8786 3.13633 0
M  V30 463 H 42.0139 2.95021 5.30139 0
M  V30 464 H 40.7529 2.02784 4.43542 0
M  V30 465 H 39.7579 4.16955 3.58369 0
M  V30 466 H 40.9829 5.10113 4.48287 0
M  V30 467 H 38.9289 3.22428 5.71293 0
M  V30 468 H 38.8459 4.95543 5.7094 0
M  V30 469 H 40.1139 4.1592 6.59266 0
M  V30 470 N 44.343 -0.763751 1.37857 0
M  V30 471 C 45.591 -1.51957 1.33243 0
M  V30 472 C 45.912 -1.94835 -0.0801709 0
M  V30 473 O 45.182 -1.66894 -1.02582 0
M  V30 474 H 43.762 -0.563626 0.49024 0
M  V30 475 H 46.424 -0.908504 1.7243 0
M  V30 476 H 45.52 -2.41523 1.97669 0
M  V30 477 N 45.8211 -1.22559 -0.990812 0
M  V30 478 C 47.0701 -1.04553 -1.72486 0
M  V30 479 C 47.3831 0.419349 -1.91052 0
M  V30 480 O 48.5891 0.719121 -2.61803 0
M  V30 481 C 47.0451 -1.82231 -3.10355 0
M  V30 482 C 46.6531 -3.32981 -2.99713 0
M  V30 483 C 48.3971 -1.7268 -3.87791 0
M  V30 484 C 46.3041 -4.03091 -4.32748 0
M  V30 485 H 45.2341 -0.387614 -0.646739 0
M  V30 486 H 47.8851 -1.46429 -1.10593 0
M  V30 487 H 46.2671 -1.33155 -3.72942 0
M  V30 488 H 47.4411 -3.89466 -2.46278 0
M  V30 489 H 45.7561 -3.43231 -2.35758 0
M  V30 490 H 48.3531 -2.22381 -4.86262 0
M  V30 491 H 48.6961 -0.687607 -4.10582 0
M  V30 492 H 49.2291 -2.1931 -3.31885 0
M  V30 493 H 45.9681 -5.07273 -4.15156 0
M  V30 494 H 45.4881 -3.51394 -4.86089 0
M  V30 495 H 47.1671 -4.08804 -5.01486 0
M  V30 496 N 47.2992 1.18797 -1.03562 0
M  V30 497 C 48.2462 2.22253 -0.622259 0
M  V30 498 C 49.2162 1.61987 0.36736 0
M  V30 499 O 50.4012 1.88986 0.262492 0
M  V30 500 C 47.5412 3.45097 0.0138462 0
M  V30 501 C 46.6542 4.19722 -1.02263 0
M  V30 502 C 45.7892 5.30009 -0.355573 0
M  V30 503 C 44.8282 5.96399 -1.37749 0
M  V30 504 N 43.9652 6.98234 -0.735766 0
M  V30 505 H 48.8052 2.56968 -1.50903 0
M  V30 506 H 46.3422 1.26245 -0.755017 0
M  V30 507 H 48.3002 4.15279 0.399948 0
M  V30 508 H 46.9302 3.11018 0.864158 0
M  V30 509 H 45.9822 3.48418 -1.52673 0
M  V30 510 H 47.2942 4.65227 -1.79903 0
M  V30 511 H 46.4482 6.0664 0.0850095 0
M  V30 512 H 45.1872 4.85592 0.452967 0
M  V30 513 H 44.1922 5.18512 -1.82826 0
M  V30 514 H 45.4172 6.42899 -2.18764 0
M  V30 515 H 43.3632 6.55979 0.0525597 0
M  V30 516 H 43.2802 7.41965 -1.44995 0
M  V30 517 H 44.5482 7.78845 -0.31941 0
M  V30 518 N 48.7773 0.814389 1.34928 0
M  V30 519 C 49.7073 0.244827 2.32213 0
M  V30 520 C 50.6883 -0.634024 1.57842 0
M  V30 521 O 51.8733 -0.562676 1.8587 0
M  V30 522 C 49.0033 -0.601106 3.42058 0
M  V30 523 C 47.9573 0.179896 4.27622 0
M  V30 524 C 47.2833 -0.788237 5.28858 0
M  V30 525 C 48.5833 1.38329 5.03649 0
M  V30 526 H 50.2773 1.05763 2.80097 0
M  V30 527 H 47.8233 0.510029 1.34665 0
M  V30 528 H 49.7763 -1.00968 4.09125 0
M  V30 529 H 48.5003 -1.44688 2.92802 0
M  V30 530 H 47.1593 0.569739 3.62146 0
M  V30 531 H 46.8073 -1.62973 4.75866 0
M  V30 532 H 46.5073 -0.269942 5.8698 0
M  V30 533 H 48.0313 -1.19485 5.98795 0
M  V30 534 H 49.4453 1.04918 5.63618 0
M  V30 535 H 47.8423 1.83662 5.71304 0
M  V30 536 H 48.9123 2.16592 4.33839 0
M  V30 537 N 50.2554 -1.46986 0.568584 0
M  V30 538 C 51.5024 -2.02441 0.0487986 0
M  V30 539 C 51.8304 -1.44169 -1.30559 0
M  V30 540 O 51.0854 -0.591213 -1.86556 0
M  V30 541 C 51.3844 -3.57306 -0.081836 0
M  V30 542 C 51.0504 -4.34552 1.20313 0
M  V30 543 C 49.7124 -4.55376 1.5552 0
M  V30 544 C 52.0644 -4.79016 2.05411 0
M  V30 545 C 49.3924 -5.17913 2.7565 0
M  V30 546 C 51.7444 -5.42879 3.24754 0
M  V30 547 C 50.4084 -5.61933 3.60261 0
M  V30 548 H 49.6784 -0.740785 0.0178567 0
M  V30 549 H 52.3254 -1.76525 0.742384 0
M  V30 550 H 50.6304 -3.8228 -0.858463 0
M  V30 551 H 52.3274 -3.97876 -0.499546 0
M  V30 552 H 48.9174 -4.18631 0.919014 0
M  V30 553 H 53.1014 -4.62696 1.79516 0
M  V30 554 H 48.3574 -5.30858 3.03315 0
M  V30 555 H 52.5314 -5.76293 3.90973 0
M  V30 556 H 50.1584 -6.10161 4.53439 0
M  V30 557 N 51.7335 -0.305618 -1.54608 0
M  V30 558 C 52.6965 0.555591 -2.22364 0
M  V30 559 C 53.6965 1.05768 -1.21119 0
M  V30 560 O 54.8865 0.952972 -1.45822 0
M  V30 561 C 52.0185 1.76974 -2.91364 0
M  V30 562 H 53.2115 -0.0364572 -2.99878 0
M  V30 563 H 50.7645 -0.0565007 -1.56198 0
M  V30 564 H 51.4995 2.40151 -2.17941 0
M  V30 565 H 51.2845 1.41732 -3.65588 0
M  V30 566 H 52.7745 2.38148 -3.43038 0
M  V30 567 N 53.2116 1.57565 -0.0334293 0
M  V30 568 C 54.4606 1.91155 0.643639 0
M  V30 569 C 54.7736 0.91192 1.73042 0
M  V30 570 O 55.9796 1.13923 2.46442 0
M  V30 571 C 54.4356 3.39443 1.1961 0
M  V30 572 C 54.0436 4.47774 0.142381 0
M  V30 573 C 55.7876 3.82094 1.84944 0
M  V30 574 C 53.6946 5.87162 0.706727 0
M  V30 575 H 52.6246 0.713368 0.244176 0
M  V30 576 H 55.2756 1.8323 -0.0994323 0
M  V30 577 H 53.6576 3.42313 1.99092 0
M  V30 578 H 54.8316 4.56469 -0.630296 0
M  V30 579 H 53.1466 4.14352 -0.412446 0
M  V30 580 H 55.7436 4.83591 2.2813 0
M  V30 581 H 56.0866 3.17386 2.69392 0
M  V30 582 H 56.6196 3.81665 1.12145 0
M  V30 583 H 53.3586 6.55424 -0.0997178 0
M  V30 584 H 52.8786 5.82064 1.44779 0
M  V30 585 H 54.5576 6.35866 1.19514 0
M  V30 586 N 54.6897 -0.239769 1.55765 0
M  V30 587 C 55.9177 -0.98417 1.81994 0
M  V30 588 C 56.3327 -1.7867 0.610124 0
M  V30 589 O 55.6897 -1.77571 -0.421271 0
M  V30 590 C 55.7407 -1.91635 3.06526 0
M  V30 591 O 55.4617 -1.14629 4.22838 0
M  V30 592 C 56.9627 -2.77616 3.45607 0
M  V30 593 H 54.1827 -0.28928 0.605441 0
M  V30 594 H 56.7267 -0.260499 2.02834 0
M  V30 595 H 54.8817 -2.5942 2.87715 0
M  V30 596 H 55.2957 -1.77745 4.93464 0
M  V30 597 H 56.7697 -3.38759 4.35828 0
M  V30 598 H 57.2467 -3.4909 2.6652 0
M  V30 599 H 57.8527 -2.15271 3.66795 0
M  V30 600 N 56.1678 -1.49265 -0.50573 0
M  V30 601 C 57.4448 -1.49012 -1.26707 0
M  V30 602 C 57.8248 -0.215205 -2.1 0
M  V30 603 O 57.1728 0.802547 -2.13943 0
M  V30 604 C 57.3828 -2.7663 -2.12783 0
M  V30 605 C 58.7308 -3.25932 -2.72127 0
M  V30 606 O 59.7548 -2.77715 -2.23054 0
M  V30 607 O 58.6138 -4.09897 -3.61451 0
M  V30 608 H 55.7078 -0.596197 -0.57313 0
M  V30 609 H 58.2538 -1.61524 -0.52039 0
M  V30 610 H 57.0258 -3.60916 -1.5118 0
M  V30 611 H 56.6488 -2.66956 -2.94653 0
M  V30 612 N 57.6459 0.756429 -1.3826 0
M  V30 613 C 58.5959 1.86069 -1.31766 0
M  V30 614 C 59.5799 1.59621 -0.202483 0
M  V30 615 O 60.7719 1.7149 -0.438211 0
M  V30 616 C 57.9009 3.23742 -1.1422 0
M  V30 617 C 56.9869 3.56091 -2.30348 0
M  V30 618 N 57.3779 3.59517 -3.55783 0
M  V30 619 C 55.6759 3.86341 -2.22838 0
M  V30 620 C 56.3769 3.89052 -4.32451 0
M  V30 621 N 55.3529 4.05736 -3.61772 0
M  V30 622 H 59.1549 1.86992 -2.26741 0
M  V30 623 H 56.6689 0.953643 -1.31451 0
M  V30 624 H 58.6659 4.02761 -1.07652 0
M  V30 625 H 57.3259 3.24073 -0.201763 0
M  V30 626 H 58.3369 3.41347 -3.89491 0
M  V30 627 H 55.0139 3.94404 -1.36937 0
M  V30 628 H 56.4039 3.98349 -5.4108 0
M  V30 629 N 59.124 1.23083 0.984299 0
M  V30 630 C 60.372 1.05848 1.72165 0
M  V30 631 C 60.693 -0.406049 1.90726 0
M  V30 632 O 59.963 -1.29139 1.47309 0
M  V30 633 H 58.543 0.388685 0.637913 0
M  V30 634 H 61.205 1.54736 1.18503 0
M  V30 635 H 60.301 1.54327 2.71274 0
M  V30 636 N 60.6021 -1.18246 1.0419 0
M  V30 637 C 62.0131 -1.69914 0.773698 0
M  V30 638 C 62.3641 -1.83085 -0.705297 0
M  V30 639 O 61.4891 -1.51123 -1.5489 0
M  V30 640 C 62.0841 -3.08619 1.39784 0
M  V30 641 C 60.6431 -3.57494 1.17792 0
M  V30 642 C 59.7901 -2.34013 1.48773 0
M  V30 643 H 62.7411 -1.02904 1.20816 0
M  V30 644 H 62.7621 -3.71958 0.801714 0
M  V30 645 H 62.2741 -2.99001 2.47426 0
M  V30 646 H 60.3751 -3.72406 0.120295 0
M  V30 647 H 60.4881 -4.40852 1.87581 0
M  V30 648 H 58.8521 -2.37986 0.907463 0
M  V30 649 H 59.6351 -2.27013 2.57527 0
M  V30 650 N 62.0802 -0.821533 -1.34494 0
M  V30 651 C 63.3572 -0.33159 -1.92769 0
M  V30 652 C 63.7372 1.18088 -1.74981 0
M  V30 653 O 63.0852 1.98733 -1.12772 0
M  V30 654 C 63.2952 -0.759398 -3.40638 0
M  V30 655 C 64.6432 -0.757433 -4.1779 0
M  V30 656 O 65.6672 -0.70189 -3.49216 0
M  V30 657 O 64.5262 -0.829361 -5.4017 0
M  V30 658 H 61.6202 -0.0902502 -0.822061 0
M  V30 659 H 64.1662 -0.906231 -1.43477 0
M  V30 660 H 62.9382 -1.8012 -3.47379 0
M  V30 661 H 62.5612 -0.160378 -3.97276 0
M  V30 662 N 63.5583 1.46682 -0.576371 0
M  V30 663 C 64.4913 2.27243 0.208731 0
M  V30 664 C 65.4693 1.35238 0.902746 0
M  V30 665 O 66.6533 1.64641 0.917904 0
M  V30 666 C 63.7803 3.12802 1.29896 0
M  V30 667 C 62.8263 4.20524 0.711457 0
M  V30 668 S 63.6593 5.33548 -0.456781 0
M  V30 669 C 64.8153 6.22673 0.634798 0
M  V30 670 H 65.0483 2.93484 -0.474838 0
M  V30 671 H 62.5813 1.50069 -0.363118 0
M  V30 672 H 64.5393 3.62661 1.92321 0
M  V30 673 H 63.2003 2.45887 1.95444 0
M  V30 674 H 62.3933 4.80191 1.53076 0
M  V30 675 H 61.9953 3.73645 0.162999 0
M  V30 676 H 64.2873 6.60181 1.52209 0
M  V30 677 H 65.2303 7.0806 0.0750311 0
M  V30 678 H 65.6383 5.56684 0.936092 0
M  V30 679 N 65.0364 0.313813 1.54444 0
M  V30 680 C 65.9464 -0.565714 2.27677 0
M  V30 681 C 66.9624 -1.13754 1.31666 0
M  V30 682 O 68.1384 -1.15959 1.64668 0
M  V30 683 C 65.2034 -1.71528 3.01296 0
M  V30 684 C 64.2644 -1.17624 4.12872 0
M  V30 685 C 63.4974 -2.27102 4.8297 0
M  V30 686 O 63.7204 -3.47256 4.52514 0
M  V30 687 O 62.6544 -1.9307 5.70094 0
M  V30 688 H 66.4804 0.0287296 3.03686 0
M  V30 689 H 64.0654 0.0798312 1.49187 0
M  V30 690 H 65.9474 -2.38476 3.4743 0
M  V30 691 H 64.6224 -2.29608 2.2817 0
M  V30 692 H 63.5294 -0.472124 3.71109 0
M  V30 693 H 64.8624 -0.640695 4.88012 0
M  V30 694 N 66.5145 -1.57545 0.0417849 0
M  V30 695 C 67.7915 -1.83642 -0.673433 0
M  V30 696 C 68.1715 -0.928298 -1.89594 0
M  V30 697 O 67.5195 0.0129955 -2.28496 0
M  V30 698 C 67.7295 -3.33155 -1.03964 0
M  V30 699 C 69.0775 -3.99941 -1.42592 0
M  V30 700 O 70.1015 -3.37725 -1.13226 0
M  V30 701 O 68.9605 -5.09619 -1.9736 0
M  V30 702 H 66.0545 -0.757638 -0.331533 0
M  V30 703 H 68.6005 -1.69554 0.070433 0
M  V30 704 H 67.3725 -3.9093 -0.170098 0
M  V30 705 H 66.9955 -3.52396 -1.84126 0
M  V30 706 N 67.9926 0.231505 -1.5589 0
M  V30 707 C 68.9556 1.27028 -1.90779 0
M  V30 708 C 69.9556 1.40308 -0.785507 0
M  V30 709 O 71.1456 1.38744 -1.05336 0
M  V30 710 C 68.2776 2.64566 -2.14983 0
M  V30 711 H 69.4706 0.973017 -2.83677 0
M  V30 712 H 67.0236 0.471486 -1.49019 0
M  V30 713 H 67.7586 2.99406 -1.24604 0
M  V30 714 H 67.5436 2.56305 -2.96732 0
M  V30 715 H 69.0336 3.39543 -2.43105 0
M  V30 716 N 69.4707 1.49531 0.497807 0
M  V30 717 C 70.8817 1.52344 1.07927 0
M  V30 718 C 71.2327 0.311469 1.93712 0
M  V30 719 O 70.3577 -0.578405 2.08527 0
M  V30 720 C 70.9527 2.76062 1.96405 0
M  V30 721 C 69.5117 2.81643 2.49709 0
M  V30 722 C 68.6587 2.46299 1.27404 0
M  V30 723 H 71.6097 1.56182 0.281576 0
M  V30 724 H 71.6307 2.56405 2.81135 0
M  V30 725 H 71.1427 3.64254 1.33943 0
M  V30 726 H 69.2437 1.97739 3.15801 0
M  V30 727 H 69.3567 3.83891 2.86643 0
M  V30 728 H 67.7207 1.98148 1.60029 0
M  V30 729 H 68.5037 3.36769 0.66645 0
M  V30 730 N 70.9488 -0.749086 1.3866 0
M  V30 731 C 71.8988 -1.85368 1.32751 0
M  V30 732 C 72.8828 -1.59511 0.210945 0
M  V30 733 O 74.0748 -1.71255 0.447299 0
M  V30 734 C 71.2038 -3.23131 1.15935 0
M  V30 735 C 70.2898 -3.54864 2.32233 0
M  V30 736 N 70.6808 -3.57625 3.57684 0
M  V30 737 C 68.9788 -3.85154 2.24883 0
M  V30 738 C 69.6798 -3.86753 4.34508 0
M  V30 739 N 68.6558 -4.03812 3.63918 0
M  V30 740 H 72.4578 -1.85787 2.27729 0
M  V30 741 H 69.9718 -0.946658 1.31955 0
M  V30 742 H 71.9688 -4.02185 1.09786 0
M  V30 743 H 70.6288 -3.23961 0.218947 0
M  V30 744 H 71.6398 -3.39276 3.91295 0
M  V30 745 H 68.3168 -3.93672 1.39027 0
M  V30 746 H 69.7068 -3.95474 5.43185 0
M  V30 747 N 72.4269 -1.23603 -0.977757 0
M  V30 748 C 73.3769 -0.986664 -2.05545 0
M  V30 749 C 74.3609 0.0683009 -1.60755 0
M  V30 750 O 75.5529 -0.144162 -1.76412 0
M  V30 751 C 72.6819 -0.582623 -3.3832 0
M  V30 752 C 71.7679 -1.67313 -3.89701 0
M  V30 753 N 72.1589 -2.90394 -4.14132 0
M  V30 754 C 70.4569 -1.54832 -4.18262 0
M  V30 755 C 71.1579 -3.61017 -4.56116 0
M  V30 756 N 70.1339 -2.8854 -4.60701 0
M  V30 757 H 73.9359 -1.92139 -2.22396 0
M  V30 758 H 71.4499 -1.1358 -1.16074 0
M  V30 759 H 73.4469 -0.38524 -4.15116 0
M  V30 760 H 72.1069 0.34503 -3.22862 0
M  V30 761 H 73.1179 -3.26673 -4.01877 0
M  V30 762 H 69.7949 -0.687969 -4.11793 0
M  V30 763 H 71.1849 -4.66544 -4.83514 0
M  V30 764 N 73.905 1.17692 -1.04816 0
M  V30 765 C 75.151 1.88389 -0.766892 0
M  V30 766 C 75.506 1.79282 0.698269 0
M  V30 767 O 74.799 1.18739 1.50372 0
M  V30 768 C 74.993 3.37462 -1.17703 0
M  V30 769 C 74.822 3.6108 -2.68051 0
M  V30 770 C 73.592 3.78018 -3.35307 0
M  V30 771 C 75.79 3.61039 -3.66273 0
M  V30 772 N 73.772 3.89444 -4.74559 0
M  V30 773 C 75.143 3.78269 -4.91235 0
M  V30 774 C 77.198 3.44168 -3.59796 0
M  V30 775 C 75.901 3.80376 -6.10497 0
M  V30 776 C 77.927 3.4756 -4.78493 0
M  V30 777 C 77.289 3.65295 -6.02278 0
M  V30 778 H 73.388 0.707651 -0.332798 0
M  V30 779 H 75.972 1.41314 -1.33934 0
M  V30 780 H 74.143 3.83214 -0.63257 0
M  V30 781 H 75.875 3.95759 -0.845989 0
M  V30 782 H 72.63 3.77714 -2.85708 0
M  V30 783 H 73.054 3.98962 -5.46954 0
M  V30 784 H 77.696 3.29396 -2.65062 0
M  V30 785 H 75.414 3.93933 -7.05579 0
M  V30 786 H 79 3.3577 -4.75131 0
M  V30 787 H 77.88 3.6782 -6.92588 0
M  V30 788 N 75.3831 0.828654 1.34056 0
M  V30 789 C 76.3331 0.226828 2.26869 0
M  V30 790 C 77.3171 -0.612243 1.48796 0
M  V30 791 O 78.5091 -0.465884 1.70759 0
M  V30 792 C 75.6381 -0.605654 3.37915 0
M  V30 793 C 74.7241 0.244361 4.23395 0
M  V30 794 N 75.1151 1.31815 4.88322 0
M  V30 795 C 73.4131 0.0296616 4.4599 0
M  V30 796 C 74.1141 1.83895 5.51867 0
M  V30 797 N 73.0901 1.14196 5.3147 0
M  V30 798 H 76.8921 1.04811 2.74576 0
M  V30 799 H 74.4061 0.67205 1.47842 0
M  V30 800 H 76.4031 -1.05302 4.03382 0
M  V30 801 H 75.0631 -1.42504 2.91758 0
M  V30 802 H 76.0741 1.70099 4.8917 0
M  V30 803 H 72.7511 -0.757097 4.10578 0
M  V30 804 H 74.1411 2.7376 6.136 0
M  V30 805 N 76.8612 -1.46375 0.584142 0
M  V30 806 C 78.1082 -2.02378 0.0702675 0
M  V30 807 C 78.4362 -1.45545 -1.29023 0
M  V30 808 O 77.6912 -0.610967 -1.85918 0
M  V30 809 C 77.9902 -3.57373 -0.0439342 0
M  V30 810 C 77.6562 -4.33252 1.24915 0
M  V30 811 C 76.3182 -4.53701 1.60341 0
M  V30 812 C 78.6702 -4.7681 2.1048 0
M  V30 813 C 75.9982 -5.1496 2.81128 0
M  V30 814 C 78.3502 -5.39404 3.30494 0
M  V30 815 C 77.0142 -5.5808 3.66201 0
M  V30 816 H 76.2842 -0.740554 0.0257127 0
M  V30 817 H 78.9312 -1.75727 0.761065 0
M  V30 818 H 77.2362 -3.83169 -0.817869 0
M  V30 819 H 78.9332 -3.98384 -0.457318 0
M  V30 820 H 75.5232 -4.17633 0.963364 0
M  V30 821 H 79.7072 -4.60766 1.84414 0
M  V30 822 H 74.9632 -5.27611 3.08928 0
M  V30 823 H 79.1372 -5.72114 3.97063 0
M  V30 824 H 76.7642 -6.05318 4.59885 0
M  V30 825 N 78.3393 -0.321999 -1.54275 0
M  V30 826 C 79.5883 0.281931 -1.9972 0
M  V30 827 C 79.9013 1.53369 -1.21397 0
M  V30 828 O 81.1073 2.21352 -1.57211 0
M  V30 829 C 79.5633 0.5529 -3.55628 0
M  V30 830 C 79.1713 -0.681721 -4.42783 0
M  V30 831 C 80.9153 1.11687 -4.09544 0
M  V30 832 C 78.8223 -0.382742 -5.9016 0
M  V30 833 H 77.7523 0.109124 -0.746062 0
M  V30 834 H 80.4033 -0.43398 -1.78294 0
M  V30 835 H 78.7853 1.32896 -3.73035 0
M  V30 836 H 79.9593 -1.45723 -4.37151 0
M  V30 837 H 78.2743 -1.1658 -3.99748 0
M  V30 838 H 80.8713 1.35515 -5.17242 0
M  V30 839 H 81.2143 2.06575 -3.61431 0
M  V30 840 H 81.7473 0.402032 -3.95763 0
M  V30 841 H 78.4863 -1.30076 -6.42464 0
M  V30 842 H 78.0063 0.355094 -5.98748 0
M  V30 843 H 79.6853 0.00800157 -6.47 0
M  V30 844 N 79.8174 1.5752 -0.0501392 0
M  V30 845 C 80.7654 2.12651 0.942459 0
M  V30 846 C 81.7594 1.05807 1.32292 0
M  V30 847 O 82.9654 1.24217 1.3027 0
M  V30 848 H 79.3404 0.679673 0.321789 0
M  V30 849 H 81.3114 2.94951 0.452356 0
M  V30 850 C 80.0604 2.68565 2.20836 0
M  V30 851 H 79.3834 3.50439 1.92439 0
M  V30 852 H 80.8234 3.10761 2.8845 0
M  V30 853 C 79.2824 1.62291 2.95234 0
M  V30 854 O 79.8124 1.03508 3.88135 0
M  V30 855 N 78.0184 1.33836 2.57946 0
M  V30 856 H 77.5654 1.81826 1.82475 0
M  V30 857 H 77.5234 0.629595 3.08032 0
M  V30 858 N 81.2955 -0.223234 1.56011 0
M  V30 859 C 82.2285 -1.30377 1.87289 0
M  V30 860 C 83.2065 -1.45286 0.730112 0
M  V30 861 O 84.3905 -1.61126 0.978302 0
M  V30 862 C 81.5175 -2.67431 2.07843 0
M  V30 863 C 80.5635 -2.69546 3.30526 0
M  V30 864 S 81.3965 -2.23781 4.865 0
M  V30 865 C 82.5525 -3.62714 5.10088 0
M  V30 866 H 82.7855 -1.03652 2.78646 0
M  V30 867 H 80.3185 -0.425393 1.48424 0
M  V30 868 H 82.2765 -3.46336 2.20368 0
M  V30 869 H 80.9375 -2.91381 1.17285 0
M  V30 870 H 80.1305 -3.70255 3.41947 0
M  V30 871 H 79.7325 -1.98703 3.16849 0
M  V30 872 H 82.0245 -4.58391 4.98883 0
M  V30 873 H 82.9675 -3.5621 6.11981 0
M  V30 874 H 83.3755 -3.56323 4.37829 0
M  V30 875 N 82.7736 -1.49793 -0.48987 0
M  V30 876 C 84.1896 -1.36803 -0.822022 0
M  V30 877 C 84.3896 -0.409652 -1.97292 0
M  V30 878 O 83.4456 0.154614 -2.52026 0
M  V30 879 C 84.7586 -2.77768 -1.15175 0
M  V30 880 C 86.3066 -2.86549 -1.25931 0
M  V30 881 C 86.7816 -4.28306 -1.62228 0
M  V30 882 N 88.2726 -4.31169 -1.69256 0
M  V30 883 C 89.0076 -5.37832 -1.98807 0
M  V30 884 N 88.5036 -6.54726 -2.26507 0
M  V30 885 N 90.2966 -5.25258 -2.00152 0
M  V30 886 H 82.4476 -2.10691 0.268881 0
M  V30 887 H 84.7106 -0.946241 0.057728 0
M  V30 888 H 84.4166 -3.49648 -0.379335 0
M  V30 889 H 84.2906 -3.13836 -2.09253 0
M  V30 890 H 86.6776 -2.14899 -2.02243 0
M  V30 891 H 86.7586 -2.54049 -0.298776 0
M  V30 892 H 86.4026 -5.00486 -0.864622 0
M  V30 893 H 86.3326 -4.58279 -2.594 0
M  V30 894 H 88.8236 -3.4687 -1.49965 0
M  V30 895 H 89.1366 -7.31833 -2.48276 0
M  V30 896 H 87.4816 -6.57933 -2.23939 0
M  V30 897 H 90.6726 -4.32938 -1.77996 0
M  V30 898 H 90.8456 -6.08476 -2.22848 0
M  V30 899 N 84.2517 0.741722 -1.39055 0
M  V30 900 C 85.5007 1.49656 -1.35225 0
M  V30 901 C 85.8137 1.95533 0.0512708 0
M  V30 902 O 87.0197 2.7067 0.212138 0
M  V30 903 C 85.4757 2.70389 -2.37525 0
M  V30 904 C 85.0837 2.31489 -3.83558 0
M  V30 905 C 86.8277 3.48236 -2.42759 0
M  V30 906 C 84.7347 3.48903 -4.77515 0
M  V30 907 H 83.6647 0.56197 -0.502699 0
M  V30 908 H 86.3157 0.809727 -1.64668 0
M  V30 909 H 84.6977 3.41113 -2.01142 0
M  V30 910 H 85.8717 1.68354 -4.28945 0
M  V30 911 H 84.1867 1.66749 -3.81554 0
M  V30 912 H 86.7837 4.35558 -3.1015 0
M  V30 913 H 87.1267 3.90229 -1.45008 0
M  V30 914 H 87.6597 2.84535 -2.78002 0
M  V30 915 H 84.3987 3.11966 -5.76504 0
M  V30 916 H 83.9187 4.11041 -4.36813 0
M  V30 917 H 85.5977 4.15328 -4.96096 0
M  V30 918 N 85.7298 1.2412 0.971189 0
M  V30 919 C 86.9758 1.09048 1.71698 0
M  V30 920 C 87.3308 -0.367442 1.88859 0
M  V30 921 O 86.6238 -1.26792 1.43646 0
M  V30 922 C 86.8178 1.75983 3.11071 0
M  V30 923 C 86.6468 3.28133 3.07504 0
M  V30 924 C 85.4168 3.97331 3.1218 0
M  V30 925 C 87.6148 4.24773 2.89952 0
M  V30 926 N 85.5968 5.3639 2.98596 0
M  V30 927 C 86.9678 5.50806 2.84627 0
M  V30 928 C 89.0228 4.15392 2.74506 0
M  V30 929 C 87.7258 6.68533 2.65437 0
M  V30 930 C 89.7518 5.32793 2.56682 0
M  V30 931 C 89.1138 6.57756 2.52063 0
M  V30 932 H 85.2128 0.453632 0.636979 0
M  V30 933 H 87.7968 1.56983 1.15171 0
M  V30 934 H 85.9678 1.30566 3.65796 0
M  V30 935 H 87.6998 1.53803 3.74335 0
M  V30 936 H 84.4548 3.48473 3.20724 0
M  V30 937 H 84.8788 6.09321 2.95054 0
M  V30 938 H 89.5208 3.19543 2.76861 0
M  V30 939 H 87.2388 7.64509 2.61825 0
M  V30 940 H 90.8248 5.27383 2.4568 0
M  V30 941 H 89.7048 7.4707 2.38446 0
M  V30 942 N 87.2079 -1.17134 1.05439 0
M  V30 943 C 88.6189 -1.69084 0.791676 0
M  V30 944 C 88.9699 -1.83822 -0.685839 0
M  V30 945 O 88.0949 -1.52757 -1.53278 0
M  V30 946 C 88.6899 -3.07119 1.4305 0
M  V30 947 C 87.2489 -3.56225 1.21577 0
M  V30 948 C 86.3959 -2.32421 1.51247 0
M  V30 949 H 89.3469 -1.01617 1.219 0
M  V30 950 H 89.3679 -3.71087 0.84112 0
M  V30 951 H 88.8799 -2.9636 2.50584 0
M  V30 952 H 86.9809 -3.72257 0.159787 0
M  V30 953 H 87.0939 -4.38837 1.92246 0
M  V30 954 H 85.4579 -2.3701 0.932653 0
M  V30 955 H 86.2409 -2.24268 2.5992 0
M  V30 956 N 88.686 -0.835752 -1.33615 0
M  V30 957 C 90.102 -0.523139 -1.50783 0
M  V30 958 C 90.302 0.950171 -1.77691 0
M  V30 959 O 89.358 1.73411 -1.83534 0
M  V30 960 C 90.671 -1.39378 -2.66448 0
M  V30 961 C 92.219 -1.39223 -2.80332 0
M  V30 962 C 92.694 -2.24765 -3.99055 0
M  V30 963 N 94.185 -2.22458 -4.06284 0
M  V30 964 C 94.92 -2.85386 -4.97336 0
M  V30 965 N 94.416 -3.57354 -5.93523 0
M  V30 966 N 96.209 -2.74872 -4.90308 0
M  V30 967 H 88.36 -1.78952 -1.14411 0
M  V30 968 H 90.623 -0.763297 -0.562212 0
M  V30 969 H 90.329 -2.44061 -2.53234 0
M  V30 970 H 90.203 -1.0676 -3.61776 0
M  V30 971 H 92.59 -0.353136 -2.92979 0
M  V30 972 H 92.671 -1.75846 -1.85773 0
M  V30 973 H 92.315 -3.28732 -3.87167 0
M  V30 974 H 92.245 -1.85485 -4.92852 0
M  V30 975 H 94.736 -1.70119 -3.37443 0
M  V30 976 H 95.049 -4.02584 -6.59656 0
M  V30 977 H 93.394 -3.61461 -5.93608 0
M  V30 978 H 96.585 -2.18213 -4.14126 0
M  V30 979 H 96.758 -3.24199 -5.61069 0
M  V30 980 N 90.1641 1.46063 -0.591896 0
M  V30 981 C 91.4101 2.02638 -0.0811191 0
M  V30 982 C 91.7431 1.4613 1.27905 0
M  V30 983 O 91.0181 0.629908 1.84017 0
M  V30 984 C 91.3011 3.60091 -0.0252436 0
M  V30 985 C 91.1541 4.26965 -1.41496 0
M  V30 986 C 92.4731 4.3496 0.670685 0
M  V30 987 H 89.5921 0.73635 -0.0309524 0
M  V30 988 H 92.2341 1.741 -0.760859 0
M  V30 989 H 90.3841 3.84535 0.553624 0
M  V30 990 H 92.0561 4.13756 -2.0397 0
M  V30 991 H 90.2991 3.85971 -1.98011 0
M  V30 992 H 90.9701 5.35781 -1.32825 0
M  V30 993 H 93.4461 4.15716 0.178825 0
M  V30 994 H 92.3221 5.44686 0.678837 0
M  V30 995 H 92.5831 4.06685 1.73379 0
M  V30 996 N 91.6422 0.330177 1.54103 0
M  V30 997 C 92.8882 -0.270806 2.00984 0
M  V30 998 C 93.2212 -1.51265 1.21789 0
M  V30 999 O 92.4962 -1.92142 0.301927 0
M  V30 1000 C 92.7792 -0.598339 3.55094 0
M  V30 1001 C 92.6322 0.654674 4.4501 0
M  V30 1002 C 93.9512 -1.41334 4.16789 0
M  V30 1003 H 91.0702 -0.0969531 0.730595 0
M  V30 1004 H 93.7122 0.448066 1.84641 0
M  V30 1005 H 91.8622 -1.21078 3.69151 0
M  V30 1006 H 93.5342 1.29285 4.42813 0
M  V30 1007 H 91.7772 1.28224 4.14416 0
M  V30 1008 H 92.4482 0.380944 5.50684 0
M  V30 1009 H 94.9242 -0.895597 4.06347 0
M  V30 1010 H 93.8002 -1.61127 5.24718 0
M  V30 1011 H 94.0612 -2.41146 3.70541 0
M  V30 1012 N 93.1203 -1.57491 0.0584922 0
M  V30 1013 C 94.3973 -1.84346 -0.653918 0
M  V30 1014 C 94.7773 -0.948355 -1.88599 0
M  V30 1015 O 94.1253 -0.0112403 -2.28497 0
M  V30 1016 C 94.3353 -3.34239 -1.00425 0
M  V30 1017 C 95.6833 -4.01431 -1.38342 0
M  V30 1018 O 96.7073 -3.38907 -1.09637 0
M  V30 1019 O 95.5663 -5.11683 -1.91943 0
M  V30 1020 H 92.6603 -0.761112 -0.323478 0
M  V30 1021 H 95.2063 -1.6947 0.0884125 0
M  V30 1022 H 93.9783 -3.91089 -0.128625 0
M  V30 1023 H 93.6013 -3.54329 -1.80378 0
M  V30 1024 N 94.5984 0.214957 -1.56127 0
M  V30 1025 C 95.8464 0.936518 -1.79091 0
M  V30 1026 C 96.1674 1.84606 -0.628148 0
M  V30 1027 O 95.4374 1.92664 0.35462 0
M  V30 1028 H 94.0174 0.3488 -0.660566 0
M  V30 1029 H 96.6794 0.22523 -1.93594 0
M  V30 1030 H 95.7754 1.53943 -2.71492 0
M  V30 1031 N 96.0765 1.50051 0.48192 0
M  V30 1032 C 97.3225 1.60736 1.2366 0
M  V30 1033 C 97.6555 0.301786 1.91841 0
M  V30 1034 O 96.9305 -0.696025 1.8162 0
M  V30 1035 C 97.2135 2.78009 2.28874 0
M  V30 1036 C 97.0665 4.18416 1.65069 0
M  V30 1037 C 98.3855 2.90867 3.30279 0
M  V30 1038 H 95.5045 0.585031 0.448228 0
M  V30 1039 H 98.1465 1.82402 0.531946 0
M  V30 1040 H 96.2965 2.59667 2.88973 0
M  V30 1041 H 97.9685 4.48322 1.0865 0
M  V30 1042 H 96.2115 4.23177 0.954148 0
M  V30 1043 H 96.8825 4.96381 2.41474 0
M  V30 1044 H 99.3585 3.07623 2.80191 0
M  V30 1045 H 98.2345 3.74566 4.01238 0
M  V30 1046 H 98.4955 2.01021 3.93755 0
M  V30 1047 N 97.5546 -0.734337 1.39446 0
M  V30 1048 C 98.8026 -1.49096 1.36436 0
M  V30 1049 C 99.1236 -1.94961 -0.0388255 0
M  V30 1050 O 98.3936 -1.69033 -0.990191 0
M  V30 1051 H 96.9736 -0.5531 0.502085 0
M  V30 1052 H 99.6356 -0.871725 1.74319 0
M  V30 1053 H 98.7316 -2.37276 2.02747 0
M  V30 1054 N 99.0327 -1.24633 -0.964593 0
M  V30 1055 C 100.282 -1.08188 -1.7023 0
M  V30 1056 C 100.595 0.37873 -1.91898 0
M  V30 1057 O 101.801 0.663427 -2.6327 0
M  V30 1058 C 100.257 -1.88773 -3.06419 0
M  V30 1059 C 99.8647 -3.39263 -2.92582 0
M  V30 1060 C 101.609 -1.80867 -3.84041 0
M  V30 1061 C 99.5157 -4.1218 -4.24101 0
M  V30 1062 H 98.4457 -0.401245 -0.638372 0
M  V30 1063 H 101.097 -1.48742 -1.07462 0
M  V30 1064 H 99.4787 -1.41035 -3.70034 0
M  V30 1065 H 100.653 -3.94603 -2.37961 0
M  V30 1066 H 98.9677 -3.48154 -2.28424 0
M  V30 1067 H 101.565 -2.32646 -4.81435 0
M  V30 1068 H 101.908 -0.774543 -4.09031 0
M  V30 1069 H 102.441 -2.26301 -3.27159 0
M  V30 1070 H 99.1797 -5.15965 -4.04303 0
M  V30 1071 H 98.6997 -3.61626 -4.78526 0
M  V30 1072 H 100.379 -4.19349 -4.92702 0
M  V30 1073 N 100.511 1.16574 -1.06058 0
M  V30 1074 C 101.441 2.23057 -0.690488 0
M  V30 1075 C 102.422 1.67141 0.315901 0
M  V30 1076 O 103.607 1.93253 0.191556 0
M  V30 1077 C 100.737 3.47222 -0.073625 0
M  V30 1078 C 99.6908 4.16016 -1.00573 0
M  V30 1079 C 99.0168 5.34104 -0.252289 0
M  V30 1080 C 100.317 4.67264 -2.33371 0
M  V30 1081 H 102.011 2.54271 -1.58072 0
M  V30 1082 H 99.5568 1.22218 -0.76149 0
M  V30 1083 H 101.51 4.20939 0.19714 0
M  V30 1084 H 100.234 3.15302 0.85161 0
M  V30 1085 H 98.8928 3.44223 -1.2612 0
M  V30 1086 H 98.5408 4.98437 0.675988 0
M  V30 1087 H 98.2408 5.81072 -0.873455 0
M  V30 1088 H 99.7648 6.10599 0.0109857 0
M  V30 1089 H 101.179 5.32573 -2.12223 0
M  V30 1090 H 99.5758 5.24843 -2.90963 0
M  V30 1091 H 100.646 3.83602 -2.96611 0
M  V30 1092 N 101.989 0.842826 1.3317 0
M  V30 1093 C 103.405 0.531128 1.50503 0
M  V30 1094 C 103.605 -0.940734 1.78192 0
M  V30 1095 O 102.661 -1.72436 1.84451 0
M  V30 1096 C 103.974 1.40789 2.65705 0
M  V30 1097 C 105.522 1.40708 2.79589 0
M  V30 1098 C 105.997 2.26878 3.97857 0
M  V30 1099 N 107.488 2.24609 4.05099 0
M  V30 1100 C 108.223 2.88019 4.95815 0
M  V30 1101 N 107.719 3.60496 5.9162 0
M  V30 1102 N 109.512 2.77469 4.88843 0
M  V30 1103 H 101.663 1.79557 1.1346 0
M  V30 1104 H 103.926 0.766267 0.558156 0
M  V30 1105 H 103.632 2.454 2.51936 0
M  V30 1106 H 103.506 1.08677 3.61205 0
M  V30 1107 H 105.893 0.368668 2.92788 0
M  V30 1108 H 105.974 1.76829 1.84838 0
M  V30 1109 H 105.618 3.3078 3.85418 0
M  V30 1110 H 105.548 1.88096 4.91861 0
M  V30 1111 H 108.039 1.71906 3.36536 0
M  V30 1112 H 108.352 4.06076 6.57512 0
M  V30 1113 H 106.697 3.64604 5.91683 0
M  V30 1114 H 109.888 2.20406 4.12963 0
M  V30 1115 H 110.061 3.2717 5.59342 0
M  V30 1116 N 103.467 -1.45747 0.599634 0
M  V30 1117 C 104.715 -2.01893 0.0915472 0
M  V30 1118 C 105.036 -1.47155 -1.27946 0
M  V30 1119 O 104.306 -0.66273 -1.84349 0
M  V30 1120 H 102.886 -0.746363 0.0308524 0
M  V30 1121 H 105.548 -1.78645 0.779237 0
M  V30 1122 H 104.644 -3.1208 0.0353086 0
M  V30 1123 N 104.945 -0.338344 -1.53925 0
M  V30 1124 C 106.194 0.260732 -2.00008 0
M  V30 1125 C 106.507 1.52073 -1.23017 0
M  V30 1126 O 107.713 2.19672 -1.5955 0
M  V30 1127 C 106.169 0.51515 -3.56194 0
M  V30 1128 C 105.777 -0.728645 -4.42035 0
M  V30 1129 C 107.521 1.07337 -4.10706 0
M  V30 1130 C 105.428 -0.445315 -5.89721 0
M  V30 1131 H 104.358 0.101205 -0.747177 0
M  V30 1132 H 107.009 -0.452866 -1.77824 0
M  V30 1133 H 105.391 1.28932 -3.74423 0
M  V30 1134 H 106.565 -1.50352 -4.35581 0
M  V30 1135 H 104.88 -1.20813 -3.98489 0
M  V30 1136 H 107.477 1.30022 -5.18651 0
M  V30 1137 H 107.82 2.0273 -3.63602 0
M  V30 1138 H 108.353 0.360034 -3.96167 0
M  V30 1139 H 105.092 -1.36883 -6.41049 0
M  V30 1140 H 104.612 0.291569 -5.99091 0
M  V30 1141 H 106.291 -0.0606218 -6.46972 0
M  V30 1142 N 106.423 1.57458 -0.0668435 0
M  V30 1143 C 107.333 2.15937 0.916975 0
M  V30 1144 C 108.349 1.12123 1.33058 0
M  V30 1145 O 109.525 1.44366 1.40429 0
M  V30 1146 C 106.59 2.70547 2.16807 0
M  V30 1147 C 105.651 3.89215 1.81135 0
M  V30 1148 C 104.884 4.41211 3.0028 0
M  V30 1149 O 105.107 3.92225 4.14144 0
M  V30 1150 O 104.041 5.32605 2.80384 0
M  V30 1151 H 107.867 3.00354 0.449561 0
M  V30 1152 H 105.452 1.48584 0.155949 0
M  V30 1153 H 107.334 3.0557 2.90181 0
M  V30 1154 H 106.009 1.89192 2.62656 0
M  V30 1155 H 104.916 3.59054 1.05028 0
M  V30 1156 H 106.249 4.71848 1.40073 0
M  V30 1157 N 107.901 -0.206675 1.56239 0
M  V30 1158 C 108.864 -1.23976 1.92776 0
M  V30 1159 C 109.864 -1.39041 0.807729 0
M  V30 1160 O 111.054 -1.37051 1.0753 0
M  V30 1161 C 108.186 -2.61112 2.19165 0
M  V30 1162 H 109.379 -0.927764 2.85189 0
M  V30 1163 H 106.932 -0.447718 1.4975 0
M  V30 1164 H 107.667 -2.97386 1.29352 0
M  V30 1165 H 107.452 -2.51552 3.00772 0
M  V30 1166 H 108.942 -3.35633 2.48476 0
M  V30 1167 N 109.379 -1.50304 -0.473955 0
M  V30 1168 C 110.327 -1.69482 -1.59307 0
M  V30 1169 C 111.321 -0.560669 -1.59853 0
M  V30 1170 O 112.527 -0.741087 -1.64036 0
M  V30 1171 H 108.902 -0.534892 -0.528578 0
M  V30 1172 H 110.873 -2.63364 -1.40293 0
M  V30 1173 C 109.622 -1.80354 -2.97267 0
M  V30 1174 H 108.945 -2.67012 -2.97564 0
M  V30 1175 H 110.385 -1.97798 -3.75036 0
M  V30 1176 C 108.844 -0.55448 -3.32306 0
M  V30 1177 O 109.374 0.307661 -4.0052 0
M  V30 1178 N 107.58 -0.409354 -2.87702 0
M  V30 1179 H 107.127 -1.11196 -2.32364 0
M  V30 1180 H 107.085 0.425223 -3.11511 0
M  V30 1181 N 110.857 0.726932 -1.39834 0
M  V30 1182 C 112.106 1.48214 -1.36805 0
M  V30 1183 C 112.419 1.95576 0.0305291 0
M  V30 1184 O 113.625 2.7088 0.183417 0
M  V30 1185 C 112.081 2.67854 -2.40379 0
M  V30 1186 C 111.689 2.27408 -3.85992 0
M  V30 1187 C 113.433 3.45641 -2.46439 0
M  V30 1188 C 111.34 3.43819 -4.81189 0
M  V30 1189 H 110.27 0.556606 -0.508631 0
M  V30 1190 H 112.921 0.792216 -1.65518 0
M  V30 1191 H 111.303 3.3896 -2.04749 0
M  V30 1192 H 112.477 1.63795 -4.30706 0
M  V30 1193 H 110.792 1.62692 -3.83302 0
M  V30 1194 H 113.389 4.32244 -3.14753 0
M  V30 1195 H 113.732 3.88669 -1.49139 0
M  V30 1196 H 114.265 2.8157 -2.81004 0
M  V30 1197 H 111.004 3.05834 -5.79781 0
M  V30 1198 H 110.524 4.06385 -4.41148 0
M  V30 1199 H 112.203 4.10043 -5.00474 0
M  V30 1200 N 112.336 1.25143 0.95797 0
M  V30 1201 C 113.283 1.05235 2.05412 0
M  V30 1202 C 114.253 -0.0374561 1.66058 0
M  V30 1203 O 115.438 0.119073 1.90428 0
M  V30 1204 C 112.578 0.673589 3.38462 0
M  V30 1205 C 111.691 1.8379 3.90954 0
M  V30 1206 C 110.826 1.40381 5.12315 0
M  V30 1207 C 109.865 2.53746 5.57027 0
M  V30 1208 N 109.002 2.11136 6.69601 0
M  V30 1209 H 113.842 1.99048 2.21774 0
M  V30 1210 H 111.379 0.991277 1.08683 0
M  V30 1211 H 113.337 0.434964 4.14926 0
M  V30 1212 H 111.967 -0.227554 3.21997 0
M  V30 1213 H 111.019 2.18992 3.11041 0
M  V30 1214 H 112.331 2.68937 4.20089 0
M  V30 1215 H 111.485 1.12464 5.96185 0
M  V30 1216 H 110.224 0.523015 4.84887 0
M  V30 1217 H 109.229 2.82412 4.71724 0
M  V30 1218 H 110.454 3.42398 5.86464 0
M  V30 1219 H 108.4 1.25468 6.4389 0
M  V30 1220 H 108.317 2.89832 6.98236 0
M  V30 1221 H 109.585 1.86385 7.56889 0
M  V30 1222 N 113.814 -1.1601 1.06675 0
M  V30 1223 C 114.762 -2.22586 0.675157 0
M  V30 1224 C 115.756 -1.66525 -0.310766 0
M  V30 1225 O 116.962 -1.79145 -0.175215 0
M  V30 1226 H 113.337 -0.724855 0.200223 0
M  V30 1227 H 115.308 -2.52899 1.58381 0
M  V30 1228 C 114.057 -3.47604 0.0817162 0
M  V30 1229 H 113.38 -3.91058 0.831484 0
M  V30 1230 H 114.82 -4.23718 -0.154708 0
M  V30 1231 C 113.279 -3.15718 -1.17576 0
M  V30 1232 O 113.809 -3.31878 -2.26318 0
M  V30 1233 N 112.015 -2.69816 -1.07923 0
M  V30 1234 H 111.562 -2.56866 -0.194293 0
M  V30 1235 H 111.52 -2.48855 -1.92141 0
M  V30 1236 N 115.292 -0.849877 -1.32721 0
M  V30 1237 C 116.538 -0.451591 -1.97708 0
M  V30 1238 C 116.871 0.989175 -1.6712 0
M  V30 1239 O 116.146 1.69334 -0.956891 0
M  V30 1240 C 116.429 -0.685598 -3.53513 0
M  V30 1241 C 116.282 -2.17444 -3.93749 0
M  V30 1242 C 117.601 -0.138874 -4.39881 0
M  V30 1243 H 114.72 -0.16555 -0.718166 0
M  V30 1244 H 117.362 -1.06742 -1.57182 0
M  V30 1245 H 115.512 -0.161416 -3.88165 0
M  V30 1246 H 117.184 -2.76433 -3.693 0
M  V30 1247 H 115.427 -2.65476 -3.43081 0
M  V30 1248 H 116.098 -2.28888 -5.02309 0
M  V30 1249 H 118.574 -0.587068 -4.11938 0
M  V30 1250 H 117.45 -0.332213 -5.47894 0
M  V30 1251 H 117.711 0.95806 -4.31594 0
M  V30 1252 N 116.77 1.45427 -0.607355 0
M  V30 1253 C 118.047 1.9557 -0.0344566 0
M  V30 1254 C 118.427 1.54979 1.43334 0
M  V30 1255 O 117.775 0.812241 2.13576 0
M  V30 1256 C 117.985 3.48226 -0.232321 0
M  V30 1257 C 119.333 4.2445 -0.113001 0
M  V30 1258 O 120.357 3.55829 -0.162431 0
M  V30 1259 O 119.216 5.465 0.00209442 0
M  V30 1260 H 116.31 0.826222 0.0358667 0
M  V30 1261 H 118.856 1.55594 -0.6774 0
M  V30 1262 H 117.628 3.70739 -1.25174 0
M  V30 1263 H 117.251 3.95092 0.445896 0
M  V30 1264 N 118.248 0.346503 1.53744 0
M  V30 1265 C 119.496 -0.248612 2.00565 0
M  V30 1266 C 119.817 -1.5083 1.23593 0
M  V30 1267 O 119.087 -1.92858 0.343912 0
M  V30 1268 H 117.667 -0.0948564 0.740953 0
M  V30 1269 H 120.329 0.468341 1.89189 0
M  V30 1270 H 119.425 -0.488994 3.08245 0
M  V30 1271 N 119.726 -1.57421 0.075193 0
M  V30 1272 C 120.636 -2.1642 -0.905511 0
M  V30 1273 C 121.652 -1.12828 -1.32461 0
M  V30 1274 O 122.828 -1.45109 -1.39661 0
M  V30 1275 C 119.893 -2.71693 -2.15369 0
M  V30 1276 C 118.954 -3.90171 -1.79068 0
M  V30 1277 C 118.187 -4.42798 -2.97936 0
M  V30 1278 O 118.41 -3.94416 -4.12058 0
M  V30 1279 O 117.344 -5.34085 -2.77555 0
M  V30 1280 H 121.17 -3.00588 -0.433626 0
M  V30 1281 H 118.755 -1.48664 -0.148067 0
M  V30 1282 H 120.637 -3.07104 -2.88557 0
M  V30 1283 H 119.312 -1.90582 -2.61649 0
M  V30 1284 H 118.219 -3.59606 -1.03122 0
M  V30 1285 H 119.552 -4.72584 -1.37569 0
M  V30 1286 N 121.204 0.198386 -1.56346 0
M  V30 1287 C 122.453 0.917451 -1.79627 0
M  V30 1288 C 122.766 1.8456 -0.64784 0
M  V30 1289 O 123.972 2.60504 -0.764859 0
M  V30 1290 C 122.428 1.68175 -3.18191 0
M  V30 1291 C 122.036 0.798589 -4.40825 0
M  V30 1292 C 123.78 2.39065 -3.50782 0
M  V30 1293 C 121.687 1.56157 -5.70411 0
M  V30 1294 H 120.617 0.346317 -0.669762 0
M  V30 1295 H 123.268 0.170801 -1.82703 0
M  V30 1296 H 121.65 2.47216 -3.09354 0
M  V30 1297 H 122.824 0.0470665 -4.60776 0
M  V30 1298 H 121.139 0.200686 -4.15916 0
M  V30 1299 H 123.736 2.96692 -4.44835 0
M  V30 1300 H 124.079 3.13091 -2.74371 0
M  V30 1301 H 124.612 1.66993 -3.61052 0
M  V30 1302 H 121.351 0.864142 -6.49779 0
M  V30 1303 H 120.871 2.2871 -5.54483 0
M  V30 1304 H 122.55 2.11622 -6.11412 0
M  V30 1305 N 122.682 1.50554 0.465978 0
M  V30 1306 C 123.959 1.5232 1.22712 0
M  V30 1307 C 124.339 0.270807 2.09356 0
M  V30 1308 O 123.687 -0.745541 2.15995 0
M  V30 1309 C 123.897 2.82175 2.05374 0
M  V30 1310 C 125.245 3.33033 2.6339 0
M  V30 1311 O 126.269 2.83531 2.15612 0
M  V30 1312 O 125.128 4.19336 3.50456 0
M  V30 1313 H 122.222 0.611183 0.557122 0
M  V30 1314 H 124.768 1.62847 0.477381 0
M  V30 1315 H 123.54 3.64797 1.41558 0
M  V30 1316 H 123.163 2.74675 2.87471 0
M  V30 1317 N 124.16 -0.719506 1.40217 0
M  V30 1318 C 125.4 -1.49181 1.39729 0
M  V30 1319 C 125.764 -1.92 -0.00250614 0
M  V30 1320 O 126.965 -2.68473 -0.132479 0
M  V30 1321 C 125.236 -2.68767 2.35582 0
M  V30 1322 S 126.795 -3.58224 2.53418 0
M  V30 1323 H 123.613 -0.510091 0.495307 0
M  V30 1324 H 126.215 -0.841724 1.76452 0
M  V30 1325 H 124.919 -2.35475 3.36124 0
M  V30 1326 H 124.45 -3.38691 2.0013 0
M  V30 1327 H 126.465 -4.63033 1.78367 0
M  V30 1328 N 125.638 -1.25649 -0.95132 0
M  V30 1329 C 126.863 -1.13443 -1.73624 0
M  V30 1330 C 127.288 0.307565 -1.85568 0
M  V30 1331 O 126.646 1.22282 -1.33854 0
M  V30 1332 C 126.694 -1.79723 -3.12621 0
M  V30 1333 O 125.798 -1.07912 -3.98031 0
M  V30 1334 H 125.139 -0.395872 -0.533086 0
M  V30 1335 H 127.669 -1.66276 -1.1922 0
M  V30 1336 H 127.679 -1.86141 -3.63064 0
M  V30 1337 H 126.354 -2.84633 -3.03244 0
M  V30 1338 H 124.931 -1.09398 -3.56492 0
M  V30 1339 N 127.117 1.15442 -1.07289 0
M  V30 1340 C 128.365 1.85845 -0.794096 0
M  V30 1341 C 128.686 1.82692 0.681809 0
M  V30 1342 O 127.956 1.26741 1.49377 0
M  V30 1343 H 126.536 0.688089 -0.290763 0
M  V30 1344 H 129.198 1.39947 -1.3565 0
M  V30 1345 H 128.294 2.91001 -1.12804 0
M  V30 1346 N 128.595 0.856903 1.32268 0
M  V30 1347 C 129.542 0.301172 2.28827 0
M  V30 1348 C 130.512 -0.593104 1.5515 0
M  V30 1349 O 131.697 -0.527537 1.83362 0
M  V30 1350 C 128.837 -0.502523 3.41422 0
M  V30 1351 C 127.95 0.417797 4.29975 0
M  V30 1352 C 127.085 -0.398749 5.29701 0
M  V30 1353 C 126.124 0.518827 6.09897 0
M  V30 1354 N 125.261 -0.260674 7.01616 0
M  V30 1355 H 130.101 1.12983 2.75751 0
M  V30 1356 H 127.638 0.568582 1.35667 0
M  V30 1357 H 129.596 -0.984141 4.05426 0
M  V30 1358 H 128.226 -1.29599 2.95642 0
M  V30 1359 H 127.278 1.01781 3.66531 0
M  V30 1360 H 128.59 1.12191 4.86019 0
M  V30 1361 H 127.744 -0.943435 5.9932 0
M  V30 1362 H 126.483 -1.13622 4.7428 0
M  V30 1363 H 125.488 1.07538 5.39181 0
M  V30 1364 H 126.713 1.25495 6.67404 0
M  V30 1365 H 124.659 -0.981198 6.4862 0
M  V30 1366 H 124.576 0.384364 7.55022 0
M  V30 1367 H 125.844 -0.787014 7.75517 0
M  V30 1368 N 130.073 -1.45103 0.615059 0
M  V30 1369 C 131.006 -2.27717 -0.148408 0
M  V30 1370 C 131.984 -1.37584 -0.866572 0
M  V30 1371 O 133.168 -1.67017 -0.87393 0
M  V30 1372 C 130.295 -3.16136 -1.21557 0
M  V30 1373 C 129.341 -4.22263 -0.599712 0
M  V30 1374 S 130.174 -5.3215 0.598081 0
M  V30 1375 C 131.33 -6.24137 -0.469484 0
M  V30 1376 H 131.563 -2.92121 0.552483 0
M  V30 1377 H 129.096 -1.49054 0.402778 0
M  V30 1378 H 131.054 -3.67633 -1.82638 0
M  V30 1379 H 129.715 -2.50982 -1.88857 0
M  V30 1380 H 128.908 -4.84081 -1.4029 0
M  V30 1381 H 128.51 -3.73945 -0.063876 0
M  V30 1382 H 130.802 -6.63984 -1.34652 0
M  V30 1383 H 131.745 -7.0801 0.112725 0
M  V30 1384 H 132.153 -5.58971 -0.788168 0
M  V30 1385 N 131.551 -0.354651 -1.53558 0
M  V30 1386 C 132.798 0.238443 -2.01091 0
M  V30 1387 C 133.126 1.49663 -1.24222 0
M  V30 1388 O 132.381 1.93049 -0.321003 0
M  V30 1389 C 132.68 0.587121 -3.52545 0
M  V30 1390 C 132.346 -0.575472 -4.47213 0
M  V30 1391 C 131.008 -0.894497 -4.72813 0
M  V30 1392 C 133.36 -1.35489 -5.03281 0
M  V30 1393 C 130.688 -1.99511 -5.51736 0
M  V30 1394 C 133.04 -2.44583 -5.83405 0
M  V30 1395 C 131.704 -2.77033 -6.07296 0
M  V30 1396 H 130.974 0.0872526 -0.735845 0
M  V30 1397 H 133.621 -0.484859 -1.8526 0
M  V30 1398 H 131.926 1.39129 -3.66265 0
M  V30 1399 H 133.623 1.05809 -3.86789 0
M  V30 1400 H 130.213 -0.316774 -4.27428 0
M  V30 1401 H 134.397 -1.12167 -4.83459 0
M  V30 1402 H 129.653 -2.25063 -5.68469 0
M  V30 1403 H 133.827 -3.05401 -6.25862 0
M  V30 1404 H 131.454 -3.6244 -6.68237 0
M  V30 1405 N 133.029 1.57378 -0.0835403 0
M  V30 1406 C 134.306 1.85363 0.624507 0
M  V30 1407 C 134.686 0.978239 1.87066 0
M  V30 1408 O 134.034 0.0475908 2.2845 0
M  V30 1409 C 134.244 3.35795 0.950947 0
M  V30 1410 C 135.592 4.03581 1.31939 0
M  V30 1411 O 136.616 3.40609 1.04232 0
M  V30 1412 O 135.475 5.14672 1.83779 0
M  V30 1413 H 132.569 0.766162 0.311329 0
M  V30 1414 H 135.115 1.69307 -0.115362 0
M  V30 1415 H 133.887 3.91244 0.0663899 0
M  V30 1416 H 133.51 3.57154 1.74719 0
M  V30 1417 N 134.507 -0.190092 1.56449 0
M  V30 1418 C 135.732 -0.929864 1.85387 0
M  V30 1419 C 136.157 -1.7585 0.667704 0
M  V30 1420 O 135.515 -1.77198 -0.383459 0
M  V30 1421 C 135.563 -1.79773 3.12593 0
M  V30 1422 O 134.667 -2.89713 2.93496 0
M  V30 1423 H 134.008 -0.261574 0.610307 0
M  V30 1424 H 136.538 -0.193896 2.03679 0
M  V30 1425 H 136.548 -2.20139 3.43515 0
M  V30 1426 H 135.223 -1.18892 3.98544 0
M  V30 1427 H 133.8 -2.53065 2.73884 0
M  V30 1428 N 135.985 -1.50799 -0.457987 0
M  V30 1429 C 136.915 -1.73553 -1.5621 0
M  V30 1430 C 137.896 -0.584774 -1.59732 0
M  V30 1431 O 139.081 -0.825314 -1.7579 0
M  V30 1432 C 136.211 -1.84169 -2.94447 0
M  V30 1433 C 135.165 -2.99461 -3.0579 0
M  V30 1434 C 134.491 -2.95235 -4.45803 0
M  V30 1435 C 135.791 -4.39766 -2.81786 0
M  V30 1436 H 137.485 -2.66 -1.37421 0
M  V30 1437 H 135.031 -1.28002 -0.659662 0
M  V30 1438 H 136.984 -1.98672 -3.71628 0
M  V30 1439 H 135.708 -0.883545 -3.14422 0
M  V30 1440 H 134.367 -2.8463 -2.31044 0
M  V30 1441 H 134.015 -1.97239 -4.62715 0
M  V30 1442 H 133.715 -3.72642 -4.54326 0
M  V30 1443 H 135.239 -3.11803 -5.24987 0
M  V30 1444 H 136.653 -4.55054 -3.4871 0
M  V30 1445 H 135.05 -5.18722 -3.0174 0
M  V30 1446 H 136.12 -4.51229 -1.7754 0
M  V30 1447 N 137.463 0.71206 -1.40597 0
M  V30 1448 C 138.74 1.46536 -1.29563 0
M  V30 1449 C 139.12 2.10931 0.0844217 0
M  V30 1450 O 138.468 2.00418 1.0975 0
M  V30 1451 C 138.678 2.49821 -2.43701 0
M  V30 1452 C 140.026 3.15551 -2.841 0
M  V30 1453 O 141.05 2.60142 -2.4332 0
M  V30 1454 O 139.909 4.15867 -3.54566 0
M  V30 1455 H 137.003 0.651801 -0.509004 0
M  V30 1456 H 139.549 0.743935 -1.52524 0
M  V30 1457 H 138.321 2.00778 -3.35863 0
M  V30 1458 H 137.944 3.29495 -2.22528 0
M  V30 1459 N 138.941 1.26152 0.944643 0
M  V30 1460 C 139.871 1.09902 2.06019 0
M  V30 1461 C 140.852 0.00519538 1.70099 0
M  V30 1462 O 142.037 0.176583 1.93396 0
M  V30 1463 C 139.167 0.727562 3.39594 0
M  V30 1464 C 138.121 1.77274 3.89561 0
M  V30 1465 C 137.447 1.25569 5.19747 0
M  V30 1466 C 138.747 3.17357 4.14827 0
M  V30 1467 H 140.441 2.03217 2.19871 0
M  V30 1468 H 137.987 0.978452 1.05652 0
M  V30 1469 H 139.94 0.600777 4.17095 0
M  V30 1470 H 138.664 -0.241287 3.25707 0
M  V30 1471 H 137.323 1.88814 3.14237 0
M  V30 1472 H 136.971 0.276783 5.02238 0
M  V30 1473 H 136.671 1.95433 5.54148 0
M  V30 1474 H 138.195 1.1415 5.99835 0
M  V30 1475 H 139.609 3.08914 4.82954 0
M  V30 1476 H 138.006 3.84781 4.60504 0
M  V30 1477 H 139.076 3.63673 3.20734 0
M  V30 1478 N 140.419 -1.14872 1.07899 0
M  V30 1479 C 141.668 -1.85135 0.800499 0
M  V30 1480 C 141.981 -1.83547 -0.676014 0
M  V30 1481 O 143.187 -2.49548 -1.06948 0
M  V30 1482 C 141.643 -3.3231 1.38197 0
M  V30 1483 C 141.251 -3.42329 2.8899 0
M  V30 1484 C 142.995 -4.0772 1.18174 0
M  V30 1485 C 140.902 -4.83684 3.403 0
M  V30 1486 H 139.832 -0.693563 0.29578 0
M  V30 1487 H 142.483 -1.29532 1.29976 0
M  V30 1488 H 140.865 -3.87618 0.810431 0
M  V30 1489 H 142.039 -2.97097 3.52236 0
M  V30 1490 H 140.354 -2.80369 3.07867 0
M  V30 1491 H 142.951 -5.12049 1.5398 0
M  V30 1492 H 143.294 -4.16124 0.12117 0
M  V30 1493 H 143.827 -3.58696 1.71994 0
M  V30 1494 H 140.566 -4.80465 4.45907 0
M  V30 1495 H 140.086 -5.29474 2.81811 0
M  V30 1496 H 141.765 -5.52558 3.36584 0
M  V30 1497 N 141.898 -0.863906 -1.31812 0
M  V30 1498 C 143.147 -0.46801 -1.96195 0
M  V30 1499 C 143.46 0.983474 -1.69077 0
M  V30 1500 O 144.666 1.48523 -2.27273 0
M  V30 1501 C 143.122 -0.785995 -3.51212 0
M  V30 1502 C 142.73 -2.25383 -3.87178 0
M  V30 1503 C 144.474 -0.458274 -4.22019 0
M  V30 1504 C 142.381 -2.51455 -5.3528 0
M  V30 1505 H 141.311 -0.171283 -0.734287 0
M  V30 1506 H 143.962 -1.05597 -1.50072 0
M  V30 1507 H 142.344 -0.127359 -3.95795 0
M  V30 1508 H 143.518 -2.95502 -3.53575 0
M  V30 1509 H 141.833 -2.54698 -3.2942 0
M  V30 1510 H 144.43 -0.630369 -5.30971 0
M  V30 1511 H 144.773 0.600834 -4.11941 0
M  V30 1512 H 145.306 -1.07319 -3.8305 0
M  V30 1513 H 142.045 -3.56025 -5.50387 0
M  V30 1514 H 141.565 -1.85923 -5.70257 0
M  V30 1515 H 143.244 -2.35874 -6.02472 0
M  V30 1516 N 143.376 1.44774 -0.622745 0
M  V30 1517 C 144.339 2.29069 0.0774015 0
M  V30 1518 C 145.339 1.4059 0.780461 0
M  V30 1519 O 146.529 1.62551 0.626322 0
M  V30 1520 C 143.661 3.21974 1.12006 0
M  V30 1521 H 144.854 2.92459 -0.663901 0
M  V30 1522 H 142.407 1.51548 -0.382486 0
M  V30 1523 H 143.142 2.63417 1.89162 0
M  V30 1524 H 142.927 3.87168 0.619951 0
M  V30 1525 H 144.417 3.85318 1.60995 0
M  V30 1526 N 144.854 0.36279 1.53368 0
M  V30 1527 C 146.102 -0.227326 2.00817 0
M  V30 1528 C 146.423 -1.49511 1.25186 0
M  V30 1529 O 145.693 -1.92482 0.364348 0
M  V30 1530 H 144.273 -0.0869923 0.741917 0
M  V30 1531 H 146.935 0.488381 1.88682 0
M  V30 1532 H 146.031 -0.456273 3.08747 0
M  V30 1533 N 146.332 -1.57332 0.0918853 0
M  V30 1534 C 147.579 -1.94236 -0.572577 0
M  V30 1535 C 147.907 -0.973398 -1.6839 0
M  V30 1536 O 147.162 0.00756912 -1.95699 0
M  V30 1537 C 147.461 -3.37689 -1.17051 0
M  V30 1538 C 147.127 -4.50527 -0.183304 0
M  V30 1539 C 145.789 -4.81119 0.0882276 0
M  V30 1540 C 148.141 -5.18883 0.49095 0
M  V30 1541 C 145.469 -5.77395 1.04076 0
M  V30 1542 C 147.821 -6.1618 1.43193 0
M  V30 1543 C 146.485 -6.45179 1.71173 0
M  V30 1544 H 145.755 -0.710762 -0.209521 0
M  V30 1545 H 148.402 -1.9077 0.167036 0
M  V30 1546 H 146.707 -3.37718 -1.9863 0
M  V30 1547 H 148.404 -3.63543 -1.69227 0
M  V30 1548 H 144.994 -4.26681 -0.405124 0
M  V30 1549 H 149.178 -4.95427 0.294312 0
M  V30 1550 H 144.434 -5.98179 1.26457 0
M  V30 1551 H 148.608 -6.68243 1.96023 0
M  V30 1552 H 146.235 -7.1959 2.4514 0
M  V30 1553 N 147.81 0.181792 -1.56548 0
M  V30 1554 C 148.76 1.22961 -1.92002 0
M  V30 1555 C 149.744 1.40331 -0.787146 0
M  V30 1556 O 150.936 1.42478 -1.05019 0
M  V30 1557 C 148.065 2.57144 -2.27446 0
M  V30 1558 C 147.151 2.43512 -3.47222 0
M  V30 1559 N 147.542 1.99577 -4.64761 0
M  V30 1560 C 145.84 2.74368 -3.51622 0
M  V30 1561 C 146.541 1.98156 -5.46909 0
M  V30 1562 N 145.517 2.40164 -4.8767 0
M  V30 1563 H 149.319 0.881462 -2.8037 0
M  V30 1564 H 146.833 0.390141 -1.57644 0
M  V30 1565 H 148.83 3.32847 -2.51035 0
M  V30 1566 H 147.49 2.92771 -1.40411 0
M  V30 1567 H 148.501 1.70078 -4.89177 0
M  V30 1568 H 145.178 3.14102 -2.75038 0
M  V30 1569 H 146.568 1.65975 -6.51077 0
M  V30 1570 N 149.288 1.51039 0.449983 0
M  V30 1571 C 150.198 1.74261 1.57067 0
M  V30 1572 C 151.214 0.626363 1.62335 0
M  V30 1573 O 152.39 0.907162 1.79812 0
M  V30 1574 C 149.455 1.85114 2.93144 0
M  V30 1575 C 148.516 3.0893 2.98095 0
M  V30 1576 C 147.749 3.19256 4.27681 0
M  V30 1577 O 147.972 2.35835 5.19363 0
M  V30 1578 O 146.906 4.12144 4.38658 0
M  V30 1579 H 150.732 2.69303 1.40391 0
M  V30 1580 H 148.317 1.35389 0.631688 0
M  V30 1581 H 150.199 1.94311 3.73926 0
M  V30 1582 H 148.874 0.932588 3.09975 0
M  V30 1583 H 147.781 3.0522 2.16314 0
M  V30 1584 H 149.114 4.00433 2.86206 0
M  V30 1585 N 150.766 -0.704594 1.40972 0
M  V30 1586 C 152.177 -1.28418 1.3552 0
M  V30 1587 C 152.528 -1.96171 0.0339434 0
M  V30 1588 O 151.653 -1.98231 -0.867944 0
M  V30 1589 C 152.248 -2.33528 2.45459 0
M  V30 1590 C 150.807 -2.87085 2.43433 0
M  V30 1591 C 149.954 -1.61007 2.2577 0
M  V30 1592 H 152.905 -0.499963 1.50619 0
M  V30 1593 H 152.926 -3.14619 2.13998 0
M  V30 1594 H 152.438 -1.84187 3.41609 0
M  V30 1595 H 150.539 -3.40626 1.51013 0
M  V30 1596 H 150.652 -3.3813 3.39419 0
M  V30 1597 H 149.016 -1.86482 1.73483 0
M  V30 1598 H 149.799 -1.13675 3.23933 0
M  V30 1599 N 152.244 -1.26651 -0.937939 0
M  V30 1600 C 153.49 -1.12553 -1.687 0
M  V30 1601 C 153.823 0.329782 -1.91379 0
M  V30 1602 O 153.098 1.24202 -1.4968 0
M  V30 1603 C 153.381 -1.89862 -3.05981 0
M  V30 1604 C 153.234 -3.43318 -2.90607 0
M  V30 1605 C 154.553 -1.69499 -4.0615 0
M  V30 1606 H 151.672 -0.410257 -0.612257 0
M  V30 1607 H 154.314 -1.55685 -1.08913 0
M  V30 1608 H 152.464 -1.53204 -3.57017 0
M  V30 1609 H 154.136 -3.89747 -2.46769 0
M  V30 1610 H 152.379 -3.70179 -2.26164 0
M  V30 1611 H 153.05 -3.92642 -3.8799 0
M  V30 1612 H 155.526 -2.01442 -3.64088 0
M  V30 1613 H 154.402 -2.26002 -5.00214 0
M  V30 1614 H 154.663 -0.640365 -4.37438 0
M  V30 1615 N 153.722 1.14298 -1.08507 0
M  V30 1616 C 154.969 1.85359 -0.815373 0
M  V30 1617 C 155.297 1.83001 0.658865 0
M  V30 1618 O 154.552 1.25655 1.50031 0
M  V30 1619 C 154.851 3.33547 -1.28379 0
M  V30 1620 C 154.517 3.56093 -2.76602 0
M  V30 1621 C 153.179 3.61955 -3.17084 0
M  V30 1622 C 155.531 3.64834 -3.72217 0
M  V30 1623 C 152.859 3.74082 -4.51973 0
M  V30 1624 C 155.211 3.78487 -5.06883 0
M  V30 1625 C 153.875 3.82598 -5.46969 0
M  V30 1626 H 153.145 0.678276 -0.298366 0
M  V30 1627 H 155.792 1.35002 -1.35819 0
M  V30 1628 H 154.097 3.86191 -0.660593 0
M  V30 1629 H 155.794 3.86959 -1.05186 0
M  V30 1630 H 152.384 3.52179 -2.4427 0
M  V30 1631 H 156.568 3.59595 -3.42061 0
M  V30 1632 H 151.824 3.75527 -4.82483 0
M  V30 1633 H 155.998 3.84193 -5.80834 0
M  V30 1634 H 153.625 3.91747 -6.51489 0
M  V30 1635 N 155.201 0.870884 1.31352 0
M  V30 1636 C 156.164 0.332243 2.26779 0
M  V30 1637 C 157.164 -0.517302 1.52252 0
M  V30 1638 O 158.354 -0.326477 1.71113 0
M  V30 1639 C 155.486 -0.528066 3.36785 0
M  V30 1640 H 156.679 1.17469 2.75937 0
M  V30 1641 H 154.232 0.64655 1.423 0
M  V30 1642 H 154.967 -1.39167 2.92922 0
M  V30 1643 H 154.752 0.0802582 3.92018 0
M  V30 1644 H 156.242 -0.897179 4.07849 0
M  V30 1645 N 156.679 -1.44442 0.630414 0
M  V30 1646 C 158.09 -1.85434 0.217063 0
M  V30 1647 C 158.441 -1.52748 -1.23136 0
M  V30 1648 O 157.566 -0.965205 -1.93682 0
M  V30 1649 C 158.161 -3.36581 0.387168 0
M  V30 1650 C 156.72 -3.76389 0.0283297 0
M  V30 1651 C 155.867 -2.68296 0.700889 0
M  V30 1652 H 158.818 -1.34919 0.83562 0
M  V30 1653 H 158.839 -3.78657 -0.374086 0
M  V30 1654 H 158.351 -3.60339 1.44144 0
M  V30 1655 H 156.452 -3.58246 -1.02423 0
M  V30 1656 H 156.565 -4.77095 0.437892 0
M  V30 1657 H 154.929 -2.54335 0.136267 0
M  V30 1658 H 155.712 -2.94887 1.75774 0
M  V30 1659 N 158.157 -0.370918 -1.53173 0
M  V30 1660 C 159.107 0.489588 -2.22681 0
M  V30 1661 C 160.091 1.04442 -1.22395 0
M  V30 1662 O 161.283 0.973578 -1.47819 0
M  V30 1663 C 158.412 1.626 -3.02351 0
M  V30 1664 C 157.498 1.08379 -4.10018 0
M  V30 1665 N 157.889 0.265004 -5.05105 0
M  V30 1666 C 156.187 1.35809 -4.2482 0
M  V30 1667 C 156.888 -0.0324755 -5.81691 0
M  V30 1668 N 155.864 0.566581 -5.40639 0
M  V30 1669 H 159.666 -0.142729 -2.93553 0
M  V30 1670 H 157.18 -0.179221 -1.61408 0
M  V30 1671 H 159.177 2.2547 -3.50669 0
M  V30 1672 H 157.837 2.26132 -2.33011 0
M  V30 1673 H 158.848 -0.0962352 -5.17811 0
M  V30 1674 H 155.525 1.9958 -3.66707 0
M  V30 1675 H 156.915 -0.69473 -6.68299 0
M  V30 1676 N 159.635 1.57281 -0.100228 0
M  V30 1677 C 160.912 1.86014 0.604812 0
M  V30 1678 C 161.292 0.998025 1.86018 0
M  V30 1679 O 160.64 0.0718184 2.28387 0
M  V30 1680 C 160.85 3.36784 0.915278 0
M  V30 1681 C 162.198 4.04957 1.27651 0
M  V30 1682 O 163.222 3.41695 1.00613 0
M  V30 1683 O 162.081 5.16593 1.7831 0
M  V30 1684 H 159.175 0.76942 0.303185 0
M  V30 1685 H 161.721 1.69176 -0.133313 0
M  V30 1686 H 160.493 3.91292 0.0248896 0
M  V30 1687 H 160.116 3.58987 1.70921 0
M  V30 1688 N 161.113 -0.173488 1.56642 0
M  V30 1689 C 162.06 -1.21482 1.96242 0
M  V30 1690 C 163.03 -1.44104 0.826027 0
M  V30 1691 O 164.215 -1.5688 1.08597 0
M  V30 1692 C 161.355 -2.54964 2.32567 0
M  V30 1693 C 160.468 -2.39739 3.59373 0
M  V30 1694 C 159.603 -3.66072 3.84921 0
M  V30 1695 C 158.642 -3.45771 5.05083 0
M  V30 1696 N 157.779 -4.64169 5.26775 0
M  V30 1697 H 162.619 -0.870123 2.85014 0
M  V30 1698 H 160.156 -0.418245 1.41029 0
M  V30 1699 H 162.114 -3.32758 2.5165 0
M  V30 1700 H 160.744 -2.87433 1.46908 0
M  V30 1701 H 159.796 -1.53131 3.48217 0
M  V30 1702 H 161.108 -2.20683 4.47326 0
M  V30 1703 H 160.262 -4.52303 4.0436 0
M  V30 1704 H 159.001 -3.88105 2.9534 0
M  V30 1705 H 158.006 -2.57927 4.85545 0
M  V30 1706 H 159.231 -3.25163 5.96193 0
M  V30 1707 H 157.177 -4.86425 4.40144 0
M  V30 1708 H 157.094 -4.48019 6.08946 0
M  V30 1709 H 158.362 -5.51689 5.5069 0
M  V30 1710 N 162.591 -1.51276 -0.441967 0
M  V30 1711 C 163.554 -1.7167 -1.51862 0
M  V30 1712 C 164.554 -0.586793 -1.49711 0
M  V30 1713 O 165.744 -0.854276 -1.51815 0
M  V30 1714 C 162.876 -1.76889 -2.91416 0
M  V30 1715 H 164.069 -2.67754 -1.35084 0
M  V30 1716 H 161.622 -1.41196 -0.670333 0
M  V30 1717 H 162.357 -0.826026 -3.13604 0
M  V30 1718 H 162.142 -2.59001 -2.94382 0
M  V30 1719 H 163.632 -1.94522 -3.69528 0
M  V30 1720 N 164.069 0.697108 -1.41344 0
M  V30 1721 C 165.297 1.48593 -1.43972 0
M  V30 1722 C 165.712 1.88747 -0.0445612 0
M  V30 1723 O 165.069 1.56682 0.935785 0
M  V30 1724 C 165.12 2.74946 -2.34706 0
M  V30 1725 O 164.841 2.36484 -3.68791 0
M  V30 1726 C 166.342 3.687 -2.46121 0
M  V30 1727 H 163.562 0.457964 -0.490418 0
M  V30 1728 H 166.106 0.858429 -1.8561 0
M  V30 1729 H 164.261 3.33937 -1.9638 0
M  V30 1730 H 164.675 3.17918 -4.17167 0
M  V30 1731 H 166.149 4.54145 -3.13777 0
M  V30 1732 H 166.626 4.13081 -1.49199 0
M  V30 1733 H 167.232 3.15613 -2.85076 0
M  V30 1734 N 165.547 1.27147 0.931209 0
M  V30 1735 C 166.495 1.09398 2.05268 0
M  V30 1736 C 167.489 0.0180591 1.6939 0
M  V30 1737 O 168.695 0.17551 1.79142 0
M  V30 1738 H 165.07 0.336986 0.672268 0
M  V30 1739 H 167.041 2.04416 2.17386 0
M  V30 1740 C 165.79 0.75424 3.39421 0
M  V30 1741 H 165.113 1.57404 3.67511 0
M  V30 1742 H 166.553 0.669903 4.18674 0
M  V30 1743 C 165.012 -0.541197 3.32525 0
M  V30 1744 O 165.542 -1.57664 3.69466 0
M  V30 1745 N 163.748 -0.535517 2.85623 0
M  V30 1746 H 163.295 0.307511 2.55758 0
M  V30 1747 H 163.253 -1.40236 2.81392 0
M  V30 1748 N 167.025 -1.13721 1.09112 0
M  V30 1749 C 168.253 -1.88773 0.846899 0
M  V30 1750 C 168.668 -1.7896 -0.601572 0
M  V30 1751 O 168.025 -1.15394 -1.41388 0
M  V30 1752 C 168.076 -3.3849 1.26913 0
M  V30 1753 O 167.797 -3.48043 2.66079 0
M  V30 1754 C 169.298 -4.30518 1.05682 0
M  V30 1755 H 166.518 -0.59772 0.304914 0
M  V30 1756 H 169.062 -1.43977 1.45227 0
M  V30 1757 H 167.217 -3.80881 0.707723 0
M  V30 1758 H 167.631 -4.4109 2.83795 0
M  V30 1759 H 169.105 -5.3391 1.40156 0
M  V30 1760 H 169.582 -4.392 -0.00563416 0
M  V30 1761 H 170.188 -3.93893 1.60402 0
M  V30 1762 N 168.503 -0.877838 -1.30888 0
M  V30 1763 C 169.435 -0.296607 -2.27273 0
M  V30 1764 C 170.448 0.544799 -1.53414 0
M  V30 1765 O 171.637 0.365511 -1.74718 0
M  V30 1766 C 168.737 0.597481 -3.33592 0
M  V30 1767 C 167.91 -0.213251 -4.3688 0
M  V30 1768 C 166.969 0.610208 -5.2265 0
M  V30 1769 O 165.995 0.035441 -5.69189 0
M  V30 1770 N 167.197 1.92071 -5.47804 0
M  V30 1771 H 169.962 -1.12492 -2.77787 0
M  V30 1772 H 167.523 -0.740105 -1.43993 0
M  V30 1773 H 169.515 1.15425 -3.87891 0
M  V30 1774 H 168.085 1.32647 -2.83061 0
M  V30 1775 H 167.305 -0.951466 -3.82545 0
M  V30 1776 H 168.593 -0.769262 -5.02951 0
M  V30 1777 H 167.991 2.4107 -5.11763 0
M  V30 1778 H 166.548 2.42508 -6.05007 0
M  V30 1779 N 169.982 1.44106 -0.638065 0
M  V30 1780 C 170.945 2.29138 0.0531013 0
M  V30 1781 C 171.945 1.41409 0.765506 0
M  V30 1782 O 173.135 1.63206 0.609046 0
M  V30 1783 C 170.267 3.23144 1.08584 0
M  V30 1784 H 171.46 2.91739 -0.694883 0
M  V30 1785 H 169.013 1.51134 -0.398538 0
M  V30 1786 H 169.748 2.65408 1.86357 0
M  V30 1787 H 169.533 3.87804 0.578852 0
M  V30 1788 H 171.023 3.87004 1.56899 0
M  V30 1789 N 171.46 0.379036 1.52974 0
M  V30 1790 C 172.393 -0.504932 2.22544 0
M  V30 1791 C 173.371 -1.0723 1.22231 0
M  V30 1792 O 174.555 -1.12589 1.51182 0
M  V30 1793 C 171.682 -1.69794 2.93066 0
M  V30 1794 C 170.728 -1.25678 4.07563 0
M  V30 1795 S 171.561 -0.246852 5.34931 0
M  V30 1796 C 172.717 -1.44588 6.08971 0
M  V30 1797 H 172.95 0.0858666 2.97176 0
M  V30 1798 H 170.483 0.163183 1.53535 0
M  V30 1799 H 172.441 -2.38219 3.34308 0
M  V30 1800 H 171.102 -2.26002 2.18133 0
M  V30 1801 H 170.295 -2.14725 4.5597 0
M  V30 1802 H 169.897 -0.651584 3.6828 0
M  V30 1803 H 172.189 -2.37469 6.34519 0
M  V30 1804 H 173.132 -1.00292 7.00962 0
M  V30 1805 H 173.54 -1.65804 5.39601 0
M  V30 1806 N 172.938 -1.57226 0.108567 0
M  V30 1807 C 174.187 -1.94008 -0.551703 0
M  V30 1808 C 174.5 -0.993442 -1.68494 0
M  V30 1809 O 175.706 -1.25551 -2.40726 0
M  V30 1810 C 174.162 -3.44763 -1.03279 0
M  V30 1811 C 173.77 -4.47943 0.0714193 0
M  V30 1812 C 175.514 -3.90483 -1.66503 0
M  V30 1813 C 173.421 -5.89865 -0.425779 0
M  V30 1814 H 172.351 -0.724206 -0.209863 0
M  V30 1815 H 175.002 -1.82547 0.186741 0
M  V30 1816 H 173.384 -3.51422 -1.82533 0
M  V30 1817 H 174.558 -4.52942 0.847365 0
M  V30 1818 H 172.873 -4.11913 0.609669 0
M  V30 1819 H 175.47 -4.93925 -2.04798 0
M  V30 1820 H 175.813 -3.29877 -2.53942 0
M  V30 1821 H 176.346 -3.86581 -0.938074 0
M  V30 1822 H 173.085 -6.54202 0.412316 0
M  V30 1823 H 172.605 -5.88309 -1.16843 0
M  V30 1824 H 174.284 -6.40844 -0.890397 0
M  V30 1825 N 174.416 0.165178 -1.56732 0
M  V30 1826 C 175.379 1.18822 -1.95995 0
M  V30 1827 C 176.379 1.3685 -0.84431 0
M  V30 1828 O 177.569 1.34152 -1.11126 0
M  V30 1829 C 174.701 2.5521 -2.26011 0
M  V30 1830 H 175.894 0.851825 -2.87548 0
M  V30 1831 H 173.447 0.407857 -1.50885 0
M  V30 1832 H 174.182 2.93852 -1.37191 0
M  V30 1833 H 173.967 2.43489 -3.07336 0
M  V30 1834 H 175.457 3.28927 -2.57288 0
M  V30 1835 N 175.894 1.51508 0.433938 0
M  V30 1836 C 177.122 1.68157 1.20543 0
M  V30 1837 C 177.537 0.380362 1.84929 0
M  V30 1838 O 176.894 -0.641446 1.70856 0
M  V30 1839 C 176.945 2.79965 2.28696 0
M  V30 1840 O 176.666 4.05045 1.66943 0
M  V30 1841 C 178.167 3.07912 3.18912 0
M  V30 1842 H 175.387 0.56421 0.363191 0
M  V30 1843 H 177.931 1.97941 0.513754 0
M  V30 1844 H 176.086 2.5277 2.93574 0
M  V30 1845 H 176.5 4.67165 2.38448 0
M  V30 1846 H 177.974 3.89719 3.90926 0
M  V30 1847 H 178.451 2.20456 3.79863 0
M  V30 1848 H 179.057 3.36779 2.59731 0
M  V30 1849 N 177.372 -0.689602 1.41712 0
M  V30 1850 C 178.621 -1.44534 1.40686 0
M  V30 1851 C 178.934 -1.95588 0.0213352 0
M  V30 1852 O 180.14 -2.71271 -0.111534 0
M  V30 1853 C 178.596 -2.61387 2.47396 0
M  V30 1854 C 178.204 -2.17094 3.91885 0
M  V30 1855 C 179.948 -3.38986 2.55517 0
M  V30 1856 C 177.855 -3.3094 4.90135 0
M  V30 1857 H 176.785 -0.542925 0.52321 0
M  V30 1858 H 179.436 -0.748054 1.6756 0
M  V30 1859 H 177.818 -3.33412 2.13664 0
M  V30 1860 H 178.992 -1.52318 4.34897 0
M  V30 1861 H 177.307 -1.52473 3.8748 0
M  V30 1862 H 179.904 -4.23747 3.26102 0
M  V30 1863 H 180.247 -3.84578 1.59391 0
M  V30 1864 H 180.78 -2.74021 2.8837 0
M  V30 1865 H 177.519 -2.90355 5.87685 0
M  V30 1866 H 177.039 -3.94546 4.51767 0
M  V30 1867 H 178.718 -3.9663 5.11169 0
M  V30 1868 N 178.85 -1.27639 -0.924453 0
M  V30 1869 C 179.813 -1.10681 -2.00705 0
M  V30 1870 C 180.813 -0.0497823 -1.60723 0
M  V30 1871 O 182.003 -0.294654 -1.7169 0
M  V30 1872 C 179.135 -0.687164 -3.33902 0
M  V30 1873 H 180.328 -2.06817 -2.17179 0
M  V30 1874 H 177.881 -1.10473 -1.10569 0
M  V30 1875 H 178.616 0.275439 -3.23128 0
M  V30 1876 H 178.401 -1.45061 -3.6428 0
M  V30 1877 H 179.891 -0.590853 -4.13399 0
M  V30 1878 N 180.328 1.1314 -1.09713 0
M  V30 1879 C 181.553 1.88862 -0.857081 0
M  V30 1880 C 181.978 1.78729 0.586304 0
M  V30 1881 O 181.336 1.13692 1.41222 0
M  V30 1882 C 181.384 3.36325 -1.30069 0
M  V30 1883 O 180.488 4.09815 -0.461007 0
M  V30 1884 H 179.829 0.587108 -0.310162 0
M  V30 1885 H 182.359 1.43129 -1.46203 0
M  V30 1886 H 182.369 3.87157 -1.28738 0
M  V30 1887 H 181.044 3.43017 -2.35185 0
M  V30 1888 H 179.621 3.68986 -0.538888 0
M  V30 1889 N 181.806 0.884767 1.30421 0
M  V30 1890 C 183.054 0.502112 1.95763 0
M  V30 1891 C 183.375 -0.951815 1.70192 0
M  V30 1892 O 182.645 -1.6692 1.0254 0
M  V30 1893 H 181.225 0.182694 0.724315 0
M  V30 1894 H 183.887 1.1278 1.58955 0
M  V30 1895 H 182.983 0.672188 3.04775 0
M  V30 1896 N 183.284 -1.43765 0.645699 0
M  V30 1897 C 184.232 -2.32516 -0.0624849 0
M  V30 1898 C 185.226 -1.48183 -0.820855 0
M  V30 1899 O 186.432 -1.64439 -0.732106 0
M  V30 1900 H 182.807 -0.750989 -0.0389864 0
M  V30 1901 H 184.778 -2.89979 0.703892 0
M  V30 1902 C 183.527 -3.32389 -1.02044 0
M  V30 1903 H 182.85 -3.97301 -0.446312 0
M  V30 1904 H 184.29 -3.97138 -1.48517 0
M  V30 1905 C 182.749 -2.62416 -2.11281 0
M  V30 1906 O 183.279 -2.434 -3.19561 0
M  V30 1907 N 181.485 -2.21913 -1.87624 0
M  V30 1908 H 181.032 -2.37578 -0.995703 0
M  V30 1909 H 180.99 -1.75424 -2.6091 0
M  V30 1910 N 184.763 -0.387143 -1.52771 0
M  V30 1911 C 186.009 0.196025 -2.0185 0
M  V30 1912 C 186.342 1.46641 -1.27319 0
M  V30 1913 O 185.617 1.90889 -0.373032 0
M  V30 1914 C 185.9 0.466136 -3.5707 0
M  V30 1915 C 185.753 -0.819385 -4.42274 0
M  V30 1916 C 187.072 1.25768 -4.21747 0
M  V30 1917 H 184.191 0.0697708 -0.73369 0
M  V30 1918 H 186.833 -0.516286 -1.82851 0
M  V30 1919 H 184.983 1.07293 -3.7339 0
M  V30 1920 H 186.655 -1.4563 -4.37709 0
M  V30 1921 H 184.898 -1.43517 -4.09372 0
M  V30 1922 H 185.569 -0.585065 -5.48891 0
M  V30 1923 H 188.045 0.744167 -4.09391 0
M  V30 1924 H 186.921 1.41541 -5.30337 0
M  V30 1925 H 187.182 2.27228 -3.79236 0
M  V30 1926 N 186.241 1.57166 -0.116904 0
M  V30 1927 C 187.191 2.11756 0.845178 0
M  V30 1928 C 188.175 1.03783 1.22955 0
M  V30 1929 O 189.367 1.3002 1.20099 0
M  V30 1930 C 186.496 2.71886 2.09602 0
M  V30 1931 C 185.582 3.86937 1.7361 0
M  V30 1932 N 185.973 4.94073 1.08284 0
M  V30 1933 C 184.271 3.97082 2.03082 0
M  V30 1934 C 184.972 5.74477 0.913855 0
M  V30 1935 N 183.948 5.2423 1.43818 0
M  V30 1936 H 187.75 2.91967 0.336523 0
M  V30 1937 H 185.264 1.62174 0.0856332 0
M  V30 1938 H 187.261 3.09338 2.79492 0
M  V30 1939 H 185.921 1.93138 2.61013 0
M  V30 1940 H 186.932 5.12483 0.747067 0
M  V30 1941 H 183.609 3.29372 2.56554 0
M  V30 1942 H 184.999 6.70701 0.40125 0
M  V30 1943 N 187.719 -0.156864 1.56817 0
M  V30 1944 C 188.968 -0.869504 1.81996 0
M  V30 1945 C 189.281 -1.82777 0.696545 0
M  V30 1946 O 190.487 -2.58384 0.833658 0
M  V30 1947 C 188.943 -1.59679 3.22538 0
M  V30 1948 C 188.551 -0.681431 4.42787 0
M  V30 1949 C 190.295 -2.2968 3.56997 0
M  V30 1950 C 188.202 -1.40978 5.74351 0
M  V30 1951 H 187.132 -0.328438 0.678708 0
M  V30 1952 H 189.783 -0.1223 1.83092 0
M  V30 1953 H 188.165 -2.38927 3.158 0
M  V30 1954 H 189.339 0.0751166 4.60739 0
M  V30 1955 H 187.654 -0.0903431 4.16302 0
M  V30 1956 H 190.251 -2.84794 4.52544 0
M  V30 1957 H 190.594 -3.05707 2.82576 0
M  V30 1958 H 191.127 -1.57361 3.65352 0
M  V30 1959 H 187.866 -0.691561 6.51842 0
M  V30 1960 H 187.386 -2.13929 5.60352 0
M  V30 1961 H 189.065 -1.95337 6.16808 0
M  V30 1962 N 189.197 -1.51736 -0.425897 0
M  V30 1963 C 190.446 -1.64201 -1.17136 0
M  V30 1964 C 190.759 -0.369705 -1.92074 0
M  V30 1965 O 191.965 -0.373898 -2.68913 0
M  V30 1966 C 190.421 -2.90035 -2.13091 0
M  V30 1967 C 190.029 -4.24312 -1.43747 0
M  V30 1968 C 191.773 -3.1186 -2.87999 0
M  V30 1969 C 189.68 -5.41285 -2.38253 0
M  V30 1970 H 188.61 -0.611624 -0.440944 0
M  V30 1971 H 191.261 -1.78212 -0.437328 0
M  V30 1972 H 189.643 -2.69684 -2.89977 0
M  V30 1973 H 190.817 -4.55086 -0.723408 0
M  V30 1974 H 189.132 -4.08456 -0.809465 0
M  V30 1975 H 191.729 -3.96427 -3.58817 0
M  V30 1976 H 192.072 -2.25403 -3.49999 0
M  V30 1977 H 192.605 -3.32605 -2.18217 0
M  V30 1978 H 189.344 -6.30037 -1.80925 0
M  V30 1979 H 188.864 -5.14872 -3.0768 0
M  V30 1980 H 190.543 -5.73694 -2.99139 0
M  V30 1981 N 190.675 0.682077 -1.42076 0
M  V30 1982 C 191.9 1.47558 -1.45744 0
M  V30 1983 C 192.325 1.87977 -0.0680981 0
M  V30 1984 O 191.683 1.55522 0.9318 0
M  V30 1985 C 191.731 2.70575 -2.38373 0
M  V30 1986 O 190.835 3.68573 -1.85007 0
M  V30 1987 H 190.176 0.443585 -0.494093 0
M  V30 1988 H 192.706 0.837238 -1.86686 0
M  V30 1989 H 192.716 3.18729 -2.54707 0
M  V30 1990 H 191.391 2.40495 -3.39315 0
M  V30 1991 H 189.968 3.2757 -1.78192 0
M  V30 1992 N 192.153 1.28127 0.917671 0
M  V30 1993 C 193.103 1.08361 2.00604 0
M  V30 1994 C 194.087 0.00847518 1.60898 0
M  V30 1995 O 195.279 0.228167 1.75523 0
M  V30 1996 C 192.408 0.743376 3.35155 0
M  V30 1997 C 191.494 1.85716 3.81275 0
M  V30 1998 N 191.885 3.09822 3.99805 0
M  V30 1999 C 190.183 1.74612 4.10398 0
M  V30 2000 C 190.884 3.82368 4.38372 0
M  V30 2001 N 189.86 3.10192 4.4641 0
M  V30 2002 H 193.662 2.02531 2.12975 0
M  V30 2003 H 191.176 1.18989 1.10523 0
M  V30 2004 H 193.173 0.582859 4.12805 0
M  V30 2005 H 191.833 -0.190595 3.2414 0
M  V30 2006 H 192.844 3.45475 3.85833 0
M  V30 2007 H 189.521 0.883657 4.08041 0
M  V30 2008 H 190.911 4.89082 4.60704 0
M  V30 2009 N 193.631 -1.12557 1.10312 0
M  V30 2010 C 195.042 -1.65574 0.862678 0
M  V30 2011 C 195.393 -1.86566 -0.607256 0
M  V30 2012 O 194.518 -1.59121 -1.46662 0
M  V30 2013 C 195.113 -3.00776 1.55947 0
M  V30 2014 C 193.672 -3.50748 1.36576 0
M  V30 2015 C 192.819 -2.25797 1.60968 0
M  V30 2016 H 195.77 -0.963552 1.26101 0
M  V30 2017 H 195.791 -3.67185 0.997753 0
M  V30 2018 H 195.303 -2.85465 2.62928 0
M  V30 2019 H 193.404 -3.71245 0.317531 0
M  V30 2020 H 193.517 -4.30289 2.10686 0
M  V30 2021 H 191.881 -2.32841 1.03234 0
M  V30 2022 H 192.664 -2.13043 2.69198 0
M  V30 2023 N 195.109 -0.891671 -1.2995 0
M  V30 2024 C 196.357 -0.512486 -1.95494 0
M  V30 2025 C 196.678 0.942776 -1.70695 0
M  V30 2026 O 195.948 1.66374 -1.03424 0
M  V30 2027 H 194.528 -0.186533 -0.723336 0
M  V30 2028 H 197.19 -1.13621 -1.58355 0
M  V30 2029 H 196.286 -0.688342 -3.04415 0
M  V30 2030 N 196.587 1.43421 -0.653314 0
M  V30 2031 C 197.535 2.32546 0.0501531 0
M  V30 2032 C 198.529 1.48617 0.812985 0
M  V30 2033 O 199.735 1.64825 0.723375 0
M  V30 2034 H 196.11 0.751185 0.0350032 0
M  V30 2035 H 198.081 2.89602 -0.719261 0
M  V30 2036 C 196.83 3.32925 1.00279 0
M  V30 2037 H 196.153 3.97532 0.425236 0
M  V30 2038 H 197.593 3.9792 1.46409 0
M  V30 2039 C 196.052 2.63532 2.09886 0
M  V30 2040 O 196.582 2.45092 3.18265 0
M  V30 2041 N 194.788 2.22905 1.86445 0
M  V30 2042 H 194.335 2.38103 0.98309 0
M  V30 2043 H 194.293 1.76805 2.59976 0
M  V30 2044 N 198.065 0.39524 1.52563 0
M  V30 2045 C 199.476 -0.0774719 1.86539 0
M  V30 2046 C 199.827 -1.45641 1.31466 0
M  V30 2047 O 198.952 -2.06459 0.648367 0
M  V30 2048 C 199.547 -0.147356 3.38479 0
M  V30 2049 C 198.106 -0.564373 3.72145 0
M  V30 2050 C 197.253 0.269919 2.75983 0
M  V30 2051 H 200.204 0.612876 1.46388 0
M  V30 2052 H 200.225 -0.965343 3.68051 0
M  V30 2053 H 199.737 0.856387 3.78534 0
M  V30 2054 H 197.838 -1.57527 3.37663 0
M  V30 2055 H 197.951 -0.318402 4.78041 0
M  V30 2056 H 196.315 -0.265696 2.5331 0
M  V30 2057 H 197.098 1.27175 3.18875 0
M  V30 2058 N 199.544 -1.57102 0.125237 0
M  V30 2059 C 200.491 -2.15641 -0.822655 0
M  V30 2060 C 201.461 -1.08313 -1.25927 0
M  V30 2061 O 202.646 -1.36251 -1.33567 0
M  V30 2062 C 199.786 -2.76504 -2.06494 0
M  V30 2063 C 198.899 -3.98158 -1.67612 0
M  V30 2064 C 198.034 -4.47088 -2.86854 0
M  V30 2065 C 197.073 -5.6126 -2.44242 0
M  V30 2066 N 196.21 -6.04905 -3.56419 0
M  V30 2067 H 201.05 -2.96313 -0.316625 0
M  V30 2068 H 198.587 -1.46388 -0.144588 0
M  V30 2069 H 200.545 -3.09925 -2.79289 0
M  V30 2070 H 199.175 -1.98512 -2.54545 0
M  V30 2071 H 198.227 -3.70858 -0.846661 0
M  V30 2072 H 199.539 -4.80934 -1.32301 0
M  V30 2073 H 198.693 -4.82451 -3.67867 0
M  V30 2074 H 197.432 -3.63275 -3.25396 0
M  V30 2075 H 196.437 -5.25495 -1.61663 0
M  V30 2076 H 197.662 -6.46843 -2.0681 0
M  V30 2077 H 195.608 -5.24032 -3.94623 0
M  V30 2078 H 195.525 -6.82552 -3.25051 0
M  V30 2079 H 196.793 -6.44907 -4.37853 0
M  V30 2080 N 201.022 0.148545 -1.56898 0
M  V30 2081 C 202.252 0.875118 -1.8715 0
M  V30 2082 C 202.66 1.75322 -0.711262 0
M  V30 2083 O 202.003 1.80745 0.328151 0
M  V30 2084 C 202.065 1.7844 -3.12089 0
M  V30 2085 C 201.729 1.08361 -4.43967 0
M  V30 2086 C 202.726 0.438247 -5.1805 0
M  V30 2087 C 200.411 1.07358 -4.90693 0
M  V30 2088 C 202.405 -0.20779 -6.37061 0
M  V30 2089 C 200.092 0.42373 -6.09629 0
M  V30 2090 C 201.09 -0.215829 -6.82659 0
M  V30 2091 O 200.778 -0.855378 -7.99336 0
M  V30 2092 H 200.51 0.258504 -0.624621 0
M  V30 2093 H 203.064 0.14652 -2.04877 0
M  V30 2094 H 201.294 2.55389 -2.90367 0
M  V30 2095 H 202.983 2.38279 -3.286 0
M  V30 2096 H 203.749 0.437817 -4.8302 0
M  V30 2097 H 199.628 1.5608 -4.33774 0
M  V30 2098 H 203.172 -0.70758 -6.94002 0
M  V30 2099 H 199.069 0.421822 -6.4412 0
M  V30 2100 H 199.837 -0.756892 -8.14993 0
M  V30 2101 N 202.5 1.5196 0.417844 0
M  V30 2102 C 203.41 1.77554 1.53336 0
M  V30 2103 C 204.426 0.660655 1.6097 0
M  V30 2104 O 205.602 0.945099 1.77848 0
M  V30 2105 C 202.667 1.91291 2.89152 0
M  V30 2106 C 201.728 3.15183 2.91475 0
M  V30 2107 C 200.961 3.28256 4.20813 0
M  V30 2108 O 201.184 2.46798 5.14244 0
M  V30 2109 O 200.118 4.21356 4.29817 0
M  V30 2110 H 203.944 2.7222 1.34647 0
M  V30 2111 H 201.529 1.36698 0.602828 0
M  V30 2112 H 203.411 2.02199 3.69721 0
M  V30 2113 H 202.086 0.998129 3.07927 0
M  V30 2114 H 200.993 3.09739 2.09791 0
M  V30 2115 H 202.326 4.06414 2.77648 0
M  V30 2116 N 203.978 -0.674533 1.42435 0
M  V30 2117 C 205.227 -1.43034 1.42212 0
M  V30 2118 C 205.54 -1.95555 0.0420788 0
M  V30 2119 O 206.746 -2.71374 -0.0827558 0
M  V30 2120 C 205.202 -2.58748 2.50155 0
M  V30 2121 C 204.81 -2.12925 3.94166 0
M  V30 2122 C 206.554 -3.36257 2.59098 0
M  V30 2123 C 204.461 -3.25723 4.93618 0
M  V30 2124 H 203.391 -0.537345 0.528939 0
M  V30 2125 H 206.042 -0.73024 1.68344 0
M  V30 2126 H 204.424 -3.31128 2.17188 0
M  V30 2127 H 205.598 -1.47697 4.36488 0
M  V30 2128 H 203.913 -1.48354 3.89076 0
M  V30 2129 H 206.51 -4.20264 3.30578 0
M  V30 2130 H 206.853 -3.82866 1.63461 0
M  V30 2131 H 207.386 -2.70947 2.9126 0
M  V30 2132 H 204.125 -2.84105 5.90732 0
M  V30 2133 H 203.645 -3.89732 4.55926 0
M  V30 2134 H 205.324 -3.91186 5.15347 0
M  V30 2135 N 205.456 -1.28612 -0.910864 0
M  V30 2136 C 206.733 -1.06632 -1.63979 0
M  V30 2137 C 207.113 0.393351 -2.07403 0
M  V30 2138 O 206.461 1.37999 -1.82122 0
M  V30 2139 C 206.671 -2.0436 -2.8291 0
M  V30 2140 C 208.019 -2.34666 -3.5386 0
M  V30 2141 O 209.043 -2.02467 -2.93062 0
M  V30 2142 O 207.902 -2.89631 -4.63439 0
M  V30 2143 H 204.996 -0.407737 -0.7195 0
M  V30 2144 H 207.542 -1.39942 -0.959914 0
M  V30 2145 H 206.314 -3.02727 -2.47936 0
M  V30 2146 H 205.937 -1.71714 -3.58609 0
M  V30 2147 N 206.934 1.1197 -1.10907 0
M  V30 2148 C 208.18 1.8386 -0.855773 0
M  V30 2149 C 208.513 1.84134 0.617103 0
M  V30 2150 O 207.788 1.29041 1.45529 0
M  V30 2151 C 208.071 3.31305 -1.411 0
M  V30 2152 C 207.924 3.39456 -2.9511 0
M  V30 2153 C 209.243 4.2721 -1.05736 0
M  V30 2154 H 206.362 0.667545 -0.312334 0
M  V30 2155 H 209.004 1.31331 -1.37303 0
M  V30 2156 H 207.154 3.76169 -0.97105 0
M  V30 2157 H 208.826 3.03191 -3.47668 0
M  V30 2158 H 207.069 2.79849 -3.31462 0
M  V30 2159 H 207.74 4.43209 -3.29044 0
M  V30 2160 H 210.216 3.90497 -1.43706 0
M  V30 2161 H 209.092 5.28775 -1.47269 0
M  V30 2162 H 209.353 4.42088 0.0325958 0
M  V30 2163 N 208.412 0.89855 1.29475 0
M  V30 2164 C 209.359 0.373819 2.27753 0
M  V30 2165 C 210.329 -0.543444 1.56958 0
M  V30 2166 O 211.514 -0.468934 1.84948 0
M  V30 2167 C 208.654 -0.393648 3.42848 0
M  V30 2168 C 207.767 0.554379 4.28428 0
M  V30 2169 C 206.902 -0.230026 5.30702 0
M  V30 2170 C 205.941 0.712599 6.07938 0
M  V30 2171 N 205.078 -0.0373283 7.0209 0
M  V30 2172 H 209.918 1.21699 2.72017 0
M  V30 2173 H 207.455 0.611456 1.33789 0
M  V30 2174 H 209.413 -0.85466 4.08352 0
M  V30 2175 H 208.043 -1.20128 2.99615 0
M  V30 2176 H 207.095 1.13391 3.63107 0
M  V30 2177 H 208.407 1.27597 4.82204 0
M  V30 2178 H 207.561 -0.752288 6.02018 0
M  V30 2179 H 206.3 -0.984758 4.77654 0
M  V30 2180 H 205.305 1.24637 5.35486 0
M  V30 2181 H 206.53 1.46664 6.63074 0
M  V30 2182 H 204.476 -0.774348 6.51414 0
M  V30 2183 H 204.393 0.624374 7.53417 0
M  V30 2184 H 205.661 -0.539891 7.77628 0
M  V30 2185 N 209.89 -1.43072 0.660911 0
M  V30 2186 C 210.853 -2.29194 -0.0166406 0
M  V30 2187 C 211.853 -1.42609 -0.742912 0
M  V30 2188 O 213.043 -1.64155 -0.583004 0
M  V30 2189 C 210.175 -3.24831 -1.0343 0
M  V30 2190 H 211.368 -2.90596 0.741208 0
M  V30 2191 H 208.921 -1.5048 0.422532 0
M  V30 2192 H 209.656 -2.68339 -1.82111 0
M  V30 2193 H 209.441 -3.88676 -0.517082 0
M  V30 2194 H 210.931 -3.89451 -1.50723 0
M  V30 2195 N 211.368 -0.403325 -1.52352 0
M  V30 2196 C 212.614 0.174605 -2.02047 0
M  V30 2197 C 212.947 1.45282 -1.28867 0
M  V30 2198 O 212.222 1.90483 -0.393257 0
M  V30 2199 C 212.505 0.428238 -3.57545 0
M  V30 2200 C 212.358 -0.866248 -4.4138 0
M  V30 2201 C 213.677 1.21287 -4.23057 0
M  V30 2202 H 210.796 0.0619851 -0.734389 0
M  V30 2203 H 213.438 -0.53565 -1.82293 0
M  V30 2204 H 211.588 1.03327 -3.74507 0
M  V30 2205 H 213.26 -1.50265 -4.3614 0
M  V30 2206 H 211.503 -1.47851 -4.07827 0
M  V30 2207 H 212.174 -0.643249 -5.48239 0
M  V30 2208 H 214.65 0.700703 -4.10158 0
M  V30 2209 H 213.526 1.35909 -5.31808 0
M  V30 2210 H 213.787 2.23193 -3.81625 0
M  V30 2211 N 212.846 1.57033 -0.133567 0
M  V30 2212 C 213.809 2.14897 0.796995 0
M  V30 2213 C 214.809 1.0874 1.18458 0
M  V30 2214 O 215.999 1.34446 1.1077 0
M  V30 2215 C 213.131 2.70112 2.07973 0
M  V30 2216 H 214.324 2.98457 0.293873 0
M  V30 2217 H 211.877 1.55871 0.115787 0
M  V30 2218 H 212.612 1.9018 2.62682 0
M  V30 2219 H 212.397 3.47764 1.81115 0
M  V30 2220 H 213.887 3.14738 2.74462 0
M  V30 2221 N 214.325 -0.140222 1.56975 0
M  V30 2222 C 215.235 -1.19223 2.02047 0
M  V30 2223 C 216.251 -1.46612 0.937062 0
M  V30 2224 O 217.427 -1.58148 1.24704 0
M  V30 2225 C 214.492 -2.50414 2.39778 0
M  V30 2226 C 213.553 -2.30612 3.621 0
M  V30 2227 C 212.786 -3.55547 3.98023 0
M  V30 2228 O 213.009 -4.62004 3.34528 0
M  V30 2229 O 211.943 -3.47808 4.91237 0
M  V30 2230 H 215.769 -0.839559 2.91865 0
M  V30 2231 H 213.354 -0.349453 1.45256 0
M  V30 2232 H 215.236 -3.27747 2.64877 0
M  V30 2233 H 213.911 -2.85198 1.53114 0
M  V30 2234 H 212.818 -1.51207 3.4218 0
M  V30 2235 H 214.151 -2.00741 4.49404 0
M  V30 2236 N 215.803 -1.52179 -0.40978 0
M  V30 2237 C 216.766 -1.74853 -1.48186 0
M  V30 2238 C 217.766 -0.618417 -1.48433 0
M  V30 2239 O 218.956 -0.886286 -1.49969 0
M  V30 2240 C 216.088 -1.8303 -2.87598 0
M  V30 2241 H 217.281 -2.70559 -1.29374 0
M  V30 2242 H 214.834 -1.42586 -0.640233 0
M  V30 2243 H 215.569 -0.89236 -3.11781 0
M  V30 2244 H 215.354 -2.65187 -2.88822 0
M  V30 2245 H 216.844 -2.02316 -3.65319 0
M  V30 2246 N 217.281 0.66697 -1.42791 0
M  V30 2247 C 218.244 1.76211 -1.46568 0
M  V30 2248 C 219.244 1.56896 -0.352196 0
M  V30 2249 O 220.434 1.63044 -0.613364 0
M  V30 2250 C 217.566 3.14935 -1.30494 0
M  V30 2251 H 218.759 1.74247 -2.44086 0
M  V30 2252 H 216.312 0.877342 -1.29354 0
M  V30 2253 H 217.047 3.2252 -0.339301 0
M  V30 2254 H 216.832 3.30359 -2.11199 0
M  V30 2255 H 218.322 3.94821 -1.36038 0
M  V30 2256 N 218.759 1.29093 0.90403 0
M  V30 2257 C 219.722 1.1386 1.98919 0
M  V30 2258 C 220.722 0.0753457 1.60623 0
M  V30 2259 O 221.912 0.321931 1.71199 0
M  V30 2260 C 219.044 0.740198 3.32767 0
M  V30 2261 H 220.237 2.10246 2.13861 0
M  V30 2262 H 217.79 1.12218 1.08797 0
M  V30 2263 H 218.525 -0.223997 3.23525 0
M  V30 2264 H 218.31 1.50838 3.61926 0
M  V30 2265 H 219.8 0.656546 4.12407 0
M  V30 2266 N 220.237 -1.11381 1.11499 0
M  V30 2267 C 221.184 -2.17439 0.773887 0
M  V30 2268 C 222.154 -1.64132 -0.254899 0
M  V30 2269 O 223.339 -1.90345 -0.13168 0
M  V30 2270 C 220.479 -3.44373 0.223917 0
M  V30 2271 C 219.592 -4.1168 1.30934 0
M  V30 2272 C 218.727 -5.263 0.71984 0
M  V30 2273 C 217.766 -5.85493 1.78507 0
M  V30 2274 N 216.903 -6.91507 1.21502 0
M  V30 2275 H 221.743 -2.45962 1.68246 0
M  V30 2276 H 219.28 -1.20744 0.840191 0
M  V30 2277 H 221.238 -4.17047 -0.112921 0
M  V30 2278 H 219.868 -3.16232 -0.647851 0
M  V30 2279 H 218.92 -3.37073 1.76312 0
M  V30 2280 H 220.232 -4.51729 2.11524 0
M  V30 2281 H 219.386 -6.05785 0.333094 0
M  V30 2282 H 218.125 -4.87559 -0.117377 0
M  V30 2283 H 217.13 -5.04686 2.18111 0
M  V30 2284 H 218.355 -6.26301 2.62533 0
M  V30 2285 H 216.301 -6.54783 0.399455 0
M  V30 2286 H 216.218 -7.30214 1.95763 0
M  V30 2287 H 217.486 -7.74795 0.855181 0
M  V30 2288 N 221.715 -0.905404 -1.28997 0
M  V30 2289 C 222.665 -0.358713 -2.25161 0
M  V30 2290 C 223.649 0.524449 -1.52113 0
M  V30 2291 O 224.841 0.365534 -1.73184 0
M  V30 2292 C 221.97 0.407609 -3.40872 0
M  V30 2293 C 221.056 -0.490797 -4.21251 0
M  V30 2294 N 221.447 -1.60061 -4.79806 0
M  V30 2295 C 219.745 -0.289636 -4.45059 0
M  V30 2296 C 220.446 -2.15757 -5.40207 0
M  V30 2297 N 219.422 -1.44988 -5.23908 0
M  V30 2298 H 223.224 -1.20642 -2.67998 0
M  V30 2299 H 220.738 -0.757103 -1.43672 0
M  V30 2300 H 222.735 0.816046 -4.08835 0
M  V30 2301 H 221.395 1.25251 -2.9957 0
M  V30 2302 H 222.406 -1.98329 -4.7842 0
M  V30 2303 H 219.083 0.51643 -4.14294 0
M  V30 2304 H 220.473 -3.09069 -5.96595 0
M  V30 2305 N 223.193 1.4272 -0.668489 0
M  V30 2306 C 224.125 2.2914 0.052613 0
M  V30 2307 C 225.138 1.43339 0.771857 0
M  V30 2308 O 226.327 1.67123 0.627067 0
M  V30 2309 C 223.427 3.20618 1.09804 0
M  V30 2310 C 222.6 4.35039 0.45389 0
M  V30 2311 C 221.659 5.07282 1.39825 0
M  V30 2312 O 220.685 5.62024 0.900978 0
M  V30 2313 N 221.887 5.12206 2.73176 0
M  V30 2314 H 224.652 2.91668 -0.689209 0
M  V30 2315 H 222.213 1.53577 -0.512422 0
M  V30 2316 H 224.205 3.65815 1.73094 0
M  V30 2317 H 222.775 2.59585 1.74167 0
M  V30 2318 H 221.995 3.92567 -0.358396 0
M  V30 2319 H 223.283 5.088 0.00486972 0
M  V30 2320 H 222.681 4.6913 3.16122 0
M  V30 2321 H 221.238 5.61069 3.31729 0
M  V30 2322 N 224.671 0.411399 1.52136 0
M  V30 2323 C 225.917 -0.163888 2.02137 0
M  V30 2324 C 226.25 -1.44597 1.29636 0
M  V30 2325 O 225.525 -1.90272 0.403353 0
M  V30 2326 C 225.808 -0.40927 3.57767 0
M  V30 2327 C 225.661 0.889643 4.40914 0
M  V30 2328 C 226.98 -1.19042 4.23694 0
M  V30 2329 H 224.099 -0.0580896 0.734707 0
M  V30 2330 H 226.741 0.54531 1.82007 0
M  V30 2331 H 224.891 -1.0134 3.7505 0
M  V30 2332 H 226.563 1.52575 4.35337 0
M  V30 2333 H 224.806 1.50011 4.07037 0
M  V30 2334 H 225.477 0.672314 5.4789 0
M  V30 2335 H 227.953 -0.678942 4.10524 0
M  V30 2336 H 226.829 -1.33086 5.32522 0
M  V30 2337 H 227.09 -2.21166 3.82803 0
M  V30 2338 N 226.149 -1.5696 0.141893 0
M  V30 2339 C 227.112 -2.15316 -0.785587 0
M  V30 2340 C 228.112 -1.09366 -1.1788 0
M  V30 2341 O 229.302 -1.35031 -1.10056 0
M  V30 2342 C 226.434 -2.71211 -2.06537 0
M  V30 2343 H 227.627 -2.98608 -0.278041 0
M  V30 2344 H 225.18 -1.5593 -0.107519 0
M  V30 2345 H 225.915 -1.91571 -2.6167 0
M  V30 2346 H 225.7 -3.4872 -1.79268 0
M  V30 2347 H 227.19 -3.16189 -2.72789 0
M  V30 2348 N 227.627 0.131896 -1.57047 0
M  V30 2349 C 228.557 1.16384 -2.02428 0
M  V30 2350 C 229.538 1.43936 -0.90644 0
M  V30 2351 O 230.723 1.54599 -1.17528 0
M  V30 2352 C 227.853 2.49328 -2.4177 0
M  V30 2353 C 226.807 2.36266 -3.56879 0
M  V30 2354 C 226.133 3.74057 -3.8208 0
M  V30 2355 C 227.433 1.834 -4.89042 0
M  V30 2356 H 229.127 0.786433 -2.88887 0
M  V30 2357 H 226.673 0.376855 -1.38981 0
M  V30 2358 H 228.626 3.21759 -2.7212 0
M  V30 2359 H 227.35 2.88934 -1.52266 0
M  V30 2360 H 226.009 1.66286 -3.26718 0
M  V30 2361 H 225.657 4.11125 -2.89803 0
M  V30 2362 H 225.357 3.66174 -4.59554 0
M  V30 2363 H 226.881 4.48012 -4.1487 0
M  V30 2364 H 228.295 2.45636 -5.18011 0
M  V30 2365 H 226.692 1.8637 -5.70426 0
M  V30 2366 H 227.762 0.790662 -4.7841 0
M  V30 2367 N 229.106 1.52395 0.401703 0
M  V30 2368 C 230.016 1.7917 1.51444 0
M  V30 2369 C 231.032 0.677691 1.6026 0
M  V30 2370 O 232.208 0.963909 1.76835 0
M  V30 2371 C 229.273 1.94347 2.87107 0
M  V30 2372 C 228.334 3.18257 2.88116 0
M  V30 2373 C 227.567 3.32701 4.17308 0
M  V30 2374 O 227.79 2.52238 5.11598 0
M  V30 2375 O 226.724 4.25891 4.25324 0
M  V30 2376 H 230.55 2.73633 1.31752 0
M  V30 2377 H 228.135 1.3733 0.588296 0
M  V30 2378 H 230.017 2.06109 3.67555 0
M  V30 2379 H 228.692 1.03073 3.06851 0
M  V30 2380 H 227.599 3.11947 2.06494 0
M  V30 2381 H 228.932 4.09336 2.73322 0
M  V30 2382 N 230.584 -0.659388 1.43143 0
M  V30 2383 C 231.833 -1.41518 1.43721 0
M  V30 2384 C 232.146 -1.95499 0.0628176 0
M  V30 2385 O 233.352 -2.71446 -0.0539683 0
M  V30 2386 C 231.808 -2.5608 2.52885 0
M  V30 2387 C 231.416 -2.08733 3.96402 0
M  V30 2388 C 233.16 -3.3349 2.62649 0
M  V30 2389 C 231.067 -3.20469 4.97045 0
M  V30 2390 H 229.997 -0.531705 0.534608 0
M  V30 2391 H 232.648 -0.712343 1.69109 0
M  V30 2392 H 231.03 -3.28805 2.20688 0
M  V30 2393 H 232.204 -1.43059 4.3803 0
M  V30 2394 H 230.519 -1.44219 3.90627 0
M  V30 2395 H 233.116 -4.16734 3.35017 0
M  V30 2396 H 233.459 -3.8111 1.67513 0
M  V30 2397 H 233.992 -2.67842 2.94118 0
M  V30 2398 H 230.731 -2.77824 5.93712 0
M  V30 2399 H 230.251 -3.84874 4.60034 0
M  V30 2400 H 231.93 -3.85698 5.19467 0
M  V30 2401 N 232.062 -1.29571 -0.897171 0
M  V30 2402 C 233.01 -1.14802 -2.02295 0
M  V30 2403 C 234.004 -0.0629637 -1.69283 0
M  V30 2404 O 235.21 -0.222945 -1.78614 0
M  V30 2405 H 231.585 -0.354692 -0.663097 0
M  V30 2406 H 233.556 -2.10108 -2.11889 0
M  V30 2407 C 232.305 -0.843966 -3.37302 0
M  V30 2408 H 231.628 -1.67093 -3.63208 0
M  V30 2409 H 233.068 -0.780672 -4.16751 0
M  V30 2410 C 231.527 0.452843 -3.33843 0
M  V30 2411 O 232.057 1.47813 -3.73516 0
M  V30 2412 N 230.263 0.459601 -2.86943 0
M  V30 2413 H 229.81 -0.375213 -2.54853 0
M  V30 2414 H 229.768 1.32726 -2.85011 0
M  V30 2415 N 233.54 1.10788 -1.12088 0
M  V30 2416 C 234.488 2.19111 -0.780587 0
M  V30 2417 C 235.482 1.67818 0.230961 0
M  V30 2418 O 236.688 1.79777 0.0895427 0
M  V30 2419 H 233.063 0.714477 -0.234578 0
M  V30 2420 H 235.034 2.45055 -1.70266 0
M  V30 2421 C 233.783 3.46818 -0.24747 0
M  V30 2422 H 233.106 3.86646 -1.01712 0
M  V30 2423 H 234.546 4.23973 -0.0476291 0
M  V30 2424 C 233.005 3.20968 1.02378 0
M  V30 2425 O 233.535 3.42298 2.10226 0
M  V30 2426 N 231.741 2.74658 0.949271 0
M  V30 2427 H 231.288 2.57501 0.0715173 0
M  V30 2428 H 231.246 2.57739 1.80049 0
M  V30 2429 N 235.018 0.912232 1.28515 0
M  V30 2430 C 236.243 0.559774 1.99703 0
M  V30 2431 C 236.668 -0.851393 1.67729 0
M  V30 2432 O 236.026 -1.56875 0.908834 0
M  V30 2433 C 236.074 0.773874 3.52198 0
M  V30 2434 O 235.178 -0.167842 4.12058 0
M  V30 2435 H 234.519 0.21723 0.627461 0
M  V30 2436 H 237.049 1.22725 1.63706 0
M  V30 2437 H 237.059 0.683386 4.02236 0
M  V30 2438 H 235.734 1.80261 3.74805 0
M  V30 2439 H 234.311 -0.0287509 3.72889 0
M  V30 2440 N 236.496 -1.42363 0.676048 0
M  V30 2441 C 237.721 -2.06377 0.205705 0
M  V30 2442 C 238.146 -1.50463 -1.12883 0
M  V30 2443 O 237.504 -0.623619 -1.70237 0
M  V30 2444 C 237.552 -3.60277 0.152655 0
M  V30 2445 O 236.656 -4.02935 -0.87845 0
M  V30 2446 H 235.997 -0.655588 0.105359 0
M  V30 2447 H 238.527 -1.82475 0.925412 0
M  V30 2448 H 238.537 -4.07993 -0.0230675 0
M  V30 2449 H 237.212 -4.00346 1.12675 0
M  V30 2450 H 235.789 -3.66764 -0.673668 0
M  V30 2451 N 237.974 -0.419461 -1.51915 0
M  V30 2452 C 239.221 0.152939 -2.01922 0
M  V30 2453 C 239.549 1.4426 -1.30458 0
M  V30 2454 O 238.804 1.91514 -0.402593 0
M  V30 2455 C 239.103 0.437067 -3.54717 0
M  V30 2456 C 238.769 -0.764632 -4.44369 0
M  V30 2457 C 237.431 -1.09423 -4.68594 0
M  V30 2458 C 239.783 -1.56713 -4.97082 0
M  V30 2459 C 237.111 -2.22732 -5.42777 0
M  V30 2460 C 239.463 -2.69107 -5.72507 0
M  V30 2461 C 238.127 -3.02541 -5.95 0
M  V30 2462 H 237.397 0.0559644 -0.738884 0
M  V30 2463 H 240.044 -0.562998 -1.83037 0
M  V30 2464 H 238.349 1.23469 -3.71837 0
M  V30 2465 H 240.046 0.893083 -3.90928 0
M  V30 2466 H 236.636 -0.497775 -4.257 0
M  V30 2467 H 240.82 -1.32571 -4.78266 0
M  V30 2468 H 236.076 -2.48971 -5.58411 0
M  V30 2469 H 240.25 -3.31671 -6.12346 0
M  V30 2470 H 237.877 -3.90457 -6.52264 0
M  V30 2471 N 239.452 1.56882 -0.150215 0
M  V30 2472 C 240.382 2.19935 0.784284 0
M  V30 2473 C 241.363 1.14854 1.25469 0
M  V30 2474 O 242.548 1.43209 1.31168 0
M  V30 2475 C 239.678 2.82349 2.02229 0
M  V30 2476 C 238.632 3.93285 1.68853 0
M  V30 2477 C 237.958 4.42649 2.99944 0
M  V30 2478 C 239.258 5.13904 0.932714 0
M  V30 2479 H 240.952 2.9828 0.258781 0
M  V30 2480 H 238.498 1.43473 0.123029 0
M  V30 2481 H 240.451 3.25126 2.68088 0
M  V30 2482 H 239.175 2.0134 2.57157 0
M  V30 2483 H 237.834 3.5113 1.05371 0
M  V30 2484 H 237.482 3.58458 3.52869 0
M  V30 2485 H 237.182 5.17476 2.78374 0
M  V30 2486 H 238.706 4.88099 3.66868 0
M  V30 2487 H 240.12 5.53506 1.49345 0
M  V30 2488 H 238.517 5.94515 0.81684 0
M  V30 2489 H 239.587 4.84842 -0.0749568 0
M  V30 2490 N 240.93 -0.123565 1.57115 0
M  V30 2491 C 241.88 -1.1575 1.96433 0
M  V30 2492 C 242.864 -1.37313 0.838686 0
M  V30 2493 O 244.056 -1.38482 1.10235 0
M  V30 2494 C 241.185 -2.48526 2.36833 0
M  V30 2495 C 240.271 -2.30457 3.5602 0
M  V30 2496 N 240.662 -1.8219 4.71848 0
M  V30 2497 C 238.96 -2.61129 3.61563 0
M  V30 2498 C 239.661 -1.77721 5.53886 0
M  V30 2499 N 238.637 -2.21899 4.96248 0
M  V30 2500 H 242.439 -0.776797 2.83449 0
M  V30 2501 H 239.953 -0.331364 1.58983 0
M  V30 2502 H 241.95 -3.233 2.63216 0
M  V30 2503 H 240.61 -2.87358 1.5118 0
M  V30 2504 H 241.621 -1.51805 4.95152 0
M  V30 2505 H 238.298 -3.03678 2.86507 0
M  V30 2506 H 239.688 -1.41697 6.56789 0
M  V30 2507 N 242.408 -1.52605 -0.393616 0
M  V30 2508 C 243.633 -1.71592 -1.16495 0
M  V30 2509 C 244.058 -0.43133 -1.83088 0
M  V30 2510 O 243.416 0.612523 -1.7064 0
M  V30 2511 C 243.464 -2.86318 -2.19213 0
M  V30 2512 O 242.568 -2.52969 -3.257 0
M  V30 2513 H 241.909 -0.570734 -0.33935 0
M  V30 2514 H 244.439 -1.99377 -0.459324 0
M  V30 2515 H 244.449 -3.1168 -2.63286 0
M  V30 2516 H 243.124 -3.79511 -1.7013 0
M  V30 2517 H 241.701 -2.38332 -2.86797 0
M  V30 2518 N 243.887 0.651787 -1.4349 0
M  V30 2519 C 245.303 0.96762 -1.26922 0
M  V30 2520 C 245.503 2.00602 -0.189982 0
M  V30 2521 O 244.559 2.48793 0.431107 0
M  V30 2522 C 245.872 1.45052 -2.63401 0
M  V30 2523 C 247.42 1.5671 -2.70945 0
M  V30 2524 C 247.895 2.0839 -4.07845 0
M  V30 2525 N 249.386 2.1569 -4.09917 0
M  V30 2526 C 250.121 2.56804 -5.12679 0
M  V30 2527 N 249.617 2.97203 -6.25813 0
M  V30 2528 N 251.41 2.56756 -5.00033 0
M  V30 2529 H 243.561 -0.0353158 -2.12371 0
M  V30 2530 H 245.824 0.0467858 -0.946845 0
M  V30 2531 H 245.53 0.761926 -3.43348 0
M  V30 2532 H 245.404 2.42529 -2.88894 0
M  V30 2533 H 247.791 2.2467 -1.9133 0
M  V30 2534 H 247.872 0.57662 -2.49216 0
M  V30 2535 H 247.516 1.41031 -4.87927 0
M  V30 2536 H 247.446 3.08271 -4.26938 0
M  V30 2537 H 249.937 1.87237 -3.28254 0
M  V30 2538 H 250.25 3.27328 -7.00055 0
M  V30 2539 H 248.595 2.95004 -6.29283 0
M  V30 2540 H 251.786 2.24572 -4.10713 0
M  V30 2541 H 251.959 2.88475 -5.80247 0
M  V30 2542 N 245.365 1.30045 0.890287 0
M  V30 2543 C 246.312 1.15976 1.99545 0
M  V30 2544 C 247.282 0.0506202 1.66023 0
M  V30 2545 O 248.467 0.219847 1.89529 0
M  V30 2546 C 245.607 0.852054 3.34416 0
M  V30 2547 C 244.72 2.04255 3.80662 0
M  V30 2548 C 243.855 1.6734 5.04154 0
M  V30 2549 C 242.894 2.82916 5.42794 0
M  V30 2550 N 242.031 2.46333 6.57468 0
M  V30 2551 H 246.871 2.10524 2.10911 0
M  V30 2552 H 244.408 1.04749 1.03276 0
M  V30 2553 H 246.366 0.654296 4.12037 0
M  V30 2554 H 244.996 -0.0565502 3.2275 0
M  V30 2555 H 244.048 2.35172 2.98995 0
M  V30 2556 H 245.36 2.90826 4.05242 0
M  V30 2557 H 244.514 1.43908 5.89386 0
M  V30 2558 H 243.253 0.779308 4.81433 0
M  V30 2559 H 242.258 3.0702 4.56091 0
M  V30 2560 H 243.483 3.73004 5.6749 0
M  V30 2561 H 241.429 1.59423 6.36334 0
M  V30 2562 H 241.346 3.26436 6.81891 0
M  V30 2563 H 242.614 2.26244 7.45945 0
M  V30 2564 N 246.843 -1.10192 1.12674 0
M  V30 2565 C 248.091 -1.81845 0.881861 0
M  V30 2566 C 248.412 -1.85737 -0.593867 0
M  V30 2567 O 247.682 -1.33724 -1.4316 0
M  V30 2568 H 246.262 -0.673432 0.323261 0
M  V30 2569 H 248.924 -1.33316 1.42172 0
M  V30 2570 H 248.02 -2.85288 1.2656 0
M  V30 2571 N 248.321 -0.919034 -1.28029 0
M  V30 2572 C 249.546 -0.570357 -1.99403 0
M  V30 2573 C 249.971 0.842486 -1.68178 0
M  V30 2574 O 249.329 1.56391 -0.917141 0
M  V30 2575 C 249.377 -0.792541 -3.51783 0
M  V30 2576 O 248.481 0.145988 -4.12142 0
M  V30 2577 H 247.822 -0.220555 -0.6263 0
M  V30 2578 H 250.352 -1.23592 -1.63053 0
M  V30 2579 H 250.362 -0.704708 -4.01868 0
M  V30 2580 H 249.037 -1.82247 -3.73844 0
M  V30 2581 H 247.614 0.00897528 -3.72899 0
M  V30 2582 N 249.799 1.42003 -0.683588 0
M  V30 2583 C 250.709 2.34597 -0.0109075 0
M  V30 2584 C 251.725 1.55576 0.779245 0
M  V30 2585 O 252.901 1.88107 0.719555 0
M  V30 2586 C 249.966 3.34199 0.922588 0
M  V30 2587 C 249.027 4.29115 0.125984 0
M  V30 2588 C 248.26 5.23959 1.01502 0
M  V30 2589 O 248.483 5.23952 2.25456 0
M  V30 2590 O 247.417 6.00053 0.47111 0
M  V30 2591 H 251.243 2.93675 -0.773853 0
M  V30 2592 H 248.828 1.42654 -0.443861 0
M  V30 2593 H 250.71 3.95365 1.45823 0
M  V30 2594 H 249.385 2.77582 1.66523 0
M  V30 2595 H 248.292 3.71335 -0.453969 0
M  V30 2596 H 249.625 4.88798 -0.577736 0
M  V30 2597 N 251.277 0.427512 1.51691 0
M  V30 2598 C 252.554 -0.201684 1.94557 0
M  V30 2599 C 252.934 -1.60981 1.36559 0
M  V30 2600 O 252.282 -2.21814 0.548702 0
M  V30 2601 C 252.492 -0.189394 3.48486 0
M  V30 2602 C 253.84 -0.39978 4.22714 0
M  V30 2603 O 254.864 -0.267945 3.55191 0
M  V30 2604 O 253.723 -0.661249 5.42485 0
M  V30 2605 H 250.817 -0.135261 0.815864 0
M  V30 2606 H 253.363 0.484782 1.62628 0
M  V30 2607 H 252.135 0.795431 3.8313 0
M  V30 2608 H 251.758 -0.919187 3.86829 0
M  V30 2609 N 252.755 -1.56801 0.158532 0
M  V30 2610 C 253.703 -2.18638 -0.793729 0
M  V30 2611 C 254.697 -1.14669 -1.24689 0
M  V30 2612 O 255.903 -1.32895 -1.21403 0
M  V30 2613 H 252.278 -0.700226 -0.274204 0
M  V30 2614 H 254.249 -2.97367 -0.248095 0
M  V30 2615 C 252.998 -2.83139 -2.0181 0
M  V30 2616 H 252.321 -3.62863 -1.67841 0
M  V30 2617 H 253.761 -3.29894 -2.66357 0
M  V30 2618 C 252.22 -1.82244 -2.83353 0
M  V30 2619 O 252.75 -1.3 -3.80083 0
M  V30 2620 N 250.956 -1.51288 -2.48114 0
M  V30 2621 H 250.503 -1.93964 -1.69516 0
M  V30 2622 H 250.461 -0.840296 -3.02963 0
M  V30 2623 N 254.233 0.115231 -1.57178 0
M  V30 2624 C 255.473 0.828199 -1.8687 0
M  V30 2625 C 255.837 1.76873 -0.747002 0
M  V30 2626 O 257.038 2.52354 -0.925785 0
M  V30 2627 C 255.309 1.55515 -3.21792 0
M  V30 2628 S 256.868 2.30917 -3.73125 0
M  V30 2629 H 253.686 0.27634 -0.655101 0
M  V30 2630 H 256.288 0.0863469 -1.95309 0
M  V30 2631 H 254.992 0.856248 -4.01368 0
M  V30 2632 H 254.523 2.3373 -3.16439 0
M  V30 2633 H 256.538 3.56705 -3.44929 0
M  V30 2634 N 255.711 1.52812 0.385517 0
M  V30 2635 C 257.127 1.4214 0.725829 0
M  V30 2636 C 257.327 0.544589 1.94001 0
M  V30 2637 O 256.383 0.0193693 2.52493 0
M  V30 2638 C 257.696 2.85042 0.957668 0
M  V30 2639 C 259.244 2.94543 1.05892 0
M  V30 2640 C 259.719 4.38464 1.32337 0
M  V30 2641 N 261.21 4.41804 1.39151 0
M  V30 2642 C 261.945 5.5025 1.61285 0
M  V30 2643 N 261.441 6.68775 1.80866 0
M  V30 2644 N 263.234 5.37798 1.63492 0
M  V30 2645 H 255.385 2.08338 -0.413383 0
M  V30 2646 H 257.648 0.940016 -0.122775 0
M  V30 2647 H 257.354 3.51431 0.137568 0
M  V30 2648 H 257.228 3.27505 1.87137 0
M  V30 2649 H 259.615 2.28321 1.86959 0
M  V30 2650 H 259.696 2.55504 0.123057 0
M  V30 2651 H 259.34 5.05254 0.517793 0
M  V30 2652 H 259.27 4.75059 2.27214 0
M  V30 2653 H 261.761 3.56377 1.25713 0
M  V30 2654 H 262.074 7.47197 1.97271 0
M  V30 2655 H 260.419 6.71797 1.78083 0
M  V30 2656 H 263.61 4.44171 1.47749 0
M  V30 2657 H 263.783 6.22382 1.80402 0
M  V30 2658 N 257.189 -0.644168 1.43834 0
M  V30 2659 C 258.099 -1.78563 1.52159 0
M  V30 2660 C 259.115 -1.69147 0.408069 0
M  V30 2661 O 260.291 -1.90156 0.663524 0
M  V30 2662 C 257.356 -3.14888 1.45073 0
M  V30 2663 C 256.417 -3.36034 2.6717 0
M  V30 2664 C 255.65 -4.65855 2.60413 0
M  V30 2665 O 255.873 -5.45805 1.65689 0
M  V30 2666 O 254.807 -4.88918 3.5106 0
M  V30 2667 H 258.633 -1.74494 2.48567 0
M  V30 2668 H 256.218 -0.80378 1.25935 0
M  V30 2669 H 258.1 -3.96179 1.43597 0
M  V30 2670 H 256.775 -3.19528 0.518037 0
M  V30 2671 H 255.682 -2.54472 2.74217 0
M  V30 2672 H 257.015 -3.36247 3.59442 0
M  V30 2673 N 258.668 -1.30515 -0.883378 0
M  V30 2674 C 259.914 -1.19607 -1.63774 0
M  V30 2675 C 260.247 0.248314 -1.92606 0
M  V30 2676 O 259.522 1.17742 -1.54813 0
M  V30 2677 C 259.805 -2.02669 -2.97653 0
M  V30 2678 C 259.658 -3.55335 -2.75784 0
M  V30 2679 C 260.977 -1.86573 -3.98596 0
M  V30 2680 H 258.096 -0.435856 -0.594305 0
M  V30 2681 H 260.738 -1.60165 -1.02212 0
M  V30 2682 H 258.888 -1.68208 -3.50197 0
M  V30 2683 H 260.56 -3.99863 -2.30016 0
M  V30 2684 H 258.803 -3.79438 -2.1026 0
M  V30 2685 H 259.474 -4.08745 -3.70988 0
M  V30 2686 H 261.95 -2.16703 -3.55217 0
M  V30 2687 H 260.826 -2.47014 -4.90179 0
M  V30 2688 H 261.087 -0.825321 -4.34328 0
M  V30 2689 N 260.146 1.09593 -1.13257 0
M  V30 2690 C 261.109 2.14359 -0.811358 0
M  V30 2691 C 262.109 1.59808 0.178377 0
M  V30 2692 O 263.299 1.74132 -0.0484911 0
M  V30 2693 C 260.431 3.40269 -0.207276 0
M  V30 2694 H 261.624 2.44284 -1.73969 0
M  V30 2695 H 259.177 1.25102 -0.936973 0
M  V30 2696 H 259.912 3.15969 0.73036 0
M  V30 2697 H 259.697 3.81154 -0.919992 0
M  V30 2698 H 261.187 4.176 0.000667944 0
M  V30 2699 N 261.624 0.925811 1.2754 0
M  V30 2700 C 262.587 0.428129 2.25166 0
M  V30 2701 C 263.587 -0.452261 1.54309 0
M  V30 2702 O 264.777 -0.253608 1.72344 0
M  V30 2703 C 261.909 -0.384749 3.38722 0
M  V30 2704 H 263.102 1.29066 2.70706 0
M  V30 2705 H 260.655 0.706323 1.3943 0
M  V30 2706 H 261.39 -1.26618 2.98561 0
M  V30 2707 H 261.175 0.246454 3.91325 0
M  V30 2708 H 262.665 -0.723389 4.11287 0
M  V30 2709 N 263.102 -1.41638 0.69111 0
M  V30 2710 C 264.065 -2.29178 0.0319786 0
M  V30 2711 C 265.065 -1.44153 -0.712496 0
M  V30 2712 O 266.255 -1.65354 -0.548053 0
M  V30 2713 C 263.387 -3.26952 -0.965161 0
M  V30 2714 H 264.58 -2.88959 0.802681 0
M  V30 2715 H 262.133 -1.4955 0.454356 0
M  V30 2716 H 262.868 -2.72142 -1.76378 0
M  V30 2717 H 262.653 -3.89685 -0.434522 0
M  V30 2718 H 264.143 -3.92561 -1.42428 0
M  V30 2719 N 264.58 -0.43555 -1.51462 0
M  V30 2720 C 265.826 0.131709 -2.02372 0
M  V30 2721 C 266.159 1.42516 -1.3192 0
M  V30 2722 O 265.434 1.89606 -0.433573 0
M  V30 2723 C 265.717 0.352301 -3.58373 0
M  V30 2724 C 265.57 -0.959676 -4.39443 0
M  V30 2725 C 266.889 1.12286 -4.25535 0
M  V30 2726 H 264.008 0.0463936 -0.735538 0
M  V30 2727 H 266.65 -0.574197 -1.81116 0
M  V30 2728 H 264.8 0.9536 -3.76615 0
M  V30 2729 H 266.472 -1.59482 -4.32855 0
M  V30 2730 H 264.715 -1.56468 -4.04599 0
M  V30 2731 H 265.386 -0.759394 -5.46752 0
M  V30 2732 H 267.862 0.613545 -4.11552 0
M  V30 2733 H 266.738 1.24598 -5.34571 0
M  V30 2734 H 266.999 2.15048 -3.86273 0
M  V30 2735 N 266.058 1.56714 -0.166846 0
M  V30 2736 C 267.474 1.58473 0.189372 0
M  V30 2737 C 267.674 1.18201 1.63189 0
M  V30 2738 O 266.73 0.891528 2.36237 0
M  V30 2739 C 268.043 3.00573 -0.0873872 0
M  V30 2740 C 269.591 3.1299 -0.0252443 0
M  V30 2741 C 270.066 4.57174 -0.274934 0
M  V30 2742 N 271.557 4.62665 -0.222553 0
M  V30 2743 C 272.292 5.72072 -0.389985 0
M  V30 2744 N 271.788 6.90054 -0.616229 0
M  V30 2745 N 273.581 5.61153 -0.326202 0
M  V30 2746 H 265.732 1.8118 -1.10849 0
M  V30 2747 H 267.995 0.839525 -0.440342 0
M  V30 2748 H 267.701 3.34497 -1.0865 0
M  V30 2749 H 267.575 3.72019 0.623037 0
M  V30 2750 H 269.962 2.78895 0.96444 0
M  V30 2751 H 270.043 2.43989 -0.768309 0
M  V30 2752 H 269.687 4.91976 -1.26181 0
M  V30 2753 H 269.617 5.24328 0.48869 0
M  V30 2754 H 272.108 3.77863 -0.0531512 0
M  V30 2755 H 272.421 7.69311 -0.733559 0
M  V30 2756 H 270.766 6.91927 -0.652791 0
M  V30 2757 H 273.957 4.67859 -0.150072 0
M  V30 2758 H 274.13 6.46364 -0.460116 0
M  V30 2759 N 267.536 -0.106894 1.57237 0
M  V30 2760 C 268.813 -0.843526 1.76477 0
M  V30 2761 C 269.193 -1.97499 0.745464 0
M  V30 2762 O 268.541 -2.27357 -0.228306 0
M  V30 2763 C 268.751 -1.34903 3.21873 0
M  V30 2764 C 270.099 -1.79654 3.8472 0
M  V30 2765 O 271.123 -1.44554 3.2555 0
M  V30 2766 O 269.982 -2.44515 4.88748 0
M  V30 2767 H 267.076 -0.401468 0.723016 0
M  V30 2768 H 269.622 -0.0896927 1.69463 0
M  V30 2769 H 268.394 -0.53781 3.87586 0
M  V30 2770 H 268.017 -2.16522 3.33473 0
M  V30 2771 N 269.014 -1.53014 -0.377408 0
M  V30 2772 C 269.977 -1.77957 -1.44444 0
M  V30 2773 C 270.977 -0.649763 -1.47087 0
M  V30 2774 O 272.167 -0.917897 -1.48055 0
M  V30 2775 C 269.299 -1.89089 -2.83651 0
M  V30 2776 H 270.492 -2.73243 -1.23606 0
M  V30 2777 H 268.045 -1.43912 -0.609844 0
M  V30 2778 H 268.78 -0.958293 -3.09818 0
M  V30 2779 H 268.565 -2.71254 -2.83132 0
M  V30 2780 H 270.055 -2.1002 -3.60945 0
M  V30 2781 N 270.492 0.636531 -1.44174 0
M  V30 2782 C 271.74 1.39343 -1.46383 0
M  V30 2783 C 272.061 1.94766 -0.0955715 0
M  V30 2784 O 271.331 1.75452 0.871395 0
M  V30 2785 H 269.911 0.517199 -0.538994 0
M  V30 2786 H 272.573 0.74957 -1.7991 0
M  V30 2787 H 271.669 2.22746 -2.18611 0
M  V30 2788 N 271.97 1.30982 0.876444 0
M  V30 2789 C 273.218 1.20058 1.62575 0
M  V30 2790 C 273.539 -0.242947 1.93481 0
M  V30 2791 O 272.809 -1.1619 1.57724 0
M  V30 2792 H 271.389 0.44135 0.602677 0
M  V30 2793 H 274.051 1.64222 1.04962 0
M  V30 2794 H 273.147 1.76762 2.57219 0
M  V30 2795 N 273.449 -1.08991 1.13837 0
M  V30 2796 C 274.695 -1.81699 0.91417 0
M  V30 2797 C 275.05 -1.84264 -0.553594 0
M  V30 2798 O 274.343 -1.30313 -1.4046 0
M  V30 2799 C 274.537 -3.27042 1.44147 0
M  V30 2800 C 274.366 -3.38637 2.95897 0
M  V30 2801 C 273.136 -3.50177 3.64286 0
M  V30 2802 C 275.334 -3.30791 3.93804 0
M  V30 2803 N 273.316 -3.50501 5.04006 0
M  V30 2804 C 274.687 -3.38037 5.19741 0
M  V30 2805 C 276.742 -3.14488 3.86007 0
M  V30 2806 C 275.445 -3.30659 6.38793 0
M  V30 2807 C 277.471 -3.08438 5.04599 0
M  V30 2808 C 276.833 -3.1628 6.29402 0
M  V30 2809 H 272.932 -0.678967 0.387979 0
M  V30 2810 H 275.516 -1.30224 1.4474 0
M  V30 2811 H 273.687 -3.76976 0.935091 0
M  V30 2812 H 275.419 -3.87785 1.1578 0
M  V30 2813 H 272.174 -3.53815 3.1482 0
M  V30 2814 H 272.598 -3.54236 5.76928 0
M  V30 2815 H 277.24 -3.07291 2.90399 0
M  V30 2816 H 274.958 -3.36618 7.34652 0
M  V30 2817 H 278.544 -2.96952 5.0031 0
M  V30 2818 H 277.424 -3.1162 7.19627 0
M  V30 2819 N 274.927 -0.932562 -1.27047 0
M  V30 2820 C 276.173 -0.576412 -1.94436 0
M  V30 2821 C 276.506 0.880891 -1.73072 0
M  V30 2822 O 275.781 1.62905 -1.06264 0
M  V30 2823 C 276.064 -0.909031 -3.48437 0
M  V30 2824 C 275.917 -2.42044 -3.79123 0
M  V30 2825 C 277.236 -0.418341 -4.38107 0
M  V30 2826 H 274.355 -0.210888 -0.706184 0
M  V30 2827 H 276.997 -1.16522 -1.50075 0
M  V30 2828 H 275.147 -0.407947 -3.86352 0
M  V30 2829 H 276.819 -2.99359 -3.50973 0
M  V30 2830 H 275.062 -2.86758 -3.25503 0
M  V30 2831 H 275.733 -2.6037 -4.86736 0
M  V30 2832 H 278.209 -0.847856 -4.0737 0
M  V30 2833 H 277.085 -0.679981 -5.44672 0
M  V30 2834 H 277.346 0.681642 -4.36814 0
M  V30 2835 N 276.405 1.4127 -0.698611 0
M  V30 2836 C 277.368 2.29158 -0.044132 0
M  V30 2837 C 278.368 1.44529 0.704841 0
M  V30 2838 O 279.558 1.65643 0.539276 0
M  V30 2839 C 276.69 3.27459 0.947809 0
M  V30 2840 H 277.883 2.88529 -0.817994 0
M  V30 2841 H 275.436 1.49307 -0.46228 0
M  V30 2842 H 276.171 2.73073 1.74933 0
M  V30 2843 H 275.956 3.8991 0.41385 0
M  V30 2844 H 277.446 3.93311 1.40344 0
M  V30 2845 N 277.883 0.443576 1.51229 0
M  V30 2846 C 278.813 -0.355142 2.30783 0
M  V30 2847 C 279.794 -1.0154 1.36468 0
M  V30 2848 O 280.979 -1.01785 1.65389 0
M  V30 2849 C 278.109 -1.45312 3.15439 0
M  V30 2850 C 277.063 -0.916002 4.18083 0
M  V30 2851 C 276.389 -2.1102 4.91299 0
M  V30 2852 C 277.689 0.0538602 5.22272 0
M  V30 2853 H 279.383 0.308767 2.97804 0
M  V30 2854 H 276.929 0.149937 1.43217 0
M  V30 2855 H 278.882 -2.01914 3.69876 0
M  V30 2856 H 277.606 -2.14541 2.46252 0
M  V30 2857 H 276.265 -0.372145 3.64706 0
M  V30 2858 H 275.913 -2.78882 4.18609 0
M  V30 2859 H 275.613 -1.75717 5.60712 0
M  V30 2860 H 277.137 -2.68164 5.48562 0
M  V30 2861 H 278.551 -0.422069 5.71744 0
M  V30 2862 H 276.948 0.319776 5.99247 0
M  V30 2863 H 278.018 0.98858 4.74716 0
M  V30 2864 N 279.361 -1.56624 0.175154 0
M  V30 2865 C 280.609 -1.96609 -0.467885 0
M  V30 2866 C 280.93 -1.06238 -1.63519 0
M  V30 2867 O 280.2 -0.129523 -1.95471 0
M  V30 2868 H 278.78 -0.726008 -0.175845 0
M  V30 2869 H 281.442 -1.93195 0.257234 0
M  V30 2870 H 280.538 -3.00989 -0.825342 0
M  V30 2871 N 280.839 0.0985539 -1.57292 0
M  V30 2872 C 282.064 0.820196 -1.90493 0
M  V30 2873 C 282.489 1.71658 -0.769094 0
M  V30 2874 O 281.847 1.79133 0.279495 0
M  V30 2875 C 281.895 1.61242 -3.22542 0
M  V30 2876 O 280.999 2.72108 -3.09888 0
M  V30 2877 H 280.34 0.225547 -0.62452 0
M  V30 2878 H 282.87 0.0748159 -2.04463 0
M  V30 2879 H 282.88 1.99737 -3.55766 0
M  V30 2880 H 281.555 0.954535 -4.04798 0
M  V30 2881 H 280.132 2.36667 -2.88172 0
M  V30 2882 N 282.317 1.53212 0.369288 0
M  V30 2883 C 283.594 1.59815 1.12776 0
M  V30 2884 C 283.974 0.403402 2.0721 0
M  V30 2885 O 283.322 -0.606667 2.20299 0
M  V30 2886 C 283.532 2.94664 1.87013 0
M  V30 2887 C 284.88 3.49109 2.41677 0
M  V30 2888 O 285.904 2.96669 1.97144 0
M  V30 2889 O 284.763 4.40775 3.23079 0
M  V30 2890 H 281.857 0.645376 0.517125 0
M  V30 2891 H 284.403 1.65553 0.37285 0
M  V30 2892 H 283.175 3.73061 1.18071 0
M  V30 2893 H 282.798 2.92401 2.69421 0
M  V30 2894 N 283.795 -0.628877 1.44509 0
M  V30 2895 C 285.02 -1.42048 1.5112 0
M  V30 2896 C 285.445 -1.87594 0.137818 0
M  V30 2897 O 284.803 -1.58873 -0.873437 0
M  V30 2898 C 284.851 -2.61541 2.48251 0
M  V30 2899 O 283.955 -3.61453 1.98559 0
M  V30 2900 H 283.296 -0.424942 0.510216 0
M  V30 2901 H 285.826 -0.767374 1.89664 0
M  V30 2902 H 285.836 -3.09057 2.66361 0
M  V30 2903 H 284.511 -2.27736 3.48007 0
M  V30 2904 H 283.088 -3.20731 1.90227 0
M  V30 2905 N 285.273 -1.31445 -0.869486 0
M  V30 2906 C 286.223 -1.15731 -1.96444 0
M  V30 2907 C 287.207 -0.0681855 -1.60755 0
M  V30 2908 O 288.399 -0.293154 -1.74555 0
M  V30 2909 C 285.528 -0.867255 -3.32165 0
M  V30 2910 C 284.614 -1.99738 -3.74119 0
M  V30 2911 N 285.005 -3.24447 -3.88031 0
M  V30 2912 C 283.303 -1.89723 -4.03635 0
M  V30 2913 C 284.004 -3.98374 -4.23879 0
M  V30 2914 N 282.98 -3.26547 -4.3459 0
M  V30 2915 H 286.782 -2.10296 -2.05312 0
M  V30 2916 H 284.296 -1.23009 -1.06031 0
M  V30 2917 H 286.293 -0.735668 -4.10358 0
M  V30 2918 H 284.953 0.0701614 -3.24624 0
M  V30 2919 H 285.964 -3.59557 -3.72746 0
M  V30 2920 H 282.641 -1.03449 -4.04481 0
M  V30 2921 H 284.031 -5.05844 -4.42235 0
M  V30 2922 N 286.751 1.08385 -1.14413 0
M  V30 2923 C 287.979 1.84517 -0.936001 0
M  V30 2924 C 288.394 1.81626 0.515503 0
M  V30 2925 O 287.751 1.22008 1.35721 0
M  V30 2926 C 287.802 3.32049 -1.42918 0
M  V30 2927 O 287.523 3.34951 -2.82381 0
M  V30 2928 C 289.024 4.24986 -1.26103 0
M  V30 2929 H 286.244 0.582491 -0.333084 0
M  V30 2930 H 288.788 1.36885 -1.5193 0
M  V30 2931 H 286.943 3.7707 -0.888641 0
M  V30 2932 H 287.357 4.27048 -3.04517 0
M  V30 2933 H 288.831 5.26615 -1.6547 0
M  V30 2934 H 289.308 4.38726 -0.20392 0
M  V30 2935 H 289.914 3.85791 -1.79012 0
M  V30 2936 N 288.23 0.939286 1.26551 0
M  V30 2937 C 289.193 0.451987 2.24699 0
M  V30 2938 C 290.193 -0.435869 1.5478 0
M  V30 2939 O 291.383 -0.235314 1.72603 0
M  V30 2940 C 288.515 -0.348801 3.39111 0
M  V30 2941 H 289.708 1.3193 2.69322 0
M  V30 2942 H 287.261 0.721072 1.38673 0
M  V30 2943 H 287.996 -1.23444 2.99887 0
M  V30 2944 H 287.781 0.287945 3.91041 0
M  V30 2945 H 289.271 -0.679726 4.12031 0
M  V30 2946 N 289.708 -1.40897 0.706093 0
M  V30 2947 C 290.955 -2.01054 0.241531 0
M  V30 2948 C 291.283 -1.55956 -1.16223 0
M  V30 2949 O 290.538 -0.766336 -1.80072 0
M  V30 2950 C 290.837 -3.5646 0.259099 0
M  V30 2951 C 290.503 -4.21106 1.61184 0
M  V30 2952 C 289.165 -4.38479 1.98216 0
M  V30 2953 C 291.517 -4.57256 2.50132 0
M  V30 2954 C 288.845 -4.89282 3.2376 0
M  V30 2955 C 291.197 -5.09454 3.7502 0
M  V30 2956 C 289.861 -5.25037 4.12181 0
M  V30 2957 H 289.131 -0.73571 0.0883825 0
M  V30 2958 H 291.778 -1.68645 0.907257 0
M  V30 2959 H 290.083 -3.88721 -0.490189 0
M  V30 2960 H 291.78 -4.00826 -0.11804 0
M  V30 2961 H 288.37 -4.07966 1.31384 0
M  V30 2962 H 292.554 -4.43479 2.228 0
M  V30 2963 H 287.81 -4.99531 3.52532 0
M  V30 2964 H 291.984 -5.36404 4.44121 0
M  V30 2965 H 289.611 -5.64164 5.09532 0
M  V30 2966 N 291.186 -0.45159 -1.50991 0
M  V30 2967 C 292.414 0.108334 -2.06616 0
M  V30 2968 C 292.829 1.35224 -1.31757 0
M  V30 2969 O 292.186 1.78475 -0.381174 0
M  V30 2970 C 292.237 0.41619 -3.59096 0
M  V30 2971 O 291.958 -0.778361 -4.3113 0
M  V30 2972 C 293.459 1.02523 -4.31282 0
M  V30 2973 H 290.679 0.00159995 -0.670998 0
M  V30 2974 H 293.223 -0.634771 -1.94399 0
M  V30 2975 H 291.378 1.10921 -3.71181 0
M  V30 2976 H 291.792 -0.511181 -5.22003 0
M  V30 2977 H 293.266 1.19053 -5.39009 0
M  V30 2978 H 293.743 2.01013 -3.905 0
M  V30 2979 H 294.349 0.371173 -4.23677 0
M  V30 2980 N 292.664 1.56529 -0.183458 0
M  V30 2981 C 293.597 2.14417 0.781052 0
M  V30 2982 C 294.575 1.07761 1.21763 0
M  V30 2983 O 295.759 1.35807 1.30724 0
M  V30 2984 C 292.886 2.69361 2.05335 0
M  V30 2985 C 291.932 3.885 1.75982 0
M  V30 2986 S 292.765 5.27568 0.918256 0
M  V30 2987 C 293.921 5.85926 2.20095 0
M  V30 2988 H 294.154 2.95893 0.2889 0
M  V30 2989 H 291.687 1.54368 0.0313844 0
M  V30 2990 H 293.645 3.01662 2.78406 0
M  V30 2991 H 292.306 1.87949 2.51663 0
M  V30 2992 H 291.499 4.25314 2.70415 0
M  V30 2993 H 291.101 3.57149 1.10999 0
M  V30 2994 H 293.393 5.99579 3.15453 0
M  V30 2995 H 294.336 6.82761 1.87731 0
M  V30 2996 H 294.744 5.14438 2.32409 0
M  V30 2997 N 294.142 -0.090211 1.57342 0
M  V30 2998 C 295.39 -0.791241 1.85967 0
M  V30 2999 C 295.711 -1.7903 0.772859 0
M  V30 3000 O 294.981 -1.94872 -0.200398 0
M  V30 3001 H 293.561 -0.295205 0.686195 0
M  V30 3002 H 296.223 -0.0706782 1.94772 0
M  V30 3003 H 295.319 -1.31882 2.82867 0
M  V30 3004 N 295.62 -1.53406 -0.361157 0
M  V30 3005 C 296.53 -1.83122 -1.4664 0
M  V30 3006 C 297.546 -0.719943 -1.58407 0
M  V30 3007 O 298.722 -1.01046 -1.74218 0
M  V30 3008 C 295.787 -2.01891 -2.81853 0
M  V30 3009 C 294.848 -3.25784 -2.79577 0
M  V30 3010 C 294.081 -3.43648 -4.0834 0
M  V30 3011 O 294.304 -2.65714 -5.0473 0
M  V30 3012 O 293.238 -4.37018 -4.13883 0
M  V30 3013 H 297.064 -2.7703 -1.24451 0
M  V30 3014 H 294.649 -1.38841 -0.551678 0
M  V30 3015 H 296.531 -2.15782 -3.61962 0
M  V30 3016 H 295.206 -1.11173 -3.0401 0
M  V30 3017 H 294.113 -3.17312 -1.98151 0
M  V30 3018 H 295.446 -4.16439 -2.62373 0
M  V30 3019 N 297.098 0.621204 -1.44841 0
M  V30 3020 C 298.345 1.38055 -1.48145 0
M  V30 3021 C 298.673 1.94143 -0.117867 0
M  V30 3022 O 297.928 1.74713 0.881694 0
M  V30 3023 C 298.227 2.55675 -2.4973 0
M  V30 3024 C 297.893 2.17817 -3.94799 0
M  V30 3025 C 296.555 2.07205 -4.34303 0
M  V30 3026 C 298.907 1.88065 -4.86087 0
M  V30 3027 C 296.235 1.65045 -5.63007 0
M  V30 3028 C 298.587 1.47394 -6.15189 0
M  V30 3029 C 297.251 1.35331 -6.53637 0
M  V30 3030 H 296.521 0.505181 -0.542101 0
M  V30 3031 H 299.168 0.703477 -1.78111 0
M  V30 3032 H 297.473 3.2866 -2.13284 0
M  V30 3033 H 299.17 3.13904 -2.4953 0
M  V30 3034 H 295.76 2.26998 -3.63552 0
M  V30 3035 H 299.944 1.95168 -4.56315 0
M  V30 3036 H 295.2 1.54317 -5.91605 0
M  V30 3037 H 299.374 1.23415 -6.85377 0
M  V30 3038 H 297.001 1.02435 -7.53267 0
M  V30 3039 N 298.576 1.31904 0.862503 0
M  V30 3040 C 299.486 1.22161 2.00285 0
M  V30 3041 C 300.502 0.136785 1.73462 0
M  V30 3042 O 301.678 0.355994 1.98229 0
M  V30 3043 C 298.743 0.937093 3.33796 0
M  V30 3044 C 297.804 2.10957 3.73893 0
M  V30 3045 C 297.037 1.83853 5.01033 0
M  V30 3046 O 297.26 0.777274 5.65079 0
M  V30 3047 O 296.194 2.69741 5.38074 0
M  V30 3048 H 300.02 2.18008 2.11439 0
M  V30 3049 H 297.605 1.11716 0.991957 0
M  V30 3050 H 299.487 0.794583 4.13841 0
M  V30 3051 H 298.162 0.00871894 3.23699 0
M  V30 3052 H 297.069 2.30752 2.94456 0
M  V30 3053 H 298.402 3.02046 3.88625 0
M  V30 3054 N 300.054 -1.07777 1.14986 0
M  V30 3055 C 300.964 -2.18404 0.856546 0
M  V30 3056 C 301.98 -1.73211 -0.165485 0
M  V30 3057 O 303.156 -2.01399 0.00755219 0
M  V30 3058 C 300.221 -3.44977 0.34526 0
M  V30 3059 C 299.282 -4.0476 1.43065 0
M  V30 3060 C 298.515 -5.25291 0.943663 0
M  V30 3061 O 298.738 -5.70004 -0.212426 0
M  V30 3062 O 297.672 -5.76638 1.72547 0
M  V30 3063 H 301.498 -2.45978 1.78125 0
M  V30 3064 H 299.083 -1.17033 0.928631 0
M  V30 3065 H 300.965 -4.21348 0.0663671 0
M  V30 3066 H 299.64 -3.18965 -0.551631 0
M  V30 3067 H 298.547 -3.29949 1.76309 0
M  V30 3068 H 299.88 -4.35035 2.30229 0
M  V30 3069 N 301.532 -0.945985 -1.26051 0
M  V30 3070 C 302.772 -0.603665 -1.95282 0
M  V30 3071 C 303.136 0.842377 -1.72534 0
M  V30 3072 O 304.337 1.29387 -2.35611 0
M  V30 3073 C 302.608 -0.942292 -3.44754 0
M  V30 3074 S 304.167 -0.711242 -4.32997 0
M  V30 3075 H 300.985 -0.222176 -0.675395 0
M  V30 3076 H 303.587 -1.21832 -1.52896 0
M  V30 3077 H 302.291 -1.99203 -3.58812 0
M  V30 3078 H 301.822 -0.317546 -3.92116 0
M  V30 3079 H 303.837 0.422221 -4.944 0
M  V30 3080 N 303.011 1.40521 -0.713556 0
M  V30 3081 C 303.941 2.33381 -0.0743864 0
M  V30 3082 C 304.922 1.52784 0.747735 0
M  V30 3083 O 306.107 1.81258 0.697071 0
M  V30 3084 C 303.237 3.36748 0.849598 0
M  V30 3085 C 302.191 4.27793 0.133247 0
M  V30 3086 C 301.517 5.21679 1.17281 0
M  V30 3087 C 302.817 5.12415 -1.01134 0
M  V30 3088 H 304.511 2.87081 -0.850007 0
M  V30 3089 H 302.057 1.38034 -0.410201 0
M  V30 3090 H 304.01 4.00648 1.30612 0
M  V30 3091 H 302.734 2.81439 1.65709 0
M  V30 3092 H 301.393 3.65342 -0.303426 0
M  V30 3093 H 301.041 4.62677 1.9733 0
M  V30 3094 H 300.741 5.83435 0.698397 0
M  V30 3095 H 302.265 5.88456 1.62947 0
M  V30 3096 H 303.679 5.69781 -0.634274 0
M  V30 3097 H 302.076 5.83203 -1.41399 0
M  V30 3098 H 303.146 4.48514 -1.84292 0
M  V30 3099 N 304.489 0.459591 1.5075 0
M  V30 3100 C 305.436 -0.340524 2.28274 0
M  V30 3101 C 306.406 -0.997371 1.32822 0
M  V30 3102 O 307.591 -1.01202 1.61749 0
M  V30 3103 C 304.731 -1.42317 3.14388 0
M  V30 3104 C 303.844 -0.782251 4.24859 0
M  V30 3105 C 302.979 -1.84182 4.98247 0
M  V30 3106 C 302.018 -1.18053 6.00608 0
M  V30 3107 N 301.155 -2.18244 6.67319 0
M  V30 3108 H 305.995 0.326899 2.96202 0
M  V30 3109 H 303.532 0.173057 1.46078 0
M  V30 3110 H 305.49 -2.06241 3.62658 0
M  V30 3111 H 304.12 -2.05992 2.4853 0
M  V30 3112 H 303.172 -0.0307404 3.80388 0
M  V30 3113 H 304.484 -0.259663 4.98124 0
M  V30 3114 H 303.638 -2.55714 5.50177 0
M  V30 3115 H 302.377 -2.39819 4.24662 0
M  V30 3116 H 301.382 -0.450776 5.47949 0
M  V30 3117 H 302.607 -0.631202 6.7616 0
M  V30 3118 H 300.553 -2.72919 5.96533 0
M  V30 3119 H 300.47 -1.70938 7.36421 0
M  V30 3120 H 301.738 -2.89191 7.23871 0
M  V30 3121 N 305.967 -1.56429 0.191757 0
M  V30 3122 C 307.216 -1.9666 -0.448088 0
M  V30 3123 C 307.529 -1.08136 -1.62991 0
M  V30 3124 O 308.735 -1.38135 -2.33733 0
M  V30 3125 C 307.191 -3.49753 -0.848585 0
M  V30 3126 C 306.799 -4.46935 0.308764 0
M  V30 3127 C 308.543 -3.9876 -1.4557 0
M  V30 3128 C 306.45 -5.91293 -0.112506 0
M  V30 3129 H 305.38 -0.734312 -0.171179 0
M  V30 3130 H 308.031 -1.81301 0.283242 0
M  V30 3131 H 306.413 -3.60604 -1.63649 0
M  V30 3132 H 307.587 -4.47813 1.08627 0
M  V30 3133 H 305.902 -4.08102 0.827158 0
M  V30 3134 H 308.499 -5.04086 -1.78328 0
M  V30 3135 H 308.842 -3.42875 -2.36099 0
M  V30 3136 H 309.375 -3.9101 -0.731836 0
M  V30 3137 H 306.114 -6.51097 0.758514 0
M  V30 3138 H 305.634 -5.93676 -0.854941 0
M  V30 3139 H 307.313 -6.44663 -0.549448 0
M  V30 3140 N 307.445 0.0818655 -1.57387 0
M  V30 3141 C 308.375 1.09885 -2.06028 0
M  V30 3142 C 309.356 1.4098 -0.951774 0
M  V30 3143 O 310.541 1.50781 -1.22387 0
M  V30 3144 C 307.671 2.4151 -2.4958 0
M  V30 3145 C 306.625 2.24792 -3.64215 0
M  V30 3146 C 305.951 3.61712 -3.93787 0
M  V30 3147 C 307.251 1.67749 -4.94629 0
M  V30 3148 H 308.945 0.694128 -2.91243 0
M  V30 3149 H 306.491 0.332448 -1.4011 0
M  V30 3150 H 308.444 3.12939 -2.82219 0
M  V30 3151 H 307.168 2.83943 -1.61381 0
M  V30 3152 H 305.827 1.55807 -3.31843 0
M  V30 3153 H 305.475 4.01697 -3.02735 0
M  V30 3154 H 305.175 3.51368 -4.70971 0
M  V30 3155 H 306.699 4.34587 -4.28913 0
M  V30 3156 H 308.113 2.29032 -5.25564 0
M  V30 3157 H 306.51 1.68128 -5.76067 0
M  V30 3158 H 307.58 0.638059 -4.80684 0
M  V30 3159 N 308.923 1.53595 0.353017 0
M  V30 3160 C 310.2 1.61002 1.11075 0
M  V30 3161 C 310.58 0.425356 2.0677 0
M  V30 3162 O 309.928 -0.583267 2.2093 0
M  V30 3163 C 310.138 2.96631 1.83877 0
M  V30 3164 C 311.486 3.51653 2.37961 0
M  V30 3165 O 312.51 2.98743 1.93987 0
M  V30 3166 O 311.369 4.44177 3.18386 0
M  V30 3167 H 308.463 0.650825 0.510251 0
M  V30 3168 H 311.009 1.6594 0.35527 0
M  V30 3169 H 309.781 3.74293 1.14108 0
M  V30 3170 H 309.404 2.95242 2.66304 0
M  V30 3171 N 310.401 -0.613514 1.45168 0
M  V30 3172 C 311.364 -1.7065 1.53007 0
M  V30 3173 C 312.364 -1.5548 0.410184 0
M  V30 3174 O 313.554 -1.60656 0.673455 0
M  V30 3175 C 310.686 -3.09875 1.42093 0
M  V30 3176 H 311.879 -1.65068 2.50385 0
M  V30 3177 H 309.432 -0.828728 1.32521 0
M  V30 3178 H 310.167 -3.21039 0.458769 0
M  V30 3179 H 309.952 -3.22293 2.23315 0
M  V30 3180 H 311.442 -3.895 1.50598 0
M  V30 3181 N 311.879 -1.3236 -0.855495 0
M  V30 3182 C 313.125 -1.23054 -1.612 0
M  V30 3183 C 313.458 0.207404 -1.93089 0
M  V30 3184 O 312.733 1.14432 -1.57275 0
M  V30 3185 C 313.016 -2.08937 -2.93287 0
M  V30 3186 C 312.869 -3.61105 -2.68185 0
M  V30 3187 C 314.188 -1.94986 -3.94549 0
M  V30 3188 H 311.307 -0.448364 -0.584926 0
M  V30 3189 H 313.949 -1.62297 -0.987917 0
M  V30 3190 H 312.099 -1.75599 -3.46551 0
M  V30 3191 H 313.771 -4.04652 -2.21483 0
M  V30 3192 H 312.014 -3.83813 -2.02164 0
M  V30 3193 H 312.685 -4.16522 -3.62234 0
M  V30 3194 H 315.161 -2.24189 -3.5054 0
M  V30 3195 H 314.037 -2.57356 -4.84829 0
M  V30 3196 H 314.298 -0.917263 -4.3248 0
M  V30 3197 N 313.357 1.07166 -1.15556 0
M  V30 3198 C 314.634 1.76546 -0.842069 0
M  V30 3199 C 315.014 2.00453 0.661939 0
M  V30 3200 O 314.362 1.62452 1.60691 0
M  V30 3201 C 314.572 3.07266 -1.65495 0
M  V30 3202 C 315.92 3.81578 -1.86234 0
M  V30 3203 O 316.944 3.17083 -1.62287 0
M  V30 3204 O 315.803 4.97419 -2.26355 0
M  V30 3205 H 312.897 0.766756 -0.309862 0
M  V30 3206 H 315.443 1.13514 -1.26145 0
M  V30 3207 H 314.215 2.85494 -2.67598 0
M  V30 3208 H 313.838 3.7803 -1.23203 0
M  V30 3209 N 314.835 0.952656 1.25548 0
M  V30 3210 C 316.082 0.606373 1.93208 0
M  V30 3211 C 316.41 -0.85631 1.74636 0
M  V30 3212 O 315.665 -1.62951 1.08376 0
M  V30 3213 C 315.964 0.908818 3.45652 0
M  V30 3214 C 315.63 2.35722 3.84378 0
M  V30 3215 C 314.292 2.75312 3.9466 0
M  V30 3216 C 316.644 3.29793 4.03591 0
M  V30 3217 C 313.972 4.08047 4.21562 0
M  V30 3218 C 316.324 4.62138 4.31985 0
M  V30 3219 C 314.988 5.01528 4.40484 0
M  V30 3220 H 314.258 0.221888 0.706998 0
M  V30 3221 H 316.905 1.20132 1.49133 0
M  V30 3222 H 315.21 0.231456 3.91116 0
M  V30 3223 H 316.907 0.619498 3.96186 0
M  V30 3224 H 313.497 2.04017 3.76928 0
M  V30 3225 H 317.681 3.00397 3.95064 0
M  V30 3226 H 312.937 4.38212 4.26357 0
M  V30 3227 H 317.111 5.35012 4.45797 0
M  V30 3228 H 314.738 6.04406 4.61083 0
M  V30 3229 N 316.313 -1.40141 0.720998 0
M  V30 3230 C 317.724 -1.83678 0.334553 0
M  V30 3231 C 318.075 -1.6027 -1.13173 0
M  V30 3232 O 317.2 -1.08643 -1.87152 0
M  V30 3233 C 317.795 -3.33437 0.600437 0
M  V30 3234 C 316.354 -3.75447 0.267642 0
M  V30 3235 C 315.501 -2.63296 0.870097 0
M  V30 3236 H 318.452 -1.29331 0.919732 0
M  V30 3237 H 318.473 -3.80269 -0.132517 0
M  V30 3238 H 317.985 -3.50442 1.66768 0
M  V30 3239 H 316.086 -3.64035 -0.794329 0
M  V30 3240 H 316.199 -4.73344 0.74042 0
M  V30 3241 H 314.563 -2.52954 0.297739 0
M  V30 3242 H 315.346 -2.83112 1.94172 0
M  V30 3243 N 317.792 -0.46758 -1.50504 0
M  V30 3244 C 319.203 -0.0116166 -1.86696 0
M  V30 3245 C 319.554 1.39202 -1.38265 0
M  V30 3246 O 318.679 2.0313 -0.746132 0
M  V30 3247 C 319.274 -0.0143044 -3.38797 0
M  V30 3248 C 317.833 0.386175 -3.74414 0
M  V30 3249 C 316.98 -0.401287 -2.74381 0
M  V30 3250 H 319.931 -0.682022 -1.43297 0
M  V30 3251 H 319.952 0.788641 -3.72237 0
M  V30 3252 H 319.464 -1.03602 -3.74016 0
M  V30 3253 H 317.565 1.41237 -3.44794 0
M  V30 3254 H 317.678 0.0899596 -4.79016 0
M  V30 3255 H 316.042 0.144536 -2.5429 0
M  V30 3256 H 316.825 -1.42244 -3.12444 0
M  V30 3257 N 319.27 1.56325 -0.20005 0
M  V30 3258 C 320.18 2.22931 0.730668 0
M  V30 3259 C 321.196 1.22997 1.23076 0
M  V30 3260 O 322.372 1.55748 1.27689 0
M  V30 3261 C 319.437 2.87948 1.93098 0
M  V30 3262 C 318.498 4.03166 1.47497 0
M  V30 3263 C 317.731 4.65073 2.61807 0
M  V30 3264 O 317.954 4.25913 3.79413 0
M  V30 3265 O 316.888 5.54452 2.34237 0
M  V30 3266 H 320.714 3.03084 0.193391 0
M  V30 3267 H 318.299 1.49371 0.0294621 0
M  V30 3268 H 320.181 3.29063 2.6324 0
M  V30 3269 H 318.856 2.10771 2.45677 0
M  V30 3270 H 317.763 3.66664 0.742201 0
M  V30 3271 H 319.096 4.82022 0.995796 0
M  V30 3272 N 320.748 -0.0735177 1.57428 0
M  V30 3273 C 322.164 -0.428264 1.53747 0
M  V30 3274 C 322.364 -1.79272 0.91998 0
M  V30 3275 O 321.42 -2.47051 0.521745 0
M  V30 3276 C 322.733 -0.370914 2.98404 0
M  V30 3277 C 324.281 -0.451224 3.0973 0
M  V30 3278 C 324.756 -0.4238 4.56035 0
M  V30 3279 N 326.247 -0.483925 4.60665 0
M  V30 3280 C 326.982 -0.484891 5.71346 0
M  V30 3281 N 326.478 -0.440775 6.91396 0
M  V30 3282 N 328.271 -0.531319 5.59583 0
M  V30 3283 H 320.422 0.819949 1.95935 0
M  V30 3284 H 322.685 0.307493 0.896745 0
M  V30 3285 H 322.391 0.564956 3.47133 0
M  V30 3286 H 322.265 -1.18176 3.5821 0
M  V30 3287 H 324.652 -1.37752 2.60976 0
M  V30 3288 H 324.733 0.388167 2.52838 0
M  V30 3289 H 324.377 0.498638 5.05446 0
M  V30 3290 H 324.307 -1.2807 5.10789 0
M  V30 3291 H 326.798 -0.522338 3.74273 0
M  V30 3292 H 327.111 -0.44539 7.71515 0
M  V30 3293 H 325.456 -0.40749 6.93804 0
M  V30 3294 H 328.647 -0.563464 4.64696 0
M  V30 3295 H 328.82 -0.528603 6.4584 0
M  V30 3296 N 322.226 -1.5378 -0.344866 0
M  V30 3297 C 323.475 -1.7018 -1.08267 0
M  V30 3298 C 323.788 -0.471 -1.89845 0
M  V30 3299 O 324.994 -0.515917 -2.66553 0
M  V30 3300 C 323.45 -3.00923 -1.97417 0
M  V30 3301 C 323.058 -4.31335 -1.21053 0
M  V30 3302 C 324.802 -3.26688 -2.71063 0
M  V30 3303 C 322.709 -5.53153 -2.09225 0
M  V30 3304 H 321.639 -0.634138 -0.407903 0
M  V30 3305 H 324.29 -1.8028 -0.342246 0
M  V30 3306 H 322.672 -2.84676 -2.75274 0
M  V30 3307 H 323.846 -4.58281 -0.481159 0
M  V30 3308 H 322.161 -4.12173 -0.591813 0
M  V30 3309 H 324.758 -4.1489 -3.37299 0
M  V30 3310 H 325.101 -2.43639 -3.37558 0
M  V30 3311 H 325.634 -3.43705 -2.0028 0
M  V30 3312 H 322.373 -6.38741 -1.47274 0
M  V30 3313 H 321.893 -5.30458 -2.79955 0
M  V30 3314 H 323.572 -5.88744 -2.68308 0
M  V30 3315 N 323.704 0.605807 -1.45491 0
M  V30 3316 C 324.634 1.72709 -1.57143 0
M  V30 3317 C 325.615 1.6476 -0.422884 0
M  V30 3318 O 326.8 1.83132 -0.646247 0
M  V30 3319 C 323.93 3.11316 -1.53948 0
M  V30 3320 C 322.884 3.34077 -2.67537 0
M  V30 3321 C 322.21 4.72975 -2.49397 0
M  V30 3322 C 323.51 3.24158 -4.09535 0
M  V30 3323 H 325.204 1.63214 -2.51001 0
M  V30 3324 H 322.75 0.78379 -1.208 0
M  V30 3325 H 324.703 3.89557 -1.60696 0
M  V30 3326 H 323.427 3.21655 -0.566205 0
M  V30 3327 H 322.086 2.58227 -2.6022 0
M  V30 3328 H 321.734 4.8005 -1.50205 0
M  V30 3329 H 321.434 4.8916 -3.25571 0
M  V30 3330 H 322.958 5.53414 -2.58002 0
M  V30 3331 H 324.372 3.92271 -4.18086 0
M  V30 3332 H 322.769 3.51872 -4.86113 0
M  V30 3333 H 323.839 2.2157 -4.31317 0
M  V30 3334 N 325.182 1.32811 0.848464 0
M  V30 3335 C 326.13 1.22231 1.97895 0
M  V30 3336 C 327.124 0.125749 1.68933 0
M  V30 3337 O 328.33 0.289083 1.77663 0
M  V30 3338 H 324.705 0.379058 0.649476 0
M  V30 3339 H 326.676 2.17828 2.03945 0
M  V30 3340 C 325.425 0.968572 3.33937 0
M  V30 3341 H 324.748 1.80458 3.56756 0
M  V30 3342 H 326.188 0.934808 4.13567 0
M  V30 3343 C 324.647 -0.328628 3.35293 0
M  V30 3344 O 325.177 -1.33848 3.78745 0
M  V30 3345 N 323.383 -0.352788 2.88451 0
M  V30 3346 H 322.93 0.469541 2.53285 0
M  V30 3347 H 322.888 -1.22057 2.89741 0
M  V30 3348 N 326.66 -1.06551 1.16123 0
M  V30 3349 C 327.906 -1.79567 0.94252 0
M  V30 3350 C 328.239 -1.86869 -0.528547 0
M  V30 3351 O 327.514 -1.35838 -1.39206 0
M  V30 3352 C 327.797 -3.24195 1.56747 0
M  V30 3353 C 327.65 -3.24989 3.10969 0
M  V30 3354 C 328.969 -4.21678 1.25998 0
M  V30 3355 H 326.088 -0.651883 0.343828 0
M  V30 3356 H 328.73 -1.2463 1.43413 0
M  V30 3357 H 326.88 -3.71107 1.14942 0
M  V30 3358 H 328.552 -2.86258 3.61737 0
M  V30 3359 H 326.795 -2.63716 3.44436 0
M  V30 3360 H 327.466 -4.27005 3.49815 0
M  V30 3361 H 329.942 -3.83196 1.62174 0
M  V30 3362 H 328.818 -5.21146 1.7233 0
M  V30 3363 H 329.079 -4.4174 0.178367 0
M  V30 3364 N 328.138 -0.959301 -1.25041 0
M  V30 3365 C 329.363 -0.633507 -1.97488 0
M  V30 3366 C 329.788 0.788555 -1.70773 0
M  V30 3367 O 329.146 1.53394 -0.966431 0
M  V30 3368 C 329.194 -0.904057 -3.49083 0
M  V30 3369 O 328.298 0.0147939 -4.12397 0
M  V30 3370 H 327.639 -0.240368 -0.618966 0
M  V30 3371 H 330.169 -1.28717 -1.59038 0
M  V30 3372 H 330.179 -0.832203 -3.99423 0
M  V30 3373 H 328.854 -1.94048 -3.67856 0
M  V30 3374 H 327.431 -0.109664 -3.72739 0
M  V30 3375 N 329.616 1.39756 -0.72842 0
M  V30 3376 C 331.027 1.83498 -0.344289 0
M  V30 3377 C 331.378 1.60868 1.12321 0
M  V30 3378 O 330.503 1.09634 1.86573 0
M  V30 3379 C 331.098 3.33114 -0.618112 0
M  V30 3380 C 329.657 3.753 -0.287549 0
M  V30 3381 C 328.804 2.62831 -0.884048 0
M  V30 3382 H 331.755 1.28842 -0.926578 0
M  V30 3383 H 331.776 3.80334 0.112349 0
M  V30 3384 H 331.288 3.49553 -1.68625 0
M  V30 3385 H 329.389 3.64451 0.775012 0
M  V30 3386 H 329.502 4.72945 -0.765512 0
M  V30 3387 H 327.866 2.52792 -0.311149 0
M  V30 3388 H 328.649 2.82078 -1.95671 0
M  V30 3389 N 331.094 0.475555 1.50254 0
M  V30 3390 C 332.51 0.12997 1.5907 0
M  V30 3391 C 332.71 -1.36385 1.48328 0
M  V30 3392 O 331.766 -2.13754 1.34407 0
M  V30 3393 C 333.079 0.684139 2.92814 0
M  V30 3394 C 334.627 0.647965 3.0622 0
M  V30 3395 C 335.102 1.17975 4.42545 0
M  V30 3396 N 336.593 1.13936 4.48969 0
M  V30 3397 C 337.328 1.52129 5.52851 0
M  V30 3398 N 336.824 1.97793 6.63965 0
M  V30 3399 N 338.617 1.43704 5.4342 0
M  V30 3400 H 330.768 1.44706 1.55479 0
M  V30 3401 H 333.031 0.598691 0.735033 0
M  V30 3402 H 332.737 1.73079 3.06164 0
M  V30 3403 H 332.611 0.130204 3.76975 0
M  V30 3404 H 334.998 -0.38979 2.92514 0
M  V30 3405 H 335.079 1.23876 2.23805 0
M  V30 3406 H 334.723 2.21616 4.57 0
M  V30 3407 H 334.653 0.565138 5.23559 0
M  V30 3408 H 337.144 0.804488 3.69238 0
M  V30 3409 H 337.457 2.25072 7.39299 0
M  V30 3410 H 335.802 2.01749 6.65073 0
M  V30 3411 H 338.993 1.07867 4.55502 0
M  V30 3412 H 339.166 1.73794 6.24259 0
M  V30 3413 N 332.573 -1.56217 0.208337 0
M  V30 3414 C 333.989 -1.58919 -0.14729 0
M  V30 3415 C 334.189 -1.22486 -1.59998 0
M  V30 3416 O 333.245 -0.953849 -2.3379 0
M  V30 3417 C 334.558 -3.00236 0.167048 0
M  V30 3418 C 336.106 -3.12813 0.108219 0
M  V30 3419 C 336.581 -4.56284 0.396049 0
M  V30 3420 N 338.072 -4.61912 0.345142 0
M  V30 3421 C 338.807 -5.70837 0.541523 0
M  V30 3422 N 338.303 -6.88178 0.798968 0
M  V30 3423 N 340.096 -5.60091 0.474867 0
M  V30 3424 H 332.247 -1.78177 1.15614 0
M  V30 3425 H 334.51 -0.827555 0.462446 0
M  V30 3426 H 334.216 -3.31499 1.1748 0
M  V30 3427 H 334.09 -3.7354 -0.524184 0
M  V30 3428 H 336.477 -2.81354 -0.890157 0
M  V30 3429 H 336.558 -2.41866 0.832729 0
M  V30 3430 H 336.202 -4.88458 1.3918 0
M  V30 3431 H 336.132 -5.25439 -0.349502 0
M  V30 3432 H 338.623 -3.77589 0.153316 0
M  V30 3433 H 338.936 -7.67095 0.93727 0
M  V30 3434 H 337.281 -6.89953 0.836013 0
M  V30 3435 H 340.472 -4.67297 0.274064 0
M  V30 3436 H 340.645 -6.44917 0.631326 0
M  V30 3437 N 334.051 0.0651679 -1.57465 0
M  V30 3438 C 334.981 1.07693 -2.07182 0
M  V30 3439 C 335.962 1.39962 -0.966673 0
M  V30 3440 O 337.147 1.49475 -1.2398 0
M  V30 3441 C 334.277 2.3885 -2.52127 0
M  V30 3442 C 333.231 2.20917 -3.66579 0
M  V30 3443 C 332.557 3.57515 -3.97601 0
M  V30 3444 C 333.857 1.62493 -4.9638 0
M  V30 3445 H 335.551 0.663199 -2.91962 0
M  V30 3446 H 333.097 0.317569 -1.40455 0
M  V30 3447 H 335.05 3.09928 -2.85522 0
M  V30 3448 H 333.774 2.82215 -1.64384 0
M  V30 3449 H 332.433 1.52279 -3.33477 0
M  V30 3450 H 332.081 3.98463 -3.06979 0
M  V30 3451 H 331.781 3.46353 -4.74672 0
M  V30 3452 H 333.305 4.30013 -4.33499 0
M  V30 3453 H 334.719 2.23445 -5.27963 0
M  V30 3454 H 333.116 1.62009 -5.77818 0
M  V30 3455 H 334.186 0.587041 -4.81333 0
M  V30 3456 N 335.529 1.53961 0.336706 0
M  V30 3457 C 336.459 1.85417 1.41925 0
M  V30 3458 C 337.44 0.709856 1.5458 0
M  V30 3459 O 338.625 0.962396 1.68676 0
M  V30 3460 C 335.755 2.06985 2.78881 0
M  V30 3461 C 334.709 3.22813 2.81026 0
M  V30 3462 C 334.035 3.29727 4.20932 0
M  V30 3463 C 335.335 4.60767 2.45949 0
M  V30 3464 H 337.029 2.76079 1.15848 0
M  V30 3465 H 334.575 1.32839 0.555859 0
M  V30 3466 H 336.528 2.27575 3.54665 0
M  V30 3467 H 335.252 1.13061 3.06406 0
M  V30 3468 H 333.911 3.0209 2.07695 0
M  V30 3469 H 333.559 2.33385 4.45579 0
M  V30 3470 H 333.259 4.07566 4.23277 0
M  V30 3471 H 334.783 3.52536 4.98549 0
M  V30 3472 H 336.197 4.81325 3.11446 0
M  V30 3473 H 334.594 5.4106 2.59566 0
M  V30 3474 H 335.664 4.6391 1.41122 0
M  V30 3475 N 337.007 -0.598083 1.45811 0
M  V30 3476 C 337.955 -1.72932 1.55555 0
M  V30 3477 C 338.949 -1.63984 0.424921 0
M  V30 3478 O 340.155 -1.69663 0.601205 0
M  V30 3479 H 336.53 -0.571489 0.488779 0
M  V30 3480 H 338.501 -1.61842 2.50699 0
M  V30 3481 C 337.25 -3.11318 1.54843 0
M  V30 3482 H 336.573 -3.18867 2.41172 0
M  V30 3483 H 338.013 -3.90274 1.65717 0
M  V30 3484 C 336.472 -3.3578 0.274427 0
M  V30 3485 O 337.002 -3.9654 -0.641778 0
M  V30 3486 N 335.208 -2.90119 0.167139 0
M  V30 3487 H 334.755 -2.40855 0.913596 0
M  V30 3488 H 334.713 -3.0686 -0.684435 0
M  V30 3489 N 338.485 -1.33259 -0.841409 0
M  V30 3490 C 339.732 -1.24572 -1.5965 0
M  V30 3491 C 340.06 0.189137 -1.93578 0
M  V30 3492 O 339.315 1.14566 -1.5866 0
M  V30 3493 C 339.614 -2.06381 -2.9179 0
M  V30 3494 C 339.28 -3.556 -2.77235 0
M  V30 3495 C 337.942 -3.96282 -2.72973 0
M  V30 3496 C 340.294 -4.50433 -2.62221 0
M  V30 3497 C 337.622 -5.30017 -2.51592 0
M  V30 3498 C 339.974 -5.84327 -2.42374 0
M  V30 3499 C 338.638 -6.24194 -2.36512 0
M  V30 3500 H 337.908 -0.455842 -0.5842 0
M  V30 3501 H 340.555 -1.6482 -0.975016 0
M  V30 3502 H 338.86 -1.58903 -3.5813 0
M  V30 3503 H 340.557 -1.97019 -3.49263 0
M  V30 3504 H 337.147 -3.23298 -2.81384 0
M  V30 3505 H 341.331 -4.19914 -2.64549 0
M  V30 3506 H 336.587 -5.59947 -2.45499 0
M  V30 3507 H 340.761 -6.57414 -2.29739 0
M  V30 3508 H 338.388 -7.27759 -2.19706 0
M  V30 3509 N 339.963 1.05934 -1.16686 0
M  V30 3510 C 340.893 2.1546 -0.899949 0
M  V30 3511 C 341.874 1.69391 0.155154 0
M  V30 3512 O 343.059 1.94199 0.00648693 0
M  V30 3513 C 340.189 3.44939 -0.404241 0
M  V30 3514 C 339.143 4.04536 -1.39767 0
M  V30 3515 C 338.469 5.29268 -0.760216 0
M  V30 3516 C 339.769 4.42893 -2.76845 0
M  V30 3517 H 341.463 2.38046 -1.81588 0
M  V30 3518 H 339.009 1.14404 -0.874514 0
M  V30 3519 H 340.962 4.20901 -0.204971 0
M  V30 3520 H 339.686 3.21983 0.547206 0
M  V30 3521 H 338.345 3.30635 -1.58355 0
M  V30 3522 H 337.993 5.02611 0.197831 0
M  V30 3523 H 337.693 5.70101 -1.42332 0
M  V30 3524 H 339.217 6.07924 -0.57105 0
M  V30 3525 H 340.631 5.09921 -2.62019 0
M  V30 3526 H 339.028 4.94721 -3.39663 0
M  V30 3527 H 340.098 3.53584 -3.31823 0
M  V30 3528 N 341.441 0.965919 1.2453 0
M  V30 3529 C 342.351 0.502154 2.29163 0
M  V30 3530 C 343.367 -0.436017 1.68448 0
M  V30 3531 O 344.543 -0.309497 1.99008 0
M  V30 3532 C 341.608 -0.201956 3.46111 0
M  V30 3533 C 340.669 0.775821 4.22232 0
M  V30 3534 C 339.902 0.105217 5.33596 0
M  V30 3535 O 340.125 -1.10683 5.59558 0
M  V30 3536 O 339.059 0.796475 5.96607 0
M  V30 3537 H 342.885 1.37194 2.70946 0
M  V30 3538 H 340.47 0.732875 1.30189 0
M  V30 3539 H 342.352 -0.597564 4.17142 0
M  V30 3540 H 341.027 -1.04673 3.06309 0
M  V30 3541 H 339.934 1.22185 3.53584 0
M  V30 3542 H 341.267 1.58896 4.65846 0
M  V30 3543 N 342.919 -1.39368 0.735821 0
M  V30 3544 C 344.144 -2.05319 0.293052 0
M  V30 3545 C 344.569 -1.55115 -1.064 0
M  V30 3546 O 343.927 -0.695261 -1.67439 0
M  V30 3547 C 343.975 -3.59305 0.305323 0
M  V30 3548 O 343.079 -4.06299 -0.706761 0
M  V30 3549 H 342.42 -0.650529 0.13307 0
M  V30 3550 H 344.95 -1.78386 1.00197 0
M  V30 3551 H 344.96 -4.07724 0.149997 0
M  V30 3552 H 343.635 -3.95207 1.29553 0
M  V30 3553 H 342.212 -3.69292 -0.517504 0
M  V30 3554 N 344.397 -0.483516 -1.5 0
M  V30 3555 C 345.813 -0.138404 -1.58999 0
M  V30 3556 C 346.013 1.35597 -1.4905 0
M  V30 3557 O 345.069 2.13039 -1.35539 0
M  V30 3558 C 346.382 -0.699658 -2.92447 0
M  V30 3559 C 347.93 -0.664195 -3.05872 0
M  V30 3560 C 348.405 -1.20321 -4.41913 0
M  V30 3561 N 349.896 -1.16315 -4.48358 0
M  V30 3562 C 350.631 -1.55058 -5.52037 0
M  V30 3563 N 350.127 -2.01311 -6.62907 0
M  V30 3564 N 351.92 -1.46584 -5.42651 0
M  V30 3565 H 344.071 -1.45529 -1.5471 0
M  V30 3566 H 346.334 -0.60258 -0.731848 0
M  V30 3567 H 346.04 -1.747 -3.05242 0
M  V30 3568 H 345.914 -0.150194 -3.76901 0
M  V30 3569 H 348.301 0.374272 -2.92717 0
M  V30 3570 H 348.382 -1.25061 -2.23144 0
M  V30 3571 H 348.026 -2.24037 -4.55818 0
M  V30 3572 H 347.956 -0.592896 -5.23252 0
M  V30 3573 H 350.447 -0.824058 -3.68806 0
M  V30 3574 H 350.76 -2.2899 -7.38095 0
M  V30 3575 H 349.105 -2.05273 -6.63994 0
M  V30 3576 H 352.296 -1.10281 -4.54924 0
M  V30 3577 H 352.469 -1.77103 -6.23329 0
M  V30 3578 N 345.875 1.56104 -0.216619 0
M  V30 3579 C 347.123 1.97781 0.415593 0
M  V30 3580 C 347.444 1.10536 1.60645 0
M  V30 3581 O 346.714 0.181303 1.95059 0
M  V30 3582 H 345.294 0.730415 0.156534 0
M  V30 3583 H 347.956 1.92445 -0.308366 0
M  V30 3584 H 347.052 3.03072 0.74525 0
M  V30 3585 N 347.353 -0.0568162 1.57498 0
M  V30 3586 C 348.286 -1.09817 2.00039 0
M  V30 3587 C 349.264 -1.3674 0.879819 0
M  V30 3588 O 350.448 -1.49863 1.14338 0
M  V30 3589 C 347.575 -2.43924 2.34986 0
M  V30 3590 C 346.621 -2.33039 3.57204 0
M  V30 3591 S 347.454 -1.7102 5.07457 0
M  V30 3592 C 348.61 -3.06674 5.45621 0
M  V30 3593 H 348.843 -0.735701 2.88053 0
M  V30 3594 H 346.376 -0.265871 1.52094 0
M  V30 3595 H 348.334 -3.2106 2.55795 0
M  V30 3596 H 346.995 -2.77327 1.47474 0
M  V30 3597 H 346.188 -3.31973 3.79223 0
M  V30 3598 H 345.79 -1.64043 3.36104 0
M  V30 3599 H 348.082 -4.03 5.44608 0
M  V30 3600 H 349.025 -2.8942 6.46252 0
M  V30 3601 H 349.433 -3.07969 4.73091 0
M  V30 3602 N 348.832 -1.54138 -0.328536 0
M  V30 3603 C 349.795 -1.82462 -1.38709 0
M  V30 3604 C 350.795 -0.696229 -1.44946 0
M  V30 3605 O 351.985 -0.964535 -1.4506 0
M  V30 3606 C 349.117 -1.98018 -2.77492 0
M  V30 3607 H 350.31 -2.77037 -1.14851 0
M  V30 3608 H 347.863 -1.45779 -0.563751 0
M  V30 3609 H 348.598 -1.05637 -3.06613 0
M  V30 3610 H 348.383 -2.80124 -2.74359 0
M  V30 3611 H 349.873 -2.21396 -3.54081 0
M  V30 3612 N 350.31 0.590341 -1.46126 0
M  V30 3613 C 351.721 1.17243 -1.45296 0
M  V30 3614 C 352.072 1.95281 -0.189723 0
M  V30 3615 O 351.197 2.04502 0.707674 0
M  V30 3616 C 351.792 2.13284 -2.6324 0
M  V30 3617 C 350.351 2.66832 -2.65476 0
M  V30 3618 C 349.498 1.42557 -2.3785 0
M  V30 3619 H 352.449 0.378692 -1.54116 0
M  V30 3620 H 352.47 2.96619 -2.38323 0
M  V30 3621 H 351.982 1.56459 -3.55165 0
M  V30 3622 H 350.083 3.27548 -1.77603 0
M  V30 3623 H 350.196 3.10088 -3.65215 0
M  V30 3624 H 348.56 1.72107 -1.87753 0
M  V30 3625 H 349.343 0.875741 -3.31942 0
M  V30 3626 N 351.788 1.33704 0.83433 0
M  V30 3627 C 353.037 1.24763 1.58484 0
M  V30 3628 C 353.35 -0.183775 1.94735 0
M  V30 3629 O 354.556 -0.395234 2.68608 0
M  V30 3630 C 353.012 2.18638 2.85876 0
M  V30 3631 C 352.62 3.66974 2.56971 0
M  V30 3632 C 354.364 2.18581 3.63899 0
M  V30 3633 C 352.271 4.5275 3.80488 0
M  V30 3634 H 351.201 0.463425 0.594772 0
M  V30 3635 H 353.852 1.58797 0.919551 0
M  V30 3636 H 352.234 1.77542 3.5397 0
M  V30 3637 H 353.408 4.16538 1.9706 0
M  V30 3638 H 351.723 3.69366 1.92244 0
M  V30 3639 H 354.32 2.79894 4.55591 0
M  V30 3640 H 354.663 1.18207 3.99165 0
M  V30 3641 H 355.196 2.58062 3.02735 0
M  V30 3642 H 351.935 5.54017 3.5035 0
M  V30 3643 H 351.455 4.07927 4.39722 0
M  V30 3644 H 353.134 4.66784 4.4802 0
M  V30 3645 N 353.266 -1.05314 1.17247 0
M  V30 3646 C 354.229 -2.112 0.890357 0
M  V30 3647 C 355.229 -1.60359 -0.118943 0
M  V30 3648 O 356.419 -1.73833 0.113086 0
M  V30 3649 C 353.551 -3.39266 0.333422 0
M  V30 3650 H 354.744 -2.37659 1.82916 0
M  V30 3651 H 352.297 -1.21538 0.982758 0
M  V30 3652 H 353.032 -3.18462 -0.612587 0
M  V30 3653 H 352.817 -3.77477 1.06082 0
M  V30 3654 H 354.307 -4.17315 0.154322 0
M  V30 3655 N 354.744 -0.972509 -1.24016 0
M  V30 3656 C 355.654 -0.5143 -2.28893 0
M  V30 3657 C 356.67 0.427078 -1.68677 0
M  V30 3658 O 357.846 0.298939 -1.99169 0
M  V30 3659 C 354.911 0.183598 -3.46214 0
M  V30 3660 C 353.972 -0.798202 -4.21814 0
M  V30 3661 C 353.205 -0.133514 -5.33533 0
M  V30 3662 O 353.428 1.07714 -5.60137 0
M  V30 3663 O 352.362 -0.828103 -5.96176 0
M  V30 3664 H 356.188 -1.38629 -2.70214 0
M  V30 3665 H 353.773 -0.739769 -1.29799 0
M  V30 3666 H 355.655 0.575433 -4.17453 0
M  V30 3667 H 354.33 1.03048 -3.0686 0
M  V30 3668 H 353.237 -1.24059 -3.52931 0
M  V30 3669 H 354.57 -1.61364 -4.64997 0
M  V30 3670 N 356.222 1.38976 -0.743202 0
M  V30 3671 C 357.469 2.00343 -0.294752 0
M  V30 3672 C 357.797 1.58983 1.12047 0
M  V30 3673 O 357.052 0.813809 1.77977 0
M  V30 3674 C 357.351 3.55647 -0.353517 0
M  V30 3675 C 357.017 4.16685 -1.72292 0
M  V30 3676 C 355.679 4.3307 -2.09771 0
M  V30 3677 C 358.031 4.50464 -2.62168 0
M  V30 3678 C 355.359 4.80526 -3.36618 0
M  V30 3679 C 357.711 4.99332 -3.88395 0
M  V30 3680 C 356.375 5.13924 -4.25956 0
M  V30 3681 H 355.645 0.733108 -0.107857 0
M  V30 3682 H 358.292 1.6618 -0.951651 0
M  V30 3683 H 356.597 3.89884 0.386954 0
M  V30 3684 H 358.294 4.00998 0.0117269 0
M  V30 3685 H 354.884 4.04339 -1.42155 0
M  V30 3686 H 359.068 4.37416 -2.3448 0
M  V30 3687 H 354.324 4.90008 -3.65653 0
M  V30 3688 H 358.498 5.2444 -4.58187 0
M  V30 3689 H 356.125 5.50457 -5.2431 0
M  V30 3690 N 357.7 0.491464 1.49741 0
M  V30 3691 C 358.663 -0.280906 2.27472 0
M  V30 3692 C 359.663 -0.902454 1.33088 0
M  V30 3693 O 360.853 -0.768465 1.56334 0
M  V30 3694 C 357.985 -1.40209 3.10732 0
M  V30 3695 H 359.178 0.401056 2.97206 0
M  V30 3696 H 356.731 0.246131 1.5435 0
M  V30 3697 H 357.466 -2.11849 2.45541 0
M  V30 3698 H 357.251 -0.961969 3.80117 0
M  V30 3699 H 358.741 -1.9464 3.69466 0
M  V30 3700 N 359.178 -1.55987 0.224894 0
M  V30 3701 C 360.455 -1.90232 -0.455083 0
M  V30 3702 C 360.835 -1.14269 -1.77499 0
M  V30 3703 O 360.183 -0.253079 -2.27094 0
M  V30 3704 C 360.393 -3.42993 -0.644758 0
M  V30 3705 C 361.741 -4.13821 -0.950669 0
M  V30 3706 O 362.765 -3.4861 -0.731423 0
M  V30 3707 O 361.624 -5.29128 -1.36695 0
M  V30 3708 H 358.718 -0.79108 -0.241084 0
M  V30 3709 H 361.264 -1.67581 0.267327 0
M  V30 3710 H 360.036 -3.90252 0.28613 0
M  V30 3711 H 359.659 -3.71434 -1.41853 0
M  V30 3712 N 360.656 0.0484629 -1.57525 0
M  V30 3713 C 361.586 1.0549 -2.08313 0
M  V30 3714 C 362.567 1.38929 -0.981463 0
M  V30 3715 O 363.752 1.48151 -1.25558 0
M  V30 3716 C 360.882 2.36162 -2.54646 0
M  V30 3717 C 359.836 2.17016 -3.68901 0
M  V30 3718 C 359.162 3.53278 -4.01371 0
M  V30 3719 C 360.462 1.57219 -4.98076 0
M  V30 3720 H 362.156 0.632195 -2.92649 0
M  V30 3721 H 359.702 0.302654 -1.40784 0
M  V30 3722 H 361.655 3.06882 -2.88793 0
M  V30 3723 H 360.379 2.80456 -1.67368 0
M  V30 3724 H 359.038 1.48733 -3.35073 0
M  V30 3725 H 358.686 3.95185 -3.11188 0
M  V30 3726 H 358.386 3.41299 -4.78318 0
M  V30 3727 H 359.91 4.25391 -4.38035 0
M  V30 3728 H 361.324 2.17832 -5.30304 0
M  V30 3729 H 359.721 1.55871 -5.79503 0
M  V30 3730 H 360.791 0.535956 -4.81929 0
M  V30 3731 O 362.173 1.60359 0.191666 0
M  V30 3732 H 362.864 1.75005 0.830227 0
M  V30 END ATOM
M  V30 BEGIN BOND
M  V30 END BOND
M  V30 END CTAB
M  END
$$$$
