drugbank_target|P02452 Collagen alpha-1(I) chain (DB00048; DB04866; DB11338; DB12872; DB13133)
 OpenBabel12092119223D

  0  0  0     0  0            999 V3000
M  V30 BEGIN CTAB
M  V30 COUNTS 19061 19399 0 0 0
M  V30 BEGIN ATOM
M  V30 1 H -0.908 1.98254 -0.117106 0
M  V30 2 N 0 1.576 0 0
M  V30 3 C 0.933 2.03868 1.02534 0
M  V30 4 C 1.911 0.928543 1.3348 0
M  V30 5 O 3.095 1.19667 1.45644 0
M  V30 6 C 0.222 2.43627 2.35294 0
M  V30 7 C -0.732 3.65373 2.2001 0
M  V30 8 S 0.101 5.13292 1.52614 0
M  V30 9 C 1.257 5.56322 2.86805 0
M  V30 10 H 1.49 2.90518 0.631377 0
M  V30 11 H -0.977 1.52953 0.210867 0
M  V30 12 H 0.981 2.67203 3.11629 0
M  V30 13 H -0.358 1.57376 2.7183 0
M  V30 14 H -1.165 3.90944 3.18086 0
M  V30 15 H -1.563 3.418 1.51819 0
M  V30 16 H 0.729 5.58782 3.83104 0
M  V30 17 H 1.672 6.56266 2.65933 0
M  V30 18 H 2.08 4.83886 2.90714 0
M  V30 19 N 1.4781 -0.272755 1.55222 0
M  V30 20 C 2.7251 -1.00433 1.7584 0
M  V30 21 C 3.0531 -1.86275 0.559629 0
M  V30 22 O 2.3081 -1.90269 -0.457857 0
M  V30 23 C 2.6071 -1.91642 3.01675 0
M  V30 24 C 2.2731 -1.21548 4.34208 0
M  V30 25 C 0.9351 -1.02166 4.70229 0
M  V30 26 C 3.2871 -0.716684 5.16249 0
M  V30 27 C 0.6151 -0.316334 5.85847 0
M  V30 28 C 2.9671 -0.0249476 6.32595 0
M  V30 29 C 1.6311 0.180579 6.67256 0
M  V30 30 H 0.9011 -0.367509 0.643443 0
M  V30 31 H 3.5481 -0.276596 1.89492 0
M  V30 32 H 1.8531 -2.71037 2.82924 0
M  V30 33 H 3.5501 -2.48369 3.14824 0
M  V30 34 H 0.1401 -1.37645 4.05896 0
M  V30 35 H 4.3241 -0.854047 4.88896 0
M  V30 36 H -0.4199 -0.146378 6.11225 0
M  V30 37 H 3.7541 0.369311 6.9542 0
M  V30 38 H 1.3811 0.729098 7.56696 0
M  V30 39 N 2.9562 -1.48159 -0.537278 0
M  V30 40 C 4.1812 -1.59707 -1.32319 0
M  V30 41 C 4.6062 -0.254859 -1.86365 0
M  V30 42 O 3.9642 0.772378 -1.64024 0
M  V30 43 C 4.0122 -2.6412 -2.45505 0
M  V30 44 O 3.1162 -2.20774 -3.48328 0
M  V30 45 H 2.4572 -0.535791 -0.392204 0
M  V30 46 H 4.9872 -1.94092 -0.647268 0
M  V30 47 H 4.9972 -2.85166 -2.91795 0
M  V30 48 H 3.6722 -3.61567 -2.05528 0
M  V30 49 H 2.2492 -2.09911 -3.08207 0
M  V30 50 N 4.4343 0.785586 -1.36625 0
M  V30 51 C 5.6813 1.54362 -1.31067 0
M  V30 52 C 6.0093 1.94195 0.10893 0
M  V30 53 O 5.2643 1.63262 1.07908 0
M  V30 54 C 5.5633 2.83007 -2.1827 0
M  V30 55 C 5.2293 2.62294 -3.6676 0
M  V30 56 C 3.8913 2.56353 -4.0723 0
M  V30 57 C 6.2433 2.43371 -4.6089 0
M  V30 58 C 3.5713 2.29461 -5.39967 0
M  V30 59 C 5.9233 2.18005 -5.93849 0
M  V30 60 C 4.5873 2.105 -6.3344 0
M  V30 61 H 3.8573 0.564851 -0.479609 0
M  V30 62 H 6.5043 0.906028 -1.68711 0
M  V30 63 H 4.8093 3.51253 -1.73576 0
M  V30 64 H 6.5063 3.40817 -2.11292 0
M  V30 65 H 3.0963 2.67774 -3.34656 0
M  V30 66 H 7.2803 2.46959 -4.30494 0
M  V30 67 H 2.5363 2.22135 -5.69619 0
M  V30 68 H 6.7103 2.02359 -6.66351 0
M  V30 69 H 4.3373 1.89425 -7.36222 0
M  V30 70 N 5.9124 1.20967 1.01018 0
M  V30 71 C 7.1584 1.02526 1.74975 0
M  V30 72 C 7.4914 -0.4408 1.89131 0
M  V30 73 O 6.7664 -1.32718 1.42184 0
M  V30 74 C 7.0494 1.71699 3.1653 0
M  V30 75 C 6.9024 3.25791 3.10129 0
M  V30 76 C 8.2214 1.45531 4.15342 0
M  V30 77 H 5.3404 0.373863 0.635134 0
M  V30 78 H 7.9824 1.49071 1.17805 0
M  V30 79 H 6.1324 1.32128 3.65341 0
M  V30 80 H 7.8044 3.74697 2.69072 0
M  V30 81 H 6.0474 3.56363 2.47362 0
M  V30 82 H 6.7184 3.69353 4.10222 0
M  V30 83 H 9.1944 1.79872 3.75213 0
M  V30 84 H 8.0704 1.96453 5.1254 0
M  V30 85 H 8.3314 0.384237 4.40427 0
M  V30 86 N 7.3905 -1.2043 1.01659 0
M  V30 87 C 8.6675 -1.8548 0.621004 0
M  V30 88 C 9.0475 -1.9091 -0.900919 0
M  V30 89 O 8.3955 -1.41694 -1.79263 0
M  V30 90 C 8.6055 -3.25119 1.2688 0
M  V30 91 C 9.9535 -4.01403 1.38423 0
M  V30 92 O 10.9775 -3.34473 1.22501 0
M  V30 93 O 9.8365 -5.21265 1.64151 0
M  V30 94 H 6.9305 -0.798761 0.214266 0
M  V30 95 H 9.4765 -1.28019 1.11396 0
M  V30 96 H 8.2485 -3.15932 2.30873 0
M  V30 97 H 7.8715 -3.90212 0.762917 0
M  V30 98 N 8.8686 -0.792821 -1.36206 0
M  V30 99 C 9.7986 -0.207853 -2.32573 0
M  V30 100 C 10.7796 0.659055 -1.56813 0
M  V30 101 O 11.9646 0.592176 -1.84951 0
M  V30 102 C 9.0946 0.655449 -3.41059 0
M  V30 103 C 8.0486 -0.111842 -4.27854 0
M  V30 104 C 7.3746 0.872274 -5.27537 0
M  V30 105 C 8.6746 -1.30299 -5.05786 0
M  V30 106 H 10.3686 -1.01294 -2.81744 0
M  V30 107 H 7.9146 -0.48854 -1.3546 0
M  V30 108 H 9.8676 1.07464 -4.07467 0
M  V30 109 H 8.5916 1.49328 -2.90463 0
M  V30 110 H 7.2506 -0.512053 -3.63006 0
M  V30 111 H 6.8986 1.70523 -4.73214 0
M  V30 112 H 6.5986 0.363291 -5.86476 0
M  V30 113 H 8.1226 1.28996 -5.96818 0
M  V30 114 H 9.5366 -0.959379 -5.65216 0
M  V30 115 H 7.9336 -1.7455 -5.74154 0
M  V30 116 H 9.0036 -2.09663 -4.37229 0
M  V30 117 N 10.3467 1.47872 -0.545128 0
M  V30 118 C 11.7627 1.5829 -0.204032 0
M  V30 119 C 11.9627 1.54529 1.29317 0
M  V30 120 O 11.0187 1.44232 2.07252 0
M  V30 121 C 12.3317 2.89304 -0.819987 0
M  V30 122 C 13.8797 3.02864 -0.790105 0
M  V30 123 C 14.3547 4.3656 -1.38491 0
M  V30 124 N 15.8457 4.43165 -1.34755 0
M  V30 125 C 16.5807 5.45153 -1.77753 0
M  V30 126 N 16.0767 6.54016 -2.2855 0
M  V30 127 N 17.8697 5.36125 -1.68897 0
M  V30 128 H 10.0207 1.4856 -1.51802 0
M  V30 129 H 12.2837 0.706305 -0.632327 0
M  V30 130 H 11.9897 2.97757 -1.87173 0
M  V30 131 H 11.8637 3.75957 -0.305915 0
M  V30 132 H 14.2507 2.94014 0.252913 0
M  V30 133 H 14.3317 2.17782 -1.34181 0
M  V30 134 H 13.9757 4.46164 -2.42693 0
M  V30 135 H 13.9057 5.20353 -0.808754 0
M  V30 136 H 16.3967 3.65083 -0.975855 0
M  V30 137 H 16.7097 7.27994 -2.59314 0
M  V30 138 H 15.0547 6.54938 -2.32553 0
M  V30 139 H 18.2457 4.49975 -1.28998 0
M  V30 140 H 18.4187 6.15472 -2.02726 0
M  V30 141 N 11.8248 0.280983 1.55075 0
M  V30 142 C 12.7548 -0.597469 2.25727 0
M  V30 143 C 13.7358 -1.15417 1.24952 0
M  V30 144 O 14.9208 -1.18722 1.53684 0
M  V30 145 C 12.0508 -1.7789 2.98283 0
M  V30 146 C 11.0048 -1.35347 4.06036 0
M  V30 147 C 10.3308 -2.61846 4.66198 0
M  V30 148 C 11.6308 -0.499354 5.19907 0
M  V30 149 H 13.3248 -0.00824265 2.99399 0
M  V30 150 H 10.8708 -0.0025244 1.44 0
M  V30 151 H 12.8238 -2.39937 3.46422 0
M  V30 152 H 11.5478 -2.39405 2.22155 0
M  V30 153 H 10.2068 -0.756156 3.58717 0
M  V30 154 H 9.8548 -3.21632 3.86732 0
M  V30 155 H 9.5548 -2.3409 5.38958 0
M  V30 156 H 11.0788 -3.24732 5.1709 0
M  V30 157 H 12.4928 -1.02498 5.64063 0
M  V30 158 H 10.8898 -0.316424 5.99265 0
M  V30 159 H 11.9598 0.480459 4.82514 0
M  V30 160 N 13.3029 -1.57598 0.00835791 0
M  V30 161 C 14.2329 -2.1198 -0.979113 0
M  V30 162 C 15.2139 -1.03091 -1.35301 0
M  V30 163 O 16.3989 -1.30818 -1.43528 0
M  V30 164 C 13.5289 -2.62995 -2.26828 0
M  V30 165 C 12.4829 -3.76485 -2.03576 0
M  V30 166 C 11.8089 -4.13846 -3.38579 0
M  V30 167 C 13.1089 -5.0342 -1.39161 0
M  V30 168 H 14.8029 -2.94738 -0.526281 0
M  V30 169 H 12.3489 -1.41783 -0.251704 0
M  V30 170 H 14.3019 -2.99669 -2.96271 0
M  V30 171 H 13.0259 -1.7737 -2.7424 0
M  V30 172 H 11.6849 -3.40217 -1.36557 0
M  V30 173 H 11.3329 -3.25232 -3.83709 0
M  V30 174 H 11.0329 -4.90312 -3.23834 0
M  V30 175 H 12.5569 -4.53086 -4.09323 0
M  V30 176 H 13.9709 -5.37812 -1.98573 0
M  V30 177 H 12.3679 -5.84746 -1.34878 0
M  V30 178 H 13.4379 -4.83548 -0.361868 0
M  V30 179 N 14.781 0.264519 -1.55364 0
M  V30 180 C 15.711 1.33121 -1.91836 0
M  V30 181 C 16.692 1.51101 -0.781192 0
M  V30 182 O 17.877 1.64003 -1.04003 0
M  V30 183 C 15.007 2.68921 -2.19769 0
M  V30 184 C 13.961 2.65661 -3.35571 0
M  V30 185 C 13.287 4.05093 -3.49004 0
M  V30 186 C 14.587 2.24187 -4.71739 0
M  V30 187 H 16.281 1.02844 -2.81182 0
M  V30 188 H 13.827 0.493286 -1.35287 0
M  V30 189 H 15.78 3.43663 -2.43872 0
M  V30 190 H 14.504 3.00799 -1.27231 0
M  V30 191 H 13.163 1.93377 -3.1145 0
M  V30 192 H 12.811 4.34206 -2.53917 0
M  V30 193 H 12.511 4.03804 -4.26868 0
M  V30 194 H 14.035 4.81561 -3.75408 0
M  V30 195 H 15.449 2.88654 -4.9533 0
M  V30 196 H 13.846 2.34044 -5.52579 0
M  V30 197 H 14.916 1.19327 -4.69988 0
M  V30 198 N 16.2591 1.48442 0.529413 0
M  V30 199 C 17.1891 1.65902 1.64313 0
M  V30 200 C 18.1701 0.507897 1.6234 0
M  V30 201 O 19.3551 0.740503 1.79528 0
M  V30 202 C 16.4851 1.69911 3.02898 0
M  V30 203 C 15.4391 2.8453 3.19729 0
M  V30 204 C 14.7651 2.73629 4.59381 0
M  V30 205 C 16.0651 4.25821 3.02447 0
M  V30 206 H 17.7591 2.5914 1.49955 0
M  V30 207 H 15.3051 1.24709 0.719982 0
M  V30 208 H 17.2581 1.80715 3.80684 0
M  V30 209 H 15.9821 0.732524 3.18279 0
M  V30 210 H 14.6411 2.73283 2.44361 0
M  V30 211 H 14.2891 1.74938 4.71599 0
M  V30 212 H 13.9891 3.50541 4.71588 0
M  V30 213 H 15.5131 2.86401 5.39265 0
M  V30 214 H 16.9271 4.37898 3.70024 0
M  V30 215 H 15.3241 5.03735 3.26146 0
M  V30 216 H 16.3941 4.42244 1.98867 0
M  V30 217 N 17.7372 -0.778329 1.37039 0
M  V30 218 C 18.6672 -1.90546 1.34962 0
M  V30 219 C 19.6482 -1.68681 0.219274 0
M  V30 220 O 20.8332 -1.89634 0.418624 0
M  V30 221 C 17.9632 -3.27734 1.14925 0
M  V30 222 C 16.9172 -3.64147 2.24902 0
M  V30 223 C 16.2432 -4.99806 1.89996 0
M  V30 224 C 17.5432 -3.71579 3.67051 0
M  V30 225 H 19.2372 -1.92541 2.29277 0
M  V30 226 H 16.7832 -0.924948 1.10366 0
M  V30 227 H 18.7362 -4.06215 1.12104 0
M  V30 228 H 17.4602 -3.26154 0.170631 0
M  V30 229 H 16.1192 -2.8797 2.26868 0
M  V30 230 H 15.7672 -4.94759 0.906796 0
M  V30 231 H 15.4672 -5.25139 2.63634 0
M  V30 232 H 16.9912 -5.80694 1.88749 0
M  V30 233 H 18.4052 -4.40227 3.67251 0
M  V30 234 H 16.8022 -4.08405 4.39688 0
M  V30 235 H 17.8722 -2.72404 4.01154 0
M  V30 236 N 19.2153 -1.21501 -1.00376 0
M  V30 237 C 20.1783 -0.976927 -2.07337 0
M  V30 238 C 21.1783 0.0525322 -1.60714 0
M  V30 239 O 22.3683 -0.184869 -1.73216 0
M  V30 240 C 19.5003 -0.473423 -3.37597 0
M  V30 241 H 20.6933 -1.92587 -2.29892 0
M  V30 242 H 18.2463 -1.03217 -1.17371 0
M  V30 243 H 18.9813 0.480379 -3.20722 0
M  V30 244 H 18.7663 -1.216 -3.72768 0
M  V30 245 H 20.2563 -0.32675 -4.1632 0
M  V30 246 N 20.6934 1.19889 -1.02296 0
M  V30 247 C 21.6564 2.21116 -0.603351 0
M  V30 248 C 22.6564 1.5738 0.329884 0
M  V30 249 O 23.8464 1.73802 0.117702 0
M  V30 250 C 20.9784 3.40696 0.117992 0
M  V30 251 H 22.1714 2.59754 -1.49893 0
M  V30 252 H 19.7244 1.33463 -0.813468 0
M  V30 253 H 20.4594 3.07569 1.0282 0
M  V30 254 H 20.2444 3.88188 -0.552511 0
M  V30 255 H 21.7344 4.15692 0.398696 0
M  V30 256 N 22.1715 0.800033 1.35784 0
M  V30 257 C 23.3995 0.389606 2.03199 0
M  V30 258 C 23.8145 -0.997375 1.60306 0
M  V30 259 O 23.1715 -1.64154 0.797481 0
M  V30 260 C 23.2225 0.455855 3.58614 0
M  V30 261 O 22.9435 1.78815 3.99946 0
M  V30 262 C 24.4445 0.0374032 4.43284 0
M  V30 263 H 21.6645 0.159132 0.651857 0
M  V30 264 H 24.2085 1.08183 1.73541 0
M  V30 265 H 22.3635 -0.188057 3.86943 0
M  V30 266 H 22.7775 1.74636 4.94573 0
M  V30 267 H 24.2515 0.134882 5.51835 0
M  V30 268 H 24.7285 -1.01651 4.27275 0
M  V30 269 H 25.3345 0.654215 4.20238 0
M  V30 270 N 23.6496 -1.47581 0.552962 0
M  V30 271 C 24.6126 -2.28439 -0.186605 0
M  V30 272 C 25.6126 -1.36706 -0.84665 0
M  V30 273 O 26.8026 -1.59378 -0.703164 0
M  V30 274 C 23.9346 -3.16264 -1.2724 0
M  V30 275 H 25.1276 -2.95294 0.523609 0
M  V30 276 H 22.6806 -1.532 0.309745 0
M  V30 277 H 23.4156 -2.54091 -2.01514 0
M  V30 278 H 23.2006 -3.83769 -0.803968 0
M  V30 279 H 24.6906 -3.77198 -1.79196 0
M  V30 280 N 25.1277 -0.289203 -1.54924 0
M  V30 281 C 26.0577 0.58549 -2.2604 0
M  V30 282 C 27.0387 1.14753 -1.25562 0
M  V30 283 O 28.2237 1.17906 -1.54311 0
M  V30 284 C 25.3537 1.76305 -2.99222 0
M  V30 285 C 24.3077 1.33191 -4.06748 0
M  V30 286 C 23.6337 2.5937 -4.6758 0
M  V30 287 C 24.9337 0.471775 -5.20165 0
M  V30 288 H 26.6277 -0.00763532 -2.99399 0
M  V30 289 H 24.1737 -0.00511229 -1.43999 0
M  V30 290 H 26.1267 2.38097 -3.47689 0
M  V30 291 H 24.8507 2.38223 -2.23422 0
M  V30 292 H 23.5097 0.737121 -3.59113 0
M  V30 293 H 23.1577 3.19576 -3.88433 0
M  V30 294 H 22.8577 2.31228 -5.40192 0
M  V30 295 H 24.3817 3.21985 -5.18804 0
M  V30 296 H 25.7957 0.995056 -5.64599 0
M  V30 297 H 24.1927 0.284639 -5.99425 0
M  V30 298 H 25.2627 -0.506041 -4.82252 0
M  V30 299 N 26.6058 1.57591 -0.0167156 0
M  V30 300 C 27.5358 2.12496 0.967858 0
M  V30 301 C 28.5168 1.03807 1.34752 0
M  V30 302 O 29.7018 1.31577 1.42833 0
M  V30 303 C 26.8318 2.64194 2.25431 0
M  V30 304 C 25.7858 3.77559 2.01576 0
M  V30 305 C 25.1118 4.15636 3.36379 0
M  V30 306 C 26.4118 5.04151 1.36489 0
M  V30 307 H 28.1058 2.95013 0.510643 0
M  V30 308 H 25.6518 1.41915 0.244181 0
M  V30 309 H 27.6048 3.01236 2.94678 0
M  V30 310 H 26.3288 1.78821 2.73296 0
M  V30 311 H 24.9878 3.40937 1.34751 0
M  V30 312 H 24.6358 3.27263 3.81979 0
M  V30 313 H 24.3358 4.92022 3.21229 0
M  V30 314 H 25.8598 4.5525 4.06915 0
M  V30 315 H 27.2738 5.38857 1.95718 0
M  V30 316 H 25.6708 5.85453 1.31776 0
M  V30 317 H 26.7408 4.83733 0.336219 0
M  V30 318 N 28.0839 -0.256276 1.55502 0
M  V30 319 C 29.3119 -1.00342 1.8094 0
M  V30 320 C 29.7269 -1.79307 0.59114 0
M  V30 321 O 29.0839 -1.77114 -0.440081 0
M  V30 322 C 29.1349 -1.94875 3.04476 0
M  V30 323 O 28.8559 -1.19107 4.21598 0
M  V30 324 C 30.3569 -2.81266 3.42644 0
M  V30 325 H 27.5769 -0.295685 0.602338 0
M  V30 326 H 30.1209 -0.281998 2.02546 0
M  V30 327 H 28.2759 -2.62457 2.84947 0
M  V30 328 H 28.6899 -1.82969 4.91551 0
M  V30 329 H 30.1639 -3.43362 4.32211 0
M  V30 330 H 30.6409 -3.51897 2.62802 0
M  V30 331 H 31.2469 -2.1915 3.64491 0
M  V30 332 N 29.562 -1.4872 -0.521534 0
M  V30 333 C 30.512 -1.60269 -1.62166 0
M  V30 334 C 31.496 -0.45935 -1.54204 0
M  V30 335 O 32.688 -0.711241 -1.62081 0
M  V30 336 C 29.817 -1.65344 -3.00859 0
M  V30 337 C 28.903 -2.85187 -3.13894 0
M  V30 338 N 29.294 -4.09509 -2.96877 0
M  V30 339 C 27.592 -2.82695 -3.44963 0
M  V30 340 C 28.293 -4.89959 -3.13552 0
M  V30 341 N 27.269 -4.22934 -3.41508 0
M  V30 342 H 31.071 -2.5413 -1.47632 0
M  V30 343 H 28.585 -1.45209 -0.727194 0
M  V30 344 H 30.582 -1.71713 -3.79895 0
M  V30 345 H 29.242 -0.726058 -3.16478 0
M  V30 346 H 30.253 -4.39814 -2.73467 0
M  V30 347 H 26.93 -1.99249 -3.66887 0
M  V30 348 H 28.32 -5.98654 -3.05061 0
M  V30 349 N 31.0401 0.771051 -1.3745 0
M  V30 350 C 32.2881 1.52661 -1.32435 0
M  V30 351 C 32.6091 1.9479 0.0905024 0
M  V30 352 O 31.8791 1.66348 1.03466 0
M  V30 353 H 30.4591 0.566218 -0.487244 0
M  V30 354 H 33.1211 0.917636 -1.71946 0
M  V30 355 H 32.2171 2.42568 -1.96385 0
M  V30 356 N 32.5182 1.22032 0.997298 0
M  V30 357 C 33.4502 0.944263 2.08845 0
M  V30 358 C 34.4632 -0.0754663 1.62625 0
M  V30 359 O 35.6522 0.157994 1.77799 0
M  V30 360 C 32.7522 0.397723 3.36558 0
M  V30 361 C 31.9252 1.47362 4.11829 0
M  V30 362 C 30.9842 0.934951 5.17827 0
M  V30 363 O 30.0102 1.62016 5.45655 0
M  V30 364 N 31.2122 -0.245895 5.79979 0
M  V30 365 H 33.9772 1.88363 2.33109 0
M  V30 366 H 31.5382 1.12661 1.16272 0
M  V30 367 H 33.5302 0.0227771 4.04694 0
M  V30 368 H 32.1002 -0.446646 3.09393 0
M  V30 369 H 31.3202 2.02208 3.38386 0
M  V30 370 H 32.6082 2.19764 4.58891 0
M  V30 371 H 32.0062 -0.819475 5.59733 0
M  V30 372 H 30.5632 -0.562272 6.4937 0
M  V30 373 N 33.9963 -1.19345 1.0293 0
M  V30 374 C 34.9063 -2.26245 0.620515 0
M  V30 375 C 35.9223 -1.70486 -0.347928 0
M  V30 376 O 37.0983 -2.00347 -0.205704 0
M  V30 377 C 34.1633 -3.46693 -0.0218957 0
M  V30 378 C 33.2243 -4.17632 0.994102 0
M  V30 379 C 32.4573 -5.32329 0.382253 0
M  V30 380 O 32.6803 -5.64552 -0.814676 0
M  V30 381 O 31.6143 -5.91664 1.10531 0
M  V30 382 H 35.4403 -2.63453 1.51083 0
M  V30 383 H 33.0253 -1.26207 0.799513 0
M  V30 384 H 34.9073 -4.19683 -0.380072 0
M  V30 385 H 33.5823 -3.11333 -0.886209 0
M  V30 386 H 32.4893 -3.4676 1.40387 0
M  V30 387 H 33.8223 -4.56964 1.8288 0
M  V30 388 N 35.4744 -0.807222 -1.35358 0
M  V30 389 C 36.3844 -0.219594 -2.3357 0
M  V30 390 C 37.4004 0.637734 -1.61892 0
M  V30 391 O 38.5764 0.549336 -1.93763 0
M  V30 392 C 35.6414 0.62158 -3.41083 0
M  V30 393 C 34.7024 -0.256315 -4.28534 0
M  V30 394 C 33.9354 0.544807 -5.30912 0
M  V30 395 O 34.1584 1.77944 -5.41934 0
M  V30 396 O 33.0924 -0.0646478 -6.01865 0
M  V30 397 H 36.9184 -1.03208 -2.85625 0
M  V30 398 H 34.5034 -0.569025 -1.38139 0
M  V30 399 H 36.3854 1.10067 -4.06772 0
M  V30 400 H 35.0604 1.41165 -2.91297 0
M  V30 401 H 33.9674 -0.782559 -3.65823 0
M  V30 402 H 35.3004 -1.01034 -4.81719 0
M  V30 403 N 36.9525 1.47285 -0.560781 0
M  V30 404 C 38.2005 2.02064 -0.0379868 0
M  V30 405 C 38.5215 1.43711 1.31803 0
M  V30 406 O 37.7915 0.61362 1.86042 0
M  V30 407 H 36.3715 0.746918 -0.0110531 0
M  V30 408 H 39.0335 1.80648 -0.731598 0
M  V30 409 H 38.1295 3.12064 0.0474463 0
M  V30 410 N 38.4306 0.297415 1.54768 0
M  V30 411 C 39.3626 -0.613881 2.20826 0
M  V30 412 C 40.3756 -1.10032 1.19987 0
M  V30 413 O 41.5646 -1.01839 1.46598 0
M  V30 414 C 38.6646 -1.852 2.83821 0
M  V30 415 C 37.8376 -1.50865 4.10559 0
M  V30 416 C 36.8966 -2.60154 4.57391 0
M  V30 417 O 35.9226 -2.25398 5.2267 0
M  V30 418 N 37.1246 -3.90629 4.29406 0
M  V30 419 H 39.8896 -0.048389 2.99661 0
M  V30 420 H 37.4506 0.11946 1.61459 0
M  V30 421 H 39.4426 -2.57652 3.12086 0
M  V30 422 H 38.0126 -2.32597 2.08847 0
M  V30 423 H 37.2326 -0.616925 3.89343 0
M  V30 424 H 38.5206 -1.25458 4.9309 0
M  V30 425 H 37.9186 -4.21677 3.77101 0
M  V30 426 H 36.4756 -4.59391 4.62388 0
M  V30 427 N 39.9087 -1.5758 0.0250728 0
M  V30 428 C 41.1547 -1.91917 -0.655413 0
M  V30 429 C 41.4877 -0.901433 -1.72011 0
M  V30 430 O 40.7627 0.0764069 -1.9435 0
M  V30 431 C 41.0457 -3.36751 -1.27558 0
M  V30 432 C 40.8987 -4.49258 -0.220719 0
M  V30 433 C 42.2177 -3.81469 -2.19475 0
M  V30 434 H 39.3367 -0.697925 -0.23679 0
M  V30 435 H 41.9787 -1.89825 0.0815036 0
M  V30 436 H 40.1287 -3.38664 -1.90365 0
M  V30 437 H 41.8007 -4.59478 0.409601 0
M  V30 438 H 40.0437 -4.31415 0.454264 0
M  V30 439 H 40.7147 -5.47618 -0.694175 0
M  V30 440 H 43.1907 -3.81266 -1.66659 0
M  V30 441 H 42.0667 -4.83512 -2.59822 0
M  V30 442 H 42.3277 -3.16744 -3.08424 0
M  V30 443 N 41.3868 0.248026 -1.55636 0
M  V30 444 C 42.2968 1.32859 -1.93354 0
M  V30 445 C 43.3128 1.52719 -0.833838 0
M  V30 446 O 44.4888 1.66363 -1.13513 0
M  V30 447 C 41.5538 2.66337 -2.21958 0
M  V30 448 C 40.6148 2.55008 -3.45354 0
M  V30 449 C 39.8478 3.82121 -3.72584 0
M  V30 450 O 40.0708 4.83951 -3.01907 0
M  V30 451 O 39.0048 3.80822 -4.6611 0
M  V30 452 H 42.8308 1.03862 -2.85388 0
M  V30 453 H 40.4158 0.448686 -1.42503 0
M  V30 454 H 42.2978 3.45216 -2.4167 0
M  V30 455 H 40.9728 2.95068 -1.33103 0
M  V30 456 H 39.8798 1.7442 -3.30951 0
M  V30 457 H 41.2128 2.31222 -4.34508 0
M  V30 458 N 42.8649 1.48995 0.513639 0
M  V30 459 C 44.1129 1.57531 1.26604 0
M  V30 460 C 44.4339 0.258236 1.93283 0
M  V30 461 O 43.7039 -0.721502 1.8213 0
M  V30 462 H 42.2839 0.580387 0.470276 0
M  V30 463 H 44.9459 1.85552 0.596373 0
M  V30 464 H 44.0419 2.36486 2.03669 0
M  V30 465 N 44.343 -0.763751 1.37857 0
M  V30 466 C 45.275 -1.88664 1.30148 0
M  V30 467 C 46.288 -1.61365 0.215685 0
M  V30 468 O 47.477 -1.72134 0.472459 0
M  V30 469 C 44.577 -3.24075 0.991396 0
M  V30 470 C 43.75 -3.78958 2.18426 0
M  V30 471 C 42.809 -4.92862 1.8432 0
M  V30 472 O 41.835 -5.08027 2.56704 0
M  V30 473 N 43.037 -5.75071 0.792081 0
M  V30 474 H 45.802 -1.95791 2.26905 0
M  V30 475 H 43.363 -0.943226 1.31586 0
M  V30 476 H 45.355 -3.97804 0.743935 0
M  V30 477 H 43.925 -3.12399 0.112122 0
M  V30 478 H 43.145 -2.96913 2.59299 0
M  V30 479 H 44.433 -4.12357 2.98058 0
M  V30 480 H 43.831 -5.65375 0.191595 0
M  V30 481 H 42.388 -6.48991 0.60449 0
M  V30 482 N 45.8211 -1.22559 -0.990812 0
M  V30 483 C 47.0981 -0.959875 -1.70428 0
M  V30 484 C 47.4781 0.524455 -2.04481 0
M  V30 485 O 46.8261 1.49302 -1.72977 0
M  V30 486 C 47.0361 -1.85955 -2.95333 0
M  V30 487 C 48.3841 -2.11687 -3.68068 0
M  V30 488 O 49.4081 -1.8342 -3.05345 0
M  V30 489 O 48.2671 -2.59572 -4.80921 0
M  V30 490 H 45.3611 -0.361154 -0.743974 0
M  V30 491 H 47.9071 -1.33554 -1.04697 0
M  V30 492 H 46.6791 -2.86346 -2.66687 0
M  V30 493 H 46.3021 -1.4856 -3.68803 0
M  V30 494 N 47.2992 1.18797 -1.03562 0
M  V30 495 C 48.2092 2.25913 -0.632505 0
M  V30 496 C 49.2252 1.70668 0.338882 0
M  V30 497 O 50.4012 2.00453 0.195076 0
M  V30 498 C 47.4662 3.467 0.00350942 0
M  V30 499 C 46.5272 4.17098 -1.01624 0
M  V30 500 C 45.7602 5.32119 -0.410478 0
M  V30 501 O 45.9832 5.64976 0.784725 0
M  V30 502 O 44.9172 5.9107 -1.13667 0
M  V30 503 H 48.7432 2.62648 -1.52478 0
M  V30 504 H 46.3282 1.25781 -0.806195 0
M  V30 505 H 48.2102 4.19878 0.35781 0
M  V30 506 H 46.8852 3.11798 0.869686 0
M  V30 507 H 45.7922 3.4601 -1.42224 0
M  V30 508 H 47.1252 4.55987 -1.85301 0
M  V30 509 N 48.7773 0.814389 1.34928 0
M  V30 510 C 50.0543 0.321363 1.92942 0
M  V30 511 C 50.4343 -1.19014 1.74353 0
M  V30 512 O 49.7823 -1.99328 1.11716 0
M  V30 513 C 49.9923 0.741323 3.41036 0
M  V30 514 C 51.3403 0.735266 4.18185 0
M  V30 515 O 52.3643 0.68336 3.49584 0
M  V30 516 O 51.2233 0.800703 5.40602 0
M  V30 517 H 48.3173 0.0858893 0.822528 0
M  V30 518 H 50.8633 0.898609 1.43955 0
M  V30 519 H 49.6353 1.78276 3.4833 0
M  V30 520 H 49.2583 0.139307 3.97356 0
M  V30 521 N 50.2554 -1.46986 0.568584 0
M  V30 522 C 51.5044 -2.01646 0.0465894 0
M  V30 523 C 51.8174 -1.44721 -1.31587 0
M  V30 524 O 53.0234 -1.91113 -1.92842 0
M  V30 525 C 51.4794 -3.59885 0.032752 0
M  V30 526 C 51.0874 -4.25804 1.39266 0
M  V30 527 C 52.8314 -4.22255 -0.436038 0
M  V30 528 C 50.7384 -5.76081 1.33732 0
M  V30 529 H 49.6684 -0.753876 0.013647 0
M  V30 530 H 52.3194 -1.68864 0.718131 0
M  V30 531 H 50.7014 -3.8968 -0.704669 0
M  V30 532 H 51.8754 -4.07637 2.1487 0
M  V30 533 H 50.1904 -3.7547 1.80032 0
M  V30 534 H 52.7874 -5.32394 -0.49602 0
M  V30 535 H 53.1304 -3.90212 -1.45053 0
M  V30 536 H 53.6634 -3.97033 0.246877 0
M  V30 537 H 50.4024 -6.12761 2.32817 0
M  V30 538 H 49.9224 -5.96553 0.623267 0
M  V30 539 H 51.6014 -6.38518 1.0442 0
M  V30 540 N 51.7335 -0.305618 -1.54608 0
M  V30 541 C 53.1445 0.186098 -1.8577 0
M  V30 542 C 53.4955 1.53058 -1.22751 0
M  V30 543 O 52.6205 2.09888 -0.526893 0
M  V30 544 C 53.2155 0.344449 -3.37044 0
M  V30 545 C 51.7745 0.780384 -3.68221 0
M  V30 546 C 50.9215 -0.108554 -2.77087 0
M  V30 547 H 53.8725 -0.526485 -1.49712 0
M  V30 548 H 53.8935 1.17828 -3.61796 0
M  V30 549 H 53.4055 -0.634235 -3.82883 0
M  V30 550 H 51.5065 1.76945 -3.27904 0
M  V30 551 H 51.6195 0.596572 -4.75371 0
M  V30 552 H 49.9835 0.412931 -2.5133 0
M  V30 553 H 50.7665 -1.08368 -3.25747 0
M  V30 554 N 53.2116 1.57565 -0.0334293 0
M  V30 555 C 54.6226 1.79746 0.504798 0
M  V30 556 C 54.9736 0.944091 1.71992 0
M  V30 557 O 54.0986 0.155694 2.15839 0
M  V30 558 C 54.6936 3.25997 0.922567 0
M  V30 559 C 53.2526 3.49159 1.40588 0
M  V30 560 C 52.3996 2.74785 0.372633 0
M  V30 561 H 55.3506 1.56565 -0.259436 0
M  V30 562 H 55.3716 3.35945 1.78666 0
M  V30 563 H 54.8836 3.88081 0.0379825 0
M  V30 564 H 52.9846 2.92332 2.31025 0
M  V30 565 H 53.0976 4.57873 1.41028 0
M  V30 566 H 51.4616 2.40391 0.841672 0
M  V30 567 H 52.2446 3.39587 -0.503559 0
M  V30 568 N 54.6897 -0.239769 1.55765 0
M  V30 569 C 55.9387 -0.964754 1.77131 0
M  V30 570 C 56.2517 -1.86213 0.59868 0
M  V30 571 O 57.4577 -2.6244 0.695522 0
M  V30 572 C 55.9137 -1.76552 3.1362 0
M  V30 573 C 55.5217 -0.915185 4.38553 0
M  V30 574 C 57.2657 -2.48281 3.44321 0
M  V30 575 C 55.1727 -1.71225 5.66071 0
M  V30 576 H 54.1027 -0.363953 0.660344 0
M  V30 577 H 56.7537 -0.219181 1.82186 0
M  V30 578 H 55.1357 -2.55331 3.02691 0
M  V30 579 H 56.3097 -0.169217 4.60489 0
M  V30 580 H 54.6247 -0.310889 4.15238 0
M  V30 581 H 57.2217 -3.08382 4.36812 0
M  V30 582 H 57.5647 -3.20256 2.65973 0
M  V30 583 H 58.0977 -1.76507 3.56497 0
M  V30 584 H 54.8367 -1.03612 6.4726 0
M  V30 585 H 54.3567 -2.43331 5.48224 0
M  V30 586 H 56.0357 -2.27758 6.05587 0
M  V30 587 N 56.1678 -1.49265 -0.50573 0
M  V30 588 C 57.3958 -1.62215 -1.28429 0
M  V30 589 C 57.8108 -0.291697 -1.86533 0
M  V30 590 O 57.1678 0.722233 -1.67601 0
M  V30 591 C 57.2188 -2.68735 -2.41793 0
M  V30 592 O 56.9398 -3.96619 -1.86078 0
M  V30 593 C 58.4408 -2.92346 -3.3324 0
M  V30 594 H 55.6608 -0.546239 -0.389697 0
M  V30 595 H 58.2048 -1.95265 -0.607609 0
M  V30 596 H 56.3598 -2.38476 -3.053 0
M  V30 597 H 56.7738 -4.55256 -2.60465 0
M  V30 598 H 58.2478 -3.70623 -4.09075 0
M  V30 599 H 58.7248 -2.02081 -3.89948 0
M  V30 600 H 59.3308 -3.24003 -2.75503 0
M  V30 601 N 57.6459 0.756429 -1.3826 0
M  V30 602 C 58.8859 1.52833 -1.35725 0
M  V30 603 C 59.2499 1.91926 0.0534106 0
M  V30 604 O 60.4509 2.68028 0.203613 0
M  V30 605 C 58.7219 2.74919 -2.28373 0
M  V30 606 S 60.2809 3.64817 -2.43832 0
M  V30 607 H 57.0989 0.523043 -0.481608 0
M  V30 608 H 59.7009 0.888212 -1.74158 0
M  V30 609 H 58.4049 2.44304 -3.29763 0
M  V30 610 H 57.9359 3.43878 -1.91079 0
M  V30 611 H 59.9509 4.676 -1.66027 0
M  V30 612 N 59.124 1.23083 0.984299 0
M  V30 613 C 60.37 1.06214 1.72761 0
M  V30 614 C 60.703 -0.400584 1.90024 0
M  V30 615 O 59.978 -1.29672 1.44967 0
M  V30 616 C 60.261 1.78375 3.12817 0
M  V30 617 C 60.114 3.32296 3.03149 0
M  V30 618 C 61.433 1.54309 4.12161 0
M  V30 619 H 58.552 0.387251 0.627061 0
M  V30 620 H 61.194 1.51536 1.14616 0
M  V30 621 H 59.344 1.39848 3.62457 0
M  V30 622 H 61.016 3.8032 2.61064 0
M  V30 623 H 59.259 3.6153 2.39747 0
M  V30 624 H 59.93 3.77972 4.02295 0
M  V30 625 H 62.406 1.87791 3.71314 0
M  V30 626 H 61.282 2.07281 5.08258 0
M  V30 627 H 61.543 0.477572 4.39513 0
M  V30 628 N 60.6021 -1.18246 1.0419 0
M  V30 629 C 61.5341 -2.2142 0.592088 0
M  V30 630 C 62.5471 -1.59233 -0.338909 0
M  V30 631 O 63.7361 -1.78002 -0.133231 0
M  V30 632 C 60.8361 -3.38546 -0.154854 0
M  V30 633 C 60.0091 -4.3031 0.784328 0
M  V30 634 C 59.0681 -5.26138 0.0804583 0
M  V30 635 O 58.0941 -5.64738 0.711292 0
M  V30 636 N 59.2961 -5.68261 -1.18574 0
M  V30 637 H 62.0611 -2.60636 1.47949 0
M  V30 638 H 59.6221 -1.33044 0.922544 0
M  V30 639 H 61.6141 -3.99678 -0.635606 0
M  V30 640 H 60.1841 -2.98012 -0.943811 0
M  V30 641 H 59.4041 -3.66764 1.44491 0
M  V30 642 H 60.6921 -4.8852 1.42218 0
M  V30 643 H 60.0901 -5.38957 -1.71876 0
M  V30 644 H 58.6471 -6.31584 -1.61074 0
M  V30 645 N 62.0802 -0.821533 -1.34494 0
M  V30 646 C 63.0282 -0.230702 -2.31453 0
M  V30 647 C 64.0222 0.627793 -1.57338 0
M  V30 648 O 65.2282 0.519288 -1.72347 0
M  V30 649 H 61.6032 -0.0558577 -0.749923 0
M  V30 650 H 63.5742 -1.06332 -2.78812 0
M  V30 651 C 62.3232 0.59391 -3.4259 0
M  V30 652 H 61.6462 -0.0573588 -3.99759 0
M  V30 653 H 63.0862 0.973446 -4.12674 0
M  V30 654 C 61.5452 1.76568 -2.86924 0
M  V30 655 O 62.0752 2.8638 -2.81691 0
M  V30 656 N 60.2812 1.58198 -2.43766 0
M  V30 657 H 59.8282 0.68872 -2.48222 0
M  V30 658 H 59.7862 2.36752 -2.06871 0
M  V30 659 N 63.5583 1.46682 -0.576371 0
M  V30 660 C 64.8063 2.02013 -0.0594163 0
M  V30 661 C 65.1273 1.45101 1.30271 0
M  V30 662 O 64.3973 0.633317 1.8538 0
M  V30 663 H 62.9773 0.746759 -0.0189745 0
M  V30 664 H 65.6393 1.79862 -0.750717 0
M  V30 665 H 64.7353 3.12097 0.014345 0
M  V30 666 N 65.0364 0.313813 1.54444 0
M  V30 667 C 65.9664 -0.549454 2.26943 0
M  V30 668 C 66.9474 -1.12741 1.27372 0
M  V30 669 O 68.1324 -1.15436 1.56167 0
M  V30 670 C 65.2624 -1.71523 3.01989 0
M  V30 671 C 64.2164 -1.26703 4.08816 0
M  V30 672 C 63.5424 -2.51898 4.71647 0
M  V30 673 C 64.8424 -0.388962 5.2085 0
M  V30 674 H 66.5364 0.0552661 2.99349 0
M  V30 675 H 64.0824 0.0280207 1.43973 0
M  V30 676 H 66.0354 -2.32535 3.51433 0
M  V30 677 H 64.7594 -2.34639 2.27183 0
M  V30 678 H 63.4184 -0.679896 3.6024 0
M  V30 679 H 63.0664 -3.13356 3.93468 0
M  V30 680 H 62.7664 -2.22605 5.43802 0
M  V30 681 H 64.2904 -3.1369 5.23861 0
M  V30 682 H 65.7044 -0.905107 5.6611 0
M  V30 683 H 64.1014 -0.18924 5.99802 0
M  V30 684 H 65.1714 0.582699 4.81386 0
M  V30 685 N 66.5145 -1.57545 0.0417849 0
M  V30 686 C 67.9305 -1.56467 -0.314704 0
M  V30 687 C 68.1305 -1.04859 -1.72066 0
M  V30 688 O 67.1865 -0.700983 -2.42575 0
M  V30 689 C 68.4995 -3.00317 -0.15174 0
M  V30 690 C 70.0475 -3.12201 -0.223553 0
M  V30 691 C 70.5225 -4.57913 -0.0892295 0
M  V30 692 N 72.0135 -4.6297 -0.145808 0
M  V30 693 C 72.7485 -5.73362 -0.0658459 0
M  V30 694 N 72.2445 -6.92769 0.0659282 0
M  V30 695 N 74.0375 -5.6197 -0.12075 0
M  V30 696 H 66.1885 -1.89416 0.961014 0
M  V30 697 H 68.4515 -0.871862 0.372237 0
M  V30 698 H 68.1575 -3.42073 0.817254 0
M  V30 699 H 68.0315 -3.65892 -0.916692 0
M  V30 700 H 70.4185 -2.70349 -1.18301 0
M  V30 701 H 70.4995 -2.49323 0.571994 0
M  V30 702 H 70.1435 -5.00448 0.866867 0
M  V30 703 H 70.0735 -5.18786 -0.903802 0
M  V30 704 H 72.5645 -3.7709 -0.247286 0
M  V30 705 H 72.8775 -7.72707 0.119905 0
M  V30 706 H 71.2225 -6.94927 0.100885 0
M  V30 707 H 74.4135 -4.67572 -0.222187 0
M  V30 708 H 74.5865 -6.47977 -0.0549735 0
M  V30 709 N 67.9926 0.231505 -1.5589 0
M  V30 710 C 69.2226 0.973092 -1.82248 0
M  V30 711 C 69.6306 1.78845 -0.617328 0
M  V30 712 O 68.9736 1.78752 0.423499 0
M  V30 713 C 69.0356 1.94732 -3.02192 0
M  V30 714 C 68.6996 1.31743 -4.37599 0
M  V30 715 C 69.6966 0.712238 -5.14998 0
M  V30 716 C 67.3816 1.33218 -4.84312 0
M  V30 717 C 69.3756 0.130195 -6.37267 0
M  V30 718 C 67.0626 0.746286 -6.06526 0
M  V30 719 C 68.0606 0.146337 -6.82843 0
M  V30 720 O 67.7486 -0.430465 -8.02747 0
M  V30 721 H 67.4806 0.29125 -0.61004 0
M  V30 722 H 70.0346 0.254915 -2.03812 0
M  V30 723 H 68.2646 2.70422 -2.76422 0
M  V30 724 H 69.9536 2.55362 -3.15508 0
M  V30 725 H 70.7196 0.69324 -4.8002 0
M  V30 726 H 66.5986 1.78854 -4.24891 0
M  V30 727 H 70.1426 -0.33871 -6.96777 0
M  V30 728 H 66.0396 0.762663 -6.40979 0
M  V30 729 H 66.8076 -0.323818 -8.17859 0
M  V30 730 N 69.4707 1.49531 0.497807 0
M  V30 731 C 70.4207 1.62829 1.59596 0
M  V30 732 C 71.4047 0.483824 1.53453 0
M  V30 733 O 72.5967 0.736937 1.60929 0
M  V30 734 C 69.7257 1.7011 2.98191 0
M  V30 735 C 68.8117 2.90144 3.09317 0
M  V30 736 N 69.2027 4.1418 2.90324 0
M  V30 737 C 67.5007 2.88148 3.40422 0
M  V30 738 C 68.2017 4.94886 3.05717 0
M  V30 739 N 67.1777 4.28314 3.34736 0
M  V30 740 H 70.9797 2.56446 1.4357 0
M  V30 741 H 68.4937 1.46347 0.704001 0
M  V30 742 H 70.4907 1.77735 3.77115 0
M  V30 743 H 69.1507 0.776315 3.15283 0
M  V30 744 H 70.1617 4.44109 2.66436 0
M  V30 745 H 66.8387 2.05061 3.63671 0
M  V30 746 H 68.2287 6.03432 2.95499 0
M  V30 747 N 70.9488 -0.749086 1.3866 0
M  V30 748 C 72.2258 -1.4992 1.25632 0
M  V30 749 C 72.6058 -2.10633 -0.140317 0
M  V30 750 O 71.9538 -1.97437 -1.15025 0
M  V30 751 C 72.1638 -2.56195 2.36992 0
M  V30 752 C 73.5118 -3.22972 2.75634 0
M  V30 753 O 74.5358 -2.66502 2.36337 0
M  V30 754 O 73.3948 -4.25122 3.43415 0
M  V30 755 H 70.4888 -0.665067 0.491544 0
M  V30 756 H 73.0348 -0.784113 1.50498 0
M  V30 757 H 71.8068 -2.09612 3.30422 0
M  V30 758 H 71.4298 -3.35279 2.13714 0
M  V30 759 N 72.4269 -1.23603 -0.977757 0
M  V30 760 C 73.8429 -0.999251 -1.24447 0
M  V30 761 C 74.0429 0.298053 -1.99283 0
M  V30 762 O 73.0989 1.01681 -2.31122 0
M  V30 763 C 74.4119 -2.20784 -2.04144 0
M  V30 764 C 75.9599 -2.25303 -2.17273 0
M  V30 765 C 76.4349 -3.45755 -3.00362 0
M  V30 766 N 77.9259 -3.4601 -3.07947 0
M  V30 767 C 78.6609 -4.35868 -3.72568 0
M  V30 768 N 78.1569 -5.35966 -4.38991 0
M  V30 769 N 79.9499 -4.23605 -3.6948 0
M  V30 770 H 72.1009 -2.06986 -0.476483 0
M  V30 771 H 74.3639 -0.907801 -0.273134 0
M  V30 772 H 74.0699 -3.14945 -1.56533 0
M  V30 773 H 73.9439 -2.22085 -3.04891 0
M  V30 774 H 76.3309 -1.3168 -2.64092 0
M  V30 775 H 76.4119 -2.28033 -1.15907 0
M  V30 776 H 76.0559 -4.39687 -2.5424 0
M  V30 777 H 75.9859 -3.40266 -4.01904 0
M  V30 778 H 78.4769 -2.73588 -2.60688 0
M  V30 779 H 78.7899 -6.00783 -4.86086 0
M  V30 780 H 77.1349 -5.39863 -4.37691 0
M  V30 781 H 80.3259 -3.44647 -3.16759 0
M  V30 782 H 80.4989 -4.93836 -4.1956 0
M  V30 783 N 73.905 1.17692 -1.04816 0
M  V30 784 C 75.182 1.83768 -0.669963 0
M  V30 785 C 75.562 1.93232 0.849986 0
M  V30 786 O 74.91 1.46397 1.75443 0
M  V30 787 C 75.12 3.21641 -1.35455 0
M  V30 788 C 76.468 3.97592 -1.49017 0
M  V30 789 O 77.492 3.31107 -1.31326 0
M  V30 790 O 76.351 5.16729 -1.77914 0
M  V30 791 H 73.445 0.792799 -0.235368 0
M  V30 792 H 75.991 1.25021 -1.14751 0
M  V30 793 H 74.763 3.097 -2.39168 0
M  V30 794 H 74.386 3.88052 -0.866107 0
M  V30 795 N 75.3831 0.828654 1.34056 0
M  V30 796 C 76.6291 0.42008 1.98402 0
M  V30 797 C 76.9621 -1.01564 1.65525 0
M  V30 798 O 76.2371 -1.70834 0.929831 0
M  V30 799 C 76.5201 0.62927 3.54559 0
M  V30 800 C 76.3731 2.11152 3.97159 0
M  V30 801 C 77.6921 0.0688756 4.40046 0
M  V30 802 H 74.8111 0.154104 0.720709 0
M  V30 803 H 77.4531 1.04228 1.5886 0
M  V30 804 H 75.6031 0.0996418 3.88372 0
M  V30 805 H 77.2751 2.70522 3.73651 0
M  V30 806 H 75.5181 2.59985 3.47261 0
M  V30 807 H 76.1891 2.20868 5.05887 0
M  V30 808 H 78.6651 0.521458 4.1282 0
M  V30 809 H 77.5411 0.245006 5.48353 0
M  V30 810 H 77.8021 -1.0266 4.30015 0
M  V30 811 N 76.8612 -1.46375 0.584142 0
M  V30 812 C 78.1072 -2.03248 0.0787103 0
M  V30 813 C 78.4622 -1.44737 -1.26763 0
M  V30 814 O 77.7552 -0.603625 -1.81843 0
M  V30 815 C 77.9492 -3.57373 -0.0439342 0
M  V30 816 C 77.7782 -4.30831 1.28897 0
M  V30 817 C 76.5482 -4.69683 1.8635 0
M  V30 818 C 78.7462 -4.64278 2.21248 0
M  V30 819 N 76.7282 -5.27898 3.13365 0
M  V30 820 C 78.0992 -5.23078 3.32851 0
M  V30 821 C 80.1542 -4.46209 2.20911 0
M  V30 822 C 78.8572 -5.65715 4.44251 0
M  V30 823 C 80.8832 -4.89864 3.31341 0
M  V30 824 C 80.2452 -5.48736 4.41665 0
M  V30 825 H 76.3442 -0.778714 0.0716144 0
M  V30 826 H 78.9282 -1.78509 0.777355 0
M  V30 827 H 77.0992 -3.81823 -0.711749 0
M  V30 828 H 78.8312 -4.00892 -0.553881 0
M  V30 829 H 75.5862 -4.52488 1.39826 0
M  V30 830 H 76.0102 -5.61525 3.78178 0
M  V30 831 H 80.6522 -4.00027 1.36888 0
M  V30 832 H 78.3702 -6.10875 5.29015 0
M  V30 833 H 81.9562 -4.77634 3.322 0
M  V30 834 H 80.8362 -5.81898 5.25704 0
M  V30 835 N 78.3393 -0.321999 -1.54275 0
M  V30 836 C 79.2863 0.544664 -2.24281 0
M  V30 837 C 80.2563 1.1129 -1.23303 0
M  V30 838 O 81.4413 1.15354 -1.51981 0
M  V30 839 C 78.5813 1.70045 -3.00298 0
M  V30 840 C 77.6943 1.16159 -4.1609 0
M  V30 841 C 76.8293 2.28293 -4.79641 0
M  V30 842 C 75.8683 1.71648 -5.8754 0
M  V30 843 N 75.0053 2.77438 -6.44959 0
M  V30 844 H 79.8453 -0.0588907 -2.97942 0
M  V30 845 H 77.3823 -0.0408345 -1.47043 0
M  V30 846 H 79.3403 2.38054 -3.42616 0
M  V30 847 H 77.9703 2.27531 -2.28975 0
M  V30 848 H 77.0223 0.373092 -3.78566 0
M  V30 849 H 78.3343 0.707087 -4.93763 0
M  V30 850 H 77.4883 3.0421 -5.2492 0
M  V30 851 H 76.2273 2.77079 -4.01346 0
M  V30 852 H 75.2323 0.942282 -5.41665 0
M  V30 853 H 76.4573 1.23741 -6.67731 0
M  V30 854 H 74.4033 3.25519 -5.69538 0
M  V30 855 H 74.3203 2.36547 -7.1804 0
M  V30 856 H 75.5883 3.53189 -6.94894 0
M  V30 857 N 79.8174 1.5752 -0.0501392 0
M  V30 858 C 81.2284 1.80271 0.485705 0
M  V30 859 C 81.5794 0.96228 1.70981 0
M  V30 860 O 80.7044 0.178578 2.15662 0
M  V30 861 C 81.2994 3.26957 0.887938 0
M  V30 862 C 79.8584 3.5063 1.36877 0
M  V30 863 C 79.0054 2.75165 0.343468 0
M  V30 864 H 81.9564 1.56281 -0.276028 0
M  V30 865 H 81.9774 3.37821 1.75093 0
M  V30 866 H 81.4894 3.881 -0.0031809 0
M  V30 867 H 79.5904 2.94766 2.27911 0
M  V30 868 H 79.7034 4.59343 1.36164 0
M  V30 869 H 78.0674 2.4127 0.816128 0
M  V30 870 H 78.8504 3.39034 -0.539548 0
M  V30 871 N 81.2955 -0.223234 1.56011 0
M  V30 872 C 82.2055 -1.29766 1.95443 0
M  V30 873 C 83.2215 -1.51373 0.858028 0
M  V30 874 O 84.3975 -1.64536 1.16146 0
M  V30 875 C 81.4625 -2.62772 2.26167 0
M  V30 876 C 80.5235 -2.49482 3.49367 0
M  V30 877 C 79.7565 -3.76145 3.78616 0
M  V30 878 O 79.9795 -4.79087 3.09568 0
M  V30 879 O 78.9135 -3.73358 4.72109 0
M  V30 880 H 82.7395 -0.99309 2.87004 0
M  V30 881 H 80.3245 -0.425958 1.43199 0
M  V30 882 H 82.2065 -3.41327 2.47131 0
M  V30 883 H 80.8815 -2.92913 1.37781 0
M  V30 884 H 79.7885 -1.69133 3.33684 0
M  V30 885 H 81.1215 -2.2428 4.38131 0
M  V30 886 N 82.7736 -1.49793 -0.48987 0
M  V30 887 C 84.1846 -1.52914 -1.07118 0
M  V30 888 C 84.5356 -0.321738 -1.93544 0
M  V30 889 O 83.6606 0.567338 -2.08831 0
M  V30 890 C 84.2556 -2.771 -1.94938 0
M  V30 891 C 82.8146 -2.82963 -2.48212 0
M  V30 892 C 81.9616 -2.46972 -1.26096 0
M  V30 893 H 84.9126 -1.56329 -0.273289 0
M  V30 894 H 84.9336 -2.57892 -2.79771 0
M  V30 895 H 84.4456 -3.64959 -1.32009 0
M  V30 896 H 82.5466 -1.99411 -3.14748 0
M  V30 897 H 82.6596 -3.85406 -2.84603 0
M  V30 898 H 81.0236 -1.98994 -1.58976 0
M  V30 899 H 81.8066 -3.37118 -0.648581 0
M  V30 900 N 84.2517 0.741722 -1.39055 0
M  V30 901 C 85.4917 1.51385 -1.37338 0
M  V30 902 C 85.8557 1.91972 0.0330513 0
M  V30 903 O 87.0567 2.68229 0.175174 0
M  V30 904 C 85.3277 2.72481 -2.31276 0
M  V30 905 S 86.8867 3.62211 -2.47687 0
M  V30 906 H 83.7047 0.517906 -0.487129 0
M  V30 907 H 86.3067 0.86969 -1.7509 0
M  V30 908 H 85.0107 2.40793 -3.32336 0
M  V30 909 H 84.5417 3.41832 -1.94716 0
M  V30 910 H 86.5567 4.65812 -1.70978 0
M  V30 911 N 85.7298 1.2412 0.971189 0
M  V30 912 C 87.1458 1.00584 1.23916 0
M  V30 913 C 87.3458 -0.287481 1.99439 0
M  V30 914 O 86.4018 -1.00454 2.31658 0
M  V30 915 C 87.7148 2.21864 2.0297 0
M  V30 916 C 89.2628 2.26452 2.16076 0
M  V30 917 C 89.7378 3.47343 2.98524 0
M  V30 918 N 91.2288 3.47639 3.06107 0
M  V30 919 C 91.9638 4.37837 3.70251 0
M  V30 920 N 91.4598 5.38286 4.36142 0
M  V30 921 N 93.2528 4.25558 3.67228 0
M  V30 922 H 85.4038 2.07236 0.465499 0
M  V30 923 H 87.6668 0.909236 0.268315 0
M  V30 924 H 87.3728 3.15771 1.54861 0
M  V30 925 H 87.2468 2.23698 3.03709 0
M  V30 926 H 89.6338 1.33078 2.6339 0
M  V30 927 H 89.7148 2.28645 1.14696 0
M  V30 928 H 89.3588 4.41029 2.51905 0
M  V30 929 H 89.2888 3.42393 4.00093 0
M  V30 930 H 91.7798 2.74966 2.59233 0
M  V30 931 H 92.0928 6.03352 4.82894 0
M  V30 932 H 90.4378 5.42176 4.34822 0
M  V30 933 H 93.6288 3.46322 3.14927 0
M  V30 934 H 93.8018 4.96054 4.16935 0
M  V30 935 N 87.2079 -1.17134 1.05439 0
M  V30 936 C 88.4569 -1.86791 0.761049 0
M  V30 937 C 88.7699 -1.82072 -0.714795 0
M  V30 938 O 89.9759 -2.47223 -1.12218 0
M  V30 939 C 88.4319 -3.35166 1.31117 0
M  V30 940 C 88.0399 -3.48381 2.81664 0
M  V30 941 C 89.7839 -4.10134 1.09499 0
M  V30 942 C 87.6909 -4.90793 3.29964 0
M  V30 943 H 86.6209 -0.699681 0.281002 0
M  V30 944 H 89.2719 -1.3226 1.27199 0
M  V30 945 H 87.6539 -3.8925 0.72803 0
M  V30 946 H 88.8279 -3.04502 3.45855 0
M  V30 947 H 87.1429 -2.86836 3.01851 0
M  V30 948 H 89.7399 -5.152 1.43084 0
M  V30 949 H 90.0829 -4.16287 0.0328772 0
M  V30 950 H 90.6159 -3.62264 1.64346 0
M  V30 951 H 87.3549 -4.89816 4.35616 0
M  V30 952 H 86.8749 -5.35333 2.70516 0
M  V30 953 H 88.5539 -5.59573 3.24787 0
M  V30 954 N 88.686 -0.835752 -1.33615 0
M  V30 955 C 89.926 -0.43599 -1.99696 0
M  V30 956 C 90.29 0.98557 -1.64774 0
M  V30 957 O 91.491 1.48889 -2.23798 0
M  V30 958 C 89.762 -0.646721 -3.515 0
M  V30 959 S 91.321 -0.341715 -4.37467 0
M  V30 960 H 88.139 -0.164136 -0.691795 0
M  V30 961 H 90.741 -1.08436 -1.62671 0
M  V30 962 H 89.445 -1.68077 -3.74404 0
M  V30 963 H 88.976 0.0159173 -3.93397 0
M  V30 964 H 90.991 0.839708 -4.89043 0
M  V30 965 N 90.1641 1.46063 -0.591896 0
M  V30 966 C 91.4101 2.02638 -0.0811191 0
M  V30 967 C 91.7431 1.4613 1.27905 0
M  V30 968 O 91.0181 0.629908 1.84017 0
M  V30 969 C 91.3011 3.60091 -0.0252436 0
M  V30 970 C 91.1541 4.26965 -1.41496 0
M  V30 971 C 92.4731 4.3496 0.670685 0
M  V30 972 H 89.5921 0.73635 -0.0309524 0
M  V30 973 H 92.2341 1.741 -0.760859 0
M  V30 974 H 90.3841 3.84535 0.553624 0
M  V30 975 H 92.0561 4.13756 -2.0397 0
M  V30 976 H 90.2991 3.85971 -1.98011 0
M  V30 977 H 90.9701 5.35781 -1.32825 0
M  V30 978 H 93.4461 4.15716 0.178825 0
M  V30 979 H 92.3221 5.44686 0.678837 0
M  V30 980 H 92.5831 4.06685 1.73379 0
M  V30 981 N 91.6422 0.330177 1.54103 0
M  V30 982 C 92.8822 -0.270916 2.02597 0
M  V30 983 C 93.2462 -1.48826 1.21304 0
M  V30 984 O 94.4472 -2.16266 1.59633 0
M  V30 985 C 92.7182 -0.590328 3.52491 0
M  V30 986 S 94.2772 -1.17014 4.2291 0
M  V30 987 H 91.0952 -0.0815379 0.706309 0
M  V30 988 H 93.6972 0.464835 1.89893 0
M  V30 989 H 92.4012 0.303691 4.09275 0
M  V30 990 H 91.9322 -1.3561 3.69288 0
M  V30 991 H 93.9472 -2.45662 4.3112 0
M  V30 992 N 93.1203 -1.57491 0.0584922 0
M  V30 993 C 94.3973 -1.84346 -0.653918 0
M  V30 994 C 94.7773 -0.948355 -1.88599 0
M  V30 995 O 94.1253 -0.0112403 -2.28497 0
M  V30 996 C 94.3353 -3.34239 -1.00425 0
M  V30 997 C 95.6833 -4.01431 -1.38342 0
M  V30 998 O 96.7073 -3.38907 -1.09637 0
M  V30 999 O 95.5663 -5.11683 -1.91943 0
M  V30 1000 H 92.6603 -0.761112 -0.323478 0
M  V30 1001 H 95.2063 -1.6947 0.0884125 0
M  V30 1002 H 93.9783 -3.91089 -0.128625 0
M  V30 1003 H 93.6013 -3.54329 -1.80378 0
M  V30 1004 N 94.5984 0.214957 -1.56127 0
M  V30 1005 C 95.5464 1.28601 -1.93816 0
M  V30 1006 C 96.5404 1.48175 -0.821016 0
M  V30 1007 O 97.7464 1.49271 -1.0059 0
M  V30 1008 H 94.1214 0.431302 -0.616022 0
M  V30 1009 H 96.0924 0.940991 -2.83175 0
M  V30 1010 C 94.8414 2.62779 -2.27689 0
M  V30 1011 H 94.1644 2.48527 -3.13168 0
M  V30 1012 H 95.6044 3.36517 -2.57939 0
M  V30 1013 C 94.0634 3.18285 -1.10436 0
M  V30 1014 O 94.5934 4.00002 -0.368945 0
M  V30 1015 N 92.7994 2.7675 -0.886433 0
M  V30 1016 H 92.3464 2.10404 -1.48619 0
M  V30 1017 H 92.3044 3.14229 -0.103656 0
M  V30 1018 N 96.0765 1.50051 0.48192 0
M  V30 1019 C 97.3245 1.60181 1.23234 0
M  V30 1020 C 97.6455 0.299176 1.92691 0
M  V30 1021 O 96.9155 -0.682708 1.83619 0
M  V30 1022 H 95.4955 0.590232 0.457859 0
M  V30 1023 H 98.1575 1.86775 0.556881 0
M  V30 1024 H 97.2535 2.40753 1.98607 0
M  V30 1025 N 97.5546 -0.734337 1.39446 0
M  V30 1026 C 98.5016 -1.84835 1.38219 0
M  V30 1027 C 99.4716 -1.64331 0.24179 0
M  V30 1028 O 100.657 -1.85728 0.437002 0
M  V30 1029 C 97.7966 -3.22355 1.23212 0
M  V30 1030 C 96.9096 -3.5456 2.46801 0
M  V30 1031 C 96.0446 -4.81485 2.24377 0
M  V30 1032 C 95.0836 -5.06536 3.43639 0
M  V30 1033 N 94.2206 -6.24665 3.20528 0
M  V30 1034 H 99.0606 -1.85219 2.33448 0
M  V30 1035 H 96.5976 -0.905039 1.15963 0
M  V30 1036 H 98.5556 -4.0174 1.12522 0
M  V30 1037 H 97.1856 -3.21248 0.316121 0
M  V30 1038 H 96.2376 -2.69872 2.68092 0
M  V30 1039 H 97.5496 -3.6899 3.3563 0
M  V30 1040 H 96.7036 -5.68852 2.10933 0
M  V30 1041 H 95.4426 -4.6923 1.32944 0
M  V30 1042 H 94.4476 -4.17632 3.5758 0
M  V30 1043 H 95.6726 -5.20676 4.35974 0
M  V30 1044 H 93.6186 -6.13696 2.3176 0
M  V30 1045 H 93.5356 -6.39685 4.02913 0
M  V30 1046 H 94.8036 -7.14868 3.10779 0
M  V30 1047 N 99.0327 -1.24633 -0.964593 0
M  V30 1048 C 100.279 -1.08949 -1.71049 0
M  V30 1049 C 100.612 0.370302 -1.90637 0
M  V30 1050 O 99.8867 1.27349 -1.47011 0
M  V30 1051 C 100.17 -1.83329 -3.0994 0
M  V30 1052 C 100.023 -3.37077 -2.97824 0
M  V30 1053 C 101.342 -1.60846 -4.09654 0
M  V30 1054 H 98.4607 -0.397178 -0.620821 0
M  V30 1055 H 101.103 -1.5334 -1.12191 0
M  V30 1056 H 99.2527 -1.45597 -3.60186 0
M  V30 1057 H 100.925 -3.84425 -2.5498 0
M  V30 1058 H 99.1677 -3.65298 -2.33965 0
M  V30 1059 H 99.8387 -3.84324 -3.96231 0
M  V30 1060 H 102.315 -1.93674 -3.68279 0
M  V30 1061 H 101.191 -2.1534 -5.04896 0
M  V30 1062 H 101.452 -0.547434 -4.38698 0
M  V30 1063 N 100.511 1.16574 -1.06058 0
M  V30 1064 C 101.441 2.23057 -0.690488 0
M  V30 1065 C 102.422 1.67141 0.315901 0
M  V30 1066 O 103.607 1.93253 0.191556 0
M  V30 1067 C 100.737 3.47222 -0.073625 0
M  V30 1068 C 99.6908 4.16016 -1.00573 0
M  V30 1069 C 99.0168 5.34104 -0.252289 0
M  V30 1070 C 100.317 4.67264 -2.33371 0
M  V30 1071 H 102.011 2.54271 -1.58072 0
M  V30 1072 H 99.5568 1.22218 -0.76149 0
M  V30 1073 H 101.51 4.20939 0.19714 0
M  V30 1074 H 100.234 3.15302 0.85161 0
M  V30 1075 H 98.8928 3.44223 -1.2612 0
M  V30 1076 H 98.5408 4.98437 0.675988 0
M  V30 1077 H 98.2408 5.81072 -0.873455 0
M  V30 1078 H 99.7648 6.10599 0.0109857 0
M  V30 1079 H 101.179 5.32573 -2.12223 0
M  V30 1080 H 99.5758 5.24843 -2.90963 0
M  V30 1081 H 100.646 3.83602 -2.96611 0
M  V30 1082 N 101.989 0.842826 1.3317 0
M  V30 1083 C 103.229 0.446574 1.99462 0
M  V30 1084 C 103.593 -0.976818 1.65295 0
M  V30 1085 O 104.794 -1.477 2.24584 0
M  V30 1086 C 103.065 0.665353 3.51152 0
M  V30 1087 S 104.624 0.364911 4.3728 0
M  V30 1088 H 101.442 0.167803 0.690915 0
M  V30 1089 H 104.044 1.09297 1.62094 0
M  V30 1090 H 102.748 1.7006 3.73507 0
M  V30 1091 H 102.279 0.00494568 3.934 0
M  V30 1092 H 104.294 -0.813761 4.89482 0
M  V30 1093 N 103.467 -1.45747 0.599634 0
M  V30 1094 C 104.744 -1.95585 0.0240846 0
M  V30 1095 C 105.124 -1.54217 -1.44154 0
M  V30 1096 O 104.472 -0.800903 -2.14004 0
M  V30 1097 C 104.682 -3.48344 0.21385 0
M  V30 1098 C 106.03 -4.24504 0.0904902 0
M  V30 1099 O 107.054 -3.55911 0.143558 0
M  V30 1100 O 105.913 -5.46491 -0.0310766 0
M  V30 1101 H 103.007 -0.82602 -0.0402478 0
M  V30 1102 H 105.553 -1.55951 0.669139 0
M  V30 1103 H 104.325 -3.71397 1.23206 0
M  V30 1104 H 103.948 -3.9485 -0.466842 0
M  V30 1105 N 104.945 -0.338344 -1.53925 0
M  V30 1106 C 106.222 0.314774 -1.93051 0
M  V30 1107 C 106.602 1.68669 -1.26941 0
M  V30 1108 O 105.95 2.24636 -0.418445 0
M  V30 1109 C 106.16 0.392249 -3.46789 0
M  V30 1110 C 107.508 0.645554 -4.19664 0
M  V30 1111 O 108.532 0.474575 -3.53024 0
M  V30 1112 O 107.391 0.976408 -5.37707 0
M  V30 1113 H 104.485 0.182598 -0.80659 0
M  V30 1114 H 107.031 -0.389141 -1.65178 0
M  V30 1115 H 105.803 -0.570702 -3.87116 0
M  V30 1116 H 105.426 1.14316 -3.80812 0
M  V30 1117 N 106.423 1.57458 -0.0668435 0
M  V30 1118 C 107.669 1.93587 0.6043 0
M  V30 1119 C 108.002 0.946722 1.69561 0
M  V30 1120 O 107.277 -0.0248516 1.94484 0
M  V30 1121 C 107.56 3.40014 1.18585 0
M  V30 1122 C 107.413 4.49685 0.101529 0
M  V30 1123 C 108.732 3.87154 2.09284 0
M  V30 1124 H 105.851 0.703958 0.218202 0
M  V30 1125 H 108.493 1.89542 -0.131804 0
M  V30 1126 H 106.643 3.43592 1.81319 0
M  V30 1127 H 108.315 4.5823 -0.531279 0
M  V30 1128 H 106.558 4.30059 -0.568487 0
M  V30 1129 H 107.229 5.49266 0.54874 0
M  V30 1130 H 109.705 3.85551 1.56491 0
M  V30 1131 H 108.581 4.90231 2.46911 0
M  V30 1132 H 108.842 3.2481 2.99918 0
M  V30 1133 N 107.901 -0.206675 1.56239 0
M  V30 1134 C 109.15 -0.926964 1.79138 0
M  V30 1135 C 109.463 -1.84901 0.638043 0
M  V30 1136 O 110.669 -2.60906 0.751033 0
M  V30 1137 C 109.125 -1.6986 3.17294 0
M  V30 1138 C 108.733 -0.821956 4.40395 0
M  V30 1139 C 110.477 -2.40922 3.4951 0
M  V30 1140 C 108.384 -1.59179 5.69575 0
M  V30 1141 H 107.314 -0.349864 0.667915 0
M  V30 1142 H 109.965 -0.180487 1.8261 0
M  V30 1143 H 108.347 -2.48853 3.08039 0
M  V30 1144 H 109.521 -0.0715019 4.60745 0
M  V30 1145 H 107.836 -0.222741 4.15804 0
M  V30 1146 H 110.433 -2.99047 4.43255 0
M  V30 1147 H 110.776 -3.14542 2.72707 0
M  V30 1148 H 111.309 -1.68905 3.60161 0
M  V30 1149 H 108.048 -0.898589 6.49312 0
M  V30 1150 H 107.568 -2.31648 5.53262 0
M  V30 1151 H 109.247 -2.14862 6.10281 0
M  V30 1152 N 109.379 -1.50304 -0.473955 0
M  V30 1153 C 110.619 -1.62786 -1.23612 0
M  V30 1154 C 110.983 -0.319786 -1.89318 0
M  V30 1155 O 112.184 -0.320012 -2.66888 0
M  V30 1156 C 110.455 -2.77351 -2.25414 0
M  V30 1157 S 112.014 -3.09948 -3.10608 0
M  V30 1158 H 108.832 -0.573895 -0.419721 0
M  V30 1159 H 111.434 -1.88076 -0.533623 0
M  V30 1160 H 110.138 -3.70879 -1.75719 0
M  V30 1161 H 109.669 -2.54137 -3.00296 0
M  V30 1162 H 111.684 -2.53553 -4.26527 0
M  V30 1163 N 110.857 0.726932 -1.39834 0
M  V30 1164 C 112.134 1.47902 -1.28001 0
M  V30 1165 C 112.514 2.1083 0.106789 0
M  V30 1166 O 111.862 1.99242 1.11869 0
M  V30 1167 C 112.072 2.52392 -2.41038 0
M  V30 1168 C 113.42 3.18546 -2.80737 0
M  V30 1169 O 114.444 2.62708 -2.40547 0
M  V30 1170 O 113.303 4.19604 -3.50135 0
M  V30 1171 H 110.397 0.657163 -0.502062 0
M  V30 1172 H 112.943 0.760071 -1.51727 0
M  V30 1173 H 111.715 2.04329 -3.33715 0
M  V30 1174 H 111.338 3.31837 -2.19021 0
M  V30 1175 N 112.336 1.25143 0.95797 0
M  V30 1176 C 113.246 1.06968 2.08794 0
M  V30 1177 C 114.262 0.00773911 1.73998 0
M  V30 1178 O 115.438 0.207972 2.00323 0
M  V30 1179 C 112.503 0.68691 3.39827 0
M  V30 1180 C 111.564 1.82641 3.88511 0
M  V30 1181 C 110.797 1.46181 5.1329 0
M  V30 1182 O 111.02 0.355971 5.69288 0
M  V30 1183 O 109.954 2.29085 5.566 0
M  V30 1184 H 113.78 2.01723 2.27027 0
M  V30 1185 H 111.365 1.04051 1.07209 0
M  V30 1186 H 113.247 0.485417 4.18595 0
M  V30 1187 H 111.922 -0.231417 3.22872 0
M  V30 1188 H 110.829 2.08274 3.10762 0
M  V30 1189 H 112.162 2.72386 4.09959 0
M  V30 1190 N 113.814 -1.1601 1.06675 0
M  V30 1191 C 115.042 -1.90527 0.806667 0
M  V30 1192 C 115.457 -1.77643 -0.639396 0
M  V30 1193 O 114.814 -1.12369 -1.43803 0
M  V30 1194 C 114.865 -3.41106 1.19705 0
M  V30 1195 O 114.586 -3.53608 2.58636 0
M  V30 1196 C 116.087 -4.32663 0.965266 0
M  V30 1197 H 113.307 -0.604053 0.292166 0
M  V30 1198 H 115.851 -1.47026 1.4214 0
M  V30 1199 H 114.006 -3.82296 0.626774 0
M  V30 1200 H 114.42 -4.47011 2.74375 0
M  V30 1201 H 115.894 -5.36763 1.288 0
M  V30 1202 H 116.371 -4.39089 -0.0987936 0
M  V30 1203 H 116.977 -3.97206 1.52011 0
M  V30 1204 N 115.292 -0.849877 -1.32721 0
M  V30 1205 C 116.239 -0.289033 -2.28983 0
M  V30 1206 C 117.209 0.601324 -1.54833 0
M  V30 1207 O 118.394 0.537253 -1.8308 0
M  V30 1208 C 115.534 0.520623 -3.4115 0
M  V30 1209 C 114.647 -0.394989 -4.3019 0
M  V30 1210 C 113.782 0.426834 -5.29482 0
M  V30 1211 C 112.821 -0.486476 -6.10164 0
M  V30 1212 N 111.958 0.297879 -7.01468 0
M  V30 1213 H 116.798 -1.11519 -2.76347 0
M  V30 1214 H 114.335 -0.56138 -1.35967 0
M  V30 1215 H 116.293 1.00563 -4.04899 0
M  V30 1216 H 114.923 1.31165 -2.9495 0
M  V30 1217 H 113.975 -0.99836 -3.67065 0
M  V30 1218 H 115.287 -1.09612 -4.86607 0
M  V30 1219 H 114.441 0.975205 -5.98811 0
M  V30 1220 H 113.18 1.16136 -4.73671 0
M  V30 1221 H 112.185 -1.04677 -5.39743 0
M  V30 1222 H 113.41 -1.21953 -6.6806 0
M  V30 1223 H 111.356 1.01558 -6.48091 0
M  V30 1224 H 111.273 -0.344318 -7.55216 0
M  V30 1225 H 112.541 0.828131 -7.75089 0
M  V30 1226 N 116.77 1.45427 -0.607355 0
M  V30 1227 C 117.718 2.32269 0.12411 0
M  V30 1228 C 118.712 1.45955 0.859854 0
M  V30 1229 O 119.918 1.6244 0.775447 0
M  V30 1230 H 116.293 0.749691 0.0588839 0
M  V30 1231 H 118.264 2.91743 -0.626762 0
M  V30 1232 C 117.013 3.29567 1.1082 0
M  V30 1233 H 116.336 3.95978 0.551492 0
M  V30 1234 H 117.776 3.93061 1.58995 0
M  V30 1235 C 116.235 2.56722 2.18164 0
M  V30 1236 O 116.765 2.34842 3.25902 0
M  V30 1237 N 114.971 2.16861 1.93442 0
M  V30 1238 H 114.518 2.34855 1.05834 0
M  V30 1239 H 114.476 1.68444 2.65469 0
M  V30 1240 N 118.248 0.346503 1.53744 0
M  V30 1241 C 119.488 -0.249413 2.02873 0
M  V30 1242 C 119.852 -1.47532 1.22876 0
M  V30 1243 O 121.053 -2.1456 1.61918 0
M  V30 1244 C 119.324 -0.552909 3.53097 0
M  V30 1245 S 120.883 -1.12521 4.24128 0
M  V30 1246 H 117.701 -0.074042 0.707134 0
M  V30 1247 H 120.303 0.48495 1.8939 0
M  V30 1248 H 119.007 0.347083 4.0893 0
M  V30 1249 H 118.538 -1.31686 3.70705 0
M  V30 1250 H 120.553 -2.41075 4.33702 0
M  V30 1251 N 119.726 -1.57421 0.075193 0
M  V30 1252 C 121.137 -1.81021 -0.456964 0
M  V30 1253 C 121.488 -0.98936 -1.69429 0
M  V30 1254 O 120.613 -0.212865 -2.15351 0
M  V30 1255 C 121.208 -3.28329 -0.83581 0
M  V30 1256 C 119.767 -3.52764 -1.31281 0
M  V30 1257 C 118.914 -2.75676 -0.299648 0
M  V30 1258 H 121.865 -1.55822 0.300856 0
M  V30 1259 H 121.886 -3.40564 -1.69696 0
M  V30 1260 H 121.398 -3.88046 0.0649238 0
M  V30 1261 H 119.499 -2.98355 -2.23193 0
M  V30 1262 H 119.612 -4.61451 -1.28839 0
M  V30 1263 H 117.976 -2.42538 -0.777641 0
M  V30 1264 H 118.759 -3.38132 0.593417 0
M  V30 1265 N 121.204 0.198386 -1.56346 0
M  V30 1266 C 122.452 0.91747 -1.80075 0
M  V30 1267 C 122.773 1.83929 -0.647692 0
M  V30 1268 O 122.043 1.93029 0.334166 0
M  V30 1269 H 120.623 0.341774 -0.664228 0
M  V30 1270 H 123.285 0.204684 -1.93822 0
M  V30 1271 H 122.381 1.51055 -2.7311 0
M  V30 1272 N 122.682 1.50554 0.465978 0
M  V30 1273 C 123.645 1.69233 1.54574 0
M  V30 1274 C 124.645 0.562901 1.50626 0
M  V30 1275 O 125.835 0.830016 1.53155 0
M  V30 1276 C 122.967 1.7223 2.94193 0
M  V30 1277 H 124.16 2.65571 1.39327 0
M  V30 1278 H 121.713 1.40111 0.692711 0
M  V30 1279 H 122.448 0.77603 3.14878 0
M  V30 1280 H 122.233 2.54285 2.98466 0
M  V30 1281 H 123.723 1.88618 3.72576 0
M  V30 1282 N 124.16 -0.719506 1.40217 0
M  V30 1283 C 125.07 -1.86378 1.42479 0
M  V30 1284 C 126.086 -1.71073 0.317834 0
M  V30 1285 O 127.262 -1.93406 0.561794 0
M  V30 1286 C 124.327 -3.22136 1.28178 0
M  V30 1287 C 123.388 -3.49723 2.48982 0
M  V30 1288 C 122.621 -4.79004 2.35353 0
M  V30 1289 O 122.844 -5.53821 1.36524 0
M  V30 1290 O 121.778 -5.06839 3.2465 0
M  V30 1291 H 125.604 -1.87425 2.38968 0
M  V30 1292 H 123.189 -0.869405 1.21498 0
M  V30 1293 H 125.071 -4.03234 1.22395 0
M  V30 1294 H 123.746 -3.21825 0.347934 0
M  V30 1295 H 122.653 -2.6865 2.60342 0
M  V30 1296 H 123.986 -3.54828 3.41113 0
M  V30 1297 N 125.638 -1.25649 -0.95132 0
M  V30 1298 C 126.884 -1.10757 -1.69884 0
M  V30 1299 C 127.217 0.350061 -1.91019 0
M  V30 1300 O 126.492 1.25783 -1.48354 0
M  V30 1301 C 126.775 -1.86606 -3.07978 0
M  V30 1302 C 126.628 -3.40217 -2.94232 0
M  V30 1303 C 127.947 -1.65182 -4.07925 0
M  V30 1304 H 125.066 -0.40374 -0.616574 0
M  V30 1305 H 127.708 -1.54521 -1.10558 0
M  V30 1306 H 125.858 -1.49409 -3.58621 0
M  V30 1307 H 127.53 -3.87108 -2.50889 0
M  V30 1308 H 125.773 -3.67759 -2.30078 0
M  V30 1309 H 126.444 -3.88505 -3.92133 0
M  V30 1310 H 128.92 -1.9757 -3.66204 0
M  V30 1311 H 127.796 -2.20683 -5.02583 0
M  V30 1312 H 128.057 -0.593933 -4.38092 0
M  V30 1313 N 127.117 1.15442 -1.07289 0
M  V30 1314 C 128.528 1.67803 -0.818475 0
M  V30 1315 C 128.879 1.8489 0.656507 0
M  V30 1316 O 128.004 1.55176 1.50829 0
M  V30 1317 C 128.599 3.04805 -1.47917 0
M  V30 1318 C 127.158 3.54245 -1.27229 0
M  V30 1319 C 126.305 2.29986 -1.54925 0
M  V30 1320 H 129.256 0.996646 -1.23502 0
M  V30 1321 H 129.277 3.69702 -0.90005 0
M  V30 1322 H 128.789 2.92336 -2.55267 0
M  V30 1323 H 126.89 3.71956 -0.21899 0
M  V30 1324 H 127.003 4.35723 -1.99203 0
M  V30 1325 H 125.367 2.35496 -0.970242 0
M  V30 1326 H 126.15 2.20105 -2.63455 0
M  V30 1327 N 128.595 0.856903 1.32268 0
M  V30 1328 C 129.505 0.306131 2.32594 0
M  V30 1329 C 130.521 -0.577209 1.64147 0
M  V30 1330 O 131.697 -0.477043 1.95669 0
M  V30 1331 C 128.762 -0.494561 3.43154 0
M  V30 1332 C 127.823 0.415186 4.27288 0
M  V30 1333 C 127.056 -0.347387 5.32568 0
M  V30 1334 O 127.279 -1.57708 5.48165 0
M  V30 1335 O 126.213 0.287982 6.01211 0
M  V30 1336 H 130.039 1.13737 2.81598 0
M  V30 1337 H 127.624 0.619902 1.35932 0
M  V30 1338 H 129.506 -0.948944 4.10576 0
M  V30 1339 H 128.181 -1.30257 2.96336 0
M  V30 1340 H 127.088 0.917793 3.62667 0
M  V30 1341 H 128.421 1.18844 4.77637 0
M  V30 1342 N 130.073 -1.45103 0.615059 0
M  V30 1343 C 131.321 -2.01784 0.112955 0
M  V30 1344 C 131.642 -1.48504 -1.26378 0
M  V30 1345 O 130.912 -0.682245 -1.83636 0
M  V30 1346 H 129.492 -0.745993 0.0387668 0
M  V30 1347 H 132.154 -1.77808 0.798141 0
M  V30 1348 H 131.25 -3.12025 0.0684069 0
M  V30 1349 N 131.551 -0.354651 -1.53558 0
M  V30 1350 C 132.461 0.50515 -2.29097 0
M  V30 1351 C 133.477 1.10223 -1.34636 0
M  V30 1352 O 134.653 1.11553 -1.67684 0
M  V30 1353 C 131.718 1.63479 -3.05738 0
M  V30 1354 C 130.779 1.06636 -4.15845 0
M  V30 1355 C 130.012 2.14217 -4.88822 0
M  V30 1356 O 130.235 3.35137 -4.61562 0
M  V30 1357 O 129.169 1.77887 -5.75013 0
M  V30 1358 H 132.995 -0.109237 -3.03503 0
M  V30 1359 H 130.58 -0.119357 -1.48922 0
M  V30 1360 H 132.462 2.2918 -3.5363 0
M  V30 1361 H 131.137 2.23478 -2.34178 0
M  V30 1362 H 130.044 0.373565 -3.7223 0
M  V30 1363 H 131.377 0.511081 -4.89539 0
M  V30 1364 N 133.029 1.57378 -0.0835403 0
M  V30 1365 C 134.269 1.95808 0.586381 0
M  V30 1366 C 134.633 0.963706 1.66062 0
M  V30 1367 O 135.834 1.23608 2.38693 0
M  V30 1368 C 134.105 3.38808 1.13771 0
M  V30 1369 S 135.664 3.99225 1.82112 0
M  V30 1370 H 132.482 0.684675 0.191679 0
M  V30 1371 H 135.084 1.94843 -0.160194 0
M  V30 1372 H 133.788 4.08954 0.344197 0
M  V30 1373 H 133.319 3.43344 1.92038 0
M  V30 1374 H 135.334 3.87087 3.10449 0
M  V30 1375 N 134.507 -0.190092 1.56449 0
M  V30 1376 C 135.747 -0.916414 1.82705 0
M  V30 1377 C 136.111 -1.80235 0.661763 0
M  V30 1378 O 137.312 -2.56484 0.80433 0
M  V30 1379 C 135.583 -1.70691 3.14005 0
M  V30 1380 S 137.142 -2.48457 3.61683 0
M  V30 1381 H 133.96 -0.307281 0.64117 0
M  V30 1382 H 136.562 -0.179433 1.94675 0
M  V30 1383 H 135.266 -1.04677 3.96826 0
M  V30 1384 H 134.797 -2.48562 3.04927 0
M  V30 1385 H 136.812 -3.72756 3.27517 0
M  V30 1386 N 135.985 -1.50799 -0.457987 0
M  V30 1387 C 137.396 -1.55152 -1.0385 0
M  V30 1388 C 137.747 -0.362719 -1.92818 0
M  V30 1389 O 136.872 0.522915 -2.09987 0
M  V30 1390 C 137.467 -2.81173 -1.89017 0
M  V30 1391 C 136.026 -2.88164 -2.42154 0
M  V30 1392 C 135.173 -2.49591 -1.20829 0
M  V30 1393 H 138.124 -1.56874 -0.240068 0
M  V30 1394 H 138.145 -2.63769 -2.74238 0
M  V30 1395 H 137.657 -3.67677 -1.24238 0
M  V30 1396 H 135.758 -2.06042 -3.10447 0
M  V30 1397 H 135.871 -3.91356 -2.76364 0
M  V30 1398 H 134.235 -2.02322 -1.54719 0
M  V30 1399 H 135.018 -3.38418 -0.576927 0
M  V30 1400 N 137.463 0.71206 -1.40597 0
M  V30 1401 C 138.709 1.47416 -1.39271 0
M  V30 1402 C 139.042 1.942 0.00388791 0
M  V30 1403 O 138.317 1.68403 0.973179 0
M  V30 1404 C 138.6 2.69774 -2.38525 0
M  V30 1405 C 138.453 2.28861 -3.87224 0
M  V30 1406 C 139.772 3.71939 -2.35264 0
M  V30 1407 H 136.891 0.534713 -0.5072 0
M  V30 1408 H 139.533 0.812375 -1.71757 0
M  V30 1409 H 137.683 3.26238 -2.10953 0
M  V30 1410 H 139.355 1.77852 -4.25636 0
M  V30 1411 H 137.598 1.60824 -4.02887 0
M  V30 1412 H 138.269 3.16584 -4.52193 0
M  V30 1413 H 140.745 3.25113 -2.59694 0
M  V30 1414 H 139.621 4.55186 -3.06753 0
M  V30 1415 H 139.882 4.20484 -1.36549 0
M  V30 1416 N 138.941 1.26152 0.944643 0
M  V30 1417 C 140.181 1.12708 1.70517 0
M  V30 1418 C 140.545 -0.324727 1.89234 0
M  V30 1419 O 141.746 -0.581211 2.62441 0
M  V30 1420 C 140.017 1.8713 3.04495 0
M  V30 1421 S 141.576 1.89698 3.95677 0
M  V30 1422 H 138.394 0.402665 0.585988 0
M  V30 1423 H 140.996 1.59821 1.12594 0
M  V30 1424 H 139.7 2.91833 2.88551 0
M  V30 1425 H 139.231 1.40444 3.67477 0
M  V30 1426 H 141.246 0.981198 4.86402 0
M  V30 1427 N 140.419 -1.14872 1.07899 0
M  V30 1428 C 141.83 -1.67367 0.827363 0
M  V30 1429 C 142.181 -1.85236 -0.646693 0
M  V30 1430 O 141.306 -1.55974 -1.50004 0
M  V30 1431 C 141.901 -3.04016 1.49532 0
M  V30 1432 C 140.46 -3.53566 1.29106 0
M  V30 1433 C 139.607 -2.29161 1.56143 0
M  V30 1434 H 142.558 -0.990083 1.24028 0
M  V30 1435 H 142.579 -3.69219 0.919643 0
M  V30 1436 H 142.091 -2.90978 2.56814 0
M  V30 1437 H 140.192 -3.71835 0.238713 0
M  V30 1438 H 140.305 -4.34661 2.01511 0
M  V30 1439 H 138.669 -2.34978 0.982717 0
M  V30 1440 H 139.452 -2.18705 2.64619 0
M  V30 1441 N 141.898 -0.863906 -1.31812 0
M  V30 1442 C 143.175 -0.39275 -1.91616 0
M  V30 1443 C 143.555 1.12461 -1.7865 0
M  V30 1444 O 142.903 1.95045 -1.19037 0
M  V30 1445 C 143.113 -0.867385 -3.38049 0
M  V30 1446 C 144.461 -0.889966 -4.15168 0
M  V30 1447 O 145.485 -0.812635 -3.46806 0
M  V30 1448 O 144.344 -1.00079 -5.37258 0
M  V30 1449 H 141.438 -0.116358 -0.818773 0
M  V30 1450 H 143.984 -0.951418 -1.40521 0
M  V30 1451 H 142.756 -1.91081 -3.41473 0
M  V30 1452 H 142.379 -0.286687 -3.96565 0
M  V30 1453 N 143.376 1.44774 -0.622745 0
M  V30 1454 C 144.624 2.01721 -0.123655 0
M  V30 1455 C 144.945 1.49172 1.25589 0
M  V30 1456 O 144.215 0.691974 1.83272 0
M  V30 1457 H 142.795 0.745777 -0.0427225 0
M  V30 1458 H 145.457 1.77382 -0.807559 0
M  V30 1459 H 144.553 3.11984 -0.0849534 0
M  V30 1460 N 144.854 0.36279 1.53368 0
M  V30 1461 C 146.079 -0.231226 2.06107 0
M  V30 1462 C 146.504 -1.419 1.23474 0
M  V30 1463 O 145.862 -1.79524 0.253128 0
M  V30 1464 C 145.91 -0.605523 3.5548 0
M  V30 1465 O 145.014 -1.70312 3.7559 0
M  V30 1466 H 144.355 -0.034327 0.663112 0
M  V30 1467 H 146.885 0.522584 1.97814 0
M  V30 1468 H 146.895 -0.877314 3.98456 0
M  V30 1469 H 145.57 0.263004 4.15068 0
M  V30 1470 H 144.147 -1.4271 3.44512 0
M  V30 1471 N 146.332 -1.57332 0.0918853 0
M  V30 1472 C 147.242 -2.17368 -0.882505 0
M  V30 1473 C 148.258 -1.14226 -1.31257 0
M  V30 1474 O 149.434 -1.46582 -1.38115 0
M  V30 1475 C 146.499 -2.73962 -2.12476 0
M  V30 1476 C 145.56 -3.92048 -1.7492 0
M  V30 1477 C 144.793 -4.45933 -2.93223 0
M  V30 1478 O 145.016 -3.98764 -4.07852 0
M  V30 1479 O 143.95 -5.36999 -2.71875 0
M  V30 1480 H 147.776 -3.01031 -0.40172 0
M  V30 1481 H 145.361 -1.48813 -0.132291 0
M  V30 1482 H 147.243 -3.10147 -2.85283 0
M  V30 1483 H 145.918 -1.93347 -2.59613 0
M  V30 1484 H 144.825 -3.6068 -0.993025 0
M  V30 1485 H 146.158 -4.74017 -1.32548 0
M  V30 1486 N 147.81 0.181792 -1.56548 0
M  V30 1487 C 149.035 0.920019 -1.85877 0
M  V30 1488 C 149.46 1.75494 -0.677021 0
M  V30 1489 O 148.818 1.77399 0.374056 0
M  V30 1490 C 148.866 1.78112 -3.13542 0
M  V30 1491 O 147.97 2.88152 -2.95029 0
M  V30 1492 H 147.311 0.258334 -0.611686 0
M  V30 1493 H 149.841 0.183092 -2.03779 0
M  V30 1494 H 149.851 2.18314 -3.44678 0
M  V30 1495 H 148.526 1.16777 -3.99169 0
M  V30 1496 H 147.103 2.51609 -2.75222 0
M  V30 1497 N 149.288 1.51039 0.449983 0
M  V30 1498 C 150.699 1.557 1.03026 0
M  V30 1499 C 151.05 0.372939 1.92623 0
M  V30 1500 O 150.175 -0.511771 2.10261 0
M  V30 1501 C 150.77 2.82171 1.87523 0
M  V30 1502 C 149.329 2.89444 2.40622 0
M  V30 1503 C 148.476 2.50228 1.19504 0
M  V30 1504 H 151.427 1.56999 0.231745 0
M  V30 1505 H 151.448 2.65219 2.72835 0
M  V30 1506 H 150.96 3.68331 1.22286 0
M  V30 1507 H 149.061 2.07685 3.0935 0
M  V30 1508 H 149.174 3.92816 2.74285 0
M  V30 1509 H 147.538 2.03139 1.53644 0
M  V30 1510 H 148.321 3.38719 0.558972 0
M  V30 1511 N 150.766 -0.704594 1.40972 0
M  V30 1512 C 151.994 -1.49354 1.43182 0
M  V30 1513 C 152.409 -1.88768 0.0345508 0
M  V30 1514 O 151.766 -1.56184 -0.944081 0
M  V30 1515 C 151.817 -2.76187 2.33244 0
M  V30 1516 O 151.538 -2.38436 3.67532 0
M  V30 1517 C 153.039 -3.7 2.44162 0
M  V30 1518 H 150.259 -0.460559 0.487982 0
M  V30 1519 H 152.803 -0.868261 1.85153 0
M  V30 1520 H 150.958 -3.34974 1.94606 0
M  V30 1521 H 151.372 -3.20126 4.15475 0
M  V30 1522 H 152.846 -4.55803 3.11364 0
M  V30 1523 H 153.323 -4.13867 1.47006 0
M  V30 1524 H 153.929 -3.17121 2.83398 0
M  V30 1525 N 152.244 -1.26651 -0.937939 0
M  V30 1526 C 153.521 -1.0313 -1.66204 0
M  V30 1527 C 153.901 0.437256 -2.06522 0
M  V30 1528 O 153.249 1.41831 -1.79154 0
M  V30 1529 C 153.459 -1.98314 -2.87181 0
M  V30 1530 C 154.807 -2.27107 -3.58758 0
M  V30 1531 O 155.831 -1.96205 -2.97291 0
M  V30 1532 O 154.69 -2.79736 -4.69479 0
M  V30 1533 H 151.784 -0.392384 -0.727986 0
M  V30 1534 H 154.33 -1.37874 -0.989382 0
M  V30 1535 H 153.102 -2.97399 -2.54302 0
M  V30 1536 H 152.725 -1.64068 -3.6217 0
M  V30 1537 N 153.722 1.14298 -1.08507 0
M  V30 1538 C 154.654 2.1907 -0.673859 0
M  V30 1539 C 155.667 1.60381 0.279577 0
M  V30 1540 O 156.856 1.78374 0.0670754 0
M  V30 1541 C 153.956 3.38888 0.0290979 0
M  V30 1542 C 153.129 4.27103 -0.943494 0
M  V30 1543 C 152.188 5.25477 -0.275676 0
M  V30 1544 O 151.214 5.61709 -0.920401 0
M  V30 1545 N 152.416 5.7227 0.974013 0
M  V30 1546 H 155.181 2.54965 -1.57521 0
M  V30 1547 H 152.742 1.29528 -0.971287 0
M  V30 1548 H 154.734 4.01761 0.48683 0
M  V30 1549 H 153.304 3.01309 0.832555 0
M  V30 1550 H 152.524 3.61149 -1.58004 0
M  V30 1551 H 153.812 4.82905 -1.60251 0
M  V30 1552 H 153.21 5.44965 1.51755 0
M  V30 1553 H 151.767 6.37127 1.37522 0
M  V30 1554 N 155.201 0.870884 1.31352 0
M  V30 1555 C 156.111 0.330783 2.32256 0
M  V30 1556 C 157.127 -0.559767 1.6475 0
M  V30 1557 O 158.303 -0.456263 1.96164 0
M  V30 1558 C 155.368 -0.458137 3.4366 0
M  V30 1559 C 154.429 0.460482 4.26823 0
M  V30 1560 C 153.662 -0.290881 5.32907 0
M  V30 1561 O 153.885 -1.51885 5.49806 0
M  V30 1562 O 152.819 0.351732 6.00871 0
M  V30 1563 H 156.645 1.16718 2.80376 0
M  V30 1564 H 154.23 0.634285 1.35267 0
M  V30 1565 H 156.112 -0.905343 4.1156 0
M  V30 1566 H 154.787 -1.27106 2.97701 0
M  V30 1567 H 153.694 0.956207 3.61673 0
M  V30 1568 H 155.027 1.23903 4.7635 0
M  V30 1569 N 156.679 -1.44442 0.630414 0
M  V30 1570 C 157.907 -2.06414 0.141671 0
M  V30 1571 C 158.322 -1.47105 -1.18345 0
M  V30 1572 O 157.679 -0.593662 -1.72574 0
M  V30 1573 C 157.73 -3.61494 0.0199784 0
M  V30 1574 O 157.451 -4.18594 1.29269 0
M  V30 1575 C 158.952 -4.40499 -0.497544 0
M  V30 1576 H 156.172 -0.666292 0.0793452 0
M  V30 1577 H 158.716 -1.85323 0.864614 0
M  V30 1578 H 156.871 -3.8185 -0.653402 0
M  V30 1579 H 157.285 -5.12026 1.13707 0
M  V30 1580 H 158.759 -5.49433 -0.531708 0
M  V30 1581 H 159.236 -4.11895 -1.52445 0
M  V30 1582 H 159.842 -4.25061 0.142562 0
M  V30 1583 N 158.157 -0.370918 -1.53173 0
M  V30 1584 C 159.385 0.217704 -2.05751 0
M  V30 1585 C 159.8 1.42018 -1.24404 0
M  V30 1586 O 159.157 1.80245 -0.286033 0
M  V30 1587 C 159.208 0.605954 -3.56385 0
M  V30 1588 O 158.929 -0.548734 -4.3465 0
M  V30 1589 C 160.43 1.2524 -4.25241 0
M  V30 1590 H 157.65 0.0371659 -0.66997 0
M  V30 1591 H 160.194 -0.530832 -1.9749 0
M  V30 1592 H 158.349 1.3044 -3.6478 0
M  V30 1593 H 158.763 -0.23376 -5.23979 0
M  V30 1594 H 160.237 1.47458 -5.3194 0
M  V30 1595 H 160.714 2.2143 -3.79296 0
M  V30 1596 H 161.32 0.595233 -4.21114 0
M  V30 1597 N 159.635 1.57281 -0.100228 0
M  V30 1598 C 160.883 1.94153 0.561157 0
M  V30 1599 C 161.204 0.983157 1.68401 0
M  V30 1600 O 160.474 0.0361132 1.95867 0
M  V30 1601 H 159.054 0.716791 0.210283 0
M  V30 1602 H 161.716 1.94202 -0.164765 0
M  V30 1603 H 160.812 2.96709 0.968008 0
M  V30 1604 N 161.113 -0.173488 1.56642 0
M  V30 1605 C 162.359 -0.891784 1.8214 0
M  V30 1606 C 162.692 -1.8199 0.677736 0
M  V30 1607 O 161.967 -1.91842 -0.320446 0
M  V30 1608 C 162.25 -1.68933 3.18015 0
M  V30 1609 C 162.103 -0.784487 4.42906 0
M  V30 1610 C 163.422 -2.65748 3.50808 0
M  V30 1611 H 160.541 -0.322761 0.662567 0
M  V30 1612 H 163.183 -0.158095 1.89341 0
M  V30 1613 H 161.333 -2.31482 3.12007 0
M  V30 1614 H 163.005 -0.172046 4.60979 0
M  V30 1615 H 161.248 -0.0924117 4.33702 0
M  V30 1616 H 161.919 -1.37799 5.34524 0
M  V30 1617 H 164.395 -2.13327 3.57255 0
M  V30 1618 H 163.271 -3.18619 4.4696 0
M  V30 1619 H 163.532 -3.45842 2.75401 0
M  V30 1620 N 162.591 -1.51276 -0.441967 0
M  V30 1621 C 163.501 -1.75092 -1.56141 0
M  V30 1622 C 164.517 -0.634963 -1.62001 0
M  V30 1623 O 165.693 -0.916686 -1.79329 0
M  V30 1624 C 162.758 -1.86666 -2.92158 0
M  V30 1625 C 161.819 -3.10506 -2.96453 0
M  V30 1626 C 161.052 -3.21519 -4.25982 0
M  V30 1627 O 161.275 -2.38586 -5.18105 0
M  V30 1628 O 160.209 -4.14465 -4.36466 0
M  V30 1629 H 164.035 -2.70044 -1.38961 0
M  V30 1630 H 161.62 -1.35722 -0.624499 0
M  V30 1631 H 163.502 -1.96292 -3.72891 0
M  V30 1632 H 162.177 -0.949014 -3.09476 0
M  V30 1633 H 161.084 -3.06363 -2.14692 0
M  V30 1634 H 162.417 -4.01945 -2.84079 0
M  V30 1635 N 164.069 0.697108 -1.41344 0
M  V30 1636 C 165.317 1.45426 -1.40341 0
M  V30 1637 C 165.638 1.94996 -0.0128787 0
M  V30 1638 O 164.908 1.71599 0.945027 0
M  V30 1639 H 163.488 0.539594 -0.516573 0
M  V30 1640 H 166.15 0.825201 -1.76569 0
M  V30 1641 H 165.246 2.31817 -2.08967 0
M  V30 1642 N 165.547 1.27147 0.931209 0
M  V30 1643 C 166.958 1.12044 1.49342 0
M  V30 1644 C 167.309 -0.295795 1.93957 0
M  V30 1645 O 166.434 -1.18835 1.80852 0
M  V30 1646 C 167.029 2.02781 2.71414 0
M  V30 1647 C 165.588 1.91794 3.2387 0
M  V30 1648 C 164.735 1.95543 1.96617 0
M  V30 1649 H 167.686 1.40091 0.745672 0
M  V30 1650 H 167.707 1.58156 3.46074 0
M  V30 1651 H 167.219 3.05848 2.38911 0
M  V30 1652 H 165.32 0.916992 3.6114 0
M  V30 1653 H 165.433 2.77852 3.90302 0
M  V30 1654 H 163.797 1.39722 2.12955 0
M  V30 1655 H 164.58 3.00259 1.66432 0
M  V30 1656 N 167.025 -1.13721 1.09112 0
M  V30 1657 C 167.972 -2.19031 0.727591 0
M  V30 1658 C 168.942 -1.63555 -0.289656 0
M  V30 1659 O 170.127 -1.90023 -0.172026 0
M  V30 1660 C 167.267 -3.4477 0.15082 0
M  V30 1661 C 166.38 -4.14365 1.22172 0
M  V30 1662 C 165.515 -5.27709 0.608042 0
M  V30 1663 C 164.554 -5.89147 1.66047 0
M  V30 1664 N 163.691 -6.93929 1.06806 0
M  V30 1665 H 168.531 -2.49475 1.62991 0
M  V30 1666 H 166.068 -1.22499 0.81439 0
M  V30 1667 H 168.026 -4.16714 -0.201358 0
M  V30 1668 H 166.656 -3.14787 -0.714783 0
M  V30 1669 H 165.708 -3.40737 1.69122 0
M  V30 1670 H 167.02 -4.56114 2.01895 0
M  V30 1671 H 166.174 -6.06355 0.204523 0
M  V30 1672 H 164.913 -4.872 -0.220769 0
M  V30 1673 H 163.918 -5.09198 2.07357 0
M  V30 1674 H 165.143 -6.31729 2.49189 0
M  V30 1675 H 163.089 -6.55483 0.260476 0
M  V30 1676 H 163.006 -7.34202 1.8023 0
M  V30 1677 H 164.274 -7.76434 0.690644 0
M  V30 1678 N 168.503 -0.877838 -1.30888 0
M  V30 1679 C 169.751 -0.491723 -1.96027 0
M  V30 1680 C 170.072 0.960827 -1.69685 0
M  V30 1681 O 169.342 1.67462 -1.01654 0
M  V30 1682 H 167.922 -0.17885 -0.725273 0
M  V30 1683 H 170.584 -1.11935 -1.59551 0
M  V30 1684 H 169.68 -0.656016 -3.05128 0
M  V30 1685 N 169.982 1.44106 -0.638065 0
M  V30 1686 C 171.259 1.95453 -0.0759321 0
M  V30 1687 C 171.639 1.57984 1.40015 0
M  V30 1688 O 170.987 0.857361 2.11806 0
M  V30 1689 C 171.197 3.47655 -0.306132 0
M  V30 1690 C 172.545 4.24114 -0.203008 0
M  V30 1691 O 173.569 3.55405 -0.237871 0
M  V30 1692 O 172.428 5.46381 -0.113827 0
M  V30 1693 H 169.522 0.826797 0.0183332 0
M  V30 1694 H 172.068 1.54122 -0.710251 0
M  V30 1695 H 170.84 3.68 -1.3301 0
M  V30 1696 H 170.463 3.95949 0.361991 0
M  V30 1697 N 171.46 0.379036 1.52974 0
M  V30 1698 C 172.688 -0.20679 2.05864 0
M  V30 1699 C 173.103 -1.41356 1.25155 0
M  V30 1700 O 172.46 -1.8009 0.295588 0
M  V30 1701 C 172.511 -0.587045 3.56702 0
M  V30 1702 O 172.232 0.571776 4.34353 0
M  V30 1703 C 173.733 -1.22983 4.25899 0
M  V30 1704 H 170.953 -0.0336123 0.670158 0
M  V30 1705 H 173.497 0.541298 1.97206 0
M  V30 1706 H 171.652 -1.28504 3.65466 0
M  V30 1707 H 172.066 0.261544 5.23847 0
M  V30 1708 H 173.54 -1.44635 5.32715 0
M  V30 1709 H 174.017 -2.19416 3.80465 0
M  V30 1710 H 174.623 -0.572892 4.21424 0
M  V30 1711 N 172.938 -1.57226 0.108567 0
M  V30 1712 C 174.186 -1.94448 -0.550853 0
M  V30 1713 C 174.507 -0.992074 -1.67878 0
M  V30 1714 O 173.777 -0.0465 -1.95845 0
M  V30 1715 H 172.357 -0.717897 -0.206479 0
M  V30 1716 H 175.019 -1.94112 0.175062 0
M  V30 1717 H 174.115 -2.97218 -0.952259 0
M  V30 1718 N 174.416 0.165178 -1.56732 0
M  V30 1719 C 175.827 0.727046 -1.71962 0
M  V30 1720 C 176.178 1.82508 -0.720078 0
M  V30 1721 O 175.303 2.16082 0.117242 0
M  V30 1722 C 175.898 1.32559 -3.11791 0
M  V30 1723 C 174.457 1.83422 -3.28684 0
M  V30 1724 C 173.604 0.715567 -2.67908 0
M  V30 1725 H 176.555 -0.0602896 -1.58585 0
M  V30 1726 H 176.576 2.19533 -3.10782 0
M  V30 1727 H 176.088 0.526195 -3.84516 0
M  V30 1728 H 174.189 2.65986 -2.60926 0
M  V30 1729 H 174.302 1.97543 -4.36478 0
M  V30 1730 H 172.666 1.13758 -2.27884 0
M  V30 1731 H 173.449 -0.0720836 -3.43224 0
M  V30 1732 N 175.894 1.51508 0.433938 0
M  V30 1733 C 177.31 1.39759 0.770682 0
M  V30 1734 C 177.51 0.482594 1.95636 0
M  V30 1735 O 176.566 -0.0609691 2.52426 0
M  V30 1736 C 177.879 2.81851 1.04787 0
M  V30 1737 C 179.427 2.91025 1.1521 0
M  V30 1738 C 179.902 4.34032 1.46219 0
M  V30 1739 N 181.393 4.37154 1.53136 0
M  V30 1740 C 182.128 5.4484 1.78709 0
M  V30 1741 N 181.624 6.62682 2.02051 0
M  V30 1742 N 183.417 5.32324 1.80519 0
M  V30 1743 H 175.568 2.09548 -0.346892 0
M  V30 1744 H 177.831 0.943446 -0.0928074 0
M  V30 1745 H 177.537 3.50815 0.249304 0
M  V30 1746 H 177.411 3.21386 1.97461 0
M  V30 1747 H 179.798 2.22257 1.94128 0
M  V30 1748 H 179.879 2.54983 0.204281 0
M  V30 1749 H 179.523 5.03351 0.678274 0
M  V30 1750 H 179.453 4.6759 2.42212 0
M  V30 1751 H 181.944 3.52197 1.36987 0
M  V30 1752 H 182.257 7.40543 2.20943 0
M  V30 1753 H 180.602 6.65791 1.99366 0
M  V30 1754 H 183.793 4.39246 1.61805 0
M  V30 1755 H 183.966 6.16328 2.00111 0
M  V30 1756 N 177.372 -0.689602 1.41712 0
M  V30 1757 C 178.62 -1.4468 1.4111 0
M  V30 1758 C 178.941 -1.94986 0.0232196 0
M  V30 1759 O 178.211 -1.72097 -0.935913 0
M  V30 1760 H 176.791 -0.536847 0.519427 0
M  V30 1761 H 179.453 -0.815825 1.77004 0
M  V30 1762 H 178.549 -2.30706 2.10193 0
M  V30 1763 N 178.85 -1.27639 -0.924453 0
M  V30 1764 C 180.261 -1.12834 -1.48746 0
M  V30 1765 C 180.612 0.285505 -1.94112 0
M  V30 1766 O 179.737 1.17874 -1.81479 0
M  V30 1767 C 180.332 -2.04217 -2.70334 0
M  V30 1768 C 178.891 -1.93509 -3.22848 0
M  V30 1769 C 178.038 -1.96583 -1.95577 0
M  V30 1770 H 180.989 -1.40484 -0.738233 0
M  V30 1771 H 181.01 -1.59989 -3.4523 0
M  V30 1772 H 180.522 -3.07111 -2.37285 0
M  V30 1773 H 178.623 -0.936131 -3.60649 0
M  V30 1774 H 178.736 -2.79917 -3.88823 0
M  V30 1775 H 177.1 -1.4085 -2.12211 0
M  V30 1776 H 177.883 -3.01137 -1.64837 0
M  V30 1777 N 180.328 1.1314 -1.09713 0
M  V30 1778 C 181.744 1.36477 -0.827423 0
M  V30 1779 C 181.944 1.93654 0.556817 0
M  V30 1780 O 181 2.15791 1.31112 0
M  V30 1781 C 182.313 2.31334 -1.92106 0
M  V30 1782 C 183.861 2.44943 -1.94864 0
M  V30 1783 C 184.336 3.4311 -3.0338 0
M  V30 1784 N 185.827 3.50662 -3.02639 0
M  V30 1785 C 186.562 4.2651 -3.83246 0
M  V30 1786 N 186.058 5.05485 -4.73768 0
M  V30 1787 N 187.851 4.2184 -3.71493 0
M  V30 1788 H 180.002 0.743807 -1.9895 0
M  V30 1789 H 182.265 0.389823 -0.864143 0
M  V30 1790 H 181.971 1.96483 -2.91698 0
M  V30 1791 H 181.845 3.31381 -1.80184 0
M  V30 1792 H 184.232 2.79079 -0.959099 0
M  V30 1793 H 184.313 1.4481 -2.10864 0
M  V30 1794 H 183.957 3.09704 -4.02549 0
M  V30 1795 H 183.887 4.43055 -2.84622 0
M  V30 1796 H 186.378 2.94315 -2.37039 0
M  V30 1797 H 186.691 5.60675 -5.3185 0
M  V30 1798 H 185.036 5.04708 -4.77802 0
M  V30 1799 H 188.227 3.5922 -3.00131 0
M  V30 1800 H 188.4 4.80697 -4.3455 0
M  V30 1801 N 181.806 0.884767 1.30421 0
M  V30 1802 C 183.054 0.502112 1.95763 0
M  V30 1803 C 183.375 -0.951815 1.70192 0
M  V30 1804 O 182.645 -1.6692 1.0254 0
M  V30 1805 H 181.225 0.182694 0.724315 0
M  V30 1806 H 183.887 1.1278 1.58955 0
M  V30 1807 H 182.983 0.672188 3.04775 0
M  V30 1808 N 183.284 -1.43765 0.645699 0
M  V30 1809 C 184.695 -1.85193 0.236719 0
M  V30 1810 C 185.046 -1.54045 -1.21509 0
M  V30 1811 O 184.171 -0.985694 -1.92647 0
M  V30 1812 C 184.766 -3.36151 0.422845 0
M  V30 1813 C 183.325 -3.76338 0.0682492 0
M  V30 1814 C 182.472 -2.67538 0.729306 0
M  V30 1815 H 185.423 -1.34025 0.849883 0
M  V30 1816 H 185.444 -3.79032 -0.333904 0
M  V30 1817 H 184.956 -3.5879 1.47958 0
M  V30 1818 H 183.057 -3.59312 -0.986179 0
M  V30 1819 H 183.17 -4.76603 0.488469 0
M  V30 1820 H 181.534 -2.54176 0.163235 0
M  V30 1821 H 182.317 -2.93006 1.78892 0
M  V30 1822 N 184.763 -0.387143 -1.52771 0
M  V30 1823 C 185.726 0.436939 -2.24997 0
M  V30 1824 C 186.726 0.991991 -1.26555 0
M  V30 1825 O 187.916 0.874335 -1.50669 0
M  V30 1826 C 185.048 1.61281 -3.00335 0
M  V30 1827 H 186.241 -0.195365 -2.99263 0
M  V30 1828 H 183.794 -0.139218 -1.55679 0
M  V30 1829 H 184.529 2.2826 -2.30364 0
M  V30 1830 H 184.314 1.22154 -3.72587 0
M  V30 1831 H 185.804 2.19629 -3.5518 0
M  V30 1832 N 186.241 1.57166 -0.116904 0
M  V30 1833 C 187.489 1.94737 0.540533 0
M  V30 1834 C 187.81 1.00096 1.67349 0
M  V30 1835 O 187.08 0.0568854 1.95817 0
M  V30 1836 H 185.66 0.718981 0.202669 0
M  V30 1837 H 188.322 1.94017 -0.185353 0
M  V30 1838 H 187.418 2.97719 0.936483 0
M  V30 1839 N 187.719 -0.156864 1.56817 0
M  V30 1840 C 189.13 -0.717916 1.72345 0
M  V30 1841 C 189.481 -1.82124 0.729747 0
M  V30 1842 O 188.606 -2.16141 -0.105781 0
M  V30 1843 C 189.201 -1.30904 3.12489 0
M  V30 1844 C 187.76 -1.81676 3.29653 0
M  V30 1845 C 186.907 -0.701349 2.68284 0
M  V30 1846 H 189.858 0.0686989 1.58551 0
M  V30 1847 H 189.879 -2.17882 3.11942 0
M  V30 1848 H 189.391 -0.505796 3.8479 0
M  V30 1849 H 187.492 -2.64598 2.62333 0
M  V30 1850 H 187.605 -1.95226 4.3752 0
M  V30 1851 H 185.969 -1.12548 2.28484 0
M  V30 1852 H 186.752 0.0902846 3.43181 0
M  V30 1853 N 189.197 -1.51736 -0.425897 0
M  V30 1854 C 190.608 -1.5732 -1.00536 0
M  V30 1855 C 190.959 -0.403537 -1.92005 0
M  V30 1856 O 190.084 0.478256 -2.11049 0
M  V30 1857 C 190.679 -2.85119 -1.8301 0
M  V30 1858 C 189.238 -2.93236 -2.35987 0
M  V30 1859 C 188.385 -2.52098 -1.15508 0
M  V30 1860 H 191.336 -1.57348 -0.206739 0
M  V30 1861 H 191.357 -2.69526 -2.68581 0
M  V30 1862 H 190.869 -3.7023 -1.16411 0
M  V30 1863 H 188.97 -2.12581 -3.06007 0
M  V30 1864 H 189.083 -3.9713 -2.68001 0
M  V30 1865 H 187.447 -2.05558 -1.50393 0
M  V30 1866 H 188.23 -3.39565 -0.505014 0
M  V30 1867 N 190.675 0.682077 -1.42076 0
M  V30 1868 C 191.923 1.4393 -1.41876 0
M  V30 1869 C 192.244 1.94971 -0.0335599 0
M  V30 1870 O 191.514 1.72591 0.926773 0
M  V30 1871 H 190.094 0.534085 -0.522267 0
M  V30 1872 H 192.756 0.806427 -1.77434 0
M  V30 1873 H 191.852 2.29588 -2.11414 0
M  V30 1874 N 192.153 1.28127 0.917671 0
M  V30 1875 C 193.569 1.05749 1.19538 0
M  V30 1876 C 193.769 -0.202633 2.00479 0
M  V30 1877 O 192.825 -0.905382 2.3571 0
M  V30 1878 C 194.138 2.30273 1.93378 0
M  V30 1879 C 195.686 2.35412 2.06277 0
M  V30 1880 C 196.161 3.59692 2.83524 0
M  V30 1881 N 197.652 3.60309 2.91087 0
M  V30 1882 C 198.387 4.53147 3.51348 0
M  V30 1883 N 197.883 5.563 4.12919 0
M  V30 1884 N 199.676 4.40751 3.48849 0
M  V30 1885 H 191.827 2.09024 0.377184 0
M  V30 1886 H 194.09 0.919798 0.22951 0
M  V30 1887 H 193.796 3.22055 1.41328 0
M  V30 1888 H 193.67 2.36378 2.93947 0
M  V30 1889 H 196.057 1.4413 2.57508 0
M  V30 1890 H 196.138 2.33304 1.04895 0
M  V30 1891 H 195.782 4.51316 2.32973 0
M  V30 1892 H 195.712 3.59054 3.85211 0
M  V30 1893 H 198.203 2.85714 2.47338 0
M  V30 1894 H 198.516 6.2329 4.56869 0
M  V30 1895 H 196.861 5.60131 4.11435 0
M  V30 1896 H 200.052 3.59367 2.99955 0
M  V30 1897 H 200.225 5.13291 3.9552 0
M  V30 1898 N 193.631 -1.12557 1.10312 0
M  V30 1899 C 194.908 -1.80363 0.756878 0
M  V30 1900 C 195.288 -1.97067 -0.756824 0
M  V30 1901 O 194.636 -1.54601 -1.68259 0
M  V30 1902 C 194.846 -3.14812 1.50647 0
M  V30 1903 C 196.194 -3.90029 1.67817 0
M  V30 1904 O 197.218 -3.24464 1.46974 0
M  V30 1905 O 196.077 -5.07652 2.02365 0
M  V30 1906 H 193.171 -0.780667 0.272926 0
M  V30 1907 H 195.717 -1.19404 1.20586 0
M  V30 1908 H 194.489 -2.97936 2.53672 0
M  V30 1909 H 194.112 -3.83478 1.05026 0
M  V30 1910 N 195.109 -0.891671 -1.2995 0
M  V30 1911 C 196.357 -0.512486 -1.95494 0
M  V30 1912 C 196.678 0.942776 -1.70695 0
M  V30 1913 O 195.948 1.66374 -1.03424 0
M  V30 1914 H 194.528 -0.186533 -0.723336 0
M  V30 1915 H 197.19 -1.13621 -1.58355 0
M  V30 1916 H 196.286 -0.688342 -3.04415 0
M  V30 1917 N 196.587 1.43421 -0.653314 0
M  V30 1918 C 197.836 2.01032 -0.164076 0
M  V30 1919 C 198.149 1.52147 1.22926 0
M  V30 1920 O 199.355 2.02031 1.81371 0
M  V30 1921 C 197.811 3.59082 -0.24252 0
M  V30 1922 C 197.419 4.1696 -1.63855 0
M  V30 1923 C 199.163 4.24079 0.18911 0
M  V30 1924 C 197.07 5.67304 -1.67092 0
M  V30 1925 H 196 0.751798 -0.0575769 0
M  V30 1926 H 198.651 1.6439 -0.815362 0
M  V30 1927 H 197.033 3.93125 0.476276 0
M  V30 1928 H 198.207 3.94416 -2.38271 0
M  V30 1929 H 196.522 3.64335 -2.01616 0
M  V30 1930 H 199.119 5.34381 0.184775 0
M  V30 1931 H 199.462 3.98005 1.22056 0
M  V30 1932 H 199.995 3.94918 -0.477938 0
M  V30 1933 H 196.734 5.98145 -2.68146 0
M  V30 1934 H 196.254 5.91904 -0.970014 0
M  V30 1935 H 197.933 6.31344 -1.4147 0
M  V30 1936 N 198.065 0.39524 1.52563 0
M  V30 1937 C 199.476 -0.0774719 1.86539 0
M  V30 1938 C 199.827 -1.45641 1.31466 0
M  V30 1939 O 198.952 -2.06459 0.648367 0
M  V30 1940 C 199.547 -0.147356 3.38479 0
M  V30 1941 C 198.106 -0.564373 3.72145 0
M  V30 1942 C 197.253 0.269919 2.75983 0
M  V30 1943 H 200.204 0.612876 1.46388 0
M  V30 1944 H 200.225 -0.965343 3.68051 0
M  V30 1945 H 199.737 0.856387 3.78534 0
M  V30 1946 H 197.838 -1.57527 3.37663 0
M  V30 1947 H 197.951 -0.318402 4.78041 0
M  V30 1948 H 196.315 -0.265696 2.5331 0
M  V30 1949 H 197.098 1.27175 3.18875 0
M  V30 1950 N 199.544 -1.57102 0.125237 0
M  V30 1951 C 200.792 -1.95021 -0.530198 0
M  V30 1952 C 201.113 -1.00982 -1.66816 0
M  V30 1953 O 200.383 -0.0672693 -1.95784 0
M  V30 1954 H 198.963 -0.720046 -0.198853 0
M  V30 1955 H 201.625 -1.93916 0.19564 0
M  V30 1956 H 200.721 -2.98211 -0.920681 0
M  V30 1957 N 201.022 0.148545 -1.56898 0
M  V30 1958 C 201.954 1.20852 -1.9475 0
M  V30 1959 C 202.967 1.39265 -0.843152 0
M  V30 1960 O 204.156 1.38864 -1.12156 0
M  V30 1961 C 201.256 2.57362 -2.20495 0
M  V30 1962 C 200.429 2.59947 -3.51776 0
M  V30 1963 C 199.488 3.77984 -3.6608 0
M  V30 1964 O 198.514 3.62929 -4.38487 0
M  V30 1965 N 199.716 4.95375 -3.02629 0
M  V30 1966 H 202.481 0.886804 -2.86279 0
M  V30 1967 H 200.042 0.338121 -1.5833 0
M  V30 1968 H 202.034 3.34833 -2.27307 0
M  V30 1969 H 200.604 2.81832 -1.35238 0
M  V30 1970 H 199.824 1.68403 -3.56419 0
M  V30 1971 H 201.112 2.58704 -4.38121 0
M  V30 1972 H 200.51 5.10509 -2.43715 0
M  V30 1973 H 199.067 5.70627 -3.15004 0
M  V30 1974 N 202.5 1.5196 0.417844 0
M  V30 1975 C 203.911 1.57851 0.997 0
M  V30 1976 C 204.262 0.413714 1.91789 0
M  V30 1977 O 203.387 -0.467057 2.113 0
M  V30 1978 C 203.982 2.86085 1.81496 0
M  V30 1979 C 202.541 2.94483 2.34428 0
M  V30 1980 C 201.688 2.52707 1.14169 0
M  V30 1981 H 204.639 1.57455 0.198392 0
M  V30 1982 H 204.66 2.70947 2.67148 0
M  V30 1983 H 204.172 3.70842 1.14446 0
M  V30 1984 H 202.273 2.142 3.04875 0
M  V30 1985 H 202.386 3.98546 2.65891 0
M  V30 1986 H 200.75 2.06353 1.49301 0
M  V30 1987 H 201.533 3.39828 0.486999 0
M  V30 1988 N 203.978 -0.674533 1.42435 0
M  V30 1989 C 205.226 -1.43175 1.42637 0
M  V30 1990 C 205.547 -1.94951 0.0438992 0
M  V30 1991 O 204.817 -1.7308 -0.917607 0
M  V30 1992 H 203.397 -0.531307 0.525092 0
M  V30 1993 H 206.059 -0.797006 1.77859 0
M  V30 1994 H 205.155 -2.28463 2.12629 0
M  V30 1995 N 205.456 -1.28612 -0.910864 0
M  V30 1996 C 206.386 -1.15326 -2.03032 0
M  V30 1997 C 207.367 -0.0502924 -1.70026 0
M  V30 1998 O 208.552 -0.227797 -1.92859 0
M  V30 1999 C 205.682 -0.817343 -3.37545 0
M  V30 2000 C 204.636 -1.8754 -3.84724 0
M  V30 2001 C 203.962 -1.39305 -5.16235 0
M  V30 2002 C 205.262 -3.28244 -4.06267 0
M  V30 2003 H 206.956 -2.08975 -2.14406 0
M  V30 2004 H 204.502 -1.00612 -1.03021 0
M  V30 2005 H 206.455 -0.711151 -4.15356 0
M  V30 2006 H 205.179 0.154846 -3.26233 0
M  V30 2007 H 203.838 -1.97079 -3.09121 0
M  V30 2008 H 203.486 -0.409846 -5.01328 0
M  V30 2009 H 203.186 -2.10057 -5.48771 0
M  V30 2010 H 204.71 -1.30014 -5.96598 0
M  V30 2011 H 206.124 -3.21611 -4.74594 0
M  V30 2012 H 204.521 -3.96855 -4.5014 0
M  V30 2013 H 205.591 -3.72048 -3.10979 0
M  V30 2014 N 206.934 1.1197 -1.10907 0
M  V30 2015 C 208.345 1.65114 -0.871446 0
M  V30 2016 C 208.696 1.86885 0.597353 0
M  V30 2017 O 207.821 1.59896 1.45816 0
M  V30 2018 C 208.416 2.99944 -1.5754 0
M  V30 2019 C 206.975 3.50018 -1.38435 0
M  V30 2020 C 206.122 2.24941 -1.62164 0
M  V30 2021 H 209.073 0.956851 -1.2661 0
M  V30 2022 H 209.094 3.66651 -1.01721 0
M  V30 2023 H 208.606 2.84067 -2.64438 0
M  V30 2024 H 206.707 3.71071 -0.337214 0
M  V30 2025 H 206.82 4.29165 -2.12965 0
M  V30 2026 H 205.184 2.3229 -1.04467 0
M  V30 2027 H 205.967 2.11612 -2.70324 0
M  V30 2028 N 208.412 0.89855 1.29475 0
M  V30 2029 C 209.66 0.522847 1.9522 0
M  V30 2030 C 209.981 -0.93371 1.71192 0
M  V30 2031 O 209.251 -1.65823 1.04305 0
M  V30 2032 H 207.831 0.190366 0.722336 0
M  V30 2033 H 210.493 1.14459 1.5775 0
M  V30 2034 H 209.589 0.704476 3.04045 0
M  V30 2035 N 209.89 -1.43072 0.660911 0
M  V30 2036 C 211.301 -1.84932 0.256348 0
M  V30 2037 C 211.652 -1.55325 -1.19868 0
M  V30 2038 O 210.777 -1.00607 -1.91591 0
M  V30 2039 C 211.372 -3.35684 0.458475 0
M  V30 2040 C 209.931 -3.76245 0.108161 0
M  V30 2041 C 209.078 -2.66749 0.757641 0
M  V30 2042 H 212.029 -1.33116 0.864051 0
M  V30 2043 H 212.05 -3.79365 -0.293683 0
M  V30 2044 H 211.562 -3.572 1.51755 0
M  V30 2045 H 209.663 -3.60338 -0.948014 0
M  V30 2046 H 209.776 -4.76058 0.538992 0
M  V30 2047 H 208.14 -2.53989 0.190185 0
M  V30 2048 H 208.923 -2.91092 1.81989 0
M  V30 2049 N 211.368 -0.403325 -1.52352 0
M  V30 2050 C 212.779 0.0675782 -1.86578 0
M  V30 2051 C 213.13 1.44941 -1.32236 0
M  V30 2052 O 212.255 2.06112 -0.659307 0
M  V30 2053 C 212.85 0.129404 -3.38553 0
M  V30 2054 C 211.409 0.544629 -3.72439 0
M  V30 2055 C 210.556 -0.284551 -2.75836 0
M  V30 2056 H 213.507 -0.620631 -1.46061 0
M  V30 2057 H 213.528 0.94581 -3.68558 0
M  V30 2058 H 213.04 -0.87645 -3.78074 0
M  V30 2059 H 211.141 1.55734 -3.38493 0
M  V30 2060 H 211.254 0.293046 -4.78203 0
M  V30 2061 H 209.618 0.252258 -2.53448 0
M  V30 2062 H 210.401 -1.28865 -3.18196 0
M  V30 2063 N 212.846 1.57033 -0.133567 0
M  V30 2064 C 214.094 1.953 0.519848 0
M  V30 2065 C 214.415 1.01866 1.66278 0
M  V30 2066 O 213.685 0.0776513 1.95746 0
M  V30 2067 H 212.265 0.721091 0.195032 0
M  V30 2068 H 214.927 1.93809 -0.205921 0
M  V30 2069 H 214.023 2.98695 0.904854 0
M  V30 2070 N 214.325 -0.140222 1.56975 0
M  V30 2071 C 215.736 -0.699596 1.73097 0
M  V30 2072 C 216.087 -1.8134 0.749022 0
M  V30 2073 O 215.212 -2.16241 -0.0828503 0
M  V30 2074 C 215.807 -1.27582 3.1386 0
M  V30 2075 C 214.366 -1.78169 3.31561 0
M  V30 2076 C 213.513 -0.672855 2.69013 0
M  V30 2077 H 216.464 0.0855115 1.58469 0
M  V30 2078 H 216.485 -2.14561 3.14235 0
M  V30 2079 H 215.997 -0.464955 3.85305 0
M  V30 2080 H 214.098 -2.61801 2.65124 0
M  V30 2081 H 214.211 -1.90574 4.39566 0
M  V30 2082 H 212.575 -1.10118 2.29665 0
M  V30 2083 H 213.358 0.126679 3.43066 0
M  V30 2084 N 215.803 -1.52179 -0.40978 0
M  V30 2085 C 217.214 -1.58377 -0.988615 0
M  V30 2086 C 217.565 -0.423879 -1.91566 0
M  V30 2087 O 216.69 0.455844 -2.11544 0
M  V30 2088 C 217.285 -2.87044 -1.79976 0
M  V30 2089 C 215.844 -2.95722 -2.32863 0
M  V30 2090 C 214.991 -2.53309 -1.12828 0
M  V30 2091 H 217.942 -1.57558 -0.190039 0
M  V30 2092 H 217.963 -2.7236 -2.65707 0
M  V30 2093 H 217.475 -3.71444 -1.12478 0
M  V30 2094 H 215.576 -2.15814 -3.03735 0
M  V30 2095 H 215.689 -3.99951 -2.63773 0
M  V30 2096 H 214.053 -2.07142 -1.48204 0
M  V30 2097 H 214.836 -3.40082 -0.46897 0
M  V30 2098 N 217.281 0.66697 -1.42791 0
M  V30 2099 C 218.529 1.42417 -1.43394 0
M  V30 2100 C 218.85 1.94925 -0.0542373 0
M  V30 2101 O 218.12 1.73564 0.908415 0
M  V30 2102 H 216.7 0.528515 -0.527902 0
M  V30 2103 H 219.362 0.787562 -1.78279 0
M  V30 2104 H 218.458 2.27333 -2.13837 0
M  V30 2105 N 218.759 1.29093 0.90403 0
M  V30 2106 C 220.17 1.15186 1.46932 0
M  V30 2107 C 220.521 -0.254587 1.94541 0
M  V30 2108 O 219.646 -1.14972 1.83332 0
M  V30 2109 C 220.241 2.08492 2.67051 0
M  V30 2110 C 218.8 1.98621 3.19729 0
M  V30 2111 C 217.947 1.9967 1.92425 0
M  V30 2112 H 220.898 1.41641 0.715789 0
M  V30 2113 H 220.919 1.65461 3.42641 0
M  V30 2114 H 220.431 3.10847 2.3237 0
M  V30 2115 H 218.532 0.993389 3.59114 0
M  V30 2116 H 218.645 2.86068 3.8432 0
M  V30 2117 H 217.009 1.44208 2.09943 0
M  V30 2118 H 217.792 3.03721 1.60026 0
M  V30 2119 N 220.237 -1.11381 1.11499 0
M  V30 2120 C 221.648 -1.6465 0.880191 0
M  V30 2121 C 221.999 -1.87199 -0.587434 0
M  V30 2122 O 221.124 -1.60667 -1.44966 0
M  V30 2123 C 221.719 -2.99105 1.59128 0
M  V30 2124 C 220.278 -3.49279 1.40289 0
M  V30 2125 C 219.425 -2.24077 1.63354 0
M  V30 2126 H 222.376 -0.950123 1.27116 0
M  V30 2127 H 222.397 -3.66107 1.03664 0
M  V30 2128 H 221.909 -2.82661 2.65941 0
M  V30 2129 H 220.01 -3.70887 0.356888 0
M  V30 2130 H 220.123 -4.2803 2.15238 0
M  V30 2131 H 218.487 -2.31733 1.05698 0
M  V30 2132 H 219.27 -2.10175 2.71443 0
M  V30 2133 N 221.715 -0.905404 -1.28997 0
M  V30 2134 C 222.963 -0.533192 -1.9494 0
M  V30 2135 C 223.284 0.924618 -1.71685 0
M  V30 2136 O 222.554 1.65268 -1.05183 0
M  V30 2137 H 221.134 -0.194194 -0.721317 0
M  V30 2138 H 223.796 -1.15294 -1.57141 0
M  V30 2139 H 222.892 -0.72059 -3.03667 0
M  V30 2140 N 223.193 1.4272 -0.668489 0
M  V30 2141 C 224.604 1.84793 -0.266151 0
M  V30 2142 C 224.955 1.55959 1.19043 0
M  V30 2143 O 224.08 1.01622 1.91055 0
M  V30 2144 C 224.675 3.35436 -0.476271 0
M  V30 2145 C 223.234 3.76182 -0.128113 0
M  V30 2146 C 222.381 2.66344 -0.771777 0
M  V30 2147 H 225.332 1.32656 -0.871098 0
M  V30 2148 H 225.353 3.79515 0.273561 0
M  V30 2149 H 224.865 3.5639 -1.53647 0
M  V30 2150 H 222.966 3.60836 0.928891 0
M  V30 2151 H 223.079 4.75766 -0.564231 0
M  V30 2152 H 221.443 2.53885 -0.203652 0
M  V30 2153 H 222.226 2.90123 -1.83531 0
M  V30 2154 N 224.671 0.411399 1.52136 0
M  V30 2155 C 226.082 -0.0576826 1.86611 0
M  V30 2156 C 226.433 -1.44238 1.33003 0
M  V30 2157 O 225.558 -2.05759 0.670228 0
M  V30 2158 C 226.153 -0.111448 3.38617 0
M  V30 2159 C 224.712 -0.52487 3.72723 0
M  V30 2160 C 223.859 0.299176 2.75681 0
M  V30 2161 H 226.81 0.628368 1.4573 0
M  V30 2162 H 226.831 -0.926252 3.69054 0
M  V30 2163 H 226.343 0.896488 3.77604 0
M  V30 2164 H 224.444 -1.53936 3.39315 0
M  V30 2165 H 224.557 -0.267681 4.78352 0
M  V30 2166 H 222.921 -0.238814 2.53578 0
M  V30 2167 H 223.704 1.3055 3.17508 0
M  V30 2168 N 226.149 -1.5696 0.141893 0
M  V30 2169 C 227.397 -1.95573 -0.509484 0
M  V30 2170 C 227.718 -1.02746 -1.65736 0
M  V30 2171 O 226.988 -0.0880311 -1.95702 0
M  V30 2172 H 225.568 -0.722115 -0.191205 0
M  V30 2173 H 228.23 -1.93697 0.216196 0
M  V30 2174 H 227.326 -2.99171 -0.889 0
M  V30 2175 N 227.627 0.131896 -1.57047 0
M  V30 2176 C 228.557 1.16384 -2.02428 0
M  V30 2177 C 229.538 1.43936 -0.90644 0
M  V30 2178 O 230.723 1.54599 -1.17528 0
M  V30 2179 C 227.853 2.49328 -2.4177 0
M  V30 2180 C 226.807 2.36266 -3.56879 0
M  V30 2181 C 226.133 3.74057 -3.8208 0
M  V30 2182 C 227.433 1.834 -4.89042 0
M  V30 2183 H 229.127 0.786433 -2.88887 0
M  V30 2184 H 226.673 0.376855 -1.38981 0
M  V30 2185 H 228.626 3.21759 -2.7212 0
M  V30 2186 H 227.35 2.88934 -1.52266 0
M  V30 2187 H 226.009 1.66286 -3.26718 0
M  V30 2188 H 225.657 4.11125 -2.89803 0
M  V30 2189 H 225.357 3.66174 -4.59554 0
M  V30 2190 H 226.881 4.48012 -4.1487 0
M  V30 2191 H 228.295 2.45636 -5.18011 0
M  V30 2192 H 226.692 1.8637 -5.70426 0
M  V30 2193 H 227.762 0.790662 -4.7841 0
M  V30 2194 N 229.106 1.52395 0.401703 0
M  V30 2195 C 230.354 1.66488 1.14569 0
M  V30 2196 C 230.675 0.400897 1.90835 0
M  V30 2197 O 229.945 -0.584415 1.8698 0
M  V30 2198 H 228.525 0.613672 0.425929 0
M  V30 2199 H 231.187 1.89464 0.457093 0
M  V30 2200 H 230.283 2.50942 1.85566 0
M  V30 2201 N 230.584 -0.659388 1.43143 0
M  V30 2202 C 231.832 -1.41654 1.44147 0
M  V30 2203 C 232.153 -1.94893 0.0645739 0
M  V30 2204 O 231.423 -1.74044 -0.899198 0
M  V30 2205 H 230.003 -0.525708 0.530697 0
M  V30 2206 H 232.665 -0.778097 1.78694 0
M  V30 2207 H 231.761 -2.26195 2.1504 0
M  V30 2208 N 232.062 -1.29571 -0.897171 0
M  V30 2209 C 233.01 -1.14802 -2.02295 0
M  V30 2210 C 234.004 -0.0629637 -1.69283 0
M  V30 2211 O 235.21 -0.222945 -1.78614 0
M  V30 2212 H 231.585 -0.354692 -0.663097 0
M  V30 2213 H 233.556 -2.10108 -2.11889 0
M  V30 2214 C 232.305 -0.843966 -3.37302 0
M  V30 2215 H 231.628 -1.67093 -3.63208 0
M  V30 2216 H 233.068 -0.780672 -4.16751 0
M  V30 2217 C 231.527 0.452843 -3.33843 0
M  V30 2218 O 232.057 1.47813 -3.73516 0
M  V30 2219 N 230.263 0.459601 -2.86943 0
M  V30 2220 H 229.81 -0.375213 -2.54853 0
M  V30 2221 H 229.768 1.32726 -2.85011 0
M  V30 2222 N 233.54 1.10788 -1.12088 0
M  V30 2223 C 234.787 1.82671 -0.873931 0
M  V30 2224 C 235.115 1.85004 0.600311 0
M  V30 2225 O 234.37 1.30365 1.45957 0
M  V30 2226 C 234.669 3.29294 -1.38926 0
M  V30 2227 C 234.335 3.47113 -2.87791 0
M  V30 2228 C 232.997 3.51684 -3.28439 0
M  V30 2229 C 235.349 3.52808 -3.83635 0
M  V30 2230 C 232.677 3.59513 -4.63646 0
M  V30 2231 C 235.029 3.62169 -5.18668 0
M  V30 2232 C 233.693 3.65003 -5.58864 0
M  V30 2233 H 232.963 0.668441 -0.319794 0
M  V30 2234 H 235.61 1.30613 -1.40045 0
M  V30 2235 H 233.915 3.83894 -0.783122 0
M  V30 2236 H 235.612 3.83416 -1.17443 0
M  V30 2237 H 232.202 3.4423 -2.5535 0
M  V30 2238 H 236.386 3.4853 -3.53328 0
M  V30 2239 H 231.642 3.59987 -4.94185 0
M  V30 2240 H 235.816 3.6552 -5.92763 0
M  V30 2241 H 233.443 3.70822 -6.63623 0
M  V30 2242 N 235.018 0.912232 1.28515 0
M  V30 2243 C 235.981 0.404223 2.25607 0
M  V30 2244 C 236.981 -0.468602 1.53821 0
M  V30 2245 O 238.171 -0.271873 1.72065 0
M  V30 2246 C 235.303 -0.420653 3.38295 0
M  V30 2247 H 236.496 1.26188 2.7206 0
M  V30 2248 H 234.049 0.691495 1.40171 0
M  V30 2249 H 234.784 -1.29777 2.97201 0
M  V30 2250 H 234.569 0.204935 3.91564 0
M  V30 2251 H 236.059 -0.766971 4.10496 0
M  V30 2252 N 236.496 -1.42363 0.676048 0
M  V30 2253 C 237.907 -1.84649 0.275948 0
M  V30 2254 C 238.258 -1.56588 -1.18214 0
M  V30 2255 O 237.383 -1.02634 -1.90513 0
M  V30 2256 C 237.978 -3.35178 0.494053 0
M  V30 2257 C 236.537 -3.76109 0.148061 0
M  V30 2258 C 235.684 -2.65931 0.785891 0
M  V30 2259 H 238.635 -1.32192 0.878121 0
M  V30 2260 H 238.656 -3.79655 -0.25343 0
M  V30 2261 H 238.168 -3.55571 1.55535 0
M  V30 2262 H 236.269 -3.61323 -0.909742 0
M  V30 2263 H 236.382 -4.7546 0.589454 0
M  V30 2264 H 234.746 -2.53773 0.217113 0
M  V30 2265 H 235.529 -2.89146 1.85067 0
M  V30 2266 N 237.974 -0.419461 -1.51915 0
M  V30 2267 C 238.906 0.43646 -2.25006 0
M  V30 2268 C 239.919 1.00149 -1.28351 0
M  V30 2269 O 241.108 0.898674 -1.54227 0
M  V30 2270 C 238.208 1.6206 -2.9764 0
M  V30 2271 C 237.381 1.17763 -4.21249 0
M  V30 2272 C 236.44 2.22985 -4.76617 0
M  V30 2273 O 235.466 1.83151 -5.38929 0
M  V30 2274 N 236.668 3.55271 -4.59089 0
M  V30 2275 H 239.433 -0.18989 -2.99098 0
M  V30 2276 H 236.994 -0.247386 -1.59999 0
M  V30 2277 H 238.986 2.32038 -3.31573 0
M  V30 2278 H 237.556 2.15266 -2.2667 0
M  V30 2279 H 236.776 0.305582 -3.93014 0
M  V30 2280 H 238.064 0.858781 -5.015 0
M  V30 2281 H 237.462 3.90377 -4.09417 0
M  V30 2282 H 236.019 4.21195 -4.97432 0
M  V30 2283 N 239.452 1.56882 -0.150215 0
M  V30 2284 C 240.382 2.19935 0.784284 0
M  V30 2285 C 241.363 1.14854 1.25469 0
M  V30 2286 O 242.548 1.43209 1.31168 0
M  V30 2287 C 239.678 2.82349 2.02229 0
M  V30 2288 C 238.632 3.93285 1.68853 0
M  V30 2289 C 237.958 4.42649 2.99944 0
M  V30 2290 C 239.258 5.13904 0.932714 0
M  V30 2291 H 240.952 2.9828 0.258781 0
M  V30 2292 H 238.498 1.43473 0.123029 0
M  V30 2293 H 240.451 3.25126 2.68088 0
M  V30 2294 H 239.175 2.0134 2.57157 0
M  V30 2295 H 237.834 3.5113 1.05371 0
M  V30 2296 H 237.482 3.58458 3.52869 0
M  V30 2297 H 237.182 5.17476 2.78374 0
M  V30 2298 H 238.706 4.88099 3.66868 0
M  V30 2299 H 240.12 5.53506 1.49345 0
M  V30 2300 H 238.517 5.94515 0.81684 0
M  V30 2301 H 239.587 4.84842 -0.0749568 0
M  V30 2302 N 240.93 -0.123565 1.57115 0
M  V30 2303 C 242.155 -0.850398 1.89164 0
M  V30 2304 C 242.58 -1.7286 0.741688 0
M  V30 2305 O 241.938 -1.78665 -0.307958 0
M  V30 2306 C 241.986 -1.66353 3.19936 0
M  V30 2307 O 241.09 -2.77004 3.0552 0
M  V30 2308 H 240.431 -0.235454 0.620852 0
M  V30 2309 H 242.961 -0.107335 2.04318 0
M  V30 2310 H 242.971 -2.05372 3.52543 0
M  V30 2311 H 241.646 -1.01881 4.03228 0
M  V30 2312 H 240.223 -2.41221 2.84371 0
M  V30 2313 N 242.408 -1.52605 -0.393616 0
M  V30 2314 C 243.638 -1.71046 -1.15874 0
M  V30 2315 C 244.046 -0.426483 -1.84331 0
M  V30 2316 O 243.389 0.608513 -1.73329 0
M  V30 2317 C 243.451 -2.80118 -2.25332 0
M  V30 2318 C 243.115 -4.21381 -1.76881 0
M  V30 2319 C 244.112 -5.04697 -1.24808 0
M  V30 2320 C 241.797 -4.67683 -1.83244 0
M  V30 2321 C 243.791 -6.32393 -0.797387 0
M  V30 2322 C 241.478 -5.95364 -1.37787 0
M  V30 2323 C 242.476 -6.77549 -0.861208 0
M  V30 2324 O 242.164 -8.02837 -0.413252 0
M  V30 2325 H 241.896 -0.576155 -0.353583 0
M  V30 2326 H 244.45 -2.00018 -0.467123 0
M  V30 2327 H 242.68 -2.46557 -2.97904 0
M  V30 2328 H 244.369 -2.87006 -2.87023 0
M  V30 2329 H 245.135 -4.70111 -1.19252 0
M  V30 2330 H 241.014 -4.03805 -2.22401 0
M  V30 2331 H 244.558 -6.9649 -0.393437 0
M  V30 2332 H 240.455 -6.29455 -1.43026 0
M  V30 2333 H 241.223 -8.16749 -0.53515 0
M  V30 2334 N 243.887 0.651787 -1.4349 0
M  V30 2335 C 245.135 1.40888 -1.44897 0
M  V30 2336 C 245.456 1.94856 -0.0749086 0
M  V30 2337 O 244.726 1.74518 0.889956 0
M  V30 2338 H 243.306 0.522887 -0.533478 0
M  V30 2339 H 245.968 0.768609 -1.79104 0
M  V30 2340 H 245.064 2.25052 -2.16236 0
M  V30 2341 N 245.365 1.30045 0.890287 0
M  V30 2342 C 246.595 1.21296 1.67245 0
M  V30 2343 C 247.003 -0.227471 1.87828 0
M  V30 2344 O 246.346 -1.16296 1.422 0
M  V30 2345 C 246.408 1.86519 3.07329 0
M  V30 2346 C 246.072 3.35837 3.09939 0
M  V30 2347 C 247.069 4.31915 2.89389 0
M  V30 2348 C 244.754 3.77196 3.31706 0
M  V30 2349 C 246.748 5.67325 2.90552 0
M  V30 2350 C 244.435 5.12725 3.32499 0
M  V30 2351 C 245.433 6.076 3.11947 0
M  V30 2352 O 245.121 7.40655 3.12547 0
M  V30 2353 H 244.853 0.4211 0.528821 0
M  V30 2354 H 247.407 1.72111 1.12103 0
M  V30 2355 H 245.637 1.30228 3.64112 0
M  V30 2356 H 247.326 1.71963 3.67673 0
M  V30 2357 H 248.092 4.01294 2.72375 0
M  V30 2358 H 243.971 3.03796 3.4674 0
M  V30 2359 H 247.515 6.41354 2.74429 0
M  V30 2360 H 243.412 5.42988 3.49047 0
M  V30 2361 H 244.18 7.49577 3.28749 0
M  V30 2362 N 246.843 -1.10192 1.12674 0
M  V30 2363 C 248.12 -1.78717 0.794965 0
M  V30 2364 C 248.5 -1.98628 -0.714853 0
M  V30 2365 O 247.848 -1.58135 -1.64941 0
M  V30 2366 C 248.058 -3.11546 1.5729 0
M  V30 2367 C 249.406 -3.86382 1.76052 0
M  V30 2368 O 250.43 -3.21274 1.53823 0
M  V30 2369 O 249.289 -5.03246 2.13087 0
M  V30 2370 H 246.383 -0.774702 0.289423 0
M  V30 2371 H 248.929 -1.16819 1.23091 0
M  V30 2372 H 247.701 -2.92489 2.59935 0
M  V30 2373 H 247.324 -3.81164 1.13137 0
M  V30 2374 N 248.321 -0.919034 -1.28029 0
M  V30 2375 C 249.231 -0.416756 -2.30869 0
M  V30 2376 C 250.247 0.498235 -1.66714 0
M  V30 2377 O 251.423 0.383144 -1.97722 0
M  V30 2378 C 248.488 0.330274 -3.45123 0
M  V30 2379 C 247.549 -0.618578 -4.2482 0
M  V30 2380 C 246.782 0.0928959 -5.33619 0
M  V30 2381 O 247.005 1.31375 -5.55065 0
M  V30 2382 O 245.939 -0.574499 -5.99152 0
M  V30 2383 H 249.765 -1.27043 -2.75851 0
M  V30 2384 H 247.35 -0.684052 -1.3282 0
M  V30 2385 H 249.232 0.751972 -4.14636 0
M  V30 2386 H 247.907 1.1597 -3.02213 0
M  V30 2387 H 246.814 -1.08978 -3.57875 0
M  V30 2388 H 248.147 -1.41497 -4.71423 0
M  V30 2389 N 249.799 1.42003 -0.683588 0
M  V30 2390 C 250.746 2.30798 -0.0107309 0
M  V30 2391 C 251.716 1.4645 0.783688 0
M  V30 2392 O 252.901 1.75263 0.754156 0
M  V30 2393 C 250.041 3.3238 0.928306 0
M  V30 2394 C 249.154 4.31814 0.126776 0
M  V30 2395 C 248.289 5.20468 1.06236 0
M  V30 2396 C 247.328 6.11577 0.253035 0
M  V30 2397 N 246.465 6.92754 1.14179 0
M  V30 2398 H 251.305 2.8778 -0.773727 0
M  V30 2399 H 248.842 1.41745 -0.393283 0
M  V30 2400 H 250.8 3.89813 1.48666 0
M  V30 2401 H 249.43 2.76976 1.65783 0
M  V30 2402 H 248.482 3.76427 -0.54833 0
M  V30 2403 H 249.794 4.96276 -0.501192 0
M  V30 2404 H 248.948 5.82677 1.69035 0
M  V30 2405 H 247.687 4.56204 1.7242 0
M  V30 2406 H 246.692 5.48428 -0.388108 0
M  V30 2407 H 247.917 6.77892 -0.404839 0
M  V30 2408 H 245.863 6.3111 1.78987 0
M  V30 2409 H 245.78 7.53855 0.569111 0
M  V30 2410 H 247.048 7.59441 1.75697 0
M  V30 2411 N 251.277 0.427512 1.51691 0
M  V30 2412 C 252.502 -0.143601 2.06902 0
M  V30 2413 C 252.927 -1.36536 1.29382 0
M  V30 2414 O 252.285 -1.78289 0.329043 0
M  V30 2415 C 252.333 -0.454207 3.57728 0
M  V30 2416 O 251.437 -1.54228 3.82475 0
M  V30 2417 H 250.778 -0.00617128 0.663971 0
M  V30 2418 H 253.308 0.606014 1.95419 0
M  V30 2419 H 253.318 -0.707525 4.01818 0
M  V30 2420 H 251.993 0.438812 4.13579 0
M  V30 2421 H 250.57 -1.2797 3.50254 0
M  V30 2422 N 252.755 -1.56801 0.158532 0
M  V30 2423 C 253.983 -2.00859 -0.496303 0
M  V30 2424 C 254.398 -1.03871 -1.57659 0
M  V30 2425 O 253.755 -0.0375165 -1.82461 0
M  V30 2426 C 253.806 -3.4479 -1.08638 0
M  V30 2427 O 253.527 -4.38072 -0.0492322 0
M  V30 2428 C 255.028 -4.04185 -1.8207 0
M  V30 2429 H 252.248 -0.65864 -0.128199 0
M  V30 2430 H 254.792 -2.02885 0.256506 0
M  V30 2431 H 252.947 -3.43579 -1.78975 0
M  V30 2432 H 253.361 -5.2227 -0.483102 0
M  V30 2433 H 254.835 -5.06857 -2.18633 0
M  V30 2434 H 255.312 -3.45549 -2.71095 0
M  V30 2435 H 255.918 -4.0906 -1.16405 0
M  V30 2436 N 254.233 0.115231 -1.57178 0
M  V30 2437 C 255.481 0.820727 -1.84685 0
M  V30 2438 C 255.802 1.80237 -0.744279 0
M  V30 2439 O 255.072 1.94529 0.231375 0
M  V30 2440 H 253.652 0.306084 -0.681411 0
M  V30 2441 H 256.314 0.101656 -1.94635 0
M  V30 2442 H 255.41 1.36366 -2.80733 0
M  V30 2443 N 255.711 1.52812 0.385517 0
M  V30 2444 C 256.959 1.67694 1.12797 0
M  V30 2445 C 257.28 0.421115 1.90399 0
M  V30 2446 O 256.55 -0.564551 1.87589 0
M  V30 2447 H 255.13 0.618155 0.419396 0
M  V30 2448 H 257.792 1.89938 0.436972 0
M  V30 2449 H 256.888 2.52896 1.82894 0
M  V30 2450 N 257.189 -0.644168 1.43834 0
M  V30 2451 C 258.438 -1.39985 1.45214 0
M  V30 2452 C 258.751 -1.95421 0.0835494 0
M  V30 2453 O 259.957 -2.71488 -0.0251748 0
M  V30 2454 C 258.413 -2.53384 2.55587 0
M  V30 2455 C 258.021 -2.04517 3.98594 0
M  V30 2456 C 259.765 -3.30685 2.66172 0
M  V30 2457 C 257.672 -3.1518 5.00416 0
M  V30 2458 H 256.602 -0.526005 0.540218 0
M  V30 2459 H 259.253 -0.694367 1.69855 0
M  V30 2460 H 257.635 -3.26446 2.24163 0
M  V30 2461 H 258.809 -1.38405 4.39523 0
M  V30 2462 H 257.124 -1.40068 3.92135 0
M  V30 2463 H 259.721 -4.13158 3.39418 0
M  V30 2464 H 260.064 -3.79312 1.71546 0
M  V30 2465 H 260.597 -2.64708 2.96942 0
M  V30 2466 H 257.336 -2.71511 5.96625 0
M  V30 2467 H 256.856 -3.79974 4.64091 0
M  V30 2468 H 258.535 -3.80166 5.23529 0
M  V30 2469 N 258.668 -1.30515 -0.883378 0
M  V30 2470 C 259.893 -1.22487 -1.67367 0
M  V30 2471 C 260.318 0.208767 -1.86938 0
M  V30 2472 O 259.676 1.15015 -1.40148 0
M  V30 2473 C 259.724 -1.96041 -3.02655 0
M  V30 2474 O 258.828 -1.28859 -3.91751 0
M  V30 2475 H 258.169 -0.423573 -0.511353 0
M  V30 2476 H 260.699 -1.72362 -1.10239 0
M  V30 2477 H 260.709 -2.05124 -3.52687 0
M  V30 2478 H 259.384 -3.00307 -2.8773 0
M  V30 2479 H 257.961 -1.28141 -3.50192 0
M  V30 2480 N 260.146 1.09593 -1.13257 0
M  V30 2481 C 261.392 1.82003 -0.89458 0
M  V30 2482 C 261.725 1.85402 0.577906 0
M  V30 2483 O 261 1.32099 1.42759 0
M  V30 2484 C 261.283 3.28237 -1.48096 0
M  V30 2485 C 261.136 3.3312 -3.02244 0
M  V30 2486 C 262.455 4.24871 -1.14774 0
M  V30 2487 H 259.574 0.66077 -0.326424 0
M  V30 2488 H 262.216 1.28389 -1.40058 0
M  V30 2489 H 260.366 3.74024 -1.05062 0
M  V30 2490 H 262.038 2.95748 -3.54021 0
M  V30 2491 H 260.281 2.72756 -3.37323 0
M  V30 2492 H 260.952 4.3613 -3.38371 0
M  V30 2493 H 263.428 3.87361 -1.51957 0
M  V30 2494 H 262.304 5.25532 -1.58452 0
M  V30 2495 H 262.565 4.42058 -0.0611849 0
M  V30 2496 N 261.624 0.925811 1.2754 0
M  V30 2497 C 263.035 0.610102 1.7645 0
M  V30 2498 C 263.386 -0.874723 1.75622 0
M  V30 2499 O 262.511 -1.68444 1.35851 0
M  V30 2500 C 263.106 1.10073 3.20421 0
M  V30 2501 C 261.665 0.835723 3.67005 0
M  V30 2502 C 260.812 1.26054 2.46993 0
M  V30 2503 H 263.763 1.10579 1.13833 0
M  V30 2504 H 263.784 0.447557 3.77859 0
M  V30 2505 H 263.296 2.18143 3.20991 0
M  V30 2506 H 261.397 -0.231249 3.71882 0
M  V30 2507 H 261.51 1.45193 4.56569 0
M  V30 2508 H 259.874 0.679111 2.45479 0
M  V30 2509 H 260.657 2.34984 2.50275 0
M  V30 2510 N 263.102 -1.41638 0.69111 0
M  V30 2511 C 264.35 -2.00902 0.219758 0
M  V30 2512 C 264.671 -1.54994 -1.18329 0
M  V30 2513 O 263.941 -0.778628 -1.79762 0
M  V30 2514 H 262.521 -0.74289 0.0782558 0
M  V30 2515 H 265.183 -1.73327 0.891271 0
M  V30 2516 H 264.279 -3.11224 0.233708 0
M  V30 2517 N 264.58 -0.43555 -1.51462 0
M  V30 2518 C 265.991 0.0279871 -1.86679 0
M  V30 2519 C 266.342 1.42104 -1.35281 0
M  V30 2520 O 265.467 2.04667 -0.702878 0
M  V30 2521 C 266.062 0.0575626 -3.38751 0
M  V30 2522 C 264.621 0.465507 -3.7351 0
M  V30 2523 C 263.768 -0.342996 -2.75171 0
M  V30 2524 H 266.719 -0.651473 -1.44712 0
M  V30 2525 H 266.74 0.867421 -3.70481 0
M  V30 2526 H 266.252 -0.956448 -3.7613 0
M  V30 2527 H 264.353 1.48519 -3.41721 0
M  V30 2528 H 264.466 0.191546 -4.78717 0
M  V30 2529 H 262.83 0.198442 -2.53926 0
M  V30 2530 H 263.613 -1.35585 -3.15391 0
M  V30 2531 N 266.058 1.56714 -0.166846 0
M  V30 2532 C 266.991 2.13577 0.80375 0
M  V30 2533 C 267.969 1.06464 1.22899 0
M  V30 2534 O 269.153 1.34413 1.32157 0
M  V30 2535 C 266.28 2.67168 2.0818 0
M  V30 2536 C 265.326 3.86612 1.80093 0
M  V30 2537 S 266.159 5.26565 0.97416 0
M  V30 2538 C 267.315 5.83558 2.26297 0
M  V30 2539 H 267.548 2.9557 0.320267 0
M  V30 2540 H 265.081 1.54326 0.0477555 0
M  V30 2541 H 267.039 2.98692 2.8159 0
M  V30 2542 H 265.7 1.85269 2.53642 0
M  V30 2543 H 264.893 4.22422 2.7491 0
M  V30 2544 H 264.495 3.55951 1.14781 0
M  V30 2545 H 266.787 5.962 3.21795 0
M  V30 2546 H 267.73 6.80731 1.94962 0
M  V30 2547 H 268.138 5.11944 2.37853 0
M  V30 2548 N 267.536 -0.106894 1.57237 0
M  V30 2549 C 268.784 -0.810921 1.85117 0
M  V30 2550 C 269.105 -1.7984 0.753827 0
M  V30 2551 O 268.375 -1.94649 -0.221056 0
M  V30 2552 H 266.955 -0.302466 0.683025 0
M  V30 2553 H 269.617 -0.0913324 1.94686 0
M  V30 2554 H 268.713 -1.34875 2.81452 0
M  V30 2555 N 269.014 -1.53014 -0.377408 0
M  V30 2556 C 270.425 -1.60438 -0.954798 0
M  V30 2557 C 270.776 -0.464418 -1.90624 0
M  V30 2558 O 269.901 0.41087 -2.12464 0
M  V30 2559 C 270.496 -2.90797 -1.73847 0
M  V30 2560 C 269.055 -3.00595 -2.26538 0
M  V30 2561 C 268.202 -2.55645 -1.07429 0
M  V30 2562 H 271.153 -1.57926 -0.156575 0
M  V30 2563 H 271.174 -2.77935 -2.5987 0
M  V30 2564 H 270.686 -3.73746 -1.04574 0
M  V30 2565 H 268.787 -2.22208 -2.99089 0
M  V30 2566 H 268.9 -4.05456 -2.5523 0
M  V30 2567 H 267.264 -2.10239 -1.43777 0
M  V30 2568 H 268.047 -3.41 -0.396728 0
M  V30 2569 N 270.492 0.636531 -1.44174 0
M  V30 2570 C 271.717 1.42847 -1.50364 0
M  V30 2571 C 272.142 1.87665 -0.127867 0
M  V30 2572 O 271.5 1.58408 0.88185 0
M  V30 2573 C 271.548 2.62854 -2.4686 0
M  V30 2574 O 270.652 3.62501 -1.9664 0
M  V30 2575 H 269.993 0.427642 -0.507955 0
M  V30 2576 H 272.523 0.777422 -1.89255 0
M  V30 2577 H 272.533 3.10465 -2.64718 0
M  V30 2578 H 271.208 2.29578 -3.46795 0
M  V30 2579 H 269.785 3.21735 -1.88523 0
M  V30 2580 N 271.97 1.30982 0.876444 0
M  V30 2581 C 273.218 1.20058 1.62575 0
M  V30 2582 C 273.539 -0.242947 1.93481 0
M  V30 2583 O 272.809 -1.1619 1.57724 0
M  V30 2584 H 271.389 0.44135 0.602677 0
M  V30 2585 H 274.051 1.64222 1.04962 0
M  V30 2586 H 273.147 1.76762 2.57219 0
M  V30 2587 N 273.449 -1.08991 1.13837 0
M  V30 2588 C 274.86 -1.62746 0.914917 0
M  V30 2589 C 275.211 -1.88403 -0.547594 0
M  V30 2590 O 274.336 -1.63706 -1.41525 0
M  V30 2591 C 274.931 -2.95662 1.65437 0
M  V30 2592 C 273.49 -3.46225 1.47666 0
M  V30 2593 C 272.637 -2.20562 1.6807 0
M  V30 2594 H 275.588 -0.922946 1.29102 0
M  V30 2595 H 275.609 -3.63825 1.11407 0
M  V30 2596 H 275.121 -2.76956 2.71877 0
M  V30 2597 H 273.222 -3.70046 0.435478 0
M  V30 2598 H 273.335 -4.23368 2.24268 0
M  V30 2599 H 271.699 -2.29439 1.10589 0
M  V30 2600 H 272.482 -2.0437 2.7584 0
M  V30 2601 N 274.927 -0.932562 -1.27047 0
M  V30 2602 C 276.343 -0.633544 -1.46487 0
M  V30 2603 C 276.543 0.815746 -1.84249 0
M  V30 2604 O 275.599 1.59319 -1.95892 0
M  V30 2605 C 276.912 -1.58758 -2.55375 0
M  V30 2606 C 278.46 -1.59634 -2.69232 0
M  V30 2607 C 278.935 -2.53747 -3.81283 0
M  V30 2608 N 280.426 -2.51982 -3.88664 0
M  V30 2609 C 281.161 -3.21491 -4.74796 0
M  V30 2610 N 280.657 -4.00395 -5.65381 0
M  V30 2611 N 282.45 -3.10485 -4.68568 0
M  V30 2612 H 274.601 -1.86946 -1.00821 0
M  V30 2613 H 276.864 -0.802897 -0.504044 0
M  V30 2614 H 276.57 -2.62172 -2.34432 0
M  V30 2615 H 276.444 -1.33301 -3.52861 0
M  V30 2616 H 278.831 -0.569488 -2.89553 0
M  V30 2617 H 278.912 -1.89142 -1.72218 0
M  V30 2618 H 278.556 -3.56545 -3.61715 0
M  V30 2619 H 278.486 -2.21532 -4.77735 0
M  V30 2620 H 280.977 -1.94681 -3.23895 0
M  V30 2621 H 281.29 -4.50406 -6.27976 0
M  V30 2622 H 279.635 -4.04498 -5.65161 0
M  V30 2623 H 282.826 -2.48331 -3.96799 0
M  V30 2624 H 282.999 -3.64925 -5.35475 0
M  V30 2625 N 276.405 1.4127 -0.698611 0
M  V30 2626 C 277.653 2.00782 -0.230409 0
M  V30 2627 C 277.974 1.5562 1.17505 0
M  V30 2628 O 277.244 0.78815 1.79346 0
M  V30 2629 H 275.824 0.742464 -0.0821944 0
M  V30 2630 H 278.486 1.72852 -0.90045 0
M  V30 2631 H 277.582 3.11095 -0.25021 0
M  V30 2632 N 277.883 0.443576 1.51229 0
M  V30 2633 C 278.813 -0.355142 2.30783 0
M  V30 2634 C 279.794 -1.0154 1.36468 0
M  V30 2635 O 280.979 -1.01785 1.65389 0
M  V30 2636 C 278.109 -1.45312 3.15439 0
M  V30 2637 C 277.063 -0.916002 4.18083 0
M  V30 2638 C 276.389 -2.1102 4.91299 0
M  V30 2639 C 277.689 0.0538602 5.22272 0
M  V30 2640 H 279.383 0.308767 2.97804 0
M  V30 2641 H 276.929 0.149937 1.43217 0
M  V30 2642 H 278.882 -2.01914 3.69876 0
M  V30 2643 H 277.606 -2.14541 2.46252 0
M  V30 2644 H 276.265 -0.372145 3.64706 0
M  V30 2645 H 275.913 -2.78882 4.18609 0
M  V30 2646 H 275.613 -1.75717 5.60712 0
M  V30 2647 H 277.137 -2.68164 5.48562 0
M  V30 2648 H 278.551 -0.422069 5.71744 0
M  V30 2649 H 276.948 0.319776 5.99247 0
M  V30 2650 H 278.018 0.98858 4.74716 0
M  V30 2651 N 279.361 -1.56624 0.175154 0
M  V30 2652 C 280.772 -1.83561 -0.340916 0
M  V30 2653 C 281.123 -1.09511 -1.62794 0
M  V30 2654 O 280.248 -0.349389 -2.13561 0
M  V30 2655 C 280.843 -3.32979 -0.625313 0
M  V30 2656 C 279.402 -3.60399 -1.08581 0
M  V30 2657 C 278.549 -2.77024 -0.123722 0
M  V30 2658 H 281.5 -1.53593 0.399344 0
M  V30 2659 H 281.521 -3.50666 -1.47694 0
M  V30 2660 H 281.033 -3.86847 0.311575 0
M  V30 2661 H 279.134 -3.11945 -2.03767 0
M  V30 2662 H 279.247 -4.68711 -0.992317 0
M  V30 2663 H 277.611 -2.46993 -0.621821 0
M  V30 2664 H 278.394 -3.33674 0.807256 0
M  V30 2665 N 280.839 0.0985539 -1.57292 0
M  V30 2666 C 282.087 0.801092 -1.85545 0
M  V30 2667 C 282.408 1.79438 -0.763353 0
M  V30 2668 O 281.678 1.94763 0.21073 0
M  V30 2669 H 280.258 0.29884 -0.684619 0
M  V30 2670 H 282.92 0.0810064 -1.94732 0
M  V30 2671 H 282.016 1.3338 -2.82163 0
M  V30 2672 N 282.317 1.53212 0.369288 0
M  V30 2673 C 283.728 1.60943 0.946276 0
M  V30 2674 C 284.079 0.47452 1.90375 0
M  V30 2675 O 283.204 -0.399597 2.12679 0
M  V30 2676 C 283.799 2.91715 1.72302 0
M  V30 2677 C 282.358 3.01792 2.24941 0
M  V30 2678 C 281.505 2.56211 1.06072 0
M  V30 2679 H 284.456 1.58007 0.148198 0
M  V30 2680 H 284.477 2.79309 2.58393 0
M  V30 2681 H 283.989 3.74295 1.0259 0
M  V30 2682 H 282.09 2.23791 2.97906 0
M  V30 2683 H 282.203 4.06803 2.53077 0
M  V30 2684 H 280.567 2.10998 1.4266 0
M  V30 2685 H 281.35 3.41206 0.378639 0
M  V30 2686 N 283.795 -0.628877 1.44509 0
M  V30 2687 C 285.206 -1.21054 1.42137 0
M  V30 2688 C 285.557 -1.95715 0.137881 0
M  V30 2689 O 284.682 -2.02554 -0.761645 0
M  V30 2690 C 285.277 -2.20189 2.57493 0
M  V30 2691 C 283.836 -2.73777 2.58308 0
M  V30 2692 C 282.983 -1.48813 2.33987 0
M  V30 2693 H 285.934 -0.41942 1.53057 0
M  V30 2694 H 285.955 -3.02833 2.30375 0
M  V30 2695 H 285.467 -1.6582 3.50892 0
M  V30 2696 H 283.568 -3.32142 1.68856 0
M  V30 2697 H 283.681 -3.19662 3.56865 0
M  V30 2698 H 282.045 -1.77024 1.83124 0
M  V30 2699 H 282.828 -0.963442 3.29504 0
M  V30 2700 N 285.273 -1.31445 -0.869486 0
M  V30 2701 C 286.521 -1.20918 -1.61936 0
M  V30 2702 C 286.842 0.232683 -1.93607 0
M  V30 2703 O 286.112 1.15352 -1.58338 0
M  V30 2704 H 284.692 -0.44454 -0.600328 0
M  V30 2705 H 287.354 -1.64776 -1.0409 0
M  V30 2706 H 286.45 -1.78124 -2.56278 0
M  V30 2707 N 286.751 1.08385 -1.14413 0
M  V30 2708 C 287.714 2.13486 -0.834048 0
M  V30 2709 C 288.714 1.59988 0.161418 0
M  V30 2710 O 289.904 1.74071 -0.0669575 0
M  V30 2711 C 287.036 3.4003 -0.243354 0
M  V30 2712 H 288.229 2.42425 -1.7655 0
M  V30 2713 H 285.782 1.24101 -0.950189 0
M  V30 2714 H 286.517 3.16726 0.696807 0
M  V30 2715 H 286.302 3.80157 -0.960367 0
M  V30 2716 H 287.792 4.17577 -0.0436242 0
M  V30 2717 N 288.23 0.939286 1.26551 0
M  V30 2718 C 289.641 0.628782 1.75793 0
M  V30 2719 C 289.992 -0.856046 1.7654 0
M  V30 2720 O 289.117 -1.66994 1.3763 0
M  V30 2721 C 289.712 1.13465 3.19235 0
M  V30 2722 C 288.271 0.874601 3.66098 0
M  V30 2723 C 287.418 1.28667 2.45642 0
M  V30 2724 H 290.369 1.1178 1.12654 0
M  V30 2725 H 290.39 0.487609 3.77363 0
M  V30 2726 H 289.902 2.21535 3.1866 0
M  V30 2727 H 288.003 -0.191793 3.72106 0
M  V30 2728 H 288.116 1.50028 4.55004 0
M  V30 2729 H 286.48 0.705109 2.44745 0
M  V30 2730 H 287.263 2.37625 2.47769 0
M  V30 2731 N 289.708 -1.40897 0.706093 0
M  V30 2732 C 290.956 -2.00657 0.241054 0
M  V30 2733 C 291.277 -1.56241 -1.16678 0
M  V30 2734 O 290.547 -0.79765 -1.78926 0
M  V30 2735 H 289.127 -0.742018 0.0861308 0
M  V30 2736 H 291.789 -1.72372 0.909604 0
M  V30 2737 H 290.885 -3.10958 0.266705 0
M  V30 2738 N 291.186 -0.45159 -1.50991 0
M  V30 2739 C 292.597 0.00818571 -1.86698 0
M  V30 2740 C 292.948 1.40661 -1.3678 0
M  V30 2741 O 292.073 2.0391 -0.724546 0
M  V30 2742 C 292.668 0.0216303 -3.38793 0
M  V30 2743 C 291.227 0.425865 -3.73983 0
M  V30 2744 C 290.374 -0.372163 -2.74791 0
M  V30 2745 H 293.325 -0.666785 -1.44013 0
M  V30 2746 H 293.346 0.828078 -3.7138 0
M  V30 2747 H 292.858 -0.996288 -3.75094 0
M  V30 2748 H 290.959 1.44886 -3.43277 0
M  V30 2749 H 291.072 0.140761 -4.78893 0
M  V30 2750 H 289.436 0.171498 -2.54122 0
M  V30 2751 H 290.219 -1.38922 -3.13935 0
M  V30 2752 N 292.664 1.56529 -0.183458 0
M  V30 2753 C 293.596 2.15747 0.773697 0
M  V30 2754 C 294.609 1.1162 1.1851 0
M  V30 2755 O 295.798 1.3876 1.12285 0
M  V30 2756 C 292.898 2.6952 2.05456 0
M  V30 2757 C 292.071 3.98429 1.8048 0
M  V30 2758 C 291.13 4.37145 2.92901 0
M  V30 2759 O 290.156 5.04791 2.6301 0
M  V30 2760 N 291.358 3.99695 4.2098 0
M  V30 2761 H 294.123 2.98505 0.26736 0
M  V30 2762 H 291.684 1.619 -0.0010878 0
M  V30 2763 H 293.676 2.92412 2.79781 0
M  V30 2764 H 292.246 1.91282 2.47245 0
M  V30 2765 H 291.466 3.8379 0.899947 0
M  V30 2766 H 292.754 4.82597 1.61175 0
M  V30 2767 H 292.152 3.4526 4.48121 0
M  V30 2768 H 290.709 4.27562 4.9197 0
M  V30 2769 N 294.142 -0.090211 1.57342 0
M  V30 2770 C 295.39 -0.791241 1.85967 0
M  V30 2771 C 295.711 -1.7903 0.772859 0
M  V30 2772 O 294.981 -1.94872 -0.200398 0
M  V30 2773 H 293.561 -0.295205 0.686195 0
M  V30 2774 H 296.223 -0.0706782 1.94772 0
M  V30 2775 H 295.319 -1.31882 2.82867 0
M  V30 2776 N 295.62 -1.53406 -0.361157 0
M  V30 2777 C 296.867 -1.69802 -1.10333 0
M  V30 2778 C 297.195 -0.452087 -1.89173 0
M  V30 2779 O 296.45 0.566017 -1.87336 0
M  V30 2780 C 296.749 -2.90211 -2.08596 0
M  V30 2781 C 296.415 -4.26539 -1.46203 0
M  V30 2782 C 295.077 -4.6361 -1.28915 0
M  V30 2783 C 297.429 -5.113 -1.01101 0
M  V30 2784 C 294.757 -5.83075 -0.651157 0
M  V30 2785 C 297.109 -6.31415 -0.387007 0
M  V30 2786 C 295.773 -6.67195 -0.201657 0
M  V30 2787 H 295.043 -0.621351 -0.403737 0
M  V30 2788 H 297.69 -1.87598 -0.384609 0
M  V30 2789 H 295.995 -2.66946 -2.86788 0
M  V30 2790 H 297.692 -3.00091 -2.65982 0
M  V30 2791 H 294.282 -3.97352 -1.60653 0
M  V30 2792 H 298.466 -4.83206 -1.13249 0
M  V30 2793 H 293.722 -6.09385 -0.496006 0
M  V30 2794 H 297.896 -6.96394 -0.0293563 0
M  V30 2795 H 295.523 -7.59628 0.294766 0
M  V30 2796 N 297.098 0.621204 -1.44841 0
M  V30 2797 C 298.03 1.74615 -1.48466 0
M  V30 2798 C 299.043 1.58377 -0.37691 0
M  V30 2799 O 300.232 1.66508 -0.643215 0
M  V30 2800 C 297.332 3.12459 -1.31236 0
M  V30 2801 C 296.505 3.55064 -2.55438 0
M  V30 2802 C 295.564 4.71821 -2.32963 0
M  V30 2803 O 294.59 4.79628 -3.06505 0
M  V30 2804 N 295.792 5.64186 -1.36654 0
M  V30 2805 H 298.557 1.71973 -2.45449 0
M  V30 2806 H 296.118 0.806077 -1.40407 0
M  V30 2807 H 298.11 3.88302 -1.14032 0
M  V30 2808 H 296.68 3.09686 -0.4258 0
M  V30 2809 H 295.9 2.69324 -2.87851 0
M  V30 2810 H 297.188 3.80284 -3.38026 0
M  V30 2811 H 296.586 5.6058 -0.759344 0
M  V30 2812 H 295.143 6.39618 -1.25425 0
M  V30 2813 N 298.576 1.31904 0.862503 0
M  V30 2814 C 299.824 1.21776 1.61292 0
M  V30 2815 C 300.145 -0.222413 1.93727 0
M  V30 2816 O 299.415 -1.1451 1.58947 0
M  V30 2817 H 297.995 0.447717 0.597962 0
M  V30 2818 H 300.657 1.65326 1.03215 0
M  V30 2819 H 299.753 1.7948 2.5533 0
M  V30 2820 N 300.054 -1.07777 1.14986 0
M  V30 2821 C 301.465 -1.61766 0.932127 0
M  V30 2822 C 301.816 -1.88974 -0.527581 0
M  V30 2823 O 300.941 -1.65198 -1.39781 0
M  V30 2824 C 301.536 -2.93891 1.68563 0
M  V30 2825 C 300.095 -3.44639 1.5133 0
M  V30 2826 C 299.242 -2.18767 1.704 0
M  V30 2827 H 302.193 -0.909201 1.30074 0
M  V30 2828 H 302.214 -3.62623 1.15259 0
M  V30 2829 H 301.726 -2.74057 2.74799 0
M  V30 2830 H 299.827 -3.69564 0.474702 0
M  V30 2831 H 299.94 -4.20966 2.28746 0
M  V30 2832 H 298.304 -2.28253 1.13016 0
M  V30 2833 H 299.087 -2.01433 2.77992 0
M  V30 2834 N 301.532 -0.945985 -1.26051 0
M  V30 2835 C 302.943 -0.638096 -1.75457 0
M  V30 2836 C 303.294 0.846672 -1.76991 0
M  V30 2837 O 302.419 1.66262 -1.38513 0
M  V30 2838 C 303.014 -1.15157 -3.18629 0
M  V30 2839 C 301.573 -0.894004 -3.65629 0
M  V30 2840 C 300.72 -1.29967 -2.44957 0
M  V30 2841 H 303.671 -1.12376 -1.1206 0
M  V30 2842 H 303.692 -0.507615 -3.77099 0
M  V30 2843 H 303.204 -2.23222 -3.1748 0
M  V30 2844 H 301.305 0.172057 -3.72203 0
M  V30 2845 H 301.418 -1.52439 -4.54202 0
M  V30 2846 H 299.782 -0.718078 -2.44368 0
M  V30 2847 H 300.565 -2.38935 -2.46505 0
M  V30 2848 N 303.011 1.40521 -0.713556 0
M  V30 2849 C 304.259 2.00527 -0.251692 0
M  V30 2850 C 304.58 1.56857 1.15848 0
M  V30 2851 O 303.85 0.807127 1.785 0
M  V30 2852 H 302.43 0.741551 -0.0900646 0
M  V30 2853 H 305.092 1.71887 -0.918733 0
M  V30 2854 H 304.188 3.10813 -0.283192 0
M  V30 2855 N 304.489 0.459591 1.5075 0
M  V30 2856 C 305.399 -0.34613 2.32033 0
M  V30 2857 C 306.415 -1.00686 1.41909 0
M  V30 2858 O 307.591 -0.997361 1.7497 0
M  V30 2859 C 304.656 -1.42029 3.16273 0
M  V30 2860 C 303.717 -0.777362 4.22203 0
M  V30 2861 C 302.95 -1.80034 5.02418 0
M  V30 2862 O 303.173 -3.02544 4.83553 0
M  V30 2863 O 302.107 -1.37853 5.85901 0
M  V30 2864 H 305.933 0.318054 3.0203 0
M  V30 2865 H 303.518 0.221663 1.47746 0
M  V30 2866 H 305.4 -2.04275 3.68578 0
M  V30 2867 H 304.075 -2.06815 2.49016 0
M  V30 2868 H 302.982 -0.116256 3.73919 0
M  V30 2869 H 304.315 -0.172634 4.91897 0
M  V30 2870 N 305.967 -1.56429 0.191757 0
M  V30 2871 C 307.378 -1.83912 -0.321428 0
M  V30 2872 C 307.729 -1.11231 -1.61623 0
M  V30 2873 O 306.854 -0.37202 -2.13178 0
M  V30 2874 C 307.449 -3.33624 -0.589961 0
M  V30 2875 C 306.008 -3.6153 -1.04753 0
M  V30 2876 C 305.155 -2.7714 -0.0943327 0
M  V30 2877 H 308.106 -1.53161 0.415612 0
M  V30 2878 H 308.127 -3.52213 -1.43966 0
M  V30 2879 H 307.639 -3.86495 0.352588 0
M  V30 2880 H 305.74 -3.14089 -2.00447 0
M  V30 2881 H 305.853 -4.69737 -0.942549 0
M  V30 2882 H 304.217 -2.47638 -0.595589 0
M  V30 2883 H 305 -3.32799 0.842601 0
M  V30 2884 N 307.445 0.0818655 -1.57387 0
M  V30 2885 C 308.693 0.781368 -1.86384 0
M  V30 2886 C 309.014 1.78618 -0.782342 0
M  V30 2887 O 308.284 1.94976 0.190061 0
M  V30 2888 H 306.864 0.291562 -0.687751 0
M  V30 2889 H 309.526 0.060348 -1.94807 0
M  V30 2890 H 308.622 1.3038 -2.83562 0
M  V30 2891 N 308.923 1.53595 0.353017 0
M  V30 2892 C 309.833 1.83897 1.45667 0
M  V30 2893 C 310.849 0.728334 1.58023 0
M  V30 2894 O 312.025 1.01968 1.73679 0
M  V30 2895 C 309.09 2.03383 2.80778 0
M  V30 2896 C 308.151 3.27262 2.77845 0
M  V30 2897 C 307.384 3.45809 4.06512 0
M  V30 2898 O 307.607 2.68387 5.03314 0
M  V30 2899 O 306.541 4.39207 4.11559 0
M  V30 2900 H 310.367 2.77686 1.2298 0
M  V30 2901 H 307.952 1.39132 0.544308 0
M  V30 2902 H 309.834 2.17698 3.60812 0
M  V30 2903 H 308.509 1.12783 3.03417 0
M  V30 2904 H 307.416 3.18359 1.96465 0
M  V30 2905 H 308.749 4.17824 2.60161 0
M  V30 2906 N 310.401 -0.613514 1.45168 0
M  V30 2907 C 311.812 -1.19539 1.43413 0
M  V30 2908 C 312.163 -1.95558 0.158632 0
M  V30 2909 O 311.288 -2.0335 -0.740119 0
M  V30 2910 C 311.883 -2.17445 2.59813 0
M  V30 2911 C 310.442 -2.71022 2.61197 0
M  V30 2912 C 309.589 -1.46323 2.35552 0
M  V30 2913 H 312.54 -0.403163 1.53494 0
M  V30 2914 H 312.561 -3.00373 2.33574 0
M  V30 2915 H 312.073 -1.62089 3.52631 0
M  V30 2916 H 310.174 -3.30332 1.7237 0
M  V30 2917 H 310.287 -3.15859 3.60236 0
M  V30 2918 H 308.651 -1.75072 1.84992 0
M  V30 2919 H 309.434 -0.92844 3.30507 0
M  V30 2920 N 311.879 -1.3236 -0.855495 0
M  V30 2921 C 313.127 -1.22629 -1.60644 0
M  V30 2922 C 313.448 0.212136 -1.93843 0
M  V30 2923 O 312.718 1.13666 -1.59552 0
M  V30 2924 H 311.298 -0.450882 -0.595579 0
M  V30 2925 H 313.96 -1.65871 -1.02337 0
M  V30 2926 H 313.056 -1.80832 -2.54374 0
M  V30 2927 N 313.357 1.07166 -1.15556 0
M  V30 2928 C 314.32 2.12589 -0.856644 0
M  V30 2929 C 315.32 1.6015 0.14444 0
M  V30 2930 O 316.51 1.7399 -0.0854163 0
M  V30 2931 C 313.642 3.39753 -0.279405 0
M  V30 2932 H 314.835 2.40539 -1.79112 0
M  V30 2933 H 312.388 1.23086 -0.963298 0
M  V30 2934 H 313.123 3.17447 0.663174 0
M  V30 2935 H 312.908 3.79117 -1.00063 0
M  V30 2936 H 314.398 4.17507 -0.0879113 0
M  V30 2937 N 314.835 0.952656 1.25548 0
M  V30 2938 C 316.06 0.623025 1.97821 0
M  V30 2939 C 316.485 -0.7976 1.70352 0
M  V30 2940 O 315.843 -1.53905 0.958283 0
M  V30 2941 C 315.891 0.885532 3.49558 0
M  V30 2942 O 314.995 -0.0366641 4.12384 0
M  V30 2943 H 314.336 0.237082 0.620232 0
M  V30 2944 H 316.866 1.27871 1.59719 0
M  V30 2945 H 316.876 0.811009 3.99858 0
M  V30 2946 H 315.551 1.92094 3.6888 0
M  V30 2947 H 314.128 0.0898954 3.72792 0
M  V30 2948 N 316.313 -1.40141 0.720998 0
M  V30 2949 C 317.561 -2.0039 0.262323 0
M  V30 2950 C 317.882 -1.57469 -1.15015 0
M  V30 2951 O 317.152 -0.816582 -1.78069 0
M  V30 2952 H 315.732 -0.741063 0.093996 0
M  V30 2953 H 318.394 -1.71398 0.927835 0
M  V30 2954 H 317.49 -3.10658 0.299671 0
M  V30 2955 N 317.792 -0.46758 -1.50504 0
M  V30 2956 C 319.203 -0.0116166 -1.86696 0
M  V30 2957 C 319.554 1.39202 -1.38265 0
M  V30 2958 O 318.679 2.0313 -0.746132 0
M  V30 2959 C 319.274 -0.0143044 -3.38797 0
M  V30 2960 C 317.833 0.386175 -3.74414 0
M  V30 2961 C 316.98 -0.401287 -2.74381 0
M  V30 2962 H 319.931 -0.682022 -1.43297 0
M  V30 2963 H 319.952 0.788641 -3.72237 0
M  V30 2964 H 319.464 -1.03602 -3.74016 0
M  V30 2965 H 317.565 1.41237 -3.44794 0
M  V30 2966 H 317.678 0.0899596 -4.79016 0
M  V30 2967 H 316.042 0.144536 -2.5429 0
M  V30 2968 H 316.825 -1.42244 -3.12444 0
M  V30 2969 N 319.27 1.56325 -0.20005 0
M  V30 2970 C 320.203 2.15234 0.758267 0
M  V30 2971 C 321.181 1.09046 1.20614 0
M  V30 2972 O 322.365 1.37186 1.29276 0
M  V30 2973 C 319.492 2.71524 2.02466 0
M  V30 2974 C 318.538 3.90345 1.71852 0
M  V30 2975 S 319.371 5.28513 0.862249 0
M  V30 2976 C 320.527 5.88227 2.13868 0
M  V30 2977 H 320.76 2.96183 0.2575 0
M  V30 2978 H 318.293 1.54393 0.0150099 0
M  V30 2979 H 320.251 3.04598 2.75191 0
M  V30 2980 H 318.912 1.90607 2.49655 0
M  V30 2981 H 318.105 4.28158 2.65888 0
M  V30 2982 H 317.707 3.58306 1.07205 0
M  V30 2983 H 319.999 6.02891 3.09076 0
M  V30 2984 H 320.942 6.84714 1.80479 0
M  V30 2985 H 321.35 5.16874 2.2694 0
M  V30 2986 N 320.748 -0.0735177 1.57428 0
M  V30 2987 C 321.996 -0.771472 1.86796 0
M  V30 2988 C 322.317 -1.78201 0.791804 0
M  V30 2989 O 321.587 -1.95074 -0.179718 0
M  V30 2990 H 320.167 -0.28791 0.689287 0
M  V30 2991 H 322.829 -0.0500161 1.94836 0
M  V30 2992 H 321.925 -1.28874 2.8425 0
M  V30 2993 N 322.226 -1.5378 -0.344866 0
M  V30 2994 C 323.637 -1.62428 -0.920552 0
M  V30 2995 C 323.988 -0.504747 -1.89596 0
M  V30 2996 O 323.113 0.365711 -2.13287 0
M  V30 2997 C 323.708 -2.94419 -1.67639 0
M  V30 2998 C 322.267 -3.05333 -2.20111 0
M  V30 2999 C 321.414 -2.57866 -1.01982 0
M  V30 3000 H 324.365 -1.58222 -0.123042 0
M  V30 3001 H 324.386 -2.83384 -2.53917 0
M  V30 3002 H 323.898 -3.7588 -0.966224 0
M  V30 3003 H 321.999 -2.28502 -2.94308 0
M  V30 3004 H 322.112 -4.10778 -2.46573 0
M  V30 3005 H 320.476 -2.13241 -1.39285 0
M  V30 3006 H 321.259 -3.41765 -0.324308 0
M  V30 3007 N 323.704 0.605807 -1.45491 0
M  V30 3008 C 325.12 0.926751 -1.29936 0
M  V30 3009 C 325.32 1.99896 -0.253706 0
M  V30 3010 O 324.376 2.50038 0.351737 0
M  V30 3011 C 325.689 1.36599 -2.67883 0
M  V30 3012 C 327.237 1.4801 -2.75793 0
M  V30 3013 C 327.712 1.95309 -4.14268 0
M  V30 3014 N 329.203 2.0254 -4.16571 0
M  V30 3015 C 329.938 2.40363 -5.20589 0
M  V30 3016 N 329.434 2.77143 -6.34952 0
M  V30 3017 N 331.227 2.40718 -5.07948 0
M  V30 3018 H 323.378 -0.102862 -2.12151 0
M  V30 3019 H 325.641 0.016639 -0.947854 0
M  V30 3020 H 325.347 0.652306 -3.45598 0
M  V30 3021 H 325.221 2.33215 -2.96463 0
M  V30 3022 H 327.608 2.1847 -1.98381 0
M  V30 3023 H 327.689 0.497041 -2.50925 0
M  V30 3024 H 327.333 1.25436 -4.92167 0
M  V30 3025 H 327.263 2.94532 -4.3653 0
M  V30 3026 H 329.754 1.76699 -3.34045 0
M  V30 3027 H 330.067 3.0489 -7.10114 0
M  V30 3028 H 328.412 2.74834 -6.3835 0
M  V30 3029 H 331.603 2.11392 -4.1765 0
M  V30 3030 H 331.776 2.69869 -5.89131 0
M  V30 3031 N 325.182 1.32811 0.848464 0
M  V30 3032 C 326.43 1.23479 1.59991 0
M  V30 3033 C 326.751 -0.201853 1.93952 0
M  V30 3034 O 326.021 -1.12818 1.60153 0
M  V30 3035 H 324.601 0.454034 0.593179 0
M  V30 3036 H 327.263 1.66412 1.01455 0
M  V30 3037 H 326.359 1.82178 2.53412 0
M  V30 3038 N 326.66 -1.06551 1.16123 0
M  V30 3039 C 328.071 -1.60768 0.949232 0
M  V30 3040 C 328.422 -1.89523 -0.507508 0
M  V30 3041 O 327.547 -1.66671 -1.38021 0
M  V30 3042 C 328.142 -2.92086 1.71671 0
M  V30 3043 C 326.701 -3.43015 1.54977 0
M  V30 3044 C 325.848 -2.16947 1.72711 0
M  V30 3045 H 328.799 -0.895354 1.31031 0
M  V30 3046 H 328.82 -3.6138 1.19099 0
M  V30 3047 H 328.332 -2.71127 2.7769 0
M  V30 3048 H 326.433 -3.69039 0.513873 0
M  V30 3049 H 326.546 -4.18516 2.33198 0
M  V30 3050 H 324.91 -2.27041 1.15431 0
M  V30 3051 H 325.693 -1.98473 2.80113 0
M  V30 3052 N 328.138 -0.959301 -1.25041 0
M  V30 3053 C 329.549 -0.65667 -1.74771 0
M  V30 3054 C 329.9 0.827852 -1.77879 0
M  V30 3055 O 329.025 1.64783 -1.40269 0
M  V30 3056 C 329.62 -1.1853 -3.1739 0
M  V30 3057 C 328.179 -0.932734 -3.6466 0
M  V30 3058 C 327.326 -1.32558 -2.43564 0
M  V30 3059 H 330.277 -1.13558 -1.10862 0
M  V30 3060 H 330.298 -0.547582 -3.76539 0
M  V30 3061 H 329.81 -2.26576 -3.15095 0
M  V30 3062 H 327.911 0.13257 -3.72364 0
M  V30 3063 H 328.024 -1.57248 -4.52559 0
M  V30 3064 H 326.388 -0.743956 -2.43593 0
M  V30 3065 H 327.171 -2.41537 -2.43957 0
M  V30 3066 N 329.616 1.39756 -0.72842 0
M  V30 3067 C 330.864 2.00248 -0.272946 0
M  V30 3068 C 331.185 1.58077 1.14178 0
M  V30 3069 O 330.455 0.826014 1.77634 0
M  V30 3070 H 329.035 0.740554 -0.0979247 0
M  V30 3071 H 331.697 1.70903 -0.936912 0
M  V30 3072 H 330.793 3.10495 -0.316142 0
M  V30 3073 N 331.094 0.475555 1.50254 0
M  V30 3074 C 332.505 0.0215174 1.86688 0
M  V30 3075 C 332.856 -1.38467 1.39001 0
M  V30 3076 O 331.981 -2.02732 0.756894 0
M  V30 3077 C 332.576 0.0322715 3.38785 0
M  V30 3078 C 331.135 -0.366314 3.74613 0
M  V30 3079 C 330.282 0.415832 2.74164 0
M  V30 3080 H 333.233 0.689612 1.42934 0
M  V30 3081 H 333.254 -0.76889 3.7265 0
M  V30 3082 H 332.766 1.05584 3.73462 0
M  V30 3083 H 330.867 -1.39406 3.45538 0
M  V30 3084 H 330.98 -0.064555 4.79057 0
M  V30 3085 H 329.344 -0.131048 2.54363 0
M  V30 3086 H 330.127 1.43899 3.11686 0
M  V30 3087 N 332.573 -1.56217 0.208337 0
M  V30 3088 C 333.984 -1.84243 -0.301904 0
M  V30 3089 C 334.335 -1.12939 -1.60434 0
M  V30 3090 O 333.46 -0.39461 -2.12772 0
M  V30 3091 C 334.055 -3.34231 -0.554543 0
M  V30 3092 C 332.614 -3.62621 -1.00912 0
M  V30 3093 C 331.761 -2.77224 -0.064933 0
M  V30 3094 H 334.712 -1.52712 0.431833 0
M  V30 3095 H 334.733 -3.5372 -1.40223 0
M  V30 3096 H 334.245 -3.86099 0.393561 0
M  V30 3097 H 332.346 -3.16197 -1.97104 0
M  V30 3098 H 332.459 -4.7071 -0.892674 0
M  V30 3099 H 330.823 -2.48256 -0.56929 0
M  V30 3100 H 331.606 -3.31887 0.877851 0
M  V30 3101 N 334.051 0.0651679 -1.57465 0
M  V30 3102 C 335.299 0.761555 -1.87202 0
M  V30 3103 C 335.62 1.77778 -0.801243 0
M  V30 3104 O 334.89 1.95166 0.16937 0
M  V30 3105 H 333.47 0.284251 -0.690804 0
M  V30 3106 H 336.132 0.0396827 -1.9486 0
M  V30 3107 H 335.228 1.27365 -2.84929 0
M  V30 3108 N 335.529 1.53961 0.336706 0
M  V30 3109 C 336.476 1.82428 1.41381 0
M  V30 3110 C 337.446 0.670444 1.51968 0
M  V30 3111 O 338.631 0.915565 1.67398 0
M  V30 3112 C 335.771 2.04564 2.77934 0
M  V30 3113 C 334.884 3.32267 2.76084 0
M  V30 3114 C 334.019 3.44434 4.04399 0
M  V30 3115 C 333.058 4.66061 3.96804 0
M  V30 3116 N 332.195 4.75224 5.16823 0
M  V30 3117 H 337.035 2.74324 1.16405 0
M  V30 3118 H 334.572 1.35869 0.563752 0
M  V30 3119 H 336.53 2.15388 3.57301 0
M  V30 3120 H 335.16 1.15974 3.01247 0
M  V30 3121 H 334.212 3.3025 1.88784 0
M  V30 3122 H 335.524 4.21733 2.66351 0
M  V30 3123 H 334.678 3.54728 4.92192 0
M  V30 3124 H 333.417 2.53037 4.16921 0
M  V30 3125 H 332.422 4.55838 3.07396 0
M  V30 3126 H 333.647 5.58829 3.85858 0
M  V30 3127 H 331.593 3.86739 5.29876 0
M  V30 3128 H 331.51 5.58636 5.09374 0
M  V30 3129 H 332.778 4.89835 6.06367 0
M  V30 3130 N 337.007 -0.598083 1.45811 0
M  V30 3131 C 337.955 -1.72932 1.55555 0
M  V30 3132 C 338.949 -1.63984 0.424921 0
M  V30 3133 O 340.155 -1.69663 0.601205 0
M  V30 3134 H 336.53 -0.571489 0.488779 0
M  V30 3135 H 338.501 -1.61842 2.50699 0
M  V30 3136 C 337.25 -3.11318 1.54843 0
M  V30 3137 H 336.573 -3.18867 2.41172 0
M  V30 3138 H 338.013 -3.90274 1.65717 0
M  V30 3139 C 336.472 -3.3578 0.274427 0
M  V30 3140 O 337.002 -3.9654 -0.641778 0
M  V30 3141 N 335.208 -2.90119 0.167139 0
M  V30 3142 H 334.755 -2.40855 0.913596 0
M  V30 3143 H 334.713 -3.0686 -0.684435 0
M  V30 3144 N 338.485 -1.33259 -0.841409 0
M  V30 3145 C 339.733 -1.24326 -1.59334 0
M  V30 3146 C 340.054 0.191564 -1.94057 0
M  V30 3147 O 339.324 1.11967 -1.60749 0
M  V30 3148 H 337.904 -0.457174 -0.590763 0
M  V30 3149 H 340.566 -1.66947 -1.00571 0
M  V30 3150 H 339.662 -1.8352 -2.52442 0
M  V30 3151 N 339.963 1.05934 -1.16686 0
M  V30 3152 C 341.24 1.75643 -0.860747 0
M  V30 3153 C 341.62 2.01144 0.640641 0
M  V30 3154 O 340.968 1.64147 1.58959 0
M  V30 3155 C 341.178 3.05493 -1.68745 0
M  V30 3156 C 342.526 3.79581 -1.90271 0
M  V30 3157 O 343.55 3.15344 -1.65641 0
M  V30 3158 O 342.409 4.9499 -2.31618 0
M  V30 3159 H 339.503 0.763426 -0.317977 0
M  V30 3160 H 342.049 1.1217 -1.27342 0
M  V30 3161 H 340.821 2.8264 -2.70611 0
M  V30 3162 H 340.444 3.76702 -1.27206 0
M  V30 3163 N 341.441 0.965919 1.2453 0
M  V30 3164 C 342.718 0.543777 1.87889 0
M  V30 3165 C 343.098 -0.97909 1.87021 0
M  V30 3166 O 342.446 -1.84969 1.3416 0
M  V30 3167 C 342.656 1.13327 3.30088 0
M  V30 3168 C 344.004 1.21707 4.06783 0
M  V30 3169 O 345.028 1.08566 3.39252 0
M  V30 3170 O 343.887 1.42456 5.27606 0
M  V30 3171 H 340.981 0.181054 0.806938 0
M  V30 3172 H 343.527 1.06007 1.32516 0
M  V30 3173 H 342.299 2.17612 3.25209 0
M  V30 3174 H 341.922 0.600911 3.93033 0
M  V30 3175 N 342.919 -1.39368 0.735821 0
M  V30 3176 C 344.167 -2.00101 0.283562 0
M  V30 3177 C 344.488 -1.5868 -1.13338 0
M  V30 3178 O 343.758 -0.835423 -1.77193 0
M  V30 3179 H 342.338 -0.740024 0.101851 0
M  V30 3180 H 345 -1.70404 0.945962 0
M  V30 3181 H 344.096 -3.10323 0.332604 0
M  V30 3182 N 344.397 -0.483516 -1.5 0
M  V30 3183 C 345.307 0.309172 -2.32554 0
M  V30 3184 C 346.323 0.984159 -1.43493 0
M  V30 3185 O 347.499 0.969399 -1.76535 0
M  V30 3186 C 344.564 1.36979 -3.18493 0
M  V30 3187 C 343.625 0.710095 -4.23387 0
M  V30 3188 C 342.858 1.72018 -5.05218 0
M  V30 3189 O 343.081 2.94813 -4.88305 0
M  V30 3190 O 342.015 1.28515 -5.8802 0
M  V30 3191 H 345.841 -0.366064 -3.01486 0
M  V30 3192 H 343.426 -0.24514 -1.47375 0
M  V30 3193 H 345.308 1.98385 -3.71781 0
M  V30 3194 H 343.983 2.02828 -2.52275 0
M  V30 3195 H 342.89 0.0567539 -3.74057 0
M  V30 3196 H 344.223 0.0943557 -4.9211 0
M  V30 3197 N 345.875 1.56104 -0.216619 0
M  V30 3198 C 346.838 2.18819 0.681962 0
M  V30 3199 C 347.838 1.14866 1.12528 0
M  V30 3200 O 349.028 1.40128 1.03488 0
M  V30 3201 C 346.16 2.80756 1.93362 0
M  V30 3202 H 347.353 2.99595 0.135254 0
M  V30 3203 H 344.906 1.56265 0.0330003 0
M  V30 3204 H 345.641 2.03837 2.52232 0
M  V30 3205 H 345.426 3.56876 1.62426 0
M  V30 3206 H 346.916 3.28844 2.57393 0
M  V30 3207 N 347.353 -0.0568162 1.57498 0
M  V30 3208 C 348.601 -0.751617 1.87604 0
M  V30 3209 C 348.922 -1.77351 0.81066 0
M  V30 3210 O 348.192 -1.95254 -0.159018 0
M  V30 3211 H 346.772 -0.280583 0.692302 0
M  V30 3212 H 349.434 -0.0293483 1.94878 0
M  V30 3213 H 348.53 -1.25852 2.856 0
M  V30 3214 N 348.832 -1.54138 -0.328536 0
M  V30 3215 C 349.779 -1.83176 -1.40411 0
M  V30 3216 C 350.749 -0.678494 -1.5161 0
M  V30 3217 O 351.934 -0.92443 -1.6691 0
M  V30 3218 C 349.074 -2.06035 -2.76846 0
M  V30 3219 C 348.187 -3.33727 -2.74318 0
M  V30 3220 C 347.322 -3.46574 -4.02567 0
M  V30 3221 C 346.361 -4.68159 -3.94327 0
M  V30 3222 N 345.498 -4.77959 -5.14296 0
M  V30 3223 H 350.338 -2.74938 -1.14948 0
M  V30 3224 H 347.875 -1.36166 -0.556538 0
M  V30 3225 H 349.833 -2.1728 -3.56153 0
M  V30 3226 H 348.463 -1.1757 -3.00628 0
M  V30 3227 H 347.515 -3.31246 -1.8703 0
M  V30 3228 H 348.827 -4.23139 -2.64111 0
M  V30 3229 H 347.981 -3.57333 -4.90304 0
M  V30 3230 H 346.72 -2.55245 -4.15574 0
M  V30 3231 H 345.725 -4.57461 -3.04974 0
M  V30 3232 H 346.95 -5.60868 -3.82889 0
M  V30 3233 H 344.896 -3.89544 -5.27818 0
M  V30 3234 H 344.813 -5.6133 -5.06404 0
M  V30 3235 H 346.081 -4.93044 -6.03761 0
M  V30 3236 N 350.31 0.590341 -1.46126 0
M  V30 3237 C 351.721 1.17243 -1.45296 0
M  V30 3238 C 352.072 1.95281 -0.189723 0
M  V30 3239 O 351.197 2.04502 0.707674 0
M  V30 3240 C 351.792 2.13284 -2.6324 0
M  V30 3241 C 350.351 2.66832 -2.65476 0
M  V30 3242 C 349.498 1.42557 -2.3785 0
M  V30 3243 H 352.449 0.378692 -1.54116 0
M  V30 3244 H 352.47 2.96619 -2.38323 0
M  V30 3245 H 351.982 1.56459 -3.55165 0
M  V30 3246 H 350.083 3.27548 -1.77603 0
M  V30 3247 H 350.196 3.10088 -3.65215 0
M  V30 3248 H 348.56 1.72107 -1.87753 0
M  V30 3249 H 349.343 0.875741 -3.31942 0
M  V30 3250 N 351.788 1.33704 0.83433 0
M  V30 3251 C 353.036 1.25169 1.58673 0
M  V30 3252 C 353.357 -0.18127 1.94156 0
M  V30 3253 O 352.627 -1.11113 1.6134 0
M  V30 3254 H 351.207 0.4603 0.58833 0
M  V30 3255 H 353.869 1.67478 0.996847 0
M  V30 3256 H 352.965 1.84856 2.51465 0
M  V30 3257 N 353.266 -1.05314 1.17247 0
M  V30 3258 C 354.682 -1.30452 0.919473 0
M  V30 3259 C 354.882 -1.9703 -0.42209 0
M  V30 3260 O 353.938 -2.24311 -1.15935 0
M  V30 3261 C 355.251 -2.17551 2.07586 0
M  V30 3262 C 356.799 -2.30937 2.11275 0
M  V30 3263 C 357.274 -3.21396 3.26296 0
M  V30 3264 N 358.765 -3.28981 3.26076 0
M  V30 3265 C 359.5 -3.99095 4.11716 0
M  V30 3266 N 358.996 -4.71648 5.07465 0
M  V30 3267 N 360.789 -3.95247 3.9967 0
M  V30 3268 H 352.94 -0.604988 2.03602 0
M  V30 3269 H 355.203 -0.329368 0.888944 0
M  V30 3270 H 354.909 -1.75921 3.0454 0
M  V30 3271 H 354.783 -3.18182 2.02584 0
M  V30 3272 H 357.17 -2.71809 1.14907 0
M  V30 3273 H 357.251 -1.2994 2.20339 0
M  V30 3274 H 356.895 -2.81238 4.22927 0
M  V30 3275 H 356.825 -4.22395 3.14467 0
M  V30 3276 H 359.316 -2.77286 2.5675 0
M  V30 3277 H 359.629 -5.22705 5.6921 0
M  V30 3278 H 357.974 -4.70594 5.11435 0
M  V30 3279 H 361.165 -3.37691 3.24164 0
M  V30 3280 H 361.338 -4.4962 4.66632 0
M  V30 3281 N 354.744 -0.972509 -1.24016 0
M  V30 3282 C 356.155 -0.67517 -1.74064 0
M  V30 3283 C 356.506 0.808939 -1.78747 0
M  V30 3284 O 355.631 1.63286 -1.42009 0
M  V30 3285 C 356.226 -1.21889 -3.16115 0
M  V30 3286 C 354.785 -0.971358 -3.6365 0
M  V30 3287 C 353.932 -1.35134 -2.42145 0
M  V30 3288 H 356.883 -1.14727 -1.09651 0
M  V30 3289 H 356.904 -0.587489 -3.75937 0
M  V30 3290 H 356.416 -2.29906 -3.12674 0
M  V30 3291 H 354.517 0.0930686 -3.72484 0
M  V30 3292 H 354.63 -1.62039 -4.50866 0
M  V30 3293 H 352.994 -0.769751 -2.4279 0
M  V30 3294 H 353.777 -2.4411 -2.41381 0
M  V30 3295 N 356.222 1.38976 -0.743202 0
M  V30 3296 C 357.47 1.99948 -0.29417 0
M  V30 3297 C 357.791 1.59279 1.12495 0
M  V30 3298 O 357.061 0.844808 1.76748 0
M  V30 3299 H 355.641 0.739473 -0.105774 0
M  V30 3300 H 358.303 1.699 -0.954986 0
M  V30 3301 H 357.399 3.10142 -0.349056 0
M  V30 3302 N 357.7 0.491464 1.49741 0
M  V30 3303 C 358.61 -0.296835 2.32715 0
M  V30 3304 C 359.626 -0.976536 1.44013 0
M  V30 3305 O 360.802 -0.960023 1.77047 0
M  V30 3306 C 357.867 -1.35288 3.19215 0
M  V30 3307 C 356.928 -0.687632 4.23757 0
M  V30 3308 C 356.161 -1.69336 5.06123 0
M  V30 3309 O 356.384 -2.92219 4.89861 0
M  V30 3310 O 355.318 -1.25394 5.88693 0
M  V30 3311 H 359.144 0.382048 3.01287 0
M  V30 3312 H 356.729 0.252953 1.47243 0
M  V30 3313 H 358.611 -1.96411 3.72828 0
M  V30 3314 H 357.286 -2.01487 2.53347 0
M  V30 3315 H 356.193 -0.0369159 3.74082 0
M  V30 3316 H 357.526 -0.0682566 4.92153 0
M  V30 3317 N 359.178 -1.55987 0.224894 0
M  V30 3318 C 360.594 -1.59066 -0.130426 0
M  V30 3319 C 360.794 -1.24176 -1.5869 0
M  V30 3320 O 359.85 -0.978592 -2.32766 0
M  V30 3321 C 361.163 -3.00042 0.198883 0
M  V30 3322 C 362.711 -3.1268 0.141391 0
M  V30 3323 C 363.186 -4.55839 0.444422 0
M  V30 3324 N 364.677 -4.6152 0.394115 0
M  V30 3325 C 365.412 -5.70231 0.602038 0
M  V30 3326 N 364.908 -6.87291 0.871914 0
M  V30 3327 N 366.701 -5.59555 0.534245 0
M  V30 3328 H 358.852 -1.76941 1.17497 0
M  V30 3329 H 361.115 -0.822604 0.471197 0
M  V30 3330 H 360.821 -3.30234 1.2099 0
M  V30 3331 H 360.695 -3.74075 -0.484535 0
M  V30 3332 H 363.082 -2.82283 -0.860265 0
M  V30 3333 H 363.163 -2.40969 0.858335 0
M  V30 3334 H 362.807 -4.86954 1.44353 0
M  V30 3335 H 362.737 -5.2578 -0.293752 0
M  V30 3336 H 365.228 -3.77405 0.193356 0
M  V30 3337 H 365.541 -7.66058 1.01858 0
M  V30 3338 H 363.886 -6.89028 0.909145 0
M  V30 3339 H 367.077 -4.6698 0.323612 0
M  V30 3340 H 367.25 -6.44211 0.699693 0
M  V30 3341 N 360.656 0.0484629 -1.57525 0
M  V30 3342 C 361.904 0.741657 -1.88 0
M  V30 3343 C 362.225 1.76918 -0.820054 0
M  V30 3344 O 361.495 1.95335 0.148661 0
M  V30 3345 H 360.075 0.276908 -0.69378 0
M  V30 3346 H 362.737 0.019013 -1.94891 0
M  V30 3347 H 361.833 1.24336 -2.86264 0
M  V30 3348 N 362.134 1.5431 0.320358 0
M  V30 3349 C 363.545 1.63872 0.894594 0
M  V30 3350 C 363.896 0.534847 1.88769 0
M  V30 3351 O 363.021 -0.331732 2.13842 0
M  V30 3352 C 363.616 2.97049 1.62934 0
M  V30 3353 C 362.175 3.08796 2.15226 0
M  V30 3354 C 361.322 2.59456 0.978671 0
M  V30 3355 H 364.273 1.58398 0.0978544 0
M  V30 3356 H 364.294 2.87388 2.49376 0
M  V30 3357 H 363.806 3.7737 0.906302 0
M  V30 3358 H 361.907 2.33156 2.90636 0
M  V30 3359 H 362.02 4.14649 2.40006 0
M  V30 3360 H 360.384 2.1543 1.35875 0
M  V30 3361 H 361.167 3.42237 0.269895 0
M  V30 3362 N 363.613 -0.582584 1.46437 0
M  V30 3363 C 365.024 -1.1647 1.45916 0
M  V30 3364 C 365.375 -1.95177 0.200077 0
M  V30 3365 O 364.5 -2.04874 -0.696819 0
M  V30 3366 C 365.095 -2.11885 2.64367 0
M  V30 3367 C 363.654 -2.65421 2.66887 0
M  V30 3368 C 362.801 -1.41294 2.38603 0
M  V30 3369 H 365.752 -0.370514 1.54314 0
M  V30 3370 H 365.773 -2.9535 2.39892 0
M  V30 3371 H 365.285 -1.54573 3.5599 0
M  V30 3372 H 363.386 -3.26602 1.79338 0
M  V30 3373 H 363.499 -3.08147 3.66854 0
M  V30 3374 H 361.863 -1.71109 1.88663 0
M  V30 3375 H 362.646 -0.858125 3.32402 0
M  V30 3376 N 365.091 -1.34144 -0.827227 0
M  V30 3377 C 366.339 -1.26009 -1.58007 0
M  V30 3378 C 366.66 0.170971 -1.94249 0
M  V30 3379 O 365.93 1.10256 -1.61927 0
M  V30 3380 H 364.51 -0.463414 -0.585881 0
M  V30 3381 H 367.172 -1.68005 -0.987951 0
M  V30 3382 H 366.268 -1.86187 -2.50481 0
M  V30 3383 N 366.569 1.04691 -1.17803 0
M  V30 3384 C 367.98 1.59238 -0.974689 0
M  V30 3385 C 368.331 1.90306 0.477292 0
M  V30 3386 O 367.456 1.68846 1.35352 0
M  V30 3387 C 368.051 2.89318 -1.76296 0
M  V30 3388 C 366.61 3.40506 -1.60414 0
M  V30 3389 C 365.757 2.14172 -1.76141 0
M  V30 3390 H 368.708 0.874395 -1.32439 0
M  V30 3391 H 368.729 3.5944 -1.24833 0
M  V30 3392 H 368.241 2.66675 -2.81968 0
M  V30 3393 H 366.342 3.68175 -0.572519 0
M  V30 3394 H 366.455 4.14753 -2.39827 0
M  V30 3395 H 364.819 2.25176 -1.19028 0
M  V30 3396 H 365.602 1.93992 -2.83235 0
M  V30 3397 N 368.047 0.979072 1.23499 0
M  V30 3398 C 368.979 0.476271 2.24197 0
M  V30 3399 C 369.992 -0.421166 1.57258 0
M  V30 3400 O 371.181 -0.225515 1.7707 0
M  V30 3401 C 368.281 -0.330503 3.37285 0
M  V30 3402 C 367.454 0.559744 4.33804 0
M  V30 3403 C 366.513 -0.192954 5.25846 0
M  V30 3404 O 365.539 0.416978 5.67671 0
M  V30 3405 N 366.741 -1.47932 5.61334 0
M  V30 3406 H 369.506 1.34211 2.67969 0
M  V30 3407 H 367.067 0.852189 1.37657 0
M  V30 3408 H 369.059 -0.842361 3.95836 0
M  V30 3409 H 367.629 -1.09734 2.92707 0
M  V30 3410 H 366.849 1.25245 3.73775 0
M  V30 3411 H 368.137 1.1665 4.95248 0
M  V30 3412 H 367.535 -1.9964 5.29302 0
M  V30 3413 H 366.092 -1.93664 6.22364 0
M  V30 3414 N 369.525 -1.3858 0.750561 0
M  V30 3415 C 370.773 -1.99789 0.30477 0
M  V30 3416 C 371.094 -1.59874 -1.11649 0
M  V30 3417 O 370.364 -0.85417 -1.76297 0
M  V30 3418 H 368.944 -0.738902 0.109694 0
M  V30 3419 H 371.606 -1.69391 0.963983 0
M  V30 3420 H 370.702 -3.09952 0.365499 0
M  V30 3421 N 371.003 -0.499398 -1.49478 0
M  V30 3422 C 371.966 0.268838 -2.27618 0
M  V30 3423 C 372.966 0.895383 -1.33565 0
M  V30 3424 O 374.156 0.760164 -1.56739 0
M  V30 3425 C 371.288 1.38559 -3.11471 0
M  V30 3426 H 372.481 -0.416812 -2.96989 0
M  V30 3427 H 370.034 -0.254313 -1.54217 0
M  V30 3428 H 370.769 2.10544 -2.46661 0
M  V30 3429 H 370.554 0.941797 -3.80621 0
M  V30 3430 H 372.044 1.92678 -3.70493 0
M  V30 3431 N 372.481 1.55866 -0.233164 0
M  V30 3432 C 373.897 1.59133 0.121988 0
M  V30 3433 C 374.097 1.25016 1.58029 0
M  V30 3434 O 373.153 0.990922 2.32243 0
M  V30 3435 C 374.466 2.99932 -0.214792 0
M  V30 3436 C 376.014 3.12601 -0.157971 0
M  V30 3437 C 376.489 4.55597 -0.46859 0
M  V30 3438 N 377.98 4.61305 -0.418585 0
M  V30 3439 C 378.715 5.69903 -0.63227 0
M  V30 3440 N 378.211 6.86819 -0.90835 0
M  V30 3441 N 380.004 5.59264 -0.563913 0
M  V30 3442 H 372.155 1.76315 -1.18434 0
M  V30 3443 H 374.418 0.820093 -0.475553 0
M  V30 3444 H 374.124 3.29588 -1.22739 0
M  V30 3445 H 373.998 3.74327 0.464691 0
M  V30 3446 H 376.385 2.82735 0.845283 0
M  V30 3447 H 376.466 2.40511 -0.871102 0
M  V30 3448 H 376.11 4.86182 -1.46934 0
M  V30 3449 H 376.04 5.25928 0.265865 0
M  V30 3450 H 378.531 3.77297 -0.213368 0
M  V30 3451 H 378.844 7.65507 -1.05919 0
M  V30 3452 H 377.189 6.88536 -0.945673 0
M  V30 3453 H 380.38 4.66802 -0.348372 0
M  V30 3454 H 380.553 6.43831 -0.733847 0
M  V30 3455 N 373.959 -0.0401083 1.57549 0
M  V30 3456 C 375.207 -0.731677 1.8839 0
M  V30 3457 C 375.528 -1.76481 0.829425 0
M  V30 3458 O 374.798 -1.95411 -0.1383 0
M  V30 3459 H 373.378 -0.273225 0.695239 0
M  V30 3460 H 376.04 -0.00867725 1.94898 0
M  V30 3461 H 375.136 -1.22816 2.86919 0
M  V30 3462 N 375.437 -1.54477 -0.31217 0
M  V30 3463 C 376.367 -1.87652 -1.38957 0
M  V30 3464 C 377.348 -0.734358 -1.53431 0
M  V30 3465 O 378.533 -0.98911 -1.67123 0
M  V30 3466 C 375.663 -2.11396 -2.75552 0
M  V30 3467 C 374.617 -3.27243 -2.75855 0
M  V30 3468 C 373.943 -3.36382 -4.15633 0
M  V30 3469 C 375.243 -4.64622 -2.38587 0
M  V30 3470 H 376.937 -2.77887 -1.11442 0
M  V30 3471 H 374.483 -1.33707 -0.534655 0
M  V30 3472 H 376.436 -2.33189 -3.51 0
M  V30 3473 H 375.16 -1.17921 -3.04569 0
M  V30 3474 H 373.819 -3.05356 -2.02863 0
M  V30 3475 H 373.467 -2.40445 -4.41809 0
M  V30 3476 H 373.167 -4.14249 -4.1674 0
M  V30 3477 H 374.691 -3.60422 -4.92877 0
M  V30 3478 H 376.105 -4.86219 -3.03749 0
M  V30 3479 H 374.502 -5.45121 -2.50925 0
M  V30 3480 H 375.572 -4.66097 -1.33723 0
M  V30 3481 N 376.915 0.57481 -1.46744 0
M  V30 3482 C 378.326 1.15695 -1.46532 0
M  V30 3483 C 378.677 1.95068 -0.210425 0
M  V30 3484 O 377.802 2.05241 0.685944 0
M  V30 3485 C 378.397 2.1048 -2.65487 0
M  V30 3486 C 376.956 2.64002 -2.68291 0
M  V30 3487 C 376.103 1.40026 -2.39349 0
M  V30 3488 H 379.054 0.362325 -1.54509 0
M  V30 3489 H 379.075 2.94074 -2.41455 0
M  V30 3490 H 378.587 1.52683 -3.56805 0
M  V30 3491 H 376.688 3.25646 -1.81067 0
M  V30 3492 H 376.801 3.06197 -3.68483 0
M  V30 3493 H 375.165 1.70106 -1.89568 0
M  V30 3494 H 375.948 0.840485 -3.32852 0
M  V30 3495 N 378.394 1.34581 0.820102 0
M  V30 3496 C 379.642 1.26845 1.57336 0
M  V30 3497 C 379.963 -0.160667 1.94337 0
M  V30 3498 O 379.233 -1.09396 1.6251 0
M  V30 3499 H 377.813 0.466514 0.583415 0
M  V30 3500 H 380.475 1.68526 0.979027 0
M  V30 3501 H 379.571 1.87513 2.4949 0
M  V30 3502 N 379.872 -1.04064 1.18357 0
M  V30 3503 C 381.1 -1.80916 1.00384 0
M  V30 3504 C 381.515 -1.83414 -0.447738 0
M  V30 3505 O 380.872 -1.26962 -1.31099 0
M  V30 3506 C 380.923 -3.26516 1.55144 0
M  V30 3507 O 380.644 -3.2424 2.94618 0
M  V30 3508 C 382.145 -4.20013 1.41789 0
M  V30 3509 H 379.365 -0.569728 0.354474 0
M  V30 3510 H 381.909 -1.31151 1.56906 0
M  V30 3511 H 380.064 -3.73512 1.02798 0
M  V30 3512 H 380.478 -4.15452 3.20156 0
M  V30 3513 H 381.952 -5.20111 1.84901 0
M  V30 3514 H 382.429 -4.37667 0.36661 0
M  V30 3515 H 383.035 -3.78881 1.93207 0
M  V30 3516 N 381.35 -0.985608 -1.22978 0
M  V30 3517 C 382.313 -0.535071 -2.22867 0
M  V30 3518 C 383.313 0.378123 -1.56291 0
M  V30 3519 O 384.503 0.171092 -1.73358 0
M  V30 3520 C 381.635 0.222702 -3.40172 0
M  V30 3521 H 382.828 -1.41835 -2.6424 0
M  V30 3522 H 380.381 -0.772042 -1.35901 0
M  V30 3523 H 381.116 1.12229 -3.04262 0
M  V30 3524 H 380.901 -0.43288 -3.89703 0
M  V30 3525 H 382.391 0.526335 -4.1427 0
M  V30 3526 N 382.828 1.3818 -0.7579 0
M  V30 3527 C 384.076 1.99624 -0.315361 0
M  V30 3528 C 384.397 1.60464 1.10799 0
M  V30 3529 O 383.667 0.863507 1.75842 0
M  V30 3530 H 382.247 0.73831 -0.113611 0
M  V30 3531 H 384.909 1.68878 -0.972952 0
M  V30 3532 H 384.005 3.09754 -0.381931 0
M  V30 3533 N 384.306 0.507319 1.49211 0
M  V30 3534 C 385.236 -0.256939 2.32082 0
M  V30 3535 C 386.217 -0.956609 1.40652 0
M  V30 3536 O 387.402 -0.946788 1.69557 0
M  V30 3537 C 384.532 -1.31802 3.21318 0
M  V30 3538 C 383.486 -0.737855 4.21592 0
M  V30 3539 C 382.812 -1.89992 4.99807 0
M  V30 3540 C 384.112 0.275325 5.21574 0
M  V30 3541 H 385.806 0.434798 2.96226 0
M  V30 3542 H 383.352 0.210546 1.42452 0
M  V30 3543 H 385.305 -1.86045 3.78107 0
M  V30 3544 H 384.029 -2.03903 2.5513 0
M  V30 3545 H 382.688 -0.217126 3.65956 0
M  V30 3546 H 382.336 -2.60877 4.30061 0
M  V30 3547 H 382.036 -1.51777 5.6766 0
M  V30 3548 H 383.56 -2.44657 5.59442 0
M  V30 3549 H 384.974 -0.179193 5.7302 0
M  V30 3550 H 383.371 0.573649 5.97352 0
M  V30 3551 H 384.441 1.18903 4.70096 0
M  V30 3552 N 385.784 -1.5574 0.241426 0
M  V30 3553 C 387.195 -1.84842 -0.262755 0
M  V30 3554 C 387.546 -1.16317 -1.58003 0
M  V30 3555 O 386.671 -0.439653 -2.11887 0
M  V30 3556 C 387.266 -3.35332 -0.483523 0
M  V30 3557 C 385.825 -3.6468 -0.931977 0
M  V30 3558 C 384.972 -2.77299 -0.0061151 0
M  V30 3559 H 387.923 -1.51761 0.464129 0
M  V30 3560 H 387.944 -3.56615 -1.32688 0
M  V30 3561 H 387.456 -3.85178 0.47537 0
M  V30 3562 H 385.557 -3.20307 -1.90353 0
M  V30 3563 H 385.67 -4.72498 -0.792628 0
M  V30 3564 H 384.034 -2.49408 -0.516503 0
M  V30 3565 H 384.817 -3.2995 0.948052 0
M  V30 3566 N 387.262 0.0317525 -1.57568 0
M  V30 3567 C 388.51 0.721676 -1.88776 0
M  V30 3568 C 388.831 1.76039 -0.838772 0
M  V30 3569 O 388.101 1.95482 0.127935 0
M  V30 3570 H 386.681 0.269534 -0.696678 0
M  V30 3571 H 389.343 -0.00165879 -1.949 0
M  V30 3572 H 388.439 1.21293 -2.87566 0
M  V30 3573 N 388.74 1.54641 0.303973 0
M  V30 3574 C 389.673 1.80263 1.3993 0
M  V30 3575 C 390.651 0.653657 1.48883 0
M  V30 3576 O 391.835 0.893284 1.6599 0
M  V30 3577 C 388.962 1.9367 2.77866 0
M  V30 3578 C 388.008 3.16078 2.86351 0
M  V30 3579 S 388.841 4.74219 2.4875 0
M  V30 3580 C 389.997 4.90558 3.88721 0
M  V30 3581 H 390.23 2.72886 1.17986 0
M  V30 3582 H 387.763 1.46014 0.501918 0
M  V30 3583 H 389.721 2.0208 3.57315 0
M  V30 3584 H 388.382 1.01991 2.9708 0
M  V30 3585 H 387.575 3.22252 3.87517 0
M  V30 3586 H 387.177 3.06099 2.14893 0
M  V30 3587 H 389.469 4.74398 4.83687 0
M  V30 3588 H 390.412 5.92651 3.87518 0
M  V30 3589 H 390.82 4.18728 3.78585 0
M  V30 3590 N 390.218 -0.567019 1.47046 0
M  V30 3591 C 391.165 -1.67489 1.58796 0
M  V30 3592 C 392.135 -1.60399 0.43144 0
M  V30 3593 O 393.32 -1.79378 0.650233 0
M  V30 3594 C 390.46 -3.05821 1.59899 0
M  V30 3595 C 389.573 -3.2342 2.86397 0
M  V30 3596 C 388.708 -4.52093 2.789 0
M  V30 3597 C 387.747 -4.6309 4.00267 0
M  V30 3598 N 386.884 -5.83106 3.91064 0
M  V30 3599 H 391.724 -1.56785 2.53422 0
M  V30 3600 H 389.261 -0.763896 1.2571 0
M  V30 3601 H 391.219 -3.8591 1.58522 0
M  V30 3602 H 389.849 -3.15384 0.687929 0
M  V30 3603 H 388.901 -2.3683 2.97684 0
M  V30 3604 H 390.213 -3.27412 3.76301 0
M  V30 3605 H 389.367 -5.4043 2.75718 0
M  V30 3606 H 388.106 -4.50565 1.86662 0
M  V30 3607 H 387.111 -3.73168 4.03765 0
M  V30 3608 H 388.336 -4.66386 4.93621 0
M  V30 3609 H 386.282 -5.82546 3.01623 0
M  V30 3610 H 386.199 -5.88434 4.74638 0
M  V30 3611 H 387.467 -6.73831 3.91882 0
M  V30 3612 N 391.696 -1.35014 -0.812953 0
M  V30 3613 C 392.944 -1.27678 -1.56661 0
M  V30 3614 C 393.265 0.150359 -1.94419 0
M  V30 3615 O 392.535 1.08532 -1.63088 0
M  V30 3616 H 391.115 -0.469602 -0.580933 0
M  V30 3617 H 393.777 -1.69043 -0.970076 0
M  V30 3618 H 392.873 -1.88833 -2.48492 0
M  V30 3619 N 393.175 1.03435 -1.18907 0
M  V30 3620 C 394.125 2.09924 -0.889706 0
M  V30 3621 C 395.109 1.60261 0.143216 0
M  V30 3622 O 396.301 1.76892 -0.0617122 0
M  V30 3623 C 393.43 3.40669 -0.424168 0
M  V30 3624 C 392.516 3.97082 -1.48952 0
M  V30 3625 N 392.907 4.27227 -2.70759 0
M  V30 3626 C 391.205 4.25029 -1.35152 0
M  V30 3627 C 391.906 4.7246 -3.39347 0
M  V30 3628 N 390.882 4.7366 -2.66735 0
M  V30 3629 H 394.684 2.31116 -1.81555 0
M  V30 3630 H 392.198 1.21246 -1.08042 0
M  V30 3631 H 394.195 4.16461 -0.191176 0
M  V30 3632 H 392.855 3.20901 0.495263 0
M  V30 3633 H 393.866 4.16678 -3.0757 0
M  V30 3634 H 390.543 4.14554 -0.495126 0
M  V30 3635 H 391.933 5.04751 -4.43481 0
M  V30 3636 N 394.653 0.992116 1.22453 0
M  V30 3637 C 396.069 0.702713 1.43297 0
M  V30 3638 C 396.269 -0.726909 1.87932 0
M  V30 3639 O 395.325 -1.49792 2.0327 0
M  V30 3640 C 396.638 1.70762 2.47509 0
M  V30 3641 C 398.186 1.72298 2.61309 0
M  V30 3642 C 398.661 2.71649 3.68742 0
M  V30 3643 N 400.152 2.70239 3.76199 0
M  V30 3644 C 400.887 3.43778 4.58917 0
M  V30 3645 N 400.383 4.26914 5.45633 0
M  V30 3646 N 402.176 3.32487 4.5322 0
M  V30 3647 H 394.327 1.91543 0.917871 0
M  V30 3648 H 396.59 0.826031 0.465162 0
M  V30 3649 H 396.296 2.73059 2.21657 0
M  V30 3650 H 396.17 1.49985 3.46099 0
M  V30 3651 H 398.557 0.706989 2.86506 0
M  V30 3652 H 398.638 1.97143 1.62997 0
M  V30 3653 H 398.282 3.73397 3.44292 0
M  V30 3654 H 398.212 2.44074 4.66622 0
M  V30 3655 H 400.703 2.09912 3.14237 0
M  V30 3656 H 401.016 4.79855 6.05771 0
M  V30 3657 H 399.361 4.31002 5.45218 0
M  V30 3658 H 402.552 2.6698 3.84499 0
M  V30 3659 H 402.725 3.90058 5.17454 0
M  V30 3660 N 396.131 -1.37776 0.765217 0
M  V30 3661 C 397.379 -1.99454 0.325943 0
M  V30 3662 C 397.7 -1.61049 -1.09947 0
M  V30 3663 O 396.97 -0.872821 -1.75381 0
M  V30 3664 H 395.55 -0.737697 0.117525 0
M  V30 3665 H 398.212 -1.68359 0.981895 0
M  V30 3666 H 397.308 -3.09547 0.398353 0
M  V30 3667 N 397.609 -0.515225 -1.4894 0
M  V30 3668 C 398.856 0.024215 -2.02486 0
M  V30 3669 C 399.184 1.35671 -1.39368 0
M  V30 3670 O 398.439 1.88566 -0.523574 0
M  V30 3671 C 398.738 0.210595 -3.56779 0
M  V30 3672 C 398.404 -1.04569 -4.38607 0
M  V30 3673 C 397.066 -1.39002 -4.60686 0
M  V30 3674 C 399.418 -1.88008 -4.86109 0
M  V30 3675 C 396.746 -2.568 -5.27514 0
M  V30 3676 C 399.098 -3.04972 -5.54234 0
M  V30 3677 C 397.762 -3.39768 -5.74555 0
M  V30 3678 H 397.032 0.00886088 -0.740947 0
M  V30 3679 H 399.679 -0.678263 -1.79086 0
M  V30 3680 H 397.984 0.99572 -3.78936 0
M  V30 3681 H 399.681 0.642659 -3.95817 0
M  V30 3682 H 396.271 -0.767497 -4.21672 0
M  V30 3683 H 400.455 -1.62719 -4.68867 0
M  V30 3684 H 395.711 -2.8398 -5.41447 0
M  V30 3685 H 399.885 -3.69943 -5.90013 0
M  V30 3686 H 397.512 -4.31148 -6.26112 0
M  V30 3687 N 399.087 1.5561 -0.249682 0
M  V30 3688 C 400.312 2.03865 0.381305 0
M  V30 3689 C 400.737 1.12769 1.50548 0
M  V30 3690 O 400.095 0.121189 1.80895 0
M  V30 3691 C 400.143 3.50101 0.863816 0
M  V30 3692 O 399.247 3.62132 1.97318 0
M  V30 3693 H 398.588 0.658827 0.0827194 0
M  V30 3694 H 401.118 2.01105 -0.376552 0
M  V30 3695 H 401.128 3.90975 1.1663 0
M  V30 3696 H 399.803 4.1588 0.0411816 0
M  V30 3697 H 398.38 3.33155 1.67517 0
M  V30 3698 N 400.565 -0.0233959 1.57583 0
M  V30 3699 C 401.813 -0.711654 1.89156 0
M  V30 3700 C 402.134 -1.75591 0.848096 0
M  V30 3701 O 401.404 -1.95547 -0.117566 0
M  V30 3702 H 399.984 -0.265835 0.698098 0
M  V30 3703 H 402.646 0.0119948 1.94896 0
M  V30 3704 H 401.742 -1.19766 2.88206 0
M  V30 3705 N 402.043 -1.548 -0.295768 0
M  V30 3706 C 402.973 -1.89115 -1.36959 0
M  V30 3707 C 403.954 -0.75059 -1.52644 0
M  V30 3708 O 405.139 -1.00678 -1.66065 0
M  V30 3709 C 402.269 -2.14307 -2.73295 0
M  V30 3710 C 401.223 -3.30151 -2.72368 0
M  V30 3711 C 400.549 -3.40772 -4.12042 0
M  V30 3712 C 401.849 -4.67126 -2.33646 0
M  V30 3713 H 403.543 -2.79053 -1.08488 0
M  V30 3714 H 401.089 -1.34266 -0.520443 0
M  V30 3715 H 403.042 -2.36898 -3.48507 0
M  V30 3716 H 401.766 -1.21145 -3.03301 0
M  V30 3717 H 400.425 -3.0749 -1.99613 0
M  V30 3718 H 400.073 -2.45117 -4.39234 0
M  V30 3719 H 399.773 -4.18645 -4.12322 0
M  V30 3720 H 401.297 -3.6563 -4.89027 0
M  V30 3721 H 402.711 -4.89414 -2.98575 0
M  V30 3722 H 401.108 -5.47751 -2.45129 0
M  V30 3723 H 402.178 -4.67489 -1.28772 0
M  V30 3724 N 403.521 0.559213 -1.47345 0
M  V30 3725 C 404.798 1.31997 -1.44348 0
M  V30 3726 C 405.178 2.1064 -0.139358 0
M  V30 3727 O 404.526 2.1091 0.879153 0
M  V30 3728 C 404.736 2.22618 -2.68779 0
M  V30 3729 C 406.084 2.83701 -3.1591 0
M  V30 3730 O 407.108 2.32921 -2.69493 0
M  V30 3731 O 405.967 3.75993 -3.966 0
M  V30 3732 H 403.061 0.594251 -0.575147 0
M  V30 3733 H 405.607 0.578282 -1.59543 0
M  V30 3734 H 404.379 1.64093 -3.55231 0
M  V30 3735 H 404.002 3.04085 -2.5616 0
M  V30 3736 N 404.999 1.35443 0.805782 0
M  V30 3737 C 406.247 1.28507 1.55982 0
M  V30 3738 C 406.568 -0.140046 1.94496 0
M  V30 3739 O 405.838 -1.07666 1.63661 0
M  V30 3740 H 404.418 0.472676 0.578434 0
M  V30 3741 H 407.08 1.69555 0.961098 0
M  V30 3742 H 406.176 1.90148 2.47488 0
M  V30 3743 N 406.477 -1.02803 1.19454 0
M  V30 3744 C 407.44 -2.09264 0.934955 0
M  V30 3745 C 408.44 -1.60576 -0.0849015 0
M  V30 3746 O 409.63 -1.73554 0.149933 0
M  V30 3747 C 406.762 -3.38482 0.40531 0
M  V30 3748 H 407.955 -2.33726 1.87916 0
M  V30 3749 H 405.508 -1.19426 1.00832 0
M  V30 3750 H 406.243 -3.19689 -0.544899 0
M  V30 3751 H 406.028 -3.75142 1.14065 0
M  V30 3752 H 407.518 -4.16894 0.242806 0
M  V30 3753 N 407.956 -0.998596 -1.21925 0
M  V30 3754 C 408.903 -0.553621 -2.24062 0
M  V30 3755 C 409.873 0.416999 -1.6078 0
M  V30 3756 O 411.058 0.320482 -1.88089 0
M  V30 3757 C 408.198 0.119959 -3.44891 0
M  V30 3758 C 407.311 -0.893077 -4.22668 0
M  V30 3759 C 406.446 -0.192424 -5.30851 0
M  V30 3760 C 405.485 -1.19344 -6.00353 0
M  V30 3761 N 404.622 -0.520707 -7.00166 0
M  V30 3762 H 409.462 -1.4293 -2.61486 0
M  V30 3763 H 406.999 -0.715838 -1.28507 0
M  V30 3764 H 408.957 0.527459 -4.13852 0
M  V30 3765 H 407.587 0.959389 -3.08214 0
M  V30 3766 H 406.639 -1.41886 -3.52948 0
M  V30 3767 H 407.951 -1.65512 -4.70539 0
M  V30 3768 H 407.105 0.271515 -6.06092 0
M  V30 3769 H 405.844 0.602075 -4.83969 0
M  V30 3770 H 404.849 -1.66795 -5.23889 0
M  V30 3771 H 406.074 -1.98891 -6.49322 0
M  V30 3772 H 404.02 0.254252 -6.55507 0
M  V30 3773 H 403.937 -1.2211 -7.46073 0
M  V30 3774 H 405.205 -0.0797596 -7.79459 0
M  V30 3775 N 409.434 1.37368 -0.772513 0
M  V30 3776 C 410.682 1.99279 -0.336516 0
M  V30 3777 C 411.003 1.6163 1.09091 0
M  V30 3778 O 410.273 0.882109 1.74916 0
M  V30 3779 H 408.853 0.737063 -0.121435 0
M  V30 3780 H 411.515 1.67836 -0.990809 0
M  V30 3781 H 410.611 3.09332 -0.414763 0
M  V30 3782 N 410.912 0.523116 1.48665 0
M  V30 3783 C 412.189 -0.0775449 1.95446 0
M  V30 3784 C 412.569 -1.5197 1.4652 0
M  V30 3785 O 411.917 -2.17876 0.688657 0
M  V30 3786 C 412.127 0.0326135 3.48985 0
M  V30 3787 C 413.475 -0.130141 4.24401 0
M  V30 3788 O 414.499 -0.0415142 3.56176 0
M  V30 3789 O 413.358 -0.31491 5.45592 0
M  V30 3790 H 410.452 -0.0831012 0.822814 0
M  V30 3791 H 412.998 0.587227 1.59216 0
M  V30 3792 H 411.77 1.03748 3.77296 0
M  V30 3793 H 411.393 -0.671317 3.91892 0
M  V30 3794 N 412.39 -1.55475 0.257931 0
M  V30 3795 C 413.353 -2.20551 -0.623706 0
M  V30 3796 C 414.353 -1.17809 -1.09443 0
M  V30 3797 O 415.543 -1.42823 -0.997362 0
M  V30 3798 C 412.675 -2.85784 -1.8585 0
M  V30 3799 H 413.868 -2.99848 -0.0557743 0
M  V30 3800 H 411.421 -1.56298 0.0084422 0
M  V30 3801 H 412.156 -2.10453 -2.46739 0
M  V30 3802 H 411.941 -3.61057 -1.52907 0
M  V30 3803 H 413.431 -3.35553 -2.48584 0
M  V30 3804 N 413.868 0.0150385 -1.57593 0
M  V30 3805 C 415.116 0.701613 -1.8953 0
M  V30 3806 C 415.437 1.75139 -0.857396 0
M  V30 3807 O 414.707 1.95607 0.107194 0
M  V30 3808 H 413.287 0.26213 -0.699498 0
M  V30 3809 H 415.949 -0.0223304 -1.94887 0
M  V30 3810 H 415.045 1.18236 -2.88837 0
M  V30 3811 N 415.346 1.54954 0.287554 0
M  V30 3812 C 416.757 1.65732 0.859634 0
M  V30 3813 C 417.108 0.574767 1.87592 0
M  V30 3814 O 416.233 -0.286299 2.14498 0
M  V30 3815 C 416.828 3.00438 1.56597 0
M  V30 3816 C 415.387 3.13292 2.08627 0
M  V30 3817 C 414.534 2.61473 0.923416 0
M  V30 3818 H 417.485 1.5857 0.0642338 0
M  V30 3819 H 417.506 2.92613 2.43224 0
M  V30 3820 H 417.018 3.79207 0.826053 0
M  V30 3821 H 415.119 2.39268 2.85625 0
M  V30 3822 H 415.232 4.19647 2.31157 0
M  V30 3823 H 413.596 2.18264 1.31275 0
M  V30 3824 H 414.379 3.42733 0.197241 0
M  V30 3825 N 416.824 -0.551391 1.4764 0
M  V30 3826 C 417.787 -1.64007 1.60107 0
M  V30 3827 C 418.787 -1.53601 0.47576 0
M  V30 3828 O 419.977 -1.57655 0.740988 0
M  V30 3829 C 417.109 -3.03569 1.55108 0
M  V30 3830 H 418.302 -1.543 2.57161 0
M  V30 3831 H 415.855 -0.771776 1.35917 0
M  V30 3832 H 416.59 -3.18804 0.594519 0
M  V30 3833 H 416.375 -3.12532 2.36783 0
M  V30 3834 H 417.865 -3.82762 1.66982 0
M  V30 3835 N 418.302 -1.35869 -0.798587 0
M  V30 3836 C 419.55 -1.29332 -1.55298 0
M  V30 3837 C 419.871 0.129729 -1.94568 0
M  V30 3838 O 419.141 1.06796 -1.6423 0
M  V30 3839 H 417.721 -0.475737 -0.57592 0
M  V30 3840 H 420.383 -1.70062 -0.952093 0
M  V30 3841 H 419.479 -1.91458 -2.46476 0
M  V30 3842 N 419.78 1.02168 -1.19998 0
M  V30 3843 C 421.191 1.57135 -1.00825 0
M  V30 3844 C 421.542 1.91276 0.436818 0
M  V30 3845 O 420.667 1.71679 1.3174 0
M  V30 3846 C 421.262 2.85514 -1.82393 0
M  V30 3847 C 419.821 3.37027 -1.67601 0
M  V30 3848 C 418.968 2.10388 -1.80644 0
M  V30 3849 H 421.919 0.846106 -1.34264 0
M  V30 3850 H 421.94 3.56711 -1.32429 0
M  V30 3851 H 421.452 2.60634 -2.87561 0
M  V30 3852 H 419.553 3.66878 -0.650485 0
M  V30 3853 H 419.666 4.09572 -2.4857 0
M  V30 3854 H 418.03 2.22601 -1.23778 0
M  V30 3855 H 418.813 1.8794 -2.87286 0
M  V30 3856 N 421.258 1.00505 1.21394 0
M  V30 3857 C 422.205 0.565496 2.23765 0
M  V30 3858 C 423.175 -0.408466 1.60999 0
M  V30 3859 O 424.36 -0.310503 1.88257 0
M  V30 3860 C 421.5 -0.101667 3.4495 0
M  V30 3861 C 420.613 0.915479 4.22188 0
M  V30 3862 C 419.748 0.220574 5.30742 0
M  V30 3863 C 418.787 1.22527 5.99711 0
M  V30 3864 N 417.924 0.557831 6.9988 0
M  V30 3865 H 422.764 1.44314 2.60725 0
M  V30 3866 H 420.301 0.722643 1.28126 0
M  V30 3867 H 422.259 -0.505504 4.14126 0
M  V30 3868 H 420.889 -0.94303 3.08718 0
M  V30 3869 H 419.941 1.43756 3.52191 0
M  V30 3870 H 421.253 1.68005 4.69655 0
M  V30 3871 H 420.407 -0.239368 6.06228 0
M  V30 3872 H 419.146 -0.576401 4.84282 0
M  V30 3873 H 418.151 1.69571 5.22997 0
M  V30 3874 H 419.376 2.02332 6.48258 0
M  V30 3875 H 417.322 -0.219486 6.55633 0
M  V30 3876 H 417.239 1.26065 7.45415 0
M  V30 3877 H 418.507 0.121095 7.79406 0
M  V30 3878 N 422.737 -1.36956 0.779787 0
M  V30 3879 C 423.985 -1.99097 0.347079 0
M  V30 3880 C 424.306 -1.62206 -1.08232 0
M  V30 3881 O 423.576 -0.891373 -1.74446 0
M  V30 3882 H 422.156 -0.736409 0.125342 0
M  V30 3883 H 424.818 -1.67308 0.999696 0
M  V30 3884 H 423.914 -3.09107 0.431162 0
M  V30 3885 N 424.215 -0.530993 -1.48385 0
M  V30 3886 C 425.125 0.23503 -2.3342 0
M  V30 3887 C 426.141 0.93801 -1.46552 0
M  V30 3888 O 427.317 0.912745 -1.7953 0
M  V30 3889 C 424.382 1.26778 -3.22689 0
M  V30 3890 C 423.443 0.575038 -4.25431 0
M  V30 3891 C 422.676 1.55858 -5.10435 0
M  V30 3892 O 422.899 2.79129 -4.97437 0
M  V30 3893 O 421.833 1.09742 -5.91811 0
M  V30 3894 H 425.659 -0.461794 -3.00169 0
M  V30 3895 H 423.244 -0.291903 -1.46521 0
M  V30 3896 H 425.126 1.86457 -3.77904 0
M  V30 3897 H 423.801 1.94699 -2.586 0
M  V30 3898 H 422.708 -0.0622782 -3.74048 0
M  V30 3899 H 424.041 -0.062253 -4.92161 0
M  V30 3900 N 425.693 1.55336 -0.266172 0
M  V30 3901 C 427.104 1.85236 0.233315 0
M  V30 3902 C 427.455 1.18816 1.56132 0
M  V30 3903 O 426.58 0.473307 2.11161 0
M  V30 3904 C 427.175 3.36059 0.430113 0
M  V30 3905 C 425.734 3.66116 0.873842 0
M  V30 3906 C 424.881 2.77274 -0.0380016 0
M  V30 3907 H 427.832 1.51004 -0.488214 0
M  V30 3908 H 427.853 3.58681 1.26998 0
M  V30 3909 H 427.365 3.84373 -0.536588 0
M  V30 3910 H 425.466 3.23295 1.85233 0
M  V30 3911 H 425.579 4.73699 0.717358 0
M  V30 3912 H 423.943 2.50198 0.476759 0
M  V30 3913 H 424.726 3.284 -1.00042 0
M  V30 3914 N 427.171 -0.0066808 1.57599 0
M  V30 3915 C 428.419 -0.691552 1.899 0
M  V30 3916 C 428.74 -1.74682 0.866672 0
M  V30 3917 O 428.01 -1.95661 -0.0968189 0
M  V30 3918 H 426.59 -0.258416 0.700878 0
M  V30 3919 H 429.252 0.0326655 1.94873 0
M  V30 3920 H 428.348 -1.16702 2.8946 0
M  V30 3921 N 428.649 -1.55105 -0.279332 0
M  V30 3922 C 429.874 -1.7976 -1.03446 0
M  V30 3923 C 430.299 -0.565952 -1.79384 0
M  V30 3924 O 429.657 0.484259 -1.74713 0
M  V30 3925 C 429.705 -3.0179 -1.97371 0
M  V30 3926 O 428.809 -2.76432 -3.06038 0
M  V30 3927 H 428.15 -0.594334 -0.29608 0
M  V30 3928 H 430.68 -2.02235 -0.310165 0
M  V30 3929 H 430.69 -3.30351 -2.39441 0
M  V30 3930 H 429.365 -3.91085 -1.4151 0
M  V30 3931 H 427.942 -2.58949 -2.68328 0
M  V30 3932 N 430.127 0.543554 -1.4793 0
M  V30 3933 C 431.538 1.12561 -1.48953 0
M  V30 3934 C 431.889 1.94578 -0.251754 0
M  V30 3935 O 431.014 2.0665 0.642255 0
M  V30 3936 C 431.609 2.04801 -2.69892 0
M  V30 3937 C 430.168 2.58251 -2.73831 0
M  V30 3938 C 429.315 1.34918 -2.42265 0
M  V30 3939 H 432.266 0.32947 -1.55242 0
M  V30 3940 H 432.287 2.88886 -2.47639 0
M  V30 3941 H 431.799 1.4508 -3.59963 0
M  V30 3942 H 429.9 3.21732 -1.87934 0
M  V30 3943 H 430.013 2.98312 -3.74895 0
M  V30 3944 H 428.377 1.66046 -1.93134 0
M  V30 3945 H 429.16 0.769693 -3.3456 0
M  V30 3946 N 431.605 1.3629 0.791371 0
M  V30 3947 C 432.853 1.30154 1.5461 0
M  V30 3948 C 433.174 -0.119409 1.94634 0
M  V30 3949 O 432.444 -1.05924 1.64794 0
M  V30 3950 H 431.024 0.478784 0.573389 0
M  V30 3951 H 433.686 1.70565 0.94306 0
M  V30 3952 H 432.782 1.92762 2.45457 0
M  V30 3953 N 433.083 -1.0153 1.20538 0
M  V30 3954 C 433.993 -2.13557 0.971113 0
M  V30 3955 C 435.009 -1.73845 -0.0734366 0
M  V30 3956 O 436.185 -2.01075 0.114299 0
M  V30 3957 C 433.25 -3.42661 0.527639 0
M  V30 3958 C 432.311 -3.96608 1.64319 0
M  V30 3959 C 431.544 -5.1955 1.22078 0
M  V30 3960 O 431.767 -5.70329 0.0900198 0
M  V30 3961 O 430.701 -5.66681 2.02871 0
M  V30 3962 H 434.527 -2.3619 1.90913 0
M  V30 3963 H 432.112 -1.11946 0.989362 0
M  V30 3964 H 433.994 -4.20404 0.289621 0
M  V30 3965 H 432.669 -3.21441 -0.381779 0
M  V30 3966 H 431.576 -3.20139 1.93551 0
M  V30 3967 H 432.909 -4.22219 2.52966 0
M  V30 3968 N 434.561 -1.01147 -1.20859 0
M  V30 3969 C 435.509 -0.57059 -2.25493 0
M  V30 3970 C 436.503 0.388109 -1.64894 0
M  V30 3971 O 437.709 0.258592 -1.78133 0
M  V30 3972 H 434.084 -0.166191 -0.733406 0
M  V30 3973 H 436.055 -1.46411 -2.60012 0
M  V30 3974 C 434.804 0.0805241 -3.47607 0
M  V30 3975 H 434.127 -0.648156 -3.94511 0
M  V30 3976 H 435.567 0.352197 -4.22535 0
M  V30 3977 C 434.026 1.32175 -3.09889 0
M  V30 3978 O 434.556 2.41553 -3.20959 0
M  V30 3979 N 432.762 1.20392 -2.64488 0
M  V30 3980 H 432.309 0.313905 -2.5568 0
M  V30 3981 H 432.267 2.03541 -2.39621 0
M  V30 3982 N 436.039 1.36541 -0.78704 0
M  V30 3983 C 437.287 1.98911 -0.357633 0
M  V30 3984 C 437.608 1.62778 1.07371 0
M  V30 3985 O 436.878 0.900612 1.73971 0
M  V30 3986 H 435.458 0.735734 -0.129246 0
M  V30 3987 H 438.12 1.66776 -1.00855 0
M  V30 3988 H 437.216 3.08874 -0.447549 0
M  V30 3989 N 437.518 0.538854 1.48102 0
M  V30 3990 C 438.481 -0.208395 2.28251 0
M  V30 3991 C 439.481 -0.859656 1.35892 0
M  V30 3992 O 440.671 -0.71834 1.58699 0
M  V30 3993 C 437.803 -1.30252 3.15035 0
M  V30 3994 H 438.996 0.495407 2.9578 0
M  V30 3995 H 436.549 0.295112 1.53489 0
M  V30 3996 H 437.284 -2.0393 2.52157 0
M  V30 3997 H 437.069 -0.840551 3.82985 0
M  V30 3998 H 438.559 -1.82787 3.75471 0
M  V30 3999 N 438.996 -1.55193 0.274407 0
M  V30 4000 C 440.407 -1.85358 -0.223488 0
M  V30 4001 C 440.758 -1.19642 -1.555 0
M  V30 4002 O 439.883 -0.484498 -2.10907 0
M  V30 4003 C 440.478 -3.36282 -0.412285 0
M  V30 4004 C 439.037 -3.66574 -0.854413 0
M  V30 4005 C 438.184 -2.7725 0.0527056 0
M  V30 4006 H 441.135 -1.50743 0.496215 0
M  V30 4007 H 441.156 -3.59349 -1.25094 0
M  V30 4008 H 440.668 -3.84083 0.556965 0
M  V30 4009 H 438.769 -3.24273 -1.83516 0
M  V30 4010 H 438.882 -4.74073 -0.692226 0
M  V30 4011 H 437.246 -2.50447 -0.463484 0
M  V30 4012 H 438.029 -3.27865 1.01783 0
M  V30 4013 N 440.474 -0.00167713 -1.576 0
M  V30 4014 C 441.722 0.681471 -1.90264 0
M  V30 4015 C 442.043 1.7422 -0.875924 0
M  V30 4016 O 441.313 1.95709 0.0864412 0
M  V30 4017 H 439.893 0.254696 -0.702239 0
M  V30 4018 H 442.555 -0.0429996 -1.94853 0
M  V30 4019 H 441.651 1.15166 -2.90075 0
M  V30 4020 N 441.952 1.55251 0.271103 0
M  V30 4021 C 442.884 1.84675 1.35749 0
M  V30 4022 C 443.897 0.731366 1.45447 0
M  V30 4023 O 445.086 1.00924 1.4723 0
M  V30 4024 C 442.186 1.99638 2.73857 0
M  V30 4025 C 441.359 3.30312 2.86727 0
M  V30 4026 C 440.418 3.35318 4.05522 0
M  V30 4027 O 439.444 4.08682 3.96191 0
M  V30 4028 N 440.646 2.62857 5.17577 0
M  V30 4029 H 443.411 2.78445 1.10853 0
M  V30 4030 H 440.972 1.55191 0.461218 0
M  V30 4031 H 442.964 2.00355 3.51625 0
M  V30 4032 H 441.534 1.12725 2.91568 0
M  V30 4033 H 440.754 3.42118 1.95829 0
M  V30 4034 H 442.042 4.16488 2.92258 0
M  V30 4035 H 441.44 2.02939 5.28046 0
M  V30 4036 H 439.997 2.69295 5.93568 0
M  V30 4037 N 443.43 -0.535701 1.48216 0
M  V30 4038 C 444.363 -1.65726 1.56876 0
M  V30 4039 C 445.341 -1.57094 0.419542 0
M  V30 4040 O 446.525 -1.77648 0.630352 0
M  V30 4041 C 443.652 -3.04096 1.49142 0
M  V30 4042 C 442.698 -3.31105 2.68834 0
M  V30 4043 S 443.531 -3.18001 4.30854 0
M  V30 4044 C 444.687 -4.58828 4.25709 0
M  V30 4045 H 444.92 -1.58129 2.51759 0
M  V30 4046 H 442.453 -0.718218 1.36678 0
M  V30 4047 H 444.411 -3.839 1.45366 0
M  V30 4048 H 443.072 -3.09139 0.556067 0
M  V30 4049 H 442.265 -4.32033 2.59545 0
M  V30 4050 H 441.867 -2.58961 2.69843 0
M  V30 4051 H 444.159 -5.5023 3.95289 0
M  V30 4052 H 445.102 -4.73172 5.26796 0
M  V30 4053 H 445.51 -4.37883 3.56257 0
M  V30 4054 N 444.908 -1.36708 -0.784132 0
M  V30 4055 C 446.156 -1.30972 -1.53918 0
M  V30 4056 C 446.477 0.109086 -1.94695 0
M  V30 4057 O 445.747 1.05048 -1.65353 0
M  V30 4058 H 444.327 -0.481819 -0.570841 0
M  V30 4059 H 446.989 -1.71063 -0.934002 0
M  V30 4060 H 446.085 -1.94061 -2.44431 0
M  V30 4061 N 446.386 1.0089 -1.21074 0
M  V30 4062 C 447.797 1.56056 -1.02486 0
M  V30 4063 C 448.148 1.91728 0.416506 0
M  V30 4064 O 447.273 1.73066 1.29912 0
M  V30 4065 C 447.868 2.83563 -1.85411 0
M  V30 4066 C 446.427 3.3523 -1.71166 0
M  V30 4067 C 445.574 2.0846 -1.82865 0
M  V30 4068 H 448.525 0.831818 -1.35154 0
M  V30 4069 H 448.546 3.55286 -1.36205 0
M  V30 4070 H 448.058 2.57569 -2.9031 0
M  V30 4071 H 446.159 3.66167 -0.689361 0
M  V30 4072 H 446.272 4.06913 -2.52901 0
M  V30 4073 H 444.636 2.21275 -1.26132 0
M  V30 4074 H 445.419 1.84883 -2.89263 0
M  V30 4075 N 447.864 1.01787 1.20321 0
M  V30 4076 C 449.28 0.732951 1.41774 0
M  V30 4077 C 449.48 -0.686883 1.89431 0
M  V30 4078 O 448.536 -1.45446 2.06402 0
M  V30 4079 C 449.849 1.75973 2.43832 0
M  V30 4080 C 451.397 1.77802 2.57596 0
M  V30 4081 C 451.872 2.7941 3.62897 0
M  V30 4082 N 453.363 2.78157 3.70382 0
M  V30 4083 C 454.098 3.53434 4.51521 0
M  V30 4084 N 453.594 4.38392 5.36455 0
M  V30 4085 N 455.387 3.42026 4.46066 0
M  V30 4086 H 447.538 1.93447 0.877035 0
M  V30 4087 H 449.801 0.835712 0.447536 0
M  V30 4088 H 449.507 2.77699 2.15815 0
M  V30 4089 H 449.381 1.57292 3.4284 0
M  V30 4090 H 451.768 0.767602 2.84942 0
M  V30 4091 H 451.849 2.00557 1.58779 0
M  V30 4092 H 451.493 3.80616 3.36295 0
M  V30 4093 H 451.423 2.53916 4.61339 0
M  V30 4094 H 453.914 2.16531 3.09714 0
M  V30 4095 H 454.227 4.92596 5.95457 0
M  V30 4096 H 452.572 4.4247 5.35953 0
M  V30 4097 H 455.763 2.75075 3.78749 0
M  V30 4098 H 455.936 4.00946 5.09064 0
M  V30 4099 N 449.342 -1.36122 0.79427 0
M  V30 4100 C 450.59 -1.98718 0.368177 0
M  V30 4101 C 450.911 -1.63345 -1.06506 0
M  V30 4102 O 450.181 -0.909825 -1.73491 0
M  V30 4103 H 448.761 -0.735038 0.133146 0
M  V30 4104 H 451.423 -1.66239 1.01739 0
M  V30 4105 H 450.519 -3.08633 0.463923 0
M  V30 4106 N 450.82 -0.546701 -1.47814 0
M  V30 4107 C 451.75 0.195317 -2.32682 0
M  V30 4108 C 452.731 0.918981 -1.43139 0
M  V30 4109 O 453.916 0.901501 -1.72008 0
M  V30 4110 C 451.046 1.23237 -3.247 0
M  V30 4111 C 450 0.625818 -4.234 0
M  V30 4112 C 449.326 1.76674 -5.04669 0
M  V30 4113 C 450.626 -0.413515 -5.2066 0
M  V30 4114 H 452.32 -0.513184 -2.94969 0
M  V30 4115 H 449.866 -0.248241 -1.41844 0
M  V30 4116 H 451.819 1.75955 -3.82907 0
M  V30 4117 H 450.543 1.97067 -2.60446 0
M  V30 4118 H 449.202 0.120023 -3.66403 0
M  V30 4119 H 448.85 2.49383 -4.36826 0
M  V30 4120 H 448.55 1.36673 -5.71484 0
M  V30 4121 H 450.074 2.29738 -5.65732 0
M  V30 4122 H 451.488 0.0272042 -5.73294 0
M  V30 4123 H 449.885 -0.731825 -5.95621 0
M  V30 4124 H 450.955 -1.31325 -4.66778 0
M  V30 4125 N 452.299 1.55045 -0.282633 0
M  V30 4126 C 453.71 1.85473 0.213655 0
M  V30 4127 C 454.061 1.20465 1.54863 0
M  V30 4128 O 453.186 0.495676 2.10647 0
M  V30 4129 C 453.781 3.36496 0.394445 0
M  V30 4130 C 452.34 3.67022 0.834961 0
M  V30 4131 C 451.487 2.77218 -0.0674081 0
M  V30 4132 H 454.438 1.50478 -0.504202 0
M  V30 4133 H 454.459 3.60007 1.23186 0
M  V30 4134 H 453.971 3.83782 -0.577326 0
M  V30 4135 H 452.072 3.25241 1.81794 0
M  V30 4136 H 452.185 4.74433 0.667075 0
M  V30 4137 H 450.549 2.5069 0.450196 0
M  V30 4138 H 451.332 3.2732 -1.0352 0
M  V30 4139 N 453.777 0.010035 1.57597 0
M  V30 4140 C 455.025 -0.671371 1.90623 0
M  V30 4141 C 455.346 -1.73753 0.885151 0
M  V30 4142 O 454.616 -1.95752 -0.0760611 0
M  V30 4143 H 453.196 -0.250968 0.703579 0
M  V30 4144 H 455.858 0.0533325 1.94827 0
M  V30 4145 H 454.954 -1.13626 2.90681 0
M  V30 4146 N 455.255 -1.55392 -0.262866 0
M  V30 4147 C 456.165 -1.92077 -1.34698 0
M  V30 4148 C 457.181 -0.819227 -1.53508 0
M  V30 4149 O 458.357 -1.11921 -1.67439 0
M  V30 4150 C 455.422 -2.19407 -2.68443 0
M  V30 4151 C 454.483 -3.42905 -2.58292 0
M  V30 4152 C 453.716 -3.68921 -3.85659 0
M  V30 4153 O 453.939 -2.97275 -4.8681 0
M  V30 4154 O 452.873 -4.62455 -3.85252 0
M  V30 4155 H 456.699 -2.84384 -1.06581 0
M  V30 4156 H 454.284 -1.42069 -0.462264 0
M  V30 4157 H 456.166 -2.38365 -3.47506 0
M  V30 4158 H 454.841 -1.30282 -2.96325 0
M  V30 4159 H 453.748 -3.29272 -1.7757 0
M  V30 4160 H 455.081 -4.32282 -2.35358 0
M  V30 4161 N 456.733 0.527833 -1.48498 0
M  V30 4162 C 458.149 0.856571 -1.34666 0
M  V30 4163 C 458.349 1.98271 -0.35931 0
M  V30 4164 O 457.405 2.51551 0.218703 0
M  V30 4165 C 458.718 1.22207 -2.74747 0
M  V30 4166 C 460.266 1.33183 -2.83251 0
M  V30 4167 C 460.741 1.73075 -4.24039 0
M  V30 4168 N 462.232 1.80174 -4.26722 0
M  V30 4169 C 462.967 2.1243 -5.32598 0
M  V30 4170 N 462.463 2.43096 -6.4875 0
M  V30 4171 N 464.256 2.13454 -5.19994 0
M  V30 4172 H 456.407 -0.215174 -2.11307 0
M  V30 4173 H 458.67 -0.0336281 -0.947403 0
M  V30 4174 H 458.376 0.468195 -3.4857 0
M  V30 4175 H 458.25 2.17173 -3.08409 0
M  V30 4176 H 460.637 2.07647 -2.09683 0
M  V30 4177 H 460.718 0.363333 -2.53206 0
M  V30 4178 H 460.362 0.991712 -4.98124 0
M  V30 4179 H 460.292 2.70979 -4.51529 0
M  V30 4180 H 462.783 1.58744 -3.42942 0
M  V30 4181 H 463.096 2.6682 -7.25277 0
M  V30 4182 H 461.441 2.40611 -6.52021 0
M  V30 4183 H 464.632 1.88956 -4.28268 0
M  V30 4184 H 464.805 2.38261 -6.02608 0
M  V30 4185 N 458.211 1.37122 0.776871 0
M  V30 4186 C 459.459 1.31787 1.53221 0
M  V30 4187 C 459.78 -0.0987589 1.9475 0
M  V30 4188 O 459.05 -1.0417 1.65908 0
M  V30 4189 H 457.63 0.484839 0.568278 0
M  V30 4190 H 460.292 1.71556 0.924917 0
M  V30 4191 H 459.388 1.95355 2.43398 0
M  V30 4192 N 459.689 -1.00246 1.21608 0
M  V30 4193 C 461.105 -1.26435 0.973975 0
M  V30 4194 C 461.305 -1.98642 -0.338143 0
M  V30 4195 O 460.361 -2.29026 -1.06317 0
M  V30 4196 C 461.674 -2.08551 2.16626 0
M  V30 4197 C 463.222 -2.21769 2.20879 0
M  V30 4198 C 463.697 -3.07267 3.39633 0
M  V30 4199 N 465.188 -3.14855 3.39736 0
M  V30 4200 C 465.923 -3.81274 4.28273 0
M  V30 4201 N 465.419 -4.497 5.27012 0
M  V30 4202 N 467.212 -3.7794 4.16074 0
M  V30 4203 H 459.363 -0.518089 2.05984 0
M  V30 4204 H 461.626 -0.291368 0.902113 0
M  V30 4205 H 461.332 -1.62847 3.11727 0
M  V30 4206 H 461.206 -3.09303 2.15897 0
M  V30 4207 H 463.593 -2.66691 1.26332 0
M  V30 4208 H 463.674 -1.20478 2.25652 0
M  V30 4209 H 463.318 -2.63047 4.34475 0
M  V30 4210 H 463.248 -4.08678 3.321 0
M  V30 4211 H 465.739 -2.66147 2.6828 0
M  V30 4212 H 466.052 -4.98092 5.90867 0
M  V30 4213 H 464.397 -4.48479 5.30935 0
M  V30 4214 H 467.588 -3.23638 3.38195 0
M  V30 4215 H 467.761 -4.29424 4.85282 0
M  V30 4216 N 461.167 -1.02423 -1.1978 0
M  V30 4217 C 462.578 -0.748389 -1.71044 0
M  V30 4218 C 462.929 0.732398 -1.82017 0
M  V30 4219 O 462.054 1.57116 -1.48807 0
M  V30 4220 C 462.649 -1.35187 -3.1066 0
M  V30 4221 C 461.208 -1.12472 -3.59203 0
M  V30 4222 C 460.355 -1.45283 -2.36195 0
M  V30 4223 H 463.306 -1.19275 -1.04686 0
M  V30 4224 H 463.327 -0.746408 -3.73107 0
M  V30 4225 H 462.839 -2.4296 -3.02642 0
M  V30 4226 H 460.94 -0.0649983 -3.72543 0
M  V30 4227 H 461.053 -1.81016 -4.43588 0
M  V30 4228 H 459.417 -0.872034 -2.39307 0
M  V30 4229 H 460.2 -2.54129 -2.30811 0
M  V30 4230 N 462.645 1.35699 -0.801477 0
M  V30 4231 C 463.893 1.9852 -0.37871 0
M  V30 4232 C 464.214 1.63907 1.05638 0
M  V30 4233 O 463.484 0.919013 1.73006 0
M  V30 4234 H 462.064 0.734322 -0.137042 0
M  V30 4235 H 464.726 1.65697 -1.02619 0
M  V30 4236 H 463.822 3.08382 -0.480284 0
M  V30 4237 N 464.123 0.554532 1.47522 0
M  V30 4238 C 465.086 -0.184174 2.28459 0
M  V30 4239 C 466.086 -0.845195 1.36796 0
M  V30 4240 O 467.276 -0.701467 1.59452 0
M  V30 4241 C 464.408 -1.26903 3.16399 0
M  V30 4242 H 465.601 0.526751 2.95238 0
M  V30 4243 H 463.154 0.311375 1.53167 0
M  V30 4244 H 463.889 -2.01244 2.54306 0
M  V30 4245 H 463.674 -0.799883 3.83854 0
M  V30 4246 H 465.164 -1.78794 3.77389 0
M  V30 4247 N 465.601 -1.54893 0.290851 0
M  V30 4248 C 467.012 -1.85584 -0.203816 0
M  V30 4249 C 467.363 -1.21285 -1.54222 0
M  V30 4250 O 466.488 -0.506841 -2.10381 0
M  V30 4251 C 467.083 -3.367 -0.376595 0
M  V30 4252 C 465.642 -3.6746 -0.815485 0
M  V30 4253 C 464.789 -2.77178 0.0821087 0
M  V30 4254 H 467.74 -1.50208 0.512175 0
M  V30 4255 H 467.761 -3.60656 -1.21275 0
M  V30 4256 H 467.273 -3.8347 0.59767 0
M  V30 4257 H 465.374 -3.26201 -1.80066 0
M  V30 4258 H 465.487 -4.7478 -0.641905 0
M  V30 4259 H 463.851 -2.50925 -0.436895 0
M  V30 4260 H 464.634 -3.26767 1.05254 0
M  V30 4261 N 467.08 -0.0183926 -1.57589 0
M  V30 4262 C 468.328 0.661253 -1.90976 0
M  V30 4263 C 468.649 1.73281 -0.894353 0
M  V30 4264 O 467.919 1.9579 0.0656788 0
M  V30 4265 H 466.499 0.247233 -0.704901 0
M  V30 4266 H 469.161 -0.0636639 -1.94796 0
M  V30 4267 H 468.257 1.12083 -2.9128 0
M  V30 4268 N 468.558 1.5553 0.254621 0
M  V30 4269 C 469.969 1.67518 0.824286 0
M  V30 4270 C 470.32 0.614429 1.86331 0
M  V30 4271 O 469.445 -0.240736 2.15057 0
M  V30 4272 C 470.04 3.03692 1.50189 0
M  V30 4273 C 468.599 3.17646 2.01935 0
M  V30 4274 C 467.746 2.63373 0.867746 0
M  V30 4275 H 470.697 1.58671 0.0305843 0
M  V30 4276 H 470.718 2.97706 2.36962 0
M  V30 4277 H 470.23 3.80874 0.745431 0
M  V30 4278 H 468.331 2.45273 2.80485 0
M  V30 4279 H 468.444 4.24455 2.22204 0
M  V30 4280 H 466.808 2.20999 1.26616 0
M  V30 4281 H 467.591 3.43074 0.124498 0
M  V30 4282 N 470.036 -0.519951 1.48776 0
M  V30 4283 C 470.999 -1.60574 1.6355 0
M  V30 4284 C 471.999 -1.52557 0.508234 0
M  V30 4285 O 473.189 -1.56047 0.774262 0
M  V30 4286 C 470.321 -3.00211 1.61512 0
M  V30 4287 H 471.514 -1.4881 2.60376 0
M  V30 4288 H 469.067 -0.742772 1.37523 0
M  V30 4289 H 469.802 -3.17471 0.662009 0
M  V30 4290 H 469.587 -3.07439 2.43359 0
M  V30 4291 H 471.077 -3.79134 1.75064 0
M  V30 4292 N 471.514 -1.37532 -0.769588 0
M  V30 4293 C 472.762 -1.32597 -1.5252 0
M  V30 4294 C 473.083 0.0884294 -1.94799 0
M  V30 4295 O 472.353 1.03289 -1.66458 0
M  V30 4296 H 470.933 -0.487846 -0.565699 0
M  V30 4297 H 473.595 -1.72044 -0.915806 0
M  V30 4298 H 472.691 -1.96643 -2.42359 0
M  V30 4299 N 472.992 0.995999 -1.22138 0
M  V30 4300 C 473.955 2.06711 -0.990109 0
M  V30 4301 C 474.955 1.60744 0.0422978 0
M  V30 4302 O 476.145 1.73095 -0.195895 0
M  V30 4303 C 473.277 3.37288 -0.49491 0
M  V30 4304 H 474.47 2.28661 -1.94047 0
M  V30 4305 H 472.023 1.16711 -1.03963 0
M  V30 4306 H 472.758 3.21022 0.459948 0
M  V30 4307 H 472.543 3.71986 -1.23971 0
M  V30 4308 H 474.033 4.16103 -0.353253 0
M  V30 4309 N 474.47 1.03057 1.19235 0
M  V30 4310 C 475.886 0.747947 1.40989 0
M  V30 4311 C 476.086 -0.666752 1.90149 0
M  V30 4312 O 475.142 -1.43249 2.07933 0
M  V30 4313 C 476.455 1.7855 2.41951 0
M  V30 4314 C 478.003 1.80524 2.55695 0
M  V30 4315 C 478.478 2.83243 3.59913 0
M  V30 4316 N 479.969 2.8207 3.67411 0
M  V30 4317 C 480.704 3.58204 4.47747 0
M  V30 4318 N 480.2 4.44057 5.31775 0
M  V30 4319 N 481.993 3.46738 4.42413 0
M  V30 4320 H 474.144 1.94367 0.856468 0
M  V30 4321 H 476.407 0.840412 0.438647 0
M  V30 4322 H 476.113 2.79973 2.12857 0
M  V30 4323 H 475.987 1.6092 3.41152 0
M  V30 4324 H 478.374 0.79778 2.84112 0
M  V30 4325 H 478.455 2.02229 1.56643 0
M  V30 4326 H 478.099 3.84161 3.32239 0
M  V30 4327 H 478.029 2.58795 4.5862 0
M  V30 4328 H 480.52 2.19803 3.074 0
M  V30 4329 H 480.833 4.98884 5.90199 0
M  V30 4330 H 479.178 4.48129 5.3123 0
M  V30 4331 H 482.369 2.79077 3.75811 0
M  V30 4332 H 482.542 4.06322 5.04783 0
M  V30 4333 N 475.948 -1.35272 0.808662 0
M  V30 4334 C 477.196 -1.98316 0.389233 0
M  V30 4335 C 477.517 -1.64465 -1.04767 0
M  V30 4336 O 476.787 -0.928175 -1.72516 0
M  V30 4337 H 475.367 -0.733585 0.140935 0
M  V30 4338 H 478.029 -1.6515 1.03496 0
M  V30 4339 H 477.125 -3.08123 0.496631 0
M  V30 4340 N 477.426 -0.562348 -1.47226 0
M  V30 4341 C 478.374 0.195476 -2.31777 0
M  V30 4342 C 479.368 0.90433 -1.43242 0
M  V30 4343 O 480.574 0.825031 -1.59979 0
M  V30 4344 H 476.949 0.0819095 -0.747526 0
M  V30 4345 H 478.92 -0.536753 -2.93533 0
M  V30 4346 C 477.669 1.20902 -3.26003 0
M  V30 4347 H 476.992 0.672997 -3.94095 0
M  V30 4348 H 478.432 1.71006 -3.87986 0
M  V30 4349 C 476.891 2.25955 -2.49891 0
M  V30 4350 O 477.421 3.32969 -2.2471 0
M  V30 4351 N 475.627 2.00019 -2.1081 0
M  V30 4352 H 475.174 1.13006 -2.31489 0
M  V30 4353 H 475.132 2.70523 -1.60201 0
M  V30 4354 N 478.904 1.54736 -0.299062 0
M  V30 4355 C 480.181 1.92187 0.363802 0
M  V30 4356 C 480.561 1.22607 1.71845 0
M  V30 4357 O 479.909 0.361141 2.25628 0
M  V30 4358 C 480.119 3.45678 0.480377 0
M  V30 4359 C 481.467 4.17885 0.752147 0
M  V30 4360 O 482.491 3.51702 0.564264 0
M  V30 4361 O 481.35 5.35048 1.11294 0
M  V30 4362 H 478.444 0.801681 0.203066 0
M  V30 4363 H 480.99 1.66115 -0.346978 0
M  V30 4364 H 479.762 3.88443 -0.471999 0
M  V30 4365 H 479.385 3.77779 1.2397 0
M  V30 4366 N 480.382 0.0267497 1.57577 0
M  V30 4367 C 481.63 -0.651116 1.91324 0
M  V30 4368 C 481.951 -1.72804 0.90353 0
M  V30 4369 O 481.221 -1.95822 -0.0552946 0
M  V30 4370 H 479.801 -0.243491 0.706202 0
M  V30 4371 H 482.463 0.0739935 1.94759 0
M  V30 4372 H 481.559 -1.10536 2.9187 0
M  V30 4373 N 481.861 -1.55662 -0.24637 0
M  V30 4374 C 482.824 -1.89558 -1.28842 0
M  V30 4375 C 483.824 -0.772082 -1.41052 0
M  V30 4376 O 485.014 -1.04007 -1.39743 0
M  V30 4377 C 482.146 -2.12449 -2.66605 0
M  V30 4378 H 483.339 -2.82735 -1.00004 0
M  V30 4379 H 480.892 -1.48562 -0.485684 0
M  V30 4380 H 481.627 -1.21742 -3.00582 0
M  V30 4381 H 481.412 -2.94273 -2.59125 0
M  V30 4382 H 482.902 -2.39854 -3.41847 0
M  V30 4383 N 483.339 0.512053 -1.4905 0
M  V30 4384 C 484.567 1.29116 -1.61669 0
M  V30 4385 C 484.982 1.86655 -0.283787 0
M  V30 4386 O 484.339 1.67293 0.729331 0
M  V30 4387 C 484.39 2.4293 -2.67707 0
M  V30 4388 O 484.111 1.87758 -3.95826 0
M  V30 4389 C 485.612 3.34476 -2.90931 0
M  V30 4390 H 482.832 0.392009 -0.544583 0
M  V30 4391 H 485.376 0.615881 -1.95006 0
M  V30 4392 H 483.531 3.06308 -2.37179 0
M  V30 4393 H 483.945 2.62393 -4.54148 0
M  V30 4394 H 485.419 4.10642 -3.68886 0
M  V30 4395 H 485.896 3.90801 -2.00427 0
M  V30 4396 H 486.502 2.76874 -3.22832 0
M  V30 4397 N 484.817 1.37938 0.762283 0
M  V30 4398 C 486.065 1.33404 1.51815 0
M  V30 4399 C 486.386 -0.0780975 1.94844 0
M  V30 4400 O 485.656 -1.02405 1.67003 0
M  V30 4401 H 484.236 0.490839 0.563104 0
M  V30 4402 H 486.898 1.72527 0.906669 0
M  V30 4403 H 485.994 1.97926 2.41313 0
M  V30 4404 N 486.295 -0.989507 1.22664 0
M  V30 4405 C 487.258 -2.06183 1.00106 0
M  V30 4406 C 488.258 -1.60765 -0.0337726 0
M  V30 4407 O 489.448 -1.72989 0.205072 0
M  V30 4408 C 486.58 -3.37021 0.51279 0
M  V30 4409 H 487.773 -2.27629 1.95256 0
M  V30 4410 H 485.326 -1.16158 1.0458 0
M  V30 4411 H 486.061 -3.21261 -0.442917 0
M  V30 4412 H 485.846 -3.71323 1.25942 0
M  V30 4413 H 487.336 -4.1591 0.375315 0
M  V30 4414 N 487.773 -1.03688 -1.18687 0
M  V30 4415 C 488.736 -0.629115 -2.20397 0
M  V30 4416 C 489.736 0.311495 -1.57754 0
M  V30 4417 O 490.926 0.0974107 -1.73927 0
M  V30 4418 C 488.058 0.0782231 -3.4081 0
M  V30 4419 H 489.251 -1.52915 -2.57987 0
M  V30 4420 H 486.804 -0.828988 -1.32505 0
M  V30 4421 H 487.539 0.992233 -3.08748 0
M  V30 4422 H 487.324 -0.597776 -3.87517 0
M  V30 4423 H 488.814 0.350156 -4.16129 0
M  V30 4424 N 489.251 1.34841 -0.815825 0
M  V30 4425 C 490.499 1.98107 -0.399744 0
M  V30 4426 C 490.82 1.65019 1.03894 0
M  V30 4427 O 490.09 0.937311 1.72021 0
M  V30 4428 H 488.67 0.732827 -0.144823 0
M  V30 4429 H 491.332 1.64599 -1.0437 0
M  V30 4430 H 490.428 3.07856 -0.512965 0
M  V30 4431 N 490.729 0.570148 1.46925 0
M  V30 4432 C 492.14 0.1402 1.86173 0
M  V30 4433 C 492.491 -1.29347 1.47526 0
M  V30 4434 O 491.616 -1.97508 0.884292 0
M  V30 4435 C 492.211 0.247661 3.37894 0
M  V30 4436 C 490.77 -0.127332 3.76185 0
M  V30 4437 C 489.917 0.589349 2.70965 0
M  V30 4438 H 492.868 0.779117 1.38259 0
M  V30 4439 H 492.889 -0.530341 3.76786 0
M  V30 4440 H 492.401 1.29121 3.65991 0
M  V30 4441 H 490.502 -1.17149 3.53704 0
M  V30 4442 H 490.615 0.240238 4.78497 0
M  V30 4443 H 488.979 0.0309824 2.54681 0
M  V30 4444 H 489.762 1.6343 3.01903 0
M  V30 4445 N 492.207 -1.54576 0.307264 0
M  V30 4446 C 493.618 -1.8579 -0.184121 0
M  V30 4447 C 493.969 -1.22914 -1.52927 0
M  V30 4448 O 493.094 -0.529126 -2.09831 0
M  V30 4449 C 493.689 -3.37081 -0.340862 0
M  V30 4450 C 492.248 -3.68304 -0.776465 0
M  V30 4451 C 491.395 -2.77076 0.111503 0
M  V30 4452 H 494.346 -1.49656 0.528078 0
M  V30 4453 H 494.367 -3.61922 -1.17443 0
M  V30 4454 H 493.879 -3.82815 0.638309 0
M  V30 4455 H 491.98 -3.28092 -1.76596 0
M  V30 4456 H 492.093 -4.75434 -0.591512 0
M  V30 4457 H 490.457 -2.51374 -0.410256 0
M  V30 4458 H 491.24 -3.25632 1.08714 0
M  V30 4459 N 493.685 -0.035106 -1.57561 0
M  V30 4460 C 494.933 0.64096 -1.91667 0
M  V30 4461 C 495.254 1.72323 -0.912681 0
M  V30 4462 O 494.524 1.95849 0.0449089 0
M  V30 4463 H 493.104 0.239743 -0.707483 0
M  V30 4464 H 495.766 -0.084321 -1.94718 0
M  V30 4465 H 494.862 1.08987 -2.92452 0
M  V30 4466 N 495.163 1.55791 0.238111 0
M  V30 4467 C 496.574 1.68383 0.806472 0
M  V30 4468 C 496.925 0.634157 1.85669 0
M  V30 4469 O 496.05 -0.217913 2.153 0
M  V30 4470 C 496.645 3.05268 1.46959 0
M  V30 4471 C 495.204 3.1977 1.98555 0
M  V30 4472 C 494.351 2.64279 0.839763 0
M  V30 4473 H 497.302 1.58694 0.0137535 0
M  V30 4474 H 497.323 3.00203 2.33792 0
M  V30 4475 H 496.835 3.81643 0.704993 0
M  V30 4476 H 494.936 2.48234 2.77868 0
M  V30 4477 H 495.049 4.26788 2.17689 0
M  V30 4478 H 493.413 2.22329 1.24265 0
M  V30 4479 H 494.196 3.43187 0.0881032 0
M  V30 4480 N 496.642 -0.504142 1.49319 0
M  V30 4481 C 497.87 -1.28256 1.62351 0
M  V30 4482 C 498.285 -1.86502 0.293682 0
M  V30 4483 O 497.642 -1.67678 -0.720449 0
M  V30 4484 C 497.693 -2.41507 2.68992 0
M  V30 4485 O 497.414 -1.85656 3.96817 0
M  V30 4486 C 498.915 -3.32929 2.927 0
M  V30 4487 H 496.135 -0.389115 0.546654 0
M  V30 4488 H 498.679 -0.605531 1.95329 0
M  V30 4489 H 496.834 -3.05046 2.38801 0
M  V30 4490 H 497.248 -2.59981 4.55533 0
M  V30 4491 H 498.722 -4.0868 3.71058 0
M  V30 4492 H 499.199 -3.89733 2.02496 0
M  V30 4493 H 499.805 -2.75158 3.24296 0
M  V30 4494 N 498.12 -1.38341 -0.754957 0
M  V30 4495 C 499.368 -1.34208 -1.51105 0
M  V30 4496 C 499.689 0.0677634 -1.94882 0
M  V30 4497 O 498.959 1.01517 -1.67544 0
M  V30 4498 H 497.539 -0.493819 -0.560493 0
M  V30 4499 H 500.201 -1.73005 -0.897507 0
M  V30 4500 H 499.297 -1.99203 -2.4026 0
M  V30 4501 N 499.598 0.982988 -1.23187 0
M  V30 4502 C 501.009 1.53847 -1.05773 0
M  V30 4503 C 501.36 1.92568 0.375744 0
M  V30 4504 O 500.485 1.75783 1.26211 0
M  V30 4505 C 501.08 2.79567 -1.91384 0
M  V30 4506 C 499.639 3.31524 -1.78238 0
M  V30 4507 C 498.786 2.04534 -1.87246 0
M  V30 4508 H 501.737 0.802962 -1.36888 0
M  V30 4509 H 501.758 3.52317 -1.43711 0
M  V30 4510 H 501.27 2.51353 -2.95708 0
M  V30 4511 H 499.371 3.64623 -0.766875 0
M  V30 4512 H 499.484 4.01457 -2.61475 0
M  V30 4513 H 497.848 2.1855 -1.30797 0
M  V30 4514 H 498.631 1.78706 -2.9312 0
M  V30 4515 N 501.076 1.04316 1.18135 0
M  V30 4516 C 502.039 0.640794 2.2006 0
M  V30 4517 C 503.039 -0.303124 1.57917 0
M  V30 4518 O 504.229 -0.0881855 1.73977 0
M  V30 4519 C 501.361 -0.060148 3.40847 0
M  V30 4520 H 502.554 1.54281 2.57172 0
M  V30 4521 H 500.107 0.836004 1.32063 0
M  V30 4522 H 500.842 -0.975845 3.0927 0
M  V30 4523 H 500.627 0.618319 3.87194 0
M  V30 4524 H 502.117 -0.328082 4.16309 0
M  V30 4525 N 502.554 -1.34406 0.822964 0
M  V30 4526 C 503.802 -1.97892 0.410245 0
M  V30 4527 C 504.123 -1.65567 -1.03017 0
M  V30 4528 O 503.393 -0.94642 -1.71522 0
M  V30 4529 H 501.973 -0.732049 0.148707 0
M  V30 4530 H 504.635 -1.64043 1.05242 0
M  V30 4531 H 503.731 -3.07579 0.529284 0
M  V30 4532 N 504.032 -0.577932 -1.46621 0
M  V30 4533 C 505.443 -0.150071 -1.86096 0
M  V30 4534 C 505.794 1.28563 -1.48209 0
M  V30 4535 O 504.919 1.97036 -0.894754 0
M  V30 4536 C 505.514 -0.265576 -3.37758 0
M  V30 4537 C 504.073 0.10738 -3.76247 0
M  V30 4538 C 503.22 -0.603711 -2.70649 0
M  V30 4539 H 506.171 -0.786438 -1.37844 0
M  V30 4540 H 506.192 0.510352 -3.77062 0
M  V30 4541 H 505.704 -1.3106 -3.65301 0
M  V30 4542 H 503.805 1.15272 -3.54321 0
M  V30 4543 H 503.918 -0.26561 -4.78363 0
M  V30 4544 H 502.282 -0.0444884 -2.54661 0
M  V30 4545 H 503.065 -1.65029 -3.01032 0
M  V30 4546 N 505.51 1.54411 -0.315457 0
M  V30 4547 C 506.921 1.85885 0.174265 0
M  V30 4548 C 507.272 1.23723 1.52273 0
M  V30 4549 O 506.397 0.540246 2.09548 0
M  V30 4550 C 506.992 3.37257 0.322981 0
M  V30 4551 C 505.551 3.68711 0.756922 0
M  V30 4552 C 504.698 2.77013 -0.126195 0
M  V30 4553 H 507.649 1.49374 -0.536007 0
M  V30 4554 H 507.67 3.62539 1.15522 0
M  V30 4555 H 507.182 3.82471 -0.658602 0
M  V30 4556 H 505.283 3.29024 1.74854 0
M  V30 4557 H 505.396 4.75741 0.566291 0
M  V30 4558 H 503.76 2.51588 0.39692 0
M  V30 4559 H 504.543 3.25051 -1.1044 0
M  V30 4560 N 506.988 0.0434614 1.5754 0
M  V30 4561 C 508.236 -0.630786 1.92004 0
M  V30 4562 C 508.557 -1.71836 0.921807 0
M  V30 4563 O 507.827 -1.9587 -0.034522 0
M  V30 4564 H 506.407 -0.235988 0.708745 0
M  V30 4565 H 509.069 0.0946462 1.9467 0
M  V30 4566 H 508.165 -1.07434 2.93026 0
M  V30 4567 N 508.466 -1.55915 -0.229846 0
M  V30 4568 C 509.713 -1.78542 -0.955452 0
M  V30 4569 C 510.041 -0.610785 -1.84661 0
M  V30 4570 O 509.296 0.405213 -1.91459 0
M  V30 4571 C 509.595 -3.06845 -1.8325 0
M  V30 4572 C 509.261 -4.37395 -1.09528 0
M  V30 4573 C 507.923 -4.72868 -0.891598 0
M  V30 4574 C 510.275 -5.18029 -0.574046 0
M  V30 4575 C 507.603 -5.86496 -0.154655 0
M  V30 4576 C 509.955 -6.32423 0.149513 0
M  V30 4577 C 508.619 -6.66504 0.364519 0
M  V30 4578 H 507.889 -0.653333 -0.349625 0
M  V30 4579 H 510.536 -1.90183 -0.224235 0
M  V30 4580 H 508.841 -2.90291 -2.63132 0
M  V30 4581 H 510.538 -3.21553 -2.39592 0
M  V30 4582 H 507.128 -4.09538 -1.26399 0
M  V30 4583 H 511.312 -4.91066 -0.718899 0
M  V30 4584 H 506.568 -6.11396 0.0222356 0
M  V30 4585 H 510.742 -6.94137 0.560947 0
M  V30 4586 H 508.369 -7.54397 0.937495 0
M  V30 4587 N 509.944 0.496216 -1.49584 0
M  V30 4588 C 511.355 1.07765 -1.52459 0
M  V30 4589 C 511.706 1.93679 -0.31353 0
M  V30 4590 O 510.831 2.08588 0.576186 0
M  V30 4591 C 511.426 1.96111 -2.76271 0
M  V30 4592 C 509.985 2.49409 -2.81908 0
M  V30 4593 C 509.132 1.27142 -2.46435 0
M  V30 4594 H 512.083 0.279914 -1.56212 0
M  V30 4595 H 512.104 2.80862 -2.56704 0
M  V30 4596 H 511.616 1.33555 -3.64396 0
M  V30 4597 H 509.717 3.1559 -1.98074 0
M  V30 4598 H 509.83 2.86234 -3.84196 0
M  V30 4599 H 508.194 1.59818 -1.98319 0
M  V30 4600 H 508.977 0.662866 -3.3684 0
M  V30 4601 N 511.423 1.38739 0.74761 0
M  V30 4602 C 512.671 1.35007 1.50391 0
M  V30 4603 C 512.992 -0.0574274 1.94915 0
M  V30 4604 O 512.262 -1.00628 1.6808 0
M  V30 4605 H 510.842 0.496784 0.557866 0
M  V30 4606 H 513.504 1.73479 0.888319 0
M  V30 4607 H 512.6 2.00474 2.392 0
M  V30 4608 N 512.901 -0.976442 1.23707 0
M  V30 4609 C 513.864 -2.0511 1.02287 0
M  V30 4610 C 514.864 -1.60791 -0.0167195 0
M  V30 4611 O 516.054 -1.72761 0.223408 0
M  V30 4612 C 513.186 -3.36458 0.548507 0
M  V30 4613 H 514.379 -2.25545 1.9766 0
M  V30 4614 H 511.932 -1.15042 1.05806 0
M  V30 4615 H 512.667 -3.21713 -0.408818 0
M  V30 4616 H 512.452 -3.69967 1.29874 0
M  V30 4617 H 513.942 -4.15489 0.419406 0
M  V30 4618 N 514.379 -1.04941 -1.1758 0
M  V30 4619 C 515.625 -0.759112 -1.88057 0
M  V30 4620 C 515.958 0.711918 -1.8068 0
M  V30 4621 O 515.233 1.52035 -1.21308 0
M  V30 4622 C 515.516 -1.237 -3.38187 0
M  V30 4623 C 515.369 -2.77078 -3.54327 0
M  V30 4624 C 516.688 -0.834014 -4.32125 0
M  V30 4625 H 513.807 -0.277237 -0.682868 0
M  V30 4626 H 516.449 -1.30296 -1.38286 0
M  V30 4627 H 514.599 -0.774337 -3.80705 0
M  V30 4628 H 516.271 -3.31449 -3.20842 0
M  V30 4629 H 514.514 -3.16477 -2.96689 0
M  V30 4630 H 515.185 -3.05577 -4.59703 0
M  V30 4631 H 517.661 -1.23228 -3.97434 0
M  V30 4632 H 516.537 -1.19603 -5.35711 0
M  V30 4633 H 516.798 0.262195 -4.41322 0
M  V30 4634 N 515.857 1.33968 -0.830081 0
M  V30 4635 C 517.105 1.97672 -0.420734 0
M  V30 4636 C 517.426 1.66111 1.02138 0
M  V30 4637 O 516.696 0.955503 1.71017 0
M  V30 4638 H 515.276 0.73125 -0.152587 0
M  V30 4639 H 517.938 1.63483 -1.0611 0
M  V30 4640 H 517.034 3.07294 -0.545588 0
M  V30 4641 N 517.335 0.585699 1.46312 0
M  V30 4642 C 518.298 -0.135673 2.28798 0
M  V30 4643 C 519.298 -0.815988 1.38558 0
M  V30 4644 O 520.488 -0.667487 1.60904 0
M  V30 4645 C 517.62 -1.20163 3.1902 0
M  V30 4646 H 518.813 0.589257 2.94054 0
M  V30 4647 H 516.366 0.343794 1.52472 0
M  V30 4648 H 517.101 -1.95804 2.58517 0
M  V30 4649 H 516.886 -0.718282 3.85465 0
M  V30 4650 H 518.376 -1.70749 3.81096 0
M  V30 4651 N 518.813 -1.54241 0.323641 0
M  V30 4652 C 519.76 -2.24339 -0.542277 0
M  V30 4653 C 520.73 -1.23421 -1.11159 0
M  V30 4654 O 521.915 -1.52104 -1.15192 0
M  V30 4655 C 519.055 -3.00479 -1.69725 0
M  V30 4656 C 518.168 -4.16214 -1.15716 0
M  V30 4657 C 517.303 -4.79884 -2.27783 0
M  V30 4658 C 516.342 -5.87722 -1.71023 0
M  V30 4659 N 515.479 -6.45254 -2.76752 0
M  V30 4660 H 520.319 -2.97935 0.0620613 0
M  V30 4661 H 517.856 -1.47039 0.0423993 0
M  V30 4662 H 519.814 -3.42869 -2.3769 0
M  V30 4663 H 518.444 -2.29217 -2.27288 0
M  V30 4664 H 517.496 -3.78605 -0.369063 0
M  V30 4665 H 518.808 -4.93838 -0.701832 0
M  V30 4666 H 517.962 -5.25243 -3.03651 0
M  V30 4667 H 516.701 -4.01641 -2.76652 0
M  V30 4668 H 515.706 -5.41765 -0.936518 0
M  V30 4669 H 516.931 -6.67863 -1.2303 0
M  V30 4670 H 514.877 -5.69884 -3.24912 0
M  V30 4671 H 514.794 -7.18292 -2.35782 0
M  V30 4672 H 516.062 -6.95269 -3.5245 0
M  V30 4673 N 520.291 -0.0518155 -1.57515 0
M  V30 4674 C 521.539 0.620595 -1.92336 0
M  V30 4675 C 521.86 1.71345 -0.930907 0
M  V30 4676 O 521.13 1.95885 0.0241341 0
M  V30 4677 H 519.71 0.232226 -0.709986 0
M  V30 4678 H 522.372 -0.104969 -1.94617 0
M  V30 4679 H 521.468 1.05879 -2.93592 0
M  V30 4680 N 521.769 1.56035 0.221574 0
M  V30 4681 C 522.679 1.95581 1.29558 0
M  V30 4682 C 523.695 0.859639 1.51282 0
M  V30 4683 O 524.871 1.16321 1.64413 0
M  V30 4684 C 521.936 2.26447 2.62531 0
M  V30 4685 C 520.997 3.49632 2.4911 0
M  V30 4686 C 520.23 3.79017 3.75742 0
M  V30 4687 O 520.453 3.10077 4.78757 0
M  V30 4688 O 519.387 4.72507 3.72855 0
M  V30 4689 H 523.213 2.8711 0.990035 0
M  V30 4690 H 520.798 1.43244 0.424434 0
M  V30 4691 H 522.68 2.47494 3.41064 0
M  V30 4692 H 521.355 1.38092 2.92766 0
M  V30 4693 H 520.262 3.33864 1.68777 0
M  V30 4694 H 521.595 4.3837 2.23814 0
M  V30 4695 N 523.247 -0.488276 1.49845 0
M  V30 4696 C 524.21 -1.57069 1.66919 0
M  V30 4697 C 525.21 -1.51445 0.540479 0
M  V30 4698 O 526.4 -1.5437 0.807188 0
M  V30 4699 C 523.532 -2.96718 1.67844 0
M  V30 4700 H 524.725 -1.43254 2.63474 0
M  V30 4701 H 522.278 -0.713435 1.39068 0
M  V30 4702 H 523.013 -3.15996 0.7292 0
M  V30 4703 H 522.798 -3.02208 2.49826 0
M  V30 4704 H 524.288 -3.75335 1.83066 0
M  V30 4705 N 524.725 -1.39134 -0.740242 0
M  V30 4706 C 525.973 -1.35803 -1.49673 0
M  V30 4707 C 526.294 0.0470897 -1.94943 0
M  V30 4708 O 525.564 0.997347 -1.68611 0
M  V30 4709 H 524.144 -0.499736 -0.555224 0
M  V30 4710 H 526.806 -1.73947 -0.879107 0
M  V30 4711 H 525.902 -2.0174 -2.38133 0
M  V30 4712 N 526.204 0.969867 -1.24223 0
M  V30 4713 C 527.615 1.52717 -1.07399 0
M  V30 4714 C 527.966 1.92956 0.355298 0
M  V30 4715 O 527.091 1.77112 1.2434 0
M  V30 4716 C 527.686 2.77521 -1.94339 0
M  V30 4717 C 526.245 3.29615 -1.81744 0
M  V30 4718 C 525.392 2.02537 -1.89405 0
M  V30 4719 H 528.343 0.788399 -1.37732 0
M  V30 4720 H 528.364 3.50773 -1.47439 0
M  V30 4721 H 527.876 2.48203 -2.98357 0
M  V30 4722 H 525.977 3.63789 -0.805505 0
M  V30 4723 H 526.09 3.98661 -2.65718 0
M  V30 4724 H 524.454 2.17151 -1.33108 0
M  V30 4725 H 525.237 1.75587 -2.94999 0
M  V30 4726 N 527.682 1.05563 1.17022 0
M  V30 4727 C 528.614 0.617888 2.20714 0
M  V30 4728 C 529.627 -0.320303 1.59618 0
M  V30 4729 O 530.816 -0.112449 1.78145 0
M  V30 4730 C 527.916 -0.115333 3.38704 0
M  V30 4731 C 527.089 0.834493 4.29366 0
M  V30 4732 C 526.148 0.141855 5.26009 0
M  V30 4733 O 525.174 0.777151 5.6387 0
M  V30 4734 N 526.376 -1.11934 5.69606 0
M  V30 4735 H 529.141 1.50981 2.58892 0
M  V30 4736 H 526.702 0.938008 1.31958 0
M  V30 4737 H 528.694 -0.588918 4.00392 0
M  V30 4738 H 527.264 -0.908967 2.99093 0
M  V30 4739 H 526.484 1.48762 3.65053 0
M  V30 4740 H 527.772 1.4791 4.86827 0
M  V30 4741 H 527.17 -1.65574 5.40927 0
M  V30 4742 H 525.727 -1.53692 6.33421 0
M  V30 4743 N 529.16 -1.33526 0.837174 0
M  V30 4744 C 530.408 -1.97446 0.431211 0
M  V30 4745 C 530.729 -1.6665 -1.01255 0
M  V30 4746 O 529.999 -0.964559 -1.70508 0
M  V30 4747 H 528.579 -0.73043 0.156463 0
M  V30 4748 H 531.241 -1.62918 1.06976 0
M  V30 4749 H 530.337 -3.07001 0.561877 0
M  V30 4750 N 530.638 -0.59345 -1.46 0
M  V30 4751 C 532.049 -0.169801 -1.85926 0
M  V30 4752 C 532.4 1.26984 -1.49565 0
M  V30 4753 O 531.525 1.96076 -0.915602 0
M  V30 4754 C 532.12 -0.301385 -3.37457 0
M  V30 4755 C 530.679 0.0674684 -3.7634 0
M  V30 4756 C 529.826 -0.632383 -2.69993 0
M  V30 4757 H 532.777 -0.801014 -1.37002 0
M  V30 4758 H 532.798 0.470331 -3.77582 0
M  V30 4759 H 532.31 -1.34927 -3.63891 0
M  V30 4760 H 530.411 1.11507 -3.55523 0
M  V30 4761 H 530.524 -0.316332 -4.78055 0
M  V30 4762 H 528.888 -0.0714961 -2.546 0
M  V30 4763 H 529.671 -1.68212 -2.99265 0
M  V30 4764 N 532.116 1.54067 -0.331816 0
M  V30 4765 C 533.532 1.59587 0.0205388 0
M  V30 4766 C 533.732 1.34813 1.49759 0
M  V30 4767 O 532.788 1.13661 2.25471 0
M  V30 4768 C 534.101 2.97959 -0.405103 0
M  V30 4769 C 535.649 3.10964 -0.356454 0
M  V30 4770 C 536.124 4.51694 -0.757384 0
M  V30 4771 N 537.615 4.57709 -0.71111 0
M  V30 4772 C 538.35 5.64729 -0.993427 0
M  V30 4773 N 537.846 6.79652 -1.3433 0
M  V30 4774 N 539.639 5.54546 -0.918442 0
M  V30 4775 H 531.79 1.68426 -1.29407 0
M  V30 4776 H 534.053 0.78819 -0.526745 0
M  V30 4777 H 533.759 3.21115 -1.43451 0
M  V30 4778 H 533.633 3.76524 0.225692 0
M  V30 4779 H 536.02 2.87538 0.663763 0
M  V30 4780 H 536.101 2.34484 -1.02229 0
M  V30 4781 H 535.745 4.75853 -1.77555 0
M  V30 4782 H 535.675 5.26555 -0.0691444 0
M  V30 4783 H 538.166 3.75176 -0.452883 0
M  V30 4784 H 538.479 7.57221 -1.54388 0
M  V30 4785 H 536.824 6.81128 -1.38164 0
M  V30 4786 H 540.015 4.63641 -0.644536 0
M  V30 4787 H 540.188 6.37861 -1.14181 0
M  V30 4788 N 533.594 0.0601682 1.57485 0
M  V30 4789 C 534.842 -0.610386 1.92662 0
M  V30 4790 C 535.163 -1.70849 0.939981 0
M  V30 4791 O 534.433 -1.95895 -0.0137455 0
M  V30 4792 H 533.013 -0.228457 0.711208 0
M  V30 4793 H 535.675 0.115288 1.94559 0
M  V30 4794 H 534.771 -1.0432 2.94149 0
M  V30 4795 N 535.072 -1.5615 -0.213296 0
M  V30 4796 C 536.297 -1.83986 -0.957282 0
M  V30 4797 C 536.722 -0.641526 -1.76822 0
M  V30 4798 O 536.08 0.409722 -1.7661 0
M  V30 4799 C 536.128 -3.09889 -1.84393 0
M  V30 4800 O 535.232 -2.89163 -2.94038 0
M  V30 4801 H 534.573 -0.606357 -0.270605 0
M  V30 4802 H 537.103 -2.03369 -0.224111 0
M  V30 4803 H 537.113 -3.40209 -2.25215 0
M  V30 4804 H 535.788 -3.96735 -1.24795 0
M  V30 4805 H 534.365 -2.70097 -2.57103 0
M  V30 4806 N 536.55 0.480323 -1.50102 0
M  V30 4807 C 537.46 1.60547 -1.71061 0
M  V30 4808 C 538.476 1.63564 -0.593529 0
M  V30 4809 O 539.652 1.81604 -0.870751 0
M  V30 4810 C 536.717 2.96814 -1.79171 0
M  V30 4811 C 535.778 3.04259 -3.02861 0
M  V30 4812 C 535.011 4.34027 -3.10574 0
M  V30 4813 O 535.234 5.24009 -2.25323 0
M  V30 4814 O 534.168 4.46873 -4.03223 0
M  V30 4815 H 537.994 1.45788 -2.6642 0
M  V30 4816 H 535.579 0.658838 -1.34088 0
M  V30 4817 H 537.461 3.77765 -1.86738 0
M  V30 4818 H 536.136 3.11791 -0.869947 0
M  V30 4819 H 535.043 2.22419 -3.008 0
M  V30 4820 H 536.376 2.94216 -3.94586 0
M  V30 4821 N 538.028 1.39524 0.732853 0
M  V30 4822 C 539.276 1.36594 1.48951 0
M  V30 4823 C 539.597 -0.0367507 1.94965 0
M  V30 4824 O 538.867 -0.988391 1.69138 0
M  V30 4825 H 537.447 0.502673 0.552566 0
M  V30 4826 H 540.109 1.74411 0.869869 0
M  V30 4827 H 539.205 2.03 2.3706 0
M  V30 4828 N 539.506 -0.963266 1.24736 0
M  V30 4829 C 540.917 -1.52145 1.08207 0
M  V30 4830 C 541.268 -1.93142 -0.345061 0
M  V30 4831 O 540.393 -1.77769 -1.23399 0
M  V30 4832 C 540.988 -2.76486 1.95808 0
M  V30 4833 C 539.547 -3.28646 1.8349 0
M  V30 4834 C 538.694 -2.01529 1.90476 0
M  V30 4835 H 541.645 -0.781083 1.38148 0
M  V30 4836 H 541.666 -3.49986 1.49297 0
M  V30 4837 H 541.178 -2.46617 2.99669 0
M  V30 4838 H 539.279 -3.63357 0.824787 0
M  V30 4839 H 539.392 -3.97246 2.67829 0
M  V30 4840 H 537.756 -2.16442 1.34258 0
M  V30 4841 H 538.539 -1.7402 2.95926 0
M  V30 4842 N 540.985 -1.06182 -1.16461 0
M  V30 4843 C 541.917 -0.629584 -2.20383 0
M  V30 4844 C 542.93 0.311834 -1.59786 0
M  V30 4845 O 544.119 0.103 -1.78203 0
M  V30 4846 C 541.219 0.0973695 -3.3876 0
M  V30 4847 C 540.392 -0.857252 -4.28917 0
M  V30 4848 C 539.451 -0.169749 -5.25926 0
M  V30 4849 O 538.477 -0.807044 -5.6345 0
M  V30 4850 N 539.679 1.08911 -5.70192 0
M  V30 4851 H 542.444 -1.52352 -2.58087 0
M  V30 4852 H 540.005 -0.944993 -1.31459 0
M  V30 4853 H 541.997 0.567676 -4.00699 0
M  V30 4854 H 540.567 0.893093 -2.99571 0
M  V30 4855 H 539.787 -1.50696 -3.64259 0
M  V30 4856 H 541.075 -1.50489 -4.86035 0
M  V30 4857 H 540.473 1.62703 -5.41797 0
M  V30 4858 H 539.03 1.50331 -6.34227 0
M  V30 4859 N 542.463 1.3308 -0.844243 0
M  V30 4860 C 543.711 1.97215 -0.441676 0
M  V30 4861 C 544.032 1.67185 1.0037 0
M  V30 4862 O 543.302 0.973588 1.69994 0
M  V30 4863 H 541.882 0.72959 -0.160335 0
M  V30 4864 H 544.544 1.62348 -1.07838 0
M  V30 4865 H 543.64 3.06698 -0.57815 0
M  V30 4866 N 543.941 0.601185 1.45683 0
M  V30 4867 C 545.187 0.0940202 2.02582 0
M  V30 4868 C 545.52 -1.26972 1.46941 0
M  V30 4869 O 544.795 -1.83613 0.641612 0
M  V30 4870 C 545.078 0.0481715 3.60068 0
M  V30 4871 C 544.931 1.44212 4.26055 0
M  V30 4872 C 546.25 -0.642975 4.35378 0
M  V30 4873 H 543.369 0.0356404 0.736138 0
M  V30 4874 H 546.011 0.771929 1.73612 0
M  V30 4875 H 544.161 -0.529128 3.8488 0
M  V30 4876 H 545.833 2.06601 4.12449 0
M  V30 4877 H 544.076 2.00465 3.84703 0
M  V30 4878 H 544.747 1.36234 5.34925 0
M  V30 4879 H 547.223 -0.152351 4.15821 0
M  V30 4880 H 546.099 -0.644141 5.45107 0
M  V30 4881 H 546.36 -1.70785 4.0778 0
M  V30 4882 N 545.419 -1.53889 0.339982 0
M  V30 4883 C 546.835 -1.59595 -0.0120752 0
M  V30 4884 C 547.035 -1.35605 -1.49042 0
M  V30 4885 O 546.091 -1.14856 -2.24865 0
M  V30 4886 C 547.404 -2.9774 0.420898 0
M  V30 4887 C 548.952 -3.1077 0.37294 0
M  V30 4888 C 549.427 -4.51286 0.781327 0
M  V30 4889 N 550.918 -4.57325 0.735374 0
M  V30 4890 C 551.653 -5.64194 1.02336 0
M  V30 4891 N 551.149 -6.7893 1.37933 0
M  V30 4892 N 552.942 -5.54051 0.947838 0
M  V30 4893 H 545.093 -1.67738 1.30299 0
M  V30 4894 H 547.356 -0.785385 0.530918 0
M  V30 4895 H 547.062 -3.20349 1.45152 0
M  V30 4896 H 546.936 -3.76639 -0.205721 0
M  V30 4897 H 549.323 -2.87886 -0.648505 0
M  V30 4898 H 549.404 -2.33939 1.03472 0
M  V30 4899 H 549.048 -4.74905 1.80077 0
M  V30 4900 H 548.978 -5.26511 0.0970679 0
M  V30 4901 H 551.469 -3.74931 0.472773 0
M  V30 4902 H 551.782 -7.56392 1.58402 0
M  V30 4903 H 550.127 -6.80386 1.41774 0
M  V30 4904 H 553.318 -4.63293 0.669115 0
M  V30 4905 H 553.491 -6.37246 1.17563 0
M  V30 4906 N 546.897 -0.0685191 -1.57451 0
M  V30 4907 C 548.145 0.60016 -1.92983 0
M  V30 4908 C 548.466 1.70348 -0.949028 0
M  V30 4909 O 547.736 1.959 0.00335647 0
M  V30 4910 H 546.316 0.224682 -0.712409 0
M  V30 4911 H 548.978 -0.125605 -1.94495 0
M  V30 4912 H 548.074 1.02759 -2.94698 0
M  V30 4913 N 548.375 1.56261 0.205012 0
M  V30 4914 C 549.285 1.96944 1.27476 0
M  V30 4915 C 550.301 0.875636 1.50362 0
M  V30 4916 O 551.477 1.18058 1.6317 0
M  V30 4917 C 548.542 2.29219 2.60115 0
M  V30 4918 C 547.603 3.52255 2.45387 0
M  V30 4919 C 546.836 3.8298 3.71701 0
M  V30 4920 O 547.059 3.15138 4.75441 0
M  V30 4921 O 545.993 4.76435 3.67823 0
M  V30 4922 H 549.819 2.88144 0.959527 0
M  V30 4923 H 547.404 1.43686 0.409217 0
M  V30 4924 H 549.286 2.51098 3.3842 0
M  V30 4925 H 547.961 1.4119 2.91285 0
M  V30 4926 H 546.868 3.35635 1.65227 0
M  V30 4927 H 548.201 4.40719 2.19152 0
M  V30 4928 N 549.853 -0.472356 1.50355 0
M  V30 4929 C 551.264 -1.05326 1.54154 0
M  V30 4930 C 551.615 -1.93155 0.344303 0
M  V30 4931 O 550.74 -2.09479 -0.542928 0
M  V30 4932 C 551.335 -1.91691 2.79356 0
M  V30 4933 C 549.894 -2.44892 2.8584 0
M  V30 4934 C 549.041 -1.23205 2.48426 0
M  V30 4935 H 551.992 -0.255027 1.56637 0
M  V30 4936 H 552.013 -2.76742 2.6114 0
M  V30 4937 H 551.525 -1.27741 3.66475 0
M  V30 4938 H 549.626 -3.12399 2.0307 0
M  V30 4939 H 549.739 -2.80086 3.88701 0
M  V30 4940 H 548.103 -1.56643 2.00836 0
M  V30 4941 H 548.886 -0.609194 3.37852 0
M  V30 4942 N 551.331 -1.39911 -0.725443 0
M  V30 4943 C 552.579 -1.37382 -1.48224 0
M  V30 4944 C 552.9 0.0264107 -1.94982 0
M  V30 4945 O 552.17 0.979408 -1.6966 0
M  V30 4946 H 550.75 -0.505596 -0.549892 0
M  V30 4947 H 553.412 -1.7487 -0.860608 0
M  V30 4948 H 552.508 -2.04254 -2.3598 0
M  V30 4949 N 552.809 0.956637 -1.25245 0
M  V30 4950 C 554.22 1.51569 -1.09012 0
M  V30 4951 C 554.571 1.93322 0.334813 0
M  V30 4952 O 553.696 1.78421 1.22454 0
M  V30 4953 C 554.291 2.75444 -1.97271 0
M  V30 4954 C 552.85 3.27669 -1.8523 0
M  V30 4955 C 551.997 2.00517 -1.91542 0
M  V30 4956 H 554.948 0.773746 -1.3856 0
M  V30 4957 H 554.969 3.4919 -1.51151 0
M  V30 4958 H 554.481 2.45024 -3.00973 0
M  V30 4959 H 552.582 3.62914 -0.844045 0
M  V30 4960 H 552.695 3.9582 -2.69932 0
M  V30 4961 H 551.059 2.15727 -1.35404 0
M  V30 4962 H 551.842 1.72448 -2.96844 0
M  V30 4963 N 554.287 1.06798 1.15896 0
M  V30 4964 C 555.698 0.811355 1.68149 0
M  V30 4965 C 556.049 -0.664339 1.8461 0
M  V30 4966 O 555.174 -1.51485 1.54535 0
M  V30 4967 C 555.769 1.46624 3.05429 0
M  V30 4968 C 554.328 1.25726 3.54781 0
M  V30 4969 C 553.475 1.53949 2.3064 0
M  V30 4970 H 556.426 1.23078 1.00187 0
M  V30 4971 H 556.447 0.88437 3.7008 0
M  V30 4972 H 555.959 2.54025 2.93416 0
M  V30 4973 H 554.06 0.20322 3.72045 0
M  V30 4974 H 554.173 1.97354 4.36564 0
M  V30 4975 H 552.537 0.96025 2.35905 0
M  V30 4976 H 553.32 2.6252 2.2122 0
M  V30 4977 N 555.766 -1.3263 0.851289 0
M  V30 4978 C 557.014 -1.96978 0.452128 0
M  V30 4979 C 557.335 -1.67715 -0.99482 0
M  V30 4980 O 556.605 -0.98259 -1.69476 0
M  V30 4981 H 555.185 -0.72873 0.164202 0
M  V30 4982 H 557.847 -1.61774 1.08698 0
M  V30 4983 H 556.943 -3.06387 0.594407 0
M  V30 4984 N 557.244 -0.608902 -1.45362 0
M  V30 4985 C 558.655 -0.189511 -1.85736 0
M  V30 4986 C 559.006 1.2539 -1.50903 0
M  V30 4987 O 558.131 1.95094 -0.936347 0
M  V30 4988 C 558.726 -0.33716 -3.37118 0
M  V30 4989 C 557.285 0.0275487 -3.7639 0
M  V30 4990 C 556.432 -0.660983 -2.69307 0
M  V30 4991 H 559.383 -0.815499 -1.36144 0
M  V30 4992 H 559.404 0.430257 -3.7806 0
M  V30 4993 H 558.916 -1.38779 -3.62439 0
M  V30 4994 H 557.017 1.0773 -3.56686 0
M  V30 4995 H 557.13 -0.367018 -4.77692 0
M  V30 4996 H 555.494 -0.0984958 -2.54509 0
M  V30 4997 H 556.277 -1.71377 -2.97464 0
M  V30 4998 N 558.722 1.53707 -0.348139 0
M  V30 4999 C 559.685 2.23812 0.494058 0
M  V30 5000 C 560.685 1.23989 1.02388 0
M  V30 5001 O 561.875 1.48395 0.912396 0
M  V30 5002 C 559.007 2.96133 1.68872 0
M  V30 5003 H 560.2 2.99663 -0.119141 0
M  V30 5004 H 557.753 1.55983 -0.0995539 0
M  V30 5005 H 558.488 2.24481 2.34049 0
M  V30 5006 H 558.273 3.69357 1.31596 0
M  V30 5007 H 559.763 3.49475 2.28597 0
M  V30 5008 N 560.2 0.0768682 1.57412 0
M  V30 5009 C 561.448 -0.589918 1.93299 0
M  V30 5010 C 561.769 -1.69842 0.958049 0
M  V30 5011 O 561.039 -1.95899 0.00703261 0
M  V30 5012 H 559.619 -0.220901 0.713591 0
M  V30 5013 H 562.281 0.135917 1.94425 0
M  V30 5014 H 561.377 -1.01195 2.95239 0
M  V30 5015 N 561.678 -1.56367 -0.196722 0
M  V30 5016 C 562.641 -1.93561 -1.22746 0
M  V30 5017 C 563.641 -0.816566 -1.38524 0
M  V30 5018 O 564.831 -1.084 -1.36363 0
M  V30 5019 C 561.963 -2.20823 -2.59712 0
M  V30 5020 H 563.156 -2.85774 -0.909586 0
M  V30 5021 H 560.709 -1.50032 -0.438174 0
M  V30 5022 H 561.444 -1.31243 -2.96557 0
M  V30 5023 H 561.229 -3.02368 -2.49632 0
M  V30 5024 H 562.719 -2.50608 -3.34044 0
M  V30 5025 N 563.156 0.464375 -1.50603 0
M  V30 5026 C 564.119 1.54393 -1.69397 0
M  V30 5027 C 565.119 1.50566 -0.564504 0
M  V30 5028 O 566.309 1.53066 -0.831645 0
M  V30 5029 C 563.441 2.9401 -1.72543 0
M  V30 5030 H 564.634 1.39044 -2.65719 0
M  V30 5031 H 562.187 0.69122 -1.40185 0
M  V30 5032 H 562.922 3.14795 -0.77938 0
M  V30 5033 H 562.707 2.98195 -2.54602 0
M  V30 5034 H 564.197 3.72375 -1.89015 0
M  V30 5035 N 564.634 1.40294 0.718013 0
M  V30 5036 C 565.882 1.38167 1.47494 0
M  V30 5037 C 566.203 -0.01607 1.94993 0
M  V30 5038 O 565.473 -0.970396 1.70177 0
M  V30 5039 H 564.053 0.508505 0.547203 0
M  V30 5040 H 566.715 1.75324 0.851322 0
M  V30 5041 H 565.811 2.05503 2.34894 0
M  V30 5042 N 566.112 -0.949982 1.2575 0
M  V30 5043 C 567.523 -1.50989 1.09815 0
M  V30 5044 C 567.874 -1.93497 -0.324556 0
M  V30 5045 O 566.999 -1.79068 -1.21506 0
M  V30 5046 C 567.594 -2.74394 1.98729 0
M  V30 5047 C 566.153 -3.26682 1.86965 0
M  V30 5048 C 565.3 -1.99498 1.92603 0
M  V30 5049 H 568.251 -0.766387 1.38968 0
M  V30 5050 H 568.272 -3.48383 1.53001 0
M  V30 5051 H 567.784 -2.43425 3.02268 0
M  V30 5052 H 565.885 -3.62461 0.863279 0
M  V30 5053 H 565.998 -3.94383 2.72027 0
M  V30 5054 H 564.362 -2.15005 1.36546 0
M  V30 5055 H 565.145 -1.70871 2.97755 0
M  V30 5056 N 567.59 -1.07411 -1.15328 0
M  V30 5057 C 568.553 -0.698914 -2.18284 0
M  V30 5058 C 569.553 0.261149 -1.58665 0
M  V30 5059 O 570.743 0.0420277 -1.74149 0
M  V30 5060 C 567.875 -0.0302427 -3.40887 0
M  V30 5061 H 569.068 -1.61045 -2.52991 0
M  V30 5062 H 566.621 -0.870724 -1.298 0
M  V30 5063 H 567.356 0.893505 -3.11748 0
M  V30 5064 H 567.141 -0.720759 -3.85419 0
M  V30 5065 H 568.631 0.21759 -4.17033 0
M  V30 5066 N 569.068 1.32177 -0.85831 0
M  V30 5067 C 570.316 1.96735 -0.462568 0
M  V30 5068 C 570.637 1.6824 0.985911 0
M  V30 5069 O 569.907 0.991564 1.68952 0
M  V30 5070 H 568.487 0.727849 -0.168064 0
M  V30 5071 H 571.149 1.61195 -1.09554 0
M  V30 5072 H 570.245 3.06068 -0.610647 0
M  V30 5073 N 570.547 0.616602 1.45037 0
M  V30 5074 C 571.495 -0.109318 2.32343 0
M  V30 5075 C 572.489 -0.850543 1.465 0
M  V30 5076 O 573.695 -0.765088 1.62931 0
M  V30 5077 H 570.07 -0.0541091 0.750051 0
M  V30 5078 H 572.041 0.645326 2.91338 0
M  V30 5079 C 570.79 -1.0872 3.30266 0
M  V30 5080 H 570.113 -0.526267 3.96321 0
M  V30 5081 H 571.553 -1.56489 3.94065 0
M  V30 5082 C 570.012 -2.16525 2.58105 0
M  V30 5083 O 570.542 -3.244 2.36913 0
M  V30 5084 N 568.748 -1.92057 2.18088 0
M  V30 5085 H 568.295 -1.04337 2.35524 0
M  V30 5086 H 568.253 -2.64391 1.70131 0
M  V30 5087 N 572.025 -1.5352 0.356285 0
M  V30 5088 C 573.436 -1.86282 -0.12492 0
M  V30 5089 C 573.787 -1.27717 -1.48939 0
M  V30 5090 O 572.912 -0.595614 -2.08042 0
M  V30 5091 C 573.507 -3.37995 -0.23345 0
M  V30 5092 C 572.066 -3.70588 -0.658899 0
M  V30 5093 C 571.213 -2.76581 0.199596 0
M  V30 5094 H 574.164 -1.47901 0.575423 0
M  V30 5095 H 574.185 -3.65475 -1.0587 0
M  V30 5096 H 573.697 -3.8059 0.759776 0
M  V30 5097 H 571.798 -3.33544 -1.66069 0
M  V30 5098 H 571.911 -4.77076 -0.439957 0
M  V30 5099 H 570.275 -2.52552 -0.330076 0
M  V30 5100 H 571.058 -3.22008 1.19019 0
M  V30 5101 N 573.503 -0.0852151 -1.57369 0
M  V30 5102 C 574.751 0.579658 -1.93609 0
M  V30 5103 C 575.072 1.69332 -0.967043 0
M  V30 5104 O 574.342 1.95892 -0.0174215 0
M  V30 5105 H 572.922 0.217113 -0.714752 0
M  V30 5106 H 575.584 -0.146226 -1.94351 0
M  V30 5107 H 574.68 0.996276 -2.95771 0
M  V30 5108 N 574.981 1.5647 0.188427 0
M  V30 5109 C 575.944 1.9421 1.21718 0
M  V30 5110 C 576.944 0.823901 1.38089 0
M  V30 5111 O 578.134 1.09122 1.35787 0
M  V30 5112 C 575.266 2.22197 2.58537 0
M  V30 5113 H 576.459 2.86252 0.894418 0
M  V30 5114 H 574.012 1.50263 0.430211 0
M  V30 5115 H 574.747 1.32814 2.95856 0
M  V30 5116 H 574.532 3.03688 2.48025 0
M  V30 5117 H 576.022 2.52376 3.3271 0
M  V30 5118 N 576.459 -0.456382 1.50847 0
M  V30 5119 C 577.736 -1.21739 1.53098 0
M  V30 5120 C 578.116 -2.09179 0.284132 0
M  V30 5121 O 577.464 -2.16466 -0.731773 0
M  V30 5122 C 577.674 -2.03573 2.83477 0
M  V30 5123 C 579.022 -2.61264 3.34703 0
M  V30 5124 O 580.046 -2.13802 2.84898 0
M  V30 5125 O 578.905 -3.47779 4.21559 0
M  V30 5126 H 575.999 -0.553219 0.614718 0
M  V30 5127 H 578.545 -0.467003 1.63148 0
M  V30 5128 H 577.317 -1.39232 3.65691 0
M  V30 5129 H 576.94 -2.85716 2.76499 0
M  V30 5130 N 577.937 -1.40673 -0.710563 0
M  V30 5131 C 579.185 -1.38947 -1.46759 0
M  V30 5132 C 579.506 0.00572879 -1.94999 0
M  V30 5133 O 578.776 0.961358 -1.70689 0
M  V30 5134 H 577.356 -0.5114 -0.544499 0
M  V30 5135 H 580.018 -1.75773 -0.842012 0
M  V30 5136 H 579.114 -2.06745 -2.33801 0
M  V30 5137 N 579.415 0.9433 -1.26252 0
M  V30 5138 C 580.347 2.04542 -1.03417 0
M  V30 5139 C 581.36 1.62799 0.0046911 0
M  V30 5140 O 582.549 1.76944 -0.235146 0
M  V30 5141 C 579.649 3.34511 -0.543671 0
M  V30 5142 C 578.822 4.05033 -1.65128 0
M  V30 5143 C 577.881 5.13273 -1.1592 0
M  V30 5144 O 576.907 5.38095 -1.85586 0
M  V30 5145 N 578.109 5.805 -0.00649279 0
M  V30 5146 H 580.874 2.24699 -1.98319 0
M  V30 5147 H 578.435 1.11264 -1.1761 0
M  V30 5148 H 580.427 4.04212 -0.198703 0
M  V30 5149 H 578.997 3.11042 0.311711 0
M  V30 5150 H 578.217 3.29275 -2.16729 0
M  V30 5151 H 579.505 4.48903 -2.39508 0
M  V30 5152 H 578.903 5.62767 0.575347 0
M  V30 5153 H 577.46 6.51201 0.279416 0
M  V30 5154 N 580.893 1.08022 1.14757 0
M  V30 5155 C 582.304 0.829144 1.67279 0
M  V30 5156 C 582.655 -0.644721 1.85305 0
M  V30 5157 O 581.78 -1.49838 1.56133 0
M  V30 5158 C 582.375 1.49855 3.03857 0
M  V30 5159 C 580.934 1.29482 3.53428 0
M  V30 5160 C 580.081 1.56386 2.28995 0
M  V30 5161 H 583.032 1.24134 0.988762 0
M  V30 5162 H 583.053 0.923572 3.69121 0
M  V30 5163 H 582.565 2.57123 2.90705 0
M  V30 5164 H 580.666 0.242669 3.71809 0
M  V30 5165 H 580.779 2.01974 4.34446 0
M  V30 5166 H 579.143 0.985217 2.34874 0
M  V30 5167 H 579.926 2.64851 2.18423 0
M  V30 5168 N 582.371 -1.3172 0.865308 0
M  V30 5169 C 583.619 -1.96487 0.472995 0
M  V30 5170 C 583.94 -1.68761 -0.976975 0
M  V30 5171 O 583.21 -1.00051 -1.68424 0
M  V30 5172 H 581.79 -0.726947 0.171922 0
M  V30 5173 H 584.452 -1.60612 1.10407 0
M  V30 5174 H 583.548 -3.0574 0.62687 0
M  V30 5175 N 583.85 -0.624285 -1.44708 0
M  V30 5176 C 584.812 0.0749638 -2.29077 0
M  V30 5177 C 585.812 0.778965 -1.40673 0
M  V30 5178 O 587.003 0.624591 -1.62618 0
M  V30 5179 C 584.135 1.11663 -3.22094 0
M  V30 5180 H 585.327 -0.667013 -2.92388 0
M  V30 5181 H 582.88 -0.384098 -1.51507 0
M  V30 5182 H 583.615 1.88881 -2.63618 0
M  V30 5183 H 583.401 0.61583 -3.87234 0
M  V30 5184 H 584.891 1.60585 -3.8549 0
M  V30 5185 N 585.328 1.53329 -0.364422 0
M  V30 5186 C 586.275 2.25698 0.482607 0
M  V30 5187 C 587.245 1.26325 1.07848 0
M  V30 5188 O 588.43 1.55104 1.11119 0
M  V30 5189 C 585.57 3.04873 1.61699 0
M  V30 5190 C 584.683 4.19135 1.0464 0
M  V30 5191 C 583.818 4.85754 2.14979 0
M  V30 5192 C 582.857 5.9205 1.5538 0
M  V30 5193 N 581.994 6.52365 2.59547 0
M  V30 5194 H 586.834 2.97666 -0.141032 0
M  V30 5195 H 584.371 1.46875 -0.0813692 0
M  V30 5196 H 586.329 3.49051 2.28516 0
M  V30 5197 H 584.959 2.35162 2.2113 0
M  V30 5198 H 584.011 3.79451 0.268553 0
M  V30 5199 H 585.323 4.95525 0.570653 0
M  V30 5200 H 584.477 5.3311 2.89619 0
M  V30 5201 H 583.216 4.08834 2.65906 0
M  V30 5202 H 582.221 5.44058 0.792549 0
M  V30 5203 H 583.446 6.7089 1.0528 0
M  V30 5204 H 581.392 5.78298 3.09689 0
M  V30 5205 H 581.309 7.2429 2.16655 0
M  V30 5206 H 582.577 7.0437 3.33892 0
M  V30 5207 N 586.806 0.0935595 1.57322 0
M  V30 5208 C 588.054 -0.569383 1.93913 0
M  V30 5209 C 588.375 -1.68817 0.976009 0
M  V30 5210 O 587.645 -1.9588 0.0278099 0
M  V30 5211 H 586.225 -0.21332 0.715894 0
M  V30 5212 H 588.887 0.156531 1.9427 0
M  V30 5213 H 587.983 -0.980577 2.96296 0
M  V30 5214 N 588.284 -1.56567 -0.180126 0
M  V30 5215 C 589.247 -1.94852 -1.20686 0
M  V30 5216 C 590.247 -0.831212 -1.3765 0
M  V30 5217 O 591.437 -1.09841 -1.35206 0
M  V30 5218 C 588.569 -2.23565 -2.57355 0
M  V30 5219 H 589.762 -2.86722 -0.879225 0
M  V30 5220 H 587.315 -1.50489 -0.422237 0
M  V30 5221 H 588.05 -1.34381 -2.95148 0
M  V30 5222 H 587.835 -3.04999 -2.46411 0
M  V30 5223 H 589.325 -2.54137 -3.31367 0
M  V30 5224 N 589.762 0.448376 -1.51087 0
M  V30 5225 C 590.71 1.56407 -1.72161 0
M  V30 5226 C 591.704 1.58878 -0.587721 0
M  V30 5227 O 592.91 1.62755 -0.768822 0
M  V30 5228 H 589.285 0.519423 -0.543786 0
M  V30 5229 H 591.256 1.35803 -2.65707 0
M  V30 5230 C 590.005 2.94163 -1.85373 0
M  V30 5231 H 589.328 2.9299 -2.72024 0
M  V30 5232 H 590.768 3.71625 -2.04135 0
M  V30 5233 C 589.227 3.31317 -0.610803 0
M  V30 5234 O 589.757 4.00985 0.239636 0
M  V30 5235 N 587.963 2.86966 -0.458127 0
M  V30 5236 H 587.51 2.30443 -1.15124 0
M  V30 5237 H 587.468 3.12188 0.372289 0
M  V30 5238 N 591.24 1.41047 0.703093 0
M  V30 5239 C 592.488 1.39723 1.4602 0
M  V30 5240 C 592.809 0.00461257 1.94999 0
M  V30 5241 O 592.079 -0.952292 1.71196 0
M  V30 5242 H 590.659 0.514281 0.541779 0
M  V30 5243 H 593.321 1.76217 0.832678 0
M  V30 5244 H 592.417 2.07982 2.32701 0
M  V30 5245 N 592.718 -0.936591 1.26751 0
M  V30 5246 C 593.681 -2.01752 1.08761 0
M  V30 5247 C 594.681 -1.60763 0.0344435 0
M  V30 5248 O 595.871 -1.71963 0.278258 0
M  V30 5249 C 593.003 -3.34543 0.655271 0
M  V30 5250 H 594.196 -2.19143 2.04735 0
M  V30 5251 H 591.749 -1.11618 1.09413 0
M  V30 5252 H 592.484 -3.22851 -0.30626 0
M  V30 5253 H 592.269 -3.65647 1.41578 0
M  V30 5254 H 593.759 -4.13944 0.551378 0
M  V30 5255 N 594.196 -1.08629 -1.14182 0
M  V30 5256 C 595.607 -0.838003 -1.66836 0
M  V30 5257 C 595.958 0.634885 -1.85644 0
M  V30 5258 O 595.083 1.49008 -1.56926 0
M  V30 5259 C 595.678 -1.51465 -3.03058 0
M  V30 5260 C 594.237 -1.31355 -3.52736 0
M  V30 5261 C 593.384 -1.57599 -2.28162 0
M  V30 5262 H 596.335 -1.24656 -0.982165 0
M  V30 5263 H 596.356 -0.943134 -3.68626 0
M  V30 5264 H 595.868 -2.58661 -2.89337 0
M  V30 5265 H 593.969 -0.262384 -3.71675 0
M  V30 5266 H 594.082 -2.04275 -4.33369 0
M  V30 5267 H 592.446 -0.997659 -2.34348 0
M  V30 5268 H 593.229 -2.66006 -2.17015 0
M  V30 5269 N 595.674 1.31259 -0.872281 0
M  V30 5270 C 596.922 1.96233 -0.483409 0
M  V30 5271 C 597.243 1.69276 0.968012 0
M  V30 5272 O 596.513 1.00943 1.67891 0
M  V30 5273 H 595.093 0.726025 -0.175774 0
M  V30 5274 H 597.755 1.60024 -1.11258 0
M  V30 5275 H 596.851 3.05403 -0.643075 0
M  V30 5276 N 597.152 0.631951 1.44375 0
M  V30 5277 C 598.401 0.134214 2.01253 0
M  V30 5278 C 598.714 -1.25171 1.50305 0
M  V30 5279 O 599.92 -1.8435 1.99317 0
M  V30 5280 C 598.376 0.189187 3.59402 0
M  V30 5281 C 597.984 1.57647 4.19346 0
M  V30 5282 C 599.728 -0.252044 4.23751 0
M  V30 5283 C 597.635 1.58651 5.69722 0
M  V30 5284 H 596.565 0.0464101 0.75257 0
M  V30 5285 H 599.216 0.790868 1.65582 0
M  V30 5286 H 597.598 -0.534584 3.92375 0
M  V30 5287 H 598.772 2.32389 3.97909 0
M  V30 5288 H 597.087 1.96186 3.67288 0
M  V30 5289 H 599.684 -0.264084 5.34047 0
M  V30 5290 H 600.027 -1.27951 3.96149 0
M  V30 5291 H 600.56 0.41926 3.95584 0
M  V30 5292 H 597.299 2.59237 6.0206 0
M  V30 5293 H 596.819 0.882039 5.93279 0
M  V30 5294 H 598.498 1.32082 6.33375 0
M  V30 5295 N 598.631 -1.53133 0.372548 0
M  V30 5296 C 599.594 -2.24569 -0.458389 0
M  V30 5297 C 600.594 -1.25603 -1.00402 0
M  V30 5298 O 601.784 -1.49827 -0.888672 0
M  V30 5299 C 598.916 -2.98783 -1.6414 0
M  V30 5300 H 600.109 -2.99436 0.166799 0
M  V30 5301 H 597.662 -1.55805 0.124357 0
M  V30 5302 H 598.397 -2.28176 -2.30448 0
M  V30 5303 H 598.182 -3.71404 -1.25704 0
M  V30 5304 H 599.672 -3.53068 -2.23008 0
M  V30 5305 N 600.109 -0.101901 -1.5727 0
M  V30 5306 C 601.357 0.559091 -1.94213 0
M  V30 5307 C 601.678 1.68297 -0.984948 0
M  V30 5308 O 600.948 1.95863 -0.0381975 0
M  V30 5309 H 599.528 0.20952 -0.717015 0
M  V30 5310 H 602.19 -0.166831 -1.94185 0
M  V30 5311 H 601.286 0.96485 -2.96811 0
M  V30 5312 N 601.587 1.56661 0.17182 0
M  V30 5313 C 602.55 1.9549 1.19651 0
M  V30 5314 C 603.55 0.838501 1.37207 0
M  V30 5315 O 604.74 1.10556 1.34622 0
M  V30 5316 C 601.872 2.24927 2.56166 0
M  V30 5317 H 603.065 2.87184 0.864007 0
M  V30 5318 H 600.618 1.50711 0.41425 0
M  V30 5319 H 601.353 1.35944 2.94431 0
M  V30 5320 H 601.138 3.06301 2.4479 0
M  V30 5321 H 602.628 2.55891 3.30014 0
M  V30 5322 N 603.065 -0.440357 1.51323 0
M  V30 5323 C 604.476 -1.02032 1.56353 0
M  V30 5324 C 604.827 -1.92382 0.385197 0
M  V30 5325 O 603.952 -2.10583 -0.498373 0
M  V30 5326 C 604.547 -1.85723 2.83359 0
M  V30 5327 C 603.106 -2.38774 2.90971 0
M  V30 5328 C 602.253 -1.17908 2.50984 0
M  V30 5329 H 605.204 -0.221744 1.57143 0
M  V30 5330 H 605.225 -2.71141 2.66951 0
M  V30 5331 H 604.737 -1.19939 3.69102 0
M  V30 5332 H 602.838 -3.08021 2.09651 0
M  V30 5333 H 602.951 -2.71778 3.94555 0
M  V30 5334 H 601.315 -1.52347 2.04114 0
M  V30 5335 H 602.098 -0.537393 3.39068 0
M  V30 5336 N 604.543 -1.41418 -0.695603 0
M  V30 5337 C 605.791 -1.40496 -1.45277 0
M  V30 5338 C 606.112 -0.0149538 -1.94994 0
M  V30 5339 O 605.382 0.9432 -1.71699 0
M  V30 5340 H 603.962 -0.517147 -0.539044 0
M  V30 5341 H 606.624 -1.76656 -0.823321 0
M  V30 5342 H 605.72 -2.09214 -2.31595 0
M  V30 5343 N 606.021 0.929856 -1.27246 0
M  V30 5344 C 607.268 1.67731 -1.13457 0
M  V30 5345 C 607.596 1.9185 0.319998 0
M  V30 5346 O 606.851 1.50524 1.25064 0
M  V30 5347 C 607.15 3.05116 -1.86115 0
M  V30 5348 C 606.816 3.00715 -3.35978 0
M  V30 5349 C 605.478 2.99222 -3.76855 0
M  V30 5350 C 607.83 2.92168 -4.3161 0
M  V30 5351 C 605.158 2.86962 -5.11732 0
M  V30 5352 C 607.51 2.81449 -5.66542 0
M  V30 5353 C 606.174 2.78305 -6.06715 0
M  V30 5354 H 605.444 0.613772 -0.415168 0
M  V30 5355 H 608.091 1.08456 -1.57827 0
M  V30 5356 H 606.396 3.68083 -1.34246 0
M  V30 5357 H 608.093 3.61822 -1.72876 0
M  V30 5358 H 604.683 3.02664 -3.03468 0
M  V30 5359 H 608.867 2.92421 -4.01003 0
M  V30 5360 H 604.123 2.82913 -5.42006 0
M  V30 5361 H 608.297 2.738 -6.40317 0
M  V30 5362 H 605.924 2.68561 -7.11181 0
M  V30 5363 N 607.499 1.09233 1.13605 0
M  V30 5364 C 608.91 0.846839 1.6639 0
M  V30 5365 C 609.261 -0.625031 1.85978 0
M  V30 5366 O 608.386 -1.48173 1.57714 0
M  V30 5367 C 608.981 1.5307 3.0225 0
M  V30 5368 C 607.54 1.33223 3.52035 0
M  V30 5369 C 606.687 1.58806 2.27323 0
M  V30 5370 H 609.638 1.25175 0.975541 0
M  V30 5371 H 609.659 0.96267 3.68121 0
M  V30 5372 H 609.171 2.60192 2.87961 0
M  V30 5373 H 607.272 0.282091 3.71531 0
M  V30 5374 H 607.385 2.0657 4.32279 0
M  V30 5375 H 605.749 1.01007 2.33815 0
M  V30 5376 H 606.532 2.67153 2.15602 0
M  V30 5377 N 608.977 -1.30795 0.87923 0
M  V30 5378 C 610.225 -1.95974 0.493809 0
M  V30 5379 C 610.546 -1.69787 -0.959021 0
M  V30 5380 O 609.816 -1.01832 -1.67353 0
M  V30 5381 H 608.396 -0.725083 0.179622 0
M  V30 5382 H 611.058 -1.59432 1.12105 0
M  V30 5383 H 610.154 -3.05058 0.659263 0
M  V30 5384 N 610.455 -0.639598 -1.44038 0
M  V30 5385 C 611.418 0.0506628 -2.29144 0
M  V30 5386 C 612.418 0.764001 -1.41491 0
M  V30 5387 O 613.608 0.607309 -1.63271 0
M  V30 5388 C 610.74 1.0824 -3.2326 0
M  V30 5389 H 611.933 -0.697987 -2.91664 0
M  V30 5390 H 609.486 -0.400146 -1.51091 0
M  V30 5391 H 610.221 1.86075 -2.65606 0
M  V30 5392 H 610.006 0.574725 -3.87865 0
M  V30 5393 H 611.496 1.56487 -3.87171 0
M  V30 5394 N 611.933 1.52934 -0.380664 0
M  V30 5395 C 613.349 1.59571 -0.0302429 0
M  V30 5396 C 613.549 1.39509 1.45394 0
M  V30 5397 O 612.605 1.20777 2.21741 0
M  V30 5398 C 613.918 2.96519 -0.499691 0
M  V30 5399 C 615.466 3.09672 -0.455204 0
M  V30 5400 C 615.941 4.49056 -0.900703 0
M  V30 5401 N 617.432 4.55215 -0.856367 0
M  V30 5402 C 618.167 5.61282 -1.17259 0
M  V30 5403 N 617.663 6.75035 -1.55885 0
M  V30 5404 N 619.456 5.51343 -1.0944 0
M  V30 5405 H 611.607 1.64224 -1.347 0
M  V30 5406 H 613.87 0.771033 -0.551554 0
M  V30 5407 H 613.576 3.16388 -1.53595 0
M  V30 5408 H 613.45 3.77052 0.105789 0
M  V30 5409 H 615.837 2.89504 0.571949 0
M  V30 5410 H 615.918 2.31113 -1.09638 0
M  V30 5411 H 615.562 4.69964 -1.92604 0
M  V30 5412 H 615.492 5.26068 -0.236629 0
M  V30 5413 H 617.983 3.73546 -0.572013 0
M  V30 5414 H 618.296 7.51926 -1.784 0
M  V30 5415 H 616.641 6.76388 -1.59764 0
M  V30 5416 H 619.832 4.61356 -0.791713 0
M  V30 5417 H 620.005 6.33905 -1.34417 0
M  V30 5418 N 613.412 0.11024 1.57214 0
M  V30 5419 C 614.66 -0.548783 1.94506 0
M  V30 5420 C 614.981 -1.67772 0.99386 0
M  V30 5421 O 614.251 -1.9584 0.0485841 0
M  V30 5422 H 612.831 -0.205715 0.718116 0
M  V30 5423 H 615.493 0.177127 1.94093 0
M  V30 5424 H 614.589 -0.949096 2.97319 0
M  V30 5425 N 614.89 -1.56749 -0.16351 0
M  V30 5426 C 616.301 -1.72039 -0.725216 0
M  V30 5427 C 616.652 -0.72202 -1.82432 0
M  V30 5428 O 615.777 0.114942 -2.16095 0
M  V30 5429 C 616.372 -3.11932 -1.32227 0
M  V30 5430 C 614.931 -3.28879 -1.83072 0
M  V30 5431 C 614.078 -2.67984 -0.712716 0
M  V30 5432 H 617.029 -1.58579 0.0619772 0
M  V30 5433 H 617.05 -3.11015 -2.19202 0
M  V30 5434 H 616.562 -3.84572 -0.522103 0
M  V30 5435 H 614.663 -2.61209 -2.65708 0
M  V30 5436 H 614.776 -4.36688 -1.97079 0
M  V30 5437 H 613.14 -2.28005 -1.13515 0
M  V30 5438 H 613.923 -3.43216 0.0757361 0
M  V30 5439 N 616.368 0.432326 -1.51554 0
M  V30 5440 C 617.593 1.20824 -1.68571 0
M  V30 5441 C 618.018 1.84126 -0.384596 0
M  V30 5442 O 617.376 1.69025 0.655751 0
M  V30 5443 C 617.424 2.26429 -2.80646 0
M  V30 5444 O 616.528 3.32032 -2.44598 0
M  V30 5445 H 615.869 0.353765 -0.561913 0
M  V30 5446 H 618.399 0.509916 -1.98144 0
M  V30 5447 H 618.409 2.71133 -3.04878 0
M  V30 5448 H 617.084 1.79733 -3.75058 0
M  V30 5449 H 615.661 2.92769 -2.30956 0
M  V30 5450 N 617.846 1.41785 0.688094 0
M  V30 5451 C 619.094 1.41264 1.4453 0
M  V30 5452 C 619.415 0.0252946 1.94984 0
M  V30 5453 O 618.685 -0.934081 1.72197 0
M  V30 5454 H 617.265 0.519998 0.536294 0
M  V30 5455 H 619.927 1.7709 0.813941 0
M  V30 5456 H 619.023 2.10439 2.30482 0
M  V30 5457 N 619.324 -0.923095 1.27737 0
M  V30 5458 C 620.735 -1.48626 1.12993 0
M  V30 5459 C 621.086 -1.94142 -0.283439 0
M  V30 5460 O 620.211 -1.81605 -1.17681 0
M  V30 5461 C 620.806 -2.70117 2.04505 0
M  V30 5462 C 619.365 -3.22642 1.93853 0
M  V30 5463 C 618.512 -1.95368 1.96791 0
M  V30 5464 H 621.463 -0.736737 1.40563 0
M  V30 5465 H 621.484 -3.4506 1.60356 0
M  V30 5466 H 620.996 -2.36959 3.07363 0
M  V30 5467 H 619.097 -3.60549 0.939968 0
M  V30 5468 H 619.21 -3.88525 2.80331 0
M  V30 5469 H 617.574 -2.12061 1.41076 0
M  V30 5470 H 618.357 -1.64517 3.01312 0
M  V30 5471 N 620.802 -1.09834 -1.13024 0
M  V30 5472 C 621.734 -0.699379 -2.18269 0
M  V30 5473 C 622.747 0.260841 -1.60697 0
M  V30 5474 O 623.936 0.0462538 -1.7844 0
M  V30 5475 C 621.036 -0.0104537 -3.38898 0
M  V30 5476 C 620.209 -0.993275 -4.25973 0
M  V30 5477 C 619.268 -0.336982 -5.2512 0
M  V30 5478 O 618.294 -0.985892 -5.60597 0
M  V30 5479 N 619.496 0.90716 -5.73368 0
M  V30 5480 H 622.261 -1.60486 -2.5311 0
M  V30 5481 H 619.822 -0.986337 -1.28386 0
M  V30 5482 H 621.814 0.43991 -4.02302 0
M  V30 5483 H 620.384 0.797335 -3.0226 0
M  V30 5484 H 619.604 -1.62208 -3.5928 0
M  V30 5485 H 620.892 -1.65876 -4.81002 0
M  V30 5486 H 620.29 1.45384 -5.46699 0
M  V30 5487 H 618.847 1.30077 -6.38689 0
M  V30 5488 N 622.28 1.30327 -0.886154 0
M  V30 5489 C 623.528 1.9571 -0.504195 0
M  V30 5490 C 623.849 1.70294 0.950003 0
M  V30 5491 O 623.119 1.02718 1.66811 0
M  V30 5492 H 621.699 0.72412 -0.183465 0
M  V30 5493 H 624.361 1.58835 -1.12949 0
M  V30 5494 H 623.457 3.04704 -0.675431 0
M  V30 5495 N 623.758 0.647228 1.43697 0
M  V30 5496 C 625.169 0.238689 1.85168 0
M  V30 5497 C 625.52 -1.21345 1.54175 0
M  V30 5498 O 624.645 -1.92542 0.987743 0
M  V30 5499 C 625.24 0.426422 3.36106 0
M  V30 5500 C 623.799 0.0722541 3.76331 0
M  V30 5501 C 622.946 0.732153 2.6746 0
M  V30 5502 H 625.897 0.851309 1.33934 0
M  V30 5503 H 625.918 -0.32987 3.79067 0
M  V30 5504 H 625.43 1.48339 3.58632 0
M  V30 5505 H 623.531 -0.982355 3.59417 0
M  V30 5506 H 623.644 0.493541 4.76551 0
M  V30 5507 H 622.008 0.16594 2.54159 0
M  V30 5508 H 622.791 1.79204 2.92816 0
M  V30 5509 N 625.236 -1.5273 0.388769 0
M  V30 5510 C 626.484 -2.01174 -0.193208 0
M  V30 5511 C 626.805 -1.27705 -1.47365 0
M  V30 5512 O 626.075 -0.396966 -1.91836 0
M  V30 5513 H 624.655 -0.743287 -0.0743871 0
M  V30 5514 H 627.317 -1.87826 0.520336 0
M  V30 5515 H 626.413 -3.09477 -0.403803 0
M  V30 5516 N 626.714 -0.118576 -1.57153 0
M  V30 5517 C 627.962 0.538461 -1.94795 0
M  V30 5518 C 628.283 1.67243 -1.00274 0
M  V30 5519 O 627.553 1.95811 -0.0589692 0
M  V30 5520 H 626.133 0.201904 -0.719197 0
M  V30 5521 H 628.795 -0.187418 -1.93997 0
M  V30 5522 H 627.891 0.933315 -2.97818 0
M  V30 5523 N 628.193 1.56834 0.155195 0
M  V30 5524 C 629.604 1.72421 0.716082 0
M  V30 5525 C 629.955 0.731685 1.82046 0
M  V30 5526 O 629.08 -0.103481 2.16152 0
M  V30 5527 C 629.675 3.12629 1.30571 0
M  V30 5528 C 628.234 3.29846 1.81325 0
M  V30 5529 C 627.381 2.68359 0.698494 0
M  V30 5530 H 630.332 1.58544 -0.0703861 0
M  V30 5531 H 630.353 3.12174 2.1755 0
M  V30 5532 H 629.865 3.84844 0.501701 0
M  V30 5533 H 627.966 2.62614 2.64319 0
M  V30 5534 H 628.079 4.37727 1.9476 0
M  V30 5535 H 626.443 2.28604 1.12305 0
M  V30 5536 H 627.226 3.43171 -0.0939366 0
M  V30 5537 N 629.671 -0.424282 1.51781 0
M  V30 5538 C 631.082 -1.00368 1.57427 0
M  V30 5539 C 631.433 -1.91962 0.40558 0
M  V30 5540 O 630.558 -2.111 -0.47601 0
M  V30 5541 C 631.153 -1.82707 2.85313 0
M  V30 5542 C 629.712 -2.35675 2.93487 0
M  V30 5543 C 628.859 -1.1524 2.5222 0
M  V30 5544 H 631.81 -0.205064 1.5737 0
M  V30 5545 H 631.831 -2.68294 2.69812 0
M  V30 5546 H 631.343 -1.16017 3.70353 0
M  V30 5547 H 629.444 -3.05781 2.12906 0
M  V30 5548 H 629.557 -2.67578 3.97415 0
M  V30 5549 H 627.921 -1.50174 2.05718 0
M  V30 5550 H 628.704 -0.5014 3.39619 0
M  V30 5551 N 631.149 -1.42148 -0.680565 0
M  V30 5552 C 632.397 -1.42029 -1.43779 0
M  V30 5553 C 632.718 -0.0356347 -1.94967 0
M  V30 5554 O 631.988 0.924936 -1.7269 0
M  V30 5555 H 630.568 -0.522835 -0.533529 0
M  V30 5556 H 633.23 -1.7752 -0.804538 0
M  V30 5557 H 632.326 -2.11658 -2.29363 0
M  V30 5558 N 632.627 0.916307 -1.28225 0
M  V30 5559 C 634.038 1.48024 -1.13779 0
M  V30 5560 C 634.389 1.94289 0.273139 0
M  V30 5561 O 633.514 1.82226 1.16716 0
M  V30 5562 C 634.109 2.69029 -2.05935 0
M  V30 5563 C 632.668 3.2161 -1.95561 0
M  V30 5564 C 631.815 1.94321 -1.97825 0
M  V30 5565 H 634.766 0.729272 -1.40951 0
M  V30 5566 H 634.787 3.44204 -1.62184 0
M  V30 5567 H 634.299 2.35325 -3.08616 0
M  V30 5568 H 632.4 3.60045 -0.959076 0
M  V30 5569 H 632.513 3.87032 -2.82388 0
M  V30 5570 H 630.877 2.1131 -1.42198 0
M  V30 5571 H 631.66 1.62917 -3.0218 0
M  V30 5572 N 634.105 1.10431 1.1244 0
M  V30 5573 C 635.052 0.753103 2.18167 0
M  V30 5574 C 636.022 -0.270549 1.63882 0
M  V30 5575 O 637.207 -0.149837 1.90211 0
M  V30 5576 C 634.347 0.191046 3.44571 0
M  V30 5577 C 633.46 1.26999 4.12911 0
M  V30 5578 C 632.595 0.669586 5.26963 0
M  V30 5579 C 631.634 1.72912 5.87169 0
M  V30 5580 N 630.771 1.14898 6.92635 0
M  V30 5581 H 635.611 1.65892 2.47556 0
M  V30 5582 H 633.148 0.828631 1.21541 0
M  V30 5583 H 635.106 -0.152712 4.1692 0
M  V30 5584 H 633.736 -0.677997 3.15599 0
M  V30 5585 H 632.788 1.73087 3.3874 0
M  V30 5586 H 634.1 2.07204 4.53727 0
M  V30 5587 H 633.254 0.275274 6.06075 0
M  V30 5588 H 631.993 -0.163895 4.87425 0
M  V30 5589 H 630.998 2.13286 5.06744 0
M  V30 5590 H 632.223 2.56544 6.28778 0
M  V30 5591 H 630.169 0.336956 6.55134 0
M  V30 5592 H 630.086 1.88786 7.32049 0
M  V30 5593 H 631.354 0.78121 7.75576 0
M  V30 5594 N 635.583 -1.29855 0.893053 0
M  V30 5595 C 636.831 -1.9544 0.514566 0
M  V30 5596 C 637.152 -1.70795 -0.940959 0
M  V30 5597 O 636.422 -1.03601 -1.66264 0
M  V30 5598 H 635.002 -0.723137 0.187302 0
M  V30 5599 H 637.664 -1.58234 1.13789 0
M  V30 5600 H 636.76 -3.04341 0.691581 0
M  V30 5601 N 637.061 -0.65484 -1.43351 0
M  V30 5602 C 638.009 0.0476784 -2.32551 0
M  V30 5603 C 639.003 0.811403 -1.48703 0
M  V30 5604 O 640.209 0.721621 -1.64902 0
M  V30 5605 H 636.584 0.0342038 -0.751222 0
M  V30 5606 H 638.555 -0.722342 -2.89525 0
M  V30 5607 C 637.304 0.999251 -3.33032 0
M  V30 5608 H 636.627 0.421005 -3.97577 0
M  V30 5609 H 638.067 1.45986 -3.98076 0
M  V30 5610 C 636.526 2.09606 -2.63756 0
M  V30 5611 O 637.056 3.18004 -2.4543 0
M  V30 5612 N 635.262 1.86207 -2.23103 0
M  V30 5613 H 634.809 0.980555 -2.38208 0
M  V30 5614 H 634.767 2.59787 -1.77081 0
M  V30 5615 N 638.539 1.52521 -0.396863 0
M  V30 5616 C 639.764 2.06571 0.185258 0
M  V30 5617 C 640.189 1.26605 1.39115 0
M  V30 5618 O 639.547 0.293055 1.78916 0
M  V30 5619 C 639.595 3.5674 0.526189 0
M  V30 5620 O 638.699 3.7929 1.61903 0
M  V30 5621 H 638.04 0.663712 0.0195474 0
M  V30 5622 H 640.57 1.966 -0.566519 0
M  V30 5623 H 640.58 4.00311 0.788338 0
M  V30 5624 H 639.255 4.14379 -0.355397 0
M  V30 5625 H 637.832 3.47605 1.35 0
M  V30 5626 N 640.017 0.126909 1.57088 0
M  V30 5627 C 641.265 -0.528123 1.95078 0
M  V30 5628 C 641.586 -1.66708 1.0116 0
M  V30 5629 O 640.856 -1.95777 0.0693527 0
M  V30 5630 H 639.436 -0.198087 0.720257 0
M  V30 5631 H 642.098 0.197703 1.93895 0
M  V30 5632 H 641.194 -0.917507 2.98309 0
M  V30 5633 N 641.495 -1.56914 -0.146875 0
M  V30 5634 C 642.405 -2.0154 -1.20079 0
M  V30 5635 C 643.421 -0.930838 -1.47008 0
M  V30 5636 O 644.597 -1.24032 -1.58676 0
M  V30 5637 C 641.662 -2.38715 -2.51428 0
M  V30 5638 C 640.723 -3.6112 -2.32145 0
M  V30 5639 C 639.956 -3.96512 -3.57231 0
M  V30 5640 O 640.179 -3.32566 -4.63418 0
M  V30 5641 O 639.113 -4.89758 -3.49887 0
M  V30 5642 H 642.939 -2.91506 -0.851924 0
M  V30 5643 H 640.524 -1.45106 -0.355607 0
M  V30 5644 H 642.406 -2.63485 -3.28867 0
M  V30 5645 H 641.081 -1.51903 -2.85845 0
M  V30 5646 H 639.988 -3.41536 -1.52656 0
M  V30 5647 H 641.321 -4.48549 -2.02644 0
M  V30 5648 N 642.974 0.416227 -1.52004 0
M  V30 5649 C 644.385 0.995319 -1.57957 0
M  V30 5650 C 644.736 1.91744 -0.415754 0
M  V30 5651 O 643.861 2.11349 0.464808 0
M  V30 5652 C 644.456 1.81191 -2.86278 0
M  V30 5653 C 643.015 2.34115 -2.94732 0
M  V30 5654 C 642.162 1.139 -2.52828 0
M  V30 5655 H 645.113 0.196716 -1.57476 0
M  V30 5656 H 645.134 2.66859 -2.71231 0
M  V30 5657 H 644.646 1.14051 -3.70963 0
M  V30 5658 H 642.747 3.04647 -2.14525 0
M  V30 5659 H 642.86 2.65466 -3.98829 0
M  V30 5660 H 641.224 1.49081 -2.06511 0
M  V30 5661 H 642.007 0.483383 -3.3988 0
M  V30 5662 N 644.452 1.42507 0.673017 0
M  V30 5663 C 645.7 1.42789 1.43023 0
M  V30 5664 C 646.021 0.0459738 1.94946 0
M  V30 5665 O 645.291 -0.915765 1.73178 0
M  V30 5666 H 643.871 0.525657 0.530748 0
M  V30 5667 H 646.533 1.77944 0.795113 0
M  V30 5668 H 645.629 2.12872 2.28237 0
M  V30 5669 N 645.93 -0.909495 1.28709 0
M  V30 5670 C 646.893 -1.99399 1.13016 0
M  V30 5671 C 647.893 -1.60654 0.068536 0
M  V30 5672 O 649.083 -1.71334 0.314671 0
M  V30 5673 C 646.215 -3.33078 0.726085 0
M  V30 5674 H 647.408 -2.14751 2.09338 0
M  V30 5675 H 644.961 -1.09272 1.11756 0
M  V30 5676 H 645.696 -3.23428 -0.23771 0
M  V30 5677 H 645.481 -3.62562 1.49302 0
M  V30 5678 H 646.971 -4.12681 0.639058 0
M  V30 5679 N 647.408 -1.11026 -1.11852 0
M  V30 5680 C 648.819 -0.873203 -1.65021 0
M  V30 5681 C 649.17 0.595364 -1.86949 0
M  V30 5682 O 648.295 1.45645 -1.60051 0
M  V30 5683 C 648.89 -1.57859 -2.99777 0
M  V30 5684 C 647.449 -1.38807 -3.49871 0
M  V30 5685 C 646.596 -1.62403 -2.24768 0
M  V30 5686 H 649.547 -1.26712 -0.955503 0
M  V30 5687 H 649.568 -1.02111 -3.66543 0
M  V30 5688 H 649.08 -2.6474 -2.83786 0
M  V30 5689 H 647.181 -0.341163 -3.71035 0
M  V30 5690 H 647.294 -2.13421 -4.28938 0
M  V30 5691 H 645.658 -1.04714 -2.32179 0
M  V30 5692 H 646.441 -2.70549 -2.11324 0
M  V30 5693 N 648.886 1.2938 -0.899927 0
M  V30 5694 C 650.134 1.95164 -0.524924 0
M  V30 5695 C 650.455 1.71292 0.931888 0
M  V30 5696 O 649.725 1.04481 1.65712 0
M  V30 5697 H 648.305 0.722133 -0.191135 0
M  V30 5698 H 650.967 1.57628 -1.14627 0
M  V30 5699 H 650.063 3.0397 -0.707711 0
M  V30 5700 N 650.364 0.662433 1.43002 0
M  V30 5701 C 651.589 0.186003 2.06564 0
M  V30 5702 C 652.014 -1.14314 1.49379 0
M  V30 5703 O 651.372 -1.70824 0.607346 0
M  V30 5704 C 651.42 0.118269 3.60406 0
M  V30 5705 O 650.524 -0.916859 4.02079 0
M  V30 5706 H 649.865 0.0990981 0.656563 0
M  V30 5707 H 652.395 0.907958 1.8335 0
M  V30 5708 H 652.405 -0.0619981 4.07953 0
M  V30 5709 H 651.08 1.08849 4.01403 0
M  V30 5710 H 649.657 -0.708635 3.66105 0
M  V30 5711 N 651.842 -1.52309 0.404946 0
M  V30 5712 C 652.789 -2.26898 -0.422597 0
M  V30 5713 C 653.759 -1.2914 -1.04461 0
M  V30 5714 O 654.944 -1.57996 -1.06967 0
M  V30 5715 C 652.084 -3.09053 -1.53559 0
M  V30 5716 C 651.197 -4.21762 -0.934908 0
M  V30 5717 C 650.332 -4.91283 -2.02025 0
M  V30 5718 C 649.371 -5.95962 -1.39628 0
M  V30 5719 N 648.508 -6.59017 -2.42159 0
M  V30 5720 H 653.348 -2.97188 0.219903 0
M  V30 5721 H 650.885 -1.46607 0.120282 0
M  V30 5722 H 652.843 -3.54987 -2.19181 0
M  V30 5723 H 651.473 -2.40942 -2.14818 0
M  V30 5724 H 650.525 -3.80029 -0.167854 0
M  V30 5725 H 651.837 -4.96864 -0.439073 0
M  V30 5726 H 650.991 -5.40601 -2.75383 0
M  V30 5727 H 649.73 -4.15741 -2.54973 0
M  V30 5728 H 648.735 -5.45968 -0.648023 0
M  V30 5729 H 649.96 -6.73445 -0.874553 0
M  V30 5730 H 647.906 -5.86306 -2.94247 0
M  V30 5731 H 647.823 -7.2978 -1.97376 0
M  V30 5732 H 649.091 -7.12974 -3.15099 0
M  V30 5733 N 653.32 -0.135238 -1.57019 0
M  V30 5734 C 654.568 0.51777 -1.95355 0
M  V30 5735 C 654.889 1.6617 -1.02042 0
M  V30 5736 O 654.159 1.95738 -0.0797343 0
M  V30 5737 H 652.739 0.194264 -0.721298 0
M  V30 5738 H 655.401 -0.207983 -1.93787 0
M  V30 5739 H 654.497 0.901675 -2.98791 0
M  V30 5740 N 654.798 1.5699 0.138552 0
M  V30 5741 C 656.075 1.74741 0.87891 0
M  V30 5742 C 656.455 0.705522 1.98961 0
M  V30 5743 O 655.803 -0.274066 2.2685 0
M  V30 5744 C 656.013 3.1909 1.4136 0
M  V30 5745 C 657.361 3.81023 1.87368 0
M  V30 5746 O 658.385 3.22571 1.51084 0
M  V30 5747 O 657.244 4.83722 2.54312 0
M  V30 5748 H 654.338 0.714781 0.415953 0
M  V30 5749 H 656.884 1.69248 0.123817 0
M  V30 5750 H 655.656 3.86424 0.61579 0
M  V30 5751 H 655.279 3.29043 2.23196 0
M  V30 5752 N 656.276 -0.40816 1.52223 0
M  V30 5753 C 657.504 -1.17672 1.70179 0
M  V30 5754 C 657.919 -1.84257 0.411696 0
M  V30 5755 O 657.276 -1.7192 -0.612354 0
M  V30 5756 C 657.327 -2.23911 2.83806 0
M  V30 5757 O 657.048 -1.60044 4.0782 0
M  V30 5758 C 658.549 -3.1364 3.13281 0
M  V30 5759 H 655.769 -0.353562 0.570293 0
M  V30 5760 H 658.313 -0.480083 1.98785 0
M  V30 5761 H 656.468 -2.89242 2.57717 0
M  V30 5762 H 656.882 -2.30484 4.71145 0
M  V30 5763 H 658.356 -3.84255 3.96298 0
M  V30 5764 H 658.833 -3.76066 2.26872 0
M  V30 5765 H 659.439 -2.53977 3.41139 0
M  V30 5766 N 657.755 -1.42862 -0.66545 0
M  V30 5767 C 659.003 -1.43546 -1.42264 0
M  V30 5768 C 659.324 -0.0563116 -1.94919 0
M  V30 5769 O 658.594 0.906568 -1.73661 0
M  V30 5770 H 657.174 -0.528464 -0.527953 0
M  V30 5771 H 659.836 -1.78363 -0.785665 0
M  V30 5772 H 658.932 -2.14079 -2.27105 0
M  V30 5773 N 659.233 0.902656 -1.29189 0
M  V30 5774 C 660.196 1.98797 -1.14071 0
M  V30 5775 C 661.196 1.60615 -0.0770549 0
M  V30 5776 O 662.386 1.71165 -0.323753 0
M  V30 5777 C 659.518 3.32688 -0.743739 0
M  V30 5778 H 660.711 2.13637 -2.10473 0
M  V30 5779 H 658.264 1.08678 -1.12334 0
M  V30 5780 H 658.999 3.23549 0.220554 0
M  V30 5781 H 658.784 3.61765 -1.51223 0
M  V30 5782 H 660.274 4.12337 -0.660935 0
M  V30 5783 N 660.711 1.11618 1.11262 0
M  V30 5784 C 661.658 0.7762 2.17356 0
M  V30 5785 C 662.628 -0.253152 1.6416 0
M  V30 5786 O 663.813 -0.129655 1.90359 0
M  V30 5787 C 660.953 0.227581 3.44349 0
M  V30 5788 C 660.066 1.31372 4.1154 0
M  V30 5789 C 659.201 0.72544 5.26223 0
M  V30 5790 C 658.24 1.7913 5.85302 0
M  V30 5791 N 657.377 1.22237 6.91377 0
M  V30 5792 H 662.217 1.68508 2.45783 0
M  V30 5793 H 659.754 0.841475 1.20655 0
M  V30 5794 H 661.712 -0.108483 4.17059 0
M  V30 5795 H 660.342 -0.644486 3.16301 0
M  V30 5796 H 659.394 1.7667 3.36885 0
M  V30 5797 H 660.706 2.12005 4.51504 0
M  V30 5798 H 659.86 0.339541 6.05749 0
M  V30 5799 H 658.599 -0.112188 4.87571 0
M  V30 5800 H 657.604 2.18648 5.04453 0
M  V30 5801 H 658.829 2.63199 6.26022 0
M  V30 5802 H 656.775 0.406423 6.5474 0
M  V30 5803 H 656.692 1.9654 7.30006 0
M  V30 5804 H 657.96 0.863426 7.74703 0
M  V30 5805 N 662.189 -1.289 0.906776 0
M  V30 5806 C 663.437 -1.94883 0.535266 0
M  V30 5807 C 663.758 -1.71784 -0.922791 0
M  V30 5808 O 663.028 -1.05359 -1.65156 0
M  V30 5809 H 661.608 -0.721109 0.194962 0
M  V30 5810 H 664.27 -1.57018 1.15461 0
M  V30 5811 H 663.366 -3.03591 0.723821 0
M  V30 5812 N 663.667 -0.670007 -1.42649 0
M  V30 5813 C 664.577 0.0114788 -2.34597 0
M  V30 5814 C 665.593 0.794055 -1.54825 0
M  V30 5815 O 666.769 0.737472 -1.87412 0
M  V30 5816 C 663.834 0.954436 -3.33304 0
M  V30 5817 C 662.895 0.166925 -4.28975 0
M  V30 5818 C 662.128 1.06497 -5.22967 0
M  V30 5819 O 662.351 2.30446 -5.21777 0
M  V30 5820 O 661.285 0.528347 -5.99577 0
M  V30 5821 H 665.111 -0.745794 -2.944 0
M  V30 5822 H 662.696 -0.430228 -1.43071 0
M  V30 5823 H 664.578 1.49589 -3.93956 0
M  V30 5824 H 663.253 1.69164 -2.7598 0
M  V30 5825 H 662.16 -0.418515 -3.71752 0
M  V30 5826 H 663.493 -0.531067 -4.89327 0
M  V30 5827 N 665.145 1.52092 -0.413018 0
M  V30 5828 C 666.556 1.86617 0.0556967 0
M  V30 5829 C 666.907 1.33156 1.44097 0
M  V30 5830 O 666.032 0.672417 2.05688 0
M  V30 5831 C 666.627 3.38628 0.107844 0
M  V30 5832 C 665.186 3.72778 0.520904 0
M  V30 5833 C 664.333 2.75649 -0.302109 0
M  V30 5834 H 667.284 1.45663 -0.629919 0
M  V30 5835 H 667.305 3.69152 0.922324 0
M  V30 5836 H 666.817 3.77508 -0.900506 0
M  V30 5837 H 664.918 3.39478 1.53575 0
M  V30 5838 H 665.031 4.7838 0.262591 0
M  V30 5839 H 663.395 2.53603 0.236115 0
M  V30 5840 H 664.178 3.17369 -1.30888 0
M  V30 5841 N 666.623 0.143563 1.56945 0
M  V30 5842 C 667.871 -0.507402 1.95627 0
M  V30 5843 C 668.192 -1.65626 1.02922 0
M  V30 5844 O 667.462 -1.95693 0.0901136 0
M  V30 5845 H 666.042 -0.190436 0.722318 0
M  V30 5846 H 668.704 0.218257 1.93674 0
M  V30 5847 H 667.8 -0.885816 2.99265 0
M  V30 5848 N 668.101 -1.57061 -0.130224 0
M  V30 5849 C 669.512 -1.73539 -0.68856 0
M  V30 5850 C 669.863 -0.760554 -1.80859 0
M  V30 5851 O 668.988 0.0690796 -2.1629 0
M  V30 5852 C 669.583 -3.14666 -1.25581 0
M  V30 5853 C 668.142 -3.32689 -1.76055 0
M  V30 5854 C 667.289 -2.69436 -0.655712 0
M  V30 5855 H 670.24 -1.58412 0.0956002 0
M  V30 5856 H 670.261 -3.15595 -2.12556 0
M  V30 5857 H 669.773 -3.85593 -0.440412 0
M  V30 5858 H 667.874 -2.66786 -2.60108 0
M  V30 5859 H 667.987 -4.4077 -1.87772 0
M  V30 5860 H 666.351 -2.30362 -1.08654 0
M  V30 5861 H 667.134 -3.42979 0.14852 0
M  V30 5862 N 669.579 0.400081 -1.52437 0
M  V30 5863 C 670.825 1.14788 -1.67187 0
M  V30 5864 C 671.158 1.89928 -0.405074 0
M  V30 5865 O 670.433 1.85118 0.596804 0
M  V30 5866 C 670.716 2.13507 -2.89977 0
M  V30 5867 C 670.569 1.42204 -4.2673 0
M  V30 5868 C 671.888 3.14069 -3.083 0
M  V30 5869 H 669.007 0.415939 -0.608411 0
M  V30 5870 H 671.649 0.432542 -1.85011 0
M  V30 5871 H 669.799 2.7451 -2.74912 0
M  V30 5872 H 671.471 0.842503 -4.53541 0
M  V30 5873 H 669.714 0.723939 -4.27717 0
M  V30 5874 H 670.385 2.14281 -5.08712 0
M  V30 5875 H 672.861 2.63148 -3.22323 0
M  V30 5876 H 671.737 3.80398 -3.95713 0
M  V30 5877 H 671.998 3.82309 -2.22018 0
M  V30 5878 N 671.057 1.43213 0.657864 0
M  V30 5879 C 672.305 1.44298 1.41501 0
M  V30 5880 C 672.626 0.0666478 1.94886 0
M  V30 5881 O 671.896 -0.897345 1.74139 0
M  V30 5882 H 670.476 0.531257 0.525143 0
M  V30 5883 H 673.138 1.78777 0.776195 0
M  V30 5884 H 672.234 2.1528 2.25966 0
M  V30 5885 N 672.536 -0.895792 1.29666 0
M  V30 5886 C 673.782 -1.64908 1.18039 0
M  V30 5887 C 674.115 -1.9236 -0.266682 0
M  V30 5888 O 673.39 -1.53682 -1.19214 0
M  V30 5889 C 673.673 -2.99574 1.99819 0
M  V30 5890 C 673.526 -2.79163 3.52687 0
M  V30 5891 C 674.845 -4.00358 1.82761 0
M  V30 5892 H 671.964 -0.598437 0.430165 0
M  V30 5893 H 674.606 -1.03736 1.59182 0
M  V30 5894 H 672.756 -3.51786 1.64859 0
M  V30 5895 H 674.428 -2.33821 3.9765 0
M  V30 5896 H 672.671 -2.13871 3.77414 0
M  V30 5897 H 673.342 -3.74871 4.05186 0
M  V30 5898 H 675.818 -3.57268 2.13304 0
M  V30 5899 H 674.694 -4.92514 2.42325 0
M  V30 5900 H 674.955 -4.35096 0.783839 0
M  V30 5901 N 674.014 -1.12206 -1.10668 0
M  V30 5902 C 674.946 -0.74552 -2.16736 0
M  V30 5903 C 675.959 0.226696 -1.61214 0
M  V30 5904 O 677.148 0.0083936 -1.78498 0
M  V30 5905 C 674.248 -0.0823368 -3.388 0
M  V30 5906 C 673.421 -1.08341 -4.2377 0
M  V30 5907 C 672.48 -0.448292 -5.24287 0
M  V30 5908 O 671.506 -1.10458 -5.58379 0
M  V30 5909 N 672.708 0.785336 -5.75163 0
M  V30 5910 H 675.473 -1.65818 -2.49649 0
M  V30 5911 H 673.034 -1.01335 -1.26265 0
M  V30 5912 H 675.026 0.354476 -4.03145 0
M  V30 5913 H 673.596 0.733041 -3.03884 0
M  V30 5914 H 672.816 -1.69792 -3.55759 0
M  V30 5915 H 674.104 -1.76042 -4.77375 0
M  V30 5916 H 673.502 1.33755 -5.4966 0
M  V30 5917 H 672.059 1.16501 -6.41304 0
M  V30 5918 N 675.492 1.28418 -0.913599 0
M  V30 5919 C 676.74 1.94596 -0.545594 0
M  V30 5920 C 677.061 1.7227 0.913668 0
M  V30 5921 O 676.331 1.06233 1.64595 0
M  V30 5922 H 674.911 0.720065 -0.198783 0
M  V30 5923 H 677.573 1.56404 -1.16292 0
M  V30 5924 H 676.669 3.03202 -0.739911 0
M  V30 5925 N 676.97 0.677563 1.42291 0
M  V30 5926 C 678.381 0.277912 1.8462 0
M  V30 5927 C 678.732 -1.18048 1.56714 0
M  V30 5928 O 677.857 -1.90404 1.02836 0
M  V30 5929 C 678.452 0.497619 3.35126 0
M  V30 5930 C 677.011 0.152063 3.76093 0
M  V30 5931 C 676.158 0.78872 2.65847 0
M  V30 5932 H 679.109 0.879527 1.32098 0
M  V30 5933 H 679.13 -0.24939 3.79682 0
M  V30 5934 H 678.642 1.55913 3.55405 0
M  V30 5935 H 676.743 -0.905896 3.6142 0
M  V30 5936 H 676.856 0.594514 4.75397 0
M  V30 5937 H 675.22 0.219813 2.5375 0
M  V30 5938 H 676.003 1.85374 2.88949 0
M  V30 5939 N 678.448 -1.51871 0.421078 0
M  V30 5940 C 679.859 -1.86644 -0.0457991 0
M  V30 5941 C 680.21 -1.33919 -1.43388 0
M  V30 5942 O 679.335 -0.683316 -2.05328 0
M  V30 5943 C 679.93 -3.38681 -0.0898844 0
M  V30 5944 C 678.489 -3.73049 -0.501127 0
M  V30 5945 C 677.636 -2.75485 0.316723 0
M  V30 5946 H 680.587 -1.45327 0.637635 0
M  V30 5947 H 680.608 -3.69636 -0.902734 0
M  V30 5948 H 680.12 -3.77025 0.920513 0
M  V30 5949 H 678.221 -3.40288 -1.51773 0
M  V30 5950 H 678.334 -4.78512 -0.237217 0
M  V30 5951 H 676.698 -2.53725 -0.222663 0
M  V30 5952 H 677.481 -3.16671 1.32569 0
M  V30 5953 N 679.926 -0.151884 -1.56866 0
M  V30 5954 C 681.174 0.497021 -1.95893 0
M  V30 5955 C 681.495 1.65078 -1.03799 0
M  V30 5956 O 680.765 1.95642 -0.10049 0
M  V30 5957 H 679.345 0.186603 -0.723318 0
M  V30 5958 H 682.007 -0.228525 -1.93556 0
M  V30 5959 H 681.103 0.869933 -2.99731 0
M  V30 5960 N 681.404 1.57128 0.121893 0
M  V30 5961 C 682.815 1.73902 0.679348 0
M  V30 5962 C 683.166 0.770135 1.80453 0
M  V30 5963 O 682.291 -0.0576083 2.16323 0
M  V30 5964 C 682.886 3.15328 1.2391 0
M  V30 5965 C 681.445 3.33618 1.74288 0
M  V30 5966 C 680.592 2.6978 0.641414 0
M  V30 5967 H 683.543 1.58359 -0.104 0
M  V30 5968 H 683.564 3.16718 2.10879 0
M  V30 5969 H 683.076 3.85821 0.419957 0
M  V30 5970 H 681.177 2.68162 2.58689 0
M  V30 5971 H 681.29 4.4176 1.85432 0
M  V30 5972 H 679.654 2.30935 1.0743 0
M  V30 5973 H 680.437 3.42895 -0.166707 0
M  V30 5974 N 682.882 -0.391992 1.52647 0
M  V30 5975 C 683.845 -1.46135 1.7657 0
M  V30 5976 C 684.845 -1.47701 0.635698 0
M  V30 5977 O 686.035 -1.48924 0.903728 0
M  V30 5978 C 683.167 -2.85443 1.86374 0
M  V30 5979 H 684.36 -1.26208 2.72051 0
M  V30 5980 H 681.913 -0.623549 1.43323 0
M  V30 5981 H 682.648 -3.10718 0.928685 0
M  V30 5982 H 682.433 -2.85708 2.68539 0
M  V30 5983 H 683.923 -3.62933 2.06566 0
M  V30 5984 N 684.36 -1.4356 -0.65026 0
M  V30 5985 C 685.608 -1.45046 -1.40734 0
M  V30 5986 C 685.929 -0.0769822 -1.94848 0
M  V30 5987 O 685.199 0.888098 -1.74613 0
M  V30 5988 H 683.779 -0.534034 -0.522318 0
M  V30 5989 H 686.441 -1.79186 -0.766703 0
M  V30 5990 H 685.537 -2.16476 -2.24822 0
M  V30 5991 N 685.838 0.888903 -1.30139 0
M  V30 5992 C 686.748 2.02705 -1.18101 0
M  V30 5993 C 687.764 1.73702 -0.101809 0
M  V30 5994 O 688.94 1.98906 -0.315984 0
M  V30 5995 C 686.005 3.35616 -0.869651 0
M  V30 5996 C 685.066 3.78067 -2.03381 0
M  V30 5997 C 684.299 5.04635 -1.73721 0
M  V30 5998 O 684.522 5.66531 -0.663267 0
M  V30 5999 O 683.456 5.43399 -2.58845 0
M  V30 6000 H 687.282 2.15788 -2.13704 0
M  V30 6001 H 684.867 1.01426 -1.09695 0
M  V30 6002 H 686.749 4.15358 -0.711043 0
M  V30 6003 H 685.424 3.23651 0.0565002 0
M  V30 6004 H 684.331 2.99046 -2.24772 0
M  V30 6005 H 685.664 3.94631 -2.94155 0
M  V30 6006 N 687.317 1.12792 1.10072 0
M  V30 6007 C 688.227 0.812369 2.20086 0
M  V30 6008 C 689.243 -0.200349 1.72843 0
M  V30 6009 O 690.419 -0.0330262 2.01373 0
M  V30 6010 C 687.484 0.275685 3.45602 0
M  V30 6011 C 686.545 1.34881 4.07561 0
M  V30 6012 C 685.778 0.837639 5.27086 0
M  V30 6013 O 686.001 -0.327224 5.69461 0
M  V30 6014 O 684.935 1.60894 5.79997 0
M  V30 6015 H 688.761 1.73133 2.49517 0
M  V30 6016 H 686.346 0.904863 1.18881 0
M  V30 6017 H 688.228 -0.0185375 4.21396 0
M  V30 6018 H 686.903 -0.615783 3.17789 0
M  V30 6019 H 685.81 1.69625 3.33434 0
M  V30 6020 H 687.143 2.21418 4.39585 0
M  V30 6021 N 688.795 -1.27931 0.920396 0
M  V30 6022 C 690.043 -1.94304 0.555906 0
M  V30 6023 C 690.364 -1.72753 -0.904519 0
M  V30 6024 O 689.634 -1.07104 -1.64029 0
M  V30 6025 H 688.214 -0.719001 0.202599 0
M  V30 6026 H 690.876 -1.55785 1.1712 0
M  V30 6027 H 689.972 -3.02806 0.755981 0
M  V30 6028 N 690.273 -0.685099 -1.4193 0
M  V30 6029 C 691.22 -0.0131869 -2.30796 0
M  V30 6030 C 692.19 0.782129 -1.46533 0
M  V30 6031 O 693.375 0.75229 -1.75343 0
M  V30 6032 C 690.515 0.924768 -3.32479 0
M  V30 6033 C 689.628 0.122181 -4.31827 0
M  V30 6034 C 688.763 1.05682 -5.20581 0
M  V30 6035 C 687.802 0.246526 -6.11603 0
M  V30 6036 N 686.939 1.13442 -6.92875 0
M  V30 6037 H 691.779 -0.776789 -2.87698 0
M  V30 6038 H 689.316 -0.394791 -1.41703 0
M  V30 6039 H 691.274 1.48251 -3.89971 0
M  V30 6040 H 689.904 1.65488 -2.77152 0
M  V30 6041 H 688.956 -0.552335 -3.76369 0
M  V30 6042 H 690.268 -0.506473 -4.96222 0
M  V30 6043 H 689.422 1.68415 -5.82856 0
M  V30 6044 H 688.161 1.71935 -4.56388 0
M  V30 6045 H 687.166 -0.393944 -5.48387 0
M  V30 6046 H 688.391 -0.412053 -6.77849 0
M  V30 6047 H 686.337 1.78316 -6.313 0
M  V30 6048 H 686.254 0.561089 -7.53915 0
M  V30 6049 H 687.522 1.74889 -7.59628 0
M  V30 6050 N 691.751 1.51645 -0.429126 0
M  V30 6051 C 693.167 1.59394 -0.080994 0
M  V30 6052 C 693.367 1.44064 1.40882 0
M  V30 6053 O 692.423 1.27771 2.17786 0
M  V30 6054 C 693.736 2.94779 -0.593773 0
M  V30 6055 C 695.284 3.08067 -0.553494 0
M  V30 6056 C 695.759 4.45963 -1.04311 0
M  V30 6057 N 697.25 4.5226 -1.00076 0
M  V30 6058 C 697.985 5.57268 -1.35056 0
M  V30 6059 N 697.481 6.69734 -1.77282 0
M  V30 6060 N 699.274 5.47582 -1.26925 0
M  V30 6061 H 691.425 1.59856 -1.39857 0
M  V30 6062 H 693.688 0.753095 -0.575805 0
M  V30 6063 H 693.394 3.11342 -1.63583 0
M  V30 6064 H 693.268 3.77197 -0.0142202 0
M  V30 6065 H 695.655 2.91177 0.479556 0
M  V30 6066 H 695.736 2.27508 -1.16935 0
M  V30 6067 H 695.38 4.63598 -2.07459 0
M  V30 6068 H 695.31 5.25049 -0.403873 0
M  V30 6069 H 697.801 3.71537 -0.690564 0
M  V30 6070 H 698.114 7.4587 -2.02232 0
M  V30 6071 H 696.459 6.70963 -1.81202 0
M  V30 6072 H 699.65 4.58604 -0.93809 0
M  V30 6073 H 699.823 6.29308 -1.54516 0
M  V30 6074 N 693.229 0.160201 1.56784 0
M  V30 6075 C 694.477 -0.486625 1.96154 0
M  V30 6076 C 694.798 -1.64525 1.04673 0
M  V30 6077 O 694.068 -1.95586 0.110864 0
M  V30 6078 H 692.648 -0.182764 0.724297 0
M  V30 6079 H 695.31 0.238787 1.93432 0
M  V30 6080 H 694.406 -0.854025 3.00188 0
M  V30 6081 N 694.707 -1.5719 -0.113559 0
M  V30 6082 C 695.67 -1.99796 -1.12314 0
M  V30 6083 C 696.67 -0.888847 -1.34001 0
M  V30 6084 O 697.86 -1.15476 -1.30426 0
M  V30 6085 C 694.992 -2.34279 -2.47641 0
M  V30 6086 H 696.185 -2.90193 -0.756825 0
M  V30 6087 H 693.738 -1.52144 -0.358029 0
M  V30 6088 H 694.473 -1.46778 -2.89183 0
M  V30 6089 H 694.258 -3.15175 -2.33253 0
M  V30 6090 H 695.748 -2.67963 -3.2029 0
M  V30 6091 N 696.185 0.383891 -1.52853 0
M  V30 6092 C 697.601 0.724316 -1.42218 0
M  V30 6093 C 697.801 1.93943 -0.546654 0
M  V30 6094 O 696.857 2.5249 -0.0220562 0
M  V30 6095 C 698.17 0.954635 -2.85144 0
M  V30 6096 C 699.718 1.05579 -2.94656 0
M  V30 6097 C 700.193 1.3187 -4.38605 0
M  V30 6098 N 701.684 1.38681 -4.41952 0
M  V30 6099 C 702.419 1.60699 -5.50421 0
M  V30 6100 N 701.915 1.80154 -6.68967 0
M  V30 6101 N 703.708 1.6292 -5.37972 0
M  V30 6102 H 695.859 -0.4156 -2.08294 0
M  V30 6103 H 698.122 -0.123776 -0.939885 0
M  V30 6104 H 697.828 0.133829 -3.51445 0
M  V30 6105 H 697.702 1.86788 -3.27704 0
M  V30 6106 H 700.089 1.86716 -2.2852 0
M  V30 6107 H 700.17 0.120338 -2.55517 0
M  V30 6108 H 699.814 0.512416 -5.05309 0
M  V30 6109 H 699.744 2.26708 -4.75301 0
M  V30 6110 H 702.235 1.25334 -3.56511 0
M  V30 6111 H 702.548 1.96476 -7.47407 0
M  V30 6112 H 700.893 1.77368 -6.71986 0
M  V30 6113 H 704.084 1.47276 -4.44328 0
M  V30 6114 H 704.257 1.79739 -6.22574 0
M  V30 6115 N 697.663 1.43903 0.642637 0
M  V30 6116 C 698.911 1.45791 1.39962 0
M  V30 6117 C 699.232 0.0873144 1.94804 0
M  V30 6118 O 698.502 -0.878825 1.75081 0
M  V30 6119 H 697.082 0.536797 0.519479 0
M  V30 6120 H 699.744 1.7959 0.757189 0
M  V30 6121 H 698.84 2.17665 2.2367 0
M  V30 6122 N 699.141 -0.881989 1.30609 0
M  V30 6123 C 700.051 -2.02076 1.19174 0
M  V30 6124 C 701.067 -1.73645 0.11102 0
M  V30 6125 O 702.243 -1.98735 0.326528 0
M  V30 6126 C 699.308 -3.3515 0.887438 0
M  V30 6127 C 698.369 -3.76983 2.05383 0
M  V30 6128 C 697.602 -5.03707 1.76395 0
M  V30 6129 O 697.825 -5.66171 0.693302 0
M  V30 6130 O 696.759 -5.42019 2.61723 0
M  V30 6131 H 700.585 -2.14652 2.14845 0
M  V30 6132 H 698.17 -1.00843 1.10232 0
M  V30 6133 H 700.052 -4.14975 0.73306 0
M  V30 6134 H 698.727 -3.23676 -0.0393354 0
M  V30 6135 H 697.634 -2.97849 2.26355 0
M  V30 6136 H 698.967 -3.93066 2.96243 0
M  V30 6137 N 700.619 -1.13374 -1.09472 0
M  V30 6138 C 702.03 -0.90801 -1.63132 0
M  V30 6139 C 702.381 0.555576 -1.8817 0
M  V30 6140 O 701.506 1.42218 -1.63104 0
M  V30 6141 C 702.101 -1.64182 -2.96361 0
M  V30 6142 C 700.66 -1.46197 -3.46848 0
M  V30 6143 C 699.807 -1.67134 -2.21273 0
M  V30 6144 H 702.758 -1.2871 -0.928411 0
M  V30 6145 H 702.779 -1.09863 -3.64294 0
M  V30 6146 H 702.291 -2.707 -2.78106 0
M  V30 6147 H 700.392 -0.419788 -3.70228 0
M  V30 6148 H 700.505 -2.22472 -4.24315 0
M  V30 6149 H 698.869 -1.09616 -2.29905 0
M  V30 6150 H 699.652 -2.74971 -2.05538 0
M  V30 6151 N 702.098 1.27442 -0.927168 0
M  V30 6152 C 703.346 1.94007 -0.566203 0
M  V30 6153 C 703.667 1.7323 0.895345 0
M  V30 6154 O 702.937 1.07973 1.63459 0
M  V30 6155 H 701.517 0.717917 -0.206409 0
M  V30 6156 H 704.179 1.55161 -1.17945 0
M  V30 6157 H 703.275 3.02401 -0.772028 0
M  V30 6158 N 703.576 0.692616 1.41565 0
M  V30 6159 C 704.987 0.297478 1.84315 0
M  V30 6160 C 705.338 -1.16379 1.57957 0
M  V30 6161 O 704.463 -1.89303 1.0485 0
M  V30 6162 C 705.058 0.533136 3.34579 0
M  V30 6163 C 703.617 0.191944 3.7591 0
M  V30 6164 C 702.764 0.816873 2.64995 0
M  V30 6165 H 705.715 0.893488 1.31158 0
M  V30 6166 H 705.736 -0.209105 3.79925 0
M  V30 6167 H 705.248 1.59674 3.53731 0
M  V30 6168 H 703.349 -0.867512 3.6236 0
M  V30 6169 H 703.462 0.644902 4.7474 0
M  V30 6170 H 701.826 0.246715 2.53502 0
M  V30 6171 H 702.609 1.88429 2.86966 0
M  V30 6172 N 705.054 -1.51416 0.437162 0
M  V30 6173 C 706.282 -2.06503 -0.128045 0
M  V30 6174 C 706.697 -1.30461 -1.36475 0
M  V30 6175 O 706.054 -0.364127 -1.78831 0
M  V30 6176 C 706.105 -3.58683 -0.450437 0
M  V30 6177 O 705.826 -4.31853 0.737186 0
M  V30 6178 C 707.327 -4.30284 -1.06633 0
M  V30 6179 H 704.547 -0.670952 -0.00800269 0
M  V30 6180 H 707.091 -1.94996 0.616193 0
M  V30 6181 H 705.246 -3.70106 -1.14457 0
M  V30 6182 H 705.66 -5.22467 0.461347 0
M  V30 6183 H 707.134 -5.37848 -1.24191 0
M  V30 6184 H 707.611 -3.88564 -2.0473 0
M  V30 6185 H 708.217 -4.23304 -0.411585 0
M  V30 6186 N 706.532 -0.168513 -1.56696 0
M  V30 6187 C 707.78 0.476216 -1.96409 0
M  V30 6188 C 708.101 1.63968 -1.05544 0
M  V30 6189 O 707.371 1.95525 -0.121235 0
M  V30 6190 H 705.951 0.178921 -0.725256 0
M  V30 6191 H 708.613 -0.249042 -1.93302 0
M  V30 6192 H 707.709 0.838094 -3.00637 0
M  V30 6193 N 708.01 1.57248 0.105221 0
M  V30 6194 C 708.94 2.04374 1.12931 0
M  V30 6195 C 709.921 0.93074 1.42377 0
M  V30 6196 O 711.106 1.20136 1.52581 0
M  V30 6197 C 708.236 2.45967 2.45189 0
M  V30 6198 C 707.19 3.60838 2.30174 0
M  V30 6199 C 706.516 3.88374 3.67518 0
M  V30 6200 C 707.816 4.92084 1.75073 0
M  V30 6201 H 709.51 2.9018 0.737287 0
M  V30 6202 H 707.056 1.39601 0.353211 0
M  V30 6203 H 709.009 2.77542 3.17094 0
M  V30 6204 H 707.733 1.57148 2.86308 0
M  V30 6205 H 706.392 3.29493 1.60716 0
M  V30 6206 H 706.04 2.96739 4.06147 0
M  V30 6207 H 705.74 4.65703 3.58321 0
M  V30 6208 H 707.264 4.22415 4.40906 0
M  V30 6209 H 708.678 5.22106 2.36809 0
M  V30 6210 H 707.075 5.73507 1.76662 0
M  V30 6211 H 708.145 4.79684 0.709347 0
M  V30 6212 N 709.488 -0.375779 1.53054 0
M  V30 6213 C 710.899 -0.95309 1.6054 0
M  V30 6214 C 711.25 -1.90575 0.466446 0
M  V30 6215 O 710.375 -2.12507 -0.408609 0
M  V30 6216 C 710.97 -1.73537 2.90982 0
M  V30 6217 C 709.529 -2.26218 3.00836 0
M  V30 6218 C 708.676 -1.07157 2.55759 0
M  V30 6219 H 711.627 -0.154895 1.57942 0
M  V30 6220 H 711.648 -2.59574 2.78211 0
M  V30 6221 H 711.16 -1.04176 3.73857 0
M  V30 6222 H 709.261 -2.98852 2.22527 0
M  V30 6223 H 709.374 -2.54799 4.05727 0
M  V30 6224 H 707.738 -1.43553 2.10391 0
M  V30 6225 H 708.521 -0.393099 3.41042 0
M  V30 6226 N 710.966 -1.44241 -0.634997 0
M  V30 6227 C 712.214 -1.46531 -1.39187 0
M  V30 6228 C 712.535 -0.0976441 -1.94755 0
M  V30 6229 O 711.805 0.869528 -1.75545 0
M  V30 6230 H 710.385 -0.539544 -0.516625 0
M  V30 6231 H 713.047 -1.79989 -0.747655 0
M  V30 6232 H 712.143 -2.18848 -2.22513 0
M  V30 6233 N 712.444 0.87505 -1.31075 0
M  V30 6234 C 713.855 1.4433 -1.18431 0
M  V30 6235 C 714.206 1.9506 0.211189 0
M  V30 6236 O 713.331 1.85847 1.10859 0
M  V30 6237 C 713.926 2.62341 -2.14389 0
M  V30 6238 C 712.485 3.15225 -2.05694 0
M  V30 6239 C 711.632 1.87929 -2.03907 0
M  V30 6240 H 714.583 0.684061 -1.432 0
M  V30 6241 H 714.604 3.3887 -1.73053 0
M  V30 6242 H 714.116 2.25388 -3.15946 0
M  V30 6243 H 712.217 3.56812 -1.07314 0
M  V30 6244 H 712.33 3.77853 -2.94558 0
M  V30 6245 H 710.694 2.06679 -1.48849 0
M  V30 6246 H 711.477 1.53221 -3.07211 0
M  V30 6247 N 713.922 1.13953 1.08869 0
M  V30 6248 C 715.333 0.916649 1.62648 0
M  V30 6249 C 715.684 -0.545589 1.88462 0
M  V30 6250 O 714.809 -1.41351 1.63856 0
M  V30 6251 C 715.404 1.65751 2.95486 0
M  V30 6252 C 713.963 1.48034 3.46068 0
M  V30 6253 C 713.11 1.68305 2.20383 0
M  V30 6254 H 716.061 1.292 0.921572 0
M  V30 6255 H 716.082 1.11794 3.63707 0
M  V30 6256 H 715.594 2.72171 2.76667 0
M  V30 6257 H 713.695 0.439416 3.7 0
M  V30 6258 H 713.808 2.24719 4.23129 0
M  V30 6259 H 712.172 1.10833 2.29321 0
M  V30 6260 H 712.955 2.76057 2.04077 0
M  V30 6261 N 715.4 -1.26948 0.933913 0
M  V30 6262 C 716.648 -1.93704 0.576484 0
M  V30 6263 C 716.969 -1.73702 -0.886145 0
M  V30 6264 O 716.239 -1.08838 -1.62884 0
M  V30 6265 H 714.819 -0.716812 0.210214 0
M  V30 6266 H 717.481 -1.54534 1.18766 0
M  V30 6267 H 716.577 -3.01987 0.788055 0
M  V30 6268 N 716.879 -0.700114 -1.41195 0
M  V30 6269 C 717.789 -0.0382854 -2.34569 0
M  V30 6270 C 718.805 0.761036 -1.56474 0
M  V30 6271 O 719.981 0.697553 -1.88934 0
M  V30 6272 C 717.046 0.883522 -3.35253 0
M  V30 6273 C 716.107 0.0758957 -4.29233 0
M  V30 6274 C 715.34 0.9538 -5.25108 0
M  V30 6275 O 715.563 2.19326 -5.26547 0
M  V30 6276 O 714.497 0.401049 -6.00562 0
M  V30 6277 H 718.323 -0.808073 -2.92752 0
M  V30 6278 H 715.908 -0.460479 -1.42127 0
M  V30 6279 H 717.79 1.41199 -3.9704 0
M  V30 6280 H 716.465 1.63272 -2.79506 0
M  V30 6281 H 715.372 -0.497274 -3.7078 0
M  V30 6282 H 716.705 -0.634741 -4.8809 0
M  V30 6283 N 718.357 1.51182 -0.445186 0
M  V30 6284 C 719.773 1.59299 -0.0978954 0
M  V30 6285 C 719.973 1.4555 1.39346 0
M  V30 6286 O 719.029 1.30073 2.16419 0
M  V30 6287 C 720.342 2.94133 -0.625005 0
M  V30 6288 C 721.89 3.07463 -0.586137 0
M  V30 6289 C 722.365 4.44832 -1.09035 0
M  V30 6290 N 723.856 4.51173 -1.04867 0
M  V30 6291 C 724.591 5.55804 -1.40959 0
M  V30 6292 N 724.087 6.67816 -1.84375 0
M  V30 6293 N 725.88 5.46205 -1.32726 0
M  V30 6294 H 718.031 1.58363 -1.41544 0
M  V30 6295 H 720.294 0.746946 -0.58376 0
M  V30 6296 H 720 3.09589 -1.66876 0
M  V30 6297 H 719.874 3.77161 -0.0542262 0
M  V30 6298 H 722.261 2.9167 0.448646 0
M  V30 6299 H 722.342 2.26255 -1.19341 0
M  V30 6300 H 721.986 4.61372 -2.12364 0
M  V30 6301 H 721.916 5.24591 -0.459539 0
M  V30 6302 H 724.407 3.70783 -0.729932 0
M  V30 6303 H 724.72 7.43683 -2.10131 0
M  V30 6304 H 723.065 6.69003 -1.88308 0
M  V30 6305 H 726.256 4.57583 -0.986678 0
M  V30 6306 H 726.429 6.27634 -1.61182 0
M  V30 6307 N 719.835 0.176821 1.56605 0
M  V30 6308 C 721.083 -0.465793 1.96659 0
M  V30 6309 C 721.404 -1.63406 1.06412 0
M  V30 6310 O 720.674 -1.95457 0.131603 0
M  V30 6311 H 719.254 -0.175072 0.726195 0
M  V30 6312 H 721.916 0.25929 1.93168 0
M  V30 6313 H 721.012 -0.822138 3.01077 0
M  V30 6314 N 721.313 -1.57302 -0.09688 0
M  V30 6315 C 722.561 -1.8563 -0.799117 0
M  V30 6316 C 722.882 -0.765263 -1.79356 0
M  V30 6317 O 722.152 0.208657 -1.94786 0
M  V30 6318 H 720.732 -0.684937 -0.298111 0
M  V30 6319 H 723.394 -1.9474 -0.0789341 0
M  V30 6320 H 722.49 -2.82305 -1.3308 0
M  V30 6321 N 722.791 0.367657 -1.53252 0
M  V30 6322 C 724.202 0.944563 -1.61043 0
M  V30 6323 C 724.553 1.90325 -0.476546 0
M  V30 6324 O 723.678 2.12721 0.397333 0
M  V30 6325 C 724.273 1.71992 -2.91898 0
M  V30 6326 C 722.832 2.2462 -3.02031 0
M  V30 6327 C 721.979 1.05799 -2.56324 0
M  V30 6328 H 724.93 0.146516 -1.58022 0
M  V30 6329 H 724.951 2.58095 -2.79584 0
M  V30 6330 H 724.463 1.02192 -3.74404 0
M  V30 6331 H 722.564 2.97668 -2.24108 0
M  V30 6332 H 722.677 2.52644 -4.07073 0
M  V30 6333 H 721.041 1.42435 -2.1115 0
M  V30 6334 H 721.824 0.375008 -3.41246 0
M  V30 6335 N 724.269 1.44576 0.627338 0
M  V30 6336 C 725.517 1.47267 1.38408 0
M  V30 6337 C 725.838 0.107971 1.94701 0
M  V30 6338 O 725.108 -0.860206 1.76004 0
M  V30 6339 H 723.688 0.542276 0.513756 0
M  V30 6340 H 726.35 1.80383 0.738099 0
M  V30 6341 H 725.446 2.20025 2.21349 0
M  V30 6342 N 725.747 -0.868086 1.31537 0
M  V30 6343 C 726.972 -1.65926 1.24432 0
M  V30 6344 C 727.397 -1.87169 -0.186936 0
M  V30 6345 O 726.755 -1.4148 -1.13371 0
M  V30 6346 C 726.803 -3.00347 1.9956 0
M  V30 6347 O 725.907 -3.90221 1.33422 0
M  V30 6348 H 725.248 -0.506375 0.429512 0
M  V30 6349 H 727.778 -1.0822 1.73637 0
M  V30 6350 H 727.788 -3.50269 2.09226 0
M  V30 6351 H 726.463 -2.84205 3.03645 0
M  V30 6352 H 725.04 -3.48672 1.32219 0
M  V30 6353 N 727.225 -1.14528 -1.08264 0
M  V30 6354 C 728.641 -0.885976 -1.3275 0
M  V30 6355 C 728.841 0.472096 -1.95892 0
M  V30 6356 O 727.897 1.21606 -2.21288 0
M  V30 6357 C 729.21 -2.01982 -2.22764 0
M  V30 6358 C 730.758 -2.05329 -2.36239 0
M  V30 6359 C 731.233 -3.1801 -3.29596 0
M  V30 6360 N 732.724 -3.17598 -3.37173 0
M  V30 6361 C 733.459 -4.01426 -4.09444 0
M  V30 6362 N 732.955 -4.95297 -4.8441 0
M  V30 6363 N 734.748 -3.89482 -4.0529 0
M  V30 6364 H 726.899 -2.01996 -0.656607 0
M  V30 6365 H 729.162 -0.880274 -0.351884 0
M  V30 6366 H 728.868 -2.99964 -1.83615 0
M  V30 6367 H 728.742 -1.94421 -3.23234 0
M  V30 6368 H 731.129 -1.07953 -2.74646 0
M  V30 6369 H 731.21 -2.1696 -1.35506 0
M  V30 6370 H 730.854 -4.15633 -2.9191 0
M  V30 6371 H 730.784 -3.03616 -4.30261 0
M  V30 6372 H 733.275 -2.4961 -2.83731 0
M  V30 6373 H 733.588 -5.55723 -5.37021 0
M  V30 6374 H 731.933 -4.99293 -4.83457 0
M  V30 6375 H 735.124 -3.15465 -3.45832 0
M  V30 6376 H 735.297 -4.55039 -4.6135 0
M  V30 6377 N 728.703 1.26451 -0.940633 0
M  V30 6378 C 729.951 1.93395 -0.586748 0
M  V30 6379 C 730.272 1.7417 0.876921 0
M  V30 6380 O 729.542 1.097 1.62304 0
M  V30 6381 H 728.122 0.715687 -0.214012 0
M  V30 6382 H 730.784 1.53902 -1.19584 0
M  V30 6383 H 729.88 3.01565 -0.804059 0
M  V30 6384 N 730.181 0.707592 1.40822 0
M  V30 6385 C 731.428 0.243671 2.01029 0
M  V30 6386 C 731.756 -1.16057 1.5608 0
M  V30 6387 O 731.011 -1.7999 0.768251 0
M  V30 6388 C 731.31 0.262892 3.56432 0
M  V30 6389 C 730.976 1.61632 4.20935 0
M  V30 6390 C 729.638 1.98682 4.38268 0
M  V30 6391 C 731.99 2.50619 4.5699 0
M  V30 6392 C 729.318 3.2428 4.88937 0
M  V30 6393 C 731.67 3.75562 5.09054 0
M  V30 6394 C 730.334 4.12739 5.24598 0
M  V30 6395 H 729.604 0.0891654 0.735616 0
M  V30 6396 H 732.251 0.909051 1.68548 0
M  V30 6397 H 730.556 -0.486052 3.88773 0
M  V30 6398 H 732.253 -0.113775 4.00839 0
M  V30 6399 H 728.843 1.31818 4.07826 0
M  V30 6400 H 733.027 2.23272 4.43242 0
M  V30 6401 H 728.283 3.53064 4.99155 0
M  V30 6402 H 732.457 4.44692 5.35931 0
M  V30 6403 H 730.084 5.10132 5.63622 0
M  V30 6404 N 731.66 -1.50943 0.453197 0
M  V30 6405 C 733.071 -1.86699 -0.00619892 0
M  V30 6406 C 733.422 -1.3693 -1.40515 0
M  V30 6407 O 732.547 -0.726715 -2.03833 0
M  V30 6408 C 733.142 -3.38795 -0.018025 0
M  V30 6409 C 731.701 -3.74028 -0.421885 0
M  V30 6410 C 730.848 -2.74752 0.375087 0
M  V30 6411 H 733.799 -1.43942 0.668317 0
M  V30 6412 H 733.82 -3.71468 -0.824125 0
M  V30 6413 H 733.332 -3.74988 1.00028 0
M  V30 6414 H 731.433 -3.43431 -1.44521 0
M  V30 6415 H 731.546 -4.78908 -0.135664 0
M  V30 6416 H 729.91 -2.5414 -0.168794 0
M  V30 6417 H 730.693 -3.13787 1.39256 0
M  V30 6418 N 733.138 -0.185124 -1.56509 0
M  V30 6419 C 734.386 0.455357 -1.96903 0
M  V30 6420 C 734.707 1.62839 -1.07277 0
M  V30 6421 O 733.977 1.95385 -0.141966 0
M  V30 6422 H 732.557 0.171218 -0.727113 0
M  V30 6423 H 735.219 -0.26953 -1.93027 0
M  V30 6424 H 734.315 0.80616 -3.01509 0
M  V30 6425 N 734.616 1.57351 0.0885366 0
M  V30 6426 C 735.579 2.01557 1.09121 0
M  V30 6427 C 736.579 0.910052 1.3257 0
M  V30 6428 O 737.769 1.17537 1.28572 0
M  V30 6429 C 734.901 2.38189 2.43883 0
M  V30 6430 H 736.094 2.91361 0.710562 0
M  V30 6431 H 733.647 1.52694 0.333779 0
M  V30 6432 H 734.382 1.5136 2.86811 0
M  V30 6433 H 734.167 3.18846 2.28209 0
M  V30 6434 H 735.657 2.73025 3.15986 0
M  V30 6435 N 736.094 -0.359525 1.53444 0
M  V30 6436 C 737.371 -1.11756 1.6053 0
M  V30 6437 C 737.751 -2.06949 0.416587 0
M  V30 6438 O 737.099 -2.20681 -0.592628 0
M  V30 6439 C 737.309 -1.85133 2.95849 0
M  V30 6440 C 738.657 -2.3945 3.50641 0
M  V30 6441 O 739.681 -1.95251 2.97918 0
M  V30 6442 O 738.54 -3.20266 4.42823 0
M  V30 6443 H 735.634 -0.513005 0.648656 0
M  V30 6444 H 738.18 -0.362301 1.65787 0
M  V30 6445 H 736.952 -1.15694 3.73806 0
M  V30 6446 H 736.575 -2.67554 2.9411 0
M  V30 6447 N 737.572 -1.44907 -0.619662 0
M  V30 6448 C 738.82 -1.47999 -1.37625 0
M  V30 6449 C 739.141 -0.118295 -1.94641 0
M  V30 6450 O 738.411 0.85086 -1.76457 0
M  V30 6451 H 736.991 -0.544993 -0.510873 0
M  V30 6452 H 739.653 -1.80772 -0.728522 0
M  V30 6453 H 738.749 -2.21196 -2.20179 0
M  V30 6454 N 739.05 0.861098 -1.31996 0
M  V30 6455 C 740.296 1.61721 -1.22369 0
M  V30 6456 C 740.629 1.93 0.215587 0
M  V30 6457 O 739.904 1.56789 1.15098 0
M  V30 6458 C 740.187 2.9417 -2.07691 0
M  V30 6459 C 740.04 2.69714 -3.59965 0
M  V30 6460 C 741.359 3.95372 -1.93312 0
M  V30 6461 H 738.478 0.586822 -0.44588 0
M  V30 6462 H 741.12 0.994788 -1.61876 0
M  V30 6463 H 739.27 3.47292 -1.74128 0
M  V30 6464 H 740.942 2.23196 -4.03709 0
M  V30 6465 H 739.185 2.03789 -3.82952 0
M  V30 6466 H 739.856 3.63996 -4.14983 0
M  V30 6467 H 742.332 3.51487 -2.22701 0
M  V30 6468 H 741.208 4.85916 -2.55298 0
M  V30 6469 H 741.469 4.32865 -0.898922 0
M  V30 6470 N 740.528 1.15101 1.07655 0
M  V30 6471 C 741.491 0.847625 2.12951 0
M  V30 6472 C 742.491 -0.151227 1.60087 0
M  V30 6473 O 743.681 0.0780399 1.74025 0
M  V30 6474 C 740.813 0.265 3.39868 0
M  V30 6475 H 742.006 1.7809 2.41296 0
M  V30 6476 H 739.559 0.958072 1.23494 0
M  V30 6477 H 740.294 -0.676625 3.17163 0
M  V30 6478 H 740.079 0.984554 3.79538 0
M  V30 6479 H 741.569 0.0702121 4.17541 0
M  V30 6480 N 742.006 -1.2595 0.947325 0
M  V30 6481 C 743.254 -1.93081 0.596996 0
M  V30 6482 C 743.575 -1.74632 -0.867672 0
M  V30 6483 O 742.845 -1.1056 -1.6172 0
M  V30 6484 H 741.425 -0.714542 0.217805 0
M  V30 6485 H 744.087 -1.53265 1.20398 0
M  V30 6486 H 743.183 -3.01134 0.82004 0
M  V30 6487 N 743.484 -0.715051 -1.40445 0
M  V30 6488 C 744.895 -0.326763 -1.83818 0
M  V30 6489 C 745.246 1.13851 -1.59789 0
M  V30 6490 O 744.371 1.87611 -1.07848 0
M  V30 6491 C 744.966 -0.586297 -3.33688 0
M  V30 6492 C 743.525 -0.251724 -3.75557 0
M  V30 6493 C 742.672 -0.858928 -2.63662 0
M  V30 6494 H 745.623 -0.914241 -1.2972 0
M  V30 6495 H 745.644 0.148636 -3.8021 0
M  V30 6496 H 745.156 -1.65281 -3.51146 0
M  V30 6497 H 743.257 0.809754 -3.63695 0
M  V30 6498 H 743.37 -0.720348 -4.73654 0
M  V30 6499 H 741.734 -0.287013 -2.53078 0
M  V30 6500 H 742.517 -1.9297 -2.83932 0
M  V30 6501 N 744.962 1.50701 -0.461195 0
M  V30 6502 C 745.909 2.2831 0.338094 0
M  V30 6503 C 746.879 1.32928 0.995957 0
M  V30 6504 O 748.064 1.61857 1.0103 0
M  V30 6505 C 745.204 3.14539 1.41983 0
M  V30 6506 C 744.317 4.24942 0.77773 0
M  V30 6507 C 743.452 4.98443 1.83652 0
M  V30 6508 C 742.491 6.00733 1.17413 0
M  V30 6509 N 741.628 6.6755 2.17533 0
M  V30 6510 H 746.468 2.96167 -0.330051 0
M  V30 6511 H 744.005 1.4606 -0.174611 0
M  V30 6512 H 745.963 3.62877 2.05855 0
M  V30 6513 H 744.593 2.48749 2.05727 0
M  V30 6514 H 743.645 3.80391 0.0266924 0
M  V30 6515 H 744.957 4.98151 0.254362 0
M  V30 6516 H 744.111 5.50449 2.55129 0
M  V30 6517 H 742.85 4.24917 2.39367 0
M  V30 6518 H 741.855 5.47997 0.444944 0
M  V30 6519 H 743.08 6.76227 0.624006 0
M  V30 6520 H 741.026 5.96823 2.72284 0
M  V30 6521 H 740.943 7.36603 1.70154 0
M  V30 6522 H 742.211 7.24178 2.88421 0
M  V30 6523 N 746.441 0.193421 1.56409 0
M  V30 6524 C 747.689 -0.444908 1.97142 0
M  V30 6525 C 748.01 -1.62268 1.08139 0
M  V30 6526 O 747.28 -1.95307 0.152326 0
M  V30 6527 H 745.86 -0.16736 0.728011 0
M  V30 6528 H 748.522 0.279763 1.92882 0
M  V30 6529 H 747.618 -0.790159 3.01932 0
M  V30 6530 N 747.919 -1.57396 -0.0801906 0
M  V30 6531 C 749.33 -1.75642 -0.633002 0
M  V30 6532 C 749.681 -0.817708 -1.78348 0
M  V30 6533 O 748.806 0.000233743 -2.164 0
M  V30 6534 C 749.401 -3.18502 -1.15507 0
M  V30 6535 C 747.96 -3.38121 -1.65381 0
M  V30 6536 C 747.107 -2.71386 -0.569661 0
M  V30 6537 H 750.058 -1.58027 0.145949 0
M  V30 6538 H 750.079 -3.22198 -2.02408 0
M  V30 6539 H 749.591 -3.86799 -0.317515 0
M  V30 6540 H 747.692 -2.74926 -2.51488 0
M  V30 6541 H 747.805 -4.46521 -1.73654 0
M  V30 6542 H 746.169 -2.33702 -1.0127 0
M  V30 6543 H 746.952 -3.42332 0.257561 0
M  V30 6544 N 749.397 0.351382 -1.53633 0
M  V30 6545 C 750.36 1.41403 -1.80383 0
M  V30 6546 C 751.36 1.45963 -0.674635 0
M  V30 6547 O 752.55 1.46476 -0.942895 0
M  V30 6548 C 749.682 2.80401 -1.93876 0
M  V30 6549 H 750.875 1.18951 -2.75301 0
M  V30 6550 H 748.428 0.58533 -1.44926 0
M  V30 6551 H 749.163 3.08147 -1.01074 0
M  V30 6552 H 748.948 2.78488 -2.7602 0
M  V30 6553 H 750.438 3.57329 -2.16116 0
M  V30 6554 N 750.875 1.45233 0.611969 0
M  V30 6555 C 752.123 1.48727 1.36838 0
M  V30 6556 C 752.444 0.128616 1.94575 0
M  V30 6557 O 751.714 -0.84149 1.76906 0
M  V30 6558 H 750.294 0.547695 0.507976 0
M  V30 6559 H 752.956 1.81156 0.718925 0
M  V30 6560 H 752.052 2.2236 2.19003 0
M  V30 6561 N 752.353 -0.854086 1.3245 0
M  V30 6562 C 753.263 -1.99503 1.23434 0
M  V30 6563 C 754.279 -1.73371 0.147828 0
M  V30 6564 O 755.455 -1.97998 0.368609 0
M  V30 6565 C 752.52 -3.33192 0.958328 0
M  V30 6566 C 751.581 -3.72542 2.13333 0
M  V30 6567 C 750.814 -4.99852 1.8704 0
M  V30 6568 O 751.037 -5.64573 0.813239 0
M  V30 6569 O 749.971 -5.36345 2.73161 0
M  V30 6570 H 753.797 -2.10046 2.1935 0
M  V30 6571 H 751.382 -0.984823 1.12346 0
M  V30 6572 H 753.264 -4.13327 0.820918 0
M  V30 6573 H 751.939 -3.23687 0.0293299 0
M  V30 6574 H 750.846 -2.92981 2.32622 0
M  V30 6575 H 752.179 -3.86694 3.04514 0
M  V30 6576 N 753.831 -1.1567 -1.07043 0
M  V30 6577 C 755.247 -0.900006 -1.31803 0
M  V30 6578 C 755.447 0.451293 -1.96381 0
M  V30 6579 O 754.503 1.19252 -2.22565 0
M  V30 6580 C 755.816 -2.04334 -2.20609 0
M  V30 6581 C 757.364 -2.07823 -2.34048 0
M  V30 6582 C 757.839 -3.21488 -3.26204 0
M  V30 6583 N 759.33 -3.21156 -3.33786 0
M  V30 6584 C 760.065 -4.05746 -4.05163 0
M  V30 6585 N 759.561 -5.00407 -4.79129 0
M  V30 6586 N 761.354 -3.93759 -4.01136 0
M  V30 6587 H 753.505 -2.02681 -0.635146 0
M  V30 6588 H 755.768 -0.883956 -0.342528 0
M  V30 6589 H 755.474 -3.01895 -1.80423 0
M  V30 6590 H 755.348 -1.97838 -3.21154 0
M  V30 6591 H 757.735 -1.1086 -2.73485 0
M  V30 6592 H 757.816 -2.18386 -1.33197 0
M  V30 6593 H 757.46 -4.18706 -2.87485 0
M  V30 6594 H 757.39 -3.08162 -4.27017 0
M  V30 6595 H 759.881 -2.52606 -2.81067 0
M  V30 6596 H 760.194 -5.61387 -5.31097 0
M  V30 6597 H 758.539 -5.04393 -4.78135 0
M  V30 6598 H 761.73 -3.19115 -3.42466 0
M  V30 6599 H 761.903 -4.59906 -4.56498 0
M  V30 6600 N 755.309 1.25446 -0.953992 0
M  V30 6601 C 756.557 1.92762 -0.607227 0
M  V30 6602 C 756.878 1.7509 0.858399 0
M  V30 6603 O 756.148 1.11416 1.61132 0
M  V30 6604 H 754.728 0.713377 -0.221591 0
M  V30 6605 H 757.39 1.52625 -1.21209 0
M  V30 6606 H 756.486 3.00695 -0.835998 0
M  V30 6607 N 756.787 0.722489 1.40064 0
M  V30 6608 C 758.012 0.273446 2.05589 0
M  V30 6609 C 758.437 -1.07875 1.54093 0
M  V30 6610 O 757.795 -1.68095 0.679252 0
M  V30 6611 C 757.843 0.271023 3.5958 0
M  V30 6612 O 756.947 -0.745499 4.05606 0
M  V30 6613 H 756.288 0.126856 0.65177 0
M  V30 6614 H 758.818 0.984906 1.79334 0
M  V30 6615 H 758.828 0.111084 4.07849 0
M  V30 6616 H 757.503 1.25776 3.96425 0
M  V30 6617 H 756.08 -0.552719 3.68781 0
M  V30 6618 N 758.265 -1.50454 0.469181 0
M  V30 6619 C 759.676 -1.86695 0.0136034 0
M  V30 6620 C 760.027 -1.38413 -1.39055 0
M  V30 6621 O 759.152 -0.748294 -2.03051 0
M  V30 6622 C 759.747 -3.38795 0.0179098 0
M  V30 6623 C 758.306 -3.74455 -0.382191 0
M  V30 6624 C 757.453 -2.74338 0.404207 0
M  V30 6625 H 760.404 -1.43225 0.683547 0
M  V30 6626 H 760.425 -3.72321 -0.78468 0
M  V30 6627 H 759.937 -3.73906 1.04 0
M  V30 6628 H 758.038 -3.44944 -1.4087 0
M  V30 6629 H 758.151 -4.79025 -0.084862 0
M  V30 6630 H 756.515 -2.54305 -0.141829 0
M  V30 6631 H 757.298 -3.12293 1.42577 0
M  V30 6632 N 759.743 -0.201713 -1.56304 0
M  V30 6633 C 760.991 0.434447 -1.97375 0
M  V30 6634 C 761.312 1.61692 -1.08998 0
M  V30 6635 O 760.582 1.95223 -0.162682 0
M  V30 6636 H 759.162 0.163497 -0.728888 0
M  V30 6637 H 761.824 -0.289988 -1.92731 0
M  V30 6638 H 760.92 0.774136 -3.02347 0
M  V30 6639 N 761.222 1.57436 0.0718424 0
M  V30 6640 C 762.633 1.75975 0.623678 0
M  V30 6641 C 762.984 0.827155 1.77912 0
M  V30 6642 O 762.109 0.0112425 2.16397 0
M  V30 6643 C 762.704 3.1911 1.13816 0
M  V30 6644 C 761.263 3.38994 1.63586 0
M  V30 6645 C 760.41 2.71684 0.555261 0
M  V30 6646 H 763.361 1.57948 -0.154328 0
M  V30 6647 H 763.382 3.23267 2.00696 0
M  V30 6648 H 762.894 3.86962 0.296998 0
M  V30 6649 H 760.995 2.76256 2.50027 0
M  V30 6650 H 761.108 4.47436 1.71283 0
M  V30 6651 H 759.472 2.34236 1.00029 0
M  V30 6652 H 760.255 3.42191 -0.275712 0
M  V30 6653 N 762.7 -0.34323 1.53817 0
M  V30 6654 C 763.663 -1.40444 1.8113 0
M  V30 6655 C 764.663 -1.45604 0.682366 0
M  V30 6656 O 765.853 -1.45974 0.950649 0
M  V30 6657 C 762.985 -2.79369 1.95361 0
M  V30 6658 H 764.178 -1.17489 2.75928 0
M  V30 6659 H 761.731 -0.577636 1.45234 0
M  V30 6660 H 762.466 -3.07607 1.02707 0
M  V30 6661 H 762.251 -2.7702 2.77493 0
M  V30 6662 H 763.741 -3.56178 2.18008 0
M  V30 6663 N 764.178 -1.45556 -0.604258 0
M  V30 6664 C 765.426 -1.4945 -1.36048 0
M  V30 6665 C 765.747 -0.138933 -1.94504 0
M  V30 6666 O 765.017 0.832097 -1.7735 0
M  V30 6667 H 763.597 -0.550381 -0.505064 0
M  V30 6668 H 766.259 -1.81535 -0.709308 0
M  V30 6669 H 765.355 -2.23519 -2.17821 0
M  V30 6670 N 765.656 0.84705 -1.32902 0
M  V30 6671 C 767.067 1.41785 -1.21466 0
M  V30 6672 C 767.418 1.95464 0.169767 0
M  V30 6673 O 766.543 1.88157 1.06892 0
M  V30 6674 C 767.138 2.57734 -2.19906 0
M  V30 6675 C 765.697 3.10791 -2.12334 0
M  V30 6676 C 764.844 1.83562 -2.07847 0
M  V30 6677 H 767.795 0.653532 -1.44619 0
M  V30 6678 H 767.816 3.35123 -1.80202 0
M  V30 6679 H 767.328 2.18635 -3.20656 0
M  V30 6680 H 765.429 3.54455 -1.14858 0
M  V30 6681 H 765.542 3.71519 -3.02506 0
M  V30 6682 H 763.906 2.03475 -1.53199 0
M  V30 6683 H 764.689 1.4667 -3.10392 0
M  V30 6684 N 767.134 1.16236 1.06428 0
M  V30 6685 C 768.081 0.86769 2.13869 0
M  V30 6686 C 769.051 -0.183298 1.65086 0
M  V30 6687 O 770.236 -0.0488002 1.90738 0
M  V30 6688 C 767.376 0.373427 3.43074 0
M  V30 6689 C 766.489 1.48708 4.05598 0
M  V30 6690 C 765.624 0.947977 5.22673 0
M  V30 6691 C 764.663 2.03793 5.77178 0
M  V30 6692 N 763.8 1.51451 6.85571 0
M  V30 6693 H 768.64 1.78781 2.38414 0
M  V30 6694 H 766.177 0.891892 1.16977 0
M  V30 6695 H 768.135 0.0685035 4.17144 0
M  V30 6696 H 766.765 -0.509752 3.1875 0
M  V30 6697 H 765.817 1.908 3.29089 0
M  V30 6698 H 767.129 2.30964 4.42105 0
M  V30 6699 H 766.283 0.596154 6.03764 0
M  V30 6700 H 765.022 0.0947081 4.87608 0
M  V30 6701 H 764.027 2.39847 4.94726 0
M  V30 6702 H 765.252 2.89514 6.14295 0
M  V30 6703 H 763.198 0.683755 6.52427 0
M  V30 6704 H 763.115 2.27325 7.21013 0
M  V30 6705 H 764.383 1.19123 7.70344 0
M  V30 6706 N 768.612 -1.24939 0.960631 0
M  V30 6707 C 769.86 -1.92437 0.617441 0
M  V30 6708 C 770.181 -1.75543 -0.849101 0
M  V30 6709 O 769.451 -1.12269 -1.60538 0
M  V30 6710 H 768.031 -0.712192 0.225371 0
M  V30 6711 H 770.693 -1.5198 1.22017 0
M  V30 6712 H 769.789 -3.00247 0.851933 0
M  V30 6713 N 770.09 -0.729906 -1.39679 0
M  V30 6714 C 771.315 -0.284345 -2.05442 0
M  V30 6715 C 771.74 1.07056 -1.54663 0
M  V30 6716 O 771.098 1.67732 -0.688157 0
M  V30 6717 C 771.146 -0.290089 -3.59431 0
M  V30 6718 O 770.25 0.723978 -4.05995 0
M  V30 6719 H 769.591 -0.130311 -0.651088 0
M  V30 6720 H 772.121 -0.994403 -1.78809 0
M  V30 6721 H 772.131 -0.132712 -4.07784 0
M  V30 6722 H 770.806 -1.27877 -3.95753 0
M  V30 6723 H 769.383 0.533154 -3.69069 0
M  V30 6724 N 771.568 1.50203 -0.477153 0
M  V30 6725 C 772.979 1.86685 -0.0235041 0
M  V30 6726 C 773.33 1.39148 1.38319 0
M  V30 6727 O 772.455 0.759051 2.02651 0
M  V30 6728 C 773.05 3.38781 -0.0358767 0
M  V30 6729 C 771.609 3.74652 0.362327 0
M  V30 6730 C 770.756 2.7412 -0.41875 0
M  V30 6731 H 773.707 1.4286 -0.691133 0
M  V30 6732 H 773.728 3.72732 0.764924 0
M  V30 6733 H 773.24 3.73349 -1.05981 0
M  V30 6734 H 771.341 3.45686 1.39039 0
M  V30 6735 H 771.454 4.79063 0.059457 0
M  V30 6736 H 769.818 2.54376 0.128341 0
M  V30 6737 H 770.601 3.11532 -1.44231 0
M  V30 6738 N 773.046 0.209999 1.56195 0
M  V30 6739 C 774.294 -0.423974 1.97603 0
M  V30 6740 C 774.615 -1.61112 1.09854 0
M  V30 6741 O 773.885 -1.95134 0.173032 0
M  V30 6742 H 772.465 -0.159629 0.729745 0
M  V30 6743 H 775.127 0.300205 1.92574 0
M  V30 6744 H 774.223 -0.75809 3.02753 0
M  V30 6745 N 774.524 -1.57472 -0.0634922 0
M  V30 6746 C 775.434 -2.07621 -1.09227 0
M  V30 6747 C 776.45 -1.00746 -1.41867 0
M  V30 6748 O 777.626 -1.32269 -1.51878 0
M  V30 6749 C 774.691 -2.51707 -2.38421 0
M  V30 6750 C 773.752 -3.72917 -2.12676 0
M  V30 6751 C 772.985 -4.14891 -3.3571 0
M  V30 6752 O 773.208 -3.56663 -4.45137 0
M  V30 6753 O 772.142 -5.07616 -3.23434 0
M  V30 6754 H 775.968 -2.95612 -0.696205 0
M  V30 6755 H 773.553 -1.46787 -0.27819 0
M  V30 6756 H 775.435 -2.80547 -3.14438 0
M  V30 6757 H 774.11 -1.66842 -2.77391 0
M  V30 6758 H 773.017 -3.49148 -1.34337 0
M  V30 6759 H 774.35 -4.5866 -1.78583 0
M  V30 6760 N 776.003 0.335068 -1.53997 0
M  V30 6761 C 776.966 1.39481 -1.81872 0
M  V30 6762 C 777.966 1.4524 -0.690078 0
M  V30 6763 O 779.156 1.45467 -0.958377 0
M  V30 6764 C 776.288 2.78329 -1.9684 0
M  V30 6765 H 777.481 1.16024 -2.76547 0
M  V30 6766 H 775.034 0.569926 -1.45539 0
M  V30 6767 H 775.769 3.07058 -1.04337 0
M  V30 6768 H 775.554 2.75544 -2.78958 0
M  V30 6769 H 777.044 3.55016 -2.19894 0
M  V30 6770 N 777.481 1.45874 0.596531 0
M  V30 6771 C 778.729 1.5017 1.35253 0
M  V30 6772 C 779.05 0.149246 1.94428 0
M  V30 6773 O 778.32 -0.82268 1.77789 0
M  V30 6774 H 776.9 0.553052 0.502138 0
M  V30 6775 H 779.562 1.81908 0.699671 0
M  V30 6776 H 778.658 2.24671 2.16632 0
M  V30 6777 N 778.959 -0.83999 1.33349 0
M  V30 6778 C 780.375 -1.13049 1.12659 0
M  V30 6779 C 780.575 -2.01328 -0.0832613 0
M  V30 6780 O 779.631 -2.40669 -0.763856 0
M  V30 6781 C 780.944 -1.79366 2.41347 0
M  V30 6782 C 782.492 -1.91937 2.47243 0
M  V30 6783 C 782.967 -2.6167 3.75889 0
M  V30 6784 N 784.458 -2.69184 3.76954 0
M  V30 6785 C 785.193 -3.23827 4.73206 0
M  V30 6786 N 784.689 -3.79166 5.79832 0
M  V30 6787 N 786.482 -3.22068 4.60683 0
M  V30 6788 H 778.633 -0.252432 2.10895 0
M  V30 6789 H 780.896 -0.174501 0.931801 0
M  V30 6790 H 780.602 -1.2196 3.29877 0
M  V30 6791 H 780.476 -2.79396 2.53412 0
M  V30 6792 H 782.863 -2.48498 1.59163 0
M  V30 6793 H 782.944 -0.908604 2.39119 0
M  V30 6794 H 782.588 -2.05769 4.64351 0
M  V30 6795 H 782.518 -3.63217 3.81289 0
M  V30 6796 H 785.009 -2.2994 2.99893 0
M  V30 6797 H 785.322 -4.19061 6.49313 0
M  V30 6798 H 783.667 -3.77457 5.83568 0
M  V30 6799 H 786.858 -2.78092 3.7654 0
M  V30 6800 H 787.031 -3.64351 5.35866 0
M  V30 6801 N 780.437 -1.16799 -1.0581 0
M  V30 6802 C 781.848 -0.95945 -1.60161 0
M  V30 6803 C 782.199 0.49543 -1.89842 0
M  V30 6804 O 781.324 1.36957 -1.67546 0
M  V30 6805 C 781.919 -1.73527 -2.90987 0
M  V30 6806 C 780.478 -1.57158 -3.42021 0
M  V30 6807 C 779.625 -1.74089 -2.15843 0
M  V30 6808 H 782.576 -1.31598 -0.886992 0
M  V30 6809 H 782.597 -1.21397 -3.60615 0
M  V30 6810 H 782.109 -2.79411 -2.69353 0
M  V30 6811 H 780.21 -0.537361 -3.68705 0
M  V30 6812 H 780.323 -2.35858 -4.17022 0
M  V30 6813 H 778.687 -1.16874 -2.26302 0
M  V30 6814 H 779.47 -2.81371 -1.96686 0
M  V30 6815 N 781.915 1.24427 -0.967243 0
M  V30 6816 C 783.163 1.92107 -0.627638 0
M  V30 6817 C 783.484 1.75991 0.83978 0
M  V30 6818 O 782.754 1.13118 1.59941 0
M  V30 6819 H 781.334 0.710986 -0.229145 0
M  V30 6820 H 783.996 1.51331 -1.22821 0
M  V30 6821 H 783.092 2.99791 -0.867844 0
M  V30 6822 N 783.393 0.737304 1.3929 0
M  V30 6823 C 784.303 0.100464 2.34385 0
M  V30 6824 C 785.319 -0.719282 1.58437 0
M  V30 6825 O 786.495 -0.647216 1.90717 0
M  V30 6826 C 783.56 -0.794325 3.37478 0
M  V30 6827 C 782.621 0.0379345 4.29283 0
M  V30 6828 C 781.854 -0.814241 5.27452 0
M  V30 6829 O 782.077 -2.05288 5.32177 0
M  V30 6830 O 781.011 -0.241679 6.01415 0
M  V30 6831 H 784.837 0.885407 2.90507 0
M  V30 6832 H 782.422 0.497999 1.40856 0
M  V30 6833 H 784.304 -1.30622 4.00644 0
M  V30 6834 H 782.979 -1.55804 2.83737 0
M  V30 6835 H 781.886 0.595405 3.69331 0
M  V30 6836 H 783.219 0.763926 4.86236 0
M  V30 6837 N 784.871 -1.49948 0.485112 0
M  V30 6838 C 785.834 -2.27351 -0.290546 0
M  V30 6839 C 786.834 -1.32704 -0.908087 0
M  V30 6840 O 788.024 -1.56007 -0.775085 0
M  V30 6841 C 785.156 -3.10135 -1.41524 0
M  V30 6842 H 786.349 -2.97374 0.388454 0
M  V30 6843 H 783.902 -1.54453 0.239586 0
M  V30 6844 H 784.637 -2.44641 -2.12888 0
M  V30 6845 H 784.422 -3.79705 -0.978074 0
M  V30 6846 H 785.912 -3.68638 -1.96204 0
M  V30 6847 N 786.349 -0.21828 -1.56081 0
M  V30 6848 C 787.597 0.413488 -1.97825 0
M  V30 6849 C 787.918 1.60527 -1.10707 0
M  V30 6850 O 787.188 1.9504 -0.183378 0
M  V30 6851 H 785.768 0.155757 -0.730581 0
M  V30 6852 H 788.43 -0.310413 -1.92412 0
M  V30 6853 H 787.526 0.742024 -3.03151 0
M  V30 6854 N 787.827 1.57504 0.0551401 0
M  V30 6855 C 788.757 2.07864 1.06372 0
M  V30 6856 C 789.738 0.975565 1.39344 0
M  V30 6857 O 790.923 1.24929 1.48682 0
M  V30 6858 C 788.053 2.53643 2.3724 0
M  V30 6859 C 787.007 3.67978 2.18578 0
M  V30 6860 C 786.333 3.9987 3.54976 0
M  V30 6861 C 787.633 4.97405 1.59329 0
M  V30 6862 H 789.327 2.92379 0.644595 0
M  V30 6863 H 786.873 1.40654 0.308619 0
M  V30 6864 H 788.826 2.8749 3.08103 0
M  V30 6865 H 787.55 1.66177 2.81163 0
M  V30 6866 H 786.209 3.3444 1.50152 0
M  V30 6867 H 785.857 3.0951 3.965 0
M  V30 6868 H 785.557 4.76867 3.43324 0
M  V30 6869 H 787.081 4.36228 4.27244 0
M  V30 6870 H 788.495 5.29375 2.20078 0
M  V30 6871 H 786.892 5.78837 1.58327 0
M  V30 6872 H 787.962 4.81697 0.55638 0
M  V30 6873 N 789.305 -0.326896 1.54172 0
M  V30 6874 C 790.716 -0.901533 1.63491 0
M  V30 6875 C 791.067 -1.88994 0.52684 0
M  V30 6876 O 790.192 -2.137 -0.340794 0
M  V30 6877 C 790.787 -1.64192 2.96355 0
M  V30 6878 C 789.346 -2.16533 3.07881 0
M  V30 6879 C 788.493 -0.98966 2.59039 0
M  V30 6880 H 791.444 -0.104568 1.58355 0
M  V30 6881 H 791.465 -2.50592 2.86328 0
M  V30 6882 H 790.977 -0.922291 3.76982 0
M  V30 6883 H 789.078 -2.91622 2.31922 0
M  V30 6884 H 789.191 -2.41762 4.13628 0
M  V30 6885 H 787.555 -1.36787 2.14852 0
M  V30 6886 H 788.338 -0.284401 3.4212 0
M  V30 6887 N 790.784 -1.46188 -0.588786 0
M  V30 6888 C 792.032 -1.50885 -1.34455 0
M  V30 6889 C 792.353 -0.159555 -1.94346 0
M  V30 6890 O 791.623 0.813239 -1.78222 0
M  V30 6891 H 790.203 -0.555707 -0.499198 0
M  V30 6892 H 792.865 -1.82277 -0.690014 0
M  V30 6893 H 791.961 -2.25816 -2.15438 0
M  V30 6894 N 792.262 0.832906 -1.33792 0
M  V30 6895 C 793.225 1.92471 -1.24449 0
M  V30 6896 C 794.225 1.59981 -0.162085 0
M  V30 6897 O 795.415 1.69208 -0.414029 0
M  V30 6898 C 792.547 3.28278 -0.919044 0
M  V30 6899 H 793.74 2.0218 -2.21502 0
M  V30 6900 H 791.293 1.0257 -1.17936 0
M  V30 6901 H 792.028 3.24263 0.048738 0
M  V30 6902 H 791.813 3.53241 -1.70187 0
M  V30 6903 H 793.303 4.08253 -0.878576 0
M  V30 6904 N 793.74 1.17359 1.05189 0
M  V30 6905 C 794.687 0.890325 2.12936 0
M  V30 6906 C 795.657 -0.165779 1.65271 0
M  V30 6907 O 796.842 -0.0285672 1.90779 0
M  V30 6908 C 793.982 0.409793 3.42658 0
M  V30 6909 C 793.095 1.53002 4.03998 0
M  V30 6910 C 792.23 1.00336 5.21638 0
M  V30 6911 C 791.269 2.09903 5.74984 0
M  V30 6912 N 790.406 1.58714 6.83926 0
M  V30 6913 H 795.246 1.81299 2.36505 0
M  V30 6914 H 792.783 0.904249 1.16025 0
M  V30 6915 H 794.741 0.112743 4.17048 0
M  V30 6916 H 793.371 -0.475915 3.19272 0
M  V30 6917 H 792.423 1.9428 3.27047 0
M  V30 6918 H 793.735 2.3564 4.39631 0
M  V30 6919 H 792.889 0.660158 6.03098 0
M  V30 6920 H 791.628 0.14642 4.8748 0
M  V30 6921 H 790.633 2.45081 4.92154 0
M  V30 6922 H 791.858 2.96013 6.1119 0
M  V30 6923 H 789.804 0.752915 6.51665 0
M  V30 6924 H 789.721 2.34959 7.18561 0
M  V30 6925 H 790.989 1.27287 7.69037 0
M  V30 6926 N 795.218 -1.23913 0.973828 0
M  V30 6927 C 796.466 -1.91771 0.637817 0
M  V30 6928 C 796.787 -1.76434 -0.830435 0
M  V30 6929 O 796.057 -1.13965 -1.59339 0
M  V30 6930 H 794.637 -0.709761 0.232912 0
M  V30 6931 H 797.299 -1.50677 1.23622 0
M  V30 6932 H 796.395 -2.99327 0.883731 0
M  V30 6933 N 796.696 -0.74468 -1.38897 0
M  V30 6934 C 797.626 -0.126355 -2.33158 0
M  V30 6935 C 798.607 0.713517 -1.54412 0
M  V30 6936 O 799.792 0.656523 -1.82766 0
M  V30 6937 C 796.922 0.774375 -3.38557 0
M  V30 6938 C 795.876 0.0379214 -4.27983 0
M  V30 6939 C 795.202 1.05631 -5.24162 0
M  V30 6940 C 796.502 -1.12523 -5.10035 0
M  V30 6941 H 798.196 -0.913744 -2.85116 0
M  V30 6942 H 795.742 -0.440847 -1.37086 0
M  V30 6943 H 797.695 1.21655 -4.03458 0
M  V30 6944 H 796.419 1.59399 -2.85061 0
M  V30 6945 H 795.078 -0.384733 -3.64576 0
M  V30 6946 H 794.726 1.86975 -4.66958 0
M  V30 6947 H 794.426 0.568261 -5.84846 0
M  V30 6948 H 795.95 1.49799 -5.9194 0
M  V30 6949 H 797.364 -0.761037 -5.68226 0
M  V30 6950 H 795.761 -1.54355 -5.79909 0
M  V30 6951 H 796.831 -1.94237 -4.44297 0
M  V30 6952 N 798.174 1.49689 -0.493057 0
M  V30 6953 C 799.402 2.06836 0.0513141 0
M  V30 6954 C 799.817 1.35436 1.31539 0
M  V30 6955 O 799.174 0.430248 1.77356 0
M  V30 6956 C 799.225 3.60107 0.317003 0
M  V30 6957 O 798.946 4.2882 -0.896957 0
M  V30 6958 C 800.447 4.33945 0.905902 0
M  V30 6959 H 797.667 0.670787 -0.0169048 0
M  V30 6960 H 800.211 1.92574 -0.688139 0
M  V30 6961 H 798.366 3.74099 1.00642 0
M  V30 6962 H 798.78 5.20395 -0.654939 0
M  V30 6963 H 800.254 5.42087 1.04144 0
M  V30 6964 H 800.731 3.95895 1.90168 0
M  V30 6965 H 801.337 4.2454 0.254195 0
M  V30 6966 N 799.652 0.226554 1.55963 0
M  V30 6967 C 800.9 -0.402991 1.98041 0
M  V30 6968 C 801.221 -1.59938 1.11557 0
M  V30 6969 O 800.491 -1.9494 0.193719 0
M  V30 6970 H 799.071 -0.15188 0.731397 0
M  V30 6971 H 801.733 0.320613 1.92245 0
M  V30 6972 H 800.829 -0.725937 3.0354 0
M  V30 6973 N 801.13 -1.57531 -0.0467866 0
M  V30 6974 C 802.355 -1.93087 -0.757123 0
M  V30 6975 C 802.78 -0.825116 -1.69037 0
M  V30 6976 O 802.138 0.220449 -1.79955 0
M  V30 6977 C 802.186 -3.27669 -1.5055 0
M  V30 6978 O 801.29 -3.18667 -2.61773 0
M  V30 6979 H 800.631 -0.631597 -0.204892 0
M  V30 6980 H 803.161 -2.04599 -0.00755232 0
M  V30 6981 H 803.171 -3.6214 -1.87932 0
M  V30 6982 H 801.846 -4.07717 -0.820931 0
M  V30 6983 H 800.423 -2.95798 -2.27064 0
M  V30 6984 N 802.608 0.318715 -1.54344 0
M  V30 6985 C 804.019 0.89285 -1.63967 0
M  V30 6986 C 804.37 1.88712 -0.536855 0
M  V30 6987 O 803.495 2.13877 0.329457 0
M  V30 6988 C 804.09 1.62618 -2.97222 0
M  V30 6989 C 802.649 2.14897 -3.09025 0
M  V30 6990 C 801.796 0.975909 -2.5956 0
M  V30 6991 H 804.747 0.0961687 -1.58408 0
M  V30 6992 H 804.768 2.4907 -2.87653 0
M  V30 6993 H 804.28 0.902286 -3.77466 0
M  V30 6994 H 802.381 2.90387 -2.33465 0
M  V30 6995 H 802.494 2.39565 -4.14904 0
M  V30 6996 H 800.858 1.35646 -2.15574 0
M  V30 6997 H 801.641 0.266253 -3.42266 0
M  V30 6998 N 804.086 1.46499 0.581025 0
M  V30 6999 C 805.334 1.51596 1.33653 0
M  V30 7000 C 805.655 0.169859 1.94259 0
M  V30 7001 O 804.925 -0.803776 1.78651 0
M  V30 7002 H 803.505 0.558346 0.496244 0
M  V30 7003 H 806.167 1.8264 0.680338 0
M  V30 7004 H 805.263 2.26956 2.14237 0
M  V30 7005 N 805.565 -0.825799 1.34232 0
M  V30 7006 C 806.79 -1.61883 1.29648 0
M  V30 7007 C 807.215 -1.87669 -0.127295 0
M  V30 7008 O 806.573 -1.45016 -1.08813 0
M  V30 7009 C 806.621 -2.93846 2.09014 0
M  V30 7010 O 805.725 -3.85778 1.4577 0
M  V30 7011 H 805.066 -0.492454 0.445405 0
M  V30 7012 H 807.596 -1.02641 1.76992 0
M  V30 7013 H 807.606 -3.43435 2.20264 0
M  V30 7014 H 806.281 -2.74401 3.12533 0
M  V30 7015 H 804.858 -3.4429 1.43245 0
M  V30 7016 N 807.043 -1.17915 -1.04565 0
M  V30 7017 C 808.454 -0.976383 -1.59134 0
M  V30 7018 C 808.805 0.475267 -1.90357 0
M  V30 7019 O 807.93 1.35172 -1.6899 0
M  V30 7020 C 808.525 -1.76604 -2.89131 0
M  V30 7021 C 807.084 -1.60777 -3.40335 0
M  V30 7022 C 806.231 -1.76369 -2.13985 0
M  V30 7023 H 809.182 -1.32532 -0.872985 0
M  V30 7024 H 809.203 -1.25215 -3.59307 0
M  V30 7025 H 808.715 -2.82252 -2.66375 0
M  V30 7026 H 806.816 -0.576436 -3.68114 0
M  V30 7027 H 806.929 -2.40268 -4.14497 0
M  V30 7028 H 805.293 -1.19268 -2.25049 0
M  V30 7029 H 806.076 -2.83441 -1.9369 0
M  V30 7030 N 808.521 1.23394 -0.980386 0
M  V30 7031 C 809.769 1.91431 -0.647978 0
M  V30 7032 C 810.09 1.76871 0.821066 0
M  V30 7033 O 809.36 1.14808 1.58732 0
M  V30 7034 H 807.94 0.708516 -0.236673 0
M  V30 7035 H 810.602 1.50019 -1.2442 0
M  V30 7036 H 809.698 2.98854 -0.899592 0
M  V30 7037 N 809.999 0.752036 1.385 0
M  V30 7038 C 811.41 0.375385 1.82887 0
M  V30 7039 C 811.761 -1.09575 1.62751 0
M  V30 7040 O 810.886 -1.84685 1.12785 0
M  V30 7041 C 811.481 0.674563 3.32017 0
M  V30 7042 C 810.04 0.351208 3.74758 0
M  V30 7043 C 809.187 0.928531 2.61292 0
M  V30 7044 H 812.138 0.948313 1.27251 0
M  V30 7045 H 812.159 -0.0477781 3.8047 0
M  V30 7046 H 811.671 1.74533 3.46641 0
M  V30 7047 H 809.772 -0.713042 3.65714 0
M  V30 7048 H 809.885 0.845675 4.71577 0
M  V30 7049 H 808.249 0.354012 2.52228 0
M  V30 7050 H 809.032 2.0043 2.78716 0
M  V30 7051 N 811.477 -1.49425 0.500989 0
M  V30 7052 C 812.754 -1.9531 -0.106551 0
M  V30 7053 C 813.134 -1.44248 -1.54129 0
M  V30 7054 O 812.482 -0.656237 -2.18874 0
M  V30 7055 C 812.692 -3.48995 -0.0191972 0
M  V30 7056 C 814.04 -4.24161 -0.193129 0
M  V30 7057 O 815.064 -3.56075 -0.0943843 0
M  V30 7058 O 813.923 -5.45064 -0.395869 0
M  V30 7059 H 811.017 -0.82149 -0.0953068 0
M  V30 7060 H 813.563 -1.6007 0.563526 0
M  V30 7061 H 812.335 -3.78794 0.981353 0
M  V30 7062 H 811.958 -3.90852 -0.72942 0
M  V30 7063 N 812.955 -0.234822 -1.55841 0
M  V30 7064 C 814.203 0.392483 -1.98252 0
M  V30 7065 C 814.524 1.59344 -1.12404 0
M  V30 7066 O 813.794 1.94834 -0.204055 0
M  V30 7067 H 812.374 0.147999 -0.732192 0
M  V30 7068 H 815.036 -0.330804 -1.92072 0
M  V30 7069 H 814.132 0.709829 -3.03921 0
M  V30 7070 N 814.433 1.57553 0.0384317 0
M  V30 7071 C 815.38 2.05942 1.04194 0
M  V30 7072 C 816.35 0.946637 1.36484 0
M  V30 7073 O 817.535 1.21658 1.46983 0
M  V30 7074 C 814.675 2.53588 2.34066 0
M  V30 7075 C 813.788 3.7862 2.08017 0
M  V30 7076 C 812.923 4.14915 3.31692 0
M  V30 7077 C 811.962 5.32891 3.01155 0
M  V30 7078 N 811.099 5.64662 4.17254 0
M  V30 7079 H 815.939 2.91429 0.622341 0
M  V30 7080 H 813.476 1.44098 0.295684 0
M  V30 7081 H 815.434 2.79276 3.09937 0
M  V30 7082 H 814.064 1.71031 2.73767 0
M  V30 7083 H 813.116 3.60073 1.22686 0
M  V30 7084 H 814.428 4.64613 1.81484 0
M  V30 7085 H 813.582 4.41681 4.15936 0
M  V30 7086 H 812.321 3.27555 3.6133 0
M  V30 7087 H 811.326 5.05887 2.15311 0
M  V30 7088 H 812.551 6.21896 2.72804 0
M  V30 7089 H 810.497 4.80261 4.46861 0
M  V30 7090 H 810.414 6.45145 3.94112 0
M  V30 7091 H 811.682 5.96 5.02399 0
M  V30 7092 N 815.911 -0.310526 1.54511 0
M  V30 7093 C 817.139 -1.06611 1.77318 0
M  V30 7094 C 817.554 -1.81265 0.528043 0
M  V30 7095 O 816.911 -1.75466 -0.50178 0
M  V30 7096 C 816.962 -2.05409 2.97472 0
M  V30 7097 O 816.683 -1.33785 4.17173 0
M  V30 7098 C 818.184 -2.93082 3.32593 0
M  V30 7099 H 815.404 -0.316578 0.591624 0
M  V30 7100 H 817.948 -0.352691 2.01436 0
M  V30 7101 H 816.103 -2.72266 2.7559 0
M  V30 7102 H 816.517 -2.00055 4.84849 0
M  V30 7103 H 817.991 -3.58274 4.19933 0
M  V30 7104 H 818.468 -3.60877 2.50329 0
M  V30 7105 H 819.074 -2.31768 3.566 0
M  V30 7106 N 817.389 -1.46805 -0.573248 0
M  V30 7107 C 818.637 -1.52302 -1.32847 0
M  V30 7108 C 818.958 -0.180159 -1.94166 0
M  V30 7109 O 818.228 0.794291 -1.79075 0
M  V30 7110 H 816.808 -0.56097 -0.493276 0
M  V30 7111 H 819.47 -1.82998 -0.670642 0
M  V30 7112 H 818.566 -2.28089 -2.13031 0
M  V30 7113 N 818.867 0.818669 -1.34668 0
M  V30 7114 C 820.278 1.39177 -1.24446 0
M  V30 7115 C 820.629 1.9578 0.128268 0
M  V30 7116 O 819.754 1.90382 1.02877 0
M  V30 7117 C 820.349 2.53012 -2.25323 0
M  V30 7118 C 818.908 3.06218 -2.18878 0
M  V30 7119 C 818.055 1.79112 -2.11694 0
M  V30 7120 H 821.006 0.622709 -1.45973 0
M  V30 7121 H 821.027 3.31226 -1.8727 0
M  V30 7122 H 820.539 2.11784 -3.25221 0
M  V30 7123 H 818.64 3.51939 -1.22351 0
M  V30 7124 H 818.753 3.65019 -3.10319 0
M  V30 7125 H 817.117 2.0018 -1.57481 0
M  V30 7126 H 817.9 1.40053 -3.13433 0
M  V30 7127 N 820.346 1.18468 1.03938 0
M  V30 7128 C 821.757 0.984808 1.58614 0
M  V30 7129 C 822.108 -0.465165 1.90606 0
M  V30 7130 O 821.233 -1.34274 1.69704 0
M  V30 7131 C 821.828 1.78135 2.8819 0
M  V30 7132 C 820.387 1.62579 3.39478 0
M  V30 7133 C 819.534 1.77501 2.13046 0
M  V30 7134 H 822.485 1.32993 0.865944 0
M  V30 7135 H 822.506 1.27119 3.58638 0
M  V30 7136 H 822.018 2.83661 2.64874 0
M  V30 7137 H 820.119 0.59595 3.67803 0
M  V30 7138 H 820.232 2.42463 4.13217 0
M  V30 7139 H 818.596 1.2046 2.24414 0
M  V30 7140 H 819.379 2.84464 1.92185 0
M  V30 7141 N 821.824 -1.22873 0.986916 0
M  V30 7142 C 823.072 -1.91084 0.658121 0
M  V30 7143 C 823.393 -1.77304 -0.811675 0
M  V30 7144 O 822.663 -1.15649 -1.58121 0
M  V30 7145 H 821.243 -0.707251 0.240427 0
M  V30 7146 H 823.905 -1.49357 1.25213 0
M  V30 7147 H 823.001 -2.98373 0.915428 0
M  V30 7148 N 823.302 -0.75937 -1.38099 0
M  V30 7149 C 824.713 -0.385078 -1.82686 0
M  V30 7150 C 825.064 1.0871 -1.6333 0
M  V30 7151 O 824.189 1.84084 -1.13762 0
M  V30 7152 C 824.784 -0.692161 -3.31654 0
M  V30 7153 C 823.343 -0.371077 -3.74566 0
M  V30 7154 C 822.49 -0.942375 -2.60796 0
M  V30 7155 H 825.441 -0.955048 -1.26746 0
M  V30 7156 H 825.462 0.0276001 -3.8049 0
M  V30 7157 H 824.974 -1.76369 -3.4571 0
M  V30 7158 H 823.075 0.693637 -3.66087 0
M  V30 7159 H 823.188 -0.870672 -4.71122 0
M  V30 7160 H 821.552 -0.367383 -2.52036 0
M  V30 7161 H 822.335 -2.01905 -2.77649 0
M  V30 7162 N 824.78 1.49157 -0.508906 0
M  V30 7163 C 825.743 2.27784 0.25434 0
M  V30 7164 C 826.743 1.34132 0.88686 0
M  V30 7165 O 827.933 1.5722 0.750168 0
M  V30 7166 C 825.065 3.12347 1.36573 0
M  V30 7167 H 826.258 2.96718 -0.435714 0
M  V30 7168 H 823.811 1.54052 -0.264128 0
M  V30 7169 H 824.546 2.47997 2.08969 0
M  V30 7170 H 824.331 3.81213 0.917543 0
M  V30 7171 H 825.821 3.71712 1.90315 0
M  V30 7172 N 826.258 0.243083 1.55714 0
M  V30 7173 C 827.506 -0.381964 1.98458 0
M  V30 7174 C 827.827 -1.58745 1.13247 0
M  V30 7175 O 827.097 -1.94723 0.214384 0
M  V30 7176 H 825.677 -0.144114 0.732967 0
M  V30 7177 H 828.339 0.340985 1.91894 0
M  V30 7178 H 827.435 -0.693702 3.04293 0
M  V30 7179 N 827.736 -1.57571 -0.0300757 0
M  V30 7180 C 828.668 -2.0329 -1.05857 0
M  V30 7181 C 829.681 -0.945543 -1.32527 0
M  V30 7182 O 830.87 -1.22287 -1.30032 0
M  V30 7183 C 827.97 -2.39234 -2.40042 0
M  V30 7184 C 827.143 -3.70337 -2.32743 0
M  V30 7185 C 826.202 -3.93482 -3.49369 0
M  V30 7186 O 825.228 -4.64551 -3.28909 0
M  V30 7187 N 826.43 -3.39042 -4.71201 0
M  V30 7188 H 829.195 -2.9214 -0.668897 0
M  V30 7189 H 826.756 -1.60425 -0.218038 0
M  V30 7190 H 828.748 -2.51856 -3.16782 0
M  V30 7191 H 827.318 -1.5606 -2.70858 0
M  V30 7192 H 826.538 -3.68079 -1.41109 0
M  V30 7193 H 827.826 -4.56343 -2.25007 0
M  V30 7194 H 827.224 -2.81434 -4.90725 0
M  V30 7195 H 825.781 -3.57045 -5.45309 0
M  V30 7196 N 829.214 0.302327 -1.54673 0
M  V30 7197 C 830.491 1.05721 -1.64567 0
M  V30 7198 C 830.871 2.0526 -0.493108 0
M  V30 7199 O 830.219 2.22729 0.510315 0
M  V30 7200 C 830.429 1.74025 -3.02517 0
M  V30 7201 C 831.777 2.26271 -3.59286 0
M  V30 7202 O 832.801 1.8406 -3.0496 0
M  V30 7203 O 831.66 3.0361 -4.54404 0
M  V30 7204 H 828.754 0.488577 -0.667249 0
M  V30 7205 H 831.3 0.300521 -1.67018 0
M  V30 7206 H 830.072 1.0174 -3.77842 0
M  V30 7207 H 829.695 2.56454 -3.03838 0
M  V30 7208 N 830.692 1.47107 0.565454 0
M  V30 7209 C 831.94 1.53005 1.32038 0
M  V30 7210 C 832.261 0.190453 1.94068 0
M  V30 7211 O 831.531 -0.784783 1.79494 0
M  V30 7212 H 830.111 0.563578 0.490294 0
M  V30 7213 H 832.773 1.83351 0.660928 0
M  V30 7214 H 831.869 2.29215 2.11818 0
M  V30 7215 N 832.17 -0.811516 1.35101 0
M  V30 7216 C 833.586 -1.10634 1.15031 0
M  V30 7217 C 833.786 -2.01459 -0.0405379 0
M  V30 7218 O 832.842 -2.42235 -0.712635 0
M  V30 7219 C 834.155 -1.74207 2.45097 0
M  V30 7220 C 835.703 -1.8665 2.51258 0
M  V30 7221 C 836.178 -2.53638 3.81355 0
M  V30 7222 N 837.669 -2.61128 3.82579 0
M  V30 7223 C 838.404 -3.13717 4.79968 0
M  V30 7224 N 837.9 -3.66782 5.87744 0
M  V30 7225 N 839.693 -3.12224 4.67411 0
M  V30 7226 H 831.844 -0.207641 2.11383 0
M  V30 7227 H 834.107 -0.154697 0.935293 0
M  V30 7228 H 833.813 -1.14936 3.32389 0
M  V30 7229 H 833.687 -2.73958 2.59281 0
M  V30 7230 H 836.074 -2.45066 1.64398 0
M  V30 7231 H 836.155 -0.857678 2.40993 0
M  V30 7232 H 835.799 -1.95873 4.68611 0
M  V30 7233 H 835.729 -3.55047 3.88907 0
M  V30 7234 H 838.22 -2.23527 3.04703 0
M  V30 7235 H 838.533 -4.05194 6.58056 0
M  V30 7236 H 836.878 -3.64994 5.91443 0
M  V30 7237 H 840.069 -2.70042 3.82354 0
M  V30 7238 H 840.242 -3.52903 5.43474 0
M  V30 7239 N 833.648 -1.19017 -1.03309 0
M  V30 7240 C 835.059 -0.993206 -1.5809 0
M  V30 7241 C 835.41 0.45505 -1.9085 0
M  V30 7242 O 834.535 1.33372 -1.70414 0
M  V30 7243 C 835.13 -1.79661 -2.87241 0
M  V30 7244 C 833.689 -1.64377 -3.38611 0
M  V30 7245 C 832.836 -1.78628 -2.12102 0
M  V30 7246 H 835.787 -1.3345 -0.858879 0
M  V30 7247 H 835.808 -1.29019 -3.57958 0
M  V30 7248 H 835.32 -2.85061 -2.63366 0
M  V30 7249 H 833.421 -0.615447 -3.67482 0
M  V30 7250 H 833.534 -2.44651 -4.11926 0
M  V30 7251 H 831.898 -1.21648 -2.23772 0
M  V30 7252 H 832.681 -2.8548 -1.90673 0
M  V30 7253 N 835.127 1.22348 -0.993418 0
M  V30 7254 C 836.375 1.90733 -0.668246 0
M  V30 7255 C 836.696 1.77732 0.802261 0
M  V30 7256 O 835.966 1.16486 1.57505 0
M  V30 7257 H 834.546 0.705966 -0.244174 0
M  V30 7258 H 837.208 1.48691 -1.26004 0
M  V30 7259 H 836.304 2.97883 -0.931239 0
M  V30 7260 N 836.605 0.766683 1.37694 0
M  V30 7261 C 838.016 0.394761 1.82479 0
M  V30 7262 C 838.367 -1.07842 1.63904 0
M  V30 7263 O 837.492 -1.83479 1.14737 0
M  V30 7264 C 838.087 0.70974 3.31283 0
M  V30 7265 C 836.646 0.390936 3.74364 0
M  V30 7266 C 835.793 0.956192 2.60293 0
M  V30 7267 H 838.744 0.961756 1.26238 0
M  V30 7268 H 838.765 -0.00742144 3.80499 0
M  V30 7269 H 838.277 1.782 3.4477 0
M  V30 7270 H 836.378 -0.674213 3.66449 0
M  V30 7271 H 836.491 0.895645 4.70654 0
M  V30 7272 H 834.855 0.380744 2.51838 0
M  V30 7273 H 835.638 2.03375 2.76575 0
M  V30 7274 N 838.083 -1.48885 0.516809 0
M  V30 7275 C 839.494 -1.86557 0.0729921 0
M  V30 7276 C 839.845 -1.42767 -1.34581 0
M  V30 7277 O 838.97 -0.812514 -2.00567 0
M  V30 7278 C 839.565 -3.38567 0.125686 0
M  V30 7279 C 838.124 -3.75481 -0.262867 0
M  V30 7280 C 837.271 -2.72913 0.491281 0
M  V30 7281 H 840.222 -1.40978 0.728767 0
M  V30 7282 H 840.243 -3.74629 -0.665831 0
M  V30 7283 H 839.755 -3.70408 1.15842 0
M  V30 7284 H 837.856 -3.49251 -1.29824 0
M  V30 7285 H 837.969 -4.79052 0.067579 0
M  V30 7286 H 836.333 -2.54627 -0.0608525 0
M  V30 7287 H 837.116 -3.07599 1.5244 0
M  V30 7288 N 839.561 -0.251338 -1.55583 0
M  V30 7289 C 840.809 0.371434 -1.98657 0
M  V30 7290 C 841.13 1.58143 -1.14087 0
M  V30 7291 O 840.4 1.94607 -0.224708 0
M  V30 7292 H 838.98 0.140225 -0.733721 0
M  V30 7293 H 841.642 -0.351157 -1.9171 0
M  V30 7294 H 840.738 0.677554 -3.04657 0
M  V30 7295 N 841.039 1.57585 0.0217189 0
M  V30 7296 C 842.45 1.7787 0.567377 0
M  V30 7297 C 842.801 0.883337 1.7519 0
M  V30 7298 O 841.926 0.0800819 2.16252 0
M  V30 7299 C 842.521 3.2257 1.03606 0
M  V30 7300 C 841.08 3.44026 1.52718 0
M  V30 7301 C 840.227 2.73313 0.468545 0
M  V30 7302 H 843.178 1.57377 -0.2045 0
M  V30 7303 H 843.199 3.29488 1.9031 0
M  V30 7304 H 842.711 3.87711 0.173739 0
M  V30 7305 H 840.812 2.8407 2.41111 0
M  V30 7306 H 840.925 4.52659 1.56962 0
M  V30 7307 H 839.289 2.37299 0.925263 0
M  V30 7308 H 840.072 3.41141 -0.384438 0
M  V30 7309 N 842.517 -0.29412 1.54831 0
M  V30 7310 C 843.928 -0.866651 1.65366 0
M  V30 7311 C 844.279 -1.87834 0.56681 0
M  V30 7312 O 843.404 -2.14374 -0.295389 0
M  V30 7313 C 843.999 -1.57869 2.99771 0
M  V30 7314 C 842.558 -2.09954 3.12404 0
M  V30 7315 C 841.705 -0.934492 2.6108 0
M  V30 7316 H 844.656 -0.0709551 1.58541 0
M  V30 7317 H 844.677 -2.44462 2.91579 0
M  V30 7318 H 844.189 -0.84212 3.78853 0
M  V30 7319 H 842.29 -2.86637 2.38055 0
M  V30 7320 H 842.403 -2.32934 4.18663 0
M  V30 7321 H 840.767 -1.32199 2.17705 0
M  V30 7322 H 841.55 -0.211768 3.42646 0
M  V30 7323 N 843.995 -1.47404 -0.557645 0
M  V30 7324 C 845.243 -1.53703 -1.31224 0
M  V30 7325 C 845.564 -0.200742 -1.93964 0
M  V30 7326 O 844.834 0.775253 -1.79907 0
M  V30 7327 H 843.414 -0.566171 -0.487299 0
M  V30 7328 H 846.076 -1.83699 -0.651195 0
M  V30 7329 H 845.172 -2.30335 -2.10599 0
M  V30 7330 N 845.473 0.80434 -1.35529 0
M  V30 7331 C 846.436 1.89788 -1.28503 0
M  V30 7332 C 847.436 1.59601 -0.195983 0
M  V30 7333 O 848.626 1.68292 -0.449827 0
M  V30 7334 C 845.758 3.26255 -0.98847 0
M  V30 7335 H 846.951 1.97436 -2.25741 0
M  V30 7336 H 844.504 1.00046 -1.20086 0
M  V30 7337 H 845.239 3.24294 -0.0200541 0
M  V30 7338 H 845.024 3.49551 -1.77641 0
M  V30 7339 H 846.514 4.06298 -0.964975 0
M  V30 7340 N 846.951 1.19563 1.02676 0
M  V30 7341 C 848.367 0.948304 1.28372 0
M  V30 7342 C 848.567 -0.378096 1.97921 0
M  V30 7343 O 847.623 -1.1091 2.26838 0
M  V30 7344 C 848.936 2.12381 2.12873 0
M  V30 7345 C 850.484 2.16366 2.26174 0
M  V30 7346 C 850.959 3.33374 3.14048 0
M  V30 7347 N 852.45 3.33323 3.21636 0
M  V30 7348 C 853.185 4.20504 3.89825 0
M  V30 7349 N 852.681 5.17845 4.60227 0
M  V30 7350 N 854.474 4.08375 3.86246 0
M  V30 7351 H 846.625 2.04899 0.559485 0
M  V30 7352 H 848.888 0.89606 0.309484 0
M  V30 7353 H 848.594 3.08383 1.69094 0
M  V30 7354 H 848.468 2.09621 3.1359 0
M  V30 7355 H 850.855 1.20933 2.69182 0
M  V30 7356 H 850.936 2.23179 1.25 0
M  V30 7357 H 850.58 4.29087 2.71747 0
M  V30 7358 H 850.51 3.23798 4.15286 0
M  V30 7359 H 853.001 2.62863 2.71498 0
M  V30 7360 H 853.314 5.80712 5.09896 0
M  V30 7361 H 851.659 5.21791 4.59085 0
M  V30 7362 H 854.85 3.31606 3.30386 0
M  V30 7363 H 855.023 4.76532 4.39114 0
M  V30 7364 N 848.429 -1.21819 0.999893 0
M  V30 7365 C 849.677 -1.90375 0.678351 0
M  V30 7366 C 849.998 -1.78155 -0.792824 0
M  V30 7367 O 849.268 -1.17319 -1.56885 0
M  V30 7368 H 847.848 -0.704661 0.247915 0
M  V30 7369 H 850.51 -1.48021 1.2679 0
M  V30 7370 H 849.606 -2.97385 0.947023 0
M  V30 7371 N 849.908 -0.773975 -1.37286 0
M  V30 7372 C 850.84 -0.119938 -2.28886 0
M  V30 7373 C 851.853 0.661822 -1.48741 0
M  V30 7374 O 853.042 0.499548 -1.71367 0
M  V30 7375 C 850.142 0.853703 -3.27971 0
M  V30 7376 C 849.315 0.125286 -4.37221 0
M  V30 7377 C 848.374 1.01261 -5.16365 0
M  V30 7378 O 847.4 0.475565 -5.6721 0
M  V30 7379 N 848.602 2.33864 -5.31308 0
M  V30 7380 H 851.367 -0.906702 -2.85655 0
M  V30 7381 H 848.928 -0.626519 -1.49286 0
M  V30 7382 H 850.92 1.4508 -3.77801 0
M  V30 7383 H 849.49 1.54142 -2.71954 0
M  V30 7384 H 848.71 -0.652742 -3.88758 0
M  V30 7385 H 849.998 -0.377959 -5.07394 0
M  V30 7386 H 849.396 2.79929 -4.91585 0
M  V30 7387 H 847.953 2.88575 -5.84438 0
M  V30 7388 N 851.386 1.48609 -0.524698 0
M  V30 7389 C 852.349 2.28041 0.230166 0
M  V30 7390 C 853.349 1.35065 0.872584 0
M  V30 7391 O 854.539 1.58007 0.73345 0
M  V30 7392 C 851.671 3.13778 1.33252 0
M  V30 7393 H 852.864 2.96239 -0.467161 0
M  V30 7394 H 850.417 1.53763 -0.280452 0
M  V30 7395 H 851.152 2.502 2.06327 0
M  V30 7396 H 850.937 3.82165 0.877058 0
M  V30 7397 H 852.427 3.7371 1.86362 0
M  V30 7398 N 852.864 0.259585 1.55447 0
M  V30 7399 C 854.112 -0.360893 1.98852 0
M  V30 7400 C 854.433 -1.57535 1.14924 0
M  V30 7401 O 853.703 -1.94485 0.235025 0
M  V30 7402 H 852.283 -0.136332 0.734454 0
M  V30 7403 H 854.945 0.361319 1.91522 0
M  V30 7404 H 854.041 -0.661388 3.05012 0
M  V30 7405 N 854.342 -1.57594 -0.0133615 0
M  V30 7406 C 855.588 -1.90262 -0.702019 0
M  V30 7407 C 855.921 -0.859219 -1.74158 0
M  V30 7408 O 855.196 0.123778 -1.94106 0
M  V30 7409 C 855.479 -3.3354 -1.35732 0
M  V30 7410 C 855.332 -4.48586 -0.330208 0
M  V30 7411 C 856.651 -3.76004 -2.28712 0
M  V30 7412 H 853.77 -0.691943 -0.253739 0
M  V30 7413 H 856.412 -1.89967 0.0351894 0
M  V30 7414 H 854.562 -3.33921 -1.98567 0
M  V30 7415 H 856.234 -4.6034 0.297433 0
M  V30 7416 H 854.477 -4.32394 0.348926 0
M  V30 7417 H 855.148 -5.45762 -0.827508 0
M  V30 7418 H 857.624 -3.77089 -1.75906 0
M  V30 7419 H 856.5 -4.77032 -2.71535 0
M  V30 7420 H 856.761 -3.09129 -3.16056 0
M  V30 7421 N 855.82 0.285905 -1.54985 0
M  V30 7422 C 856.753 1.37817 -1.81884 0
M  V30 7423 C 857.731 1.4811 -0.670988 0
M  V30 7424 O 858.915 1.64936 -0.912595 0
M  V30 7425 C 856.042 2.75587 -1.969 0
M  V30 7426 C 855.088 2.82643 -3.19398 0
M  V30 7427 S 855.921 2.43199 -4.7709 0
M  V30 7428 C 857.077 3.82969 -4.95061 0
M  V30 7429 H 857.31 1.14794 -2.74244 0
M  V30 7430 H 854.843 0.484843 -1.4659 0
M  V30 7431 H 856.801 3.54932 -2.06236 0
M  V30 7432 H 855.462 2.9587 -1.05451 0
M  V30 7433 H 854.655 3.8373 -3.26753 0
M  V30 7434 H 854.257 2.11306 -3.08586 0
M  V30 7435 H 856.549 4.78117 -4.80011 0
M  V30 7436 H 857.492 3.80575 -5.97133 0
M  V30 7437 H 857.9 3.73673 -4.23118 0
M  V30 7438 N 857.298 1.47698 0.54982 0
M  V30 7439 C 858.546 1.54397 1.30407 0
M  V30 7440 C 858.867 0.211026 1.93855 0
M  V30 7441 O 858.137 -0.765701 1.80316 0
M  V30 7442 H 856.717 0.568747 0.484289 0
M  V30 7443 H 859.379 1.84042 0.641444 0
M  V30 7444 H 858.475 2.31449 2.09375 0
M  V30 7445 N 858.776 -0.797141 1.35954 0
M  V30 7446 C 860.023 -1.55468 1.29754 0
M  V30 7447 C 860.351 -1.94095 -0.125391 0
M  V30 7448 O 859.606 -1.62341 -1.09288 0
M  V30 7449 C 859.905 -2.84847 2.15863 0
M  V30 7450 C 859.571 -2.65394 3.64523 0
M  V30 7451 C 858.233 -2.59796 4.05042 0
M  V30 7452 C 860.585 -2.4727 4.58811 0
M  V30 7453 C 857.913 -2.3403 5.38002 0
M  V30 7454 C 860.265 -2.23032 5.91979 0
M  V30 7455 C 858.929 -2.15862 6.31633 0
M  V30 7456 H 858.199 -0.568897 0.474803 0
M  V30 7457 H 860.846 -0.920299 1.67937 0
M  V30 7458 H 859.151 -3.52712 1.70591 0
M  V30 7459 H 860.848 -3.42597 2.08395 0
M  V30 7460 H 857.438 -2.70602 3.32374 0
M  V30 7461 H 861.622 -2.506 4.28384 0
M  V30 7462 H 856.878 -2.26956 5.67715 0
M  V30 7463 H 861.052 -2.08001 6.64612 0
M  V30 7464 H 858.679 -1.9566 7.34589 0
M  V30 7465 N 860.254 -1.20106 -1.0204 0
M  V30 7466 C 861.665 -1.00992 -1.57027 0
M  V30 7467 C 862.016 0.434782 -1.91322 0
M  V30 7468 O 861.141 1.31557 -1.71819 0
M  V30 7469 C 861.736 -1.82697 -2.85319 0
M  V30 7470 C 860.295 -1.67959 -3.36848 0
M  V30 7471 C 859.442 -1.80868 -2.10195 0
M  V30 7472 H 862.393 -1.34354 -0.844676 0
M  V30 7473 H 862.414 -1.32809 -3.5657 0
M  V30 7474 H 861.926 -2.87839 -2.60328 0
M  V30 7475 H 860.027 -0.654389 -3.66809 0
M  V30 7476 H 860.14 -2.49006 -4.09308 0
M  V30 7477 H 858.504 -1.24015 -2.22469 0
M  V30 7478 H 859.287 -2.87486 -1.87635 0
M  V30 7479 N 861.732 1.21287 -1.00634 0
M  V30 7480 C 862.98 1.90013 -0.688438 0
M  V30 7481 C 863.301 1.78573 0.783365 0
M  V30 7482 O 862.571 1.1815 1.56261 0
M  V30 7483 H 861.151 0.703336 -0.251648 0
M  V30 7484 H 863.813 1.47346 -1.27574 0
M  V30 7485 H 862.909 2.96879 -0.962781 0
M  V30 7486 N 863.21 0.781244 1.36873 0
M  V30 7487 C 864.621 0.414093 1.8205 0
M  V30 7488 C 864.972 -1.06098 1.65039 0
M  V30 7489 O 864.097 -1.82251 1.16677 0
M  V30 7490 C 864.692 0.744837 3.30511 0
M  V30 7491 C 863.251 0.430621 3.73929 0
M  V30 7492 C 862.398 0.983746 2.59264 0
M  V30 7493 H 865.349 0.975091 1.2521 0
M  V30 7494 H 865.37 0.032936 3.80486 0
M  V30 7495 H 864.882 1.81847 3.42861 0
M  V30 7496 H 862.983 -0.635308 3.67144 0
M  V30 7497 H 863.096 0.945514 4.69677 0
M  V30 7498 H 861.46 0.407433 2.5142 0
M  V30 7499 H 862.243 2.06297 2.74402 0
M  V30 7500 N 864.689 -1.48329 0.532571 0
M  V30 7501 C 865.636 -2.29663 -0.228779 0
M  V30 7502 C 866.606 -1.37529 -0.931401 0
M  V30 7503 O 867.791 -1.66493 -0.931921 0
M  V30 7504 C 864.931 -3.20955 -1.26814 0
M  V30 7505 C 864.044 -4.28168 -0.574099 0
M  V30 7506 C 863.179 -5.06638 -1.59661 0
M  V30 7507 C 862.218 -6.05651 -0.88618 0
M  V30 7508 N 861.355 -6.77169 -1.85436 0
M  V30 7509 H 866.195 -2.94255 0.47098 0
M  V30 7510 H 863.732 -1.45061 0.2441 0
M  V30 7511 H 865.69 -3.72285 -1.88307 0
M  V30 7512 H 864.32 -2.58281 -1.93625 0
M  V30 7513 H 863.372 -3.80085 0.154827 0
M  V30 7514 H 864.684 -4.98797 -0.0163984 0
M  V30 7515 H 863.838 -5.61995 -2.28576 0
M  V30 7516 H 862.577 -4.35854 -2.18821 0
M  V30 7517 H 861.582 -5.49495 -0.182981 0
M  V30 7518 H 862.807 -6.78434 -0.300659 0
M  V30 7519 H 860.753 -6.09134 -2.43499 0
M  V30 7520 H 860.67 -7.43882 -1.34816 0
M  V30 7521 H 861.938 -7.37114 -2.53541 0
M  V30 7522 N 866.167 -0.267825 -1.55308 0
M  V30 7523 C 867.415 0.350343 -1.9904 0
M  V30 7524 C 867.736 1.56924 -1.15758 0
M  V30 7525 O 867.006 1.94358 -0.245336 0
M  V30 7526 H 865.586 0.132435 -0.735167 0
M  V30 7527 H 868.248 -0.371471 -1.91327 0
M  V30 7528 H 867.344 0.645203 -3.05358 0
M  V30 7529 N 867.645 1.57599 0.00500368 0
M  V30 7530 C 868.608 2.07058 0.982832 0
M  V30 7531 C 869.608 0.979045 1.27559 0
M  V30 7532 O 870.798 1.24187 1.22161 0
M  V30 7533 C 867.93 2.50782 2.30914 0
M  V30 7534 H 869.123 2.94718 0.555119 0
M  V30 7535 H 866.676 1.54249 0.25237 0
M  V30 7536 H 867.411 1.66351 2.78385 0
M  V30 7537 H 867.196 3.30495 2.10987 0
M  V30 7538 H 868.686 2.89391 3.0107 0
M  V30 7539 N 869.123 -0.277682 1.55134 0
M  V30 7540 C 870.086 -1.32635 1.86924 0
M  V30 7541 C 871.086 -1.42578 0.743507 0
M  V30 7542 O 872.276 -1.4181 1.01171 0
M  V30 7543 C 869.408 -2.70832 2.07034 0
M  V30 7544 H 870.601 -1.0568 2.80663 0
M  V30 7545 H 868.154 -0.515517 1.47554 0
M  V30 7546 H 868.889 -3.02974 1.15661 0
M  V30 7547 H 868.674 -2.65001 2.88993 0
M  V30 7548 H 870.164 -3.46611 2.32918 0
M  V30 7549 N 870.601 -1.47988 -0.541979 0
M  V30 7550 C 871.849 -1.55086 -1.29587 0
M  V30 7551 C 872.17 -0.221304 -1.9374 0
M  V30 7552 O 871.44 0.756128 -1.80719 0
M  V30 7553 H 870.02 -0.571307 -0.481266 0
M  V30 7554 H 872.682 -1.8438 -0.631675 0
M  V30 7555 H 871.778 -2.32556 -2.08144 0
M  V30 7556 N 872.079 0.78992 -1.36375 0
M  V30 7557 C 872.989 1.93386 -1.32812 0
M  V30 7558 C 874.005 1.72468 -0.230377 0
M  V30 7559 O 875.181 1.96014 -0.462657 0
M  V30 7560 C 872.246 3.2824 -1.11621 0
M  V30 7561 C 871.307 3.61939 -2.30865 0
M  V30 7562 C 870.54 4.90359 -2.10675 0
M  V30 7563 O 870.763 5.6005 -1.08168 0
M  V30 7564 O 869.697 5.22702 -2.9844 0
M  V30 7565 H 873.523 1.99342 -2.29121 0
M  V30 7566 H 871.108 0.9301 -1.16917 0
M  V30 7567 H 872.99 4.08939 -1.01719 0
M  V30 7568 H 871.665 3.23178 -0.183732 0
M  V30 7569 H 870.572 2.81549 -2.46335 0
M  V30 7570 H 871.905 3.71725 -3.22617 0
M  V30 7571 N 873.557 1.20646 1.01402 0
M  V30 7572 C 874.968 1.01823 1.56489 0
M  V30 7573 C 875.319 -0.42463 1.9155 0
M  V30 7574 O 874.444 -1.30644 1.72514 0
M  V30 7575 C 875.039 1.84208 2.84347 0
M  V30 7576 C 873.598 1.69743 3.35953 0
M  V30 7577 C 872.745 1.8198 2.09233 0
M  V30 7578 H 875.696 1.348 0.837539 0
M  V30 7579 H 875.717 1.34698 3.55861 0
M  V30 7580 H 875.229 2.89215 2.58798 0
M  V30 7581 H 873.33 0.673833 3.66456 0
M  V30 7582 H 873.443 2.51173 4.07981 0
M  V30 7583 H 871.807 1.25193 2.21808 0
M  V30 7584 H 872.59 2.88477 1.86107 0
M  V30 7585 N 875.035 -1.20752 1.01276 0
M  V30 7586 C 876.283 -1.89645 0.698505 0
M  V30 7587 C 876.604 -1.78986 -0.773883 0
M  V30 7588 O 875.874 -1.18977 -1.55632 0
M  V30 7589 H 874.454 -0.701992 0.255375 0
M  V30 7590 H 877.116 -1.46668 1.28353 0
M  V30 7591 H 876.212 -2.96364 0.978512 0
M  V30 7592 N 876.513 -0.788492 -1.36457 0
M  V30 7593 C 877.46 -0.18435 -2.30063 0
M  V30 7594 C 878.43 0.67128 -1.51931 0
M  V30 7595 O 879.615 0.620152 -1.8044 0
M  V30 7596 C 876.755 0.675596 -3.38422 0
M  V30 7597 C 875.868 -0.198475 -4.31544 0
M  V30 7598 C 875.003 0.667757 -5.26986 0
M  V30 7599 C 874.042 -0.207825 -6.11747 0
M  V30 7600 N 873.179 0.617335 -6.99381 0
M  V30 7601 H 878.019 -0.988056 -2.81143 0
M  V30 7602 H 875.556 -0.498815 -1.38384 0
M  V30 7603 H 877.514 1.18916 -3.99894 0
M  V30 7604 H 876.144 1.44474 -2.88664 0
M  V30 7605 H 875.196 -0.829995 -3.71235 0
M  V30 7606 H 876.508 -0.873163 -4.91098 0
M  V30 7607 H 875.662 1.24716 -5.93743 0
M  V30 7608 H 874.401 1.37607 -4.67884 0
M  V30 7609 H 873.406 -0.799638 -5.43954 0
M  V30 7610 H 874.631 -0.913729 -6.72925 0
M  V30 7611 H 872.577 1.30996 -6.42788 0
M  V30 7612 H 872.494 0.000307255 -7.56 0
M  V30 7613 H 873.762 1.1806 -7.70508 0
M  V30 7614 N 877.991 1.48044 -0.54043 0
M  V30 7615 C 878.954 2.28273 0.205966 0
M  V30 7616 C 879.954 1.35983 0.858209 0
M  V30 7617 O 881.144 1.58776 0.716651 0
M  V30 7618 C 878.276 3.15174 1.29917 0
M  V30 7619 H 879.469 2.95727 -0.498555 0
M  V30 7620 H 877.022 1.53457 -0.296745 0
M  V30 7621 H 877.757 2.52374 2.03661 0
M  V30 7622 H 877.542 3.83074 0.836475 0
M  V30 7623 H 879.032 3.75666 1.82387 0
M  V30 7624 N 879.47 0.276058 1.55163 0
M  V30 7625 C 880.718 -0.339782 1.99223 0
M  V30 7626 C 881.039 -1.56307 1.16589 0
M  V30 7627 O 880.309 -1.94225 0.25564 0
M  V30 7628 H 878.889 -0.128534 0.735859 0
M  V30 7629 H 881.551 0.381612 1.91128 0
M  V30 7630 H 880.647 -0.629 3.05696 0
M  V30 7631 N 880.948 -1.576 0.00335426 0
M  V30 7632 C 881.858 -2.12067 -1.00322 0
M  V30 7633 C 882.874 -1.06672 -1.37467 0
M  V30 7634 O 884.05 -1.38592 -1.46131 0
M  V30 7635 C 881.115 -2.61593 -2.27531 0
M  V30 7636 C 880.176 -3.81602 -1.96668 0
M  V30 7637 C 879.409 -4.28756 -3.17811 0
M  V30 7638 O 879.632 -3.75222 -4.2961 0
M  V30 7639 O 878.566 -5.20877 -3.01613 0
M  V30 7640 H 882.392 -2.98299 -0.570199 0
M  V30 7641 H 879.977 -1.47835 -0.215682 0
M  V30 7642 H 881.859 -2.93631 -3.02256 0
M  V30 7643 H 880.534 -1.78457 -2.70065 0
M  V30 7644 H 879.441 -3.54531 -1.19408 0
M  V30 7645 H 880.774 -4.65822 -1.58968 0
M  V30 7646 N 882.426 0.269451 -1.5528 0
M  V30 7647 C 883.842 0.616827 -1.47199 0
M  V30 7648 C 884.042 1.89354 -0.68901 0
M  V30 7649 O 883.098 2.51631 -0.209287 0
M  V30 7650 C 884.411 0.740492 -2.9144 0
M  V30 7651 C 885.959 0.834312 -3.01676 0
M  V30 7652 C 886.434 0.989725 -4.47178 0
M  V30 7653 N 887.925 1.05516 -4.51022 0
M  V30 7654 C 888.66 1.19427 -5.60825 0
M  V30 7655 N 888.156 1.30035 -6.80487 0
M  V30 7656 N 889.949 1.22566 -5.48575 0
M  V30 7657 H 882.1 -0.568962 -2.04638 0
M  V30 7658 H 884.363 -0.193153 -0.928114 0
M  V30 7659 H 884.069 -0.127234 -3.5147 0
M  V30 7660 H 883.943 1.61965 -3.40657 0
M  V30 7661 H 886.33 1.6925 -2.4174 0
M  V30 7662 H 886.411 -0.0695298 -2.55705 0
M  V30 7663 H 886.055 0.136179 -5.07717 0
M  V30 7664 H 885.985 1.90827 -4.90808 0
M  V30 7665 H 888.476 0.985434 -3.64825 0
M  V30 7666 H 888.789 1.40494 -7.59922 0
M  V30 7667 H 887.134 1.27033 -6.83292 0
M  V30 7668 H 890.325 1.13911 -4.54029 0
M  V30 7669 H 890.498 1.33063 -6.34191 0
M  V30 7670 N 883.904 1.48273 0.534124 0
M  V30 7671 C 885.152 1.55771 1.28762 0
M  V30 7672 C 885.473 0.231575 1.9362 0
M  V30 7673 O 884.743 -0.746533 1.81118 0
M  V30 7674 H 883.323 0.573851 0.47823 0
M  V30 7675 H 885.985 1.84712 0.621888 0
M  V30 7676 H 885.081 2.33657 2.06908 0
M  V30 7677 N 885.382 -0.782676 1.36792 0
M  V30 7678 C 886.628 -1.54311 1.3159 0
M  V30 7679 C 886.961 -1.93928 -0.102696 0
M  V30 7680 O 886.236 -1.63233 -1.05761 0
M  V30 7681 C 886.519 -2.81561 2.24489 0
M  V30 7682 C 886.372 -2.48268 3.75078 0
M  V30 7683 C 887.691 -3.83428 2.16034 0
M  V30 7684 H 884.81 -0.559828 0.479335 0
M  V30 7685 H 887.452 -0.898717 1.67401 0
M  V30 7686 H 885.602 -3.36549 1.9408 0
M  V30 7687 H 887.274 -1.99279 4.16036 0
M  V30 7688 H 885.517 -1.81116 3.94182 0
M  V30 7689 H 886.188 -3.39183 4.35499 0
M  V30 7690 H 888.664 -3.37905 2.42815 0
M  V30 7691 H 887.54 -4.70204 2.83194 0
M  V30 7692 H 887.801 -4.26887 1.14976 0
M  V30 7693 N 886.86 -1.21182 -1.00761 0
M  V30 7694 C 888.271 -1.02652 -1.55947 0
M  V30 7695 C 888.622 0.414466 -1.91772 0
M  V30 7696 O 887.747 1.29727 -1.73204 0
M  V30 7697 C 888.342 -1.85713 -2.83366 0
M  V30 7698 C 886.901 -1.71523 -3.35048 0
M  V30 7699 C 886.048 -1.83087 -2.08265 0
M  V30 7700 H 888.999 -1.35242 -0.830379 0
M  V30 7701 H 889.02 -1.36583 -3.55141 0
M  V30 7702 H 888.532 -2.90584 -2.5726 0
M  V30 7703 H 886.633 -0.693257 -3.66094 0
M  V30 7704 H 886.746 -2.53333 -4.06644 0
M  V30 7705 H 885.11 -1.26367 -2.21141 0
M  V30 7706 H 885.893 -2.8946 -1.84575 0
M  V30 7707 N 888.338 1.20213 -1.01915 0
M  V30 7708 C 889.586 1.89272 -0.708552 0
M  V30 7709 C 889.907 1.79394 0.76438 0
M  V30 7710 O 889.177 1.198 1.54999 0
M  V30 7711 H 887.757 0.700628 -0.259094 0
M  V30 7712 H 890.419 1.45985 -1.29129 0
M  V30 7713 H 889.515 2.95841 -0.994215 0
M  V30 7714 N 889.816 0.795718 1.36037 0
M  V30 7715 C 891.227 0.433379 1.816 0
M  V30 7716 C 891.578 -1.04341 1.66155 0
M  V30 7717 O 890.703 -1.81004 1.18603 0
M  V30 7718 C 891.298 0.77985 3.29703 0
M  V30 7719 C 889.857 0.470256 3.73451 0
M  V30 7720 C 889.004 1.01119 2.58206 0
M  V30 7721 H 891.955 0.988317 1.24169 0
M  V30 7722 H 891.976 0.0732898 3.80429 0
M  V30 7723 H 891.488 1.85473 3.40913 0
M  V30 7724 H 889.589 -0.596332 3.67797 0
M  V30 7725 H 889.702 0.995276 4.68648 0
M  V30 7726 H 888.066 0.434077 2.50974 0
M  V30 7727 H 888.849 2.09196 2.72198 0
M  V30 7728 N 891.294 -1.47756 0.548274 0
M  V30 7729 C 892.705 -1.8636 0.112547 0
M  V30 7730 C 893.056 -1.45589 -1.31523 0
M  V30 7731 O 892.181 -0.854874 -1.98799 0
M  V30 7732 C 892.776 -3.38224 0.197473 0
M  V30 7733 C 891.335 -3.75954 -0.183163 0
M  V30 7734 C 890.482 -2.7181 0.549059 0
M  V30 7735 H 893.433 -1.394 0.758506 0
M  V30 7736 H 893.454 -3.75957 -0.586217 0
M  V30 7737 H 892.966 -3.67868 1.23673 0
M  V30 7738 H 891.067 -3.51926 -1.22387 0
M  V30 7739 H 891.18 -4.78801 0.169178 0
M  V30 7740 H 889.544 -2.54699 -0.00682862 0
M  V30 7741 H 890.327 -3.04296 1.5893 0
M  V30 7742 N 892.772 -0.284283 -1.55015 0
M  V30 7743 C 894.02 0.329212 -1.99401 0
M  V30 7744 C 894.341 1.55687 -1.17416 0
M  V30 7745 O 893.611 1.94087 -0.265937 0
M  V30 7746 H 892.191 0.12463 -0.73653 0
M  V30 7747 H 894.853 -0.391743 -1.90922 0
M  V30 7748 H 893.949 0.61278 -3.06025 0
M  V30 7749 N 894.251 1.57596 -0.0117121 0
M  V30 7750 C 895.214 2.08089 0.960816 0
M  V30 7751 C 896.214 0.992519 1.26514 0
M  V30 7752 O 897.404 1.25475 1.20837 0
M  V30 7753 C 894.536 2.53217 2.28241 0
M  V30 7754 H 895.729 2.9529 0.523829 0
M  V30 7755 H 893.282 1.54508 0.235995 0
M  V30 7756 H 894.017 1.69294 2.76604 0
M  V30 7757 H 893.802 3.32714 2.0747 0
M  V30 7758 H 895.292 2.92568 2.97983 0
M  V30 7759 N 895.729 -0.261212 1.5542 0
M  V30 7760 C 896.975 -0.992699 1.76843 0
M  V30 7761 C 897.308 -1.8551 0.574428 0
M  V30 7762 O 896.583 -1.89739 -0.427713 0
M  V30 7763 C 896.866 -1.86532 3.08022 0
M  V30 7764 C 896.719 -1.03206 4.378 0
M  V30 7765 C 898.038 -2.85036 3.35324 0
M  V30 7766 H 895.157 -0.359473 0.643388 0
M  V30 7767 H 897.799 -0.264214 1.88154 0
M  V30 7768 H 895.949 -2.48644 2.9851 0
M  V30 7769 H 897.621 -0.430743 4.59285 0
M  V30 7770 H 895.864 -0.335911 4.32497 0
M  V30 7771 H 896.535 -1.6761 5.25938 0
M  V30 7772 H 899.011 -2.3306 3.44706 0
M  V30 7773 H 897.887 -3.43226 4.28354 0
M  V30 7774 H 898.148 -3.60768 2.55537 0
M  V30 7775 N 897.207 -1.48554 -0.526253 0
M  V30 7776 C 898.455 -1.56452 -1.27935 0
M  V30 7777 C 898.776 -0.24184 -1.93495 0
M  V30 7778 O 898.046 0.736917 -1.81511 0
M  V30 7779 H 896.626 -0.576379 -0.47518 0
M  V30 7780 H 899.288 -1.85039 -0.612083 0
M  V30 7781 H 898.384 -2.34751 -2.05666 0
M  V30 7782 N 898.685 0.775411 -1.37205 0
M  V30 7783 C 900.096 1.35147 -1.28811 0
M  V30 7784 C 900.447 1.96089 0.0659168 0
M  V30 7785 O 899.572 1.93558 0.967684 0
M  V30 7786 C 900.167 2.45715 -2.33258 0
M  V30 7787 C 898.726 2.99099 -2.2851 0
M  V30 7788 C 897.873 1.72286 -2.17285 0
M  V30 7789 H 900.824 0.575954 -1.4788 0
M  V30 7790 H 900.845 3.251 -1.97712 0
M  V30 7791 H 900.357 2.01331 -3.31795 0
M  V30 7792 H 898.458 3.47868 -1.33485 0
M  V30 7793 H 898.571 3.54962 -3.21774 0
M  V30 7794 H 896.935 1.95068 -1.6377 0
M  V30 7795 H 897.718 1.3001 -3.1773 0
M  V30 7796 N 900.163 1.21714 1.00117 0
M  V30 7797 C 901.126 0.981338 2.07129 0
M  V30 7798 C 902.126 -0.0491116 1.60725 0
M  V30 7799 O 903.316 0.188555 1.73177 0
M  V30 7800 C 900.448 0.480608 3.37495 0
M  V30 7801 H 901.641 1.93075 2.29482 0
M  V30 7802 H 899.194 1.03467 1.17151 0
M  V30 7803 H 899.929 -0.473552 3.20824 0
M  V30 7804 H 899.714 1.22393 3.72508 0
M  V30 7805 H 901.204 0.33561 4.16249 0
M  V30 7806 N 901.641 -1.19671 1.02551 0
M  V30 7807 C 902.889 -1.88894 0.71858 0
M  V30 7808 C 903.21 -1.79797 -0.754856 0
M  V30 7809 O 902.48 -1.20621 -1.54362 0
M  V30 7810 H 901.06 -0.699244 0.262806 0
M  V30 7811 H 903.722 -1.45298 1.29902 0
M  V30 7812 H 902.818 -2.95309 1.00989 0
M  V30 7813 N 903.119 -0.802921 -1.35613 0
M  V30 7814 C 904.066 -0.20874 -2.29854 0
M  V30 7815 C 905.036 0.655128 -1.52634 0
M  V30 7816 O 906.221 0.600979 -1.81088 0
M  V30 7817 C 903.361 0.639663 -3.3912 0
M  V30 7818 C 902.474 -0.244234 -4.31309 0
M  V30 7819 C 901.609 0.611825 -5.27665 0
M  V30 7820 C 900.648 -0.272698 -6.11492 0
M  V30 7821 N 899.785 0.543122 -6.99996 0
M  V30 7822 H 904.625 -1.01782 -2.80079 0
M  V30 7823 H 902.162 -0.513465 -1.37848 0
M  V30 7824 H 904.12 1.14668 -4.01132 0
M  V30 7825 H 902.75 1.41404 -2.9018 0
M  V30 7826 H 901.802 -0.869322 -3.70334 0
M  V30 7827 H 903.114 -0.925202 -4.90144 0
M  V30 7828 H 902.268 1.18412 -5.95032 0
M  V30 7829 H 901.007 1.32637 -4.69317 0
M  V30 7830 H 900.012 -0.857287 -5.43075 0
M  V30 7831 H 901.237 -0.985051 -6.71918 0
M  V30 7832 H 899.183 1.24171 -6.44141 0
M  V30 7833 H 899.1 -0.0798767 -7.55958 0
M  V30 7834 H 900.368 1.09881 -7.71717 0
M  V30 7835 N 904.597 1.47463 -0.556102 0
M  V30 7836 C 905.874 1.9557 0.0339892 0
M  V30 7837 C 906.254 1.49869 1.48669 0
M  V30 7838 O 905.602 0.737019 2.16288 0
M  V30 7839 C 905.812 3.48826 -0.110343 0
M  V30 7840 C 907.16 4.24585 0.0355716 0
M  V30 7841 O 908.184 3.5618 -0.0378356 0
M  V30 7842 O 907.043 5.46158 0.193299 0
M  V30 7843 H 904.137 0.824461 0.0647521 0
M  V30 7844 H 906.683 1.57868 -0.622547 0
M  V30 7845 H 905.455 3.74891 -1.12126 0
M  V30 7846 H 905.078 3.9329 0.583855 0
M  V30 7847 N 906.075 0.2925 1.54862 0
M  V30 7848 C 907.323 -0.318633 1.99572 0
M  V30 7849 C 907.644 -1.55062 1.1824 0
M  V30 7850 O 906.914 -1.93943 0.276226 0
M  V30 7851 H 905.494 -0.120722 0.737181 0
M  V30 7852 H 908.156 0.401862 1.90712 0
M  V30 7853 H 907.252 -0.596542 3.06346 0
M  V30 7854 N 907.553 -1.57587 0.0200696 0
M  V30 7855 C 908.463 -2.13119 -0.980676 0
M  V30 7856 C 909.479 -1.08124 -1.36328 0
M  V30 7857 O 910.655 -1.40134 -1.44653 0
M  V30 7858 C 907.72 -2.63991 -2.24743 0
M  V30 7859 C 906.781 -3.83667 -1.9261 0
M  V30 7860 C 906.014 -4.32103 -3.13246 0
M  V30 7861 O 906.237 -3.79758 -4.25606 0
M  V30 7862 O 905.171 -5.24047 -2.96072 0
M  V30 7863 H 908.997 -2.98887 -0.538528 0
M  V30 7864 H 906.582 -1.48055 -0.19999 0
M  V30 7865 H 908.464 -2.9682 -2.99125 0
M  V30 7866 H 907.139 -1.81311 -2.68157 0
M  V30 7867 H 906.046 -3.55778 -1.15641 0
M  V30 7868 H 907.379 -4.67482 -1.54019 0
M  V30 7869 N 909.032 0.252966 -1.55557 0
M  V30 7870 C 909.995 1.29645 -1.8901 0
M  V30 7871 C 910.995 1.41378 -0.766096 0
M  V30 7872 O 912.185 1.40183 -1.03414 0
M  V30 7873 C 909.317 2.67504 -2.11316 0
M  V30 7874 H 910.51 1.01202 -2.82309 0
M  V30 7875 H 908.063 0.491977 -1.48355 0
M  V30 7876 H 908.798 3.01095 -1.20466 0
M  V30 7877 H 908.583 2.6037 -2.93172 0
M  V30 7878 H 910.073 3.42861 -2.38403 0
M  V30 7879 N 910.51 1.48831 0.518367 0
M  V30 7880 C 911.758 1.57128 1.27103 0
M  V30 7881 C 912.079 0.252098 1.93364 0
M  V30 7882 O 911.349 -0.727281 1.819 0
M  V30 7883 H 909.929 0.578891 0.472116 0
M  V30 7884 H 912.591 1.85361 0.602262 0
M  V30 7885 H 911.687 2.35838 2.04418 0
M  V30 7886 N 911.988 -0.768124 1.37614 0
M  V30 7887 C 912.951 -1.86314 1.3349 0
M  V30 7888 C 913.951 -1.59025 0.23823 0
M  V30 7889 O 915.141 -1.6704 0.494288 0
M  V30 7890 C 912.273 -3.23519 1.07462 0
M  V30 7891 H 913.466 -1.91382 2.30896 0
M  V30 7892 H 911.019 -0.968267 1.22696 0
M  V30 7893 H 911.754 -3.24127 0.106028 0
M  V30 7894 H 911.539 -3.44719 1.86846 0
M  V30 7895 H 913.029 -4.03597 1.07236 0
M  V30 7896 N 913.466 -1.22244 -0.994698 0
M  V30 7897 C 914.398 -0.948706 -2.08644 0
M  V30 7898 C 915.411 0.0720049 -1.62641 0
M  V30 7899 O 916.6 -0.161778 -1.77765 0
M  V30 7900 C 913.7 -0.404885 -3.36473 0
M  V30 7901 C 912.873 -1.48239 -4.11514 0
M  V30 7902 C 911.932 -0.94597 -5.17627 0
M  V30 7903 O 910.958 -1.63177 -5.45309 0
M  V30 7904 N 912.16 0.23355 -5.8003 0
M  V30 7905 H 914.925 -1.88858 -2.32707 0
M  V30 7906 H 912.486 -1.12908 -1.16032 0
M  V30 7907 H 914.478 -0.0313903 -4.04688 0
M  V30 7908 H 913.048 0.440061 -3.09487 0
M  V30 7909 H 912.268 -2.02928 -3.37955 0
M  V30 7910 H 913.556 -2.20741 -4.58422 0
M  V30 7911 H 912.954 0.80756 -5.59906 0
M  V30 7912 H 911.511 0.54845 -6.49488 0
M  V30 7913 N 914.944 1.19125 -1.03184 0
M  V30 7914 C 916.192 1.8851 -0.728587 0
M  V30 7915 C 916.513 1.80195 0.74531 0
M  V30 7916 O 915.783 1.21437 1.5372 0
M  V30 7917 H 914.363 0.69784 -0.266511 0
M  V30 7918 H 917.025 1.44607 -1.3067 0
M  V30 7919 H 916.121 2.9477 -1.02554 0
M  V30 7920 N 916.422 0.810101 1.35185 0
M  V30 7921 C 917.833 0.452616 1.81131 0
M  V30 7922 C 918.184 -1.02573 1.67252 0
M  V30 7923 O 917.309 -1.79735 1.20516 0
M  V30 7924 C 917.904 0.814775 3.28857 0
M  V30 7925 C 916.463 0.509839 3.72931 0
M  V30 7926 C 915.61 1.03852 2.57119 0
M  V30 7927 H 918.561 1.00143 1.23114 0
M  V30 7928 H 918.582 0.113635 3.8033 0
M  V30 7929 H 918.094 1.89078 3.38926 0
M  V30 7930 H 916.195 -0.557289 3.68409 0
M  V30 7931 H 916.308 1.04493 4.67566 0
M  V30 7932 H 914.672 0.460671 2.50499 0
M  V30 7933 H 915.455 2.12071 2.69964 0
M  V30 7934 N 917.9 -1.47166 0.563914 0
M  V30 7935 C 919.311 -1.86231 0.132307 0
M  V30 7936 C 919.662 -1.46976 -1.29971 0
M  V30 7937 O 918.787 -0.875911 -1.97881 0
M  V30 7938 C 919.382 -3.37996 0.233335 0
M  V30 7939 C 917.941 -3.76127 -0.143278 0
M  V30 7940 C 917.088 -2.71212 0.577857 0
M  V30 7941 H 920.039 -1.38588 0.773249 0
M  V30 7942 H 920.06 -3.76558 -0.546309 0
M  V30 7943 H 919.572 -3.66535 1.27568 0
M  V30 7944 H 917.673 -3.53205 -1.18648 0
M  V30 7945 H 917.786 -4.78595 0.219952 0
M  V30 7946 H 916.15 -2.54692 0.020186 0
M  V30 7947 H 916.933 -3.02593 1.62149 0
M  V30 7948 N 919.378 -0.300708 -1.54705 0
M  V30 7949 C 920.626 0.308044 -1.99739 0
M  V30 7950 C 920.947 1.54433 -1.19061 0
M  V30 7951 O 920.217 1.93794 -0.286507 0
M  V30 7952 H 918.797 0.116811 -0.73781 0
M  V30 7953 H 921.459 -0.41197 -1.90496 0
M  V30 7954 H 920.555 0.580287 -3.06658 0
M  V30 7955 N 920.856 1.57574 -0.0284266 0
M  V30 7956 C 922.267 1.79585 0.510502 0
M  V30 7957 C 922.618 0.938625 1.72291 0
M  V30 7958 O 921.743 0.14884 2.15888 0
M  V30 7959 C 922.338 3.25703 0.932912 0
M  V30 7960 C 920.897 3.48711 1.41696 0
M  V30 7961 C 920.044 2.74665 0.381356 0
M  V30 7962 H 922.995 1.56647 -0.254464 0
M  V30 7963 H 923.016 3.35376 1.79731 0
M  V30 7964 H 922.528 3.88067 0.0503036 0
M  V30 7965 H 920.629 2.91597 2.31952 0
M  V30 7966 H 920.742 4.57423 1.42481 0
M  V30 7967 H 919.106 2.40123 0.8493 0
M  V30 7968 H 919.889 3.39745 -0.492775 0
M  V30 7969 N 922.334 -0.244713 1.55689 0
M  V30 7970 C 923.297 -1.2864 1.89695 0
M  V30 7971 C 924.297 -1.40969 0.773583 0
M  V30 7972 O 925.487 -1.39632 1.04156 0
M  V30 7973 C 922.619 -2.66379 2.12732 0
M  V30 7974 H 923.812 -0.997033 2.82841 0
M  V30 7975 H 921.365 -0.484103 1.48614 0
M  V30 7976 H 922.1 -3.00452 1.22062 0
M  V30 7977 H 921.885 -2.58812 2.94549 0
M  V30 7978 H 923.375 -3.41592 2.40218 0
M  V30 7979 N 923.813 -1.49104 -0.510467 0
M  V30 7980 C 925.061 -1.578 -1.26268 0
M  V30 7981 C 925.382 -0.262349 -1.93227 0
M  V30 7982 O 924.652 0.717624 -1.82283 0
M  V30 7983 H 923.232 -0.581387 -0.46904 0
M  V30 7984 H 925.894 -1.85678 -0.592423 0
M  V30 7985 H 924.99 -2.36919 -2.03165 0
M  V30 7986 N 925.291 0.760815 -1.38019 0
M  V30 7987 C 926.702 1.33773 -1.30237 0
M  V30 7988 C 927.053 1.96148 0.0451153 0
M  V30 7989 O 926.178 1.94574 0.9471 0
M  V30 7990 C 926.773 2.43227 -2.35851 0
M  V30 7991 C 925.332 2.96659 -2.31669 0
M  V30 7992 C 924.479 1.69972 -2.191 0
M  V30 7993 H 927.43 0.560237 -1.48482 0
M  V30 7994 H 927.451 3.22985 -2.01149 0
M  V30 7995 H 926.963 1.978 -3.33911 0
M  V30 7996 H 925.064 3.46433 -1.37167 0
M  V30 7997 H 925.177 3.51529 -3.25521 0
M  V30 7998 H 923.541 1.9332 -1.65829 0
M  V30 7999 H 924.324 1.26633 -3.19091 0
M  V30 8000 N 926.769 1.22769 0.988202 0
M  V30 8001 C 927.732 1.00325 2.06076 0
M  V30 8002 C 928.732 -0.0320618 1.60768 0
M  V30 8003 O 929.922 0.206912 1.72967 0
M  V30 8004 C 927.054 0.516376 3.36966 0
M  V30 8005 H 928.247 1.95499 2.27421 0
M  V30 8006 H 925.8 1.04704 1.16047 0
M  V30 8007 H 926.535 -0.439498 3.21308 0
M  V30 8008 H 926.32 1.26337 3.71189 0
M  V30 8009 H 927.81 0.37974 4.1587 0
M  V30 8010 N 928.247 -1.18576 1.03814 0
M  V30 8011 C 929.495 -1.88121 0.738574 0
M  V30 8012 C 929.816 -1.80587 -0.735744 0
M  V30 8013 O 929.086 -1.22251 -1.53074 0
M  V30 8014 H 927.666 -0.696417 0.270208 0
M  V30 8015 H 930.328 -1.43912 1.31435 0
M  V30 8016 H 929.424 -2.94222 1.04115 0
M  V30 8017 N 929.725 -0.817259 -1.34754 0
M  V30 8018 C 930.635 -0.236946 -2.334 0
M  V30 8019 C 931.651 0.625685 -1.62361 0
M  V30 8020 O 932.827 0.534921 -1.94166 0
M  V30 8021 C 929.892 0.596215 -3.41535 0
M  V30 8022 C 928.953 -0.288154 -4.28332 0
M  V30 8023 C 928.186 0.505337 -5.31302 0
M  V30 8024 O 928.409 1.73912 -5.43241 0
M  V30 8025 O 927.343 -0.109374 -6.01801 0
M  V30 8026 H 931.169 -1.05327 -2.84851 0
M  V30 8027 H 928.754 -0.579275 -1.37713 0
M  V30 8028 H 930.636 1.07041 -4.07578 0
M  V30 8029 H 929.311 1.38997 -2.92338 0
M  V30 8030 H 928.218 -0.809724 -3.65232 0
M  V30 8031 H 929.551 -1.04612 -4.80955 0
M  V30 8032 N 931.203 1.46865 -0.571711 0
M  V30 8033 C 932.619 1.57897 -0.23255 0
M  V30 8034 C 932.819 1.56836 1.26509 0
M  V30 8035 O 931.875 1.47947 2.04617 0
M  V30 8036 C 933.188 2.87778 -0.872036 0
M  V30 8037 C 934.736 3.01389 -0.844605 0
M  V30 8038 C 935.211 4.33991 -1.46343 0
M  V30 8039 N 936.702 4.40662 -1.42727 0
M  V30 8040 C 937.437 5.41858 -1.87557 0
M  V30 8041 N 936.933 6.49787 -2.4031 0
M  V30 8042 N 938.726 5.32992 -1.7854 0
M  V30 8043 H 930.877 1.45798 -1.54457 0
M  V30 8044 H 933.14 0.694785 -0.644964 0
M  V30 8045 H 932.846 2.94332 -1.92513 0
M  V30 8046 H 932.72 3.75345 -0.373677 0
M  V30 8047 H 935.107 2.94423 0.19984 0
M  V30 8048 H 935.188 2.15327 -1.38087 0
M  V30 8049 H 934.832 4.41714 -2.50701 0
M  V30 8050 H 934.762 5.18809 -0.902479 0
M  V30 8051 H 937.253 3.63263 -1.04155 0
M  V30 8052 H 937.566 7.23199 -2.72403 0
M  V30 8053 H 935.911 6.50637 -2.44329 0
M  V30 8054 H 939.102 4.47575 -1.37093 0
M  V30 8055 H 939.275 6.11716 -2.13794 0
M  V30 8056 N 932.681 0.308908 1.54543 0
M  V30 8057 C 933.929 -0.297447 1.99899 0
M  V30 8058 C 934.25 -1.53799 1.19878 0
M  V30 8059 O 933.52 -1.93639 0.29678 0
M  V30 8060 H 932.1 -0.112897 0.738419 0
M  V30 8061 H 934.762 0.422067 1.90275 0
M  V30 8062 H 933.858 -0.564016 3.06961 0
M  V30 8063 N 934.159 -1.57557 0.0367827 0
M  V30 8064 C 935.069 -2.14148 -0.958017 0
M  V30 8065 C 936.085 -1.09564 -1.35173 0
M  V30 8066 O 937.261 -1.4166 -1.43158 0
M  V30 8067 C 934.326 -2.6636 -2.21931 0
M  V30 8068 C 933.387 -3.85688 -1.8853 0
M  V30 8069 C 932.62 -4.35401 -3.08645 0
M  V30 8070 O 932.843 -3.8425 -4.21554 0
M  V30 8071 O 931.777 -5.27158 -2.90497 0
M  V30 8072 H 935.603 -2.99442 -0.506797 0
M  V30 8073 H 933.188 -1.48259 -0.184275 0
M  V30 8074 H 935.07 -2.99976 -2.9596 0
M  V30 8075 H 933.745 -1.84145 -2.66219 0
M  V30 8076 H 932.652 -3.56985 -1.11861 0
M  V30 8077 H 933.985 -4.69089 -1.49052 0
M  V30 8078 N 935.637 0.236453 -1.55816 0
M  V30 8079 C 936.569 1.31602 -1.87653 0
M  V30 8080 C 937.582 1.43782 -0.763584 0
M  V30 8081 O 938.771 1.44945 -1.04178 0
M  V30 8082 C 935.871 2.69342 -2.05689 0
M  V30 8083 C 935.044 2.79298 -3.36617 0
M  V30 8084 C 934.103 3.97952 -3.44268 0
M  V30 8085 O 933.129 3.86989 -4.17406 0
M  V30 8086 N 934.331 5.11594 -2.74321 0
M  V30 8087 H 937.096 1.04623 -2.80845 0
M  V30 8088 H 934.657 0.426534 -1.5618 0
M  V30 8089 H 936.649 3.47074 -2.08138 0
M  V30 8090 H 935.219 2.88984 -1.19192 0
M  V30 8091 H 934.439 1.8816 -3.46395 0
M  V30 8092 H 935.727 2.82908 -4.22895 0
M  V30 8093 H 935.125 5.23394 -2.14651 0
M  V30 8094 H 933.682 5.87422 -2.8245 0
M  V30 8095 N 937.115 1.49373 0.502552 0
M  V30 8096 C 938.363 1.58467 1.25429 0
M  V30 8097 C 938.684 0.272593 1.93085 0
M  V30 8098 O 937.954 -0.707947 1.82661 0
M  V30 8099 H 936.534 0.583866 0.46595 0
M  V30 8100 H 939.196 1.8599 0.582568 0
M  V30 8101 H 938.292 2.37993 2.01906 0
M  V30 8102 N 938.594 -0.753485 1.38421 0
M  V30 8103 C 940.005 -1.33081 1.30944 0
M  V30 8104 C 940.356 -1.96169 -0.0347124 0
M  V30 8105 O 939.481 -1.95073 -0.936768 0
M  V30 8106 C 940.076 -2.41973 2.37138 0
M  V30 8107 C 938.635 -2.95426 2.33239 0
M  V30 8108 C 937.782 -1.68808 2.19998 0
M  V30 8109 H 940.733 -0.552354 1.48777 0
M  V30 8110 H 940.754 -3.21913 2.02859 0
M  V30 8111 H 940.266 -1.96027 3.34956 0
M  V30 8112 H 938.367 -3.45701 1.39003 0
M  V30 8113 H 938.48 -3.49798 3.27381 0
M  V30 8114 H 936.844 -1.92438 1.66852 0
M  V30 8115 H 937.627 -1.24939 3.19758 0
M  V30 8116 N 940.072 -1.23292 -0.981677 0
M  V30 8117 C 941.035 -1.01417 -2.05542 0
M  V30 8118 C 942.035 0.0235354 -1.60783 0
M  V30 8119 O 943.225 -0.216082 -1.72855 0
M  V30 8120 C 940.357 -0.534239 -3.36688 0
M  V30 8121 H 941.55 -1.96702 -2.26381 0
M  V30 8122 H 939.103 -1.05318 -1.1549 0
M  V30 8123 H 939.838 0.422452 -3.21537 0
M  V30 8124 H 939.623 -1.28304 -3.70514 0
M  V30 8125 H 941.113 -0.40179 -4.15663 0
M  V30 8126 N 941.55 1.18024 -1.04442 0
M  V30 8127 C 942.798 1.87727 -0.74854 0
M  V30 8128 C 943.119 1.80975 0.726156 0
M  V30 8129 O 942.389 1.23061 1.52423 0
M  V30 8130 H 940.969 0.694974 -0.273897 0
M  V30 8131 H 943.631 1.43213 -1.32197 0
M  V30 8132 H 942.727 2.93665 -1.05674 0
M  V30 8133 N 943.028 0.824394 1.34319 0
M  V30 8134 C 944.253 0.425194 2.02995 0
M  V30 8135 C 944.678 -0.961476 1.6167 0
M  V30 8136 O 944.036 -1.62593 0.80207 0
M  V30 8137 C 944.084 0.537004 3.56579 0
M  V30 8138 O 943.188 -0.442576 4.10018 0
M  V30 8139 H 942.529 0.174853 0.640564 0
M  V30 8140 H 945.059 1.11522 1.71534 0
M  V30 8141 H 945.069 0.413311 4.05901 0
M  V30 8142 H 943.744 1.54836 3.86004 0
M  V30 8143 H 942.321 -0.277644 3.71865 0
M  V30 8144 N 944.506 -1.46559 0.579492 0
M  V30 8145 C 945.917 -1.8608 0.152052 0
M  V30 8146 C 946.268 -1.48346 -1.28405 0
M  V30 8147 O 945.393 -0.89685 -1.9694 0
M  V30 8148 C 945.988 -3.37729 0.269171 0
M  V30 8149 C 944.547 -3.76258 -0.103376 0
M  V30 8150 C 943.694 -2.70584 0.60659 0
M  V30 8151 H 946.645 -1.3776 0.787904 0
M  V30 8152 H 946.666 -3.77116 -0.506339 0
M  V30 8153 H 946.178 -3.65162 1.31448 0
M  V30 8154 H 944.279 -3.54443 -1.14895 0
M  V30 8155 H 944.392 -4.78335 0.270701 0
M  V30 8156 H 942.756 -2.54656 0.0471984 0
M  V30 8157 H 943.539 -3.00856 1.65349 0
M  V30 8158 N 945.984 -0.3171 -1.54377 0
M  V30 8159 C 947.232 0.286842 -2.00054 0
M  V30 8160 C 947.553 1.53161 -1.20692 0
M  V30 8161 O 946.823 1.93479 -0.307045 0
M  V30 8162 H 945.403 0.108979 -0.739008 0
M  V30 8163 H 948.065 -0.432152 -1.90049 0
M  V30 8164 H 947.161 0.547729 -3.07256 0
M  V30 8165 N 947.462 1.57535 -0.0451378 0
M  V30 8166 C 948.709 1.92451 0.629987 0
M  V30 8167 C 949.037 0.92298 1.71206 0
M  V30 8168 O 948.292 -0.0656626 1.9559 0
M  V30 8169 C 948.591 3.34065 1.27024 0
M  V30 8170 C 948.257 4.49785 0.316971 0
M  V30 8171 C 946.919 4.81169 0.0546406 0
M  V30 8172 C 949.271 5.20111 -0.336693 0
M  V30 8173 C 946.599 5.8023 -0.86889 0
M  V30 8174 C 948.951 6.2016 -1.24838 0
M  V30 8175 C 947.615 6.49976 -1.51944 0
M  V30 8176 H 946.885 0.704228 0.230529 0
M  V30 8177 H 949.532 1.91182 -0.110328 0
M  V30 8178 H 947.837 3.31672 2.08568 0
M  V30 8179 H 949.534 3.58359 1.79945 0
M  V30 8180 H 946.124 4.2529 0.531614 0
M  V30 8181 H 950.308 4.96082 -0.147105 0
M  V30 8182 H 945.564 6.0167 -1.08643 0
M  V30 8183 H 949.738 6.73767 -1.76098 0
M  V30 8184 H 947.365 7.26551 -2.2367 0
M  V30 8185 N 948.94 -0.228186 1.55939 0
M  V30 8186 C 949.872 -1.30605 1.88348 0
M  V30 8187 C 950.885 -1.43375 0.771198 0
M  V30 8188 O 952.074 -1.44391 1.04945 0
M  V30 8189 C 949.174 -2.68248 2.07115 0
M  V30 8190 C 948.347 -2.77509 3.38094 0
M  V30 8191 C 947.406 -3.96121 3.46373 0
M  V30 8192 O 946.432 -3.8477 4.19453 0
M  V30 8193 N 947.634 -5.10132 2.77031 0
M  V30 8194 H 950.399 -1.03132 2.81396 0
M  V30 8195 H 947.96 -0.418245 1.56404 0
M  V30 8196 H 949.952 -3.45966 2.09976 0
M  V30 8197 H 948.522 -2.88348 1.20723 0
M  V30 8198 H 947.742 -1.8632 3.47388 0
M  V30 8199 H 949.03 -2.80662 4.2439 0
M  V30 8200 H 948.428 -5.22249 2.17424 0
M  V30 8201 H 946.985 -5.85916 2.85561 0
M  V30 8202 N 950.418 -1.49637 -0.494624 0
M  V30 8203 C 951.666 -1.5913 -1.24587 0
M  V30 8204 C 951.987 -0.282828 -1.92938 0
M  V30 8205 O 951.257 0.69825 -1.83034 0
M  V30 8206 H 949.837 -0.586329 -0.462847 0
M  V30 8207 H 952.499 -1.86296 -0.572696 0
M  V30 8208 H 951.595 -2.3906 -2.00641 0
M  V30 8209 N 951.896 0.746133 -1.38819 0
M  V30 8210 C 952.826 1.87344 -1.39372 0
M  V30 8211 C 953.807 1.68123 -0.258583 0
M  V30 8212 O 954.992 1.88606 -0.462769 0
M  V30 8213 C 952.122 3.24962 -1.22543 0
M  V30 8214 C 951.076 3.58799 -2.33339 0
M  V30 8215 C 950.402 4.95235 -2.01609 0
M  V30 8216 C 951.702 3.62911 -3.75624 0
M  V30 8217 H 953.396 1.87138 -2.33709 0
M  V30 8218 H 950.942 0.898937 -1.12495 0
M  V30 8219 H 952.895 4.03488 -1.21554 0
M  V30 8220 H 951.619 3.25667 -0.246707 0
M  V30 8221 H 950.278 2.82596 -2.33527 0
M  V30 8222 H 949.926 4.92508 -1.02202 0
M  V30 8223 H 949.626 5.18843 -2.75819 0
M  V30 8224 H 951.15 5.76131 -2.02251 0
M  V30 8225 H 952.564 4.31535 -3.77426 0
M  V30 8226 H 950.961 3.98031 -4.491 0
M  V30 8227 H 952.031 2.62967 -4.07402 0
M  V30 8228 N 953.375 1.23811 0.975125 0
M  V30 8229 C 954.786 1.0675 1.53171 0
M  V30 8230 C 955.137 -0.363475 1.92804 0
M  V30 8231 O 954.262 -1.25089 1.76583 0
M  V30 8232 C 954.857 1.93161 2.78342 0
M  V30 8233 C 953.416 1.80346 3.30382 0
M  V30 8234 C 952.563 1.88544 2.03338 0
M  V30 8235 H 955.514 1.37396 0.79423 0
M  V30 8236 H 955.535 1.45951 3.51395 0
M  V30 8237 H 955.047 2.97302 2.49465 0
M  V30 8238 H 953.148 0.790077 3.64127 0
M  V30 8239 H 953.261 2.64026 3.99784 0
M  V30 8240 H 951.625 1.32186 2.17713 0
M  V30 8241 H 952.408 2.94252 1.76836 0
M  V30 8242 N 954.853 -1.17469 1.05066 0
M  V30 8243 C 956.101 -1.87327 0.758485 0
M  V30 8244 C 956.422 -1.81358 -0.716549 0
M  V30 8245 O 955.692 -1.23868 -1.51768 0
M  V30 8246 H 954.272 -0.693512 0.277579 0
M  V30 8247 H 956.934 -1.4251 1.32954 0
M  V30 8248 H 956.03 -2.93101 1.0723 0
M  V30 8249 N 956.331 -0.831506 -1.3388 0
M  V30 8250 C 957.742 -0.481375 -1.80388 0
M  V30 8251 C 958.093 0.998993 -1.68863 0
M  V30 8252 O 957.218 1.77795 -1.2336 0
M  V30 8253 C 957.813 -0.86699 -3.27519 0
M  V30 8254 C 956.372 -0.569105 -3.72073 0
M  V30 8255 C 955.519 -1.07929 -2.55434 0
M  V30 8256 H 958.47 -1.02089 -1.21505 0
M  V30 8257 H 958.491 -0.174128 -3.80101 0
M  V30 8258 H 958.003 -1.94447 -3.35875 0
M  V30 8259 H 956.104 0.498607 -3.69249 0
M  V30 8260 H 956.217 -1.11918 -4.65845 0
M  V30 8261 H 954.581 -0.500465 -2.49735 0
M  V30 8262 H 955.364 -2.16339 -2.66556 0
M  V30 8263 N 957.809 1.4625 -0.587256 0
M  V30 8264 C 958.772 2.28812 0.133238 0
M  V30 8265 C 959.772 1.38645 0.814513 0
M  V30 8266 O 960.962 1.60975 0.665774 0
M  V30 8267 C 958.094 3.19147 1.19824 0
M  V30 8268 H 959.287 2.93991 -0.592386 0
M  V30 8269 H 956.84 1.52435 -0.345416 0
M  V30 8270 H 957.575 2.58725 1.95529 0
M  V30 8271 H 957.36 3.85541 0.71418 0
M  V30 8272 H 958.85 3.81278 1.70344 0
M  V30 8273 N 959.287 0.325282 1.54207 0
M  V30 8274 C 960.535 -0.276229 2.00203 0
M  V30 8275 C 960.856 -1.52519 1.21503 0
M  V30 8276 O 960.126 -1.93313 0.317302 0
M  V30 8277 H 958.706 -0.105059 0.739575 0
M  V30 8278 H 961.368 0.442225 1.89817 0
M  V30 8279 H 960.464 -0.531427 3.07542 0
M  V30 8280 N 960.765 -1.57509 0.0534917 0
M  V30 8281 C 962.176 -1.80374 -0.481867 0
M  V30 8282 C 962.527 -0.965917 -1.70776 0
M  V30 8283 O 961.652 -0.183167 -2.15623 0
M  V30 8284 C 962.247 -3.27146 -0.880978 0
M  V30 8285 C 960.806 -3.50921 -1.3613 0
M  V30 8286 C 959.953 -2.75237 -0.337611 0
M  V30 8287 H 962.904 -1.56222 0.279353 0
M  V30 8288 H 962.925 -3.38193 -1.74373 0
M  V30 8289 H 962.437 -3.88098 0.011441 0
M  V30 8290 H 960.538 -2.95251 -2.27283 0
M  V30 8291 H 960.651 -4.59632 -1.35186 0
M  V30 8292 H 959.015 -2.41444 -0.810991 0
M  V30 8293 H 959.798 -3.38918 0.546763 0
M  V30 8294 N 962.243 0.219913 -1.56058 0
M  V30 8295 C 963.654 0.786766 -1.69313 0
M  V30 8296 C 964.005 1.84916 -0.655782 0
M  V30 8297 O 963.13 2.1554 0.192772 0
M  V30 8298 C 963.725 1.43387 -3.06962 0
M  V30 8299 C 962.284 1.94809 -3.22066 0
M  V30 8300 C 961.431 0.808863 -2.65241 0
M  V30 8301 H 964.382 -0.00476777 -1.58699 0
M  V30 8302 H 964.403 2.30272 -3.02911 0
M  V30 8303 H 963.915 0.660405 -3.8244 0
M  V30 8304 H 962.016 2.74952 -2.5146 0
M  V30 8305 H 962.129 2.12694 -4.293 0
M  V30 8306 H 960.493 1.21661 -2.23765 0
M  V30 8307 H 961.276 0.0480458 -3.43266 0
M  V30 8308 N 963.721 1.49897 0.486681 0
M  V30 8309 C 964.969 1.59789 1.23742 0
M  V30 8310 C 965.29 0.293056 1.92785 0
M  V30 8311 O 964.56 -0.688534 1.83401 0
M  V30 8312 H 963.14 0.588775 0.459731 0
M  V30 8313 H 965.802 1.86597 0.562808 0
M  V30 8314 H 964.898 2.40121 1.9937 0
M  V30 8315 N 965.199 -0.738761 1.39212 0
M  V30 8316 C 966.109 -1.88324 1.39897 0
M  V30 8317 C 967.125 -1.71494 0.294229 0
M  V30 8318 O 968.301 -1.94162 0.535087 0
M  V30 8319 C 965.366 -3.23871 1.23726 0
M  V30 8320 C 964.427 -3.53121 2.44139 0
M  V30 8321 C 963.66 -4.82202 2.2873 0
M  V30 8322 O 963.883 -5.55649 1.28879 0
M  V30 8323 O 962.817 -5.11265 3.17634 0
M  V30 8324 H 966.643 -1.90701 2.36362 0
M  V30 8325 H 964.228 -0.886067 1.20288 0
M  V30 8326 H 966.11 -4.04882 1.16826 0
M  V30 8327 H 964.785 -3.22274 0.303551 0
M  V30 8328 H 963.692 -2.72212 2.56615 0
M  V30 8329 H 965.025 -3.59495 3.36191 0
M  V30 8330 N 966.677 -1.24326 -0.968545 0
M  V30 8331 C 967.64 -1.03591 -2.04454 0
M  V30 8332 C 968.64 0.0064809 -1.60799 0
M  V30 8333 O 969.83 -0.234404 -1.72616 0
M  V30 8334 C 966.962 -0.56992 -3.36102 0
M  V30 8335 H 968.155 -1.99092 -2.24282 0
M  V30 8336 H 965.708 -1.06537 -1.14366 0
M  V30 8337 H 966.443 0.388325 -3.21967 0
M  V30 8338 H 966.228 -1.32227 -3.69132 0
M  V30 8339 H 967.718 -0.445854 -4.15213 0
M  V30 8340 N 968.156 1.1691 -1.05688 0
M  V30 8341 C 969.404 1.86922 -0.768409 0
M  V30 8342 C 969.725 1.81735 0.706921 0
M  V30 8343 O 968.995 1.24671 1.51109 0
M  V30 8344 H 967.575 0.69203 -0.281253 0
M  V30 8345 H 970.237 1.41803 -1.33708 0
M  V30 8346 H 969.333 2.92528 -1.08783 0
M  V30 8347 N 969.634 0.838594 1.33437 0
M  V30 8348 C 970.581 0.269609 2.2922 0
M  V30 8349 C 971.551 -0.614429 1.54318 0
M  V30 8350 O 972.736 -0.552756 1.82618 0
M  V30 8351 C 969.876 -0.549527 3.40697 0
M  V30 8352 C 968.989 0.358502 4.3051 0
M  V30 8353 C 968.124 -0.471709 5.29101 0
M  V30 8354 C 967.163 0.434728 6.10554 0
M  V30 8355 N 966.3 -0.357339 7.0119 0
M  V30 8356 H 971.14 1.09172 2.77282 0
M  V30 8357 H 968.677 0.549832 1.36438 0
M  V30 8358 H 970.635 -1.03992 4.04032 0
M  V30 8359 H 969.265 -1.33661 2.93828 0
M  V30 8360 H 968.317 0.967204 3.67899 0
M  V30 8361 H 969.629 1.05483 4.87519 0
M  V30 8362 H 968.783 -1.02594 5.97963 0
M  V30 8363 H 967.522 -1.20147 4.72669 0
M  V30 8364 H 966.527 1.00097 5.40611 0
M  V30 8365 H 967.752 1.16285 6.6907 0
M  V30 8366 H 965.698 -1.07049 6.47207 0
M  V30 8367 H 965.615 0.280277 7.5548 0
M  V30 8368 H 966.883 -0.893814 7.74359 0
M  V30 8369 N 971.112 -1.45937 0.595003 0
M  V30 8370 C 972.523 -1.85908 0.171779 0
M  V30 8371 C 972.874 -1.497 -1.26824 0
M  V30 8372 O 971.999 -0.917688 -1.95978 0
M  V30 8373 C 972.594 -3.37425 0.304976 0
M  V30 8374 C 971.153 -3.76346 -0.0634635 0
M  V30 8375 C 970.3 -2.69926 0.635255 0
M  V30 8376 H 973.251 -1.36916 0.802471 0
M  V30 8377 H 973.272 -3.77632 -0.466313 0
M  V30 8378 H 972.784 -3.63747 1.35314 0
M  V30 8379 H 970.885 -3.55642 -1.11129 0
M  V30 8380 H 970.998 -4.78021 0.321419 0
M  V30 8381 H 969.362 -2.54592 0.0742054 0
M  V30 8382 H 970.145 -2.99086 1.68531 0
M  V30 8383 N 972.59 -0.333456 -1.54032 0
M  V30 8384 C 973.838 0.265608 -2.00347 0
M  V30 8385 C 974.159 1.51873 -1.2231 0
M  V30 8386 O 973.429 1.93142 -0.327549 0
M  V30 8387 H 972.009 0.101135 -0.740122 0
M  V30 8388 H 974.671 -0.452285 -1.8958 0
M  V30 8389 H 973.767 0.51511 -3.0782 0
M  V30 8390 N 974.068 1.57479 -0.061844 0
M  V30 8391 C 974.978 2.15645 0.923826 0
M  V30 8392 C 975.994 1.117 1.33413 0
M  V30 8393 O 977.17 1.4392 1.40887 0
M  V30 8394 C 974.235 2.69857 2.17665 0
M  V30 8395 C 973.296 3.88638 1.8237 0
M  V30 8396 C 972.529 4.40256 3.01679 0
M  V30 8397 O 972.752 3.90908 4.15388 0
M  V30 8398 O 971.686 5.31713 2.82073 0
M  V30 8399 H 975.512 3.0021 0.459094 0
M  V30 8400 H 973.097 1.48534 0.160665 0
M  V30 8401 H 974.979 3.04647 2.9115 0
M  V30 8402 H 973.654 1.88357 2.63255 0
M  V30 8403 H 972.561 3.58719 1.06167 0
M  V30 8404 H 973.894 4.71401 1.4157 0
M  V30 8405 N 975.546 -0.211634 1.56173 0
M  V30 8406 C 976.478 -1.286 1.89723 0
M  V30 8407 C 977.491 -1.42549 0.786361 0
M  V30 8408 O 978.68 -1.4327 1.06471 0
M  V30 8409 C 975.78 -2.66036 2.09948 0
M  V30 8410 C 974.953 -2.73908 3.41018 0
M  V30 8411 C 974.012 -3.92425 3.50555 0
M  V30 8412 O 973.038 -3.803 4.2351 0
M  V30 8413 N 974.24 -5.07165 2.82426 0
M  V30 8414 H 977.005 -1.00142 2.82474 0
M  V30 8415 H 974.566 -0.401633 1.56839 0
M  V30 8416 H 976.558 -3.43719 2.13634 0
M  V30 8417 H 975.128 -2.87052 1.23774 0
M  V30 8418 H 974.348 -1.82625 3.49345 0
M  V30 8419 H 975.636 -2.76145 4.27342 0
M  V30 8420 H 975.034 -5.19913 2.2295 0
M  V30 8421 H 973.591 -5.82855 2.9176 0
M  V30 8422 N 977.024 -1.50153 -0.478725 0
M  V30 8423 C 978.272 -1.60443 -1.22892 0
M  V30 8424 C 978.593 -0.303276 -1.92627 0
M  V30 8425 O 977.863 0.678798 -1.83764 0
M  V30 8426 H 976.443 -0.591205 -0.456602 0
M  V30 8427 H 979.105 -1.86893 -0.552905 0
M  V30 8428 H 978.201 -2.41175 -1.98094 0
M  V30 8429 N 978.502 0.731368 -1.39602 0
M  V30 8430 C 979.748 1.49321 -1.37227 0
M  V30 8431 C 980.081 1.94176 0.0306502 0
M  V30 8432 O 979.356 1.67046 0.996294 0
M  V30 8433 C 979.639 2.73035 -2.34784 0
M  V30 8434 C 979.492 2.34176 -3.84033 0
M  V30 8435 C 980.811 3.75146 -2.30116 0
M  V30 8436 H 977.93 0.541652 -0.499783 0
M  V30 8437 H 980.572 0.835968 -1.70621 0
M  V30 8438 H 978.722 3.29114 -2.06437 0
M  V30 8439 H 980.394 1.83701 -4.23145 0
M  V30 8440 H 978.637 1.66361 -4.00633 0
M  V30 8441 H 979.308 3.22786 -4.47787 0
M  V30 8442 H 981.784 3.28661 -2.55189 0
M  V30 8443 H 980.66 4.5937 -3.00451 0
M  V30 8444 H 980.921 4.22326 -1.30741 0
M  V30 8445 N 979.98 1.24838 0.961938 0
M  V30 8446 C 981.391 1.08369 1.5203 0
M  V30 8447 C 981.742 -0.343005 1.93178 0
M  V30 8448 O 980.867 -1.2321 1.779 0
M  V30 8449 C 981.462 1.96102 2.76278 0
M  V30 8450 C 980.021 1.8384 3.28451 0
M  V30 8451 C 979.168 1.9069 2.01327 0
M  V30 8452 H 982.119 1.38231 0.779613 0
M  V30 8453 H 982.14 1.4967 3.49827 0
M  V30 8454 H 981.652 2.99931 2.46298 0
M  V30 8455 H 979.753 0.828653 3.63269 0
M  V30 8456 H 979.866 2.68251 3.96961 0
M  V30 8457 H 978.23 1.34488 2.16299 0
M  V30 8458 H 979.013 2.96111 1.73705 0
M  V30 8459 N 981.458 -1.16348 1.06306 0
M  V30 8460 C 982.706 -1.86512 0.778311 0
M  V30 8461 C 983.027 -1.82107 -0.697273 0
M  V30 8462 O 982.297 -1.2547 -1.50446 0
M  V30 8463 H 980.877 -0.690529 0.284919 0
M  V30 8464 H 983.539 -1.41092 1.34458 0
M  V30 8465 H 982.635 -2.91947 1.10333 0
M  V30 8466 N 982.937 -0.845659 -1.3299 0
M  V30 8467 C 984.214 -0.366306 -1.92139 0
M  V30 8468 C 984.594 1.14912 -1.77083 0
M  V30 8469 O 983.942 1.96667 -1.16338 0
M  V30 8470 C 984.152 -0.820716 -3.39213 0
M  V30 8471 C 985.5 -0.832667 -4.16355 0
M  V30 8472 O 986.524 -0.764764 -3.47893 0
M  V30 8473 O 985.383 -0.926658 -5.38586 0
M  V30 8474 H 982.477 -0.105063 -0.820299 0
M  V30 8475 H 985.023 -0.931962 -1.41819 0
M  V30 8476 H 983.795 -1.86357 -3.44074 0
M  V30 8477 H 983.418 -0.232009 -3.96923 0
M  V30 8478 N 984.415 1.45619 -0.602734 0
M  V30 8479 C 985.345 2.33258 0.106342 0
M  V30 8480 C 986.326 1.46543 0.863664 0
M  V30 8481 O 987.511 1.75324 0.835175 0
M  V30 8482 C 984.641 3.29168 1.10751 0
M  V30 8483 C 983.595 4.25481 0.463717 0
M  V30 8484 C 982.921 5.11046 1.57278 0
M  V30 8485 C 984.221 5.18702 -0.61199 0
M  V30 8486 H 985.915 2.92795 -0.625423 0
M  V30 8487 H 983.461 1.40793 -0.302213 0
M  V30 8488 H 985.414 3.89346 1.61208 0
M  V30 8489 H 984.138 2.6778 1.8698 0
M  V30 8490 H 982.797 3.66595 -0.0199496 0
M  V30 8491 H 982.445 4.46029 2.32524 0
M  V30 8492 H 982.145 5.76286 1.14755 0
M  V30 8493 H 983.669 5.74091 2.07972 0
M  V30 8494 H 985.083 5.72979 -0.191686 0
M  V30 8495 H 983.48 5.92393 -0.958686 0
M  V30 8496 H 984.55 4.61424 -1.4905 0
M  V30 8497 N 985.893 0.34162 1.53853 0
M  V30 8498 C 987.141 -0.254979 2.00485 0
M  V30 8499 C 987.462 -1.51222 1.23114 0
M  V30 8500 O 986.732 -1.92966 0.337787 0
M  V30 8501 H 985.312 -0.0972084 0.740648 0
M  V30 8502 H 987.974 0.462332 1.89337 0
M  V30 8503 H 987.07 -0.498778 3.08089 0
M  V30 8504 N 987.371 -1.57444 0.0701946 0
M  V30 8505 C 988.334 -2.11511 -0.882923 0
M  V30 8506 C 989.334 -1.03879 -1.22743 0
M  V30 8507 O 990.524 -1.29874 -1.16097 0
M  V30 8508 C 987.656 -2.61514 -2.18686 0
M  V30 8509 H 988.849 -2.9703 -0.413873 0
M  V30 8510 H 986.402 -1.55278 -0.178488 0
M  V30 8511 H 987.137 -1.79443 -2.70131 0
M  V30 8512 H 986.922 -3.40185 -1.94978 0
M  V30 8513 H 988.412 -3.03425 -2.86919 0
M  V30 8514 N 988.849 0.203349 -1.56283 0
M  V30 8515 C 990.26 0.768764 -1.70138 0
M  V30 8516 C 990.611 1.8421 -0.675358 0
M  V30 8517 O 989.736 2.15732 0.1699 0
M  V30 8518 C 990.331 1.40123 -3.08466 0
M  V30 8519 C 988.89 1.91382 -3.24114 0
M  V30 8520 C 988.037 0.780685 -2.66084 0
M  V30 8521 H 990.988 -0.0215997 -1.58685 0
M  V30 8522 H 991.009 2.27046 -3.05336 0
M  V30 8523 H 990.521 0.619805 -3.83119 0
M  V30 8524 H 988.622 2.7227 -2.54362 0
M  V30 8525 H 988.735 2.08128 -4.31531 0
M  V30 8526 H 987.099 1.19281 -2.25042 0
M  V30 8527 H 987.882 0.0116351 -3.43298 0
M  V30 8528 N 990.327 1.50405 0.470755 0
M  V30 8529 C 991.575 1.61092 1.2204 0
M  V30 8530 C 991.896 0.313487 1.92464 0
M  V30 8531 O 991.166 -0.669043 1.84121 0
M  V30 8532 H 989.746 0.593618 0.45346 0
M  V30 8533 H 992.408 1.87184 0.542985 0
M  V30 8534 H 991.504 2.42222 1.96812 0
M  V30 8535 N 991.805 -0.723954 1.39988 0
M  V30 8536 C 993.216 -1.30273 1.33738 0
M  V30 8537 C 993.567 -1.96199 0.00690581 0
M  V30 8538 O 992.692 -1.97016 -0.895179 0
M  V30 8539 C 993.287 -2.36889 2.42217 0
M  V30 8540 C 991.846 -2.90412 2.39453 0
M  V30 8541 C 990.993 -1.64103 2.2353 0
M  V30 8542 H 993.944 -0.520672 1.49916 0
M  V30 8543 H 993.965 -3.17538 2.09642 0
M  V30 8544 H 993.477 -1.88878 3.39038 0
M  V30 8545 H 991.578 -3.42674 1.46304 0
M  V30 8546 H 991.691 -3.42775 3.34727 0
M  V30 8547 H 990.055 -1.88855 1.70897 0
M  V30 8548 H 990.838 -1.18128 3.22336 0
M  V30 8549 N 993.283 -1.25346 -0.955304 0
M  V30 8550 C 994.508 -1.12892 -1.73983 0
M  V30 8551 C 994.933 0.313455 -1.8547 0
M  V30 8552 O 994.291 1.22706 -1.33465 0
M  V30 8553 C 994.339 -1.78729 -3.1319 0
M  V30 8554 O 993.443 -1.06648 -3.98372 0
M  V30 8555 H 992.784 -0.394178 -0.534341 0
M  V30 8556 H 995.314 -1.65897 -1.19747 0
M  V30 8557 H 995.324 -1.84987 -3.63653 0
M  V30 8558 H 993.999 -2.83669 -3.04146 0
M  V30 8559 H 992.576 -1.08266 -3.56837 0
M  V30 8560 N 994.761 1.15782 -1.06922 0
M  V30 8561 C 996.009 1.86097 -0.788192 0
M  V30 8562 C 996.33 1.82475 0.687606 0
M  V30 8563 O 995.6 1.26266 1.49778 0
M  V30 8564 H 994.18 0.689008 -0.288577 0
M  V30 8565 H 996.842 1.40377 -1.35205 0
M  V30 8566 H 995.938 2.91358 -1.1188 0
M  V30 8567 N 996.239 0.8527 1.3254 0
M  V30 8568 C 997.202 0.300959 2.27215 0
M  V30 8569 C 998.202 -0.538235 1.51525 0
M  V30 8570 O 999.392 -0.350027 1.70647 0
M  V30 8571 C 996.524 -0.574428 3.36025 0
M  V30 8572 H 997.717 1.13655 2.77529 0
M  V30 8573 H 995.27 0.626878 1.43178 0
M  V30 8574 H 996.005 -1.43191 2.90976 0
M  V30 8575 H 995.79 0.0262265 3.92091 0
M  V30 8576 H 997.28 -0.9533 4.06573 0
M  V30 8577 N 997.718 -1.45297 0.610449 0
M  V30 8578 C 999.134 -1.57225 0.274332 0
M  V30 8579 C 999.334 -1.60136 -1.22306 0
M  V30 8580 O 998.39 -1.5332 -2.00622 0
M  V30 8581 C 999.703 -2.85365 0.948028 0
M  V30 8582 C 1001.25 -2.99044 0.924216 0
M  V30 8583 C 1001.73 -4.29958 1.57798 0
M  V30 8584 N 1003.22 -4.36723 1.5436 0
M  V30 8585 C 1003.95 -5.36695 2.01857 0
M  V30 8586 N 1003.45 -6.43187 2.57453 0
M  V30 8587 N 1005.24 -5.28071 1.92608 0
M  V30 8588 H 997.392 -1.41651 1.58268 0
M  V30 8589 H 999.655 -0.67744 0.663158 0
M  V30 8590 H 999.361 -2.89125 2.00249 0
M  V30 8591 H 999.235 -3.74222 0.473062 0
M  V30 8592 H 1001.62 -2.94849 -0.121709 0
M  V30 8593 H 1001.7 -2.1159 1.43748 0
M  V30 8594 H 1001.35 -4.34912 2.62325 0
M  V30 8595 H 1001.28 -5.16234 1.03972 0
M  V30 8596 H 1003.77 -3.60374 1.13749 0
M  V30 8597 H 1004.08 -7.15722 2.91482 0
M  V30 8598 H 1002.43 -6.4393 2.61493 0
M  V30 8599 H 1005.62 -4.43783 1.48912 0
M  V30 8600 H 1005.79 -6.05832 2.29938 0
M  V30 8601 N 999.196 -0.349774 -1.5367 0
M  V30 8602 C 1000.44 0.244343 -2.00617 0
M  V30 8603 C 1000.76 1.50567 -1.23914 0
M  V30 8604 O 1000.03 1.92784 -0.348016 0
M  V30 8605 H 998.615 0.0932792 -0.741153 0
M  V30 8606 H 1001.28 -0.472367 -1.89089 0
M  V30 8607 H 1000.37 0.482433 -3.08349 0
M  V30 8608 N 1000.67 1.57404 -0.0785433 0
M  V30 8609 C 1001.58 2.16612 0.900902 0
M  V30 8610 C 1002.6 1.13109 1.32221 0
M  V30 8611 O 1003.78 1.45406 1.39352 0
M  V30 8612 C 1000.84 2.7215 2.14791 0
M  V30 8613 C 999.902 3.90551 1.78237 0
M  V30 8614 C 999.135 4.43431 2.96993 0
M  V30 8615 O 999.358 3.95292 4.11218 0
M  V30 8616 O 998.292 5.34674 2.76418 0
M  V30 8617 H 1002.12 3.0068 0.427227 0
M  V30 8618 H 999.703 1.48696 0.144902 0
M  V30 8619 H 1001.58 3.07718 2.87902 0
M  V30 8620 H 1000.26 1.91139 2.61243 0
M  V30 8621 H 999.167 3.59825 1.02357 0
M  V30 8622 H 1000.5 4.72876 1.36562 0
M  V30 8623 N 1002.15 -0.195058 1.56388 0
M  V30 8624 C 1003.57 -0.545894 1.49974 0
M  V30 8625 C 1003.77 -1.85851 0.778568 0
M  V30 8626 O 1002.82 -2.50346 0.329105 0
M  V30 8627 C 1004.14 -0.600599 2.94641 0
M  V30 8628 C 1005.68 -0.689429 3.05313 0
M  V30 8629 C 1006.16 -0.775243 4.51391 0
M  V30 8630 N 1007.65 -0.838769 4.55542 0
M  V30 8631 C 1008.39 -0.925337 5.65884 0
M  V30 8632 N 1007.88 -0.974204 6.85916 0
M  V30 8633 N 1009.67 -0.962528 5.53798 0
M  V30 8634 H 1001.83 0.66595 2.0169 0
M  V30 8635 H 1004.09 0.237215 0.917842 0
M  V30 8636 H 1003.79 0.29478 3.50462 0
M  V30 8637 H 1003.67 -1.45528 3.47996 0
M  V30 8638 H 1006.06 -1.57524 2.4954 0
M  V30 8639 H 1006.14 0.191451 2.55083 0
M  V30 8640 H 1005.78 0.106215 5.07789 0
M  V30 8641 H 1005.71 -1.67193 4.99354 0
M  V30 8642 H 1008.2 -0.810249 3.69112 0
M  V30 8643 H 1008.51 -1.04077 7.6576 0
M  V30 8644 H 1006.86 -0.942881 6.88574 0
M  V30 8645 H 1010.05 -0.921188 4.58946 0
M  V30 8646 H 1010.22 -1.02653 6.39817 0
M  V30 8647 N 1003.63 -1.50653 -0.462772 0
M  V30 8648 C 1004.88 -1.61737 -1.21184 0
M  V30 8649 C 1005.2 -0.32369 -1.92295 0
M  V30 8650 O 1004.47 0.659269 -1.84473 0
M  V30 8651 H 1003.05 -0.596015 -0.450306 0
M  V30 8652 H 1005.71 -1.87469 -0.533051 0
M  V30 8653 H 1004.81 -2.43262 -1.95525 0
M  V30 8654 N 1005.11 0.71652 -1.4037 0
M  V30 8655 C 1006.36 1.47638 -1.38597 0
M  V30 8656 C 1006.68 1.94496 0.0120141 0
M  V30 8657 O 1005.94 1.68437 0.996373 0
M  V30 8658 C 1006.24 2.71777 -2.32103 0
M  V30 8659 C 1005.9 2.43689 -3.79376 0
M  V30 8660 C 1004.57 2.35739 -4.195 0
M  V30 8661 C 1006.92 2.20099 -4.72447 0
M  V30 8662 C 1004.25 2.02265 -5.50732 0
M  V30 8663 C 1006.6 1.88138 -6.03976 0
M  V30 8664 C 1005.26 1.78669 -6.43143 0
M  V30 8665 H 1004.53 0.540246 -0.507163 0
M  V30 8666 H 1007.18 0.820822 -1.73017 0
M  V30 8667 H 1005.48 3.42166 -1.90865 0
M  V30 8668 H 1007.18 3.29864 -2.28015 0
M  V30 8669 H 1003.77 2.50763 -3.47585 0
M  V30 8670 H 1007.95 2.25198 -4.42266 0
M  V30 8671 H 1003.21 1.93471 -5.79982 0
M  V30 8672 H 1007.38 1.68898 -6.75608 0
M  V30 8673 H 1005.01 1.52498 -7.44747 0
M  V30 8674 N 1006.59 1.25851 0.948643 0
M  V30 8675 C 1008 1.09975 1.50872 0
M  V30 8676 C 1008.35 -0.322497 1.93531 0
M  V30 8677 O 1007.47 -1.21316 1.79197 0
M  V30 8678 C 1008.07 1.99021 2.74182 0
M  V30 8679 C 1006.63 1.87313 3.26483 0
M  V30 8680 C 1005.77 1.92815 1.99293 0
M  V30 8681 H 1008.73 1.3905 0.764908 0
M  V30 8682 H 1008.75 1.53372 3.4822 0
M  V30 8683 H 1008.26 3.02527 2.43103 0
M  V30 8684 H 1006.36 0.867136 3.62369 0
M  V30 8685 H 1006.47 2.72446 3.94094 0
M  V30 8686 H 1004.84 1.36774 2.1486 0
M  V30 8687 H 1005.62 2.97936 1.70554 0
M  V30 8688 N 1008.06 -1.15214 1.07534 0
M  V30 8689 C 1009.31 -1.85676 0.79805 0
M  V30 8690 C 1009.63 -1.82837 -0.677919 0
M  V30 8691 O 1008.9 -1.27059 -1.49107 0
M  V30 8692 H 1007.48 -0.687468 0.292227 0
M  V30 8693 H 1010.15 -1.39658 1.35947 0
M  V30 8694 H 1009.24 -2.9076 1.13423 0
M  V30 8695 N 1009.54 -0.859717 -1.32086 0
M  V30 8696 C 1010.45 -0.31108 -2.32528 0
M  V30 8697 C 1011.47 0.573714 -1.6427 0
M  V30 8698 O 1012.64 0.472878 -1.9577 0
M  V30 8699 C 1009.71 0.487256 -3.43259 0
M  V30 8700 C 1008.77 -0.424279 -4.27198 0
M  V30 8701 C 1008 0.336051 -5.32641 0
M  V30 8702 O 1008.23 1.56541 -5.48499 0
M  V30 8703 O 1007.16 -0.300777 -6.01148 0
M  V30 8704 H 1010.99 -1.14336 -2.81355 0
M  V30 8705 H 1008.57 -0.622794 -1.358 0
M  V30 8706 H 1010.45 0.940203 -4.10777 0
M  V30 8707 H 1009.13 1.29626 -2.96612 0
M  V30 8708 H 1008.04 -0.925509 -3.62471 0
M  V30 8709 H 1009.37 -1.1986 -4.77383 0
M  V30 8710 N 1011.02 1.44971 -0.618145 0
M  V30 8711 C 1012.44 1.57077 -0.282666 0
M  V30 8712 C 1012.64 1.60782 1.21456 0
M  V30 8713 O 1011.69 1.54382 1.99806 0
M  V30 8714 C 1013.01 2.84858 -0.963148 0
M  V30 8715 C 1014.55 2.9855 -0.940062 0
M  V30 8716 C 1015.03 4.29115 -1.60076 0
M  V30 8717 N 1016.52 4.35899 -1.56674 0
M  V30 8718 C 1017.25 5.35617 -2.04701 0
M  V30 8719 N 1016.75 6.41813 -2.6086 0
M  V30 8720 N 1018.54 5.27042 -1.95406 0
M  V30 8721 H 1010.69 1.4081 -1.59017 0
M  V30 8722 H 1012.96 0.673914 -0.666741 0
M  V30 8723 H 1012.66 2.88059 -2.0178 0
M  V30 8724 H 1012.54 3.73966 -0.492901 0
M  V30 8725 H 1014.92 2.94909 0.10607 0
M  V30 8726 H 1015.01 2.10825 -1.44868 0
M  V30 8727 H 1014.65 4.33514 -2.64627 0
M  V30 8728 H 1014.58 5.15675 -1.06708 0
M  V30 8729 H 1017.07 3.59766 -1.15659 0
M  V30 8730 H 1017.38 7.14166 -2.95273 0
M  V30 8731 H 1015.73 6.42534 -2.64905 0
M  V30 8732 H 1018.92 4.42987 -1.51263 0
M  V30 8733 H 1019.09 6.04604 -2.33147 0
M  V30 8734 N 1012.5 0.357919 1.53482 0
M  V30 8735 C 1013.75 -0.2337 2.00744 0
M  V30 8736 C 1014.07 -1.49908 1.2471 0
M  V30 8737 O 1013.34 -1.92597 0.358235 0
M  V30 8738 H 1011.92 -0.0893474 0.741637 0
M  V30 8739 H 1014.58 0.482388 1.88836 0
M  V30 8740 H 1013.68 -0.466073 3.086 0
M  V30 8741 N 1013.98 -1.5736 0.0868897 0
M  V30 8742 C 1015.22 -1.94341 -0.579598 0
M  V30 8743 C 1015.56 -0.968238 -1.68341 0
M  V30 8744 O 1014.83 8.29649e-05 -1.945 0
M  V30 8745 C 1015.11 -3.41497 -1.14245 0
M  V30 8746 C 1014.97 -4.49778 -0.044255 0
M  V30 8747 C 1016.29 -3.89788 -2.04336 0
M  V30 8748 H 1013.4 -0.70668 -0.20922 0
M  V30 8749 H 1016.05 -1.89359 0.15593 0
M  V30 8750 H 1014.2 -3.45873 -1.76929 0
M  V30 8751 H 1015.87 -4.57517 0.58959 0
M  V30 8752 H 1014.11 -4.293 0.623207 0
M  V30 8753 H 1014.78 -5.4992 -0.478749 0
M  V30 8754 H 1017.26 -3.87513 -1.51569 0
M  V30 8755 H 1016.13 -4.93335 -2.40648 0
M  V30 8756 H 1016.4 -3.28603 -2.95757 0
M  V30 8757 N 1015.45 0.186762 -1.56489 0
M  V30 8758 C 1016.39 1.25565 -1.91745 0
M  V30 8759 C 1017.4 1.4128 -0.80894 0
M  V30 8760 O 1018.59 1.41558 -1.08737 0
M  V30 8761 C 1015.69 2.62662 -2.14154 0
M  V30 8762 C 1014.86 2.68448 -3.45333 0
M  V30 8763 C 1013.92 3.86798 -3.56754 0
M  V30 8764 O 1012.95 3.73514 -4.29507 0
M  V30 8765 N 1014.15 5.02607 -2.90459 0
M  V30 8766 H 1016.91 0.956351 -2.84032 0
M  V30 8767 H 1014.47 0.376631 -1.57458 0
M  V30 8768 H 1016.47 3.40277 -2.19075 0
M  V30 8769 H 1015.04 2.85046 -1.28326 0
M  V30 8770 H 1014.26 1.77044 -3.52206 0
M  V30 8771 H 1015.54 2.69311 -4.31682 0
M  V30 8772 H 1014.94 5.163 -2.31194 0
M  V30 8773 H 1013.5 5.78139 -3.00996 0
M  V30 8774 N 1016.93 1.50896 0.454776 0
M  V30 8775 C 1018.18 1.62378 1.20324 0
M  V30 8776 C 1018.5 0.333883 1.9212 0
M  V30 8777 O 1017.77 -0.649477 1.8482 0
M  V30 8778 H 1016.35 0.598395 0.447139 0
M  V30 8779 H 1019.01 1.87749 0.523102 0
M  V30 8780 H 1018.11 2.44296 1.94232 0
M  V30 8781 N 1018.41 -0.709066 1.40748 0
M  V30 8782 C 1019.82 -1.28847 1.35112 0
M  V30 8783 C 1020.17 -1.9618 0.0277149 0
M  V30 8784 O 1019.3 -1.97955 -0.874233 0
M  V30 8785 C 1019.89 -2.34306 2.44716 0
M  V30 8786 C 1018.45 -2.87856 2.4252 0
M  V30 8787 C 1017.6 -1.61723 2.25257 0
M  V30 8788 H 1020.55 -0.504742 1.50459 0
M  V30 8789 H 1020.57 -3.15297 2.12998 0
M  V30 8790 H 1020.08 -1.85271 3.41022 0
M  V30 8791 H 1018.18 -3.41103 1.49931 0
M  V30 8792 H 1018.3 -3.39205 3.38344 0
M  V30 8793 H 1016.66 -1.87032 1.7289 0
M  V30 8794 H 1017.44 -1.14703 3.23571 0
M  V30 8795 N 1019.89 -1.26353 -0.941956 0
M  V30 8796 C 1021.3 -1.10774 -1.50287 0
M  V30 8797 C 1021.65 0.312229 -1.937 0
M  V30 8798 O 1020.78 1.20364 -1.79838 0
M  V30 8799 C 1021.37 -2.00473 -2.73123 0
M  V30 8800 C 1019.93 -1.89042 -3.25485 0
M  V30 8801 C 1019.08 -1.93869 -1.98267 0
M  V30 8802 H 1022.03 -1.39454 -0.757523 0
M  V30 8803 H 1022.05 -1.55216 -3.47402 0
M  V30 8804 H 1021.56 -3.03812 -2.41495 0
M  V30 8805 H 1019.66 -0.886341 -3.61904 0
M  V30 8806 H 1019.78 -2.74533 -3.92643 0
M  V30 8807 H 1018.14 -1.37912 -2.14132 0
M  V30 8808 H 1018.92 -2.98837 -1.68972 0
M  V30 8809 N 1021.37 1.14642 -1.08144 0
M  V30 8810 C 1022.62 1.8525 -0.807885 0
M  V30 8811 C 1022.94 1.83194 0.668213 0
M  V30 8812 O 1022.21 1.27848 1.48431 0
M  V30 8813 H 1020.79 0.685909 -0.295868 0
M  V30 8814 H 1023.45 1.38935 -1.36686 0
M  V30 8815 H 1022.54 2.90155 -1.14964 0
M  V30 8816 N 1022.85 0.866709 1.31628 0
M  V30 8817 C 1024.26 0.529032 1.79048 0
M  V30 8818 C 1024.61 -0.953871 1.71452 0
M  V30 8819 O 1023.73 -1.74462 1.28031 0
M  V30 8820 C 1024.33 0.953522 3.25105 0
M  V30 8821 C 1022.89 0.667554 3.70433 0
M  V30 8822 C 1022.03 1.14664 2.52483 0
M  V30 8823 H 1024.98 1.05275 1.18756 0
M  V30 8824 H 1025.01 0.274844 3.79506 0
M  V30 8825 H 1024.52 2.03283 3.30602 0
M  V30 8826 H 1022.62 -0.400532 3.70441 0
M  V30 8827 H 1022.73 1.2423 4.62714 0
M  V30 8828 H 1021.1 0.566502 2.4832 0
M  V30 8829 H 1021.88 2.2333 2.60727 0
M  V30 8830 N 1024.32 -1.44642 0.625825 0
M  V30 8831 C 1025.29 -2.29085 -0.072526 0
M  V30 8832 C 1026.29 -1.40755 -0.777467 0
M  V30 8833 O 1027.48 -1.62684 -0.622861 0
M  V30 8834 C 1024.61 -3.22212 -1.1132 0
M  V30 8835 H 1025.8 -2.92317 0.670124 0
M  V30 8836 H 1023.35 -1.51466 0.38571 0
M  V30 8837 H 1024.09 -2.63819 -1.88601 0
M  V30 8838 H 1023.87 -3.87299 -0.611709 0
M  V30 8839 H 1025.36 -3.8566 -1.60175 0
M  V30 8840 N 1025.8 -0.366053 -1.5329 0
M  V30 8841 C 1027.05 0.223051 -2.00865 0
M  V30 8842 C 1027.37 1.49244 -1.25504 0
M  V30 8843 O 1026.64 1.92404 -0.368444 0
M  V30 8844 H 1025.22 0.085413 -0.742101 0
M  V30 8845 H 1027.88 -0.492396 -1.88578 0
M  V30 8846 H 1026.98 0.449701 -3.08843 0
M  V30 8847 N 1027.28 1.57312 -0.0952337 0
M  V30 8848 C 1028.69 1.81589 0.433875 0
M  V30 8849 C 1029.04 1.01086 1.68155 0
M  V30 8850 O 1028.17 0.240272 2.15062 0
M  V30 8851 C 1028.76 3.29366 0.793931 0
M  V30 8852 C 1027.32 3.54407 1.26778 0
M  V30 8853 C 1026.47 2.76035 0.264518 0
M  V30 8854 H 1029.42 1.55426 -0.320675 0
M  V30 8855 H 1029.44 3.42697 1.65345 0
M  V30 8856 H 1028.95 3.87932 -0.114334 0
M  V30 8857 H 1027.05 3.01173 2.19376 0
M  V30 8858 H 1027.17 4.63055 1.22952 0
M  V30 8859 H 1025.53 2.43509 0.746691 0
M  V30 8860 H 1026.31 3.37349 -0.636429 0
M  V30 8861 N 1028.76 -0.17846 1.56586 0
M  V30 8862 C 1030.17 -0.529957 1.50544 0
M  V30 8863 C 1030.37 -1.85015 0.798237 0
M  V30 8864 O 1029.43 -2.49983 0.355639 0
M  V30 8865 C 1030.74 -0.569314 2.95261 0
M  V30 8866 C 1032.29 -0.657008 3.06027 0
M  V30 8867 C 1032.77 -0.727323 4.52188 0
M  V30 8868 N 1034.26 -0.790406 4.56406 0
M  V30 8869 C 1034.99 -0.865265 5.66834 0
M  V30 8870 N 1034.49 -0.901398 6.86911 0
M  V30 8871 N 1036.28 -0.903736 5.54787 0
M  V30 8872 H 1028.43 0.687304 2.00972 0
M  V30 8873 H 1030.69 0.246936 0.915274 0
M  V30 8874 H 1030.4 0.331934 3.5013 0
M  V30 8875 H 1030.27 -1.41828 3.4952 0
M  V30 8876 H 1032.66 -1.54868 2.51197 0
M  V30 8877 H 1032.74 0.218495 2.54865 0
M  V30 8878 H 1032.39 0.160067 5.07648 0
M  V30 8879 H 1032.32 -1.61887 5.01099 0
M  V30 8880 H 1034.81 -0.771054 3.6995 0
M  V30 8881 H 1035.12 -0.959494 7.6682 0
M  V30 8882 H 1033.47 -0.869795 6.89536 0
M  V30 8883 H 1036.66 -0.872459 4.59898 0
M  V30 8884 H 1036.83 -0.958615 6.4087 0
M  V30 8885 N 1030.24 -1.51135 -0.446768 0
M  V30 8886 C 1031.48 -1.63013 -1.19461 0
M  V30 8887 C 1031.8 -0.344067 -1.91941 0
M  V30 8888 O 1031.07 0.639666 -1.85162 0
M  V30 8889 H 1029.65 -0.600757 -0.443959 0
M  V30 8890 H 1032.32 -1.88024 -0.513137 0
M  V30 8891 H 1031.41 -2.45322 -1.92933 0
M  V30 8892 N 1031.71 0.701592 -1.41122 0
M  V30 8893 C 1032.68 1.79733 -1.42227 0
M  V30 8894 C 1033.68 1.57708 -0.313831 0
M  V30 8895 O 1034.87 1.64492 -0.573423 0
M  V30 8896 C 1032 3.18024 -1.22775 0
M  V30 8897 H 1033.19 1.80148 -2.39764 0
M  V30 8898 H 1030.74 0.908624 -1.27176 0
M  V30 8899 H 1031.48 3.23252 -0.260552 0
M  V30 8900 H 1031.26 3.35411 -2.0308 0
M  V30 8901 H 1032.75 3.98021 -1.2637 0
M  V30 8902 N 1033.19 1.2685 0.935242 0
M  V30 8903 C 1034.14 1.08746 2.05614 0
M  V30 8904 C 1035.13 0.012681 1.69395 0
M  V30 8905 O 1036.34 0.169822 1.79197 0
M  V30 8906 H 1032.71 0.33485 0.673335 0
M  V30 8907 H 1034.69 2.03725 2.18033 0
M  V30 8908 C 1033.43 0.74346 3.39659 0
M  V30 8909 H 1032.76 1.56236 3.68008 0
M  V30 8910 H 1034.2 0.656607 4.18885 0
M  V30 8911 C 1032.66 -0.551751 3.32351 0
M  V30 8912 O 1033.19 -1.58836 3.68963 0
M  V30 8913 N 1031.39 -0.544583 2.85452 0
M  V30 8914 H 1030.94 0.29939 2.55854 0
M  V30 8915 H 1030.9 -1.41129 2.80945 0
M  V30 8916 N 1034.67 -1.14067 1.0875 0
M  V30 8917 C 1035.92 -1.84819 0.817698 0
M  V30 8918 C 1036.24 -1.83545 -0.658488 0
M  V30 8919 O 1035.51 -1.28633 -1.47751 0
M  V30 8920 H 1034.09 -0.68433 0.299502 0
M  V30 8921 H 1036.75 -1.38208 1.37421 0
M  V30 8922 H 1035.85 -2.89541 1.16501 0
M  V30 8923 N 1036.15 -0.873678 -1.31166 0
M  V30 8924 C 1037.11 -0.337069 -2.26708 0
M  V30 8925 C 1038.11 0.51406 -1.52362 0
M  V30 8926 O 1039.3 0.322834 -1.71182 0
M  V30 8927 C 1036.43 0.520897 -3.36897 0
M  V30 8928 H 1037.63 -1.18056 -2.75686 0
M  V30 8929 H 1035.18 -0.649577 -1.42163 0
M  V30 8930 H 1035.91 1.38543 -2.93217 0
M  V30 8931 H 1035.7 -0.0886015 -3.92 0
M  V30 8932 H 1037.19 0.888497 -4.08039 0
M  V30 8933 N 1037.63 1.44308 -0.633487 0
M  V30 8934 C 1039.04 1.85387 -0.221009 0
M  V30 8935 C 1039.39 1.5301 1.22811 0
M  V30 8936 O 1038.51 0.969325 1.93476 0
M  V30 8937 C 1039.11 3.36497 -0.394331 0
M  V30 8938 C 1037.67 3.76382 -0.0363405 0
M  V30 8939 C 1036.81 2.68146 -0.706598 0
M  V30 8940 H 1039.77 1.34741 -0.83849 0
M  V30 8941 H 1039.79 3.78735 0.366026 0
M  V30 8942 H 1039.3 3.60031 -1.44911 0
M  V30 8943 H 1037.4 3.58463 1.01661 0
M  V30 8944 H 1037.51 4.77 -0.448045 0
M  V30 8945 H 1035.88 2.54306 -0.14168 0
M  V30 8946 H 1036.66 2.94512 -1.76401 0
M  V30 8947 N 1039.1 0.374177 1.53094 0
M  V30 8948 C 1040.35 -0.212396 2.00981 0
M  V30 8949 C 1040.67 -1.48576 1.26293 0
M  V30 8950 O 1039.94 -1.92206 0.378642 0
M  V30 8951 H 1038.52 -0.0814763 0.742543 0
M  V30 8952 H 1041.19 0.502389 1.88314 0
M  V30 8953 H 1040.28 -0.433316 3.09077 0
M  V30 8954 N 1040.58 -1.57259 0.103575 0
M  V30 8955 C 1041.53 -2.15727 -0.869739 0
M  V30 8956 C 1042.52 -1.10236 -1.28625 0
M  V30 8957 O 1043.73 -1.28567 -1.25979 0
M  V30 8958 H 1040.11 -0.690204 -0.298535 0
M  V30 8959 H 1042.08 -2.96317 -0.351984 0
M  V30 8960 C 1040.83 -2.75905 -2.11593 0
M  V30 8961 H 1040.15 -3.56768 -1.80434 0
M  V30 8962 H 1041.59 -3.20373 -2.77736 0
M  V30 8963 C 1040.05 -1.72218 -2.89556 0
M  V30 8964 O 1040.58 -1.16623 -3.84398 0
M  V30 8965 N 1038.78 -1.42514 -2.53255 0
M  V30 8966 H 1038.33 -1.87914 -1.76198 0
M  V30 8967 H 1038.29 -0.733782 -3.05717 0
M  V30 8968 N 1042.06 0.170153 -1.56679 0
M  V30 8969 C 1043.34 0.913938 -1.72935 0
M  V30 8970 C 1043.72 2.00342 -0.665293 0
M  V30 8971 O 1043.07 2.26252 0.319715 0
M  V30 8972 C 1043.28 1.47761 -3.16177 0
M  V30 8973 C 1044.62 1.95007 -3.7717 0
M  V30 8974 O 1045.65 1.57552 -3.19462 0
M  V30 8975 O 1044.51 2.64007 -4.78501 0
M  V30 8976 H 1041.6 0.43027 -0.706256 0
M  V30 8977 H 1044.15 0.157891 -1.68964 0
M  V30 8978 H 1042.92 0.69352 -3.85105 0
M  V30 8979 H 1042.54 2.2978 -3.24479 0
M  V30 8980 N 1043.54 1.5137 0.438746 0
M  V30 8981 C 1044.79 1.63645 1.18595 0
M  V30 8982 C 1045.11 0.354241 1.91755 0
M  V30 8983 O 1044.38 -0.629838 1.85499 0
M  V30 8984 H 1042.96 0.603103 0.440767 0
M  V30 8985 H 1045.62 1.88293 0.503159 0
M  V30 8986 H 1044.72 2.46342 1.9163 0
M  V30 8987 N 1045.02 -0.694098 1.41492 0
M  V30 8988 C 1045.98 -1.78976 1.43179 0
M  V30 8989 C 1046.98 -1.57539 0.322191 0
M  V30 8990 O 1048.17 -1.64185 0.582138 0
M  V30 8991 C 1045.3 -3.17368 1.2446 0
M  V30 8992 H 1046.49 -1.78874 2.40716 0
M  V30 8993 H 1044.05 -0.901867 1.27656 0
M  V30 8994 H 1044.78 -3.23109 0.277691 0
M  V30 8995 H 1044.57 -3.3433 2.04856 0
M  V30 8996 H 1046.06 -3.97345 1.28479 0
M  V30 8997 N 1046.49 -1.27344 -0.928501 0
M  V30 8998 C 1047.44 -1.10001 -2.029 0
M  V30 8999 C 1048.41 -0.00131084 -1.661 0
M  V30 9000 O 1049.6 -0.163485 -1.90098 0
M  V30 9001 C 1046.74 -0.7524 -3.36798 0
M  V30 9002 C 1045.85 -1.92865 -3.86558 0
M  V30 9003 C 1044.98 -1.52299 -5.08899 0
M  V30 9004 C 1044.02 -2.66677 -5.50953 0
M  V30 9005 N 1043.16 -2.26706 -6.64491 0
M  V30 9006 H 1048 -2.0417 -2.17068 0
M  V30 9007 H 1045.54 -1.01637 -1.0634 0
M  V30 9008 H 1047.5 -0.531687 -4.13798 0
M  V30 9009 H 1046.13 0.15234 -3.2244 0
M  V30 9010 H 1045.18 -2.26192 -3.05845 0
M  V30 9011 H 1046.49 -2.78668 -4.13698 0
M  V30 9012 H 1045.64 -1.26348 -5.93398 0
M  V30 9013 H 1044.38 -0.636042 -4.83535 0
M  V30 9014 H 1043.39 -2.93344 -4.65004 0
M  V30 9015 H 1044.61 -3.55992 -5.78313 0
M  V30 9016 H 1042.56 -1.40462 -6.40786 0
M  V30 9017 H 1042.48 -3.06049 -6.91281 0
M  V30 9018 H 1043.74 -2.04 -7.52333 0
M  V30 9019 N 1047.97 1.13488 -1.09353 0
M  V30 9020 C 1049.22 1.84383 -0.827488 0
M  V30 9021 C 1049.54 1.83892 0.648745 0
M  V30 9022 O 1048.81 1.29415 1.47066 0
M  V30 9023 H 1047.39 0.682732 -0.303127 0
M  V30 9024 H 1050.05 1.37477 -1.38152 0
M  V30 9025 H 1049.15 2.88919 -1.18035 0
M  V30 9026 N 1049.45 0.880621 1.30701 0
M  V30 9027 C 1050.73 0.41712 1.91101 0
M  V30 9028 C 1051.11 -1.10177 1.80067 0
M  V30 9029 O 1050.46 -1.93513 1.21511 0
M  V30 9030 C 1050.67 0.910364 3.36917 0
M  V30 9031 C 1052.01 0.942764 4.14001 0
M  V30 9032 O 1053.04 0.856733 3.45743 0
M  V30 9033 O 1051.9 1.06913 5.3594 0
M  V30 9034 H 1048.99 0.126775 0.817225 0
M  V30 9035 H 1051.54 0.969236 1.39298 0
M  V30 9036 H 1050.31 1.95414 3.39012 0
M  V30 9037 H 1049.93 0.337164 3.96168 0
M  V30 9038 N 1050.93 -1.4397 0.641131 0
M  V30 9039 C 1051.89 -2.29149 -0.0482243 0
M  V30 9040 C 1052.89 -1.41572 -0.762495 0
M  V30 9041 O 1054.08 -1.63335 -0.605571 0
M  V30 9042 C 1051.21 -3.23375 -1.07896 0
M  V30 9043 H 1052.41 -2.9159 0.70109 0
M  V30 9044 H 1049.96 -1.51048 0.401754 0
M  V30 9045 H 1050.7 -2.65804 -1.85792 0
M  V30 9046 H 1050.48 -3.87926 -0.570597 0
M  V30 9047 H 1051.97 -3.87337 -1.56075 0
M  V30 9048 N 1052.41 -0.382291 -1.52893 0
M  V30 9049 C 1053.66 0.201734 -2.01091 0
M  V30 9050 C 1053.98 1.47905 -1.2708 0
M  V30 9051 O 1053.25 1.92002 -0.38883 0
M  V30 9052 H 1051.83 0.0775373 -0.742965 0
M  V30 9053 H 1054.49 -0.512369 -1.88045 0
M  V30 9054 H 1053.58 0.416919 -3.09303 0
M  V30 9055 N 1053.89 1.57202 -0.111913 0
M  V30 9056 C 1054.85 2.13778 0.826534 0
M  V30 9057 C 1055.85 1.07097 1.19945 0
M  V30 9058 O 1057.04 1.32906 1.12613 0
M  V30 9059 C 1054.17 2.6722 2.11675 0
M  V30 9060 H 1055.36 2.98023 0.334975 0
M  V30 9061 H 1052.92 1.55696 0.137256 0
M  V30 9062 H 1053.65 1.86542 2.65278 0
M  V30 9063 H 1053.44 3.45235 1.8589 0
M  V30 9064 H 1054.93 3.10926 2.78774 0
M  V30 9065 N 1055.36 -0.161842 1.56767 0
M  V30 9066 C 1056.77 -0.723385 1.72116 0
M  V30 9067 C 1057.13 -1.82355 0.723961 0
M  V30 9068 O 1056.25 -2.16107 -0.112643 0
M  V30 9069 C 1056.85 -1.31895 3.12072 0
M  V30 9070 C 1055.4 -1.82722 3.29074 0
M  V30 9071 C 1054.55 -0.709863 2.6806 0
M  V30 9072 H 1057.5 0.0636647 1.58572 0
M  V30 9073 H 1057.52 -2.18871 3.11249 0
M  V30 9074 H 1057.04 -0.51801 3.84627 0
M  V30 9075 H 1055.14 -2.6543 2.61491 0
M  V30 9076 H 1055.25 -1.96614 4.36898 0
M  V30 9077 H 1053.61 -1.13273 2.28126 0
M  V30 9078 H 1054.4 0.0793884 3.43208 0
M  V30 9079 N 1056.84 -1.516 -0.430713 0
M  V30 9080 C 1058.09 -1.64271 -1.17726 0
M  V30 9081 C 1058.41 -0.364406 -1.91565 0
M  V30 9082 O 1057.68 0.619991 -1.8583 0
M  V30 9083 H 1056.26 -0.605432 -0.437562 0
M  V30 9084 H 1058.92 -1.88557 -0.493166 0
M  V30 9085 H 1058.02 -2.47355 -1.90321 0
M  V30 9086 N 1058.32 0.686584 -1.41858 0
M  V30 9087 C 1059.28 1.78214 -1.44126 0
M  V30 9088 C 1060.28 1.57366 -0.330541 0
M  V30 9089 O 1061.47 1.63874 -0.590837 0
M  V30 9090 C 1058.6 3.16704 -1.26142 0
M  V30 9091 H 1059.8 1.77594 -2.41661 0
M  V30 9092 H 1057.35 0.895085 -1.28132 0
M  V30 9093 H 1058.09 3.22957 -0.294823 0
M  V30 9094 H 1057.87 3.33238 -2.06627 0
M  V30 9095 H 1059.36 3.96658 -1.30584 0
M  V30 9096 N 1059.8 1.27835 0.921735 0
M  V30 9097 C 1061.21 1.13151 1.48505 0
M  V30 9098 C 1061.56 -0.281373 1.94172 0
M  V30 9099 O 1060.68 -1.17487 1.8173 0
M  V30 9100 C 1061.28 2.04792 2.69899 0
M  V30 9101 C 1059.84 1.94196 3.22436 0
M  V30 9102 C 1058.99 1.96999 1.95158 0
M  V30 9103 H 1061.94 1.40641 0.735241 0
M  V30 9104 H 1061.96 1.60724 3.44889 0
M  V30 9105 H 1061.47 3.07615 2.36631 0
M  V30 9106 H 1059.57 0.943805 3.60448 0
M  V30 9107 H 1059.68 2.80744 3.88226 0
M  V30 9108 H 1058.05 1.41301 2.11911 0
M  V30 9109 H 1058.83 3.01487 1.64196 0
M  V30 9110 N 1061.28 -1.12907 1.09954 0
M  V30 9111 C 1062.52 -1.83941 0.837255 0
M  V30 9112 C 1062.84 -1.84234 -0.638984 0
M  V30 9113 O 1062.11 -1.30193 -1.46378 0
M  V30 9114 H 1060.69 -0.681115 0.306743 0
M  V30 9115 H 1063.36 -1.36743 1.38879 0
M  V30 9116 H 1062.45 -2.88289 1.19565 0
M  V30 9117 N 1062.75 -0.88754 -1.30232 0
M  V30 9118 C 1063.98 -0.521562 -2.00735 0
M  V30 9119 C 1064.4 0.883247 -1.66073 0
M  V30 9120 O 1063.76 1.58581 -0.878731 0
M  V30 9121 C 1063.81 -0.706521 -3.53611 0
M  V30 9122 O 1062.91 0.246447 -4.11663 0
M  V30 9123 H 1062.25 -0.205216 -0.631492 0
M  V30 9124 H 1064.78 -1.19579 -1.66018 0
M  V30 9125 H 1064.79 -0.606501 -4.03467 0
M  V30 9126 H 1063.47 -1.73076 -3.78177 0
M  V30 9127 H 1062.05 0.0999062 -3.72766 0
M  V30 9128 N 1064.23 1.43628 -0.648757 0
M  V30 9129 C 1065.16 2.29045 0.0841858 0
M  V30 9130 C 1066.18 1.42262 0.791537 0
M  V30 9131 O 1067.37 1.66243 0.650039 0
M  V30 9132 C 1064.47 3.19075 1.14212 0
M  V30 9133 C 1063.64 4.34372 0.513799 0
M  V30 9134 C 1062.7 5.05307 1.46803 0
M  V30 9135 O 1061.72 5.60729 0.978346 0
M  V30 9136 N 1062.93 5.08393 2.80209 0
M  V30 9137 H 1065.69 2.9259 -0.648948 0
M  V30 9138 H 1063.25 1.54268 -0.491209 0
M  V30 9139 H 1065.24 3.63395 1.78119 0
M  V30 9140 H 1063.81 2.57161 1.77728 0
M  V30 9141 H 1063.03 3.93024 -0.304262 0
M  V30 9142 H 1064.32 5.08745 0.0749871 0
M  V30 9143 H 1063.72 4.64729 3.22557 0
M  V30 9144 H 1062.28 5.56445 3.3943 0
M  V30 9145 N 1065.71 0.390394 1.52688 0
M  V30 9146 C 1066.96 -0.191067 2.01195 0
M  V30 9147 C 1067.28 -1.47229 1.27862 0
M  V30 9148 O 1066.55 -1.91793 0.399007 0
M  V30 9149 H 1065.13 -0.073596 0.743366 0
M  V30 9150 H 1067.79 0.522334 1.8777 0
M  V30 9151 H 1066.89 -0.40051 3.0952 0
M  V30 9152 N 1067.19 -1.57141 0.120249 0
M  V30 9153 C 1068.15 -2.14213 -0.815185 0
M  V30 9154 C 1069.15 -1.07731 -1.19376 0
M  V30 9155 O 1070.34 -1.33502 -1.11906 0
M  V30 9156 C 1067.47 -2.68339 -2.10255 0
M  V30 9157 H 1068.67 -2.98197 -0.319166 0
M  V30 9158 H 1066.22 -1.55767 -0.128997 0
M  V30 9159 H 1066.95 -1.87946 -2.64285 0
M  V30 9160 H 1066.74 -3.46216 -1.84057 0
M  V30 9161 H 1068.23 -3.124 -2.77121 0
M  V30 9162 N 1068.67 0.153526 -1.5685 0
M  V30 9163 C 1070.08 0.714247 -1.72498 0
M  V30 9164 C 1070.43 1.81968 -0.733621 0
M  V30 9165 O 1069.55 2.16163 0.10118 0
M  V30 9166 C 1070.15 1.30238 -3.12767 0
M  V30 9167 C 1068.71 1.80974 -3.30038 0
M  V30 9168 C 1067.85 0.695638 -2.68433 0
M  V30 9169 H 1070.81 -0.0720733 -1.58536 0
M  V30 9170 H 1070.83 2.17217 -3.12405 0
M  V30 9171 H 1070.34 0.497605 -3.84897 0
M  V30 9172 H 1068.44 2.64039 -2.62895 0
M  V30 9173 H 1068.55 1.94294 -4.37934 0
M  V30 9174 H 1066.92 1.12061 -2.28723 0
M  V30 9175 H 1067.7 -0.0975885 -3.43161 0
M  V30 9176 N 1070.14 1.51827 0.422667 0
M  V30 9177 C 1071.39 1.64893 1.16853 0
M  V30 9178 C 1071.71 0.37456 1.91369 0
M  V30 9179 O 1070.98 -0.610128 1.86157 0
M  V30 9180 H 1069.56 0.607744 0.434345 0
M  V30 9181 H 1072.23 1.88816 0.483159 0
M  V30 9182 H 1071.32 2.48361 1.89006 0
M  V30 9183 N 1071.62 -0.679052 1.4222 0
M  V30 9184 C 1072.55 -1.80481 1.48152 0
M  V30 9185 C 1073.53 -1.66698 0.338502 0
M  V30 9186 O 1074.72 -1.86183 0.552228 0
M  V30 9187 C 1071.85 -3.18746 1.37908 0
M  V30 9188 C 1070.8 -3.47258 2.50192 0
M  V30 9189 C 1070.13 -4.85052 2.25008 0
M  V30 9190 C 1071.43 -3.44576 3.92511 0
M  V30 9191 H 1073.12 -1.75774 2.42371 0
M  V30 9192 H 1070.67 -0.844241 1.16656 0
M  V30 9193 H 1072.62 -3.97229 1.40666 0
M  V30 9194 H 1071.35 -3.24119 0.401806 0
M  V30 9195 H 1070 -2.71133 2.46744 0
M  V30 9196 H 1069.65 -4.8707 1.25584 0
M  V30 9197 H 1069.35 -5.05092 3.00259 0
M  V30 9198 H 1070.88 -5.65825 2.29508 0
M  V30 9199 H 1072.29 -4.13036 3.97585 0
M  V30 9200 H 1070.69 -3.76151 4.67579 0
M  V30 9201 H 1071.76 -2.4323 4.19484 0
M  V30 9202 N 1073.1 -1.28322 -0.914942 0
M  V30 9203 C 1074.03 -1.07947 -2.02188 0
M  V30 9204 C 1075.05 -0.0315743 -1.62769 0
M  V30 9205 O 1076.23 -0.274503 -1.76377 0
M  V30 9206 C 1073.33 -0.61805 -3.33217 0
M  V30 9207 C 1072.51 -1.74109 -4.01254 0
M  V30 9208 C 1071.57 -1.27325 -5.10563 0
M  V30 9209 O 1070.59 -1.97526 -5.33828 0
M  V30 9210 N 1071.79 -0.1358 -5.80341 0
M  V30 9211 H 1074.56 -2.03275 -2.20225 0
M  V30 9212 H 1072.12 -1.20059 -1.08616 0
M  V30 9213 H 1074.11 -0.288693 -4.03669 0
M  V30 9214 H 1072.68 0.242348 -3.11659 0
M  V30 9215 H 1071.9 -2.2401 -3.24366 0
M  V30 9216 H 1073.19 -2.49448 -4.43456 0
M  V30 9217 H 1072.59 0.449846 -5.63909 0
M  V30 9218 H 1071.15 0.134289 -6.51662 0
M  V30 9219 N 1074.58 1.12322 -1.10551 0
M  V30 9220 C 1075.83 1.83495 -0.846998 0
M  V30 9221 C 1076.15 1.8457 0.629205 0
M  V30 9222 O 1075.42 1.30968 1.45686 0
M  V30 9223 H 1074 0.679479 -0.310351 0
M  V30 9224 H 1076.66 1.36004 -1.39602 0
M  V30 9225 H 1075.76 2.87651 -1.21092 0
M  V30 9226 N 1076.06 0.894434 1.2976 0
M  V30 9227 C 1076.99 0.312806 2.26046 0
M  V30 9228 C 1077.97 -0.572024 1.52206 0
M  V30 9229 O 1079.15 -0.520009 1.81185 0
M  V30 9230 C 1076.28 -0.554624 3.34128 0
M  V30 9231 C 1075.32 0.262168 4.25693 0
M  V30 9232 S 1076.16 1.65656 5.09233 0
M  V30 9233 C 1077.31 0.795914 6.20819 0
M  V30 9234 H 1077.55 1.12895 2.75031 0
M  V30 9235 H 1075.08 0.694446 1.37901 0
M  V30 9236 H 1077.04 -1.04933 3.96862 0
M  V30 9237 H 1075.7 -1.34495 2.83848 0
M  V30 9238 H 1074.89 -0.400216 5.02408 0
M  V30 9239 H 1074.49 0.689829 3.67583 0
M  V30 9240 H 1076.79 0.0169942 6.77498 0
M  V30 9241 H 1077.73 1.53497 6.91263 0
M  V30 9242 H 1078.14 0.35263 5.63398 0
M  V30 9243 N 1077.53 -1.43282 0.656365 0
M  V30 9244 C 1078.95 -1.85012 0.250475 0
M  V30 9245 C 1079.3 -1.54944 -1.20361 0
M  V30 9246 O 1078.42 -0.999983 -1.9191 0
M  V30 9247 C 1079.02 -3.35827 0.447815 0
M  V30 9248 C 1077.58 -3.76277 0.0962151 0
M  V30 9249 C 1076.72 -2.66988 0.749168 0
M  V30 9250 H 1079.67 -1.3339 0.85982 0
M  V30 9251 H 1079.69 -3.7927 -0.305726 0
M  V30 9252 H 1079.21 -3.5768 1.5062 0
M  V30 9253 H 1077.31 -3.60035 -0.959449 0
M  V30 9254 H 1077.42 -4.76227 0.523875 0
M  V30 9255 H 1075.78 -2.54048 0.18212 0
M  V30 9256 H 1076.57 -2.91669 1.81064 0
M  V30 9257 N 1079.01 -0.398486 -1.52479 0
M  V30 9258 C 1080.26 0.180394 -2.01293 0
M  V30 9259 C 1080.58 1.46548 -1.28641 0
M  V30 9260 O 1079.85 1.91579 -0.409173 0
M  V30 9261 H 1078.43 0.0696528 -0.743746 0
M  V30 9262 H 1081.09 -0.532285 -1.87491 0
M  V30 9263 H 1080.19 0.38409 -3.09728 0
M  V30 9264 N 1080.49 1.57075 -0.12858 0
M  V30 9265 C 1081.4 2.19369 0.831533 0
M  V30 9266 C 1082.42 1.17258 1.28555 0
M  V30 9267 O 1083.59 1.49766 1.34656 0
M  V30 9268 C 1080.66 2.78846 2.06024 0
M  V30 9269 C 1079.72 3.96024 1.65722 0
M  V30 9270 C 1078.95 4.52655 2.82735 0
M  V30 9271 O 1079.18 4.08175 3.98434 0
M  V30 9272 O 1078.11 5.43198 2.59268 0
M  V30 9273 H 1081.94 3.01887 0.331352 0
M  V30 9274 H 1079.52 1.49081 0.0975226 0
M  V30 9275 H 1081.4 3.16721 2.77967 0
M  V30 9276 H 1080.08 1.99353 2.5503 0
M  V30 9277 H 1078.98 3.62899 0.908574 0
M  V30 9278 H 1080.32 4.76981 1.21449 0
M  V30 9279 N 1081.97 -0.145205 1.5693 0
M  V30 9280 C 1083.39 -0.497905 1.51635 0
M  V30 9281 C 1083.59 -1.8328 0.837301 0
M  V30 9282 O 1082.64 -2.49172 0.408584 0
M  V30 9283 C 1083.95 -0.506557 2.96403 0
M  V30 9284 C 1085.5 -0.591947 3.07352 0
M  V30 9285 C 1085.98 -0.631244 4.53629 0
M  V30 9286 N 1087.47 -0.693417 4.5798 0
M  V30 9287 C 1088.2 -0.744836 5.68542 0
M  V30 9288 N 1087.7 -0.755492 6.88668 0
M  V30 9289 N 1089.49 -0.785854 5.5658 0
M  V30 9290 H 1081.64 0.729779 1.99469 0
M  V30 9291 H 1083.91 0.266295 0.90983 0
M  V30 9292 H 1083.61 0.406127 3.49347 0
M  V30 9293 H 1083.49 -1.34383 3.5245 0
M  V30 9294 H 1085.87 -1.49505 2.54425 0
M  V30 9295 H 1085.95 0.272507 2.54344 0
M  V30 9296 H 1085.6 0.26771 5.07194 0
M  V30 9297 H 1085.53 -1.51221 5.0442 0
M  V30 9298 H 1088.02 -0.692408 3.71503 0
M  V30 9299 H 1088.33 -0.796624 7.68683 0
M  V30 9300 H 1086.68 -0.723339 6.91226 0
M  V30 9301 H 1089.87 -0.774712 4.61645 0
M  V30 9302 H 1090.04 -0.822461 6.42759 0
M  V30 9303 N 1083.45 -1.52049 -0.414609 0
M  V30 9304 C 1084.7 -1.65511 -1.15977 0
M  V30 9305 C 1085.02 -0.384703 -1.91168 0
M  V30 9306 O 1084.29 0.600247 -1.86477 0
M  V30 9307 H 1082.87 -0.610039 -0.431116 0
M  V30 9308 H 1085.53 -1.8907 -0.473139 0
M  V30 9309 H 1084.62 -2.4936 -1.87686 0
M  V30 9310 N 1084.93 0.6715 -1.42579 0
M  V30 9311 C 1085.89 1.76676 -1.46008 0
M  V30 9312 C 1086.89 1.57007 -0.347213 0
M  V30 9313 O 1088.08 1.63238 -0.608185 0
M  V30 9314 C 1085.21 3.15348 -1.29494 0
M  V30 9315 H 1086.4 1.75021 -2.43531 0
M  V30 9316 H 1083.96 0.881444 -1.29075 0
M  V30 9317 H 1084.69 3.22626 -0.32906 0
M  V30 9318 H 1084.48 3.31028 -2.10149 0
M  V30 9319 H 1085.97 3.95251 -1.34784 0
M  V30 9320 N 1086.4 1.28806 0.908124 0
M  V30 9321 C 1087.37 1.13228 1.99279 0
M  V30 9322 C 1088.37 0.0702456 1.60646 0
M  V30 9323 O 1089.56 0.316494 1.71301 0
M  V30 9324 C 1086.69 0.729629 3.33 0
M  V30 9325 H 1087.88 2.09566 2.14528 0
M  V30 9326 H 1085.43 1.11872 1.09153 0
M  V30 9327 H 1086.17 -0.234268 3.23453 0
M  V30 9328 H 1085.95 1.49688 3.62403 0
M  V30 9329 H 1087.44 0.643449 4.12613 0
M  V30 9330 N 1087.88 -1.11734 1.11145 0
M  V30 9331 C 1089.13 -1.83043 0.856717 0
M  V30 9332 C 1089.45 -1.84901 -0.619407 0
M  V30 9333 O 1088.72 -1.31738 -1.44989 0
M  V30 9334 H 1087.3 -0.677823 0.31395 0
M  V30 9335 H 1089.96 -1.35262 1.40322 0
M  V30 9336 H 1089.06 -2.87005 1.22616 0
M  V30 9337 N 1089.36 -0.901303 -1.29284 0
M  V30 9338 C 1090.29 -0.396909 -2.30102 0
M  V30 9339 C 1091.27 0.528919 -1.61668 0
M  V30 9340 O 1092.46 0.439306 -1.89166 0
M  V30 9341 C 1089.59 0.375006 -3.45269 0
M  V30 9342 C 1088.54 -0.46054 -4.25515 0
M  V30 9343 C 1087.87 0.438967 -5.32895 0
M  V30 9344 C 1089.17 -1.7113 -4.93469 0
M  V30 9345 H 1090.86 -1.23943 -2.72541 0
M  V30 9346 H 1088.41 -0.597428 -1.31022 0
M  V30 9347 H 1090.36 0.738622 -4.14876 0
M  V30 9348 H 1089.08 1.25132 -3.01678 0
M  V30 9349 H 1087.74 -0.80651 -3.57618 0
M  V30 9350 H 1087.39 1.31346 -4.85548 0
M  V30 9351 H 1087.09 -0.116406 -5.87485 0
M  V30 9352 H 1088.61 0.79874 -6.05353 0
M  V30 9353 H 1090.03 -1.41732 -5.55504 0
M  V30 9354 H 1088.42 -2.20811 -5.57999 0
M  V30 9355 H 1089.49 -2.44636 -4.18666 0
M  V30 9356 N 1090.84 1.42931 -0.663954 0
M  V30 9357 C 1092.25 1.84877 -0.260283 0
M  V30 9358 C 1092.6 1.5558 1.19538 0
M  V30 9359 O 1091.72 1.01015 1.91377 0
M  V30 9360 C 1092.32 3.35585 -0.465618 0
M  V30 9361 C 1090.88 3.76221 -0.116169 0
M  V30 9362 C 1090.03 2.66587 -0.763317 0
M  V30 9363 H 1092.98 1.32932 -0.866882 0
M  V30 9364 H 1093 3.79427 0.285608 0
M  V30 9365 H 1092.51 3.56877 -1.52515 0
M  V30 9366 H 1090.61 3.60539 0.940342 0
M  V30 9367 H 1090.72 4.75943 -0.549123 0
M  V30 9368 H 1089.09 2.53948 -0.19559 0
M  V30 9369 H 1089.87 2.90704 -1.82609 0
M  V30 9370 N 1092.32 0.406567 1.52266 0
M  V30 9371 C 1093.56 -0.169717 2.01386 0
M  V30 9372 C 1093.88 -1.45864 1.29417 0
M  V30 9373 O 1093.15 -1.9136 0.419327 0
M  V30 9374 H 1091.73 -0.0657075 0.744105 0
M  V30 9375 H 1094.4 0.542221 1.87206 0
M  V30 9376 H 1093.49 -0.367659 3.09927 0
M  V30 9377 N 1093.79 -1.57004 0.136909 0
M  V30 9378 C 1095.21 -1.82675 -0.385577 0
M  V30 9379 C 1095.56 -1.05508 -1.65416 0
M  V30 9380 O 1094.68 -0.297207 -2.14349 0
M  V30 9381 C 1095.28 -3.31356 -0.706326 0
M  V30 9382 C 1093.84 -3.57644 -1.17337 0
M  V30 9383 C 1092.98 -2.7664 -0.191239 0
M  V30 9384 H 1095.93 -1.54522 0.36177 0
M  V30 9385 H 1095.95 -3.4696 -1.56201 0
M  V30 9386 H 1095.47 -3.87492 0.217147 0
M  V30 9387 H 1093.57 -3.06883 -2.11313 0
M  V30 9388 H 1093.68 -4.66152 -1.10632 0
M  V30 9389 H 1092.04 -2.45403 -0.681867 0
M  V30 9390 H 1092.83 -3.35543 0.725647 0
M  V30 9391 N 1095.27 0.136881 -1.57004 0
M  V30 9392 C 1096.22 1.16869 -1.99023 0
M  V30 9393 C 1097.19 1.42137 -0.859435 0
M  V30 9394 O 1098.37 1.54303 -1.12229 0
M  V30 9395 C 1095.51 2.49466 -2.38455 0
M  V30 9396 C 1094.63 2.31286 -3.64871 0
M  V30 9397 C 1093.76 3.56989 -3.9336 0
M  V30 9398 C 1092.8 3.33889 -5.13015 0
M  V30 9399 N 1091.94 4.51748 -5.37464 0
M  V30 9400 H 1096.78 0.803366 -2.86967 0
M  V30 9401 H 1094.32 0.385216 -1.41967 0
M  V30 9402 H 1096.27 3.26794 -2.59348 0
M  V30 9403 H 1094.9 2.83926 -1.53577 0
M  V30 9404 H 1093.96 1.44962 -3.51696 0
M  V30 9405 H 1095.27 2.10183 -4.52355 0
M  V30 9406 H 1094.42 4.42742 -4.14806 0
M  V30 9407 H 1093.16 3.81106 -3.04318 0
M  V30 9408 H 1092.17 2.46525 -4.91432 0
M  V30 9409 H 1093.39 3.1116 -6.03619 0
M  V30 9410 H 1091.34 4.76019 -4.51377 0
M  V30 9411 H 1091.25 4.33684 -6.19237 0
M  V30 9412 H 1092.52 5.38686 -5.63416 0
M  V30 9413 N 1096.75 1.52266 0.40654 0
M  V30 9414 C 1098 1.66123 1.15097 0
M  V30 9415 C 1098.32 0.394836 1.90961 0
M  V30 9416 O 1097.59 -0.590349 1.86793 0
M  V30 9417 H 1096.17 0.612317 0.427875 0
M  V30 9418 H 1098.83 1.89318 0.463106 0
M  V30 9419 H 1097.93 2.50351 1.86361 0
M  V30 9420 N 1098.23 -0.663929 1.42933 0
M  V30 9421 C 1099.51 -1.42054 1.34462 0
M  V30 9422 C 1099.89 -2.11096 -0.0127801 0
M  V30 9423 O 1099.23 -2.04027 -1.02884 0
M  V30 9424 C 1099.44 -2.41406 2.5204 0
M  V30 9425 C 1100.79 -3.05726 2.94647 0
M  V30 9426 O 1101.82 -2.51733 2.52009 0
M  V30 9427 O 1100.67 -4.03593 3.68477 0
M  V30 9428 H 1097.77 -0.634149 0.530834 0
M  V30 9429 H 1100.31 -0.691738 1.54962 0
M  V30 9430 H 1099.09 -1.89263 3.42484 0
M  V30 9431 H 1098.71 -3.21752 2.33584 0
M  V30 9432 N 1099.71 -1.29285 -0.901281 0
M  V30 9433 C 1101.12 -1.07263 -1.18182 0
M  V30 9434 C 1101.32 0.177087 -2.0072 0
M  V30 9435 O 1100.38 0.875292 -2.36844 0
M  V30 9436 C 1101.69 -2.32717 -1.9043 0
M  V30 9437 C 1103.24 -2.3802 -2.03262 0
M  V30 9438 C 1103.71 -3.63273 -2.7892 0
M  V30 9439 N 1105.21 -3.63986 -2.86475 0
M  V30 9440 C 1105.94 -4.57585 -3.45549 0
M  V30 9441 N 1105.44 -5.61513 -4.05801 0
M  V30 9442 N 1107.23 -4.45157 -3.43208 0
M  V30 9443 H 1099.38 -2.09487 -0.350536 0
M  V30 9444 H 1101.64 -0.922647 -0.217778 0
M  V30 9445 H 1101.35 -3.23828 -1.37216 0
M  V30 9446 H 1101.22 -2.40102 -2.90913 0
M  V30 9447 H 1103.61 -1.47398 -2.55652 0
M  V30 9448 H 1103.69 -2.3462 -1.01916 0
M  V30 9449 H 1103.34 -4.54246 -2.27206 0
M  V30 9450 H 1103.27 -3.6393 -3.80608 0
M  V30 9451 H 1105.76 -2.8884 -2.43679 0
M  V30 9452 H 1106.07 -6.29058 -4.48894 0
M  V30 9453 H 1104.41 -5.65325 -4.04268 0
M  V30 9454 H 1107.61 -3.63158 -2.95354 0
M  V30 9455 H 1107.78 -5.18286 -3.88952 0
M  V30 9456 N 1101.18 1.11143 -1.11736 0
M  V30 9457 C 1102.43 1.82586 -0.866412 0
M  V30 9458 C 1102.75 1.85227 0.609593 0
M  V30 9459 O 1102.02 1.32505 1.44288 0
M  V30 9460 H 1100.6 0.676149 -0.31754 0
M  V30 9461 H 1103.27 1.34516 -1.41037 0
M  V30 9462 H 1102.36 2.8635 -1.24136 0
M  V30 9463 N 1102.66 0.908147 1.28804 0
M  V30 9464 C 1103.94 0.457561 1.90173 0
M  V30 9465 C 1104.32 -1.06333 1.82364 0
M  V30 9466 O 1103.67 -1.90892 1.25589 0
M  V30 9467 C 1103.88 0.981624 3.34911 0
M  V30 9468 C 1105.23 1.03037 4.11908 0
M  V30 9469 O 1106.25 0.929878 3.43848 0
M  V30 9470 O 1105.11 1.18257 5.33552 0
M  V30 9471 H 1102.2 0.144081 0.814352 0
M  V30 9472 H 1104.75 0.998565 1.37211 0
M  V30 9473 H 1103.52 2.02561 3.34791 0
M  V30 9474 H 1103.14 0.421122 3.95364 0
M  V30 9475 N 1104.14 -1.42577 0.671525 0
M  V30 9476 C 1105.1 -2.292 0.000392482 0
M  V30 9477 C 1106.1 -1.43158 -0.732294 0
M  V30 9478 O 1107.29 -1.64583 -0.570789 0
M  V30 9479 C 1104.43 -3.25591 -1.01013 0
M  V30 9480 H 1105.62 -2.90037 0.762783 0
M  V30 9481 H 1103.17 -1.50162 0.433703 0
M  V30 9482 H 1103.91 -2.69685 -1.80112 0
M  V30 9483 H 1103.69 -3.89049 -0.488183 0
M  V30 9484 H 1105.18 -3.90561 -1.47824 0
M  V30 9485 N 1105.62 -0.414636 -1.52048 0
M  V30 9486 C 1106.87 0.159034 -2.01473 0
M  V30 9487 C 1107.19 1.45176 -1.30188 0
M  V30 9488 O 1106.46 1.91134 -0.429469 0
M  V30 9489 H 1105.04 0.0617604 -0.744443 0
M  V30 9490 H 1107.7 -0.552141 -1.86916 0
M  V30 9491 H 1106.8 0.351217 -3.10118 0
M  V30 9492 N 1107.1 1.56929 -0.145233 0
M  V30 9493 C 1108.51 1.82877 0.375884 0
M  V30 9494 C 1108.86 1.06384 1.64854 0
M  V30 9495 O 1107.98 0.30857 2.14189 0
M  V30 9496 C 1108.58 3.31725 0.688744 0
M  V30 9497 C 1107.14 3.58261 1.15439 0
M  V30 9498 C 1106.28 2.76737 0.176565 0
M  V30 9499 H 1109.24 1.54328 -0.36996 0
M  V30 9500 H 1109.26 3.47784 1.54359 0
M  V30 9501 H 1108.77 3.87371 -0.237694 0
M  V30 9502 H 1106.87 3.08 2.09683 0
M  V30 9503 H 1106.98 4.66732 1.08158 0
M  V30 9504 H 1105.35 2.45761 0.668843 0
M  V30 9505 H 1106.13 3.35154 -0.743432 0
M  V30 9506 N 1108.58 -0.128553 1.57075 0
M  V30 9507 C 1109.52 -1.15812 1.9964 0
M  V30 9508 C 1110.49 -1.41679 0.86696 0
M  V30 9509 O 1111.68 -1.53705 1.13046 0
M  V30 9510 C 1108.82 -2.48198 2.39774 0
M  V30 9511 C 1107.93 -2.29348 3.66092 0
M  V30 9512 C 1107.07 -3.54898 3.95248 0
M  V30 9513 C 1106.1 -3.31164 5.14779 0
M  V30 9514 N 1105.24 -4.48891 5.39853 0
M  V30 9515 H 1110.08 -0.788136 2.87389 0
M  V30 9516 H 1107.62 -0.377682 1.42169 0
M  V30 9517 H 1109.58 -3.25414 2.61077 0
M  V30 9518 H 1108.21 -2.83108 1.5508 0
M  V30 9519 H 1107.26 -1.43095 3.5246 0
M  V30 9520 H 1108.57 -2.07781 4.53463 0
M  V30 9521 H 1107.72 -4.40536 4.17148 0
M  V30 9522 H 1106.46 -3.79487 3.06335 0
M  V30 9523 H 1105.47 -2.43915 4.92733 0
M  V30 9524 H 1106.69 -3.07954 6.05261 0
M  V30 9525 H 1104.64 -4.73619 4.53895 0
M  V30 9526 H 1104.56 -4.30394 6.21528 0
M  V30 9527 H 1105.82 -5.35691 5.66265 0
M  V30 9528 N 1110.05 -1.5248 -0.398459 0
M  V30 9529 C 1111.3 -1.66731 -1.14215 0
M  V30 9530 C 1111.62 -0.404957 -1.90749 0
M  V30 9531 O 1110.89 0.580434 -1.87104 0
M  V30 9532 H 1109.47 -0.614577 -0.424622 0
M  V30 9533 H 1112.13 -1.89561 -0.453059 0
M  V30 9534 H 1111.23 -2.51336 -1.85031 0
M  V30 9535 N 1111.53 0.65634 -1.43283 0
M  V30 9536 C 1112.49 1.75117 -1.47874 0
M  V30 9537 C 1113.49 1.56629 -0.363846 0
M  V30 9538 O 1114.68 1.62584 -0.625464 0
M  V30 9539 C 1111.82 3.13957 -1.32831 0
M  V30 9540 H 1113.01 1.72429 -2.45374 0
M  V30 9541 H 1110.56 0.867704 -1.30002 0
M  V30 9542 H 1111.3 3.22259 -0.36326 0
M  V30 9543 H 1111.08 3.28781 -2.13649 0
M  V30 9544 H 1112.57 3.93799 -1.38969 0
M  V30 9545 N 1113.01 1.29761 0.894412 0
M  V30 9546 C 1114.29 1.08711 1.62608 0
M  V30 9547 C 1114.67 -0.366907 2.07887 0
M  V30 9548 O 1114.01 -1.35669 1.83865 0
M  V30 9549 C 1114.22 2.07947 2.80284 0
M  V30 9550 C 1115.57 2.39153 3.50843 0
M  V30 9551 O 1116.6 2.06183 2.9046 0
M  V30 9552 O 1115.46 2.95509 4.59713 0
M  V30 9553 H 1112.55 0.416866 0.714249 0
M  V30 9554 H 1115.1 1.41153 0.942015 0
M  V30 9555 H 1113.87 3.05859 2.44061 0
M  V30 9556 H 1113.49 1.76266 3.56393 0
M  V30 9557 N 1114.49 -1.10549 1.12324 0
M  V30 9558 C 1115.74 -1.82124 0.876083 0
M  V30 9559 C 1116.06 -1.85547 -0.599761 0
M  V30 9560 O 1115.33 -1.33269 -1.43584 0
M  V30 9561 H 1113.91 -0.674455 0.321122 0
M  V30 9562 H 1116.57 -1.33766 1.41748 0
M  V30 9563 H 1115.66 -2.85688 1.25653 0
M  V30 9564 N 1115.97 -0.914965 -1.28321 0
M  V30 9565 C 1117.19 -0.564023 -1.99583 0
M  V30 9566 C 1117.62 0.847821 -1.6791 0
M  V30 9567 O 1116.97 1.56682 -0.912171 0
M  V30 9568 C 1117.02 -0.781368 -3.52033 0
M  V30 9569 O 1116.13 0.159072 -4.12093 0
M  V30 9570 H 1115.47 -0.218565 -0.626997 0
M  V30 9571 H 1118 -1.23074 -1.63444 0
M  V30 9572 H 1118.01 -0.691946 -4.0209 0
M  V30 9573 H 1116.68 -1.81059 -3.7442 0
M  V30 9574 H 1115.26 0.0208145 -3.72894 0
M  V30 9575 N 1117.44 1.42219 -0.679077 0
M  V30 9576 C 1118.85 1.8459 -0.279877 0
M  V30 9577 C 1119.21 1.56839 1.17881 0
M  V30 9578 O 1118.33 1.03039 1.90294 0
M  V30 9579 C 1118.93 3.35072 -0.501185 0
M  V30 9580 C 1117.48 3.76076 -0.156065 0
M  V30 9581 C 1116.63 2.65763 -0.791549 0
M  V30 9582 H 1119.58 1.32005 -0.880932 0
M  V30 9583 H 1119.6 3.79708 0.245349 0
M  V30 9584 H 1119.12 3.55239 -1.56291 0
M  V30 9585 H 1117.22 3.61516 0.90205 0
M  V30 9586 H 1117.33 4.75334 -0.599572 0
M  V30 9587 H 1115.69 2.53726 -0.222514 0
M  V30 9588 H 1116.48 2.88751 -1.85682 0
M  V30 9589 N 1118.92 0.422693 1.51826 0
M  V30 9590 C 1120.17 -0.148348 2.01555 0
M  V30 9591 C 1120.49 -1.44483 1.30956 0
M  V30 9592 O 1119.76 -1.90904 0.439599 0
M  V30 9593 H 1118.34 -0.0578116 0.74476 0
M  V30 9594 H 1121 0.562046 1.8662 0
M  V30 9595 H 1120.1 -0.334766 3.10299 0
M  V30 9596 N 1120.4 -1.5685 0.153553 0
M  V30 9597 C 1121.35 -2.1709 -0.783626 0
M  V30 9598 C 1122.32 -1.10567 -1.23952 0
M  V30 9599 O 1123.5 -1.38638 -1.31088 0
M  V30 9600 C 1120.64 -2.80183 -2.01473 0
M  V30 9601 C 1119.75 -4.01117 -1.60403 0
M  V30 9602 C 1118.89 -4.5219 -2.78743 0
M  V30 9603 C 1117.93 -5.65574 -2.34079 0
M  V30 9604 N 1117.07 -6.11235 -3.4545 0
M  V30 9605 H 1121.91 -2.96836 -0.263127 0
M  V30 9606 H 1119.44 -1.46625 -0.11816 0
M  V30 9607 H 1121.4 -3.14912 -2.73654 0
M  V30 9608 H 1120.03 -2.03071 -2.50923 0
M  V30 9609 H 1119.08 -3.72325 -0.779631 0
M  V30 9610 H 1120.39 -4.83243 -1.23605 0
M  V30 9611 H 1119.55 -4.89008 -3.59105 0
M  V30 9612 H 1118.29 -3.69085 -3.18791 0
M  V30 9613 H 1117.29 -5.28326 -1.52158 0
M  V30 9614 H 1118.52 -6.50468 -1.95109 0
M  V30 9615 H 1116.46 -5.31064 -3.85106 0
M  V30 9616 H 1116.38 -6.88304 -3.12687 0
M  V30 9617 H 1117.65 -6.527 -4.26149 0
M  V30 9618 N 1121.88 0.120221 -1.57141 0
M  V30 9619 C 1123.15 0.858458 -1.75755 0
M  V30 9620 C 1123.53 1.98124 -0.728693 0
M  V30 9621 O 1122.88 2.27155 0.247573 0
M  V30 9622 C 1123.09 1.37627 -3.20718 0
M  V30 9623 C 1124.44 1.82909 -3.83183 0
M  V30 9624 O 1125.46 1.47309 -3.24312 0
M  V30 9625 O 1124.32 2.4865 -4.86657 0
M  V30 9626 H 1121.42 0.407583 -0.719587 0
M  V30 9627 H 1123.96 0.104057 -1.69381 0
M  V30 9628 H 1122.74 0.570651 -3.87117 0
M  V30 9629 H 1122.36 2.19341 -3.31625 0
M  V30 9630 N 1123.36 1.52689 0.390367 0
M  V30 9631 C 1124.6 1.67335 1.13329 0
M  V30 9632 C 1124.93 0.415068 1.90531 0
M  V30 9633 O 1124.2 -0.570504 1.87409 0
M  V30 9634 H 1122.78 0.616821 0.421356 0
M  V30 9635 H 1125.44 1.89799 0.443 0
M  V30 9636 H 1124.53 2.52314 1.83696 0
M  V30 9637 N 1124.83 -0.648732 1.43629 0
M  V30 9638 C 1126.08 -1.41066 1.45699 0
M  V30 9639 C 1126.41 -1.94024 0.082612 0
M  V30 9640 O 1125.69 -1.7257 -0.897207 0
M  V30 9641 C 1125.97 -2.58882 2.50304 0
M  V30 9642 C 1125.82 -2.11387 3.97033 0
M  V30 9643 C 1127.14 -3.61092 2.51597 0
M  V30 9644 H 1124.26 -0.511591 0.530512 0
M  V30 9645 H 1126.9 -0.735069 1.75205 0
M  V30 9646 H 1125.05 -3.16518 2.25274 0
M  V30 9647 H 1126.73 -1.58718 4.33136 0
M  V30 9648 H 1124.97 -1.4272 4.0965 0
M  V30 9649 H 1125.64 -2.96129 4.65845 0
M  V30 9650 H 1128.12 -3.13223 2.73917 0
M  V30 9651 H 1126.99 -4.41071 3.26722 0
M  V30 9652 H 1127.25 -4.13985 1.55141 0
M  V30 9653 N 1126.31 -1.30234 -0.887518 0
M  V30 9654 C 1127.73 -1.0851 -1.17037 0
M  V30 9655 C 1127.93 0.155788 -2.00897 0
M  V30 9656 O 1126.98 0.850123 -2.37759 0
M  V30 9657 C 1128.3 -2.34723 -1.87951 0
M  V30 9658 C 1129.85 -2.40163 -2.00726 0
M  V30 9659 C 1130.32 -3.66211 -2.75051 0
M  V30 9660 N 1131.81 -3.67004 -2.82599 0
M  V30 9661 C 1132.55 -4.61224 -3.40676 0
M  V30 9662 N 1132.04 -5.65786 -3.99823 0
M  V30 9663 N 1133.84 -4.48772 -3.38467 0
M  V30 9664 H 1125.99 -2.09847 -0.328297 0
M  V30 9665 H 1128.25 -0.924904 -0.20798 0
M  V30 9666 H 1127.96 -3.25265 -1.33773 0
M  V30 9667 H 1127.83 -2.43175 -2.8835 0
M  V30 9668 H 1130.22 -1.50101 -2.54074 0
M  V30 9669 H 1130.3 -2.35688 -0.994218 0
M  V30 9670 H 1129.94 -4.56631 -2.22376 0
M  V30 9671 H 1129.87 -3.67947 -3.76726 0
M  V30 9672 H 1132.36 -2.91409 -2.40602 0
M  V30 9673 H 1132.68 -6.33783 -4.42197 0
M  V30 9674 H 1131.02 -5.69581 -3.9825 0
M  V30 9675 H 1134.21 -3.6627 -2.91485 0
M  V30 9676 H 1134.38 -5.22382 -3.83433 0
M  V30 9677 N 1127.79 1.09952 -1.12909 0
M  V30 9678 C 1129.04 1.81657 -0.885729 0
M  V30 9679 C 1129.36 1.85863 0.589913 0
M  V30 9680 O 1128.63 1.34028 1.42875 0
M  V30 9681 H 1127.21 0.672743 -0.324694 0
M  V30 9682 H 1129.87 1.33013 -1.42456 0
M  V30 9683 H 1128.97 2.85018 -1.27167 0
M  V30 9684 N 1129.27 0.921757 1.27833 0
M  V30 9685 C 1130.2 0.433466 2.29441 0
M  V30 9686 C 1131.18 -0.503133 1.62489 0
M  V30 9687 O 1132.36 -0.409156 1.89841 0
M  V30 9688 C 1129.49 -0.320029 3.45822 0
M  V30 9689 C 1128.45 0.528178 4.24728 0
M  V30 9690 C 1127.77 -0.354132 5.33526 0
M  V30 9691 C 1129.07 1.78959 4.90684 0
M  V30 9692 H 1130.77 1.28263 2.70535 0
M  V30 9693 H 1128.31 0.618197 1.30055 0
M  V30 9694 H 1130.27 -0.672526 4.15999 0
M  V30 9695 H 1128.99 -1.20317 3.0363 0
M  V30 9696 H 1127.65 0.863302 3.5629 0
M  V30 9697 H 1127.3 -1.23605 4.87576 0
M  V30 9698 H 1127 0.209855 5.87225 0
M  V30 9699 H 1128.52 -0.702333 6.06547 0
M  V30 9700 H 1129.94 1.50552 5.53179 0
M  V30 9701 H 1128.33 2.29661 5.54415 0
M  V30 9702 H 1129.4 2.51265 4.14721 0
M  V30 9703 N 1130.75 -1.41857 0.686609 0
M  V30 9704 C 1131.97 -2.05699 0.222561 0
M  V30 9705 C 1132.39 -1.51636 -1.12481 0
M  V30 9706 O 1131.75 -0.660925 -1.70112 0
M  V30 9707 C 1131.8 -3.61138 0.161818 0
M  V30 9708 O 1131.52 -4.13199 1.45596 0
M  V30 9709 C 1133.02 -4.42112 -0.324304 0
M  V30 9710 H 1130.24 -0.662665 0.10543 0
M  V30 9711 H 1132.78 -1.81788 0.936671 0
M  V30 9712 H 1130.94 -3.8412 -0.503056 0
M  V30 9713 H 1131.35 -5.0717 1.33712 0
M  V30 9714 H 1132.83 -5.51097 -0.315694 0
M  V30 9715 H 1133.3 -4.1756 -1.36164 0
M  V30 9716 H 1133.91 -4.24174 0.309251 0
M  V30 9717 N 1132.22 -0.430739 -1.51599 0
M  V30 9718 C 1133.47 0.137657 -2.01631 0
M  V30 9719 C 1133.79 1.43787 -1.31721 0
M  V30 9720 O 1133.06 1.90668 -0.449717 0
M  V30 9721 H 1131.64 0.0538611 -0.745056 0
M  V30 9722 H 1134.31 -0.571935 -1.86319 0
M  V30 9723 H 1133.4 0.318305 -3.10473 0
M  V30 9724 N 1133.7 1.56767 -0.161869 0
M  V30 9725 C 1135.11 1.83265 0.356466 0
M  V30 9726 C 1135.46 1.08127 1.63716 0
M  V30 9727 O 1134.59 0.33127 2.13849 0
M  V30 9728 C 1135.18 3.32437 0.653521 0
M  V30 9729 C 1133.74 3.59465 1.11633 0
M  V30 9730 C 1132.89 2.76909 0.147204 0
M  V30 9731 H 1135.84 1.53926 -0.386308 0
M  V30 9732 H 1135.86 3.49401 1.50662 0
M  V30 9733 H 1135.37 3.87098 -0.278766 0
M  V30 9734 H 1133.48 3.10206 2.06404 0
M  V30 9735 H 1133.59 4.67853 1.03202 0
M  V30 9736 H 1131.95 2.46457 0.642739 0
M  V30 9737 H 1132.74 3.34346 -0.778938 0
M  V30 9738 N 1135.18 -0.111886 1.57202 0
M  V30 9739 C 1136.43 -0.817022 1.84412 0
M  V30 9740 C 1136.74 -1.80708 0.748608 0
M  V30 9741 O 1137.95 -2.55891 0.907319 0
M  V30 9742 C 1136.4 -1.50376 3.26979 0
M  V30 9743 C 1136.01 -0.554334 4.44557 0
M  V30 9744 C 1137.76 -2.19361 3.63429 0
M  V30 9745 C 1135.66 -1.24471 5.78153 0
M  V30 9746 H 1134.59 -0.308864 0.687836 0
M  V30 9747 H 1137.24 -0.0698109 1.83367 0
M  V30 9748 H 1135.63 -2.29785 3.22514 0
M  V30 9749 H 1136.8 0.207045 4.60335 0
M  V30 9750 H 1135.12 0.0289261 4.1639 0
M  V30 9751 H 1137.71 -2.71716 4.60515 0
M  V30 9752 H 1138.06 -2.97488 2.91215 0
M  V30 9753 H 1138.59 -1.46833 3.69709 0
M  V30 9754 H 1135.33 -0.504584 6.53555 0
M  V30 9755 H 1134.85 -1.97792 5.66249 0
M  V30 9756 H 1136.53 -1.77591 6.2215 0
M  V30 9757 N 1136.66 -1.52894 -0.382264 0
M  V30 9758 C 1137.91 -1.67933 -1.1244 0
M  V30 9759 C 1138.23 -0.425166 -1.90309 0
M  V30 9760 O 1137.5 0.560557 -1.87709 0
M  V30 9761 H 1136.08 -0.619047 -0.418079 0
M  V30 9762 H 1138.74 -1.90031 -0.432928 0
M  V30 9763 H 1137.84 -2.53285 -1.82355 0
M  V30 9764 N 1138.14 0.641106 -1.43971 0
M  V30 9765 C 1139.55 1.22254 -1.41106 0
M  V30 9766 C 1139.9 1.95825 -0.121284 0
M  V30 9767 O 1139.02 2.01901 0.77879 0
M  V30 9768 C 1139.62 2.22364 -2.55617 0
M  V30 9769 C 1138.18 2.75957 -2.55978 0
M  V30 9770 C 1137.33 1.50792 -2.32717 0
M  V30 9771 H 1140.28 0.432381 -1.52696 0
M  V30 9772 H 1140.3 3.04775 -2.27799 0
M  V30 9773 H 1139.81 1.68789 -3.49474 0
M  V30 9774 H 1137.91 3.33562 -1.66034 0
M  V30 9775 H 1138.02 3.22676 -3.54142 0
M  V30 9776 H 1136.39 1.7857 -1.81617 0
M  V30 9777 H 1137.17 0.991343 -3.28675 0
M  V30 9778 N 1139.62 1.30703 0.880598 0
M  V30 9779 C 1141.03 1.17818 1.4483 0
M  V30 9780 C 1141.38 -0.219456 1.94969 0
M  V30 9781 O 1140.5 -1.11646 1.85375 0
M  V30 9782 C 1141.1 2.13275 2.63247 0
M  V30 9783 C 1139.66 2.04356 3.16094 0
M  V30 9784 C 1138.8 2.03108 1.88792 0
M  V30 9785 H 1141.75 1.42909 0.690125 0
M  V30 9786 H 1141.78 1.71615 3.39601 0
M  V30 9787 H 1141.29 3.14988 2.26725 0
M  V30 9788 H 1139.39 1.058 3.57263 0
M  V30 9789 H 1139.5 2.92953 3.79098 0
M  V30 9790 H 1137.87 1.47971 2.07308 0
M  V30 9791 H 1138.65 3.06558 1.54521 0
M  V30 9792 N 1141.09 -1.09351 1.1349 0
M  V30 9793 C 1142.34 -1.81185 0.89535 0
M  V30 9794 C 1142.66 -1.86173 -0.580048 0
M  V30 9795 O 1141.93 -1.34784 -1.42162 0
M  V30 9796 H 1140.51 -0.671011 0.328257 0
M  V30 9797 H 1143.17 -1.32255 1.43159 0
M  V30 9798 H 1142.27 -2.84339 1.28676 0
M  V30 9799 N 1142.57 -0.928524 -1.27343 0
M  V30 9800 C 1143.98 -0.613856 -1.7632 0
M  V30 9801 C 1144.33 0.870983 -1.75808 0
M  V30 9802 O 1143.46 1.68155 -1.36209 0
M  V30 9803 C 1144.05 -1.10755 -3.20186 0
M  V30 9804 C 1142.61 -0.843532 -3.66826 0
M  V30 9805 C 1141.76 -1.26579 -2.46724 0
M  V30 9806 H 1144.71 -1.10821 -1.13598 0
M  V30 9807 H 1144.73 -0.455598 -3.77763 0
M  V30 9808 H 1144.24 -2.18825 -3.20526 0
M  V30 9809 H 1142.34 0.223334 -3.7193 0
M  V30 9810 H 1142.46 -1.46165 -4.56259 0
M  V30 9811 H 1140.82 -0.684334 -2.45334 0
M  V30 9812 H 1141.6 -2.35516 -2.49774 0
M  V30 9813 N 1144.05 1.41491 -0.694123 0
M  V30 9814 C 1145.01 2.2917 -0.0368562 0
M  V30 9815 C 1146.01 1.44305 0.709426 0
M  V30 9816 O 1147.2 1.6547 0.544533 0
M  V30 9817 C 1144.33 3.27156 0.958201 0
M  V30 9818 H 1145.53 2.88787 -0.808829 0
M  V30 9819 H 1143.08 1.49453 -0.457538 0
M  V30 9820 H 1143.82 2.72516 1.75799 0
M  V30 9821 H 1143.6 3.89776 0.426227 0
M  V30 9822 H 1145.09 3.92863 1.41592 0
M  V30 9823 N 1145.53 0.438773 1.51369 0
M  V30 9824 C 1146.78 -0.126962 2.01701 0
M  V30 9825 C 1147.1 -1.43086 1.32481 0
M  V30 9826 O 1146.37 -1.90427 0.459823 0
M  V30 9827 H 1144.95 -0.0499092 0.745331 0
M  V30 9828 H 1147.61 0.581808 1.86013 0
M  V30 9829 H 1146.7 -0.301836 3.10637 0
M  V30 9830 N 1147.01 -1.56678 0.170181 0
M  V30 9831 C 1147.97 -2.16698 -0.746622 0
M  V30 9832 C 1148.97 -1.11475 -1.15888 0
M  V30 9833 O 1150.16 -1.36994 -1.07602 0
M  V30 9834 C 1147.29 -2.74892 -2.01612 0
M  V30 9835 H 1148.48 -2.99061 -0.224135 0
M  V30 9836 H 1146.04 -1.56098 -0.0793761 0
M  V30 9837 H 1146.77 -1.96259 -2.58172 0
M  V30 9838 H 1146.56 -3.51896 -1.72949 0
M  V30 9839 H 1148.05 -3.21058 -2.67042 0
M  V30 9840 N 1148.48 0.103547 -1.57259 0
M  V30 9841 C 1149.89 0.659006 -1.74683 0
M  V30 9842 C 1150.25 1.79542 -0.791142 0
M  V30 9843 O 1149.37 2.16376 0.0323585 0
M  V30 9844 C 1149.97 1.20222 -3.16752 0
M  V30 9845 C 1148.52 1.70382 -3.35629 0
M  V30 9846 C 1147.67 0.609886 -2.7051 0
M  V30 9847 H 1150.62 -0.122474 -1.58227 0
M  V30 9848 H 1150.64 2.07169 -3.19157 0
M  V30 9849 H 1150.16 0.374901 -3.86285 0
M  V30 9850 H 1148.26 2.55542 -2.71162 0
M  V30 9851 H 1148.37 1.80263 -4.43894 0
M  V30 9852 H 1146.73 1.04728 -2.32173 0
M  V30 9853 H 1147.52 -0.206713 -3.42677 0
M  V30 9854 N 1149.96 1.53094 0.37415 0
M  V30 9855 C 1151.21 1.68527 1.11548 0
M  V30 9856 C 1151.53 0.435253 1.9008 0
M  V30 9857 O 1150.8 -0.550594 1.88003 0
M  V30 9858 H 1149.38 0.621255 0.41479 0
M  V30 9859 H 1152.04 1.90258 0.422844 0
M  V30 9860 H 1151.14 2.54248 1.81009 0
M  V30 9861 N 1151.44 -0.633461 1.44309 0
M  V30 9862 C 1152.72 -1.3917 1.37444 0
M  V30 9863 C 1153.1 -2.11076 0.0319994 0
M  V30 9864 O 1152.44 -2.06164 -0.98533 0
M  V30 9865 C 1152.65 -2.36005 2.57104 0
M  V30 9866 C 1154 -2.99407 3.01065 0
M  V30 9867 O 1155.03 -2.46331 2.57292 0
M  V30 9868 O 1153.89 -3.95686 3.76954 0
M  V30 9869 H 1150.98 -0.622746 0.544166 0
M  V30 9870 H 1153.53 -0.658712 1.56394 0
M  V30 9871 H 1152.3 -1.81955 3.46422 0
M  V30 9872 H 1151.92 -3.16725 2.40356 0
M  V30 9873 N 1152.92 -1.31168 -0.873655 0
M  V30 9874 C 1153.87 -1.18507 -1.98052 0
M  V30 9875 C 1154.84 -0.0717583 -1.65945 0
M  V30 9876 O 1156.02 -0.243965 -1.89234 0
M  V30 9877 C 1153.16 -0.894571 -3.33304 0
M  V30 9878 C 1152.27 -2.09086 -3.7803 0
M  V30 9879 C 1151.41 -1.73747 -5.01982 0
M  V30 9880 C 1150.45 -2.89805 -5.39147 0
M  V30 9881 N 1149.58 -2.54686 -6.54278 0
M  V30 9882 H 1154.42 -2.13193 -2.08213 0
M  V30 9883 H 1151.96 -1.06056 -1.01934 0
M  V30 9884 H 1153.92 -0.706714 -4.11171 0
M  V30 9885 H 1152.55 0.0154449 -3.22796 0
M  V30 9886 H 1151.6 -2.38961 -2.95976 0
M  V30 9887 H 1152.91 -2.95963 -4.01506 0
M  V30 9888 H 1152.07 -1.51402 -5.87505 0
M  V30 9889 H 1150.81 -0.840553 -4.80402 0
M  V30 9890 H 1149.81 -3.12803 -4.52144 0
M  V30 9891 H 1151.04 -3.802 -5.62694 0
M  V30 9892 H 1148.98 -1.67513 -6.34252 0
M  V30 9893 H 1148.9 -3.35093 -6.77679 0
M  V30 9894 H 1150.17 -2.35725 -7.43003 0
M  V30 9895 N 1154.4 1.08748 -1.14068 0
M  V30 9896 C 1155.64 1.80707 -0.904947 0
M  V30 9897 C 1155.97 1.86478 0.570167 0
M  V30 9898 O 1155.24 1.35536 1.41445 0
M  V30 9899 H 1153.82 0.669261 -0.331811 0
M  V30 9900 H 1156.48 1.31494 -1.43859 0
M  V30 9901 H 1155.57 2.83653 -1.30182 0
M  V30 9902 N 1155.87 0.935264 1.26849 0
M  V30 9903 C 1156.78 0.446122 2.30319 0
M  V30 9904 C 1157.8 -0.476965 1.67335 0
M  V30 9905 O 1158.98 -0.357934 1.98194 0
M  V30 9906 C 1156.04 -0.286297 3.45516 0
M  V30 9907 C 1155.1 0.672626 4.23998 0
M  V30 9908 C 1154.34 -0.0249345 5.33694 0
M  V30 9909 O 1154.56 -1.24296 5.56693 0
M  V30 9910 O 1153.49 0.650752 5.98372 0
M  V30 9911 H 1157.32 1.30546 2.74211 0
M  V30 9912 H 1154.9 0.70091 1.31938 0
M  V30 9913 H 1156.79 -0.699109 4.1556 0
M  V30 9914 H 1155.46 -1.12112 3.03665 0
M  V30 9915 H 1154.37 1.13527 3.56458 0
M  V30 9916 H 1155.7 1.47489 4.69583 0
M  V30 9917 N 1157.35 -1.41121 0.701616 0
M  V30 9918 C 1158.58 -2.05973 0.242896 0
M  V30 9919 C 1159 -1.52474 -1.10151 0
M  V30 9920 O 1158.36 -0.654224 -1.69085 0
M  V30 9921 C 1158.41 -3.59943 0.217614 0
M  V30 9922 O 1157.51 -4.04454 -0.805629 0
M  V30 9923 H 1156.85 -0.653581 0.117166 0
M  V30 9924 H 1159.38 -1.80777 0.958175 0
M  V30 9925 H 1159.39 -4.07969 0.0505267 0
M  V30 9926 H 1158.07 -3.98249 1.19877 0
M  V30 9927 H 1156.65 -3.6792 -0.607404 0
M  V30 9928 N 1158.83 -0.446794 -1.51134 0
M  V30 9929 C 1160.08 0.116263 -2.01765 0
M  V30 9930 C 1160.4 1.42382 -1.33238 0
M  V30 9931 O 1159.67 1.9018 -0.469915 0
M  V30 9932 H 1158.25 0.0459558 -0.745585 0
M  V30 9933 H 1160.91 -0.591664 -1.85702 0
M  V30 9934 H 1160.01 0.285358 -3.10793 0
M  V30 9935 N 1160.31 1.56586 -0.178487 0
M  V30 9936 C 1161.72 1.83633 0.337009 0
M  V30 9937 C 1162.07 1.09857 1.6256 0
M  V30 9938 O 1161.2 0.353933 2.13486 0
M  V30 9939 C 1161.79 3.33112 0.618225 0
M  V30 9940 C 1160.35 3.60629 1.07814 0
M  V30 9941 C 1159.5 2.7705 0.117825 0
M  V30 9942 H 1162.45 1.53508 -0.402612 0
M  V30 9943 H 1162.47 3.5098 1.46947 0
M  V30 9944 H 1161.98 3.8678 -0.319808 0
M  V30 9945 H 1160.08 3.12378 2.03103 0
M  V30 9946 H 1160.19 4.68921 0.982339 0
M  V30 9947 H 1158.56 2.47125 0.616563 0
M  V30 9948 H 1159.34 3.33501 -0.814356 0
M  V30 9949 N 1161.79 -0.095206 1.57312 0
M  V30 9950 C 1163.01 -0.81614 1.90667 0
M  V30 9951 C 1163.44 -1.71494 0.772746 0
M  V30 9952 O 1162.79 -1.79192 -0.275682 0
M  V30 9953 C 1162.84 -1.60555 3.22885 0
M  V30 9954 O 1161.95 -2.71448 3.10467 0
M  V30 9955 H 1161.29 -0.224217 0.624998 0
M  V30 9956 H 1163.82 -0.070464 2.04479 0
M  V30 9957 H 1163.83 -1.98979 3.5619 0
M  V30 9958 H 1162.5 -0.945918 4.05 0
M  V30 9959 H 1161.08 -2.36053 2.88675 0
M  V30 9960 N 1163.26 -1.53291 -0.366026 0
M  V30 9961 C 1164.51 -1.69117 -1.10653 0
M  V30 9962 C 1164.83 -0.445327 -1.89847 0
M  V30 9963 O 1164.1 0.540616 -1.88293 0
M  V30 9964 H 1162.68 -0.623446 -0.41149 0
M  V30 9965 H 1165.35 -1.90479 -0.412749 0
M  V30 9966 H 1164.44 -2.55205 -1.79658 0
M  V30 9967 N 1164.74 0.6258 -1.44643 0
M  V30 9968 C 1166.15 1.20751 -1.42394 0
M  V30 9969 C 1166.5 1.95685 -0.142047 0
M  V30 9970 O 1165.63 2.02715 0.757332 0
M  V30 9971 C 1166.22 2.1964 -2.57961 0
M  V30 9972 C 1164.78 2.73227 -2.5889 0
M  V30 9973 C 1163.93 1.48315 -2.34303 0
M  V30 9974 H 1166.88 0.416162 -1.53146 0
M  V30 9975 H 1166.9 3.02342 -2.31019 0
M  V30 9976 H 1166.41 1.65073 -3.51244 0
M  V30 9977 H 1164.52 3.31782 -1.69563 0
M  V30 9978 H 1164.63 3.18902 -3.57545 0
M  V30 9979 H 1162.99 1.76634 -1.83501 0
M  V30 9980 H 1163.78 0.956427 -3.29708 0
M  V30 9981 N 1166.22 1.31629 0.866686 0
M  V30 9982 C 1167.18 1.1951 1.95576 0
M  V30 9983 C 1168.18 0.121319 1.60342 0
M  V30 9984 O 1169.37 0.370832 1.70207 0
M  V30 9985 C 1166.51 0.835201 3.30511 0
M  V30 9986 H 1167.7 2.16285 2.07752 0
M  V30 9987 H 1165.25 1.15288 1.05539 0
M  V30 9988 H 1165.99 -0.131245 3.24034 0
M  V30 9989 H 1165.77 1.61142 3.57457 0
M  V30 9990 H 1167.26 0.774393 4.10357 0
M  V30 9991 N 1167.7 -1.08142 1.14644 0
M  V30 9992 C 1168.95 -1.80225 0.914517 0
M  V30 9993 C 1169.27 -1.86778 -0.560269 0
M  V30 9994 O 1168.54 -1.36284 -1.40724 0
M  V30 9995 H 1167.12 -0.667492 0.335356 0
M  V30 9996 H 1169.78 -1.30729 1.44554 0
M  V30 9997 H 1168.88 -2.82958 1.31685 0
M  V30 9998 N 1169.18 -0.941978 -1.26351 0
M  V30 9999 C 1170.59 -0.632522 -1.75659 0
M  V30 10000 C 1170.94 0.852287 -1.76722 0
M  V30 10001 O 1170.06 1.66701 -1.37985 0
M  V30 10002 C 1170.66 -1.14145 -3.18993 0
M  V30 10003 C 1169.22 -0.882391 -3.65911 0
M  V30 10004 C 1168.37 -1.29189 -2.45368 0
M  V30 10005 H 1171.32 -1.12019 -1.12416 0
M  V30 10006 H 1171.34 -0.495639 -3.77258 0
M  V30 10007 H 1170.85 -2.22213 -3.18187 0
M  V30 10008 H 1168.95 0.183873 -3.72146 0
M  V30 10009 H 1169.06 -1.50996 -4.54683 0
M  V30 10010 H 1167.43 -0.710316 -2.44595 0
M  V30 10011 H 1168.21 -2.38152 -2.47262 0
M  V30 10012 N 1170.66 1.40747 -0.709091 0
M  V30 10013 C 1171.88 2.05319 -0.255258 0
M  V30 10014 C 1172.3 1.53406 1.10054 0
M  V30 10015 O 1171.66 0.687905 1.69039 0
M  V30 10016 C 1171.71 3.60835 -0.219251 0
M  V30 10017 O 1171.43 4.1083 -1.52151 0
M  V30 10018 C 1172.93 4.42572 0.253927 0
M  V30 10019 H 1170.15 0.660904 -0.115959 0
M  V30 10020 H 1172.69 1.80274 -0.965474 0
M  V30 10021 H 1170.85 3.84872 0.441882 0
M  V30 10022 H 1171.26 5.04979 -1.41764 0
M  V30 10023 H 1172.74 5.51529 0.22798 0
M  V30 10024 H 1173.21 4.19673 1.29504 0
M  V30 10025 H 1173.82 4.23629 -0.376694 0
M  V30 10026 N 1172.13 0.454803 1.50895 0
M  V30 10027 C 1173.38 -0.105562 2.01824 0
M  V30 10028 C 1173.7 -1.41673 1.33992 0
M  V30 10029 O 1172.97 -1.89929 0.479994 0
M  V30 10030 H 1171.55 -0.0420011 0.745818 0
M  V30 10031 H 1174.21 0.601504 1.85386 0
M  V30 10032 H 1173.31 -0.268872 3.1094 0
M  V30 10033 N 1173.61 -1.56489 0.186789 0
M  V30 10034 C 1174.57 -2.17478 -0.723596 0
M  V30 10035 C 1175.57 -1.12698 -1.14699 0
M  V30 10036 O 1176.76 -1.38128 -1.06143 0
M  V30 10037 C 1173.9 -2.77015 -1.98685 0
M  V30 10038 H 1175.09 -2.99282 -0.192403 0
M  V30 10039 H 1172.64 -1.56174 -0.0628153 0
M  V30 10040 H 1173.38 -1.98987 -2.56076 0
M  V30 10041 H 1173.16 -3.53711 -1.69207 0
M  V30 10042 H 1174.65 -3.23872 -2.63622 0
M  V30 10043 N 1175.09 0.086862 -1.5736 0
M  V30 10044 C 1176.51 0.441284 -1.53378 0
M  V30 10045 C 1176.71 1.80046 -0.904748 0
M  V30 10046 O 1175.76 2.47484 -0.500781 0
M  V30 10047 C 1177.07 0.3962 -2.98078 0
M  V30 10048 C 1178.62 0.477468 -3.09337 0
M  V30 10049 C 1179.1 0.462448 -4.55659 0
M  V30 10050 N 1180.59 0.522963 -4.60238 0
M  V30 10051 C 1181.32 0.533313 -5.70914 0
M  V30 10052 N 1180.82 0.499376 -6.90998 0
M  V30 10053 N 1182.61 0.578742 -5.59113 0
M  V30 10054 H 1174.76 -0.803308 -1.96623 0
M  V30 10055 H 1177.03 -0.299879 -0.89932 0
M  V30 10056 H 1176.73 -0.535505 -3.47599 0
M  V30 10057 H 1176.61 1.21209 -3.57195 0
M  V30 10058 H 1178.99 1.39959 -2.59799 0
M  V30 10059 H 1179.07 -0.366717 -2.53158 0
M  V30 10060 H 1178.72 -0.455768 -5.05851 0
M  V30 10061 H 1178.65 1.32396 -5.09685 0
M  V30 10062 H 1181.14 0.554051 -3.73816 0
M  V30 10063 H 1181.45 0.510784 -7.7111 0
M  V30 10064 H 1179.8 0.466296 -6.93434 0
M  V30 10065 H 1182.99 0.602841 -4.64202 0
M  V30 10066 H 1183.16 0.583339 -6.45369 0
M  V30 10067 N 1176.57 1.53483 0.357892 0
M  V30 10068 C 1177.82 1.69701 1.09754 0
M  V30 10069 C 1178.14 0.455389 1.89608 0
M  V30 10070 O 1177.41 -0.530623 1.88577 0
M  V30 10071 H 1175.99 0.62562 0.408178 0
M  V30 10072 H 1178.65 1.90696 0.402641 0
M  V30 10073 H 1177.74 2.56154 1.78302 0
M  V30 10074 N 1178.05 -0.61812 1.44973 0
M  V30 10075 C 1179.01 -1.71135 1.52465 0
M  V30 10076 C 1180.01 -1.5561 0.405246 0
M  V30 10077 O 1181.2 -1.60869 0.668351 0
M  V30 10078 C 1178.33 -3.10324 1.41108 0
M  V30 10079 H 1179.52 -1.65862 2.49859 0
M  V30 10080 H 1177.08 -0.832932 1.32257 0
M  V30 10081 H 1177.81 -3.21183 0.448574 0
M  V30 10082 H 1177.6 -3.23001 2.2229 0
M  V30 10083 H 1179.09 -3.89976 1.49361 0
M  V30 10084 N 1179.52 -1.32087 -0.859693 0
M  V30 10085 C 1180.93 -1.20107 -1.42938 0
M  V30 10086 C 1181.29 0.188411 -1.95293 0
M  V30 10087 O 1180.41 1.08683 -1.87128 0
M  V30 10088 C 1181.01 -2.17436 -2.59821 0
M  V30 10089 C 1179.56 -2.09359 -3.12803 0
M  V30 10090 C 1178.71 -2.06086 -1.85537 0
M  V30 10091 H 1181.66 -1.43989 -0.667302 0
M  V30 10092 H 1181.68 -1.76996 -3.36828 0
M  V30 10093 H 1181.2 -3.18555 -2.21685 0
M  V30 10094 H 1179.3 -1.1147 -3.55535 0
M  V30 10095 H 1179.41 -2.98947 -3.74389 0
M  V30 10096 H 1177.77 -1.51251 -2.04928 0
M  V30 10097 H 1178.56 -3.08978 -1.49625 0
M  V30 10098 N 1181 1.07532 -1.15215 0
M  V30 10099 C 1182.25 1.79737 -0.924062 0
M  V30 10100 C 1182.57 1.87072 0.550356 0
M  V30 10101 O 1181.84 1.37029 1.4 0
M  V30 10102 H 1180.42 0.665704 -0.338891 0
M  V30 10103 H 1183.08 1.29961 -1.45245 0
M  V30 10104 H 1182.18 2.82256 -1.33184 0
M  V30 10105 N 1182.48 0.948665 1.2585 0
M  V30 10106 C 1183.76 0.517832 1.88621 0
M  V30 10107 C 1184.14 -1.00477 1.85654 0
M  V30 10108 O 1183.49 -1.868 1.31598 0
M  V30 10109 C 1183.7 1.08768 3.31618 0
M  V30 10110 C 1185.04 1.16089 4.08422 0
M  V30 10111 O 1186.07 1.0388 3.40716 0
M  V30 10112 O 1184.93 1.35172 5.29519 0
M  V30 10113 H 1182.02 0.169916 0.809356 0
M  V30 10114 H 1184.57 1.04171 1.33964 0
M  V30 10115 H 1183.34 2.13109 3.28177 0
M  V30 10116 H 1182.96 0.54669 3.93824 0
M  V30 10117 N 1183.96 -1.40369 0.716545 0
M  V30 10118 C 1185.37 -1.54757 0.390202 0
M  V30 10119 C 1185.57 -1.68767 -1.10091 0
M  V30 10120 O 1184.63 -1.67779 -1.88697 0
M  V30 10121 C 1185.94 -2.77546 1.15709 0
M  V30 10122 C 1187.49 -2.91364 1.14349 0
M  V30 10123 C 1187.97 -4.17068 1.89256 0
M  V30 10124 N 1189.46 -4.2407 1.8633 0
M  V30 10125 C 1190.19 -5.20243 2.41112 0
M  V30 10126 N 1189.69 -6.22318 3.04454 0
M  V30 10127 N 1191.48 -5.12328 2.31249 0
M  V30 10128 H 1183.63 -1.29521 1.68339 0
M  V30 10129 H 1185.9 -0.626382 0.711582 0
M  V30 10130 H 1185.6 -2.73474 2.21144 0
M  V30 10131 H 1185.48 -3.69682 0.749347 0
M  V30 10132 H 1187.86 -2.94939 0.0973383 0
M  V30 10133 H 1187.94 -2.00344 1.59047 0
M  V30 10134 H 1187.59 -4.14255 2.93863 0
M  V30 10135 H 1187.52 -5.07099 1.41978 0
M  V30 10136 H 1190.01 -3.50944 1.40168 0
M  V30 10137 H 1190.32 -6.92129 3.43769 0
M  V30 10138 H 1188.67 -6.22759 3.08538 0
M  V30 10139 H 1191.86 -4.31514 1.8142 0
M  V30 10140 H 1192.03 -5.87107 2.74243 0
M  V30 10141 N 1185.44 -0.462799 -1.50652 0
M  V30 10142 C 1186.68 0.0948568 -2.01877 0
M  V30 10143 C 1187.01 1.4096 -1.34741 0
M  V30 10144 O 1186.28 1.89671 -0.49006 0
M  V30 10145 H 1184.86 0.0380453 -0.746031 0
M  V30 10146 H 1187.52 -0.611327 -1.85064 0
M  V30 10147 H 1186.61 0.252378 -3.11078 0
M  V30 10148 N 1186.91 1.56388 -0.195085 0
M  V30 10149 C 1187.82 2.22698 0.737743 0
M  V30 10150 C 1188.84 1.22605 1.23466 0
M  V30 10151 O 1190.02 1.55342 1.28183 0
M  V30 10152 C 1187.08 2.87333 1.94011 0
M  V30 10153 C 1186.14 4.02696 1.48776 0
M  V30 10154 C 1185.38 4.64239 2.63282 0
M  V30 10155 O 1185.6 4.24706 3.80763 0
M  V30 10156 O 1184.53 5.53705 2.35996 0
M  V30 10157 H 1188.36 3.03021 0.203013 0
M  V30 10158 H 1185.94 1.49361 0.0342044 0
M  V30 10159 H 1187.83 3.28226 2.64284 0
M  V30 10160 H 1186.5 2.0999 2.46345 0
M  V30 10161 H 1185.41 3.66426 0.753839 0
M  V30 10162 H 1186.74 4.81703 1.01109 0
M  V30 10163 N 1188.39 -0.0785156 1.57404 0
M  V30 10164 C 1189.8 -0.631132 1.75709 0
M  V30 10165 C 1190.15 -1.78261 0.819605 0
M  V30 10166 O 1189.28 -2.164 0.00206912 0
M  V30 10167 C 1189.87 -1.15168 3.18625 0
M  V30 10168 C 1188.43 -1.65021 3.38297 0
M  V30 10169 C 1187.58 -0.566773 2.71446 0
M  V30 10170 H 1190.53 0.147631 1.58012 0
M  V30 10171 H 1190.55 -2.02065 3.22413 0
M  V30 10172 H 1190.06 -0.313399 3.86833 0
M  V30 10173 H 1188.17 -2.51196 2.75194 0
M  V30 10174 H 1188.28 -1.73179 4.46706 0
M  V30 10175 H 1186.64 -1.01021 2.33809 0
M  V30 10176 H 1187.43 0.261204 3.42305 0
M  V30 10177 N 1189.87 -1.5367 -0.349747 0
M  V30 10178 C 1191.12 -1.70281 -1.08853 0
M  V30 10179 C 1191.44 -0.465438 -1.89364 0
M  V30 10180 O 1190.71 0.520615 -1.88856 0
M  V30 10181 H 1189.29 -0.627775 -0.404854 0
M  V30 10182 H 1191.95 -1.90906 -0.392523 0
M  V30 10183 H 1191.05 -2.57096 -1.76941 0
M  V30 10184 N 1191.35 0.610423 -1.45298 0
M  V30 10185 C 1192.76 1.19234 -1.43667 0
M  V30 10186 C 1193.11 1.95523 -0.162794 0
M  V30 10187 O 1192.24 2.03507 0.735789 0
M  V30 10188 C 1192.83 2.16892 -2.60276 0
M  V30 10189 C 1191.39 2.70465 -2.61774 0
M  V30 10190 C 1190.54 1.45821 -2.35863 0
M  V30 10191 H 1193.49 0.399895 -1.53579 0
M  V30 10192 H 1193.51 2.99875 -2.34212 0
M  V30 10193 H 1193.02 1.61339 -3.52975 0
M  V30 10194 H 1191.12 3.29965 -1.73072 0
M  V30 10195 H 1191.23 3.15092 -3.60907 0
M  V30 10196 H 1189.6 1.74678 -1.85364 0
M  V30 10197 H 1190.38 0.921403 -3.30704 0
M  V30 10198 N 1192.83 1.32541 0.852676 0
M  V30 10199 C 1194.24 1.20863 1.42299 0
M  V30 10200 C 1194.59 -0.178051 1.9539 0
M  V30 10201 O 1193.71 -1.07689 1.87702 0
M  V30 10202 C 1194.31 2.18811 2.58664 0
M  V30 10203 C 1192.87 2.11015 3.11689 0
M  V30 10204 C 1192.01 2.07067 1.84441 0
M  V30 10205 H 1194.97 1.44341 0.659657 0
M  V30 10206 H 1194.99 1.78779 3.35884 0
M  V30 10207 H 1194.5 3.19726 2.19993 0
M  V30 10208 H 1192.6 1.13354 3.54939 0
M  V30 10209 H 1192.71 3.00929 3.72799 0
M  V30 10210 H 1191.08 1.52335 2.04123 0
M  V30 10211 H 1191.86 3.09767 1.47984 0
M  V30 10212 N 1194.3 -1.0692 1.15784 0
M  V30 10213 C 1195.55 -1.79245 0.933581 0
M  V30 10214 C 1195.87 -1.87362 -0.540427 0
M  V30 10215 O 1195.14 -1.37769 -1.39271 0
M  V30 10216 H 1193.72 -0.663898 0.342416 0
M  V30 10217 H 1196.39 -1.29189 1.45932 0
M  V30 10218 H 1195.48 -2.81546 1.34679 0
M  V30 10219 N 1195.78 -0.955326 -1.25345 0
M  V30 10220 C 1197.19 -0.651118 -1.74978 0
M  V30 10221 C 1197.54 0.833495 -1.77616 0
M  V30 10222 O 1196.67 1.65228 -1.39745 0
M  V30 10223 C 1197.26 -1.17521 -3.17764 0
M  V30 10224 C 1195.82 -0.921151 -3.64954 0
M  V30 10225 C 1194.97 -1.31784 -2.43984 0
M  V30 10226 H 1197.92 -1.13205 -1.11222 0
M  V30 10227 H 1197.94 -0.535625 -3.76711 0
M  V30 10228 H 1197.45 -2.25575 -3.15813 0
M  V30 10229 H 1195.56 0.144392 -3.7232 0
M  V30 10230 H 1195.67 -1.5581 -4.53056 0
M  V30 10231 H 1194.03 -0.736219 -2.43828 0
M  V30 10232 H 1194.82 -2.40761 -2.44723 0
M  V30 10233 N 1197.26 1.39987 -0.723979 0
M  V30 10234 C 1198.22 2.29041 -0.0854583 0
M  V30 10235 C 1199.22 1.45777 0.678657 0
M  V30 10236 O 1200.41 1.66588 0.509311 0
M  V30 10237 C 1197.55 3.29115 0.88859 0
M  V30 10238 H 1198.74 2.87006 -0.869903 0
M  V30 10239 H 1196.29 1.48449 -0.489136 0
M  V30 10240 H 1197.03 2.76184 1.69979 0
M  V30 10241 H 1196.81 3.90593 0.343454 0
M  V30 10242 H 1198.3 3.95778 1.33227 0
M  V30 10243 N 1198.74 0.470782 1.50404 0
M  V30 10244 C 1199.99 -0.0841494 2.01925 0
M  V30 10245 C 1200.31 -1.40244 1.35487 0
M  V30 10246 O 1199.58 -1.89409 0.500111 0
M  V30 10247 H 1198.16 -0.0340884 0.746222 0
M  V30 10248 H 1200.82 0.621133 1.84738 0
M  V30 10249 H 1199.92 -0.235877 3.11207 0
M  V30 10250 N 1200.22 -1.56282 0.203376 0
M  V30 10251 C 1201.46 -1.97812 -0.433202 0
M  V30 10252 C 1201.79 -1.09052 -1.61053 0
M  V30 10253 O 1201.05 -0.131417 -1.95258 0
M  V30 10254 C 1201.35 -3.45148 -0.927759 0
M  V30 10255 C 1201.01 -4.50692 0.137083 0
M  V30 10256 C 1199.67 -4.79278 0.429652 0
M  V30 10257 C 1202.03 -5.14086 0.858174 0
M  V30 10258 C 1199.35 -5.68547 1.44815 0
M  V30 10259 C 1201.71 -6.04457 1.86588 0
M  V30 10260 C 1200.37 -6.31395 2.16556 0
M  V30 10261 H 1199.64 -0.723846 -0.15852 0
M  V30 10262 H 1202.29 -1.89102 0.302082 0
M  V30 10263 H 1200.59 -3.5097 -1.74147 0
M  V30 10264 H 1202.29 -3.74642 -1.42984 0
M  V30 10265 H 1198.88 -4.28481 -0.101111 0
M  V30 10266 H 1203.06 -4.92086 0.645376 0
M  V30 10267 H 1198.32 -5.87689 1.68615 0
M  V30 10268 H 1202.49 -6.52636 2.4298 0
M  V30 10269 H 1200.12 -7.00366 2.9562 0
M  V30 10270 N 1201.7 0.070167 -1.57444 0
M  V30 10271 C 1202.66 1.06761 -2.02817 0
M  V30 10272 C 1203.66 1.31498 -0.925462 0
M  V30 10273 O 1204.85 1.27192 -1.19029 0
M  V30 10274 C 1201.98 2.41086 -2.41019 0
M  V30 10275 H 1203.17 0.67651 -2.9217 0
M  V30 10276 H 1200.73 0.315936 -1.53074 0
M  V30 10277 H 1201.46 2.85025 -1.54697 0
M  V30 10278 H 1201.25 2.24472 -3.21488 0
M  V30 10279 H 1202.74 3.12778 -2.76694 0
M  V30 10280 N 1203.17 1.53854 0.341593 0
M  V30 10281 C 1204.42 1.70856 1.07948 0
M  V30 10282 C 1204.74 0.475474 1.89114 0
M  V30 10283 O 1204.01 -0.510592 1.89129 0
M  V30 10284 H 1202.59 0.629914 0.401519 0
M  V30 10285 H 1205.25 1.91112 0.382393 0
M  V30 10286 H 1204.35 2.5803 1.75575 0
M  V30 10287 N 1204.65 -0.602709 1.4562 0
M  V30 10288 C 1206.06 -1.1847 1.44297 0
M  V30 10289 C 1206.41 -1.95434 0.17316 0
M  V30 10290 O 1205.54 -2.03894 -0.724986 0
M  V30 10291 C 1206.13 -2.15508 2.61422 0
M  V30 10292 C 1204.69 -2.69073 2.63204 0
M  V30 10293 C 1203.84 -1.44568 2.36633 0
M  V30 10294 H 1206.79 -0.391745 1.53789 0
M  V30 10295 H 1206.81 -2.98628 2.35799 0
M  V30 10296 H 1206.32 -1.59464 3.53826 0
M  V30 10297 H 1204.42 -3.29042 1.7482 0
M  V30 10298 H 1204.54 -3.13173 3.62573 0
M  V30 10299 H 1202.9 -1.73692 1.86287 0
M  V30 10300 H 1203.68 -0.903852 3.31188 0
M  V30 10301 N 1206.13 -1.32992 -0.845635 0
M  V30 10302 C 1207.54 -1.21616 -1.41656 0
M  V30 10303 C 1207.89 0.167687 -1.95482 0
M  V30 10304 O 1207.02 1.06692 -1.8827 0
M  V30 10305 C 1207.61 -2.2018 -2.575 0
M  V30 10306 C 1206.17 -2.12664 -3.10565 0
M  V30 10307 C 1205.32 -2.08042 -1.83341 0
M  V30 10308 H 1208.27 -1.44688 -0.651993 0
M  V30 10309 H 1208.29 -1.80558 -3.34931 0
M  V30 10310 H 1207.8 -3.20888 -2.18294 0
M  V30 10311 H 1205.9 -1.15235 -3.54333 0
M  V30 10312 H 1206.02 -3.02902 -3.71197 0
M  V30 10313 H 1204.38 -1.53416 -2.03312 0
M  V30 10314 H 1205.16 -3.10547 -1.46339 0
M  V30 10315 N 1207.61 1.06304 -1.1635 0
M  V30 10316 C 1208.86 1.78747 -0.943074 0
M  V30 10317 C 1209.18 1.87646 0.530483 0
M  V30 10318 O 1208.45 1.38506 1.38538 0
M  V30 10319 H 1207.03 0.662072 -0.345932 0
M  V30 10320 H 1209.69 1.28413 -1.46615 0
M  V30 10321 H 1208.78 2.80828 -1.3617 0
M  V30 10322 N 1209.09 0.96196 1.24836 0
M  V30 10323 C 1210.05 0.492443 2.23847 0
M  V30 10324 C 1211.05 -0.40788 1.55541 0
M  V30 10325 O 1212.24 -0.204143 1.73 0
M  V30 10326 C 1209.37 -0.287578 3.39685 0
M  V30 10327 H 1210.56 1.36767 2.66899 0
M  V30 10328 H 1208.12 0.745967 1.3735 0
M  V30 10329 H 1208.85 -1.18015 3.02064 0
M  V30 10330 H 1208.64 0.358431 3.90458 0
M  V30 10331 H 1210.13 -0.605297 4.1319 0
M  V30 10332 N 1210.56 -1.39601 0.731392 0
M  V30 10333 C 1211.84 -1.94531 0.20422 0
M  V30 10334 C 1212.22 -1.66845 -1.29329 0
M  V30 10335 O 1211.57 -0.994706 -2.05713 0
M  V30 10336 C 1211.78 -3.44891 0.53395 0
M  V30 10337 C 1213.13 -4.21863 0.481298 0
M  V30 10338 O 1214.15 -3.53073 0.470929 0
M  V30 10339 O 1213.01 -5.44452 0.472663 0
M  V30 10340 H 1210.1 -0.826214 0.0360436 0
M  V30 10341 H 1212.65 -1.49121 0.810005 0
M  V30 10342 H 1211.42 -3.58463 1.56907 0
M  V30 10343 H 1211.04 -3.97472 -0.10099 0
M  V30 10344 N 1212.04 -0.478751 -1.50152 0
M  V30 10345 C 1213.29 0.0734397 -2.01967 0
M  V30 10346 C 1213.61 1.39523 -1.36229 0
M  V30 10347 O 1212.88 1.89141 -0.510149 0
M  V30 10348 H 1211.46 0.0301305 -0.746392 0
M  V30 10349 H 1214.12 -0.630921 -1.84406 0
M  V30 10350 H 1213.22 0.21937 -3.11328 0
M  V30 10351 N 1213.52 1.56172 -0.211661 0
M  V30 10352 C 1214.45 2.17107 0.734657 0
M  V30 10353 C 1215.47 1.1374 1.16478 0
M  V30 10354 O 1216.65 1.40763 1.09764 0
M  V30 10355 C 1213.75 2.73182 2.00561 0
M  V30 10356 C 1212.93 4.0162 1.73264 0
M  V30 10357 C 1211.99 4.42357 2.84968 0
M  V30 10358 O 1211.01 5.09453 2.53863 0
M  V30 10359 N 1212.21 4.07223 4.13702 0
M  V30 10360 H 1214.98 2.98939 0.213475 0
M  V30 10361 H 1212.54 1.61872 -0.0302898 0
M  V30 10362 H 1214.53 2.97411 2.74461 0
M  V30 10363 H 1213.1 1.9571 2.43754 0
M  V30 10364 H 1212.32 3.85351 0.830575 0
M  V30 10365 H 1213.61 4.85426 1.52445 0
M  V30 10366 H 1213.01 3.53286 4.4182 0
M  V30 10367 H 1211.57 4.36366 4.84178 0
M  V30 10368 N 1215 -0.0618163 1.57479 0
M  V30 10369 C 1216.41 -0.612461 1.76368 0
M  V30 10370 C 1216.76 -1.77381 0.838466 0
M  V30 10371 O 1215.89 -2.16386 0.0250211 0
M  V30 10372 C 1216.48 -1.11782 3.19829 0
M  V30 10373 C 1215.04 -1.61424 3.40028 0
M  V30 10374 C 1214.19 -0.53795 2.72032 0
M  V30 10375 H 1217.14 0.164382 1.57846 0
M  V30 10376 H 1217.16 -1.98634 3.24538 0
M  V30 10377 H 1216.67 -0.272353 3.87143 0
M  V30 10378 H 1214.77 -2.48263 2.77842 0
M  V30 10379 H 1214.88 -1.68431 4.48517 0
M  V30 10380 H 1213.25 -0.985355 2.34868 0
M  V30 10381 H 1214.03 0.297495 3.42009 0
M  V30 10382 N 1216.48 -1.54033 -0.333429 0
M  V30 10383 C 1217.72 -1.71426 -1.0704 0
M  V30 10384 C 1218.05 -0.485496 -1.8886 0
M  V30 10385 O 1217.32 0.500555 -1.89397 0
M  V30 10386 H 1215.9 -0.632034 -0.398173 0
M  V30 10387 H 1218.56 -1.91312 -0.372252 0
M  V30 10388 H 1217.65 -2.58958 -1.74205 0
M  V30 10389 N 1217.95 0.594978 -1.45938 0
M  V30 10390 C 1218.92 1.68688 -1.55168 0
M  V30 10391 C 1219.92 1.54945 -0.429951 0
M  V30 10392 O 1221.11 1.59785 -0.693859 0
M  V30 10393 C 1218.24 3.0804 -1.46027 0
M  V30 10394 H 1219.43 1.61866 -2.52467 0
M  V30 10395 H 1216.99 0.811785 -1.33565 0
M  V30 10396 H 1217.72 3.20428 -0.499614 0
M  V30 10397 H 1217.51 3.19423 -2.27401 0
M  V30 10398 H 1219 3.8755 -1.55546 0
M  V30 10399 N 1219.43 1.33438 0.838571 0
M  V30 10400 C 1220.38 1.23717 1.94841 0
M  V30 10401 C 1221.35 0.11573 1.65696 0
M  V30 10402 O 1222.53 0.294051 1.8852 0
M  V30 10403 C 1219.67 0.982626 3.30815 0
M  V30 10404 C 1218.79 2.19036 3.72354 0
M  V30 10405 C 1217.92 1.86995 4.97199 0
M  V30 10406 C 1216.96 3.03998 5.31274 0
M  V30 10407 N 1216.1 2.71943 6.47295 0
M  V30 10408 H 1220.94 2.18639 2.02487 0
M  V30 10409 H 1218.48 1.08721 0.990861 0
M  V30 10410 H 1220.43 0.81548 4.09152 0
M  V30 10411 H 1219.06 0.0701443 3.22724 0
M  V30 10412 H 1218.12 2.46724 2.89537 0
M  V30 10413 H 1219.43 3.06505 3.93518 0
M  V30 10414 H 1218.58 1.66925 5.83285 0
M  V30 10415 H 1217.32 0.967628 4.78004 0
M  V30 10416 H 1216.33 3.24681 4.43692 0
M  V30 10417 H 1217.55 3.94985 5.52416 0
M  V30 10418 H 1215.5 1.8427 6.29588 0
M  V30 10419 H 1215.41 3.52943 6.68556 0
M  V30 10420 H 1216.68 2.55342 7.36492 0
M  V30 10421 N 1220.91 -1.05686 1.16912 0
M  V30 10422 C 1222.16 -1.78244 0.95254 0
M  V30 10423 C 1222.48 -1.87924 -0.520525 0
M  V30 10424 O 1221.75 -1.39239 -1.37802 0
M  V30 10425 H 1220.33 -0.660228 0.349439 0
M  V30 10426 H 1222.99 -1.27634 1.47294 0
M  V30 10427 H 1222.09 -2.80102 1.37657 0
M  V30 10428 N 1222.39 -0.968567 -1.24324 0
M  V30 10429 C 1223.3 -0.50703 -2.29055 0
M  V30 10430 C 1224.31 0.432431 -1.68541 0
M  V30 10431 O 1225.49 0.30526 -1.99073 0
M  V30 10432 C 1222.56 0.194589 -3.46153 0
M  V30 10433 C 1221.62 -0.784805 -4.22066 0
M  V30 10434 C 1220.85 -0.116574 -5.33573 0
M  V30 10435 O 1221.07 1.09492 -5.59792 0
M  V30 10436 O 1220.01 -0.809171 -5.96436 0
M  V30 10437 H 1223.83 -1.3777 -2.70653 0
M  V30 10438 H 1221.42 -0.735645 -1.30033 0
M  V30 10439 H 1223.3 0.588684 -4.17268 0
M  V30 10440 H 1221.97 1.04021 -3.06531 0
M  V30 10441 H 1220.88 -1.22938 -3.53323 0
M  V30 10442 H 1222.21 -1.59887 -4.65507 0
M  V30 10443 N 1223.87 1.39211 -0.738786 0
M  V30 10444 C 1225.28 1.83237 -0.357916 0
M  V30 10445 C 1225.63 1.61698 1.11123 0
M  V30 10446 O 1224.75 1.11017 1.85753 0
M  V30 10447 C 1225.35 3.32645 -0.64285 0
M  V30 10448 C 1223.91 3.75076 -0.315432 0
M  V30 10449 C 1223.05 2.62166 -0.903556 0
M  V30 10450 H 1226.01 1.2815 -0.936127 0
M  V30 10451 H 1226.03 3.80407 0.0840812 0
M  V30 10452 H 1225.54 3.4829 -1.71218 0
M  V30 10453 H 1223.64 3.65017 0.747907 0
M  V30 10454 H 1223.75 4.72363 -0.800638 0
M  V30 10455 H 1222.12 2.52554 -0.329927 0
M  V30 10456 H 1222.9 2.80616 -1.97761 0
M  V30 10457 N 1225.34 0.486708 1.49896 0
M  V30 10458 C 1226.59 -0.0627279 2.02003 0
M  V30 10459 C 1226.91 -1.38799 1.36967 0
M  V30 10460 O 1226.18 -1.88868 0.520173 0
M  V30 10461 H 1224.76 -0.0261718 0.746541 0
M  V30 10462 H 1227.43 0.640692 1.84068 0
M  V30 10463 H 1226.52 -0.202856 3.1144 0
M  V30 10464 N 1226.82 -1.56058 0.219941 0
M  V30 10465 C 1228.1 -1.90087 -0.46112 0
M  V30 10466 C 1228.48 -1.13705 -1.77861 0
M  V30 10467 O 1227.83 -0.245868 -2.27173 0
M  V30 10468 C 1228.04 -3.42786 -0.655644 0
M  V30 10469 C 1229.39 -4.13517 -0.963803 0
M  V30 10470 O 1230.41 -3.48376 -0.742488 0
M  V30 10471 O 1229.27 -5.28692 -1.38374 0
M  V30 10472 H 1226.36 -0.790311 -0.243595 0
M  V30 10473 H 1228.91 -1.67665 0.262005 0
M  V30 10474 H 1227.68 -3.90341 0.273738 0
M  V30 10475 H 1227.3 -3.70982 -1.43032 0
M  V30 10476 N 1228.3 0.053464 -1.57509 0
M  V30 10477 C 1229.26 1.04604 -2.03938 0
M  V30 10478 C 1230.26 1.30509 -0.939357 0
M  V30 10479 O 1231.45 1.25922 -1.20371 0
M  V30 10480 C 1228.59 2.38516 -2.43563 0
M  V30 10481 H 1229.78 0.645484 -2.92871 0
M  V30 10482 H 1227.33 0.299683 -1.534 0
M  V30 10483 H 1228.07 2.83368 -1.57712 0
M  V30 10484 H 1227.85 2.2105 -3.23851 0
M  V30 10485 H 1229.34 3.09826 -2.79996 0
M  V30 10486 N 1229.78 1.54207 0.325255 0
M  V30 10487 C 1231.03 1.71991 1.0613 0
M  V30 10488 C 1231.35 0.495505 1.88599 0
M  V30 10489 O 1230.62 -0.490504 1.8966 0
M  V30 10490 H 1229.2 0.634137 0.394816 0
M  V30 10491 H 1231.86 1.91507 0.362101 0
M  V30 10492 H 1230.96 2.59878 1.72829 0
M  V30 10493 N 1231.26 -0.58723 1.46251 0
M  V30 10494 C 1232.22 -1.67863 1.5606 0
M  V30 10495 C 1233.22 -1.54715 0.438162 0
M  V30 10496 O 1234.41 -1.59415 0.702323 0
M  V30 10497 C 1231.54 -3.07262 1.47659 0
M  V30 10498 H 1232.74 -1.60525 2.53321 0
M  V30 10499 H 1230.29 -0.804691 1.33994 0
M  V30 10500 H 1231.02 -3.20159 0.5166 0
M  V30 10501 H 1230.81 -3.18213 2.29092 0
M  V30 10502 H 1232.3 -3.8672 1.57599 0
M  V30 10503 N 1232.74 -1.33881 -0.831482 0
M  V30 10504 C 1233.68 -1.24748 -1.94182 0
M  V30 10505 C 1234.65 -0.124516 -1.65633 0
M  V30 10506 O 1235.84 -0.304045 -1.88362 0
M  V30 10507 C 1232.98 -1.00016 -3.30289 0
M  V30 10508 C 1232.09 -2.21007 -3.71187 0
M  V30 10509 C 1231.23 -1.89629 -4.962 0
M  V30 10510 C 1230.26 -3.06811 -5.29654 0
M  V30 10511 N 1229.4 -2.75372 -6.45844 0
M  V30 10512 H 1234.24 -2.19709 -2.01325 0
M  V30 10513 H 1231.78 -1.09245 -0.985081 0
M  V30 10514 H 1233.74 -0.837167 -4.08714 0
M  V30 10515 H 1232.37 -0.0872582 -3.22682 0
M  V30 10516 H 1231.42 -2.48256 -2.88224 0
M  V30 10517 H 1232.73 -3.08587 -3.91887 0
M  V30 10518 H 1231.88 -1.70016 -5.82391 0
M  V30 10519 H 1230.62 -0.992964 -4.77485 0
M  V30 10520 H 1229.63 -3.27029 -4.41964 0
M  V30 10521 H 1230.85 -3.97909 -5.50314 0
M  V30 10522 H 1228.8 -1.87607 -6.28601 0
M  V30 10523 H 1228.72 -3.56483 -6.66675 0
M  V30 10524 H 1229.98 -2.59244 -7.35128 0
M  V30 10525 N 1234.21 1.05064 -1.1747 0
M  V30 10526 C 1235.46 1.77737 -0.961979 0
M  V30 10527 C 1235.78 1.88198 0.510551 0
M  V30 10528 O 1235.05 1.39968 1.37062 0
M  V30 10529 H 1233.63 0.658366 -0.352935 0
M  V30 10530 H 1236.29 1.26851 -1.47969 0
M  V30 10531 H 1235.39 2.79368 -1.39141 0
M  V30 10532 N 1235.69 0.975146 1.23809 0
M  V30 10533 C 1236.97 0.557725 1.8748 0
M  V30 10534 C 1237.35 -0.965164 1.87744 0
M  V30 10535 O 1236.7 -1.83966 1.35531 0
M  V30 10536 C 1236.91 1.15777 3.29236 0
M  V30 10537 C 1238.25 1.24726 4.05868 0
M  V30 10538 O 1239.28 1.11084 3.38436 0
M  V30 10539 O 1238.14 1.46373 5.26533 0
M  V30 10540 H 1235.23 0.187045 0.80557 0
M  V30 10541 H 1237.78 1.06989 1.31725 0
M  V30 10542 H 1236.55 2.20023 3.23583 0
M  V30 10543 H 1236.17 0.630103 3.92575 0
M  V30 10544 N 1237.17 -1.38817 0.746158 0
M  V30 10545 C 1238.13 -2.28876 0.121886 0
M  V30 10546 C 1239.13 -1.46838 -0.655379 0
M  V30 10547 O 1240.32 -1.67377 -0.482744 0
M  V30 10548 C 1237.45 -3.30487 -0.836118 0
M  V30 10549 H 1238.65 -2.85586 0.915453 0
M  V30 10550 H 1236.2 -1.47652 0.512691 0
M  V30 10551 H 1236.94 -2.78853 -1.65563 0
M  V30 10552 H 1236.72 -3.9109 -0.281271 0
M  V30 10553 H 1238.21 -3.97848 -1.26914 0
M  V30 10554 N 1238.65 -0.49465 -1.49636 0
M  V30 10555 C 1239.9 0.0520143 -2.02033 0
M  V30 10556 C 1240.22 1.38071 -1.37701 0
M  V30 10557 O 1239.49 1.88589 -0.530181 0
M  V30 10558 H 1238.07 0.0222123 -0.74667 0
M  V30 10559 H 1240.73 -0.650445 -1.83726 0
M  V30 10560 H 1239.82 0.186337 -3.11543 0
M  V30 10561 N 1240.13 1.55939 -0.228214 0
M  V30 10562 C 1241.54 1.84612 0.278417 0
M  V30 10563 C 1241.89 1.14973 1.58983 0
M  V30 10564 O 1241.01 0.421673 2.12252 0
M  V30 10565 C 1241.61 3.3491 0.511935 0
M  V30 10566 C 1240.17 3.63876 0.962861 0
M  V30 10567 C 1239.31 2.77284 0.0296246 0
M  V30 10568 H 1242.26 1.52149 -0.451245 0
M  V30 10569 H 1242.29 3.55477 1.35707 0
M  V30 10570 H 1241.8 3.85567 -0.442697 0
M  V30 10571 H 1239.9 3.18682 1.93062 0
M  V30 10572 H 1240.01 4.71809 0.832659 0
M  V30 10573 H 1238.38 2.48961 0.53763 0
M  V30 10574 H 1239.16 3.30742 -0.920044 0
M  V30 10575 N 1241.6 -0.0451101 1.57535 0
M  V30 10576 C 1243.02 -0.59372 1.77008 0
M  V30 10577 C 1243.37 -1.76482 0.857233 0
M  V30 10578 O 1242.49 -2.16347 0.0479703 0
M  V30 10579 C 1243.09 -1.08383 3.20996 0
M  V30 10580 C 1241.65 -1.57808 3.41721 0
M  V30 10581 C 1240.79 -0.509067 2.72587 0
M  V30 10582 H 1243.74 0.181114 1.57663 0
M  V30 10583 H 1243.76 -1.95181 3.26626 0
M  V30 10584 H 1243.28 -0.231276 3.8741 0
M  V30 10585 H 1241.38 -2.45302 2.8046 0
M  V30 10586 H 1241.49 -1.63664 4.50279 0
M  V30 10587 H 1239.85 -0.960389 2.359 0
M  V30 10588 H 1240.64 0.333753 3.41674 0
M  V30 10589 N 1243.08 -1.54377 -0.317073 0
M  V30 10590 C 1244.33 -1.72551 -1.05216 0
M  V30 10591 C 1244.65 -0.5055 -1.88334 0
M  V30 10592 O 1243.92 0.480439 -1.89917 0
M  V30 10593 H 1242.5 -0.636222 -0.391447 0
M  V30 10594 H 1245.16 -1.91696 -0.35194 0
M  V30 10595 H 1244.26 -2.60791 -1.71448 0
M  V30 10596 N 1244.56 0.579466 -1.4656 0
M  V30 10597 C 1245.97 1.1616 -1.46164 0
M  V30 10598 C 1246.32 1.95134 -0.20423 0
M  V30 10599 O 1245.45 2.05022 0.692457 0
M  V30 10600 C 1246.04 2.11322 -2.64818 0
M  V30 10601 C 1244.6 2.64852 -2.67452 0
M  V30 10602 C 1243.75 1.40786 -2.38903 0
M  V30 10603 H 1246.7 0.367229 -1.54393 0
M  V30 10604 H 1246.72 2.94839 -2.4052 0
M  V30 10605 H 1246.23 1.53815 -3.56318 0
M  V30 10606 H 1244.33 3.26219 -1.80032 0
M  V30 10607 H 1244.45 3.07366 -3.67509 0
M  V30 10608 H 1242.81 1.70707 -1.89027 0
M  V30 10609 H 1243.59 0.851049 -3.32584 0
M  V30 10610 N 1246.04 1.3432 0.824371 0
M  V30 10611 C 1247 1.25672 1.91675 0
M  V30 10612 C 1248 0.172269 1.59875 0
M  V30 10613 O 1249.19 0.424794 1.68941 0
M  V30 10614 C 1246.32 0.939928 3.27686 0
M  V30 10615 H 1247.52 2.22785 2.00766 0
M  V30 10616 H 1245.07 1.18587 1.01817 0
M  V30 10617 H 1245.8 -0.0280898 3.24288 0
M  V30 10618 H 1245.59 1.72432 3.5215 0
M  V30 10619 H 1247.08 0.904553 4.07686 0
M  V30 10620 N 1247.52 -1.0444 1.18026 0
M  V30 10621 C 1248.76 -1.77224 0.971391 0
M  V30 10622 C 1249.09 -1.88466 -0.500564 0
M  V30 10623 O 1248.36 -1.40692 -1.36317 0
M  V30 10624 H 1246.94 -0.656485 0.356422 0
M  V30 10625 H 1249.6 -1.26064 1.4864 0
M  V30 10626 H 1248.69 -2.78626 1.4062 0
M  V30 10627 N 1248.99 -0.981699 -1.2329 0
M  V30 10628 C 1250.41 -0.688087 -1.73558 0
M  V30 10629 C 1250.76 0.795633 -1.79344 0
M  V30 10630 O 1249.88 1.62227 -1.43218 0
M  V30 10631 C 1250.48 -1.24235 -3.152 0
M  V30 10632 C 1249.04 -0.998356 -3.62918 0
M  V30 10633 C 1248.18 -1.3693 -2.41134 0
M  V30 10634 H 1251.13 -1.15539 -1.08795 0
M  V30 10635 H 1251.15 -0.61541 -3.7549 0
M  V30 10636 H 1250.67 -2.32223 -3.10957 0
M  V30 10637 H 1248.77 0.0653847 -3.72543 0
M  V30 10638 H 1248.88 -1.65385 -4.49649 0
M  V30 10639 H 1247.24 -0.787773 -2.42211 0
M  V30 10640 H 1248.03 -2.45898 -2.39561 0
M  V30 10641 N 1250.47 1.3842 -0.753509 0
M  V30 10642 C 1251.44 2.28808 -0.134022 0
M  V30 10643 C 1252.44 1.47184 0.647583 0
M  V30 10644 O 1253.63 1.67631 0.473861 0
M  V30 10645 C 1250.76 3.30926 0.81858 0
M  V30 10646 H 1251.95 2.85097 -0.930586 0
M  V30 10647 H 1249.5 1.47378 -0.520514 0
M  V30 10648 H 1250.24 2.79728 1.64082 0
M  V30 10649 H 1250.02 3.91234 0.260526 0
M  V30 10650 H 1251.51 3.98515 1.24802 0
M  V30 10651 N 1251.95 0.502579 1.49372 0
M  V30 10652 C 1253.2 -0.0412993 2.02058 0
M  V30 10653 C 1253.52 -1.37338 1.38431 0
M  V30 10654 O 1252.79 -1.88305 0.540175 0
M  V30 10655 H 1251.37 -0.0182522 0.746777 0
M  V30 10656 H 1254.03 0.660179 1.83378 0
M  V30 10657 H 1253.13 -0.169812 3.11638 0
M  V30 10658 N 1253.43 -1.55816 0.23648 0
M  V30 10659 C 1254.84 -1.84757 -0.268622 0
M  V30 10660 C 1255.19 -1.15815 -1.58371 0
M  V30 10661 O 1254.32 -0.432923 -2.12025 0
M  V30 10662 C 1254.91 -3.35177 -0.494167 0
M  V30 10663 C 1253.47 -3.64382 -0.943551 0
M  V30 10664 C 1252.62 -2.77296 -0.0149191 0
M  V30 10665 H 1255.57 -1.51908 0.459308 0
M  V30 10666 H 1255.59 -3.56192 -1.3382 0
M  V30 10667 H 1255.1 -3.85327 0.463138 0
M  V30 10668 H 1253.2 -3.19701 -1.91369 0
M  V30 10669 H 1253.31 -4.72244 -0.807626 0
M  V30 10670 H 1251.68 -2.49243 -0.524419 0
M  V30 10671 H 1252.46 -3.30249 0.937571 0
M  V30 10672 N 1254.91 0.036755 -1.57557 0
M  V30 10673 C 1256.32 0.584324 -1.7732 0
M  V30 10674 C 1256.67 1.76025 -0.86658 0
M  V30 10675 O 1255.79 2.16318 -0.059443 0
M  V30 10676 C 1256.39 1.06679 -3.21566 0
M  V30 10677 C 1254.95 1.55994 -3.42553 0
M  V30 10678 C 1254.09 0.494604 -2.72853 0
M  V30 10679 H 1257.05 -0.189473 -1.57565 0
M  V30 10680 H 1257.07 1.93446 -3.27657 0
M  V30 10681 H 1256.58 0.210727 -3.87527 0
M  V30 10682 H 1254.68 2.43811 -2.81757 0
M  V30 10683 H 1254.79 1.61274 -4.5114 0
M  V30 10684 H 1253.16 0.947865 -2.36406 0
M  V30 10685 H 1253.94 -0.351868 -3.41492 0
M  V30 10686 N 1256.39 1.54543 0.308881 0
M  V30 10687 C 1257.63 1.73107 1.043 0
M  V30 10688 C 1257.95 0.515481 1.88063 0
M  V30 10689 O 1257.22 -0.47036 1.90169 0
M  V30 10690 H 1255.8 0.638289 0.388068 0
M  V30 10691 H 1258.47 1.9188 0.341769 0
M  V30 10692 H 1257.56 2.61697 1.70063 0
M  V30 10693 N 1257.86 -0.571685 1.46866 0
M  V30 10694 C 1259.27 -1.15383 1.46778 0
M  V30 10695 C 1259.63 -1.95023 0.214576 0
M  V30 10696 O 1258.75 -2.05386 -0.681574 0
M  V30 10697 C 1259.35 -2.09915 2.65935 0
M  V30 10698 C 1257.9 -2.6343 2.68852 0
M  V30 10699 C 1257.05 -1.39517 2.39646 0
M  V30 10700 H 1260 -0.359036 1.54585 0
M  V30 10701 H 1260.02 -2.9356 2.42081 0
M  V30 10702 H 1259.54 -1.51923 3.57129 0
M  V30 10703 H 1257.64 -3.2526 1.8176 0
M  V30 10704 H 1257.75 -3.05412 3.69134 0
M  V30 10705 H 1256.11 -1.69702 1.8993 0
M  V30 10706 H 1256.9 -0.833399 3.33031 0
M  V30 10707 N 1259.34 -1.34755 -0.817236 0
M  V30 10708 C 1260.59 -1.26771 -1.56882 0
M  V30 10709 C 1260.9 0.158962 -1.94953 0
M  V30 10710 O 1262.11 0.360996 -2.69089 0
M  V30 10711 C 1260.57 -2.22261 -2.83069 0
M  V30 10712 C 1260.17 -3.70216 -2.52277 0
M  V30 10713 C 1261.92 -2.23197 -3.61086 0
M  V30 10714 C 1259.82 -4.57559 -3.74691 0
M  V30 10715 H 1258.75 -0.470961 -0.588822 0
M  V30 10716 H 1261.41 -1.59955 -0.899254 0
M  V30 10717 H 1259.79 -1.82036 -3.5168 0
M  V30 10718 H 1260.96 -4.19014 -1.9174 0
M  V30 10719 H 1259.28 -3.71784 -1.87525 0
M  V30 10720 H 1261.87 -2.85673 -4.5199 0
M  V30 10721 H 1262.22 -1.2328 -3.97628 0
M  V30 10722 H 1262.75 -2.61897 -2.99424 0
M  V30 10723 H 1259.49 -5.58434 -3.43267 0
M  V30 10724 H 1259.01 -4.13494 -4.34491 0
M  V30 10725 H 1260.69 -4.72451 -4.42039 0
M  V30 10726 N 1260.82 1.03812 -1.18578 0
M  V30 10727 C 1262.07 1.76706 -0.980776 0
M  V30 10728 C 1262.39 1.88729 0.490562 0
M  V30 10729 O 1261.66 1.41413 1.35569 0
M  V30 10730 H 1260.24 0.654586 -0.359898 0
M  V30 10731 H 1262.9 1.25274 -1.49306 0
M  V30 10732 H 1262 2.77876 -1.42096 0
M  V30 10733 N 1262.3 0.988223 1.22768 0
M  V30 10734 C 1263.25 0.527454 2.26541 0
M  V30 10735 C 1264.24 -0.419506 1.64123 0
M  V30 10736 O 1265.45 -0.292539 1.77607 0
M  V30 10737 H 1261.82 0.152165 0.736444 0
M  V30 10738 H 1263.79 1.41422 2.62759 0
M  V30 10739 C 1262.54 -0.146845 3.4739 0
M  V30 10740 H 1261.86 0.572752 3.95676 0
M  V30 10741 H 1263.3 -0.432768 4.21786 0
M  V30 10742 C 1261.76 -1.38065 3.0731 0
M  V30 10743 O 1262.29 -2.47634 3.16291 0
M  V30 10744 N 1260.5 -1.25418 2.62143 0
M  V30 10745 H 1260.05 -0.362641 2.55035 0
M  V30 10746 H 1260 -2.08077 2.35694 0
M  V30 10747 N 1263.78 -1.38018 0.760839 0
M  V30 10748 C 1265.02 -2.00248 0.320716 0
M  V30 10749 C 1265.35 -1.60259 -1.09684 0
M  V30 10750 O 1264.63 -0.843567 -1.75255 0
M  V30 10751 C 1264.91 -3.57254 0.451849 0
M  V30 10752 C 1264.77 -4.07185 1.91103 0
M  V30 10753 C 1266.08 -4.39843 -0.150439 0
M  V30 10754 H 1263.2 -0.727491 0.118007 0
M  V30 10755 H 1265.85 -1.63855 0.961842 0
M  V30 10756 H 1264 -3.88386 -0.0939672 0
M  V30 10757 H 1265.67 -3.86665 2.51571 0
M  V30 10758 H 1263.91 -3.59782 2.42362 0
M  V30 10759 H 1264.58 -5.16262 1.9539 0
M  V30 10760 H 1267.06 -4.14905 0.315145 0
M  V30 10761 H 1265.93 -5.48893 -0.0284853 0
M  V30 10762 H 1266.19 -4.24367 -1.23956 0
M  V30 10763 N 1265.25 -0.510493 -1.49103 0
M  V30 10764 C 1266.5 0.0305831 -2.02077 0
M  V30 10765 C 1266.82 1.36602 -1.39157 0
M  V30 10766 O 1266.09 1.88016 -0.550154 0
M  V30 10767 H 1264.67 0.0142916 -0.746863 0
M  V30 10768 H 1267.33 -0.669895 -1.83026 0
M  V30 10769 H 1266.43 0.153283 -3.11723 0
M  V30 10770 N 1266.73 1.55688 -0.24474 0
M  V30 10771 C 1267.69 2.20014 0.642382 0
M  V30 10772 C 1268.69 1.16877 1.10437 0
M  V30 10773 O 1269.88 1.41972 1.00943 0
M  V30 10774 C 1267.02 2.84198 1.88267 0
M  V30 10775 H 1268.21 2.9979 0.0811937 0
M  V30 10776 H 1265.76 1.56299 0.00480917 0
M  V30 10777 H 1266.5 2.08354 2.48514 0
M  V30 10778 H 1266.28 3.59747 1.55963 0
M  V30 10779 H 1267.77 3.33434 2.5142 0
M  V30 10780 N 1268.21 -0.0283989 1.57574 0
M  V30 10781 C 1269.62 -0.574912 1.77628 0
M  V30 10782 C 1269.97 -1.75563 0.875903 0
M  V30 10783 O 1269.1 -2.16284 0.0709141 0
M  V30 10784 C 1269.69 -1.04972 3.22128 0
M  V30 10785 C 1268.25 -1.54175 3.43376 0
M  V30 10786 C 1267.4 -0.480127 2.73112 0
M  V30 10787 H 1270.35 0.197826 1.57462 0
M  V30 10788 H 1270.37 -1.91705 3.28678 0
M  V30 10789 H 1269.88 -0.190173 3.87634 0
M  V30 10790 H 1267.98 -2.42313 2.83046 0
M  V30 10791 H 1268.1 -1.58879 4.51989 0
M  V30 10792 H 1266.46 -0.935314 2.36905 0
M  V30 10793 H 1267.24 0.369973 3.41301 0
M  V30 10794 N 1269.69 -1.54705 -0.300681 0
M  V30 10795 C 1270.94 -1.73658 -1.0338 0
M  V30 10796 C 1271.26 -0.525447 -1.87787 0
M  V30 10797 O 1270.53 0.460269 -1.90416 0
M  V30 10798 H 1269.11 -0.640338 -0.384677 0
M  V30 10799 H 1271.77 -1.92059 -0.331588 0
M  V30 10800 H 1270.86 -2.62595 -1.68672 0
M  V30 10801 N 1271.17 0.563888 -1.47167 0
M  V30 10802 C 1272.13 1.65359 -1.58711 0
M  V30 10803 C 1273.13 1.53999 -0.46272 0
M  V30 10804 O 1274.32 1.58277 -0.727595 0
M  V30 10805 C 1271.45 3.04874 -1.52529 0
M  V30 10806 H 1272.64 1.56475 -2.55843 0
M  V30 10807 H 1270.2 0.783271 -1.35257 0
M  V30 10808 H 1270.93 3.19297 -0.56747 0
M  V30 10809 H 1270.72 3.14528 -2.34125 0
M  V30 10810 H 1272.21 3.84164 -1.63731 0
M  V30 10811 N 1272.64 1.35187 0.810078 0
M  V30 10812 C 1273.59 1.27822 1.92173 0
M  V30 10813 C 1274.56 0.150851 1.65414 0
M  V30 10814 O 1275.75 0.333973 1.87854 0
M  V30 10815 C 1272.89 1.05258 3.28656 0
M  V30 10816 C 1272 2.26884 3.67624 0
M  V30 10817 C 1271.13 1.97499 4.9312 0
M  V30 10818 C 1270.17 3.15198 5.24706 0
M  V30 10819 N 1269.31 2.85612 6.41381 0
M  V30 10820 H 1274.15 2.22884 1.97804 0
M  V30 10821 H 1271.69 1.10799 0.967577 0
M  V30 10822 H 1273.65 0.902084 4.07331 0
M  V30 10823 H 1272.28 0.138583 3.22502 0
M  V30 10824 H 1271.33 2.5281 2.84238 0
M  V30 10825 H 1272.64 3.14783 3.86928 0
M  V30 10826 H 1271.79 1.7926 5.79613 0
M  V30 10827 H 1270.53 1.0688 4.75844 0
M  V30 10828 H 1269.54 3.34019 4.36705 0
M  V30 10829 H 1270.76 4.06614 5.43913 0
M  V30 10830 H 1268.71 1.97583 6.25537 0
M  V30 10831 H 1268.63 3.67044 6.60919 0
M  V30 10832 H 1269.89 2.70906 7.3091 0
M  V30 10833 N 1274.12 -1.03182 1.19127 0
M  V30 10834 C 1275.37 -1.76184 0.990134 0
M  V30 10835 C 1275.69 -1.88986 -0.480546 0
M  V30 10836 O 1274.96 -1.4213 -1.34817 0
M  V30 10837 H 1273.54 -0.652668 0.363364 0
M  V30 10838 H 1276.2 -1.24481 1.49968 0
M  V30 10839 H 1275.3 -2.77119 1.43568 0
M  V30 10840 N 1275.6 -0.99472 -1.22242 0
M  V30 10841 C 1276.56 -0.551619 -2.22463 0
M  V30 10842 C 1277.56 0.366498 -1.56568 0
M  V30 10843 O 1278.75 0.158204 -1.7348 0
M  V30 10844 C 1275.89 0.197416 -3.40328 0
M  V30 10845 H 1277.08 -1.43795 -2.63179 0
M  V30 10846 H 1274.63 -0.782121 -1.35324 0
M  V30 10847 H 1275.37 1.09965 -3.05087 0
M  V30 10848 H 1275.15 -0.461829 -3.89371 0
M  V30 10849 H 1276.64 0.495534 -4.1465 0
M  V30 10850 N 1277.08 1.37613 -0.768148 0
M  V30 10851 C 1278.49 1.53202 -0.44737 0
M  V30 10852 C 1278.69 1.72736 1.03752 0
M  V30 10853 O 1277.75 1.74667 1.8234 0
M  V30 10854 C 1279.06 2.7306 -1.25931 0
M  V30 10855 C 1280.61 2.8692 -1.25084 0
M  V30 10856 C 1281.09 4.09757 -2.04605 0
M  V30 10857 N 1282.58 4.16862 -2.0194 0
M  V30 10858 C 1283.31 5.10936 -2.60254 0
M  V30 10859 N 1282.81 6.1059 -3.27341 0
M  V30 10860 N 1284.6 5.03393 -2.50104 0
M  V30 10861 H 1276.75 1.23184 -1.7303 0
M  V30 10862 H 1279.02 0.599541 -0.73434 0
M  V30 10863 H 1278.72 2.65078 -2.31141 0
M  V30 10864 H 1278.6 3.66646 -0.886036 0
M  V30 10865 H 1280.98 2.94375 -0.206736 0
M  V30 10866 H 1281.06 1.94303 -1.66373 0
M  V30 10867 H 1280.71 4.03063 -3.09035 0
M  V30 10868 H 1280.64 5.01481 -1.60701 0
M  V30 10869 H 1283.13 3.455 -1.53096 0
M  V30 10870 H 1283.44 6.78893 -3.6922 0
M  V30 10871 H 1281.79 6.10879 -3.31439 0
M  V30 10872 H 1284.98 4.24483 -1.9731 0
M  V30 10873 H 1285.15 5.76524 -2.95844 0
M  V30 10874 N 1278.56 0.518393 1.4883 0
M  V30 10875 C 1279.8 -0.019866 2.0209 0
M  V30 10876 C 1280.13 -1.35863 1.3988 0
M  V30 10877 O 1279.4 -1.87722 0.560117 0
M  V30 10878 H 1277.98 -0.0103306 0.746929 0
M  V30 10879 H 1280.64 0.679591 1.82668 0
M  V30 10880 H 1279.73 -0.136749 3.118 0
M  V30 10881 N 1280.03 -1.55556 0.252993 0
M  V30 10882 C 1281.26 -2.03945 -0.376965 0
M  V30 10883 C 1281.68 -1.13089 -1.50308 0
M  V30 10884 O 1281.04 -0.125039 -1.80868 0
M  V30 10885 C 1281.09 -3.50284 -0.856363 0
M  V30 10886 O 1280.19 -3.62551 -1.96546 0
M  V30 10887 H 1279.54 -0.659002 -0.081317 0
M  V30 10888 H 1282.07 -2.01024 0.380831 0
M  V30 10889 H 1282.08 -3.91222 -1.15798 0
M  V30 10890 H 1280.75 -4.15887 -0.0323302 0
M  V30 10891 H 1279.33 -3.33511 -1.66808 0
M  V30 10892 N 1281.51 0.0200419 -1.57587 0
M  V30 10893 C 1282.48 1.00255 -2.06111 0
M  V30 10894 C 1283.48 1.28488 -0.966829 0
M  V30 10895 O 1284.67 1.2334 -1.23015 0
M  V30 10896 C 1281.8 2.33296 -2.48567 0
M  V30 10897 H 1282.99 0.583216 -2.94174 0
M  V30 10898 H 1280.54 0.267077 -1.54001 0
M  V30 10899 H 1281.28 2.79959 -1.63687 0
M  V30 10900 H 1281.06 2.14131 -3.28467 0
M  V30 10901 H 1282.55 3.03817 -2.86505 0
M  V30 10902 N 1282.99 1.54862 0.292472 0
M  V30 10903 C 1284.24 1.74203 1.02458 0
M  V30 10904 C 1284.56 0.535398 1.87506 0
M  V30 10905 O 1283.83 -0.450164 1.90658 0
M  V30 10906 H 1282.41 0.642369 0.381276 0
M  V30 10907 H 1285.07 1.92232 0.321398 0
M  V30 10908 H 1284.17 2.63486 1.67277 0
M  V30 10909 N 1284.47 -0.556076 1.47464 0
M  V30 10910 C 1285.88 -1.1382 1.47993 0
M  V30 10911 C 1286.23 -1.94785 0.235249 0
M  V30 10912 O 1285.36 -2.06098 -0.659752 0
M  V30 10913 C 1285.95 -2.07082 2.68146 0
M  V30 10914 C 1284.51 -2.60564 2.71631 0
M  V30 10915 C 1283.66 -1.36967 2.41113 0
M  V30 10916 H 1286.61 -0.34262 1.54957 0
M  V30 10917 H 1286.63 -2.90975 2.45181 0
M  V30 10918 H 1286.14 -1.48127 3.5872 0
M  V30 10919 H 1284.24 -3.23314 1.852 0
M  V30 10920 H 1284.35 -3.0148 3.72353 0
M  V30 10921 H 1282.72 -1.67678 1.91719 0
M  V30 10922 H 1283.5 -0.79803 3.33896 0
M  V30 10923 N 1285.95 -1.35615 -0.802897 0
M  V30 10924 C 1287.36 -1.26062 -1.37715 0
M  V30 10925 C 1287.71 0.105411 -1.95917 0
M  V30 10926 O 1286.83 1.00648 -1.91569 0
M  V30 10927 C 1287.43 -2.28261 -2.50365 0
M  V30 10928 C 1285.99 -2.22437 -3.03642 0
M  V30 10929 C 1285.14 -2.1377 -1.76629 0
M  V30 10930 H 1288.09 -1.46689 -0.605631 0
M  V30 10931 H 1288.11 -1.91122 -3.29017 0
M  V30 10932 H 1287.62 -3.27671 -2.07975 0
M  V30 10933 H 1285.72 -1.2645 -3.50487 0
M  V30 10934 H 1285.83 -3.14558 -3.61373 0
M  V30 10935 H 1284.2 -1.59806 -1.98328 0
M  V30 10936 H 1284.98 -3.15046 -1.36385 0
M  V30 10937 N 1287.43 1.02549 -1.19673 0
M  V30 10938 C 1288.67 1.75656 -0.999463 0
M  V30 10939 C 1288.99 1.89238 0.470517 0
M  V30 10940 O 1288.26 1.42843 1.34062 0
M  V30 10941 H 1286.84 0.650732 -0.366821 0
M  V30 10942 H 1289.51 1.23684 -1.50627 0
M  V30 10943 H 1288.6 2.76353 -1.45035 0
M  V30 10944 N 1288.9 1.00119 1.21713 0
M  V30 10945 C 1289.87 0.563409 2.22167 0
M  V30 10946 C 1290.87 -0.35819 1.5676 0
M  V30 10947 O 1292.06 -0.149001 1.73562 0
M  V30 10948 C 1289.19 -0.179365 3.40428 0
M  V30 10949 H 1290.38 1.45189 2.62412 0
M  V30 10950 H 1287.93 0.789286 1.34907 0
M  V30 10951 H 1288.67 -1.08345 3.05666 0
M  V30 10952 H 1288.45 0.482471 3.8912 0
M  V30 10953 H 1289.94 -0.473537 4.14906 0
M  V30 10954 N 1290.38 -1.37203 0.775435 0
M  V30 10955 C 1291.61 -2.03868 0.352927 0
M  V30 10956 C 1292.02 -1.58482 -1.0261 0
M  V30 10957 O 1291.38 -0.767772 -1.65564 0
M  V30 10958 C 1291.43 -3.59378 0.39116 0
M  V30 10959 O 1291.15 -4.03103 1.71579 0
M  V30 10960 C 1292.65 -4.4328 -0.0424808 0
M  V30 10961 H 1289.87 -0.654619 0.14736 0
M  V30 10962 H 1292.42 -1.75463 1.05039 0
M  V30 10963 H 1290.57 -3.86542 -0.257752 0
M  V30 10964 H 1290.99 -4.9764 1.65695 0
M  V30 10965 H 1292.46 -5.51989 0.0354215 0
M  V30 10966 H 1292.94 -4.25374 -1.09333 0
M  V30 10967 H 1293.54 -4.21349 0.578384 0
M  V30 10968 N 1291.86 -0.526279 -1.48553 0
M  V30 10969 C 1293.11 0.00914839 -2.02098 0
M  V30 10970 C 1293.43 1.35119 -1.40598 0
M  V30 10971 O 1292.7 1.87422 -0.570065 0
M  V30 10972 H 1291.28 0.00636935 -0.746973 0
M  V30 10973 H 1293.94 -0.689269 -1.82305 0
M  V30 10974 H 1293.04 0.120212 -3.11868 0
M  V30 10975 N 1293.34 1.5542 -0.261239 0
M  V30 10976 C 1294.58 1.99284 0.359487 0
M  V30 10977 C 1294.91 1.14954 1.56894 0
M  V30 10978 O 1294.17 0.203796 1.94636 0
M  V30 10979 C 1294.47 3.48354 0.799021 0
M  V30 10980 C 1294.13 4.49872 -0.30426 0
M  V30 10981 C 1292.79 4.77353 -0.607237 0
M  V30 10982 C 1295.15 5.10547 -1.04838 0
M  V30 10983 C 1292.47 5.62781 -1.65816 0
M  V30 10984 C 1294.83 5.97115 -2.08893 0
M  V30 10985 C 1293.49 6.22923 -2.3984 0
M  V30 10986 H 1292.76 0.72923 0.131546 0
M  V30 10987 H 1295.41 1.87851 -0.372058 0
M  V30 10988 H 1293.71 3.57192 1.61001 0
M  V30 10989 H 1295.41 3.7969 1.28981 0
M  V30 10990 H 1292 4.28561 -0.0579863 0
M  V30 10991 H 1296.18 4.89352 -0.827566 0
M  V30 10992 H 1291.44 5.81026 -1.90311 0
M  V30 10993 H 1295.61 6.43168 -2.67035 0
M  V30 10994 H 1293.24 6.88912 -3.2141 0
M  V30 10995 N 1294.82 -0.0116844 1.57596 0
M  V30 10996 C 1296.23 -0.55604 1.78228 0
M  V30 10997 C 1296.58 -1.74624 0.894474 0
M  V30 10998 O 1295.7 -2.16196 0.0938498 0
M  V30 10999 C 1296.3 -1.0155 3.23223 0
M  V30 11000 C 1294.86 -1.50525 3.44992 0
M  V30 11001 C 1294 -0.451133 2.73606 0
M  V30 11002 H 1296.95 0.214516 1.57243 0
M  V30 11003 H 1296.98 -1.88208 3.30693 0
M  V30 11004 H 1296.49 -0.149048 3.87814 0
M  V30 11005 H 1294.59 -2.39298 2.856 0
M  V30 11006 H 1294.7 -1.54076 4.53649 0
M  V30 11007 H 1293.07 -0.910135 2.37884 0
M  V30 11008 H 1293.85 0.406152 3.40889 0
M  V30 11009 N 1296.29 -1.55015 -0.284256 0
M  V30 11010 C 1297.54 -1.74744 -1.01532 0
M  V30 11011 C 1297.86 -0.545334 -1.87219 0
M  V30 11012 O 1297.13 0.440046 -1.90894 0
M  V30 11013 H 1295.71 -0.644382 -0.377864 0
M  V30 11014 H 1298.37 -1.92399 -0.311199 0
M  V30 11015 H 1297.47 -2.64369 -1.65878 0
M  V30 11016 N 1297.77 0.548248 -1.47757 0
M  V30 11017 C 1298.73 1.63666 -1.60456 0
M  V30 11018 C 1299.73 1.53499 -0.479028 0
M  V30 11019 O 1300.92 1.57497 -0.744342 0
M  V30 11020 C 1298.06 3.03239 -1.55754 0
M  V30 11021 H 1299.25 1.53752 -2.57488 0
M  V30 11022 H 1296.8 0.768881 -1.36081 0
M  V30 11023 H 1297.54 3.18677 -0.601303 0
M  V30 11024 H 1297.32 3.12027 -2.37448 0
M  V30 11025 H 1298.81 3.82406 -1.67797 0
M  V30 11026 N 1299.25 1.36039 0.795694 0
M  V30 11027 C 1300.21 1.29709 1.88966 0
M  V30 11028 C 1301.21 0.206142 1.59473 0
M  V30 11029 O 1302.4 0.460534 1.68002 0
M  V30 11030 C 1299.53 1.00922 3.25619 0
M  V30 11031 H 1300.73 2.26993 1.95995 0
M  V30 11032 H 1298.28 1.2072 0.992791 0
M  V30 11033 H 1299.02 0.0407027 3.24274 0
M  V30 11034 H 1298.8 1.79863 3.48413 0
M  V30 11035 H 1300.29 0.990826 4.05675 0
M  V30 11036 N 1300.73 -1.01913 1.20215 0
M  V30 11037 C 1301.98 -1.75124 1.00876 0
M  V30 11038 C 1302.3 -1.89485 -0.460475 0
M  V30 11039 O 1301.57 -1.43552 -1.33302 0
M  V30 11040 H 1300.15 -0.648777 0.370266 0
M  V30 11041 H 1302.81 -1.22883 1.5128 0
M  V30 11042 H 1301.91 -2.7558 1.46499 0
M  V30 11043 N 1302.21 -1.00763 -1.2118 0
M  V30 11044 C 1303.62 -0.720905 -1.42391 0
M  V30 11045 C 1303.82 0.702918 -1.88842 0
M  V30 11046 O 1302.88 1.47191 -2.05161 0
M  V30 11047 C 1304.19 -1.739 -2.45315 0
M  V30 11048 C 1305.74 -1.75611 -2.59094 0
M  V30 11049 C 1306.21 -2.76323 -3.65253 0
M  V30 11050 N 1307.71 -2.75007 -3.72727 0
M  V30 11051 C 1308.44 -3.49594 -4.54502 0
M  V30 11052 N 1307.94 -4.33828 -5.40153 0
M  V30 11053 N 1309.73 -3.38232 -4.4895 0
M  V30 11054 H 1301.88 -1.92697 -0.893404 0
M  V30 11055 H 1304.14 -0.831888 -0.454606 0
M  V30 11056 H 1303.85 -2.75859 -2.18162 0
M  V30 11057 H 1303.72 -1.5438 -3.44161 0
M  V30 11058 H 1306.11 -0.743416 -2.85582 0
M  V30 11059 H 1306.19 -1.99203 -1.60474 0
M  V30 11060 H 1305.84 -3.77751 -3.39509 0
M  V30 11061 H 1305.77 -2.49996 -4.63476 0
M  V30 11062 H 1308.26 -2.13897 -3.11539 0
M  V30 11063 H 1308.57 -4.8753 -5.99612 0
M  V30 11064 H 1306.91 -4.3791 -5.39685 0
M  V30 11065 H 1310.11 -2.71855 -3.81068 0
M  V30 11066 H 1310.28 -3.96615 -5.12445 0
M  V30 11067 N 1303.68 1.3679 -0.7827 0
M  V30 11068 C 1304.93 1.99712 -0.352533 0
M  V30 11069 C 1305.26 1.61984 1.0712 0
M  V30 11070 O 1304.54 0.871342 1.7389 0
M  V30 11071 C 1304.82 3.5649 -0.508628 0
M  V30 11072 C 1304.67 4.04093 -1.97557 0
M  V30 11073 C 1305.99 4.40026 0.0804447 0
M  V30 11074 H 1303.11 0.725522 -0.129566 0
M  V30 11075 H 1305.75 1.62305 -0.987788 0
M  V30 11076 H 1303.9 3.88487 0.0321664 0
M  V30 11077 H 1305.58 3.82613 -2.57691 0
M  V30 11078 H 1303.82 3.55881 -2.48055 0
M  V30 11079 H 1304.49 5.13088 -2.03579 0
M  V30 11080 H 1306.97 4.14351 -0.381113 0
M  V30 11081 H 1305.84 5.48868 -0.0588424 0
M  V30 11082 H 1306.1 4.26285 1.17189 0
M  V30 11083 N 1305.16 0.53415 1.48272 0
M  V30 11084 C 1306.41 0.00156948 2.021 0
M  V30 11085 C 1306.73 -1.34371 1.41313 0
M  V30 11086 O 1306 -1.87117 0.579996 0
M  V30 11087 H 1304.58 -0.00240789 0.746996 0
M  V30 11088 H 1307.24 0.698928 1.81937 0
M  V30 11089 H 1306.34 -0.103671 3.11928 0
M  V30 11090 N 1306.64 -1.55279 0.269478 0
M  V30 11091 C 1308.05 -1.85286 -0.229372 0
M  V30 11092 C 1308.4 -1.19148 -1.55879 0
M  V30 11093 O 1307.53 -0.4778 -2.11059 0
M  V30 11094 C 1308.12 -3.3615 -0.42296 0
M  V30 11095 C 1306.68 -3.66301 -0.866047 0
M  V30 11096 C 1305.83 -2.77265 0.0439028 0
M  V30 11097 H 1308.78 -1.509 0.491427 0
M  V30 11098 H 1308.8 -3.5895 -1.26234 0
M  V30 11099 H 1308.31 -3.84258 0.544768 0
M  V30 11100 H 1306.41 -3.23688 -1.84545 0
M  V30 11101 H 1306.53 -4.73851 -0.707274 0
M  V30 11102 H 1304.89 -2.50299 -0.471433 0
M  V30 11103 H 1305.67 -3.28186 1.00741 0
M  V30 11104 N 1308.12 0.00332656 -1.576 0
M  V30 11105 C 1309.53 0.546581 -1.7852 0
M  V30 11106 C 1309.88 1.74147 -0.903722 0
M  V30 11107 O 1309.01 2.16144 -0.105314 0
M  V30 11108 C 1309.6 0.998344 -3.23757 0
M  V30 11109 C 1308.16 1.48693 -3.45785 0
M  V30 11110 C 1307.31 0.436617 -2.73841 0
M  V30 11111 H 1310.26 -0.222852 -1.57128 0
M  V30 11112 H 1310.28 1.86452 -3.31686 0
M  V30 11113 H 1309.79 0.128479 -3.87887 0
M  V30 11114 H 1307.89 2.3778 -2.86865 0
M  V30 11115 H 1308 1.51668 -4.5446 0
M  V30 11116 H 1306.37 0.897506 -2.38363 0
M  V30 11117 H 1307.15 -0.424225 -3.40669 0
M  V30 11118 N 1309.6 1.55164 0.276031 0
M  V30 11119 C 1310.84 1.7528 1.00604 0
M  V30 11120 C 1311.17 0.555256 1.86928 0
M  V30 11121 O 1310.44 -0.429917 1.91124 0
M  V30 11122 H 1309.02 0.646377 0.374441 0
M  V30 11123 H 1311.68 1.92562 0.300992 0
M  V30 11124 H 1310.77 2.65245 1.64473 0
M  V30 11125 N 1311.07 -0.540404 1.48045 0
M  V30 11126 C 1312.49 -1.12243 1.49192 0
M  V30 11127 C 1312.84 -1.94524 0.255895 0
M  V30 11128 O 1311.96 -2.06786 -0.637855 0
M  V30 11129 C 1312.56 -2.04227 2.70327 0
M  V30 11130 C 1311.12 -2.57668 2.7438 0
M  V30 11131 C 1310.26 -1.34402 2.42552 0
M  V30 11132 H 1313.21 -0.326165 1.55312 0
M  V30 11133 H 1313.23 -2.88359 2.48253 0
M  V30 11134 H 1312.75 -1.44314 3.60271 0
M  V30 11135 H 1310.85 -3.21331 1.88618 0
M  V30 11136 H 1310.96 -2.97514 3.7553 0
M  V30 11137 H 1309.32 -1.65635 1.93487 0
M  V30 11138 H 1310.11 -0.762571 3.34723 0
M  V30 11139 N 1312.55 -1.36459 -0.788468 0
M  V30 11140 C 1313.78 -1.34063 -1.58246 0
M  V30 11141 C 1314.2 0.0754933 -1.87948 0
M  V30 11142 O 1313.56 1.04772 -1.47961 0
M  V30 11143 C 1313.61 -2.17038 -2.8797 0
M  V30 11144 O 1312.71 -1.56353 -3.81612 0
M  V30 11145 H 1312.05 -0.458816 -0.479983 0
M  V30 11146 H 1314.58 -1.79755 -0.977207 0
M  V30 11147 H 1314.59 -2.29651 -3.3723 0
M  V30 11148 H 1313.27 -3.19981 -2.65678 0
M  V30 11149 H 1311.85 -1.52685 -3.40208 0
M  V30 11150 N 1314.03 1.01274 -1.20754 0
M  V30 11151 C 1315.28 1.74586 -1.01804 0
M  V30 11152 C 1315.6 1.89727 0.450419 0
M  V30 11153 O 1314.87 1.44257 1.32539 0
M  V30 11154 H 1313.45 0.646804 -0.373702 0
M  V30 11155 H 1316.11 1.22079 -1.5193 0
M  V30 11156 H 1315.21 2.748 -1.47958 0
M  V30 11157 N 1315.51 1.01404 1.20644 0
M  V30 11158 C 1316.46 0.575388 2.25371 0
M  V30 11159 C 1317.45 -0.384598 1.64976 0
M  V30 11160 O 1318.66 -0.2548 1.78187 0
M  V30 11161 H 1315.03 0.167752 0.733051 0
M  V30 11162 H 1317 1.46964 2.597 0
M  V30 11163 C 1315.75 -0.0731257 3.47623 0
M  V30 11164 H 1315.08 0.656551 3.94372 0
M  V30 11165 H 1316.52 -0.343203 4.22609 0
M  V30 11166 C 1314.97 -1.31515 3.1017 0
M  V30 11167 O 1315.5 -2.40869 3.21473 0
M  V30 11168 N 1313.71 -1.19829 2.64744 0
M  V30 11169 H 1313.26 -0.308463 2.55746 0
M  V30 11170 H 1313.22 -2.0303 2.40054 0
M  V30 11171 N 1316.99 -1.36373 0.789944 0
M  V30 11172 C 1317.95 -2.28372 0.194639 0
M  V30 11173 C 1318.95 -1.48849 -0.608332 0
M  V30 11174 O 1320.14 -1.68829 -0.42925 0
M  V30 11175 C 1317.27 -3.3298 -0.730553 0
M  V30 11176 H 1318.47 -2.82529 1.00585 0
M  V30 11177 H 1316.02 -1.45946 0.559406 0
M  V30 11178 H 1316.75 -2.8398 -1.56608 0
M  V30 11179 H 1316.54 -3.91787 -0.156706 0
M  V30 11180 H 1318.03 -4.01684 -1.14192 0
M  V30 11181 N 1318.47 -0.542005 -1.47987 0
M  V30 11182 C 1319.71 -0.0122873 -2.02096 0
M  V30 11183 C 1320.03 1.3362 -1.42024 0
M  V30 11184 O 1319.3 1.86807 -0.589911 0
M  V30 11185 H 1317.88 -0.00155365 -0.746998 0
M  V30 11186 H 1320.55 -0.708566 -1.81564 0
M  V30 11187 H 1319.64 0.0871275 -3.11978 0
M  V30 11188 N 1319.94 1.55134 -0.277709 0
M  V30 11189 C 1321.35 1.85405 0.219543 0
M  V30 11190 C 1321.71 1.19973 1.55245 0
M  V30 11191 O 1320.83 0.488986 2.10803 0
M  V30 11192 C 1321.43 3.36369 0.405127 0
M  V30 11193 C 1319.98 3.66755 0.846609 0
M  V30 11194 C 1319.13 2.77238 -0.0586063 0
M  V30 11195 H 1322.08 1.50637 -0.499422 0
M  V30 11196 H 1322.1 3.59615 1.24329 0
M  V30 11197 H 1321.62 3.83963 -0.565138 0
M  V30 11198 H 1319.72 3.24662 1.82825 0
M  V30 11199 H 1319.83 4.74219 0.682135 0
M  V30 11200 H 1318.19 2.50546 0.458153 0
M  V30 11201 H 1318.98 3.27647 -1.0248 0
M  V30 11202 N 1321.42 0.00503138 1.57599 0
M  V30 11203 C 1322.83 -0.537106 1.78807 0
M  V30 11204 C 1323.18 -1.73666 0.912945 0
M  V30 11205 O 1322.31 -2.16085 0.116775 0
M  V30 11206 C 1322.9 -0.98116 3.24282 0
M  V30 11207 C 1321.46 -1.46857 3.46569 0
M  V30 11208 C 1320.61 -0.422088 2.74069 0
M  V30 11209 H 1323.56 0.231182 1.57007 0
M  V30 11210 H 1323.58 -1.8469 3.32671 0
M  V30 11211 H 1323.09 -0.107907 3.8795 0
M  V30 11212 H 1321.19 -2.36255 2.88122 0
M  V30 11213 H 1321.31 -1.49256 4.55258 0
M  V30 11214 H 1319.67 -0.884853 2.38836 0
M  V30 11215 H 1320.45 0.442285 3.40439 0
M  V30 11216 N 1322.9 -1.55308 -0.267798 0
M  V30 11217 C 1324.15 -1.75811 -0.996734 0
M  V30 11218 C 1324.47 -0.565161 -1.8663 0
M  V30 11219 O 1323.74 0.419775 -1.9135 0
M  V30 11220 H 1322.32 -0.648353 -0.371008 0
M  V30 11221 H 1324.98 -1.92719 -0.290775 0
M  V30 11222 H 1324.08 -2.66113 -1.63064 0
M  V30 11223 N 1324.38 0.532545 -1.4833 0
M  V30 11224 C 1325.79 1.11451 -1.49785 0
M  V30 11225 C 1326.14 1.94386 -0.266207 0
M  V30 11226 O 1325.26 2.07121 0.62688 0
M  V30 11227 C 1325.86 2.0279 -2.71407 0
M  V30 11228 C 1324.42 2.56209 -2.75742 0
M  V30 11229 C 1323.57 1.33114 -2.43261 0
M  V30 11230 H 1326.52 0.317924 -1.55483 0
M  V30 11231 H 1326.54 2.87038 -2.49779 0
M  V30 11232 H 1326.05 1.42401 -3.61031 0
M  V30 11233 H 1324.15 3.20327 -1.9032 0
M  V30 11234 H 1324.26 2.95518 -3.77102 0
M  V30 11235 H 1322.63 1.64607 -1.94362 0
M  V30 11236 H 1323.41 0.744809 -3.35123 0
M  V30 11237 N 1325.86 1.36875 0.78122 0
M  V30 11238 C 1327.27 1.28236 1.35692 0
M  V30 11239 C 1327.62 -0.0742286 1.9606 0
M  V30 11240 O 1326.74 -0.97588 1.93146 0
M  V30 11241 C 1327.34 2.32215 2.46702 0
M  V30 11242 C 1325.9 2.2724 3.00065 0
M  V30 11243 C 1325.04 2.16553 1.73206 0
M  V30 11244 H 1327.99 1.47634 0.582217 0
M  V30 11245 H 1328.02 1.96333 3.25935 0
M  V30 11246 H 1327.53 3.30938 2.02735 0
M  V30 11247 H 1325.63 1.3201 3.48431 0
M  V30 11248 H 1325.74 3.20267 3.56323 0
M  V30 11249 H 1324.11 1.62941 1.95761 0
M  V30 11250 H 1324.89 3.17176 1.31356 0
M  V30 11251 N 1327.33 -1.00632 1.21289 0
M  V30 11252 C 1328.58 -1.74044 1.02728 0
M  V30 11253 C 1328.9 -1.89963 -0.440351 0
M  V30 11254 O 1328.17 -1.44958 -1.31772 0
M  V30 11255 H 1326.75 -0.644813 0.377127 0
M  V30 11256 H 1329.41 -1.21272 1.52575 0
M  V30 11257 H 1328.51 -2.74011 1.49413 0
M  V30 11258 N 1328.81 -1.02043 -1.20104 0
M  V30 11259 C 1330.22 -0.742954 -1.71281 0
M  V30 11260 C 1330.57 0.738173 -1.81784 0
M  V30 11261 O 1329.7 1.57588 -1.48307 0
M  V30 11262 C 1330.29 -1.342 -3.11088 0
M  V30 11263 C 1328.85 -1.11331 -3.59559 0
M  V30 11264 C 1328 -1.44532 -2.36655 0
M  V30 11265 H 1330.95 -1.18942 -1.05064 0
M  V30 11266 H 1330.97 -0.734558 -3.73342 0
M  V30 11267 H 1330.48 -2.41998 -3.03411 0
M  V30 11268 H 1328.58 -0.05317 -3.72562 0
M  V30 11269 H 1328.7 -1.79606 -4.4416 0
M  V30 11270 H 1327.06 -0.864431 -2.39582 0
M  V30 11271 H 1327.84 -2.53394 -2.31616 0
M  V30 11272 N 1330.29 1.35952 -0.797165 0
M  V30 11273 C 1331.25 2.28266 -0.206748 0
M  V30 11274 C 1332.25 1.49169 0.60043 0
M  V30 11275 O 1333.44 1.69054 0.42029 0
M  V30 11276 C 1330.58 3.33363 0.712884 0
M  V30 11277 H 1331.77 2.81992 -1.02082 0
M  V30 11278 H 1329.32 1.45648 -0.567138 0
M  V30 11279 H 1330.06 2.84806 1.551 0
M  V30 11280 H 1329.84 3.91864 0.135926 0
M  V30 11281 H 1331.33 4.02284 1.1206 0
M  V30 11282 N 1331.77 0.549846 1.47697 0
M  V30 11283 C 1333.02 0.0230048 2.02087 0
M  V30 11284 C 1333.34 -1.32865 1.4273 0
M  V30 11285 O 1332.61 -1.86492 0.59981 0
M  V30 11286 H 1331.19 0.00551514 0.74698 0
M  V30 11287 H 1333.85 0.718185 1.81185 0
M  V30 11288 H 1332.95 -0.0705813 3.1202 0
M  V30 11289 N 1333.25 -1.54984 0.285932 0
M  V30 11290 C 1334.19 -2.2295 -0.596822 0
M  V30 11291 C 1335.16 -1.20674 -1.14136 0
M  V30 11292 O 1336.35 -1.49249 -1.18867 0
M  V30 11293 C 1333.49 -2.9625 -1.77002 0
M  V30 11294 C 1332.6 -4.13268 -1.25831 0
M  V30 11295 C 1331.74 -4.74187 -2.39417 0
M  V30 11296 C 1330.78 -5.83377 -1.85304 0
M  V30 11297 N 1329.91 -6.38313 -2.92405 0
M  V30 11298 H 1334.75 -2.97998 -0.0106104 0
M  V30 11299 H 1332.29 -1.47099 0.00653041 0
M  V30 11300 H 1334.25 -3.36971 -2.4598 0
M  V30 11301 H 1332.88 -2.23606 -2.3281 0
M  V30 11302 H 1331.93 -3.77593 -0.461278 0
M  V30 11303 H 1333.24 -4.91979 -0.822049 0
M  V30 11304 H 1332.4 -5.17683 -3.16369 0
M  V30 11305 H 1331.13 -3.94775 -2.86364 0
M  V30 11306 H 1330.14 -5.3932 -1.06835 0
M  V30 11307 H 1331.36 -6.64664 -1.3928 0
M  V30 11308 H 1329.31 -5.61791 -3.38713 0
M  V30 11309 H 1329.23 -7.12328 -2.53228 0
M  V30 11310 H 1330.5 -6.86468 -3.69299 0
M  V30 11311 N 1334.72 -0.0133892 -1.57594 0
M  V30 11312 C 1335.63 0.989701 -2.12702 0
M  V30 11313 C 1336.65 1.36785 -1.07545 0
M  V30 11314 O 1337.83 1.45246 -1.39519 0
M  V30 11315 C 1334.89 2.2586 -2.63036 0
M  V30 11316 C 1333.95 1.94234 -3.82847 0
M  V30 11317 C 1333.19 3.15075 -4.30771 0
M  V30 11318 O 1333.41 4.27212 -3.7795 0
M  V30 11319 O 1332.34 2.98291 -5.22787 0
M  V30 11320 H 1336.17 0.551194 -2.98656 0
M  V30 11321 H 1333.75 0.206264 -1.47969 0
M  V30 11322 H 1335.64 3.0038 -2.9555 0
M  V30 11323 H 1334.31 2.68923 -1.80173 0
M  V30 11324 H 1333.22 1.17148 -3.55285 0
M  V30 11325 H 1334.55 1.55999 -4.66824 0
M  V30 11326 N 1336.2 1.55448 0.259558 0
M  V30 11327 C 1337.45 1.76337 0.987396 0
M  V30 11328 C 1337.77 0.57505 1.86328 0
M  V30 11329 O 1337.04 -0.409621 1.9157 0
M  V30 11330 H 1335.62 0.650312 0.367565 0
M  V30 11331 H 1338.28 1.9287 0.280551 0
M  V30 11332 H 1337.38 2.66975 1.61651 0
M  V30 11333 N 1337.68 -0.524672 1.4861 0
M  V30 11334 C 1338.93 -1.27768 1.56588 0
M  V30 11335 C 1339.25 -1.93469 0.243899 0
M  V30 11336 O 1338.52 -1.8159 -0.734985 0
M  V30 11337 H 1337.1 -0.474566 0.576885 0
M  V30 11338 H 1339.76 -0.610114 1.85104 0
M  V30 11339 H 1338.86 -2.05416 2.34969 0
M  V30 11340 N 1339.16 -1.37287 -0.77395 0
M  V30 11341 C 1340.11 -1.32872 -1.88716 0
M  V30 11342 C 1341.08 -0.194655 -1.64955 0
M  V30 11343 O 1342.26 -0.383662 -1.86903 0
M  V30 11344 C 1339.4 -1.13934 -3.2575 0
M  V30 11345 C 1338.51 -2.36552 -3.61479 0
M  V30 11346 C 1337.65 -2.10504 -4.87711 0
M  V30 11347 C 1336.69 -3.28999 -5.16165 0
M  V30 11348 N 1335.82 -3.02517 -6.33584 0
M  V30 11349 H 1340.66 -2.28051 -1.91825 0
M  V30 11350 H 1338.2 -1.13325 -0.93786 0
M  V30 11351 H 1340.16 -1.00976 -4.04796 0
M  V30 11352 H 1338.79 -0.22404 -3.22022 0
M  V30 11353 H 1337.84 -2.60257 -2.77435 0
M  V30 11354 H 1339.15 -3.24931 -3.78446 0
M  V30 11355 H 1338.31 -1.94564 -5.74656 0
M  V30 11356 H 1337.05 -1.19459 -4.72843 0
M  V30 11357 H 1336.05 -3.4548 -4.27696 0
M  V30 11358 H 1337.28 -4.20892 -5.32942 0
M  V30 11359 H 1335.22 -2.14099 -6.20079 0
M  V30 11360 H 1335.14 -3.84439 -6.50955 0
M  V30 11361 H 1336.41 -2.9019 -7.23471 0
M  V30 11362 N 1340.64 0.999871 -1.21821 0
M  V30 11363 C 1341.88 1.73497 -1.0365 0
M  V30 11364 C 1342.21 1.90194 0.430271 0
M  V30 11365 O 1341.48 1.45655 1.31002 0
M  V30 11366 H 1340.06 0.642804 -0.380541 0
M  V30 11367 H 1342.72 1.20461 -1.53216 0
M  V30 11368 H 1341.81 2.73215 -1.50864 0
M  V30 11369 N 1342.11 1.02678 1.19562 0
M  V30 11370 C 1343.53 0.752027 1.70884 0
M  V30 11371 C 1343.88 -0.728523 1.82173 0
M  V30 11372 O 1343 -1.56799 1.49141 0
M  V30 11373 C 1343.6 1.35848 3.10372 0
M  V30 11374 C 1342.16 1.13236 3.58963 0
M  V30 11375 C 1341.3 1.45785 2.35886 0
M  V30 11376 H 1344.25 1.19497 1.04432 0
M  V30 11377 H 1344.27 0.754347 3.72948 0
M  V30 11378 H 1343.79 2.43604 3.02124 0
M  V30 11379 H 1341.89 0.0729271 3.72529 0
M  V30 11380 H 1342 1.81959 4.43202 0
M  V30 11381 H 1340.36 0.877125 2.3912 0
M  V30 11382 H 1341.15 2.54619 2.30269 0
M  V30 11383 N 1343.59 -1.35528 0.804364 0
M  V30 11384 C 1345.01 -1.51962 0.487831 0
M  V30 11385 C 1345.21 -1.75426 -0.991353 0
M  V30 11386 O 1344.26 -1.7944 -1.77644 0
M  V30 11387 C 1345.58 -2.69626 1.33126 0
M  V30 11388 C 1347.13 -2.83502 1.32648 0
M  V30 11389 C 1347.6 -4.04188 2.15397 0
M  V30 11390 N 1349.09 -4.11362 2.12922 0
M  V30 11391 C 1349.83 -5.03856 2.73709 0
M  V30 11392 N 1349.32 -6.01696 3.43415 0
M  V30 11393 N 1351.12 -4.96585 2.63363 0
M  V30 11394 H 1343.27 -1.18553 1.76235 0
M  V30 11395 H 1345.53 -0.57986 0.749977 0
M  V30 11396 H 1345.24 -2.58857 2.38088 0
M  V30 11397 H 1345.11 -3.64168 0.982934 0
M  V30 11398 H 1347.5 -2.93723 0.284712 0
M  V30 11399 H 1347.58 -1.89824 1.71466 0
M  V30 11400 H 1347.22 -3.94728 3.19613 0
M  V30 11401 H 1347.15 -4.97044 1.7394 0
M  V30 11402 H 1349.64 -3.41319 1.62203 0
M  V30 11403 H 1349.96 -6.68866 3.8709 0
M  V30 11404 H 1348.3 -6.01877 3.47519 0
M  V30 11405 H 1351.49 -4.19103 2.08496 0
M  V30 11406 H 1351.66 -5.68478 3.11026 0
M  V30 11407 N 1345.07 -0.557671 -1.47404 0
M  V30 11408 C 1346.32 -0.0337216 -2.02072 0
M  V30 11409 C 1346.64 1.32106 -1.43433 0
M  V30 11410 O 1345.91 1.86171 -0.609692 0
M  V30 11411 H 1344.49 -0.00947648 -0.74694 0
M  V30 11412 H 1347.15 -0.727784 -1.80802 0
M  V30 11413 H 1346.25 0.0540331 -3.12053 0
M  V30 11414 N 1346.55 1.54831 -0.294147 0
M  V30 11415 C 1347.46 2.26939 0.594621 0
M  V30 11416 C 1348.48 1.30209 1.15419 0
M  V30 11417 O 1349.65 1.6318 1.18044 0
M  V30 11418 C 1346.72 2.9909 1.75345 0
M  V30 11419 C 1345.78 4.11342 1.22865 0
M  V30 11420 C 1345.01 4.80043 2.33225 0
M  V30 11421 O 1345.23 4.48062 3.52983 0
M  V30 11422 O 1344.17 5.67593 2.00304 0
M  V30 11423 H 1347.99 3.03698 0.00989235 0
M  V30 11424 H 1345.58 1.49276 -0.0608528 0
M  V30 11425 H 1347.46 3.44369 2.42875 0
M  V30 11426 H 1346.14 2.25232 2.32492 0
M  V30 11427 H 1345.04 3.70478 0.519279 0
M  V30 11428 H 1346.38 4.87158 0.702703 0
M  V30 11429 N 1348.03 0.0217466 1.57585 0
M  V30 11430 C 1349.26 -0.668881 1.9579 0
M  V30 11431 C 1349.67 -1.66085 0.897849 0
M  V30 11432 O 1349.03 -1.82098 -0.121099 0
M  V30 11433 C 1349.08 -1.38174 3.34051 0
M  V30 11434 O 1348.8 -0.429527 4.35989 0
M  V30 11435 C 1350.3 -2.16487 3.86844 0
M  V30 11436 H 1347.52 -0.184919 0.645016 0
M  V30 11437 H 1350.06 0.0793241 2.04346 0
M  V30 11438 H 1348.22 -2.0814 3.26736 0
M  V30 11439 H 1348.63 -0.934887 5.16101 0
M  V30 11440 H 1350.11 -2.61829 4.85952 0
M  V30 11441 H 1350.58 -3.00082 3.20698 0
M  V30 11442 H 1351.19 -1.51493 3.97404 0
M  V30 11443 N 1349.51 -1.55583 -0.251311 0
M  V30 11444 C 1350.75 -1.76859 -0.978031 0
M  V30 11445 C 1351.07 -0.584924 -1.86021 0
M  V30 11446 O 1350.34 0.399456 -1.91784 0
M  V30 11447 H 1348.92 -0.652252 -0.364111 0
M  V30 11448 H 1351.59 -1.93016 -0.270319 0
M  V30 11449 H 1350.68 -2.67828 -1.60233 0
M  V30 11450 N 1350.98 0.516783 -1.48886 0
M  V30 11451 C 1352.39 1.09856 -1.50959 0
M  V30 11452 C 1352.75 1.94092 -0.28681 0
M  V30 11453 O 1351.87 2.07774 0.604877 0
M  V30 11454 C 1352.47 1.999 -2.73542 0
M  V30 11455 C 1351.02 2.5327 -2.78444 0
M  V30 11456 C 1350.17 1.30526 -2.44659 0
M  V30 11457 H 1353.12 0.301415 -1.55811 0
M  V30 11458 H 1353.14 2.84373 -2.52809 0
M  V30 11459 H 1352.66 1.38564 -3.62521 0
M  V30 11460 H 1350.76 3.1829 -1.93707 0
M  V30 11461 H 1350.87 2.91502 -3.80215 0
M  V30 11462 H 1349.23 1.62536 -1.96097 0
M  V30 11463 H 1350.02 0.709223 -3.35894 0
M  V30 11464 N 1352.46 1.37696 0.766659 0
M  V30 11465 C 1353.42 1.33688 1.86172 0
M  V30 11466 C 1354.42 0.239922 1.59 0
M  V30 11467 O 1355.61 0.496066 1.66988 0
M  V30 11468 C 1352.75 1.07807 3.23405 0
M  V30 11469 H 1353.94 2.311 1.91136 0
M  V30 11470 H 1351.49 1.22799 0.966961 0
M  V30 11471 H 1352.23 0.109477 3.24115 0
M  V30 11472 H 1352.01 1.87213 3.4452 0
M  V30 11473 H 1353.5 1.07665 4.03482 0
M  V30 11474 N 1353.94 -0.993397 1.22349 0
M  V30 11475 C 1355.19 -1.72945 1.04568 0
M  V30 11476 C 1355.51 -1.90419 -0.420178 0
M  V30 11477 O 1354.78 -1.46348 -1.30227 0
M  V30 11478 H 1353.36 -0.640777 0.383945 0
M  V30 11479 H 1356.02 -1.19647 1.53853 0
M  V30 11480 H 1355.12 -2.72411 1.52311 0
M  V30 11481 N 1355.42 -1.03311 -1.19015 0
M  V30 11482 C 1356.83 -0.750946 -1.4083 0
M  V30 11483 C 1357.03 0.662704 -1.90291 0
M  V30 11484 O 1356.09 1.42806 -2.08237 0
M  V30 11485 C 1357.4 -1.79064 -2.41571 0
M  V30 11486 C 1358.95 -1.81068 -2.55311 0
M  V30 11487 C 1359.43 -2.84008 -3.59309 0
M  V30 11488 N 1360.92 -2.82852 -3.6681 0
M  V30 11489 C 1361.65 -3.59156 -4.46984 0
M  V30 11490 N 1361.15 -4.45188 -5.30829 0
M  V30 11491 N 1362.94 -3.47679 -4.41674 0
M  V30 11492 H 1355.09 -1.94548 -0.852329 0
M  V30 11493 H 1357.35 -0.841344 -0.436858 0
M  V30 11494 H 1357.06 -2.80425 -2.12261 0
M  V30 11495 H 1356.93 -1.61646 -3.40809 0
M  V30 11496 H 1359.32 -0.803825 -2.83941 0
M  V30 11497 H 1359.4 -2.02562 -1.56212 0
M  V30 11498 H 1359.05 -3.84867 -3.3142 0
M  V30 11499 H 1358.98 -2.59771 -4.58069 0
M  V30 11500 H 1361.47 -2.20457 -3.06932 0
M  V30 11501 H 1361.78 -5.00139 -5.89135 0
M  V30 11502 H 1360.13 -4.49259 -5.30275 0
M  V30 11503 H 1363.32 -2.79876 -3.75216 0
M  V30 11504 H 1363.49 -4.07396 -5.03917 0
M  V30 11505 N 1356.9 1.35099 -0.81154 0
M  V30 11506 C 1358.31 1.81082 -0.454543 0
M  V30 11507 C 1358.66 1.67361 1.02395 0
M  V30 11508 O 1357.78 1.20707 1.79607 0
M  V30 11509 C 1358.38 3.2877 -0.818274 0
M  V30 11510 C 1356.94 3.72877 -0.513808 0
M  V30 11511 C 1356.08 2.57008 -1.04125 0
M  V30 11512 H 1359.03 1.23007 -1.00274 0
M  V30 11513 H 1359.06 3.80318 -0.117683 0
M  V30 11514 H 1358.57 3.38725 -1.89439 0
M  V30 11515 H 1356.67 3.68468 0.553368 0
M  V30 11516 H 1356.78 4.67455 -1.0499 0
M  V30 11517 H 1355.15 2.5045 -0.463337 0
M  V30 11518 H 1355.93 2.69738 -2.12358 0
M  V30 11519 N 1358.37 0.56548 1.47106 0
M  V30 11520 C 1359.62 0.0444375 2.02051 0
M  V30 11521 C 1359.94 -1.31344 1.44131 0
M  V30 11522 O 1359.21 -1.85845 0.619556 0
M  V30 11523 H 1357.79 0.0134375 0.746879 0
M  V30 11524 H 1360.45 0.737362 1.80413 0
M  V30 11525 H 1359.55 -0.0374834 3.12077 0
M  V30 11526 N 1359.85 -1.54672 0.302354 0
M  V30 11527 C 1360.76 -2.27251 -0.582578 0
M  V30 11528 C 1361.78 -1.30819 -1.14727 0
M  V30 11529 O 1362.95 -1.63803 -1.17177 0
M  V30 11530 C 1360.02 -3.00016 -1.73757 0
M  V30 11531 C 1359.08 -4.11988 -1.20682 0
M  V30 11532 C 1358.31 -4.81273 -2.30676 0
M  V30 11533 O 1358.54 -4.49927 -3.50602 0
M  V30 11534 O 1357.47 -5.68647 -1.97291 0
M  V30 11535 H 1361.3 -3.03699 0.00621365 0
M  V30 11536 H 1358.88 -1.49242 0.0687684 0
M  V30 11537 H 1360.76 -3.45652 -2.41045 0
M  V30 11538 H 1359.44 -2.26462 -2.31294 0
M  V30 11539 H 1358.35 -3.70749 -0.499625 0
M  V30 11540 H 1359.68 -4.87524 -0.676858 0
M  V30 11541 N 1361.33 -0.0301034 -1.57571 0
M  V30 11542 C 1362.58 0.649283 -1.92125 0
M  V30 11543 C 1362.91 1.71722 -0.90692 0
M  V30 11544 O 1362.18 1.94373 0.0702019 0
M  V30 11545 C 1362.47 1.26482 -3.37156 0
M  V30 11546 C 1362.32 0.206375 -4.49326 0
M  V30 11547 C 1363.64 2.18256 -3.82168 0
M  V30 11548 H 1360.76 0.234561 -0.698678 0
M  V30 11549 H 1363.4 -0.0875634 -1.89798 0
M  V30 11550 H 1361.55 1.89283 -3.3927 0
M  V30 11551 H 1363.22 -0.424268 -4.59345 0
M  V30 11552 H 1361.47 -0.468035 -4.31268 0
M  V30 11553 H 1362.14 0.676689 -5.47837 0
M  V30 11554 H 1364.61 1.65441 -3.81797 0
M  V30 11555 H 1363.49 2.58277 -4.84339 0
M  V30 11556 H 1363.75 3.07411 -3.17727 0
M  V30 11557 N 1362.81 1.55714 0.243056 0
M  V30 11558 C 1364.06 1.77375 0.968638 0
M  V30 11559 C 1364.38 0.594781 1.85708 0
M  V30 11560 O 1363.65 -0.38928 1.91993 0
M  V30 11561 H 1362.23 0.654174 0.360646 0
M  V30 11562 H 1364.89 1.93157 0.260079 0
M  V30 11563 H 1363.99 2.68674 1.5881 0
M  V30 11564 N 1364.29 -0.50888 1.49158 0
M  V30 11565 C 1365.7 -1.09054 1.51539 0
M  V30 11566 C 1366.05 -1.93938 0.297099 0
M  V30 11567 O 1365.17 -2.08092 -0.593849 0
M  V30 11568 C 1365.77 -1.98447 2.74599 0
M  V30 11569 C 1364.33 -2.5179 2.79783 0
M  V30 11570 C 1363.47 -1.29227 2.45348 0
M  V30 11571 H 1366.43 -0.293148 1.55969 0
M  V30 11572 H 1366.45 -2.83028 2.54314 0
M  V30 11573 H 1365.96 -1.3664 3.63251 0
M  V30 11574 H 1364.06 -3.17258 1.95392 0
M  V30 11575 H 1364.17 -2.89481 3.81756 0
M  V30 11576 H 1362.54 -1.61494 1.96957 0
M  V30 11577 H 1363.32 -0.6914 3.36266 0
M  V30 11578 N 1365.76 -1.381 -0.759346 0
M  V30 11579 C 1367.18 -1.30379 -1.33635 0
M  V30 11580 C 1367.53 0.0430279 -1.96153 0
M  V30 11581 O 1366.65 0.945029 -1.94675 0
M  V30 11582 C 1367.25 -2.3611 -2.42976 0
M  V30 11583 C 1365.81 -2.31985 -2.96412 0
M  V30 11584 C 1364.95 -2.19281 -1.69739 0
M  V30 11585 H 1367.9 -1.48542 -0.558656 0
M  V30 11586 H 1367.92 -2.01493 -3.22771 0
M  V30 11587 H 1367.44 -3.34122 -1.97445 0
M  V30 11588 H 1365.54 -1.37536 -3.46287 0
M  V30 11589 H 1365.65 -3.25895 -3.51183 0
M  V30 11590 H 1364.01 -1.66035 -1.93144 0
M  V30 11591 H 1364.8 -3.19225 -1.26293 0
M  V30 11592 N 1367.24 0.986894 -1.22875 0
M  V30 11593 C 1368.49 1.72388 -1.05484 0
M  V30 11594 C 1368.81 1.90639 0.410074 0
M  V30 11595 O 1368.08 1.47036 1.2945 0
M  V30 11596 H 1366.66 0.638732 -0.387337 0
M  V30 11597 H 1369.32 1.18829 -1.54485 0
M  V30 11598 H 1368.42 2.71599 -1.53754 0
M  V30 11599 N 1368.72 1.0394 1.18466 0
M  V30 11600 C 1370.13 0.77011 1.70077 0
M  V30 11601 C 1370.48 -0.70916 1.82935 0
M  V30 11602 O 1369.61 -1.55209 1.50795 0
M  V30 11603 C 1370.2 1.39132 3.08914 0
M  V30 11604 C 1368.76 1.17037 3.57742 0
M  V30 11605 C 1367.91 1.48279 2.34326 0
M  V30 11606 H 1370.86 1.20598 1.03159 0
M  V30 11607 H 1370.88 0.793861 3.72126 0
M  V30 11608 H 1370.39 2.46795 2.99523 0
M  V30 11609 H 1368.49 0.112435 3.7243 0
M  V30 11610 H 1368.61 1.8665 4.41247 0
M  V30 11611 H 1366.97 0.902438 2.38177 0
M  V30 11612 H 1367.75 2.57047 2.27556 0
M  V30 11613 N 1370.2 -1.34667 0.818693 0
M  V30 11614 C 1371.61 -1.80839 0.46414 0
M  V30 11615 C 1371.96 -1.67902 -1.01506 0
M  V30 11616 O 1371.09 -1.21658 -1.78964 0
M  V30 11617 C 1371.68 -3.28331 0.835698 0
M  V30 11618 C 1370.24 -3.72599 0.533575 0
M  V30 11619 C 1369.39 -2.56452 1.05487 0
M  V30 11620 H 1372.34 -1.22474 1.00925 0
M  V30 11621 H 1372.36 -3.8025 0.13785 0
M  V30 11622 H 1371.87 -3.37715 1.91233 0
M  V30 11623 H 1369.97 -3.68756 -0.533819 0
M  V30 11624 H 1370.08 -4.66891 1.07468 0
M  V30 11625 H 1368.45 -2.50201 0.476612 0
M  V30 11626 H 1369.23 -2.68608 2.13786 0
M  V30 11627 N 1371.68 -0.573274 -1.46804 0
M  V30 11628 C 1372.92 -0.0551522 -2.02025 0
M  V30 11629 C 1373.25 1.30577 -1.44826 0
M  V30 11630 O 1372.52 1.85514 -0.629403 0
M  V30 11631 H 1371.1 -0.0173982 -0.746797 0
M  V30 11632 H 1373.76 -0.746919 -1.8002 0
M  V30 11633 H 1372.85 0.0209326 -3.12093 0
M  V30 11634 N 1373.15 1.5451 -0.310553 0
M  V30 11635 C 1374.57 1.85829 0.180166 0
M  V30 11636 C 1374.92 1.23239 1.52665 0
M  V30 11637 O 1374.04 0.53359 2.09718 0
M  V30 11638 C 1374.64 3.37153 0.333687 0
M  V30 11639 C 1373.2 3.68469 0.768625 0
M  V30 11640 C 1372.34 2.77051 -0.117399 0
M  V30 11641 H 1375.29 1.49544 -0.531262 0
M  V30 11642 H 1375.31 3.62171 1.16673 0
M  V30 11643 H 1374.83 3.82678 -0.646455 0
M  V30 11644 H 1372.93 3.28467 1.75898 0
M  V30 11645 H 1373.04 4.75559 0.581392 0
M  V30 11646 H 1371.4 2.51461 0.404905 0
M  V30 11647 H 1372.19 3.254 -1.09407 0
M  V30 11648 N 1374.63 0.0384594 1.57553 0
M  V30 11649 C 1375.6 -0.925358 2.0969 0
M  V30 11650 C 1376.6 -1.24811 1.01385 0
M  V30 11651 O 1377.79 -1.1869 1.27508 0
M  V30 11652 C 1374.92 -2.2391 2.57055 0
M  V30 11653 H 1376.11 -0.473633 2.96136 0
M  V30 11654 H 1373.66 -0.209736 1.54886 0
M  V30 11655 H 1374.4 -2.73691 1.73964 0
M  V30 11656 H 1374.18 -2.01793 3.36188 0
M  V30 11657 H 1375.67 -2.92974 2.97583 0
M  V30 11658 N 1376.11 -1.55841 -0.234795 0
M  V30 11659 C 1377.36 -1.77886 -0.959217 0
M  V30 11660 C 1377.68 -0.604621 -1.8539 0
M  V30 11661 O 1376.95 0.379092 -1.92197 0
M  V30 11662 H 1375.53 -0.656077 -0.357172 0
M  V30 11663 H 1378.19 -1.93292 -0.249831 0
M  V30 11664 H 1377.29 -2.69512 -1.57383 0
M  V30 11665 N 1377.59 0.500963 -1.49426 0
M  V30 11666 C 1378.5 1.62889 -1.68833 0
M  V30 11667 C 1379.52 1.64367 -0.570932 0
M  V30 11668 O 1380.69 1.82786 -0.845641 0
M  V30 11669 C 1377.76 2.99255 -1.75063 0
M  V30 11670 C 1376.82 3.08404 -2.9864 0
M  V30 11671 C 1376.05 4.38266 -3.04564 0
M  V30 11672 O 1376.27 5.27065 -2.1808 0
M  V30 11673 O 1375.21 4.52387 -3.97026 0
M  V30 11674 H 1379.03 1.49446 -2.64385 0
M  V30 11675 H 1376.62 0.677254 -1.33168 0
M  V30 11676 H 1378.5 3.80303 -1.81515 0
M  V30 11677 H 1377.18 3.1296 -0.826896 0
M  V30 11678 H 1376.08 2.26544 -2.97706 0
M  V30 11679 H 1377.42 2.99626 -3.90494 0
M  V30 11680 N 1379.07 1.38501 0.752011 0
M  V30 11681 C 1380.01 1.35857 1.86578 0
M  V30 11682 C 1380.98 0.220873 1.64625 0
M  V30 11683 O 1382.17 0.413348 1.86269 0
M  V30 11684 C 1379.31 1.19102 3.23896 0
M  V30 11685 C 1378.42 2.42272 3.5767 0
M  V30 11686 C 1377.56 2.18236 4.843 0
M  V30 11687 C 1376.6 3.37169 5.10865 0
M  V30 11688 N 1375.73 3.12558 6.28691 0
M  V30 11689 H 1380.57 2.31073 1.88173 0
M  V30 11690 H 1378.11 1.14803 0.919712 0
M  V30 11691 H 1380.07 1.07404 4.03138 0
M  V30 11692 H 1378.7 0.275243 3.21624 0
M  V30 11693 H 1377.75 2.64638 2.7326 0
M  V30 11694 H 1379.06 3.3091 3.73229 0
M  V30 11695 H 1378.22 2.03682 5.71488 0
M  V30 11696 H 1376.96 1.26966 4.70883 0
M  V30 11697 H 1375.96 3.52241 4.22145 0
M  V30 11698 H 1377.19 4.29317 5.26178 0
M  V30 11699 H 1375.13 2.23937 6.16594 0
M  V30 11700 H 1375.05 3.94746 6.44757 0
M  V30 11701 H 1376.32 3.01663 7.18763 0
M  V30 11702 N 1380.55 -0.980364 1.23396 0
M  V30 11703 C 1381.79 -1.71826 1.06397 0
M  V30 11704 C 1382.11 -1.90854 -0.399958 0
M  V30 11705 O 1381.38 -1.47721 -1.28668 0
M  V30 11706 H 1379.96 -0.636669 0.390719 0
M  V30 11707 H 1382.63 -1.18008 1.55113 0
M  V30 11708 H 1381.72 -2.7078 1.55192 0
M  V30 11709 N 1382.02 -1.04567 -1.17913 0
M  V30 11710 C 1383.25 -0.772146 -1.92491 0
M  V30 11711 C 1383.67 0.665297 -1.75942 0
M  V30 11712 O 1383.03 1.46144 -1.07292 0
M  V30 11713 C 1383.08 -1.14966 -3.41782 0
M  V30 11714 O 1382.18 -0.278091 -4.11461 0
M  V30 11715 H 1381.52 -0.283715 -0.600335 0
M  V30 11716 H 1384.05 -1.39685 -1.49496 0
M  V30 11717 H 1384.06 -1.11374 -3.92505 0
M  V30 11718 H 1382.74 -2.1968 -3.53148 0
M  V30 11719 H 1381.32 -0.374073 -3.71019 0
M  V30 11720 N 1383.5 1.34231 -0.825823 0
M  V30 11721 C 1384.91 1.8059 -0.473724 0
M  V30 11722 C 1385.26 1.68438 1.00614 0
M  V30 11723 O 1384.39 1.22606 1.78317 0
M  V30 11724 C 1384.98 3.27884 -0.853099 0
M  V30 11725 C 1383.54 3.72311 -0.553327 0
M  V30 11726 C 1382.69 2.55889 -1.06845 0
M  V30 11727 H 1385.64 1.21937 -1.01573 0
M  V30 11728 H 1385.66 3.80172 -0.158014 0
M  V30 11729 H 1385.17 3.36696 -1.93021 0
M  V30 11730 H 1383.27 3.69034 0.514256 0
M  V30 11731 H 1383.39 4.66315 -1.09942 0
M  V30 11732 H 1381.75 2.49945 -0.489874 0
M  V30 11733 H 1382.53 2.67471 -2.15207 0
M  V30 11734 N 1384.98 0.581051 1.46498 0
M  V30 11735 C 1386.23 0.0658652 2.01993 0
M  V30 11736 C 1386.55 -1.29807 1.45516 0
M  V30 11737 O 1385.82 -1.85177 0.639233 0
M  V30 11738 H 1384.4 0.0213584 0.746695 0
M  V30 11739 H 1387.06 0.756456 1.79621 0
M  V30 11740 H 1386.16 -0.00438128 3.121 0
M  V30 11741 N 1386.46 -1.54343 0.318742 0
M  V30 11742 C 1387.42 -2.22828 -0.536679 0
M  V30 11743 C 1388.42 -1.22013 -1.04735 0
M  V30 11744 O 1389.61 -1.46626 -0.940549 0
M  V30 11745 C 1386.74 -2.92857 -1.74493 0
M  V30 11746 H 1387.94 -2.99836 0.0619325 0
M  V30 11747 H 1385.49 -1.56144 0.0697687 0
M  V30 11748 H 1386.22 -2.19973 -2.3829 0
M  V30 11749 H 1386.01 -3.66779 -1.38621 0
M  V30 11750 H 1387.5 -3.45049 -2.35225 0
M  V30 11751 N 1387.94 -0.0468143 -1.5753 0
M  V30 11752 C 1389.21 0.667567 -1.83856 0
M  V30 11753 C 1389.59 1.89297 -0.934346 0
M  V30 11754 O 1388.94 2.28499 0.00570067 0
M  V30 11755 C 1389.15 1.029 -3.33485 0
M  V30 11756 C 1390.5 1.41315 -4.00394 0
M  V30 11757 O 1391.52 1.12147 -3.38085 0
M  V30 11758 O 1390.38 1.95732 -5.10246 0
M  V30 11759 H 1387.48 0.329112 -0.758692 0
M  V30 11760 H 1390.02 -0.0758456 -1.6953 0
M  V30 11761 H 1388.79 0.157617 -3.90982 0
M  V30 11762 H 1388.42 1.83 -3.52982 0
M  V30 11763 N 1389.41 1.55964 0.226527 0
M  V30 11764 C 1390.66 1.78392 0.94977 0
M  V30 11765 C 1390.98 0.614444 1.85066 0
M  V30 11766 O 1390.25 -0.368894 1.92395 0
M  V30 11767 H 1388.83 0.657962 0.353688 0
M  V30 11768 H 1391.5 1.93422 0.239577 0
M  V30 11769 H 1390.59 2.70343 1.55952 0
M  V30 11770 N 1390.89 -0.493031 1.4969 0
M  V30 11771 C 1392.3 -1.0744 1.52688 0
M  V30 11772 C 1392.65 -1.93612 0.317652 0
M  V30 11773 O 1391.78 -2.0871 -0.571745 0
M  V30 11774 C 1392.37 -1.95523 2.76688 0
M  V30 11775 C 1390.93 -2.48808 2.82438 0
M  V30 11776 C 1390.08 -1.26617 2.46705 0
M  V30 11777 H 1393.03 -0.276589 1.56271 0
M  V30 11778 H 1393.05 -2.80315 2.57301 0
M  V30 11779 H 1392.56 -1.32779 3.6468 0
M  V30 11780 H 1390.67 -3.15168 1.98746 0
M  V30 11781 H 1390.78 -2.85416 3.84805 0
M  V30 11782 H 1389.14 -1.59396 1.98658 0
M  V30 11783 H 1389.93 -0.655695 3.3698 0
M  V30 11784 N 1392.37 -1.38898 -0.744656 0
M  V30 11785 C 1393.33 -1.36633 -1.84022 0
M  V30 11786 C 1394.33 -0.265187 -1.58598 0
M  V30 11787 O 1395.52 -0.522569 -1.66177 0
M  V30 11788 C 1392.66 -1.12938 -3.21649 0
M  V30 11789 H 1393.85 -2.34111 -1.87435 0
M  V30 11790 H 1391.4 -1.24322 -0.947302 0
M  V30 11791 H 1392.14 -0.161027 -3.239 0
M  V30 11792 H 1391.92 -1.9267 -3.41498 0
M  V30 11793 H 1393.41 -1.14071 -4.01718 0
M  V30 11794 N 1393.85 0.973806 -1.23914 0
M  V30 11795 C 1395.1 1.71259 -1.07307 0
M  V30 11796 C 1395.42 1.91064 0.389831 0
M  V30 11797 O 1394.69 1.48401 1.27883 0
M  V30 11798 H 1393.27 0.634588 -0.39409 0
M  V30 11799 H 1395.93 1.17184 -1.55737 0
M  V30 11800 H 1395.03 2.69953 -1.56626 0
M  V30 11801 N 1395.33 1.05191 1.17357 0
M  V30 11802 C 1396.29 0.65713 2.19578 0
M  V30 11803 C 1397.29 -0.29138 1.58138 0
M  V30 11804 O 1398.48 -0.075254 1.74037 0
M  V30 11805 C 1395.61 -0.0348162 3.40882 0
M  V30 11806 H 1396.8 1.56188 2.56018 0
M  V30 11807 H 1394.36 0.845795 1.31438 0
M  V30 11808 H 1395.09 -0.952835 3.09986 0
M  V30 11809 H 1394.88 0.647076 3.86724 0
M  V30 11810 H 1396.37 -0.297135 4.16542 0
M  V30 11811 N 1396.8 -1.33791 0.83293 0
M  V30 11812 C 1398.22 -1.80336 0.483294 0
M  V30 11813 C 1398.57 -1.68969 -0.997195 0
M  V30 11814 O 1397.69 -1.23549 -1.77664 0
M  V30 11815 C 1398.29 -3.27427 0.870475 0
M  V30 11816 C 1396.85 -3.72012 0.573064 0
M  V30 11817 C 1395.99 -2.55319 1.08201 0
M  V30 11818 H 1398.94 -1.21396 1.02218 0
M  V30 11819 H 1398.96 -3.80083 0.178173 0
M  V30 11820 H 1398.48 -3.35668 1.94804 0
M  V30 11821 H 1396.58 -3.69302 -0.494678 0
M  V30 11822 H 1396.69 -4.65725 1.12414 0
M  V30 11823 H 1395.05 -2.49681 0.503123 0
M  V30 11824 H 1395.84 -2.66326 2.16623 0
M  V30 11825 N 1398.28 -0.588812 -1.46187 0
M  V30 11826 C 1399.53 -0.0765765 -2.01955 0
M  V30 11827 C 1399.85 1.29034 -1.46203 0
M  V30 11828 O 1399.12 1.84836 -0.649044 0
M  V30 11829 H 1397.7 -0.025318 -0.746571 0
M  V30 11830 H 1400.36 -0.765971 -1.79217 0
M  V30 11831 H 1399.46 -0.0121702 -3.12098 0
M  V30 11832 N 1399.76 1.54172 -0.326923 0
M  V30 11833 C 1400.99 2.05044 0.276508 0
M  V30 11834 C 1401.4 1.20288 1.45521 0
M  V30 11835 O 1400.76 0.234324 1.80989 0
M  V30 11836 C 1400.81 3.54505 0.707714 0
M  V30 11837 O 1400.53 4.36042 -0.424098 0
M  V30 11838 C 1402.03 4.21482 1.3736 0
M  V30 11839 H 1399.25 0.668632 0.0563273 0
M  V30 11840 H 1401.8 1.98929 -0.474087 0
M  V30 11841 H 1399.95 3.60896 1.40828 0
M  V30 11842 H 1400.37 5.24433 -0.0836846 0
M  V30 11843 H 1401.84 5.27501 1.62623 0
M  V30 11844 H 1402.32 3.72802 2.32196 0
M  V30 11845 H 1402.92 4.19238 0.715526 0
M  V30 11846 N 1401.24 0.0551678 1.57503 0
M  V30 11847 C 1402.65 -0.479948 1.80426 0
M  V30 11848 C 1403 -1.70673 0.967733 0
M  V30 11849 O 1402.13 -2.15604 0.185462 0
M  V30 11850 C 1402.72 -0.877496 3.27239 0
M  V30 11851 C 1401.28 -1.35757 3.51066 0
M  V30 11852 C 1400.43 -0.334681 2.75273 0
M  V30 11853 H 1403.38 0.281016 1.56192 0
M  V30 11854 H 1403.4 -1.74013 3.38378 0
M  V30 11855 H 1402.91 0.015571 3.88097 0
M  V30 11856 H 1401.01 -2.26969 2.95492 0
M  V30 11857 H 1401.12 -1.34697 4.59776 0
M  V30 11858 H 1399.49 -0.808421 2.4153 0
M  V30 11859 H 1400.27 0.550369 3.3886 0
M  V30 11860 N 1402.72 -1.56081 -0.218252 0
M  V30 11861 C 1403.96 -1.78893 -0.940296 0
M  V30 11862 C 1404.29 -0.62425 -1.84738 0
M  V30 11863 O 1403.56 0.358686 -1.92588 0
M  V30 11864 H 1402.14 -0.659828 -0.350193 0
M  V30 11865 H 1404.8 -1.93546 -0.229316 0
M  V30 11866 H 1403.89 -2.71167 -1.54516 0
M  V30 11867 N 1404.2 0.485086 -1.49949 0
M  V30 11868 C 1405.61 1.06629 -1.53255 0
M  V30 11869 C 1405.96 1.9344 -0.327915 0
M  V30 11870 O 1405.08 2.09011 0.560669 0
M  V30 11871 C 1405.68 1.94053 -2.77721 0
M  V30 11872 C 1404.24 2.47307 -2.83754 0
M  V30 11873 C 1403.38 1.25307 -2.47373 0
M  V30 11874 H 1406.33 0.268297 -1.56416 0
M  V30 11875 H 1406.36 2.78946 -2.58784 0
M  V30 11876 H 1405.87 1.30843 -3.65379 0
M  V30 11877 H 1403.97 3.1411 -2.00414 0
M  V30 11878 H 1404.08 2.83371 -3.86313 0
M  V30 11879 H 1402.45 1.5834 -1.99501 0
M  V30 11880 H 1403.23 0.637815 -3.37323 0
M  V30 11881 N 1405.67 1.39291 0.737279 0
M  V30 11882 C 1406.61 1.33728 1.86144 0
M  V30 11883 C 1407.62 0.246468 1.60924 0
M  V30 11884 O 1408.81 0.505252 1.712 0
M  V30 11885 C 1405.91 1.05312 3.22122 0
M  V30 11886 C 1405.08 2.25624 3.74716 0
M  V30 11887 C 1404.14 1.937 4.89251 0
M  V30 11888 O 1403.17 2.66361 5.03031 0
M  V30 11889 N 1404.37 0.901782 5.73453 0
M  V30 11890 H 1407.13 2.30604 1.91421 0
M  V30 11891 H 1404.69 1.33364 0.917919 0
M  V30 11892 H 1406.69 0.819784 3.9631 0
M  V30 11893 H 1405.26 0.171773 3.12128 0
M  V30 11894 H 1404.48 2.64923 2.91906 0
M  V30 11895 H 1405.76 3.05881 4.06589 0
M  V30 11896 H 1405.16 0.299553 5.64906 0
M  V30 11897 H 1403.72 0.728344 6.47718 0
M  V30 11898 N 1407.15 -0.967221 1.24429 0
M  V30 11899 C 1408.4 -1.70688 1.08213 0
M  V30 11900 C 1408.72 -1.91268 -0.379693 0
M  V30 11901 O 1407.99 -1.49077 -1.27094 0
M  V30 11902 H 1406.57 -0.632489 0.39745 0
M  V30 11903 H 1409.23 -1.16356 1.56356 0
M  V30 11904 H 1408.33 -2.69119 1.58055 0
M  V30 11905 N 1408.63 -1.05812 -1.16797 0
M  V30 11906 C 1409.88 -0.767008 -1.86547 0
M  V30 11907 C 1410.19 0.708979 -1.82299 0
M  V30 11908 O 1411.4 1.11428 -2.4758 0
M  V30 11909 C 1409.85 -1.32186 -3.34746 0
M  V30 11910 C 1409.46 -2.82774 -3.4748 0
M  V30 11911 C 1411.21 -1.10808 -4.09783 0
M  V30 11912 C 1409.11 -3.31529 -4.89737 0
M  V30 11913 H 1408.04 -0.283235 -0.698781 0
M  V30 11914 H 1410.69 -1.27621 -1.31853 0
M  V30 11915 H 1409.08 -0.740453 -3.89016 0
M  V30 11916 H 1410.25 -3.46825 -3.03396 0
M  V30 11917 H 1408.56 -3.02765 -2.85871 0
M  V30 11918 H 1411.16 -1.44728 -5.14741 0
M  V30 11919 H 1411.5 -0.046167 -4.16274 0
M  V30 11920 H 1412.04 -1.65502 -3.61737 0
M  V30 11921 H 1408.78 -4.37177 -4.88422 0
M  V30 11922 H 1408.3 -2.72224 -5.34466 0
M  V30 11923 H 1409.98 -3.26572 -5.58534 0
M  V30 11924 N 1410.11 1.33347 -0.840014 0
M  V30 11925 C 1411.07 2.27492 -0.279264 0
M  V30 11926 C 1412.07 1.51004 0.552669 0
M  V30 11927 O 1413.26 1.70305 0.366295 0
M  V30 11928 C 1410.39 3.35462 0.606466 0
M  V30 11929 H 1411.59 2.78601 -1.11001 0
M  V30 11930 H 1409.14 1.4377 -0.613187 0
M  V30 11931 H 1409.87 2.89596 1.45961 0
M  V30 11932 H 1409.66 3.92098 0.0111889 0
M  V30 11933 H 1411.15 4.05645 0.992052 0
M  V30 11934 N 1411.59 0.596556 1.45873 0
M  V30 11935 C 1412.83 0.0872856 2.01911 0
M  V30 11936 C 1413.15 -1.28257 1.46885 0
M  V30 11937 O 1412.42 -1.84489 0.658837 0
M  V30 11938 H 1411 0.0292769 0.746426 0
M  V30 11939 H 1413.67 0.775464 1.78809 0
M  V30 11940 H 1412.76 0.0287213 3.12087 0
M  V30 11941 N 1413.06 -1.53996 0.335095 0
M  V30 11942 C 1414 -2.22258 -0.559809 0
M  V30 11943 C 1415.01 -1.22636 -1.07071 0
M  V30 11944 O 1416.2 -1.4904 -0.982312 0
M  V30 11945 C 1413.3 -2.88256 -1.78218 0
M  V30 11946 C 1412.47 -4.14118 -1.40801 0
M  V30 11947 C 1411.53 -4.63603 -2.48915 0
M  V30 11948 O 1410.56 -5.28015 -2.12576 0
M  V30 11949 N 1411.76 -4.3881 -3.80034 0
M  V30 11950 H 1414.52 -2.9969 0.0247521 0
M  V30 11951 H 1412.08 -1.61119 0.158826 0
M  V30 11952 H 1414.08 -3.1828 -2.4996 0
M  V30 11953 H 1412.65 -2.14461 -2.27431 0
M  V30 11954 H 1411.87 -3.90732 -0.521729 0
M  V30 11955 H 1413.15 -4.96005 -1.13388 0
M  V30 11956 H 1412.55 -3.87278 -4.12349 0
M  V30 11957 H 1411.11 -4.73461 -4.47971 0
M  V30 11958 N 1414.54 -0.0635198 -1.57472 0
M  V30 11959 C 1415.96 0.293084 -1.56886 0
M  V30 11960 C 1416.16 1.70603 -1.07224 0
M  V30 11961 O 1415.21 2.41584 -0.734388 0
M  V30 11962 C 1416.53 0.110286 -3.00498 0
M  V30 11963 C 1418.07 0.180453 -3.12479 0
M  V30 11964 C 1418.55 0.0260354 -4.57993 0
M  V30 11965 N 1420.04 0.0819109 -4.63128 0
M  V30 11966 C 1420.78 -0.0132764 -5.73398 0
M  V30 11967 N 1420.27 -0.161514 -6.92612 0
M  V30 11968 N 1422.06 0.0431948 -5.62083 0
M  V30 11969 H 1414.22 -0.98706 -1.88072 0
M  V30 11970 H 1416.48 -0.384232 -0.866643 0
M  V30 11971 H 1416.18 -0.864378 -3.40913 0
M  V30 11972 H 1416.06 0.866117 -3.67122 0
M  V30 11973 H 1418.45 1.1456 -2.71956 0
M  V30 11974 H 1418.53 -0.606342 -2.4851 0
M  V30 11975 H 1418.17 -0.935839 -4.99204 0
M  V30 11976 H 1418.1 0.832131 -5.19984 0
M  V30 11977 H 1420.59 0.195229 -3.77395 0
M  V30 11978 H 1420.9 -0.226517 -7.72468 0
M  V30 11979 H 1419.25 -0.196766 -6.94721 0
M  V30 11980 H 1422.44 0.157648 -4.67834 0
M  V30 11981 H 1422.61 -0.0344435 -6.47991 0
M  V30 11982 N 1416.02 1.56195 0.209972 0
M  V30 11983 C 1417.27 1.7939 0.930796 0
M  V30 11984 C 1417.59 0.634038 1.84404 0
M  V30 11985 O 1416.86 -0.348467 1.92776 0
M  V30 11986 H 1415.44 0.661676 0.346689 0
M  V30 11987 H 1418.1 1.93665 0.219049 0
M  V30 11988 H 1417.2 2.71982 1.53075 0
M  V30 11989 N 1417.5 -0.477127 1.50204 0
M  V30 11990 C 1418.74 -1.23147 1.6113 0
M  V30 11991 C 1419.08 -1.91743 0.307909 0
M  V30 11992 O 1418.35 -1.81841 -0.690223 0
M  V30 11993 C 1418.63 -2.27985 2.78738 0
M  V30 11994 C 1418.49 -1.63733 4.18941 0
M  V30 11995 C 1419.81 -3.29349 2.9192 0
M  V30 11996 H 1416.93 -0.446358 0.586459 0
M  V30 11997 H 1419.57 -0.52612 1.8257 0
M  V30 11998 H 1417.72 -2.88143 2.60588 0
M  V30 11999 H 1419.39 -1.07218 4.48667 0
M  V30 12000 H 1417.63 -0.940634 4.23479 0
M  V30 12001 H 1418.3 -2.39888 4.9715 0
M  V30 12002 H 1420.78 -2.79208 3.08516 0
M  V30 12003 H 1419.66 -4.0004 3.75845 0
M  V30 12004 H 1419.92 -3.93111 2.02278 0
M  V30 12005 N 1418.98 -1.3968 -0.729882 0
M  V30 12006 C 1420.22 -1.37385 -1.49175 0
M  V30 12007 C 1420.56 0.0285839 -1.94179 0
M  V30 12008 O 1419.83 0.994516 -1.67152 0
M  V30 12009 C 1420.11 -2.35075 -2.72785 0
M  V30 12010 C 1419.97 -3.84282 -2.33767 0
M  V30 12011 C 1421.29 -2.30515 -3.74901 0
M  V30 12012 H 1418.4 -0.500359 -0.541119 0
M  V30 12013 H 1421.05 -1.7071 -0.834152 0
M  V30 12014 H 1419.2 -2.06787 -3.28894 0
M  V30 12015 H 1420.87 -4.2334 -1.8325 0
M  V30 12016 H 1419.11 -4.00809 -1.65935 0
M  V30 12017 H 1419.78 -4.48131 -3.22309 0
M  V30 12018 H 1422.26 -2.55539 -3.28389 0
M  V30 12019 H 1421.13 -3.00939 -4.5905 0
M  V30 12020 H 1421.4 -1.3119 -4.22187 0
M  V30 12021 N 1420.45 0.960609 -1.2494 0
M  V30 12022 C 1421.7 1.70111 -1.09117 0
M  V30 12023 C 1422.02 1.91466 0.369544 0
M  V30 12024 O 1421.29 1.49749 1.26302 0
M  V30 12025 H 1419.87 0.630372 -0.400799 0
M  V30 12026 H 1422.54 1.15525 -1.56971 0
M  V30 12027 H 1421.63 2.68277 -1.5948 0
M  V30 12028 N 1421.93 1.0643 1.16234 0
M  V30 12029 C 1422.86 0.697605 2.22836 0
M  V30 12030 C 1423.84 -0.310563 1.67241 0
M  V30 12031 O 1425.03 -0.185385 1.93313 0
M  V30 12032 C 1422.16 0.0847097 3.47197 0
M  V30 12033 C 1421.11 1.019 4.15693 0
M  V30 12034 C 1420.44 0.269339 5.34021 0
M  V30 12035 C 1421.74 2.34861 4.66516 0
M  V30 12036 H 1423.43 1.58883 2.53765 0
M  V30 12037 H 1420.98 0.765388 1.21975 0
M  V30 12038 H 1422.93 -0.1837 4.20999 0
M  V30 12039 H 1421.66 -0.84154 3.15572 0
M  V30 12040 H 1420.31 1.27218 3.43818 0
M  V30 12041 H 1419.96 -0.660072 4.9865 0
M  V30 12042 H 1419.66 0.892001 5.8079 0
M  V30 12043 H 1421.19 0.00850775 6.10599 0
M  V30 12044 H 1422.6 2.13922 5.31893 0
M  V30 12045 H 1421 2.92637 5.23912 0
M  V30 12046 H 1422.07 2.97834 3.82653 0
M  V30 12047 N 1423.41 -1.329 0.847073 0
M  V30 12048 C 1424.82 -1.79813 0.502394 0
M  V30 12049 C 1425.17 -1.70017 -0.979218 0
M  V30 12050 O 1424.3 -1.25427 -1.76344 0
M  V30 12051 C 1424.89 -3.26485 0.905154 0
M  V30 12052 C 1423.45 -3.71383 0.612489 0
M  V30 12053 C 1422.6 -2.54157 1.10903 0
M  V30 12054 H 1425.55 -1.20306 1.035 0
M  V30 12055 H 1425.57 -3.79872 0.218476 0
M  V30 12056 H 1425.08 -3.33583 1.98353 0
M  V30 12057 H 1423.18 -3.69806 -0.45548 0
M  V30 12058 H 1423.3 -4.64507 1.17347 0
M  V30 12059 H 1421.66 -2.49134 0.529576 0
M  V30 12060 H 1422.44 -2.64013 2.19435 0
M  V30 12061 N 1424.89 -0.604284 -1.45555 0
M  V30 12062 C 1426.14 -0.0979922 -2.01862 0
M  V30 12063 C 1426.46 1.27476 -1.47563 0
M  V30 12064 O 1425.73 1.84137 -0.668612 0
M  V30 12065 H 1424.31 -0.033235 -0.74626 0
M  V30 12066 H 1426.97 -0.784936 -1.78395 0
M  V30 12067 H 1426.07 -0.0452716 -3.12067 0
M  V30 12068 N 1426.37 1.53816 -0.343257 0
M  V30 12069 C 1427.3 2.22552 0.548015 0
M  V30 12070 C 1428.31 1.23202 1.06419 0
M  V30 12071 O 1429.5 1.49559 0.974394 0
M  V30 12072 C 1426.6 2.89197 1.76687 0
M  V30 12073 C 1425.77 4.14859 1.38603 0
M  V30 12074 C 1424.83 4.64917 2.46453 0
M  V30 12075 O 1423.86 5.29135 2.09773 0
M  V30 12076 N 1425.06 4.4082 3.77701 0
M  V30 12077 H 1427.83 2.99672 -0.040645 0
M  V30 12078 H 1425.39 1.61033 -0.167368 0
M  V30 12079 H 1427.38 3.19601 2.48268 0
M  V30 12080 H 1425.95 2.15664 2.26291 0
M  V30 12081 H 1425.17 3.91003 0.501001 0
M  V30 12082 H 1426.46 4.96599 1.10756 0
M  V30 12083 H 1425.85 3.8946 4.1029 0
M  V30 12084 H 1424.41 4.7583 4.45453 0
M  V30 12085 N 1427.84 0.0718701 1.57436 0
M  V30 12086 C 1429.26 -0.28476 1.57039 0
M  V30 12087 C 1429.46 -1.70032 1.08127 0
M  V30 12088 O 1428.52 -2.41191 0.747189 0
M  V30 12089 C 1429.83 -0.0943482 3.00552 0
M  V30 12090 C 1431.38 -0.163879 3.12571 0
M  V30 12091 C 1431.85 -0.00174658 4.58 0
M  V30 12092 N 1433.34 -0.0573489 4.63164 0
M  V30 12093 C 1434.08 0.0436849 5.73383 0
M  V30 12094 N 1433.57 0.198243 6.92516 0
M  V30 12095 N 1435.37 -0.0133856 5.62098 0
M  V30 12096 H 1427.52 0.99702 1.87545 0
M  V30 12097 H 1429.78 0.388822 0.864593 0
M  V30 12098 H 1429.49 0.882445 3.40449 0
M  V30 12099 H 1429.36 -0.846636 3.67576 0
M  V30 12100 H 1431.75 -1.13116 2.7256 0
M  V30 12101 H 1431.83 0.619513 2.48185 0
M  V30 12102 H 1431.47 0.9623 4.98701 0
M  V30 12103 H 1431.4 -0.804543 5.20418 0
M  V30 12104 H 1433.89 -0.175212 3.77494 0
M  V30 12105 H 1434.21 0.267479 7.72337 0
M  V30 12106 H 1432.55 0.233606 6.94607 0
M  V30 12107 H 1435.74 -0.132835 4.67911 0
M  V30 12108 H 1435.92 0.0688076 6.47963 0
M  V30 12109 N 1429.32 -1.56304 -0.201686 0
M  V30 12110 C 1430.57 -1.79881 -0.921269 0
M  V30 12111 C 1430.89 -0.643809 -1.84065 0
M  V30 12112 O 1430.16 0.338239 -1.92958 0
M  V30 12113 H 1428.74 -0.663506 -0.343175 0
M  V30 12114 H 1431.4 -1.93779 -0.208775 0
M  V30 12115 H 1430.5 -2.7279 -1.51631 0
M  V30 12116 N 1430.8 0.469154 -1.50455 0
M  V30 12117 C 1431.71 1.59271 -1.7225 0
M  V30 12118 C 1432.73 1.63119 -0.605668 0
M  V30 12119 O 1433.9 1.80952 -0.884222 0
M  V30 12120 C 1430.97 2.95475 -1.81372 0
M  V30 12121 C 1430.03 3.02 -3.05114 0
M  V30 12122 C 1429.26 4.31707 -3.13791 0
M  V30 12123 O 1429.48 5.2232 -2.29211 0
M  V30 12124 O 1428.42 4.43864 -4.06532 0
M  V30 12125 H 1432.24 1.43804 -2.67496 0
M  V30 12126 H 1429.83 0.648855 -1.34574 0
M  V30 12127 H 1431.71 3.76367 -1.89541 0
M  V30 12128 H 1430.39 3.11136 -0.893094 0
M  V30 12129 H 1429.29 2.20178 -3.02444 0
M  V30 12130 H 1430.63 2.91275 -3.96761 0
M  V30 12131 N 1432.28 1.40065 0.722464 0
M  V30 12132 C 1433.69 1.21944 1.02965 0
M  V30 12133 C 1433.89 0.0898069 2.013 0
M  V30 12134 O 1432.95 -0.554519 2.46336 0
M  V30 12135 C 1434.26 2.55848 1.57995 0
M  V30 12136 C 1435.81 2.62801 1.70013 0
M  V30 12137 C 1436.29 3.96957 2.2845 0
M  V30 12138 N 1437.78 3.98662 2.35844 0
M  V30 12139 C 1438.51 4.99248 2.82026 0
M  V30 12140 N 1438.01 6.1023 3.28012 0
M  V30 12141 N 1439.8 4.8662 2.81349 0
M  V30 12142 H 1431.95 2.12283 0.0705301 0
M  V30 12143 H 1434.22 0.943338 0.0938991 0
M  V30 12144 H 1433.92 3.39125 0.932034 0
M  V30 12145 H 1433.8 2.76452 2.5662 0
M  V30 12146 H 1436.18 1.799 2.33923 0
M  V30 12147 H 1436.26 2.46034 0.700062 0
M  V30 12148 H 1435.91 4.80295 1.65164 0
M  V30 12149 H 1435.84 4.1105 3.29158 0
M  V30 12150 H 1438.33 3.18518 2.03358 0
M  V30 12151 H 1438.64 6.82878 3.61797 0
M  V30 12152 H 1436.99 6.13805 3.25988 0
M  V30 12153 H 1440.18 3.99015 2.44755 0
M  V30 12154 H 1440.35 5.65155 3.17024 0
M  V30 12155 N 1433.76 -0.95397 1.25448 0
M  V30 12156 C 1435.01 -1.6953 1.10018 0
M  V30 12157 C 1435.33 -1.9166 -0.359385 0
M  V30 12158 O 1434.6 -1.50417 -1.25506 0
M  V30 12159 H 1433.18 -0.628238 0.404136 0
M  V30 12160 H 1435.84 -1.14691 1.57581 0
M  V30 12161 H 1434.93 -2.67427 1.60901 0
M  V30 12162 N 1435.24 -1.07045 -1.15668 0
M  V30 12163 C 1436.48 -0.791735 -1.86381 0
M  V30 12164 C 1436.81 0.682084 -1.82148 0
M  V30 12165 O 1436.07 1.51617 -1.23737 0
M  V30 12166 C 1436.36 -1.24127 -3.35153 0
M  V30 12167 C 1436.03 -2.72051 -3.59582 0
M  V30 12168 C 1434.69 -3.12455 -3.65958 0
M  V30 12169 C 1437.04 -3.67547 -3.69538 0
M  V30 12170 C 1434.37 -4.4718 -3.79799 0
M  V30 12171 C 1436.72 -5.02029 -3.84902 0
M  V30 12172 C 1435.39 -5.42059 -3.89523 0
M  V30 12173 H 1434.66 -0.289717 -0.682016 0
M  V30 12174 H 1437.31 -1.34091 -1.36718 0
M  V30 12175 H 1435.61 -0.611428 -3.87 0
M  V30 12176 H 1437.31 -1.00256 -3.88265 0
M  V30 12177 H 1433.9 -2.39771 -3.55257 0
M  V30 12178 H 1438.08 -3.3746 -3.63915 0
M  V30 12179 H 1433.34 -4.77668 -3.81632 0
M  V30 12180 H 1437.51 -5.75902 -3.91548 0
M  V30 12181 H 1435.14 -6.46455 -4 0
M  V30 12182 N 1436.71 1.32449 -0.85411 0
M  V30 12183 C 1438.12 1.79545 -0.511923 0
M  V30 12184 C 1438.48 1.70534 0.970188 0
M  V30 12185 O 1437.6 1.2636 1.75676 0
M  V30 12186 C 1438.2 3.26 -0.922456 0
M  V30 12187 C 1436.75 3.71053 -0.632176 0
M  V30 12188 C 1435.9 2.53565 -1.12249 0
M  V30 12189 H 1438.85 1.19755 -1.04137 0
M  V30 12190 H 1438.87 3.79751 -0.238618 0
M  V30 12191 H 1438.39 3.32526 -2.00119 0
M  V30 12192 H 1436.49 3.70042 0.435862 0
M  V30 12193 H 1436.6 4.63878 -1.19809 0
M  V30 12194 H 1434.96 2.48849 -0.542781 0
M  V30 12195 H 1435.75 2.62846 -2.20832 0
M  V30 12196 N 1438.19 0.611994 1.45232 0
M  V30 12197 C 1439.44 0.108696 2.01807 0
M  V30 12198 C 1439.76 -1.26692 1.48237 0
M  V30 12199 O 1439.03 -1.8378 0.678368 0
M  V30 12200 H 1437.61 0.0371921 0.746074 0
M  V30 12201 H 1440.27 0.794386 1.77976 0
M  V30 12202 H 1439.37 0.0618207 3.12039 0
M  V30 12203 N 1439.67 -1.53632 0.351409 0
M  V30 12204 C 1440.6 -2.28217 -0.49391 0
M  V30 12205 C 1441.58 -1.30085 -1.09599 0
M  V30 12206 O 1442.77 -1.58938 -1.1159 0
M  V30 12207 C 1439.9 -3.06085 -1.64102 0
M  V30 12208 C 1438.85 -4.11786 -1.16689 0
M  V30 12209 C 1438.18 -4.77654 -2.40314 0
M  V30 12210 C 1439.48 -5.21644 -0.261742 0
M  V30 12211 H 1441.17 -2.99125 0.1283 0
M  V30 12212 H 1438.72 -1.43861 0.0631462 0
M  V30 12213 H 1440.67 -3.57003 -2.2389 0
M  V30 12214 H 1439.39 -2.32842 -2.29025 0
M  V30 12215 H 1438.05 -3.61792 -0.591784 0
M  V30 12216 H 1437.7 -4.00997 -3.03661 0
M  V30 12217 H 1437.4 -5.49072 -2.09268 0
M  V30 12218 H 1438.92 -5.3136 -3.00813 0
M  V30 12219 H 1440.34 -5.6815 -0.766689 0
M  V30 12220 H 1438.73 -6.00085 -0.0428132 0
M  V30 12221 H 1439.8 -4.79821 0.699999 0
M  V30 12222 N 1441.15 -0.0802183 -1.57396 0
M  V30 12223 C 1442.56 0.451183 -1.81166 0
M  V30 12224 C 1442.91 1.69112 -0.994764 0
M  V30 12225 O 1442.03 2.15281 -0.219739 0
M  V30 12226 C 1442.63 0.825324 -3.28594 0
M  V30 12227 C 1441.19 1.30154 -3.53181 0
M  V30 12228 C 1440.34 0.290846 -2.75771 0
M  V30 12229 H 1443.29 -0.305829 -1.55725 0
M  V30 12230 H 1443.31 1.68608 -3.41104 0
M  V30 12231 H 1442.82 -0.0773119 -3.88023 0
M  V30 12232 H 1440.92 2.22239 -2.99066 0
M  V30 12233 H 1441.03 1.27365 -4.6186 0
M  V30 12234 H 1439.4 0.769894 -2.42785 0
M  V30 12235 H 1440.18 -0.604209 -3.37941 0
M  V30 12236 N 1442.63 1.56409 0.193394 0
M  V30 12237 C 1443.87 1.80367 0.911717 0
M  V30 12238 C 1444.19 0.653561 1.83721 0
M  V30 12239 O 1443.46 -0.328001 1.93135 0
M  V30 12240 H 1442.04 0.665316 0.339652 0
M  V30 12241 H 1444.71 1.93887 0.198496 0
M  V30 12242 H 1443.8 2.7359 1.50182 0
M  V30 12243 N 1444.1 -0.461169 1.50702 0
M  V30 12244 C 1445.51 -1.04177 1.54932 0
M  V30 12245 C 1445.87 -1.92894 0.358648 0
M  V30 12246 O 1444.99 -2.09876 -0.527346 0
M  V30 12247 C 1445.59 -1.8961 2.80773 0
M  V30 12248 C 1444.14 -2.42761 2.87652 0
M  V30 12249 C 1443.29 -1.21356 2.49335 0
M  V30 12250 H 1446.24 -0.243379 1.56823 0
M  V30 12251 H 1446.26 -2.74794 2.63189 0
M  V30 12252 H 1445.78 -1.25014 3.67414 0
M  V30 12253 H 1443.88 -3.10881 2.05386 0
M  V30 12254 H 1443.99 -2.77189 3.90772 0
M  V30 12255 H 1442.35 -1.55146 2.01995 0
M  V30 12256 H 1443.14 -0.584069 3.38295 0
M  V30 12257 N 1445.58 -1.40446 -0.715026 0
M  V30 12258 C 1446.81 -1.42263 -1.50917 0
M  V30 12259 C 1447.23 -0.0242402 -1.88084 0
M  V30 12260 O 1446.59 0.967817 -1.53307 0
M  V30 12261 C 1446.64 -2.31998 -2.7606 0
M  V30 12262 O 1445.74 -1.76361 -3.72787 0
M  V30 12263 H 1445.08 -0.483614 -0.454988 0
M  V30 12264 H 1447.61 -1.84682 -0.880549 0
M  V30 12265 H 1447.62 -2.47204 -3.24583 0
M  V30 12266 H 1446.3 -3.33614 -2.48343 0
M  V30 12267 H 1444.87 -1.70504 -3.31636 0
M  V30 12268 N 1447.06 0.947303 -1.25952 0
M  V30 12269 C 1448.31 1.68945 -1.10915 0
M  V30 12270 C 1448.63 1.91848 0.349216 0
M  V30 12271 O 1447.9 1.5108 1.24706 0
M  V30 12272 H 1446.48 0.626086 -0.407462 0
M  V30 12273 H 1449.14 1.13854 -1.58187 0
M  V30 12274 H 1448.24 2.6657 -1.62317 0
M  V30 12275 N 1448.54 1.07657 1.15099 0
M  V30 12276 C 1449.45 0.711198 2.2356 0
M  V30 12277 C 1450.46 -0.278932 1.7175 0
M  V30 12278 O 1451.64 -0.124788 2.01013 0
M  V30 12279 C 1448.71 0.117855 3.465 0
M  V30 12280 C 1447.77 1.16162 4.13286 0
M  V30 12281 C 1447 0.596494 5.30356 0
M  V30 12282 O 1447.22 -0.586474 5.67377 0
M  V30 12283 O 1446.16 1.34288 5.86729 0
M  V30 12284 H 1449.98 1.61578 2.5715 0
M  V30 12285 H 1447.57 0.84973 1.22882 0
M  V30 12286 H 1449.45 -0.210613 4.20873 0
M  V30 12287 H 1448.12 -0.760008 3.14652 0
M  V30 12288 H 1447.03 1.54249 3.4082 0
M  V30 12289 H 1448.36 2.01149 4.49221 0
M  V30 12290 N 1450.02 -1.31994 0.861122 0
M  V30 12291 C 1451.43 -1.79271 0.521437 0
M  V30 12292 C 1451.78 -1.71046 -0.96113 0
M  V30 12293 O 1450.9 -1.2729 -1.75003 0
M  V30 12294 C 1451.5 -3.25507 0.939731 0
M  V30 12295 C 1450.06 -3.70713 0.651845 0
M  V30 12296 C 1449.2 -2.52967 1.13592 0
M  V30 12297 H 1452.16 -1.19201 1.0477 0
M  V30 12298 H 1452.18 -3.79619 0.258754 0
M  V30 12299 H 1451.69 -3.3146 2.0188 0
M  V30 12300 H 1449.79 -3.70268 -0.416232 0
M  V30 12301 H 1449.9 -4.63236 1.22267 0
M  V30 12302 H 1448.27 -2.48558 0.555971 0
M  V30 12303 H 1449.05 -2.61671 2.22223 0
M  V30 12304 N 1451.49 -0.619688 -1.44906 0
M  V30 12305 C 1452.74 -0.119397 -2.01747 0
M  V30 12306 C 1453.06 1.25904 -1.48907 0
M  V30 12307 O 1452.33 1.83417 -0.688104 0
M  V30 12308 H 1450.91 -0.0411482 -0.745866 0
M  V30 12309 H 1453.58 -0.803813 -1.77552 0
M  V30 12310 H 1452.67 -0.078368 -3.12002 0
M  V30 12311 N 1452.97 1.53444 -0.359552 0
M  V30 12312 C 1453.92 2.25544 0.48977 0
M  V30 12313 C 1454.89 1.25982 1.08248 0
M  V30 12314 O 1456.07 1.54751 1.1161 0
M  V30 12315 C 1453.21 3.04358 1.62666 0
M  V30 12316 C 1452.33 4.18801 1.0597 0
M  V30 12317 C 1451.46 4.85069 2.1652 0
M  V30 12318 C 1450.5 5.91554 1.57259 0
M  V30 12319 N 1449.64 6.51537 2.61617 0
M  V30 12320 H 1454.48 2.97709 -0.13158 0
M  V30 12321 H 1452.02 1.469 -0.0767056 0
M  V30 12322 H 1453.97 3.48324 2.29623 0
M  V30 12323 H 1452.6 2.34459 2.21876 0
M  V30 12324 H 1451.66 3.79364 0.280599 0
M  V30 12325 H 1452.97 4.95341 0.586383 0
M  V30 12326 H 1452.12 5.32187 2.9131 0
M  V30 12327 H 1450.86 4.07988 2.67202 0
M  V30 12328 H 1449.87 5.43803 0.809818 0
M  V30 12329 H 1451.09 6.70552 1.07409 0
M  V30 12330 H 1449.04 5.77312 3.11523 0
M  V30 12331 H 1448.95 7.23599 2.18954 0
M  V30 12332 H 1450.22 7.03306 3.36127 0
M  V30 12333 N 1454.45 0.0885642 1.57351 0
M  V30 12334 C 1455.38 -0.902617 2.10679 0
M  V30 12335 C 1456.4 -1.25037 1.04257 0
M  V30 12336 O 1457.58 -1.20462 1.31723 0
M  V30 12337 C 1454.68 -2.21362 2.56616 0
M  V30 12338 C 1453.86 -2.04219 3.86799 0
M  V30 12339 C 1452.92 -3.18774 4.18652 0
M  V30 12340 O 1451.94 -2.93024 4.87981 0
M  V30 12341 N 1453.14 -4.44357 3.73534 0
M  V30 12342 H 1455.91 -0.447199 2.96345 0
M  V30 12343 H 1453.47 -0.0967178 1.61611 0
M  V30 12344 H 1455.46 -2.96935 2.74976 0
M  V30 12345 H 1454.03 -2.58349 1.75996 0
M  V30 12346 H 1453.25 -1.13015 3.77652 0
M  V30 12347 H 1454.54 -1.90035 4.71979 0
M  V30 12348 H 1453.94 -4.68159 3.17558 0
M  V30 12349 H 1452.5 -5.169 3.97061 0
M  V30 12350 N 1455.93 -1.56509 -0.185096 0
M  V30 12351 C 1457.18 -1.80848 -0.902139 0
M  V30 12352 C 1457.5 -0.663295 -1.83372 0
M  V30 12353 O 1456.77 0.317754 -1.93306 0
M  V30 12354 H 1455.35 -0.667108 -0.336119 0
M  V30 12355 H 1458.01 -1.93989 -0.188211 0
M  V30 12356 H 1457.11 -2.74383 -1.48729 0
M  V30 12357 N 1457.41 0.45317 -1.50944 0
M  V30 12358 C 1458.82 1.03354 -1.55482 0
M  V30 12359 C 1459.17 1.92701 -0.368873 0
M  V30 12360 O 1458.29 2.10153 0.516208 0
M  V30 12361 C 1458.89 1.88118 -2.81775 0
M  V30 12362 C 1457.45 2.41232 -2.88936 0
M  V30 12363 C 1456.59 1.20032 -2.49975 0
M  V30 12364 H 1459.55 0.235059 -1.5695 0
M  V30 12365 H 1459.57 2.73394 -2.64643 0
M  V30 12366 H 1459.08 1.23064 -3.68072 0
M  V30 12367 H 1457.18 3.09788 -2.07032 0
M  V30 12368 H 1457.29 2.75113 -3.92237 0
M  V30 12369 H 1455.66 1.54072 -2.02815 0
M  V30 12370 H 1456.44 0.56612 -3.386 0
M  V30 12371 N 1458.88 1.40823 0.707568 0
M  V30 12372 C 1460.11 1.43061 1.50161 0
M  V30 12373 C 1460.53 0.0342144 1.88069 0
M  V30 12374 O 1459.89 -0.959674 1.53818 0
M  V30 12375 C 1459.94 2.33459 2.74826 0
M  V30 12376 O 1459.04 1.78336 3.71847 0
M  V30 12377 H 1458.39 0.48602 0.452417 0
M  V30 12378 H 1460.92 1.85147 0.870742 0
M  V30 12379 H 1460.93 2.48922 3.23267 0
M  V30 12380 H 1459.6 3.34927 2.46571 0
M  V30 12381 H 1458.18 1.7226 3.30728 0
M  V30 12382 N 1460.36 -0.94061 1.26453 0
M  V30 12383 C 1461.61 -1.68354 1.11809 0
M  V30 12384 C 1461.93 -1.9203 -0.339037 0
M  V30 12385 O 1461.2 -1.51739 -1.23903 0
M  V30 12386 H 1459.78 -0.623916 0.410777 0
M  V30 12387 H 1462.44 -1.13014 1.58789 0
M  V30 12388 H 1461.54 -2.65706 1.63728 0
M  V30 12389 N 1461.84 -1.08266 -1.14527 0
M  V30 12390 C 1462.8 -0.715117 -2.17758 0
M  V30 12391 C 1463.8 0.24935 -1.58855 0
M  V30 12392 O 1464.99 0.0290846 -1.74176 0
M  V30 12393 C 1462.13 -0.055575 -3.40855 0
M  V30 12394 H 1463.32 -1.62921 -2.51787 0
M  V30 12395 H 1460.87 -0.880346 -1.2915 0
M  V30 12396 H 1461.61 0.870312 -3.12404 0
M  V30 12397 H 1461.39 -0.749382 -3.84872 0
M  V30 12398 H 1462.88 0.186592 -4.17183 0
M  V30 12399 N 1463.32 1.31536 -0.86811 0
M  V30 12400 C 1464.54 2.01487 -0.491705 0
M  V30 12401 C 1464.97 1.64744 0.907803 0
M  V30 12402 O 1464.33 0.855093 1.59868 0
M  V30 12403 C 1464.38 3.54621 -0.65395 0
M  V30 12404 O 1463.48 4.11252 0.307532 0
M  V30 12405 H 1462.82 0.634469 -0.195819 0
M  V30 12406 H 1465.35 1.67775 -1.17101 0
M  V30 12407 H 1465.36 4.04323 -0.546539 0
M  V30 12408 H 1464.04 3.80704 -1.67443 0
M  V30 12409 H 1462.61 3.72577 0.155233 0
M  V30 12410 N 1464.8 0.627364 1.44575 0
M  V30 12411 C 1466.05 0.130094 2.01681 0
M  V30 12412 C 1466.37 -1.25112 1.49572 0
M  V30 12413 O 1465.64 -1.8305 0.697822 0
M  V30 12414 H 1464.22 0.0451032 0.745637 0
M  V30 12415 H 1466.88 0.813218 1.77124 0
M  V30 12416 H 1465.97 0.0949131 3.11956 0
M  V30 12417 N 1466.28 -1.53251 0.367684 0
M  V30 12418 C 1467.19 -2.29518 -0.485669 0
M  V30 12419 C 1468.2 -1.35568 -1.09075 0
M  V30 12420 O 1469.38 -1.68626 -1.10124 0
M  V30 12421 C 1466.44 -3.07115 -1.60876 0
M  V30 12422 C 1465.5 -4.16736 -1.031 0
M  V30 12423 C 1464.74 -4.90624 -2.10056 0
M  V30 12424 O 1464.96 -4.64393 -3.31203 0
M  V30 12425 O 1463.89 -5.76503 -1.72996 0
M  V30 12426 H 1467.72 -3.034 0.135017 0
M  V30 12427 H 1465.3 -1.48816 0.132005 0
M  V30 12428 H 1467.19 -3.55564 -2.26168 0
M  V30 12429 H 1465.86 -2.36068 -2.21481 0
M  V30 12430 H 1464.77 -3.72534 -0.341928 0
M  V30 12431 H 1466.1 -4.89956 -0.469473 0
M  V30 12432 N 1467.75 -0.0969077 -1.57302 0
M  V30 12433 C 1469.17 0.25974 -1.57472 0
M  V30 12434 C 1469.37 1.6829 -1.10818 0
M  V30 12435 O 1468.43 2.39972 -0.785466 0
M  V30 12436 C 1469.74 0.0465211 -3.00664 0
M  V30 12437 C 1471.29 0.114131 -3.12792 0
M  V30 12438 C 1471.76 -0.0711175 -4.57945 0
M  V30 12439 N 1473.25 -0.0163438 -4.63197 0
M  V30 12440 C 1473.99 -0.1349 -5.73241 0
M  V30 12441 N 1473.48 -0.308391 -6.92113 0
M  V30 12442 N 1475.28 -0.0760411 -5.62049 0
M  V30 12443 H 1467.43 -1.02673 -1.85935 0
M  V30 12444 H 1469.69 -0.402528 -0.858298 0
M  V30 12445 H 1469.4 -0.936496 -3.39002 0
M  V30 12446 H 1469.27 0.78805 -3.68876 0
M  V30 12447 H 1471.66 1.08765 -2.74325 0
M  V30 12448 H 1471.74 -0.658918 -2.47168 0
M  V30 12449 H 1471.38 -1.04152 -4.97106 0
M  V30 12450 H 1471.31 0.721647 -5.21632 0
M  V30 12451 H 1473.8 0.115134 -3.77725 0
M  V30 12452 H 1474.12 -0.390318 -7.71814 0
M  V30 12453 H 1472.46 -0.344082 -6.94148 0
M  V30 12454 H 1475.65 0.0583778 -4.68064 0
M  V30 12455 H 1475.83 -0.171884 -6.47772 0
M  V30 12456 N 1469.23 1.56605 0.176793 0
M  V30 12457 C 1470.48 1.81324 0.892535 0
M  V30 12458 C 1470.8 0.67301 1.83018 0
M  V30 12459 O 1470.07 -0.307498 1.93472 0
M  V30 12460 H 1468.65 0.668881 0.332576 0
M  V30 12461 H 1471.31 1.94086 0.17792 0
M  V30 12462 H 1470.41 2.75168 1.47272 0
M  V30 12463 N 1470.71 -0.445159 1.51182 0
M  V30 12464 C 1472.12 -1.02528 1.56028 0
M  V30 12465 C 1472.47 -1.92503 0.379087 0
M  V30 12466 O 1471.6 -2.10424 -0.505056 0
M  V30 12467 C 1472.19 -1.86621 2.82768 0
M  V30 12468 C 1470.75 -2.39697 2.90211 0
M  V30 12469 C 1469.9 -1.18705 2.50608 0
M  V30 12470 H 1472.85 -0.226732 1.57072 0
M  V30 12471 H 1472.87 -2.71987 2.66089 0
M  V30 12472 H 1472.38 -1.2111 3.68719 0
M  V30 12473 H 1470.48 -3.08686 2.08672 0
M  V30 12474 H 1470.6 -2.73029 3.9369 0
M  V30 12475 H 1468.96 -1.52995 2.03629 0
M  V30 12476 H 1469.74 -0.548156 3.38895 0
M  V30 12477 N 1472.19 -1.41197 -0.700089 0
M  V30 12478 C 1473.6 -1.3593 -1.27985 0
M  V30 12479 C 1473.95 -0.0402059 -1.96159 0
M  V30 12480 O 1473.07 0.861611 -1.98508 0
M  V30 12481 C 1473.67 -2.46203 -2.32743 0
M  V30 12482 C 1472.23 -2.44348 -2.86306 0
M  V30 12483 C 1471.38 -2.26283 -1.60285 0
M  V30 12484 H 1474.33 -1.50778 -0.495152 0
M  V30 12485 H 1474.35 -2.15001 -3.13934 0
M  V30 12486 H 1473.86 -3.42195 -1.83096 0
M  V30 12487 H 1471.96 -1.521 -3.40142 0
M  V30 12488 H 1472.07 -3.40497 -3.37044 0
M  V30 12489 H 1470.44 -1.74078 -1.85928 0
M  V30 12490 H 1471.22 -3.24295 -1.1264 0
M  V30 12491 N 1473.67 0.933891 -1.2695 0
M  V30 12492 C 1474.91 1.67759 -1.12701 0
M  V30 12493 C 1475.23 1.92207 0.328848 0
M  V30 12494 O 1474.5 1.52394 1.23097 0
M  V30 12495 H 1473.08 0.621729 -0.41408 0
M  V30 12496 H 1475.75 1.1217 -1.59386 0
M  V30 12497 H 1474.84 2.64834 -1.65135 0
M  V30 12498 N 1475.14 1.08871 1.13951 0
M  V30 12499 C 1476.55 0.841552 1.66658 0
M  V30 12500 C 1476.91 -0.630932 1.85779 0
M  V30 12501 O 1476.03 -1.48673 1.57243 0
M  V30 12502 C 1476.63 1.52109 3.02735 0
M  V30 12503 C 1475.18 1.32105 3.52456 0
M  V30 12504 C 1474.33 1.58084 2.27826 0
M  V30 12505 H 1477.28 1.24865 0.97951 0
M  V30 12506 H 1477.3 0.950978 3.68425 0
M  V30 12507 H 1476.82 2.59276 2.88786 0
M  V30 12508 H 1474.92 0.270294 3.71618 0
M  V30 12509 H 1475.03 2.05197 4.32933 0
M  V30 12510 H 1473.39 1.00264 2.34135 0
M  V30 12511 H 1474.18 2.66467 2.16449 0
M  V30 12512 N 1476.62 -1.31073 0.875073 0
M  V30 12513 C 1477.55 -2.26485 0.279215 0
M  V30 12514 C 1478.53 -1.5134 -0.594556 0
M  V30 12515 O 1479.72 -1.80393 -0.546849 0
M  V30 12516 C 1476.84 -3.33268 -0.604165 0
M  V30 12517 C 1475.89 -4.26036 0.198944 0
M  V30 12518 S 1476.72 -5.11636 1.58079 0
M  V30 12519 C 1477.88 -6.21932 0.703665 0
M  V30 12520 H 1478.11 -2.76677 1.088 0
M  V30 12521 H 1475.64 -1.38917 0.673898 0
M  V30 12522 H 1477.6 -3.9526 -1.10813 0
M  V30 12523 H 1476.26 -2.8182 -1.38694 0
M  V30 12524 H 1475.46 -5.01759 -0.474755 0
M  V30 12525 H 1475.06 -3.68567 0.635185 0
M  V30 12526 H 1477.35 -6.77448 -0.0835828 0
M  V30 12527 H 1478.29 -6.93465 1.43219 0
M  V30 12528 H 1478.7 -5.63859 0.268954 0
M  V30 12529 N 1478.1 -0.635022 -1.4424 0
M  V30 12530 C 1479.35 -0.140788 -2.01609 0
M  V30 12531 C 1479.67 1.24317 -1.50234 0
M  V30 12532 O 1478.94 1.82677 -0.707519 0
M  V30 12533 H 1477.52 -0.0490568 -0.745387 0
M  V30 12534 H 1480.18 -0.8226 -1.7669 0
M  V30 12535 H 1479.28 -0.111456 -3.11901 0
M  V30 12536 N 1479.58 1.53054 -0.375806 0
M  V30 12537 C 1480.99 1.86426 0.101188 0
M  V30 12538 C 1481.34 1.29603 1.47301 0
M  V30 12539 O 1480.47 0.622059 2.07266 0
M  V30 12540 C 1481.06 3.38265 0.190389 0
M  V30 12541 C 1479.62 3.71397 0.611653 0
M  V30 12542 C 1478.77 2.76304 -0.234801 0
M  V30 12543 H 1481.72 1.47156 -0.594211 0
M  V30 12544 H 1481.74 3.66793 1.01207 0
M  V30 12545 H 1481.25 3.79592 -0.80818 0
M  V30 12546 H 1479.35 3.35632 1.61808 0
M  V30 12547 H 1479.46 4.77597 0.379168 0
M  V30 12548 H 1477.83 2.52952 0.297888 0
M  V30 12549 H 1478.61 3.20467 -1.2311 0
M  V30 12550 N 1481.06 0.105248 1.57248 0
M  V30 12551 C 1482.47 -0.422304 1.81861 0
M  V30 12552 C 1482.82 -1.67508 1.02154 0
M  V30 12553 O 1481.94 -2.14905 0.253961 0
M  V30 12554 C 1482.54 -0.772943 3.29865 0
M  V30 12555 C 1481.1 -1.24519 3.55207 0
M  V30 12556 C 1480.24 -0.246936 2.76198 0
M  V30 12557 H 1483.2 0.330565 1.55219 0
M  V30 12558 H 1483.22 -1.6316 3.43743 0
M  V30 12559 H 1482.73 0.139033 3.87851 0
M  V30 12560 H 1480.83 -2.17453 3.02564 0
M  V30 12561 H 1480.94 -1.20001 4.63828 0
M  V30 12562 H 1479.31 -0.731171 2.43979 0
M  V30 12563 H 1480.09 0.657896 3.36937 0
M  V30 12564 N 1482.53 -1.56697 -0.168486 0
M  V30 12565 C 1483.78 -1.81794 -0.882907 0
M  V30 12566 C 1484.1 -0.682707 -1.82658 0
M  V30 12567 O 1483.37 0.297234 -1.93632 0
M  V30 12568 H 1481.95 -0.670636 -0.329024 0
M  V30 12569 H 1484.62 -1.94178 -0.167625 0
M  V30 12570 H 1483.71 -2.75945 -1.45811 0
M  V30 12571 N 1484.01 0.437135 -1.51416 0
M  V30 12572 C 1484.94 1.538 -1.75692 0
M  V30 12573 C 1485.92 1.5891 -0.606759 0
M  V30 12574 O 1487.11 1.74635 -0.849492 0
M  V30 12575 C 1484.24 2.91877 -1.88215 0
M  V30 12576 C 1483.19 3.01628 -3.03652 0
M  V30 12577 C 1482.52 4.41687 -3.01358 0
M  V30 12578 C 1483.82 2.75691 -4.43612 0
M  V30 12579 H 1485.51 1.33737 -2.67871 0
M  V30 12580 H 1483.06 0.641936 -1.289 0
M  V30 12581 H 1485.01 3.68851 -2.03781 0
M  V30 12582 H 1483.74 3.13173 -0.926847 0
M  V30 12583 H 1482.39 2.27094 -2.87791 0
M  V30 12584 H 1482.04 4.5995 -2.03605 0
M  V30 12585 H 1481.74 4.49141 -3.78875 0
M  V30 12586 H 1483.27 5.20634 -3.19018 0
M  V30 12587 H 1484.68 3.42398 -4.59822 0
M  V30 12588 H 1483.08 2.94554 -5.22836 0
M  V30 12589 H 1484.15 1.71297 -4.53636 0
M  V30 12590 N 1485.49 1.41566 0.692592 0
M  V30 12591 C 1486.45 1.43369 1.78824 0
M  V30 12592 C 1487.45 0.323867 1.57505 0
M  V30 12593 O 1488.64 0.583885 1.64123 0
M  V30 12594 C 1485.78 1.24798 3.17235 0
M  V30 12595 H 1486.97 2.40906 1.78617 0
M  V30 12596 H 1484.52 1.27752 0.900508 0
M  V30 12597 H 1485.26 0.281129 3.23079 0
M  V30 12598 H 1485.04 2.05212 3.34111 0
M  V30 12599 H 1486.53 1.28902 3.97208 0
M  V30 12600 N 1486.97 -0.927146 1.27443 0
M  V30 12601 C 1488.22 -1.67159 1.13589 0
M  V30 12602 C 1488.54 -1.92379 -0.31865 0
M  V30 12603 O 1487.81 -1.53045 -1.22287 0
M  V30 12604 H 1486.39 -0.619524 0.417371 0
M  V30 12605 H 1489.05 -1.11323 1.59979 0
M  V30 12606 H 1488.15 -2.63954 1.66537 0
M  V30 12607 N 1488.45 -1.09474 -1.13372 0
M  V30 12608 C 1489.86 -0.850378 -1.66209 0
M  V30 12609 C 1490.21 0.621071 -1.86111 0
M  V30 12610 O 1489.33 1.47837 -1.58029 0
M  V30 12611 C 1489.93 -1.53713 -3.01924 0
M  V30 12612 C 1488.49 -1.33972 -3.5175 0
M  V30 12613 C 1487.63 -1.5929 -2.26985 0
M  V30 12614 H 1490.59 -1.25383 -0.972874 0
M  V30 12615 H 1490.61 -0.970503 -3.67915 0
M  V30 12616 H 1490.12 -2.60804 -2.87407 0
M  V30 12617 H 1488.22 -0.289998 -3.7147 0
M  V30 12618 H 1488.33 -2.0749 -4.31839 0
M  V30 12619 H 1486.7 -1.01505 -2.336 0
M  V30 12620 H 1487.48 -2.67611 -2.15033 0
M  V30 12621 N 1489.92 1.30607 -0.882012 0
M  V30 12622 C 1491.34 1.78418 -0.549892 0
M  V30 12623 C 1491.69 1.72553 0.933797 0
M  V30 12624 O 1490.81 1.30058 1.72956 0
M  V30 12625 C 1491.41 3.2397 -0.991398 0
M  V30 12626 C 1489.97 3.69629 -0.710739 0
M  V30 12627 C 1489.11 2.51127 -1.17602 0
M  V30 12628 H 1492.06 1.17519 -1.06653 0
M  V30 12629 H 1492.08 3.79159 -0.319115 0
M  V30 12630 H 1491.6 3.28207 -2.07128 0
M  V30 12631 H 1489.7 3.70883 0.357273 0
M  V30 12632 H 1489.81 4.61232 -1.29621 0
M  V30 12633 H 1488.17 2.47642 -0.595444 0
M  V30 12634 H 1488.96 2.58103 -2.26358 0
M  V30 12635 N 1491.4 0.642663 1.43901 0
M  V30 12636 C 1492.65 0.151478 2.01532 0
M  V30 12637 C 1492.97 -1.23519 1.50891 0
M  V30 12638 O 1492.24 -1.82299 0.717197 0
M  V30 12639 H 1490.82 0.0530091 0.745117 0
M  V30 12640 H 1493.48 0.831958 1.76251 0
M  V30 12641 H 1492.58 0.127995 3.11837 0
M  V30 12642 N 1492.88 -1.52852 0.383918 0
M  V30 12643 C 1493.79 -2.3002 -0.461298 0
M  V30 12644 C 1494.81 -1.36717 -1.07631 0
M  V30 12645 O 1495.98 -1.69784 -1.08329 0
M  V30 12646 C 1493.05 -3.08804 -1.57609 0
M  V30 12647 C 1492.11 -4.17806 -0.986737 0
M  V30 12648 C 1491.34 -4.92825 -2.04841 0
M  V30 12649 O 1491.57 -4.67879 -3.26259 0
M  V30 12650 O 1490.5 -5.78306 -1.66871 0
M  V30 12651 H 1494.33 -3.03239 0.167189 0
M  V30 12652 H 1491.91 -1.48667 0.147781 0
M  V30 12653 H 1493.79 -3.57943 -2.22384 0
M  V30 12654 H 1492.47 -2.38404 -2.18964 0
M  V30 12655 H 1491.37 -3.72876 -0.302396 0
M  V30 12656 H 1492.71 -4.90426 -0.417481 0
M  V30 12657 N 1494.36 -0.113586 -1.5719 0
M  V30 12658 C 1495.58 0.556928 -1.99783 0
M  V30 12659 C 1496.01 1.59774 -0.992669 0
M  V30 12660 O 1495.37 1.81263 0.0363821 0
M  V30 12661 C 1495.42 1.16463 -3.41275 0
M  V30 12662 O 1494.52 2.28024 -3.43626 0
M  V30 12663 H 1493.86 0.139628 -0.649153 0
M  V30 12664 H 1496.39 -0.200462 -2.03616 0
M  V30 12665 H 1496.4 1.50147 -3.79368 0
M  V30 12666 H 1495.08 0.402232 -4.1395 0
M  V30 12667 H 1493.65 1.9582 -3.17347 0
M  V30 12668 N 1495.84 1.56784 0.160173 0
M  V30 12669 C 1497.09 1.8226 0.873253 0
M  V30 12670 C 1497.41 0.692384 1.82294 0
M  V30 12671 O 1496.68 -0.286961 1.93787 0
M  V30 12672 H 1495.26 0.672371 0.325463 0
M  V30 12673 H 1497.92 1.94264 0.157325 0
M  V30 12674 H 1497.01 2.76714 1.44345 0
M  V30 12675 N 1497.32 -0.429099 1.51646 0
M  V30 12676 C 1498.73 -0.766217 1.40005 0
M  V30 12677 C 1498.93 -1.95481 0.488837 0
M  V30 12678 O 1497.99 -2.52445 -0.0529101 0
M  V30 12679 C 1499.3 -1.03886 2.82185 0
M  V30 12680 C 1500.85 -1.1428 2.91392 0
M  V30 12681 C 1501.32 -1.44833 4.34497 0
M  V30 12682 N 1502.81 -1.5174 4.37641 0
M  V30 12683 C 1503.55 -1.76968 5.45408 0
M  V30 12684 N 1503.05 -1.99934 6.63324 0
M  V30 12685 N 1504.84 -1.78819 5.32898 0
M  V30 12686 H 1496.99 0.35358 2.09436 0
M  V30 12687 H 1499.25 0.0958189 0.943145 0
M  V30 12688 H 1498.96 -0.238103 3.50893 0
M  V30 12689 H 1498.83 -1.96434 3.22015 0
M  V30 12690 H 1501.22 -1.93418 2.22876 0
M  V30 12691 H 1501.3 -0.19614 2.55047 0
M  V30 12692 H 1500.94 -0.662201 5.03565 0
M  V30 12693 H 1500.87 -2.40718 4.68361 0
M  V30 12694 H 1503.37 -1.35862 3.52633 0
M  V30 12695 H 1503.68 -2.18578 7.41245 0
M  V30 12696 H 1502.02 -1.97239 6.66425 0
M  V30 12697 H 1505.21 -1.60402 4.3976 0
M  V30 12698 H 1505.39 -1.98142 6.16963 0
M  V30 12699 N 1498.79 -1.41931 -0.685074 0
M  V30 12700 C 1499.7 -1.46985 -1.82846 0
M  V30 12701 C 1500.72 -0.359487 -1.70246 0
M  V30 12702 O 1501.9 -0.608824 -1.91977 0
M  V30 12703 C 1498.96 -1.36001 -3.18912 0
M  V30 12704 C 1498.02 -2.57442 -3.43543 0
M  V30 12705 C 1497.25 -2.46972 -4.73118 0
M  V30 12706 O 1497.48 -1.49999 -5.50324 0
M  V30 12707 O 1496.41 -3.36922 -4.98766 0
M  V30 12708 H 1500.24 -2.4347 -1.81538 0
M  V30 12709 H 1497.82 -1.23583 -0.839497 0
M  V30 12710 H 1499.7 -1.32198 -4.00127 0
M  V30 12711 H 1498.38 -0.426366 -3.2088 0
M  V30 12712 H 1497.29 -2.66821 -2.62217 0
M  V30 12713 H 1498.62 -3.49671 -3.46398 0
M  V30 12714 N 1500.27 0.920374 -1.27933 0
M  V30 12715 C 1501.52 1.66554 -1.14474 0
M  V30 12716 C 1501.84 1.92545 0.308444 0
M  V30 12717 O 1501.11 1.53691 1.21473 0
M  V30 12718 H 1499.69 0.617302 -0.420651 0
M  V30 12719 H 1502.35 1.10473 -1.60567 0
M  V30 12720 H 1501.45 2.63067 -1.67935 0
M  V30 12721 N 1501.75 1.10074 1.1279 0
M  V30 12722 C 1502.71 0.74967 2.16593 0
M  V30 12723 C 1503.71 -0.224046 1.59232 0
M  V30 12724 O 1504.9 -0.00137104 1.742 0
M  V30 12725 C 1502.03 0.109795 3.40723 0
M  V30 12726 H 1503.23 1.66906 2.49164 0
M  V30 12727 H 1500.78 0.900781 1.27733 0
M  V30 12728 H 1501.52 -0.820501 3.13749 0
M  V30 12729 H 1501.3 0.810517 3.83631 0
M  V30 12730 H 1502.79 -0.120198 4.17427 0
M  V30 12731 N 1503.23 -1.30138 0.888926 0
M  V30 12732 C 1504.64 -1.78124 0.559346 0
M  V30 12733 C 1504.99 -1.73046 -0.924633 0
M  V30 12734 O 1504.11 -1.30974 -1.72264 0
M  V30 12735 C 1504.71 -3.2344 1.00856 0
M  V30 12736 C 1503.27 -3.69247 0.730332 0
M  V30 12737 C 1502.42 -2.505 1.18933 0
M  V30 12738 H 1505.37 -1.16952 1.07275 0
M  V30 12739 H 1505.39 -3.78985 0.339219 0
M  V30 12740 H 1504.9 -3.27104 2.08865 0
M  V30 12741 H 1503 -3.71067 -0.337599 0
M  V30 12742 H 1503.11 -4.60538 1.32066 0
M  V30 12743 H 1501.48 -2.47323 0.608568 0
M  V30 12744 H 1502.26 -2.56899 2.27724 0
M  V30 12745 N 1504.71 -0.650285 -1.43559 0
M  V30 12746 C 1505.95 -0.162164 -2.01448 0
M  V30 12747 C 1506.27 1.22717 -1.51544 0
M  V30 12748 O 1505.54 1.81917 -0.726855 0
M  V30 12749 H 1504.12 -0.0569599 -0.744825 0
M  V30 12750 H 1506.79 -0.841294 -1.75807 0
M  V30 12751 H 1505.88 -0.144531 -3.11765 0
M  V30 12752 N 1506.18 1.52647 -0.392018 0
M  V30 12753 C 1507.15 2.25135 0.429754 0
M  V30 12754 C 1508.15 1.26871 0.987946 0
M  V30 12755 O 1509.34 1.50947 0.86952 0
M  V30 12756 C 1506.47 3.00849 1.60321 0
M  V30 12757 H 1507.66 2.99199 -0.204918 0
M  V30 12758 H 1505.21 1.55634 -0.144188 0
M  V30 12759 H 1505.95 2.31092 2.27524 0
M  V30 12760 H 1505.73 3.72975 1.20964 0
M  V30 12761 H 1507.22 3.55879 2.18494 0
M  V30 12762 N 1507.66 0.121921 1.57128 0
M  V30 12763 C 1508.57 -0.840825 2.19014 0
M  V30 12764 C 1509.59 -1.29051 1.16712 0
M  V30 12765 O 1510.76 -1.35289 1.49194 0
M  V30 12766 C 1507.83 -2.07204 2.7797 0
M  V30 12767 C 1506.89 -1.67399 3.95318 0
M  V30 12768 C 1506.12 -2.84652 4.51452 0
M  V30 12769 O 1506.35 -4.00161 4.06482 0
M  V30 12770 O 1505.28 -2.61568 5.42094 0
M  V30 12771 H 1509.11 -0.344146 3.01744 0
M  V30 12772 H 1506.69 -0.103841 1.49039 0
M  V30 12773 H 1508.57 -2.79307 3.1554 0
M  V30 12774 H 1507.25 -2.55872 1.9827 0
M  V30 12775 H 1506.16 -0.92395 3.62511 0
M  V30 12776 H 1507.49 -1.2347 4.76462 0
M  V30 12777 N 1509.14 -1.56867 -0.151857 0
M  V30 12778 C 1510.39 -1.82721 -0.863575 0
M  V30 12779 C 1510.71 -0.702042 -1.81924 0
M  V30 12780 O 1509.98 0.27668 -1.93936 0
M  V30 12781 H 1508.56 -0.674088 -0.321893 0
M  V30 12782 H 1511.22 -1.94345 -0.14702 0
M  V30 12783 H 1510.32 -2.77476 -1.42876 0
M  V30 12784 N 1510.62 0.421051 -1.51871 0
M  V30 12785 C 1511.84 1.19568 -1.69465 0
M  V30 12786 C 1512.27 1.83835 -0.398269 0
M  V30 12787 O 1511.63 1.69508 0.643172 0
M  V30 12788 C 1511.67 2.24337 -2.82321 0
M  V30 12789 O 1510.78 3.30205 -2.47059 0
M  V30 12790 H 1510.12 0.349579 -0.564527 0
M  V30 12791 H 1512.65 0.495177 -1.98517 0
M  V30 12792 H 1512.66 2.6886 -3.06885 0
M  V30 12793 H 1511.33 1.76941 -3.76384 0
M  V30 12794 H 1509.91 2.91045 -2.33125 0
M  V30 12795 N 1512.1 1.42293 0.677538 0
M  V30 12796 C 1513.51 1.37948 1.25806 0
M  V30 12797 C 1513.86 0.071408 1.9607 0
M  V30 12798 O 1512.98 -0.829921 1.99853 0
M  V30 12799 C 1513.58 2.49875 2.28797 0
M  V30 12800 C 1512.14 2.48872 2.82382 0
M  V30 12801 C 1511.28 2.28804 1.56665 0
M  V30 12802 H 1514.24 1.51546 0.471102 0
M  V30 12803 H 1514.26 2.19969 3.10474 0
M  V30 12804 H 1513.77 3.45065 1.77629 0
M  V30 12805 H 1511.87 1.57492 3.37679 0
M  V30 12806 H 1511.98 3.45816 3.31585 0
M  V30 12807 H 1510.35 1.77014 1.83135 0
M  V30 12808 H 1511.13 3.26046 1.07467 0
M  V30 12809 N 1513.57 -0.913576 1.28419 0
M  V30 12810 C 1514.82 -1.65944 1.15355 0
M  V30 12811 C 1515.14 -1.92706 -0.298228 0
M  V30 12812 O 1514.41 -1.54333 -1.20657 0
M  V30 12813 H 1512.99 -0.615063 0.423919 0
M  V30 12814 H 1515.66 -1.0962 1.6115 0
M  V30 12815 H 1514.75 -2.62173 1.69327 0
M  V30 12816 N 1515.05 -1.1067 -1.12204 0
M  V30 12817 C 1516.47 -0.838988 -1.35769 0
M  V30 12818 C 1516.67 0.540345 -1.9412 0
M  V30 12819 O 1515.72 1.29274 -2.16897 0
M  V30 12820 C 1517.04 -1.94065 -2.29694 0
M  V30 12821 C 1518.59 -1.96938 -2.43279 0
M  V30 12822 C 1519.06 -3.06284 -3.4052 0
M  V30 12823 N 1520.55 -3.05607 -3.48079 0
M  V30 12824 C 1521.29 -3.86855 -4.23238 0
M  V30 12825 N 1520.78 -4.78046 -5.01442 0
M  V30 12826 N 1522.58 -3.75064 -4.18669 0
M  V30 12827 H 1514.73 -1.99575 -0.726878 0
M  V30 12828 H 1516.99 -0.867423 -0.382467 0
M  V30 12829 H 1516.7 -2.93356 -1.93997 0
M  V30 12830 H 1516.57 -1.82992 -3.29839 0
M  V30 12831 H 1518.96 -0.982774 -2.78254 0
M  V30 12832 H 1519.04 -2.12087 -1.43014 0
M  V30 12833 H 1518.68 -4.05165 -3.06273 0
M  V30 12834 H 1518.61 -2.88376 -4.40621 0
M  V30 12835 H 1521.1 -2.39531 -2.9229 0
M  V30 12836 H 1521.42 -5.36594 -5.56136 0
M  V30 12837 H 1519.76 -4.82073 -5.0063 0
M  V30 12838 H 1522.95 -3.03172 -3.56657 0
M  V30 12839 H 1523.12 -4.38618 -4.76988 0
M  V30 12840 N 1516.53 1.29665 -0.895815 0
M  V30 12841 C 1517.81 1.90601 -0.439394 0
M  V30 12842 C 1518.19 1.81341 1.08068 0
M  V30 12843 O 1517.54 1.23761 1.92082 0
M  V30 12844 C 1517.75 3.35832 -0.949622 0
M  V30 12845 C 1519.09 4.12873 -0.991015 0
M  V30 12846 O 1520.12 3.4472 -0.897025 0
M  V30 12847 O 1518.98 5.34656 -1.1316 0
M  V30 12848 H 1516.07 0.81569 -0.136304 0
M  V30 12849 H 1518.62 1.38157 -0.985426 0
M  V30 12850 H 1517.39 3.36708 -1.99357 0
M  V30 12851 H 1517.01 3.95747 -0.383376 0
M  V30 12852 N 1518.01 0.657889 1.43212 0
M  V30 12853 C 1519.26 0.172845 2.0136 0
M  V30 12854 C 1519.58 -1.21911 1.52193 0
M  V30 12855 O 1518.85 -1.81529 0.736492 0
M  V30 12856 H 1517.43 0.0609091 0.744513 0
M  V30 12857 H 1520.09 0.850605 1.75359 0
M  V30 12858 H 1519.19 0.161062 3.11684 0
M  V30 12859 N 1519.49 -1.52437 0.400108 0
M  V30 12860 C 1520.71 -2.0661 -0.180861 0
M  V30 12861 C 1521.14 -1.269 -1.38845 0
M  V30 12862 O 1520.49 -0.296862 -1.78853 0
M  V30 12863 C 1520.54 -3.56851 -0.518595 0
M  V30 12864 O 1519.65 -3.79634 -1.61095 0
M  V30 12865 H 1518.99 -0.663752 -0.0181348 0
M  V30 12866 H 1521.52 -1.96479 0.570702 0
M  V30 12867 H 1521.53 -4.00478 -0.779817 0
M  V30 12868 H 1520.2 -4.14302 0.364216 0
M  V30 12869 H 1518.78 -3.47892 -1.3426 0
M  V30 12870 N 1520.96 -0.130252 -1.57061 0
M  V30 12871 C 1522.38 0.393318 -1.8251 0
M  V30 12872 C 1522.73 1.65862 -1.04806 0
M  V30 12873 O 1521.85 2.14473 -0.288118 0
M  V30 12874 C 1522.45 0.720366 -3.31053 0
M  V30 12875 C 1521.01 1.18852 -3.57143 0
M  V30 12876 C 1520.15 0.202964 -2.76556 0
M  V30 12877 H 1523.1 -0.355217 -1.54674 0
M  V30 12878 H 1523.12 1.57671 -3.46295 0
M  V30 12879 H 1522.64 -0.200719 -3.87581 0
M  V30 12880 H 1520.74 2.12612 -3.05985 0
M  V30 12881 H 1520.85 1.12607 -4.65678 0
M  V30 12882 H 1519.21 0.692264 -2.45112 0
M  V30 12883 H 1520 -0.711417 -3.35848 0
M  V30 12884 N 1522.44 1.56945 0.143535 0
M  V30 12885 C 1523.69 1.83176 0.853873 0
M  V30 12886 C 1524.01 0.71168 1.81549 0
M  V30 12887 O 1523.28 -0.266391 1.9408 0
M  V30 12888 H 1521.86 0.675785 0.318313 0
M  V30 12889 H 1524.52 1.9442 0.136712 0
M  V30 12890 H 1523.62 2.7823 1.41402 0
M  V30 12891 N 1523.92 -0.412991 1.52093 0
M  V30 12892 C 1524.88 -1.48555 1.7454 0
M  V30 12893 C 1525.88 -1.48563 0.615283 0
M  V30 12894 O 1527.07 -1.50155 0.883119 0
M  V30 12895 C 1524.21 -2.87984 1.82423 0
M  V30 12896 H 1525.4 -1.29945 2.70285 0
M  V30 12897 H 1522.95 -0.643241 1.4245 0
M  V30 12898 H 1523.69 -3.11969 0.885777 0
M  V30 12899 H 1523.47 -2.89381 2.64577 0
M  V30 12900 H 1524.96 -3.65745 2.01545 0
M  V30 12901 N 1525.4 -1.4265 -0.669982 0
M  V30 12902 C 1526.35 -1.46504 -1.7834 0
M  V30 12903 C 1527.32 -0.316478 -1.63057 0
M  V30 12904 O 1528.5 -0.521245 -1.83542 0
M  V30 12905 C 1525.64 -1.37784 -3.16401 0
M  V30 12906 C 1524.75 -2.62714 -3.42937 0
M  V30 12907 C 1523.89 -2.46101 -4.70752 0
M  V30 12908 C 1522.93 -3.66381 -4.90338 0
M  V30 12909 N 1522.07 -3.48681 -6.09398 0
M  V30 12910 H 1526.91 -2.41651 -1.74381 0
M  V30 12911 H 1524.44 -1.1997 -0.851215 0
M  V30 12912 H 1526.4 -1.30725 -3.9619 0
M  V30 12913 H 1525.03 -0.462291 -3.19473 0
M  V30 12914 H 1524.08 -2.8012 -2.57366 0
M  V30 12915 H 1525.39 -3.52108 -3.53301 0
M  V30 12916 H 1524.55 -2.36655 -5.58641 0
M  V30 12917 H 1523.29 -1.54204 -4.6268 0
M  V30 12918 H 1522.29 -3.76254 -4.00891 0
M  V30 12919 H 1523.52 -4.59265 -5.00253 0
M  V30 12920 H 1521.46 -2.59505 -6.02489 0
M  V30 12921 H 1521.38 -4.31666 -6.20645 0
M  V30 12922 H 1522.65 -3.43056 -6.99952 0
M  V30 12923 N 1526.88 0.906753 -1.28902 0
M  V30 12924 C 1528.13 1.6533 -1.16234 0
M  V30 12925 C 1528.45 1.92861 0.288004 0
M  V30 12926 O 1527.72 1.54971 1.19837 0
M  V30 12927 H 1526.3 0.612806 -0.427174 0
M  V30 12928 H 1528.96 1.08764 -1.6173 0
M  V30 12929 H 1528.05 2.61271 -1.70715 0
M  V30 12930 N 1528.36 1.11264 1.11616 0
M  V30 12931 C 1529.63 0.772174 1.79713 0
M  V30 12932 C 1530.01 -0.740055 1.97703 0
M  V30 12933 O 1529.36 -1.66939 1.56024 0
M  V30 12934 C 1529.57 1.53316 3.13521 0
M  V30 12935 C 1530.92 1.71124 3.88589 0
M  V30 12936 O 1531.94 1.49725 3.23204 0
M  V30 12937 O 1530.8 2.0667 5.05915 0
M  V30 12938 H 1527.9 0.279548 0.77832 0
M  V30 12939 H 1530.44 1.21596 1.18375 0
M  V30 12940 H 1529.21 2.56194 2.95771 0
M  V30 12941 H 1528.84 1.08281 3.82572 0
M  V30 12942 N 1529.83 -1.29188 0.902679 0
M  V30 12943 C 1531.25 -1.47924 0.599209 0
M  V30 12944 C 1531.45 -1.82297 -0.858494 0
M  V30 12945 O 1530.51 -1.92123 -1.63845 0
M  V30 12946 C 1531.82 -2.59008 1.52759 0
M  V30 12947 C 1533.37 -2.72882 1.53312 0
M  V30 12948 C 1533.84 -3.87097 2.44785 0
M  V30 12949 N 1535.33 -3.94435 2.42849 0
M  V30 12950 C 1536.07 -4.82165 3.1033 0
M  V30 12951 N 1535.56 -5.74565 3.87101 0
M  V30 12952 N 1537.36 -4.75681 2.99473 0
M  V30 12953 H 1529.51 -1.05154 1.84544 0
M  V30 12954 H 1531.77 -0.522632 0.790924 0
M  V30 12955 H 1531.48 -2.40483 2.56634 0
M  V30 12956 H 1531.35 -3.55873 1.25036 0
M  V30 12957 H 1533.74 -2.90802 0.501804 0
M  V30 12958 H 1533.82 -1.76582 1.85074 0
M  V30 12959 H 1533.46 -3.69932 3.48012 0
M  V30 12960 H 1533.39 -4.82772 2.10331 0
M  V30 12961 H 1535.88 -3.28347 1.87074 0
M  V30 12962 H 1536.2 -6.3831 4.35638 0
M  V30 12963 H 1534.54 -5.74441 3.91207 0
M  V30 12964 H 1537.73 -4.02483 2.39009 0
M  V30 12965 H 1537.91 -5.4384 3.52337 0
M  V30 12966 N 1531.31 -0.665475 -1.42861 0
M  V30 12967 C 1532.56 -0.183521 -2.01265 0
M  V30 12968 C 1532.88 1.21103 -1.52837 0
M  V30 12969 O 1532.15 1.81135 -0.746109 0
M  V30 12970 H 1530.73 -0.0648565 -0.744179 0
M  V30 12971 H 1533.39 -0.859893 -1.74905 0
M  V30 12972 H 1532.49 -0.177589 -3.11594 0
M  V30 12973 N 1532.79 1.52222 -0.408187 0
M  V30 12974 C 1533.7 2.30725 0.424645 0
M  V30 12975 C 1534.72 1.38412 1.05442 0
M  V30 12976 O 1535.89 1.71486 1.05614 0
M  V30 12977 C 1532.96 3.11273 1.52677 0
M  V30 12978 C 1532.02 4.19323 0.920143 0
M  V30 12979 C 1531.25 4.96021 1.96974 0
M  V30 12980 O 1531.47 4.73011 3.18774 0
M  V30 12981 O 1530.41 5.80887 1.5765 0
M  V30 12982 H 1534.23 3.02935 -0.215411 0
M  V30 12983 H 1531.82 1.48413 -0.171414 0
M  V30 12984 H 1533.7 3.61436 2.16661 0
M  V30 12985 H 1532.38 2.41857 2.15144 0
M  V30 12986 H 1531.28 3.7331 0.243037 0
M  V30 12987 H 1532.62 4.91028 0.339405 0
M  V30 12988 N 1534.27 0.138579 1.5699 0
M  V30 12989 C 1535.5 -0.521806 2.00212 0
M  V30 12990 C 1535.91 -1.58967 1.01857 0
M  V30 12991 O 1535.27 -1.82494 0.0143099 0
M  V30 12992 C 1535.32 -1.13014 3.4338 0
M  V30 12993 O 1535.04 -0.104938 4.37974 0
M  V30 12994 C 1536.54 -1.87195 4.01837 0
M  V30 12995 H 1533.76 -0.136564 0.656956 0
M  V30 12996 H 1536.3 0.230685 2.03195 0
M  V30 12997 H 1534.46 -1.8333 3.41275 0
M  V30 12998 H 1534.87 -0.54948 5.21614 0
M  V30 12999 H 1536.35 -2.25061 5.04035 0
M  V30 13000 H 1536.82 -2.75467 3.42074 0
M  V30 13001 H 1537.43 -1.21597 4.07547 0
M  V30 13002 N 1535.75 -1.57019 -0.13521 0
M  V30 13003 C 1536.99 -1.83626 -0.844147 0
M  V30 13004 C 1537.31 -0.721298 -1.81169 0
M  V30 13005 O 1536.58 0.256095 -1.94219 0
M  V30 13006 H 1535.16 -0.677464 -0.314725 0
M  V30 13007 H 1537.83 -1.9449 -0.126399 0
M  V30 13008 H 1536.92 -2.78976 -1.39925 0
M  V30 13009 N 1537.22 0.404919 -1.52309 0
M  V30 13010 C 1538.64 0.983553 -1.58692 0
M  V30 13011 C 1538.99 1.9143 -0.429993 0
M  V30 13012 O 1538.11 2.11689 0.449088 0
M  V30 13013 C 1538.71 1.79059 -2.87617 0
M  V30 13014 C 1537.27 2.31918 -2.96464 0
M  V30 13015 C 1536.41 1.12018 -2.53667 0
M  V30 13016 H 1539.36 0.185007 -1.57618 0
M  V30 13017 H 1539.38 2.64836 -2.73207 0
M  V30 13018 H 1538.9 1.11291 -3.71801 0
M  V30 13019 H 1537 3.03044 -2.16783 0
M  V30 13020 H 1537.11 2.62495 -4.00791 0
M  V30 13021 H 1535.47 1.47542 -2.07614 0
M  V30 13022 H 1536.26 0.458111 -3.4023 0
M  V30 13023 N 1538.7 1.43003 0.662408 0
M  V30 13024 C 1539.67 1.4713 1.75743 0
M  V30 13025 C 1540.67 0.357203 1.56782 0
M  V30 13026 O 1541.86 0.618566 1.62848 0
M  V30 13027 C 1538.99 1.31499 3.14517 0
M  V30 13028 H 1540.18 2.44641 1.73467 0
M  V30 13029 H 1537.73 1.29633 0.873208 0
M  V30 13030 H 1538.47 0.349596 3.2241 0
M  V30 13031 H 1538.25 2.12253 3.29683 0
M  V30 13032 H 1539.74 1.37298 3.94384 0
M  V30 13033 N 1540.18 -0.899904 1.29381 0
M  V30 13034 C 1541.43 -1.64712 1.17109 0
M  V30 13035 C 1541.75 -1.93011 -0.277772 0
M  V30 13036 O 1541.02 -1.55604 -1.19013 0
M  V30 13037 H 1539.6 -0.610532 0.430418 0
M  V30 13038 H 1542.26 -1.07905 1.62304 0
M  V30 13039 H 1541.36 -2.60362 1.72098 0
M  V30 13040 N 1541.66 -1.11854 -1.11024 0
M  V30 13041 C 1543.07 -0.885443 -1.64368 0
M  V30 13042 C 1543.42 0.581455 -1.87386 0
M  V30 13043 O 1542.55 1.44452 -1.61129 0
M  V30 13044 C 1543.14 -1.60082 -2.98595 0
M  V30 13045 C 1541.7 -1.41403 -3.4883 0
M  V30 13046 C 1540.85 -1.64069 -2.23555 0
M  V30 13047 H 1543.8 -1.27418 -0.94606 0
M  V30 13048 H 1543.82 -1.04832 -3.65774 0
M  V30 13049 H 1543.33 -2.66842 -2.8181 0
M  V30 13050 H 1541.43 -0.368727 -3.70771 0
M  V30 13051 H 1541.54 -2.16603 -4.27341 0
M  V30 13052 H 1539.91 -1.06437 -2.31394 0
M  V30 13053 H 1540.69 -2.72112 -2.09308 0
M  V30 13054 N 1543.14 1.28707 -0.909517 0
M  V30 13055 C 1544.55 1.77212 -0.587613 0
M  V30 13056 C 1544.9 1.74495 0.896986 0
M  V30 13057 O 1544.02 1.33698 1.70158 0
M  V30 13058 C 1544.62 3.21794 -1.05989 0
M  V30 13059 C 1543.18 3.68038 -0.788983 0
M  V30 13060 C 1542.32 2.48576 -1.22903 0
M  V30 13061 H 1545.28 1.1523 -1.09122 0
M  V30 13062 H 1545.3 3.78397 -0.399469 0
M  V30 13063 H 1544.81 3.23739 -2.14043 0
M  V30 13064 H 1542.91 3.71558 0.278523 0
M  V30 13065 H 1543.02 4.58379 -1.39376 0
M  V30 13066 H 1541.39 2.46323 -0.647838 0
M  V30 13067 H 1542.17 2.53243 -2.31782 0
M  V30 13068 N 1544.61 0.673042 1.42506 0
M  V30 13069 C 1545.86 0.194192 2.01165 0
M  V30 13070 C 1546.18 -1.2029 1.53477 0
M  V30 13071 O 1545.45 -1.80737 0.755704 0
M  V30 13072 H 1544.03 0.0688022 0.743825 0
M  V30 13073 H 1546.7 0.869157 1.74447 0
M  V30 13074 H 1545.79 0.194111 3.11496 0
M  V30 13075 N 1546.09 -1.52004 0.416254 0
M  V30 13076 C 1547.06 -2.2579 -0.393882 0
M  V30 13077 C 1548.06 -1.28427 -0.967637 0
M  V30 13078 O 1549.25 -1.52311 -0.845396 0
M  V30 13079 C 1546.38 -3.03361 -1.55515 0
M  V30 13080 H 1547.57 -2.98835 0.252492 0
M  V30 13081 H 1545.12 -1.55384 0.168929 0
M  V30 13082 H 1545.86 -2.34682 -2.23818 0
M  V30 13083 H 1545.64 -3.74852 -1.15015 0
M  V30 13084 H 1547.13 -3.5931 -2.12805 0
M  V30 13085 N 1547.57 -0.146903 -1.56914 0
M  V30 13086 C 1548.98 0.373938 -1.82917 0
M  V30 13087 C 1549.33 1.64741 -1.06559 0
M  V30 13088 O 1548.46 2.14156 -0.310849 0
M  V30 13089 C 1549.05 0.685213 -3.31799 0
M  V30 13090 C 1547.61 1.15058 -3.58383 0
M  V30 13091 C 1546.76 0.17362 -2.76756 0
M  V30 13092 H 1549.71 -0.371602 -1.54288 0
M  V30 13093 H 1549.73 1.53989 -3.47948 0
M  V30 13094 H 1549.24 -0.241816 -3.87346 0
M  V30 13095 H 1547.34 2.09355 -3.08223 0
M  V30 13096 H 1547.46 1.07662 -4.66847 0
M  V30 13097 H 1545.82 0.666227 -2.45832 0
M  V30 13098 H 1546.6 -0.746998 -3.35074 0
M  V30 13099 N 1549.05 1.57088 0.126881 0
M  V30 13100 C 1550.3 1.84071 0.834397 0
M  V30 13101 C 1550.62 0.730896 1.80784 0
M  V30 13102 O 1549.89 -0.245791 1.94352 0
M  V30 13103 H 1548.47 0.679123 0.311128 0
M  V30 13104 H 1551.13 1.94554 0.116083 0
M  V30 13105 H 1550.23 2.79714 1.38443 0
M  V30 13106 N 1550.53 -0.396836 1.52522 0
M  V30 13107 C 1551.49 -1.46695 1.76106 0
M  V30 13108 C 1552.49 -1.47902 0.631005 0
M  V30 13109 O 1553.68 -1.4921 0.898995 0
M  V30 13110 C 1550.81 -2.86033 1.85467 0
M  V30 13111 H 1552 -1.27071 2.71649 0
M  V30 13112 H 1549.56 -0.628096 1.43125 0
M  V30 13113 H 1550.29 -3.11012 0.918816 0
M  V30 13114 H 1550.08 -2.86559 2.67631 0
M  V30 13115 H 1551.57 -3.63587 2.05412 0
M  V30 13116 N 1552.01 -1.43353 -0.654814 0
M  V30 13117 C 1553.42 -1.39933 -1.23595 0
M  V30 13118 C 1553.77 -0.102592 -1.95932 0
M  V30 13119 O 1552.89 0.798021 -2.01148 0
M  V30 13120 C 1553.49 -2.53483 -2.24793 0
M  V30 13121 C 1552.05 -2.53333 -2.78387 0
M  V30 13122 C 1551.19 -2.31268 -1.53005 0
M  V30 13123 H 1554.14 -1.52277 -0.446932 0
M  V30 13124 H 1554.17 -2.2488 -3.06935 0
M  V30 13125 H 1553.68 -3.47847 -1.72116 0
M  V30 13126 H 1551.78 -1.62844 -3.35131 0
M  V30 13127 H 1551.89 -3.51047 -3.26041 0
M  V30 13128 H 1550.26 -1.79905 -1.80295 0
M  V30 13129 H 1551.04 -3.27714 -1.02266 0
M  V30 13130 N 1553.48 0.89303 -1.29857 0
M  V30 13131 C 1554.73 1.64088 -1.17981 0
M  V30 13132 C 1555.05 1.93156 0.267533 0
M  V30 13133 O 1554.32 1.56233 1.18186 0
M  V30 13134 H 1552.9 0.608241 -0.43365 0
M  V30 13135 H 1555.56 1.07042 -1.62874 0
M  V30 13136 H 1554.66 2.59446 -1.73477 0
M  V30 13137 N 1554.96 1.12442 1.10429 0
M  V30 13138 C 1555.92 0.795443 2.14954 0
M  V30 13139 C 1556.92 -0.19022 1.59671 0
M  V30 13140 O 1558.11 0.0355797 1.74164 0
M  V30 13141 C 1555.25 0.182043 3.40414 0
M  V30 13142 H 1556.44 1.72153 2.45567 0
M  V30 13143 H 1553.99 0.927672 1.25793 0
M  V30 13144 H 1554.73 -0.753766 3.15419 0
M  V30 13145 H 1554.51 0.891708 3.81826 0
M  V30 13146 H 1556 -0.0316286 4.17588 0
M  V30 13147 N 1556.44 -1.28223 0.91633 0
M  V30 13148 C 1557.85 -1.76898 0.597003 0
M  V30 13149 C 1558.2 -1.74969 -0.887719 0
M  V30 13150 O 1557.33 -1.34598 -1.69447 0
M  V30 13151 C 1557.92 -3.21228 1.07694 0
M  V30 13152 C 1556.48 -3.67614 0.80849 0
M  V30 13153 C 1555.63 -2.47921 1.24219 0
M  V30 13154 H 1558.58 -1.1465 1.09732 0
M  V30 13155 H 1558.6 -3.7818 0.419531 0
M  V30 13156 H 1558.11 -3.226 2.15757 0
M  V30 13157 H 1556.21 -3.717 -0.258814 0
M  V30 13158 H 1556.33 -4.57633 1.41804 0
M  V30 13159 H 1554.69 -2.45976 0.660892 0
M  V30 13160 H 1555.47 -2.5201 2.33122 0
M  V30 13161 N 1557.92 -0.68059 -1.42147 0
M  V30 13162 C 1559.17 -0.204857 -2.01059 0
M  V30 13163 C 1559.49 1.19475 -1.54113 0
M  V30 13164 O 1558.76 1.80334 -0.765279 0
M  V30 13165 H 1557.34 -0.0727459 -0.743449 0
M  V30 13166 H 1560 -0.878396 -1.73983 0
M  V30 13167 H 1559.09 -0.210628 -3.11388 0
M  V30 13168 N 1559.4 1.51781 -0.424309 0
M  V30 13169 C 1560.81 1.86653 0.0418266 0
M  V30 13170 C 1561.16 1.34224 1.43103 0
M  V30 13171 O 1560.28 0.687684 2.05183 0
M  V30 13172 C 1560.88 3.38699 0.0826759 0
M  V30 13173 C 1559.44 3.73155 0.493186 0
M  V30 13174 C 1558.58 2.75417 -0.322586 0
M  V30 13175 H 1561.53 1.45191 -0.640726 0
M  V30 13176 H 1561.56 3.69828 0.894864 0
M  V30 13177 H 1561.07 3.76829 -0.928536 0
M  V30 13178 H 1559.17 3.4061 1.51048 0
M  V30 13179 H 1559.28 4.78562 0.227032 0
M  V30 13180 H 1557.65 2.53772 0.217262 0
M  V30 13181 H 1558.43 3.16388 -1.33243 0
M  V30 13182 N 1560.87 0.155222 1.56834 0
M  V30 13183 C 1562.12 -0.494557 1.96677 0
M  V30 13184 C 1562.45 -1.63973 1.04051 0
M  V30 13185 O 1561.73 -1.94316 0.0844791 0
M  V30 13186 C 1562.01 -0.992902 3.46141 0
M  V30 13187 C 1561.86 0.151335 4.49545 0
M  V30 13188 C 1563.18 -1.87197 3.98303 0
M  V30 13189 H 1560.3 -0.178298 0.715107 0
M  V30 13190 H 1562.94 0.23811 1.88502 0
M  V30 13191 H 1561.09 -1.61724 3.53239 0
M  V30 13192 H 1562.77 0.787945 4.54521 0
M  V30 13193 H 1561.01 0.809262 4.26185 0
M  V30 13194 H 1561.68 -0.23921 5.51481 0
M  V30 13195 H 1564.16 -1.34578 3.93736 0
M  V30 13196 H 1563.03 -2.18972 5.03331 0
M  V30 13197 H 1563.29 -2.81191 3.41151 0
M  V30 13198 N 1562.35 -1.57153 -0.118549 0
M  V30 13199 C 1563.6 -1.84511 -0.824623 0
M  V30 13200 C 1563.92 -0.740473 -1.80394 0
M  V30 13201 O 1563.19 0.235481 -1.9448 0
M  V30 13202 H 1561.77 -0.680764 -0.307522 0
M  V30 13203 H 1564.43 -1.94613 -0.105764 0
M  V30 13204 H 1563.53 -2.80444 -1.36958 0
M  V30 13205 N 1563.83 0.388742 -1.5273 0
M  V30 13206 C 1565.24 0.966667 -1.59726 0
M  V30 13207 C 1565.59 1.90963 -0.450272 0
M  V30 13208 O 1564.72 2.12153 0.426611 0
M  V30 13209 C 1565.31 1.75998 -2.895 0
M  V30 13210 C 1563.87 2.28761 -2.98907 0
M  V30 13211 C 1563.02 1.09322 -2.54841 0
M  V30 13212 H 1565.97 0.16828 -1.57805 0
M  V30 13213 H 1565.99 2.61924 -2.76 0
M  V30 13214 H 1565.5 1.07342 -3.7296 0
M  V30 13215 H 1563.6 3.00728 -2.19985 0
M  V30 13216 H 1563.72 2.58229 -4.03552 0
M  V30 13217 H 1562.08 1.45332 -2.09167 0
M  V30 13218 H 1562.86 0.421999 -3.40696 0
M  V30 13219 N 1565.31 1.43698 0.647203 0
M  V30 13220 C 1566.27 1.48986 1.74172 0
M  V30 13221 C 1567.27 0.373812 1.56395 0
M  V30 13222 O 1568.46 0.635804 1.62183 0
M  V30 13223 C 1565.59 1.34827 3.13104 0
M  V30 13224 H 1566.79 2.46467 1.70863 0
M  V30 13225 H 1564.34 1.30552 0.859409 0
M  V30 13226 H 1565.07 0.383772 3.22021 0
M  V30 13227 H 1564.86 2.15738 3.27414 0
M  V30 13228 H 1566.35 1.41473 3.92906 0
M  V30 13229 N 1566.79 -0.886131 1.30328 0
M  V30 13230 C 1568.03 -1.6346 1.18849 0
M  V30 13231 C 1568.36 -1.93295 -0.257285 0
M  V30 13232 O 1567.63 -1.56858 -1.17356 0
M  V30 13233 H 1566.21 -0.605932 0.43687 0
M  V30 13234 H 1568.87 -1.06177 1.63439 0
M  V30 13235 H 1567.96 -2.58522 1.7485 0
M  V30 13236 N 1568.26 -1.13026 -1.09832 0
M  V30 13237 C 1569.21 -0.803817 -2.1635 0
M  V30 13238 C 1570.18 0.232226 -1.64469 0
M  V30 13239 O 1571.37 0.105403 -1.90509 0
M  V30 13240 C 1568.51 -0.271414 -3.44031 0
M  V30 13241 C 1567.62 -1.36602 -4.09834 0
M  V30 13242 C 1566.75 -0.792393 -5.25257 0
M  V30 13243 C 1565.79 -1.86569 -5.82974 0
M  V30 13244 N 1564.93 -1.31032 -6.89764 0
M  V30 13245 H 1569.77 -1.71624 -2.43617 0
M  V30 13246 H 1567.31 -0.856772 -1.19574 0
M  V30 13247 H 1569.27 0.0553638 -4.17163 0
M  V30 13248 H 1567.9 0.604154 -3.17096 0
M  V30 13249 H 1566.95 -1.80946 -3.34608 0
M  V30 13250 H 1568.26 -2.17737 -4.48767 0
M  V30 13251 H 1567.41 -0.416652 -6.05268 0
M  V30 13252 H 1566.15 0.0500894 -4.87674 0
M  V30 13253 H 1565.16 -2.25054 -5.01628 0
M  V30 13254 H 1566.38 -2.7115 -6.22619 0
M  V30 13255 H 1564.33 -0.489768 -6.54169 0
M  V30 13256 H 1564.25 -2.0582 -7.27444 0
M  V30 13257 H 1565.51 -0.962011 -7.73541 0
M  V30 13258 N 1569.74 1.27735 -0.923117 0
M  V30 13259 C 1570.97 1.9922 -0.57672 0
M  V30 13260 C 1571.39 1.68446 0.837113 0
M  V30 13261 O 1570.75 0.922129 1.56098 0
M  V30 13262 C 1570.8 3.51528 -0.803768 0
M  V30 13263 O 1569.9 4.12186 0.132829 0
M  V30 13264 H 1569.24 0.625593 -0.222553 0
M  V30 13265 H 1571.77 1.62657 -1.24112 0
M  V30 13266 H 1571.78 4.01641 -0.717534 0
M  V30 13267 H 1570.46 3.7326 -1.83439 0
M  V30 13268 H 1569.04 3.729 -0.00292957 0
M  V30 13269 N 1571.22 0.688118 1.41784 0
M  V30 13270 C 1572.47 0.215517 2.00948 0
M  V30 13271 C 1572.79 -1.18656 1.54744 0
M  V30 13272 O 1572.06 -1.79925 0.774831 0
M  V30 13273 H 1570.64 0.0766876 0.743053 0
M  V30 13274 H 1573.3 0.88761 1.73515 0
M  V30 13275 H 1572.4 0.227139 3.11272 0
M  V30 13276 N 1572.7 -1.51554 0.432352 0
M  V30 13277 C 1573.98 -1.94621 -0.195472 0
M  V30 13278 C 1574.36 -1.37072 -1.60544 0
M  V30 13279 O 1573.7 -0.555781 -2.21638 0
M  V30 13280 C 1573.91 -3.48544 -0.178267 0
M  V30 13281 C 1575.26 -4.22839 -0.386283 0
M  V30 13282 O 1576.29 -3.55275 -0.256604 0
M  V30 13283 O 1575.14 -5.42693 -0.643927 0
M  V30 13284 H 1572.24 -0.816291 -0.132656 0
M  V30 13285 H 1574.78 -1.62473 0.489972 0
M  V30 13286 H 1573.56 -3.82874 0.807658 0
M  V30 13287 H 1573.18 -3.87121 -0.906832 0
M  V30 13288 N 1574.18 -0.163538 -1.56749 0
M  V30 13289 C 1575.59 0.192717 -1.58432 0
M  V30 13290 C 1575.79 1.63438 -1.17856 0
M  V30 13291 O 1574.85 2.36425 -0.88654 0
M  V30 13292 C 1576.16 -0.0810427 -3.00591 0
M  V30 13293 C 1577.71 -0.0186378 -3.12994 0
M  V30 13294 C 1578.18 -0.265283 -4.57231 0
M  V30 13295 N 1579.68 -0.212787 -4.62711 0
M  V30 13296 C 1580.41 -0.37791 -5.72153 0
M  V30 13297 N 1579.91 -0.601663 -6.90182 0
M  V30 13298 N 1581.7 -0.314357 -5.6122 0
M  V30 13299 H 1573.85 -1.10467 -1.81413 0
M  V30 13300 H 1576.11 -0.438569 -0.840453 0
M  V30 13301 H 1575.82 -1.07944 -3.34725 0
M  V30 13302 H 1575.69 0.630888 -3.71887 0
M  V30 13303 H 1578.08 0.970324 -2.78691 0
M  V30 13304 H 1578.16 -0.763158 -2.44151 0
M  V30 13305 H 1577.81 -1.25142 -4.92242 0
M  V30 13306 H 1577.74 0.499756 -5.24223 0
M  V30 13307 H 1580.23 -0.0451754 -3.77873 0
M  V30 13308 H 1580.54 -0.717319 -7.69464 0
M  V30 13309 H 1578.88 -0.638184 -6.92064 0
M  V30 13310 H 1582.08 -0.140197 -4.6789 0
M  V30 13311 H 1582.25 -0.446472 -6.4646 0
M  V30 13312 N 1575.65 1.57214 0.110213 0
M  V30 13313 C 1576.9 1.84946 0.814827 0
M  V30 13314 C 1577.22 0.750029 1.79999 0
M  V30 13315 O 1576.49 -0.225164 1.94602 0
M  V30 13316 H 1575.07 0.682385 0.303907 0
M  V30 13317 H 1577.74 1.94666 0.0954415 0
M  V30 13318 H 1576.83 2.81167 1.35469 0
M  V30 13319 N 1577.13 -0.380637 1.52934 0
M  V30 13320 C 1578.04 -1.48957 1.81243 0
M  V30 13321 C 1579.06 -1.5931 0.69974 0
M  V30 13322 O 1580.23 -1.75488 0.988218 0
M  V30 13323 C 1577.3 -2.84397 1.9829 0
M  V30 13324 C 1576.36 -2.83697 3.22202 0
M  V30 13325 C 1575.59 -4.12677 3.38427 0
M  V30 13326 O 1575.82 -5.08068 2.59274 0
M  V30 13327 O 1574.75 -4.19407 4.31719 0
M  V30 13328 H 1578.58 -1.27964 2.75425 0
M  V30 13329 H 1576.16 -0.56929 1.38128 0
M  V30 13330 H 1578.04 -3.64676 2.11161 0
M  V30 13331 H 1576.72 -3.054 1.07298 0
M  V30 13332 H 1575.63 -2.0217 3.14767 0
M  V30 13333 H 1576.96 -2.67648 4.13068 0
M  V30 13334 N 1578.61 -1.44039 -0.639573 0
M  V30 13335 C 1579.84 -1.49844 -1.42669 0
M  V30 13336 C 1580.25 -0.120599 -1.88414 0
M  V30 13337 O 1579.61 0.871875 -1.60327 0
M  V30 13338 C 1579.66 -2.45597 -2.65263 0
M  V30 13339 O 1579.38 -3.78023 -2.21427 0
M  V30 13340 C 1580.88 -2.60781 -3.5848 0
M  V30 13341 H 1578.1 -0.508477 -0.437826 0
M  V30 13342 H 1580.65 -1.88919 -0.782923 0
M  V30 13343 H 1578.8 -2.09679 -3.2575 0
M  V30 13344 H 1579.22 -4.29642 -3.00846 0
M  V30 13345 H 1580.69 -3.31826 -4.4113 0
M  V30 13346 H 1581.17 -1.65727 -4.06732 0
M  V30 13347 H 1581.77 -2.97565 -3.03867 0
M  V30 13348 N 1580.09 0.879207 -1.30796 0
M  V30 13349 C 1581.34 1.62828 -1.19715 0
M  V30 13350 C 1581.66 1.93429 0.247031 0
M  V30 13351 O 1580.93 1.57478 1.16522 0
M  V30 13352 H 1579.51 0.603607 -0.440077 0
M  V30 13353 H 1582.17 1.05309 -1.64 0
M  V30 13354 H 1581.27 2.57591 -1.76219 0
M  V30 13355 N 1581.57 1.13606 1.09231 0
M  V30 13356 C 1582.98 0.91148 1.62938 0
M  V30 13357 C 1583.33 -0.55157 1.88287 0
M  V30 13358 O 1582.45 -1.4187 1.63407 0
M  V30 13359 C 1583.05 1.64812 2.96011 0
M  V30 13360 C 1581.61 1.46935 3.46536 0
M  V30 13361 C 1580.76 1.67605 2.20916 0
M  V30 13362 H 1583.71 1.28907 0.925669 0
M  V30 13363 H 1583.73 1.10638 3.6406 0
M  V30 13364 H 1583.24 2.71291 2.77529 0
M  V30 13365 H 1581.34 0.427667 3.70138 0
M  V30 13366 H 1581.45 2.23374 4.2384 0
M  V30 13367 H 1579.82 1.10105 2.29672 0
M  V30 13368 H 1580.6 2.75408 2.04952 0
M  V30 13369 N 1583.05 -1.27244 0.929878 0
M  V30 13370 C 1584.01 -2.25028 0.435315 0
M  V30 13371 C 1585.01 -1.54453 -0.447332 0
M  V30 13372 O 1586.2 -1.72424 -0.248105 0
M  V30 13373 C 1583.33 -3.38843 -0.373933 0
M  V30 13374 H 1584.52 -2.70293 1.2993 0
M  V30 13375 H 1582.08 -1.39204 0.710771 0
M  V30 13376 H 1582.81 -2.98963 -1.25664 0
M  V30 13377 H 1582.6 -3.91244 0.258946 0
M  V30 13378 H 1584.09 -4.11516 -0.710255 0
M  V30 13379 N 1584.52 -0.695628 -1.41417 0
M  V30 13380 C 1585.77 -0.226171 -2.0083 0
M  V30 13381 C 1586.09 1.17833 -1.55371 0
M  V30 13382 O 1585.36 1.79512 -0.784362 0
M  V30 13383 H 1583.94 -0.0806271 -0.742636 0
M  V30 13384 H 1586.6 -0.8968 -1.73042 0
M  V30 13385 H 1585.7 -0.243643 -3.11148 0
M  V30 13386 N 1586 1.51322 -0.440383 0
M  V30 13387 C 1587.41 1.86687 0.0220272 0
M  V30 13388 C 1587.76 1.35734 1.41671 0
M  V30 13389 O 1586.89 0.709408 2.04442 0
M  V30 13390 C 1587.48 3.38768 0.0467477 0
M  V30 13391 C 1586.04 3.73657 0.45358 0
M  V30 13392 C 1585.19 2.7506 -0.351779 0
M  V30 13393 H 1588.14 1.44503 -0.65609 0
M  V30 13394 H 1588.16 3.70756 0.855589 0
M  V30 13395 H 1587.67 3.75823 -0.968451 0
M  V30 13396 H 1585.77 3.42193 1.47427 0
M  V30 13397 H 1585.89 4.78776 0.176262 0
M  V30 13398 H 1584.25 2.53988 0.190334 0
M  V30 13399 H 1585.03 3.14957 -1.36591 0
M  V30 13400 N 1587.48 0.171848 1.5666 0
M  V30 13401 C 1588.71 -0.479221 2.01274 0
M  V30 13402 C 1589.12 -1.56771 1.05206 0
M  V30 13403 O 1588.48 -1.82423 0.0530164 0
M  V30 13404 C 1588.53 -1.05705 3.457 0
M  V30 13405 O 1588.25 -0.0120133 4.38098 0
M  V30 13406 C 1589.75 -1.78629 4.05717 0
M  V30 13407 H 1586.97 -0.122598 0.659705 0
M  V30 13408 H 1589.52 0.273733 2.0266 0
M  V30 13409 H 1587.67 -1.7605 3.45087 0
M  V30 13410 H 1588.09 -0.438714 5.22662 0
M  V30 13411 H 1589.56 -2.14319 5.08696 0
M  V30 13412 H 1590.04 -2.68149 3.4784 0
M  V30 13413 H 1590.64 -1.12925 4.10034 0
M  V30 13414 N 1588.96 -1.5727 -0.101874 0
M  V30 13415 C 1590.21 -1.85375 -0.805007 0
M  V30 13416 C 1590.53 -0.759564 -1.79599 0
M  V30 13417 O 1589.8 0.21484 -1.94718 0
M  V30 13418 H 1588.38 -0.683987 -0.300284 0
M  V30 13419 H 1591.04 -1.94714 -0.0851166 0
M  V30 13420 H 1590.13 -2.81881 -1.33976 0
M  V30 13421 N 1590.44 0.372521 -1.53134 0
M  V30 13422 C 1591.85 0.949671 -1.60742 0
M  V30 13423 C 1592.2 1.90475 -0.470501 0
M  V30 13424 O 1591.32 2.12594 0.404085 0
M  V30 13425 C 1591.92 1.72918 -2.9135 0
M  V30 13426 C 1590.48 2.25577 -3.01317 0
M  V30 13427 C 1589.62 1.06612 -2.55986 0
M  V30 13428 H 1592.57 0.151533 -1.57975 0
M  V30 13429 H 1592.6 2.58982 -2.78763 0
M  V30 13430 H 1592.11 1.0338 -3.74078 0
M  V30 13431 H 1590.21 2.98378 -2.23162 0
M  V30 13432 H 1590.32 2.53935 -4.06268 0
M  V30 13433 H 1588.69 1.43105 -2.10697 0
M  V30 13434 H 1589.47 0.38584 -3.41125 0
M  V30 13435 N 1591.91 1.44376 0.631925 0
M  V30 13436 C 1593.16 1.47335 1.39356 0
M  V30 13437 C 1593.49 0.10525 1.93915 0
M  V30 13438 O 1592.77 -0.877006 1.73605 0
M  V30 13439 C 1593.05 2.53308 2.55943 0
M  V30 13440 C 1592.9 3.99473 2.06739 0
M  V30 13441 C 1594.22 2.55794 3.58131 0
M  V30 13442 H 1591.34 0.536447 0.505365 0
M  V30 13443 H 1593.98 1.76051 0.714572 0
M  V30 13444 H 1592.13 2.28953 3.13868 0
M  V30 13445 H 1593.81 4.34958 1.53652 0
M  V30 13446 H 1592.05 4.11288 1.37929 0
M  V30 13447 H 1592.72 4.69269 2.90672 0
M  V30 13448 H 1595.2 2.77554 3.10005 0
M  V30 13449 H 1594.07 3.31847 4.37228 0
M  V30 13450 H 1594.33 1.59962 4.12146 0
M  V30 13451 N 1593.39 -0.872258 1.31261 0
M  V30 13452 C 1594.64 -1.6219 1.20576 0
M  V30 13453 C 1594.96 -1.93557 -0.236769 0
M  V30 13454 O 1594.23 -1.58094 -1.15686 0
M  V30 13455 H 1592.81 -0.601265 0.443272 0
M  V30 13456 H 1595.47 -1.04438 1.64556 0
M  V30 13457 H 1594.57 -2.56653 1.77582 0
M  V30 13458 N 1594.87 -1.14184 -1.08627 0
M  V30 13459 C 1596.28 -0.920108 -1.62453 0
M  V30 13460 C 1596.63 0.541577 -1.88577 0
M  V30 13461 O 1595.76 1.41002 -1.64157 0
M  V30 13462 C 1596.35 -1.6638 -2.95132 0
M  V30 13463 C 1594.91 -1.48771 -3.45752 0
M  V30 13464 C 1594.06 -1.68774 -2.20024 0
M  V30 13465 H 1597.01 -1.29396 -0.91882 0
M  V30 13466 H 1597.03 -1.12568 -3.63468 0
M  V30 13467 H 1596.54 -2.72759 -2.76087 0
M  V30 13468 H 1594.64 -0.44729 -3.69905 0
M  V30 13469 H 1594.76 -2.25619 -4.2265 0
M  V30 13470 H 1593.12 -1.11321 -2.29084 0
M  V30 13471 H 1593.9 -2.76491 -2.03489 0
M  V30 13472 N 1596.35 1.26749 -0.936613 0
M  V30 13473 C 1597.59 1.94251 -0.582616 0
M  V30 13474 C 1597.93 1.73352 0.875361 0
M  V30 13475 O 1597.2 1.06784 1.62565 0
M  V30 13476 C 1597.49 3.48145 -0.920151 0
M  V30 13477 C 1597.34 3.78349 -2.43253 0
M  V30 13478 C 1598.66 4.37971 -0.432326 0
M  V30 13479 H 1595.78 0.705507 -0.213141 0
M  V30 13480 H 1598.42 1.49703 -1.17001 0
M  V30 13481 H 1596.57 3.8622 -0.420279 0
M  V30 13482 H 1598.24 3.50015 -3.00478 0
M  V30 13483 H 1596.48 3.24586 -2.87795 0
M  V30 13484 H 1597.15 4.85902 -2.61922 0
M  V30 13485 H 1599.63 4.07098 -0.860857 0
M  V30 13486 H 1598.51 5.44452 -0.697366 0
M  V30 13487 H 1598.77 4.37029 0.667694 0
M  V30 13488 N 1597.83 0.703118 1.41046 0
M  V30 13489 C 1599.07 0.236818 2.00708 0
M  V30 13490 C 1599.4 -1.17008 1.55994 0
M  V30 13491 O 1598.67 -1.79094 0.793871 0
M  V30 13492 H 1597.25 0.0845643 0.742198 0
M  V30 13493 H 1599.91 0.905964 1.72564 0
M  V30 13494 H 1599 0.260141 3.11014 0
M  V30 13495 N 1599.3 -1.51086 0.448402 0
M  V30 13496 C 1600.27 -2.26575 -0.3459 0
M  V30 13497 C 1601.27 -1.3045 -0.940178 0
M  V30 13498 O 1602.46 -1.5407 -0.812898 0
M  V30 13499 C 1599.59 -3.06591 -1.49045 0
M  V30 13500 H 1600.78 -2.98232 0.315822 0
M  V30 13501 H 1598.34 -1.54991 0.201851 0
M  V30 13502 H 1599.07 -2.39377 -2.1879 0
M  V30 13503 H 1598.86 -3.77207 -1.07038 0
M  V30 13504 H 1600.35 -3.63743 -2.05135 0
M  V30 13505 N 1600.78 -0.180154 -1.56567 0
M  V30 13506 C 1602.2 0.175902 -1.58628 0
M  V30 13507 C 1602.4 1.62179 -1.19583 0
M  V30 13508 O 1601.45 2.35471 -0.911566 0
M  V30 13509 C 1602.77 -0.11292 -3.00488 0
M  V30 13510 C 1604.32 -0.051834 -3.12957 0
M  V30 13511 C 1604.79 -0.313764 -4.56924 0
M  V30 13512 N 1606.28 -0.261852 -4.62459 0
M  V30 13513 C 1607.02 -0.438573 -5.7172 0
M  V30 13514 N 1606.51 -0.674832 -6.89506 0
M  V30 13515 N 1608.31 -0.373864 -5.60855 0
M  V30 13516 H 1600.46 -1.12385 -1.80232 0
M  V30 13517 H 1602.72 -0.447459 -0.835754 0
M  V30 13518 H 1602.43 -1.11488 -3.33562 0
M  V30 13519 H 1602.3 0.591409 -3.72535 0
M  V30 13520 H 1604.69 0.940711 -2.79705 0
M  V30 13521 H 1604.77 -0.78901 -2.43327 0
M  V30 13522 H 1604.41 -1.30356 -4.90887 0
M  V30 13523 H 1604.34 0.444127 -5.24724 0
M  V30 13524 H 1606.83 -0.0852513 -3.77804 0
M  V30 13525 H 1607.15 -0.798891 -7.6866 0
M  V30 13526 H 1605.49 -0.711551 -6.91348 0
M  V30 13527 H 1608.68 -0.189815 -4.67715 0
M  V30 13528 H 1608.85 -0.515012 -6.4595 0
M  V30 13529 N 1602.26 1.57322 0.0935319 0
M  V30 13530 C 1603.51 1.858 0.795165 0
M  V30 13531 C 1603.83 0.769078 1.79193 0
M  V30 13532 O 1603.1 -0.204511 1.9483 0
M  V30 13533 H 1601.68 0.68557 0.296653 0
M  V30 13534 H 1604.34 1.94756 0.0747892 0
M  V30 13535 H 1603.44 2.82588 1.32479 0
M  V30 13536 N 1603.74 -0.364395 1.53329 0
M  V30 13537 C 1605.15 -0.941133 1.61244 0
M  V30 13538 C 1605.5 -1.90223 0.480596 0
M  V30 13539 O 1604.63 -2.12805 -0.392805 0
M  V30 13540 C 1605.22 -1.7137 2.92263 0
M  V30 13541 C 1603.78 -2.23976 3.02509 0
M  V30 13542 C 1602.93 -1.05253 2.56548 0
M  V30 13543 H 1605.88 -0.143153 1.58053 0
M  V30 13544 H 1605.9 -2.575 2.80132 0
M  V30 13545 H 1605.41 -1.01395 3.74621 0
M  V30 13546 H 1603.51 -2.9719 2.24741 0
M  V30 13547 H 1603.62 -2.51777 4.07609 0
M  V30 13548 H 1601.99 -1.41986 2.11452 0
M  V30 13549 H 1602.77 -0.367744 3.41325 0
M  V30 13550 N 1605.22 -1.44709 -0.62426 0
M  V30 13551 C 1606.18 -1.51738 -1.7178 0
M  V30 13552 C 1607.18 -0.398646 -1.5578 0
M  V30 13553 O 1608.37 -0.661525 -1.61151 0
M  V30 13554 C 1605.5 -1.39792 -3.1092 0
M  V30 13555 H 1606.69 -2.49154 -1.6692 0
M  V30 13556 H 1604.25 -1.31903 -0.838531 0
M  V30 13557 H 1604.98 -0.434955 -3.2137 0
M  V30 13558 H 1604.77 -2.20919 -3.2394 0
M  V30 13559 H 1606.26 -1.47706 -3.90606 0
M  V30 13560 N 1606.69 0.865285 -1.31722 0
M  V30 13561 C 1607.94 1.61549 -1.21435 0
M  V30 13562 C 1608.26 1.9368 0.226501 0
M  V30 13563 O 1607.53 1.58705 1.14846 0
M  V30 13564 H 1606.11 0.598905 -0.446454 0
M  V30 13565 H 1608.78 1.03563 -1.65108 0
M  V30 13566 H 1607.87 2.55708 -1.78941 0
M  V30 13567 N 1608.17 1.14759 1.0802 0
M  V30 13568 C 1609.58 0.928711 1.61963 0
M  V30 13569 C 1609.93 -0.531568 1.88862 0
M  V30 13570 O 1609.06 -1.40129 1.64902 0
M  V30 13571 C 1609.65 1.67943 2.94246 0
M  V30 13572 C 1608.21 1.50602 3.44958 0
M  V30 13573 C 1607.36 1.69938 2.19126 0
M  V30 13574 H 1610.31 1.29882 0.911945 0
M  V30 13575 H 1610.33 1.14493 3.62866 0
M  V30 13576 H 1609.84 2.7422 2.74636 0
M  V30 13577 H 1607.95 0.466901 3.69663 0
M  V30 13578 H 1608.06 2.27857 4.21447 0
M  V30 13579 H 1606.42 1.12534 2.28491 0
M  V30 13580 H 1607.21 2.77566 2.0202 0
M  V30 13581 N 1609.65 -1.26251 0.943322 0
M  V30 13582 C 1610.58 -2.25468 0.411904 0
M  V30 13583 C 1611.6 -1.55988 -0.466005 0
M  V30 13584 O 1612.78 -1.76352 -0.276106 0
M  V30 13585 C 1609.88 -3.362 -0.426909 0
M  V30 13586 C 1609.06 -4.35228 0.435346 0
M  V30 13587 C 1608.12 -5.25078 -0.343388 0
M  V30 13588 O 1607.14 -5.68632 0.254322 0
M  V30 13589 N 1608.34 -5.5687 -1.63939 0
M  V30 13590 H 1611.11 -2.71701 1.26486 0
M  V30 13591 H 1608.67 -1.40039 0.812438 0
M  V30 13592 H 1610.66 -3.93263 -0.955316 0
M  V30 13593 H 1609.23 -2.89446 -1.18067 0
M  V30 13594 H 1608.45 -3.77206 1.14495 0
M  V30 13595 H 1609.74 -4.98384 1.02427 0
M  V30 13596 H 1609.14 -5.2337 -2.14709 0
M  V30 13597 H 1607.7 -6.16566 -2.11399 0
M  V30 13598 N 1611.13 -0.710588 -1.40671 0
M  V30 13599 C 1612.38 -0.247459 -2.00579 0
M  V30 13600 C 1612.7 1.16179 -1.56612 0
M  V30 13601 O 1611.97 1.7867 -0.803358 0
M  V30 13602 H 1610.55 -0.0884992 -0.741739 0
M  V30 13603 H 1613.21 -0.915103 -1.72081 0
M  V30 13604 H 1612.31 -0.276631 -3.10872 0
M  V30 13605 N 1612.61 1.50847 -0.456408 0
M  V30 13606 C 1614.02 1.867 0.00222532 0
M  V30 13607 C 1614.37 1.37229 1.40224 0
M  V30 13608 O 1613.49 0.731052 2.03678 0
M  V30 13609 C 1614.09 3.38798 0.0108142 0
M  V30 13610 C 1612.65 3.74117 0.413924 0
M  V30 13611 C 1611.8 2.74671 -0.380933 0
M  V30 13612 H 1614.75 1.43799 -0.671379 0
M  V30 13613 H 1614.77 3.71642 0.816217 0
M  V30 13614 H 1614.28 3.74774 -1.00826 0
M  V30 13615 H 1612.38 3.43737 1.43789 0
M  V30 13616 H 1612.49 4.78936 0.125471 0
M  V30 13617 H 1610.86 2.54175 0.163385 0
M  V30 13618 H 1611.64 3.1349 -1.39924 0
M  V30 13619 N 1614.09 0.188454 1.56469 0
M  V30 13620 C 1615.5 -0.167487 1.58719 0
M  V30 13621 C 1615.7 -1.61543 1.20442 0
M  V30 13622 O 1614.76 -2.34985 0.924041 0
M  V30 13623 C 1616.07 0.128854 3.00424 0
M  V30 13624 C 1617.62 0.0684301 3.12925 0
M  V30 13625 C 1618.09 0.337991 4.56751 0
M  V30 13626 N 1619.58 0.286373 4.62314 0
M  V30 13627 C 1620.32 0.468886 5.7148 0
M  V30 13628 N 1619.82 0.711388 6.89138 0
M  V30 13629 N 1621.61 0.403602 5.60649 0
M  V30 13630 H 1613.76 1.13339 1.79633 0
M  V30 13631 H 1616.02 0.451885 0.833369 0
M  V30 13632 H 1615.73 1.13255 3.32966 0
M  V30 13633 H 1615.6 -0.571644 3.72843 0
M  V30 13634 H 1617.99 -0.925864 2.802 0
M  V30 13635 H 1618.07 0.801903 2.42906 0
M  V30 13636 H 1617.71 1.32957 4.90189 0
M  V30 13637 H 1617.64 -0.416293 5.24952 0
M  V30 13638 H 1620.14 0.105286 3.77753 0
M  V30 13639 H 1620.45 0.839643 7.68225 0
M  V30 13640 H 1618.79 0.748205 6.90961 0
M  V30 13641 H 1621.98 0.214616 4.67608 0
M  V30 13642 H 1622.16 0.549261 6.45668 0
M  V30 13643 N 1615.56 -1.5737 -0.0851874 0
M  V30 13644 C 1616.81 -1.86219 -0.7853 0
M  V30 13645 C 1617.13 -0.77857 -1.78783 0
M  V30 13646 O 1616.4 0.194176 -1.94935 0
M  V30 13647 H 1614.98 -0.687134 -0.293013 0
M  V30 13648 H 1617.64 -1.94793 -0.0644597 0
M  V30 13649 H 1616.74 -2.83286 -1.30978 0
M  V30 13650 N 1617.04 0.356258 -1.53521 0
M  V30 13651 C 1618.32 1.11414 -1.60768 0
M  V30 13652 C 1618.7 2.0686 -0.420991 0
M  V30 13653 O 1618.05 2.20807 0.587929 0
M  V30 13654 C 1618.26 1.84503 -2.96243 0
M  V30 13655 C 1619.6 2.38703 -3.5115 0
M  V30 13656 O 1620.63 1.94617 -2.98333 0
M  V30 13657 O 1619.49 3.19322 -4.43504 0
M  V30 13658 H 1616.58 0.511623 -0.649747 0
M  V30 13659 H 1619.13 0.358772 -1.65864 0
M  V30 13660 H 1617.9 1.14898 -3.74051 0
M  V30 13661 H 1617.52 2.66927 -2.94679 0
M  V30 13662 N 1618.52 1.45038 0.616577 0
M  V30 13663 C 1619.47 1.53022 1.7278 0
M  V30 13664 C 1620.44 0.376778 1.6177 0
M  V30 13665 O 1621.62 0.589006 1.81481 0
M  V30 13666 C 1618.76 1.49432 3.11069 0
M  V30 13667 C 1617.87 2.7526 3.3295 0
M  V30 13668 C 1617.01 2.63403 4.61294 0
M  V30 13669 C 1616.05 3.84327 4.76402 0
M  V30 13670 N 1615.19 3.71058 5.96037 0
M  V30 13671 H 1620.03 2.47957 1.65292 0
M  V30 13672 H 1617.56 1.23046 0.806102 0
M  V30 13673 H 1619.52 1.45339 3.91066 0
M  V30 13674 H 1618.15 0.580542 3.17537 0
M  V30 13675 H 1617.2 2.89479 2.46792 0
M  V30 13676 H 1618.51 3.64978 3.39989 0
M  V30 13677 H 1617.67 2.57226 5.49472 0
M  V30 13678 H 1616.41 1.7127 4.56638 0
M  V30 13679 H 1615.41 3.90873 3.8665 0
M  V30 13680 H 1616.64 4.77515 4.82863 0
M  V30 13681 H 1614.58 2.81687 5.92443 0
M  V30 13682 H 1614.5 4.54403 6.04197 0
M  V30 13683 H 1615.77 3.68798 6.86738 0
M  V30 13684 N 1620 -0.858287 1.32179 0
M  V30 13685 C 1621.25 -1.60902 1.2229 0
M  V30 13686 C 1621.57 -1.93797 -0.216227 0
M  V30 13687 O 1620.84 -1.59312 -1.14002 0
M  V30 13688 H 1619.42 -0.596529 0.449624 0
M  V30 13689 H 1622.08 -1.02686 1.65655 0
M  V30 13690 H 1621.17 -2.54755 1.80295 0
M  V30 13691 N 1621.48 -1.1533 -1.07409 0
M  V30 13692 C 1622.39 -0.863514 -2.1813 0
M  V30 13693 C 1623.4 0.159954 -1.73263 0
M  V30 13694 O 1624.58 -0.0139818 -2.01395 0
M  V30 13695 C 1621.64 -0.356271 -3.44865 0
M  V30 13696 C 1620.7 -1.44356 -4.04302 0
M  V30 13697 C 1619.94 -0.960429 -5.24987 0
M  V30 13698 O 1620.16 0.194227 -5.70069 0
M  V30 13699 O 1619.09 -1.74387 -5.76084 0
M  V30 13700 H 1622.92 -1.78909 -2.45408 0
M  V30 13701 H 1620.5 -0.932362 -1.16736 0
M  V30 13702 H 1622.39 -0.0798183 -4.21324 0
M  V30 13703 H 1621.06 0.541445 -3.1914 0
M  V30 13704 H 1619.97 -1.77361 -3.29384 0
M  V30 13705 H 1621.3 -2.31617 -4.34298 0
M  V30 13706 N 1622.95 1.25748 -0.950004 0
M  V30 13707 C 1624.18 1.97413 -0.61933 0
M  V30 13708 C 1624.6 1.70656 0.807591 0
M  V30 13709 O 1623.95 0.979899 1.53962 0
M  V30 13710 C 1624 3.51053 -0.862801 0
M  V30 13711 O 1623.73 3.76884 -2.23361 0
M  V30 13712 C 1625.23 4.39951 -0.543879 0
M  V30 13713 H 1622.45 0.629394 -0.232603 0
M  V30 13714 H 1624.99 1.60037 -1.27312 0
M  V30 13715 H 1623.15 3.86557 -0.255493 0
M  V30 13716 H 1623.56 4.71368 -2.30026 0
M  V30 13717 H 1625.03 5.46676 -0.764804 0
M  V30 13718 H 1625.51 4.36094 0.521421 0
M  V30 13719 H 1626.12 4.10005 -1.1303 0
M  V30 13720 N 1624.43 0.718038 1.40292 0
M  V30 13721 C 1625.68 0.258092 2.00445 0
M  V30 13722 C 1626 -1.15347 1.57226 0
M  V30 13723 O 1625.27 -1.78241 0.812822 0
M  V30 13724 H 1623.85 0.0924316 0.741259 0
M  V30 13725 H 1626.51 0.924216 1.71593 0
M  V30 13726 H 1625.61 0.293113 3.10721 0
M  V30 13727 N 1625.91 -1.50602 0.464402 0
M  V30 13728 C 1626.82 -2.32142 -0.338721 0
M  V30 13729 C 1627.84 -1.4223 -1.00233 0
M  V30 13730 O 1629.01 -1.75288 -0.99177 0
M  V30 13731 C 1626.08 -3.16725 -1.41019 0
M  V30 13732 C 1625.14 -4.22449 -0.76388 0
M  V30 13733 C 1624.37 -5.0299 -1.78429 0
M  V30 13734 O 1624.59 -4.84516 -3.00999 0
M  V30 13735 O 1623.53 -5.86338 -1.35982 0
M  V30 13736 H 1627.35 -3.01927 0.327695 0
M  V30 13737 H 1624.94 -1.47675 0.226379 0
M  V30 13738 H 1626.82 -3.69228 -2.03097 0
M  V30 13739 H 1625.5 -2.49675 -2.06019 0
M  V30 13740 H 1624.4 -3.73955 -0.104318 0
M  V30 13741 H 1625.74 -4.9195 -0.156929 0
M  V30 13742 N 1627.39 -0.19675 -1.56367 0
M  V30 13743 C 1628.32 0.75534 -2.16396 0
M  V30 13744 C 1629.33 1.17558 -1.12623 0
M  V30 13745 O 1630.52 1.11102 -1.39709 0
M  V30 13746 C 1627.62 2.03159 -2.71256 0
M  V30 13747 C 1626.8 1.77088 -3.99948 0
M  V30 13748 C 1625.85 2.89176 -4.39618 0
M  V30 13749 O 1624.88 2.58712 -5.07007 0
M  V30 13750 N 1626.08 4.17569 -4.03257 0
M  V30 13751 H 1628.85 0.241991 -2.98721 0
M  V30 13752 H 1626.41 -0.0148423 -1.61893 0
M  V30 13753 H 1628.4 2.77287 -2.94778 0
M  V30 13754 H 1626.97 2.45611 -1.93375 0
M  V30 13755 H 1626.19 0.867309 -3.84541 0
M  V30 13756 H 1627.48 1.5707 -4.83949 0
M  V30 13757 H 1626.88 4.45171 -3.49054 0
M  V30 13758 H 1625.43 4.88319 -4.31726 0
M  V30 13759 N 1628.87 1.57413 0.0768405 0
M  V30 13760 C 1630.11 1.86633 0.775414 0
M  V30 13761 C 1630.44 0.788041 1.78367 0
M  V30 13762 O 1629.71 -0.183835 1.95036 0
M  V30 13763 H 1628.29 0.688678 0.289365 0
M  V30 13764 H 1630.95 1.94825 0.0541285 0
M  V30 13765 H 1630.04 2.83977 1.29474 0
M  V30 13766 N 1630.34 -0.348112 1.53707 0
M  V30 13767 C 1631.62 -1.1056 1.61356 0
M  V30 13768 C 1632 -2.06633 0.431955 0
M  V30 13769 O 1631.35 -2.21115 -0.576211 0
M  V30 13770 C 1631.56 -1.82929 2.97217 0
M  V30 13771 C 1632.91 -2.36837 3.52411 0
M  V30 13772 O 1633.93 -1.93032 2.99361 0
M  V30 13773 O 1632.79 -3.16966 4.45191 0
M  V30 13774 H 1629.88 -0.50817 0.652451 0
M  V30 13775 H 1632.43 -0.349971 1.66052 0
M  V30 13776 H 1631.2 -1.12912 3.74655 0
M  V30 13777 H 1630.83 -2.65361 2.9609 0
M  V30 13778 N 1631.82 -1.45363 -0.608876 0
M  V30 13779 C 1633.24 -1.29741 -0.929491 0
M  V30 13780 C 1633.44 -0.249486 -1.9995 0
M  V30 13781 O 1632.49 0.357014 -2.49963 0
M  V30 13782 C 1633.81 -2.67594 -1.37164 0
M  V30 13783 C 1635.36 -2.7548 -1.48592 0
M  V30 13784 C 1635.83 -4.13855 -1.96183 0
M  V30 13785 N 1637.32 -4.16143 -2.03419 0
M  V30 13786 C 1638.06 -5.20081 -2.41462 0
M  V30 13787 N 1637.55 -6.34365 -2.78482 0
M  V30 13788 N 1639.35 -5.07439 -2.4179 0
M  V30 13789 H 1631.5 -2.12172 0.0983838 0
M  V30 13790 H 1633.76 -0.947817 -0.0186397 0
M  V30 13791 H 1633.47 -3.45459 -0.6596 0
M  V30 13792 H 1633.34 -2.9597 -2.33841 0
M  V30 13793 H 1635.73 -1.97919 -2.18888 0
M  V30 13794 H 1635.81 -2.50819 -0.502337 0
M  V30 13795 H 1635.45 -4.91901 -1.26475 0
M  V30 13796 H 1635.38 -4.35907 -2.95453 0
M  V30 13797 H 1637.87 -3.33671 -1.77404 0
M  V30 13798 H 1638.19 -7.09469 -3.06388 0
M  V30 13799 H 1636.53 -6.37769 -2.76181 0
M  V30 13800 H 1639.72 -4.17202 -2.12273 0
M  V30 13801 H 1639.89 -5.8856 -2.71112 0
M  V30 13802 N 1633.3 0.851265 -1.32632 0
M  V30 13803 C 1634.55 1.60252 -1.23141 0
M  V30 13804 C 1634.87 1.93909 0.205946 0
M  V30 13805 O 1634.14 1.59914 1.13156 0
M  V30 13806 H 1632.72 0.594137 -0.452781 0
M  V30 13807 H 1635.38 1.01806 -1.66197 0
M  V30 13808 H 1634.48 2.53796 -1.81643 0
M  V30 13809 N 1634.78 1.15898 1.06796 0
M  V30 13810 C 1636.03 0.931848 1.78884 0
M  V30 13811 C 1636.34 -0.54197 1.87942 0
M  V30 13812 O 1637.55 -0.886848 2.56607 0
M  V30 13813 C 1636 1.61788 3.21485 0
M  V30 13814 C 1635.61 3.12911 3.2061 0
M  V30 13815 C 1637.35 1.47252 3.98142 0
M  V30 13816 C 1635.26 3.74275 4.579 0
M  V30 13817 H 1634.19 0.344998 0.670442 0
M  V30 13818 H 1636.84 1.38974 1.19827 0
M  V30 13819 H 1635.22 1.08769 3.80769 0
M  V30 13820 H 1636.4 3.72732 2.70938 0
M  V30 13821 H 1634.71 3.27273 2.57451 0
M  V30 13822 H 1637.31 1.90484 4.9962 0
M  V30 13823 H 1637.65 0.420766 4.14168 0
M  V30 13824 H 1638.19 1.97398 3.45367 0
M  V30 13825 H 1634.93 4.79376 4.47078 0
M  V30 13826 H 1634.45 3.19238 5.07786 0
M  V30 13827 H 1636.12 3.75532 5.26863 0
M  V30 13828 N 1636.26 -1.25243 0.956659 0
M  V30 13829 C 1637.2 -2.25811 0.477292 0
M  V30 13830 C 1638.17 -1.59273 -0.471301 0
M  V30 13831 O 1639.36 -1.86894 -0.384105 0
M  V30 13832 C 1636.5 -3.44286 -0.236891 0
M  V30 13833 C 1635.61 -4.25454 0.749177 0
M  V30 13834 C 1634.75 -5.31199 0.012228 0
M  V30 13835 C 1633.79 -6.04056 0.989094 0
M  V30 13836 N 1632.92 -7.0153 0.282883 0
M  V30 13837 H 1637.76 -2.66185 1.33977 0
M  V30 13838 H 1635.3 -1.30862 0.671832 0
M  V30 13839 H 1637.26 -4.11825 -0.66755 0
M  V30 13840 H 1635.89 -3.04781 -1.06339 0
M  V30 13841 H 1634.94 -3.57558 1.29831 0
M  V30 13842 H 1636.25 -4.75883 1.49454 0
M  V30 13843 H 1635.41 -6.04822 -0.476968 0
M  V30 13844 H 1634.14 -4.81648 -0.76591 0
M  V30 13845 H 1633.15 -5.29245 1.48927 0
M  V30 13846 H 1634.37 -6.55695 1.76749 0
M  V30 13847 H 1632.32 -6.54267 -0.476479 0
M  V30 13848 H 1632.24 -7.49786 0.967304 0
M  V30 13849 H 1633.51 -7.79281 -0.184709 0
M  V30 13850 N 1637.73 -0.725468 -1.3991 0
M  V30 13851 C 1638.98 -0.268719 -2.00306 0
M  V30 13852 C 1639.3 1.14511 -1.57836 0
M  V30 13853 O 1638.57 1.77808 -0.822263 0
M  V30 13854 H 1637.15 -0.0963614 -0.740759 0
M  V30 13855 H 1639.82 -0.933303 -1.71101 0
M  V30 13856 H 1638.91 -0.309587 -3.10561 0
M  V30 13857 N 1639.21 1.50354 -0.472382 0
M  V30 13858 C 1640.16 2.25454 0.339784 0
M  V30 13859 C 1641.15 1.29097 0.960352 0
M  V30 13860 O 1642.34 1.53991 0.872688 0
M  V30 13861 C 1639.47 3.12535 1.42045 0
M  V30 13862 C 1638.55 4.1634 0.807552 0
M  V30 13863 N 1638.94 5.05747 -0.0729066 0
M  V30 13864 C 1637.24 4.32941 1.07135 0
M  V30 13865 C 1637.94 5.80175 -0.420868 0
M  V30 13866 N 1636.92 5.43216 0.204266 0
M  V30 13867 H 1640.72 2.91945 -0.338451 0
M  V30 13868 H 1638.24 1.59851 -0.286612 0
M  V30 13869 H 1640.23 3.64944 2.01548 0
M  V30 13870 H 1638.89 2.47593 2.10067 0
M  V30 13871 H 1639.9 5.16012 -0.441825 0
M  V30 13872 H 1636.58 3.79217 1.74645 0
M  V30 13873 H 1637.97 6.62167 -1.13948 0
M  V30 13874 N 1640.69 0.205039 1.56261 0
M  V30 13875 C 1642.11 -0.150644 1.58887 0
M  V30 13876 C 1642.31 -1.60256 1.22148 0
M  V30 13877 O 1641.36 -2.33991 0.948912 0
M  V30 13878 C 1642.68 0.160711 3.0027 0
M  V30 13879 C 1644.22 0.101616 3.12835 0
M  V30 13880 C 1644.7 0.386417 4.56367 0
M  V30 13881 N 1646.19 0.335392 4.61984 0
M  V30 13882 C 1646.93 0.529473 5.7095 0
M  V30 13883 N 1646.42 0.784441 6.88345 0
M  V30 13884 N 1648.21 0.463044 5.6019 0
M  V30 13885 H 1640.37 1.15238 1.78421 0
M  V30 13886 H 1642.63 0.460698 0.82853 0
M  V30 13887 H 1642.33 1.1678 3.31746 0
M  V30 13888 H 1642.21 -0.532067 3.73429 0
M  V30 13889 H 1644.6 -0.896093 2.81166 0
M  V30 13890 H 1644.68 0.827622 2.42041 0
M  V30 13891 H 1644.32 1.38149 4.88751 0
M  V30 13892 H 1644.25 -0.360592 5.25364 0
M  V30 13893 H 1646.74 0.145346 3.7762 0
M  V30 13894 H 1647.05 0.921077 7.67291 0
M  V30 13895 H 1645.4 0.821448 6.90128 0
M  V30 13896 H 1648.59 0.2642 4.67354 0
M  V30 13897 H 1648.76 0.617712 6.45049 0
M  V30 13898 N 1642.17 -1.57451 -0.0684915 0
M  V30 13899 C 1643.42 -1.87041 -0.765505 0
M  V30 13900 C 1643.74 -0.797489 -1.77947 0
M  V30 13901 O 1643.01 0.17349 -1.9513 0
M  V30 13902 H 1641.59 -0.690203 -0.285708 0
M  V30 13903 H 1644.25 -1.94851 -0.0437957 0
M  V30 13904 H 1643.35 -2.8466 -1.27966 0
M  V30 13905 N 1643.65 0.339955 -1.5389 0
M  V30 13906 C 1644.89 1.07979 -1.71309 0
M  V30 13907 C 1645.22 1.88531 -0.478147 0
M  V30 13908 O 1644.48 1.88099 0.540113 0
M  V30 13909 C 1644.78 2.04572 -2.93062 0
M  V30 13910 C 1644.44 1.40303 -4.28516 0
M  V30 13911 C 1643.1 1.22505 -4.65345 0
M  V30 13912 C 1645.46 0.940364 -5.12647 0
M  V30 13913 C 1642.78 0.570639 -5.83918 0
M  V30 13914 C 1645.14 0.299844 -6.31889 0
M  V30 13915 C 1643.8 0.109575 -6.6741 0
M  V30 13916 H 1643.07 0.395125 -0.626863 0
M  V30 13917 H 1645.72 0.358686 -1.88111 0
M  V30 13918 H 1644.02 2.83077 -2.70878 0
M  V30 13919 H 1645.72 2.61816 -3.03733 0
M  V30 13920 H 1642.31 1.55155 -3.99531 0
M  V30 13921 H 1646.49 1.06571 -4.84723 0
M  V30 13922 H 1641.75 0.411872 -6.10011 0
M  V30 13923 H 1645.92 -0.0667391 -6.96368 0
M  V30 13924 H 1643.55 -0.399556 -7.59149 0
M  V30 13925 N 1645.13 1.45684 0.601159 0
M  V30 13926 C 1646.35 1.53806 1.39135 0
M  V30 13927 C 1646.78 0.173625 1.87297 0
M  V30 13928 O 1646.13 -0.842931 1.60513 0
M  V30 13929 C 1646.18 2.53201 2.56752 0
M  V30 13930 O 1645.29 2.05427 3.57594 0
M  V30 13931 H 1644.63 0.51824 0.415118 0
M  V30 13932 H 1647.16 1.91095 0.731006 0
M  V30 13933 H 1647.17 2.72215 3.03912 0
M  V30 13934 H 1645.84 3.52294 2.21047 0
M  V30 13935 H 1644.42 1.96318 3.17039 0
M  V30 13936 N 1646.6 -0.84422 1.33082 0
M  V30 13937 C 1647.85 -1.59596 1.2399 0
M  V30 13938 C 1648.17 -1.94016 -0.19566 0
M  V30 13939 O 1647.44 -1.60512 -1.12306 0
M  V30 13940 H 1646.02 -0.591727 0.455926 0
M  V30 13941 H 1648.68 -1.00924 1.66735 0
M  V30 13942 H 1647.78 -2.52829 1.82986 0
M  V30 13943 N 1648.08 -1.16463 -1.0618 0
M  V30 13944 C 1649.01 -0.895399 -2.1565 0
M  V30 13945 C 1649.99 0.158729 -1.69358 0
M  V30 13946 O 1651.18 0.010586 -1.94197 0
M  V30 13947 C 1648.31 -0.396959 -3.45024 0
M  V30 13948 C 1647.26 -1.38913 -4.0483 0
M  V30 13949 C 1646.59 -0.749043 -5.29427 0
M  V30 13950 C 1647.89 -2.7591 -4.43476 0
M  V30 13951 H 1649.58 -1.81085 -2.38429 0
M  V30 13952 H 1647.13 -0.872098 -1.14588 0
M  V30 13953 H 1649.08 -0.196086 -4.20944 0
M  V30 13954 H 1647.8 0.554002 -3.21867 0
M  V30 13955 H 1646.46 -1.57657 -3.30968 0
M  V30 13956 H 1646.11 0.208439 -5.02568 0
M  V30 13957 H 1645.81 -1.41128 -5.704 0
M  V30 13958 H 1647.34 -0.558217 -6.08043 0
M  V30 13959 H 1648.75 -2.60942 -5.10473 0
M  V30 13960 H 1647.15 -3.38618 -4.95437 0
M  V30 13961 H 1648.22 -3.31076 -3.54284 0
M  V30 13962 N 1649.56 1.24734 -0.963288 0
M  V30 13963 C 1650.49 2.24785 -0.447722 0
M  V30 13964 C 1651.5 1.5671 0.44113 0
M  V30 13965 O 1652.69 1.76769 0.248015 0
M  V30 13966 C 1649.79 3.36837 0.373368 0
M  V30 13967 C 1648.97 4.3448 -0.504532 0
M  V30 13968 C 1648.03 5.25558 0.25981 0
M  V30 13969 O 1647.05 5.68155 -0.344754 0
M  V30 13970 N 1648.25 5.59408 1.55058 0
M  V30 13971 H 1651.02 2.69654 -1.30792 0
M  V30 13972 H 1648.58 1.38729 -0.834614 0
M  V30 13973 H 1650.57 3.94733 0.892631 0
M  V30 13974 H 1649.14 2.91288 1.13447 0
M  V30 13975 H 1648.36 3.75337 -1.20481 0
M  V30 13976 H 1649.65 4.96691 -1.10343 0
M  V30 13977 H 1649.05 5.2672 2.06355 0
M  V30 13978 H 1647.6 6.19851 2.01563 0
M  V30 13979 N 1651.04 0.732878 1.39523 0
M  V30 13980 C 1652.29 0.279338 2.0016 0
M  V30 13981 C 1652.61 -1.13673 1.58441 0
M  V30 13982 O 1651.88 -1.77369 0.831681 0
M  V30 13983 H 1650.46 0.100288 0.740237 0
M  V30 13984 H 1653.12 0.942363 1.70603 0
M  V30 13985 H 1652.21 0.326053 3.10392 0
M  V30 13986 N 1652.52 -1.50101 0.480349 0
M  V30 13987 C 1653.93 -1.8668 0.0274773 0
M  V30 13988 C 1654.28 -1.39442 -1.38023 0
M  V30 13989 O 1653.4 -0.763363 -2.02489 0
M  V30 13990 C 1654 -3.38773 0.043087 0
M  V30 13991 C 1652.56 -3.74728 -0.354352 0
M  V30 13992 C 1651.7 -2.7403 0.424583 0
M  V30 13993 H 1654.65 -1.42713 0.694172 0
M  V30 13994 H 1654.68 -3.72894 -0.756989 0
M  V30 13995 H 1654.19 -3.73123 1.06775 0
M  V30 13996 H 1652.29 -3.45981 -1.38303 0
M  V30 13997 H 1652.4 -4.79075 -0.0492608 0
M  V30 13998 H 1650.77 -2.54403 -0.122927 0
M  V30 13999 H 1651.55 -3.11225 1.44894 0
M  V30 14000 N 1653.99 -0.213323 -1.5615 0
M  V30 14001 C 1655.4 0.29602 -1.84338 0
M  V30 14002 C 1655.76 1.60073 -1.13451 0
M  V30 14003 O 1654.88 2.12645 -0.4014 0
M  V30 14004 C 1655.48 0.54387 -3.34406 0
M  V30 14005 C 1654.03 0.997539 -3.62941 0
M  V30 14006 C 1653.18 0.0560823 -2.77243 0
M  V30 14007 H 1656.13 -0.436707 -1.52573 0
M  V30 14008 H 1656.15 1.39093 -3.54166 0
M  V30 14009 H 1655.67 -0.405885 -3.85972 0
M  V30 14010 H 1653.77 1.96094 -3.16825 0
M  V30 14011 H 1653.88 0.877642 -4.70993 0
M  V30 14012 H 1652.24 0.561362 -2.48437 0
M  V30 14013 H 1653.03 -0.888442 -3.31605 0
M  V30 14014 N 1655.47 1.57485 0.0601405 0
M  V30 14015 C 1656.72 1.87445 0.755575 0
M  V30 14016 C 1657.04 0.806915 1.77522 0
M  V30 14017 O 1656.31 -0.163139 1.9522 0
M  V30 14018 H 1654.89 0.691708 0.282044 0
M  V30 14019 H 1657.55 1.94871 0.0334616 0
M  V30 14020 H 1656.65 2.85334 1.26455 0
M  V30 14021 N 1656.95 -0.331789 1.54068 0
M  V30 14022 C 1658.36 -0.906719 1.63204 0
M  V30 14023 C 1658.71 -1.89161 0.520837 0
M  V30 14024 O 1657.84 -2.1359 -0.347577 0
M  V30 14025 C 1658.43 -1.65132 2.95832 0
M  V30 14026 C 1656.99 -2.17509 3.07192 0
M  V30 14027 C 1656.14 -0.99788 2.58723 0
M  V30 14028 H 1659.09 -0.109595 1.58321 0
M  V30 14029 H 1659.11 -2.515 2.85531 0
M  V30 14030 H 1658.62 -0.934255 3.76687 0
M  V30 14031 H 1656.72 -2.92356 2.30995 0
M  V30 14032 H 1656.84 -2.43074 4.12858 0
M  V30 14033 H 1655.2 -1.37469 2.14417 0
M  V30 14034 H 1655.98 -0.295261 3.42028 0
M  V30 14035 N 1658.43 -1.46001 -0.593424 0
M  V30 14036 C 1659.84 -1.45049 -1.17549 0
M  V30 14037 C 1660.19 -0.185601 -1.9532 0
M  V30 14038 O 1659.32 0.711989 -2.04352 0
M  V30 14039 C 1659.91 -2.62789 -2.13839 0
M  V30 14040 C 1658.47 -2.64912 -2.67392 0
M  V30 14041 C 1657.62 -2.37549 -1.43059 0
M  V30 14042 H 1660.57 -1.54035 -0.381944 0
M  V30 14043 H 1660.59 -2.37696 -2.97121 0
M  V30 14044 H 1660.1 -3.54834 -1.57208 0
M  V30 14045 H 1658.2 -1.76911 -3.27922 0
M  V30 14046 H 1658.31 -3.6456 -3.10858 0
M  V30 14047 H 1656.68 -1.8739 -1.72503 0
M  V30 14048 H 1657.46 -3.31757 -0.882746 0
M  V30 14049 N 1659.91 0.83715 -1.33527 0
M  V30 14050 C 1661.15 1.58937 -1.24834 0
M  V30 14051 C 1661.48 1.94117 0.185368 0
M  V30 14052 O 1660.75 1.61105 1.11453 0
M  V30 14053 H 1659.33 0.589301 -0.459057 0
M  V30 14054 H 1661.99 1.00038 -1.67267 0
M  V30 14055 H 1661.08 2.51855 -1.84325 0
M  V30 14056 N 1661.38 1.17024 1.05561 0
M  V30 14057 C 1662.61 0.981293 1.82717 0
M  V30 14058 C 1663.03 -0.465636 1.82246 0
M  V30 14059 O 1662.39 -1.33315 1.22869 0
M  V30 14060 C 1662.44 1.52239 3.26888 0
M  V30 14061 O 1661.54 0.73366 4.05822 0
M  V30 14062 H 1660.89 0.348677 0.565084 0
M  V30 14063 H 1663.42 1.55435 1.33046 0
M  V30 14064 H 1663.43 1.54306 3.77695 0
M  V30 14065 H 1662.1 2.57567 3.26545 0
M  V30 14066 H 1660.68 0.784101 3.64563 0
M  V30 14067 N 1662.86 -1.24221 0.969889 0
M  V30 14068 C 1664.27 -1.74206 0.671494 0
M  V30 14069 C 1664.62 -1.78576 -0.81271 0
M  V30 14070 O 1663.75 -1.41664 -1.63586 0
M  V30 14071 C 1664.34 -3.16371 1.21222 0
M  V30 14072 C 1662.9 -3.63855 0.96368 0
M  V30 14073 C 1662.05 -2.42429 1.34623 0
M  V30 14074 H 1665 -1.09893 1.14496 0
M  V30 14075 H 1665.02 -3.7606 0.579552 0
M  V30 14076 H 1664.53 -3.13159 2.29245 0
M  V30 14077 H 1662.64 -3.72463 -0.100931 0
M  V30 14078 H 1662.75 -4.51207 1.61087 0
M  V30 14079 H 1661.11 -2.42952 0.764624 0
M  V30 14080 H 1661.9 -2.41896 2.436 0
M  V30 14081 N 1664.34 -0.740267 -1.39132 0
M  V30 14082 C 1665.59 -0.289949 -2.00009 0
M  V30 14083 C 1665.91 1.12831 -1.59042 0
M  V30 14084 O 1665.18 1.76926 -0.841076 0
M  V30 14085 H 1663.76 -0.104213 -0.739695 0
M  V30 14086 H 1666.42 -0.951398 -1.70101 0
M  V30 14087 H 1665.52 -0.342509 -3.10215 0
M  V30 14088 N 1665.82 1.49844 -0.488302 0
M  V30 14089 C 1666.73 2.32651 0.301746 0
M  V30 14090 C 1667.74 1.43807 0.979573 0
M  V30 14091 O 1668.92 1.76844 0.963758 0
M  V30 14092 C 1665.99 3.18928 1.35962 0
M  V30 14093 C 1665.05 4.23611 0.696575 0
M  V30 14094 C 1664.28 5.05765 1.70404 0
M  V30 14095 O 1664.5 4.89243 2.93253 0
M  V30 14096 O 1663.44 5.88427 1.26637 0
M  V30 14097 H 1667.26 3.01367 -0.375687 0
M  V30 14098 H 1664.85 1.47296 -0.249844 0
M  V30 14099 H 1666.73 3.72413 1.97198 0
M  V30 14100 H 1665.4 2.52921 2.02021 0
M  V30 14101 H 1664.31 3.74073 0.0448118 0
M  V30 14102 H 1665.64 4.92137 0.0786446 0
M  V30 14103 N 1667.3 0.221601 1.56034 0
M  V30 14104 C 1668.23 -0.720818 2.1757 0
M  V30 14105 C 1669.24 -1.15751 1.14479 0
M  V30 14106 O 1670.43 -1.08865 1.41459 0
M  V30 14107 C 1667.53 -1.98817 2.74454 0
M  V30 14108 C 1666.7 -1.70703 4.02715 0
M  V30 14109 C 1665.76 -2.82146 4.44162 0
M  V30 14110 O 1664.79 -2.50614 5.11059 0
M  V30 14111 N 1665.99 -4.11101 4.09849 0
M  V30 14112 H 1668.76 -0.194436 2.99069 0
M  V30 14113 H 1666.32 0.0405962 1.61849 0
M  V30 14114 H 1668.31 -2.72562 2.99152 0
M  V30 14115 H 1666.88 -2.42503 1.97258 0
M  V30 14116 H 1666.1 -0.806022 3.85872 0
M  V30 14117 H 1667.39 -1.49351 4.86387 0
M  V30 14118 H 1666.78 -4.39562 3.56092 0
M  V30 14119 H 1665.34 -4.81389 4.3944 0
M  V30 14120 N 1668.77 -1.57515 -0.0517878 0
M  V30 14121 C 1670.02 -1.87843 -0.745624 0
M  V30 14122 C 1670.34 -0.816318 -1.77091 0
M  V30 14123 O 1669.61 0.152784 -1.95303 0
M  V30 14124 H 1668.19 -0.693194 -0.278372 0
M  V30 14125 H 1670.86 -1.94886 -0.0231267 0
M  V30 14126 H 1669.95 -2.86001 -1.2494 0
M  V30 14127 N 1670.25 0.323614 -1.54242 0
M  V30 14128 C 1671.66 0.898051 -1.63682 0
M  V30 14129 C 1672.02 1.88882 -0.530861 0
M  V30 14130 O 1671.14 2.13772 0.336245 0
M  V30 14131 C 1671.74 1.63561 -2.96704 0
M  V30 14132 C 1670.29 2.15877 -3.08341 0
M  V30 14133 C 1669.44 0.984145 -2.59249 0
M  V30 14134 H 1672.39 0.101198 -1.58377 0
M  V30 14135 H 1672.41 2.49982 -2.86861 0
M  V30 14136 H 1671.93 0.914265 -3.77177 0
M  V30 14137 H 1670.03 2.91127 -2.32542 0
M  V30 14138 H 1670.14 2.40881 -4.14141 0
M  V30 14139 H 1668.5 1.3633 -2.15143 0
M  V30 14140 H 1669.29 0.277118 -3.4218 0
M  V30 14141 N 1671.73 1.46313 0.585673 0
M  V30 14142 C 1672.96 1.55273 1.37496 0
M  V30 14143 C 1673.38 0.193481 1.87102 0
M  V30 14144 O 1672.74 -0.825859 1.61398 0
M  V30 14145 C 1672.79 2.5591 2.54052 0
M  V30 14146 O 1671.89 2.09208 3.55395 0
M  V30 14147 H 1671.23 0.522614 0.409598 0
M  V30 14148 H 1673.76 1.9186 0.710697 0
M  V30 14149 H 1673.77 2.75424 3.01008 0
M  V30 14150 H 1672.45 3.54619 2.17298 0
M  V30 14151 H 1671.02 1.9967 3.14939 0
M  V30 14152 N 1673.21 -0.830057 1.33969 0
M  V30 14153 C 1674.46 -1.58272 1.25675 0
M  V30 14154 C 1674.78 -1.94213 -0.175071 0
M  V30 14155 O 1674.05 -1.61694 -1.10597 0
M  V30 14156 H 1672.63 -0.586858 0.462176 0
M  V30 14157 H 1675.29 -0.991495 1.67796 0
M  V30 14158 H 1674.39 -2.50874 1.85658 0
M  V30 14159 N 1674.69 -1.17582 -1.04939 0
M  V30 14160 C 1675.65 -0.897095 -2.10914 0
M  V30 14161 C 1676.65 0.113823 -1.60397 0
M  V30 14162 O 1677.84 -0.118635 -1.73796 0
M  V30 14163 C 1674.97 -0.344251 -3.39157 0
M  V30 14164 H 1676.17 -1.83674 -2.37074 0
M  V30 14165 H 1673.72 -0.986634 -1.21224 0
M  V30 14166 H 1674.45 0.602417 -3.18656 0
M  V30 14167 H 1674.24 -1.07287 -3.77137 0
M  V30 14168 H 1675.73 -0.167644 -4.17263 0
M  V30 14169 N 1676.17 1.23705 -0.976463 0
M  V30 14170 C 1677.39 1.96595 -0.660697 0
M  V30 14171 C 1677.82 1.71845 0.764916 0
M  V30 14172 O 1677.17 0.987506 1.52046 0
M  V30 14173 C 1677.22 3.47803 -0.95214 0
M  V30 14174 O 1676.33 4.12378 -0.0421126 0
M  V30 14175 H 1675.67 0.615591 -0.248886 0
M  V30 14176 H 1678.2 1.57247 -1.30899 0
M  V30 14177 H 1678.21 3.98236 -0.887238 0
M  V30 14178 H 1676.88 3.65144 -1.99105 0
M  V30 14179 H 1675.46 3.72552 -0.161087 0
M  V30 14180 N 1677.64 0.747635 1.38738 0
M  V30 14181 C 1678.89 0.300552 1.99853 0
M  V30 14182 C 1679.21 -1.11986 1.59638 0
M  V30 14183 O 1678.48 -1.76477 0.850447 0
M  V30 14184 H 1677.06 0.108134 0.739132 0
M  V30 14185 H 1679.72 0.960405 1.69594 0
M  V30 14186 H 1678.82 0.358956 3.10029 0
M  V30 14187 N 1679.12 -1.49583 0.496242 0
M  V30 14188 C 1680.53 -1.8664 0.0472756 0
M  V30 14189 C 1680.88 -1.40898 -1.36536 0
M  V30 14190 O 1680.01 -0.784796 -2.01668 0
M  V30 14191 C 1680.6 -3.38708 0.079016 0
M  V30 14192 C 1679.16 -3.75083 -0.314587 0
M  V30 14193 C 1678.31 -2.73565 0.453624 0
M  V30 14194 H 1681.26 -1.41969 0.709269 0
M  V30 14195 H 1681.28 -3.73676 -0.717396 0
M  V30 14196 H 1680.79 -3.71969 1.10727 0
M  V30 14197 H 1678.89 -3.47429 -1.34625 0
M  V30 14198 H 1679.01 -4.791 0.00155427 0
M  V30 14199 H 1677.37 -2.54519 -0.095937 0
M  V30 14200 H 1678.15 -3.0967 1.48186 0
M  V30 14201 N 1680.6 -0.229873 -1.55915 0
M  V30 14202 C 1681.56 0.663347 -2.19391 0
M  V30 14203 C 1682.56 1.11548 -1.15818 0
M  V30 14204 O 1683.75 1.02294 -1.41002 0
M  V30 14205 C 1680.88 1.9097 -2.82389 0
M  V30 14206 H 1682.08 0.109797 -2.99699 0
M  V30 14207 H 1679.63 0.0197234 -1.56288 0
M  V30 14208 H 1680.37 2.50491 -2.05973 0
M  V30 14209 H 1680.15 1.59388 -3.58243 0
M  V30 14210 H 1681.64 2.5459 -3.31019 0
M  V30 14211 N 1682.08 1.5754 0.0434337 0
M  V30 14212 C 1683.33 1.88235 0.735652 0
M  V30 14213 C 1683.65 0.825698 1.76656 0
M  V30 14214 O 1682.92 -0.142424 1.95382 0
M  V30 14215 H 1681.5 0.694661 0.274692 0
M  V30 14216 H 1684.16 1.94896 0.0127911 0
M  V30 14217 H 1683.25 2.86659 1.23421 0
M  V30 14218 N 1683.56 -0.31543 1.54411 0
M  V30 14219 C 1684.97 -0.889358 1.64156 0
M  V30 14220 C 1685.32 -1.88598 0.54087 0
M  V30 14221 O 1684.44 -2.13947 -0.324904 0
M  V30 14222 C 1685.04 -1.61985 2.97567 0
M  V30 14223 C 1683.6 -2.14239 3.09481 0
M  V30 14224 C 1682.74 -0.970382 2.59767 0
M  V30 14225 H 1685.69 -0.092797 1.58428 0
M  V30 14226 H 1685.72 -2.48457 2.88183 0
M  V30 14227 H 1685.23 -0.89425 3.77657 0
M  V30 14228 H 1683.33 -2.8989 2.34082 0
M  V30 14229 H 1683.44 -2.38681 4.15413 0
M  V30 14230 H 1681.81 -1.35187 2.15863 0
M  V30 14231 H 1682.59 -0.258968 3.42322 0
M  V30 14232 N 1685.03 -1.46622 -0.577906 0
M  V30 14233 C 1686.45 -1.31683 -0.901762 0
M  V30 14234 C 1686.65 -0.291842 -1.99375 0
M  V30 14235 O 1685.71 0.303913 -2.50664 0
M  V30 14236 C 1687.02 -2.70443 -1.31457 0
M  V30 14237 C 1688.57 -2.7857 -1.42715 0
M  V30 14238 C 1689.04 -4.17923 -1.87361 0
M  V30 14239 N 1690.53 -4.20364 -1.94546 0
M  V30 14240 C 1691.27 -5.25085 -2.30376 0
M  V30 14241 N 1690.76 -6.4013 -2.64964 0
M  V30 14242 N 1692.56 -5.12453 -2.30972 0
M  V30 14243 H 1684.71 -2.11916 0.143367 0
M  V30 14244 H 1686.97 -0.947999 0.00146914 0
M  V30 14245 H 1686.68 -3.46781 -0.586174 0
M  V30 14246 H 1686.55 -3.00864 -2.2751 0
M  V30 14247 H 1688.94 -2.02518 -2.14641 0
M  V30 14248 H 1689.02 -2.51828 -0.449021 0
M  V30 14249 H 1688.66 -4.94473 -1.16012 0
M  V30 14250 H 1688.59 -4.42076 -2.8614 0
M  V30 14251 H 1691.08 -3.37359 -1.70286 0
M  V30 14252 H 1691.4 -7.15808 -2.91271 0
M  V30 14253 H 1689.74 -6.43483 -2.62591 0
M  V30 14254 H 1692.93 -4.21611 -2.03376 0
M  V30 14255 H 1693.11 -5.94178 -2.58566 0
M  V30 14256 N 1686.51 0.822941 -1.34408 0
M  V30 14257 C 1687.76 1.57604 -1.26513 0
M  V30 14258 C 1688.08 1.94303 0.164769 0
M  V30 14259 O 1687.35 1.62278 1.09738 0
M  V30 14260 H 1685.93 0.584399 -0.465282 0
M  V30 14261 H 1688.59 0.982582 -1.68319 0
M  V30 14262 H 1687.69 2.49886 -1.86986 0
M  V30 14263 N 1687.99 1.18137 1.04314 0
M  V30 14264 C 1689.4 0.979768 1.58926 0
M  V30 14265 C 1689.75 -0.471214 1.90457 0
M  V30 14266 O 1688.88 -1.34812 1.69277 0
M  V30 14267 C 1689.47 1.77219 2.88754 0
M  V30 14268 C 1688.03 1.61501 3.39992 0
M  V30 14269 C 1687.18 1.76824 2.13609 0
M  V30 14270 H 1690.13 1.32717 0.870162 0
M  V30 14271 H 1690.15 1.2598 3.59039 0
M  V30 14272 H 1689.66 2.82818 2.65773 0
M  V30 14273 H 1687.76 0.58427 3.67991 0
M  V30 14274 H 1687.88 2.4115 4.13985 0
M  V30 14275 H 1686.24 1.19747 2.24795 0
M  V30 14276 H 1687.02 2.83853 1.93087 0
M  V30 14277 N 1689.47 -1.23186 0.98301 0
M  V30 14278 C 1690.88 -1.73484 0.689933 0
M  V30 14279 C 1691.23 -1.79428 -0.793724 0
M  V30 14280 O 1690.36 -1.43391 -1.62074 0
M  V30 14281 C 1690.95 -3.15068 1.24571 0
M  V30 14282 C 1689.51 -3.62812 1.00222 0
M  V30 14283 C 1688.66 -2.40988 1.37186 0
M  V30 14284 H 1691.61 -1.08672 1.15655 0
M  V30 14285 H 1691.63 -3.75425 0.619406 0
M  V30 14286 H 1691.14 -3.10709 2.32554 0
M  V30 14287 H 1689.24 -3.72549 -0.0614202 0
M  V30 14288 H 1689.35 -4.49473 1.65863 0
M  V30 14289 H 1687.72 -2.42127 0.79035 0
M  V30 14290 H 1688.5 -2.39299 2.46152 0
M  V30 14291 N 1690.95 -0.754982 -1.38339 0
M  V30 14292 C 1692.19 -0.311146 -1.9969 0
M  V30 14293 C 1692.52 1.11138 -1.60229 0
M  V30 14294 O 1691.79 1.76024 -0.859794 0
M  V30 14295 H 1690.37 -0.112052 -0.738548 0
M  V30 14296 H 1693.03 -0.969386 -1.69083 0
M  V30 14297 H 1692.12 -0.375392 -3.09834 0
M  V30 14298 N 1692.42 1.49318 -0.504168 0
M  V30 14299 C 1693.65 2.07365 0.038102 0
M  V30 14300 C 1694.07 1.36164 1.29773 0
M  V30 14301 O 1693.43 0.419365 1.76383 0
M  V30 14302 C 1693.48 3.59576 0.271535 0
M  V30 14303 O 1692.58 3.8983 1.34561 0
M  V30 14304 H 1691.93 0.663425 -0.0276328 0
M  V30 14305 H 1694.46 1.92081 -0.704696 0
M  V30 14306 H 1694.47 4.04899 0.502083 0
M  V30 14307 H 1693.14 4.10809 -0.648754 0
M  V30 14308 H 1691.72 3.56314 1.09976 0
M  V30 14309 N 1693.9 0.238138 1.5579 0
M  V30 14310 C 1694.87 -0.651703 2.1974 0
M  V30 14311 C 1695.87 -1.10932 1.16408 0
M  V30 14312 O 1697.06 -1.01544 1.41543 0
M  V30 14313 C 1694.19 -1.8947 2.83397 0
M  V30 14314 H 1695.38 -0.0939013 2.99753 0
M  V30 14315 H 1692.93 -0.0114348 1.56296 0
M  V30 14316 H 1693.67 -2.49395 2.07298 0
M  V30 14317 H 1693.45 -1.57486 3.59083 0
M  V30 14318 H 1694.94 -2.52831 3.32365 0
M  V30 14319 N 1695.38 -1.57561 -0.0350783 0
M  V30 14320 C 1696.63 -1.88623 -0.725659 0
M  V30 14321 C 1696.95 -0.835055 -1.76215 0
M  V30 14322 O 1696.22 0.13206 -1.95454 0
M  V30 14323 H 1694.8 -0.696108 -0.271004 0
M  V30 14324 H 1697.46 -1.949 -0.00245508 0
M  V30 14325 H 1696.56 -2.8731 -1.21899 0
M  V30 14326 N 1696.86 0.307236 -1.54576 0
M  V30 14327 C 1697.82 1.36178 -1.84359 0
M  V30 14328 C 1698.82 1.43971 -0.716163 0
M  V30 14329 O 1700.01 1.43715 -0.98446 0
M  V30 14330 C 1697.14 2.74733 -2.01828 0
M  V30 14331 H 1698.34 1.11017 -2.78595 0
M  V30 14332 H 1695.89 0.543582 -1.46543 0
M  V30 14333 H 1696.62 3.05126 -1.09858 0
M  V30 14334 H 1696.41 2.70468 -2.83883 0
M  V30 14335 H 1697.9 3.50992 -2.26261 0
M  V30 14336 N 1698.34 1.46926 0.570122 0
M  V30 14337 C 1699.75 1.469 1.15227 0
M  V30 14338 C 1700.1 0.216651 1.95 0
M  V30 14339 O 1699.22 -0.679388 2.05459 0
M  V30 14340 C 1699.82 2.66158 2.09632 0
M  V30 14341 C 1698.38 2.69133 2.63144 0
M  V30 14342 C 1697.52 2.39795 1.39262 0
M  V30 14343 H 1700.48 1.54623 0.35739 0
M  V30 14344 H 1700.5 2.42393 2.93302 0
M  V30 14345 H 1700.01 3.5729 1.51543 0
M  V30 14346 H 1698.11 1.82106 3.25066 0
M  V30 14347 H 1698.22 3.69459 3.05019 0
M  V30 14348 H 1696.59 1.9011 1.695 0
M  V30 14349 H 1697.37 3.33119 0.829855 0
M  V30 14350 N 1699.82 -0.815801 1.34842 0
M  V30 14351 C 1701.06 -1.5693 1.27347 0
M  V30 14352 C 1701.38 -1.94387 -0.154462 0
M  V30 14353 O 1700.65 -1.62858 -1.08876 0
M  V30 14354 H 1699.23 -0.581923 0.468374 0
M  V30 14355 H 1701.9 -0.973642 1.68838 0
M  V30 14356 H 1700.99 -2.4889 1.88308 0
M  V30 14357 N 1701.29 -1.18689 -1.03686 0
M  V30 14358 C 1702.24 -0.917369 -2.11785 0
M  V30 14359 C 1703.21 0.144719 -1.65468 0
M  V30 14360 O 1704.4 0.00427016 -1.908 0
M  V30 14361 C 1701.54 -0.453396 -3.42109 0
M  V30 14362 C 1700.65 -1.58134 -4.02017 0
M  V30 14363 C 1699.78 -1.06971 -5.20318 0
M  V30 14364 C 1698.82 -2.17208 -5.72265 0
M  V30 14365 N 1697.96 -1.67411 -6.81849 0
M  V30 14366 H 1702.8 -1.84297 -2.34177 0
M  V30 14367 H 1700.34 -0.918951 -1.14864 0
M  V30 14368 H 1702.29 -0.165843 -4.1687 0
M  V30 14369 H 1700.92 0.435219 -3.19853 0
M  V30 14370 H 1699.98 -1.98429 -3.24546 0
M  V30 14371 H 1701.29 -2.41219 -4.36594 0
M  V30 14372 H 1700.44 -0.736906 -6.02208 0
M  V30 14373 H 1699.18 -0.208487 -4.87254 0
M  V30 14374 H 1698.19 -2.51328 -4.88993 0
M  V30 14375 H 1699.41 -3.03772 -6.07371 0
M  V30 14376 H 1697.36 -0.83584 -6.50653 0
M  V30 14377 H 1697.27 -2.44091 -7.15511 0
M  V30 14378 H 1698.54 -1.3707 -7.67354 0
M  V30 14379 N 1702.77 1.22662 -0.989529 0
M  V30 14380 C 1704.05 1.86816 -0.579566 0
M  V30 14381 C 1704.43 1.88858 0.943188 0
M  V30 14382 O 1703.78 1.37668 1.82372 0
M  V30 14383 C 1703.99 3.27863 -1.19612 0
M  V30 14384 C 1705.33 4.04384 -1.29454 0
M  V30 14385 O 1706.36 3.37116 -1.15026 0
M  V30 14386 O 1705.22 5.24789 -1.52508 0
M  V30 14387 H 1702.31 0.803332 -0.196434 0
M  V30 14388 H 1704.86 1.30467 -1.08519 0
M  V30 14389 H 1703.63 3.20993 -2.23784 0
M  V30 14390 H 1703.25 3.91813 -0.675875 0
M  V30 14391 N 1704.25 0.762308 1.37937 0
M  V30 14392 C 1705.5 0.321732 1.99523 0
M  V30 14393 C 1705.82 -1.10286 1.60816 0
M  V30 14394 O 1705.09 -1.75565 0.869117 0
M  V30 14395 H 1703.67 0.115967 0.737943 0
M  V30 14396 H 1706.33 0.978339 1.68566 0
M  V30 14397 H 1705.43 0.391818 3.09631 0
M  V30 14398 N 1705.73 -1.49049 0.51208 0
M  V30 14399 C 1706.66 -2.32163 -0.249529 0
M  V30 14400 C 1707.64 -1.40957 -0.952114 0
M  V30 14401 O 1708.82 -1.69858 -0.94137 0
M  V30 14402 C 1705.95 -3.21737 -1.30776 0
M  V30 14403 C 1704.91 -4.21825 -0.724392 0
M  V30 14404 C 1704.23 -5.00411 -1.88396 0
M  V30 14405 C 1705.53 -5.21483 0.291975 0
M  V30 14406 H 1707.23 -2.96086 0.444253 0
M  V30 14407 H 1704.77 -1.42385 0.215093 0
M  V30 14408 H 1706.73 -3.78699 -1.84837 0
M  V30 14409 H 1705.45 -2.55779 -2.03088 0
M  V30 14410 H 1704.11 -3.66024 -0.205441 0
M  V30 14411 H 1703.76 -4.30891 -2.59502 0
M  V30 14412 H 1703.46 -5.68141 -1.49964 0
M  V30 14413 H 1704.98 -5.6022 -2.42869 0
M  V30 14414 H 1706.4 -5.73074 -0.160899 0
M  V30 14415 H 1704.79 -5.97166 0.592717 0
M  V30 14416 H 1705.86 -4.69714 1.20404 0
M  V30 14417 N 1707.21 -0.246397 -1.55662 0
M  V30 14418 C 1708.15 0.66961 -2.22753 0
M  V30 14419 C 1709.15 1.18048 -1.21495 0
M  V30 14420 O 1710.35 1.13743 -1.39508 0
M  V30 14421 H 1706.73 0.234421 -0.714529 0
M  V30 14422 H 1708.7 0.0805962 -2.98291 0
M  V30 14423 C 1707.45 1.8558 -2.94033 0
M  V30 14424 H 1706.77 1.47184 -3.71721 0
M  V30 14425 H 1708.21 2.47397 -3.44341 0
M  V30 14426 C 1706.67 2.72664 -1.97879 0
M  V30 14427 O 1707.2 3.72177 -1.51154 0
M  V30 14428 N 1705.41 2.3922 -1.64991 0
M  V30 14429 H 1704.95 1.58348 -2.03184 0
M  V30 14430 H 1704.91 2.97762 -1.00922 0
M  V30 14431 N 1708.68 1.57577 0.026722 0
M  V30 14432 C 1709.93 1.89005 0.715645 0
M  V30 14433 C 1710.25 0.844388 1.7577 0
M  V30 14434 O 1709.52 -0.121693 1.95522 0
M  V30 14435 H 1708.1 0.697535 0.267308 0
M  V30 14436 H 1710.76 1.94898 -0.00788096 0
M  V30 14437 H 1709.86 2.87952 1.20374 0
M  V30 14438 N 1710.16 -0.299034 1.54737 0
M  V30 14439 C 1711.09 -1.37358 1.88826 0
M  V30 14440 C 1712.07 -1.52802 0.747367 0
M  V30 14441 O 1713.26 -1.66277 1.00327 0
M  V30 14442 C 1710.39 -2.73746 2.13729 0
M  V30 14443 C 1709.34 -2.73065 3.29575 0
M  V30 14444 C 1708.67 -4.12761 3.39901 0
M  V30 14445 C 1709.97 -2.34631 4.66632 0
M  V30 14446 H 1711.66 -1.09077 2.78824 0
M  V30 14447 H 1709.21 -0.523276 1.34156 0
M  V30 14448 H 1711.16 -3.49006 2.36162 0
M  V30 14449 H 1709.88 -3.03556 1.20504 0
M  V30 14450 H 1708.54 -2.00261 3.07068 0
M  V30 14451 H 1708.19 -4.39751 2.44189 0
M  V30 14452 H 1707.89 -4.13205 4.17774 0
M  V30 14453 H 1709.42 -4.89797 3.64597 0
M  V30 14454 H 1710.83 -2.99608 4.88782 0
M  V30 14455 H 1709.23 -2.46285 5.47233 0
M  V30 14456 H 1710.3 -1.29759 4.67216 0
M  V30 14457 N 1711.64 -1.47227 -0.562322 0
M  V30 14458 C 1713.05 -1.47509 -1.14446 0
M  V30 14459 C 1713.4 -0.22699 -1.94883 0
M  V30 14460 O 1712.53 0.668483 -2.05816 0
M  V30 14461 C 1713.12 -2.67266 -2.08217 0
M  V30 14462 C 1711.68 -2.70524 -2.61713 0
M  V30 14463 C 1710.83 -2.4053 -1.37988 0
M  V30 14464 H 1713.78 -1.54811 -0.349185 0
M  V30 14465 H 1713.8 -2.43945 -2.92012 0
M  V30 14466 H 1713.31 -3.58089 -1.49646 0
M  V30 14467 H 1711.41 -1.83827 -3.24096 0
M  V30 14468 H 1711.53 -3.71072 -3.03056 0
M  V30 14469 H 1709.89 -1.91007 -1.68489 0
M  V30 14470 H 1710.67 -3.33554 -0.812177 0
M  V30 14471 N 1713.12 0.808639 -1.35273 0
M  V30 14472 C 1714.37 1.56253 -1.28177 0
M  V30 14473 C 1714.69 1.94466 0.144151 0
M  V30 14474 O 1713.96 1.63433 1.08011 0
M  V30 14475 H 1712.54 0.579431 -0.471454 0
M  V30 14476 H 1715.2 0.964675 -1.69352 0
M  V30 14477 H 1714.29 2.47888 -1.89625 0
M  V30 14478 N 1714.6 1.19237 1.03055 0
M  V30 14479 C 1716.01 0.996569 1.57878 0
M  V30 14480 C 1716.36 -0.450987 1.90946 0
M  V30 14481 O 1715.48 -1.33009 1.70697 0
M  V30 14482 C 1716.08 1.80272 2.86858 0
M  V30 14483 C 1714.64 1.65097 3.3826 0
M  V30 14484 C 1713.78 1.79079 2.11721 0
M  V30 14485 H 1716.74 1.33633 0.856037 0
M  V30 14486 H 1716.76 1.29781 3.57683 0
M  V30 14487 H 1716.27 2.85621 2.62759 0
M  V30 14488 H 1714.37 0.623267 3.6735 0
M  V30 14489 H 1714.48 2.45527 4.11404 0
M  V30 14490 H 1712.85 1.22124 2.23512 0
M  V30 14491 H 1713.63 2.85885 1.90065 0
M  V30 14492 N 1716.07 -1.22136 0.99602 0
M  V30 14493 C 1717.32 -1.9028 0.66907 0
M  V30 14494 C 1717.64 -1.7837 -0.802717 0
M  V30 14495 O 1718.84 -2.41458 -1.24138 0
M  V30 14496 C 1717.3 -3.4116 1.1462 0
M  V30 14497 C 1716.91 -3.617 2.64343 0
M  V30 14498 C 1718.65 -4.14985 0.893718 0
M  V30 14499 C 1716.56 -5.06297 3.05642 0
M  V30 14500 H 1715.49 -0.71255 0.246554 0
M  V30 14501 H 1718.14 -1.38304 1.20599 0
M  V30 14502 H 1716.52 -3.92337 0.537378 0
M  V30 14503 H 1717.69 -3.21002 3.30597 0
M  V30 14504 H 1716.01 -3.01212 2.87507 0
M  V30 14505 H 1718.61 -5.21564 1.17794 0
M  V30 14506 H 1718.95 -4.15952 -0.17013 0
M  V30 14507 H 1719.48 -3.69846 1.46488 0
M  V30 14508 H 1716.22 -5.10472 4.11216 0
M  V30 14509 H 1715.74 -5.47885 2.44094 0
M  V30 14510 H 1717.42 -5.74743 2.97118 0
M  V30 14511 N 1717.55 -0.769612 -1.37531 0
M  V30 14512 C 1718.8 -0.332309 -1.99349 0
M  V30 14513 C 1719.12 1.09432 -1.61399 0
M  V30 14514 O 1718.39 1.75102 -0.878415 0
M  V30 14515 H 1716.97 -0.119879 -0.737318 0
M  V30 14516 H 1719.63 -0.987265 -1.68045 0
M  V30 14517 H 1718.73 -0.408233 -3.09419 0
M  V30 14518 N 1719.03 1.48775 -0.519977 0
M  V30 14519 C 1720.44 1.86541 -0.0769625 0
M  V30 14520 C 1720.79 1.43053 1.34277 0
M  V30 14521 O 1719.92 0.816781 2.00394 0
M  V30 14522 C 1720.51 3.38539 -0.132891 0
M  V30 14523 C 1719.07 3.75536 0.254875 0
M  V30 14524 C 1718.22 2.72808 -0.497088 0
M  V30 14525 H 1721.17 1.40822 -0.731765 0
M  V30 14526 H 1721.19 3.7477 0.657856 0
M  V30 14527 H 1720.7 3.70161 -1.1663 0
M  V30 14528 H 1718.8 3.49527 1.29081 0
M  V30 14529 H 1718.92 4.79037 -0.0777747 0
M  V30 14530 H 1717.28 2.5464 0.0554331 0
M  V30 14531 H 1718.06 3.07274 -1.53094 0
M  V30 14532 N 1720.51 0.254649 1.55529 0
M  V30 14533 C 1721.92 -0.247042 1.85058 0
M  V30 14534 C 1722.27 -1.57009 1.17655 0
M  V30 14535 O 1721.4 -2.11506 0.457638 0
M  V30 14536 C 1721.99 -0.455017 3.35731 0
M  V30 14537 C 1720.55 -0.900961 3.65458 0
M  V30 14538 C 1719.7 0.0174436 2.77295 0
M  V30 14539 H 1722.65 0.477005 1.51362 0
M  V30 14540 H 1722.67 -1.29654 3.57729 0
M  V30 14541 H 1722.18 0.508076 3.8476 0
M  V30 14542 H 1720.28 -1.87625 3.21913 0
M  V30 14543 H 1720.39 -0.752458 4.73154 0
M  V30 14544 H 1718.76 -0.495296 2.49838 0
M  V30 14545 H 1719.54 0.976049 3.29132 0
M  V30 14546 N 1721.99 -1.57589 -0.0183649 0
M  V30 14547 C 1723.23 -1.89382 -0.705612 0
M  V30 14548 C 1723.56 -0.853698 -1.7532 0
M  V30 14549 O 1722.83 0.111322 -1.95583 0
M  V30 14550 H 1721.41 -0.698943 -0.263605 0
M  V30 14551 H 1724.07 -1.94891 0.0182168 0
M  V30 14552 H 1723.16 -2.88587 -1.18845 0
M  V30 14553 N 1723.46 0.290824 -1.54893 0
M  V30 14554 C 1724.88 0.86313 -1.6555 0
M  V30 14555 C 1725.23 1.87713 -0.570806 0
M  V30 14556 O 1724.35 2.14437 0.290826 0
M  V30 14557 C 1724.95 1.57231 -3.00107 0
M  V30 14558 C 1723.51 2.09288 -3.1285 0
M  V30 14559 C 1722.65 0.928933 -2.61278 0
M  V30 14560 H 1725.6 0.0675807 -1.58556 0
M  V30 14561 H 1725.62 2.43841 -2.92099 0
M  V30 14562 H 1725.14 0.834055 -3.79032 0
M  V30 14563 H 1723.24 2.86129 -2.38665 0
M  V30 14564 H 1723.35 2.32042 -4.19158 0
M  V30 14565 H 1721.71 1.31735 -2.17986 0
M  V30 14566 H 1722.5 0.204475 -3.42691 0
M  V30 14567 N 1724.94 1.47523 0.554506 0
M  V30 14568 C 1726.36 1.33101 0.880699 0
M  V30 14569 C 1726.56 0.323524 1.98886 0
M  V30 14570 O 1725.61 -0.263996 2.51116 0
M  V30 14571 C 1726.93 2.725 1.27138 0
M  V30 14572 C 1728.48 2.80805 1.38266 0
M  V30 14573 C 1728.95 4.20851 1.80688 0
M  V30 14574 N 1730.44 4.23406 1.87834 0
M  V30 14575 C 1731.18 5.28684 2.21993 0
M  V30 14576 N 1730.67 6.44264 2.54746 0
M  V30 14577 N 1732.47 5.16063 2.2279 0
M  V30 14578 H 1724.62 2.11661 -0.177062 0
M  V30 14579 H 1726.88 0.947856 -0.0165508 0
M  V30 14580 H 1726.59 3.47669 0.53093 0
M  V30 14581 H 1726.46 3.04445 2.22695 0
M  V30 14582 H 1728.85 2.05907 2.11391 0
M  V30 14583 H 1728.93 2.52511 0.408901 0
M  V30 14584 H 1728.57 4.96256 1.08131 0
M  V30 14585 H 1728.5 4.46572 2.79071 0
M  V30 14586 H 1730.99 3.40025 1.64897 0
M  V30 14587 H 1731.31 7.20351 2.79846 0
M  V30 14588 H 1729.65 6.4758 2.52321 0
M  V30 14589 H 1732.84 4.24793 1.96642 0
M  V30 14590 H 1733.01 5.98216 2.49081 0
M  V30 14591 N 1726.42 -0.801453 1.357 0
M  V30 14592 C 1727.67 -1.55571 1.29004 0
M  V30 14593 C 1727.99 -1.9454 -0.133836 0
M  V30 14594 O 1727.26 -1.64004 -1.07143 0
M  V30 14595 H 1725.84 -0.576922 0.47452 0
M  V30 14596 H 1728.5 -0.95568 1.69861 0
M  V30 14597 H 1727.6 -2.46879 1.90937 0
M  V30 14598 N 1727.9 -1.19782 -1.02421 0
M  V30 14599 C 1729.31 -0.951034 -1.2817 0
M  V30 14600 C 1729.51 0.373883 -1.98001 0
M  V30 14601 O 1728.57 1.10427 -2.27073 0
M  V30 14602 C 1729.88 -2.12833 -2.12421 0
M  V30 14603 C 1731.43 -2.16847 -2.25713 0
M  V30 14604 C 1731.91 -3.34041 -3.13337 0
M  V30 14605 N 1733.4 -3.34007 -3.20926 0
M  V30 14606 C 1734.13 -4.21333 -3.88929 0
M  V30 14607 N 1733.63 -5.18823 -4.59123 0
M  V30 14608 N 1735.42 -4.09197 -3.85376 0
M  V30 14609 H 1727.57 -2.05017 -0.555122 0
M  V30 14610 H 1729.84 -0.896717 -0.307576 0
M  V30 14611 H 1729.54 -3.08742 -1.68437 0
M  V30 14612 H 1729.42 -2.10288 -3.13143 0
M  V30 14613 H 1731.8 -1.21506 -2.68924 0
M  V30 14614 H 1731.88 -2.23444 -1.24525 0
M  V30 14615 H 1731.53 -4.29665 -2.70833 0
M  V30 14616 H 1731.46 -3.24682 -4.14595 0
M  V30 14617 H 1733.95 -2.63441 -2.70938 0
M  V30 14618 H 1734.26 -5.81796 -5.08658 0
M  V30 14619 H 1732.61 -5.22767 -4.57973 0
M  V30 14620 H 1735.8 -3.32308 -3.2968 0
M  V30 14621 H 1735.97 -4.77465 -4.38099 0
M  V30 14622 N 1729.38 1.21606 -1.00248 0
M  V30 14623 C 1730.61 1.94609 -0.702502 0
M  V30 14624 C 1731.02 1.73928 0.734483 0
M  V30 14625 O 1730.38 1.04432 1.49667 0
M  V30 14626 C 1730.43 3.47077 -1.01092 0
M  V30 14627 O 1730.15 3.67071 -2.39145 0
M  V30 14628 C 1731.65 4.37248 -0.729988 0
M  V30 14629 H 1728.87 0.618962 -0.259088 0
M  V30 14630 H 1731.41 1.54494 -1.33985 0
M  V30 14631 H 1729.57 3.85125 -0.419215 0
M  V30 14632 H 1729.98 4.61188 -2.49811 0
M  V30 14633 H 1731.46 5.4294 -0.99598 0
M  V30 14634 H 1731.93 4.37913 0.33599 0
M  V30 14635 H 1732.54 4.04842 -1.30318 0
M  V30 14636 N 1730.86 0.776895 1.37121 0
M  V30 14637 C 1732.1 0.342876 1.9917 0
M  V30 14638 C 1732.42 -1.08574 1.61977 0
M  V30 14639 O 1731.69 -1.74634 0.887689 0
M  V30 14640 H 1730.27 0.123788 0.736672 0
M  V30 14641 H 1732.94 0.996163 1.67519 0
M  V30 14642 H 1732.03 0.424637 3.09198 0
M  V30 14643 N 1732.33 -1.48497 0.527859 0
M  V30 14644 C 1733.61 -1.9547 -0.0713049 0
M  V30 14645 C 1733.99 -1.47005 -1.51502 0
M  V30 14646 O 1733.34 -0.695609 -2.17655 0
M  V30 14647 C 1733.55 -3.48973 0.0437547 0
M  V30 14648 C 1734.9 -4.2444 -0.116591 0
M  V30 14649 O 1735.92 -3.56187 -0.0301431 0
M  V30 14650 O 1734.78 -5.4569 -0.297491 0
M  V30 14651 H 1731.87 -0.823075 -0.080474 0
M  V30 14652 H 1734.42 -1.59028 0.592307 0
M  V30 14653 H 1733.19 -3.76963 1.04952 0
M  V30 14654 H 1732.81 -3.92104 -0.658803 0
M  V30 14655 N 1733.81 -0.262893 -1.55392 0
M  V30 14656 C 1734.77 0.616662 -2.20749 0
M  V30 14657 C 1735.77 1.09066 -1.18158 0
M  V30 14658 O 1736.96 0.992797 -1.4314 0
M  V30 14659 C 1734.1 1.84937 -2.86376 0
M  V30 14660 H 1735.29 0.0462013 -2.99864 0
M  V30 14661 H 1732.84 -0.013432 -1.56294 0
M  V30 14662 H 1733.58 2.46066 -2.1124 0
M  V30 14663 H 1733.36 1.51754 -3.61543 0
M  V30 14664 H 1734.85 2.47511 -3.36345 0
M  V30 14665 N 1735.29 1.57597 0.0100073 0
M  V30 14666 C 1736.54 1.89754 0.695559 0
M  V30 14667 C 1736.86 0.862983 1.74865 0
M  V30 14668 O 1736.13 -0.100949 1.9564 0
M  V30 14669 H 1734.71 0.700331 0.259895 0
M  V30 14670 H 1737.37 1.94879 -0.0285521 0
M  V30 14671 H 1736.47 2.89213 1.17313 0
M  V30 14672 N 1736.77 -0.282606 1.55045 0
M  V30 14673 C 1738.18 -0.854338 1.66006 0
M  V30 14674 C 1738.53 -1.87408 0.580753 0
M  V30 14675 O 1737.65 -2.14588 -0.279449 0
M  V30 14676 C 1738.25 -1.55637 3.00936 0
M  V30 14677 C 1736.81 -2.07626 3.13956 0
M  V30 14678 C 1735.96 -0.915064 2.61767 0
M  V30 14679 H 1738.91 -0.0591711 1.5859 0
M  V30 14680 H 1738.93 -2.42289 2.93388 0
M  V30 14681 H 1738.44 -0.813942 3.79469 0
M  V30 14682 H 1736.54 -2.84859 2.40179 0
M  V30 14683 H 1736.65 -2.29816 4.20382 0
M  V30 14684 H 1735.02 -1.30577 2.18682 0
M  V30 14685 H 1735.8 -0.186298 3.42794 0
M  V30 14686 N 1738.25 -1.47815 -0.546675 0
M  V30 14687 C 1739.49 -1.5521 -1.30529 0
M  V30 14688 C 1739.82 -0.218129 -1.92971 0
M  V30 14689 O 1739.1 0.774298 -1.78423 0
M  V30 14690 C 1739.38 -2.67799 -2.40739 0
M  V30 14691 C 1739.24 -4.10847 -1.83097 0
M  V30 14692 C 1740.55 -2.76238 -3.42608 0
M  V30 14693 H 1737.67 -0.564998 -0.473229 0
M  V30 14694 H 1740.32 -1.79917 -0.610713 0
M  V30 14695 H 1738.47 -2.46863 -2.99985 0
M  V30 14696 H 1740.14 -4.43177 -1.28031 0
M  V30 14697 H 1738.38 -4.1863 -1.13716 0
M  V30 14698 H 1739.05 -4.85418 -2.62818 0
M  V30 14699 H 1741.53 -2.95156 -2.93296 0
M  V30 14700 H 1740.4 -3.56774 -4.17137 0
M  V30 14701 H 1740.66 -1.83719 -4.02119 0
M  V30 14702 N 1739.72 0.794246 -1.36123 0
M  V30 14703 C 1740.97 1.54885 -1.29827 0
M  V30 14704 C 1741.29 1.94608 0.123517 0
M  V30 14705 O 1740.56 1.6457 1.06272 0
M  V30 14706 H 1739.14 0.574398 -0.477573 0
M  V30 14707 H 1741.8 0.946658 -1.70365 0
M  V30 14708 H 1740.9 2.45863 -1.92244 0
M  V30 14709 N 1741.2 1.20323 1.01785 0
M  V30 14710 C 1742.61 1.01326 1.56812 0
M  V30 14711 C 1742.96 -0.430709 1.91414 0
M  V30 14712 O 1742.09 -1.31191 1.72098 0
M  V30 14713 C 1742.68 1.83304 2.8493 0
M  V30 14714 C 1741.24 1.68676 3.3649 0
M  V30 14715 C 1740.39 1.81315 2.0981 0
M  V30 14716 H 1743.34 1.34533 0.841815 0
M  V30 14717 H 1743.36 1.33567 3.56286 0
M  V30 14718 H 1742.87 2.88392 2.59714 0
M  V30 14719 H 1740.97 0.662195 3.66668 0
M  V30 14720 H 1741.09 2.49877 4.08777 0
M  V30 14721 H 1739.45 1.24488 2.22204 0
M  V30 14722 H 1740.23 2.87885 1.87022 0
M  V30 14723 N 1742.68 -1.21073 1.00892 0
M  V30 14724 C 1744.09 -1.71982 0.726576 0
M  V30 14725 C 1744.44 -1.81071 -0.755486 0
M  V30 14726 O 1743.57 -1.46797 -1.58996 0
M  V30 14727 C 1744.16 -3.12354 1.31226 0
M  V30 14728 C 1742.72 -3.60605 1.07895 0
M  V30 14729 C 1741.87 -2.38024 1.42267 0
M  V30 14730 H 1744.82 -1.06195 1.17934 0
M  V30 14731 H 1744.84 -3.74026 0.6989 0
M  V30 14732 H 1744.35 -3.05707 2.39092 0
M  V30 14733 H 1742.45 -3.72596 0.0176168 0
M  V30 14734 H 1742.57 -4.45854 1.7536 0
M  V30 14735 H 1740.93 -2.40396 0.841531 0
M  V30 14736 H 1741.71 -2.34024 2.51173 0
M  V30 14737 N 1744.16 -0.784156 -1.36707 0
M  V30 14738 C 1745.41 -0.353434 -1.98986 0
M  V30 14739 C 1745.73 1.07714 -1.62551 0
M  V30 14740 O 1745 1.7416 -0.896938 0
M  V30 14741 H 1743.58 -0.127693 -0.736005 0
M  V30 14742 H 1746.24 -1.00503 -1.66988 0
M  V30 14743 H 1745.34 -0.441028 -3.08968 0
M  V30 14744 N 1745.64 1.48215 -0.535727 0
M  V30 14745 C 1747.05 1.86449 -0.0967433 0
M  V30 14746 C 1747.4 1.44469 1.32752 0
M  V30 14747 O 1746.52 0.837989 1.99516 0
M  V30 14748 C 1747.12 3.38379 -0.168791 0
M  V30 14749 C 1745.68 3.75785 0.21503 0
M  V30 14750 C 1744.82 2.72266 -0.525995 0
M  V30 14751 H 1747.78 1.40038 -0.74666 0
M  V30 14752 H 1747.8 3.75447 0.61807 0
M  V30 14753 H 1747.31 3.68903 -1.2055 0
M  V30 14754 H 1745.41 3.50876 1.25366 0
M  V30 14755 H 1745.52 4.78927 -0.128579 0
M  V30 14756 H 1743.89 2.54684 0.028422 0
M  V30 14757 H 1744.67 3.05632 -1.56345 0
M  V30 14758 N 1747.11 0.27113 1.5525 0
M  V30 14759 C 1748.53 -0.2274 1.8531 0
M  V30 14760 C 1748.88 -1.55752 1.19314 0
M  V30 14761 O 1748 -2.11008 0.480046 0
M  V30 14762 C 1748.6 -0.419382 3.36194 0
M  V30 14763 C 1747.16 -0.862149 3.66393 0
M  V30 14764 C 1746.3 0.0468534 2.7726 0
M  V30 14765 H 1749.25 0.493032 1.50847 0
M  V30 14766 H 1749.27 -1.25852 3.59084 0
M  V30 14767 H 1748.79 0.548856 3.84199 0
M  V30 14768 H 1746.89 -1.842 3.23884 0
M  V30 14769 H 1747 -0.702231 4.73926 0
M  V30 14770 H 1745.36 -0.468769 2.50349 0
M  V30 14771 H 1746.15 1.0109 3.28079 0
M  V30 14772 N 1748.59 -1.576 -0.00164943 0
M  V30 14773 C 1749.84 -1.9012 -0.685486 0
M  V30 14774 C 1750.16 -0.872245 -1.74404 0
M  V30 14775 O 1749.43 0.090572 -1.95691 0
M  V30 14776 H 1748.01 -0.701699 -0.256177 0
M  V30 14777 H 1750.67 -1.94861 0.0388866 0
M  V30 14778 H 1749.77 -2.89831 -1.15778 0
M  V30 14779 N 1750.07 0.274379 -1.55193 0
M  V30 14780 C 1751.48 0.845522 -1.66457 0
M  V30 14781 C 1751.83 1.87097 -0.590684 0
M  V30 14782 O 1750.96 2.14733 0.268065 0
M  V30 14783 C 1751.55 1.54039 -3.01757 0
M  V30 14784 C 1750.11 2.05958 -3.15053 0
M  V30 14785 C 1749.26 0.901169 -2.62248 0
M  V30 14786 H 1752.21 0.0507599 -1.58619 0
M  V30 14787 H 1752.23 2.40729 -2.94669 0
M  V30 14788 H 1751.74 0.793807 -3.79895 0
M  V30 14789 H 1749.84 2.83582 -2.41686 0
M  V30 14790 H 1749.96 2.27584 -4.21595 0
M  V30 14791 H 1748.32 1.29416 -2.19371 0
M  V30 14792 H 1749.1 0.168116 -3.42888 0
M  V30 14793 N 1751.55 1.48103 0.538828 0
M  V30 14794 C 1752.96 1.49312 1.12085 0
M  V30 14795 C 1753.31 0.257965 1.94497 0
M  V30 14796 O 1752.44 -0.635654 2.06854 0
M  V30 14797 C 1753.03 2.70545 2.03939 0
M  V30 14798 C 1751.59 2.74654 2.57376 0
M  V30 14799 C 1750.74 2.42695 1.34144 0
M  V30 14800 H 1753.69 1.55347 0.324512 0
M  V30 14801 H 1753.71 2.4856 2.88094 0
M  V30 14802 H 1753.22 3.60424 1.4393 0
M  V30 14803 H 1751.32 1.8896 3.21131 0
M  V30 14804 H 1751.43 3.75846 2.97114 0
M  V30 14805 H 1749.8 1.93663 1.65429 0
M  V30 14806 H 1750.58 3.34804 0.759009 0
M  V30 14807 N 1753.03 -0.787016 1.36542 0
M  V30 14808 C 1754.27 -1.54194 1.30647 0
M  V30 14809 C 1754.6 -1.94671 -0.113195 0
M  V30 14810 O 1753.87 -1.65131 -1.05397 0
M  V30 14811 H 1752.45 -0.571857 0.480613 0
M  V30 14812 H 1755.11 -0.93761 1.70865 0
M  V30 14813 H 1754.2 -2.4484 1.93545 0
M  V30 14814 N 1754.5 -1.20861 -1.01145 0
M  V30 14815 C 1755.92 -1.02156 -1.56272 0
M  V30 14816 C 1756.27 0.420552 -1.9164 0
M  V30 14817 O 1755.39 1.30277 -1.72792 0
M  V30 14818 C 1755.99 -1.84812 -2.83954 0
M  V30 14819 C 1754.55 -1.70458 -3.35591 0
M  V30 14820 C 1753.69 -1.82425 -2.08846 0
M  V30 14821 H 1756.64 -1.34978 -0.834669 0
M  V30 14822 H 1756.66 -1.35455 -3.55573 0
M  V30 14823 H 1756.18 -2.89765 -2.58181 0
M  V30 14824 H 1754.28 -0.681631 -3.66312 0
M  V30 14825 H 1754.39 -2.52041 -4.07446 0
M  V30 14826 H 1752.75 -1.25665 -2.21541 0
M  V30 14827 H 1753.54 -2.88872 -1.85493 0
M  V30 14828 N 1755.98 1.20536 -1.01532 0
M  V30 14829 C 1757.39 1.71594 -0.735687 0
M  V30 14830 C 1757.74 1.81469 0.745873 0
M  V30 14831 O 1756.87 1.47638 1.58215 0
M  V30 14832 C 1757.46 3.11654 -1.3288 0
M  V30 14833 C 1756.02 3.60027 -1.09806 0
M  V30 14834 C 1755.17 2.37266 -1.43528 0
M  V30 14835 H 1758.12 1.05568 -1.18495 0
M  V30 14836 H 1758.14 3.7365 -0.718725 0
M  V30 14837 H 1757.65 3.04434 -2.4071 0
M  V30 14838 H 1755.76 3.72581 -0.0373763 0
M  V30 14839 H 1755.87 4.44918 -1.77722 0
M  V30 14840 H 1754.23 2.39947 -0.854268 0
M  V30 14841 H 1755.02 2.32688 -2.5241 0
M  V30 14842 N 1757.46 0.791395 1.36289 0
M  V30 14843 C 1758.71 0.363981 1.98795 0
M  V30 14844 C 1759.03 -1.0685 1.6312 0
M  V30 14845 O 1758.3 -1.73682 0.906161 0
M  V30 14846 H 1756.88 0.131594 0.735318 0
M  V30 14847 H 1759.54 1.01387 1.66453 0
M  V30 14848 H 1758.64 0.457407 3.0873 0
M  V30 14849 N 1758.94 -1.47929 0.54358 0
M  V30 14850 C 1760.35 -1.86395 0.10663 0
M  V30 14851 C 1760.7 -1.45171 -1.31984 0
M  V30 14852 O 1759.83 -0.848558 -1.99069 0
M  V30 14853 C 1760.42 -3.38285 0.186733 0
M  V30 14854 C 1758.98 -3.75894 -0.195098 0
M  V30 14855 C 1758.13 -2.71983 0.540427 0
M  V30 14856 H 1761.08 -1.3964 0.754076 0
M  V30 14857 H 1761.1 -3.75769 -0.598151 0
M  V30 14858 H 1760.61 -3.68258 1.22505 0
M  V30 14859 H 1758.71 -3.51536 -1.23504 0
M  V30 14860 H 1758.83 -4.78853 0.153975 0
M  V30 14861 H 1757.19 -2.54696 -0.0149151 0
M  V30 14862 H 1757.97 -3.04799 1.57963 0
M  V30 14863 N 1760.42 -0.27936 -1.55104 0
M  V30 14864 C 1761.83 0.217569 -1.85428 0
M  V30 14865 C 1762.18 1.55117 -1.20138 0
M  V30 14866 O 1761.3 2.10751 -0.491229 0
M  V30 14867 C 1761.9 0.401547 -3.36412 0
M  V30 14868 C 1760.46 0.842706 -3.66845 0
M  V30 14869 C 1759.61 -0.0615565 -2.77232 0
M  V30 14870 H 1762.56 -0.501025 -1.50584 0
M  V30 14871 H 1762.58 1.23946 -3.59747 0
M  V30 14872 H 1762.09 -0.569224 -3.83903 0
M  V30 14873 H 1760.19 1.8248 -3.24857 0
M  V30 14874 H 1760.3 0.677088 -4.74291 0
M  V30 14875 H 1758.67 0.455486 -2.50594 0
M  V30 14876 H 1759.45 -1.02829 -3.27538 0
M  V30 14877 N 1761.9 1.57599 -0.0067085 0
M  V30 14878 C 1763.12 1.95545 0.69115 0
M  V30 14879 C 1763.55 0.882014 1.66139 0
M  V30 14880 O 1762.9 -0.159242 1.80599 0
M  V30 14881 C 1762.95 3.3259 1.39342 0
M  V30 14882 O 1762.06 3.27368 2.50806 0
M  V30 14883 H 1761.4 0.638188 0.183336 0
M  V30 14884 H 1763.93 2.04506 -0.0618957 0
M  V30 14885 H 1763.94 3.6831 1.75532 0
M  V30 14886 H 1762.61 4.10269 0.682072 0
M  V30 14887 H 1761.19 3.03334 2.16894 0
M  V30 14888 N 1763.37 -0.266145 1.55336 0
M  V30 14889 C 1764.34 -1.31242 1.87904 0
M  V30 14890 C 1765.34 -1.42022 0.754083 0
M  V30 14891 O 1766.53 -1.41054 1.02222 0
M  V30 14892 C 1763.66 -2.69285 2.09041 0
M  V30 14893 H 1764.85 -1.03592 2.81441 0
M  V30 14894 H 1762.4 -0.504537 1.47933 0
M  V30 14895 H 1763.14 -3.02106 1.17909 0
M  V30 14896 H 1762.92 -2.62846 2.90954 0
M  V30 14897 H 1764.41 -3.4487 2.35488 0
M  V30 14898 N 1764.85 -1.48386 -0.530967 0
M  V30 14899 C 1766.1 -1.56045 -1.28431 0
M  V30 14900 C 1766.42 -0.235695 -1.9357 0
M  V30 14901 O 1765.69 0.742677 -1.81276 0
M  V30 14902 H 1764.27 -0.574868 -0.477007 0
M  V30 14903 H 1766.93 -1.84844 -0.617955 0
M  V30 14904 H 1766.03 -2.34096 -2.0641 0
M  V30 14905 N 1766.33 0.779763 -1.36958 0
M  V30 14906 C 1767.58 1.53803 -1.31723 0
M  V30 14907 C 1767.9 1.94239 0.100663 0
M  V30 14908 O 1767.16 1.6372 1.07212 0
M  V30 14909 C 1767.46 2.82075 -2.19473 0
M  V30 14910 C 1767.12 2.6073 -3.67873 0
M  V30 14911 C 1765.79 2.54617 -4.08318 0
M  V30 14912 C 1768.14 2.41407 -4.61922 0
M  V30 14913 C 1765.47 2.2716 -5.40939 0
M  V30 14914 C 1767.82 2.15475 -5.94772 0
M  V30 14915 C 1766.48 2.07801 -6.3433 0
M  V30 14916 H 1765.75 0.562804 -0.482009 0
M  V30 14917 H 1768.4 0.898839 -1.69095 0
M  V30 14918 H 1766.7 3.50511 -1.75069 0
M  V30 14919 H 1768.4 3.39915 -2.12741 0
M  V30 14920 H 1764.99 2.66347 -3.35793 0
M  V30 14921 H 1769.18 2.45125 -4.31541 0
M  V30 14922 H 1764.43 2.19708 -5.7056 0
M  V30 14923 H 1768.61 1.9952 -6.67207 0
M  V30 14924 H 1766.23 1.86289 -7.37021 0
M  V30 14925 N 1767.81 1.21396 1.00503 0
M  V30 14926 C 1769.08 0.93995 1.71535 0
M  V30 14927 C 1769.46 -0.548247 2.03856 0
M  V30 14928 O 1768.81 -1.51308 1.71226 0
M  V30 14929 C 1769.02 1.82501 2.9748 0
M  V30 14930 C 1770.37 2.07383 3.7051 0
M  V30 14931 O 1771.39 1.79849 3.07462 0
M  V30 14932 O 1770.25 2.5395 4.83913 0
M  V30 14933 H 1767.35 0.35246 0.748132 0
M  V30 14934 H 1769.89 1.32325 1.06246 0
M  V30 14935 H 1768.67 2.83219 2.70005 0
M  V30 14936 H 1768.29 1.44252 3.70509 0
M  V30 14937 N 1769.29 -1.19996 1.0217 0
M  V30 14938 C 1770.53 -1.89495 0.713989 0
M  V30 14939 C 1770.86 -1.79172 -0.756819 0
M  V30 14940 O 1770.12 -1.17362 -1.56603 0
M  V30 14941 C 1770.41 -3.39999 1.10162 0
M  V30 14942 C 1770.08 -3.70524 2.5695 0
M  V30 14943 C 1768.74 -3.78565 2.97056 0
M  V30 14944 C 1771.09 -3.8442 3.51952 0
M  V30 14945 C 1768.42 -3.97965 4.31092 0
M  V30 14946 C 1770.77 -4.05332 4.85684 0
M  V30 14947 C 1769.44 -4.11604 5.25489 0
M  V30 14948 H 1768.71 -0.693412 0.261267 0
M  V30 14949 H 1771.36 -1.42146 1.28323 0
M  V30 14950 H 1769.66 -3.89197 0.45088 0
M  V30 14951 H 1771.36 -3.92078 0.841158 0
M  V30 14952 H 1767.95 -3.64868 2.24876 0
M  V30 14953 H 1772.13 -3.77558 3.22123 0
M  V30 14954 H 1767.39 -4.01058 4.61479 0
M  V30 14955 H 1771.56 -4.15027 5.59219 0
M  V30 14956 H 1769.19 -4.26389 6.29362 0
M  V30 14957 N 1770.76 -0.798611 -1.35867 0
M  V30 14958 C 1771.99 -0.386378 -2.03769 0
M  V30 14959 C 1772.41 0.992154 -1.59806 0
M  V30 14960 O 1771.77 1.64094 -0.770895 0
M  V30 14961 C 1771.82 -0.468859 -3.57539 0
M  V30 14962 O 1770.92 0.520742 -4.09099 0
M  V30 14963 H 1770.26 -0.162597 -0.643784 0
M  V30 14964 H 1772.79 -1.08228 -1.73631 0
M  V30 14965 H 1772.8 -0.335775 -4.06616 0
M  V30 14966 H 1771.48 -1.47441 -3.88888 0
M  V30 14967 H 1770.06 0.348559 -3.71267 0
M  V30 14968 N 1772.24 1.47639 -0.551417 0
M  V30 14969 C 1773.49 2.02484 -0.0252051 0
M  V30 14970 C 1773.82 1.42638 1.3223 0
M  V30 14971 O 1773.07 0.569434 1.87232 0
M  V30 14972 C 1773.37 3.57187 0.123467 0
M  V30 14973 C 1773.04 4.35925 -1.15241 0
M  V30 14974 C 1771.7 4.57157 -1.50203 0
M  V30 14975 C 1774.05 4.81377 -1.99815 0
M  V30 14976 C 1771.38 5.2109 -2.69597 0
M  V30 14977 C 1773.73 5.46626 -3.18406 0
M  V30 14978 C 1772.39 5.66093 -3.53688 0
M  V30 14979 H 1771.66 0.740943 -0.0092232 0
M  V30 14980 H 1774.31 1.77378 -0.721764 0
M  V30 14981 H 1772.62 3.81253 0.902951 0
M  V30 14982 H 1774.31 3.97267 0.545876 0
M  V30 14983 H 1770.9 4.19674 -0.870169 0
M  V30 14984 H 1775.09 4.64756 -1.74112 0
M  V30 14985 H 1770.34 5.34356 -2.97108 0
M  V30 14986 H 1774.52 5.8081 -3.84231 0
M  V30 14987 H 1772.14 6.15404 -4.46298 0
M  V30 14988 N 1773.72 0.287581 1.54954 0
M  V30 14989 C 1774.65 -0.587855 2.25979 0
M  V30 14990 C 1775.63 -1.14884 1.25442 0
M  V30 14991 O 1776.82 -1.18067 1.54188 0
M  V30 14992 C 1773.95 -1.76618 2.99037 0
M  V30 14993 C 1772.9 -1.33617 4.06609 0
M  V30 14994 C 1772.23 -2.59859 4.67309 0
M  V30 14995 C 1773.53 -0.477219 5.20115 0
M  V30 14996 H 1775.22 0.00450183 2.994 0
M  V30 14997 H 1772.77 0.00360521 1.44 0
M  V30 14998 H 1774.72 -2.38461 3.4744 0
M  V30 14999 H 1773.44 -2.38457 2.23172 0
M  V30 15000 H 1772.1 -0.74088 3.59036 0
M  V30 15001 H 1771.75 -3.19983 3.88098 0
M  V30 15002 H 1771.45 -2.31793 5.3995 0
M  V30 15003 H 1772.97 -3.22528 5.18467 0
M  V30 15004 H 1774.39 -1.00096 5.64494 0
M  V30 15005 H 1772.79 -0.290913 5.99394 0
M  V30 15006 H 1773.86 0.500993 4.82305 0
M  V30 15007 N 1775.2 -1.57593 0.0150662 0
M  V30 15008 C 1776.61 -1.79146 -0.525709 0
M  V30 15009 C 1776.96 -0.923985 -1.73081 0
M  V30 15010 O 1776.09 -0.130532 -2.16006 0
M  V30 15011 C 1776.68 -3.249 -0.960492 0
M  V30 15012 C 1775.24 -3.47497 -1.44647 0
M  V30 15013 C 1774.39 -2.74332 -0.404628 0
M  V30 15014 H 1777.34 -1.56857 0.241175 0
M  V30 15015 H 1777.36 -3.3384 -1.82568 0
M  V30 15016 H 1776.87 -3.88011 -0.0832025 0
M  V30 15017 H 1774.97 -2.8962 -2.34416 0
M  V30 15018 H 1775.08 -4.56199 -1.46354 0
M  V30 15019 H 1773.45 -2.39394 -0.869627 0
M  V30 15020 H 1774.23 -3.40151 0.463953 0
M  V30 15021 N 1776.68 0.257904 -1.55475 0
M  V30 15022 C 1777.61 1.34176 -1.85821 0
M  V30 15023 C 1778.62 1.44821 -0.743696 0
M  V30 15024 O 1779.81 1.46367 -1.02171 0
M  V30 15025 C 1776.91 2.72151 -2.01958 0
M  V30 15026 C 1776.08 2.83911 -3.32736 0
M  V30 15027 C 1775.14 4.02659 -3.38751 0
M  V30 15028 O 1774.17 3.92705 -4.12034 0
M  V30 15029 N 1775.37 5.15325 -2.67245 0
M  V30 15030 H 1778.14 1.08483 -2.79377 0
M  V30 15031 H 1775.7 0.448017 -1.55578 0
M  V30 15032 H 1777.69 3.4991 -2.03335 0
M  V30 15033 H 1776.26 2.906 -1.15198 0
M  V30 15034 H 1775.48 1.92915 -3.43769 0
M  V30 15035 H 1776.77 2.88709 -4.18956 0
M  V30 15036 H 1776.16 5.26303 -2.07418 0
M  V30 15037 H 1774.72 5.91259 -2.74328 0
M  V30 15038 N 1778.15 1.48666 0.52309 0
M  V30 15039 C 1779.57 1.50492 1.10495 0
M  V30 15040 C 1779.92 0.278579 1.94212 0
M  V30 15041 O 1779.04 -0.613679 2.07516 0
M  V30 15042 C 1779.64 2.72692 2.01058 0
M  V30 15043 C 1778.2 2.77368 2.54448 0
M  V30 15044 C 1777.34 2.44104 1.31562 0
M  V30 15045 H 1780.29 1.55682 0.308017 0
M  V30 15046 H 1780.31 2.51601 2.85442 0
M  V30 15047 H 1779.83 3.61931 1.401 0
M  V30 15048 H 1777.93 1.92356 3.19108 0
M  V30 15049 H 1778.04 3.78976 2.93111 0
M  V30 15050 H 1776.4 1.95407 1.63366 0
M  V30 15051 H 1777.19 3.35591 0.723455 0
M  V30 15052 N 1779.63 -0.772489 1.37369 0
M  V30 15053 C 1781.04 -1.34873 1.29098 0
M  V30 15054 C 1781.39 -1.96103 -0.0617433 0
M  V30 15055 O 1780.52 -1.93764 -0.963562 0
M  V30 15056 C 1781.11 -2.45218 2.33781 0
M  V30 15057 C 1779.67 -2.98612 2.29146 0
M  V30 15058 C 1778.82 -1.71823 2.17651 0
M  V30 15059 H 1781.77 -0.572805 1.48002 0
M  V30 15060 H 1781.79 -3.24679 1.98404 0
M  V30 15061 H 1781.3 -2.00624 3.32222 0
M  V30 15062 H 1779.41 -3.47583 1.34225 0
M  V30 15063 H 1779.52 -3.54276 3.22529 0
M  V30 15064 H 1777.88 -1.94719 1.64185 0
M  V30 15065 H 1778.67 -1.29334 3.18006 0
M  V30 15066 N 1781.11 -1.21927 -0.998575 0
M  V30 15067 C 1782.04 -0.942076 -2.08944 0
M  V30 15068 C 1783.06 0.0771683 -1.62617 0
M  V30 15069 O 1784.24 -0.156133 -1.77816 0
M  V30 15070 C 1781.34 -0.394201 -3.366 0
M  V30 15071 C 1780.52 -1.46931 -4.11983 0
M  V30 15072 C 1779.58 -0.929531 -5.17925 0
M  V30 15073 O 1778.6 -1.61444 -5.45824 0
M  V30 15074 N 1779.8 0.251965 -5.79953 0
M  V30 15075 H 1782.57 -1.88119 -2.33306 0
M  V30 15076 H 1780.13 -1.12539 -1.16389 0
M  V30 15077 H 1782.12 -0.0185416 -4.04696 0
M  V30 15078 H 1780.69 0.449884 -3.09346 0
M  V30 15079 H 1779.91 -2.01854 -3.38598 0
M  V30 15080 H 1781.2 -2.19284 -4.59121 0
M  V30 15081 H 1780.6 0.825333 -5.59647 0
M  V30 15082 H 1779.16 0.569068 -6.49311 0
M  V30 15083 N 1782.59 1.19452 -1.02805 0
M  V30 15084 C 1783.5 2.2631 -0.618147 0
M  V30 15085 C 1784.51 1.70449 0.349712 0
M  V30 15086 O 1785.69 2.00325 0.207801 0
M  V30 15087 C 1782.76 3.46691 0.0255242 0
M  V30 15088 C 1781.82 4.17735 -0.98973 0
M  V30 15089 C 1781.05 5.32369 -0.376681 0
M  V30 15090 O 1781.27 5.64467 0.820584 0
M  V30 15091 O 1780.21 5.9178 -1.09911 0
M  V30 15092 H 1784.03 2.63611 -1.50807 0
M  V30 15093 H 1781.62 1.2629 -0.798192 0
M  V30 15094 H 1783.5 4.19643 0.384464 0
M  V30 15095 H 1782.17 3.1124 0.889467 0
M  V30 15096 H 1781.08 3.46906 -1.40024 0
M  V30 15097 H 1782.41 4.57155 -1.82402 0
M  V30 15098 N 1784.07 0.805805 1.35442 0
M  V30 15099 C 1785.01 0.213632 2.29809 0
M  V30 15100 C 1785.98 -0.651878 1.52774 0
M  V30 15101 O 1787.17 -0.597124 1.81216 0
M  V30 15102 C 1784.31 -0.632444 3.39255 0
M  V30 15103 C 1783.42 0.253414 4.31256 0
M  V30 15104 C 1782.56 -0.600593 5.27794 0
M  V30 15105 C 1781.6 0.285712 6.11433 0
M  V30 15106 N 1780.73 -0.528222 7.0011 0
M  V30 15107 H 1785.57 1.02378 2.79862 0
M  V30 15108 H 1783.11 0.516397 1.37738 0
M  V30 15109 H 1785.07 -1.13814 4.01376 0
M  V30 15110 H 1783.7 -1.40786 2.90481 0
M  V30 15111 H 1782.75 0.877202 3.70148 0
M  V30 15112 H 1784.06 0.935631 4.89946 0
M  V30 15113 H 1783.22 -1.17145 5.95283 0
M  V30 15114 H 1781.95 -1.31638 4.69598 0
M  V30 15115 H 1780.96 0.868843 5.42891 0
M  V30 15116 H 1782.18 0.999349 6.71707 0
M  V30 15117 H 1780.13 -1.228 6.44404 0
M  V30 15118 H 1780.05 0.0959658 7.55939 0
M  V30 15119 H 1781.32 -1.08238 7.71949 0
M  V30 15120 N 1785.54 -1.47344 0.559239 0
M  V30 15121 C 1786.51 -2.28516 -0.17688 0
M  V30 15122 C 1787.51 -1.37065 -0.840823 0
M  V30 15123 O 1788.7 -1.59676 -0.696373 0
M  V30 15124 C 1785.83 -3.16803 -1.25892 0
M  V30 15125 H 1787.02 -2.95068 0.536174 0
M  V30 15126 H 1784.58 -1.53067 0.316263 0
M  V30 15127 H 1785.31 -2.54947 -2.00431 0
M  V30 15128 H 1785.1 -3.84108 -0.787625 0
M  V30 15129 H 1786.59 -3.77958 -1.77589 0
M  V30 15130 N 1787.02 -0.295795 -1.54799 0
M  V30 15131 C 1787.97 0.597578 -2.2003 0
M  V30 15132 C 1788.96 1.10286 -1.17158 0
M  V30 15133 O 1790.15 1.04449 -1.42896 0
M  V30 15134 C 1787.28 1.77148 -2.94064 0
M  V30 15135 C 1786.36 1.28241 -4.04246 0
M  V30 15136 N 1786.75 0.510962 -5.03213 0
M  V30 15137 C 1785.05 1.5636 -4.17693 0
M  V30 15138 C 1785.75 0.251176 -5.81157 0
M  V30 15139 N 1784.73 0.829504 -5.37234 0
M  V30 15140 H 1788.53 0.000567564 -2.939 0
M  V30 15141 H 1786.05 -0.10031 -1.6209 0
M  V30 15142 H 1788.04 2.42299 -3.39259 0
M  V30 15143 H 1786.7 2.37224 -2.21709 0
M  V30 15144 H 1787.71 0.156346 -5.17664 0
M  V30 15145 H 1784.39 2.17222 -3.5654 0
M  V30 15146 H 1785.78 -0.368063 -6.70891 0
M  V30 15147 N 1788.5 1.57583 -0.0234236 0
M  V30 15148 C 1789.78 1.82844 0.694787 0
M  V30 15149 C 1790.16 0.906142 1.90663 0
M  V30 15150 O 1789.51 -0.039621 2.28466 0
M  V30 15151 C 1789.72 3.31921 1.07839 0
M  V30 15152 C 1791.06 3.98252 1.47243 0
M  V30 15153 O 1792.09 3.36383 1.17154 0
M  V30 15154 O 1790.95 5.07284 2.03285 0
M  V30 15155 H 1788.04 0.753723 0.340339 0
M  V30 15156 H 1790.59 1.69624 -0.0506703 0
M  V30 15157 H 1789.36 3.90705 0.215641 0
M  V30 15158 H 1788.98 3.50227 1.8822 0
M  V30 15159 N 1789.98 -0.249655 1.5561 0
M  V30 15160 C 1791.23 -0.976148 1.76963 0
M  V30 15161 C 1791.55 -1.85958 0.586903 0
M  V30 15162 O 1790.82 -1.91827 -0.397415 0
M  V30 15163 H 1789.4 -0.363416 0.652639 0
M  V30 15164 H 1792.06 -0.268264 1.93045 0
M  V30 15165 H 1791.16 -1.59948 2.67998 0
M  V30 15166 N 1791.46 -1.48941 -0.515198 0
M  V30 15167 C 1792.71 -1.57398 -1.26768 0
M  V30 15168 C 1793.03 -0.256213 -1.93309 0
M  V30 15169 O 1792.3 0.723408 -1.82054 0
M  V30 15170 H 1790.88 -0.579895 -0.470883 0
M  V30 15171 H 1793.54 -1.85489 -0.598315 0
M  V30 15172 H 1792.63 -2.36272 -2.03916 0
M  V30 15173 N 1792.94 0.765193 -1.37777 0
M  V30 15174 C 1794.35 1.06666 -1.1872 0
M  V30 15175 C 1794.55 2.01481 -0.0278636 0
M  V30 15176 O 1793.61 2.44514 0.630006 0
M  V30 15177 C 1794.92 1.65787 -2.50868 0
M  V30 15178 C 1796.47 1.78014 -2.57449 0
M  V30 15179 C 1796.94 2.40548 -3.89744 0
M  V30 15180 N 1798.43 2.47992 -3.91221 0
M  V30 15181 C 1799.17 2.97245 -4.9034 0
M  V30 15182 N 1798.67 3.46621 -5.99855 0
M  V30 15183 N 1800.46 2.96179 -4.77739 0
M  V30 15184 H 1792.61 0.135775 -2.11966 0
M  V30 15185 H 1794.87 0.122863 -0.940005 0
M  V30 15186 H 1794.58 1.03588 -3.36099 0
M  V30 15187 H 1794.45 2.65 -2.6843 0
M  V30 15188 H 1796.84 2.39345 -1.72621 0
M  V30 15189 H 1796.92 0.775388 -2.43765 0
M  V30 15190 H 1796.56 1.79855 -4.74989 0
M  V30 15191 H 1796.49 3.41643 -4.00734 0
M  V30 15192 H 1798.99 2.13056 -3.12114 0
M  V30 15193 H 1799.3 3.82625 -6.7143 0
M  V30 15194 H 1797.64 3.44709 -6.0349 0
M  V30 15195 H 1800.83 2.56909 -3.913 0
M  V30 15196 H 1801.01 3.34253 -5.55139 0
M  V30 15197 N 1794.41 1.22455 0.992094 0
M  V30 15198 C 1795.64 1.07438 1.76467 0
M  V30 15199 C 1796.05 -0.37795 1.85387 0
M  V30 15200 O 1795.39 -1.27367 1.32376 0
M  V30 15201 C 1795.46 1.61171 3.21347 0
M  V30 15202 C 1795.12 3.09794 3.35971 0
M  V30 15203 C 1796.12 4.07214 3.23222 0
M  V30 15204 C 1793.8 3.49266 3.60996 0
M  V30 15205 C 1795.8 5.42092 3.35284 0
M  V30 15206 C 1793.48 4.84292 3.72699 0
M  V30 15207 C 1794.48 5.80514 3.59851 0
M  V30 15208 O 1794.17 7.13088 3.71161 0
M  V30 15209 H 1793.9 0.377158 0.561006 0
M  V30 15210 H 1796.46 1.62527 1.25595 0
M  V30 15211 H 1794.69 1.00491 3.73415 0
M  V30 15212 H 1796.37 1.41804 3.80324 0
M  V30 15213 H 1797.14 3.78063 3.03798 0
M  V30 15214 H 1793.02 2.74895 3.70073 0
M  V30 15215 H 1796.56 6.17178 3.25172 0
M  V30 15216 H 1792.46 5.13124 3.91629 0
M  V30 15217 H 1793.23 7.20677 3.88029 0
M  V30 15218 N 1795.89 -1.18905 1.03437 0
M  V30 15219 C 1797.12 -1.92398 0.752759 0
M  V30 15220 C 1797.53 -1.76048 -0.693091 0
M  V30 15221 O 1796.87 -1.08335 -1.48355 0
M  V30 15222 C 1796.93 -3.44392 1.03124 0
M  V30 15223 C 1796.6 -3.84516 2.46974 0
M  V30 15224 C 1797.6 -3.8882 3.4513 0
M  V30 15225 C 1795.28 -4.15996 2.81519 0
M  V30 15226 C 1797.27 -4.24043 4.75885 0
M  V30 15227 C 1794.96 -4.5089 4.12482 0
M  V30 15228 C 1795.96 -4.54889 5.09475 0
M  V30 15229 O 1795.65 -4.88973 6.38091 0
M  V30 15230 H 1795.38 -0.617814 0.274375 0
M  V30 15231 H 1797.93 -1.51828 1.38338 0
M  V30 15232 H 1796.16 -3.85172 0.343482 0
M  V30 15233 H 1797.85 -3.99127 0.738423 0
M  V30 15234 H 1798.62 -3.64645 3.1978 0
M  V30 15235 H 1794.5 -4.12064 2.06699 0
M  V30 15236 H 1798.04 -4.27079 5.51588 0
M  V30 15237 H 1793.94 -4.74525 4.37603 0
M  V30 15238 H 1794.71 -5.069 6.42647 0
M  V30 15239 N 1797.37 -0.812977 -1.35013 0
M  V30 15240 C 1798.79 -0.497497 -1.51648 0
M  V30 15241 C 1798.99 0.980162 -1.76054 0
M  V30 15242 O 1798.04 1.76498 -1.80567 0
M  V30 15243 C 1799.35 -1.3484 -2.68772 0
M  V30 15244 C 1800.9 -1.3445 -2.82652 0
M  V30 15245 C 1801.38 -2.17966 -4.02808 0
M  V30 15246 N 1802.87 -2.15537 -4.09998 0
M  V30 15247 C 1803.6 -2.76912 -5.02103 0
M  V30 15248 N 1803.1 -3.47239 -5.99497 0
M  V30 15249 N 1804.89 -2.66519 -4.94898 0
M  V30 15250 H 1797.04 -1.76987 -1.17429 0
M  V30 15251 H 1799.31 -0.753654 -0.575073 0
M  V30 15252 H 1799.01 -2.39732 -2.57336 0
M  V30 15253 H 1798.89 -1.0061 -3.63535 0
M  V30 15254 H 1801.27 -0.303409 -2.93536 0
M  V30 15255 H 1801.35 -1.72671 -1.88728 0
M  V30 15256 H 1801 -3.2212 -3.92685 0
M  V30 15257 H 1800.93 -1.77102 -4.95926 0
M  V30 15258 H 1803.42 -1.64373 -3.40279 0
M  V30 15259 H 1803.73 -3.91341 -6.66387 0
M  V30 15260 H 1802.08 -3.51344 -5.99652 0
M  V30 15261 H 1805.27 -2.1116 -4.17767 0
M  V30 15262 H 1805.44 -3.14639 -5.66486 0
M  V30 15263 N 1798.85 1.47045 -0.567045 0
M  V30 15264 C 1799.81 2.28607 0.164758 0
M  V30 15265 C 1800.81 1.37509 0.833542 0
M  V30 15266 O 1802 1.60043 0.687895 0
M  V30 15267 C 1799.13 3.17466 1.24211 0
M  V30 15268 H 1800.33 2.9478 -0.551814 0
M  V30 15269 H 1797.88 1.52897 -0.324376 0
M  V30 15270 H 1798.61 2.56006 1.99076 0
M  V30 15271 H 1798.4 3.8452 0.767243 0
M  V30 15272 H 1799.89 3.78894 1.75582 0
M  V30 15273 N 1800.33 0.304 1.5464 0
M  V30 15274 C 1801.6 -0.357665 1.92302 0
M  V30 15275 C 1801.98 -1.71453 1.23155 0
M  V30 15276 O 1801.33 -2.25512 0.368342 0
M  V30 15277 C 1801.54 -0.469339 3.4583 0
M  V30 15278 C 1802.89 -0.738803 4.18123 0
M  V30 15279 O 1803.91 -0.553033 3.51881 0
M  V30 15280 O 1802.77 -1.09585 5.354 0
M  V30 15281 H 1799.87 -0.200506 0.802326 0
M  V30 15282 H 1802.41 0.352279 1.66003 0
M  V30 15283 H 1801.18 0.484397 3.8829 0
M  V30 15284 H 1800.81 -1.22763 3.78173 0
M  V30 15285 N 1801.8 -1.57568 0.0317802 0
M  V30 15286 C 1803.08 -1.8321 -0.685081 0
M  V30 15287 C 1803.46 -0.91624 -1.9018 0
M  V30 15288 O 1802.81 0.0275043 -2.28483 0
M  V30 15289 C 1803.02 -3.32488 -1.06078 0
M  V30 15290 C 1804.37 -3.99027 -1.45129 0
M  V30 15291 O 1805.39 -3.36999 -1.15368 0
M  V30 15292 O 1804.25 -5.08355 -2.00592 0
M  V30 15293 H 1801.34 -0.755517 -0.336337 0
M  V30 15294 H 1803.89 -1.69595 0.0596652 0
M  V30 15295 H 1802.66 -3.90814 -0.194918 0
M  V30 15296 H 1802.28 -3.5122 -1.8636 0
M  V30 15297 N 1803.28 0.241399 -1.5574 0
M  V30 15298 C 1804.25 1.28236 -1.89969 0
M  V30 15299 C 1805.25 1.40804 -0.776582 0
M  V30 15300 O 1806.44 1.3941 -1.04453 0
M  V30 15301 C 1803.57 2.65926 -2.13299 0
M  V30 15302 H 1804.76 0.991011 -2.83053 0
M  V30 15303 H 1802.31 0.480939 -1.48717 0
M  V30 15304 H 1803.05 3.00192 -1.22701 0
M  V30 15305 H 1802.83 2.58184 -2.95099 0
M  V30 15306 H 1804.32 3.4108 -2.40944 0
M  V30 15307 N 1804.76 1.49212 0.507292 0
M  V30 15308 C 1805.71 1.65894 1.6304 0
M  V30 15309 C 1806.7 0.524951 1.61061 0
M  V30 15310 O 1807.91 0.704392 1.65645 0
M  V30 15311 H 1804.28 0.522994 0.540353 0
M  V30 15312 H 1806.25 2.60176 1.4612 0
M  V30 15313 C 1805 1.73692 3.01208 0
M  V30 15314 H 1804.33 2.60323 3.03434 0
M  V30 15315 H 1805.77 1.89402 3.79346 0
M  V30 15316 C 1804.23 0.480378 3.33458 0
M  V30 15317 O 1804.76 -0.396732 3.99736 0
M  V30 15318 N 1802.96 0.345216 2.88542 0
M  V30 15319 H 1802.51 1.05997 2.34782 0
M  V30 15320 H 1802.47 -0.494453 3.10488 0
M  V30 15321 N 1806.24 -0.757876 1.38181 0
M  V30 15322 C 1807.48 -1.51912 1.34352 0
M  V30 15323 C 1807.82 -1.94082 -0.0677003 0
M  V30 15324 O 1807.09 -1.65114 -1.02799 0
M  V30 15325 C 1807.38 -2.77466 2.29531 0
M  V30 15326 C 1807.23 -2.41462 3.79495 0
M  V30 15327 C 1808.55 -3.79469 2.22915 0
M  V30 15328 H 1805.67 -0.551091 0.489355 0
M  V30 15329 H 1808.31 -0.868376 1.68995 0
M  V30 15330 H 1806.46 -3.32994 2.00119 0
M  V30 15331 H 1808.13 -1.91742 4.19562 0
M  V30 15332 H 1806.37 -1.73976 3.97385 0
M  V30 15333 H 1807.04 -3.31272 4.41546 0
M  V30 15334 H 1809.52 -3.33471 2.48871 0
M  V30 15335 H 1808.4 -4.6502 2.91629 0
M  V30 15336 H 1808.66 -4.24744 1.22658 0
M  V30 15337 N 1807.72 -1.22979 -0.985586 0
M  V30 15338 C 1808.96 -1.06033 -1.72872 0
M  V30 15339 C 1809.3 0.402572 -1.89982 0
M  V30 15340 O 1808.57 1.29824 -1.44831 0
M  V30 15341 C 1808.85 -1.78047 -3.13004 0
M  V30 15342 C 1808.71 -3.31979 -3.03497 0
M  V30 15343 C 1810.03 -1.53877 -4.12323 0
M  V30 15344 H 1807.14 -0.386594 -0.627466 0
M  V30 15345 H 1809.79 -1.51416 -1.14775 0
M  V30 15346 H 1807.94 -1.39469 -3.62603 0
M  V30 15347 H 1809.61 -3.80047 -2.61462 0
M  V30 15348 H 1807.85 -3.61279 -2.40125 0
M  V30 15349 H 1808.52 -3.7755 -4.02691 0
M  V30 15350 H 1811 -1.87402 -3.7151 0
M  V30 15351 H 1809.87 -2.06749 -5.08474 0
M  V30 15352 H 1810.14 -0.472972 -4.39563 0
M  V30 15353 N 1809.19 1.18355 -1.04066 0
M  V30 15354 C 1810.61 1.40349 -0.759898 0
M  V30 15355 C 1810.81 1.90709 0.650574 0
M  V30 15356 O 1809.87 2.09142 1.41477 0
M  V30 15357 C 1811.18 2.40426 -1.80599 0
M  V30 15358 C 1812.73 2.54153 -1.8269 0
M  V30 15359 C 1813.2 3.57494 -2.8629 0
M  V30 15360 N 1814.69 3.65001 -2.85181 0
M  V30 15361 C 1815.43 4.44688 -3.61995 0
M  V30 15362 N 1814.92 5.27984 -4.48559 0
M  V30 15363 N 1816.72 4.39451 -3.50484 0
M  V30 15364 H 1808.87 0.839924 -1.95087 0
M  V30 15365 H 1811.13 0.431492 -0.844108 0
M  V30 15366 H 1810.84 2.10471 -2.81771 0
M  V30 15367 H 1810.71 3.39773 -1.63812 0
M  V30 15368 H 1813.1 2.83424 -0.821889 0
M  V30 15369 H 1813.18 1.54919 -2.03553 0
M  V30 15370 H 1812.82 3.28963 -3.8697 0
M  V30 15371 H 1812.75 4.56405 -2.62682 0
M  V30 15372 H 1815.24 3.05522 -2.22407 0
M  V30 15373 H 1815.56 5.85939 -5.0388 0
M  V30 15374 H 1813.9 5.27404 -4.52626 0
M  V30 15375 H 1817.09 3.73426 -2.8226 0
M  V30 15376 H 1817.27 5.01313 -4.10596 0
M  V30 15377 N 1810.67 0.820125 1.3458 0
M  V30 15378 C 1811.95 0.329573 1.92803 0
M  V30 15379 C 1812.33 -1.18271 1.74858 0
M  V30 15380 O 1811.68 -1.98851 1.12564 0
M  V30 15381 C 1811.89 0.755833 3.40717 0
M  V30 15382 C 1813.24 0.75306 4.17869 0
M  V30 15383 O 1814.26 0.698235 3.49289 0
M  V30 15384 O 1813.12 0.823708 5.40257 0
M  V30 15385 H 1810.21 0.0893898 0.822155 0
M  V30 15386 H 1812.76 0.904729 1.43571 0
M  V30 15387 H 1811.53 1.79757 3.47568 0
M  V30 15388 H 1811.15 0.15622 3.97293 0
M  V30 15389 N 1812.15 -1.46743 0.574835 0
M  V30 15390 C 1813.57 -1.57847 0.23591 0
M  V30 15391 C 1813.77 -1.57105 -1.26175 0
M  V30 15392 O 1812.82 -1.48382 -2.04301 0
M  V30 15393 C 1814.14 -2.87591 0.878158 0
M  V30 15394 C 1815.68 -3.01209 0.851018 0
M  V30 15395 C 1816.16 -4.33678 1.47266 0
M  V30 15396 N 1817.65 -4.40358 1.43664 0
M  V30 15397 C 1818.38 -5.41458 1.8871 0
M  V30 15398 N 1817.88 -6.49274 2.41692 0
M  V30 15399 N 1819.67 -5.3261 1.79674 0
M  V30 15400 H 1811.82 -1.45469 1.54766 0
M  V30 15401 H 1814.09 -0.69341 0.646441 0
M  V30 15402 H 1813.79 -2.93922 1.93139 0
M  V30 15403 H 1813.67 -3.75264 0.381665 0
M  V30 15404 H 1816.05 -2.94464 -0.193573 0
M  V30 15405 H 1816.14 -2.15032 1.38545 0
M  V30 15406 H 1815.78 -4.41179 2.51641 0
M  V30 15407 H 1815.71 -5.18616 0.913519 0
M  V30 15408 H 1818.2 -3.63041 1.04928 0
M  V30 15409 H 1818.51 -7.22617 2.73942 0
M  V30 15410 H 1816.86 -6.50115 2.45713 0
M  V30 15411 H 1820.05 -4.47282 1.38045 0
M  V30 15412 H 1820.22 -6.11259 2.15096 0
M  V30 15413 N 1813.63 -0.312197 -1.54477 0
M  V30 15414 C 1814.91 0.347462 -1.92489 0
M  V30 15415 C 1815.29 1.70797 -1.24063 0
M  V30 15416 O 1814.63 2.25313 -0.380296 0
M  V30 15417 C 1814.84 0.450992 -3.46074 0
M  V30 15418 C 1816.19 0.716618 -4.18509 0
M  V30 15419 O 1817.22 0.534364 -3.52169 0
M  V30 15420 O 1816.07 1.06744 -5.35974 0
M  V30 15421 H 1813.17 0.196248 -0.803378 0
M  V30 15422 H 1815.71 -0.361078 -1.65814 0
M  V30 15423 H 1814.49 -0.504982 -3.88028 0
M  V30 15424 H 1814.11 1.20756 -3.78819 0
M  V30 15425 N 1815.11 1.57549 -0.040136 0
M  V30 15426 C 1816.04 2.13912 0.936168 0
M  V30 15427 C 1817.02 1.05798 1.33194 0
M  V30 15428 O 1818.2 1.33685 1.40861 0
M  V30 15429 C 1815.33 2.67515 2.21479 0
M  V30 15430 C 1814.29 3.80513 1.95943 0
M  V30 15431 C 1813.61 4.20589 3.30165 0
M  V30 15432 C 1814.91 5.06124 1.28981 0
M  V30 15433 H 1816.61 2.9574 0.46674 0
M  V30 15434 H 1814.15 1.42262 0.223062 0
M  V30 15435 H 1816.11 3.05582 2.90168 0
M  V30 15436 H 1814.83 1.82864 2.70608 0
M  V30 15437 H 1813.49 3.42902 1.29669 0
M  V30 15438 H 1813.14 3.32904 3.77073 0
M  V30 15439 H 1812.84 4.96742 3.13881 0
M  V30 15440 H 1814.36 4.61248 4.00103 0
M  V30 15441 H 1815.77 5.41707 1.87687 0
M  V30 15442 H 1814.17 5.87347 1.2306 0
M  V30 15443 H 1815.24 4.84179 0.264286 0
M  V30 15444 N 1816.58 -0.233136 1.55866 0
M  V30 15445 C 1817.49 -1.31004 1.94615 0
M  V30 15446 C 1818.51 -1.51915 0.848399 0
M  V30 15447 O 1819.69 -1.6527 1.15098 0
M  V30 15448 C 1816.75 -2.64203 2.24494 0
M  V30 15449 C 1815.81 -2.51695 3.47776 0
M  V30 15450 C 1815.05 -3.78542 3.7622 0
M  V30 15451 O 1815.27 -4.81043 3.06519 0
M  V30 15452 O 1814.2 -3.76348 4.69729 0
M  V30 15453 H 1818.03 -1.01129 2.86368 0
M  V30 15454 H 1815.61 -0.435043 1.42926 0
M  V30 15455 H 1817.5 -3.42889 2.44959 0
M  V30 15456 H 1816.17 -2.93782 1.35918 0
M  V30 15457 H 1815.08 -1.71248 3.32603 0
M  V30 15458 H 1816.41 -2.27058 4.36698 0
M  V30 15459 N 1818.06 -1.49479 -0.499372 0
M  V30 15460 C 1819.31 -1.59284 -1.25525 0
M  V30 15461 C 1819.64 -0.27941 -1.92179 0
M  V30 15462 O 1818.92 0.717142 -1.80796 0
M  V30 15463 C 1819.2 -2.75323 -2.32098 0
M  V30 15464 C 1819.05 -4.16464 -1.69934 0
M  V30 15465 C 1820.37 -2.86998 -3.33646 0
M  V30 15466 H 1817.49 -0.579768 -0.455015 0
M  V30 15467 H 1820.13 -1.81769 -0.553165 0
M  V30 15468 H 1818.28 -2.56282 -2.91979 0
M  V30 15469 H 1819.96 -4.47026 -1.13867 0
M  V30 15470 H 1818.2 -4.22036 -1.0034 0
M  V30 15471 H 1818.87 -4.93534 -2.47242 0
M  V30 15472 H 1821.35 -3.04337 -2.83757 0
M  V30 15473 H 1820.22 -3.69865 -4.05575 0
M  V30 15474 H 1820.48 -1.96419 -3.9607 0
M  V30 15475 N 1819.54 0.750537 -1.38581 0
M  V30 15476 C 1820.82 1.50051 -1.25475 0
M  V30 15477 C 1821.2 2.10618 0.142521 0
M  V30 15478 O 1820.55 1.97317 1.15231 0
M  V30 15479 C 1820.76 2.56443 -2.36724 0
M  V30 15480 C 1822.1 3.23261 -2.75296 0
M  V30 15481 O 1823.13 2.66749 -2.36058 0
M  V30 15482 O 1821.99 4.25481 -3.4297 0
M  V30 15483 H 1819.08 0.665581 -0.490847 0
M  V30 15484 H 1821.63 0.785688 -1.50416 0
M  V30 15485 H 1820.4 2.09958 -3.30202 0
M  V30 15486 H 1820.02 3.35503 -2.13363 0
M  V30 15487 N 1821.02 1.235 0.979051 0
M  V30 15488 C 1822.25 1.09462 1.75572 0
M  V30 15489 C 1822.66 -0.3538 1.85455 0
M  V30 15490 O 1822.02 -1.24467 1.3347 0
M  V30 15491 C 1822.07 1.71562 3.18196 0
M  V30 15492 O 1821.79 3.1074 3.08824 0
M  V30 15493 C 1823.29 1.62984 4.12251 0
M  V30 15494 H 1820.51 0.383013 0.550946 0
M  V30 15495 H 1823.06 1.63378 1.22995 0
M  V30 15496 H 1821.21 1.21676 3.67796 0
M  V30 15497 H 1821.63 3.40888 3.98617 0
M  V30 15498 H 1823.1 2.11135 5.10025 0
M  V30 15499 H 1823.58 0.588907 4.35234 0
M  V30 15500 H 1824.18 2.12242 3.68556 0
M  V30 15501 N 1822.5 -1.17802 1.04693 0
M  V30 15502 C 1823.73 -1.91867 0.774246 0
M  V30 15503 C 1824.14 -1.76534 -0.669425 0
M  V30 15504 O 1823.5 -1.09915 -1.45688 0
M  V30 15505 C 1823.55 -3.43086 1.13904 0
M  V30 15506 O 1823.27 -3.57943 2.52604 0
M  V30 15507 C 1824.77 -4.34238 0.891767 0
M  V30 15508 H 1821.99 -0.60892 0.281882 0
M  V30 15509 H 1824.53 -1.49414 1.39627 0
M  V30 15510 H 1822.69 -3.83304 0.561863 0
M  V30 15511 H 1823.1 -4.51599 2.66756 0
M  V30 15512 H 1824.58 -5.3887 1.1968 0
M  V30 15513 H 1825.05 -4.38858 -0.17323 0
M  V30 15514 H 1825.66 -3.99727 1.45254 0
M  V30 15515 N 1823.98 -0.827251 -1.34143 0
M  V30 15516 C 1824.91 -0.267015 -2.31968 0
M  V30 15517 C 1825.89 0.618906 -1.58441 0
M  V30 15518 O 1827.07 0.544882 -1.86399 0
M  V30 15519 C 1824.2 0.568379 -3.42617 0
M  V30 15520 C 1823.16 -0.220767 -4.2743 0
M  V30 15521 C 1822.48 0.737643 -5.29587 0
M  V30 15522 C 1823.78 -1.43137 -5.02304 0
M  V30 15523 H 1825.48 -1.08436 -2.79073 0
M  V30 15524 H 1823.02 -0.522879 -1.34171 0
M  V30 15525 H 1824.97 0.970525 -4.10072 0
M  V30 15526 H 1823.7 1.41882 -2.94172 0
M  V30 15527 H 1822.36 -0.604333 -3.61585 0
M  V30 15528 H 1822.01 1.58416 -4.77403 0
M  V30 15529 H 1821.71 0.213815 -5.87211 0
M  V30 15530 H 1823.23 1.13755 -5.9991 0
M  V30 15531 H 1824.64 -1.10301 -5.62589 0
M  V30 15532 H 1823.04 -1.89115 -5.69522 0
M  V30 15533 H 1824.11 -2.2073 -4.31748 0
M  V30 15534 N 1825.45 1.46436 -0.582609 0
M  V30 15535 C 1826.4 2.30308 0.150697 0
M  V30 15536 C 1827.37 1.40611 0.884185 0
M  V30 15537 O 1828.56 1.6956 0.874874 0
M  V30 15538 C 1825.7 3.25074 1.15847 0
M  V30 15539 C 1824.81 4.2987 0.428442 0
M  V30 15540 C 1823.94 5.11765 1.42373 0
M  V30 15541 C 1822.98 6.0831 0.680103 0
M  V30 15542 N 1822.12 6.83073 1.62345 0
M  V30 15543 H 1826.96 2.92487 -0.570583 0
M  V30 15544 H 1824.5 1.44148 -0.293195 0
M  V30 15545 H 1826.45 3.78462 1.75563 0
M  V30 15546 H 1825.08 2.64704 1.84747 0
M  V30 15547 H 1824.14 3.7934 -0.283744 0
M  V30 15548 H 1825.45 4.98566 -0.15291 0
M  V30 15549 H 1824.6 5.69429 2.09369 0
M  V30 15550 H 1823.34 4.4303 2.03902 0
M  V30 15551 H 1822.35 5.498 -0.00363067 0
M  V30 15552 H 1823.57 6.79064 0.0702152 0
M  V30 15553 H 1821.52 6.17048 2.22684 0
M  V30 15554 H 1821.43 7.48029 1.0949 0
M  V30 15555 H 1822.7 7.45295 2.28376 0
M  V30 15556 N 1826.93 0.320385 1.54309 0
M  V30 15557 C 1828.16 -0.28794 2.05391 0
M  V30 15558 C 1828.58 -1.45249 1.19517 0
M  V30 15559 O 1827.94 -1.80154 0.203556 0
M  V30 15560 C 1827.99 -0.703261 3.53676 0
M  V30 15561 O 1827.09 -1.80598 3.70753 0
M  V30 15562 H 1826.43 -0.052589 0.661914 0
M  V30 15563 H 1828.96 0.46787 1.99179 0
M  V30 15564 H 1828.97 -0.986793 3.95887 0
M  V30 15565 H 1827.65 0.148514 4.15635 0
M  V30 15566 H 1826.22 -1.5215 3.40448 0
M  V30 15567 N 1828.41 -1.57525 0.0484906 0
M  V30 15568 C 1829.34 -2.14405 -0.924811 0
M  V30 15569 C 1830.32 -1.06503 -1.32631 0
M  V30 15570 O 1831.51 -1.3443 -1.4015 0
M  V30 15571 C 1828.64 -2.68686 -2.20057 0
M  V30 15572 C 1827.59 -3.81547 -1.93922 0
M  V30 15573 C 1826.92 -4.22334 -3.27929 0
M  V30 15574 C 1828.22 -5.06801 -1.26295 0
M  V30 15575 H 1829.91 -2.95983 -0.45105 0
M  V30 15576 H 1827.46 -1.42378 -0.215514 0
M  V30 15577 H 1829.41 -3.07117 -2.88543 0
M  V30 15578 H 1828.13 -1.84296 -2.69634 0
M  V30 15579 H 1826.79 -3.43585 -1.27848 0
M  V30 15580 H 1826.44 -3.34899 -3.75302 0
M  V30 15581 H 1826.14 -4.984 -3.11242 0
M  V30 15582 H 1827.66 -4.63363 -3.97652 0
M  V30 15583 H 1829.08 -5.42695 -1.84812 0
M  V30 15584 H 1827.47 -5.87991 -1.19943 0
M  V30 15585 H 1828.54 -4.84313 -0.238605 0
M  V30 15586 N 1829.89 0.224867 -1.55988 0
M  V30 15587 C 1831.11 0.970897 -1.83271 0
M  V30 15588 C 1831.54 1.77293 -0.628399 0
M  V30 15589 O 1830.9 1.76301 0.422804 0
M  V30 15590 C 1830.94 1.86686 -3.08514 0
M  V30 15591 O 1830.05 2.96174 -2.86975 0
M  V30 15592 H 1829.39 0.275093 -0.604334 0
M  V30 15593 H 1831.92 0.239183 -2.03197 0
M  V30 15594 H 1831.93 2.27731 -3.3853 0
M  V30 15595 H 1830.6 1.27733 -3.95799 0
M  V30 15596 H 1829.18 2.59099 -2.68183 0
M  V30 15597 N 1831.37 1.49742 0.491438 0
M  V30 15598 C 1832.3 1.63245 1.60884 0
M  V30 15599 C 1833.31 0.514713 1.54449 0
M  V30 15600 O 1834.5 0.787136 1.60207 0
M  V30 15601 C 1831.6 1.58202 2.99709 0
M  V30 15602 C 1830.77 2.8567 3.31227 0
M  V30 15603 C 1829.83 2.73548 4.49509 0
M  V30 15604 O 1828.86 3.47492 4.50819 0
M  V30 15605 N 1830.06 1.85734 5.49985 0
M  V30 15606 H 1832.82 2.5962 1.49724 0
M  V30 15607 H 1830.39 1.46951 0.679494 0
M  V30 15608 H 1832.38 1.47734 3.76771 0
M  V30 15609 H 1830.95 0.696461 3.04743 0
M  V30 15610 H 1830.17 3.10418 2.4297 0
M  V30 15611 H 1831.46 3.70156 3.49088 0
M  V30 15612 H 1830.85 1.24933 5.51732 0
M  V30 15613 H 1829.41 1.81182 6.26112 0
M  V30 15614 N 1832.84 -0.743177 1.38977 0
M  V30 15615 C 1833.78 -1.86709 1.32938 0
M  V30 15616 C 1834.79 -1.61027 0.239644 0
M  V30 15617 O 1835.98 -1.71413 0.497991 0
M  V30 15618 C 1833.08 -3.22566 1.03945 0
M  V30 15619 C 1832.25 -3.75669 2.24034 0
M  V30 15620 C 1831.31 -4.90068 1.91625 0
M  V30 15621 O 1830.34 -5.04156 2.64226 0
M  V30 15622 N 1831.54 -5.7383 0.877465 0
M  V30 15623 H 1834.3 -1.92397 2.2979 0
M  V30 15624 H 1831.86 -0.923564 1.32973 0
M  V30 15625 H 1833.86 -3.96654 0.802977 0
M  V30 15626 H 1832.43 -3.12198 0.15854 0
M  V30 15627 H 1831.65 -2.93027 2.63683 0
M  V30 15628 H 1832.93 -4.07882 3.04154 0
M  V30 15629 H 1832.33 -5.65028 0.275604 0
M  V30 15630 H 1830.89 -6.48021 0.700881 0
M  V30 15631 N 1834.32 -1.24018 -0.972487 0
M  V30 15632 C 1835.57 -1.07105 -1.70913 0
M  V30 15633 C 1835.88 0.390908 -1.91654 0
M  V30 15634 O 1837.09 0.68013 -2.62843 0
M  V30 15635 C 1835.55 -1.86823 -3.07612 0
M  V30 15636 C 1835.15 -3.37399 -2.94731 0
M  V30 15637 C 1836.9 -1.78425 -3.85182 0
M  V30 15638 C 1834.81 -4.09479 -4.2671 0
M  V30 15639 H 1833.74 -0.397184 -0.640907 0
M  V30 15640 H 1836.39 -1.48056 -1.08405 0
M  V30 15641 H 1834.77 -1.38683 -3.70922 0
M  V30 15642 H 1835.94 -3.93084 -2.40462 0
M  V30 15643 H 1834.26 -3.46697 -2.3063 0
M  V30 15644 H 1836.85 -2.29584 -4.82903 0
M  V30 15645 H 1837.2 -0.748555 -4.09515 0
M  V30 15646 H 1837.73 -2.24219 -3.28589 0
M  V30 15647 H 1834.47 -5.13387 -4.07571 0
M  V30 15648 H 1833.99 -3.5858 -4.80812 0
M  V30 15649 H 1835.67 -4.16212 -4.95355 0
M  V30 15650 N 1835.8 1.17245 -1.05316 0
M  V30 15651 C 1836.71 2.24948 -0.666011 0
M  V30 15652 C 1837.73 1.71153 0.313478 0
M  V30 15653 O 1838.9 2.00721 0.165262 0
M  V30 15654 C 1835.97 3.46667 -0.0480198 0
M  V30 15655 C 1835.03 4.15542 -1.07812 0
M  V30 15656 C 1834.26 5.3145 -0.48952 0
M  V30 15657 O 1834.48 5.6608 0.700668 0
M  V30 15658 O 1833.42 5.89315 -1.22439 0
M  V30 15659 H 1837.24 2.60353 -1.56365 0
M  V30 15660 H 1834.83 1.24569 -0.8248 0
M  V30 15661 H 1836.71 4.20364 0.295366 0
M  V30 15662 H 1835.39 3.13056 0.823248 0
M  V30 15663 H 1834.29 3.43858 -1.47351 0
M  V30 15664 H 1835.63 4.53183 -1.92057 0
M  V30 15665 N 1837.28 0.834353 1.33702 0
M  V30 15666 C 1838.23 0.252818 2.31222 0
M  V30 15667 C 1839.22 -0.612723 1.57931 0
M  V30 15668 O 1840.43 -0.502788 1.72835 0
M  V30 15669 H 1836.8 0.0630243 0.749354 0
M  V30 15670 H 1838.77 1.08992 2.77783 0
M  V30 15671 C 1837.52 -0.561132 3.43142 0
M  V30 15672 H 1836.84 0.0955723 3.99686 0
M  V30 15673 H 1838.28 -0.933951 4.13586 0
M  V30 15674 C 1836.74 -1.73817 2.88599 0
M  V30 15675 O 1837.27 -2.83674 2.84415 0
M  V30 15676 N 1835.48 -1.5586 2.45267 0
M  V30 15677 H 1835.03 -0.664959 2.4887 0
M  V30 15678 H 1834.98 -2.34764 2.09125 0
M  V30 15679 N 1838.76 -1.46125 0.590367 0
M  V30 15680 C 1840.01 -2.01555 0.0765543 0
M  V30 15681 C 1840.32 -1.46661 -1.29422 0
M  V30 15682 O 1841.52 -1.93958 -1.8998 0
M  V30 15683 C 1839.98 -3.59797 0.0862369 0
M  V30 15684 C 1839.59 -4.23687 1.4558 0
M  V30 15685 C 1841.33 -4.22856 -0.373232 0
M  V30 15686 C 1839.24 -5.7403 1.42279 0
M  V30 15687 H 1838.17 -0.75359 0.0248501 0
M  V30 15688 H 1840.82 -1.67778 0.743149 0
M  V30 15689 H 1839.2 -3.90684 -0.646675 0
M  V30 15690 H 1840.38 -4.04398 2.20905 0
M  V30 15691 H 1838.69 -3.72753 1.85592 0
M  V30 15692 H 1841.29 -5.33073 -0.416837 0
M  V30 15693 H 1841.63 -3.92325 -1.39237 0
M  V30 15694 H 1842.16 -3.96622 0.305859 0
M  V30 15695 H 1838.9 -6.09234 2.41898 0
M  V30 15696 H 1838.42 -5.95561 0.711862 0
M  V30 15697 H 1840.1 -6.36896 1.13899 0
M  V30 15698 N 1840.23 -0.328564 -1.54137 0
M  V30 15699 C 1841.65 0.0239073 -1.59582 0
M  V30 15700 C 1841.85 1.50043 -1.34497 0
M  V30 15701 O 1840.91 2.25711 -1.13185 0
M  V30 15702 C 1842.22 -0.398812 -2.98044 0
M  V30 15703 C 1843.77 -0.34989 -3.11038 0
M  V30 15704 C 1844.24 -0.747848 -4.51853 0
M  V30 15705 N 1845.73 -0.701447 -4.57858 0
M  V30 15706 C 1846.47 -0.981505 -5.64937 0
M  V30 15707 N 1845.96 -1.32895 -6.79934 0
M  V30 15708 N 1847.76 -0.906735 -5.54738 0
M  V30 15709 H 1839.91 -1.29052 -1.68699 0
M  V30 15710 H 1842.17 -0.52508 -0.7893 0
M  V30 15711 H 1841.88 -1.42773 -3.21417 0
M  V30 15712 H 1841.75 0.233639 -3.76476 0
M  V30 15713 H 1844.14 0.669831 -2.87397 0
M  V30 15714 H 1844.22 -1.01734 -2.34699 0
M  V30 15715 H 1843.86 -1.76551 -4.76227 0
M  V30 15716 H 1843.79 -0.0580299 -5.26568 0
M  V30 15717 H 1846.28 -0.444963 -3.75271 0
M  V30 15718 H 1846.6 -1.52789 -7.57546 0
M  V30 15719 H 1844.94 -1.36726 -6.81418 0
M  V30 15720 H 1848.13 -0.634748 -4.63776 0
M  V30 15721 H 1848.31 -1.12835 -6.38101 0
M  V30 15722 N 1841.71 1.57497 -0.0568439 0
M  V30 15723 C 1842.94 1.97645 0.628589 0
M  V30 15724 C 1843.36 0.934424 1.63249 0
M  V30 15725 O 1842.72 -0.101706 1.81015 0
M  V30 15726 C 1842.77 3.36855 1.2869 0
M  V30 15727 O 1841.87 3.35182 2.40264 0
M  V30 15728 H 1841.21 0.643698 0.16294 0
M  V30 15729 H 1843.74 2.04206 -0.126927 0
M  V30 15730 H 1843.75 3.73708 1.63726 0
M  V30 15731 H 1842.43 4.12231 0.551203 0
M  V30 15732 H 1841.01 3.10081 2.07133 0
M  V30 15733 N 1843.19 -0.216591 1.56105 0
M  V30 15734 C 1844.6 -0.783161 1.6948 0
M  V30 15735 C 1844.95 -1.84776 0.659716 0
M  V30 15736 O 1844.08 -2.1558 -0.188184 0
M  V30 15737 C 1844.67 -1.42733 3.07267 0
M  V30 15738 C 1843.23 -1.94123 3.2248 0
M  V30 15739 C 1842.38 -0.803216 2.65412 0
M  V30 15740 H 1845.33 0.00814542 1.58698 0
M  V30 15741 H 1845.35 -2.29627 3.034 0
M  V30 15742 H 1844.86 -0.652264 3.8258 0
M  V30 15743 H 1842.96 -2.74416 2.52045 0
M  V30 15744 H 1843.08 -2.1178 4.29751 0
M  V30 15745 H 1841.44 -1.21185 2.24023 0
M  V30 15746 H 1842.22 -0.0407398 3.43276 0
M  V30 15747 N 1844.67 -1.5 -0.48349 0
M  V30 15748 C 1845.58 -1.70722 -1.60907 0
M  V30 15749 C 1846.59 -0.590075 -1.63689 0
M  V30 15750 O 1847.77 -0.866915 -1.81787 0
M  V30 15751 C 1844.84 -1.78544 -2.97192 0
M  V30 15752 C 1843.9 -3.02218 -3.04898 0
M  V30 15753 C 1843.13 -3.09658 -4.34681 0
M  V30 15754 O 1843.35 -2.24216 -5.24484 0
M  V30 15755 O 1842.29 -4.02278 -4.47723 0
M  V30 15756 H 1846.11 -2.66111 -1.4635 0
M  V30 15757 H 1843.7 -1.33949 -0.661666 0
M  V30 15758 H 1845.58 -1.85941 -3.78159 0
M  V30 15759 H 1844.25 -0.863364 -3.11974 0
M  V30 15760 H 1843.16 -3.00329 -2.23054 0
M  V30 15761 H 1844.49 -3.93964 -2.95048 0
M  V30 15762 N 1846.15 0.735796 -1.39369 0
M  V30 15763 C 1847.39 1.49239 -1.3628 0
M  V30 15764 C 1847.72 1.94957 0.0408659 0
M  V30 15765 O 1846.99 1.68929 0.991959 0
M  V30 15766 H 1845.57 0.553626 -0.501506 0
M  V30 15767 H 1848.23 0.873549 -1.74227 0
M  V30 15768 H 1847.32 2.37488 -2.02499 0
M  V30 15769 N 1847.63 1.24532 0.965897 0
M  V30 15770 C 1848.85 1.11412 1.74934 0
M  V30 15771 C 1849.28 -0.329168 1.85197 0
M  V30 15772 O 1848.63 -1.23833 1.3242 0
M  V30 15773 C 1848.68 1.76068 3.14694 0
M  V30 15774 O 1847.79 1.03267 3.99261 0
M  V30 15775 H 1847.13 0.389633 0.537663 0
M  V30 15776 H 1849.66 1.64875 1.2115 0
M  V30 15777 H 1849.67 1.81897 3.65209 0
M  V30 15778 H 1848.34 2.8108 3.0654 0
M  V30 15779 H 1846.92 1.05236 3.57743 0
M  V30 15780 N 1849.1 -1.16685 1.05936 0
M  V30 15781 C 1850.52 -1.39122 0.78213 0
M  V30 15782 C 1850.72 -1.9172 -0.620152 0
M  V30 15783 O 1849.78 -2.11366 -1.38132 0
M  V30 15784 C 1851.09 -2.37522 1.84401 0
M  V30 15785 C 1852.64 -2.51214 1.8671 0
M  V30 15786 C 1853.11 -3.52894 2.91942 0
M  V30 15787 N 1854.6 -3.60418 2.90952 0
M  V30 15788 C 1855.34 -4.38873 3.69023 0
M  V30 15789 N 1854.83 -5.20781 4.56902 0
M  V30 15790 N 1856.63 -4.3382 3.57431 0
M  V30 15791 H 1848.78 -0.808781 1.96399 0
M  V30 15792 H 1851.04 -0.418008 0.850866 0
M  V30 15793 H 1850.75 -2.05962 2.85084 0
M  V30 15794 H 1850.62 -3.37123 1.69197 0
M  V30 15795 H 1853.01 -2.8208 0.866875 0
M  V30 15796 H 1853.09 -1.51661 2.05992 0
M  V30 15797 H 1852.73 -3.22765 3.92155 0
M  V30 15798 H 1852.66 -4.52168 2.6991 0
M  V30 15799 H 1855.15 -3.01945 2.27239 0
M  V30 15800 H 1855.47 -5.77848 5.13138 0
M  V30 15801 H 1853.81 -5.20136 4.60959 0
M  V30 15802 H 1857 -3.68888 2.88165 0
M  V30 15803 H 1857.18 -4.94717 4.1852 0
M  V30 15804 N 1850.58 -0.841432 -1.33258 0
M  V30 15805 C 1851.53 -0.274487 -2.29162 0
M  V30 15806 C 1852.5 0.611143 -1.54448 0
M  V30 15807 O 1853.68 0.548868 -1.82735 0
M  V30 15808 C 1850.82 0.542275 -3.40813 0
M  V30 15809 C 1849.94 -0.367664 -4.30433 0
M  V30 15810 C 1849.07 0.460447 -5.29201 0
M  V30 15811 C 1848.11 -0.447722 -6.1046 0
M  V30 15812 N 1847.25 0.342415 -7.01265 0
M  V30 15813 H 1852.09 -1.09762 -2.77049 0
M  V30 15814 H 1849.62 -0.552735 -1.3632 0
M  V30 15815 H 1851.58 1.03132 -4.04252 0
M  V30 15816 H 1850.21 1.33035 -2.94111 0
M  V30 15817 H 1849.26 -0.975032 -3.67692 0
M  V30 15818 H 1850.58 -1.0652 -4.87293 0
M  V30 15819 H 1849.73 1.01321 -5.9818 0
M  V30 15820 H 1848.47 1.19141 -4.72924 0
M  V30 15821 H 1847.47 -1.01248 -5.40397 0
M  V30 15822 H 1848.7 -1.17709 -6.68821 0
M  V30 15823 H 1846.65 1.05671 -6.47433 0
M  V30 15824 H 1846.56 -0.296356 -7.55419 0
M  V30 15825 H 1847.83 0.877331 -7.74547 0
M  V30 15826 N 1852.06 1.4581 -0.598108 0
M  V30 15827 C 1853.01 2.32185 0.138857 0
M  V30 15828 C 1854 1.45406 0.869105 0
M  V30 15829 O 1855.21 1.61945 0.785746 0
M  V30 15830 H 1851.58 0.749302 0.0636431 0
M  V30 15831 H 1853.55 2.92136 -0.608224 0
M  V30 15832 C 1852.3 3.28856 1.12911 0
M  V30 15833 H 1851.63 3.9562 0.576625 0
M  V30 15834 H 1853.07 3.92043 1.61487 0
M  V30 15835 C 1851.52 2.55331 2.1979 0
M  V30 15836 O 1852.05 2.32768 3.27386 0
M  V30 15837 N 1850.26 2.15628 1.94815 0
M  V30 15838 H 1849.81 2.34178 1.07323 0
M  V30 15839 H 1849.77 1.66755 2.66533 0
M  V30 15840 N 1853.54 0.336733 1.53961 0
M  V30 15841 C 1854.95 -0.148599 1.86108 0
M  V30 15842 C 1855.3 -1.50551 1.25812 0
M  V30 15843 O 1854.42 -2.08782 0.569109 0
M  V30 15844 C 1855.02 -0.276413 3.37671 0
M  V30 15845 C 1853.58 -0.705973 3.6972 0
M  V30 15846 C 1852.73 0.164407 2.76812 0
M  V30 15847 H 1855.68 0.556568 1.4862 0
M  V30 15848 H 1855.7 -1.10509 3.64099 0
M  V30 15849 H 1855.21 0.711315 3.81526 0
M  V30 15850 H 1853.31 -1.70297 3.31406 0
M  V30 15851 H 1853.42 -0.500591 4.76478 0
M  V30 15852 H 1851.79 -0.362166 2.52112 0
M  V30 15853 H 1852.57 1.14914 3.23496 0
M  V30 15854 N 1855.02 -1.57465 0.0651956 0
M  V30 15855 C 1855.98 -2.1123 -0.889634 0
M  V30 15856 C 1856.98 -1.03489 -1.23072 0
M  V30 15857 O 1858.17 -1.29505 -1.16508 0
M  V30 15858 C 1855.3 -2.60818 -2.19515 0
M  V30 15859 H 1856.49 -2.96898 -0.423301 0
M  V30 15860 H 1854.05 -1.5522 -0.183417 0
M  V30 15861 H 1854.78 -1.78585 -2.70699 0
M  V30 15862 H 1854.57 -3.39564 -1.96057 0
M  V30 15863 H 1856.06 -3.02513 -2.87881 0
M  V30 15864 N 1856.49 0.20831 -1.56217 0
M  V30 15865 C 1857.91 0.55859 -1.49506 0
M  V30 15866 C 1858.11 1.86504 -0.762784 0
M  V30 15867 O 1857.17 2.50616 -0.307868 0
M  V30 15868 C 1858.48 0.625557 -2.94121 0
M  V30 15869 C 1860.03 0.715289 -3.04717 0
M  V30 15870 C 1860.5 0.813485 -4.50718 0
M  V30 15871 N 1861.99 0.87736 -4.54815 0
M  V30 15872 C 1862.73 0.973279 -5.65079 0
M  V30 15873 N 1862.22 1.03232 -6.85066 0
M  V30 15874 N 1864.02 1.00944 -5.52962 0
M  V30 15875 H 1856.17 -0.648826 -2.02247 0
M  V30 15876 H 1858.43 -0.229425 -0.91982 0
M  V30 15877 H 1858.14 -0.265056 -3.507 0
M  V30 15878 H 1858.01 1.48473 -3.4675 0
M  V30 15879 H 1860.4 1.59634 -2.48196 0
M  V30 15880 H 1860.48 -0.169818 -2.55236 0
M  V30 15881 H 1860.12 -0.0631602 -5.07861 0
M  V30 15882 H 1860.05 1.7142 -4.97918 0
M  V30 15883 H 1862.54 0.841513 -3.68411 0
M  V30 15884 H 1862.86 1.10566 -7.6485 0
M  V30 15885 H 1861.2 1.00122 -6.8775 0
M  V30 15886 H 1864.39 0.960065 -4.58149 0
M  V30 15887 H 1864.57 1.08074 -6.38924 0
M  V30 15888 N 1857.97 1.50255 0.475528 0
M  V30 15889 C 1859.2 1.64771 1.25132 0
M  V30 15890 C 1859.61 0.329253 1.85907 0
M  V30 15891 O 1858.97 -0.688289 1.69023 0
M  V30 15892 C 1859.02 2.73556 2.36325 0
M  V30 15893 O 1858.74 4.0029 1.78043 0
M  V30 15894 C 1860.24 2.99006 3.27277 0
M  V30 15895 H 1857.46 0.553987 0.378602 0
M  V30 15896 H 1860.01 1.9645 0.56811 0
M  V30 15897 H 1858.16 2.44584 3.00429 0
M  V30 15898 H 1858.58 4.60416 2.51232 0
M  V30 15899 H 1860.05 3.78797 4.01518 0
M  V30 15900 H 1860.53 2.09904 3.85794 0
M  V30 15901 H 1861.13 3.29493 2.68914 0
M  V30 15902 N 1859.45 -0.728395 1.39758 0
M  V30 15903 C 1860.69 -1.50065 1.38779 0
M  V30 15904 C 1861.05 -1.91994 -0.0146977 0
M  V30 15905 O 1862.25 -2.68384 -0.149524 0
M  V30 15906 C 1860.53 -2.70258 2.33871 0
M  V30 15907 S 1862.08 -3.59826 2.51139 0
M  V30 15908 H 1858.9 -0.513225 0.492058 0
M  V30 15909 H 1861.5 -0.852912 1.75914 0
M  V30 15910 H 1860.21 -2.37605 3.34622 0
M  V30 15911 H 1859.74 -3.39955 1.97975 0
M  V30 15912 H 1861.75 -4.64157 1.75423 0
M  V30 15913 N 1860.93 -1.25042 -0.959279 0
M  V30 15914 C 1862.34 -1.01764 -1.22948 0
M  V30 15915 C 1862.54 0.268402 -1.99704 0
M  V30 15916 O 1861.6 0.982348 -2.32607 0
M  V30 15917 C 1862.91 -2.23794 -2.0084 0
M  V30 15918 C 1864.46 -2.28507 -2.13901 0
M  V30 15919 C 1864.94 -3.50181 -2.9519 0
M  V30 15920 N 1866.43 -3.50549 -3.0277 0
M  V30 15921 C 1867.16 -4.41357 -3.66049 0
M  V30 15922 N 1866.66 -5.42431 -4.30976 0
M  V30 15923 N 1868.45 -4.29049 -3.63143 0
M  V30 15924 H 1860.6 -2.07672 -0.445667 0
M  V30 15925 H 1862.86 -0.91176 -0.259611 0
M  V30 15926 H 1862.57 -3.17237 -1.51835 0
M  V30 15927 H 1862.44 -2.26592 -3.01556 0
M  V30 15928 H 1864.83 -1.3559 -2.62105 0
M  V30 15929 H 1864.91 -2.29731 -1.12505 0
M  V30 15930 H 1864.56 -4.43417 -2.47677 0
M  V30 15931 H 1864.49 -3.46202 -3.96802 0
M  V30 15932 H 1866.98 -2.77432 -2.56593 0
M  V30 15933 H 1867.29 -6.07941 -4.77104 0
M  V30 15934 H 1865.64 -5.46308 -4.29619 0
M  V30 15935 H 1868.83 -3.49317 -3.11601 0
M  V30 15936 H 1869 -5.00017 -4.12174 0
M  V30 15937 N 1862.41 1.16121 -1.06553 0
M  V30 15938 C 1863.68 1.82752 -0.697202 0
M  V30 15939 C 1864.06 1.94474 0.821172 0
M  V30 15940 O 1863.41 1.48988 1.73248 0
M  V30 15941 C 1863.62 3.19592 -1.4022 0
M  V30 15942 C 1864.97 3.95333 -1.5491 0
M  V30 15943 O 1865.99 3.29119 -1.36232 0
M  V30 15944 O 1864.85 5.14028 -1.85574 0
M  V30 15945 H 1861.95 0.789214 -0.247125 0
M  V30 15946 H 1864.49 1.23302 -1.16597 0
M  V30 15947 H 1863.26 3.06111 -2.43745 0
M  V30 15948 H 1862.89 3.86722 -0.923686 0
M  V30 15949 N 1863.88 0.848487 1.3281 0
M  V30 15950 C 1864.81 0.303885 2.31514 0
M  V30 15951 C 1865.8 -0.593621 1.59406 0
M  V30 15952 O 1866.98 -0.515158 1.87243 0
M  V30 15953 C 1864.11 -0.5138 3.43478 0
M  V30 15954 C 1863.06 0.28874 4.27025 0
M  V30 15955 C 1862.39 -0.653297 5.30694 0
M  V30 15956 C 1863.69 1.51111 4.99963 0
M  V30 15957 H 1865.38 1.12862 2.77313 0
M  V30 15958 H 1862.93 0.544158 1.33323 0
M  V30 15959 H 1864.88 -0.905164 4.11564 0
M  V30 15960 H 1863.61 -1.37184 2.96392 0
M  V30 15961 H 1862.27 0.661782 3.60577 0
M  V30 15962 H 1861.91 -1.50801 4.79863 0
M  V30 15963 H 1861.61 -0.120368 5.87477 0
M  V30 15964 H 1863.14 -1.04197 6.01644 0
M  V30 15965 H 1864.55 1.19237 5.60763 0
M  V30 15966 H 1862.95 1.98152 5.66441 0
M  V30 15967 H 1864.02 2.2757 4.28182 0
M  V30 15968 N 1865.36 -1.4549 0.605832 0
M  V30 15969 C 1866.31 -2.30518 -0.114038 0
M  V30 15970 C 1867.28 -1.42 -0.861703 0
M  V30 15971 O 1868.46 -1.7093 -0.847788 0
M  V30 15972 C 1865.6 -3.26876 -1.10661 0
M  V30 15973 C 1864.72 -4.30497 -0.359999 0
M  V30 15974 C 1863.85 -5.13965 -1.34214 0
M  V30 15975 C 1862.89 -6.09315 -0.58324 0
M  V30 15976 N 1862.03 -6.85569 -1.51457 0
M  V30 15977 H 1866.87 -2.91542 0.617043 0
M  V30 15978 H 1864.41 -1.43664 0.31609 0
M  V30 15979 H 1866.36 -3.81207 -1.69519 0
M  V30 15980 H 1864.99 -2.6761 -1.80512 0
M  V30 15981 H 1864.05 -3.78841 0.344058 0
M  V30 15982 H 1865.36 -4.98259 0.232208 0
M  V30 15983 H 1864.51 -5.72688 -2.00283 0
M  V30 15984 H 1863.25 -4.46218 -1.96828 0
M  V30 15985 H 1862.26 -5.49725 0.0910986 0
M  V30 15986 H 1863.48 -6.79089 0.0378268 0
M  V30 15987 H 1861.43 -6.20512 -2.12839 0
M  V30 15988 H 1861.34 -7.49677 -0.97576 0
M  V30 15989 H 1862.61 -7.48834 -2.1649 0
M  V30 15990 N 1866.84 -0.344893 -1.5378 0
M  V30 15991 C 1867.77 0.55434 -2.21365 0
M  V30 15992 C 1868.75 1.09924 -1.19814 0
M  V30 15993 O 1869.94 1.15926 -1.48639 0
M  V30 15994 C 1867.06 1.76275 -2.89214 0
M  V30 15995 C 1866.11 1.34719 -4.04664 0
M  V30 15996 S 1866.94 0.365855 -5.34249 0
M  V30 15997 C 1868.1 1.58107 -6.05601 0
M  V30 15998 H 1868.33 -0.0197004 -2.97293 0
M  V30 15999 H 1865.86 -0.128969 -1.5386 0
M  V30 16000 H 1867.82 2.45601 -3.28923 0
M  V30 16001 H 1866.48 2.30801 -2.13049 0
M  V30 16002 H 1865.68 2.24821 -4.51078 0
M  V30 16003 H 1865.28 0.733393 -3.66739 0
M  V30 16004 H 1867.57 2.51534 -6.29076 0
M  V30 16005 H 1868.51 1.15869 -6.98556 0
M  V30 16006 H 1868.92 1.77773 -5.35777 0
M  V30 16007 N 1868.32 1.57428 -0.0735454 0
M  V30 16008 C 1869.56 1.95432 0.598802 0
M  V30 16009 C 1869.92 0.953142 1.66671 0
M  V30 16010 O 1871.12 1.2209 2.39473 0
M  V30 16011 C 1869.39 3.38079 1.1592 0
M  V30 16012 S 1870.95 3.98061 1.84643 0
M  V30 16013 H 1867.77 0.683444 0.196022 0
M  V30 16014 H 1870.37 1.9494 -0.147819 0
M  V30 16015 H 1869.08 4.08727 0.370158 0
M  V30 16016 H 1868.61 3.42118 1.94214 0
M  V30 16017 H 1870.62 3.85108 3.129 0
M  V30 16018 N 1869.8 -0.200022 1.56326 0
M  V30 16019 C 1870.75 -1.2519 1.90556 0
M  V30 16020 C 1871.73 -1.41239 0.77074 0
M  V30 16021 O 1872.92 -1.43692 1.03352 0
M  V30 16022 C 1870.05 -2.59777 2.24434 0
M  V30 16023 C 1869.14 -2.47541 3.4436 0
M  V30 16024 N 1869.53 -2.04979 4.62404 0
M  V30 16025 C 1867.83 -2.78447 3.48401 0
M  V30 16026 C 1868.53 -2.04515 5.44562 0
M  V30 16027 N 1867.5 -2.45831 4.84838 0
M  V30 16028 H 1871.31 -0.914073 2.79324 0
M  V30 16029 H 1868.82 -0.408485 1.57179 0
M  V30 16030 H 1870.82 -3.35749 2.4714 0
M  V30 16031 H 1869.48 -2.94387 1.3699 0
M  V30 16032 H 1870.49 -1.75766 4.87162 0
M  V30 16033 H 1867.16 -3.17286 2.71359 0
M  V30 16034 H 1868.55 -1.73551 6.49099 0
M  V30 16035 N 1871.27 -1.50505 -0.467553 0
M  V30 16036 C 1872.5 -1.65708 -1.24722 0
M  V30 16037 C 1872.92 -0.34155 -1.84973 0
M  V30 16038 O 1872.28 0.694993 -1.6745 0
M  V30 16039 C 1872.33 -2.75289 -2.32912 0
M  V30 16040 O 1871.43 -2.36788 -3.37646 0
M  V30 16041 H 1870.78 -0.55351 -0.366774 0
M  V30 16042 H 1873.31 -1.96901 -0.555988 0
M  V30 16043 H 1873.32 -2.98472 -2.7817 0
M  V30 16044 H 1871.99 -3.70765 -1.88431 0
M  V30 16045 H 1870.57 -2.24065 -2.98076 0
M  V30 16046 N 1872.75 0.720973 -1.40142 0
M  V30 16047 C 1874.03 1.47356 -1.28629 0
M  V30 16048 C 1874.41 2.10873 0.0978138 0
M  V30 16049 O 1873.76 1.99717 1.1102 0
M  V30 16050 C 1873.97 2.51364 -2.4211 0
M  V30 16051 C 1875.32 3.17348 -2.82091 0
M  V30 16052 O 1876.34 2.61682 -2.41663 0
M  V30 16053 O 1875.2 4.1811 -3.51918 0
M  V30 16054 H 1872.29 0.655019 -0.504855 0
M  V30 16055 H 1874.84 0.753605 -1.52049 0
M  V30 16056 H 1873.61 2.02907 -3.34581 0
M  V30 16057 H 1873.23 3.30901 -2.20432 0
M  V30 16058 N 1874.23 1.25549 0.952634 0
M  V30 16059 C 1875.48 1.11588 1.70058 0
M  V30 16060 C 1875.83 -0.339332 1.89384 0
M  V30 16061 O 1875.12 -1.24644 1.45515 0
M  V30 16062 C 1875.32 1.80586 3.08421 0
M  V30 16063 C 1875.15 3.32667 3.02593 0
M  V30 16064 C 1873.92 4.01927 3.0624 0
M  V30 16065 C 1876.12 4.29036 2.83607 0
M  V30 16066 N 1874.1 5.40768 2.90591 0
M  V30 16067 C 1875.47 5.54976 2.76409 0
M  V30 16068 C 1877.52 4.19426 2.68302 0
M  V30 16069 C 1876.23 6.72404 2.55471 0
M  V30 16070 C 1878.25 5.36549 2.48735 0
M  V30 16071 C 1877.61 6.6143 2.4226 0
M  V30 16072 H 1873.71 0.463049 0.630166 0
M  V30 16073 H 1876.3 1.58678 1.12825 0
M  V30 16074 H 1874.47 1.35989 3.63815 0
M  V30 16075 H 1876.2 1.59349 3.72008 0
M  V30 16076 H 1872.96 3.53201 3.15509 0
M  V30 16077 H 1873.38 6.13639 2.85965 0
M  V30 16078 H 1878.02 3.23622 2.72081 0
M  V30 16079 H 1875.74 7.68316 2.50433 0
M  V30 16080 H 1879.33 5.30976 2.37815 0
M  V30 16081 H 1878.21 7.50531 2.27317 0
M  V30 16082 N 1875.71 -1.15554 1.07168 0
M  V30 16083 C 1876.66 -2.20234 0.690348 0
M  V30 16084 C 1877.63 -1.6304 -0.317346 0
M  V30 16085 O 1878.81 -1.89704 -0.20422 0
M  V30 16086 C 1875.95 -3.44976 0.0923404 0
M  V30 16087 C 1875.06 -4.16377 1.15128 0
M  V30 16088 C 1874.2 -5.28664 0.518478 0
M  V30 16089 C 1873.24 -5.91878 1.56034 0
M  V30 16090 N 1872.37 -6.9564 0.950251 0
M  V30 16091 H 1877.21 -2.52203 1.58738 0
M  V30 16092 H 1874.75 -1.23863 0.793502 0
M  V30 16093 H 1876.71 -4.16312 -0.271985 0
M  V30 16094 H 1875.34 -3.1353 -0.768054 0
M  V30 16095 H 1874.39 -3.43556 1.63321 0
M  V30 16096 H 1875.7 -4.59472 1.94132 0
M  V30 16097 H 1874.86 -6.06615 0.101683 0
M  V30 16098 H 1873.6 -4.86756 -0.303345 0
M  V30 16099 H 1872.6 -5.12641 1.98694 0
M  V30 16100 H 1873.83 -6.35864 2.38442 0
M  V30 16101 H 1871.77 -6.5583 0.149298 0
M  V30 16102 H 1871.69 -7.37153 1.67755 0
M  V30 16103 H 1872.96 -7.77494 0.558895 0
M  V30 16104 N 1877.19 -0.855519 -1.32358 0
M  V30 16105 C 1878.41 -0.472456 -2.01947 0
M  V30 16106 C 1878.84 0.923482 -1.6387 0
M  V30 16107 O 1878.2 1.60677 -0.839799 0
M  V30 16108 C 1878.24 -0.620081 -3.55229 0
M  V30 16109 O 1877.35 0.34676 -4.1094 0
M  V30 16110 H 1876.69 -0.189756 -0.636309 0
M  V30 16111 H 1879.22 -1.15495 -1.68885 0
M  V30 16112 H 1879.23 -0.507933 -4.04826 0
M  V30 16113 H 1877.9 -1.63802 -3.82285 0
M  V30 16114 H 1876.48 0.190778 -3.72412 0
M  V30 16115 N 1878.67 1.45167 -0.61354 0
M  V30 16116 C 1879.91 2.01796 -0.110844 0
M  V30 16117 C 1880.23 1.48372 1.26534 0
M  V30 16118 O 1879.5 0.680323 1.83707 0
M  V30 16119 H 1878.08 0.746034 -0.0379861 0
M  V30 16120 H 1880.75 1.77892 -0.796279 0
M  V30 16121 H 1879.84 3.12032 -0.0651413 0
M  V30 16122 N 1880.14 0.353044 1.53595 0
M  V30 16123 C 1881.05 -0.507548 2.29044 0
M  V30 16124 C 1882.07 -1.10364 1.34521 0
M  V30 16125 O 1883.25 -1.11728 1.67567 0
M  V30 16126 C 1880.31 -1.63799 3.05566 0
M  V30 16127 C 1879.37 -1.07071 4.15733 0
M  V30 16128 C 1878.6 -2.14728 4.88597 0
M  V30 16129 O 1878.83 -3.35619 4.61211 0
M  V30 16130 O 1877.76 -1.78489 5.74826 0
M  V30 16131 H 1881.59 0.10606 3.03515 0
M  V30 16132 H 1879.17 0.117799 1.48935 0
M  V30 16133 H 1881.05 -2.2955 3.5339 0
M  V30 16134 H 1879.73 -2.23723 2.33944 0
M  V30 16135 H 1878.64 -0.37746 3.72191 0
M  V30 16136 H 1879.97 -0.516205 4.89486 0
M  V30 16137 N 1881.62 -1.57387 0.0818932 0
M  V30 16138 C 1882.85 -1.97913 -0.592784 0
M  V30 16139 C 1883.26 -0.959377 -1.63072 0
M  V30 16140 O 1882.6 0.0610095 -1.83599 0
M  V30 16141 C 1882.66 -3.34778 -1.3101 0
M  V30 16142 C 1882.33 -4.55025 -0.424461 0
M  V30 16143 C 1883.33 -5.18902 0.322059 0
M  V30 16144 C 1881.01 -5.01104 -0.346382 0
M  V30 16145 C 1883 -6.27217 1.13478 0
M  V30 16146 C 1880.69 -6.0929 0.469997 0
M  V30 16147 C 1881.69 -6.7221 1.20924 0
M  V30 16148 O 1881.38 -7.78311 2.01213 0
M  V30 16149 H 1881.11 -0.655646 -0.164633 0
M  V30 16150 H 1883.66 -2.04823 0.153877 0
M  V30 16151 H 1881.89 -3.24513 -2.10305 0
M  V30 16152 H 1883.58 -3.59841 -1.87801 0
M  V30 16153 H 1884.35 -4.8424 0.271391 0
M  V30 16154 H 1880.23 -4.51901 -0.91141 0
M  V30 16155 H 1883.77 -6.7626 1.71227 0
M  V30 16156 H 1879.67 -6.43384 0.522194 0
M  V30 16157 H 1880.44 -7.95237 1.93753 0
M  V30 16158 N 1883.1 0.191729 -1.56429 0
M  V30 16159 C 1884.35 0.908377 -1.81989 0
M  V30 16160 C 1884.7 1.80746 -0.659444 0
M  V30 16161 O 1883.99 1.88464 0.345209 0
M  V30 16162 C 1884.19 1.75708 -3.11226 0
M  V30 16163 C 1884.02 0.941655 -4.39731 0
M  V30 16164 C 1882.79 0.624755 -5.01423 0
M  V30 16165 C 1884.98 0.292774 -5.13466 0
M  V30 16166 N 1882.97 -0.208946 -6.13544 0
M  V30 16167 C 1884.34 -0.402979 -6.18689 0
M  V30 16168 C 1886.39 0.208846 -4.97462 0
M  V30 16169 C 1885.1 -1.17467 -7.09644 0
M  V30 16170 C 1887.12 -0.549459 -5.88842 0
M  V30 16171 C 1886.48 -1.23365 -6.93513 0
M  V30 16172 H 1882.58 0.311682 -0.717202 0
M  V30 16173 H 1885.17 0.17685 -1.93895 0
M  V30 16174 H 1883.34 2.46018 -3.00549 0
M  V30 16175 H 1885.07 2.41346 -3.2486 0
M  V30 16176 H 1881.82 0.949982 -4.63974 0
M  V30 16177 H 1882.25 -0.615506 -6.74196 0
M  V30 16178 H 1886.89 0.723459 -4.16564 0
M  V30 16179 H 1884.61 -1.7007 -7.90001 0
M  V30 16180 H 1888.19 -0.615799 -5.78532 0
M  V30 16181 H 1887.07 -1.81102 -7.63002 0
M  V30 16182 N 1884.58 1.50751 0.459565 0
M  V30 16183 C 1885.83 1.61553 1.20762 0
M  V30 16184 C 1886.14 0.326862 1.9285 0
M  V30 16185 O 1887.35 0.313951 2.69679 0
M  V30 16186 C 1885.8 2.8522 2.19494 0
M  V30 16187 C 1885.41 4.21008 1.53156 0
M  V30 16188 C 1887.15 3.05373 2.94869 0
M  V30 16189 C 1885.06 5.35848 2.50241 0
M  V30 16190 H 1883.99 0.601658 0.454448 0
M  V30 16191 H 1886.64 1.77195 0.476886 0
M  V30 16192 H 1885.02 2.63163 2.95908 0
M  V30 16193 H 1886.2 4.53363 0.824521 0
M  V30 16194 H 1884.51 4.06554 0.900178 0
M  V30 16195 H 1887.11 3.88342 3.67552 0
M  V30 16196 H 1887.45 2.17557 3.54929 0
M  V30 16197 H 1887.99 3.27665 2.25566 0
M  V30 16198 H 1884.72 6.25854 1.94904 0
M  V30 16199 H 1884.24 5.07896 3.19063 0
M  V30 16200 H 1885.92 5.66894 3.11834 0
M  V30 16201 N 1886.06 -0.713531 1.40522 0
M  V30 16202 C 1887.33 -1.46672 1.29409 0
M  V30 16203 C 1887.71 -2.10922 -0.0866293 0
M  V30 16204 O 1887.06 -2.00303 -1.09959 0
M  V30 16205 C 1887.27 -2.50076 2.4344 0
M  V30 16206 C 1888.62 -3.15848 2.8377 0
M  V30 16207 O 1889.64 -2.60396 2.43048 0
M  V30 16208 O 1888.5 -4.16238 3.5413 0
M  V30 16209 H 1885.6 -0.652333 0.508322 0
M  V30 16210 H 1888.14 -0.745531 1.52446 0
M  V30 16211 H 1886.91 -2.01129 3.35653 0
M  V30 16212 H 1886.54 -3.29728 2.22183 0
M  V30 16213 N 1887.53 -1.26053 -0.945962 0
M  V30 16214 C 1888.94 -1.10296 -1.50638 0
M  V30 16215 C 1889.3 0.318377 -1.936 0
M  V30 16216 O 1888.42 1.20934 -1.79454 0
M  V30 16217 C 1889.02 -1.99604 -2.73758 0
M  V30 16218 C 1887.57 -1.88007 -3.26083 0
M  V30 16219 C 1886.72 -1.93239 -1.98882 0
M  V30 16220 H 1889.67 -1.39212 -0.761946 0
M  V30 16221 H 1889.69 -1.54113 -3.47893 0
M  V30 16222 H 1889.21 -3.03044 -2.42459 0
M  V30 16223 H 1887.31 -0.874846 -3.62184 0
M  V30 16224 H 1887.42 -2.73285 -3.93513 0
M  V30 16225 H 1885.78 -1.37231 -2.14568 0
M  V30 16226 H 1886.57 -2.98299 -1.6992 0
M  V30 16227 N 1889.01 1.14984 -1.07779 0
M  V30 16228 C 1889.96 2.2193 -0.696405 0
M  V30 16229 C 1890.95 1.66815 0.294832 0
M  V30 16230 O 1892.16 1.79305 0.158081 0
M  V30 16231 H 1888.53 0.722908 -0.207143 0
M  V30 16232 H 1890.51 2.51374 -1.60791 0
M  V30 16233 C 1889.25 3.4751 -0.114943 0
M  V30 16234 H 1888.58 3.90245 -0.86883 0
M  V30 16235 H 1890.02 4.23846 0.114195 0
M  V30 16236 C 1888.48 3.16827 1.14552 0
M  V30 16237 O 1889.01 3.34026 2.23135 0
M  V30 16238 N 1887.21 2.70836 1.05339 0
M  V30 16239 H 1886.76 2.5704 0.169728 0
M  V30 16240 H 1886.72 2.50681 1.89754 0
M  V30 16241 N 1890.49 0.862526 1.31902 0
M  V30 16242 C 1891.42 0.270103 2.27603 0
M  V30 16243 C 1892.43 -0.562639 1.52768 0
M  V30 16244 O 1893.62 -0.385845 1.7428 0
M  V30 16245 C 1890.72 -0.636314 3.32873 0
M  V30 16246 C 1889.9 0.162327 4.37099 0
M  V30 16247 C 1888.96 -0.67107 5.21903 0
M  V30 16248 O 1887.98 -0.101765 5.69109 0
M  V30 16249 N 1889.18 -1.98441 5.45529 0
M  V30 16250 H 1891.95 1.09248 2.79079 0
M  V30 16251 H 1889.51 0.723275 1.44846 0
M  V30 16252 H 1891.5 -1.19937 3.86519 0
M  V30 16253 H 1890.07 -1.35936 2.81496 0
M  V30 16254 H 1889.29 0.906824 3.83628 0
M  V30 16255 H 1890.58 0.710602 5.03813 0
M  V30 16256 H 1889.98 -2.47017 5.0892 0
M  V30 16257 H 1888.53 -2.49542 6.0214 0
M  V30 16258 N 1891.97 -1.4484 0.62123 0
M  V30 16259 C 1893.22 -2.01734 0.121544 0
M  V30 16260 C 1893.54 -1.49041 -1.25745 0
M  V30 16261 O 1892.81 -0.690056 -1.83344 0
M  V30 16262 H 1891.39 -0.745822 0.0419419 0
M  V30 16263 H 1894.05 -1.77467 0.805702 0
M  V30 16264 H 1893.15 -3.11993 0.0816882 0
M  V30 16265 N 1893.45 -0.361184 -1.53405 0
M  V30 16266 C 1894.69 0.230007 -2.03102 0
M  V30 16267 C 1895.05 1.4635 -1.2428 0
M  V30 16268 O 1896.25 2.13003 -1.63961 0
M  V30 16269 C 1894.52 0.519128 -3.5361 0
M  V30 16270 S 1896.08 1.08462 -4.25184 0
M  V30 16271 H 1892.9 0.0672785 -0.70781 0
M  V30 16272 H 1895.5 -0.503033 -1.88918 0
M  V30 16273 H 1894.21 -0.38616 -4.08579 0
M  V30 16274 H 1893.74 1.28136 -3.71947 0
M  V30 16275 H 1895.75 2.36918 -4.35987 0
M  V30 16276 N 1894.92 1.57341 -0.0902386 0
M  V30 16277 C 1895.87 2.14982 0.887997 0
M  V30 16278 C 1896.87 1.09142 1.29555 0
M  V30 16279 O 1898.07 1.27494 1.27064 0
M  V30 16280 H 1894.45 0.687648 0.304376 0
M  V30 16281 H 1896.42 2.96008 0.377094 0
M  V30 16282 C 1895.17 2.74101 2.13925 0
M  V30 16283 H 1894.49 3.55226 1.83452 0
M  V30 16284 H 1895.93 3.18007 2.80442 0
M  V30 16285 C 1894.39 1.69757 2.91005 0
M  V30 16286 O 1894.92 1.13359 3.85373 0
M  V30 16287 N 1893.13 1.40362 2.54454 0
M  V30 16288 H 1892.67 1.86414 1.77785 0
M  V30 16289 H 1892.63 0.707837 3.06328 0
M  V30 16290 N 1896.4 -0.183431 1.56529 0
M  V30 16291 C 1897.33 -1.22973 1.98494 0
M  V30 16292 C 1898.31 -1.46837 0.858653 0
M  V30 16293 O 1899.5 -1.58377 1.12385 0
M  V30 16294 C 1896.63 -2.57138 2.33446 0
M  V30 16295 C 1895.58 -2.47865 3.48922 0
M  V30 16296 C 1894.91 -3.8641 3.69582 0
M  V30 16297 C 1896.21 -1.99371 4.82751 0
M  V30 16298 H 1897.9 -0.880938 2.86147 0
M  V30 16299 H 1895.45 -0.422321 1.37668 0
M  V30 16300 H 1897.4 -3.30527 2.614 0
M  V30 16301 H 1896.13 -2.93781 1.42689 0
M  V30 16302 H 1894.78 -1.76932 3.21077 0
M  V30 16303 H 1894.43 -4.20426 2.76136 0
M  V30 16304 H 1894.13 -3.81077 4.47274 0
M  V30 16305 H 1895.66 -4.61403 3.99924 0
M  V30 16306 H 1897.07 -2.62526 5.0966 0
M  V30 16307 H 1895.47 -2.05014 5.63994 0
M  V30 16308 H 1896.54 -0.947442 4.75554 0
M  V30 16309 N 1897.88 -1.50992 -0.451564 0
M  V30 16310 C 1899.16 -1.53486 -1.2125 0
M  V30 16311 C 1899.54 -0.290809 -2.09087 0
M  V30 16312 O 1898.89 0.724859 -2.16698 0
M  V30 16313 C 1899.1 -2.84125 -2.02667 0
M  V30 16314 C 1900.44 -3.35535 -2.60195 0
M  V30 16315 O 1901.47 -2.85579 -2.12892 0
M  V30 16316 O 1900.33 -4.22667 -3.46432 0
M  V30 16317 H 1897.42 -0.616481 -0.551253 0
M  V30 16318 H 1899.97 -1.63296 -0.461792 0
M  V30 16319 H 1898.74 -3.66134 -1.38064 0
M  V30 16320 H 1898.36 -2.7741 -2.84832 0
M  V30 16321 N 1899.36 0.706069 -1.40899 0
M  V30 16322 C 1900.32 1.80184 -1.41656 0
M  V30 16323 C 1901.32 1.57807 -0.308823 0
M  V30 16324 O 1902.51 1.64673 -0.568197 0
M  V30 16325 C 1899.64 3.18412 -1.21765 0
M  V30 16326 H 1900.84 1.80908 -2.39191 0
M  V30 16327 H 1898.39 0.912658 -1.26887 0
M  V30 16328 H 1899.12 3.23333 -0.250288 0
M  V30 16329 H 1898.91 3.36054 -2.02015 0
M  V30 16330 H 1900.4 3.9842 -1.25106 0
M  V30 16331 N 1900.84 1.26553 0.939264 0
M  V30 16332 C 1902.09 1.11599 1.68014 0
M  V30 16333 C 1902.4 -0.339956 1.92623 0
M  V30 16334 O 1903.6 -0.610203 2.64554 0
M  V30 16335 C 1902.06 1.94913 3.02551 0
M  V30 16336 C 1901.67 3.45094 2.85682 0
M  V30 16337 C 1903.41 1.88574 3.80316 0
M  V30 16338 C 1901.32 4.20648 4.15703 0
M  V30 16339 H 1900.25 0.414037 0.630151 0
M  V30 16340 H 1902.9 1.50878 1.04441 0
M  V30 16341 H 1901.28 1.48469 3.67115 0
M  V30 16342 H 1902.46 3.99321 2.29956 0
M  V30 16343 H 1900.77 3.5269 2.21357 0
M  V30 16344 H 1903.37 2.42307 4.76646 0
M  V30 16345 H 1903.71 0.856867 4.07386 0
M  V30 16346 H 1904.24 2.32852 3.22529 0
M  V30 16347 H 1900.98 5.24013 3.93816 0
M  V30 16348 H 1900.5 3.71202 4.71136 0
M  V30 16349 H 1902.18 4.29199 4.84146 0
M  V30 16350 N 1902.31 -1.14411 1.08387 0
M  V30 16351 C 1903.26 -2.19489 0.713668 0
M  V30 16352 C 1904.23 -1.63368 -0.300036 0
M  V30 16353 O 1905.42 -1.8991 -0.184088 0
M  V30 16354 C 1902.56 -3.44859 0.128925 0
M  V30 16355 C 1901.67 -4.15132 1.19538 0
M  V30 16356 C 1900.8 -5.28084 0.574521 0
M  V30 16357 C 1899.84 -5.9019 1.62303 0
M  V30 16358 N 1898.98 -6.94593 1.02398 0
M  V30 16359 H 1903.82 -2.50505 1.61404 0
M  V30 16360 H 1901.36 -1.23014 0.806595 0
M  V30 16361 H 1903.32 -4.16578 -0.227814 0
M  V30 16362 H 1901.95 -3.14327 -0.734757 0
M  V30 16363 H 1901 -3.41804 1.66955 0
M  V30 16364 H 1902.31 -4.57387 1.98994 0
M  V30 16365 H 1901.46 -6.06473 0.166017 0
M  V30 16366 H 1900.2 -4.8705 -0.251701 0
M  V30 16367 H 1899.21 -5.10505 2.0412 0
M  V30 16368 H 1900.43 -6.33299 2.45172 0
M  V30 16369 H 1898.38 -6.55635 0.218849 0
M  V30 16370 H 1898.3 -7.35332 1.75564 0
M  V30 16371 H 1899.56 -7.76857 0.641327 0
M  V30 16372 N 1903.79 -0.869509 -1.31443 0
M  V30 16373 C 1905.04 -0.480925 -1.97015 0
M  V30 16374 C 1905.37 0.964227 -1.68571 0
M  V30 16375 O 1904.65 1.67893 -0.981953 0
M  V30 16376 C 1904.93 -0.738064 -3.52455 0
M  V30 16377 C 1904.78 -2.23272 -3.90474 0
M  V30 16378 C 1906.1 -0.204237 -4.39626 0
M  V30 16379 H 1903.22 -0.176206 -0.715626 0
M  V30 16380 H 1905.86 -1.09066 -1.55578 0
M  V30 16381 H 1904.01 -0.21909 -3.87882 0
M  V30 16382 H 1905.68 -2.81891 -3.65151 0
M  V30 16383 H 1903.93 -2.70546 -3.39098 0
M  V30 16384 H 1904.6 -2.36328 -4.98852 0
M  V30 16385 H 1907.07 -0.648228 -4.1102 0
M  V30 16386 H 1905.95 -0.413608 -5.47339 0
M  V30 16387 H 1906.21 0.893807 -4.32971 0
M  V30 16388 N 1905.27 1.44508 -0.628902 0
M  V30 16389 C 1906.52 2.02066 -0.132502 0
M  V30 16390 C 1906.85 1.49446 1.24483 0
M  V30 16391 O 1906.1 0.667881 1.83951 0
M  V30 16392 C 1906.4 3.57339 -0.0660437 0
M  V30 16393 C 1906.07 4.29203 -1.38186 0
M  V30 16394 C 1904.73 4.48552 -1.74225 0
M  V30 16395 C 1907.08 4.70108 -2.25051 0
M  V30 16396 C 1904.41 5.06066 -2.96839 0
M  V30 16397 C 1906.76 5.2898 -3.46934 0
M  V30 16398 C 1905.42 5.46549 -3.83198 0
M  V30 16399 H 1904.69 0.739412 -0.048486 0
M  V30 16400 H 1907.34 1.73302 -0.814773 0
M  V30 16401 H 1905.65 3.85504 0.699588 0
M  V30 16402 H 1907.34 3.99602 0.334526 0
M  V30 16403 H 1903.93 4.14471 -1.09141 0
M  V30 16404 H 1908.12 4.54874 -1.98503 0
M  V30 16405 H 1903.37 5.17856 -3.25016 0
M  V30 16406 H 1907.55 5.59626 -4.14478 0
M  V30 16407 H 1905.17 5.90881 -4.78292 0
M  V30 16408 N 1906.75 0.369315 1.53212 0
M  V30 16409 C 1907.99 -0.219233 2.03221 0
M  V30 16410 C 1908.35 -1.45689 1.25055 0
M  V30 16411 O 1909.55 -2.1213 1.65089 0
M  V30 16412 C 1907.83 -0.500368 3.5388 0
M  V30 16413 S 1909.38 -1.06205 4.25753 0
M  V30 16414 H 1906.2 -0.0635239 0.708157 0
M  V30 16415 H 1908.8 0.513044 1.88648 0
M  V30 16416 H 1907.51 0.407823 4.08369 0
M  V30 16417 H 1907.04 -1.26162 3.72622 0
M  V30 16418 H 1909.05 -2.34602 4.37237 0
M  V30 16419 N 1908.23 -1.57291 0.0985816 0
M  V30 16420 C 1909.18 -2.1545 -0.876584 0
M  V30 16421 C 1910.17 -1.09827 -1.28974 0
M  V30 16422 O 1911.38 -1.28166 -1.26386 0
M  V30 16423 H 1907.75 -0.689252 -0.300725 0
M  V30 16424 H 1909.72 -2.96204 -0.36139 0
M  V30 16425 C 1908.47 -2.75232 -2.12468 0
M  V30 16426 H 1907.79 -3.56194 -1.81565 0
M  V30 16427 H 1909.23 -3.19489 -2.78752 0
M  V30 16428 C 1907.69 -1.71298 -2.90101 0
M  V30 16429 O 1908.22 -1.15402 -3.84767 0
M  V30 16430 N 1906.43 -1.41709 -2.53706 0
M  V30 16431 H 1905.98 -1.87354 -1.76794 0
M  V30 16432 H 1905.93 -0.724072 -3.05949 0
M  V30 16433 N 1909.71 0.175127 -1.56624 0
M  V30 16434 C 1910.64 1.24553 -1.91211 0
M  V30 16435 C 1911.62 1.42971 -0.774469 0
M  V30 16436 O 1912.8 1.58039 -1.02741 0
M  V30 16437 C 1909.93 2.60909 -2.15972 0
M  V30 16438 C 1908.97 2.59248 -3.38663 0
M  V30 16439 S 1909.81 2.08707 -4.93155 0
M  V30 16440 C 1910.96 3.46847 -5.21006 0
M  V30 16441 H 1911.2 0.950294 -2.81703 0
M  V30 16442 H 1908.73 0.379524 -1.49663 0
M  V30 16443 H 1910.69 3.39391 -2.30919 0
M  V30 16444 H 1909.35 2.87635 -1.26195 0
M  V30 16445 H 1908.54 3.59558 -3.53177 0
M  V30 16446 H 1908.14 1.8886 -3.22812 0
M  V30 16447 H 1910.43 4.42824 -5.1275 0
M  V30 16448 H 1911.38 3.37211 -6.22651 0
M  V30 16449 H 1911.79 3.42683 -4.48585 0
M  V30 16450 N 1911.18 1.5123 0.44355 0
M  V30 16451 C 1912.09 1.74928 1.56324 0
M  V30 16452 C 1913.11 0.633267 1.62067 0
M  V30 16453 O 1914.29 0.914808 1.79425 0
M  V30 16454 C 1911.35 1.86361 2.92354 0
M  V30 16455 C 1910.41 3.10196 2.96778 0
M  V30 16456 C 1909.64 3.21073 4.26319 0
M  V30 16457 O 1909.87 2.38043 5.18355 0
M  V30 16458 O 1908.8 4.14008 4.369 0
M  V30 16459 H 1912.63 2.69898 1.39243 0
M  V30 16460 H 1910.21 1.35656 0.62592 0
M  V30 16461 H 1912.09 1.95901 3.73096 0
M  V30 16462 H 1910.77 0.945775 3.09575 0
M  V30 16463 H 1909.68 3.06138 2.15013 0
M  V30 16464 H 1911.01 4.01648 2.84499 0
M  V30 16465 N 1912.66 -0.698586 1.41271 0
M  V30 16466 C 1913.89 -1.48743 1.43816 0
M  V30 16467 C 1914.3 -1.88752 0.0425858 0
M  V30 16468 O 1913.66 -1.56584 -0.937425 0
M  V30 16469 C 1913.71 -2.75192 2.34418 0
M  V30 16470 O 1913.43 -2.36869 3.68544 0
M  V30 16471 C 1914.93 -3.68957 2.45735 0
M  V30 16472 H 1912.15 -0.458477 0.489938 0
M  V30 16473 H 1914.7 -0.860372 1.85521 0
M  V30 16474 H 1912.85 -3.34142 1.9603 0
M  V30 16475 H 1913.27 -3.18354 4.16834 0
M  V30 16476 H 1914.74 -4.54473 3.13302 0
M  V30 16477 H 1915.22 -4.13237 1.48767 0
M  V30 16478 H 1915.82 -3.15912 2.84745 0
M  V30 16479 N 1914.14 -1.27049 -0.93254 0
M  V30 16480 C 1915.39 -1.12879 -1.67639 0
M  V30 16481 C 1915.71 0.326803 -1.92242 0
M  V30 16482 O 1914.98 1.22934 -1.52525 0
M  V30 16483 H 1913.56 -0.414741 -0.621288 0
M  V30 16484 H 1916.22 -1.59505 -1.12 0
M  V30 16485 H 1915.32 -1.65417 -2.64658 0
M  V30 16486 N 1915.62 1.13835 -1.08993 0
M  V30 16487 C 1916.53 2.22715 -0.73724 0
M  V30 16488 C 1917.54 1.72064 0.258869 0
M  V30 16489 O 1918.72 2.01145 0.101321 0
M  V30 16490 C 1915.78 3.46338 -0.158285 0
M  V30 16491 C 1914.85 4.11902 -1.20977 0
M  V30 16492 C 1914.08 5.29624 -0.658349 0
M  V30 16493 O 1914.3 5.68023 0.520219 0
M  V30 16494 O 1913.24 5.85121 -1.41126 0
M  V30 16495 H 1917.06 2.55247 -1.64568 0
M  V30 16496 H 1914.65 1.21882 -0.864013 0
M  V30 16497 H 1916.53 4.2109 0.161481 0
M  V30 16498 H 1915.2 3.15517 0.723235 0
M  V30 16499 H 1914.11 3.38996 -1.58216 0
M  V30 16500 H 1915.44 4.46843 -2.06378 0
M  V30 16501 N 1917.1 0.876467 1.3098 0
M  V30 16502 C 1918.32 0.505315 2.00634 0
M  V30 16503 C 1918.74 -0.903951 1.65753 0
M  V30 16504 O 1918.1 -1.59318 0.890164 0
M  V30 16505 C 1918.15 0.660442 3.55416 0
M  V30 16506 O 1917.87 2.01422 3.89051 0
M  V30 16507 C 1919.37 0.291158 4.42343 0
M  V30 16508 H 1916.59 0.196195 0.641676 0
M  V30 16509 H 1919.13 1.17942 1.67062 0
M  V30 16510 H 1917.29 0.0338076 3.87385 0
M  V30 16511 H 1917.7 2.02668 4.83762 0
M  V30 16512 H 1919.18 0.450631 5.50158 0
M  V30 16513 H 1919.65 -0.770188 4.32394 0
M  V30 16514 H 1920.26 0.893762 4.15803 0
M  V30 16515 N 1918.57 -1.44173 0.636557 0
M  V30 16516 C 1919.81 -2.03874 0.146599 0
M  V30 16517 C 1920.18 -1.49026 -1.21059 0
M  V30 16518 O 1921.38 -2.00264 -1.79298 0
M  V30 16519 C 1919.65 -3.57131 0.138577 0
M  V30 16520 S 1921.21 -4.37867 -0.285968 0
M  V30 16521 H 1918.03 -0.708136 0.0637502 0
M  V30 16522 H 1920.63 -1.76479 0.841163 0
M  V30 16523 H 1919.33 -3.94555 1.12936 0
M  V30 16524 H 1918.86 -3.89145 -0.577061 0
M  V30 16525 H 1920.88 -4.72059 -1.52889 0
M  V30 16526 N 1920.05 -0.377435 -1.53014 0
M  V30 16527 C 1921.3 0.208838 -2.01722 0
M  V30 16528 C 1921.63 1.47446 -1.26385 0
M  V30 16529 O 1920.91 1.91122 -0.360903 0
M  V30 16530 C 1921.19 0.4888 -3.56767 0
M  V30 16531 C 1921.04 -0.791285 -4.42785 0
M  V30 16532 C 1922.36 1.28443 -4.2094 0
M  V30 16533 H 1919.48 0.0744281 -0.733232 0
M  V30 16534 H 1922.12 -0.504664 -1.83175 0
M  V30 16535 H 1920.27 1.09662 -3.72702 0
M  V30 16536 H 1921.94 -1.42848 -4.38625 0
M  V30 16537 H 1920.19 -1.40914 -4.10275 0
M  V30 16538 H 1920.86 -0.550199 -5.49251 0
M  V30 16539 H 1923.33 0.770147 -4.08911 0
M  V30 16540 H 1922.21 1.44906 -5.29427 0
M  V30 16541 H 1922.47 2.29631 -3.77786 0
M  V30 16542 N 1921.53 1.57237 -0.106922 0
M  V30 16543 C 1922.76 1.98831 0.561223 0
M  V30 16544 C 1923.17 0.985199 1.61525 0
M  V30 16545 O 1922.51 -0.0317928 1.83672 0
M  V30 16546 C 1922.57 3.3682 1.25668 0
M  V30 16547 C 1922.24 4.55642 0.352017 0
M  V30 16548 C 1923.23 5.18323 -0.404571 0
M  V30 16549 C 1920.92 5.01592 0.266617 0
M  V30 16550 C 1922.91 6.25333 -1.23442 0
M  V30 16551 C 1920.6 6.08465 -0.566871 0
M  V30 16552 C 1921.6 6.70201 -1.31603 0
M  V30 16553 O 1921.29 7.75012 -2.1357 0
M  V30 16554 H 1921.02 0.658182 0.154181 0
M  V30 16555 H 1923.57 2.04552 -0.186443 0
M  V30 16556 H 1921.8 3.27817 2.05116 0
M  V30 16557 H 1923.49 3.62783 1.82053 0
M  V30 16558 H 1924.26 4.83747 -0.348395 0
M  V30 16559 H 1920.14 4.53294 0.839401 0
M  V30 16560 H 1923.68 6.7345 -1.81964 0
M  V30 16561 H 1919.58 6.42472 -0.624485 0
M  V30 16562 H 1920.35 7.92054 -2.0638 0
M  V30 16563 N 1923.01 -0.166818 1.56715 0
M  V30 16564 C 1924.42 -0.728845 1.71886 0
M  V30 16565 C 1924.77 -1.82584 0.718168 0
M  V30 16566 O 1923.9 -2.1607 -0.119503 0
M  V30 16567 C 1924.49 -1.32885 3.11652 0
M  V30 16568 C 1923.05 -1.83766 3.28492 0
M  V30 16569 C 1922.2 -0.718371 2.67833 0
M  V30 16570 H 1925.15 0.0586298 1.58592 0
M  V30 16571 H 1925.17 -2.19858 3.10552 0
M  V30 16572 H 1924.68 -0.530219 3.84461 0
M  V30 16573 H 1922.78 -2.66259 2.60647 0
M  V30 16574 H 1922.89 -1.98 4.36271 0
M  V30 16575 H 1921.26 -1.13996 2.27765 0
M  V30 16576 H 1922.04 0.0684914 3.43232 0
M  V30 16577 N 1924.49 -1.51463 -0.435524 0
M  V30 16578 C 1925.71 -1.68031 -1.20719 0
M  V30 16579 C 1926.13 -0.378427 -1.84969 0
M  V30 16580 O 1925.49 0.643234 -1.70789 0
M  V30 16581 C 1925.54 -2.79726 -2.28989 0
M  V30 16582 O 1925.26 -4.0487 -1.67367 0
M  V30 16583 C 1926.76 -3.07578 -3.19234 0
M  V30 16584 H 1923.98 -0.56383 -0.363781 0
M  V30 16585 H 1926.52 -1.97888 -0.515825 0
M  V30 16586 H 1924.68 -2.52463 -2.93839 0
M  V30 16587 H 1925.09 -4.66915 -2.38937 0
M  V30 16588 H 1926.57 -3.89309 -3.91334 0
M  V30 16589 H 1927.04 -2.20059 -3.80093 0
M  V30 16590 H 1927.65 -3.36507 -2.60083 0
M  V30 16591 N 1925.96 0.691085 -1.4164 0
M  V30 16592 C 1926.9 1.81646 -1.39776 0
M  V30 16593 C 1927.91 1.60026 -0.299243 0
M  V30 16594 O 1929.1 1.69446 -0.561266 0
M  V30 16595 C 1926.2 3.18486 -1.15845 0
M  V30 16596 C 1925.37 3.67096 -2.37822 0
M  V30 16597 C 1924.43 4.82618 -2.09681 0
M  V30 16598 O 1923.46 4.94002 -2.82756 0
M  V30 16599 N 1924.66 5.70178 -1.08983 0
M  V30 16600 H 1927.42 1.83736 -2.36773 0
M  V30 16601 H 1924.98 0.873576 -1.36309 0
M  V30 16602 H 1926.98 3.934 -0.949639 0
M  V30 16603 H 1925.55 3.11394 -0.274301 0
M  V30 16604 H 1924.77 2.83038 -2.74377 0
M  V30 16605 H 1926.05 3.96312 -3.19083 0
M  V30 16606 H 1925.45 5.63616 -0.48512 0
M  V30 16607 H 1924.01 6.44973 -0.940906 0
M  V30 16608 N 1927.44 1.27542 0.925789 0
M  V30 16609 C 1928.85 1.12679 1.48864 0
M  V30 16610 C 1929.2 -0.287536 1.94082 0
M  V30 16611 O 1928.33 -1.18064 1.81356 0
M  V30 16612 C 1928.92 2.03934 2.70548 0
M  V30 16613 C 1927.48 1.93171 3.23051 0
M  V30 16614 C 1926.63 1.96378 1.95783 0
M  V30 16615 H 1929.58 1.40407 0.739703 0
M  V30 16616 H 1929.6 1.59628 3.45397 0
M  V30 16617 H 1929.11 3.06863 2.37607 0
M  V30 16618 H 1927.22 0.932356 3.60746 0
M  V30 16619 H 1927.33 2.7951 3.89115 0
M  V30 16620 H 1925.69 1.40628 2.12358 0
M  V30 16621 H 1926.48 3.00964 1.65153 0
M  V30 16622 N 1928.92 -1.13255 1.09595 0
M  V30 16623 C 1930.15 -1.88952 0.855104 0
M  V30 16624 C 1930.57 -1.78668 -0.588174 0
M  V30 16625 O 1929.93 -1.13544 -1.41341 0
M  V30 16626 C 1929.98 -3.36461 1.29717 0
M  V30 16627 O 1929.08 -4.09863 0.456717 0
M  V30 16628 H 1928.42 -0.587432 0.309547 0
M  V30 16629 H 1930.95 -1.43282 1.46053 0
M  V30 16630 H 1930.96 -3.87291 1.28333 0
M  V30 16631 H 1929.64 -3.43263 2.34826 0
M  V30 16632 H 1928.21 -3.69042 0.535026 0
M  V30 16633 N 1930.4 -0.883401 -1.30514 0
M  V30 16634 C 1931.64 -0.501795 -1.96494 0
M  V30 16635 C 1931.98 0.946294 -1.69585 0
M  V30 16636 O 1931.25 1.66842 -0.999705 0
M  V30 16637 C 1931.54 -0.775405 -3.51653 0
M  V30 16638 C 1931.39 -2.27401 -3.88084 0
M  V30 16639 C 1932.71 -0.250854 -4.39384 0
M  V30 16640 H 1929.83 -0.183786 -0.713717 0
M  V30 16641 H 1932.47 -1.1071 -1.54412 0
M  V30 16642 H 1930.62 -0.260217 -3.87628 0
M  V30 16643 H 1932.29 -2.85748 -3.62141 0
M  V30 16644 H 1930.53 -2.74128 -3.36209 0
M  V30 16645 H 1931.2 -2.41606 -4.96317 0
M  V30 16646 H 1933.68 -0.691785 -4.10309 0
M  V30 16647 H 1932.56 -0.471637 -5.4687 0
M  V30 16648 H 1932.82 0.847835 -4.33894 0
M  V30 16649 N 1931.88 1.43833 -0.644194 0
M  V30 16650 C 1932.84 2.29159 0.0433471 0
M  V30 16651 C 1933.84 1.41734 0.75948 0
M  V30 16652 O 1935.03 1.63464 0.602093 0
M  V30 16653 C 1932.16 3.23604 1.07208 0
M  V30 16654 H 1933.35 2.9144 -0.707295 0
M  V30 16655 H 1930.91 1.50963 -0.404968 0
M  V30 16656 H 1931.64 2.66199 1.85226 0
M  V30 16657 H 1931.43 3.88047 0.562339 0
M  V30 16658 H 1932.92 3.87669 1.55251 0
M  V30 16659 N 1933.35 0.385544 1.52811 0
M  V30 16660 C 1934.29 -0.486433 2.23979 0
M  V30 16661 C 1935.3 -1.02981 1.2609 0
M  V30 16662 O 1936.49 -0.932779 1.52189 0
M  V30 16663 C 1933.59 -1.68645 2.93959 0
M  V30 16664 C 1932.76 -1.2711 4.18523 0
M  V30 16665 C 1931.82 -2.33538 4.71536 0
M  V30 16666 O 1930.85 -1.95101 5.34719 0
M  V30 16667 N 1932.05 -3.65401 4.51068 0
M  V30 16668 H 1934.81 0.12327 2.99446 0
M  V30 16669 H 1932.37 0.211712 1.6051 0
M  V30 16670 H 1934.37 -2.3936 3.26326 0
M  V30 16671 H 1932.94 -2.20257 2.21823 0
M  V30 16672 H 1932.16 -0.392983 3.92236 0
M  V30 16673 H 1933.44 -0.970192 4.99464 0
M  V30 16674 H 1932.84 -3.99393 4.00626 0
M  V30 16675 H 1931.4 -4.32162 4.87934 0
M  V30 16676 N 1934.83 -1.57178 0.115259 0
M  V30 16677 C 1935.78 -2.15114 -0.836331 0
M  V30 16678 C 1936.75 -1.07511 -1.26612 0
M  V30 16679 O 1937.93 -1.354 -1.3443 0
M  V30 16680 C 1935.07 -2.75187 -2.08245 0
M  V30 16681 C 1934.19 -3.97086 -1.70137 0
M  V30 16682 C 1933.32 -4.45258 -2.89687 0
M  V30 16683 C 1932.36 -5.59697 -2.47801 0
M  V30 16684 N 1931.5 -6.0263 -3.60252 0
M  V30 16685 H 1936.34 -2.96106 -0.335434 0
M  V30 16686 H 1933.88 -1.46293 -0.15388 0
M  V30 16687 H 1935.83 -3.08145 -2.81252 0
M  V30 16688 H 1934.46 -1.96891 -2.558 0
M  V30 16689 H 1933.52 -3.70313 -0.870192 0
M  V30 16690 H 1934.83 -4.80085 -1.35352 0
M  V30 16691 H 1933.98 -4.80105 -3.70923 0
M  V30 16692 H 1932.72 -3.61201 -3.27696 0
M  V30 16693 H 1931.73 -5.24458 -1.64997 0
M  V30 16694 H 1932.95 -6.45517 -2.10913 0
M  V30 16695 H 1930.9 -5.21515 -3.97942 0
M  V30 16696 H 1930.81 -6.80474 -3.29379 0
M  V30 16697 H 1932.08 -6.42114 -4.41939 0
M  V30 16698 N 1936.31 0.158505 -1.56801 0
M  V30 16699 C 1937.26 1.21526 -1.98328 0
M  V30 16700 C 1938.25 1.45117 -0.873926 0
M  V30 16701 O 1939.46 1.45545 -1.05908 0
M  V30 16702 H 1935.83 0.408803 -0.631177 0
M  V30 16703 H 1937.81 0.838242 -2.86384 0
M  V30 16704 C 1936.55 2.54396 -2.37019 0
M  V30 16705 H 1935.88 2.3707 -3.21928 0
M  V30 16706 H 1937.32 3.26994 -2.69909 0
M  V30 16707 C 1935.78 3.14095 -1.21845 0
M  V30 16708 O 1936.31 3.98411 -0.51298 0
M  V30 16709 N 1934.51 2.73373 -0.985675 0
M  V30 16710 H 1934.06 2.04907 -1.56112 0
M  V30 16711 H 1934.02 3.13651 -0.216926 0
M  V30 16712 N 1937.79 1.51692 0.427485 0
M  V30 16713 C 1939.04 1.66051 1.17468 0
M  V30 16714 C 1939.39 0.376785 1.88675 0
M  V30 16715 O 1938.68 -0.627916 1.81019 0
M  V30 16716 C 1938.88 2.80871 2.21011 0
M  V30 16717 C 1938.71 4.20286 1.59969 0
M  V30 16718 C 1937.48 4.86081 1.38033 0
M  V30 16719 C 1939.67 5.03035 1.07054 0
M  V30 16720 N 1937.66 6.09581 0.726917 0
M  V30 16721 C 1939.03 6.17618 0.54297 0
M  V30 16722 C 1941.08 4.88494 0.96324 0
M  V30 16723 C 1939.79 7.19254 -0.0813641 0
M  V30 16724 C 1941.81 5.90347 0.352786 0
M  V30 16725 C 1941.17 7.04209 -0.164194 0
M  V30 16726 H 1937.27 0.661434 0.417167 0
M  V30 16727 H 1939.86 1.88948 0.469779 0
M  V30 16728 H 1938.03 2.59622 2.88879 0
M  V30 16729 H 1939.76 2.8436 2.8796 0
M  V30 16730 H 1936.51 4.44121 1.6448 0
M  V30 16731 H 1936.94 6.75712 0.417364 0
M  V30 16732 H 1941.58 4.00709 1.34879 0
M  V30 16733 H 1939.3 8.06679 -0.479018 0
M  V30 16734 H 1942.88 5.81166 0.271533 0
M  V30 16735 H 1941.76 7.81672 -0.629128 0
M  V30 16736 N 1939.27 -0.683564 1.42004 0
M  V30 16737 C 1940.5 -1.46996 1.45175 0
M  V30 16738 C 1940.91 -1.89108 0.0589536 0
M  V30 16739 O 1940.25 -1.5814 -0.934737 0
M  V30 16740 C 1940.31 -2.75616 2.30816 0
M  V30 16741 C 1939.97 -2.55634 3.78814 0
M  V30 16742 C 1940.97 -2.20802 4.70683 0
M  V30 16743 C 1938.66 -2.70901 4.22987 0
M  V30 16744 C 1940.65 -2.01492 6.04715 0
M  V30 16745 C 1938.34 -2.51207 5.5708 0
M  V30 16746 C 1939.34 -2.16555 6.4776 0
M  V30 16747 O 1939.02 -1.97043 7.79378 0
M  V30 16748 H 1938.76 -0.459119 0.496171 0
M  V30 16749 H 1941.31 -0.848089 1.87074 0
M  V30 16750 H 1939.54 -3.40254 1.83751 0
M  V30 16751 H 1941.23 -3.37467 2.25545 0
M  V30 16752 H 1941.99 -2.08611 4.37843 0
M  V30 16753 H 1937.87 -2.96855 3.52702 0
M  V30 16754 H 1941.42 -1.74367 6.75457 0
M  V30 16755 H 1937.31 -2.62992 5.89496 0
M  V30 16756 H 1938.08 -2.11711 7.90646 0
M  V30 16757 N 1940.75 -1.28031 -0.919012 0
M  V30 16758 C 1941.99 -1.14258 -1.66217 0
M  V30 16759 C 1942.31 0.309269 -1.9314 0
M  V30 16760 O 1943.51 0.568038 -2.65491 0
M  V30 16761 C 1941.97 -1.99702 -2.99411 0
M  V30 16762 C 1941.58 -3.49596 -2.80155 0
M  V30 16763 C 1943.32 -1.94601 -3.77267 0
M  V30 16764 C 1941.23 -4.27209 -4.08958 0
M  V30 16765 H 1940.16 -0.424009 -0.623484 0
M  V30 16766 H 1942.81 -1.52521 -1.02028 0
M  V30 16767 H 1941.19 -1.5429 -3.64706 0
M  V30 16768 H 1942.37 -4.02929 -2.23574 0
M  V30 16769 H 1940.68 -3.56167 -2.15718 0
M  V30 16770 H 1943.28 -2.49859 -4.72731 0
M  V30 16771 H 1943.62 -0.92157 -4.05971 0
M  V30 16772 H 1944.15 -2.37954 -3.18783 0
M  V30 16773 H 1940.89 -5.30212 -3.8543 0
M  V30 16774 H 1940.41 -3.7865 -4.65171 0
M  V30 16775 H 1942.09 -4.36847 -4.77256 0
M  V30 16776 N 1942.22 1.12672 -1.10194 0
M  V30 16777 C 1943.45 1.88496 -0.865112 0
M  V30 16778 C 1943.87 1.78977 0.578691 0
M  V30 16779 O 1943.23 1.14292 1.40737 0
M  V30 16780 C 1943.28 3.35768 -1.315 0
M  V30 16781 O 1942.38 4.09615 -0.478447 0
M  V30 16782 H 1941.72 0.585782 -0.312658 0
M  V30 16783 H 1944.25 1.42506 -1.46811 0
M  V30 16784 H 1944.26 3.86605 -1.30385 0
M  V30 16785 H 1942.94 3.42013 -2.36643 0
M  V30 16786 H 1941.52 3.68753 -0.554589 0
M  V30 16787 N 1943.7 0.89031 1.30043 0
M  V30 16788 C 1944.65 0.35935 2.27985 0
M  V30 16789 C 1945.62 -0.5534 1.5661 0
M  V30 16790 O 1946.8 -0.480669 1.84646 0
M  V30 16791 C 1943.94 -0.41541 3.42591 0
M  V30 16792 C 1943.06 0.527163 4.28771 0
M  V30 16793 C 1942.19 -0.26372 5.30545 0
M  V30 16794 C 1941.23 0.673982 6.08378 0
M  V30 16795 N 1940.37 -0.081909 7.02052 0
M  V30 16796 H 1945.21 1.19969 2.72785 0
M  V30 16797 H 1942.74 0.602948 1.34175 0
M  V30 16798 H 1944.7 -0.880572 4.07801 0
M  V30 16799 H 1943.33 -1.22028 2.98846 0
M  V30 16800 H 1942.38 1.11083 3.6382 0
M  V30 16801 H 1943.7 1.24532 4.83004 0
M  V30 16802 H 1942.85 -0.7905 6.01528 0
M  V30 16803 H 1941.59 -1.01507 4.7702 0
M  V30 16804 H 1940.59 1.21234 5.36267 0
M  V30 16805 H 1941.82 1.42451 6.63991 0
M  V30 16806 H 1939.77 -0.815696 6.50909 0
M  V30 16807 H 1939.68 0.576521 7.53799 0
M  V30 16808 H 1940.95 -0.589258 7.7727 0
M  V30 16809 N 1945.18 -1.43489 0.651812 0
M  V30 16810 C 1946.13 -2.32541 -0.0525869 0
M  V30 16811 C 1947.12 -1.48532 -0.81454 0
M  V30 16812 O 1948.33 -1.64749 -0.7251 0
M  V30 16813 H 1944.7 -0.751148 -0.0357894 0
M  V30 16814 H 1946.67 -2.89677 0.716229 0
M  V30 16815 C 1945.42 -3.3282 -1.00628 0
M  V30 16816 H 1944.75 -3.97487 -0.429396 0
M  V30 16817 H 1946.19 -3.97767 -1.46826 0
M  V30 16818 C 1944.64 -2.63313 -2.10162 0
M  V30 16819 O 1945.17 -2.44759 -3.18522 0
M  V30 16820 N 1943.38 -2.2271 -1.86678 0
M  V30 16821 H 1942.93 -2.38 -0.985581 0
M  V30 16822 H 1942.89 -1.76533 -2.60161 0
M  V30 16823 N 1946.66 -0.393643 -1.52605 0
M  V30 16824 C 1948.07 0.0794242 -1.86531 0
M  V30 16825 C 1948.42 1.45778 -1.31313 0
M  V30 16826 O 1947.54 2.06526 -0.646206 0
M  V30 16827 C 1948.14 0.150899 -3.38464 0
M  V30 16828 C 1946.7 0.568268 -3.72086 0
M  V30 16829 C 1945.85 -0.267031 -2.76011 0
M  V30 16830 H 1948.8 -0.611344 -1.46452 0
M  V30 16831 H 1948.82 0.969194 -3.6795 0
M  V30 16832 H 1948.33 -0.852425 -3.78623 0
M  V30 16833 H 1946.43 1.5788 -3.37498 0
M  V30 16834 H 1946.54 0.323405 -4.78007 0
M  V30 16835 H 1944.91 0.268347 -2.53282 0
M  V30 16836 H 1945.69 -1.26841 -3.19008 0
M  V30 16837 N 1948.14 1.57115 -0.123593 0
M  V30 16838 C 1949.08 2.15555 0.824912 0
M  V30 16839 C 1950.05 1.08181 1.2604 0
M  V30 16840 O 1951.24 1.36111 1.3371 0
M  V30 16841 C 1948.38 2.76288 2.06783 0
M  V30 16842 C 1947.49 3.97983 1.68029 0
M  V30 16843 C 1946.63 4.46788 2.87322 0
M  V30 16844 C 1945.66 5.61004 2.44829 0
M  V30 16845 N 1944.8 6.04532 3.57052 0
M  V30 16846 H 1949.64 2.9628 0.319726 0
M  V30 16847 H 1947.18 1.46372 0.14612 0
M  V30 16848 H 1949.14 3.09632 2.79613 0
M  V30 16849 H 1947.77 1.98245 2.54752 0
M  V30 16850 H 1946.82 3.70769 0.850542 0
M  V30 16851 H 1948.13 4.80796 1.32804 0
M  V30 16852 H 1947.28 4.82066 3.68372 0
M  V30 16853 H 1946.02 3.62934 3.25776 0
M  V30 16854 H 1945.03 5.25326 1.62213 0
M  V30 16855 H 1946.25 6.46627 2.07487 0
M  V30 16856 H 1944.2 5.23618 3.95171 0
M  V30 16857 H 1944.12 6.82212 3.25766 0
M  V30 16858 H 1945.38 6.44449 4.38527 0
M  V30 16859 N 1949.61 -0.150187 1.56883 0
M  V30 16860 C 1950.89 -0.891842 1.74085 0
M  V30 16861 C 1951.27 -1.99479 0.690751 0
M  V30 16862 O 1950.62 -2.26641 -0.290877 0
M  V30 16863 C 1950.83 -1.43722 3.18033 0
M  V30 16864 C 1952.18 -1.90188 3.79623 0
M  V30 16865 O 1953.2 -1.53471 3.21442 0
M  V30 16866 O 1952.06 -2.57892 4.81824 0
M  V30 16867 H 1949.15 -0.421241 0.711678 0
M  V30 16868 H 1951.7 -0.136362 1.69151 0
M  V30 16869 H 1950.47 -0.644422 3.85957 0
M  V30 16870 H 1950.09 -2.2563 3.27379 0
M  V30 16871 N 1951.09 -1.51916 -0.419434 0
M  V30 16872 C 1952.04 -1.7452 -1.51035 0
M  V30 16873 C 1953.01 -0.587321 -1.5537 0
M  V30 16874 O 1954.19 -0.823744 -1.72102 0
M  V30 16875 C 1951.33 -1.89242 -2.88585 0
M  V30 16876 C 1950.45 -3.16859 -2.9364 0
M  V30 16877 C 1949.58 -3.22072 -4.22426 0
M  V30 16878 C 1948.62 -4.43931 -4.21416 0
M  V30 16879 N 1947.76 -4.46594 -5.41755 0
M  V30 16880 H 1952.6 -2.67631 -1.31063 0
M  V30 16881 H 1950.14 -1.32623 -0.636368 0
M  V30 16882 H 1952.09 -1.9576 -3.68421 0
M  V30 16883 H 1950.72 -0.995211 -3.07076 0
M  V30 16884 H 1949.78 -3.19562 -2.06359 0
M  V30 16885 H 1951.09 -4.06719 -2.88758 0
M  V30 16886 H 1950.24 -3.27605 -5.10647 0
M  V30 16887 H 1948.98 -2.30131 -4.29989 0
M  V30 16888 H 1947.99 -4.38555 -3.31586 0
M  V30 16889 H 1949.21 -5.37155 -4.15501 0
M  V30 16890 H 1947.16 -3.57532 -5.50006 0
M  V30 16891 H 1947.07 -5.30286 -5.38825 0
M  V30 16892 H 1948.34 -4.56343 -6.31958 0
M  V30 16893 N 1952.57 0.676023 -1.42365 0
M  V30 16894 C 1953.99 0.989001 -1.25263 0
M  V30 16895 C 1954.19 2.00896 -0.155941 0
M  V30 16896 O 1953.24 2.48026 0.473229 0
M  V30 16897 C 1954.56 1.49498 -2.60904 0
M  V30 16898 C 1956.1 1.61281 -2.68249 0
M  V30 16899 C 1956.58 2.15275 -4.04253 0
M  V30 16900 N 1958.07 2.2261 -4.06201 0
M  V30 16901 C 1958.8 2.6546 -5.08251 0
M  V30 16902 N 1958.3 3.07771 -6.20684 0
M  V30 16903 N 1960.09 2.65198 -4.95607 0
M  V30 16904 H 1952.24 0.000697929 -2.124 0
M  V30 16905 H 1954.51 0.0628334 -0.945915 0
M  V30 16906 H 1954.21 0.820033 -3.42006 0
M  V30 16907 H 1954.09 2.47392 -2.8474 0
M  V30 16908 H 1956.47 2.27882 -1.87493 0
M  V30 16909 H 1956.56 0.618793 -2.48203 0
M  V30 16910 H 1956.2 1.49284 -4.85466 0
M  V30 16911 H 1956.13 3.15466 -4.2165 0
M  V30 16912 H 1958.62 1.92776 -3.25032 0
M  V30 16913 H 1958.93 3.3915 -6.94404 0
M  V30 16914 H 1957.28 3.05631 -6.24191 0
M  V30 16915 H 1960.47 2.31504 -4.06846 0
M  V30 16916 H 1960.64 2.98272 -5.75272 0
M  V30 16917 N 1954.05 1.28517 0.912209 0
M  V30 16918 C 1955 1.09214 2.00141 0
M  V30 16919 C 1955.98 0.015324 1.60893 0
M  V30 16920 O 1957.17 0.235636 1.75425 0
M  V30 16921 C 1954.3 0.757636 3.34835 0
M  V30 16922 C 1953.39 1.87337 3.80481 0
M  V30 16923 N 1953.78 3.11521 3.98483 0
M  V30 16924 C 1952.08 1.76357 4.09651 0
M  V30 16925 C 1952.78 3.8423 4.3674 0
M  V30 16926 N 1951.76 3.12089 4.45086 0
M  V30 16927 H 1955.56 2.03436 2.12111 0
M  V30 16928 H 1953.07 1.19458 1.10016 0
M  V30 16929 H 1955.07 0.600426 4.12554 0
M  V30 16930 H 1953.73 -0.176796 3.24218 0
M  V30 16931 H 1954.74 3.47114 3.84359 0
M  V30 16932 H 1951.42 0.901018 4.07662 0
M  V30 16933 H 1952.81 4.91039 4.58618 0
M  V30 16934 N 1955.53 -1.12086 1.1079 0
M  V30 16935 C 1956.77 -1.83949 0.853848 0
M  V30 16936 C 1957.11 -1.8407 -0.619029 0
M  V30 16937 O 1956.38 -1.28889 -1.45664 0
M  V30 16938 C 1956.66 -3.31452 1.40754 0
M  V30 16939 C 1956.52 -3.39765 2.94754 0
M  V30 16940 C 1957.84 -4.2732 1.05288 0
M  V30 16941 H 1954.95 -0.667872 0.311635 0
M  V30 16942 H 1957.6 -1.31475 1.37166 0
M  V30 16943 H 1955.75 -3.7627 0.967112 0
M  V30 16944 H 1957.42 -3.03555 3.4735 0
M  V30 16945 H 1955.66 -2.80196 3.31168 0
M  V30 16946 H 1956.33 -4.43553 3.2858 0
M  V30 16947 H 1958.81 -3.90647 1.43297 0
M  V30 16948 H 1957.68 -5.28929 1.46716 0
M  V30 16949 H 1957.95 -4.42084 -0.0372227 0
M  V30 16950 N 1957 -0.897194 -1.29569 0
M  V30 16951 C 1958.25 -0.53201 -1.96319 0
M  V30 16952 C 1958.61 0.911189 -1.69455 0
M  V30 16953 O 1957.9 1.637 -0.995636 0
M  V30 16954 C 1958.09 -0.757743 -3.49275 0
M  V30 16955 C 1957.92 -2.22133 -3.91008 0
M  V30 16956 C 1956.69 -2.86829 -4.16002 0
M  V30 16957 C 1958.89 -3.1963 -4.02916 0
M  V30 16958 N 1956.87 -4.23657 -4.44284 0
M  V30 16959 C 1958.24 -4.41568 -4.35221 0
M  V30 16960 C 1960.3 -3.15253 -3.85383 0
M  V30 16961 C 1959 -5.59688 -4.51821 0
M  V30 16962 C 1961.03 -4.32656 -4.0319 0
M  V30 16963 C 1960.39 -5.53364 -4.35853 0
M  V30 16964 H 1956.49 -0.244236 -0.742881 0
M  V30 16965 H 1959.07 -1.15748 -1.56558 0
M  V30 16966 H 1957.24 -0.16167 -3.88063 0
M  V30 16967 H 1958.97 -0.358243 -4.03111 0
M  V30 16968 H 1955.73 -2.37635 -4.09666 0
M  V30 16969 H 1956.15 -4.94356 -4.62538 0
M  V30 16970 H 1960.8 -2.2302 -3.59196 0
M  V30 16971 H 1958.51 -6.52415 -4.76845 0
M  V30 16972 H 1962.1 -4.30754 -3.91079 0
M  V30 16973 H 1960.98 -6.42696 -4.49345 0
M  V30 16974 N 1958.48 1.43142 -0.659413 0
M  V30 16975 C 1959.73 2.0174 -0.175334 0
M  V30 16976 C 1960.06 1.52053 1.21285 0
M  V30 16977 O 1959.31 0.70675 1.82493 0
M  V30 16978 C 1959.61 3.57118 -0.141826 0
M  V30 16979 C 1959.28 4.26175 -1.47259 0
M  V30 16980 C 1957.94 4.44756 -1.837 0
M  V30 16981 C 1960.29 4.65229 -2.34972 0
M  V30 16982 C 1957.62 4.99656 -3.07507 0
M  V30 16983 C 1959.97 5.21502 -3.58076 0
M  V30 16984 C 1958.64 5.38297 -3.94705 0
M  V30 16985 H 1957.91 0.738217 -0.0641591 0
M  V30 16986 H 1960.55 1.71535 -0.85135 0
M  V30 16987 H 1958.86 3.86901 0.617659 0
M  V30 16988 H 1960.55 4.00222 0.249689 0
M  V30 16989 H 1957.14 4.12063 -1.17908 0
M  V30 16990 H 1961.33 4.50561 -2.08107 0
M  V30 16991 H 1956.58 5.10845 -3.35927 0
M  V30 16992 H 1960.76 5.50708 -4.26255 0
M  V30 16993 H 1958.39 5.80603 -4.90718 0
M  V30 16994 N 1959.96 0.40173 1.52394 0
M  V30 16995 C 1961.21 -0.17611 2.01331 0
M  V30 16996 C 1961.53 -1.46274 1.28953 0
M  V30 16997 O 1960.8 -1.91492 0.413249 0
M  V30 16998 H 1959.38 -0.0680697 0.743892 0
M  V30 16999 H 1962.04 0.536274 1.87377 0
M  V30 17000 H 1961.14 -0.377497 3.09809 0
M  V30 17001 N 1961.44 -1.57047 0.131923 0
M  V30 17002 C 1962.35 -2.19545 -0.826862 0
M  V30 17003 C 1963.36 -1.17532 -1.28305 0
M  V30 17004 O 1964.54 -1.50052 -1.34337 0
M  V30 17005 C 1961.61 -2.79284 -2.0543 0
M  V30 17006 C 1960.67 -3.96375 -1.64879 0
M  V30 17007 C 1959.9 -4.53256 -2.81771 0
M  V30 17008 O 1960.12 -4.09022 -3.97564 0
M  V30 17009 O 1959.06 -5.43748 -2.58111 0
M  V30 17010 H 1962.88 -3.01957 -0.324926 0
M  V30 17011 H 1960.47 -1.49102 -0.0943495 0
M  V30 17012 H 1962.35 -3.17312 -2.77292 0
M  V30 17013 H 1961.02 -1.99895 -2.54605 0
M  V30 17014 H 1959.93 -3.63092 -0.900848 0
M  V30 17015 H 1961.26 -4.77238 -1.20434 0
M  V30 17016 N 1962.92 0.141865 -1.5696 0
M  V30 17017 C 1964.14 0.872384 -1.8816 0
M  V30 17018 C 1964.57 1.73713 -0.721494 0
M  V30 17019 O 1963.92 1.78294 0.328757 0
M  V30 17020 C 1963.97 1.7007 -3.17976 0
M  V30 17021 O 1963.08 2.80545 -3.02271 0
M  V30 17022 H 1962.42 0.242672 -0.618066 0
M  V30 17023 H 1964.95 0.131136 -2.04179 0
M  V30 17024 H 1964.96 2.09466 -3.50126 0
M  V30 17025 H 1963.63 1.06573 -4.02014 0
M  V30 17026 H 1962.21 2.44519 -2.81541 0
M  V30 17027 N 1964.39 1.52136 0.411372 0
M  V30 17028 C 1965.33 1.70036 1.52194 0
M  V30 17029 C 1966.31 0.547941 1.53089 0
M  V30 17030 O 1967.49 0.775017 1.71831 0
M  V30 17031 C 1964.62 1.73764 2.9073 0
M  V30 17032 C 1963.66 2.95279 3.07754 0
M  V30 17033 S 1964.5 4.55662 2.81305 0
M  V30 17034 C 1965.65 4.62173 4.22075 0
M  V30 17035 H 1965.88 2.63966 1.36781 0
M  V30 17036 H 1963.42 1.42147 0.6028 0
M  V30 17037 H 1965.38 1.76597 3.70572 0
M  V30 17038 H 1964.04 0.809659 3.03485 0
M  V30 17039 H 1963.23 2.94363 4.09104 0
M  V30 17040 H 1962.83 2.90322 2.35773 0
M  V30 17041 H 1965.12 4.39412 5.15678 0
M  V30 17042 H 1966.07 5.641 4.28015 0
M  V30 17043 H 1966.47 3.91228 4.06941 0
M  V30 17044 N 1965.87 -0.668464 1.42721 0
M  V30 17045 C 1967.1 -1.45659 1.46939 0
M  V30 17046 C 1967.52 -1.88619 0.0826133 0
M  V30 17047 O 1966.87 -1.58537 -0.904 0
M  V30 17048 C 1966.92 -2.70158 2.40202 0
M  V30 17049 O 1966.65 -2.28999 3.73485 0
M  V30 17050 C 1968.15 -3.63662 2.53505 0
M  V30 17051 H 1965.37 -0.447982 0.499553 0
M  V30 17052 H 1967.91 -0.820826 1.87304 0
M  V30 17053 H 1966.07 -3.29909 2.03074 0
M  V30 17054 H 1966.48 -3.09441 4.23493 0
M  V30 17055 H 1967.95 -4.47726 3.22871 0
M  V30 17056 H 1968.43 -4.09989 1.57498 0
M  V30 17057 H 1969.04 -3.09801 2.91382 0
M  V30 17058 N 1967.35 -1.28999 -0.905381 0
M  V30 17059 C 1968.63 -1.07329 -1.63523 0
M  V30 17060 C 1969.01 0.384519 -2.07568 0
M  V30 17061 O 1968.36 1.37223 -1.82708 0
M  V30 17062 C 1968.57 -2.05563 -2.82037 0
M  V30 17063 C 1969.91 -2.3617 -3.52858 0
M  V30 17064 O 1970.94 -2.03713 -2.92198 0
M  V30 17065 O 1969.8 -2.91601 -4.62202 0
M  V30 17066 H 1966.89 -0.410796 -0.717757 0
M  V30 17067 H 1969.44 -1.40349 -0.953949 0
M  V30 17068 H 1968.21 -3.03779 -2.46645 0
M  V30 17069 H 1967.83 -1.73238 -3.57875 0
M  V30 17070 N 1968.83 1.11497 -1.11383 0
M  V30 17071 C 1970.08 1.8286 -0.860611 0
M  V30 17072 C 1970.4 1.85032 0.615471 0
M  V30 17073 O 1969.67 1.32047 1.44708 0
M  V30 17074 H 1968.25 0.677153 -0.315392 0
M  V30 17075 H 1970.91 1.34963 -1.40609 0
M  V30 17076 H 1970.01 2.86743 -1.23227 0
M  V30 17077 N 1970.31 0.904053 1.29092 0
M  V30 17078 C 1971.55 0.532203 1.95381 0
M  V30 17079 C 1971.88 -0.922327 1.71241 0
M  V30 17080 O 1971.14 -1.66968 1.02079 0
M  V30 17081 C 1971.44 0.776255 3.48868 0
M  V30 17082 C 1971.1 2.20882 3.93093 0
M  V30 17083 C 1969.76 2.60052 4.04878 0
M  V30 17084 C 1972.12 3.14152 4.15882 0
M  V30 17085 C 1969.44 3.91663 4.36826 0
M  V30 17086 C 1971.8 4.45317 4.49306 0
M  V30 17087 C 1970.46 4.84354 4.59301 0
M  V30 17088 H 1969.73 0.194747 0.714951 0
M  V30 17089 H 1972.38 1.14354 1.53608 0
M  V30 17090 H 1970.68 0.0820369 3.91714 0
M  V30 17091 H 1972.38 0.467861 3.98261 0
M  V30 17092 H 1968.97 1.89485 3.84439 0
M  V30 17093 H 1973.15 2.85103 4.06239 0
M  V30 17094 H 1968.41 4.21623 4.42769 0
M  V30 17095 H 1972.58 5.17611 4.65888 0
M  V30 17096 H 1970.21 5.86371 4.83811 0
M  V30 17097 N 1971.79 -1.4279 0.666995 0
M  V30 17098 C 1972.72 -2.29134 -0.0550112 0
M  V30 17099 C 1973.73 -1.43259 -0.773357 0
M  V30 17100 O 1974.92 -1.67057 -0.628816 0
M  V30 17101 C 1972.02 -3.20503 -1.1014 0
M  V30 17102 C 1971.19 -4.34991 -0.458443 0
M  V30 17103 C 1970.25 -5.07136 -1.40356 0
M  V30 17104 O 1969.28 -5.61929 -0.90686 0
M  V30 17105 N 1970.48 -5.1192 -2.73712 0
M  V30 17106 H 1973.24 -2.9174 0.686156 0
M  V30 17107 H 1970.81 -1.5363 0.510814 0
M  V30 17108 H 1972.8 -3.65634 -1.73477 0
M  V30 17109 H 1971.37 -2.59403 -1.74439 0
M  V30 17110 H 1970.59 -3.92605 0.354287 0
M  V30 17111 H 1971.88 -5.08799 -0.0101948 0
M  V30 17112 H 1971.27 -4.68799 -3.16613 0
M  V30 17113 H 1969.83 -5.60722 -3.32316 0
M  V30 17114 N 1973.26 -0.409806 -1.52179 0
M  V30 17115 C 1974.51 0.165758 -2.0182 0
M  V30 17116 C 1974.84 1.45086 -1.29539 0
M  V30 17117 O 1974.09 1.91766 -0.390424 0
M  V30 17118 C 1974.39 0.459582 -3.54433 0
M  V30 17119 C 1974.06 -0.7364 -4.44846 0
M  V30 17120 C 1972.72 -1.06445 -4.69279 0
M  V30 17121 C 1975.07 -1.53553 -4.98067 0
M  V30 17122 C 1972.4 -2.19281 -5.44181 0
M  V30 17123 C 1974.75 -2.65467 -5.74204 0
M  V30 17124 C 1973.42 -2.98757 -5.96909 0
M  V30 17125 H 1972.69 0.0606551 -0.738513 0
M  V30 17126 H 1975.33 -0.551364 -1.83391 0
M  V30 17127 H 1973.64 1.25828 -3.71045 0
M  V30 17128 H 1975.34 0.917888 -3.90353 0
M  V30 17129 H 1971.93 -0.470734 -4.26007 0
M  V30 17130 H 1976.11 -1.29532 -4.79098 0
M  V30 17131 H 1971.37 -2.4542 -5.59981 0
M  V30 17132 H 1975.54 -3.27776 -6.14439 0
M  V30 17133 H 1973.17 -3.86307 -6.5473 0
M  V30 17134 N 1974.74 1.56975 -0.14025 0
M  V30 17135 C 1975.65 2.19981 0.815207 0
M  V30 17136 C 1976.67 1.18211 1.2768 0
M  V30 17137 O 1977.84 1.50762 1.33539 0
M  V30 17138 C 1974.91 2.80369 2.03946 0
M  V30 17139 C 1973.97 3.97244 1.62774 0
M  V30 17140 C 1973.2 4.54744 2.79363 0
M  V30 17141 O 1973.43 4.11124 3.9539 0
M  V30 17142 O 1972.36 5.45109 2.55224 0
M  V30 17143 H 1976.19 3.02125 0.308908 0
M  V30 17144 H 1973.77 1.4915 0.0864409 0
M  V30 17145 H 1975.65 3.18778 2.75606 0
M  V30 17146 H 1974.33 2.01243 2.53541 0
M  V30 17147 H 1973.23 3.63564 0.88158 0
M  V30 17148 H 1974.57 4.7787 1.17901 0
M  V30 17149 N 1976.22 -0.133539 1.57033 0
M  V30 17150 C 1977.45 -0.857187 1.87978 0
M  V30 17151 C 1977.86 -1.74634 0.72799 0
M  V30 17152 O 1977.2 -1.81051 -0.310857 0
M  V30 17153 C 1977.26 -1.75448 3.13781 0
M  V30 17154 C 1976.93 -1.04112 4.44983 0
M  V30 17155 C 1977.92 -0.388703 5.18445 0
M  V30 17156 C 1975.61 -1.02662 4.91697 0
M  V30 17157 C 1977.6 0.268682 6.36833 0
M  V30 17158 C 1975.29 -0.365432 6.10006 0
M  V30 17159 C 1976.29 0.28108 6.82421 0
M  V30 17160 O 1975.98 0.931754 7.98482 0
M  V30 17161 H 1975.71 -0.252521 0.627064 0
M  V30 17162 H 1978.26 -0.126928 2.05007 0
M  V30 17163 H 1976.49 -2.52602 2.92796 0
M  V30 17164 H 1978.18 -2.35126 3.30863 0
M  V30 17165 H 1978.95 -0.391622 4.83416 0
M  V30 17166 H 1974.83 -1.51926 4.35246 0
M  V30 17167 H 1978.37 0.773893 6.93294 0
M  V30 17168 H 1974.27 -0.360226 6.44494 0
M  V30 17169 H 1975.03 0.834769 8.14232 0
M  V30 17170 N 1977.7 -1.52352 -0.403298 0
M  V30 17171 C 1978.95 -1.66368 -1.14744 0
M  V30 17172 C 1979.27 -0.398899 -1.90876 0
M  V30 17173 O 1978.54 0.586372 -1.86918 0
M  V30 17174 H 1977.12 -0.613226 -0.426571 0
M  V30 17175 H 1979.78 -1.89416 -0.459075 0
M  V30 17176 H 1978.87 -2.50748 -1.85828 0
M  V30 17177 N 1979.18 0.660885 -1.43074 0
M  V30 17178 C 1980.42 1.41805 -1.43999 0
M  V30 17179 C 1980.74 1.949 -0.0625341 0
M  V30 17180 O 1980.01 1.7395 0.901019 0
M  V30 17181 H 1978.59 0.526263 -0.530147 0
M  V30 17182 H 1981.26 0.779967 -1.78613 0
M  V30 17183 H 1980.35 2.2642 -2.14803 0
M  V30 17184 N 1980.65 1.29477 0.898527 0
M  V30 17185 C 1981.59 1.10513 2.00797 0
M  V30 17186 C 1982.6 0.0522996 1.62716 0
M  V30 17187 O 1983.79 0.296941 1.76013 0
M  V30 17188 C 1980.89 0.660433 3.32403 0
M  V30 17189 C 1980.06 1.79205 3.99004 0
M  V30 17190 C 1979.12 1.33816 5.089 0
M  V30 17191 O 1978.15 2.04308 5.31269 0
M  V30 17192 N 1979.35 0.209692 5.80121 0
M  V30 17193 H 1982.11 2.06063 2.17619 0
M  V30 17194 H 1979.67 1.21432 1.07078 0
M  V30 17195 H 1981.67 0.340075 4.03269 0
M  V30 17196 H 1980.24 -0.20264 3.11943 0
M  V30 17197 H 1979.46 2.28123 3.21487 0
M  V30 17198 H 1980.74 2.55075 4.40244 0
M  V30 17199 H 1980.14 -0.377998 5.64436 0
M  V30 17200 H 1978.7 -0.0512922 6.5178 0
M  V30 17201 N 1982.13 -1.10905 1.11972 0
M  V30 17202 C 1983.38 -1.82401 0.870296 0
M  V30 17203 C 1983.7 -1.85356 -0.605649 0
M  V30 17204 O 1982.97 -1.32812 -1.44006 0
M  V30 17205 H 1981.55 -0.675471 0.318979 0
M  V30 17206 H 1984.21 -1.34216 1.41323 0
M  V30 17207 H 1983.31 -2.86086 1.24746 0
M  V30 17208 N 1983.61 -0.910886 -1.2861 0
M  V30 17209 C 1984.84 -0.557684 -1.99761 0
M  V30 17210 C 1985.26 0.853148 -1.67639 0
M  V30 17211 O 1984.62 1.5697 -0.907192 0
M  V30 17212 C 1984.67 -0.770188 -3.52279 0
M  V30 17213 O 1983.77 0.172155 -4.12041 0
M  V30 17214 H 1983.11 -0.216573 -0.627688 0
M  V30 17215 H 1985.64 -1.22554 -1.63834 0
M  V30 17216 H 1985.65 -0.679176 -4.02307 0
M  V30 17217 H 1984.33 -1.79869 -3.74993 0
M  V30 17218 H 1982.9 0.0326535 -3.72886 0
M  V30 17219 N 1985.09 1.42434 -0.674558 0
M  V30 17220 C 1986.37 1.95196 -0.125683 0
M  V30 17221 C 1986.75 1.61499 1.35946 0
M  V30 17222 O 1986.09 0.911023 2.09553 0
M  V30 17223 C 1986.3 3.46762 -0.39457 0
M  V30 17224 C 1987.65 4.2346 -0.310951 0
M  V30 17225 O 1988.68 3.54684 -0.328304 0
M  V30 17226 O 1987.53 5.45914 -0.252937 0
M  V30 17227 H 1984.63 0.826995 -0.00272875 0
M  V30 17228 H 1987.17 1.52263 -0.749271 0
M  V30 17229 H 1985.95 3.64493 -1.42339 0
M  V30 17230 H 1985.57 3.96742 0.261037 0
M  V30 17231 N 1986.57 0.417871 1.51959 0
M  V30 17232 C 1987.98 -0.0497386 1.86634 0
M  V30 17233 C 1988.33 -1.43671 1.33616 0
M  V30 17234 O 1987.45 -2.05472 0.67898 0
M  V30 17235 C 1988.05 -0.0970329 3.38661 0
M  V30 17236 C 1986.61 -0.509 3.72943 0
M  V30 17237 C 1985.75 0.310908 2.75552 0
M  V30 17238 H 1988.71 0.634566 1.45461 0
M  V30 17239 H 1988.73 -0.910534 3.69445 0
M  V30 17240 H 1988.24 0.912553 3.77219 0
M  V30 17241 H 1986.34 -1.52491 3.39967 0
M  V30 17242 H 1986.45 -0.247317 4.78461 0
M  V30 17243 H 1984.82 -0.228018 2.53677 0
M  V30 17244 H 1985.6 1.31901 3.1695 0
M  V30 17245 N 1988.04 -1.56898 0.148573 0
M  V30 17246 C 1989.01 -2.15649 -0.776414 0
M  V30 17247 C 1990.01 -1.09867 -1.17413 0
M  V30 17248 O 1991.2 -1.35498 -1.0948 0
M  V30 17249 C 1988.33 -2.72087 -2.05381 0
M  V30 17250 H 1989.52 -2.98724 -0.265327 0
M  V30 17251 H 1987.08 -1.55974 -0.100881 0
M  V30 17252 H 1987.81 -1.92683 -2.60852 0
M  V30 17253 H 1987.6 -3.49479 -1.77782 0
M  V30 17254 H 1989.09 -3.17348 -2.71441 0
M  V30 17255 N 1989.52 0.125209 -1.57102 0
M  V30 17256 C 1990.8 0.864033 -1.75482 0
M  V30 17257 C 1991.18 1.98355 -0.722399 0
M  V30 17258 O 1990.53 2.27075 0.254784 0
M  V30 17259 C 1990.74 1.38644 -3.20279 0
M  V30 17260 C 1992.09 1.84125 -3.82601 0
M  V30 17261 O 1993.11 1.48338 -3.23843 0
M  V30 17262 O 1991.97 2.50194 -4.85866 0
M  V30 17263 H 1989.06 0.409865 -0.718289 0
M  V30 17264 H 1991.61 0.109434 -1.69347 0
M  V30 17265 H 1990.38 0.582938 -3.86933 0
M  V30 17266 H 1990 2.20393 -3.30927 0
M  V30 17267 N 1991 1.52564 0.395213 0
M  V30 17268 C 1992.25 1.67552 1.14254 0
M  V30 17269 C 1992.58 0.411135 1.89798 0
M  V30 17270 O 1991.85 -0.590891 1.85307 0
M  V30 17271 C 1992.14 2.90657 2.1258 0
M  V30 17272 C 1991.99 4.27181 1.40841 0
M  V30 17273 C 1993.31 3.09301 3.13083 0
M  V30 17274 H 1990.43 0.609735 0.413995 0
M  V30 17275 H 1993.07 1.85148 0.426634 0
M  V30 17276 H 1991.22 2.75787 2.73631 0
M  V30 17277 H 1992.89 4.53808 0.82802 0
M  V30 17278 H 1991.14 4.27946 0.71028 0
M  V30 17279 H 1991.81 5.09393 2.12656 0
M  V30 17280 H 1994.28 3.23162 2.62118 0
M  V30 17281 H 1993.16 3.96925 3.79133 0
M  V30 17282 H 1993.42 2.23237 3.81599 0
M  V30 17283 N 1992.48 -0.653289 1.43422 0
M  V30 17284 C 1993.44 -1.74802 1.48246 0
M  V30 17285 C 1994.44 -1.56552 0.367179 0
M  V30 17286 O 1995.63 -1.62451 0.628923 0
M  V30 17287 C 1992.76 -3.13673 1.33499 0
M  V30 17288 H 1993.96 -1.71906 2.4574 0
M  V30 17289 H 1991.51 -0.864936 1.30187 0
M  V30 17290 H 1992.24 -3.22181 0.370118 0
M  V30 17291 H 1992.03 -3.28325 2.14348 0
M  V30 17292 H 1993.52 -3.93502 1.39806 0
M  V30 17293 N 1993.96 -1.29952 -0.891648 0
M  V30 17294 C 1995.21 -1.17758 -1.63756 0
M  V30 17295 C 1995.52 0.268231 -1.93752 0
M  V30 17296 O 1996.72 0.511595 -2.66636 0
M  V30 17297 C 1995.18 -2.06008 -2.95108 0
M  V30 17298 C 1994.79 -3.55459 -2.72677 0
M  V30 17299 C 1996.53 -2.0256 -3.73055 0
M  V30 17300 C 1994.44 -4.35787 -3.99805 0
M  V30 17301 H 1993.37 -0.437139 -0.61435 0
M  V30 17302 H 1996.02 -1.54651 -0.987694 0
M  V30 17303 H 1994.4 -1.61991 -3.61351 0
M  V30 17304 H 1995.58 -4.0758 -2.14977 0
M  V30 17305 H 1993.89 -3.60662 -2.08115 0
M  V30 17306 H 1996.49 -2.5983 -4.67325 0
M  V30 17307 H 1996.83 -1.00748 -4.03925 0
M  V30 17308 H 1997.36 -2.44662 -3.13664 0
M  V30 17309 H 1994.1 -5.38268 -3.74096 0
M  V30 17310 H 1993.62 -3.88432 -4.57035 0
M  V30 17311 H 1995.3 -4.46872 -4.67883 0
M  V30 17312 N 1995.44 1.1031 -1.12559 0
M  V30 17313 C 1996.37 2.16497 -0.752435 0
M  V30 17314 C 1997.38 1.61285 0.221548 0
M  V30 17315 O 1998.57 1.785 0.00269501 0
M  V30 17316 C 1995.67 3.38772 -0.0931525 0
M  V30 17317 C 1994.84 4.23422 -1.09693 0
M  V30 17318 C 1993.9 5.24141 -0.465028 0
M  V30 17319 O 1992.93 5.58024 -1.1224 0
M  V30 17320 N 1994.13 5.75411 0.76697 0
M  V30 17321 H 1996.89 2.49118 -1.66614 0
M  V30 17322 H 1994.46 1.25941 -1.01737 0
M  V30 17323 H 1996.45 4.03256 0.341604 0
M  V30 17324 H 1995.02 3.04116 0.723336 0
M  V30 17325 H 1994.24 3.55215 -1.70927 0
M  V30 17326 H 1995.53 4.7681 -1.77565 0
M  V30 17327 H 1994.92 5.50084 1.32 0
M  V30 17328 H 1993.48 6.41673 1.14453 0
M  V30 17329 N 1996.91 0.917694 1.28125 0
M  V30 17330 C 1997.84 0.426179 2.29578 0
M  V30 17331 C 1998.82 -0.508289 1.62328 0
M  V30 17332 O 2000.01 -0.415181 1.8971 0
M  V30 17333 C 1997.14 -0.331007 3.45719 0
M  V30 17334 C 1996.09 0.51469 4.24894 0
M  V30 17335 C 1995.42 -0.371069 5.33411 0
M  V30 17336 C 1996.72 1.774 4.9125 0
M  V30 17337 H 1998.41 1.27403 2.7094 0
M  V30 17338 H 1995.96 0.614065 1.30251 0
M  V30 17339 H 1997.91 -0.68573 4.15783 0
M  V30 17340 H 1996.64 -1.2128 3.03247 0
M  V30 17341 H 1995.3 0.851986 3.56562 0
M  V30 17342 H 1994.94 -1.25152 4.87182 0
M  V30 17343 H 1994.64 0.19121 5.87289 0
M  V30 17344 H 1996.17 -0.721587 6.06321 0
M  V30 17345 H 1997.58 1.48795 5.53654 0
M  V30 17346 H 1995.98 2.27899 5.55141 0
M  V30 17347 H 1997.05 2.49947 4.15517 0
M  V30 17348 N 1998.39 -1.42074 0.682102 0
M  V30 17349 C 1999.62 -2.05769 0.216029 0
M  V30 17350 C 2000.03 -1.51278 -1.12962 0
M  V30 17351 O 1999.39 -0.655521 -1.70321 0
M  V30 17352 C 1999.44 -3.61187 0.150351 0
M  V30 17353 O 1999.16 -4.13659 1.44283 0
M  V30 17354 C 2000.66 -4.42007 -0.338339 0
M  V30 17355 H 1997.88 -0.662997 0.103326 0
M  V30 17356 H 2000.43 -1.82084 0.930895 0
M  V30 17357 H 1998.58 -3.83958 -0.515249 0
M  V30 17358 H 1999 -5.07592 1.32101 0
M  V30 17359 H 2000.47 -5.50994 -0.33319 0
M  V30 17360 H 2000.95 -4.17125 -1.37489 0
M  V30 17361 H 2001.55 -4.2427 0.295782 0
M  V30 17362 N 1999.87 -0.425924 -1.51735 0
M  V30 17363 C 2001.12 0.144343 -2.01985 0
M  V30 17364 C 2001.44 1.43704 -1.31071 0
M  V30 17365 O 2000.7 1.91341 -0.410741 0
M  V30 17366 C 2001 0.421964 -3.549 0
M  V30 17367 C 2000.66 -0.78354 -4.4404 0
M  V30 17368 C 1999.33 -1.11416 -4.68124 0
M  V30 17369 C 2001.68 -1.58827 -4.9641 0
M  V30 17370 C 1999.01 -2.25041 -5.41824 0
M  V30 17371 C 2001.36 -2.71542 -5.71356 0
M  V30 17372 C 2000.02 -3.05071 -5.93707 0
M  V30 17373 H 1999.29 0.0528187 -0.739115 0
M  V30 17374 H 2001.94 -0.570784 -1.82796 0
M  V30 17375 H 2000.24 1.21885 -3.72359 0
M  V30 17376 H 2001.94 0.876435 -3.91305 0
M  V30 17377 H 1998.53 -0.515891 -4.25484 0
M  V30 17378 H 2002.72 -1.34606 -4.77698 0
M  V30 17379 H 1997.97 -2.51346 -5.57347 0
M  V30 17380 H 2002.15 -3.34275 -6.10928 0
M  V30 17381 H 1999.77 -3.93229 -6.50596 0
M  V30 17382 N 2001.35 1.56817 -0.156891 0
M  V30 17383 C 2002.28 2.20266 0.774915 0
M  V30 17384 C 2003.26 1.15387 1.24979 0
M  V30 17385 O 2004.44 1.43766 1.30557 0
M  V30 17386 C 2001.57 2.83207 2.01025 0
M  V30 17387 C 2000.53 3.94 1.67177 0
M  V30 17388 C 1999.85 4.43921 2.98057 0
M  V30 17389 C 2001.15 5.14297 0.91083 0
M  V30 17390 H 2002.85 2.98387 0.246082 0
M  V30 17391 H 2000.39 1.43525 0.116921 0
M  V30 17392 H 2002.35 3.26264 2.66701 0
M  V30 17393 H 2001.07 2.02433 2.56298 0
M  V30 17394 H 1999.73 3.51576 1.03876 0
M  V30 17395 H 1999.38 3.59957 3.5134 0
M  V30 17396 H 1999.08 5.18657 2.76169 0
M  V30 17397 H 2000.6 4.89656 3.64787 0
M  V30 17398 H 2002.02 5.54137 1.46988 0
M  V30 17399 H 2000.41 5.94857 0.791526 0
M  V30 17400 H 2001.48 4.84806 -0.0955943 0
M  V30 17401 N 2002.83 -0.116876 1.57166 0
M  V30 17402 C 2004.24 -0.470473 1.52508 0
M  V30 17403 C 2004.44 -1.8174 0.870224 0
M  V30 17404 O 2003.5 -2.48395 0.453461 0
M  V30 17405 C 2004.81 -0.453012 2.97268 0
M  V30 17406 C 2006.36 -0.536413 3.08369 0
M  V30 17407 C 2006.83 -0.549319 4.54694 0
M  V30 17408 N 2008.32 -0.610698 4.59157 0
M  V30 17409 C 2009.06 -0.642166 5.69793 0
M  V30 17410 N 2008.56 -0.631152 6.89919 0
M  V30 17411 N 2010.35 -0.685335 5.57906 0
M  V30 17412 H 2002.5 0.765638 1.98121 0
M  V30 17413 H 2004.76 0.282662 0.904879 0
M  V30 17414 H 2004.47 0.469074 3.48558 0
M  V30 17415 H 2004.34 -1.28004 3.54817 0
M  V30 17416 H 2006.73 -1.44892 2.57081 0
M  V30 17417 H 2006.81 0.318339 2.53811 0
M  V30 17418 H 2006.45 0.35915 5.06629 0
M  V30 17419 H 2006.38 -1.42098 5.07066 0
M  V30 17420 H 2008.88 -0.625287 3.72691 0
M  V30 17421 H 2009.19 -0.657846 7.69995 0
M  V30 17422 H 2007.53 -0.598543 6.92418 0
M  V30 17423 H 2010.72 -0.691318 4.62967 0
M  V30 17424 H 2010.9 -0.706392 6.44138 0
M  V30 17425 N 2004.3 -1.52772 -0.387116 0
M  V30 17426 C 2005.23 -1.80654 -1.47941 0
M  V30 17427 C 2006.21 -0.658677 -1.56829 0
M  V30 17428 O 2007.4 -0.906449 -1.71747 0
M  V30 17429 C 2004.53 -1.97709 -2.85532 0
M  V30 17430 C 2003.48 -3.13404 -2.91482 0
M  V30 17431 C 2002.81 -3.15717 -4.3154 0
M  V30 17432 C 2004.11 -4.52437 -2.60957 0
M  V30 17433 H 2005.8 -2.72123 -1.24858 0
M  V30 17434 H 2003.35 -1.30941 -0.59921 0
M  V30 17435 H 2005.3 -2.15798 -3.61952 0
M  V30 17436 H 2004.03 -1.02931 -3.09956 0
M  V30 17437 H 2002.69 -2.95102 -2.1751 0
M  V30 17438 H 2002.33 -2.18618 -4.53007 0
M  V30 17439 H 2002.03 -3.93437 -4.36441 0
M  V30 17440 H 2003.56 -3.35963 -5.09864 0
M  V30 17441 H 2004.97 -4.70831 -3.27095 0
M  V30 17442 H 2003.37 -5.32238 -2.77205 0
M  V30 17443 H 2004.44 -4.59022 -1.5629 0
M  V30 17444 N 2005.78 0.645673 -1.43767 0
M  V30 17445 C 2006.71 1.77057 -1.43966 0
M  V30 17446 C 2007.69 1.59805 -0.300185 0
M  V30 17447 O 2008.88 1.81886 -0.494937 0
M  V30 17448 C 2006 3.14453 -1.25845 0
M  V30 17449 C 2005.05 3.50389 -2.43166 0
M  V30 17450 S 2005.88 3.4951 -4.05713 0
M  V30 17451 C 2007.04 4.8955 -3.89989 0
M  V30 17452 H 2007.27 1.76619 -2.39151 0
M  V30 17453 H 2004.8 0.818994 -1.30889 0
M  V30 17454 H 2006.76 3.93747 -1.16077 0
M  V30 17455 H 2005.42 3.12446 -0.321954 0
M  V30 17456 H 2004.62 4.50332 -2.26312 0
M  V30 17457 H 2004.22 2.78525 -2.49599 0
M  V30 17458 H 2006.51 5.78405 -3.5278 0
M  V30 17459 H 2007.45 5.11457 -4.89711 0
M  V30 17460 H 2007.86 4.6344 -3.2231 0
M  V30 17461 N 2007.26 1.30423 0.884744 0
M  V30 17462 C 2008.48 1.22312 1.67495 0
M  V30 17463 C 2008.91 -0.210723 1.86916 0
M  V30 17464 O 2008.27 -1.15161 1.40027 0
M  V30 17465 C 2008.32 1.95725 3.0286 0
M  V30 17466 O 2007.42 1.28449 3.91886 0
M  V30 17467 H 2006.76 0.423038 0.511796 0
M  V30 17468 H 2009.29 1.72246 1.10419 0
M  V30 17469 H 2009.3 2.04755 3.52901 0
M  V30 17470 H 2007.98 3.00006 2.88044 0
M  V30 17471 H 2006.55 1.27775 3.50326 0
M  V30 17472 N 2008.74 -1.09711 1.13142 0
M  V30 17473 C 2009.97 -1.85595 0.914436 0
M  V30 17474 C 2010.38 -1.81013 -0.536632 0
M  V30 17475 O 2009.74 -1.20419 -1.37134 0
M  V30 17476 C 2009.79 -3.33692 1.39039 0
M  V30 17477 O 2009.51 -3.38219 2.78459 0
M  V30 17478 C 2011.01 -4.26427 1.21142 0
M  V30 17479 H 2008.23 -0.586333 0.326274 0
M  V30 17480 H 2010.77 -1.38646 1.50325 0
M  V30 17481 H 2008.93 -3.7808 0.844641 0
M  V30 17482 H 2009.34 -4.30567 2.9952 0
M  V30 17483 H 2010.82 -5.28508 1.59323 0
M  V30 17484 H 2011.29 -4.38934 0.152782 0
M  V30 17485 H 2011.9 -3.87851 1.74505 0
M  V30 17486 N 2010.22 -0.924476 -1.27637 0
M  V30 17487 C 2011.13 -0.426579 -2.30689 0
M  V30 17488 C 2012.14 0.491134 -1.66925 0
M  V30 17489 O 2013.32 0.374724 -1.97883 0
M  V30 17490 C 2010.38 0.31558 -3.45261 0
M  V30 17491 C 2009.44 -0.636655 -4.24553 0
M  V30 17492 C 2008.68 0.0701807 -5.33654 0
M  V30 17493 O 2008.9 1.29011 -5.55619 0
M  V30 17494 O 2007.83 -0.599998 -5.98902 0
M  V30 17495 H 2011.66 -1.28216 -2.75308 0
M  V30 17496 H 2009.25 -0.689699 -1.32527 0
M  V30 17497 H 2011.13 0.734315 -4.14953 0
M  V30 17498 H 2009.8 1.14682 -3.02704 0
M  V30 17499 H 2008.71 -1.105 -3.57408 0
M  V30 17500 H 2010.04 -1.43502 -4.70816 0
M  V30 17501 N 2011.69 1.41711 -0.689627 0
M  V30 17502 C 2012.66 2.29181 -0.02958 0
M  V30 17503 C 2013.66 1.44079 0.714004 0
M  V30 17504 O 2014.85 1.65297 0.549783 0
M  V30 17505 C 2011.98 3.26851 0.968583 0
M  V30 17506 H 2013.17 2.89042 -0.799656 0
M  V30 17507 H 2010.73 1.49598 -0.45279 0
M  V30 17508 H 2011.46 2.71957 1.76663 0
M  V30 17509 H 2011.25 3.89639 0.4386 0
M  V30 17510 H 2012.74 3.92412 1.42839 0
M  V30 17511 N 2013.17 0.433965 1.51507 0
M  V30 17512 C 2014.4 -0.134793 2.06962 0
M  V30 17513 C 2014.82 -1.35984 1.29962 0
M  V30 17514 O 2014.18 -1.78147 0.336629 0
M  V30 17515 C 2014.23 -0.438976 3.57918 0
M  V30 17516 O 2013.33 -1.52599 3.83128 0
M  V30 17517 H 2012.67 -0.00334493 0.663992 0
M  V30 17518 H 2015.2 0.614327 1.95159 0
M  V30 17519 H 2015.21 -0.690415 4.02116 0
M  V30 17520 H 2013.89 0.456413 4.13388 0
M  V30 17521 H 2012.47 -1.26478 3.50796 0
M  V30 17522 N 2014.65 -1.56732 0.165206 0
M  V30 17523 C 2015.58 -2.1483 -0.798785 0
M  V30 17524 C 2016.6 -1.10232 -1.19803 0
M  V30 17525 O 2017.78 -1.37442 -1.13894 0
M  V30 17526 C 2014.88 -2.67108 -2.08583 0
M  V30 17527 C 2014.06 -3.96299 -1.8511 0
M  V30 17528 C 2013.12 -4.33702 -2.97975 0
M  V30 17529 O 2012.14 -5.01692 -2.68875 0
M  V30 17530 N 2013.34 -3.94762 -4.25609 0
M  V30 17531 H 2016.11 -2.98173 -0.302127 0
M  V30 17532 H 2013.67 -1.6189 -0.0177783 0
M  V30 17533 H 2015.66 -2.89132 -2.8317 0
M  V30 17534 H 2014.23 -1.88388 -2.49457 0
M  V30 17535 H 2013.45 -3.82715 -0.944608 0
M  V30 17536 H 2014.74 -4.80686 -1.66788 0
M  V30 17537 H 2014.14 -3.40014 -4.52114 0
M  V30 17538 H 2012.7 -4.218 -4.96919 0
M  V30 17539 N 2016.13 0.10854 -1.57226 0
M  V30 17540 C 2017.08 1.15155 -2.02094 0
M  V30 17541 C 2018.07 1.42263 -0.919651 0
M  V30 17542 O 2019.28 1.42102 -1.10485 0
M  V30 17543 H 2015.65 0.388515 -0.643863 0
M  V30 17544 H 2017.62 0.746707 -2.88906 0
M  V30 17545 C 2016.37 2.46727 -2.44992 0
M  V30 17546 H 2015.69 2.26708 -3.29307 0
M  V30 17547 H 2017.13 3.18242 -2.80175 0
M  V30 17548 C 2015.59 3.10059 -1.31776 0
M  V30 17549 O 2016.12 3.96577 -0.639471 0
M  V30 17550 N 2014.33 2.70099 -1.07215 0
M  V30 17551 H 2013.88 1.99837 -1.62552 0
M  V30 17552 H 2013.83 3.12802 -0.316602 0
M  V30 17553 N 2017.61 1.52975 0.379009 0
M  V30 17554 C 2018.86 1.67728 1.12028 0
M  V30 17555 C 2019.17 0.428628 1.90846 0
M  V30 17556 O 2020.37 0.456461 2.67635 0
M  V30 17557 C 2018.83 2.96454 2.04066 0
M  V30 17558 C 2018.44 4.28534 1.30624 0
M  V30 17559 C 2020.18 3.20574 2.78267 0
M  V30 17560 C 2018.09 5.4836 2.21485 0
M  V30 17561 H 2017.02 0.624902 0.421917 0
M  V30 17562 H 2019.67 1.79474 0.382288 0
M  V30 17563 H 2018.05 2.78478 2.81542 0
M  V30 17564 H 2019.23 4.57097 0.583043 0
M  V30 17565 H 2017.54 4.10754 0.683407 0
M  V30 17566 H 2020.14 4.07279 3.4645 0
M  V30 17567 H 2020.48 2.36066 3.42898 0
M  V30 17568 H 2021.01 3.39162 2.0788 0
M  V30 17569 H 2017.75 6.35305 1.61455 0
M  V30 17570 H 2017.27 5.24095 2.91692 0
M  V30 17571 H 2018.95 5.82626 2.81346 0
M  V30 17572 N 2019.08 -0.63804 1.44107 0
M  V30 17573 C 2020.31 -1.4251 1.49995 0
M  V30 17574 C 2020.73 -1.88401 0.122604 0
M  V30 17575 O 2020.08 -1.60419 -0.870168 0
M  V30 17576 C 2020.14 -2.65002 2.45879 0
M  V30 17577 O 2019.86 -2.21025 3.78259 0
M  V30 17578 C 2021.36 -3.58203 2.61162 0
M  V30 17579 H 2018.58 -0.437285 0.508943 0
M  V30 17580 H 2021.12 -0.780912 1.89003 0
M  V30 17581 H 2019.28 -3.25527 2.10026 0
M  V30 17582 H 2019.69 -3.00388 4.29962 0
M  V30 17583 H 2021.16 -4.40776 3.32295 0
M  V30 17584 H 2021.64 -4.06556 1.6616 0
M  V30 17585 H 2022.25 -3.0355 2.97888 0
M  V30 17586 N 2020.56 -1.3089 -0.877815 0
M  V30 17587 C 2021.79 -1.2289 -1.66077 0
M  V30 17588 C 2022.2 0.209505 -1.88036 0
M  V30 17589 O 2021.54 1.14931 -1.43306 0
M  V30 17590 C 2021.61 -1.89448 -3.05532 0
M  V30 17591 C 2021.27 -3.38785 -3.06715 0
M  V30 17592 C 2022.27 -4.34661 -2.85246 0
M  V30 17593 C 2019.95 -3.8035 -3.28084 0
M  V30 17594 C 2021.95 -5.70077 -2.85116 0
M  V30 17595 C 2019.63 -5.15881 -3.27583 0
M  V30 17596 C 2020.63 -6.10555 -3.06124 0
M  V30 17597 O 2020.32 -7.43609 -3.05452 0
M  V30 17598 H 2020.05 -0.426136 -0.524771 0
M  V30 17599 H 2022.6 -1.73175 -1.10452 0
M  V30 17600 H 2020.83 -1.33702 -3.62851 0
M  V30 17601 H 2022.52 -1.7547 -3.66012 0
M  V30 17602 H 2023.29 -4.03879 -2.68526 0
M  V30 17603 H 2019.17 -3.07097 -3.4382 0
M  V30 17604 H 2022.71 -6.43948 -2.68285 0
M  V30 17605 H 2018.61 -5.463 -3.4384 0
M  V30 17606 H 2019.38 -7.52686 -3.21568 0
M  V30 17607 N 2022.04 1.0911 -1.13723 0
M  V30 17608 C 2022.99 2.14013 -0.786296 0
M  V30 17609 C 2023.97 1.59372 0.221184 0
M  V30 17610 O 2025.17 1.76983 0.024608 0
M  V30 17611 C 2022.3 3.42332 -0.257565 0
M  V30 17612 C 2021.38 4.03872 -1.29414 0
M  V30 17613 N 2021.77 4.39921 -2.49607 0
M  V30 17614 C 2020.07 4.31113 -1.14269 0
M  V30 17615 C 2020.77 4.88444 -3.15908 0
M  V30 17616 N 2019.75 4.86101 -2.43324 0
M  V30 17617 H 2023.55 2.39694 -1.70071 0
M  V30 17618 H 2021.06 1.2637 -1.02002 0
M  V30 17619 H 2023.06 4.16898 0.0121037 0
M  V30 17620 H 2021.72 3.18104 0.651135 0
M  V30 17621 H 2022.73 4.31179 -2.86889 0
M  V30 17622 H 2019.41 4.16475 -0.292414 0
M  V30 17623 H 2020.8 5.25774 -4.18344 0
M  V30 17624 N 2023.52 0.931232 1.27145 0
M  V30 17625 C 2024.76 0.580868 1.95973 0
M  V30 17626 C 2025.12 -0.862425 1.71541 0
M  V30 17627 O 2026.32 -1.32124 2.34087 0
M  V30 17628 C 2024.59 0.902054 3.45829 0
M  V30 17629 S 2026.15 0.660737 4.33797 0
M  V30 17630 H 2022.97 0.21429 0.677939 0
M  V30 17631 H 2025.57 1.20042 1.54305 0
M  V30 17632 H 2024.28 1.95008 3.61109 0
M  V30 17633 H 2023.81 0.271831 3.9246 0
M  V30 17634 H 2025.82 -0.479804 4.93875 0
M  V30 17635 N 2025 -1.41343 0.697132 0
M  V30 17636 C 2025.94 -2.30777 0.0327941 0
M  V30 17637 C 2026.91 -1.47192 -0.769652 0
M  V30 17638 O 2028.1 -1.75976 -0.737366 0
M  V30 17639 C 2025.24 -3.33252 -0.896488 0
M  V30 17640 C 2024.35 -4.31915 -0.0854899 0
M  V30 17641 C 2023.49 -5.2146 -1.01256 0
M  V30 17642 C 2022.53 -6.11791 -0.194558 0
M  V30 17643 N 2021.66 -6.93813 -1.07551 0
M  V30 17644 H 2026.5 -2.87027 0.801203 0
M  V30 17645 H 2024.04 -1.41363 0.406815 0
M  V30 17646 H 2026 -3.91216 -1.44933 0
M  V30 17647 H 2024.63 -2.78548 -1.63128 0
M  V30 17648 H 2023.68 -3.75886 0.58429 0
M  V30 17649 H 2024.99 -4.95774 0.548612 0
M  V30 17650 H 2024.15 -5.84266 -1.63457 0
M  V30 17651 H 2022.89 -4.57832 -1.68051 0
M  V30 17652 H 2021.89 -5.48032 0.440518 0
M  V30 17653 H 2023.12 -6.77474 0.469626 0
M  V30 17654 H 2021.06 -6.32792 -1.72946 0
M  V30 17655 H 2020.98 -7.54364 -0.497018 0
M  V30 17656 H 2022.25 -7.61086 -1.68429 0
M  V30 17657 N 2026.48 -0.441993 -1.51275 0
M  V30 17658 C 2027.42 0.381441 -2.29451 0
M  V30 17659 C 2028.42 1.01672 -1.35496 0
M  V30 17660 O 2029.62 0.95115 -1.52817 0
M  V30 17661 H 2026 0.141826 -0.738505 0
M  V30 17662 H 2027.97 -0.298692 -2.96901 0
M  V30 17663 C 2026.72 1.46756 -3.15211 0
M  V30 17664 H 2026.04 0.988092 -3.87397 0
M  V30 17665 H 2027.48 2.01687 -3.72959 0
M  V30 17666 C 2025.94 2.4534 -2.30889 0
M  V30 17667 O 2026.47 3.49979 -1.97173 0
M  V30 17668 N 2024.68 2.16342 -1.94022 0
M  V30 17669 H 2024.22 1.31276 -2.2164 0
M  V30 17670 H 2024.18 2.82543 -1.37902 0
M  V30 17671 N 2027.95 1.56642 -0.173515 0
M  V30 17672 C 2029.18 2.01763 0.480249 0
M  V30 17673 C 2029.6 1.05294 1.55868 0
M  V30 17674 O 2028.96 0.0328468 1.8127 0
M  V30 17675 C 2029.01 3.45473 1.03349 0
M  V30 17676 O 2028.11 3.52081 2.14739 0
M  V30 17677 H 2027.45 0.654011 0.114743 0
M  V30 17678 H 2029.98 2.02702 -0.278052 0
M  V30 17679 H 2029.99 3.84823 1.35554 0
M  V30 17680 H 2028.67 4.15184 0.243902 0
M  V30 17681 H 2027.25 3.24591 1.83562 0
M  V30 17682 N 2029.43 -0.1002 1.57281 0
M  V30 17683 C 2030.68 -0.805815 1.86103 0
M  V30 17684 C 2031.01 -1.78629 0.761925 0
M  V30 17685 O 2030.29 -1.93128 -0.230572 0
M  V30 17686 C 2030.57 -1.53909 3.25552 0
M  V30 17687 C 2030.42 -0.576946 4.46084 0
M  V30 17688 C 2031.74 -2.49088 3.62827 0
M  V30 17689 H 2028.86 -0.29149 0.676907 0
M  V30 17690 H 2031.5 -0.0695656 1.89873 0
M  V30 17691 H 2029.65 -2.16669 3.2247 0
M  V30 17692 H 2031.32 0.0432618 4.6128 0
M  V30 17693 H 2029.57 0.11008 4.3366 0
M  V30 17694 H 2030.24 -1.12705 5.40372 0
M  V30 17695 H 2032.71 -1.96423 3.66821 0
M  V30 17696 H 2031.59 -2.97415 4.61341 0
M  V30 17697 H 2031.85 -3.32614 2.9124 0
M  V30 17698 N 2030.91 -1.53174 -0.370891 0
M  V30 17699 C 2031.87 -1.7857 -1.43685 0
M  V30 17700 C 2032.87 -0.656018 -1.4681 0
M  V30 17701 O 2034.06 -0.924191 -1.47663 0
M  V30 17702 C 2031.19 -1.90295 -2.82844 0
M  V30 17703 H 2032.39 -2.73766 -1.22442 0
M  V30 17704 H 2029.94 -1.4417 -0.603713 0
M  V30 17705 H 2030.68 -0.971472 -3.09407 0
M  V30 17706 H 2030.46 -2.72456 -2.81975 0
M  V30 17707 H 2031.95 -2.11554 -3.60048 0
M  V30 17708 N 2032.39 0.630389 -1.44443 0
M  V30 17709 C 2033.62 1.41507 -1.5053 0
M  V30 17710 C 2034.03 1.88759 -0.129099 0
M  V30 17711 O 2033.37 1.61501 0.8754 0
M  V30 17712 C 2033.43 2.6686 -2.40886 0
M  V30 17713 C 2033.09 2.41399 -3.88041 0
M  V30 17714 C 2034.09 2.03181 -4.78554 0
M  V30 17715 C 2031.78 2.55016 -4.3275 0
M  V30 17716 C 2033.77 1.78909 -6.11776 0
M  V30 17717 C 2031.46 2.30359 -5.6602 0
M  V30 17718 C 2032.46 1.92364 -6.55351 0
M  V30 17719 O 2032.14 1.67981 -7.86154 0
M  V30 17720 H 2031.88 0.440388 -0.512869 0
M  V30 17721 H 2034.43 0.778074 -1.90093 0
M  V30 17722 H 2032.66 3.33199 -1.96252 0
M  V30 17723 H 2034.35 3.28864 -2.37915 0
M  V30 17724 H 2035.11 1.92217 -4.45284 0
M  V30 17725 H 2030.99 2.8356 -3.63476 0
M  V30 17726 H 2034.54 1.49178 -6.81463 0
M  V30 17727 H 2030.43 2.40932 -5.9885 0
M  V30 17728 H 2031.2 1.82221 -7.97959 0
M  V30 17729 N 2033.87 1.31354 0.870861 0
M  V30 17730 C 2034.8 1.13258 1.98111 0
M  V30 17731 C 2035.78 0.0363278 1.62559 0
M  V30 17732 O 2036.96 0.192581 1.87514 0
M  V30 17733 C 2034.09 0.730361 3.30732 0
M  V30 17734 C 2033.13 1.82952 3.85267 0
M  V30 17735 S 2033.97 3.43479 4.10832 0
M  V30 17736 C 2035.12 3.05192 5.46451 0
M  V30 17737 H 2035.36 2.07248 2.13157 0
M  V30 17738 H 2032.89 1.15829 1.02093 0
M  V30 17739 H 2034.85 0.505043 4.07381 0
M  V30 17740 H 2033.51 -0.190405 3.13522 0
M  V30 17741 H 2032.7 1.5007 4.81139 0
M  V30 17742 H 2032.3 2.00985 3.15406 0
M  V30 17743 H 2034.59 2.54029 6.28073 0
M  V30 17744 H 2035.54 4.00024 5.84283 0
M  V30 17745 H 2035.95 2.42659 5.09683 0
M  V30 17746 N 2035.34 -1.08505 1.143 0
M  V30 17747 C 2036.62 -1.77515 0.82144 0
M  V30 17748 C 2037 -1.99668 -0.685253 0
M  V30 17749 O 2036.35 -1.60569 -1.62573 0
M  V30 17750 C 2036.56 -3.09174 1.61903 0
M  V30 17751 C 2037.91 -3.83722 1.81775 0
M  V30 17752 O 2038.93 -3.18952 1.58581 0
M  V30 17753 O 2037.79 -5.00023 2.20543 0
M  V30 17754 H 2034.88 -0.770315 0.300906 0
M  V30 17755 H 2037.43 -1.14976 1.24814 0
M  V30 17756 H 2036.2 -2.88593 2.64253 0
M  V30 17757 H 2035.82 -3.7944 1.1879 0
M  V30 17758 N 2036.82 -0.937962 -1.26649 0
M  V30 17759 C 2037.75 -0.402342 -2.25641 0
M  V30 17760 C 2038.77 0.472614 -1.55789 0
M  V30 17761 O 2039.96 0.283579 -1.76233 0
M  V30 17762 C 2037.06 0.441157 -3.36016 0
M  V30 17763 C 2036.23 -0.416892 -4.35409 0
M  V30 17764 C 2035.29 0.365644 -5.24928 0
M  V30 17765 O 2034.31 -0.230215 -5.68734 0
M  V30 17766 N 2035.52 1.66298 -5.5617 0
M  V30 17767 H 2038.28 -1.25333 -2.72235 0
M  V30 17768 H 2035.84 -0.806494 -1.40383 0
M  V30 17769 H 2037.83 0.971979 -3.92855 0
M  V30 17770 H 2036.4 1.19293 -2.88943 0
M  V30 17771 H 2035.62 -1.12895 -3.77688 0
M  V30 17772 H 2036.91 -1.00313 -4.98813 0
M  V30 17773 H 2036.31 2.16925 -5.22456 0
M  V30 17774 H 2034.87 2.14011 -6.15664 0
M  V30 17775 N 2038.3 1.40971 -0.704618 0
M  V30 17776 C 2039.23 2.29199 -0.00575899 0
M  V30 17777 C 2040.24 1.45259 0.735102 0
M  V30 17778 O 2041.43 1.68666 0.584302 0
M  V30 17779 C 2038.53 3.23311 1.01604 0
M  V30 17780 C 2037.71 4.36053 0.342951 0
M  V30 17781 C 2036.77 5.10679 1.26861 0
M  V30 17782 O 2035.79 5.64136 0.757556 0
M  V30 17783 N 2036.99 5.18997 2.60043 0
M  V30 17784 H 2039.76 2.89818 -0.763264 0
M  V30 17785 H 2037.32 1.52222 -0.551367 0
M  V30 17786 H 2039.31 3.70104 1.63722 0
M  V30 17787 H 2037.88 2.63937 1.675 0
M  V30 17788 H 2037.1 3.91527 -0.458254 0
M  V30 17789 H 2038.39 5.08647 -0.124708 0
M  V30 17790 H 2037.79 4.77029 3.04072 0
M  V30 17791 H 2036.34 5.69336 3.17333 0
M  V30 17792 N 2039.78 0.45001 1.51039 0
M  V30 17793 C 2041.01 -0.110496 2.06605 0
M  V30 17794 C 2041.42 -1.35362 1.31615 0
M  V30 17795 O 2040.78 -1.78515 0.379306 0
M  V30 17796 C 2040.83 -0.419948 3.59052 0
M  V30 17797 O 2040.55 0.773848 4.31211 0
M  V30 17798 C 2042.05 -1.02974 4.31174 0
M  V30 17799 H 2039.27 -0.00230221 0.670996 0
M  V30 17800 H 2041.82 0.632737 1.94465 0
M  V30 17801 H 2039.97 -1.11309 3.71065 0
M  V30 17802 H 2040.38 0.505717 5.22056 0
M  V30 17803 H 2041.86 -1.19617 5.38884 0
M  V30 17804 H 2042.34 -2.01422 3.9029 0
M  V30 17805 H 2042.94 -0.375607 4.23638 0
M  V30 17806 N 2041.26 -1.56548 0.18182 0
M  V30 17807 C 2042.5 -1.96807 -0.459512 0
M  V30 17808 C 2042.83 -1.06933 -1.63065 0
M  V30 17809 O 2042.1 -0.137842 -1.95414 0
M  V30 17810 H 2040.68 -0.72675 -0.172753 0
M  V30 17811 H 2043.34 -1.93084 0.265455 0
M  V30 17812 H 2042.43 -3.01338 -0.812522 0
M  V30 17813 N 2042.73 0.0918577 -1.57332 0
M  V30 17814 C 2043.68 1.13005 -2.03304 0
M  V30 17815 C 2044.68 1.4128 -0.934688 0
M  V30 17816 O 2045.88 1.40923 -1.11986 0
M  V30 17817 H 2042.26 0.381664 -0.647948 0
M  V30 17818 H 2044.23 0.716022 -2.89682 0
M  V30 17819 C 2042.98 2.44114 -2.47595 0
M  V30 17820 H 2042.3 2.23203 -3.31694 0
M  V30 17821 H 2043.74 3.15252 -2.83535 0
M  V30 17822 C 2042.2 3.08644 -1.35057 0
M  V30 17823 O 2042.73 3.95877 -0.681498 0
M  V30 17824 N 2040.94 2.68946 -1.10074 0
M  V30 17825 H 2040.48 1.98101 -1.64662 0
M  V30 17826 H 2040.44 3.12448 -0.349761 0
M  V30 17827 N 2044.21 1.53368 0.362763 0
M  V30 17828 C 2045.14 1.82984 1.45048 0
M  V30 17829 C 2046.12 0.683544 1.55762 0
M  V30 17830 O 2047.31 0.933658 1.70283 0
M  V30 17831 C 2044.44 2.02227 2.8235 0
M  V30 17832 C 2043.39 3.18002 2.86459 0
M  V30 17833 C 2042.72 3.22543 4.26463 0
M  V30 17834 C 2044.02 4.56531 2.53726 0
M  V30 17835 H 2045.71 2.74075 1.20513 0
M  V30 17836 H 2043.26 1.31877 0.578302 0
M  V30 17837 H 2045.21 2.21529 3.58473 0
M  V30 17838 H 2043.94 1.07849 3.08279 0
M  V30 17839 H 2042.59 2.98525 2.12787 0
M  V30 17840 H 2042.24 2.25797 4.49472 0
M  V30 17841 H 2041.94 4.00331 4.30127 0
M  V30 17842 H 2043.47 3.44032 5.04455 0
M  V30 17843 H 2044.88 4.75975 3.19563 0
M  V30 17844 H 2043.28 5.36581 2.68703 0
M  V30 17845 H 2044.35 4.61451 1.48967 0
M  V30 17846 N 2045.69 -0.62272 1.44776 0
M  V30 17847 C 2046.64 -1.73427 1.52288 0
M  V30 17848 C 2047.61 -1.61928 0.369917 0
M  V30 17849 O 2048.79 -1.81729 0.581308 0
M  V30 17850 C 2045.93 -3.117 1.48112 0
M  V30 17851 C 2045.05 -3.34114 2.73847 0
M  V30 17852 C 2044.18 -4.62407 2.61445 0
M  V30 17853 C 2043.22 -4.78027 3.82304 0
M  V30 17854 N 2042.36 -5.97605 3.68528 0
M  V30 17855 H 2047.2 -1.66341 2.47254 0
M  V30 17856 H 2044.73 -0.811311 1.22704 0
M  V30 17857 H 2046.69 -3.91678 1.4368 0
M  V30 17858 H 2045.32 -3.1778 0.567076 0
M  V30 17859 H 2044.37 -2.48017 2.8843 0
M  V30 17860 H 2045.69 -3.41533 3.63533 0
M  V30 17861 H 2044.84 -5.50558 2.54894 0
M  V30 17862 H 2043.58 -4.5736 1.69333 0
M  V30 17863 H 2042.58 -3.88303 3.89231 0
M  V30 17864 H 2043.81 -4.84883 4.75464 0
M  V30 17865 H 2041.75 -5.93631 2.79173 0
M  V30 17866 H 2041.67 -6.06118 4.51838 0
M  V30 17867 H 2042.94 -6.88295 3.65883 0
M  V30 17868 N 2047.17 -1.31814 -0.863883 0
M  V30 17869 C 2048.12 -1.19976 -1.97166 0
M  V30 17870 C 2049.09 -0.0840886 -1.65887 0
M  V30 17871 O 2050.27 -0.258021 -1.89047 0
M  V30 17872 C 2047.41 -0.919316 -3.3263 0
M  V30 17873 C 2046.52 -2.1189 -3.76466 0
M  V30 17874 C 2045.66 -1.77472 -5.00677 0
M  V30 17875 C 2044.7 -2.93804 -5.36978 0
M  V30 17876 N 2043.83 -2.59541 -6.52367 0
M  V30 17877 H 2048.67 -2.14735 -2.06623 0
M  V30 17878 H 2046.21 -1.06811 -1.01143 0
M  V30 17879 H 2048.17 -0.737251 -4.10634 0
M  V30 17880 H 2046.8 -0.0085443 -3.22799 0
M  V30 17881 H 2045.85 -2.41154 -2.94192 0
M  V30 17882 H 2047.16 -2.98939 -3.99295 0
M  V30 17883 H 2046.32 -1.55764 -5.86364 0
M  V30 17884 H 2045.06 -0.876231 -4.79764 0
M  V30 17885 H 2044.06 -3.16154 -4.49807 0
M  V30 17886 H 2045.29 -3.84371 -5.59853 0
M  V30 17887 H 2043.23 -1.72222 -6.32989 0
M  V30 17888 H 2043.15 -3.4012 -6.7517 0
M  V30 17889 H 2044.42 -2.4124 -7.41231 0
M  V30 17890 N 2048.65 1.07897 -1.14873 0
M  V30 17891 C 2049.61 2.13129 -0.843128 0
M  V30 17892 C 2050.61 1.60055 0.154606 0
M  V30 17893 O 2051.8 1.74041 -0.0743665 0
M  V30 17894 C 2048.93 3.39924 -0.257826 0
M  V30 17895 H 2050.12 2.41671 -1.77581 0
M  V30 17896 H 2047.68 1.23696 -0.955463 0
M  V30 17897 H 2048.41 3.17019 0.683318 0
M  V30 17898 H 2048.2 3.79745 -0.97654 0
M  V30 17899 H 2049.69 4.17555 -0.0613986 0
M  V30 17900 N 2050.12 0.944665 1.2615 0
M  V30 17901 C 2051.05 0.47478 2.28622 0
M  V30 17902 C 2052.04 -0.473742 1.6337 0
M  V30 17903 O 2053.22 -0.374847 1.90548 0
M  V30 17904 C 2050.35 -0.2576 3.46343 0
M  V30 17905 C 2049.3 0.604701 4.23707 0
M  V30 17906 C 2048.63 -0.257841 5.34078 0
M  V30 17907 C 2049.93 1.8778 4.87377 0
M  V30 17908 H 2051.62 1.33122 2.68177 0
M  V30 17909 H 2049.17 0.641555 1.28919 0
M  V30 17910 H 2051.12 -0.597382 4.17144 0
M  V30 17911 H 2049.85 -1.14821 3.05751 0
M  V30 17912 H 2048.51 0.927426 3.54675 0
M  V30 17913 H 2048.15 -1.1479 4.89727 0
M  V30 17914 H 2047.85 0.315739 5.86751 0
M  V30 17915 H 2049.38 -0.592815 6.07715 0
M  V30 17916 H 2050.79 1.60505 5.50374 0
M  V30 17917 H 2049.19 2.39623 5.50182 0
M  V30 17918 H 2050.26 2.58705 4.10122 0
M  V30 17919 N 2051.6 -1.40596 0.712085 0
M  V30 17920 C 2052.53 -2.33389 0.0719438 0
M  V30 17921 C 2053.51 -1.52706 -0.749334 0
M  V30 17922 O 2054.7 -1.81185 -0.698968 0
M  V30 17923 C 2051.83 -3.36659 -0.853122 0
M  V30 17924 C 2050.78 -4.27778 -0.137724 0
M  V30 17925 C 2050.11 -5.21556 -1.17827 0
M  V30 17926 C 2051.41 -5.12521 1.00597 0
M  V30 17927 H 2053.1 -2.87169 0.847002 0
M  V30 17928 H 2050.65 -1.38077 0.408756 0
M  V30 17929 H 2052.6 -4.00511 -1.31031 0
M  V30 17930 H 2051.33 -2.81266 -1.66004 0
M  V30 17931 H 2049.98 -3.65374 0.299603 0
M  V30 17932 H 2049.63 -4.6247 -1.97814 0
M  V30 17933 H 2049.33 -5.83361 -0.704503 0
M  V30 17934 H 2050.86 -5.88285 -1.63563 0
M  V30 17935 H 2052.27 -5.69847 0.62831 0
M  V30 17936 H 2050.67 -5.83351 1.40789 0
M  V30 17937 H 2051.74 -4.48706 1.83822 0
M  V30 17938 N 2053.08 -0.458013 -1.50798 0
M  V30 17939 C 2054.01 0.333063 -2.31112 0
M  V30 17940 C 2054.99 1.00231 -1.37433 0
M  V30 17941 O 2056.18 1.00199 -1.66354 0
M  V30 17942 C 2053.31 1.4229 -3.16814 0
M  V30 17943 C 2052.26 0.875993 -4.1894 0
M  V30 17944 C 2051.59 2.06313 -4.93294 0
M  V30 17945 C 2052.89 -0.103786 -5.22197 0
M  V30 17946 H 2054.58 -0.337222 -2.97495 0
M  V30 17947 H 2052.13 -0.163622 -1.43067 0
M  V30 17948 H 2054.08 1.98369 -3.7179 0
M  V30 17949 H 2052.8 2.12177 -2.48291 0
M  V30 17950 H 2051.46 0.337263 -3.65045 0
M  V30 17951 H 2051.11 2.74868 -4.21256 0
M  V30 17952 H 2050.81 1.70348 -5.62366 0
M  V30 17953 H 2052.33 2.62908 -5.511 0
M  V30 17954 H 2053.75 0.367392 -5.72122 0
M  V30 17955 H 2052.15 -0.377048 -5.98914 0
M  V30 17956 H 2053.22 -1.03392 -4.73749 0
M  V30 17957 N 2054.56 1.56449 -0.190119 0
M  V30 17958 C 2055.49 2.16074 0.764507 0
M  V30 17959 C 2056.5 1.12124 1.18034 0
M  V30 17960 O 2057.69 1.39237 1.11693 0
M  V30 17961 C 2054.79 2.70392 2.04307 0
M  V30 17962 C 2053.97 3.99194 1.78782 0
M  V30 17963 C 2053.03 4.38388 2.91037 0
M  V30 17964 O 2052.05 5.05906 2.60859 0
M  V30 17965 N 2053.25 4.01483 4.19275 0
M  V30 17966 H 2056.02 2.98616 0.254652 0
M  V30 17967 H 2053.58 1.61898 -0.00797932 0
M  V30 17968 H 2055.57 2.936 2.78534 0
M  V30 17969 H 2054.14 1.92333 2.46428 0
M  V30 17970 H 2053.36 3.84169 0.883602 0
M  V30 17971 H 2054.65 4.83279 1.5912 0
M  V30 17972 H 2054.05 3.47164 4.46647 0
M  V30 17973 H 2052.6 4.29652 4.90145 0
M  V30 17974 N 2056.04 -0.0835127 1.57379 0
M  V30 17975 C 2057.29 -0.783318 1.86302 0
M  V30 17976 C 2057.61 -1.787 0.780472 0
M  V30 17977 O 2056.88 -1.94956 -0.192101 0
M  V30 17978 H 2055.46 -0.292281 0.687445 0
M  V30 17979 H 2058.12 -0.0623868 1.948 0
M  V30 17980 H 2057.21 -1.30677 2.83425 0
M  V30 17981 N 2057.52 -1.53558 -0.354624 0
M  V30 17982 C 2058.74 -1.74503 -1.12087 0
M  V30 17983 C 2059.17 -0.477817 -1.8193 0
M  V30 17984 O 2058.52 0.568868 -1.72144 0
M  V30 17985 C 2058.57 -2.91808 -2.1185 0
M  V30 17986 O 2057.68 -2.61182 -3.19152 0
M  V30 17987 H 2057.02 -0.579191 -0.324705 0
M  V30 17988 H 2059.55 -2.00483 -0.4084 0
M  V30 17989 H 2059.56 -3.18284 -2.55263 0
M  V30 17990 H 2058.23 -3.83721 -1.6041 0
M  V30 17991 H 2056.81 -2.45558 -2.80634 0
M  V30 17992 N 2058.99 0.615033 -1.45104 0
M  V30 17993 C 2059.94 1.74733 -1.53529 0
M  V30 17994 C 2060.94 1.64468 -0.405784 0
M  V30 17995 O 2062.14 1.70352 -0.581394 0
M  V30 17996 H 2058.52 0.577146 -0.482086 0
M  V30 17997 H 2060.49 1.64752 -2.48796 0
M  V30 17998 C 2059.24 3.13102 -1.51204 0
M  V30 17999 H 2058.56 3.21656 -2.3744 0
M  V30 18000 H 2060 3.92179 -1.61158 0
M  V30 18001 C 2058.46 3.36077 -0.235281 0
M  V30 18002 O 2058.99 3.95765 0.687942 0
M  V30 18003 N 2057.19 2.90294 -0.133321 0
M  V30 18004 H 2056.74 2.41903 -0.885467 0
M  V30 18005 H 2056.7 3.06041 0.720147 0
M  V30 18006 N 2060.47 1.3227 0.85688 0
M  V30 18007 C 2061.38 1.23012 1.99763 0
M  V30 18008 C 2062.4 0.144168 1.73402 0
M  V30 18009 O 2063.57 0.364429 1.98075 0
M  V30 18010 C 2060.64 0.951293 3.33394 0
M  V30 18011 C 2059.7 2.12547 3.72991 0
M  V30 18012 C 2058.93 1.85984 5.00245 0
M  V30 18013 O 2059.16 0.801321 5.64743 0
M  V30 18014 O 2058.09 2.72029 5.36921 0
M  V30 18015 H 2061.92 2.18906 2.10509 0
M  V30 18016 H 2059.5 1.12138 0.987193 0
M  V30 18017 H 2061.38 0.812192 4.13499 0
M  V30 18018 H 2060.06 0.0224976 3.23692 0
M  V30 18019 H 2058.96 2.32003 2.93471 0
M  V30 18020 H 2060.3 3.03697 3.87336 0
M  V30 18021 N 2061.95 -1.07287 1.15444 0
M  V30 18022 C 2063.2 -1.79277 0.924257 0
M  V30 18023 C 2063.51 -1.8771 -0.549932 0
M  V30 18024 O 2064.72 -2.56229 -0.897718 0
M  V30 18025 C 2063.17 -3.22168 1.60424 0
M  V30 18026 C 2062.78 -3.21934 3.11549 0
M  V30 18027 C 2064.53 -3.98763 1.45563 0
M  V30 18028 C 2062.43 -4.59482 3.72331 0
M  V30 18029 H 2061.36 -0.671898 0.342153 0
M  V30 18030 H 2064.01 -1.20415 1.38465 0
M  V30 18031 H 2062.4 -3.81227 1.07154 0
M  V30 18032 H 2063.57 -2.72516 3.7158 0
M  V30 18033 H 2061.88 -2.58836 3.26179 0
M  V30 18034 H 2064.48 -5.00423 1.88364 0
M  V30 18035 H 2064.82 -4.14343 0.403205 0
M  V30 18036 H 2065.36 -3.46201 1.95933 0
M  V30 18037 H 2062.1 -4.49106 4.77476 0
M  V30 18038 H 2061.62 -5.09135 3.17083 0
M  V30 18039 H 2063.3 -5.2845 3.73296 0
M  V30 18040 N 2063.43 -0.951342 -1.25647 0
M  V30 18041 C 2064.34 -0.475416 -2.29732 0
M  V30 18042 C 2065.35 0.455617 -1.67929 0
M  V30 18043 O 2066.53 0.332666 -1.98634 0
M  V30 18044 C 2063.59 0.242274 -3.45852 0
M  V30 18045 C 2062.66 -0.726566 -4.23107 0
M  V30 18046 C 2061.89 -0.043031 -5.33683 0
M  V30 18047 O 2062.11 1.17196 -5.5823 0
M  V30 18048 O 2061.05 -0.726899 -5.97495 0
M  V30 18049 H 2064.87 -1.34027 -2.72526 0
M  V30 18050 H 2062.46 -0.717655 -1.31035 0
M  V30 18051 H 2064.34 0.646132 -4.16417 0
M  V30 18052 H 2063.01 1.08236 -3.05068 0
M  V30 18053 H 2061.92 -1.18057 -3.54984 0
M  V30 18054 H 2063.25 -1.53457 -4.67666 0
M  V30 18055 N 2064.91 1.40216 -0.719531 0
M  V30 18056 C 2066.15 2.00047 -0.25771 0
M  V30 18057 C 2066.47 1.57718 1.15692 0
M  V30 18058 O 2067.67 2.10275 1.71746 0
M  V30 18059 C 2066.13 3.57559 -0.409824 0
M  V30 18060 C 2065.74 4.08859 -1.83134 0
M  V30 18061 C 2067.48 4.24499 -0.00899594 0
M  V30 18062 C 2065.39 5.58889 -1.93383 0
M  V30 18063 H 2064.32 0.748293 -0.0925975 0
M  V30 18064 H 2066.97 1.60406 -0.891188 0
M  V30 18065 H 2065.35 3.9492 0.292302 0
M  V30 18066 H 2066.53 3.82867 -2.56417 0
M  V30 18067 H 2064.84 3.54529 -2.18399 0
M  V30 18068 H 2067.44 5.34661 -0.0647997 0
M  V30 18069 H 2067.78 4.03267 1.0335 0
M  V30 18070 H 2068.31 3.92258 -0.66171 0
M  V30 18071 H 2065.05 5.8498 -2.95767 0
M  V30 18072 H 2064.57 5.86733 -1.24517 0
M  V30 18073 H 2066.25 6.24054 -1.70778 0
M  V30 18074 N 2066.38 0.466004 1.50553 0
M  V30 18075 C 2067.8 0.119867 1.59149 0
M  V30 18076 C 2068 -1.37324 1.47459 0
M  V30 18077 O 2067.06 -2.14604 1.33047 0
M  V30 18078 C 2068.37 0.665532 2.93243 0
M  V30 18079 C 2069.92 0.628507 3.06625 0
M  V30 18080 C 2070.39 1.15163 4.43285 0
M  V30 18081 N 2071.88 1.11082 4.49683 0
M  V30 18082 C 2072.62 1.48615 5.53806 0
M  V30 18083 N 2072.11 1.93573 6.65208 0
M  V30 18084 N 2073.91 1.4025 5.44322 0
M  V30 18085 H 2066.06 1.43716 1.56395 0
M  V30 18086 H 2068.32 0.594011 0.73882 0
M  V30 18087 H 2068.03 1.71132 3.07257 0
M  V30 18088 H 2067.9 0.106264 3.7705 0
M  V30 18089 H 2070.29 -0.408356 2.92261 0
M  V30 18090 H 2070.37 1.22452 2.24587 0
M  V30 18091 H 2070.01 2.1871 4.58398 0
M  V30 18092 H 2069.94 0.531882 5.23907 0
M  V30 18093 H 2072.43 0.781025 3.69741 0
M  V30 18094 H 2072.75 2.20373 7.40713 0
M  V30 18095 H 2071.09 1.97521 6.66341 0
M  V30 18096 H 2074.28 1.04972 4.56178 0
M  V30 18097 H 2074.46 1.69827 6.2535 0
M  V30 18098 N 2067.86 -1.56346 0.198413 0
M  V30 18099 C 2068.82 -2.1801 -0.707414 0
M  V30 18100 C 2069.82 -1.13547 -1.13858 0
M  V30 18101 O 2071.01 -1.38913 -1.05114 0
M  V30 18102 C 2068.15 -2.78484 -1.96621 0
M  V30 18103 H 2069.34 -2.99417 -0.170156 0
M  V30 18104 H 2066.89 -1.56216 -0.0512075 0
M  V30 18105 H 2067.63 -2.00884 -2.5459 0
M  V30 18106 H 2067.41 -3.54959 -1.66574 0
M  V30 18107 H 2068.9 -3.25823 -2.61207 0
M  V30 18108 N 2069.34 0.0751653 -1.57421 0
M  V30 18109 C 2070.25 1.10763 -2.06806 0
M  V30 18110 C 2071.27 1.4261 -0.99691 0
M  V30 18111 O 2072.44 1.52854 -1.31139 0
M  V30 18112 C 2069.51 2.40281 -2.49932 0
M  V30 18113 C 2068.57 2.15435 -3.7133 0
M  V30 18114 C 2067.8 3.38777 -4.1239 0
M  V30 18115 O 2068.02 4.4777 -3.53353 0
M  V30 18116 O 2066.96 3.27189 -5.05204 0
M  V30 18117 H 2070.78 0.718102 -2.95088 0
M  V30 18118 H 2068.37 0.289065 -1.46577 0
M  V30 18119 H 2070.25 3.16509 -2.78208 0
M  V30 18120 H 2068.93 2.7862 -1.64781 0
M  V30 18121 H 2067.83 1.36922 -3.48142 0
M  V30 18122 H 2069.17 1.81978 -4.57324 0
M  V30 18123 N 2070.82 1.53744 0.346476 0
M  V30 18124 C 2072.07 1.70512 1.0849 0
M  V30 18125 C 2072.39 0.469467 1.89264 0
M  V30 18126 O 2071.66 -0.516594 1.88966 0
M  V30 18127 H 2070.24 0.628636 0.403517 0
M  V30 18128 H 2072.9 1.9099 0.388459 0
M  V30 18129 H 2072 2.57472 1.76394 0
M  V30 18130 N 2072.3 -0.607329 1.45428 0
M  V30 18131 C 2073.24 -1.73916 1.54454 0
M  V30 18132 C 2074.24 -1.64251 0.4145 0
M  V30 18133 O 2075.44 -1.70041 0.59042 0
M  V30 18134 H 2071.82 -0.574581 0.48514 0
M  V30 18135 H 2073.79 -1.6343 2.49666 0
M  V30 18136 C 2072.54 -3.12295 1.52863 0
M  V30 18137 H 2071.86 -3.20392 2.39142 0
M  V30 18138 H 2073.3 -3.91318 1.63236 0
M  V30 18139 C 2071.76 -3.35948 0.2531 0
M  V30 18140 O 2072.29 -3.96125 -0.666944 0
M  V30 18141 N 2070.5 -2.90219 0.148714 0
M  V30 18142 H 2070.04 -2.4143 0.898284 0
M  V30 18143 H 2070 -3.06419 -0.703907 0
M  V30 18144 N 2073.77 -1.32722 -0.849853 0
M  V30 18145 C 2075 -1.2671 -1.64193 0
M  V30 18146 C 2075.42 0.161092 -1.87409 0
M  V30 18147 O 2074.78 1.11408 -1.43031 0
M  V30 18148 C 2074.83 -2.03686 -2.97564 0
M  V30 18149 O 2073.93 -1.38794 -3.88343 0
M  V30 18150 H 2073.28 -0.436459 -0.5004 0
M  V30 18151 H 2075.81 -1.75113 -1.05813 0
M  V30 18152 H 2075.82 -2.1404 -3.47349 0
M  V30 18153 H 2074.49 -3.07537 -2.79989 0
M  V30 18154 H 2073.07 -1.37018 -3.46815 0
M  V30 18155 N 2075.25 1.06673 -1.16011 0
M  V30 18156 C 2076.67 1.31515 -0.90421 0
M  V30 18157 C 2076.87 1.96524 0.445021 0
M  V30 18158 O 2075.92 2.22945 1.18541 0
M  V30 18159 C 2077.24 2.19955 -2.05037 0
M  V30 18160 C 2078.79 2.33384 -2.08569 0
M  V30 18161 C 2079.26 3.25176 -3.22528 0
M  V30 18162 N 2080.75 3.32759 -3.2222 0
M  V30 18163 C 2081.49 4.03866 -4.07038 0
M  V30 18164 N 2080.98 4.77529 -5.01934 0
M  V30 18165 N 2082.78 3.99877 -3.95037 0
M  V30 18166 H 2074.93 0.628672 -2.02883 0
M  V30 18167 H 2077.19 0.339704 -0.885045 0
M  V30 18168 H 2076.9 1.79458 -3.02469 0
M  V30 18169 H 2076.77 3.20521 -1.98862 0
M  V30 18170 H 2079.16 2.7313 -1.11732 0
M  V30 18171 H 2079.24 1.32499 -2.1881 0
M  V30 18172 H 2078.88 2.86147 -4.19622 0
M  V30 18173 H 2078.81 4.26031 -3.09524 0
M  V30 18174 H 2081.3 2.80259 -2.53502 0
M  V30 18175 H 2081.62 5.29302 -5.6308 0
M  V30 18176 H 2079.96 4.76522 -5.05917 0
M  V30 18177 H 2083.15 3.41446 -3.20207 0
M  V30 18178 H 2083.32 4.55027 -4.61361 0
M  V30 18179 N 2076.73 0.957992 1.25141 0
M  V30 18180 C 2077.98 0.614592 1.92948 0
M  V30 18181 C 2078.31 -0.848868 1.74999 0
M  V30 18182 O 2077.56 -1.62488 1.09069 0
M  V30 18183 C 2077.86 0.923523 3.45262 0
M  V30 18184 C 2077.53 2.37356 3.83371 0
M  V30 18185 C 2076.19 2.7699 3.93484 0
M  V30 18186 C 2078.54 3.31508 4.02184 0
M  V30 18187 C 2075.87 4.09838 4.19821 0
M  V30 18188 C 2078.22 4.63973 4.30014 0
M  V30 18189 C 2076.88 5.03398 4.38345 0
M  V30 18190 H 2076.15 0.224895 0.706048 0
M  V30 18191 H 2078.8 1.20766 1.4862 0
M  V30 18192 H 2077.11 0.248102 3.91014 0
M  V30 18193 H 2078.8 0.636357 3.95919 0
M  V30 18194 H 2075.39 2.05619 3.76057 0
M  V30 18195 H 2079.58 3.02076 3.93781 0
M  V30 18196 H 2074.83 4.40023 4.24488 0
M  V30 18197 H 2079.01 5.36905 4.43516 0
M  V30 18198 H 2076.63 6.06363 4.58506 0
M  V30 18199 N 2078.21 -1.39832 0.726957 0
M  V30 18200 C 2079.44 -2.04978 0.281383 0
M  V30 18201 C 2079.85 -1.54795 -1.08092 0
M  V30 18202 O 2079.21 -0.709375 -1.68149 0
M  V30 18203 C 2079.26 -3.60526 0.265184 0
M  V30 18204 O 2078.98 -4.0886 1.5737 0
M  V30 18205 C 2080.48 -4.4286 -0.197547 0
M  V30 18206 H 2077.7 -0.659374 0.124366 0
M  V30 18207 H 2080.25 -1.7903 0.988352 0
M  V30 18208 H 2078.4 -3.85403 -0.392835 0
M  V30 18209 H 2078.81 -5.03132 1.48183 0
M  V30 18210 H 2080.29 -5.51775 -0.157727 0
M  V30 18211 H 2080.77 -4.21288 -1.24149 0
M  V30 18212 H 2081.37 -4.23114 0.430611 0
M  V30 18213 N 2079.69 -0.473982 -1.50304 0
M  V30 18214 C 2080.92 0.0775007 -2.06455 0
M  V30 18215 C 2081.32 1.33801 -1.33768 0
M  V30 18216 O 2080.67 1.79261 -0.401381 0
M  V30 18217 C 2080.73 0.428656 -3.56935 0
M  V30 18218 C 2080.39 -0.730244 -4.51128 0
M  V30 18219 C 2081.39 -1.6131 -4.94242 0
M  V30 18220 C 2079.08 -0.92139 -4.93777 0
M  V30 18221 C 2081.07 -2.67149 -5.78714 0
M  V30 18222 C 2078.76 -1.98299 -5.78032 0
M  V30 18223 C 2079.75 -2.85641 -6.20402 0
M  V30 18224 O 2079.44 -3.89973 -7.02977 0
M  V30 18225 H 2079.17 -0.00505561 -0.675981 0
M  V30 18226 H 2081.73 -0.662628 -1.94418 0
M  V30 18227 H 2079.96 1.22201 -3.66884 0
M  V30 18228 H 2081.65 0.915562 -3.95439 0
M  V30 18229 H 2082.41 -1.47713 -4.61959 0
M  V30 18230 H 2078.29 -0.251023 -4.60316 0
M  V30 18231 H 2081.84 -3.35352 -6.11706 0
M  V30 18232 H 2077.73 -2.11903 -6.09727 0
M  V30 18233 H 2078.5 -3.86996 -7.21232 0
M  V30 18234 N 2081.16 1.56239 -0.206702 0
M  V30 18235 C 2082.39 2.02736 0.437344 0
M  V30 18236 C 2082.81 1.08577 1.53599 0
M  V30 18237 O 2082.17 0.0712895 1.8116 0
M  V30 18238 C 2082.22 3.47587 0.959974 0
M  V30 18239 O 2081.32 3.56556 2.07223 0
M  V30 18240 H 2080.67 0.656297 0.100845 0
M  V30 18241 H 2083.2 2.02066 -0.320985 0
M  V30 18242 H 2083.21 3.87612 1.27361 0
M  V30 18243 H 2081.88 4.15608 0.15578 0
M  V30 18244 H 2080.46 3.28412 1.76635 0
M  V30 18245 N 2082.64 -0.0668159 1.57458 0
M  V30 18246 C 2083.89 -0.766159 1.87771 0
M  V30 18247 C 2084.22 -1.76973 0.799644 0
M  V30 18248 O 2083.5 -1.93574 -0.189554 0
M  V30 18249 C 2083.78 -1.46969 3.28743 0
M  V30 18250 C 2083.63 -0.482195 4.47208 0
M  V30 18251 C 2084.95 -2.41336 3.68029 0
M  V30 18252 H 2082.07 -0.277066 0.682937 0
M  V30 18253 H 2084.71 -0.0292751 1.89977 0
M  V30 18254 H 2082.86 -2.09781 3.26993 0
M  V30 18255 H 2084.53 0.141096 4.61084 0
M  V30 18256 H 2082.78 0.202041 4.33329 0
M  V30 18257 H 2083.45 -1.01218 5.42641 0
M  V30 18258 H 2085.92 -1.88598 3.70905 0
M  V30 18259 H 2084.8 -2.87562 4.67546 0
M  V30 18260 H 2085.06 -3.26361 2.98229 0
M  V30 18261 N 2084.12 -1.53926 -0.338317 0
M  V30 18262 C 2085.35 -1.75368 -1.09789 0
M  V30 18263 C 2085.76 -0.495294 -1.82187 0
M  V30 18264 O 2085.12 0.533316 -1.74534 0
M  V30 18265 C 2085.17 -2.93722 -2.10736 0
M  V30 18266 O 2084.89 -4.14695 -1.4128 0
M  V30 18267 C 2086.39 -3.27258 -2.99027 0
M  V30 18268 H 2083.61 -0.585824 -0.327188 0
M  V30 18269 H 2086.16 -2.00767 -0.388932 0
M  V30 18270 H 2084.31 -2.70639 -2.77188 0
M  V30 18271 H 2084.73 -4.81165 -2.08759 0
M  V30 18272 H 2086.2 -4.13409 -3.65783 0
M  V30 18273 H 2086.68 -2.43786 -3.65329 0
M  V30 18274 H 2087.28 -3.52366 -2.38156 0
M  V30 18275 N 2085.6 0.599608 -1.45748 0
M  V30 18276 C 2086.85 1.3604 -1.50403 0
M  V30 18277 C 2087.18 1.93632 -0.148419 0
M  V30 18278 O 2086.45 1.75516 0.838118 0
M  V30 18279 C 2086.74 2.50237 -2.58946 0
M  V30 18280 C 2086.59 1.9779 -4.03979 0
M  V30 18281 C 2087.91 3.52344 -2.63708 0
M  V30 18282 H 2085.03 0.49329 -0.547571 0
M  V30 18283 H 2087.67 0.675178 -1.77599 0
M  V30 18284 H 2085.82 3.0869 -2.35888 0
M  V30 18285 H 2087.49 1.43925 -4.38273 0
M  V30 18286 H 2085.73 1.28734 -4.14258 0
M  V30 18287 H 2086.41 2.80147 -4.75628 0
M  V30 18288 H 2088.88 3.03746 -2.8439 0
M  V30 18289 H 2087.76 4.29728 -3.41504 0
M  V30 18290 H 2088.02 4.08481 -1.69103 0
M  V30 18291 N 2087.08 1.33171 0.842803 0
M  V30 18292 C 2088.35 1.15008 1.58216 0
M  V30 18293 C 2088.73 -0.285047 2.09167 0
M  V30 18294 O 2088.08 -1.28349 1.89047 0
M  V30 18295 C 2088.29 2.18785 2.71908 0
M  V30 18296 C 2089.64 2.52736 3.41188 0
M  V30 18297 O 2090.66 2.17422 2.82146 0
M  V30 18298 O 2089.52 3.13321 4.47763 0
M  V30 18299 H 2086.62 0.444573 0.69734 0
M  V30 18300 H 2089.16 1.44741 0.8859 0
M  V30 18301 H 2087.94 3.15201 2.31871 0
M  V30 18302 H 2087.56 1.90116 3.49202 0
M  V30 18303 N 2088.56 -1.06056 1.16576 0
M  V30 18304 C 2089.8 -1.78546 0.946876 0
M  V30 18305 C 2090.12 -1.87758 -0.526489 0
M  V30 18306 O 2089.39 -1.38801 -1.38243 0
M  V30 18307 H 2087.97 -0.661335 0.347341 0
M  V30 18308 H 2090.64 -1.28101 1.46888 0
M  V30 18309 H 2089.73 -2.80537 1.36767 0
M  V30 18310 N 2090.03 -0.964615 -1.24631 0
M  V30 18311 C 2091.27 -0.632622 -1.94364 0
M  V30 18312 C 2091.64 0.816641 -1.73767 0
M  V30 18313 O 2092.84 1.25871 -2.37508 0
M  V30 18314 C 2091.11 -0.993428 -3.43316 0
M  V30 18315 S 2092.67 -0.775518 -4.31893 0
M  V30 18316 H 2089.49 -0.232189 -0.672019 0
M  V30 18317 H 2092.09 -1.24091 -1.51068 0
M  V30 18318 H 2090.79 -2.04514 -3.55812 0
M  V30 18319 H 2090.32 -0.37579 -3.91601 0
M  V30 18320 H 2092.34 0.348693 -4.94973 0
M  V30 18321 N 2091.51 1.39445 -0.734362 0
M  V30 18322 C 2092.74 2.04826 -0.29225 0
M  V30 18323 C 2093.15 1.55366 1.0727 0
M  V30 18324 O 2092.51 0.718282 1.67771 0
M  V30 18325 C 2092.56 3.6038 -0.2843 0
M  V30 18326 O 2092.28 4.08019 -1.59536 0
M  V30 18327 C 2093.78 4.42958 0.174058 0
M  V30 18328 H 2091 0.658705 -0.127861 0
M  V30 18329 H 2093.55 1.78504 -0.997833 0
M  V30 18330 H 2091.7 3.85606 0.372391 0
M  V30 18331 H 2092.12 5.02339 -1.50849 0
M  V30 18332 H 2093.59 5.5185 0.128462 0
M  V30 18333 H 2094.07 4.21941 1.21913 0
M  V30 18334 H 2094.67 4.2288 -0.453043 0
M  V30 18335 N 2092.99 0.481946 1.5005 0
M  V30 18336 C 2094.21 -0.0688814 2.07286 0
M  V30 18337 C 2094.64 -1.3178 1.34222 0
M  V30 18338 O 2094 -1.76986 0.393135 0
M  V30 18339 C 2094.05 -0.324885 3.59133 0
M  V30 18340 O 2093.15 -1.40333 3.87789 0
M  V30 18341 H 2092.49 0.0177812 0.663762 0
M  V30 18342 H 2095.02 0.676104 1.93106 0
M  V30 18343 H 2095.03 -0.562135 4.04109 0
M  V30 18344 H 2093.71 0.587698 4.11727 0
M  V30 18345 H 2092.28 -1.15253 3.54642 0
M  V30 18346 N 2094.47 -1.56127 0.214985 0
M  V30 18347 C 2095.42 -2.16628 -0.711066 0
M  V30 18348 C 2096.4 -1.11271 -1.16222 0
M  V30 18349 O 2097.59 -1.37278 -1.11731 0
M  V30 18350 C 2094.72 -2.84465 -1.92184 0
M  V30 18351 C 2093.81 -3.97039 -1.49067 0
M  V30 18352 N 2094.2 -4.99879 -0.771666 0
M  V30 18353 C 2092.5 -4.09007 -1.77846 0
M  V30 18354 C 2093.2 -5.79068 -0.55272 0
M  V30 18355 N 2092.17 -5.322 -1.10745 0
M  V30 18356 H 2095.98 -2.935 -0.153234 0
M  V30 18357 H 2093.49 -1.62392 0.0159773 0
M  V30 18358 H 2095.49 -3.26215 -2.59595 0
M  V30 18359 H 2094.15 -2.09087 -2.48421 0
M  V30 18360 H 2095.16 -5.16153 -0.425036 0
M  V30 18361 H 2091.84 -3.44775 -2.35449 0
M  V30 18362 H 2093.23 -6.71897 0.019071 0
M  V30 18363 N 2095.95 0.0584645 -1.57492 0
M  V30 18364 C 2097.17 0.767637 -1.92133 0
M  V30 18365 C 2097.59 1.70438 -0.812178 0
M  V30 18366 O 2096.95 1.81246 0.213598 0
M  V30 18367 C 2097 1.54992 -3.26588 0
M  V30 18368 O 2096.72 0.650813 -4.33239 0
M  V30 18369 C 2098.22 2.3589 -3.75328 0
M  V30 18370 H 2095.44 0.2175 -0.634772 0
M  V30 18371 H 2097.98 0.0247547 -2.04485 0
M  V30 18372 H 2096.14 2.24495 -3.15722 0
M  V30 18373 H 2096.55 1.19628 -5.10675 0
M  V30 18374 H 2098.03 2.86216 -4.72 0
M  V30 18375 H 2098.5 3.16011 -3.05014 0
M  V30 18376 H 2099.11 1.71518 -3.89181 0
M  V30 18377 N 2097.42 1.54103 0.330149 0
M  V30 18378 C 2098.67 1.71653 1.06675 0
M  V30 18379 C 2098.99 0.489514 1.88756 0
M  V30 18380 O 2098.26 -0.496523 1.89503 0
M  V30 18381 H 2096.84 0.63288 0.396827 0
M  V30 18382 H 2099.5 1.91391 0.36818 0
M  V30 18383 H 2098.6 2.59328 1.73653 0
M  V30 18384 N 2098.9 -0.59187 1.46064 0
M  V30 18385 C 2099.87 -1.68357 1.55526 0
M  V30 18386 C 2100.87 -1.54854 0.433247 0
M  V30 18387 O 2102.06 -1.59637 0.697258 0
M  V30 18388 C 2099.19 -3.07729 1.46683 0
M  V30 18389 H 2100.38 -1.61328 2.5281 0
M  V30 18390 H 2097.93 -0.808941 1.33738 0
M  V30 18391 H 2098.67 -3.20321 0.506433 0
M  V30 18392 H 2098.45 -3.18939 2.2808 0
M  V30 18393 H 2099.94 -3.87218 1.5637 0
M  V30 18394 N 2100.38 -1.33616 -0.835729 0
M  V30 18395 C 2101.63 -1.26446 -1.59321 0
M  V30 18396 C 2101.98 0.167445 -1.9167 0
M  V30 18397 O 2101.27 1.11036 -1.56146 0
M  V30 18398 C 2101.47 -2.07621 -2.90909 0
M  V30 18399 C 2101.3 -3.5856 -2.71413 0
M  V30 18400 C 2100.07 -4.27867 -2.68809 0
M  V30 18401 C 2102.27 -4.52828 -2.43827 0
M  V30 18402 N 2100.25 -5.64735 -2.40723 0
M  V30 18403 C 2101.62 -5.77608 -2.2532 0
M  V30 18404 C 2103.67 -4.41879 -2.2945 0
M  V30 18405 C 2102.38 -6.92674 -1.93895 0
M  V30 18406 C 2104.4 -5.56764 -1.99417 0
M  V30 18407 C 2103.76 -6.80555 -1.81725 0
M  V30 18408 H 2099.86 -0.517904 -0.585917 0
M  V30 18409 H 2102.45 -1.68191 -0.980805 0
M  V30 18410 H 2100.62 -1.68192 -3.50094 0
M  V30 18411 H 2102.35 -1.92195 -3.5615 0
M  V30 18412 H 2099.11 -3.80173 -2.82428 0
M  V30 18413 H 2099.53 -6.36893 -2.29556 0
M  V30 18414 H 2104.17 -3.46805 -2.4184 0
M  V30 18415 H 2101.89 -7.87743 -1.80242 0
M  V30 18416 H 2105.48 -5.50231 -1.89044 0
M  V30 18417 H 2104.36 -7.67949 -1.58821 0
M  V30 18418 N 2101.86 1.05436 -1.17136 0
M  V30 18419 C 2103.11 1.78041 -0.956331 0
M  V30 18420 C 2103.43 1.88035 0.516524 0
M  V30 18421 O 2102.7 1.39532 1.37505 0
M  V30 18422 H 2101.28 0.659483 -0.350843 0
M  V30 18423 H 2103.94 1.2732 -1.47566 0
M  V30 18424 H 2103.04 2.79808 -1.38253 0
M  V30 18425 N 2103.34 0.971211 1.24118 0
M  V30 18426 C 2104.28 0.503612 2.25239 0
M  V30 18427 C 2105.25 -0.452682 1.59812 0
M  V30 18428 O 2106.44 -0.362267 1.87329 0
M  V30 18429 C 2103.58 -0.196695 3.44539 0
M  V30 18430 C 2102.69 0.798779 4.24551 0
M  V30 18431 C 2101.83 0.0742204 5.31148 0
M  V30 18432 C 2100.87 1.05952 6.0286 0
M  V30 18433 N 2100 0.364736 7.01152 0
M  V30 18434 H 2104.84 1.37074 2.64603 0
M  V30 18435 H 2102.38 0.687058 1.30069 0
M  V30 18436 H 2104.34 -0.619443 4.12576 0
M  V30 18437 H 2102.97 -1.02775 3.06002 0
M  V30 18438 H 2102.02 1.33995 3.56019 0
M  V30 18439 H 2103.33 1.54998 4.74107 0
M  V30 18440 H 2102.49 -0.40635 6.05338 0
M  V30 18441 H 2101.22 -0.709647 4.82509 0
M  V30 18442 H 2100.23 1.55093 5.27471 0
M  V30 18443 H 2101.45 1.8439 6.53588 0
M  V30 18444 H 2099.4 -0.400091 6.54779 0
M  V30 18445 H 2099.32 1.05474 7.48606 0
M  V30 18446 H 2100.59 -0.0937508 7.79444 0
M  V30 18447 N 2104.81 -1.39054 0.741747 0
M  V30 18448 C 2106.04 -2.04668 0.303108 0
M  V30 18449 C 2106.46 -1.55933 -1.06444 0
M  V30 18450 O 2105.81 -0.72717 -1.67387 0
M  V30 18451 C 2105.87 -3.60224 0.303407 0
M  V30 18452 O 2105.59 -4.07167 1.61698 0
M  V30 18453 C 2107.09 -4.43044 -0.150565 0
M  V30 18454 H 2104.31 -0.658018 0.131353 0
M  V30 18455 H 2106.85 -1.77972 1.00729 0
M  V30 18456 H 2105.01 -3.85798 -0.351936 0
M  V30 18457 H 2105.42 -5.01532 1.53511 0
M  V30 18458 H 2106.89 -5.51911 -0.0991946 0
M  V30 18459 H 2107.37 -4.22581 -1.19674 0
M  V30 18460 H 2107.98 -4.22634 0.475463 0
M  V30 18461 N 2106.29 -0.489897 -1.49792 0
M  V30 18462 C 2107.54 0.0586308 -2.02715 0
M  V30 18463 C 2107.87 1.37665 -1.36974 0
M  V30 18464 O 2107.15 1.87919 -0.501679 0
M  V30 18465 C 2107.43 0.222812 -3.5941 0
M  V30 18466 C 2107.28 -1.11755 -4.35696 0
M  V30 18467 C 2108.6 0.96865 -4.29308 0
M  V30 18468 H 2105.72 0.0198337 -0.736733 0
M  V30 18469 H 2108.36 -0.639149 -1.78927 0
M  V30 18470 H 2106.51 0.81714 -3.79809 0
M  V30 18471 H 2108.18 -1.74991 -4.26821 0
M  V30 18472 H 2106.43 -1.70959 -3.98692 0
M  V30 18473 H 2107.1 -0.956105 -5.43657 0
M  V30 18474 H 2109.57 0.464706 -4.13497 0
M  V30 18475 H 2108.45 1.05235 -5.38718 0
M  V30 18476 H 2108.71 2.00975 -3.93778 0
M  V30 18477 N 2107.77 1.56011 -0.223262 0
M  V30 18478 C 2109.02 1.97523 0.40834 0
M  V30 18479 C 2109.33 1.11401 1.60777 0
M  V30 18480 O 2110.54 1.4282 2.309 0
M  V30 18481 C 2108.99 3.51393 0.777885 0
M  V30 18482 C 2108.6 4.46221 -0.398826 0
M  V30 18483 C 2110.35 4.01614 1.37499 0
M  V30 18484 C 2108.25 5.914 -0.00675168 0
M  V30 18485 H 2107.18 0.737614 0.156337 0
M  V30 18486 H 2109.83 1.80693 -0.319744 0
M  V30 18487 H 2108.22 3.6383 1.56344 0
M  V30 18488 H 2109.39 4.45532 -1.17635 0
M  V30 18489 H 2107.71 4.06351 -0.909284 0
M  V30 18490 H 2110.3 5.0758 1.68127 0
M  V30 18491 H 2110.65 3.47566 2.29137 0
M  V30 18492 H 2111.18 3.92406 0.65284 0
M  V30 18493 H 2107.92 6.49435 -0.889654 0
M  V30 18494 H 2107.44 5.95279 0.735052 0
M  V30 18495 H 2109.12 6.4564 0.419339 0
M  V30 18496 N 2109.25 -0.0501116 1.5752 0
M  V30 18497 C 2110.16 -1.07459 2.08542 0
M  V30 18498 C 2111.17 -1.41006 1.01947 0
M  V30 18499 O 2112.35 -1.50749 1.33555 0
M  V30 18500 C 2109.42 -2.36274 2.53723 0
M  V30 18501 C 2108.48 -2.095 3.74711 0
M  V30 18502 C 2107.71 -3.32174 4.17728 0
M  V30 18503 O 2107.93 -4.42091 3.60432 0
M  V30 18504 O 2106.87 -3.1911 5.10346 0
M  V30 18505 H 2110.69 -0.671065 2.96193 0
M  V30 18506 H 2108.28 -0.265709 1.47018 0
M  V30 18507 H 2110.16 -3.12043 2.83208 0
M  V30 18508 H 2108.83 -2.75963 1.69192 0
M  V30 18509 H 2107.74 -1.31366 3.50277 0
M  V30 18510 H 2109.07 -1.74679 4.60161 0
M  V30 18511 N 2110.73 -1.54276 -0.321972 0
M  V30 18512 C 2111.96 -1.76267 -1.07766 0
M  V30 18513 C 2112.36 -0.512038 -1.8214 0
M  V30 18514 O 2111.71 0.526965 -1.75979 0
M  V30 18515 C 2111.77 -2.90328 -2.12014 0
M  V30 18516 C 2111.43 -4.29176 -1.57024 0
M  V30 18517 C 2112.43 -5.09971 -1.0112 0
M  V30 18518 C 2110.12 -4.75724 -1.6122 0
M  V30 18519 C 2112.11 -6.35425 -0.501407 0
M  V30 18520 C 2109.8 -6.01145 -1.09853 0
M  V30 18521 C 2110.79 -6.80829 -0.544086 0
M  V30 18522 O 2110.48 -8.03891 -0.0381506 0
M  V30 18523 H 2110.21 -0.592028 -0.326312 0
M  V30 18524 H 2112.77 -2.0198 -0.373274 0
M  V30 18525 H 2111 -2.6019 -2.86074 0
M  V30 18526 H 2112.69 -3.00087 -2.73317 0
M  V30 18527 H 2113.45 -4.75163 -0.971843 0
M  V30 18528 H 2109.33 -4.13744 -2.03315 0
M  V30 18529 H 2112.88 -6.97567 -0.067985 0
M  V30 18530 H 2108.77 -6.35444 -1.13496 0
M  V30 18531 H 2109.54 -8.18356 -0.153425 0
M  V30 18532 N 2112.2 0.584116 -1.46376 0
M  V30 18533 C 2113.15 1.69328 -1.56833 0
M  V30 18534 C 2114.12 1.60891 -0.412719 0
M  V30 18535 O 2115.31 1.80124 -0.629286 0
M  V30 18536 C 2112.45 3.07663 -1.56324 0
M  V30 18537 C 2111.56 3.26736 -2.82609 0
M  V30 18538 C 2110.69 4.55312 -2.73613 0
M  V30 18539 C 2109.73 4.67723 -3.94844 0
M  V30 18540 N 2108.87 5.87624 -3.84243 0
M  V30 18541 H 2113.71 1.59727 -2.51577 0
M  V30 18542 H 2111.25 0.778493 -1.24811 0
M  V30 18543 H 2113.21 3.87731 -1.54014 0
M  V30 18544 H 2111.84 3.16165 -0.651131 0
M  V30 18545 H 2110.89 2.40283 -2.94904 0
M  V30 18546 H 2112.2 3.31775 -3.72461 0
M  V30 18547 H 2111.35 5.43606 -2.69401 0
M  V30 18548 H 2110.09 4.52709 -1.81399 0
M  V30 18549 H 2109.1 3.77847 -3.99389 0
M  V30 18550 H 2110.32 4.72106 -4.88152 0
M  V30 18551 H 2108.27 5.86021 -2.94814 0
M  V30 18552 H 2108.19 5.93925 -4.67749 0
M  V30 18553 H 2109.45 6.78352 -3.84003 0
M  V30 18554 N 2113.68 1.34058 0.828631 0
M  V30 18555 C 2114.91 1.29156 1.61636 0
M  V30 18556 C 2115.33 -0.135511 1.88313 0
M  V30 18557 O 2114.68 -1.08084 1.47051 0
M  V30 18558 C 2114.73 2.07436 2.96062 0
M  V30 18559 O 2114.46 3.44577 2.70552 0
M  V30 18560 C 2115.96 2.09865 3.90476 0
M  V30 18561 H 2113.18 0.444543 0.502615 0
M  V30 18562 H 2115.72 1.76585 1.0314 0
M  V30 18563 H 2113.88 1.63663 3.51131 0
M  V30 18564 H 2114.29 3.84972 3.56225 0
M  V30 18565 H 2115.76 2.69071 4.8198 0
M  V30 18566 H 2116.24 1.09155 4.2542 0
M  V30 18567 H 2116.85 2.53702 3.41344 0
M  V30 18568 N 2115.16 -1.04814 1.17694 0
M  V30 18569 C 2116.39 -1.8155 0.99233 0
M  V30 18570 C 2116.8 -1.83126 -0.459376 0
M  V30 18571 O 2116.16 -1.26127 -1.31903 0
M  V30 18572 C 2116.21 -3.27495 1.53067 0
M  V30 18573 O 2115.93 -3.26104 2.92554 0
M  V30 18574 C 2117.43 -4.20905 1.39119 0
M  V30 18575 H 2114.65 -0.571967 0.350849 0
M  V30 18576 H 2117.2 -1.32145 1.5607 0
M  V30 18577 H 2115.35 -3.74157 1.00424 0
M  V30 18578 H 2115.77 -4.17476 3.17512 0
M  V30 18579 H 2117.24 -5.21275 1.81595 0
M  V30 18580 H 2117.72 -4.37891 0.338812 0
M  V30 18581 H 2118.32 -3.801 1.90798 0
M  V30 18582 N 2116.64 -0.977779 -1.23601 0
M  V30 18583 C 2117.59 -0.51555 -2.24968 0
M  V30 18584 C 2118.56 0.4442 -1.6005 0
M  V30 18585 O 2119.74 0.352328 -1.87519 0
M  V30 18586 C 2116.88 0.17842 -3.44638 0
M  V30 18587 C 2115.99 -0.821283 -4.24121 0
M  V30 18588 C 2115.13 -0.102387 -5.31101 0
M  V30 18589 C 2114.17 -1.09148 -6.0229 0
M  V30 18590 N 2113.31 -0.401914 -7.00949 0
M  V30 18591 H 2118.15 -1.38475 -2.63872 0
M  V30 18592 H 2115.68 -0.693946 -1.29703 0
M  V30 18593 H 2117.64 0.597555 -4.12898 0
M  V30 18594 H 2116.27 1.01151 -3.06543 0
M  V30 18595 H 2115.32 -1.35882 -3.55303 0
M  V30 18596 H 2116.63 -1.5751 -4.73278 0
M  V30 18597 H 2115.79 0.374242 -6.05545 0
M  V30 18598 H 2114.53 0.684048 -4.82879 0
M  V30 18599 H 2113.53 -1.57889 -5.26641 0
M  V30 18600 H 2114.76 -1.87853 -6.52601 0
M  V30 18601 H 2112.7 0.365361 -6.54982 0
M  V30 18602 H 2112.62 -1.09443 -7.48036 0
M  V30 18603 H 2113.89 0.0524137 -7.79482 0
M  V30 18604 N 2118.12 1.38658 -0.749111 0
M  V30 18605 C 2119.35 2.04504 -0.313958 0
M  V30 18606 C 2119.76 1.56495 1.05616 0
M  V30 18607 O 2119.12 0.736036 1.66999 0
M  V30 18608 C 2119.17 3.60059 -0.322507 0
M  V30 18609 O 2118.89 4.06304 -1.63855 0
M  V30 18610 C 2120.39 4.43118 0.127067 0
M  V30 18611 H 2117.61 0.657312 -0.134841 0
M  V30 18612 H 2120.15 1.77435 -1.01671 0
M  V30 18613 H 2118.31 3.85979 0.331471 0
M  V30 18614 H 2118.72 5.00711 -1.56169 0
M  V30 18615 H 2120.2 5.51956 0.0699241 0
M  V30 18616 H 2120.67 4.2321 1.17431 0
M  V30 18617 H 2121.28 4.22376 -0.49787 0
M  V30 18618 N 2119.6 0.497834 1.49531 0
M  V30 18619 C 2120.82 -0.0468921 2.07347 0
M  V30 18620 C 2121.25 -1.30349 1.35612 0
M  V30 18621 O 2120.6 -1.76559 0.411884 0
M  V30 18622 C 2120.65 -0.286776 3.59458 0
M  V30 18623 O 2119.76 -1.36212 3.89256 0
M  V30 18624 H 2119.1 0.0248202 0.663536 0
M  V30 18625 H 2121.63 0.696547 1.92378 0
M  V30 18626 H 2121.64 -0.519243 4.04682 0
M  V30 18627 H 2120.31 0.631334 4.1108 0
M  V30 18628 H 2118.89 -1.11485 3.55845 0
M  V30 18629 N 2121.07 -1.5589 0.231532 0
M  V30 18630 C 2122.49 -1.5912 -0.123654 0
M  V30 18631 C 2122.69 -1.24851 -1.5816 0
M  V30 18632 O 2121.75 -0.988491 -2.32347 0
M  V30 18633 C 2123.06 -2.99954 0.211653 0
M  V30 18634 C 2124.61 -3.12617 0.1547 0
M  V30 18635 C 2125.08 -4.55645 0.463821 0
M  V30 18636 N 2126.57 -4.61348 0.413757 0
M  V30 18637 C 2127.31 -5.69969 0.626305 0
M  V30 18638 N 2126.8 -6.86914 0.901162 0
M  V30 18639 N 2128.6 -5.59323 0.558059 0
M  V30 18640 H 2120.75 -1.76439 1.1825 0
M  V30 18641 H 2123.01 -0.820591 0.474695 0
M  V30 18642 H 2122.72 -3.29716 1.22394 0
M  V30 18643 H 2122.59 -3.74278 -0.468608 0
M  V30 18644 H 2124.98 -2.82646 -0.848241 0
M  V30 18645 H 2125.06 -2.40602 0.868584 0
M  V30 18646 H 2124.7 -4.86336 1.46425 0
M  V30 18647 H 2124.63 -5.259 -0.271369 0
M  V30 18648 H 2127.12 -3.77319 0.209419 0
M  V30 18649 H 2127.44 -7.65617 1.05118 0
M  V30 18650 H 2125.78 -6.88635 0.938467 0
M  V30 18651 H 2128.97 -4.66838 0.343487 0
M  V30 18652 H 2129.15 -6.43908 0.727109 0
M  V30 18653 N 2122.55 0.0417572 -1.57545 0
M  V30 18654 C 2123.48 1.04602 -2.0876 0
M  V30 18655 C 2124.46 1.3851 -0.987368 0
M  V30 18656 O 2125.65 1.47615 -1.26188 0
M  V30 18657 C 2122.78 2.35076 -2.55649 0
M  V30 18658 C 2121.73 2.15444 -3.69821 0
M  V30 18659 C 2121.06 3.51566 -4.02871 0
M  V30 18660 C 2122.36 1.55098 -4.9874 0
M  V30 18661 H 2124.05 0.619732 -2.92916 0
M  V30 18662 H 2121.6 0.296659 -1.40911 0
M  V30 18663 H 2123.55 3.0565 -2.90097 0
M  V30 18664 H 2122.27 2.79741 -1.6856 0
M  V30 18665 H 2120.93 1.47306 -3.35703 0
M  V30 18666 H 2120.58 3.93857 -3.12867 0
M  V30 18667 H 2120.28 3.3926 -4.79767 0
M  V30 18668 H 2121.81 4.23523 -4.39842 0
M  V30 18669 H 2123.22 2.15573 -5.31226 0
M  V30 18670 H 2121.62 1.53403 -5.80162 0
M  V30 18671 H 2122.69 0.515437 -4.82153 0
M  V30 18672 N 2124.03 1.54445 0.313786 0
M  V30 18673 C 2125.44 1.64251 0.887611 0
M  V30 18674 C 2125.79 0.542877 1.8854 0
M  V30 18675 O 2124.92 -0.322627 2.13981 0
M  V30 18676 C 2125.51 2.97739 1.61668 0
M  V30 18677 C 2124.07 3.09709 2.13909 0
M  V30 18678 C 2123.22 2.5987 0.967618 0
M  V30 18679 H 2126.17 1.58438 0.091111 0
M  V30 18680 H 2126.19 2.88447 2.4815 0
M  V30 18681 H 2125.7 3.77752 0.890231 0
M  V30 18682 H 2123.8 2.34391 2.89641 0
M  V30 18683 H 2123.92 4.15667 2.38239 0
M  V30 18684 H 2122.28 2.16006 1.34957 0
M  V30 18685 H 2123.06 3.42349 0.255325 0
M  V30 18686 N 2125.51 -0.576345 1.46683 0
M  V30 18687 C 2126.76 -1.33056 1.51588 0
M  V30 18688 C 2127.07 -1.94819 0.174653 0
M  V30 18689 O 2128.28 -2.7131 0.101545 0
M  V30 18690 C 2126.73 -2.4118 2.67133 0
M  V30 18691 C 2126.34 -1.85693 4.07703 0
M  V30 18692 C 2128.08 -3.17904 2.81314 0
M  V30 18693 C 2125.99 -2.91484 5.14579 0
M  V30 18694 H 2124.92 -0.500222 0.564175 0
M  V30 18695 H 2127.57 -0.614346 1.7291 0
M  V30 18696 H 2125.95 -3.1563 2.39152 0
M  V30 18697 H 2127.13 -1.17744 4.45503 0
M  V30 18698 H 2125.44 -1.21616 3.98244 0
M  V30 18699 H 2128.04 -3.96868 3.58329 0
M  V30 18700 H 2128.38 -3.70894 1.8906 0
M  V30 18701 H 2128.92 -2.50562 3.08971 0
M  V30 18702 H 2125.65 -2.43373 6.08646 0
M  V30 18703 H 2125.17 -3.57902 4.81317 0
M  V30 18704 H 2126.85 -3.55321 5.40699 0
M  V30 18705 N 2126.99 -1.34495 -0.82151 0
M  V30 18706 C 2128.23 -1.26273 -1.57284 0
M  V30 18707 C 2128.55 0.165151 -1.94902 0
M  V30 18708 O 2129.75 0.369538 -2.68973 0
M  V30 18709 C 2128.21 -2.21361 -2.83773 0
M  V30 18710 C 2127.82 -3.69414 -2.53451 0
M  V30 18711 C 2129.56 -2.2205 -3.61793 0
M  V30 18712 C 2127.47 -4.56367 -3.76142 0
M  V30 18713 H 2126.4 -0.46909 -0.590314 0
M  V30 18714 H 2129.05 -1.59669 -0.904328 0
M  V30 18715 H 2127.43 -1.80918 -3.52256 0
M  V30 18716 H 2128.61 -4.18403 -1.93069 0
M  V30 18717 H 2126.92 -3.71187 -1.88704 0
M  V30 18718 H 2129.52 -2.84237 -4.52895 0
M  V30 18719 H 2129.86 -1.22017 -3.98017 0
M  V30 18720 H 2130.39 -2.60945 -3.00254 0
M  V30 18721 H 2127.13 -5.57341 -3.45038 0
M  V30 18722 H 2126.65 -4.12112 -4.35802 0
M  V30 18723 H 2128.33 -4.71045 -4.43537 0
M  V30 18724 N 2128.46 1.04188 -1.18248 0
M  V30 18725 C 2129.74 1.74344 -0.886757 0
M  V30 18726 C 2130.12 2.02074 0.610675 0
M  V30 18727 O 2129.47 1.66492 1.56501 0
M  V30 18728 C 2129.68 3.02952 -1.73267 0
M  V30 18729 C 2131.03 3.76712 -1.95892 0
M  V30 18730 O 2132.05 3.12847 -1.70309 0
M  V30 18731 O 2130.91 4.91493 -2.38949 0
M  V30 18732 H 2128 0.758616 -0.329288 0
M  V30 18733 H 2130.55 1.10265 -1.28995 0
M  V30 18734 H 2129.32 2.78587 -2.74782 0
M  V30 18735 H 2128.95 3.7477 -1.3279 0
M  V30 18736 N 2129.94 0.98432 1.23081 0
M  V30 18737 C 2131.19 0.656352 1.91885 0
M  V30 18738 C 2131.52 -0.808541 1.76568 0
M  V30 18739 O 2130.8 -1.5837 1.12912 0
M  V30 18740 C 2131.08 1.05239 3.44379 0
M  V30 18741 C 2130.93 2.57521 3.68786 0
M  V30 18742 C 2132.25 0.599218 4.36002 0
M  V30 18743 H 2129.37 0.23992 0.696855 0
M  V30 18744 H 2132.01 1.22631 1.45127 0
M  V30 18745 H 2130.16 0.567423 3.84334 0
M  V30 18746 H 2131.83 3.13622 3.38288 0
M  V30 18747 H 2130.08 2.99978 3.13362 0
M  V30 18748 H 2130.75 2.80282 4.75548 0
M  V30 18749 H 2133.22 1.01565 4.03514 0
M  V30 18750 H 2132.1 0.904717 5.41393 0
M  V30 18751 H 2132.36 -0.500359 4.39259 0
M  V30 18752 N 2131.42 -1.38259 0.756453 0
M  V30 18753 C 2132.38 -2.28779 0.138891 0
M  V30 18754 C 2133.38 -1.47321 -0.644449 0
M  V30 18755 O 2134.57 -1.67732 -0.470292 0
M  V30 18756 C 2131.71 -3.311 -0.811535 0
M  V30 18757 H 2132.9 -2.84898 0.936651 0
M  V30 18758 H 2130.45 -1.47267 0.52365 0
M  V30 18759 H 2131.19 -2.80076 -1.63487 0
M  V30 18760 H 2130.97 -3.91288 -0.252199 0
M  V30 18761 H 2132.46 -3.9878 -1.23953 0
M  V30 18762 N 2132.9 -0.505757 -1.49264 0
M  V30 18763 C 2134.31 -0.0591588 -1.86606 0
M  V30 18764 C 2134.66 1.35636 -1.41765 0
M  V30 18765 O 2133.79 2.01164 -0.797622 0
M  V30 18766 C 2134.38 -0.100581 -3.38651 0
M  V30 18767 C 2132.94 0.290698 -3.75276 0
M  V30 18768 C 2132.09 -0.471033 -2.7327 0
M  V30 18769 H 2135.04 -0.718294 -1.41514 0
M  V30 18770 H 2135.06 0.693588 -3.74125 0
M  V30 18771 H 2134.57 -1.13093 -3.71257 0
M  V30 18772 H 2132.67 1.3241 -3.48279 0
M  V30 18773 H 2132.78 -0.0320604 -4.79089 0
M  V30 18774 H 2131.15 0.0797288 -2.54575 0
M  V30 18775 H 2131.93 -1.50155 -3.0872 0
M  V30 18776 N 2134.38 1.55765 -0.239796 0
M  V30 18777 C 2135.31 2.24064 0.657067 0
M  V30 18778 C 2136.29 1.2185 1.18687 0
M  V30 18779 O 2137.47 1.50484 1.22753 0
M  V30 18780 C 2134.6 2.93465 1.8573 0
M  V30 18781 C 2133.56 4.02307 1.46057 0
M  V30 18782 C 2132.88 4.59097 2.74106 0
M  V30 18783 C 2134.18 5.18402 0.636932 0
M  V30 18784 H 2135.88 2.99272 0.0875675 0
M  V30 18785 H 2133.42 1.43943 0.0406772 0
M  V30 18786 H 2135.38 3.39943 2.49032 0
M  V30 18787 H 2134.1 2.15734 2.45207 0
M  V30 18788 H 2132.76 3.56588 0.850935 0
M  V30 18789 H 2132.41 3.78075 3.31766 0
M  V30 18790 H 2132.11 5.32566 2.48288 0
M  V30 18791 H 2133.63 5.08304 3.38318 0
M  V30 18792 H 2135.04 5.61149 1.17408 0
M  V30 18793 H 2133.44 5.98216 0.475092 0
M  V30 18794 H 2134.51 4.83617 -0.352445 0
M  V30 18795 N 2135.85 -0.0334016 1.57565 0
M  V30 18796 C 2137.13 -0.760253 1.80221 0
M  V30 18797 C 2137.51 -1.93806 0.836817 0
M  V30 18798 O 2136.86 -2.28174 -0.121959 0
M  V30 18799 C 2137.07 -1.19735 3.27818 0
M  V30 18800 C 2138.42 -1.61505 3.92685 0
M  V30 18801 O 2139.44 -1.29204 3.31941 0
M  V30 18802 O 2138.3 -2.21441 4.99626 0
M  V30 18803 H 2135.39 -0.36729 0.740964 0
M  V30 18804 H 2137.94 -0.0105137 1.69697 0
M  V30 18805 H 2136.71 -0.356354 3.89674 0
M  V30 18806 H 2136.34 -2.00724 3.43214 0
M  V30 18807 N 2137.33 -1.54609 -0.305591 0
M  V30 18808 C 2138.58 -1.73929 -1.04291 0
M  V30 18809 C 2138.91 -0.521093 -1.87078 0
M  V30 18810 O 2138.19 0.481847 -1.88437 0
M  V30 18811 C 2138.47 -3.02557 -1.95272 0
M  V30 18812 C 2138.32 -4.34666 -1.15695 0
M  V30 18813 C 2139.64 -3.27028 -2.94517 0
M  V30 18814 H 2136.76 -0.632835 -0.377741 0
M  V30 18815 H 2139.4 -1.87321 -0.317961 0
M  V30 18816 H 2137.55 -2.91271 -2.57087 0
M  V30 18817 H 2139.22 -4.57863 -0.562028 0
M  V30 18818 H 2137.47 -4.31359 -0.459568 0
M  V30 18819 H 2138.14 -5.20925 -1.82595 0
M  V30 18820 H 2140.61 -3.37894 -2.42831 0
M  V30 18821 H 2139.49 -4.18355 -3.55346 0
M  V30 18822 H 2139.75 -2.45106 -3.67934 0
M  V30 18823 N 2138.81 0.568558 -1.46987 0
M  V30 18824 C 2140.06 1.3236 -1.52726 0
M  V30 18825 C 2140.38 1.94107 -0.186356 0
M  V30 18826 O 2139.65 1.79328 0.78857 0
M  V30 18827 H 2138.23 0.491483 -0.562542 0
M  V30 18828 H 2140.89 0.664797 -1.83212 0
M  V30 18829 H 2139.99 2.12301 -2.28768 0
M  V30 18830 N 2140.29 1.34929 0.814366 0
M  V30 18831 C 2141.25 1.27093 1.90736 0
M  V30 18832 C 2142.25 0.184145 1.59742 0
M  V30 18833 O 2143.44 0.437337 1.68621 0
M  V30 18834 C 2140.57 0.964254 3.26979 0
M  V30 18835 H 2141.77 2.24271 1.99105 0
M  V30 18836 H 2139.32 1.19341 1.00933 0
M  V30 18837 H 2140.05 -0.0039895 3.243 0
M  V30 18838 H 2139.84 1.75045 3.50859 0
M  V30 18839 H 2141.33 0.934826 4.07002 0
M  V30 18840 N 2141.77 -1.0356 1.18799 0
M  V30 18841 C 2143.18 -1.58299 0.989867 0
M  V30 18842 C 2143.53 -1.90754 -0.459077 0
M  V30 18843 O 2142.65 -1.70132 -1.33731 0
M  V30 18844 C 2143.25 -2.8762 1.79054 0
M  V30 18845 C 2141.81 -3.38957 1.63662 0
M  V30 18846 C 2140.95 -2.12479 1.7818 0
M  V30 18847 H 2143.91 -0.861694 1.33269 0
M  V30 18848 H 2143.93 -3.5823 1.28263 0
M  V30 18849 H 2143.44 -2.63967 2.84505 0
M  V30 18850 H 2141.54 -3.67611 0.607689 0
M  V30 18851 H 2141.65 -4.12441 2.43781 0
M  V30 18852 H 2140.02 -2.24028 1.21176 0
M  V30 18853 H 2140.8 -1.91275 2.85076 0
M  V30 18854 N 2143.25 -0.990834 -1.22557 0
M  V30 18855 C 2144.52 -0.581554 -1.86755 0
M  V30 18856 C 2144.9 0.941178 -1.88958 0
M  V30 18857 O 2144.25 1.82226 -1.37862 0
M  V30 18858 C 2144.46 -1.19961 -3.27735 0
M  V30 18859 C 2145.81 -1.29885 -4.04246 0
M  V30 18860 O 2146.83 -1.15385 -3.36994 0
M  V30 18861 O 2145.69 -1.53066 -5.24626 0
M  V30 18862 H 2142.79 -0.197289 -0.803123 0
M  V30 18863 H 2145.33 -1.08658 -1.30351 0
M  V30 18864 H 2144.1 -2.24125 -3.20755 0
M  V30 18865 H 2143.73 -0.680045 -3.91741 0
M  V30 18866 N 2144.72 1.37856 -0.763775 0
M  V30 18867 C 2145.66 2.28969 -0.102965 0
M  V30 18868 C 2146.67 1.48246 0.672832 0
M  V30 18869 O 2147.86 1.70992 0.51224 0
M  V30 18870 C 2144.96 3.27329 0.877995 0
M  V30 18871 C 2144.13 4.37116 0.157698 0
M  V30 18872 C 2143.19 5.156 1.05087 0
M  V30 18873 O 2142.22 5.66842 0.517604 0
M  V30 18874 N 2143.42 5.29559 2.37797 0
M  V30 18875 H 2146.18 2.8632 -0.885499 0
M  V30 18876 H 2143.74 1.49747 -0.615433 0
M  V30 18877 H 2145.74 3.76715 1.47877 0
M  V30 18878 H 2144.31 2.70804 1.56154 0
M  V30 18879 H 2143.53 3.89231 -0.623902 0
M  V30 18880 H 2144.81 5.07661 -0.34033 0
M  V30 18881 H 2144.21 4.89496 2.83566 0
M  V30 18882 H 2142.77 5.82282 2.929 0
M  V30 18883 N 2146.2 0.513665 1.48994 0
M  V30 18884 C 2147.11 -0.262214 2.3313 0
M  V30 18885 C 2148.13 -0.955024 1.45449 0
M  V30 18886 O 2149.3 -0.933603 1.78454 0
M  V30 18887 C 2146.37 -1.30529 3.2119 0
M  V30 18888 C 2145.43 -0.624574 4.24732 0
M  V30 18889 C 2144.66 -1.61795 5.08584 0
M  V30 18890 O 2144.89 -2.84907 4.9415 0
M  V30 18891 O 2143.82 -1.16631 5.90492 0
M  V30 18892 H 2147.65 0.426785 3.00686 0
M  V30 18893 H 2145.23 0.274809 1.46851 0
M  V30 18894 H 2147.11 -1.90848 3.75706 0
M  V30 18895 H 2145.79 -1.97699 2.56314 0
M  V30 18896 H 2144.69 0.0186867 3.74095 0
M  V30 18897 H 2146.03 0.00489798 4.922 0
M  V30 18898 N 2147.68 -1.55636 0.248053 0
M  V30 18899 C 2148.93 -1.98972 -0.37637 0
M  V30 18900 C 2149.25 -1.1362 -1.57863 0
M  V30 18901 O 2148.51 -0.187287 -1.94802 0
M  V30 18902 C 2148.81 -3.47664 -0.828526 0
M  V30 18903 C 2148.47 -4.50114 0.266108 0
M  V30 18904 C 2147.14 -4.77851 0.566745 0
M  V30 18905 C 2149.49 -5.11418 1.00506 0
M  V30 18906 C 2146.82 -5.64166 1.61039 0
M  V30 18907 C 2149.17 -5.98865 2.03823 0
M  V30 18908 C 2147.83 -6.24934 2.3455 0
M  V30 18909 H 2147.1 -0.728089 -0.137723 0
M  V30 18910 H 2149.75 -1.8816 0.356118 0
M  V30 18911 H 2148.05 -3.55814 -1.64024 0
M  V30 18912 H 2149.75 -3.78583 -1.32196 0
M  V30 18913 H 2146.34 -4.28595 0.0216504 0
M  V30 18914 H 2150.53 -4.90036 0.786048 0
M  V30 18915 H 2145.78 -5.82619 1.85378 0
M  V30 18916 H 2149.96 -6.45409 2.61573 0
M  V30 18917 H 2147.58 -6.91612 3.15558 0
M  V30 18918 N 2149.16 0.0250451 -1.5758 0
M  V30 18919 C 2150.41 0.713634 -1.89081 0
M  V30 18920 C 2150.73 1.7568 -0.846258 0
M  V30 18921 O 2150 1.95534 0.119612 0
M  V30 18922 H 2148.58 0.266566 -0.697819 0
M  V30 18923 H 2151.24 -0.00995501 -1.94897 0
M  V30 18924 H 2150.33 1.20068 -2.8808 0
M  V30 18925 N 2150.64 1.54769 0.297388 0
M  V30 18926 C 2151.88 1.74221 1.03214 0
M  V30 18927 C 2152.21 0.529956 1.87141 0
M  V30 18928 O 2151.47 -0.488036 1.89517 0
M  V30 18929 C 2151.76 2.98592 1.96412 0
M  V30 18930 C 2151.43 4.32222 1.28433 0
M  V30 18931 C 2150.09 4.68546 1.09626 0
M  V30 18932 C 2152.44 5.15045 0.798634 0
M  V30 18933 C 2149.77 5.8527 0.409394 0
M  V30 18934 C 2152.12 6.32476 0.125474 0
M  V30 18935 C 2150.79 6.67458 -0.0745188 0
M  V30 18936 H 2150.06 0.637521 0.377688 0
M  V30 18937 H 2152.71 1.89028 0.306675 0
M  V30 18938 H 2151.01 2.78581 2.75499 0
M  V30 18939 H 2152.71 3.10837 2.5334 0
M  V30 18940 H 2149.3 4.03658 1.44078 0
M  V30 18941 H 2153.48 4.87477 0.931633 0
M  V30 18942 H 2148.74 6.10915 0.243492 0
M  V30 18943 H 2152.91 6.95919 -0.258751 0
M  V30 18944 H 2150.54 7.57759 -0.608755 0
M  V30 18945 N 2152.11 -0.560755 1.47286 0
M  V30 18946 C 2153.39 -1.32148 1.4421 0
M  V30 18947 C 2153.77 -2.10654 0.137154 0
M  V30 18948 O 2153.12 -2.10818 -0.88136 0
M  V30 18949 C 2153.33 -2.22899 2.68546 0
M  V30 18950 C 2154.68 -2.84031 3.15613 0
M  V30 18951 O 2155.7 -2.33202 2.69249 0
M  V30 18952 O 2154.56 -3.76408 3.96206 0
M  V30 18953 H 2151.65 -0.594853 0.574525 0
M  V30 18954 H 2154.2 -0.579952 1.59482 0
M  V30 18955 H 2152.97 -1.64465 3.55059 0
M  V30 18956 H 2152.59 -3.04353 2.55842 0
M  V30 18957 N 2153.59 -1.35359 -0.807199 0
M  V30 18958 C 2154.84 -1.28788 -1.56657 0
M  V30 18959 C 2155.17 0.137625 -1.93712 0
M  V30 18960 O 2154.45 1.08685 -1.61301 0
M  V30 18961 C 2154.73 -2.19379 -2.85561 0
M  V30 18962 C 2154.58 -3.70543 -2.54986 0
M  V30 18963 C 2155.9 -2.0909 -3.87259 0
M  V30 18964 H 2153.02 -0.469169 -0.568374 0
M  V30 18965 H 2155.66 -1.65754 -0.928736 0
M  V30 18966 H 2153.81 -1.87984 -3.39992 0
M  V30 18967 H 2155.48 -4.12377 -2.06743 0
M  V30 18968 H 2153.73 -3.90855 -1.88189 0
M  V30 18969 H 2154.4 -4.29316 -3.46975 0
M  V30 18970 H 2156.87 -2.36687 -3.42226 0
M  V30 18971 H 2155.75 -2.74675 -4.75231 0
M  V30 18972 H 2156.01 -1.07265 -4.2889 0
M  V30 18973 N 2155.07 1.02928 -1.19346 0
M  V30 18974 C 2156.32 1.75973 -0.993881 0
M  V30 18975 C 2156.64 1.89088 0.476523 0
M  V30 18976 O 2155.91 1.42417 1.34515 0
M  V30 18977 H 2154.49 0.651893 -0.364753 0
M  V30 18978 H 2157.15 1.24161 -1.50233 0
M  V30 18979 H 2156.25 2.76812 -1.44157 0
M  V30 18980 N 2156.55 0.997319 1.2203 0
M  V30 18981 C 2157.96 0.710132 1.72667 0
M  V30 18982 C 2158.31 -0.77273 1.80342 0
M  V30 18983 O 2157.43 -1.6039 1.45273 0
M  V30 18984 C 2158.03 1.28239 3.13592 0
M  V30 18985 C 2156.59 1.04449 3.61618 0
M  V30 18986 C 2155.74 1.3999 2.3937 0
M  V30 18987 H 2158.69 1.16915 1.07315 0
M  V30 18988 H 2158.71 0.663177 3.74676 0
M  V30 18989 H 2158.22 2.36164 3.07974 0
M  V30 18990 H 2156.32 -0.0179379 3.72596 0
M  V30 18991 H 2156.43 1.71098 4.47507 0
M  V30 18992 H 2154.8 0.818553 2.41188 0
M  V30 18993 H 2155.58 2.48928 2.3641 0
M  V30 18994 N 2158.03 -1.37449 0.771075 0
M  V30 18995 C 2159.27 -2.00004 0.335588 0
M  V30 18996 C 2159.61 -1.6107 -1.0849 0
M  V30 18997 O 2158.88 -0.856568 -1.74623 0
M  V30 18998 C 2159.16 -3.56908 0.478386 0
M  V30 18999 C 2159.02 -4.05753 1.94124 0
M  V30 19000 C 2160.34 -4.39942 -0.117748 0
M  V30 19001 H 2157.45 -0.726594 0.12341 0
M  V30 19002 H 2160.1 -1.63136 0.973992 0
M  V30 19003 H 2158.25 -3.88445 -0.0651015 0
M  V30 19004 H 2159.92 -3.84784 2.54438 0
M  V30 19005 H 2158.16 -3.57971 2.45029 0
M  V30 19006 H 2158.83 -5.14796 1.99222 0
M  V30 19007 H 2161.31 -4.14659 0.34597 0
M  V30 19008 H 2160.18 -5.48899 0.0123067 0
M  V30 19009 H 2160.45 -4.25276 -1.20799 0
M  V30 19010 N 2159.5 -0.52156 -1.4872 0
M  V30 19011 C 2160.74 0.013698 -2.04395 0
M  V30 19012 C 2161.11 1.32371 -1.39076 0
M  V30 19013 O 2162.31 1.94448 -1.8559 0
M  V30 19014 C 2160.58 0.141856 -3.57118 0
M  V30 19015 S 2162.14 0.628395 -4.34277 0
M  V30 19016 H 2158.96 -0.00803298 -0.710955 0
M  V30 19017 H 2161.56 -0.700206 -1.8253 0
M  V30 19018 H 2160.26 -0.816539 -4.02195 0
M  V30 19019 H 2159.79 0.880391 -3.83422 0
M  V30 19020 H 2161.81 1.8943 -4.58618 0
M  V30 19021 N 2160.98 1.55502 -0.256304 0
M  V30 19022 C 2162.23 1.99168 0.365812 0
M  V30 19023 C 2162.56 1.14455 1.57259 0
M  V30 19024 O 2161.81 0.197615 1.947 0
M  V30 19025 C 2162.11 3.48098 0.810077 0
M  V30 19026 C 2161.78 4.49967 -0.289975 0
M  V30 19027 C 2160.44 4.77544 -0.592079 0
M  V30 19028 C 2162.79 5.10877 -1.03217 0
M  V30 19029 C 2160.12 5.63304 -1.64029 0
M  V30 19030 C 2162.47 5.97775 -2.06996 0
M  V30 19031 C 2161.14 6.23681 -2.37861 0
M  V30 19032 H 2160.41 0.728809 0.13386 0
M  V30 19033 H 2163.05 1.87968 -0.366092 0
M  V30 19034 H 2161.36 3.56679 1.62134 0
M  V30 19035 H 2163.05 3.79279 1.30186 0
M  V30 19036 H 2159.64 4.28577 -0.0443795 0
M  V30 19037 H 2163.83 4.89612 -0.812025 0
M  V30 19038 H 2159.08 5.81628 -1.88465 0
M  V30 19039 H 2163.26 6.44013 -2.64992 0
M  V30 19040 H 2160.89 6.89929 -3.19221 0
M  V30 19041 N 2162.46 -0.0166879 1.57591 0
M  V30 19042 C 2163.39 -1.01268 2.10398 0
M  V30 19043 C 2164.37 -1.36922 1.00928 0
M  V30 19044 O 2165.56 -1.45589 1.2852 0
M  V30 19045 C 2162.69 -2.30979 2.59357 0
M  V30 19046 C 2161.64 -2.09533 3.73202 0
M  V30 19047 C 2160.97 -3.45113 4.08413 0
M  V30 19048 C 2162.27 -1.47144 5.01145 0
M  V30 19049 H 2163.96 -0.573053 2.93865 0
M  V30 19050 H 2161.51 -0.274203 1.41365 0
M  V30 19051 H 2163.46 -3.00996 2.94923 0
M  V30 19052 H 2162.18 -2.77024 1.72989 0
M  V30 19053 H 2160.84 -1.41946 3.38004 0
M  V30 19054 H 2160.49 -3.88829 3.19094 0
M  V30 19055 H 2160.19 -3.31585 4.85104 0
M  V30 19056 H 2161.71 -4.16472 4.46524 0
M  V30 19057 H 2163.13 -2.07094 5.34588 0
M  V30 19058 H 2161.53 -1.44154 5.82529 0
M  V30 19059 H 2162.6 -0.438665 4.82912 0
M  V30 19060 O 2163.98 -1.60713 -0.159291 0
M  V30 19061 H 2164.67 -1.76644 -0.794768 0
M  V30 END ATOM
M  V30 BEGIN BOND
M  V30 END BOND
M  V30 END CTAB
M  END
$$$$
