drugbank_drug|DB11571 sp|P00734|THRB_HUMAN Prothrombin OS=Homo sapiens OX=9606 GN=F2 PE=1 SV=2
 OpenBabel12092119103D

  0  0  0     0  0            999 V3000
M  V30 BEGIN CTAB
M  V30 COUNTS 9657 9772 0 0 0
M  V30 BEGIN ATOM
M  V30 1 H -0.908 1.98254 -0.117106 0
M  V30 2 N 0 1.576 0 0
M  V30 3 C 0.933 2.03868 1.02534 0
M  V30 4 C 1.911 0.928543 1.3348 0
M  V30 5 O 3.095 1.19667 1.45644 0
M  V30 6 C 0.222 2.43627 2.35294 0
M  V30 7 C -0.732 3.65373 2.2001 0
M  V30 8 S 0.101 5.13292 1.52614 0
M  V30 9 C 1.257 5.56322 2.86805 0
M  V30 10 H 1.49 2.90518 0.631377 0
M  V30 11 H -0.977 1.52953 0.210867 0
M  V30 12 H 0.981 2.67203 3.11629 0
M  V30 13 H -0.358 1.57376 2.7183 0
M  V30 14 H -1.165 3.90944 3.18086 0
M  V30 15 H -1.563 3.418 1.51819 0
M  V30 16 H 0.729 5.58782 3.83104 0
M  V30 17 H 1.672 6.56266 2.65933 0
M  V30 18 H 2.08 4.83886 2.90714 0
M  V30 19 N 1.4781 -0.272755 1.55222 0
M  V30 20 C 2.4411 -1.32041 1.87344 0
M  V30 21 C 3.4411 -1.42342 0.74803 0
M  V30 22 O 4.6311 -1.41488 1.0162 0
M  V30 23 C 1.7631 -2.70173 2.07893 0
M  V30 24 H 2.9561 -1.04789 2.80997 0
M  V30 25 H 0.5091 -0.51083 1.47717 0
M  V30 26 H 1.2441 -3.02605 1.16622 0
M  V30 27 H 1.0291 -2.64082 2.89833 0
M  V30 28 H 2.5191 -3.45869 2.34017 0
M  V30 29 N 2.9562 -1.48159 -0.537278 0
M  V30 30 C 3.9062 -1.5854 -1.63857 0
M  V30 31 C 4.8902 -0.442969 -1.54682 0
M  V30 32 O 6.0822 -0.69401 -1.62827 0
M  V30 33 C 3.2112 -1.62144 -3.02596 0
M  V30 34 C 2.2972 -2.81841 -3.16901 0
M  V30 35 N 2.6882 -4.06337 -3.01204 0
M  V30 36 C 0.9862 -2.79021 -3.47942 0
M  V30 37 C 1.6872 -4.86606 -3.18731 0
M  V30 38 N 0.6632 -4.19288 -3.45974 0
M  V30 39 H 4.4652 -2.5255 -1.50319 0
M  V30 40 H 1.9792 -1.4443 -0.742555 0
M  V30 41 H 3.9762 -1.67674 -3.81695 0
M  V30 42 H 2.6362 -0.69245 -3.17231 0
M  V30 43 H 3.6472 -4.36888 -2.78117 0
M  V30 44 H 0.3242 -1.95347 -3.6898 0
M  V30 45 H 1.7142 -5.95385 -3.11394 0
M  V30 46 N 4.4343 0.785586 -1.36625 0
M  V30 47 C 5.6803 1.54591 -1.31261 0
M  V30 48 C 6.0133 1.93906 0.106823 0
M  V30 49 O 5.2883 1.63007 1.06108 0
M  V30 50 C 5.5713 2.82038 -2.23889 0
M  V30 51 C 5.4243 2.49066 -3.74548 0
M  V30 52 C 6.7433 3.83887 -2.15217 0
M  V30 53 H 3.8623 0.560846 -0.478143 0
M  V30 54 H 6.5043 0.902278 -1.67209 0
M  V30 55 H 4.6543 3.36961 -1.93363 0
M  V30 56 H 6.3263 2.00164 -4.15611 0
M  V30 57 H 4.5693 1.81954 -3.93796 0
M  V30 58 H 5.2403 3.40109 -4.34776 0
M  V30 59 H 7.7163 3.38421 -2.42096 0
M  V30 60 H 6.5923 4.70806 -2.82193 0
M  V30 61 H 6.8533 4.27131 -1.14068 0
M  V30 62 N 5.9124 1.20967 1.01018 0
M  V30 63 C 7.3284 0.965905 1.27053 0
M  V30 64 C 7.5284 -0.350785 1.98423 0
M  V30 65 O 6.5844 -1.07773 2.28344 0
M  V30 66 C 7.8974 2.15294 2.09926 0
M  V30 67 C 9.4454 2.19463 2.23171 0
M  V30 68 C 9.9204 3.3767 3.09424 0
M  V30 69 N 11.4114 3.37724 3.17012 0
M  V30 70 C 12.1464 4.25837 3.83993 0
M  V30 71 N 11.6424 5.24138 4.53047 0
M  V30 72 N 13.4354 4.1366 3.80581 0
M  V30 73 H 5.5864 2.0565 0.531194 0
M  V30 74 H 7.8494 0.90024 0.297106 0
M  V30 75 H 7.5554 3.10684 1.64828 0
M  V30 76 H 7.4294 2.13923 3.10672 0
M  V30 77 H 9.8164 1.24632 2.6749 0
M  V30 78 H 9.8974 2.2488 1.21912 0
M  V30 79 H 9.5414 4.32791 2.65808 0
M  V30 80 H 9.4714 3.29491 4.10784 0
M  V30 81 H 11.9624 2.6658 2.6785 0
M  V30 82 H 12.2754 5.87684 5.01844 0
M  V30 83 H 10.6204 5.28068 4.5185 0
M  V30 84 H 13.8114 3.36127 3.25785 0
M  V30 85 H 13.9844 4.82538 4.32505 0
M  V30 86 N 7.3905 -1.2043 1.01659 0
M  V30 87 C 8.6385 -1.89423 0.704522 0
M  V30 88 C 8.9595 -1.79231 -0.768197 0
M  V30 89 O 8.2295 -1.1947 -1.55254 0
M  V30 90 H 6.8095 -0.701178 0.257602 0
M  V30 91 H 9.4715 -1.4626 1.28818 0
M  V30 92 H 8.5675 -2.96052 0.987916 0
M  V30 93 N 8.8686 -0.792821 -1.36206 0
M  V30 94 C 9.7986 -0.207853 -2.32573 0
M  V30 95 C 10.7796 0.659055 -1.56813 0
M  V30 96 O 11.9646 0.592176 -1.84951 0
M  V30 97 C 9.0946 0.655449 -3.41059 0
M  V30 98 C 8.0486 -0.111842 -4.27854 0
M  V30 99 C 7.3746 0.872274 -5.27537 0
M  V30 100 C 8.6746 -1.30299 -5.05786 0
M  V30 101 H 10.3686 -1.01294 -2.81744 0
M  V30 102 H 7.9146 -0.48854 -1.3546 0
M  V30 103 H 9.8676 1.07464 -4.07467 0
M  V30 104 H 8.5916 1.49328 -2.90463 0
M  V30 105 H 7.2506 -0.512053 -3.63006 0
M  V30 106 H 6.8986 1.70523 -4.73214 0
M  V30 107 H 6.5986 0.363291 -5.86476 0
M  V30 108 H 8.1226 1.28996 -5.96818 0
M  V30 109 H 9.5366 -0.959379 -5.65216 0
M  V30 110 H 7.9336 -1.7455 -5.74154 0
M  V30 111 H 9.0036 -2.09663 -4.37229 0
M  V30 112 N 10.3467 1.47872 -0.545128 0
M  V30 113 C 11.2787 2.27869 0.246621 0
M  V30 114 C 12.2917 1.36282 0.890561 0
M  V30 115 O 13.4807 1.61207 0.766449 0
M  V30 116 C 10.5807 3.10159 1.36582 0
M  V30 117 C 9.7537 4.29627 0.820954 0
M  V30 118 C 8.8127 4.93607 1.82314 0
M  V30 119 O 7.8387 5.52366 1.37406 0
M  V30 120 N 9.0407 4.87211 3.15603 0
M  V30 121 H 11.8057 2.96459 -0.439539 0
M  V30 122 H 9.3667 1.57367 -0.380421 0
M  V30 123 H 11.3587 3.49829 2.03474 0
M  V30 124 H 9.9287 2.43891 1.9554 0
M  V30 125 H 9.1487 3.94192 -0.0244032 0
M  V30 126 H 10.4367 5.06928 0.436063 0
M  V30 127 H 9.8347 4.40651 3.54744 0
M  V30 128 H 8.3917 5.30937 3.78087 0
M  V30 129 N 11.8248 0.280983 1.55075 0
M  V30 130 C 12.7548 -0.597469 2.25727 0
M  V30 131 C 13.7358 -1.15417 1.24952 0
M  V30 132 O 14.9208 -1.18722 1.53684 0
M  V30 133 C 12.0508 -1.7789 2.98283 0
M  V30 134 C 11.0048 -1.35347 4.06036 0
M  V30 135 C 10.3308 -2.61846 4.66198 0
M  V30 136 C 11.6308 -0.499354 5.19907 0
M  V30 137 H 13.3248 -0.00824265 2.99399 0
M  V30 138 H 10.8708 -0.0025244 1.44 0
M  V30 139 H 12.8238 -2.39937 3.46422 0
M  V30 140 H 11.5478 -2.39405 2.22155 0
M  V30 141 H 10.2068 -0.756156 3.58717 0
M  V30 142 H 9.8548 -3.21632 3.86732 0
M  V30 143 H 9.5548 -2.3409 5.38958 0
M  V30 144 H 11.0788 -3.24732 5.1709 0
M  V30 145 H 12.4928 -1.02498 5.64063 0
M  V30 146 H 10.8898 -0.316424 5.99265 0
M  V30 147 H 11.9598 0.480459 4.82514 0
M  V30 148 N 13.3029 -1.57598 0.00835791 0
M  V30 149 C 14.7139 -1.7892 -0.53333 0
M  V30 150 C 15.0649 -0.916609 -1.73473 0
M  V30 151 O 14.1899 -0.121336 -2.1606 0
M  V30 152 C 14.7849 -3.24488 -0.974313 0
M  V30 153 C 13.3439 -3.46878 -1.46125 0
M  V30 154 C 12.4909 -2.74157 -0.416302 0
M  V30 155 H 15.4419 -1.56958 0.234495 0
M  V30 156 H 15.4629 -3.3306 -1.83988 0
M  V30 157 H 14.9749 -3.87972 -0.099718 0
M  V30 158 H 13.0759 -2.8862 -2.35646 0
M  V30 159 H 13.1889 -4.55572 -1.48295 0
M  V30 160 H 11.5529 -2.39022 -0.87981 0
M  V30 161 H 12.3359 -3.40345 0.44947 0
M  V30 162 N 14.781 0.264519 -1.55364 0
M  V30 163 C 16.029 0.993021 -1.76021 0
M  V30 164 C 16.35 1.86511 -0.569099 0
M  V30 165 O 15.62 1.91438 0.415735 0
M  V30 166 H 14.2 0.369639 -0.649135 0
M  V30 167 H 16.862 0.286707 -1.9278 0
M  V30 168 H 15.958 1.62502 -2.66457 0
M  V30 169 N 16.2591 1.48442 0.529413 0
M  V30 170 C 17.4991 1.58086 1.29569 0
M  V30 171 C 17.8631 0.249302 1.90375 0
M  V30 172 O 19.0641 0.220738 2.67892 0
M  V30 173 C 17.3351 2.68793 2.35552 0
M  V30 174 S 18.8941 2.98207 3.21898 0
M  V30 175 H 15.7121 0.557922 0.440732 0
M  V30 176 H 18.3141 1.85966 0.603059 0
M  V30 177 H 17.0181 3.64102 1.89363 0
M  V30 178 H 16.5491 2.42817 3.09522 0
M  V30 179 H 18.5641 2.37548 4.35644 0
M  V30 180 N 17.7372 -0.778329 1.37039 0
M  V30 181 C 18.6672 -1.90546 1.34962 0
M  V30 182 C 19.6482 -1.68681 0.219274 0
M  V30 183 O 20.8332 -1.89634 0.418624 0
M  V30 184 C 17.9632 -3.27734 1.14925 0
M  V30 185 C 16.9172 -3.64147 2.24902 0
M  V30 186 C 16.2432 -4.99806 1.89996 0
M  V30 187 C 17.5432 -3.71579 3.67051 0
M  V30 188 H 19.2372 -1.92541 2.29277 0
M  V30 189 H 16.7832 -0.924948 1.10366 0
M  V30 190 H 18.7362 -4.06215 1.12104 0
M  V30 191 H 17.4602 -3.26154 0.170631 0
M  V30 192 H 16.1192 -2.8797 2.26868 0
M  V30 193 H 15.7672 -4.94759 0.906796 0
M  V30 194 H 15.4672 -5.25139 2.63634 0
M  V30 195 H 16.9912 -5.80694 1.88749 0
M  V30 196 H 18.4052 -4.40227 3.67251 0
M  V30 197 H 16.8022 -4.08405 4.39688 0
M  V30 198 H 17.8722 -2.72404 4.01154 0
M  V30 199 N 19.2153 -1.21501 -1.00376 0
M  V30 200 C 20.1783 -0.976927 -2.07337 0
M  V30 201 C 21.1783 0.0525322 -1.60714 0
M  V30 202 O 22.3683 -0.184869 -1.73216 0
M  V30 203 C 19.5003 -0.473423 -3.37597 0
M  V30 204 H 20.6933 -1.92587 -2.29892 0
M  V30 205 H 18.2463 -1.03217 -1.17371 0
M  V30 206 H 18.9813 0.480379 -3.20722 0
M  V30 207 H 18.7663 -1.216 -3.72768 0
M  V30 208 H 20.2563 -0.32675 -4.1632 0
M  V30 209 N 20.6934 1.19889 -1.02296 0
M  V30 210 C 21.6234 2.25141 -0.619174 0
M  V30 211 C 22.6044 1.66051 0.368915 0
M  V30 212 O 23.7894 1.92546 0.252941 0
M  V30 213 C 20.9194 3.4728 0.0368783 0
M  V30 214 C 19.8734 4.19005 -0.872865 0
M  V30 215 C 19.1994 5.34637 -0.0822402 0
M  V30 216 C 20.4994 4.74452 -2.18387 0
M  V30 217 H 22.1934 2.59171 -1.49903 0
M  V30 218 H 19.7394 1.24579 -0.722222 0
M  V30 219 H 21.6924 4.20098 0.330958 0
M  V30 220 H 20.4164 3.12433 0.95149 0
M  V30 221 H 19.0754 3.48061 -1.15105 0
M  V30 222 H 18.7234 4.96034 0.83422 0
M  V30 223 H 18.4234 5.83557 -0.688149 0
M  V30 224 H 19.9474 6.10255 0.205238 0
M  V30 225 H 21.3614 5.39055 -1.95172 0
M  V30 226 H 19.7584 5.33834 -2.74119 0
M  V30 227 H 20.8284 3.92844 -2.84257 0
M  V30 228 N 22.1715 0.800033 1.35784 0
M  V30 229 C 23.1345 0.211565 2.28221 0
M  V30 230 C 24.1345 -0.59728 1.49296 0
M  V30 231 O 25.3245 -0.416721 1.69142 0
M  V30 232 C 22.4565 -0.705846 3.33513 0
M  V30 233 H 23.6495 1.02677 2.81776 0
M  V30 234 H 21.2025 0.570211 1.45528 0
M  V30 235 H 21.9375 -1.54498 2.85133 0
M  V30 236 H 21.7225 -0.127655 3.91892 0
M  V30 237 H 23.2125 -1.11211 4.02519 0
M  V30 238 N 23.6496 -1.47581 0.552962 0
M  V30 239 C 24.6126 -2.28439 -0.186605 0
M  V30 240 C 25.6126 -1.36706 -0.84665 0
M  V30 241 O 26.8026 -1.59378 -0.703164 0
M  V30 242 C 23.9346 -3.16264 -1.2724 0
M  V30 243 H 25.1276 -2.95294 0.523609 0
M  V30 244 H 22.6806 -1.532 0.309745 0
M  V30 245 H 23.4156 -2.54091 -2.01514 0
M  V30 246 H 23.2006 -3.83769 -0.803968 0
M  V30 247 H 24.6906 -3.77198 -1.79196 0
M  V30 248 N 25.1277 -0.289203 -1.54924 0
M  V30 249 C 26.0577 0.58549 -2.2604 0
M  V30 250 C 27.0387 1.14753 -1.25562 0
M  V30 251 O 28.2237 1.17906 -1.54311 0
M  V30 252 C 25.3537 1.76305 -2.99222 0
M  V30 253 C 24.3077 1.33191 -4.06748 0
M  V30 254 C 23.6337 2.5937 -4.6758 0
M  V30 255 C 24.9337 0.471775 -5.20165 0
M  V30 256 H 26.6277 -0.00763532 -2.99399 0
M  V30 257 H 24.1737 -0.00511229 -1.43999 0
M  V30 258 H 26.1267 2.38097 -3.47689 0
M  V30 259 H 24.8507 2.38223 -2.23422 0
M  V30 260 H 23.5097 0.737121 -3.59113 0
M  V30 261 H 23.1577 3.19576 -3.88433 0
M  V30 262 H 22.8577 2.31228 -5.40192 0
M  V30 263 H 24.3817 3.21985 -5.18804 0
M  V30 264 H 25.7957 0.995056 -5.64599 0
M  V30 265 H 24.1927 0.284639 -5.99425 0
M  V30 266 H 25.2627 -0.506041 -4.82252 0
M  V30 267 N 26.6058 1.57591 -0.0167156 0
M  V30 268 C 27.8458 1.93145 0.668902 0
M  V30 269 C 28.2098 0.892406 1.7 0
M  V30 270 O 29.4108 1.13373 2.43721 0
M  V30 271 C 27.6818 3.33678 1.28039 0
M  V30 272 S 29.2408 3.91142 1.9888 0
M  V30 273 H 26.0588 0.67593 0.220545 0
M  V30 274 H 28.6608 1.95347 -0.0774105 0
M  V30 275 H 27.3648 4.07126 0.517339 0
M  V30 276 H 26.8958 3.3489 2.06427 0
M  V30 277 H 28.9108 3.73571 3.26587 0
M  V30 278 N 28.0839 -0.256276 1.55502 0
M  V30 279 C 29.3089 -1.00766 1.81276 0
M  V30 280 C 29.7339 -1.78524 0.59252 0
M  V30 281 O 29.0919 -1.75413 -0.45827 0
M  V30 282 C 29.1399 -1.92869 3.04687 0
M  V30 283 O 28.2439 -3.019 2.80945 0
M  V30 284 H 27.5849 -0.287224 0.598664 0
M  V30 285 H 30.1149 -0.280109 2.02674 0
M  V30 286 H 30.1249 -2.34511 3.33869 0
M  V30 287 H 28.7999 -1.35689 3.93143 0
M  V30 288 H 27.3769 -2.64454 2.62904 0
M  V30 289 N 29.562 -1.4872 -0.521534 0
M  V30 290 C 30.492 -1.66771 -1.63431 0
M  V30 291 C 31.473 -0.516499 -1.62069 0
M  V30 292 O 32.658 -0.750013 -1.79132 0
M  V30 293 C 29.788 -1.71515 -3.01993 0
M  V30 294 C 28.742 -2.86222 -3.18216 0
M  V30 295 C 28.068 -2.76061 -4.57924 0
M  V30 296 C 29.368 -4.27419 -3.00184 0
M  V30 297 H 31.062 -2.59932 -1.48579 0
M  V30 298 H 28.608 -1.25089 -0.713358 0
M  V30 299 H 30.561 -1.82731 -3.7972 0
M  V30 300 H 29.285 -0.749393 -3.17886 0
M  V30 301 H 27.944 -2.74575 -2.42908 0
M  V30 302 H 27.592 -1.77437 -4.70665 0
M  V30 303 H 27.292 -3.53037 -4.69722 0
M  V30 304 H 28.816 -2.89256 -5.37739 0
M  V30 305 H 30.23 -4.39855 -3.67697 0
M  V30 306 H 28.627 -5.05458 -3.2347 0
M  V30 307 H 29.697 -4.43293 -1.96518 0
M  V30 308 N 31.0401 0.771051 -1.3745 0
M  V30 309 C 32.2861 1.5319 -1.32894 0
M  V30 310 C 32.6191 1.94008 0.0862511 0
M  V30 311 O 31.8941 1.64124 1.04373 0
M  V30 312 C 32.1771 2.79648 -2.26868 0
M  V30 313 C 32.0301 2.45079 -3.77169 0
M  V30 314 C 33.3491 3.81583 -2.19277 0
M  V30 315 H 30.4681 0.555744 -0.484064 0
M  V30 316 H 33.1101 0.884492 -1.68157 0
M  V30 317 H 31.2601 3.34891 -1.96926 0
M  V30 318 H 32.9321 1.95745 -4.1771 0
M  V30 319 H 31.1751 1.77767 -3.95704 0
M  V30 320 H 31.8461 3.35478 -4.38359 0
M  V30 321 H 34.3221 3.35835 -2.45671 0
M  V30 322 H 33.1981 4.67787 -2.87171 0
M  V30 323 H 33.4591 4.25897 -1.18592 0
M  V30 324 N 32.5182 1.22032 0.997298 0
M  V30 325 C 33.4682 0.953838 2.07089 0
M  V30 326 C 34.4522 -0.0938669 1.60626 0
M  V30 327 O 35.6442 0.116078 1.76619 0
M  V30 328 C 32.7732 0.528726 3.39204 0
M  V30 329 C 31.8592 1.61092 3.92314 0
M  V30 330 N 32.2502 2.83768 4.18699 0
M  V30 331 C 30.5482 1.48158 4.20672 0
M  V30 332 C 31.2492 3.53715 4.61802 0
M  V30 333 N 30.2252 2.81174 4.65233 0
M  V30 334 H 34.0272 1.88577 2.25424 0
M  V30 335 H 31.5412 1.11719 1.17867 0
M  V30 336 H 33.5382 0.31915 4.15677 0
M  V30 337 H 32.1982 -0.39635 3.22272 0
M  V30 338 H 33.2092 3.20238 4.07023 0
M  V30 339 H 29.8862 0.622369 4.12835 0
M  V30 340 H 31.2762 4.58793 4.90875 0
M  V30 341 N 33.9963 -1.19345 1.0293 0
M  V30 342 C 35.2213 -1.93538 0.745511 0
M  V30 343 C 35.6463 -1.75007 -0.689511 0
M  V30 344 O 35.0043 -1.05265 -1.47611 0
M  V30 345 C 35.0523 -3.43336 1.10239 0
M  V30 346 O 34.1563 -4.11806 0.221289 0
M  V30 347 H 33.4973 -0.604193 0.275404 0
M  V30 348 H 36.0273 -1.5141 1.37609 0
M  V30 349 H 36.0373 -3.94004 1.05947 0
M  V30 350 H 34.7123 -3.56146 2.14786 0
M  V30 351 H 33.2893 -3.715 0.322842 0
M  V30 352 N 35.4744 -0.807222 -1.35358 0
M  V30 353 C 36.4064 -0.175717 -2.28525 0
M  V30 354 C 37.4194 0.625354 -1.5031 0
M  V30 355 O 38.6084 0.457611 -1.72535 0
M  V30 356 C 35.7084 0.773471 -3.29956 0
M  V30 357 C 34.8814 0.0186296 -4.37396 0
M  V30 358 C 33.9404 0.886395 -5.18681 0
M  V30 359 O 32.9664 0.337106 -5.68201 0
M  V30 360 N 34.1684 2.20839 -5.36852 0
M  V30 361 H 36.9334 -0.976091 -2.83359 0
M  V30 362 H 34.4944 -0.662737 -1.47714 0
M  V30 363 H 36.4864 1.35824 -3.81227 0
M  V30 364 H 35.0564 1.47465 -2.75632 0
M  V30 365 H 34.2764 -0.747349 -3.87051 0
M  V30 366 H 35.5644 -0.501577 -5.06322 0
M  V30 367 H 34.9624 2.67858 -4.98265 0
M  V30 368 H 33.5194 2.74237 -5.91301 0
M  V30 369 N 36.9525 1.47285 -0.560781 0
M  V30 370 C 37.9025 2.27073 0.205384 0
M  V30 371 C 38.8865 1.34569 0.882044 0
M  V30 372 O 40.0785 1.58899 0.77976 0
M  V30 373 C 37.2075 3.20414 1.23247 0
M  V30 374 C 36.2935 4.20399 0.559041 0
M  V30 375 N 36.6845 5.04423 -0.372927 0
M  V30 376 C 34.9825 4.38536 0.812522 0
M  V30 377 C 35.6835 5.76655 -0.764446 0
M  V30 378 N 34.6595 5.43471 -0.11848 0
M  V30 379 H 38.4615 2.89422 -0.511117 0
M  V30 380 H 35.9755 1.57868 -0.380975 0
M  V30 381 H 37.9725 3.76262 1.79534 0
M  V30 382 H 36.6325 2.59623 1.95002 0
M  V30 383 H 37.6435 5.1248 -0.747287 0
M  V30 384 H 34.3205 3.88913 1.51832 0
M  V30 385 H 35.7105 6.54238 -1.53045 0
M  V30 386 N 38.4306 0.297415 1.54768 0
M  V30 387 C 39.6766 -0.313376 2.00364 0
M  V30 388 C 40.0096 -1.53815 1.18553 0
M  V30 389 O 39.2846 -1.92739 0.261103 0
M  V30 390 C 39.5676 -0.673525 3.53745 0
M  V30 391 C 39.4206 0.560133 4.46299 0
M  V30 392 C 40.7396 -1.50143 4.13697 0
M  V30 393 H 37.8586 -0.112428 0.728374 0
M  V30 394 H 40.5006 0.4088 1.8555 0
M  V30 395 H 38.6506 -1.28881 3.665 0
M  V30 396 H 40.3226 1.19863 4.45455 0
M  V30 397 H 38.5656 1.19405 4.17043 0
M  V30 398 H 39.2366 0.26405 5.51368 0
M  V30 399 H 41.7126 -0.981588 4.04356 0
M  V30 400 H 40.5886 -1.72221 5.21182 0
M  V30 401 H 40.8496 -2.48952 3.65343 0
M  V30 402 N 39.9087 -1.5758 0.0250728 0
M  V30 403 C 41.1557 -1.91633 -0.654444 0
M  V30 404 C 41.4837 -0.901103 -1.72367 0
M  V30 405 O 40.7387 0.0905647 -1.9549 0
M  V30 406 C 41.0377 -3.32421 -1.31268 0
M  V30 407 C 40.7037 -4.49344 -0.374223 0
M  V30 408 C 39.3657 -4.8106 -0.115911 0
M  V30 409 C 41.7177 -5.20498 0.270432 0
M  V30 410 C 39.0457 -5.8129 0.79493 0
M  V30 411 C 41.3977 -6.21699 1.1693 0
M  V30 412 C 40.0617 -6.51859 1.43655 0
M  V30 413 H 39.3317 -0.701236 -0.239478 0
M  V30 414 H 41.9787 -1.91307 0.0859734 0
M  V30 415 H 40.2837 -3.28989 -2.12775 0
M  V30 416 H 41.9807 -3.56038 -1.84494 0
M  V30 417 H 38.5707 -4.24579 -0.58573 0
M  V30 418 H 42.7547 -4.96229 0.0839194 0
M  V30 419 H 38.0107 -6.03005 1.00973 0
M  V30 420 H 42.1847 -6.75955 1.67504 0
M  V30 421 H 39.8117 -7.2934 2.144 0
M  V30 422 N 41.3868 0.248026 -1.55636 0
M  V30 423 C 42.3168 1.31079 -1.93237 0
M  V30 424 C 43.2978 1.50264 -0.797174 0
M  V30 425 O 44.4828 1.62891 -1.05737 0
M  V30 426 C 41.6128 2.66575 -2.22609 0
M  V30 427 C 40.5668 2.62087 -3.3837 0
M  V30 428 C 39.8928 4.01369 -3.53281 0
M  V30 429 C 41.1928 2.19171 -4.7409 0
M  V30 430 H 42.8868 0.998556 -2.82257 0
M  V30 431 H 40.4328 0.47891 -1.35803 0
M  V30 432 H 42.3858 3.41057 -2.47503 0
M  V30 433 H 41.1098 2.99432 -1.30414 0
M  V30 434 H 39.7688 1.90063 -3.13483 0
M  V30 435 H 39.4168 4.31489 -2.58508 0
M  V30 436 H 39.1168 3.99254 -4.31127 0
M  V30 437 H 40.6408 4.77552 -3.80495 0
M  V30 438 H 42.0548 2.83384 -4.98363 0
M  V30 439 H 40.4518 2.2817 -5.5503 0
M  V30 440 H 41.5218 1.14336 -4.71227 0
M  V30 441 N 42.8649 1.48995 0.513639 0
M  V30 442 C 43.8279 1.64229 1.59879 0
M  V30 443 C 44.8279 0.514696 1.5234 0
M  V30 444 O 46.0179 0.78087 1.55718 0
M  V30 445 C 43.1499 1.62783 2.99524 0
M  V30 446 H 44.3429 2.61004 1.47705 0
M  V30 447 H 41.8959 1.37837 0.736936 0
M  V30 448 H 42.6309 0.675461 3.17188 0
M  V30 449 H 42.4159 2.4466 3.06404 0
M  V30 450 H 43.9059 1.76669 3.78388 0
M  V30 451 N 44.343 -0.763751 1.37857 0
M  V30 452 C 45.754 -1.3405 1.29952 0
M  V30 453 C 46.105 -1.96138 -0.0492898 0
M  V30 454 O 45.23 -1.94372 -0.951239 0
M  V30 455 C 45.825 -2.43729 2.35333 0
M  V30 456 C 44.384 -2.97151 2.31037 0
M  V30 457 C 43.531 -1.70438 2.18738 0
M  V30 458 H 46.482 -0.563396 1.48363 0
M  V30 459 H 46.503 -3.23412 2.00462 0
M  V30 460 H 46.015 -1.9851 3.33489 0
M  V30 461 H 44.116 -3.46724 1.3643 0
M  V30 462 H 44.229 -3.52221 3.24772 0
M  V30 463 H 42.593 -1.93673 1.65418 0
M  V30 464 H 43.376 -1.27312 3.18821 0
M  V30 465 N 45.8211 -1.22559 -0.990812 0
M  V30 466 C 46.7531 -0.955325 -2.08342 0
M  V30 467 C 47.7661 0.0668408 -1.62663 0
M  V30 468 O 48.9551 -0.167421 -1.77713 0
M  V30 469 C 46.0551 -0.415566 -3.36342 0
M  V30 470 C 45.2281 -1.49544 -4.11042 0
M  V30 471 C 44.2871 -0.962399 -5.17324 0
M  V30 472 O 43.3131 -1.64907 -5.44788 0
M  V30 473 N 44.5151 0.215134 -5.80101 0
M  V30 474 H 47.2801 -1.89596 -2.32106 0
M  V30 475 H 44.8411 -1.13276 -1.15673 0
M  V30 476 H 46.8331 -0.0442386 -4.04676 0
M  V30 477 H 45.4031 0.430232 -3.09625 0
M  V30 478 H 44.6231 -2.04 -3.37309 0
M  V30 479 H 45.9111 -2.22195 -4.57719 0
M  V30 480 H 45.3091 0.789779 -5.6016 0
M  V30 481 H 43.8661 0.527826 -6.49659 0
M  V30 482 N 47.2992 1.18797 -1.03562 0
M  V30 483 C 48.2312 2.21731 -0.580337 0
M  V30 484 C 49.2442 1.59051 0.347349 0
M  V30 485 O 50.4332 1.77929 0.142669 0
M  V30 486 C 47.5332 3.38459 0.172805 0
M  V30 487 C 46.7062 4.3072 -0.761496 0
M  V30 488 C 45.7652 5.26174 -0.0525547 0
M  V30 489 O 44.7912 5.65108 -0.681333 0
M  V30 490 N 45.9932 5.67624 1.21586 0
M  V30 491 H 48.7582 2.61417 -1.46565 0
M  V30 492 H 46.3192 1.33531 -0.915476 0
M  V30 493 H 48.3112 3.99335 0.656793 0
M  V30 494 H 46.8812 2.97507 0.959602 0
M  V30 495 H 46.1012 3.67525 -1.42544 0
M  V30 496 H 47.3892 4.89267 -1.39626 0
M  V30 497 H 46.7872 5.38038 1.74732 0
M  V30 498 H 45.3442 6.30721 1.64421 0
M  V30 499 N 48.7773 0.814389 1.34928 0
M  V30 500 C 49.7403 0.235759 2.27984 0
M  V30 501 C 50.7403 -0.581412 1.49921 0
M  V30 502 O 51.9303 -0.398758 1.69575 0
M  V30 503 C 49.0623 -0.670433 3.34242 0
M  V30 504 H 50.2553 1.05659 2.80671 0
M  V30 505 H 47.8083 0.585614 1.44915 0
M  V30 506 H 48.5433 -1.51466 2.86755 0
M  V30 507 H 48.3283 -0.0860822 3.92005 0
M  V30 508 H 49.8183 -1.06935 4.03676 0
M  V30 509 N 50.2554 -1.46986 0.568584 0
M  V30 510 C 51.6714 -1.57946 0.229189 0
M  V30 511 C 51.8714 -1.56567 -1.26843 0
M  V30 512 O 50.9274 -1.47511 -2.04931 0
M  V30 513 C 52.2404 -2.87963 0.865909 0
M  V30 514 C 53.7884 -3.01568 0.838188 0
M  V30 515 C 54.2634 -4.34301 1.45419 0
M  V30 516 N 55.7544 -4.40965 1.41788 0
M  V30 517 C 56.4894 -5.42256 1.86403 0
M  V30 518 N 55.9854 -6.50297 2.38926 0
M  V30 519 N 57.7784 -5.3337 1.77405 0
M  V30 520 H 49.9294 -1.46126 1.54146 0
M  V30 521 H 52.1924 -0.696156 0.643484 0
M  V30 522 H 51.8984 -2.94742 1.91886 0
M  V30 523 H 51.7724 -3.75423 0.365687 0
M  V30 524 H 54.1594 -2.94379 -0.206106 0
M  V30 525 H 54.2404 -2.1562 1.37629 0
M  V30 526 H 53.8844 -4.42247 2.49761 0
M  V30 527 H 53.8144 -5.19 0.891435 0
M  V30 528 H 56.3054 -3.63484 1.03381 0
M  V30 529 H 56.6184 -7.23777 2.70863 0
M  V30 530 H 54.9634 -6.51155 2.42944 0
M  V30 531 H 58.1544 -4.47865 1.3614 0
M  V30 532 H 58.3274 -6.12169 2.12492 0
M  V30 533 N 51.7335 -0.305618 -1.54608 0
M  V30 534 C 52.9585 0.307562 -2.05107 0
M  V30 535 C 53.3835 1.46385 -1.18123 0
M  V30 536 O 52.7415 1.8034 -0.186324 0
M  V30 537 C 52.7895 0.73704 -3.52987 0
M  V30 538 O 51.8935 1.84134 -3.6901 0
M  V30 539 H 51.2345 0.0589143 -0.661381 0
M  V30 540 H 53.7645 -0.448807 -1.99617 0
M  V30 541 H 53.7745 1.02459 -3.94925 0
M  V30 542 H 52.4495 -0.108773 -4.15758 0
M  V30 543 H 51.0265 1.55398 -3.38978 0
M  V30 544 N 53.2116 1.57565 -0.0334293 0
M  V30 545 C 54.1416 2.13511 0.945265 0
M  V30 546 C 55.1226 1.05231 1.33643 0
M  V30 547 O 56.3076 1.33084 1.41429 0
M  V30 548 C 53.4376 2.6657 2.22616 0
M  V30 549 C 52.3916 3.79676 1.97561 0
M  V30 550 C 51.7176 4.1918 3.31952 0
M  V30 551 C 53.0176 5.0557 1.31135 0
M  V30 552 H 54.7116 2.95538 0.479325 0
M  V30 553 H 52.2576 1.42166 0.229115 0
M  V30 554 H 54.2106 3.04344 2.91466 0
M  V30 555 H 52.9346 1.8171 2.71384 0
M  V30 556 H 51.5936 3.42347 1.31127 0
M  V30 557 H 51.2416 3.31296 3.78487 0
M  V30 558 H 50.9416 4.95402 3.15992 0
M  V30 559 H 52.4656 4.59541 4.02063 0
M  V30 560 H 53.8796 5.40903 1.89992 0
M  V30 561 H 52.2766 5.86818 1.25559 0
M  V30 562 H 53.3466 4.84062 0.284894 0
M  V30 563 N 54.6897 -0.239769 1.55765 0
M  V30 564 C 55.6197 -1.30052 1.9393 0
M  V30 565 C 56.6007 -1.49839 0.805132 0
M  V30 566 O 57.7857 -1.62328 1.06599 0
M  V30 567 C 54.9157 -2.65391 2.2402 0
M  V30 568 C 53.8697 -2.60289 3.39755 0
M  V30 569 C 53.1957 -3.99489 3.55405 0
M  V30 570 C 54.4957 -2.16654 4.75246 0
M  V30 571 H 56.1897 -0.983573 2.82783 0
M  V30 572 H 53.7357 -0.471701 1.36055 0
M  V30 573 H 55.6887 -3.3974 2.49308 0
M  V30 574 H 54.4127 -2.98736 1.32 0
M  V30 575 H 53.0717 -1.88398 3.14487 0
M  V30 576 H 52.7197 -4.30112 2.60793 0
M  V30 577 H 52.4197 -3.96962 4.33238 0
M  V30 578 H 53.9437 -4.75528 3.83022 0
M  V30 579 H 55.3577 -2.80737 4.99859 0
M  V30 580 H 53.7547 -2.25223 5.56232 0
M  V30 581 H 54.8247 -1.11835 4.71827 0
M  V30 582 N 56.1678 -1.49265 -0.50573 0
M  V30 583 C 57.0998 -1.617 -1.62437 0
M  V30 584 C 58.1128 -0.499924 -1.54934 0
M  V30 585 O 59.3018 -0.771785 -1.60953 0
M  V30 586 C 56.4018 -1.5533 -3.01207 0
M  V30 587 C 55.5748 -2.8249 -3.33943 0
M  V30 588 C 54.6338 -2.69238 -4.52103 0
M  V30 589 O 53.6598 -3.43167 -4.5412 0
M  V30 590 N 54.8618 -1.80468 -5.51735 0
M  V30 591 H 57.6268 -2.58177 -1.52199 0
M  V30 592 H 55.1878 -1.46294 -0.693511 0
M  V30 593 H 57.1798 -1.44125 -3.78167 0
M  V30 594 H 55.7498 -0.667297 -3.05395 0
M  V30 595 H 54.9698 -3.08081 -2.45926 0
M  V30 596 H 56.2578 -3.66802 -3.5261 0
M  V30 597 H 55.6558 -1.19653 -5.52901 0
M  V30 598 H 54.2128 -1.75188 -6.27816 0
M  V30 599 N 57.6459 0.756429 -1.3826 0
M  V30 600 C 59.0619 1.0591 -1.19395 0
M  V30 601 C 59.2619 2.01459 -0.0406567 0
M  V30 602 O 58.3179 2.44909 0.614467 0
M  V30 603 C 59.6309 1.64191 -2.51916 0
M  V30 604 C 61.1789 1.76376 -2.58574 0
M  V30 605 C 61.6539 2.38069 -3.91264 0
M  V30 606 N 63.1449 2.45503 -3.92788 0
M  V30 607 C 63.8799 2.94126 -4.92217 0
M  V30 608 N 63.3759 3.42805 -6.02043 0
M  V30 609 N 65.1689 2.9314 -4.7961 0
M  V30 610 H 57.3199 0.122313 -2.12048 0
M  V30 611 H 59.5829 0.116892 -0.940766 0
M  V30 612 H 59.2889 1.01451 -3.3675 0
M  V30 613 H 59.1629 2.6329 -2.70108 0
M  V30 614 H 61.5499 2.38244 -1.74137 0
M  V30 615 H 61.6309 0.759894 -2.44252 0
M  V30 616 H 61.2749 1.76835 -4.76121 0
M  V30 617 H 61.2049 3.39091 -4.02895 0
M  V30 618 H 63.6959 2.1107 -3.13461 0
M  V30 619 H 64.0089 3.78354 -6.73846 0
M  V30 620 H 62.3539 3.4087 -6.05667 0
M  V30 621 H 65.5449 2.54419 -3.92923 0
M  V30 622 H 65.7179 3.30721 -5.5725 0
M  V30 623 N 59.124 1.23083 0.984299 0
M  V30 624 C 60.37 1.06214 1.72761 0
M  V30 625 C 60.703 -0.400584 1.90024 0
M  V30 626 O 59.978 -1.29672 1.44967 0
M  V30 627 C 60.261 1.78375 3.12817 0
M  V30 628 C 60.114 3.32296 3.03149 0
M  V30 629 C 61.433 1.54309 4.12161 0
M  V30 630 H 58.552 0.387251 0.627061 0
M  V30 631 H 61.194 1.51536 1.14616 0
M  V30 632 H 59.344 1.39848 3.62457 0
M  V30 633 H 61.016 3.8032 2.61064 0
M  V30 634 H 59.259 3.6153 2.39747 0
M  V30 635 H 59.93 3.77972 4.02295 0
M  V30 636 H 62.406 1.87791 3.71314 0
M  V30 637 H 61.282 2.07281 5.08258 0
M  V30 638 H 61.543 0.477572 4.39513 0
M  V30 639 N 60.6021 -1.18246 1.0419 0
M  V30 640 C 62.0181 -1.40269 0.761366 0
M  V30 641 C 62.2181 -1.90777 -0.648578 0
M  V30 642 O 61.2741 -2.0929 -1.41258 0
M  V30 643 C 62.5871 -2.40237 1.8085 0
M  V30 644 C 64.1351 -2.53961 1.82955 0
M  V30 645 C 64.6101 -3.57194 2.86664 0
M  V30 646 N 66.1011 -3.64702 2.85563 0
M  V30 647 C 66.8361 -4.44309 3.6246 0
M  V30 648 N 66.3321 -5.27514 4.49111 0
M  V30 649 N 68.1251 -4.39084 3.50944 0
M  V30 650 H 60.2761 -0.837882 1.95175 0
M  V30 651 H 62.5391 -0.430608 0.84456 0
M  V30 652 H 62.2451 -2.10176 2.81991 0
M  V30 653 H 62.1191 -3.39601 1.64168 0
M  V30 654 H 64.5061 -2.83338 0.824855 0
M  V30 655 H 64.5871 -1.54706 2.03715 0
M  V30 656 H 64.2311 -3.28558 3.87314 0
M  V30 657 H 64.1611 -4.5613 2.6316 0
M  V30 658 H 66.6521 -3.05289 2.22727 0
M  V30 659 H 66.9651 -5.85411 5.04493 0
M  V30 660 H 65.3101 -5.2693 4.53178 0
M  V30 661 H 68.5011 -3.7313 2.82651 0
M  V30 662 H 68.6741 -5.00883 4.11121 0
M  V30 663 N 62.0802 -0.821533 -1.34494 0
M  V30 664 C 63.4962 -0.507117 -1.51329 0
M  V30 665 C 63.6962 0.968964 -1.76673 0
M  V30 666 O 62.7522 1.75348 -1.81685 0
M  V30 667 C 64.0652 -1.36544 -2.67911 0
M  V30 668 C 65.6132 -1.36242 -2.81793 0
M  V30 669 C 66.0882 -2.2052 -4.01416 0
M  V30 670 N 67.5792 -2.18136 -4.08621 0
M  V30 671 C 68.3142 -2.80095 -5.00334 0
M  V30 672 N 67.8102 -3.51039 -5.9728 0
M  V30 673 N 69.6032 -2.69656 -4.93196 0
M  V30 674 H 61.7542 -1.77729 -1.16302 0
M  V30 675 H 64.0172 -0.757291 -0.570276 0
M  V30 676 H 63.7232 -2.41361 -2.55808 0
M  V30 677 H 63.5972 -1.02917 -3.62888 0
M  V30 678 H 65.9842 -0.322041 -2.93338 0
M  V30 679 H 66.0652 -1.73866 -1.87628 0
M  V30 680 H 65.7092 -3.24607 -3.90631 0
M  V30 681 H 65.6392 -1.80247 -4.94791 0
M  V30 682 H 68.1302 -1.6653 -3.39229 0
M  V30 683 H 68.4432 -3.95565 -6.63889 0
M  V30 684 H 66.7882 -3.55145 -5.97409 0
M  V30 685 H 69.9792 -2.13808 -4.16418 0
M  V30 686 H 70.1522 -3.1823 -5.64476 0
M  V30 687 N 63.5583 1.46682 -0.576371 0
M  V30 688 C 64.5213 2.28707 0.150239 0
M  V30 689 C 65.5213 1.38035 0.824794 0
M  V30 690 O 66.7113 1.60476 0.677719 0
M  V30 691 C 63.8433 3.18248 1.22192 0
M  V30 692 H 65.0363 2.94423 -0.570521 0
M  V30 693 H 62.5893 1.52688 -0.334078 0
M  V30 694 H 63.3243 2.57265 1.97447 0
M  V30 695 H 63.1093 3.85 0.742812 0
M  V30 696 H 64.5993 3.80001 1.73172 0
M  V30 697 N 65.0364 0.313813 1.54444 0
M  V30 698 C 65.9844 -0.572171 2.25453 0
M  V30 699 C 66.9784 -1.12657 1.2651 0
M  V30 700 O 68.1844 -1.07573 1.44319 0
M  V30 701 H 64.5594 -0.203146 0.724041 0
M  V30 702 H 66.5304 0.0491145 2.9836 0
M  V30 703 C 65.2794 -1.72626 3.0182 0
M  V30 704 H 64.6024 -1.30891 3.77767 0
M  V30 705 H 66.0424 -2.32199 3.54767 0
M  V30 706 C 64.5014 -2.63806 2.09542 0
M  V30 707 O 65.0314 -3.65256 1.67185 0
M  V30 708 N 63.2374 -2.31824 1.75232 0
M  V30 709 H 62.7844 -1.49368 2.09873 0
M  V30 710 H 62.7424 -2.93095 1.13767 0
M  V30 711 N 66.5145 -1.57545 0.0417849 0
M  V30 712 C 67.7425 -1.96624 -0.643928 0
M  V30 713 C 68.1575 -0.918897 -1.64929 0
M  V30 714 O 67.5145 0.0979323 -1.82237 0
M  V30 715 C 67.5655 -3.35781 -1.33914 0
M  V30 716 O 67.2865 -4.365 -0.374048 0
M  V30 717 C 68.7875 -3.89566 -2.1155 0
M  V30 718 H 66.0075 -0.647316 -0.176702 0
M  V30 719 H 68.5515 -2.04229 0.105304 0
M  V30 720 H 66.7065 -3.29357 -2.03968 0
M  V30 721 H 67.1205 -5.17248 -0.869179 0
M  V30 722 H 68.5945 -4.89242 -2.55628 0
M  V30 723 H 69.0715 -3.24488 -2.9598 0
M  V30 724 H 69.6775 -3.99298 -1.46427 0
M  V30 725 N 67.9926 0.231505 -1.5589 0
M  V30 726 C 69.2396 0.957352 -1.78441 0
M  V30 727 C 69.5676 1.84726 -0.60882 0
M  V30 728 O 68.8226 1.91416 0.40725 0
M  V30 729 C 69.1216 1.83577 -3.0665 0
M  V30 730 C 68.7876 1.09993 -4.37278 0
M  V30 731 C 67.4496 0.896629 -4.72773 0
M  V30 732 C 69.8016 0.579558 -5.17968 0
M  V30 733 C 67.1296 0.160896 -5.86479 0
M  V30 734 C 69.4816 -0.142783 -6.32439 0
M  V30 735 C 68.1456 -0.357427 -6.66542 0
M  V30 736 H 67.4156 0.35032 -0.65296 0
M  V30 737 H 70.0626 0.226259 -1.90159 0
M  V30 738 H 68.3676 2.63441 -2.90011 0
M  V30 739 H 70.0646 2.39934 -3.21298 0
M  V30 740 H 66.6546 1.26835 -4.09403 0
M  V30 741 H 70.8386 0.724125 -4.90989 0
M  V30 742 H 66.0946 -0.0157293 -6.11398 0
M  V30 743 H 70.2686 -0.553559 -6.94196 0
M  V30 744 H 67.8956 -0.929466 -7.54497 0
M  V30 745 N 69.4707 1.49531 0.497807 0
M  V30 746 C 70.4007 1.6935 1.60757 0
M  V30 747 C 71.3817 0.542218 1.61227 0
M  V30 748 O 72.5667 0.778417 1.77917 0
M  V30 749 C 69.6967 1.76298 2.99226 0
M  V30 750 C 68.6507 2.91248 3.13622 0
M  V30 751 C 67.9767 2.83312 4.53474 0
M  V30 752 C 69.2767 4.3214 2.93346 0
M  V30 753 H 70.9707 2.62263 1.44425 0
M  V30 754 H 68.5167 1.26208 0.693367 0
M  V30 755 H 70.4697 1.88749 3.76765 0
M  V30 756 H 69.1937 0.799871 3.16654 0
M  V30 757 H 67.8527 2.78404 2.38509 0
M  V30 758 H 67.5007 1.84902 4.67782 0
M  V30 759 H 67.2007 3.60465 4.64046 0
M  V30 760 H 68.7247 2.97775 5.33069 0
M  V30 761 H 70.1387 4.45649 3.60652 0
M  V30 762 H 68.5357 5.1054 3.15387 0
M  V30 763 H 69.6057 4.46363 1.89441 0
M  V30 764 N 70.9488 -0.749086 1.3866 0
M  V30 765 C 71.8588 -1.89358 1.38494 0
M  V30 766 C 72.8748 -1.71708 0.281476 0
M  V30 767 O 74.0508 -1.94554 0.520643 0
M  V30 768 C 71.1158 -3.24782 1.21316 0
M  V30 769 C 70.1768 -3.54926 2.41508 0
M  V30 770 C 69.4098 -4.83888 2.2514 0
M  V30 771 O 69.6328 -5.56592 1.24746 0
M  V30 772 O 68.5668 -5.13612 3.13826 0
M  V30 773 H 72.3928 -1.92452 2.34938 0
M  V30 774 H 69.9778 -0.894981 1.19626 0
M  V30 775 H 71.8598 -4.05739 1.13814 0
M  V30 776 H 70.5348 -3.2249 0.279592 0
M  V30 777 H 69.4418 -2.74112 2.54585 0
M  V30 778 H 70.7748 -3.61983 3.3351 0
M  V30 779 N 72.4269 -1.23603 -0.977757 0
M  V30 780 C 73.3369 -1.03632 -2.1047 0
M  V30 781 C 74.3529 0.0199435 -1.73989 0
M  V30 782 O 75.5289 -0.176076 -2.00629 0
M  V30 783 C 72.5939 -0.63276 -3.40877 0
M  V30 784 C 71.6549 -1.76437 -3.91367 0
M  V30 785 C 70.8879 -1.37997 -5.15551 0
M  V30 786 O 71.1109 -0.265357 -5.69782 0
M  V30 787 O 70.0449 -2.20201 -5.60174 0
M  V30 788 H 73.8709 -1.98086 -2.30208 0
M  V30 789 H 71.4559 -1.02332 -1.08851 0
M  V30 790 H 73.3379 -0.418761 -4.19314 0
M  V30 791 H 72.0129 0.282754 -3.22463 0
M  V30 792 H 70.9199 -2.03304 -3.14036 0
M  V30 793 H 72.2529 -2.6583 -4.14241 0
M  V30 794 N 73.905 1.17692 -1.04816 0
M  V30 795 C 75.151 1.88137 -0.75711 0
M  V30 796 C 75.484 1.80604 0.713841 0
M  V30 797 O 74.759 1.21146 1.52164 0
M  V30 798 C 75.042 3.38318 -1.2334 0
M  V30 799 C 74.895 3.54622 -2.76701 0
M  V30 800 C 76.214 4.32214 -0.829415 0
M  V30 801 H 73.333 0.683163 -0.27651 0
M  V30 802 H 75.975 1.38424 -1.30149 0
M  V30 803 H 74.125 3.80787 -0.770286 0
M  V30 804 H 75.797 3.21194 -3.31107 0
M  V30 805 H 74.04 2.97026 -3.16161 0
M  V30 806 H 74.711 4.60028 -3.05088 0
M  V30 807 H 77.187 3.97565 -1.22805 0
M  V30 808 H 76.063 5.35838 -1.19033 0
M  V30 809 H 76.324 4.41294 0.266891 0
M  V30 810 N 75.3831 0.828654 1.34056 0
M  V30 811 C 76.7991 0.515135 1.51058 0
M  V30 812 C 76.9991 -0.959581 1.77184 0
M  V30 813 O 76.0551 -1.74382 1.82612 0
M  V30 814 C 77.3681 1.37963 2.67183 0
M  V30 815 C 78.9161 1.37735 2.81066 0
M  V30 816 C 79.3911 2.22645 4.00241 0
M  V30 817 N 80.8821 2.203 4.07458 0
M  V30 818 C 81.6171 2.82744 4.98842 0
M  V30 819 N 81.1131 3.54201 5.9541 0
M  V30 820 N 82.9061 2.72268 4.91759 0
M  V30 821 H 75.0571 1.78343 1.15358 0
M  V30 822 H 77.3201 0.760304 0.566252 0
M  V30 823 H 77.0261 2.42714 2.54525 0
M  V30 824 H 76.9001 1.0484 3.62338 0
M  V30 825 H 79.2871 0.337593 2.93163 0
M  V30 826 H 79.3681 1.74859 1.86703 0
M  V30 827 H 79.0121 3.26674 3.88905 0
M  V30 828 H 78.9421 1.82869 4.93829 0
M  V30 829 H 81.4331 1.68327 3.38341 0
M  V30 830 H 81.7461 3.9908 6.61782 0
M  V30 831 H 80.0911 3.58308 5.95517 0
M  V30 832 H 83.2821 2.16014 4.15278 0
M  V30 833 H 83.4551 3.21219 5.62781 0
M  V30 834 N 76.8612 -1.46375 0.584142 0
M  V30 835 C 77.8082 -2.30323 -0.148286 0
M  V30 836 C 78.7782 -1.40703 -0.882713 0
M  V30 837 O 79.9632 -1.69651 -0.873099 0
M  V30 838 C 77.1032 -3.25196 -1.15507 0
M  V30 839 C 76.2162 -4.29915 -0.423943 0
M  V30 840 C 75.3512 -5.11914 -1.41838 0
M  V30 841 C 74.3902 -6.08381 -0.673736 0
M  V30 842 N 73.5272 -6.83242 -1.6163 0
M  V30 843 H 78.3672 -2.92427 0.573644 0
M  V30 844 H 75.9042 -1.44118 0.294703 0
M  V30 845 H 77.8622 -3.78646 -1.75166 0
M  V30 846 H 76.4922 -2.64898 -1.8447 0
M  V30 847 H 75.5442 -3.7931 0.287714 0
M  V30 848 H 76.8562 -4.98549 0.158128 0
M  V30 849 H 76.0102 -5.69648 -2.08773 0
M  V30 850 H 74.7492 -4.43243 -2.03438 0
M  V30 851 H 73.7542 -5.49799 0.00938483 0
M  V30 852 H 74.9792 -6.79071 -0.0631082 0
M  V30 853 H 72.9252 -6.1728 -2.22038 0
M  V30 854 H 72.8422 -7.48144 -1.08707 0
M  V30 855 H 74.1102 -7.45534 -2.27596 0
M  V30 856 N 78.3393 -0.321999 -1.54275 0
M  V30 857 C 79.5873 0.280489 -2.00144 0
M  V30 858 C 79.9083 1.52777 -1.21178 0
M  V30 859 O 79.1783 1.9338 -0.313187 0
M  V30 860 H 77.7583 0.106632 -0.73935 0
M  V30 861 H 80.4203 -0.438184 -1.8991 0
M  V30 862 H 79.5163 0.537972 -3.07428 0
M  V30 863 N 79.8174 1.5752 -0.0501392 0
M  V30 864 C 80.7654 2.12651 0.942459 0
M  V30 865 C 81.7594 1.05807 1.32292 0
M  V30 866 O 82.9654 1.24217 1.3027 0
M  V30 867 H 79.3404 0.679673 0.321789 0
M  V30 868 H 81.3114 2.94951 0.452356 0
M  V30 869 C 80.0604 2.68565 2.20836 0
M  V30 870 H 79.3834 3.50439 1.92439 0
M  V30 871 H 80.8234 3.10761 2.8845 0
M  V30 872 C 79.2824 1.62291 2.95234 0
M  V30 873 O 79.8124 1.03508 3.88135 0
M  V30 874 N 78.0184 1.33836 2.57946 0
M  V30 875 H 77.5654 1.81826 1.82475 0
M  V30 876 H 77.5234 0.629595 3.08032 0
M  V30 877 N 81.2955 -0.223234 1.56011 0
M  V30 878 C 82.2255 -1.27988 1.95298 0
M  V30 879 C 83.2065 -1.48976 0.820979 0
M  V30 880 O 84.3915 -1.61188 1.08315 0
M  V30 881 C 81.5215 -2.63 2.26822 0
M  V30 882 C 80.4755 -2.56671 3.42497 0
M  V30 883 C 79.8015 -3.95697 3.59622 0
M  V30 884 C 81.1015 -2.11601 4.77517 0
M  V30 885 H 82.7955 -0.953525 2.8381 0
M  V30 886 H 80.3415 -0.457244 1.36548 0
M  V30 887 H 82.2945 -3.37077 2.52898 0
M  V30 888 H 81.0185 -2.9732 1.35161 0
M  V30 889 H 79.6775 -1.85051 3.16467 0
M  V30 890 H 79.3255 -4.27322 2.6534 0
M  V30 891 H 79.0255 -3.92345 4.37424 0
M  V30 892 H 80.5495 -4.71438 3.88044 0
M  V30 893 H 81.9635 -2.7542 5.02809 0
M  V30 894 H 80.3605 -2.19311 5.5859 0
M  V30 895 H 81.4305 -1.06824 4.72987 0
M  V30 896 N 82.7736 -1.49793 -0.48987 0
M  V30 897 C 83.6836 -1.70036 -1.61632 0
M  V30 898 C 84.6996 -0.583102 -1.63939 0
M  V30 899 O 85.8756 -0.859169 -1.82154 0
M  V30 900 C 82.9406 -1.77277 -2.97949 0
M  V30 901 C 82.0016 -3.00918 -3.06181 0
M  V30 902 C 81.2346 -3.07804 -4.35996 0
M  V30 903 O 81.4576 -2.21982 -5.25433 0
M  V30 904 O 80.3916 -4.00369 -4.49431 0
M  V30 905 H 84.2176 -2.65486 -1.47482 0
M  V30 906 H 81.8026 -1.33666 -0.667362 0
M  V30 907 H 83.6846 -1.84329 -3.78947 0
M  V30 908 H 82.3596 -0.850076 -3.12339 0
M  V30 909 H 81.2666 -2.99377 -2.2433 0
M  V30 910 H 82.5996 -3.92704 -2.96723 0
M  V30 911 N 84.2517 0.741722 -1.39055 0
M  V30 912 C 85.6677 1.04638 -1.20512 0
M  V30 913 C 85.8677 2.01405 -0.0620218 0
M  V30 914 O 84.9237 2.45547 0.588457 0
M  V30 915 C 86.2367 1.6151 -2.53643 0
M  V30 916 C 87.7847 1.73623 -2.6043 0
M  V30 917 C 88.2597 2.33906 -3.93767 0
M  V30 918 N 89.7507 2.41323 -3.9537 0
M  V30 919 C 90.4857 2.88888 -4.95309 0
M  V30 920 N 89.9817 3.36401 -6.05645 0
M  V30 921 N 91.7747 2.88037 -4.82692 0
M  V30 922 H 83.9257 0.0998155 -2.12165 0
M  V30 923 H 86.1887 0.106907 -0.941953 0
M  V30 924 H 85.8947 0.978739 -3.37807 0
M  V30 925 H 85.7687 2.60411 -2.72885 0
M  V30 926 H 88.1557 2.36384 -1.76655 0
M  V30 927 H 88.2367 0.733945 -2.45045 0
M  V30 928 H 87.8807 1.71776 -4.7797 0
M  V30 929 H 87.8107 3.34799 -4.06469 0
M  V30 930 H 90.3017 2.07734 -3.15682 0
M  V30 931 H 90.6147 3.71186 -6.77821 0
M  V30 932 H 88.9597 3.34427 -6.09248 0
M  V30 933 H 92.1507 2.50237 -3.95599 0
M  V30 934 H 92.3237 3.24792 -5.60726 0
M  V30 935 N 85.7298 1.2412 0.971189 0
M  V30 936 C 86.6398 1.04747 2.09917 0
M  V30 937 C 87.6558 -0.0107162 1.73997 0
M  V30 938 O 88.8318 0.186714 2.00533 0
M  V30 939 C 85.8968 0.650828 3.40537 0
M  V30 940 C 84.9578 1.7851 3.90426 0
M  V30 941 C 84.1908 1.40729 5.14812 0
M  V30 942 O 84.4138 0.29557 5.69634 0
M  V30 943 O 83.3478 2.23168 5.58999 0
M  V30 944 H 87.1738 1.99304 2.29154 0
M  V30 945 H 84.7588 1.02908 1.08307 0
M  V30 946 H 86.6408 0.440992 4.19086 0
M  V30 947 H 85.3158 -0.265649 3.22608 0
M  V30 948 H 84.2228 2.04966 3.12953 0
M  V30 949 H 85.5558 2.68023 4.12825 0
M  V30 950 N 87.2079 -1.17134 1.05439 0
M  V30 951 C 88.4479 -1.89137 0.77502 0
M  V30 952 C 88.8119 -1.79345 -0.685526 0
M  V30 953 O 90.0129 -2.46188 -1.0791 0
M  V30 954 C 88.2839 -3.35003 1.2453 0
M  V30 955 S 89.8429 -4.24952 1.09367 0
M  V30 956 H 86.6609 -0.652949 0.281387 0
M  V30 957 H 89.2629 -1.4145 1.34953 0
M  V30 958 H 87.9669 -3.39666 2.30338 0
M  V30 959 H 87.4979 -3.87736 0.665166 0
M  V30 960 H 89.5129 -4.96196 0.0193397 0
M  V30 961 N 88.686 -0.835752 -1.33615 0
M  V30 962 C 89.932 -0.430596 -1.98176 0
M  V30 963 C 90.265 1.00684 -1.66061 0
M  V30 964 O 89.54 1.70339 -0.938877 0
M  V30 965 C 89.823 -0.648065 -3.5422 0
M  V30 966 C 89.676 -2.13255 -3.96033 0
M  V30 967 C 90.995 -0.0922113 -4.40003 0
M  V30 968 H 88.114 -0.157924 -0.719881 0
M  V30 969 H 90.756 -1.05069 -1.58305 0
M  V30 970 H 88.906 -0.120237 -3.88314 0
M  V30 971 H 90.578 -2.725 -3.72211 0
M  V30 972 H 88.821 -2.61823 -3.45878 0
M  V30 973 H 89.492 -2.23547 -5.04708 0
M  V30 974 H 91.968 -0.543343 -4.12537 0
M  V30 975 H 90.844 -0.274083 -5.48215 0
M  V30 976 H 91.105 1.00378 -4.30554 0
M  V30 977 N 90.1641 1.46063 -0.591896 0
M  V30 978 C 91.0741 2.34192 0.13831 0
M  V30 979 C 92.0901 1.50305 0.876608 0
M  V30 980 O 93.2661 1.8315 0.837728 0
M  V30 981 C 90.3311 3.27656 1.13326 0
M  V30 982 C 89.3921 4.27445 0.39863 0
M  V30 983 C 88.6251 5.16443 1.34618 0
M  V30 984 O 88.8481 5.08553 2.58321 0
M  V30 985 O 87.7821 5.95843 0.851768 0
M  V30 986 H 91.6081 2.98002 -0.58552 0
M  V30 987 H 89.1931 1.45188 -0.352239 0
M  V30 988 H 91.0751 3.85291 1.70671 0
M  V30 989 H 89.7501 2.6643 1.83839 0
M  V30 990 H 88.6571 3.73471 -0.216895 0
M  V30 991 H 89.9901 4.91482 -0.265709 0
M  V30 992 N 91.6422 0.330177 1.54103 0
M  V30 993 C 92.5522 -0.541534 2.28264 0
M  V30 994 C 93.5682 -1.12351 1.32866 0
M  V30 995 O 94.7442 -1.14206 1.65888 0
M  V30 996 C 91.8092 -1.68322 3.03098 0
M  V30 997 C 90.8702 -1.13238 4.14096 0
M  V30 998 C 90.1032 -2.21966 4.85352 0
M  V30 999 O 90.3262 -3.42437 4.56172 0
M  V30 1000 O 89.2602 -1.87013 5.7211 0
M  V30 1001 H 93.0862 0.060938 3.03639 0
M  V30 1002 H 90.6712 0.09565 1.49093 0
M  V30 1003 H 92.5532 -2.34777 3.49939 0
M  V30 1004 H 91.2282 -2.27176 2.30593 0
M  V30 1005 H 90.1352 -0.432736 3.71589 0
M  V30 1006 H 91.4682 -0.588898 4.88664 0
M  V30 1007 N 93.1203 -1.57491 0.0584922 0
M  V30 1008 C 94.3483 -1.97296 -0.623037 0
M  V30 1009 C 94.7633 -0.936338 -1.63946 0
M  V30 1010 O 94.1203 0.0785981 -1.82331 0
M  V30 1011 C 94.1713 -3.37183 -1.30345 0
M  V30 1012 O 93.8923 -4.36872 -0.32773 0
M  V30 1013 C 95.3933 -3.91788 -2.07406 0
M  V30 1014 H 92.6133 -0.649153 -0.169826 0
M  V30 1015 H 95.1573 -2.04106 0.12696 0
M  V30 1016 H 93.3123 -3.31502 -2.00463 0
M  V30 1017 H 93.7263 -5.18141 -0.814269 0
M  V30 1018 H 95.2003 -4.91926 -2.50425 0
M  V30 1019 H 95.6773 -3.27609 -2.92521 0
M  V30 1020 H 96.2833 -4.00829 -1.42184 0
M  V30 1021 N 94.5984 0.214957 -1.56127 0
M  V30 1022 C 95.8384 0.945364 -1.81224 0
M  V30 1023 C 96.2024 1.81265 -0.633005 0
M  V30 1024 O 97.4034 2.57731 -0.763423 0
M  V30 1025 C 95.6744 1.75665 -3.1125 0
M  V30 1026 S 97.2334 2.54179 -3.57685 0
M  V30 1027 H 94.0514 0.317443 -0.6362 0
M  V30 1028 H 96.6534 0.210381 -1.94365 0
M  V30 1029 H 95.3574 1.10977 -3.9511 0
M  V30 1030 H 94.8884 2.53381 -3.00934 0
M  V30 1031 H 96.9034 3.7792 -3.21545 0
M  V30 1032 N 96.0765 1.50051 0.48192 0
M  V30 1033 C 97.3015 1.64508 1.26301 0
M  V30 1034 C 97.7265 0.323851 1.85291 0
M  V30 1035 O 97.0845 -0.710969 1.66778 0
M  V30 1036 C 97.1325 2.7305 2.35533 0
M  V30 1037 O 96.2365 2.3355 3.39895 0
M  V30 1038 H 95.5775 0.549978 0.372048 0
M  V30 1039 H 98.1075 1.9636 0.574786 0
M  V30 1040 H 98.1175 2.95799 2.8101 0
M  V30 1041 H 96.7925 3.68946 1.91967 0
M  V30 1042 H 95.3695 2.21205 3.00204 0
M  V30 1043 N 97.5546 -0.734337 1.39446 0
M  V30 1044 C 98.7846 -1.52137 1.39778 0
M  V30 1045 C 99.1926 -1.89198 -0.00929312 0
M  V30 1046 O 98.5356 -1.54666 -0.991168 0
M  V30 1047 C 98.5976 -2.83762 2.20724 0
M  V30 1048 C 98.2616 -2.69131 3.69347 0
M  V30 1049 C 99.2586 -2.37635 4.62413 0
M  V30 1050 C 96.9436 -2.85982 4.1294 0
M  V30 1051 C 98.9376 -2.23172 5.97054 0
M  V30 1052 C 96.6246 -2.71137 5.47657 0
M  V30 1053 C 97.6226 -2.39777 6.39528 0
M  V30 1054 O 97.3106 -2.25026 7.71763 0
M  V30 1055 H 97.0426 -0.476717 0.479288 0
M  V30 1056 H 99.5966 -0.915012 1.83893 0
M  V30 1057 H 97.8266 -3.4666 1.71359 0
M  V30 1058 H 99.5156 -3.45383 2.13226 0
M  V30 1059 H 100.282 -2.24267 4.30034 0
M  V30 1060 H 96.1606 -3.09383 3.41765 0
M  V30 1061 H 99.7046 -1.98617 6.68728 0
M  V30 1062 H 95.6016 -2.84083 5.79626 0
M  V30 1063 H 96.3696 -2.40091 7.82495 0
M  V30 1064 N 99.0327 -1.24633 -0.964593 0
M  V30 1065 C 99.9427 -1.05859 -2.09359 0
M  V30 1066 C 100.959 0.00148855 -1.74 0
M  V30 1067 O 102.135 -0.197346 -2.00431 0
M  V30 1068 C 99.1997 -0.668879 -3.40187 0
M  V30 1069 C 98.2607 -1.80578 -3.89474 0
M  V30 1070 C 97.4937 -1.43457 -5.14058 0
M  V30 1071 O 97.7167 -0.325775 -5.69469 0
M  V30 1072 O 96.6507 -2.2613 -5.57807 0
M  V30 1073 H 100.477 -2.00516 -2.28094 0
M  V30 1074 H 98.0617 -1.03481 -1.0776 0
M  V30 1075 H 99.9437 -0.463211 -4.18846 0
M  V30 1076 H 98.6187 0.248536 -3.22744 0
M  V30 1077 H 97.5257 -2.06623 -3.11862 0
M  V30 1078 H 98.8587 -2.70208 -4.11398 0
M  V30 1079 N 100.511 1.16574 -1.06058 0
M  V30 1080 C 101.421 2.2452 -0.680282 0
M  V30 1081 C 102.437 1.71348 0.302604 0
M  V30 1082 O 103.613 2.00822 0.152513 0
M  V30 1083 C 100.678 3.46629 -0.0700315 0
M  V30 1084 C 99.7388 4.14849 -1.10448 0
M  V30 1085 C 98.9718 5.31129 -0.523256 0
M  V30 1086 O 99.1948 5.66514 0.664709 0
M  V30 1087 O 98.1288 5.88526 -1.26179 0
M  V30 1088 H 101.955 2.59355 -1.58015 0
M  V30 1089 H 99.5398 1.24043 -0.832694 0
M  V30 1090 H 101.422 4.20543 0.268667 0
M  V30 1091 H 100.097 3.13573 0.803353 0
M  V30 1092 H 99.0038 3.42916 -1.49532 0
M  V30 1093 H 100.337 4.51954 -1.94931 0
M  V30 1094 N 101.989 0.842826 1.3317 0
M  V30 1095 C 102.952 0.284065 2.27433 0
M  V30 1096 C 103.952 -0.54948 1.5112 0
M  V30 1097 O 105.142 -0.362699 1.70382 0
M  V30 1098 C 102.274 -0.599384 3.35589 0
M  V30 1099 H 103.467 1.11589 2.78366 0
M  V30 1100 H 101.02 0.616221 1.4364 0
M  V30 1101 H 101.755 -1.45349 2.89904 0
M  V30 1102 H 101.54 -0.00291266 3.921 0
M  V30 1103 H 103.03 -0.983488 4.05854 0
M  V30 1104 N 103.467 -1.45747 0.599634 0
M  V30 1105 C 104.714 -2.02292 0.0917284 0
M  V30 1106 C 105.042 -1.46906 -1.27472 0
M  V30 1107 O 104.297 -0.630652 -1.8526 0
M  V30 1108 C 104.596 -3.57399 -0.00602758 0
M  V30 1109 C 104.262 -4.31902 1.29503 0
M  V30 1110 C 102.924 -4.51974 1.65144 0
M  V30 1111 C 105.276 -4.74551 2.15525 0
M  V30 1112 C 102.604 -5.11949 2.86574 0
M  V30 1113 C 104.956 -5.35868 3.36196 0
M  V30 1114 C 103.62 -5.54165 3.72099 0
M  V30 1115 H 102.89 -0.740239 0.0335658 0
M  V30 1116 H 105.537 -1.7491 0.779661 0
M  V30 1117 H 103.842 -3.84014 -0.777183 0
M  V30 1118 H 105.539 -3.98846 -0.415038 0
M  V30 1119 H 102.129 -4.16588 1.00761 0
M  V30 1120 H 106.313 -4.58784 1.8929 0
M  V30 1121 H 101.569 -5.24305 3.14507 0
M  V30 1122 H 105.743 -5.6787 4.03109 0
M  V30 1123 H 103.37 -6.00406 4.6628 0
M  V30 1124 N 104.945 -0.338344 -1.53925 0
M  V30 1125 C 105.855 0.529421 -2.28548 0
M  V30 1126 C 106.871 1.11645 -1.3346 0
M  V30 1127 O 108.047 1.13325 -1.66492 0
M  V30 1128 C 105.112 1.66713 -3.03987 0
M  V30 1129 C 104.173 1.11041 -4.14691 0
M  V30 1130 C 103.406 2.19389 -4.86522 0
M  V30 1131 O 103.629 3.40013 -4.57982 0
M  V30 1132 O 102.563 1.83976 -5.73094 0
M  V30 1133 H 106.389 -0.0770399 -3.03602 0
M  V30 1134 H 103.974 -0.103555 -1.49041 0
M  V30 1135 H 105.856 2.32918 -3.5118 0
M  V30 1136 H 104.531 2.25949 -2.31794 0
M  V30 1137 H 103.438 0.413024 -3.71813 0
M  V30 1138 H 104.771 0.562975 -4.8897 0
M  V30 1139 N 106.423 1.57458 -0.0668435 0
M  V30 1140 C 107.386 2.11323 0.887422 0
M  V30 1141 C 108.386 1.03618 1.22964 0
M  V30 1142 O 109.576 1.29626 1.16373 0
M  V30 1143 C 106.708 2.61048 2.19242 0
M  V30 1144 H 107.901 2.96942 0.420194 0
M  V30 1145 H 105.454 1.55239 0.181793 0
M  V30 1146 H 106.189 1.78868 2.70512 0
M  V30 1147 H 105.974 3.39769 1.95702 0
M  V30 1148 H 107.464 3.02814 2.87565 0
M  V30 1149 N 107.901 -0.206675 1.56239 0
M  V30 1150 C 108.831 -1.25909 1.96645 0
M  V30 1151 C 109.812 -1.48097 0.836734 0
M  V30 1152 O 110.997 -1.6003 1.10019 0
M  V30 1153 C 108.127 -2.6058 2.29599 0
M  V30 1154 C 107.081 -2.53024 3.452 0
M  V30 1155 C 106.407 -3.91861 3.63798 0
M  V30 1156 C 107.707 -2.06524 4.79734 0
M  V30 1157 H 109.401 -0.923369 2.84806 0
M  V30 1158 H 106.947 -0.442735 1.37025 0
M  V30 1159 H 108.9 -3.34375 2.56459 0
M  V30 1160 H 107.624 -2.95869 1.38307 0
M  V30 1161 H 106.283 -1.81684 3.18412 0
M  V30 1162 H 105.931 -4.24483 2.69857 0
M  V30 1163 H 105.631 -3.87683 4.4156 0
M  V30 1164 H 107.155 -4.67296 3.93022 0
M  V30 1165 H 108.569 -2.70072 5.05702 0
M  V30 1166 H 106.966 -2.13374 5.60885 0
M  V30 1167 H 108.036 -1.01802 4.74093 0
M  V30 1168 N 109.379 -1.50304 -0.473955 0
M  V30 1169 C 110.289 -1.7174 -1.5982 0
M  V30 1170 C 111.305 -0.600457 -1.63311 0
M  V30 1171 O 112.481 -0.878441 -1.81233 0
M  V30 1172 C 109.546 -1.80427 -2.96052 0
M  V30 1173 C 108.607 -3.04148 -3.02972 0
M  V30 1174 C 107.84 -3.12411 -4.32706 0
M  V30 1175 O 108.063 -2.27542 -5.23049 0
M  V30 1176 O 106.997 -4.05113 -4.45159 0
M  V30 1177 H 110.823 -2.67035 -1.44657 0
M  V30 1178 H 108.408 -1.34366 -0.653148 0
M  V30 1179 H 110.29 -1.88338 -3.7697 0
M  V30 1180 H 108.965 -0.883156 -3.11419 0
M  V30 1181 H 107.872 -3.0174 -2.21142 0
M  V30 1182 H 109.205 -3.95829 -2.92541 0
M  V30 1183 N 110.857 0.726932 -1.39834 0
M  V30 1184 C 112.082 1.52121 -1.40976 0
M  V30 1185 C 112.507 1.88098 -0.00826029 0
M  V30 1186 O 111.865 1.52479 0.980807 0
M  V30 1187 C 111.913 2.78021 -2.29644 0
M  V30 1188 O 111.017 3.74272 -1.73188 0
M  V30 1189 H 110.358 0.45908 -0.479731 0
M  V30 1190 H 112.888 0.896207 -1.83927 0
M  V30 1191 H 112.898 3.26671 -2.44438 0
M  V30 1192 H 111.573 2.51169 -3.31492 0
M  V30 1193 H 110.15 3.33073 -1.6768 0
M  V30 1194 N 112.336 1.25143 0.95797 0
M  V30 1195 C 113.561 1.12521 1.74223 0
M  V30 1196 C 113.986 -0.317402 1.85403 0
M  V30 1197 O 113.344 -1.2299 1.33204 0
M  V30 1198 C 113.392 1.78062 3.1357 0
M  V30 1199 O 112.496 1.058 3.98598 0
M  V30 1200 H 111.837 0.39304 0.535178 0
M  V30 1201 H 114.367 1.65641 1.201 0
M  V30 1202 H 114.377 1.84213 3.64046 0
M  V30 1203 H 113.052 2.83021 3.04749 0
M  V30 1204 H 111.629 1.07506 3.57067 0
M  V30 1205 N 113.814 -1.1601 1.06675 0
M  V30 1206 C 115.042 -1.90527 0.806667 0
M  V30 1207 C 115.457 -1.77643 -0.639396 0
M  V30 1208 O 114.814 -1.12369 -1.43803 0
M  V30 1209 C 114.865 -3.41106 1.19705 0
M  V30 1210 O 114.586 -3.53608 2.58636 0
M  V30 1211 C 116.087 -4.32663 0.965266 0
M  V30 1212 H 113.307 -0.604053 0.292166 0
M  V30 1213 H 115.851 -1.47026 1.4214 0
M  V30 1214 H 114.006 -3.82296 0.626774 0
M  V30 1215 H 114.42 -4.47011 2.74375 0
M  V30 1216 H 115.894 -5.36763 1.288 0
M  V30 1217 H 116.371 -4.39089 -0.0987936 0
M  V30 1218 H 116.977 -3.97206 1.52011 0
M  V30 1219 N 115.292 -0.849877 -1.32721 0
M  V30 1220 C 116.255 -0.296122 -2.27279 0
M  V30 1221 C 117.255 0.541458 -1.5141 0
M  V30 1222 O 118.445 0.353658 -1.70572 0
M  V30 1223 C 115.577 0.581579 -3.35902 0
M  V30 1224 H 116.77 -1.13064 -2.77771 0
M  V30 1225 H 114.323 -0.62383 -1.43311 0
M  V30 1226 H 115.058 1.43809 -2.9067 0
M  V30 1227 H 114.843 -0.0178814 -3.92096 0
M  V30 1228 H 116.333 0.961951 -4.0637 0
M  V30 1229 N 116.77 1.45427 -0.607355 0
M  V30 1230 C 117.998 2.06614 -0.108814 0
M  V30 1231 C 118.413 1.45204 1.2067 0
M  V30 1232 O 117.77 0.566132 1.73497 0
M  V30 1233 C 117.821 3.61481 0.0375347 0
M  V30 1234 O 117.542 4.20598 -1.22593 0
M  V30 1235 C 119.043 4.39652 0.567561 0
M  V30 1236 H 116.263 0.66747 -0.0687351 0
M  V30 1237 H 118.807 1.86675 -0.835022 0
M  V30 1238 H 116.962 3.80762 0.714068 0
M  V30 1239 H 117.376 5.1377 -1.05547 0
M  V30 1240 H 118.85 5.48518 0.61905 0
M  V30 1241 H 119.327 4.09417 1.58978 0
M  V30 1242 H 119.933 4.25234 -0.0749202 0
M  V30 1243 N 118.248 0.346503 1.53744 0
M  V30 1244 C 119.525 -0.304532 1.93215 0
M  V30 1245 C 119.905 -1.67993 1.27834 0
M  V30 1246 O 119.253 -2.24411 0.430352 0
M  V30 1247 C 119.463 -0.373852 3.46992 0
M  V30 1248 C 120.811 -0.62329 4.2 0
M  V30 1249 O 121.835 -0.455847 3.53271 0
M  V30 1250 O 120.694 -0.947879 5.38217 0
M  V30 1251 H 117.788 -0.178318 0.807547 0
M  V30 1252 H 120.334 0.397895 1.64969 0
M  V30 1253 H 119.106 0.591224 3.86808 0
M  V30 1254 H 118.729 -1.12294 3.81413 0
M  V30 1255 N 119.726 -1.57421 0.075193 0
M  V30 1256 C 120.972 -1.93905 -0.594025 0
M  V30 1257 C 121.305 -0.955701 -1.69056 0
M  V30 1258 O 120.58 0.0145373 -1.94495 0
M  V30 1259 C 120.863 -3.40638 -1.1678 0
M  V30 1260 C 120.716 -4.49733 -0.0776792 0
M  V30 1261 C 122.035 -3.88259 -2.07228 0
M  V30 1262 H 119.154 -0.705105 -0.214466 0
M  V30 1263 H 121.796 -1.8947 0.141854 0
M  V30 1264 H 119.946 -3.44549 -1.79494 0
M  V30 1265 H 121.618 -4.57942 0.555573 0
M  V30 1266 H 119.861 -4.29751 0.591286 0
M  V30 1267 H 120.532 -5.49549 -0.519603 0
M  V30 1268 H 123.008 -3.86376 -1.54445 0
M  V30 1269 H 121.884 -4.91533 -2.44308 0
M  V30 1270 H 122.145 -3.26396 -2.98191 0
M  V30 1271 N 121.204 0.198386 -1.56346 0
M  V30 1272 C 122.451 0.919286 -1.80431 0
M  V30 1273 C 122.779 1.83393 -0.647866 0
M  V30 1274 O 122.034 1.92236 0.366556 0
M  V30 1275 C 122.333 1.77031 -3.10475 0
M  V30 1276 C 121.999 1.00693 -4.39513 0
M  V30 1277 C 120.661 0.796145 -4.74568 0
M  V30 1278 C 123.013 0.469559 -5.19081 0
M  V30 1279 C 120.341 0.0364588 -5.86689 0
M  V30 1280 C 122.693 -0.2769 -6.31994 0
M  V30 1281 C 121.357 -0.49873 -6.65634 0
M  V30 1282 H 120.627 0.336391 -0.660244 0
M  V30 1283 H 123.274 0.185872 -1.90596 0
M  V30 1284 H 121.579 2.5723 -2.95533 0
M  V30 1285 H 123.276 2.33065 -3.26315 0
M  V30 1286 H 119.866 1.18122 -4.12001 0
M  V30 1287 H 124.05 0.619816 -4.92414 0
M  V30 1288 H 119.306 -0.145412 -6.11227 0
M  V30 1289 H 123.48 -0.700684 -6.92866 0
M  V30 1290 H 121.107 -1.0893 -7.52355 0
M  V30 1291 N 122.682 1.50554 0.465978 0
M  V30 1292 C 123.928 1.63006 1.21658 0
M  V30 1293 C 124.283 0.328613 1.89573 0
M  V30 1294 O 123.576 -0.673813 1.79361 0
M  V30 1295 C 123.77 2.75152 2.28093 0
M  V30 1296 C 123.599 4.16075 1.7062 0
M  V30 1297 C 122.369 4.82408 1.50368 0
M  V30 1298 C 124.567 5.00145 1.1983 0
M  V30 1299 N 122.549 6.07532 0.881924 0
M  V30 1300 C 123.92 6.16035 0.700083 0
M  V30 1301 C 125.975 4.85882 1.08733 0
M  V30 1302 C 124.678 7.19228 0.101835 0
M  V30 1303 C 126.704 5.89257 0.503016 0
M  V30 1304 C 126.066 7.04398 0.0152005 0
M  V30 1305 H 122.165 0.650596 0.433877 0
M  V30 1306 H 124.749 1.8769 0.517746 0
M  V30 1307 H 122.92 2.52181 2.95397 0
M  V30 1308 H 124.652 2.76935 2.95109 0
M  V30 1309 H 121.407 4.39788 1.75737 0
M  V30 1310 H 121.831 6.7443 0.589312 0
M  V30 1311 H 126.473 3.97144 1.4504 0
M  V30 1312 H 124.191 8.07637 -0.273426 0
M  V30 1313 H 127.777 5.80286 0.419451 0
M  V30 1314 H 126.657 7.83021 -0.429856 0
M  V30 1315 N 124.16 -0.719506 1.40217 0
M  V30 1316 C 125.123 -1.8153 1.39927 0
M  V30 1317 C 126.123 -1.58095 0.293723 0
M  V30 1318 O 127.313 -1.65209 0.552429 0
M  V30 1319 C 124.445 -3.19561 1.18716 0
M  V30 1320 H 125.638 -1.83186 2.37451 0
M  V30 1321 H 123.191 -0.924746 1.26008 0
M  V30 1322 H 123.926 -3.23557 0.219366 0
M  V30 1323 H 123.711 -3.3797 1.98793 0
M  V30 1324 H 125.201 -3.99598 1.21291 0
M  V30 1325 N 125.638 -1.25649 -0.95132 0
M  V30 1326 C 126.585 -1.06323 -2.04851 0
M  V30 1327 C 127.555 0.0286491 -1.66075 0
M  V30 1328 O 128.74 -0.12917 -1.90362 0
M  V30 1329 C 125.88 -0.691529 -3.381 0
M  V30 1330 C 124.993 -1.85861 -3.89974 0
M  V30 1331 C 124.128 -1.43096 -5.11563 0
M  V30 1332 C 123.167 -2.56696 -5.55674 0
M  V30 1333 N 122.304 -2.14684 -6.68472 0
M  V30 1334 H 127.144 -2.00222 -2.20715 0
M  V30 1335 H 124.681 -0.997027 -1.08156 0
M  V30 1336 H 126.639 -0.456963 -4.1469 0
M  V30 1337 H 125.269 0.210474 -3.22113 0
M  V30 1338 H 124.321 -2.20639 -3.09875 0
M  V30 1339 H 125.633 -2.71161 -4.18657 0
M  V30 1340 H 124.787 -1.15624 -5.9558 0
M  V30 1341 H 123.526 -0.548722 -4.84603 0
M  V30 1342 H 122.531 -2.84909 -4.7022 0
M  V30 1343 H 123.756 -3.45503 -5.8464 0
M  V30 1344 H 121.702 -1.28881 -6.43215 0
M  V30 1345 H 121.619 -2.9353 -6.96689 0
M  V30 1346 H 122.887 -1.90397 -7.5589 0
M  V30 1347 N 127.117 1.15442 -1.07289 0
M  V30 1348 C 128.347 1.89821 -0.815576 0
M  V30 1349 C 128.755 1.7823 0.634867 0
M  V30 1350 O 128.098 1.13152 1.44715 0
M  V30 1351 C 128.16 3.40817 -1.14385 0
M  V30 1352 C 127.824 3.76193 -2.59476 0
M  V30 1353 C 128.821 3.77269 -3.57721 0
M  V30 1354 C 126.506 4.0652 -2.95037 0
M  V30 1355 C 128.5 4.08176 -4.89562 0
M  V30 1356 C 126.187 4.37092 -4.27076 0
M  V30 1357 C 127.185 4.37902 -5.24148 0
M  V30 1358 O 126.873 4.67741 -6.53815 0
M  V30 1359 H 126.605 0.608465 -0.294528 0
M  V30 1360 H 129.159 1.472 -1.43252 0
M  V30 1361 H 127.389 3.83835 -0.469865 0
M  V30 1362 H 129.078 3.96485 -0.869179 0
M  V30 1363 H 129.844 3.5394 -3.3159 0
M  V30 1364 H 125.723 4.05049 -2.20128 0
M  V30 1365 H 129.267 4.08723 -5.65324 0
M  V30 1366 H 125.164 4.59889 -4.5296 0
M  V30 1367 H 125.932 4.85509 -6.58957 0
M  V30 1368 N 128.595 0.856903 1.32268 0
M  V30 1369 C 129.823 0.475439 2.01363 0
M  V30 1370 C 130.238 -0.928486 1.64392 0
M  V30 1371 O 129.595 -1.60624 0.866387 0
M  V30 1372 C 129.646 0.607545 3.56358 0
M  V30 1373 O 129.367 1.95617 3.92002 0
M  V30 1374 C 130.868 0.225382 4.42727 0
M  V30 1375 H 128.088 0.186636 0.644521 0
M  V30 1376 H 130.632 1.15446 1.68797 0
M  V30 1377 H 128.787 -0.0237719 3.87393 0
M  V30 1378 H 129.201 1.95455 4.86721 0
M  V30 1379 H 130.675 0.368813 5.50767 0
M  V30 1380 H 131.152 -0.834369 4.31202 0
M  V30 1381 H 131.758 0.831864 4.17085 0
M  V30 1382 N 130.073 -1.45103 0.615059 0
M  V30 1383 C 131.036 -2.29025 -0.0895485 0
M  V30 1384 C 132.036 -1.40174 -0.787906 0
M  V30 1385 O 133.226 -1.62217 -0.634933 0
M  V30 1386 C 130.358 -3.21376 -1.13711 0
M  V30 1387 H 131.551 -2.92807 0.648382 0
M  V30 1388 H 129.104 -1.51749 0.374444 0
M  V30 1389 H 129.839 -2.6241 -1.90556 0
M  V30 1390 H 129.624 -3.86834 -0.640475 0
M  V30 1391 H 131.114 -3.84459 -1.63036 0
M  V30 1392 N 131.551 -0.354651 -1.53558 0
M  V30 1393 C 132.791 0.238651 -2.03002 0
M  V30 1394 C 133.155 1.46878 -1.23656 0
M  V30 1395 O 134.356 2.13699 -1.63053 0
M  V30 1396 C 132.627 0.534175 -3.53386 0
M  V30 1397 S 134.186 1.10271 -4.24719 0
M  V30 1398 H 131.004 0.0702908 -0.707517 0
M  V30 1399 H 133.606 -0.494987 -1.8913 0
M  V30 1400 H 132.31 -0.368765 -4.0874 0
M  V30 1401 H 131.841 1.29718 -3.71398 0
M  V30 1402 H 133.856 2.38772 -4.34974 0
M  V30 1403 N 133.029 1.57378 -0.0835403 0
M  V30 1404 C 133.939 2.16897 0.894021 0
M  V30 1405 C 134.955 1.13528 1.31861 0
M  V30 1406 O 136.131 1.45848 1.3889 0
M  V30 1407 C 133.196 2.72831 2.13925 0
M  V30 1408 C 132.257 3.91115 1.76997 0
M  V30 1409 C 131.49 4.44371 2.95584 0
M  V30 1410 O 131.713 3.96596 4.09961 0
M  V30 1411 O 130.647 5.35549 2.74719 0
M  V30 1412 H 134.473 3.00814 0.417679 0
M  V30 1413 H 132.058 1.48741 0.140181 0
M  V30 1414 H 133.94 3.0863 2.86924 0
M  V30 1415 H 132.615 1.91967 2.60635 0
M  V30 1416 H 131.522 3.60148 1.01214 0
M  V30 1417 H 132.855 4.73307 1.3506 0
M  V30 1418 N 134.507 -0.190092 1.56449 0
M  V30 1419 C 135.735 -0.925772 1.85033 0
M  V30 1420 C 136.15 -1.76638 0.666658 0
M  V30 1421 O 135.507 -1.78822 -0.364565 0
M  V30 1422 C 135.558 -1.81786 3.12468 0
M  V30 1423 O 135.279 -1.01118 4.26271 0
M  V30 1424 C 136.78 -2.6648 3.54265 0
M  V30 1425 H 134 -0.269872 0.614337 0
M  V30 1426 H 136.544 -0.195837 2.0356 0
M  V30 1427 H 134.699 -2.50136 2.95822 0
M  V30 1428 H 135.113 -1.61956 4.98869 0
M  V30 1429 H 136.587 -3.24722 4.46385 0
M  V30 1430 H 137.064 -3.40434 2.77491 0
M  V30 1431 H 137.67 -2.03493 3.73458 0
M  V30 1432 N 135.985 -1.50799 -0.457987 0
M  V30 1433 C 136.948 -1.7005 -1.53674 0
M  V30 1434 C 137.948 -0.570881 -1.50325 0
M  V30 1435 O 139.138 -0.838126 -1.52712 0
M  V30 1436 C 136.27 -1.73788 -2.93276 0
M  V30 1437 H 137.463 -2.66306 -1.37917 0
M  V30 1438 H 135.016 -1.40477 -0.685271 0
M  V30 1439 H 135.751 -0.792717 -3.14462 0
M  V30 1440 H 135.536 -2.55864 -2.97113 0
M  V30 1441 H 137.026 -1.90591 -3.71571 0
M  V30 1442 N 137.463 0.71206 -1.40597 0
M  V30 1443 C 138.879 1.02058 -1.22704 0
M  V30 1444 C 139.079 2.01228 -0.104729 0
M  V30 1445 O 138.135 2.4674 0.53624 0
M  V30 1446 C 139.448 1.56094 -2.57012 0
M  V30 1447 C 140.996 1.6806 -2.64054 0
M  V30 1448 C 141.471 2.25501 -3.9864 0
M  V30 1449 N 142.962 2.32882 -4.004 0
M  V30 1450 C 143.697 2.78317 -5.01325 0
M  V30 1451 N 143.193 3.23478 -6.12645 0
M  V30 1452 N 144.986 2.77733 -4.88693 0
M  V30 1453 H 137.137 0.0547896 -2.12329 0
M  V30 1454 H 139.4 0.0869027 -0.944008 0
M  V30 1455 H 139.106 0.906865 -3.39807 0
M  V30 1456 H 138.98 2.54564 -2.78347 0
M  V30 1457 H 141.367 2.32583 -1.81629 0
M  V30 1458 H 141.448 0.681802 -2.46546 0
M  V30 1459 H 141.092 1.61598 -4.81506 0
M  V30 1460 H 141.022 3.26102 -4.13479 0
M  V30 1461 H 143.513 2.00991 -3.20017 0
M  V30 1462 H 143.826 3.56725 -6.85542 0
M  V30 1463 H 142.171 3.21429 -6.16205 0
M  V30 1464 H 145.362 2.4179 -4.00818 0
M  V30 1465 H 145.535 3.12826 -5.67489 0
M  V30 1466 N 138.941 1.26152 0.944643 0
M  V30 1467 C 140.169 1.14259 1.72489 0
M  V30 1468 C 140.584 -0.302555 1.8636 0
M  V30 1469 O 139.941 -1.20741 1.36849 0
M  V30 1470 C 139.992 1.80266 3.13347 0
M  V30 1471 O 139.713 3.19133 3.00143 0
M  V30 1472 C 141.214 1.74283 4.07603 0
M  V30 1473 H 138.434 0.398051 0.540181 0
M  V30 1474 H 140.978 1.66706 1.18446 0
M  V30 1475 H 139.133 1.31766 3.64303 0
M  V30 1476 H 139.547 3.51744 3.89071 0
M  V30 1477 H 141.021 2.25111 5.04013 0
M  V30 1478 H 141.498 0.708631 4.33446 0
M  V30 1479 H 142.104 2.22319 3.62567 0
M  V30 1480 N 140.419 -1.14872 1.07899 0
M  V30 1481 C 141.83 -1.67367 0.827363 0
M  V30 1482 C 142.181 -1.85236 -0.646693 0
M  V30 1483 O 141.306 -1.55974 -1.50004 0
M  V30 1484 C 141.901 -3.04016 1.49532 0
M  V30 1485 C 140.46 -3.53566 1.29106 0
M  V30 1486 C 139.607 -2.29161 1.56143 0
M  V30 1487 H 142.558 -0.990083 1.24028 0
M  V30 1488 H 142.579 -3.69219 0.919643 0
M  V30 1489 H 142.091 -2.90978 2.56814 0
M  V30 1490 H 140.192 -3.71835 0.238713 0
M  V30 1491 H 140.305 -4.34661 2.01511 0
M  V30 1492 H 138.669 -2.34978 0.982717 0
M  V30 1493 H 139.452 -2.18705 2.64619 0
M  V30 1494 N 141.898 -0.863906 -1.31812 0
M  V30 1495 C 143.314 -0.555004 -1.49639 0
M  V30 1496 C 143.514 0.912266 -1.79666 0
M  V30 1497 O 142.57 1.69479 -1.87171 0
M  V30 1498 C 143.883 -1.44998 -2.63431 0
M  V30 1499 C 145.431 -1.45138 -2.77316 0
M  V30 1500 C 145.906 -2.33179 -3.94197 0
M  V30 1501 N 147.397 -2.31025 -4.01474 0
M  V30 1502 C 148.132 -2.95871 -4.9117 0
M  V30 1503 N 147.628 -3.69863 -5.8581 0
M  V30 1504 N 149.421 -2.85211 -4.84367 0
M  V30 1505 H 141.572 -1.81339 -1.10589 0
M  V30 1506 H 143.835 -0.77505 -0.545895 0
M  V30 1507 H 143.541 -2.49377 -2.48 0
M  V30 1508 H 143.415 -1.14409 -3.59431 0
M  V30 1509 H 145.802 -0.415201 -2.92164 0
M  V30 1510 H 145.883 -1.79747 -1.82001 0
M  V30 1511 H 145.527 -3.3687 -3.80107 0
M  V30 1512 H 145.457 -1.95897 -4.88807 0
M  V30 1513 H 147.948 -1.77238 -3.33759 0
M  V30 1514 H 148.261 -4.16486 -6.50968 0
M  V30 1515 H 146.606 -3.73971 -5.85808 0
M  V30 1516 H 149.797 -2.26948 -4.09405 0
M  V30 1517 H 149.97 -3.36027 -5.54066 0
M  V30 1518 N 143.376 1.44774 -0.622745 0
M  V30 1519 C 144.653 1.95522 -0.0551974 0
M  V30 1520 C 145.033 1.5649 1.41683 0
M  V30 1521 O 144.381 0.834848 2.12703 0
M  V30 1522 C 144.591 3.4796 -0.269242 0
M  V30 1523 C 145.939 4.24306 -0.158014 0
M  V30 1524 O 146.963 3.55637 -0.200162 0
M  V30 1525 O 145.822 5.46471 -0.0558693 0
M  V30 1526 H 142.916 0.826556 0.0271015 0
M  V30 1527 H 145.462 1.54866 -0.693864 0
M  V30 1528 H 144.234 3.6939 -1.29099 0
M  V30 1529 H 143.857 3.95543 0.403966 0
M  V30 1530 N 144.854 0.36279 1.53368 0
M  V30 1531 C 145.801 -0.485008 2.25646 0
M  V30 1532 C 146.771 -1.07982 1.2621 0
M  V30 1533 O 147.956 -1.11284 1.54986 0
M  V30 1534 C 145.096 -1.62023 3.04701 0
M  V30 1535 C 144.209 -1.05086 4.19024 0
M  V30 1536 C 143.344 -2.15496 4.85525 0
M  V30 1537 C 142.383 -1.5601 5.91884 0
M  V30 1538 N 141.52 -2.60241 6.52088 0
M  V30 1539 H 146.36 0.137864 2.97681 0
M  V30 1540 H 143.897 0.0798061 1.46883 0
M  V30 1541 H 145.855 -2.28887 3.48807 0
M  V30 1542 H 144.485 -2.2138 2.34927 0
M  V30 1543 H 143.537 -0.27259 3.79422 0
M  V30 1544 H 144.849 -0.575926 4.95464 0
M  V30 1545 H 144.003 -2.90186 5.32801 0
M  V30 1546 H 142.742 -2.66341 4.08551 0
M  V30 1547 H 141.747 -0.798338 5.43973 0
M  V30 1548 H 142.972 -1.05994 6.70777 0
M  V30 1549 H 140.918 -3.10304 5.77968 0
M  V30 1550 H 140.835 -2.17426 7.24059 0
M  V30 1551 H 142.103 -3.34641 7.04014 0
M  V30 1552 N 146.332 -1.57332 0.0918853 0
M  V30 1553 C 147.262 -2.16872 -0.865371 0
M  V30 1554 C 148.243 -1.10118 -1.29646 0
M  V30 1555 O 149.428 -1.38242 -1.36392 0
M  V30 1556 C 146.558 -2.74649 -2.12569 0
M  V30 1557 C 145.512 -3.86747 -1.83333 0
M  V30 1558 C 144.838 -4.31212 -3.16166 0
M  V30 1559 C 146.138 -5.10089 -1.1228 0
M  V30 1560 H 147.832 -2.97114 -0.369307 0
M  V30 1561 H 145.378 -1.42918 -0.176194 0
M  V30 1562 H 147.331 -3.14952 -2.7997 0
M  V30 1563 H 146.055 -1.91657 -2.64452 0
M  V30 1564 H 144.714 -3.46978 -1.18331 0
M  V30 1565 H 144.362 -3.45115 -3.6593 0
M  V30 1566 H 144.062 -5.06788 -2.97388 0
M  V30 1567 H 145.586 -4.74146 -3.84731 0
M  V30 1568 H 147 -5.47582 -1.69785 0
M  V30 1569 H 145.397 -5.91073 -1.03693 0
M  V30 1570 H 146.467 -4.84786 -0.105041 0
M  V30 1571 N 147.81 0.181792 -1.56548 0
M  V30 1572 C 148.773 1.20894 -1.94724 0
M  V30 1573 C 149.773 1.37738 -0.829747 0
M  V30 1574 O 150.963 1.35323 -1.09697 0
M  V30 1575 C 148.095 2.57593 -2.23291 0
M  V30 1576 H 149.288 0.882275 -2.86629 0
M  V30 1577 H 146.841 0.423838 -1.50444 0
M  V30 1578 H 147.576 2.95291 -1.34067 0
M  V30 1579 H 147.361 2.46735 -3.04736 0
M  V30 1580 H 148.851 3.31637 -2.53785 0
M  V30 1581 N 149.288 1.51039 0.449983 0
M  V30 1582 C 150.251 1.70863 1.5277 0
M  V30 1583 C 151.251 0.578846 1.5002 0
M  V30 1584 O 152.441 0.846213 1.52266 0
M  V30 1585 C 149.573 1.75341 2.9235 0
M  V30 1586 H 150.766 2.67034 1.36502 0
M  V30 1587 H 148.319 1.40838 0.677812 0
M  V30 1588 H 149.054 0.809383 3.14037 0
M  V30 1589 H 148.839 2.57436 2.95752 0
M  V30 1590 H 150.329 1.92559 3.70555 0
M  V30 1591 N 150.766 -0.704594 1.40972 0
M  V30 1592 C 152.006 -1.47691 1.41304 0
M  V30 1593 C 152.37 -1.91992 0.0178582 0
M  V30 1594 O 153.571 -2.68599 -0.103996 0
M  V30 1595 C 151.842 -2.66254 2.38419 0
M  V30 1596 S 153.401 -3.55516 2.57204 0
M  V30 1597 H 150.219 -0.504808 0.500689 0
M  V30 1598 H 152.821 -0.822962 1.77335 0
M  V30 1599 H 151.525 -2.31897 3.38603 0
M  V30 1600 H 151.056 -3.3655 2.03711 0
M  V30 1601 H 153.071 -4.61115 1.83268 0
M  V30 1602 N 152.244 -1.26651 -0.937939 0
M  V30 1603 C 153.174 -1.10993 -2.05433 0
M  V30 1604 C 154.155 -0.0142161 -1.70094 0
M  V30 1605 O 155.34 -0.186837 -1.93299 0
M  V30 1606 C 152.47 -0.745561 -3.39203 0
M  V30 1607 C 151.424 -1.79337 -3.88616 0
M  V30 1608 C 150.75 -1.28324 -5.19073 0
M  V30 1609 C 152.05 -3.19553 -4.13138 0
M  V30 1610 H 153.744 -2.0438 -2.1879 0
M  V30 1611 H 151.29 -0.984041 -1.05131 0
M  V30 1612 H 153.243 -0.622888 -4.16771 0
M  V30 1613 H 151.967 0.22401 -3.25831 0
M  V30 1614 H 150.626 -1.90477 -3.13231 0
M  V30 1615 H 150.274 -0.303414 -5.02084 0
M  V30 1616 H 149.974 -1.98369 -5.53103 0
M  V30 1617 H 151.498 -1.1733 -5.99221 0
M  V30 1618 H 152.912 -3.11471 -4.81309 0
M  V30 1619 H 151.309 -3.87218 -4.58457 0
M  V30 1620 H 152.379 -3.65368 -3.18801 0
M  V30 1621 N 153.722 1.14298 -1.08507 0
M  V30 1622 C 154.632 2.23027 -0.727753 0
M  V30 1623 C 155.648 1.71952 0.26619 0
M  V30 1624 O 156.824 2.011 0.109882 0
M  V30 1625 C 153.889 3.46403 -0.143541 0
M  V30 1626 C 152.95 4.12413 -1.19223 0
M  V30 1627 C 152.183 5.29899 -0.635798 0
M  V30 1628 O 152.406 5.67796 0.544393 0
M  V30 1629 O 151.34 5.85717 -1.38634 0
M  V30 1630 H 155.166 2.55945 -1.63481 0
M  V30 1631 H 152.751 1.22248 -0.858817 0
M  V30 1632 H 154.633 4.21018 0.179404 0
M  V30 1633 H 153.308 3.15206 0.736659 0
M  V30 1634 H 152.215 3.39667 -1.56772 0
M  V30 1635 H 153.548 4.47718 -2.04474 0
M  V30 1636 N 155.201 0.870884 1.31352 0
M  V30 1637 C 156.449 0.48132 1.96285 0
M  V30 1638 C 156.77 -0.969813 1.69173 0
M  V30 1639 O 156.04 -1.67998 1.00764 0
M  V30 1640 H 154.62 0.175002 0.726212 0
M  V30 1641 H 157.282 1.11087 1.60143 0
M  V30 1642 H 156.378 0.639825 3.05471 0
M  V30 1643 N 156.679 -1.44442 0.630414 0
M  V30 1644 C 157.627 -2.32437 -0.0871428 0
M  V30 1645 C 158.621 -1.47304 -0.836525 0
M  V30 1646 O 159.827 -1.63653 -0.749506 0
M  V30 1647 H 156.202 -0.750533 -0.0469495 0
M  V30 1648 H 158.173 -2.90709 0.673096 0
M  V30 1649 C 156.922 -3.31288 -1.05563 0
M  V30 1650 H 156.245 -3.96805 -0.488426 0
M  V30 1651 H 157.685 -3.9554 -1.52721 0
M  V30 1652 C 156.144 -2.6016 -2.14052 0
M  V30 1653 O 156.674 -2.39997 -3.22124 0
M  V30 1654 N 154.88 -2.19911 -1.89967 0
M  V30 1655 H 154.427 -2.36509 -1.02085 0
M  V30 1656 H 154.385 -1.72646 -2.62756 0
M  V30 1657 N 158.157 -0.370918 -1.53173 0
M  V30 1658 C 159.397 0.217106 -2.03244 0
M  V30 1659 C 159.761 1.45558 -1.25207 0
M  V30 1660 O 160.962 2.11957 -1.65311 0
M  V30 1661 C 159.233 0.496664 -3.53932 0
M  V30 1662 S 160.792 1.0576 -4.25864 0
M  V30 1663 H 157.61 0.0627827 -0.708223 0
M  V30 1664 H 160.212 -0.515019 -1.88594 0
M  V30 1665 H 158.916 -0.412096 -4.08326 0
M  V30 1666 H 158.447 1.25772 -3.72753 0
M  V30 1667 H 160.462 2.34145 -4.37482 0
M  V30 1668 N 159.635 1.57281 -0.100228 0
M  V30 1669 C 160.598 2.13158 0.842398 0
M  V30 1670 C 161.598 1.06202 1.20738 0
M  V30 1671 O 162.788 1.32066 1.13597 0
M  V30 1672 C 159.92 2.65639 2.13655 0
M  V30 1673 H 161.113 2.97766 0.357114 0
M  V30 1674 H 158.666 1.5559 0.148823 0
M  V30 1675 H 159.401 1.84566 2.66657 0
M  V30 1676 H 159.186 3.43844 1.88451 0
M  V30 1677 H 160.676 3.08846 2.81077 0
M  V30 1678 N 161.113 -0.173488 1.56642 0
M  V30 1679 C 162.023 -1.23482 1.99473 0
M  V30 1680 C 163.039 -1.48567 0.905752 0
M  V30 1681 O 164.215 -1.60758 1.21321 0
M  V30 1682 C 161.28 -2.55444 2.34413 0
M  V30 1683 C 160.341 -2.38241 3.57127 0
M  V30 1684 C 159.574 -3.63909 3.90392 0
M  V30 1685 O 159.797 -4.68996 3.24653 0
M  V30 1686 O 158.731 -3.58149 4.83749 0
M  V30 1687 H 162.557 -0.901279 2.90018 0
M  V30 1688 H 160.142 -0.380185 1.44482 0
M  V30 1689 H 162.024 -3.33292 2.57865 0
M  V30 1690 H 160.699 -2.88382 1.4703 0
M  V30 1691 H 159.606 -1.58431 3.38896 0
M  V30 1692 H 160.939 -2.10228 4.45045 0
M  V30 1693 N 162.591 -1.51276 -0.441967 0
M  V30 1694 C 163.839 -1.63392 -1.18943 0
M  V30 1695 C 164.16 -0.350159 -1.9183 0
M  V30 1696 O 163.43 0.633784 -1.85364 0
M  V30 1697 H 162.01 -0.602164 -0.442049 0
M  V30 1698 H 164.672 -1.88186 -0.507165 0
M  V30 1699 H 163.768 -2.45934 -1.92154 0
M  V30 1700 N 164.069 0.697108 -1.41344 0
M  V30 1701 C 164.999 1.82353 -1.45841 0
M  V30 1702 C 165.98 1.67115 -0.317247 0
M  V30 1703 O 167.165 1.86871 -0.528474 0
M  V30 1704 C 164.295 3.20476 -1.33838 0
M  V30 1705 C 163.249 3.50415 -2.4575 0
M  V30 1706 C 162.575 4.87878 -2.18813 0
M  V30 1707 C 163.875 3.49546 -3.88091 0
M  V30 1708 H 165.569 1.78846 -2.40113 0
M  V30 1709 H 163.115 0.859028 -1.15571 0
M  V30 1710 H 165.068 3.98988 -1.35596 0
M  V30 1711 H 163.792 3.24604 -0.360498 0
M  V30 1712 H 162.451 2.74253 -2.43271 0
M  V30 1713 H 162.099 4.8863 -1.19371 0
M  V30 1714 H 161.799 5.08875 -2.93803 0
M  V30 1715 H 163.323 5.68702 -2.22284 0
M  V30 1716 H 164.737 4.18066 -3.92293 0
M  V30 1717 H 163.134 3.82075 -4.62751 0
M  V30 1718 H 164.204 2.48552 -4.16353 0
M  V30 1719 N 165.547 1.27147 0.931209 0
M  V30 1720 C 166.795 1.13055 1.6752 0
M  V30 1721 C 167.116 -0.324791 1.92276 0
M  V30 1722 O 166.386 -1.22775 1.52654 0
M  V30 1723 H 164.966 0.415391 0.620854 0
M  V30 1724 H 167.628 1.59623 1.11833 0
M  V30 1725 H 166.724 1.65694 2.64485 0
M  V30 1726 N 167.025 -1.13721 1.09112 0
M  V30 1727 C 168.253 -1.88773 0.846899 0
M  V30 1728 C 168.668 -1.7896 -0.601572 0
M  V30 1729 O 168.025 -1.15394 -1.41388 0
M  V30 1730 C 168.076 -3.3849 1.26913 0
M  V30 1731 O 167.797 -3.48043 2.66079 0
M  V30 1732 C 169.298 -4.30518 1.05682 0
M  V30 1733 H 166.518 -0.59772 0.304914 0
M  V30 1734 H 169.062 -1.43977 1.45227 0
M  V30 1735 H 167.217 -3.80881 0.707723 0
M  V30 1736 H 167.631 -4.4109 2.83795 0
M  V30 1737 H 169.105 -5.3391 1.40156 0
M  V30 1738 H 169.582 -4.392 -0.00563416 0
M  V30 1739 H 170.188 -3.93893 1.60402 0
M  V30 1740 N 168.503 -0.877838 -1.30888 0
M  V30 1741 C 169.451 -0.328662 -2.30266 0
M  V30 1742 C 170.445 0.560496 -1.59859 0
M  V30 1743 O 171.651 0.445722 -1.74394 0
M  V30 1744 H 168.026 -0.0876142 -0.746879 0
M  V30 1745 H 169.997 -1.18061 -2.74051 0
M  V30 1746 C 168.746 0.448071 -3.44801 0
M  V30 1747 H 168.069 -0.226859 -3.99156 0
M  V30 1748 H 169.509 0.797541 -4.16432 0
M  V30 1749 C 167.968 1.64239 -2.94155 0
M  V30 1750 O 168.498 2.74175 -2.93583 0
M  V30 1751 N 166.704 1.47716 -2.50256 0
M  V30 1752 H 166.251 0.582821 -2.5092 0
M  V30 1753 H 166.209 2.27765 -2.16727 0
M  V30 1754 N 169.982 1.44106 -0.638065 0
M  V30 1755 C 171.212 2.06037 -0.152394 0
M  V30 1756 C 171.62 1.47808 1.18108 0
M  V30 1757 O 170.963 0.598092 1.73691 0
M  V30 1758 C 171.025 3.59488 0.0293714 0
M  V30 1759 C 170.689 4.4022 -1.22702 0
M  V30 1760 C 171.686 4.73256 -2.15232 0
M  V30 1761 C 169.371 4.8048 -1.46437 0
M  V30 1762 C 171.365 5.45444 -3.29802 0
M  V30 1763 C 169.052 5.52417 -2.61303 0
M  V30 1764 C 170.05 5.84819 -3.52811 0
M  V30 1765 O 169.738 6.55289 -4.65673 0
M  V30 1766 H 169.47 0.671233 -0.0801401 0
M  V30 1767 H 172.024 1.85851 -0.874563 0
M  V30 1768 H 170.254 3.78191 0.806758 0
M  V30 1769 H 171.943 4.03164 0.470475 0
M  V30 1770 H 172.709 4.42684 -1.98131 0
M  V30 1771 H 168.588 4.54676 -0.760977 0
M  V30 1772 H 172.132 5.70653 -4.01249 0
M  V30 1773 H 168.029 5.82404 -2.78344 0
M  V30 1774 H 168.797 6.73762 -4.64744 0
M  V30 1775 N 171.46 0.379036 1.52974 0
M  V30 1776 C 172.876 0.0285448 1.59574 0
M  V30 1777 C 173.076 -1.45542 1.39355 0
M  V30 1778 O 172.132 -2.2187 1.20541 0
M  V30 1779 C 173.445 0.496535 2.96572 0
M  V30 1780 C 174.993 0.451909 3.0972 0
M  V30 1781 C 175.468 0.895924 4.49152 0
M  V30 1782 N 176.959 0.851522 4.55306 0
M  V30 1783 C 177.694 1.16661 5.61407 0
M  V30 1784 N 177.19 1.55166 6.752 0
M  V30 1785 N 178.983 1.08853 5.51459 0
M  V30 1786 H 171.134 1.34525 1.64367 0
M  V30 1787 H 173.397 0.550733 0.771619 0
M  V30 1788 H 173.103 1.53258 3.16552 0
M  V30 1789 H 172.977 -0.109802 3.7704 0
M  V30 1790 H 175.364 -0.575029 2.89443 0
M  V30 1791 H 175.445 1.09392 2.3123 0
M  V30 1792 H 175.089 1.92104 4.70168 0
M  V30 1793 H 175.019 0.23103 5.26093 0
M  V30 1794 H 177.51 0.568038 3.73606 0
M  V30 1795 H 177.823 1.776 7.52116 0
M  V30 1796 H 176.168 1.59044 6.76557 0
M  V30 1797 H 179.359 0.786803 4.6144 0
M  V30 1798 H 179.532 1.33742 6.34048 0
M  V30 1799 N 172.938 -1.57226 0.108567 0
M  V30 1800 C 174.186 -1.94448 -0.550853 0
M  V30 1801 C 174.507 -0.992074 -1.67878 0
M  V30 1802 O 173.777 -0.0465 -1.95845 0
M  V30 1803 H 172.357 -0.717897 -0.206479 0
M  V30 1804 H 175.019 -1.94112 0.175062 0
M  V30 1805 H 174.115 -2.97218 -0.952259 0
M  V30 1806 N 174.416 0.165178 -1.56732 0
M  V30 1807 C 175.366 1.20917 -1.93295 0
M  V30 1808 C 176.35 1.39488 -0.801985 0
M  V30 1809 O 177.542 1.41356 -1.06525 0
M  V30 1810 C 174.671 2.54718 -2.3016 0
M  V30 1811 C 173.757 2.39815 -3.49785 0
M  V30 1812 N 174.148 1.94637 -4.66851 0
M  V30 1813 C 172.446 2.70623 -3.54513 0
M  V30 1814 C 173.147 1.92344 -5.4898 0
M  V30 1815 N 172.123 2.34978 -4.9019 0
M  V30 1816 H 175.925 0.851675 -2.81289 0
M  V30 1817 H 173.439 0.373399 -1.58049 0
M  V30 1818 H 175.436 3.30165 -2.54552 0
M  V30 1819 H 174.096 2.91265 -1.43508 0
M  V30 1820 H 175.107 1.6488 -4.90953 0
M  V30 1821 H 171.784 3.11167 -2.78354 0
M  V30 1822 H 173.174 1.5906 -6.52801 0
M  V30 1823 N 175.894 1.51508 0.433938 0
M  V30 1824 C 177.14 1.64588 1.18484 0
M  V30 1825 C 177.473 0.362666 1.90784 0
M  V30 1826 O 176.748 -0.637892 1.83742 0
M  V30 1827 C 177.031 2.85149 2.19913 0
M  V30 1828 C 176.884 4.23456 1.51674 0
M  V30 1829 C 178.203 3.01227 3.20858 0
M  V30 1830 H 175.322 0.598994 0.429389 0
M  V30 1831 H 177.964 1.84002 0.473647 0
M  V30 1832 H 176.114 2.68729 2.80566 0
M  V30 1833 H 177.786 4.51552 0.943322 0
M  V30 1834 H 176.029 4.25998 0.819035 0
M  V30 1835 H 176.7 5.03812 2.2556 0
M  V30 1836 H 179.176 3.16382 2.70263 0
M  V30 1837 H 178.052 3.87141 3.89118 0
M  V30 1838 H 178.313 2.13447 3.8716 0
M  V30 1839 N 177.372 -0.689602 1.41712 0
M  V30 1840 C 178.32 -1.82475 1.44242 0
M  V30 1841 C 179.314 -1.66354 0.319774 0
M  V30 1842 O 180.52 -1.73143 0.492089 0
M  V30 1843 H 176.895 -0.601416 0.451445 0
M  V30 1844 H 178.866 -1.77458 2.39899 0
M  V30 1845 C 177.615 -3.20535 1.3473 0
M  V30 1846 H 176.938 -3.33559 2.20405 0
M  V30 1847 H 178.378 -4.00023 1.40562 0
M  V30 1848 C 176.837 -3.36846 0.0603281 0
M  V30 1849 O 177.367 -3.91656 -0.892663 0
M  V30 1850 N 175.573 -2.90595 -0.0177039 0
M  V30 1851 H 175.12 -2.46178 0.758572 0
M  V30 1852 H 175.078 -3.01886 -0.878201 0
M  V30 1853 N 178.85 -1.27639 -0.924453 0
M  V30 1854 C 180.099 -1.13549 -1.66702 0
M  V30 1855 C 180.412 0.317487 -1.93006 0
M  V30 1856 O 181.618 0.579333 -2.65247 0
M  V30 1857 C 180.074 -1.98426 -3.00259 0
M  V30 1858 C 179.682 -3.484 -2.81641 0
M  V30 1859 C 181.426 -1.92993 -3.78092 0
M  V30 1860 C 179.333 -4.25464 -4.10773 0
M  V30 1861 H 178.263 -0.421351 -0.625283 0
M  V30 1862 H 180.914 -1.52085 -1.02676 0
M  V30 1863 H 179.296 -1.52736 -3.6536 0
M  V30 1864 H 180.47 -4.01973 -2.25287 0
M  V30 1865 H 178.785 -3.55245 -2.17232 0
M  V30 1866 H 181.382 -2.47844 -4.7379 0
M  V30 1867 H 181.725 -0.904281 -4.0636 0
M  V30 1868 H 182.258 -2.36595 -3.19793 0
M  V30 1869 H 178.997 -5.28566 -3.87683 0
M  V30 1870 H 178.517 -3.76667 -4.66779 0
M  V30 1871 H 180.196 -4.34812 -4.79111 0
M  V30 1872 N 180.328 1.1314 -1.09713 0
M  V30 1873 C 181.556 1.88321 -0.856898 0
M  V30 1874 C 181.971 1.79276 0.592073 0
M  V30 1875 O 181.328 1.16142 1.40774 0
M  V30 1876 C 181.379 3.37812 -1.28706 0
M  V30 1877 O 181.1 3.46627 -2.67921 0
M  V30 1878 C 182.601 4.29952 -1.07964 0
M  V30 1879 H 179.821 0.596094 -0.308079 0
M  V30 1880 H 182.365 1.43205 -1.45988 0
M  V30 1881 H 180.52 3.805 -0.727912 0
M  V30 1882 H 180.934 4.39579 -2.8613 0
M  V30 1883 H 182.408 5.33159 -1.42986 0
M  V30 1884 H 182.885 4.39196 -0.0176577 0
M  V30 1885 H 183.491 3.93036 -1.62489 0
M  V30 1886 N 181.806 0.884767 1.30421 0
M  V30 1887 C 183.222 0.57874 1.48737 0
M  V30 1888 C 183.422 -0.883567 1.81095 0
M  V30 1889 O 182.478 -1.6648 1.89844 0
M  V30 1890 C 183.791 1.49171 2.61091 0
M  V30 1891 C 185.339 1.49532 2.74971 0
M  V30 1892 C 185.814 2.39421 3.90438 0
M  V30 1893 N 187.305 2.37383 3.97748 0
M  V30 1894 C 188.04 3.03647 4.86401 0
M  V30 1895 N 187.536 3.79136 5.79852 0
M  V30 1896 N 189.329 2.9288 4.79768 0
M  V30 1897 H 181.48 1.83075 1.0769 0
M  V30 1898 H 183.743 0.783637 0.533495 0
M  V30 1899 H 183.449 2.53291 2.44001 0
M  V30 1900 H 183.323 1.20113 3.57565 0
M  V30 1901 H 185.71 0.46163 2.91467 0
M  V30 1902 H 185.791 1.8262 1.79119 0
M  V30 1903 H 185.435 3.42874 3.74699 0
M  V30 1904 H 185.365 2.03649 4.85628 0
M  V30 1905 H 187.856 1.82525 3.30897 0
M  V30 1906 H 188.169 4.26789 6.4426 0
M  V30 1907 H 186.514 3.83243 5.79784 0
M  V30 1908 H 189.705 2.33433 4.05742 0
M  V30 1909 H 189.878 3.448 5.4865 0
M  V30 1910 N 183.284 -1.43765 0.645699 0
M  V30 1911 C 184.509 -2.06767 0.161883 0
M  V30 1912 C 184.934 -1.48034 -1.16049 0
M  V30 1913 O 184.292 -0.587369 -1.71522 0
M  V30 1914 C 184.34 -3.60519 0.0762003 0
M  V30 1915 O 183.444 -4.00982 -0.963721 0
M  V30 1916 H 182.785 -0.657675 0.091429 0
M  V30 1917 H 185.315 -1.84397 0.886499 0
M  V30 1918 H 185.325 -4.07853 -0.109604 0
M  V30 1919 H 184 -4.02646 1.04157 0
M  V30 1920 H 182.577 -3.65253 -0.751312 0
M  V30 1921 N 184.763 -0.387143 -1.52771 0
M  V30 1922 C 186.011 0.195349 -2.01154 0
M  V30 1923 C 186.332 1.475 -1.27549 0
M  V30 1924 O 185.602 1.91878 -0.394924 0
M  V30 1925 H 184.182 0.075178 -0.743207 0
M  V30 1926 H 186.844 -0.518337 -1.87881 0
M  V30 1927 H 185.94 0.407096 -3.09434 0
M  V30 1928 N 186.241 1.57166 -0.116904 0
M  V30 1929 C 187.49 1.94298 0.541407 0
M  V30 1930 C 187.803 1.00236 1.67964 0
M  V30 1931 O 189.009 1.26826 2.40057 0
M  V30 1932 C 187.465 3.45306 1.01449 0
M  V30 1933 C 187.073 4.47899 -0.0951738 0
M  V30 1934 C 188.817 3.91361 1.6443 0
M  V30 1935 C 186.724 5.90083 0.394491 0
M  V30 1936 H 185.654 0.725308 0.206019 0
M  V30 1937 H 188.305 1.82446 -0.196419 0
M  V30 1938 H 186.687 3.52385 1.80667 0
M  V30 1939 H 187.861 4.52486 -0.871374 0
M  V30 1940 H 186.176 4.11583 -0.631505 0
M  V30 1941 H 188.773 4.95004 2.02176 0
M  V30 1942 H 189.116 3.3122 2.52189 0
M  V30 1943 H 189.649 3.87073 0.917559 0
M  V30 1944 H 186.388 6.53974 -0.447004 0
M  V30 1945 H 185.908 5.88921 1.13722 0
M  V30 1946 H 187.587 6.41307 0.856399 0
M  V30 1947 N 187.719 -0.156864 1.56817 0
M  V30 1948 C 188.629 -1.2136 2.00771 0
M  V30 1949 C 189.645 -1.47598 0.921459 0
M  V30 1950 O 190.821 -1.59462 1.2302 0
M  V30 1951 C 187.886 -2.52943 2.37109 0
M  V30 1952 C 186.947 -2.34439 3.59634 0
M  V30 1953 C 186.18 -3.59748 3.94229 0
M  V30 1954 O 186.403 -4.65526 3.29609 0
M  V30 1955 O 185.337 -3.52998 4.8752 0
M  V30 1956 H 189.163 -0.870468 2.90958 0
M  V30 1957 H 186.748 -0.36484 1.44877 0
M  V30 1958 H 188.63 -3.30538 2.61386 0
M  V30 1959 H 187.305 -2.86806 1.5008 0
M  V30 1960 H 186.212 -1.54828 3.40557 0
M  V30 1961 H 187.545 -2.05496 4.4725 0
M  V30 1962 N 189.197 -1.51736 -0.425897 0
M  V30 1963 C 190.437 -1.66636 -1.18371 0
M  V30 1964 C 190.801 -0.379854 -1.88205 0
M  V30 1965 O 192.002 -0.404758 -2.65735 0
M  V30 1966 C 190.273 -2.84382 -2.16476 0
M  V30 1967 S 191.832 -3.19673 -3.0059 0
M  V30 1968 H 188.65 -0.586957 -0.40125 0
M  V30 1969 H 191.252 -1.89679 -0.473518 0
M  V30 1970 H 189.956 -3.76281 -1.63831 0
M  V30 1971 H 189.487 -2.63562 -2.92059 0
M  V30 1972 H 191.502 -2.66994 -4.18245 0
M  V30 1973 N 190.675 0.682077 -1.42076 0
M  V30 1974 C 191.607 1.80755 -1.40926 0
M  V30 1975 C 192.62 1.59833 -0.309398 0
M  V30 1976 O 193.809 1.69087 -0.572014 0
M  V30 1977 C 190.909 3.17744 -1.17865 0
M  V30 1978 C 190.082 3.65578 -2.40149 0
M  V30 1979 C 189.141 4.81277 -2.12742 0
M  V30 1980 O 188.167 4.92197 -2.85887 0
M  V30 1981 N 189.369 5.69474 -1.12602 0
M  V30 1982 H 192.134 1.82229 -2.37935 0
M  V30 1983 H 189.695 0.864903 -1.36861 0
M  V30 1984 H 191.687 3.9279 -0.9746 0
M  V30 1985 H 190.257 3.11214 -0.294068 0
M  V30 1986 H 189.477 2.81291 -2.76169 0
M  V30 1987 H 190.765 3.94278 -3.21593 0
M  V30 1988 H 190.163 5.63297 -0.520899 0
M  V30 1989 H 188.72 6.44363 -0.981842 0
M  V30 1990 N 192.153 1.28127 0.917671 0
M  V30 1991 C 193.083 1.14248 2.03641 0
M  V30 1992 C 194.064 0.0412748 1.7005 0
M  V30 1993 O 195.249 0.217566 1.92977 0
M  V30 1994 C 192.379 0.799431 3.37974 0
M  V30 1995 C 191.333 1.85497 3.85713 0
M  V30 1996 C 190.659 1.36565 5.16966 0
M  V30 1997 C 191.959 3.26085 4.08002 0
M  V30 1998 H 193.653 2.07835 2.15511 0
M  V30 1999 H 191.199 1.00064 1.03553 0
M  V30 2000 H 193.152 0.689114 4.15727 0
M  V30 2001 H 191.876 -0.172145 3.26146 0
M  V30 2002 H 190.535 1.95437 3.10161 0
M  V30 2003 H 190.183 0.383253 5.01538 0
M  V30 2004 H 189.883 2.07143 5.49878 0
M  V30 2005 H 191.407 1.26848 5.97279 0
M  V30 2006 H 192.821 3.19089 4.76293 0
M  V30 2007 H 191.218 3.94462 4.52238 0
M  V30 2008 H 192.288 3.70394 3.12948 0
M  V30 2009 N 193.631 -1.12557 1.10312 0
M  V30 2010 C 194.877 -1.84515 0.855901 0
M  V30 2011 C 195.232 -1.82409 -0.611936 0
M  V30 2012 O 194.525 -1.25778 -1.44535 0
M  V30 2013 C 194.719 -3.31462 1.33669 0
M  V30 2014 C 194.548 -3.47879 2.84974 0
M  V30 2015 C 193.318 -3.61589 3.52961 0
M  V30 2016 C 195.516 -3.43152 3.83081 0
M  V30 2017 N 193.498 -3.66359 4.926 0
M  V30 2018 C 194.869 -3.54401 5.08724 0
M  V30 2019 C 196.924 -3.2661 3.75807 0
M  V30 2020 C 195.627 -3.50815 6.2795 0
M  V30 2021 C 197.653 -3.24335 4.94531 0
M  V30 2022 C 197.015 -3.36144 6.19021 0
M  V30 2023 H 193.114 -0.690967 0.366182 0
M  V30 2024 H 195.698 -1.34763 1.40524 0
M  V30 2025 H 193.869 -3.7976 0.814686 0
M  V30 2026 H 195.601 -3.91272 1.03385 0
M  V30 2027 H 192.356 -3.63652 3.03404 0
M  V30 2028 H 192.78 -3.72411 5.65366 0
M  V30 2029 H 197.422 -3.16375 2.80476 0
M  V30 2030 H 195.14 -3.5982 7.23571 0
M  V30 2031 H 198.726 -3.12719 4.9061 0
M  V30 2032 H 197.606 -3.34357 7.09348 0
M  V30 2033 N 195.109 -0.891671 -1.2995 0
M  V30 2034 C 196.525 -0.58662 -1.48428 0
M  V30 2035 C 196.725 0.873951 -1.81561 0
M  V30 2036 O 195.781 1.65471 -1.90724 0
M  V30 2037 C 197.094 -1.50553 -2.60296 0
M  V30 2038 C 198.642 -1.50988 -2.74175 0
M  V30 2039 C 199.117 -2.41488 -3.89163 0
M  V30 2040 N 200.608 -2.39489 -3.96483 0
M  V30 2041 C 201.343 -3.06223 -4.84784 0
M  V30 2042 N 200.839 -3.82206 -5.77833 0
M  V30 2043 N 202.632 -2.95421 -4.78208 0
M  V30 2044 H 194.783 -1.83644 -1.06718 0
M  V30 2045 H 197.046 -0.786455 -0.529332 0
M  V30 2046 H 196.752 -2.54581 -2.42654 0
M  V30 2047 H 196.626 -1.22008 -3.56923 0
M  V30 2048 H 199.013 -0.47708 -2.91218 0
M  V30 2049 H 199.094 -1.83567 -1.78148 0
M  V30 2050 H 198.738 -3.44857 -3.72876 0
M  V30 2051 H 198.668 -2.06222 -4.84541 0
M  V30 2052 H 201.159 -1.84278 -3.29924 0
M  V30 2053 H 201.472 -4.302 -6.41988 0
M  V30 2054 H 199.817 -3.86313 -5.77743 0
M  V30 2055 H 203.008 -2.35581 -4.04499 0
M  V30 2056 H 203.181 -3.47704 -5.46814 0
M  V30 2057 N 196.587 1.43421 -0.653314 0
M  V30 2058 C 197.812 2.06678 -0.172846 0
M  V30 2059 C 198.237 1.48648 1.15262 0
M  V30 2060 O 197.595 0.596457 1.71208 0
M  V30 2061 C 197.643 3.60474 -0.0953184 0
M  V30 2062 O 196.747 4.01487 0.942442 0
M  V30 2063 H 196.088 0.657181 -0.0949155 0
M  V30 2064 H 198.618 1.83925 -0.896265 0
M  V30 2065 H 198.628 4.07905 0.0879728 0
M  V30 2066 H 197.303 4.02088 -1.06291 0
M  V30 2067 H 195.88 3.65646 0.731932 0
M  V30 2068 N 198.065 0.39524 1.52563 0
M  V30 2069 C 199.481 0.0454682 1.59535 0
M  V30 2070 C 199.681 -1.44056 1.4089 0
M  V30 2071 O 198.737 -2.20579 1.22888 0
M  V30 2072 C 200.05 0.527963 2.96029 0
M  V30 2073 C 201.598 0.484733 3.09224 0
M  V30 2074 C 202.073 0.943512 4.48176 0
M  V30 2075 N 203.564 0.899765 4.54377 0
M  V30 2076 C 204.299 1.22609 5.60138 0
M  V30 2077 N 203.795 1.62319 6.73516 0
M  V30 2078 N 205.588 1.14696 5.50274 0
M  V30 2079 H 197.739 1.36261 1.62931 0
M  V30 2080 H 200.002 0.558887 0.765735 0
M  V30 2081 H 199.708 1.56607 3.14908 0
M  V30 2082 H 199.582 -0.0698056 3.77135 0
M  V30 2083 H 201.969 -0.544298 2.90037 0
M  V30 2084 H 202.05 1.11838 2.30056 0
M  V30 2085 H 201.694 1.9708 4.68104 0
M  V30 2086 H 201.624 0.286817 5.25818 0
M  V30 2087 H 204.115 0.607632 3.72983 0
M  V30 2088 H 204.428 1.85567 7.5019 0
M  V30 2089 H 202.773 1.66211 6.74833 0
M  V30 2090 H 205.964 0.835701 4.6058 0
M  V30 2091 H 206.137 1.40459 6.32594 0
M  V30 2092 N 199.544 -1.57102 0.125237 0
M  V30 2093 C 200.774 -1.99472 -0.538015 0
M  V30 2094 C 201.182 -1.00395 -1.60366 0
M  V30 2095 O 200.525 0.0103875 -1.83697 0
M  V30 2096 C 200.587 -3.38262 -1.21734 0
M  V30 2097 C 200.251 -4.56021 -0.298897 0
M  V30 2098 C 201.248 -5.17817 0.464943 0
M  V30 2099 C 198.933 -5.01869 -0.208149 0
M  V30 2100 C 200.927 -6.23852 1.3072 0
M  V30 2101 C 198.614 -6.07763 0.637736 0
M  V30 2102 C 199.612 -6.68622 1.39403 0
M  V30 2103 O 199.3 -7.7247 2.22586 0
M  V30 2104 H 199.032 -0.659934 -0.146501 0
M  V30 2105 H 201.586 -2.04321 0.210267 0
M  V30 2106 H 199.816 -3.30185 -2.01282 0
M  V30 2107 H 201.505 -3.6488 -1.77813 0
M  V30 2108 H 202.271 -4.83308 0.404741 0
M  V30 2109 H 198.15 -4.54241 -0.786522 0
M  V30 2110 H 201.694 -6.71284 1.898 0
M  V30 2111 H 197.591 -6.41701 0.699309 0
M  V30 2112 H 198.359 -7.89595 2.15596 0
M  V30 2113 N 201.022 0.148545 -1.56898 0
M  V30 2114 C 202.433 0.708766 -1.72723 0
M  V30 2115 C 202.784 1.81734 -0.739395 0
M  V30 2116 O 201.909 2.16194 0.0943169 0
M  V30 2117 C 202.504 1.29245 -3.13179 0
M  V30 2118 C 201.063 1.79925 -3.30611 0
M  V30 2119 C 200.21 0.687111 -2.68652 0
M  V30 2120 H 203.161 -0.0771063 -1.58513 0
M  V30 2121 H 203.182 2.16224 -3.13093 0
M  V30 2122 H 202.694 0.485382 -3.85053 0
M  V30 2123 H 200.795 2.63203 -2.63732 0
M  V30 2124 H 200.908 1.92903 -4.38549 0
M  V30 2125 H 199.272 1.11335 -2.29078 0
M  V30 2126 H 200.055 -0.108483 -3.43129 0
M  V30 2127 N 202.5 1.5196 0.417844 0
M  V30 2128 C 203.45 1.7106 1.5074 0
M  V30 2129 C 204.434 0.564487 1.50673 0
M  V30 2130 O 205.626 0.821206 1.56797 0
M  V30 2131 C 202.755 1.85677 2.88754 0
M  V30 2132 C 201.841 3.06133 2.93502 0
M  V30 2133 N 202.232 4.28987 2.67962 0
M  V30 2134 C 200.53 3.05787 3.24669 0
M  V30 2135 C 201.231 5.10395 2.79055 0
M  V30 2136 N 200.207 4.45455 3.11561 0
M  V30 2137 H 204.009 2.63696 1.29775 0
M  V30 2138 H 201.523 1.49873 0.625436 0
M  V30 2139 H 203.52 1.97475 3.67164 0
M  V30 2140 H 202.18 0.942348 3.10725 0
M  V30 2141 H 203.191 4.57607 2.4252 0
M  V30 2142 H 199.868 2.2405 3.52289 0
M  V30 2143 H 201.258 6.18247 2.63097 0
M  V30 2144 N 203.978 -0.674533 1.42435 0
M  V30 2145 C 204.925 -1.78807 1.45934 0
M  V30 2146 C 205.895 -1.63157 0.311271 0
M  V30 2147 O 207.08 -1.83707 0.515383 0
M  V30 2148 C 204.22 -3.16839 1.36773 0
M  V30 2149 C 203.333 -3.43774 2.61617 0
M  V30 2150 C 202.468 -4.71536 2.44597 0
M  V30 2151 C 201.507 -4.91505 3.64814 0
M  V30 2152 N 200.644 -6.10508 3.46734 0
M  V30 2153 H 205.484 -1.75151 2.41093 0
M  V30 2154 H 203.021 -0.85504 1.19697 0
M  V30 2155 H 204.979 -3.96606 1.29459 0
M  V30 2156 H 203.609 -3.19619 0.452089 0
M  V30 2157 H 202.661 -2.58259 2.79297 0
M  V30 2158 H 203.973 -3.54423 3.50978 0
M  V30 2159 H 203.127 -5.59393 2.3487 0
M  V30 2160 H 201.866 -4.6317 1.52726 0
M  V30 2161 H 200.871 -4.0209 3.74972 0
M  V30 2162 H 202.096 -5.01716 4.57665 0
M  V30 2163 H 200.042 -6.03315 2.5758 0
M  V30 2164 H 199.959 -6.2202 4.29682 0
M  V30 2165 H 201.227 -7.01044 3.40819 0
M  V30 2166 N 205.456 -1.28612 -0.910864 0
M  V30 2167 C 206.867 -1.14406 -1.47541 0
M  V30 2168 C 207.218 0.264901 -1.94403 0
M  V30 2169 O 206.343 1.15942 -1.82719 0
M  V30 2170 C 206.938 -2.07073 -2.68153 0
M  V30 2171 C 205.497 -1.96923 -3.20778 0
M  V30 2172 C 204.644 -1.98646 -1.93481 0
M  V30 2173 H 207.595 -1.41259 -0.723291 0
M  V30 2174 H 207.616 -1.63642 -3.43514 0
M  V30 2175 H 207.128 -3.09611 -2.34015 0
M  V30 2176 H 205.229 -0.97433 -3.59635 0
M  V30 2177 H 205.342 -2.84026 -3.85832 0
M  V30 2178 H 203.706 -1.43093 -2.10705 0
M  V30 2179 H 204.489 -3.02868 -1.61634 0
M  V30 2180 N 206.934 1.1197 -1.10907 0
M  V30 2181 C 207.844 2.21433 -0.774896 0
M  V30 2182 C 208.86 1.72478 0.229657 0
M  V30 2183 O 210.036 2.01288 0.0672008 0
M  V30 2184 C 207.101 3.4602 -0.216986 0
M  V30 2185 C 206.162 4.09791 -1.27944 0
M  V30 2186 C 205.395 5.28431 -0.748055 0
M  V30 2187 O 205.618 5.68823 0.423833 0
M  V30 2188 O 204.552 5.82644 -1.51027 0
M  V30 2189 H 208.378 2.5242 -1.68873 0
M  V30 2190 H 205.963 1.20399 -0.884555 0
M  V30 2191 H 207.845 4.21304 0.090059 0
M  V30 2192 H 206.52 3.16698 0.669633 0
M  V30 2193 H 205.427 3.36265 -1.63941 0
M  V30 2194 H 206.76 4.4328 -2.13925 0
M  V30 2195 N 208.412 0.89855 1.29475 0
M  V30 2196 C 209.661 0.519863 1.94885 0
M  V30 2197 C 209.974 -0.9383 1.71625 0
M  V30 2198 O 211.18 -1.42445 2.31131 0
M  V30 2199 C 209.636 0.878836 3.49005 0
M  V30 2200 C 209.244 2.35569 3.81066 0
M  V30 2201 C 210.988 0.570004 4.20656 0
M  V30 2202 C 208.895 2.65558 5.28425 0
M  V30 2203 H 207.825 0.190692 0.729488 0
M  V30 2204 H 210.476 1.09539 1.47219 0
M  V30 2205 H 208.858 0.232253 3.95318 0
M  V30 2206 H 210.032 3.04773 3.45616 0
M  V30 2207 H 208.347 2.63343 3.22552 0
M  V30 2208 H 210.944 0.770925 5.29113 0
M  V30 2209 H 211.287 -0.491404 4.1339 0
M  V30 2210 H 211.82 1.17438 3.8007 0
M  V30 2211 H 208.559 3.70493 5.40754 0
M  V30 2212 H 208.079 2.00977 5.65127 0
M  V30 2213 H 209.758 2.51765 5.96006 0
M  V30 2214 N 209.89 -1.43072 0.660911 0
M  V30 2215 C 210.838 -2.32569 -0.0378199 0
M  V30 2216 C 211.832 -1.49046 -0.805092 0
M  V30 2217 O 213.038 -1.65206 -0.714624 0
M  V30 2218 H 209.413 -0.75136 -0.031019 0
M  V30 2219 H 211.384 -2.89216 0.734609 0
M  V30 2220 C 210.133 -3.33453 -0.985124 0
M  V30 2221 H 209.456 -3.97752 -0.404147 0
M  V30 2222 H 210.896 -3.98691 -1.44297 0
M  V30 2223 C 209.355 -2.64642 -2.08486 0
M  V30 2224 O 209.885 -2.46776 -3.16961 0
M  V30 2225 N 208.091 -2.23891 -1.8526 0
M  V30 2226 H 207.638 -2.38621 -0.970449 0
M  V30 2227 H 207.596 -1.78181 -2.59034 0
M  V30 2228 N 211.368 -0.403325 -1.52352 0
M  V30 2229 C 212.593 0.176499 -2.06648 0
M  V30 2230 C 213.018 1.38577 -1.27193 0
M  V30 2231 O 212.376 1.7879 -0.300637 0
M  V30 2232 C 212.424 0.511061 -3.5696 0
M  V30 2233 O 211.528 1.60294 -3.79973 0
M  V30 2234 H 210.869 0.0167337 -0.663789 0
M  V30 2235 H 213.399 -0.574848 -1.96359 0
M  V30 2236 H 213.409 0.771362 -4.00642 0
M  V30 2237 H 212.084 -0.37296 -4.14224 0
M  V30 2238 H 210.661 1.33526 -3.48174 0
M  V30 2239 N 212.846 1.57033 -0.133567 0
M  V30 2240 C 214.074 2.00044 0.528195 0
M  V30 2241 C 214.489 1.01349 1.59291 0
M  V30 2242 O 213.846 0.00848369 1.82498 0
M  V30 2243 C 213.897 3.43018 1.1411 0
M  V30 2244 O 213.618 4.37939 0.11892 0
M  V30 2245 C 215.119 4.01237 1.88477 0
M  V30 2246 H 212.339 0.656517 0.138661 0
M  V30 2247 H 214.883 2.03267 -0.224196 0
M  V30 2248 H 213.038 3.40688 1.84418 0
M  V30 2249 H 213.452 5.21436 0.56613 0
M  V30 2250 H 214.926 5.03314 2.26669 0
M  V30 2251 H 215.403 3.41193 2.76558 0
M  V30 2252 H 216.009 4.07156 1.22898 0
M  V30 2253 N 214.325 -0.140222 1.56975 0
M  V30 2254 C 215.553 -0.866437 1.87884 0
M  V30 2255 C 215.968 -1.74428 0.722517 0
M  V30 2256 O 215.325 -1.79891 -0.30749 0
M  V30 2257 C 215.376 -1.71753 3.18093 0
M  V30 2258 O 215.097 -0.875056 4.29272 0
M  V30 2259 C 216.598 -2.55074 3.62563 0
M  V30 2260 H 213.818 -0.25019 0.622612 0
M  V30 2261 H 216.362 -0.130977 2.0408 0
M  V30 2262 H 214.517 -2.40598 3.03631 0
M  V30 2263 H 214.931 -1.46002 5.03769 0
M  V30 2264 H 216.405 -3.10356 4.5649 0
M  V30 2265 H 216.882 -3.31434 2.88181 0
M  V30 2266 H 217.488 -1.91509 3.79743 0
M  V30 2267 N 215.803 -1.52179 -0.40978 0
M  V30 2268 C 216.753 -1.71857 -1.49831 0
M  V30 2269 C 217.737 -0.572469 -1.50372 0
M  V30 2270 O 218.929 -0.829509 -1.56359 0
M  V30 2271 C 216.058 -1.87206 -2.87765 0
M  V30 2272 C 215.144 -3.07685 -2.91875 0
M  V30 2273 N 215.535 -4.30403 -2.65683 0
M  V30 2274 C 213.833 -3.07505 -3.23043 0
M  V30 2275 C 214.534 -5.11868 -2.76344 0
M  V30 2276 N 213.51 -4.47101 -3.09195 0
M  V30 2277 H 217.312 -2.64381 -1.28375 0
M  V30 2278 H 214.826 -1.50203 -0.617479 0
M  V30 2279 H 216.823 -1.99419 -3.66111 0
M  V30 2280 H 215.483 -0.958814 -3.10221 0
M  V30 2281 H 216.494 -4.58887 -2.4009 0
M  V30 2282 H 213.171 -2.25915 -3.51096 0
M  V30 2283 H 214.561 -6.19634 -2.59814 0
M  V30 2284 N 217.281 0.66697 -1.42791 0
M  V30 2285 C 218.692 1.2478 -1.38877 0
M  V30 2286 C 219.043 1.96012 -0.0859426 0
M  V30 2287 O 218.168 2.00463 0.815081 0
M  V30 2288 C 218.763 2.26938 -2.51564 0
M  V30 2289 C 217.322 2.80529 -2.50959 0
M  V30 2290 C 216.469 1.54965 -2.29959 0
M  V30 2291 H 219.42 0.459853 -1.51892 0
M  V30 2292 H 219.441 3.08834 -2.22265 0
M  V30 2293 H 218.953 1.75065 -3.46372 0
M  V30 2294 H 217.054 3.36502 -1.59991 0
M  V30 2295 H 217.167 3.29012 -3.48265 0
M  V30 2296 H 215.531 1.81817 -1.78366 0
M  V30 2297 H 216.314 1.05047 -3.26833 0
M  V30 2298 N 218.759 1.29093 0.90403 0
M  V30 2299 C 220.007 1.16583 1.65085 0
M  V30 2300 C 220.328 -0.283933 1.92922 0
M  V30 2301 O 219.598 -1.19509 1.55224 0
M  V30 2302 H 218.178 0.428467 0.611903 0
M  V30 2303 H 220.84 1.61959 1.08422 0
M  V30 2304 H 219.936 1.71266 2.6091 0
M  V30 2305 N 220.237 -1.11381 1.11499 0
M  V30 2306 C 221.2 -2.15622 0.777153 0
M  V30 2307 C 222.2 -1.59504 -0.203779 0
M  V30 2308 O 223.39 -1.74188 0.020782 0
M  V30 2309 C 220.522 -3.40556 0.153116 0
M  V30 2310 H 221.715 -2.47021 1.70061 0
M  V30 2311 H 219.268 -1.26577 0.916952 0
M  V30 2312 H 220.003 -3.14767 -0.780536 0
M  V30 2313 H 219.788 -3.8257 0.859238 0
M  V30 2314 H 221.278 -4.17546 -0.0671044 0
M  V30 2315 N 221.715 -0.905404 -1.28997 0
M  V30 2316 C 222.992 -0.453513 -1.9027 0
M  V30 2317 C 223.372 1.06721 -1.82137 0
M  V30 2318 O 222.72 1.91159 -1.25182 0
M  V30 2319 C 222.93 -0.974494 -3.35119 0
M  V30 2320 C 224.278 -1.0216 -4.12127 0
M  V30 2321 O 225.302 -0.922557 -3.44046 0
M  V30 2322 O 224.161 -1.17121 -5.33802 0
M  V30 2323 H 221.255 -0.142347 -0.814657 0
M  V30 2324 H 223.801 -0.995642 -1.37423 0
M  V30 2325 H 222.573 -2.01848 -3.35221 0
M  V30 2326 H 222.196 -0.412706 -3.95452 0
M  V30 2327 N 223.193 1.4272 -0.668489 0
M  V30 2328 C 224.123 2.335 -0.000100175 0
M  V30 2329 C 225.104 1.50328 0.795964 0
M  V30 2330 O 226.289 1.78949 0.754385 0
M  V30 2331 C 223.419 3.33874 0.956302 0
M  V30 2332 C 222.373 4.27152 0.269278 0
M  V30 2333 C 221.699 5.17684 1.33818 0
M  V30 2334 C 222.999 5.15373 -0.847805 0
M  V30 2335 H 224.693 2.89639 -0.758244 0
M  V30 2336 H 222.239 1.39269 -0.366079 0
M  V30 2337 H 224.192 3.9629 1.43292 0
M  V30 2338 H 222.916 2.76025 1.74579 0
M  V30 2339 H 221.575 3.66123 -0.187042 0
M  V30 2340 H 221.223 4.56165 2.1195 0
M  V30 2341 H 220.923 5.80918 0.883659 0
M  V30 2342 H 222.447 5.82974 1.81586 0
M  V30 2343 H 223.861 5.7151 -0.452681 0
M  V30 2344 H 222.258 5.87407 -1.22773 0
M  V30 2345 H 223.328 4.5415 -1.69929 0
M  V30 2346 N 224.671 0.411399 1.52136 0
M  V30 2347 C 225.603 -0.448386 2.24771 0
M  V30 2348 C 226.616 -1.00828 1.27818 0
M  V30 2349 O 227.805 -0.906841 1.53749 0
M  V30 2350 C 224.905 -1.63636 2.96777 0
M  V30 2351 C 224.078 -1.19995 4.20618 0
M  V30 2352 C 223.137 -2.25509 4.75428 0
M  V30 2353 O 222.163 -1.86007 5.3795 0
M  V30 2354 N 223.365 -3.577 4.57199 0
M  V30 2355 H 226.13 0.174025 2.99194 0
M  V30 2356 H 223.691 0.238897 1.60128 0
M  V30 2357 H 225.683 -2.33793 3.30338 0
M  V30 2358 H 224.253 -2.16465 2.25526 0
M  V30 2359 H 223.473 -0.326421 3.92846 0
M  V30 2360 H 224.761 -0.885365 5.01038 0
M  V30 2361 H 224.159 -3.92543 4.07341 0
M  V30 2362 H 222.716 -4.23827 4.95191 0
M  V30 2363 N 226.149 -1.5696 0.141893 0
M  V30 2364 C 227.059 -2.20066 -0.812905 0
M  V30 2365 C 228.075 -1.18344 -1.27557 0
M  V30 2366 O 229.251 -1.50902 -1.33381 0
M  V30 2367 C 226.316 -2.80583 -2.03652 0
M  V30 2368 C 225.377 -3.97414 -1.62359 0
M  V30 2369 C 224.61 -4.55036 -2.78887 0
M  V30 2370 O 224.833 -4.11538 -3.94959 0
M  V30 2371 O 223.767 -5.45376 -2.54653 0
M  V30 2372 H 227.593 -3.02157 -0.305746 0
M  V30 2373 H 225.178 -1.49159 -0.0848799 0
M  V30 2374 H 227.06 -3.19067 -2.75272 0
M  V30 2375 H 225.735 -2.01508 -2.5333 0
M  V30 2376 H 224.642 -3.63656 -0.877775 0
M  V30 2377 H 225.975 -4.77994 -1.17401 0
M  V30 2378 N 227.627 0.131896 -1.57047 0
M  V30 2379 C 228.575 1.18146 -2.0036 0
M  V30 2380 C 229.569 1.43614 -0.898406 0
M  V30 2381 O 230.775 1.43729 -1.08361 0
M  V30 2382 H 227.15 0.398042 -0.638018 0
M  V30 2383 H 229.121 0.789564 -2.87765 0
M  V30 2384 C 227.87 2.50341 -2.41298 0
M  V30 2385 H 227.193 2.31578 -3.25902 0
M  V30 2386 H 228.633 3.22371 -2.75414 0
M  V30 2387 C 227.092 3.11984 -1.27153 0
M  V30 2388 O 227.622 3.97484 -0.580459 0
M  V30 2389 N 225.828 2.71662 -1.03189 0
M  V30 2390 H 225.375 2.02231 -1.59564 0
M  V30 2391 H 225.333 3.13238 -0.270077 0
M  V30 2392 N 229.106 1.52395 0.401703 0
M  V30 2393 C 230.353 1.66817 1.14796 0
M  V30 2394 C 230.681 0.401772 1.90305 0
M  V30 2395 O 229.936 -0.615487 1.85769 0
M  V30 2396 C 230.235 2.84578 2.16217 0
M  V30 2397 C 229.901 4.22513 1.5746 0
M  V30 2398 C 228.563 4.60029 1.41161 0
M  V30 2399 C 230.915 5.0844 1.14622 0
M  V30 2400 C 228.243 5.81144 0.80552 0
M  V30 2401 C 230.595 6.30167 0.55428 0
M  V30 2402 C 229.259 6.66426 0.378482 0
M  V30 2403 H 228.529 0.610428 0.420069 0
M  V30 2404 H 231.176 1.86512 0.434212 0
M  V30 2405 H 229.481 2.59248 2.93764 0
M  V30 2406 H 231.178 2.92933 2.73845 0
M  V30 2407 H 227.768 3.92953 1.71132 0
M  V30 2408 H 231.952 4.80034 1.26021 0
M  V30 2409 H 227.208 6.07855 0.657399 0
M  V30 2410 H 231.382 6.96071 0.213983 0
M  V30 2411 H 229.009 7.60143 -0.0932606 0
M  V30 2412 N 230.584 -0.659388 1.43143 0
M  V30 2413 C 231.824 -1.43121 1.45931 0
M  V30 2414 C 232.188 -1.91838 0.0789298 0
M  V30 2415 O 233.389 -2.68794 -0.018491 0
M  V30 2416 C 231.66 -2.58534 2.46769 0
M  V30 2417 S 233.219 -3.47154 2.68384 0
M  V30 2418 H 230.037 -0.488624 0.516496 0
M  V30 2419 H 232.639 -0.766128 1.79863 0
M  V30 2420 H 231.343 -2.21007 3.45809 0
M  V30 2421 H 230.874 -3.29898 2.14315 0
M  V30 2422 H 232.889 -4.55051 1.97845 0
M  V30 2423 N 232.062 -1.29571 -0.897171 0
M  V30 2424 C 233.478 -1.07637 -1.17841 0
M  V30 2425 C 233.678 0.170713 -2.00776 0
M  V30 2426 O 232.734 0.867768 -2.3712 0
M  V30 2427 C 234.047 -2.3332 -1.8969 0
M  V30 2428 C 235.595 -2.38664 -2.02505 0
M  V30 2429 C 236.07 -3.64157 -2.77765 0
M  V30 2430 N 237.561 -3.64894 -2.85318 0
M  V30 2431 C 238.296 -4.58679 -3.44094 0
M  V30 2432 N 237.792 -5.62799 -4.04017 0
M  V30 2433 N 239.585 -4.46245 -3.41793 0
M  V30 2434 H 231.736 -2.09598 -0.343883 0
M  V30 2435 H 233.999 -0.923333 -0.214848 0
M  V30 2436 H 233.705 -3.24262 -1.36187 0
M  V30 2437 H 233.579 -2.41025 -2.9015 0
M  V30 2438 H 235.966 -1.48208 -2.55183 0
M  V30 2439 H 236.047 -2.34943 -1.01171 0
M  V30 2440 H 235.691 -4.54965 -2.25763 0
M  V30 2441 H 235.621 -3.65137 -3.7945 0
M  V30 2442 H 238.112 -2.89613 -2.42761 0
M  V30 2443 H 238.425 -6.3048 -4.46895 0
M  V30 2444 H 236.77 -5.66605 -4.02472 0
M  V30 2445 H 239.961 -3.64094 -2.94199 0
M  V30 2446 H 240.134 -5.19518 -3.87304 0
M  V30 2447 N 233.54 1.10788 -1.12088 0
M  V30 2448 C 234.488 2.19111 -0.780587 0
M  V30 2449 C 235.482 1.67818 0.230961 0
M  V30 2450 O 236.688 1.79777 0.0895427 0
M  V30 2451 H 233.063 0.714477 -0.234578 0
M  V30 2452 H 235.034 2.45055 -1.70266 0
M  V30 2453 C 233.783 3.46818 -0.24747 0
M  V30 2454 H 233.106 3.86646 -1.01712 0
M  V30 2455 H 234.546 4.23973 -0.0476291 0
M  V30 2456 C 233.005 3.20968 1.02378 0
M  V30 2457 O 233.535 3.42298 2.10226 0
M  V30 2458 N 231.741 2.74658 0.949271 0
M  V30 2459 H 231.288 2.57501 0.0715173 0
M  V30 2460 H 231.246 2.57739 1.80049 0
M  V30 2461 N 235.018 0.912232 1.28515 0
M  V30 2462 C 236.429 0.591352 1.77087 0
M  V30 2463 C 236.78 -0.8933 1.74684 0
M  V30 2464 O 235.905 -1.69876 1.34056 0
M  V30 2465 C 236.5 1.06668 3.2157 0
M  V30 2466 C 235.059 0.79675 3.67871 0
M  V30 2467 C 234.206 1.23427 2.48316 0
M  V30 2468 H 237.157 1.09365 1.15 0
M  V30 2469 H 237.178 0.407455 3.78312 0
M  V30 2470 H 236.69 2.14726 3.23287 0
M  V30 2471 H 234.791 -0.270679 3.71616 0
M  V30 2472 H 234.904 1.40343 4.58084 0
M  V30 2473 H 233.268 0.653036 2.46186 0
M  V30 2474 H 234.051 2.32316 2.52753 0
M  V30 2475 N 236.496 -1.42363 0.676048 0
M  V30 2476 C 237.773 -1.95183 0.127726 0
M  V30 2477 C 238.153 -1.61641 -1.35777 0
M  V30 2478 O 237.501 -0.913216 -2.09458 0
M  V30 2479 C 237.711 -3.46721 0.398199 0
M  V30 2480 C 239.059 -4.23427 0.315383 0
M  V30 2481 O 240.083 -3.54649 0.332016 0
M  V30 2482 O 238.942 -5.45888 0.25865 0
M  V30 2483 H 236.036 -0.826992 0.00359427 0
M  V30 2484 H 238.582 -1.52184 0.750864 0
M  V30 2485 H 237.354 -3.64344 1.4272 0
M  V30 2486 H 236.977 -3.96769 -0.256885 0
M  V30 2487 N 237.974 -0.419461 -1.51915 0
M  V30 2488 C 239.199 0.154572 -2.06823 0
M  V30 2489 C 239.624 1.3722 -1.28656 0
M  V30 2490 O 238.982 1.78461 -0.319583 0
M  V30 2491 C 239.03 0.473172 -3.57482 0
M  V30 2492 O 238.134 1.56255 -3.81652 0
M  V30 2493 H 237.475 0.0096924 -0.663929 0
M  V30 2494 H 240.005 -0.595642 -1.95738 0
M  V30 2495 H 240.015 0.728825 -4.01438 0
M  V30 2496 H 238.69 -0.416873 -4.13805 0
M  V30 2497 H 237.267 1.29825 -3.49571 0
M  V30 2498 N 239.452 1.56882 -0.150215 0
M  V30 2499 C 240.677 2.01027 0.510184 0
M  V30 2500 C 241.102 1.02966 1.57415 0
M  V30 2501 O 240.46 0.00590158 1.81299 0
M  V30 2502 C 240.508 3.43899 1.08472 0
M  V30 2503 O 239.612 3.4885 2.19948 0
M  V30 2504 H 238.953 0.652233 0.124451 0
M  V30 2505 H 241.483 2.03093 -0.247894 0
M  V30 2506 H 241.493 3.82766 1.41259 0
M  V30 2507 H 240.168 4.14776 0.305582 0
M  V30 2508 H 238.745 3.21827 1.88366 0
M  V30 2509 N 240.93 -0.123565 1.57115 0
M  V30 2510 C 242.158 -0.846461 1.88793 0
M  V30 2511 C 242.573 -1.73652 0.740976 0
M  V30 2512 O 241.93 -1.80207 -0.288393 0
M  V30 2513 C 241.981 -1.6837 3.19897 0
M  V30 2514 O 241.702 -0.829477 4.30176 0
M  V30 2515 C 243.203 -2.51214 3.65248 0
M  V30 2516 H 240.423 -0.243573 0.625231 0
M  V30 2517 H 242.967 -0.109324 2.04208 0
M  V30 2518 H 241.122 -2.37364 3.06165 0
M  V30 2519 H 241.536 -1.40651 5.0529 0
M  V30 2520 H 243.01 -3.05497 4.59756 0
M  V30 2521 H 243.487 -3.28359 2.9168 0
M  V30 2522 H 244.093 -1.8747 3.81752 0
M  V30 2523 N 242.408 -1.52605 -0.393616 0
M  V30 2524 C 243.636 -1.71294 -1.16043 0
M  V30 2525 C 244.051 -0.429259 -1.83855 0
M  V30 2526 O 243.408 0.595921 -1.72496 0
M  V30 2527 C 243.459 -2.8593 -2.21193 0
M  V30 2528 O 243.18 -4.09329 -1.56146 0
M  V30 2529 C 244.681 -3.16259 -3.10636 0
M  V30 2530 H 241.901 -0.573641 -0.348104 0
M  V30 2531 H 244.445 -1.99234 -0.461092 0
M  V30 2532 H 242.6 -2.60465 -2.86769 0
M  V30 2533 H 243.014 -4.73323 -2.25978 0
M  V30 2534 H 244.488 -3.99946 -3.80456 0
M  V30 2535 H 244.965 -2.3045 -3.73884 0
M  V30 2536 H 245.571 -3.43547 -2.50711 0
M  V30 2537 N 243.887 0.651787 -1.4349 0
M  V30 2538 C 245.135 1.40888 -1.44897 0
M  V30 2539 C 245.456 1.94856 -0.0749086 0
M  V30 2540 O 244.726 1.74518 0.889956 0
M  V30 2541 H 243.306 0.522887 -0.533478 0
M  V30 2542 H 245.968 0.768609 -1.79104 0
M  V30 2543 H 245.064 2.25052 -2.16236 0
M  V30 2544 N 245.365 1.30045 0.890287 0
M  V30 2545 C 246.776 1.16738 1.45702 0
M  V30 2546 C 247.127 -0.233939 1.948 0
M  V30 2547 O 246.252 -1.13021 1.84541 0
M  V30 2548 C 246.847 2.11313 2.64825 0
M  V30 2549 C 245.406 2.02001 3.17604 0
M  V30 2550 C 244.553 2.01699 1.90296 0
M  V30 2551 H 247.504 1.42392 0.700726 0
M  V30 2552 H 247.525 1.69086 3.40867 0
M  V30 2553 H 247.037 3.13294 2.2906 0
M  V30 2554 H 245.138 1.03142 3.5804 0
M  V30 2555 H 245.251 2.90128 3.81264 0
M  V30 2556 H 243.615 1.46427 2.08402 0
M  V30 2557 H 244.398 3.05402 1.56795 0
M  V30 2558 N 246.843 -1.10192 1.12674 0
M  V30 2559 C 248.089 -1.82658 0.894847 0
M  V30 2560 C 248.444 -1.83666 -0.573107 0
M  V30 2561 O 247.737 -1.28816 -1.41835 0
M  V30 2562 C 247.931 -3.28552 1.4067 0
M  V30 2563 C 247.76 -3.41756 2.92289 0
M  V30 2564 C 246.53 -3.54021 3.60551 0
M  V30 2565 C 248.728 -3.34949 3.90274 0
M  V30 2566 N 246.71 -3.55827 5.0026 0
M  V30 2567 C 248.081 -3.43531 5.16127 0
M  V30 2568 C 250.136 -3.18565 3.8265 0
M  V30 2569 C 248.839 -3.37416 6.3525 0
M  V30 2570 C 250.865 -3.13772 5.01299 0
M  V30 2571 C 250.227 -3.22938 6.26012 0
M  V30 2572 H 246.326 -0.683044 0.380756 0
M  V30 2573 H 248.91 -1.31752 1.43351 0
M  V30 2574 H 247.081 -3.77946 0.895055 0
M  V30 2575 H 248.813 -3.88991 1.11661 0
M  V30 2576 H 245.568 -3.57135 3.1105 0
M  V30 2577 H 245.992 -3.60335 5.73138 0
M  V30 2578 H 250.634 -3.10354 2.87124 0
M  V30 2579 H 248.352 -3.44391 7.3104 0
M  V30 2580 H 251.938 -3.02242 4.97133 0
M  V30 2581 H 250.818 -3.19235 7.16281 0
M  V30 2582 N 248.321 -0.919034 -1.28029 0
M  V30 2583 C 249.561 -0.562107 -1.96519 0
M  V30 2584 C 249.925 0.878784 -1.70708 0
M  V30 2585 O 251.126 1.34355 -2.32813 0
M  V30 2586 C 249.397 -0.868953 -3.46676 0
M  V30 2587 S 250.956 -0.619237 -4.34409 0
M  V30 2588 H 247.774 -0.2078 -0.679956 0
M  V30 2589 H 250.376 -1.18562 -1.55446 0
M  V30 2590 H 249.08 -1.91547 -3.62957 0
M  V30 2591 H 248.611 -0.234301 -3.92702 0
M  V30 2592 H 250.626 0.526995 -4.93394 0
M  V30 2593 N 249.799 1.42003 -0.683588 0
M  V30 2594 C 251.029 2.05448 -0.217866 0
M  V30 2595 C 251.437 1.51491 1.13346 0
M  V30 2596 O 250.78 0.653048 1.717 0
M  V30 2597 C 250.842 3.59399 -0.0850118 0
M  V30 2598 C 250.506 4.36093 -1.36645 0
M  V30 2599 C 251.503 4.66169 -2.30179 0
M  V30 2600 C 249.188 4.75578 -1.61649 0
M  V30 2601 C 251.182 5.34676 -3.46988 0
M  V30 2602 C 248.869 5.43824 -2.78745 0
M  V30 2603 C 249.867 5.73299 -3.71238 0
M  V30 2604 O 249.555 6.40142 -4.86285 0
M  V30 2605 H 249.287 0.668344 -0.101454 0
M  V30 2606 H 251.841 1.82974 -0.933248 0
M  V30 2607 H 250.071 3.80566 0.686031 0
M  V30 2608 H 251.76 4.04457 0.341973 0
M  V30 2609 H 252.526 4.36156 -2.12115 0
M  V30 2610 H 248.405 4.52025 -0.905243 0
M  V30 2611 H 251.949 5.57599 -4.19201 0
M  V30 2612 H 247.846 5.73254 -2.96732 0
M  V30 2613 H 248.614 6.58636 -4.85944 0
M  V30 2614 N 251.277 0.427512 1.51691 0
M  V30 2615 C 252.505 -0.141191 2.06418 0
M  V30 2616 C 252.92 -1.37303 1.29589 0
M  V30 2617 O 252.277 -1.79059 0.352732 0
M  V30 2618 C 252.328 -0.473266 3.58389 0
M  V30 2619 O 252.049 0.709673 4.32314 0
M  V30 2620 C 253.55 -1.09371 4.29596 0
M  V30 2621 H 250.77 -0.0122747 0.670888 0
M  V30 2622 H 253.314 0.603764 1.95384 0
M  V30 2623 H 251.469 -1.16812 3.69369 0
M  V30 2624 H 251.883 0.42807 5.2275 0
M  V30 2625 H 253.357 -1.27613 5.37046 0
M  V30 2626 H 253.834 -2.072 3.87253 0
M  V30 2627 H 254.44 -0.43853 4.23033 0
M  V30 2628 N 252.755 -1.56801 0.158532 0
M  V30 2629 C 253.983 -2.00859 -0.496303 0
M  V30 2630 C 254.398 -1.03871 -1.57659 0
M  V30 2631 O 253.755 -0.0375165 -1.82461 0
M  V30 2632 C 253.806 -3.4479 -1.08638 0
M  V30 2633 O 253.527 -4.38072 -0.0492322 0
M  V30 2634 C 255.028 -4.04185 -1.8207 0
M  V30 2635 H 252.248 -0.65864 -0.128199 0
M  V30 2636 H 254.792 -2.02885 0.256506 0
M  V30 2637 H 252.947 -3.43579 -1.78975 0
M  V30 2638 H 253.361 -5.2227 -0.483102 0
M  V30 2639 H 254.835 -5.06857 -2.18633 0
M  V30 2640 H 255.312 -3.45549 -2.71095 0
M  V30 2641 H 255.918 -4.0906 -1.16405 0
M  V30 2642 N 254.233 0.115231 -1.57178 0
M  V30 2643 C 255.51 0.852873 -1.76027 0
M  V30 2644 C 255.89 1.97892 -0.73498 0
M  V30 2645 O 255.238 2.27232 0.24036 0
M  V30 2646 C 255.448 1.36608 -3.21153 0
M  V30 2647 C 256.796 1.81692 -3.83762 0
M  V30 2648 O 257.82 1.46278 -3.24779 0
M  V30 2649 O 256.679 2.47104 -4.87444 0
M  V30 2650 H 253.773 0.405296 -0.720877 0
M  V30 2651 H 256.319 0.0986785 -1.69413 0
M  V30 2652 H 255.091 0.558357 -3.87296 0
M  V30 2653 H 254.714 2.18287 -3.3232 0
M  V30 2654 N 255.711 1.52812 0.385517 0
M  V30 2655 C 257.122 1.5993 0.963293 0
M  V30 2656 C 257.473 0.454302 1.90868 0
M  V30 2657 O 256.598 -0.422132 2.12243 0
M  V30 2658 C 257.193 2.89871 1.75387 0
M  V30 2659 C 255.752 2.99389 2.28129 0
M  V30 2660 C 254.899 2.55071 1.08783 0
M  V30 2661 H 257.85 1.5784 0.164948 0
M  V30 2662 H 257.871 2.76553 2.61341 0
M  V30 2663 H 257.383 3.73186 1.06554 0
M  V30 2664 H 255.484 2.20619 3.00263 0
M  V30 2665 H 255.597 4.04096 2.57377 0
M  V30 2666 H 253.961 2.09473 1.4489 0
M  V30 2667 H 254.744 3.40785 0.414807 0
M  V30 2668 N 257.189 -0.644168 1.43834 0
M  V30 2669 C 258.417 -1.43147 1.49387 0
M  V30 2670 C 258.832 -1.88452 0.114583 0
M  V30 2671 O 258.189 -1.60047 -0.876989 0
M  V30 2672 C 258.24 -2.66046 2.44748 0
M  V30 2673 O 257.961 -2.22633 3.77314 0
M  V30 2674 C 259.462 -3.59311 2.59635 0
M  V30 2675 H 256.682 -0.439447 0.507077 0
M  V30 2676 H 259.226 -0.78895 1.88669 0
M  V30 2677 H 257.381 -3.26418 2.08638 0
M  V30 2678 H 257.795 -3.02216 4.28679 0
M  V30 2679 H 259.269 -4.42187 3.30416 0
M  V30 2680 H 259.746 -4.07259 1.64427 0
M  V30 2681 H 260.352 -3.04816 2.96593 0
M  V30 2682 N 258.668 -1.30515 -0.883378 0
M  V30 2683 C 259.914 -1.19607 -1.63774 0
M  V30 2684 C 260.247 0.248314 -1.92606 0
M  V30 2685 O 259.522 1.17742 -1.54813 0
M  V30 2686 C 259.805 -2.02669 -2.97653 0
M  V30 2687 C 259.658 -3.55335 -2.75784 0
M  V30 2688 C 260.977 -1.86573 -3.98596 0
M  V30 2689 H 258.096 -0.435856 -0.594305 0
M  V30 2690 H 260.738 -1.60165 -1.02212 0
M  V30 2691 H 258.888 -1.68208 -3.50197 0
M  V30 2692 H 260.56 -3.99863 -2.30016 0
M  V30 2693 H 258.803 -3.79438 -2.1026 0
M  V30 2694 H 259.474 -4.08745 -3.70988 0
M  V30 2695 H 261.95 -2.16703 -3.55217 0
M  V30 2696 H 260.826 -2.47014 -4.90179 0
M  V30 2697 H 261.087 -0.825321 -4.34328 0
M  V30 2698 N 260.146 1.09593 -1.13257 0
M  V30 2699 C 261.562 1.33775 -0.870423 0
M  V30 2700 C 261.762 1.95327 0.494926 0
M  V30 2701 O 260.818 2.19853 1.2418 0
M  V30 2702 C 262.131 2.25106 -1.99369 0
M  V30 2703 C 263.679 2.3862 -2.02558 0
M  V30 2704 C 264.154 3.33285 -3.14142 0
M  V30 2705 N 265.645 3.40857 -3.13641 0
M  V30 2706 C 266.38 4.14101 -3.96621 0
M  V30 2707 N 265.876 4.90157 -4.8961 0
M  V30 2708 N 267.669 4.09808 -3.84726 0
M  V30 2709 H 259.82 0.680136 -2.01216 0
M  V30 2710 H 262.083 0.362133 -0.876107 0
M  V30 2711 H 261.789 1.87103 -2.97801 0
M  V30 2712 H 261.663 3.25481 -1.90635 0
M  V30 2713 H 264.05 2.75887 -1.0474 0
M  V30 2714 H 264.131 1.38028 -2.15364 0
M  V30 2715 H 263.775 2.96741 -4.12198 0
M  V30 2716 H 263.705 4.33776 -2.98574 0
M  V30 2717 H 266.196 2.86624 -2.46282 0
M  V30 2718 H 266.509 5.4347 -5.49418 0
M  V30 2719 H 264.854 4.89251 -4.93617 0
M  V30 2720 H 268.045 3.4949 -3.11408 0
M  V30 2721 H 268.218 4.66629 -4.49623 0
M  V30 2722 N 261.624 0.925811 1.2754 0
M  V30 2723 C 263.04 0.625767 1.46821 0
M  V30 2724 C 263.24 -0.825506 1.83814 0
M  V30 2725 O 262.296 -1.60356 1.95044 0
M  V30 2726 C 263.609 1.57402 2.56213 0
M  V30 2727 C 265.157 1.58204 2.70075 0
M  V30 2728 C 265.632 2.51721 3.82623 0
M  V30 2729 N 267.123 2.49917 3.89994 0
M  V30 2730 C 267.858 3.18968 4.76494 0
M  V30 2731 N 267.354 3.97391 5.67496 0
M  V30 2732 N 269.147 3.07996 4.70208 0
M  V30 2733 H 261.298 1.86409 1.01811 0
M  V30 2734 H 263.561 0.800213 0.508295 0
M  V30 2735 H 263.267 2.60925 2.35819 0
M  V30 2736 H 263.141 1.31428 3.53563 0
M  V30 2737 H 265.528 0.554124 2.89851 0
M  V30 2738 H 265.609 1.88226 1.73218 0
M  V30 2739 H 265.253 3.54622 3.63601 0
M  V30 2740 H 265.183 2.18996 4.78903 0
M  V30 2741 H 267.674 1.9296 3.24923 0
M  V30 2742 H 267.987 4.4707 6.30356 0
M  V30 2743 H 266.332 4.01495 5.67298 0
M  V30 2744 H 269.523 2.46223 3.9811 0
M  V30 2745 H 269.696 3.6208 5.37403 0
M  V30 2746 N 263.102 -1.41638 0.69111 0
M  V30 2747 C 264.034 -2.29194 -0.0161523 0
M  V30 2748 C 265.047 -1.44549 -0.748955 0
M  V30 2749 O 266.236 -1.681 -0.6004 0
M  V30 2750 C 263.336 -3.22325 -1.0469 0
M  V30 2751 C 262.509 -4.35706 -0.384621 0
M  V30 2752 C 261.568 -5.09443 -1.31737 0
M  V30 2753 O 260.594 -5.63386 -0.811451 0
M  V30 2754 N 261.796 -5.16487 -2.64993 0
M  V30 2755 H 264.561 -2.90534 0.735523 0
M  V30 2756 H 262.122 -1.52742 0.53679 0
M  V30 2757 H 264.114 -3.68522 -1.67252 0
M  V30 2758 H 262.684 -2.62323 -1.70015 0
M  V30 2759 H 261.904 -3.91948 0.420804 0
M  V30 2760 H 263.192 -5.08743 0.0760765 0
M  V30 2761 H 262.59 -4.741 -3.08619 0
M  V30 2762 H 261.147 -5.66276 -3.22761 0
M  V30 2763 N 264.58 -0.43555 -1.51462 0
M  V30 2764 C 265.49 0.383001 -2.31453 0
M  V30 2765 C 266.506 1.02931 -1.4029 0
M  V30 2766 O 267.682 1.02507 -1.73362 0
M  V30 2767 C 264.747 1.47043 -3.13973 0
M  V30 2768 C 263.808 0.844433 -4.20913 0
M  V30 2769 C 263.041 1.88004 -4.9949 0
M  V30 2770 O 263.264 3.10199 -4.78678 0
M  V30 2771 O 262.198 1.47157 -5.83634 0
M  V30 2772 H 266.024 -0.269964 -3.02498 0
M  V30 2773 H 263.609 -0.19813 -1.4808 0
M  V30 2774 H 265.491 2.10113 -3.65281 0
M  V30 2775 H 264.166 2.10751 -2.45695 0
M  V30 2776 H 263.073 0.175729 -3.73687 0
M  V30 2777 H 264.406 0.250869 -4.9156 0
M  V30 2778 N 266.058 1.56714 -0.166846 0
M  V30 2779 C 267.298 1.98641 0.481763 0
M  V30 2780 C 267.662 1.05038 1.6072 0
M  V30 2781 O 268.863 1.36087 2.31805 0
M  V30 2782 C 267.134 3.44362 0.956517 0
M  V30 2783 S 268.693 4.08317 1.60694 0
M  V30 2784 H 265.511 0.693873 0.155116 0
M  V30 2785 H 268.113 1.93719 -0.263251 0
M  V30 2786 H 266.817 4.10204 0.126936 0
M  V30 2787 H 266.348 3.53041 1.73568 0
M  V30 2788 H 268.363 4.02999 2.89494 0
M  V30 2789 N 267.536 -0.106894 1.57237 0
M  V30 2790 C 268.761 -0.830287 1.90055 0
M  V30 2791 C 269.186 -1.72064 0.75998 0
M  V30 2792 O 268.544 -1.78982 -0.288991 0
M  V30 2793 C 268.592 -1.6295 3.21683 0
M  V30 2794 O 267.696 -2.73748 3.08441 0
M  V30 2795 H 267.037 -0.228855 0.623315 0
M  V30 2796 H 269.567 -0.085658 2.04421 0
M  V30 2797 H 269.577 -2.01621 3.54701 0
M  V30 2798 H 268.252 -0.975989 4.04286 0
M  V30 2799 H 266.829 -2.38192 2.86913 0
M  V30 2800 N 269.014 -1.53014 -0.377408 0
M  V30 2801 C 270.263 -1.67845 -1.11853 0
M  V30 2802 C 270.576 -0.430625 -1.90801 0
M  V30 2803 O 271.782 -0.459261 -2.67587 0
M  V30 2804 C 270.238 -2.96668 -2.03756 0
M  V30 2805 C 269.846 -4.28671 -1.30175 0
M  V30 2806 C 271.59 -3.20865 -2.77932 0
M  V30 2807 C 269.497 -5.48591 -2.20911 0
M  V30 2808 H 268.427 -0.625343 -0.421263 0
M  V30 2809 H 271.078 -1.79514 -0.380409 0
M  V30 2810 H 269.46 -2.78773 -2.8125 0
M  V30 2811 H 270.634 -4.57157 -0.578259 0
M  V30 2812 H 268.949 -4.10825 -0.679108 0
M  V30 2813 H 271.546 -4.07642 -3.46024 0
M  V30 2814 H 271.889 -2.36424 -3.4265 0
M  V30 2815 H 272.422 -3.39379 -2.07525 0
M  V30 2816 H 269.161 -6.35474 -1.6079 0
M  V30 2817 H 268.681 -5.244 -2.91144 0
M  V30 2818 H 270.36 -5.8292 -2.80736 0
M  V30 2819 N 270.492 0.636531 -1.44174 0
M  V30 2820 C 271.903 1.21806 -1.41493 0
M  V30 2821 C 272.254 1.95785 -0.1275 0
M  V30 2822 O 271.379 2.02147 0.772376 0
M  V30 2823 C 271.974 2.21551 -2.56321 0
M  V30 2824 C 270.533 2.75143 -2.56853 0
M  V30 2825 C 269.68 1.50052 -2.33195 0
M  V30 2826 H 272.631 0.427531 -1.52833 0
M  V30 2827 H 272.652 3.0405 -2.28765 0
M  V30 2828 H 272.164 1.67679 -3.50008 0
M  V30 2829 H 270.265 3.33033 -1.67093 0
M  V30 2830 H 270.378 3.2155 -3.55165 0
M  V30 2831 H 268.742 1.77993 -1.82183 0
M  V30 2832 H 269.525 0.980903 -3.28988 0
M  V30 2833 N 271.97 1.30982 0.876444 0
M  V30 2834 C 273.216 1.20474 1.63138 0
M  V30 2835 C 273.549 -0.238096 1.92735 0
M  V30 2836 O 272.824 -1.1692 1.55435 0
M  V30 2837 C 273.107 2.04244 2.96574 0
M  V30 2838 C 272.96 3.56793 2.73896 0
M  V30 2839 C 274.279 1.88684 3.97601 0
M  V30 2840 H 271.398 0.439001 0.591985 0
M  V30 2841 H 274.04 1.60704 1.01361 0
M  V30 2842 H 272.19 1.70063 3.493 0
M  V30 2843 H 273.862 4.01077 2.27892 0
M  V30 2844 H 272.105 3.80548 2.08245 0
M  V30 2845 H 272.776 4.10706 3.68815 0
M  V30 2846 H 275.252 2.18584 3.54062 0
M  V30 2847 H 274.128 2.4961 4.88862 0
M  V30 2848 H 274.389 0.848343 4.33884 0
M  V30 2849 N 273.449 -1.08991 1.13837 0
M  V30 2850 C 274.689 -1.82867 0.913183 0
M  V30 2851 C 275.053 -1.83936 -0.550604 0
M  V30 2852 O 276.254 -2.53515 -0.893515 0
M  V30 2853 C 274.525 -3.24843 1.49036 0
M  V30 2854 S 276.084 -4.15669 1.40588 0
M  V30 2855 H 272.902 -0.630278 0.329046 0
M  V30 2856 H 275.504 -1.31049 1.45073 0
M  V30 2857 H 274.208 -3.21644 2.54899 0
M  V30 2858 H 273.739 -3.81734 0.950947 0
M  V30 2859 H 275.754 -4.94686 0.387353 0
M  V30 2860 N 274.927 -0.932562 -1.27047 0
M  V30 2861 C 276.175 -0.574422 -1.93765 0
M  V30 2862 C 276.496 0.887993 -1.73608 0
M  V30 2863 O 275.766 1.62999 -1.08665 0
M  V30 2864 H 274.346 -0.209451 -0.717035 0
M  V30 2865 H 277.008 -1.18601 -1.5466 0
M  V30 2866 H 276.104 -0.784841 -3.02071 0
M  V30 2867 N 276.405 1.4127 -0.698611 0
M  V30 2868 C 277.337 2.292 0.00399731 0
M  V30 2869 C 278.35 1.44944 0.741279 0
M  V30 2870 O 279.539 1.68416 0.591477 0
M  V30 2871 C 276.639 3.22875 1.02979 0
M  V30 2872 C 275.812 4.35904 0.36151 0
M  V30 2873 C 274.871 5.10134 1.29033 0
M  V30 2874 O 273.897 5.63809 0.781562 0
M  V30 2875 N 275.099 5.17885 2.6225 0
M  V30 2876 H 277.864 2.9014 -0.750921 0
M  V30 2877 H 275.425 1.52455 -0.544882 0
M  V30 2878 H 277.417 3.69404 1.65296 0
M  V30 2879 H 275.987 2.63221 1.68622 0
M  V30 2880 H 275.207 3.91719 -0.441584 0
M  V30 2881 H 276.495 5.08696 -0.103055 0
M  V30 2882 H 275.893 4.7573 3.061 0
M  V30 2883 H 274.45 5.6798 3.19754 0
M  V30 2884 N 277.883 0.443576 1.51229 0
M  V30 2885 C 279.16 -0.181038 1.9476 0
M  V30 2886 C 279.54 -1.59523 1.38259 0
M  V30 2887 O 278.888 -2.2122 0.572198 0
M  V30 2888 C 279.098 -0.152422 3.48667 0
M  V30 2889 C 280.446 -0.354923 4.23114 0
M  V30 2890 O 281.47 -0.230257 3.55455 0
M  V30 2891 O 280.329 -0.603674 5.43156 0
M  V30 2892 H 277.423 -0.1266 0.817252 0
M  V30 2893 H 279.969 0.502004 1.62105 0
M  V30 2894 H 278.741 0.836022 3.82265 0
M  V30 2895 H 278.364 -0.878107 3.87782 0
M  V30 2896 N 279.361 -1.56624 0.175154 0
M  V30 2897 C 280.293 -2.15333 -0.785128 0
M  V30 2898 C 281.306 -1.1099 -1.19101 0
M  V30 2899 O 282.495 -1.38162 -1.13019 0
M  V30 2900 C 279.595 -2.68427 -2.06882 0
M  V30 2901 C 278.768 -3.97466 -1.8259 0
M  V30 2902 C 277.827 -4.35585 -2.95215 0
M  V30 2903 O 276.853 -5.03389 -2.65684 0
M  V30 2904 N 278.055 -3.97457 -4.23094 0
M  V30 2905 H 280.82 -2.98359 -0.283187 0
M  V30 2906 H 278.381 -1.61898 -0.00749817 0
M  V30 2907 H 280.373 -2.90924 -2.81328 0
M  V30 2908 H 278.943 -1.89968 -2.48256 0
M  V30 2909 H 278.163 -3.83307 -0.920287 0
M  V30 2910 H 279.451 -4.81736 -1.63733 0
M  V30 2911 H 278.849 -3.42878 -4.49945 0
M  V30 2912 H 277.406 -4.24947 -4.9423 0
M  V30 2913 N 280.839 0.0985539 -1.57292 0
M  V30 2914 C 282.085 0.803867 -1.86188 0
M  V30 2915 C 282.418 1.78549 -0.763794 0
M  V30 2916 O 281.693 1.93153 0.22855 0
M  V30 2917 C 281.976 1.53568 -3.25713 0
M  V30 2918 C 281.829 0.572277 -4.46145 0
M  V30 2919 C 283.148 2.48708 -3.63087 0
M  V30 2920 H 280.267 0.290781 -0.677211 0
M  V30 2921 H 282.909 0.0675783 -1.8988 0
M  V30 2922 H 281.059 2.16332 -3.22696 0
M  V30 2923 H 282.731 -0.0480894 -4.61275 0
M  V30 2924 H 280.974 -0.114618 -4.33649 0
M  V30 2925 H 281.645 1.12139 -5.40489 0
M  V30 2926 H 284.121 1.96039 -3.67026 0
M  V30 2927 H 282.997 2.96932 -4.61652 0
M  V30 2928 H 283.258 3.32309 -2.91588 0
M  V30 2929 N 282.317 1.53212 0.369288 0
M  V30 2930 C 283.545 1.73119 1.13303 0
M  V30 2931 C 283.96 0.458455 1.83149 0
M  V30 2932 O 283.317 -0.568403 1.73423 0
M  V30 2933 C 283.368 2.89413 2.16616 0
M  V30 2934 O 283.089 4.11761 1.49614 0
M  V30 2935 C 284.59 3.21161 3.05566 0
M  V30 2936 H 281.81 0.579107 0.338934 0
M  V30 2937 H 284.354 1.99942 0.429338 0
M  V30 2938 H 282.509 2.64994 2.82589 0
M  V30 2939 H 282.923 4.76858 2.18419 0
M  V30 2940 H 284.397 4.05949 3.74045 0
M  V30 2941 H 284.874 2.36369 3.70171 0
M  V30 2942 H 285.48 3.47492 2.45213 0
M  V30 2943 N 283.795 -0.628877 1.44509 0
M  V30 2944 C 285.041 -1.39045 1.47629 0
M  V30 2945 C 285.374 -1.93892 0.109343 0
M  V30 2946 O 284.649 -1.7379 -0.87334 0
M  V30 2947 C 284.932 -2.55408 2.53848 0
M  V30 2948 C 284.785 -2.05896 3.99909 0
M  V30 2949 C 286.104 -3.5759 2.56549 0
M  V30 2950 H 283.223 -0.504232 0.537512 0
M  V30 2951 H 285.865 -0.710854 1.76201 0
M  V30 2952 H 284.015 -3.13384 2.29615 0
M  V30 2953 H 285.687 -1.52734 4.35282 0
M  V30 2954 H 283.93 -1.37061 4.11578 0
M  V30 2955 H 284.601 -2.89681 4.69882 0
M  V30 2956 H 287.077 -3.09419 2.78207 0
M  V30 2957 H 285.953 -4.36527 3.32769 0
M  V30 2958 H 286.214 -4.11808 1.60832 0
M  V30 2959 N 285.273 -1.31445 -0.869486 0
M  V30 2960 C 286.236 -1.19094 -1.9583 0
M  V30 2961 C 287.236 -0.117906 -1.60367 0
M  V30 2962 O 288.426 -0.367208 -1.70286 0
M  V30 2963 C 285.558 -0.828165 -3.30688 0
M  V30 2964 H 286.751 -2.15842 -2.08212 0
M  V30 2965 H 284.304 -1.15063 -1.05784 0
M  V30 2966 H 285.039 0.138142 -3.24006 0
M  V30 2967 H 284.824 -1.6038 -3.578 0
M  V30 2968 H 286.314 -0.765658 -4.10521 0
M  V30 2969 N 286.751 1.08385 -1.14413 0
M  V30 2970 C 287.684 2.14642 -0.774871 0
M  V30 2971 C 288.662 1.60761 0.243876 0
M  V30 2972 O 289.846 1.88031 0.132883 0
M  V30 2973 C 286.973 3.38366 -0.150491 0
M  V30 2974 C 286.019 4.10997 -1.13945 0
M  V30 2975 S 286.852 4.63797 -2.67679 0
M  V30 2976 C 288.008 5.90808 -2.06631 0
M  V30 2977 H 288.241 2.45633 -1.67487 0
M  V30 2978 H 285.774 1.20498 -0.96538 0
M  V30 2979 H 287.732 4.09996 0.203334 0
M  V30 2980 H 286.393 3.05572 0.72694 0
M  V30 2981 H 285.586 4.99783 -0.65059 0
M  V30 2982 H 285.188 3.4528 -1.43727 0
M  V30 2983 H 287.48 6.62411 -1.4219 0
M  V30 2984 H 288.423 6.4439 -2.93542 0
M  V30 2985 H 288.831 5.4383 -1.51357 0
M  V30 2986 N 288.23 0.939286 1.26551 0
M  V30 2987 C 289.458 0.602536 1.97932 0
M  V30 2988 C 289.873 -0.82206 1.69964 0
M  V30 2989 O 289.23 -1.54789 0.966784 0
M  V30 2990 C 289.281 0.832946 3.51773 0
M  V30 2991 O 289.002 2.20151 3.78768 0
M  V30 2992 C 290.503 0.506483 4.40397 0
M  V30 2993 H 287.723 0.227248 0.631347 0
M  V30 2994 H 290.267 1.25948 1.61113 0
M  V30 2995 H 288.422 0.222644 3.8676 0
M  V30 2996 H 288.836 2.26013 4.73306 0
M  V30 2997 H 290.31 0.718333 5.47306 0
M  V30 2998 H 290.787 -0.558451 4.35635 0
M  V30 2999 H 291.393 1.09543 4.10951 0
M  V30 3000 N 289.708 -1.40897 0.706093 0
M  V30 3001 C 291.119 -1.84023 0.315052 0
M  V30 3002 C 291.47 -1.5906 -1.14866 0
M  V30 3003 O 290.595 -1.06651 -1.88293 0
M  V30 3004 C 291.19 -3.34055 0.565038 0
M  V30 3005 C 289.749 -3.7571 0.227806 0
M  V30 3006 C 288.896 -2.64204 0.842122 0
M  V30 3007 H 291.847 -1.303 0.905963 0
M  V30 3008 H 291.868 -3.80107 -0.172843 0
M  V30 3009 H 291.38 -3.52192 1.63042 0
M  V30 3010 H 289.481 -3.63172 -0.832895 0
M  V30 3011 H 289.594 -4.74103 0.690174 0
M  V30 3012 H 287.958 -2.53255 0.270893 0
M  V30 3013 H 288.741 -2.85155 1.91158 0
M  V30 3014 N 291.186 -0.45159 -1.50991 0
M  V30 3015 C 292.602 -0.104647 -1.59257 0
M  V30 3016 C 292.802 1.38728 -1.4614 0
M  V30 3017 O 291.858 2.15866 -1.30989 0
M  V30 3018 C 293.171 -0.637468 -2.93865 0
M  V30 3019 C 294.719 -0.599166 -3.07212 0
M  V30 3020 C 295.194 -1.1092 -4.44366 0
M  V30 3021 N 296.685 -1.06778 -4.50725 0
M  V30 3022 C 297.42 -1.43314 -5.55201 0
M  V30 3023 N 296.916 -1.87204 -6.67028 0
M  V30 3024 N 298.709 -1.3504 -5.45638 0
M  V30 3025 H 290.86 -1.42214 -1.57762 0
M  V30 3026 H 293.123 -0.586921 -0.744465 0
M  V30 3027 H 292.829 -1.68187 -3.08879 0
M  V30 3028 H 292.703 -0.0702139 -3.77135 0
M  V30 3029 H 295.09 0.436277 -2.91857 0
M  V30 3030 H 295.171 -1.20299 -2.25747 0
M  V30 3031 H 294.815 -2.14318 -4.60467 0
M  V30 3032 H 294.745 -0.481773 -5.24392 0
M  V30 3033 H 297.236 -0.745643 -3.70471 0
M  V30 3034 H 297.549 -2.13282 -7.42786 0
M  V30 3035 H 295.894 -1.91142 -6.68199 0
M  V30 3036 H 299.085 -1.00607 -4.57161 0
M  V30 3037 H 299.258 -1.63841 -6.26945 0
M  V30 3038 N 292.664 1.56529 -0.183458 0
M  V30 3039 C 293.889 2.02064 0.467428 0
M  V30 3040 C 294.314 1.06282 1.55196 0
M  V30 3041 O 293.672 0.0443565 1.81246 0
M  V30 3042 C 293.72 3.46122 1.01153 0
M  V30 3043 O 292.824 3.53437 2.12499 0
M  V30 3044 H 292.165 0.654726 0.110588 0
M  V30 3045 H 294.695 2.02521 -0.290917 0
M  V30 3046 H 294.705 3.85676 1.33108 0
M  V30 3047 H 293.38 4.15331 0.217533 0
M  V30 3048 H 291.957 3.2575 1.81497 0
M  V30 3049 N 294.142 -0.090211 1.57342 0
M  V30 3050 C 295.052 -1.12735 2.05738 0
M  V30 3051 C 296.068 -1.43557 0.983231 0
M  V30 3052 O 297.244 -1.54101 1.29672 0
M  V30 3053 C 294.309 -2.42659 2.47624 0
M  V30 3054 C 293.37 -2.18975 3.69254 0
M  V30 3055 C 292.603 -3.42704 4.09133 0
M  V30 3056 O 292.826 -4.51127 3.49057 0
M  V30 3057 O 291.76 -3.32003 5.02053 0
M  V30 3058 H 295.586 -0.746279 2.94388 0
M  V30 3059 H 293.171 -0.303064 1.46294 0
M  V30 3060 H 295.053 -3.19155 2.7517 0
M  V30 3061 H 293.728 -2.80182 1.62109 0
M  V30 3062 H 292.635 -1.40244 3.46818 0
M  V30 3063 H 293.968 -1.86342 4.55563 0
M  V30 3064 N 295.62 -1.53406 -0.361157 0
M  V30 3065 C 296.868 -1.69467 -1.10115 0
M  V30 3066 C 297.189 -0.451352 -1.89705 0
M  V30 3067 O 296.459 0.534636 -1.88463 0
M  V30 3068 H 295.039 -0.624749 -0.409508 0
M  V30 3069 H 297.701 -1.90609 -0.406699 0
M  V30 3070 H 296.797 -2.55774 -1.78847 0
M  V30 3071 N 297.098 0.621204 -1.44841 0
M  V30 3072 C 298.323 1.41244 -1.51871 0
M  V30 3073 C 298.748 1.87519 -0.147764 0
M  V30 3074 O 298.106 1.59334 0.865 0
M  V30 3075 C 298.154 2.60221 -2.49634 0
M  V30 3076 O 297.258 3.60395 -2.00473 0
M  V30 3077 H 296.599 0.42223 -0.512463 0
M  V30 3078 H 299.129 0.757305 -1.90069 0
M  V30 3079 H 299.139 3.0764 -2.67996 0
M  V30 3080 H 297.814 2.25887 -3.4921 0
M  V30 3081 H 296.391 3.19717 -1.91925 0
M  V30 3082 N 298.576 1.31904 0.862503 0
M  V30 3083 C 299.801 1.25135 1.65397 0
M  V30 3084 C 300.226 -0.179 1.87246 0
M  V30 3085 O 299.584 -1.1277 1.4196 0
M  V30 3086 C 299.632 2.00832 2.99498 0
M  V30 3087 O 298.736 1.35075 3.89652 0
M  V30 3088 H 298.077 0.431655 0.504549 0
M  V30 3089 H 300.607 1.74094 1.07483 0
M  V30 3090 H 300.617 2.10709 3.49379 0
M  V30 3091 H 299.292 3.04847 2.82916 0
M  V30 3092 H 297.869 1.33696 3.48109 0
M  V30 3093 N 300.054 -1.07777 1.14986 0
M  V30 3094 C 301.3 -1.80557 0.923422 0
M  V30 3095 C 301.633 -1.86298 -0.548337 0
M  V30 3096 O 300.908 -1.34354 -1.40639 0
M  V30 3097 C 301.191 -3.25839 1.53299 0
M  V30 3098 C 301.044 -3.28269 3.07505 0
M  V30 3099 C 302.363 -4.22991 1.21518 0
M  V30 3100 H 299.482 -0.655493 0.336894 0
M  V30 3101 H 302.124 -1.26144 1.42083 0
M  V30 3102 H 300.274 -3.72306 1.10999 0
M  V30 3103 H 301.946 -2.90079 3.58681 0
M  V30 3104 H 300.189 -2.67355 3.4162 0
M  V30 3105 H 300.86 -4.30691 3.45266 0
M  V30 3106 H 303.336 -3.84894 1.581 0
M  V30 3107 H 302.212 -5.22945 1.66793 0
M  V30 3108 H 302.473 -4.41904 0.131505 0
M  V30 3109 N 301.532 -0.945985 -1.26051 0
M  V30 3110 C 302.48 -0.450259 -2.282 0
M  V30 3111 C 303.474 0.47497 -1.62605 0
M  V30 3112 O 304.68 0.352653 -1.76512 0
M  V30 3113 H 301.055 -0.127081 -0.741184 0
M  V30 3114 H 303.026 -1.32422 -2.67408 0
M  V30 3115 C 301.775 0.26467 -3.46691 0
M  V30 3116 H 301.098 -0.438123 -3.97392 0
M  V30 3117 H 302.538 0.575678 -4.20074 0
M  V30 3118 C 300.997 1.48416 -3.02447 0
M  V30 3119 O 301.527 2.58227 -3.07704 0
M  V30 3120 N 299.733 1.34243 -2.57735 0
M  V30 3121 H 299.28 0.448994 -2.53657 0
M  V30 3122 H 299.238 2.15957 -2.28495 0
M  V30 3123 N 303.011 1.40521 -0.713556 0
M  V30 3124 C 303.941 2.33381 -0.0743864 0
M  V30 3125 C 304.922 1.52784 0.747735 0
M  V30 3126 O 306.107 1.81258 0.697071 0
M  V30 3127 C 303.237 3.36748 0.849598 0
M  V30 3128 C 302.191 4.27793 0.133247 0
M  V30 3129 C 301.517 5.21679 1.17281 0
M  V30 3130 C 302.817 5.12415 -1.01134 0
M  V30 3131 H 304.511 2.87081 -0.850007 0
M  V30 3132 H 302.057 1.38034 -0.410201 0
M  V30 3133 H 304.01 4.00648 1.30612 0
M  V30 3134 H 302.734 2.81439 1.65709 0
M  V30 3135 H 301.393 3.65342 -0.303426 0
M  V30 3136 H 301.041 4.62677 1.9733 0
M  V30 3137 H 300.741 5.83435 0.698397 0
M  V30 3138 H 302.265 5.88456 1.62947 0
M  V30 3139 H 303.679 5.69781 -0.634274 0
M  V30 3140 H 302.076 5.83203 -1.41399 0
M  V30 3141 H 303.146 4.48514 -1.84292 0
M  V30 3142 N 304.489 0.459591 1.5075 0
M  V30 3143 C 305.714 -0.0996819 2.0716 0
M  V30 3144 C 306.139 -1.33761 1.32249 0
M  V30 3145 O 305.497 -1.77551 0.366786 0
M  V30 3146 C 305.545 -0.378226 3.58611 0
M  V30 3147 O 304.649 -1.46081 3.85661 0
M  V30 3148 H 303.99 0.00791392 0.663953 0
M  V30 3149 H 306.52 0.647329 1.9409 0
M  V30 3150 H 306.53 -0.622135 4.03229 0
M  V30 3151 H 305.205 0.526439 4.12555 0
M  V30 3152 H 303.782 -1.20511 3.5289 0
M  V30 3153 N 305.967 -1.56429 0.191757 0
M  V30 3154 C 307.378 -1.83912 -0.321428 0
M  V30 3155 C 307.729 -1.11231 -1.61623 0
M  V30 3156 O 306.854 -0.37202 -2.13178 0
M  V30 3157 C 307.449 -3.33624 -0.589961 0
M  V30 3158 C 306.008 -3.6153 -1.04753 0
M  V30 3159 C 305.155 -2.7714 -0.0943327 0
M  V30 3160 H 308.106 -1.53161 0.415612 0
M  V30 3161 H 308.127 -3.52213 -1.43966 0
M  V30 3162 H 307.639 -3.86495 0.352588 0
M  V30 3163 H 305.74 -3.14089 -2.00447 0
M  V30 3164 H 305.853 -4.69737 -0.942549 0
M  V30 3165 H 304.217 -2.47638 -0.595589 0
M  V30 3166 H 305 -3.32799 0.842601 0
M  V30 3167 N 307.445 0.0818655 -1.57387 0
M  V30 3168 C 308.856 0.634871 -1.75574 0
M  V30 3169 C 309.207 1.78435 -0.815809 0
M  V30 3170 O 308.332 2.164 0.0025366 0
M  V30 3171 C 308.927 1.15845 -3.18379 0
M  V30 3172 C 307.486 1.65741 -3.37945 0
M  V30 3173 C 306.633 0.572549 -2.71325 0
M  V30 3174 H 309.584 -0.144268 -1.58043 0
M  V30 3175 H 309.605 2.02751 -3.21982 0
M  V30 3176 H 309.117 0.321631 -3.86765 0
M  V30 3177 H 307.218 2.51781 -2.74658 0
M  V30 3178 H 307.331 1.74129 -4.46336 0
M  V30 3179 H 305.695 1.01518 -2.33594 0
M  V30 3180 H 306.478 -0.253918 -3.4236 0
M  V30 3181 N 308.923 1.53595 0.353017 0
M  V30 3182 C 309.853 1.83902 1.43883 0
M  V30 3183 C 310.834 0.693421 1.55324 0
M  V30 3184 O 312.019 0.944452 1.69687 0
M  V30 3185 C 309.149 2.04016 2.8106 0
M  V30 3186 C 308.103 3.19814 2.84434 0
M  V30 3187 C 307.429 3.25244 4.24406 0
M  V30 3188 C 308.729 4.58133 2.50822 0
M  V30 3189 H 310.423 2.74835 1.1877 0
M  V30 3190 H 307.969 1.32242 0.569917 0
M  V30 3191 H 309.922 2.238 3.57059 0
M  V30 3192 H 308.646 1.09804 3.07588 0
M  V30 3193 H 307.305 2.9987 2.10887 0
M  V30 3194 H 306.953 2.28646 4.48029 0
M  V30 3195 H 306.653 4.03054 4.27576 0
M  V30 3196 H 308.177 3.47228 5.0226 0
M  V30 3197 H 309.591 4.77995 3.16534 0
M  V30 3198 H 307.988 5.38276 2.6529 0
M  V30 3199 H 309.058 4.62387 1.46034 0
M  V30 3200 N 310.401 -0.613514 1.45168 0
M  V30 3201 C 311.311 -1.75296 1.55912 0
M  V30 3202 C 312.327 -1.68244 0.443856 0
M  V30 3203 O 313.503 -1.88706 0.70371 0
M  V30 3204 C 310.568 -3.1174 1.5172 0
M  V30 3205 C 309.629 -3.30291 2.74238 0
M  V30 3206 C 308.862 -4.60226 2.70236 0
M  V30 3207 O 309.085 -5.42168 1.77229 0
M  V30 3208 O 308.019 -4.81361 3.61352 0
M  V30 3209 H 311.845 -1.69183 2.52212 0
M  V30 3210 H 309.43 -0.776886 1.27612 0
M  V30 3211 H 311.312 -3.93044 1.51968 0
M  V30 3212 H 309.987 -3.18357 0.585697 0
M  V30 3213 H 308.894 -2.48598 2.79553 0
M  V30 3214 H 310.227 -3.28547 3.66494 0
M  V30 3215 N 311.879 -1.3236 -0.855495 0
M  V30 3216 C 312.811 -1.17052 -1.97057 0
M  V30 3217 C 313.824 -0.10574 -1.62456 0
M  V30 3218 O 315.013 -0.354619 -1.74942 0
M  V30 3219 C 312.113 -0.769305 -3.30053 0
M  V30 3220 C 311.286 -1.9222 -3.929 0
M  V30 3221 C 310.345 -1.50466 -5.04228 0
M  V30 3222 O 309.371 -2.21655 -5.24269 0
M  V30 3223 N 310.573 -0.400209 -5.79119 0
M  V30 3224 H 313.338 -2.13103 -2.1073 0
M  V30 3225 H 310.899 -1.24885 -1.0303 0
M  V30 3226 H 312.891 -0.472407 -4.01933 0
M  V30 3227 H 311.461 0.100025 -3.1244 0
M  V30 3228 H 310.681 -2.38563 -3.13817 0
M  V30 3229 H 311.969 -2.69403 -4.31624 0
M  V30 3230 H 311.367 0.192319 -5.65373 0
M  V30 3231 H 309.924 -0.162912 -6.51596 0
M  V30 3232 N 313.357 1.07166 -1.15556 0
M  V30 3233 C 314.597 1.81391 -0.94216 0
M  V30 3234 C 314.961 1.84788 0.521272 0
M  V30 3235 O 316.162 2.54904 0.85307 0
M  V30 3236 C 314.433 3.22431 -1.54185 0
M  V30 3237 S 315.992 4.13379 -1.47183 0
M  V30 3238 H 312.81 0.624963 -0.339031 0
M  V30 3239 H 315.412 1.28725 -1.4714 0
M  V30 3240 H 314.116 3.17548 -2.59984 0
M  V30 3241 H 313.647 3.80172 -1.01156 0
M  V30 3242 H 315.662 4.94007 -0.466004 0
M  V30 3243 N 314.835 0.952656 1.25548 0
M  V30 3244 C 316.081 0.607272 1.93494 0
M  V30 3245 C 316.414 -0.853245 1.74452 0
M  V30 3246 O 315.689 -1.61194 1.08843 0
M  V30 3247 C 315.972 0.96435 3.46947 0
M  V30 3248 C 315.825 2.48045 3.75225 0
M  V30 3249 C 317.144 0.487987 4.37386 0
M  V30 3250 H 314.263 0.222096 0.702739 0
M  V30 3251 H 316.905 1.18895 1.48203 0
M  V30 3252 H 315.055 0.469361 3.85654 0
M  V30 3253 H 316.727 3.04905 3.46166 0
M  V30 3254 H 314.97 2.919 3.209 0
M  V30 3255 H 315.641 2.6808 4.82532 0
M  V30 3256 H 318.117 0.912558 4.0597 0
M  V30 3257 H 316.993 0.766547 5.43521 0
M  V30 3258 H 317.254 -0.612063 4.37843 0
M  V30 3259 N 316.313 -1.40141 0.720998 0
M  V30 3260 C 317.724 -1.83678 0.334553 0
M  V30 3261 C 318.075 -1.6027 -1.13173 0
M  V30 3262 O 317.2 -1.08643 -1.87152 0
M  V30 3263 C 317.795 -3.33437 0.600437 0
M  V30 3264 C 316.354 -3.75447 0.267642 0
M  V30 3265 C 315.501 -2.63296 0.870097 0
M  V30 3266 H 318.452 -1.29331 0.919732 0
M  V30 3267 H 318.473 -3.80269 -0.132517 0
M  V30 3268 H 317.985 -3.50442 1.66768 0
M  V30 3269 H 316.086 -3.64035 -0.794329 0
M  V30 3270 H 316.199 -4.73344 0.74042 0
M  V30 3271 H 314.563 -2.52954 0.297739 0
M  V30 3272 H 315.346 -2.83112 1.94172 0
M  V30 3273 N 317.792 -0.46758 -1.50504 0
M  V30 3274 C 319.069 0.15003 -1.95024 0
M  V30 3275 C 319.449 1.57304 -1.40779 0
M  V30 3276 O 318.797 2.20281 -0.607319 0
M  V30 3277 C 319.007 0.0969324 -3.48865 0
M  V30 3278 C 320.355 0.287565 -4.23625 0
M  V30 3279 O 321.379 0.173678 -3.55776 0
M  V30 3280 O 320.238 0.517186 -5.44047 0
M  V30 3281 H 317.332 0.113582 -0.819163 0
M  V30 3282 H 319.878 -0.52773 -1.61286 0
M  V30 3283 H 318.65 -0.896732 -3.80886 0
M  V30 3284 H 318.273 0.816303 -3.8913 0
M  V30 3285 N 319.27 1.56325 -0.20005 0
M  V30 3286 C 320.686 1.58839 0.155716 0
M  V30 3287 C 320.886 1.21636 1.60645 0
M  V30 3288 O 319.942 0.941437 2.34293 0
M  V30 3289 C 321.255 3.0032 -0.151124 0
M  V30 3290 C 322.803 3.12866 -0.0916284 0
M  V30 3291 C 323.278 4.56488 -0.371845 0
M  V30 3292 N 324.769 4.62089 -0.320641 0
M  V30 3293 C 325.504 5.71116 -0.511243 0
M  V30 3294 N 325 6.88592 -0.762461 0
M  V30 3295 N 326.793 5.60335 -0.445157 0
M  V30 3296 H 318.944 1.78788 -1.14668 0
M  V30 3297 H 321.207 0.829996 -0.458051 0
M  V30 3298 H 320.913 3.32117 -1.15721 0
M  V30 3299 H 320.787 3.73257 0.543986 0
M  V30 3300 H 323.174 2.80878 0.905065 0
M  V30 3301 H 323.255 2.42304 -0.81989 0
M  V30 3302 H 322.899 4.89189 -1.36588 0
M  V30 3303 H 322.829 5.25246 0.377362 0
M  V30 3304 H 325.32 3.77665 -0.13329 0
M  V30 3305 H 325.633 7.67581 -0.896576 0
M  V30 3306 H 323.978 6.90387 -0.799412 0
M  V30 3307 H 327.169 4.67436 -0.249278 0
M  V30 3308 H 327.342 6.45243 -0.597116 0
M  V30 3309 N 320.748 -0.0735177 1.57428 0
M  V30 3310 C 321.996 -0.771472 1.86796 0
M  V30 3311 C 322.317 -1.78201 0.791804 0
M  V30 3312 O 321.587 -1.95074 -0.179718 0
M  V30 3313 H 320.167 -0.28791 0.689287 0
M  V30 3314 H 322.829 -0.0500161 1.94836 0
M  V30 3315 H 321.925 -1.28874 2.8425 0
M  V30 3316 N 322.226 -1.5378 -0.344866 0
M  V30 3317 C 323.158 -1.77988 -1.44406 0
M  V30 3318 C 324.171 -0.661138 -1.48771 0
M  V30 3319 O 325.36 -0.937842 -1.51877 0
M  V30 3320 C 322.46 -1.86345 -2.8307 0
M  V30 3321 C 321.633 -3.16256 -3.0216 0
M  V30 3322 C 320.692 -3.15588 -4.21059 0
M  V30 3323 O 319.718 -3.89314 -4.15239 0
M  V30 3324 N 320.92 -2.37864 -5.29529 0
M  V30 3325 H 323.685 -2.72839 -1.24012 0
M  V30 3326 H 321.246 -1.52814 -0.534737 0
M  V30 3327 H 323.238 -1.83351 -3.60783 0
M  V30 3328 H 321.808 -0.986858 -2.96614 0
M  V30 3329 H 321.028 -3.32385 -2.11929 0
M  V30 3330 H 322.316 -4.0207 -3.11797 0
M  V30 3331 H 321.714 -1.77514 -5.37127 0
M  V30 3332 H 320.271 -2.40668 -6.05741 0
M  V30 3333 N 323.704 0.605807 -1.45491 0
M  V30 3334 C 324.636 1.73031 -1.5031 0
M  V30 3335 C 325.649 1.57968 -0.393687 0
M  V30 3336 O 326.838 1.65817 -0.660839 0
M  V30 3337 C 323.938 3.11049 -1.34543 0
M  V30 3338 C 323.111 3.52334 -2.59189 0
M  V30 3339 C 322.17 4.69323 -2.37954 0
M  V30 3340 O 321.196 4.7635 -3.11575 0
M  V30 3341 N 322.398 5.62705 -1.4263 0
M  V30 3342 H 325.163 1.6936 -2.4726 0
M  V30 3343 H 322.724 0.79114 -1.41254 0
M  V30 3344 H 324.716 3.87071 -1.18144 0
M  V30 3345 H 323.286 3.09217 -0.458623 0
M  V30 3346 H 322.506 2.66256 -2.90691 0
M  V30 3347 H 323.794 3.76677 -3.42041 0
M  V30 3348 H 323.192 5.59744 -0.818758 0
M  V30 3349 H 321.749 6.38252 -1.32202 0
M  V30 3350 N 325.182 1.32811 0.848464 0
M  V30 3351 C 326.412 1.26556 1.63301 0
M  V30 3352 C 326.82 -0.1676 1.88456 0
M  V30 3353 O 326.163 -1.11713 1.45828 0
M  V30 3354 C 326.225 1.96202 3.01239 0
M  V30 3355 C 325.889 3.45528 2.99098 0
M  V30 3356 C 326.886 4.40903 2.75501 0
M  V30 3357 C 324.571 3.87558 3.19537 0
M  V30 3358 C 326.565 5.76282 2.72356 0
M  V30 3359 C 324.252 5.23044 3.16019 0
M  V30 3360 C 325.25 6.17217 2.92458 0
M  V30 3361 O 324.938 7.50223 2.88825 0
M  V30 3362 H 324.67 0.43771 0.515156 0
M  V30 3363 H 327.224 1.7559 1.0657 0
M  V30 3364 H 325.454 1.41746 3.59785 0
M  V30 3365 H 327.143 1.83573 3.62016 0
M  V30 3366 H 327.909 4.09756 2.5947 0
M  V30 3367 H 323.788 3.14674 3.369 0
M  V30 3368 H 327.332 6.4976 2.53886 0
M  V30 3369 H 323.229 5.53818 3.31596 0
M  V30 3370 H 323.997 7.59657 3.04735 0
M  V30 3371 N 326.66 -1.06551 1.16123 0
M  V30 3372 C 327.592 -2.13908 0.823171 0
M  V30 3373 C 328.605 -1.61926 -0.16843 0
M  V30 3374 O 329.794 -1.78412 0.055962 0
M  V30 3375 C 326.894 -3.38283 0.204424 0
M  V30 3376 C 326.067 -4.19589 1.23548 0
M  V30 3377 C 325.126 -5.2233 0.637011 0
M  V30 3378 O 324.152 -5.54034 1.30516 0
M  V30 3379 N 325.354 -5.77621 -0.577474 0
M  V30 3380 H 328.119 -2.43508 1.74711 0
M  V30 3381 H 325.68 -1.2253 1.05821 0
M  V30 3382 H 327.672 -4.0416 -0.208909 0
M  V30 3383 H 326.242 -3.06329 -0.623012 0
M  V30 3384 H 325.462 -3.49406 1.82507 0
M  V30 3385 H 326.75 -4.70718 1.93137 0
M  V30 3386 H 326.148 -5.54125 -1.13853 0
M  V30 3387 H 324.705 -6.45087 -0.933053 0
M  V30 3388 N 328.138 -0.959301 -1.25041 0
M  V30 3389 C 329.386 -0.615393 -1.92503 0
M  V30 3390 C 329.707 0.850969 -1.75452 0
M  V30 3391 O 328.977 1.60658 -1.12098 0
M  V30 3392 H 327.557 -0.224613 -0.712431 0
M  V30 3393 H 330.219 -1.21855 -1.5211 0
M  V30 3394 H 329.315 -0.848738 -3.00338 0
M  V30 3395 N 329.616 1.39756 -0.72842 0
M  V30 3396 C 331.032 1.5442 -0.403308 0
M  V30 3397 C 331.232 1.69694 1.08656 0
M  V30 3398 O 330.288 1.69373 1.87267 0
M  V30 3399 C 331.601 2.76555 -1.18058 0
M  V30 3400 C 333.149 2.90384 -1.16815 0
M  V30 3401 C 333.624 4.15449 -1.92785 0
M  V30 3402 N 335.115 4.22475 -1.89918 0
M  V30 3403 C 335.85 5.1818 -2.45514 0
M  V30 3404 N 335.346 6.19714 -3.09719 0
M  V30 3405 N 337.139 5.1035 -2.35584 0
M  V30 3406 H 329.29 1.28089 -1.69431 0
M  V30 3407 H 331.553 0.620327 -0.716867 0
M  V30 3408 H 331.259 2.7159 -2.23455 0
M  V30 3409 H 331.133 3.69033 -0.780662 0
M  V30 3410 H 333.52 2.94846 -0.12234 0
M  V30 3411 H 333.601 1.98988 -1.6074 0
M  V30 3412 H 333.245 4.11749 -2.97364 0
M  V30 3413 H 333.175 5.05877 -1.46272 0
M  V30 3414 H 335.666 3.49743 -1.43138 0
M  V30 3415 H 335.979 6.8919 -3.49625 0
M  V30 3416 H 334.324 6.20121 -3.13807 0
M  V30 3417 H 337.515 4.2996 -1.85072 0
M  V30 3418 H 337.688 5.84761 -2.79211 0
M  V30 3419 N 331.094 0.475555 1.50254 0
M  V30 3420 C 332.024 -0.30611 2.31485 0
M  V30 3421 C 333.005 -0.986228 1.38591 0
M  V30 3422 O 334.19 -0.982541 1.67511 0
M  V30 3423 C 331.32 -1.38588 3.1845 0
M  V30 3424 C 330.274 -0.827115 4.19932 0
M  V30 3425 C 329.6 -2.00551 4.95665 0
M  V30 3426 C 330.9 0.16463 5.2204 0
M  V30 3427 H 332.594 0.371866 2.97082 0
M  V30 3428 H 330.14 0.180282 1.42867 0
M  V30 3429 H 332.093 -1.94023 3.74076 0
M  V30 3430 H 330.817 -2.09269 2.50747 0
M  V30 3431 H 329.476 -0.294702 3.65414 0
M  V30 3432 H 329.124 -2.6994 4.2443 0
M  V30 3433 H 328.824 -1.63784 5.64313 0
M  V30 3434 H 330.348 -2.56468 5.54127 0
M  V30 3435 H 331.762 -0.300699 5.72511 0
M  V30 3436 H 330.159 0.446813 5.98434 0
M  V30 3437 H 331.229 1.08905 4.72512 0
M  V30 3438 N 332.573 -1.56217 0.208337 0
M  V30 3439 C 333.536 -2.18455 -0.693557 0
M  V30 3440 C 334.536 -1.14268 -1.13135 0
M  V30 3441 O 335.726 -1.39577 -1.0423 0
M  V30 3442 C 332.858 -2.79727 -1.94848 0
M  V30 3443 H 334.051 -2.99519 -0.15114 0
M  V30 3444 H 331.604 -1.56245 -0.041287 0
M  V30 3445 H 332.339 -2.02497 -2.53309 0
M  V30 3446 H 332.124 -3.56009 -1.64316 0
M  V30 3447 H 333.614 -3.27475 -2.59133 0
M  V30 3448 N 334.051 0.0651679 -1.57465 0
M  V30 3449 C 335.297 0.764193 -1.87851 0
M  V30 3450 C 335.63 1.76889 -0.801495 0
M  V30 3451 O 334.905 1.93594 0.187528 0
M  V30 3452 C 335.188 1.46625 -3.28897 0
M  V30 3453 C 335.041 0.477515 -4.47258 0
M  V30 3454 C 336.36 2.4095 -3.68281 0
M  V30 3455 H 333.479 0.276351 -0.683227 0
M  V30 3456 H 336.121 0.0272868 -1.8998 0
M  V30 3457 H 334.271 2.09438 -3.27212 0
M  V30 3458 H 335.943 -0.145922 -4.61069 0
M  V30 3459 H 334.186 -0.206576 -4.33308 0
M  V30 3460 H 334.857 1.0065 -5.42746 0
M  V30 3461 H 337.333 1.88209 -3.71102 0
M  V30 3462 H 336.209 2.87072 -4.67847 0
M  V30 3463 H 336.47 3.26049 -2.98571 0
M  V30 3464 N 335.529 1.53961 0.336706 0
M  V30 3465 C 336.757 1.75483 1.09605 0
M  V30 3466 C 337.172 0.4972 1.82136 0
M  V30 3467 O 336.529 -0.53149 1.74589 0
M  V30 3468 C 336.58 2.93943 2.10428 0
M  V30 3469 O 336.301 4.14842 1.40846 0
M  V30 3470 C 337.802 3.27571 2.98684 0
M  V30 3471 H 335.022 0.586166 0.326574 0
M  V30 3472 H 337.566 2.00808 0.38683 0
M  V30 3473 H 335.721 2.70929 2.76905 0
M  V30 3474 H 336.135 4.81383 2.08255 0
M  V30 3475 H 337.609 4.13791 3.6535 0
M  V30 3476 H 338.086 2.44168 3.65074 0
M  V30 3477 H 338.692 3.52615 2.37787 0
M  V30 3478 N 337.007 -0.598083 1.45811 0
M  V30 3479 C 338.235 -1.38322 1.53866 0
M  V30 3480 C 338.65 -1.87992 0.174479 0
M  V30 3481 O 338.007 -1.62756 -0.825627 0
M  V30 3482 C 338.058 -2.58125 2.53089 0
M  V30 3483 O 337.779 -2.10516 3.84206 0
M  V30 3484 C 339.28 -3.50869 2.70935 0
M  V30 3485 H 336.5 -0.423093 0.520801 0
M  V30 3486 H 339.044 -0.728527 1.91083 0
M  V30 3487 H 337.199 -3.19615 2.18917 0
M  V30 3488 H 337.613 -2.88425 4.38077 0
M  V30 3489 H 339.087 -4.31451 3.44317 0
M  V30 3490 H 339.564 -4.01822 1.77301 0
M  V30 3491 H 340.17 -2.95225 3.06141 0
M  V30 3492 N 338.485 -1.33259 -0.841409 0
M  V30 3493 C 339.435 -1.19872 -1.93945 0
M  V30 3494 C 340.419 -0.102269 -1.60575 0
M  V30 3495 O 341.611 -0.330114 -1.73894 0
M  V30 3496 C 338.74 -0.937517 -3.30251 0
M  V30 3497 C 337.826 -2.07629 -3.69799 0
M  V30 3498 N 338.217 -3.32604 -3.81062 0
M  V30 3499 C 336.515 -1.98242 -3.9952 0
M  V30 3500 C 337.216 -4.07275 -4.15333 0
M  V30 3501 N 336.192 -3.35691 -4.27566 0
M  V30 3502 H 339.994 -2.14604 -2.00805 0
M  V30 3503 H 337.508 -1.2523 -1.03398 0
M  V30 3504 H 339.505 -0.822545 -4.08705 0
M  V30 3505 H 338.165 0.00128798 -3.247 0
M  V30 3506 H 339.176 -3.67382 -3.65035 0
M  V30 3507 H 335.853 -1.12005 -4.02195 0
M  V30 3508 H 337.243 -5.1511 -4.31406 0
M  V30 3509 N 339.963 1.05934 -1.16686 0
M  V30 3510 C 341.211 1.78447 -0.948744 0
M  V30 3511 C 341.532 1.87813 0.524523 0
M  V30 3512 O 340.802 1.38945 1.38098 0
M  V30 3513 H 339.382 0.660971 -0.348033 0
M  V30 3514 H 342.044 1.27947 -1.47022 0
M  V30 3515 H 341.14 2.80394 -1.37061 0
M  V30 3516 N 341.441 0.965919 1.2453 0
M  V30 3517 C 342.371 0.513476 2.27784 0
M  V30 3518 C 343.352 -0.445974 1.6415 0
M  V30 3519 O 344.537 -0.342485 1.91156 0
M  V30 3520 C 341.667 -0.198839 3.4673 0
M  V30 3521 C 340.621 0.676456 4.2262 0
M  V30 3522 C 339.947 -0.167248 5.34438 0
M  V30 3523 C 341.247 1.96017 4.84123 0
M  V30 3524 H 342.941 1.3765 2.65881 0
M  V30 3525 H 340.487 0.663321 1.27813 0
M  V30 3526 H 342.44 -0.526567 4.18097 0
M  V30 3527 H 341.164 -1.0962 3.07654 0
M  V30 3528 H 339.823 0.98743 3.53052 0
M  V30 3529 H 339.471 -1.0647 4.91603 0
M  V30 3530 H 339.171 0.415181 5.86131 0
M  V30 3531 H 340.695 -0.489688 6.08633 0
M  V30 3532 H 342.109 1.69814 5.47573 0
M  V30 3533 H 340.506 2.48918 5.4604 0
M  V30 3534 H 341.576 2.65622 4.05676 0
M  V30 3535 N 342.919 -1.39368 0.735821 0
M  V30 3536 C 344.33 -1.83313 0.354015 0
M  V30 3537 C 344.681 -1.61461 -1.11466 0
M  V30 3538 O 343.806 -1.10621 -1.85989 0
M  V30 3539 C 344.401 -3.32781 0.635769 0
M  V30 3540 C 342.96 -3.75142 0.307448 0
M  V30 3541 C 342.107 -2.62358 0.897974 0
M  V30 3542 H 345.058 -1.28349 0.933398 0
M  V30 3543 H 345.079 -3.80388 -0.0921773 0
M  V30 3544 H 344.591 -3.48654 1.70476 0
M  V30 3545 H 342.692 -3.64857 -0.755674 0
M  V30 3546 H 342.805 -4.72532 0.790583 0
M  V30 3547 H 341.169 -2.52624 0.324551 0
M  V30 3548 H 341.952 -2.81036 1.97164 0
M  V30 3549 N 344.397 -0.483516 -1.5 0
M  V30 3550 C 345.637 0.0657469 -2.04294 0
M  V30 3551 C 346.001 1.35869 -1.35659 0
M  V30 3552 O 347.202 1.99111 -1.80578 0
M  V30 3553 C 345.473 0.232758 -3.56641 0
M  V30 3554 S 347.032 0.738788 -4.32536 0
M  V30 3555 H 343.85 0.0100755 -0.710929 0
M  V30 3556 H 346.452 -0.653494 -1.84254 0
M  V30 3557 H 345.156 -0.713847 -4.04144 0
M  V30 3558 H 344.687 0.977751 -3.81056 0
M  V30 3559 H 346.702 2.01048 -4.53645 0
M  V30 3560 N 345.875 1.56104 -0.216619 0
M  V30 3561 C 346.805 2.23063 0.690296 0
M  V30 3562 C 347.786 1.20072 1.20485 0
M  V30 3563 O 348.971 1.48643 1.24976 0
M  V30 3564 C 346.101 2.90672 1.90072 0
M  V30 3565 C 345.055 4.00092 1.5202 0
M  V30 3566 C 344.381 4.54972 2.80899 0
M  V30 3567 C 345.681 5.17398 0.71391 0
M  V30 3568 H 347.375 2.99109 0.132038 0
M  V30 3569 H 344.921 1.43866 0.0620664 0
M  V30 3570 H 346.874 3.36204 2.54057 0
M  V30 3571 H 345.598 2.12066 2.48386 0
M  V30 3572 H 344.257 3.55283 0.903839 0
M  V30 3573 H 343.905 3.73102 3.37348 0
M  V30 3574 H 343.605 5.28817 2.56176 0
M  V30 3575 H 345.129 5.0322 3.45836 0
M  V30 3576 H 346.543 5.59342 1.25735 0
M  V30 3577 H 344.94 5.97444 0.563951 0
M  V30 3578 H 346.01 4.84088 -0.280527 0
M  V30 3579 N 347.353 -0.0568162 1.57498 0
M  V30 3580 C 348.316 -1.05038 2.03715 0
M  V30 3581 C 349.316 -1.30709 0.936577 0
M  V30 3582 O 350.506 -1.26178 1.20103 0
M  V30 3583 C 347.638 -2.39034 2.43055 0
M  V30 3584 H 348.831 -0.651715 2.92733 0
M  V30 3585 H 346.384 -0.302947 1.53336 0
M  V30 3586 H 347.119 -2.83703 1.57108 0
M  V30 3587 H 346.904 -2.21739 3.2338 0
M  V30 3588 H 348.394 -3.10421 2.79336 0
M  V30 3589 N 348.832 -1.54138 -0.328536 0
M  V30 3590 C 350.078 -1.73297 -1.06488 0
M  V30 3591 C 350.433 -0.497958 -1.85844 0
M  V30 3592 O 349.726 0.509591 -1.84699 0
M  V30 3593 C 349.92 -2.9457 -2.02393 0
M  V30 3594 C 349.749 -4.29747 -1.32467 0
M  V30 3595 C 348.519 -4.93987 -1.06324 0
M  V30 3596 C 350.717 -5.08903 -0.743137 0
M  V30 3597 N 348.699 -6.13005 -0.331359 0
M  V30 3598 C 350.07 -6.19836 -0.142602 0
M  V30 3599 C 352.125 -4.93699 -0.64546 0
M  V30 3600 C 350.828 -7.17224 0.546125 0
M  V30 3601 C 352.854 -5.91393 0.0295558 0
M  V30 3602 C 352.216 -7.01674 0.619056 0
M  V30 3603 H 348.315 -0.687017 -0.373539 0
M  V30 3604 H 350.899 -1.91589 -0.346659 0
M  V30 3605 H 349.07 -2.77752 -2.71493 0
M  V30 3606 H 350.802 -3.0238 -2.68977 0
M  V30 3607 H 347.557 -4.53824 -1.35428 0
M  V30 3608 H 347.981 -6.76997 0.0202939 0
M  V30 3609 H 352.623 -4.08589 -1.08695 0
M  V30 3610 H 350.341 -8.01896 0.999459 0
M  V30 3611 H 353.927 -5.81706 0.104705 0
M  V30 3612 H 352.807 -7.75971 1.13309 0
M  V30 3613 N 350.31 0.590341 -1.46126 0
M  V30 3614 C 351.273 1.68194 -1.55703 0
M  V30 3615 C 352.273 1.54808 -0.434868 0
M  V30 3616 O 353.463 1.59564 -0.698928 0
M  V30 3617 C 350.595 3.07575 -1.47005 0
M  V30 3618 H 351.788 1.61064 -2.52979 0
M  V30 3619 H 349.341 0.807541 -1.33823 0
M  V30 3620 H 350.076 3.20268 -0.509785 0
M  V30 3621 H 349.861 3.187 -2.28414 0
M  V30 3622 H 351.351 3.87055 -1.56776 0
M  V30 3623 N 351.788 1.33704 0.83433 0
M  V30 3624 C 353.013 1.28615 1.62705 0
M  V30 3625 C 353.438 -0.139242 1.87584 0
M  V30 3626 O 352.796 -1.09734 1.4432 0
M  V30 3627 C 352.844 2.07139 2.95171 0
M  V30 3628 O 351.948 1.4331 3.86699 0
M  V30 3629 H 351.289 0.44226 0.49528 0
M  V30 3630 H 353.819 1.76335 1.03766 0
M  V30 3631 H 353.829 2.18073 3.44831 0
M  V30 3632 H 352.504 3.10779 2.76386 0
M  V30 3633 H 351.081 1.4105 3.45195 0
M  V30 3634 N 353.266 -1.05314 1.17247 0
M  V30 3635 C 354.229 -2.112 0.890357 0
M  V30 3636 C 355.229 -1.60359 -0.118943 0
M  V30 3637 O 356.419 -1.73833 0.113086 0
M  V30 3638 C 353.551 -3.39266 0.333422 0
M  V30 3639 H 354.744 -2.37659 1.82916 0
M  V30 3640 H 352.297 -1.21538 0.982758 0
M  V30 3641 H 353.032 -3.18462 -0.612587 0
M  V30 3642 H 352.817 -3.77477 1.06082 0
M  V30 3643 H 354.307 -4.17315 0.154322 0
M  V30 3644 N 354.744 -0.972509 -1.24016 0
M  V30 3645 C 355.676 -0.464375 -2.24446 0
M  V30 3646 C 356.689 0.4295 -1.57032 0
M  V30 3647 O 357.878 0.234902 -1.76948 0
M  V30 3648 C 354.978 0.348385 -3.37105 0
M  V30 3649 C 354.151 -0.53673 -4.34094 0
M  V30 3650 C 353.21 0.220838 -5.25736 0
M  V30 3651 O 352.236 -0.386867 -5.67884 0
M  V30 3652 N 353.438 1.50907 -5.60542 0
M  V30 3653 H 356.203 -1.32788 -2.68677 0
M  V30 3654 H 353.764 -0.844877 -1.38107 0
M  V30 3655 H 355.756 0.863341 -3.95384 0
M  V30 3656 H 354.326 1.11285 -2.92121 0
M  V30 3657 H 353.546 -1.23261 -3.74433 0
M  V30 3658 H 354.834 -1.14022 -4.95859 0
M  V30 3659 H 354.232 2.02444 -5.28236 0
M  V30 3660 H 352.789 1.96962 -6.21329 0
M  V30 3661 N 356.222 1.38976 -0.743202 0
M  V30 3662 C 357.185 2.28901 -0.117014 0
M  V30 3663 C 358.185 1.46698 0.658503 0
M  V30 3664 O 359.375 1.67274 0.486305 0
M  V30 3665 C 356.507 3.30309 0.84315 0
M  V30 3666 H 357.7 2.8578 -0.909373 0
M  V30 3667 H 355.253 1.47761 -0.509547 0
M  V30 3668 H 355.988 2.785 1.66157 0
M  V30 3669 H 355.773 3.91029 0.289594 0
M  V30 3670 H 357.263 3.97577 1.2776 0
M  V30 3671 N 357.7 0.491464 1.49741 0
M  V30 3672 C 358.647 -0.292027 2.28945 0
M  V30 3673 C 359.617 -0.968973 1.34908 0
M  V30 3674 O 360.802 -0.97748 1.6386 0
M  V30 3675 C 357.942 -1.35617 3.17336 0
M  V30 3676 C 357.055 -0.691957 4.26422 0
M  V30 3677 C 356.19 -1.73572 5.02042 0
M  V30 3678 C 355.229 -1.05286 6.02977 0
M  V30 3679 N 354.366 -2.0404 6.71798 0
M  V30 3680 H 359.206 0.389654 2.95442 0
M  V30 3681 H 356.743 0.204003 1.45679 0
M  V30 3682 H 358.701 -1.98502 3.66951 0
M  V30 3683 H 357.331 -2.00674 2.52844 0
M  V30 3684 H 356.383 0.0499523 3.80367 0
M  V30 3685 H 357.695 -0.153946 4.98562 0
M  V30 3686 H 356.849 -2.43987 5.55478 0
M  V30 3687 H 355.588 -2.30757 4.29654 0
M  V30 3688 H 354.593 -0.334446 5.48782 0
M  V30 3689 H 355.818 -0.487636 6.77347 0
M  V30 3690 H 353.764 -2.60205 6.02187 0
M  V30 3691 H 353.681 -1.55279 7.39881 0
M  V30 3692 H 354.949 -2.73772 7.29842 0
M  V30 3693 N 359.178 -1.55987 0.224894 0
M  V30 3694 C 360.141 -2.19178 -0.670348 0
M  V30 3695 C 361.141 -1.15461 -1.11917 0
M  V30 3696 O 362.331 -1.40675 -1.02743 0
M  V30 3697 C 359.463 -2.81777 -1.9187 0
M  V30 3698 H 360.656 -2.99662 -0.119364 0
M  V30 3699 H 358.209 -1.5628 -0.0247128 0
M  V30 3700 H 358.944 -2.05172 -2.51147 0
M  V30 3701 H 358.729 -3.57732 -1.60531 0
M  V30 3702 H 360.219 -3.30205 -2.55645 0
M  V30 3703 N 360.656 0.0484629 -1.57525 0
M  V30 3704 C 361.586 1.0549 -2.08313 0
M  V30 3705 C 362.567 1.38929 -0.981463 0
M  V30 3706 O 363.752 1.48151 -1.25558 0
M  V30 3707 C 360.882 2.36162 -2.54646 0
M  V30 3708 C 359.836 2.17016 -3.68901 0
M  V30 3709 C 359.162 3.53278 -4.01371 0
M  V30 3710 C 360.462 1.57219 -4.98076 0
M  V30 3711 H 362.156 0.632195 -2.92649 0
M  V30 3712 H 359.702 0.302654 -1.40784 0
M  V30 3713 H 361.655 3.06882 -2.88793 0
M  V30 3714 H 360.379 2.80456 -1.67368 0
M  V30 3715 H 359.038 1.48733 -3.35073 0
M  V30 3716 H 358.686 3.95185 -3.11188 0
M  V30 3717 H 358.386 3.41299 -4.78318 0
M  V30 3718 H 359.91 4.25391 -4.38035 0
M  V30 3719 H 361.324 2.17832 -5.30304 0
M  V30 3720 H 359.721 1.55871 -5.79503 0
M  V30 3721 H 360.791 0.535956 -4.81929 0
M  V30 3722 N 362.134 1.5431 0.320358 0
M  V30 3723 C 363.359 1.76954 1.08175 0
M  V30 3724 C 363.784 0.518193 1.80821 0
M  V30 3725 O 363.142 -0.530411 1.73368 0
M  V30 3726 C 363.19 2.96451 2.05303 0
M  V30 3727 O 362.294 2.68221 3.13259 0
M  V30 3728 H 361.635 0.586275 0.311733 0
M  V30 3729 H 364.165 2.01342 0.363676 0
M  V30 3730 H 364.175 3.23887 2.48116 0
M  V30 3731 H 362.85 3.87196 1.51829 0
M  V30 3732 H 361.427 2.51744 2.75099 0
M  V30 3733 N 363.613 -0.582584 1.46437 0
M  V30 3734 C 364.56 -1.69164 1.5701 0
M  V30 3735 C 365.53 -1.60847 0.414403 0
M  V30 3736 O 366.715 -1.80058 0.631171 0
M  V30 3737 C 363.855 -3.075 1.56646 0
M  V30 3738 C 362.968 -3.2644 2.82951 0
M  V30 3739 C 362.103 -4.55026 2.7409 0
M  V30 3740 C 361.142 -4.6731 3.95333 0
M  V30 3741 N 360.279 -5.87221 3.84858 0
M  V30 3742 H 365.119 -1.59464 2.51744 0
M  V30 3743 H 362.656 -0.777186 1.24893 0
M  V30 3744 H 364.614 -3.8757 1.5442 0
M  V30 3745 H 363.244 -3.16096 0.654439 0
M  V30 3746 H 362.296 -2.39974 2.95155 0
M  V30 3747 H 363.608 -3.31385 3.72808 0
M  V30 3748 H 362.762 -5.43324 2.6997 0
M  V30 3749 H 361.501 -4.52519 1.81873 0
M  V30 3750 H 360.506 -3.77429 3.99784 0
M  V30 3751 H 361.731 -4.71595 4.88646 0
M  V30 3752 H 359.677 -5.85712 2.95427 0
M  V30 3753 H 359.594 -5.93435 4.6837 0
M  V30 3754 H 360.862 -6.7795 3.84713 0
M  V30 3755 N 365.091 -1.34144 -0.827227 0
M  V30 3756 C 366.041 -1.21923 -1.92663 0
M  V30 3757 C 367.025 -0.119294 -1.60457 0
M  V30 3758 O 368.217 -0.348539 -1.73534 0
M  V30 3759 C 365.346 -0.972492 -3.29238 0
M  V30 3760 C 364.432 -2.1154 -3.67576 0
M  V30 3761 N 364.823 -3.36627 -3.77512 0
M  V30 3762 C 363.121 -2.02468 -3.97395 0
M  V30 3763 C 363.822 -4.11658 -4.1099 0
M  V30 3764 N 362.798 -3.40207 -4.23981 0
M  V30 3765 H 366.6 -2.16721 -1.98517 0
M  V30 3766 H 364.114 -1.2632 -1.02064 0
M  V30 3767 H 366.111 -0.865847 -4.0781 0
M  V30 3768 H 364.771 -0.0331509 -3.24683 0
M  V30 3769 H 365.782 -3.71234 -3.61118 0
M  V30 3770 H 362.459 -1.16265 -4.00985 0
M  V30 3771 H 363.849 -5.19657 -4.25918 0
M  V30 3772 N 366.569 1.04691 -1.17803 0
M  V30 3773 C 367.501 2.12571 -0.857097 0
M  V30 3774 C 368.514 1.62174 0.142647 0
M  V30 3775 O 369.703 1.78301 -0.0843387 0
M  V30 3776 C 366.803 3.37915 -0.258216 0
M  V30 3777 C 365.976 4.1757 -1.30207 0
M  V30 3778 C 365.035 5.2125 -0.720029 0
M  V30 3779 O 364.061 5.51888 -1.39314 0
M  V30 3780 N 365.263 5.78466 0.485507 0
M  V30 3781 H 368.028 2.40698 -1.78562 0
M  V30 3782 H 365.589 1.20831 -1.07757 0
M  V30 3783 H 367.581 4.04442 0.144584 0
M  V30 3784 H 366.151 3.07281 0.574199 0
M  V30 3785 H 365.371 3.46458 -1.88043 0
M  V30 3786 H 366.659 4.67586 -2.00601 0
M  V30 3787 H 366.057 5.55866 1.05022 0
M  V30 3788 H 364.614 6.4649 0.830307 0
M  V30 3789 N 368.047 0.979072 1.23499 0
M  V30 3790 C 369.324 0.563674 1.87302 0
M  V30 3791 C 369.704 -0.959199 1.88049 0
M  V30 3792 O 369.052 -1.83535 1.36114 0
M  V30 3793 C 369.262 1.16822 3.28867 0
M  V30 3794 C 370.61 1.26014 4.0547 0
M  V30 3795 O 371.634 1.12158 3.38082 0
M  V30 3796 O 370.493 1.48044 5.26066 0
M  V30 3797 H 367.587 0.189602 0.804972 0
M  V30 3798 H 370.133 1.07407 1.31384 0
M  V30 3799 H 368.905 2.21049 3.22883 0
M  V30 3800 H 368.528 0.642564 3.92373 0
M  V30 3801 N 369.525 -1.3858 0.750561 0
M  V30 3802 C 370.772 -2.00184 0.305373 0
M  V30 3803 C 371.1 -1.59575 -1.11203 0
M  V30 3804 O 370.355 -0.823236 -1.77542 0
M  V30 3805 C 370.654 -3.55455 0.372373 0
M  V30 3806 C 370.32 -4.15765 1.745 0
M  V30 3807 C 368.982 -4.31951 2.12065 0
M  V30 3808 C 371.334 -4.49067 2.64553 0
M  V30 3809 C 368.662 -4.78734 3.39162 0
M  V30 3810 C 371.014 -4.97265 3.91038 0
M  V30 3811 C 369.678 -5.11658 4.28676 0
M  V30 3812 H 368.948 -0.732526 0.111744 0
M  V30 3813 H 371.595 -1.65673 0.960451 0
M  V30 3814 H 369.9 -3.90084 -0.366272 0
M  V30 3815 H 371.597 -4.00999 0.00953918 0
M  V30 3816 H 368.187 -4.03579 1.44297 0
M  V30 3817 H 372.371 -4.36166 2.36796 0
M  V30 3818 H 367.627 -4.88062 3.68246 0
M  V30 3819 H 371.801 -5.22003 4.60962 0
M  V30 3820 H 369.428 -5.47668 5.27222 0
M  V30 3821 N 371.003 -0.499398 -1.49478 0
M  V30 3822 C 371.951 0.293604 -2.3074 0
M  V30 3823 C 372.945 0.96427 -1.39277 0
M  V30 3824 O 374.151 0.892141 -1.56336 0
M  V30 3825 H 370.526 0.113541 -0.743379 0
M  V30 3826 H 372.497 -0.411772 -2.95545 0
M  V30 3827 C 371.246 1.3462 -3.20582 0
M  V30 3828 H 370.569 0.83954 -3.90886 0
M  V30 3829 H 372.009 1.87308 -3.80384 0
M  V30 3830 C 370.468 2.36351 -2.40083 0
M  V30 3831 O 370.998 3.422 -2.10385 0
M  V30 3832 N 369.204 2.0878 -2.02137 0
M  V30 3833 H 368.751 1.22723 -2.26488 0
M  V30 3834 H 368.709 2.77075 -1.48583 0
M  V30 3835 N 372.481 1.55866 -0.233164 0
M  V30 3836 C 373.706 2.03449 0.402906 0
M  V30 3837 C 374.131 1.11166 1.51736 0
M  V30 3838 O 373.489 0.101996 1.81013 0
M  V30 3839 C 373.537 3.49165 0.9009 0
M  V30 3840 O 372.641 3.60019 2.01147 0
M  V30 3841 H 371.982 0.657913 0.0897025 0
M  V30 3842 H 374.512 2.01493 -0.355201 0
M  V30 3843 H 374.522 3.89716 1.2077 0
M  V30 3844 H 373.197 4.15813 0.0852889 0
M  V30 3845 H 371.774 3.3136 1.71042 0
M  V30 3846 N 373.959 -0.0401083 1.57549 0
M  V30 3847 C 374.922 -1.02871 2.04817 0
M  V30 3848 C 375.922 -1.29708 0.950388 0
M  V30 3849 O 377.112 -1.24897 1.21435 0
M  V30 3850 C 374.244 -2.36443 2.45576 0
M  V30 3851 H 375.437 -0.620631 2.93408 0
M  V30 3852 H 372.99 -0.286667 1.53649 0
M  V30 3853 H 373.725 -2.82021 1.60108 0
M  V30 3854 H 373.51 -2.18296 3.25713 0
M  V30 3855 H 375 -3.07441 2.82612 0
M  V30 3856 N 375.437 -1.54477 -0.31217 0
M  V30 3857 C 376.683 -1.73483 -1.0503 0
M  V30 3858 C 377.016 -0.513125 -1.87298 0
M  V30 3859 O 376.291 0.489864 -1.8823 0
M  V30 3860 C 376.574 -3.01723 -1.96558 0
M  V30 3861 C 376.427 -4.3417 -1.17545 0
M  V30 3862 C 377.746 -3.25772 -2.95907 0
M  V30 3863 H 374.865 -0.631222 -0.380432 0
M  V30 3864 H 377.507 -1.87184 -0.325932 0
M  V30 3865 H 375.657 -2.90174 -2.58324 0
M  V30 3866 H 377.329 -4.5762 -0.581513 0
M  V30 3867 H 375.572 -4.31159 -0.477925 0
M  V30 3868 H 376.243 -5.20143 -1.84811 0
M  V30 3869 H 378.719 -3.36857 -2.44267 0
M  V30 3870 H 377.595 -4.16838 -3.57123 0
M  V30 3871 H 377.856 -2.43537 -3.68974 0
M  V30 3872 N 376.915 0.57481 -1.46744 0
M  V30 3873 C 377.847 1.69804 -1.53946 0
M  V30 3874 C 378.86 1.57098 -0.427106 0
M  V30 3875 O 380.049 1.64378 -0.695863 0
M  V30 3876 C 377.149 3.08125 -1.4111 0
M  V30 3877 C 376.322 3.46757 -2.66605 0
M  V30 3878 C 375.381 4.6417 -2.47855 0
M  V30 3879 O 374.407 4.69634 -3.21609 0
M  V30 3880 N 375.609 5.59553 -1.54534 0
M  V30 3881 H 378.374 1.64077 -2.50796 0
M  V30 3882 H 375.935 0.761 -1.429 0
M  V30 3883 H 377.927 3.84478 -1.26328 0
M  V30 3884 H 376.497 3.08175 -0.524109 0
M  V30 3885 H 375.717 2.6003 -2.96274 0
M  V30 3886 H 377.005 3.69337 -3.49954 0
M  V30 3887 H 376.403 5.57881 -0.937304 0
M  V30 3888 H 374.96 6.35304 -1.45711 0
M  V30 3889 N 378.394 1.34581 0.820102 0
M  V30 3890 C 379.324 1.29038 1.94606 0
M  V30 3891 C 380.305 0.1673 1.69275 0
M  V30 3892 O 381.49 0.360112 1.90832 0
M  V30 3893 C 378.62 1.04793 3.31113 0
M  V30 3894 C 377.574 2.13597 3.70891 0
M  V30 3895 C 376.9 1.74537 5.05412 0
M  V30 3896 C 378.2 3.55451 3.8269 0
M  V30 3897 H 379.894 2.23248 1.99501 0
M  V30 3898 H 377.44 1.0747 0.958449 0
M  V30 3899 H 379.393 0.995592 4.0947 0
M  V30 3900 H 378.117 0.0702565 3.26524 0
M  V30 3901 H 376.776 2.17905 2.9481 0
M  V30 3902 H 376.424 0.754226 4.97313 0
M  V30 3903 H 376.124 2.47361 5.32997 0
M  V30 3904 H 377.648 1.70803 5.86224 0
M  V30 3905 H 379.062 3.5354 4.51312 0
M  V30 3906 H 377.459 4.26922 4.21732 0
M  V30 3907 H 378.529 3.92587 2.84611 0
M  V30 3908 N 379.872 -1.04064 1.18357 0
M  V30 3909 C 381.118 -1.77528 0.980397 0
M  V30 3910 C 381.451 -1.87948 -0.48879 0
M  V30 3911 O 380.726 -1.3876 -1.36293 0
M  V30 3912 C 381.009 -3.20797 1.63588 0
M  V30 3913 C 380.862 -3.1832 3.17793 0
M  V30 3914 C 382.181 -4.18911 1.34914 0
M  V30 3915 H 379.3 -0.644443 0.357578 0
M  V30 3916 H 381.942 -1.2156 1.46024 0
M  V30 3917 H 380.092 -3.68586 1.22788 0
M  V30 3918 H 381.764 -2.78521 3.67728 0
M  V30 3919 H 380.007 -2.56351 3.49952 0
M  V30 3920 H 380.678 -4.19489 3.58794 0
M  V30 3921 H 383.154 -3.7967 1.70265 0
M  V30 3922 H 382.03 -5.17374 1.83346 0
M  V30 3923 H 382.291 -4.41262 0.272027 0
M  V30 3924 N 381.35 -0.985608 -1.22978 0
M  V30 3925 C 382.26 -0.538548 -2.28335 0
M  V30 3926 C 383.276 0.409163 -1.69121 0
M  V30 3927 O 384.452 0.277797 -1.99475 0
M  V30 3928 C 381.517 0.146867 -3.46389 0
M  V30 3929 C 380.578 -0.842896 -4.20944 0
M  V30 3930 C 379.811 -0.190095 -5.33361 0
M  V30 3931 O 380.034 1.01767 -5.61248 0
M  V30 3932 O 378.968 -0.891289 -5.95264 0
M  V30 3933 H 382.794 -1.41487 -2.68729 0
M  V30 3934 H 380.379 -0.753495 -1.29007 0
M  V30 3935 H 382.261 0.531125 -4.1804 0
M  V30 3936 H 380.936 0.997871 -3.07935 0
M  V30 3937 H 379.843 -1.27795 -3.51595 0
M  V30 3938 H 381.176 -1.66287 -4.6326 0
M  V30 3939 N 382.828 1.3818 -0.7579 0
M  V30 3940 C 383.776 2.32277 -0.122482 0
M  V30 3941 C 384.77 1.54238 0.700505 0
M  V30 3942 O 385.976 1.69737 0.599119 0
M  V30 3943 H 382.351 0.751712 -0.0208143 0
M  V30 3944 H 384.322 2.83469 -0.932099 0
M  V30 3945 C 383.071 3.39447 0.753076 0
M  V30 3946 H 382.394 3.99591 0.129184 0
M  V30 3947 H 383.834 4.07684 1.16489 0
M  V30 3948 C 382.293 2.78375 1.8976 0
M  V30 3949 O 382.823 2.68025 2.99208 0
M  V30 3950 N 381.029 2.36121 1.69397 0
M  V30 3951 H 380.576 2.4474 0.803762 0
M  V30 3952 H 380.534 1.95602 2.46145 0
M  V30 3953 N 384.306 0.507319 1.49211 0
M  V30 3954 C 385.553 -0.0349529 2.0247 0
M  V30 3955 C 385.881 -1.36409 1.38647 0
M  V30 3956 O 385.136 -1.88841 0.513566 0
M  V30 3957 C 385.435 -0.229513 3.56662 0
M  V30 3958 C 385.101 1.02241 4.39156 0
M  V30 3959 C 383.763 1.36557 4.61417 0
M  V30 3960 C 386.115 1.85428 4.871 0
M  V30 3961 C 383.443 2.53999 5.28868 0
M  V30 3962 C 385.795 3.02028 5.55843 0
M  V30 3963 C 384.459 3.36717 5.76349 0
M  V30 3964 H 383.729 -0.0127902 0.74089 0
M  V30 3965 H 386.376 0.668756 1.79443 0
M  V30 3966 H 384.681 -1.0158 3.78403 0
M  V30 3967 H 386.378 -0.663641 3.9547 0
M  V30 3968 H 382.968 0.745124 4.22073 0
M  V30 3969 H 387.152 1.6023 4.69723 0
M  V30 3970 H 382.408 2.81105 5.42946 0
M  V30 3971 H 386.582 3.66808 5.91967 0
M  V30 3972 H 384.209 4.27821 6.28389 0
M  V30 3973 N 385.784 -1.5574 0.241426 0
M  V30 3974 C 387.024 -2.00714 -0.38644 0
M  V30 3975 C 387.388 -1.12586 -1.55526 0
M  V30 3976 O 388.589 -1.46992 -2.25048 0
M  V30 3977 C 386.86 -3.48534 -0.791128 0
M  V30 3978 S 388.419 -4.15519 -1.41029 0
M  V30 3979 H 385.237 -0.700484 -0.121834 0
M  V30 3980 H 387.839 -1.92243 0.355377 0
M  V30 3981 H 386.543 -4.10342 0.0689225 0
M  V30 3982 H 386.074 -3.6092 -1.56526 0
M  V30 3983 H 388.089 -4.16352 -2.69936 0
M  V30 3984 N 387.262 0.0317525 -1.57568 0
M  V30 3985 C 388.678 0.38735 -1.54828 0
M  V30 3986 C 388.878 1.7677 -0.967187 0
M  V30 3987 O 387.934 2.45581 -0.587063 0
M  V30 3988 C 389.247 0.291667 -2.99282 0
M  V30 3989 C 390.795 0.368946 -3.10818 0
M  V30 3990 C 391.27 0.302741 -4.56998 0
M  V30 3991 N 392.761 0.361617 -4.61786 0
M  V30 3992 C 393.496 0.333238 -5.72431 0
M  V30 3993 N 392.992 0.257308 -6.92322 0
M  V30 3994 N 394.785 0.382769 -5.60795 0
M  V30 3995 H 386.936 -0.871609 -1.93692 0
M  V30 3996 H 389.199 -0.331161 -0.888277 0
M  V30 3997 H 388.905 -0.656794 -3.45513 0
M  V30 3998 H 388.779 1.08638 -3.61217 0
M  V30 3999 H 391.166 1.30784 -2.64536 0
M  V30 4000 H 391.247 -0.455066 -2.5172 0
M  V30 4001 H 390.891 -0.632473 -5.03947 0
M  V30 4002 H 390.821 1.14482 -5.14005 0
M  V30 4003 H 393.312 0.422923 -3.75526 0
M  V30 4004 H 393.625 0.24068 -7.72425 0
M  V30 4005 H 391.97 0.223396 -6.94641 0
M  V30 4006 H 395.161 0.44006 -4.66027 0
M  V30 4007 H 395.334 0.357184 -6.47015 0
M  V30 4008 N 388.74 1.54641 0.303973 0
M  V30 4009 C 389.688 1.86137 1.39484 0
M  V30 4010 C 390.682 0.734854 1.52631 0
M  V30 4011 O 391.888 0.918803 1.54784 0
M  V30 4012 H 388.263 0.590324 0.465856 0
M  V30 4013 H 390.234 2.77324 1.10154 0
M  V30 4014 C 388.983 2.12274 2.75382 0
M  V30 4015 H 388.306 2.98429 2.66046 0
M  V30 4016 H 389.746 2.38254 3.5073 0
M  V30 4017 C 388.205 0.920365 3.24085 0
M  V30 4018 O 388.735 0.139377 4.01458 0
M  V30 4019 N 386.941 0.726566 2.81371 0
M  V30 4020 H 386.488 1.36332 2.18567 0
M  V30 4021 H 386.446 -0.0763799 3.14307 0
M  V30 4022 N 390.218 -0.567019 1.47046 0
M  V30 4023 C 391.629 -1.14916 1.47143 0
M  V30 4024 C 391.98 -1.94954 0.220767 0
M  V30 4025 O 391.105 -2.05602 -0.67505 0
M  V30 4026 C 391.7 -2.09069 2.666 0
M  V30 4027 C 390.259 -2.62575 2.69687 0
M  V30 4028 C 389.406 -1.38755 2.40088 0
M  V30 4029 H 392.357 -0.354126 1.54699 0
M  V30 4030 H 392.378 -2.92789 2.43011 0
M  V30 4031 H 391.89 -1.50789 3.57609 0
M  V30 4032 H 389.991 -3.24681 1.82792 0
M  V30 4033 H 390.104 -3.04239 3.70102 0
M  V30 4034 H 388.468 -1.69098 1.90468 0
M  V30 4035 H 389.251 -0.822822 3.33293 0
M  V30 4036 N 391.696 -1.35014 -0.812953 0
M  V30 4037 C 392.973 -1.18502 -1.55617 0
M  V30 4038 C 393.353 0.238421 -2.09749 0
M  V30 4039 O 392.701 1.2411 -1.91857 0
M  V30 4040 C 392.911 -2.24783 -2.66971 0
M  V30 4041 C 394.259 -2.60268 -3.35478 0
M  V30 4042 O 395.283 -2.23648 -2.77236 0
M  V30 4043 O 394.142 -3.2321 -4.40678 0
M  V30 4044 H 391.236 -0.459984 -0.687272 0
M  V30 4045 H 393.782 -1.46677 -0.853464 0
M  V30 4046 H 392.554 -3.20284 -2.24798 0
M  V30 4047 H 392.177 -1.97841 -3.44884 0
M  V30 4048 N 393.175 1.03435 -1.18907 0
M  V30 4049 C 394.423 1.76394 -0.986382 0
M  V30 4050 C 394.744 1.88883 0.484567 0
M  V30 4051 O 394.014 1.41843 1.3512 0
M  V30 4052 H 392.594 0.65344 -0.361975 0
M  V30 4053 H 395.256 1.248 -1.49703 0
M  V30 4054 H 394.352 2.77424 -1.42978 0
M  V30 4055 N 394.653 0.992116 1.22453 0
M  V30 4056 C 395.93 0.583508 1.86694 0
M  V30 4057 C 396.31 -0.9392 1.89056 0
M  V30 4058 O 395.658 -1.82081 1.38053 0
M  V30 4059 C 395.868 1.20304 3.2761 0
M  V30 4060 C 397.216 1.30308 4.0411 0
M  V30 4061 O 398.24 1.15737 3.36873 0
M  V30 4062 O 397.099 1.53615 5.24466 0
M  V30 4063 H 394.193 0.198129 0.802916 0
M  V30 4064 H 396.739 1.08794 1.30238 0
M  V30 4065 H 395.511 2.24461 3.2052 0
M  V30 4066 H 395.134 0.684144 3.9167 0
M  V30 4067 N 396.131 -1.37776 0.765217 0
M  V30 4068 C 397.041 -2.34135 0.147666 0
M  V30 4069 C 398.057 -1.59854 -0.687215 0
M  V30 4070 O 399.233 -1.91983 -0.608659 0
M  V30 4071 C 396.298 -3.3901 -0.72617 0
M  V30 4072 C 395.359 -4.2912 0.124417 0
M  V30 4073 C 394.592 -5.28986 -0.707807 0
M  V30 4074 O 394.815 -5.36205 -1.94525 0
M  V30 4075 O 393.749 -6.01779 -0.12046 0
M  V30 4076 H 397.575 -2.88664 0.943758 0
M  V30 4077 H 395.16 -1.39824 0.526277 0
M  V30 4078 H 397.042 -4.03195 -1.22524 0
M  V30 4079 H 395.717 -2.86819 -1.50056 0
M  V30 4080 H 394.624 -3.68057 0.669696 0
M  V30 4081 H 395.957 -4.84598 0.861736 0
M  V30 4082 N 397.609 -0.515225 -1.4894 0
M  V30 4083 C 398.519 0.259774 -2.33157 0
M  V30 4084 C 399.535 0.953501 -1.45548 0
M  V30 4085 O 400.711 0.931735 -1.78552 0
M  V30 4086 C 397.776 1.30193 -3.21326 0
M  V30 4087 C 396.837 0.620129 -4.24797 0
M  V30 4088 C 396.07 1.61263 -5.08753 0
M  V30 4089 O 396.293 2.84389 -4.94448 0
M  V30 4090 O 395.227 1.16013 -5.90614 0
M  V30 4091 H 399.053 -0.429932 -3.00641 0
M  V30 4092 H 396.638 -0.276346 -1.46822 0
M  V30 4093 H 398.52 1.90455 -3.75905 0
M  V30 4094 H 397.195 1.97431 -2.56521 0
M  V30 4095 H 396.102 -0.0226019 -3.74093 0
M  V30 4096 H 397.435 -0.0100493 -4.92199 0
M  V30 4097 N 399.087 1.5561 -0.249682 0
M  V30 4098 C 400.335 1.98618 0.373548 0
M  V30 4099 C 400.656 1.13919 1.58264 0
M  V30 4100 O 399.926 0.222637 1.94631 0
M  V30 4101 H 398.506 0.733571 0.141006 0
M  V30 4102 H 401.168 1.91748 -0.349117 0
M  V30 4103 H 400.264 3.04584 0.680796 0
M  V30 4104 N 400.565 -0.0233959 1.57583 0
M  V30 4105 C 401.811 -0.714119 1.89811 0
M  V30 4106 C 402.144 -1.74702 0.848113 0
M  V30 4107 O 401.419 -1.94023 -0.136135 0
M  V30 4108 C 401.702 -1.37853 3.32669 0
M  V30 4109 C 401.555 -0.358764 4.48367 0
M  V30 4110 C 402.874 -2.31101 3.7454 0
M  V30 4111 H 399.993 -0.25814 0.690314 0
M  V30 4112 H 402.635 0.0230927 1.89986 0
M  V30 4113 H 400.785 -2.00689 3.3265 0
M  V30 4114 H 402.457 0.268115 4.6052 0
M  V30 4115 H 400.7 0.321387 4.32608 0
M  V30 4116 H 401.371 -0.862242 5.45224 0
M  V30 4117 H 403.847 -1.78304 3.75961 0
M  V30 4118 H 402.723 -2.74567 4.75294 0
M  V30 4119 H 402.984 -3.18018 3.0711 0
M  V30 4120 N 402.043 -1.548 -0.295768 0
M  V30 4121 C 403.289 -1.75517 -1.02789 0
M  V30 4122 C 403.644 -0.537266 -1.84746 0
M  V30 4123 O 402.937 0.470299 -1.85738 0
M  V30 4124 C 403.131 -2.98797 -1.961 0
M  V30 4125 C 402.96 -4.3246 -1.23321 0
M  V30 4126 C 401.73 -4.96131 -0.95822 0
M  V30 4127 C 403.928 -5.10365 -0.635024 0
M  V30 4128 N 401.91 -6.1357 -0.201257 0
M  V30 4129 C 403.281 -6.19999 -0.0110937 0
M  V30 4130 C 405.336 -4.94957 -0.540594 0
M  V30 4131 C 404.039 -7.15904 0.698136 0
M  V30 4132 C 406.065 -5.91197 0.154992 0
M  V30 4133 C 405.427 -7.00203 0.767752 0
M  V30 4134 H 401.526 -0.694786 -0.358882 0
M  V30 4135 H 404.11 -1.92281 -0.305943 0
M  V30 4136 H 402.281 -2.83448 -2.6554 0
M  V30 4137 H 404.013 -3.08017 -2.62502 0
M  V30 4138 H 400.768 -4.56595 -1.25771 0
M  V30 4139 H 401.192 -6.76802 0.16389 0
M  V30 4140 H 405.834 -4.10803 -1.00003 0
M  V30 4141 H 403.552 -7.99595 1.16933 0
M  V30 4142 H 407.138 -5.81353 0.228069 0
M  V30 4143 H 406.018 -7.73393 1.29743 0
M  V30 4144 N 403.521 0.559213 -1.47345 0
M  V30 4145 C 404.761 1.32728 -1.55444 0
M  V30 4146 C 405.125 1.90838 -0.210895 0
M  V30 4147 O 406.326 2.68282 -0.166719 0
M  V30 4148 C 404.597 2.4092 -2.63993 0
M  V30 4149 S 406.156 3.2784 -2.91661 0
M  V30 4150 H 402.974 0.451883 -0.548929 0
M  V30 4151 H 405.576 0.640404 -1.84714 0
M  V30 4152 H 404.28 1.9666 -3.60212 0
M  V30 4153 H 403.811 3.14351 -2.36531 0
M  V30 4154 H 405.826 4.40341 -2.28722 0
M  V30 4155 N 404.999 1.35443 0.805782 0
M  V30 4156 C 406.229 1.31687 1.59192 0
M  V30 4157 C 406.637 -0.10756 1.88894 0
M  V30 4158 O 405.98 -1.07017 1.49309 0
M  V30 4159 C 406.042 2.05686 2.94845 0
M  V30 4160 C 405.706 3.54868 2.87954 0
M  V30 4161 C 406.703 4.49444 2.61335 0
M  V30 4162 C 404.388 3.97528 3.07046 0
M  V30 4163 C 406.382 5.84655 2.53885 0
M  V30 4164 C 404.069 5.32833 2.99219 0
M  V30 4165 C 405.067 6.26209 2.72674 0
M  V30 4166 O 404.755 7.59032 2.64811 0
M  V30 4167 H 404.487 0.453878 0.50097 0
M  V30 4168 H 407.041 1.78892 1.0093 0
M  V30 4169 H 405.271 1.5312 3.55093 0
M  V30 4170 H 406.96 1.94998 3.55993 0
M  V30 4171 H 407.726 4.17804 2.46303 0
M  V30 4172 H 403.605 3.25233 3.26718 0
M  V30 4173 H 407.149 6.57508 2.33086 0
M  V30 4174 H 403.046 5.64087 3.13809 0
M  V30 4175 H 403.814 7.68967 2.80413 0
M  V30 4176 N 406.477 -1.02803 1.19454 0
M  V30 4177 C 407.723 -1.76478 0.999171 0
M  V30 4178 C 408.056 -1.88456 -0.468828 0
M  V30 4179 O 407.331 -1.40198 -1.34814 0
M  V30 4180 C 407.614 -3.19044 1.66981 0
M  V30 4181 C 407.467 -3.14932 3.21151 0
M  V30 4182 C 408.786 -4.17456 1.39349 0
M  V30 4183 H 405.905 -0.640614 0.364393 0
M  V30 4184 H 408.547 -1.20005 1.47305 0
M  V30 4185 H 406.697 -3.67263 1.2669 0
M  V30 4186 H 408.369 -2.74605 3.70661 0
M  V30 4187 H 406.612 -2.52625 3.52652 0
M  V30 4188 H 407.283 -4.1566 3.63223 0
M  V30 4189 H 409.759 -3.77842 1.74283 0
M  V30 4190 H 408.635 -5.154 1.88823 0
M  V30 4191 H 408.896 -4.40949 0.318813 0
M  V30 4192 N 407.956 -0.998596 -1.21925 0
M  V30 4193 C 408.919 -0.558679 -2.22287 0
M  V30 4194 C 409.919 0.361525 -1.56683 0
M  V30 4195 O 411.109 0.152695 -1.73529 0
M  V30 4196 C 408.241 0.18661 -3.40389 0
M  V30 4197 H 409.434 -1.4463 -2.62721 0
M  V30 4198 H 406.987 -0.786413 -1.35075 0
M  V30 4199 H 407.722 1.08996 -3.05435 0
M  V30 4200 H 407.507 -0.474188 -3.89222 0
M  V30 4201 H 408.997 0.482367 -4.14805 0
M  V30 4202 N 409.434 1.37368 -0.772513 0
M  V30 4203 C 410.682 1.99279 -0.336516 0
M  V30 4204 C 411.003 1.6163 1.09091 0
M  V30 4205 O 410.273 0.882109 1.74916 0
M  V30 4206 H 408.853 0.737063 -0.121435 0
M  V30 4207 H 411.515 1.67836 -0.990809 0
M  V30 4208 H 410.611 3.09332 -0.414763 0
M  V30 4209 N 410.912 0.523116 1.48665 0
M  V30 4210 C 411.859 -0.243398 2.29513 0
M  V30 4211 C 412.829 -0.940139 1.36933 0
M  V30 4212 O 414.014 -0.942503 1.65896 0
M  V30 4213 C 411.154 -1.28855 3.20141 0
M  V30 4214 C 410.267 -0.60135 4.27794 0
M  V30 4215 C 409.402 -1.62884 5.05611 0
M  V30 4216 C 408.441 -0.924726 6.05075 0
M  V30 4217 N 407.578 -1.89744 6.75975 0
M  V30 4218 H 412.418 0.452234 2.94549 0
M  V30 4219 H 409.955 0.234858 1.45213 0
M  V30 4220 H 411.913 -1.90674 3.71079 0
M  V30 4221 H 410.543 -1.95266 2.57043 0
M  V30 4222 H 409.595 0.130623 3.80176 0
M  V30 4223 H 410.907 -0.0481585 4.98777 0
M  V30 4224 H 410.061 -2.32149 5.60528 0
M  V30 4225 H 408.8 -2.21592 4.34452 0
M  V30 4226 H 407.805 -0.217966 5.49368 0
M  V30 4227 H 409.03 -0.343851 6.78229 0
M  V30 4228 H 406.976 -2.47373 6.07571 0
M  V30 4229 H 406.893 -1.3955 7.43009 0
M  V30 4230 H 408.161 -2.58229 7.35485 0
M  V30 4231 N 412.39 -1.55475 0.257931 0
M  V30 4232 C 413.801 -1.8511 -0.243135 0
M  V30 4233 C 414.152 -1.17986 -1.5676 0
M  V30 4234 O 413.277 -0.462102 -2.11409 0
M  V30 4235 C 413.872 -3.35826 -0.447929 0
M  V30 4236 C 412.431 -3.65647 -0.893245 0
M  V30 4237 C 411.578 -2.7729 0.0232965 0
M  V30 4238 H 414.529 -1.51261 0.480199 0
M  V30 4239 H 414.55 -3.58002 -1.28898 0
M  V30 4240 H 414.062 -3.84652 0.516196 0
M  V30 4241 H 412.163 -3.22308 -1.86945 0
M  V30 4242 H 412.276 -4.73312 -0.742469 0
M  V30 4243 H 410.64 -2.49942 -0.490021 0
M  V30 4244 H 411.423 -3.28926 0.982994 0
M  V30 4245 N 413.868 0.0150385 -1.57593 0
M  V30 4246 C 415.116 0.701613 -1.8953 0
M  V30 4247 C 415.437 1.75139 -0.857396 0
M  V30 4248 O 414.707 1.95607 0.107194 0
M  V30 4249 H 413.287 0.26213 -0.699498 0
M  V30 4250 H 415.949 -0.0223304 -1.94887 0
M  V30 4251 H 415.045 1.18236 -2.88837 0
M  V30 4252 N 415.346 1.54954 0.287554 0
M  V30 4253 C 416.623 1.65569 1.04146 0
M  V30 4254 C 417.003 0.512672 2.0478 0
M  V30 4255 O 416.351 -0.489038 2.23205 0
M  V30 4256 C 416.561 3.04163 1.71131 0
M  V30 4257 C 417.909 3.61429 2.22832 0
M  V30 4258 O 418.933 3.06702 1.81141 0
M  V30 4259 O 417.792 4.57281 2.9926 0
M  V30 4260 H 414.886 0.671881 0.482188 0
M  V30 4261 H 417.432 1.67297 0.28457 0
M  V30 4262 H 416.204 3.78796 0.981303 0
M  V30 4263 H 415.827 3.06271 2.53543 0
M  V30 4264 N 416.824 -0.551391 1.4764 0
M  V30 4265 C 418.071 -1.3083 1.54563 0
M  V30 4266 C 418.399 -1.93359 0.210361 0
M  V30 4267 O 417.654 -1.78721 -0.797332 0
M  V30 4268 C 417.953 -2.43469 2.61644 0
M  V30 4269 C 417.619 -1.98732 4.04742 0
M  V30 4270 C 416.281 -1.86248 4.43695 0
M  V30 4271 C 418.633 -1.64659 4.94507 0
M  V30 4272 C 415.961 -1.37995 5.70241 0
M  V30 4273 C 418.313 -1.17875 6.21521 0
M  V30 4274 C 416.977 -1.03992 6.5935 0
M  V30 4275 H 416.247 -0.478741 0.565587 0
M  V30 4276 H 418.894 -0.617697 1.81264 0
M  V30 4277 H 417.199 -3.18109 2.28722 0
M  V30 4278 H 418.896 -3.01642 2.64222 0
M  V30 4279 H 415.486 -2.09393 3.73968 0
M  V30 4280 H 419.67 -1.73174 4.65107 0
M  V30 4281 H 414.926 -1.25915 5.98294 0
M  V30 4282 H 419.1 -0.905739 6.90485 0
M  V30 4283 H 416.727 -0.663794 7.57296 0
M  V30 4284 N 418.302 -1.35869 -0.798587 0
M  V30 4285 C 419.55 -1.29332 -1.55298 0
M  V30 4286 C 419.871 0.129729 -1.94568 0
M  V30 4287 O 419.141 1.06796 -1.6423 0
M  V30 4288 H 417.721 -0.475737 -0.57592 0
M  V30 4289 H 420.383 -1.70062 -0.952093 0
M  V30 4290 H 419.479 -1.91458 -2.46476 0
M  V30 4291 N 419.78 1.02168 -1.19998 0
M  V30 4292 C 421.01 1.79036 -1.031 0
M  V30 4293 C 421.418 1.84409 0.423078 0
M  V30 4294 O 420.761 1.29228 1.30559 0
M  V30 4295 C 420.823 3.25185 -1.53281 0
M  V30 4296 C 420.487 3.43431 -3.01503 0
M  V30 4297 C 421.484 3.33063 -3.99206 0
M  V30 4298 C 419.169 3.69412 -3.40353 0
M  V30 4299 C 421.163 3.48413 -5.33748 0
M  V30 4300 C 418.85 3.84406 -4.75053 0
M  V30 4301 C 419.848 3.7391 -5.71559 0
M  V30 4302 O 419.536 3.88452 -7.03818 0
M  V30 4303 H 419.268 0.570043 -0.363355 0
M  V30 4304 H 421.822 1.29524 -1.59414 0
M  V30 4305 H 420.052 3.75756 -0.913483 0
M  V30 4306 H 421.741 3.83671 -1.32481 0
M  V30 4307 H 422.507 3.12934 -3.70537 0
M  V30 4308 H 418.386 3.76671 -2.65782 0
M  V30 4309 H 421.93 3.40137 -6.09059 0
M  V30 4310 H 417.827 4.04035 -5.03415 0
M  V30 4311 H 418.595 4.055 -7.10993 0
M  V30 4312 N 421.258 1.00505 1.21394 0
M  V30 4313 C 422.498 0.696149 1.9218 0
M  V30 4314 C 422.862 -0.759099 1.76357 0
M  V30 4315 O 424.063 -1.17998 2.41516 0
M  V30 4316 C 422.334 1.10571 3.39866 0
M  V30 4317 S 423.893 0.91702 4.29111 0
M  V30 4318 H 420.711 0.254147 0.664026 0
M  V30 4319 H 423.313 1.28988 1.46909 0
M  V30 4320 H 422.017 2.16096 3.489 0
M  V30 4321 H 421.548 0.504268 3.90155 0
M  V30 4322 H 423.563 -0.185855 4.95852 0
M  V30 4323 N 422.737 -1.36956 0.779787 0
M  V30 4324 C 424.014 -1.93697 0.272156 0
M  V30 4325 C 424.394 -1.71267 -1.23413 0
M  V30 4326 O 423.742 -1.06607 -2.02107 0
M  V30 4327 C 423.952 -3.42812 0.654291 0
M  V30 4328 C 425.3 -4.19921 0.628602 0
M  V30 4329 O 426.324 -3.51209 0.594172 0
M  V30 4330 O 425.183 -5.42465 0.662864 0
M  V30 4331 H 422.277 -0.824447 0.0649286 0
M  V30 4332 H 424.823 -1.46196 0.861682 0
M  V30 4333 H 423.595 -3.52754 1.69353 0
M  V30 4334 H 423.218 -3.97582 0.0381369 0
M  V30 4335 N 424.215 -0.530993 -1.48385 0
M  V30 4336 C 425.145 0.219985 -2.32461 0
M  V30 4337 C 426.126 0.934111 -1.42156 0
M  V30 4338 O 427.311 0.919694 -1.71042 0
M  V30 4339 C 424.441 1.26674 -3.23375 0
M  V30 4340 C 423.395 0.67069 -4.22712 0
M  V30 4341 C 422.721 1.82017 -5.02766 0
M  V30 4342 C 424.021 -0.358268 -5.2107 0
M  V30 4343 H 425.715 -0.48187 -2.95497 0
M  V30 4344 H 423.261 -0.233182 -1.42099 0
M  V30 4345 H 425.214 1.80006 -3.81019 0
M  V30 4346 H 423.938 1.99818 -2.58341 0
M  V30 4347 H 422.597 0.158878 -3.66256 0
M  V30 4348 H 422.245 2.54002 -4.34157 0
M  V30 4349 H 421.945 1.42727 -5.70003 0
M  V30 4350 H 423.469 2.35725 -5.63264 0
M  V30 4351 H 424.883 0.0880081 -5.73232 0
M  V30 4352 H 423.28 -0.66861 -5.96364 0
M  V30 4353 H 424.35 -1.26367 -4.68145 0
M  V30 4354 N 425.693 1.55336 -0.266172 0
M  V30 4355 C 426.641 2.23587 0.641228 0
M  V30 4356 C 427.635 1.22986 1.16494 0
M  V30 4357 O 428.841 1.40943 1.1196 0
M  V30 4358 H 425.216 0.717452 0.225315 0
M  V30 4359 H 427.187 2.9837 0.0426561 0
M  V30 4360 C 425.936 2.96369 1.81826 0
M  V30 4361 H 425.259 3.73563 1.42445 0
M  V30 4362 H 426.699 3.47459 2.42998 0
M  V30 4363 C 425.158 2.0133 2.70125 0
M  V30 4364 O 425.688 1.55875 3.70224 0
M  V30 4365 N 423.894 1.6802 2.37102 0
M  V30 4366 H 423.441 2.05181 1.55751 0
M  V30 4367 H 423.399 1.047 2.96454 0
M  V30 4368 N 427.171 -0.0066808 1.57599 0
M  V30 4369 C 428.401 -0.703066 1.94269 0
M  V30 4370 C 428.809 -1.68206 0.866222 0
M  V30 4371 O 428.152 -1.82966 -0.164087 0
M  V30 4372 C 428.214 -1.49616 3.26887 0
M  V30 4373 C 427.878 -0.679494 4.5192 0
M  V30 4374 C 428.875 0.0299508 5.19891 0
M  V30 4375 C 426.56 -0.627433 4.98366 0
M  V30 4376 C 428.554 0.780514 6.32603 0
M  V30 4377 C 426.241 0.126861 6.10968 0
M  V30 4378 C 427.239 0.829574 6.77943 0
M  V30 4379 O 426.927 1.57157 7.88389 0
M  V30 4380 H 426.659 -0.201217 0.645359 0
M  V30 4381 H 429.213 0.0385326 2.05364 0
M  V30 4382 H 427.443 -2.28209 3.12182 0
M  V30 4383 H 429.132 -2.07726 3.48719 0
M  V30 4384 H 429.898 -0.00115963 4.85 0
M  V30 4385 H 425.777 -1.16392 4.46065 0
M  V30 4386 H 429.321 1.32954 6.84813 0
M  V30 4387 H 425.218 0.159815 6.45302 0
M  V30 4388 H 425.986 1.48758 8.04868 0
M  V30 4389 N 428.649 -1.55105 -0.279332 0
M  V30 4390 C 429.889 -1.7716 -1.01949 0
M  V30 4391 C 430.253 -0.557511 -1.83728 0
M  V30 4392 O 431.454 -0.656198 -2.60667 0
M  V30 4393 C 429.725 -3.0372 -1.88385 0
M  V30 4394 S 431.284 -3.46868 -2.68752 0
M  V30 4395 H 428.102 -0.62253 -0.343478 0
M  V30 4396 H 430.704 -1.93329 -0.290572 0
M  V30 4397 H 429.408 -3.90184 -1.2722 0
M  V30 4398 H 428.939 -2.902 -2.65608 0
M  V30 4399 H 430.954 -3.05643 -3.90892 0
M  V30 4400 N 430.127 0.543554 -1.4793 0
M  V30 4401 C 431.037 1.67657 -1.64098 0
M  V30 4402 C 432.053 1.65934 -0.523622 0
M  V30 4403 O 433.229 1.85133 -0.792943 0
M  V30 4404 C 430.294 3.04146 -1.66421 0
M  V30 4405 C 429.355 3.16831 -2.89684 0
M  V30 4406 C 428.588 4.46809 -2.91886 0
M  V30 4407 O 428.811 5.33095 -2.02895 0
M  V30 4408 O 427.745 4.63573 -3.83906 0
M  V30 4409 H 431.571 1.56957 -2.59997 0
M  V30 4410 H 429.156 0.715116 -1.31173 0
M  V30 4411 H 431.038 3.85346 -1.70548 0
M  V30 4412 H 429.713 3.152 -0.736923 0
M  V30 4413 H 428.62 2.34977 -2.91095 0
M  V30 4414 H 429.953 3.10687 -3.81752 0
M  V30 4415 N 431.605 1.3629 0.791371 0
M  V30 4416 C 432.515 1.32606 1.93527 0
M  V30 4417 C 433.531 0.228541 1.72493 0
M  V30 4418 O 434.707 0.460571 1.96063 0
M  V30 4419 C 431.772 1.11271 3.28359 0
M  V30 4420 C 430.833 2.3048 3.62185 0
M  V30 4421 C 430.066 2.10154 4.90583 0
M  V30 4422 O 430.289 1.07572 5.60165 0
M  V30 4423 O 429.223 2.97884 5.23019 0
M  V30 4424 H 433.049 2.28909 1.99585 0
M  V30 4425 H 430.634 1.16818 0.931344 0
M  V30 4426 H 432.516 1.01283 4.09047 0
M  V30 4427 H 431.191 0.180292 3.23198 0
M  V30 4428 H 430.098 2.46036 2.81811 0
M  V30 4429 H 431.431 3.22221 3.72068 0
M  V30 4430 N 433.083 -1.0153 1.20538 0
M  V30 4431 C 434.046 -2.0826 0.957098 0
M  V30 4432 C 435.046 -1.60657 -0.0678655 0
M  V30 4433 O 436.236 -1.73385 0.168332 0
M  V30 4434 C 433.368 -3.38033 0.441188 0
M  V30 4435 H 434.561 -2.31719 1.90384 0
M  V30 4436 H 432.114 -1.1835 1.02093 0
M  V30 4437 H 432.849 -3.20249 -0.510961 0
M  V30 4438 H 432.634 -3.73911 1.18038 0
M  V30 4439 H 434.124 -4.16613 0.287009 0
M  V30 4440 N 434.561 -1.01147 -1.20859 0
M  V30 4441 C 435.807 -0.698899 -1.90377 0
M  V30 4442 C 436.14 0.76904 -1.78324 0
M  V30 4443 O 435.415 1.55817 -1.16409 0
M  V30 4444 C 435.698 -1.12878 -3.41951 0
M  V30 4445 C 435.551 -2.65665 -3.62963 0
M  V30 4446 C 436.87 -0.696114 -4.3456 0
M  V30 4447 H 433.989 -0.255372 -0.691342 0
M  V30 4448 H 436.631 -1.25831 -1.42361 0
M  V30 4449 H 434.781 -0.652827 -3.82976 0
M  V30 4450 H 436.453 -3.21074 -3.31224 0
M  V30 4451 H 434.696 -3.06878 -3.06608 0
M  V30 4452 H 435.367 -2.90797 -4.69192 0
M  V30 4453 H 437.843 -1.10521 -4.01154 0
M  V30 4454 H 436.719 -1.025 -5.39245 0
M  V30 4455 H 436.98 0.402465 -4.40264 0
M  V30 4456 N 436.039 1.36541 -0.78704 0
M  V30 4457 C 436.949 2.3387 -0.184896 0
M  V30 4458 C 437.965 1.60927 0.661697 0
M  V30 4459 O 439.141 1.92927 0.57804 0
M  V30 4460 C 436.206 3.40122 0.672145 0
M  V30 4461 C 435.267 4.28867 -0.19267 0
M  V30 4462 C 434.5 5.30045 0.623561 0
M  V30 4463 O 434.723 5.39232 1.8597 0
M  V30 4464 O 433.657 6.01895 0.0247068 0
M  V30 4465 H 437.483 2.87126 -0.989562 0
M  V30 4466 H 435.068 1.38969 -0.548455 0
M  V30 4467 H 436.95 4.05093 1.16094 0
M  V30 4468 H 435.625 2.89169 1.45474 0
M  V30 4469 H 434.532 3.66945 -0.728166 0
M  V30 4470 H 435.865 4.83165 -0.938722 0
M  V30 4471 N 437.518 0.538854 1.48102 0
M  V30 4472 C 438.428 -0.222648 2.33541 0
M  V30 4473 C 439.444 -0.930225 1.47047 0
M  V30 4474 O 440.62 -0.903211 1.80011 0
M  V30 4475 C 437.685 -1.25064 3.23357 0
M  V30 4476 C 436.746 -0.552469 4.2573 0
M  V30 4477 C 435.979 -1.53149 5.11254 0
M  V30 4478 O 436.202 -2.76487 4.9891 0
M  V30 4479 O 435.136 -1.06602 5.92385 0
M  V30 4480 H 438.962 0.477707 2.99919 0
M  V30 4481 H 436.547 0.299669 1.46364 0
M  V30 4482 H 438.429 -1.8445 3.78888 0
M  V30 4483 H 437.104 -1.93325 2.59629 0
M  V30 4484 H 436.011 0.082114 3.7401 0
M  V30 4485 H 437.344 0.0883526 4.92121 0
M  V30 4486 N 438.996 -1.55193 0.274407 0
M  V30 4487 C 439.906 -2.26164 -0.623473 0
M  V30 4488 C 440.922 -1.28729 -1.17068 0
M  V30 4489 O 442.098 -1.61663 -1.20112 0
M  V30 4490 C 439.163 -2.96833 -1.7914 0
M  V30 4491 C 438.224 -4.09745 -1.28093 0
M  V30 4492 C 437.457 -4.77034 -2.3932 0
M  V30 4493 O 437.68 -4.4353 -3.5866 0
M  V30 4494 O 436.614 -5.64996 -2.07516 0
M  V30 4495 H 440.44 -3.03661 -0.0485661 0
M  V30 4496 H 438.025 -1.49341 0.0418382 0
M  V30 4497 H 439.907 -3.41248 -2.4724 0
M  V30 4498 H 438.582 -2.22253 -2.35341 0
M  V30 4499 H 437.489 -3.69787 -0.566416 0
M  V30 4500 H 438.822 -4.86224 -0.764683 0
M  V30 4501 N 440.474 -0.00167713 -1.576 0
M  V30 4502 C 441.702 0.693759 -1.94922 0
M  V30 4503 C 442.117 1.67215 -0.876626 0
M  V30 4504 O 441.474 1.81929 0.144279 0
M  V30 4505 C 441.525 1.42416 -3.32265 0
M  V30 4506 O 441.246 0.485014 -4.35407 0
M  V30 4507 C 442.747 2.21395 -3.84056 0
M  V30 4508 H 439.967 0.193118 -0.642609 0
M  V30 4509 H 442.511 -0.0532952 -2.04431 0
M  V30 4510 H 440.666 2.12284 -3.24059 0
M  V30 4511 H 441.08 1.00053 -5.14868 0
M  V30 4512 H 442.554 2.67996 -4.82578 0
M  V30 4513 H 443.031 3.04142 -3.16851 0
M  V30 4514 H 443.637 1.56542 -3.95443 0
M  V30 4515 N 441.952 1.55251 0.271103 0
M  V30 4516 C 443.2 1.75599 1.00047 0
M  V30 4517 C 443.521 0.561188 1.8675 0
M  V30 4518 O 442.791 -0.423846 1.9126 0
M  V30 4519 H 441.371 0.647562 0.372387 0
M  V30 4520 H 444.033 1.92656 0.294876 0
M  V30 4521 H 443.129 2.65766 1.6363 0
M  V30 4522 N 443.43 -0.535701 1.48216 0
M  V30 4523 C 444.707 -1.29683 1.46429 0
M  V30 4524 C 445.087 -2.10391 0.172852 0
M  V30 4525 O 444.435 -2.12282 -0.845488 0
M  V30 4526 C 444.645 -2.18313 2.72287 0
M  V30 4527 C 445.993 -2.78639 3.20383 0
M  V30 4528 O 447.017 -2.28604 2.73164 0
M  V30 4529 O 445.876 -3.69636 4.02531 0
M  V30 4530 H 442.97 -0.585026 0.584529 0
M  V30 4531 H 445.516 -0.552827 1.60443 0
M  V30 4532 H 444.288 -1.58421 3.57797 0
M  V30 4533 H 443.911 -2.99971 2.60966 0
M  V30 4534 N 444.908 -1.36708 -0.784132 0
M  V30 4535 C 446.156 -1.30972 -1.53918 0
M  V30 4536 C 446.477 0.109086 -1.94695 0
M  V30 4537 O 445.747 1.05048 -1.65353 0
M  V30 4538 H 444.327 -0.481819 -0.570841 0
M  V30 4539 H 446.989 -1.71063 -0.934002 0
M  V30 4540 H 446.085 -1.94061 -2.44431 0
M  V30 4541 N 446.386 1.0089 -1.21074 0
M  V30 4542 C 447.316 2.1145 -0.990523 0
M  V30 4543 C 448.297 1.69897 0.0831699 0
M  V30 4544 O 449.482 1.94052 -0.0758853 0
M  V30 4545 C 446.612 3.42914 -0.550177 0
M  V30 4546 C 445.566 3.98244 -1.56799 0
M  V30 4547 C 444.892 5.25568 -0.984013 0
M  V30 4548 C 446.192 4.30752 -2.95381 0
M  V30 4549 H 447.886 2.3013 -1.91521 0
M  V30 4550 H 445.432 1.10592 -0.92225 0
M  V30 4551 H 447.385 4.19653 -0.383305 0
M  V30 4552 H 446.109 3.24014 0.41015 0
M  V30 4553 H 444.768 3.23621 -1.72236 0
M  V30 4554 H 444.416 5.02998 -0.0155216 0
M  V30 4555 H 444.116 5.63551 -1.66384 0
M  V30 4556 H 445.64 6.04955 -0.828378 0
M  V30 4557 H 447.054 4.98349 -2.8341 0
M  V30 4558 H 445.451 4.79869 -3.60341 0
M  V30 4559 H 446.521 3.39192 -3.46521 0
M  V30 4560 N 447.864 1.01787 1.20321 0
M  V30 4561 C 449.141 0.622978 1.85414 0
M  V30 4562 C 449.521 -0.898887 1.91006 0
M  V30 4563 O 448.869 -1.79112 1.41884 0
M  V30 4564 C 449.079 1.27226 3.24984 0
M  V30 4565 C 450.427 1.3885 4.01255 0
M  V30 4566 O 451.451 1.22857 3.34342 0
M  V30 4567 O 450.31 1.64705 5.2109 0
M  V30 4568 H 447.404 0.215116 0.798533 0
M  V30 4569 H 449.95 1.11533 1.27901 0
M  V30 4570 H 448.722 2.31209 3.15687 0
M  V30 4571 H 448.345 0.767069 3.90131 0
M  V30 4572 N 449.342 -1.36122 0.79427 0
M  V30 4573 C 450.252 -2.33769 0.197296 0
M  V30 4574 C 451.268 -1.61276 -0.653153 0
M  V30 4575 O 452.444 -1.9323 -0.5678 0
M  V30 4576 C 449.509 -3.40474 -0.654098 0
M  V30 4577 C 448.57 -4.28759 0.215411 0
M  V30 4578 C 447.803 -5.30368 -0.595443 0
M  V30 4579 O 448.026 -5.40211 -1.83107 0
M  V30 4580 O 446.96 -6.019 0.00721351 0
M  V30 4581 H 450.786 -2.86597 1.00478 0
M  V30 4582 H 448.371 -1.38676 0.555818 0
M  V30 4583 H 450.253 -4.05703 -1.13944 0
M  V30 4584 H 448.928 -2.89937 -1.43938 0
M  V30 4585 H 447.835 -3.66554 0.747615 0
M  V30 4586 H 449.168 -4.82661 0.964332 0
M  V30 4587 N 450.82 -0.546701 -1.47814 0
M  V30 4588 C 452.097 0.0464413 -1.95545 0
M  V30 4589 C 452.477 1.4962 -1.48919 0
M  V30 4590 O 451.825 2.16752 -0.723232 0
M  V30 4591 C 452.035 -0.0881298 -3.48889 0
M  V30 4592 C 453.383 0.0626059 -4.24554 0
M  V30 4593 O 454.407 -0.0151555 -3.56197 0
M  V30 4594 O 453.266 0.228071 -5.46024 0
M  V30 4595 H 450.36 0.0700004 -0.824032 0
M  V30 4596 H 452.906 -0.612482 -1.58262 0
M  V30 4597 H 451.678 -1.09737 -3.75597 0
M  V30 4598 H 451.301 0.608886 -3.9291 0
M  V30 4599 N 452.299 1.55045 -0.282633 0
M  V30 4600 C 453.524 2.04628 0.337977 0
M  V30 4601 C 453.949 1.15937 1.48123 0
M  V30 4602 O 453.307 0.159532 1.80597 0
M  V30 4603 C 453.355 3.51854 0.78936 0
M  V30 4604 O 452.459 3.66236 1.89592 0
M  V30 4605 H 451.8 0.660434 0.0687261 0
M  V30 4606 H 454.33 2.00261 -0.419124 0
M  V30 4607 H 454.34 3.93361 1.08311 0
M  V30 4608 H 453.015 4.15873 -0.0470419 0
M  V30 4609 H 451.592 3.36633 1.60413 0
M  V30 4610 N 453.777 0.010035 1.57597 0
M  V30 4611 C 455.054 -0.710296 1.82248 0
M  V30 4612 C 455.434 -1.91426 0.889911 0
M  V30 4613 O 454.782 -2.28424 -0.0590292 0
M  V30 4614 C 454.992 -1.10655 3.30993 0
M  V30 4615 C 456.34 -1.50621 3.96987 0
M  V30 4616 O 457.364 -1.20007 3.35375 0
M  V30 4617 O 456.223 -2.07587 5.05539 0
M  V30 4618 H 453.317 -0.34673 0.750804 0
M  V30 4619 H 455.863 0.0362578 1.69661 0
M  V30 4620 H 454.635 -0.248826 3.90508 0
M  V30 4621 H 454.258 -1.91189 3.48615 0
M  V30 4622 N 455.255 -1.55392 -0.262866 0
M  V30 4623 C 456.671 -1.47459 -0.610582 0
M  V30 4624 C 456.871 -0.697031 -1.8906 0
M  V30 4625 O 455.927 -0.219952 -2.5154 0
M  V30 4626 C 457.24 -2.91751 -0.728131 0
M  V30 4627 C 458.788 -3.02027 -0.821517 0
M  V30 4628 C 459.263 -4.47594 -0.97076 0
M  V30 4629 N 460.754 -4.51465 -1.03603 0
M  V30 4630 C 461.489 -5.61326 -1.17049 0
M  V30 4631 N 460.985 -6.81032 -1.2715 0
M  V30 4632 N 462.778 -5.49089 -1.20239 0
M  V30 4633 H 454.929 -2.04395 0.577632 0
M  V30 4634 H 457.192 -0.927287 0.197086 0
M  V30 4635 H 456.898 -3.51413 0.142132 0
M  V30 4636 H 456.772 -3.4134 -1.6052 0
M  V30 4637 H 459.159 -2.42456 -1.68224 0
M  V30 4638 H 459.24 -2.55674 0.0803688 0
M  V30 4639 H 458.884 -5.07771 -0.114655 0
M  V30 4640 H 458.814 -4.91613 -1.88745 0
M  V30 4641 H 461.305 -3.6524 -0.96996 0
M  V30 4642 H 461.618 -7.60511 -1.37271 0
M  V30 4643 H 459.963 -6.83824 -1.24136 0
M  V30 4644 H 463.154 -4.54507 -1.11985 0
M  V30 4645 H 463.327 -6.34749 -1.30373 0
M  V30 4646 N 456.733 0.527833 -1.48498 0
M  V30 4647 C 457.696 1.61439 -1.62696 0
M  V30 4648 C 458.696 1.52824 -0.500136 0
M  V30 4649 O 459.886 1.56456 -0.765976 0
M  V30 4650 C 457.018 3.01063 -1.59918 0
M  V30 4651 H 458.211 1.50189 -2.59583 0
M  V30 4652 H 455.764 0.750055 -1.37127 0
M  V30 4653 H 456.499 3.17818 -0.645163 0
M  V30 4654 H 456.284 3.08725 -2.41726 0
M  V30 4655 H 457.774 3.80057 -1.73051 0
M  V30 4656 N 458.211 1.37122 0.776871 0
M  V30 4657 C 459.46 1.31373 1.53049 0
M  V30 4658 C 459.773 -0.101016 1.95339 0
M  V30 4659 O 460.979 -0.280953 2.70042 0
M  V30 4660 C 459.435 2.30567 2.76346 0
M  V30 4661 C 459.043 3.77543 2.41175 0
M  V30 4662 C 460.787 2.33818 3.54301 0
M  V30 4663 C 458.694 4.68481 3.60943 0
M  V30 4664 H 457.624 0.488234 0.574581 0
M  V30 4665 H 460.275 1.62554 0.851372 0
M  V30 4666 H 458.657 1.92396 3.46121 0
M  V30 4667 H 459.831 4.24521 1.79216 0
M  V30 4668 H 458.146 3.77187 1.76405 0
M  V30 4669 H 460.743 2.98965 4.4331 0
M  V30 4670 H 461.086 1.3503 3.93793 0
M  V30 4671 H 461.619 2.7067 2.91518 0
M  V30 4672 H 458.358 5.68378 3.26537 0
M  V30 4673 H 457.878 4.2621 4.22025 0
M  V30 4674 H 459.557 4.85366 4.27819 0
M  V30 4675 N 459.689 -1.00246 1.21608 0
M  V30 4676 C 460.599 -2.12515 0.993709 0
M  V30 4677 C 461.615 -1.73913 -0.0549939 0
M  V30 4678 O 462.791 -2.00943 0.135619 0
M  V30 4679 C 459.856 -3.42083 0.563953 0
M  V30 4680 C 458.917 -3.94843 1.68516 0
M  V30 4681 C 458.15 -5.18226 1.27582 0
M  V30 4682 O 458.373 -5.70201 0.150506 0
M  V30 4683 O 457.307 -5.64497 2.0887 0
M  V30 4684 H 461.133 -2.34152 1.93407 0
M  V30 4685 H 458.718 -1.10891 1.00118 0
M  V30 4686 H 460.6 -4.20073 0.334194 0
M  V30 4687 H 459.275 -3.21828 -0.347665 0
M  V30 4688 H 458.182 -3.18068 1.96935 0
M  V30 4689 H 459.515 -4.19512 2.5743 0
M  V30 4690 N 461.167 -1.02423 -1.1978 0
M  V30 4691 C 462.415 -0.716569 -1.8897 0
M  V30 4692 C 462.736 0.756769 -1.79716 0
M  V30 4693 O 462.006 1.5449 -1.20456 0
M  V30 4694 H 460.586 -0.262062 -0.699523 0
M  V30 4695 H 463.248 -1.29747 -1.45436 0
M  V30 4696 H 462.344 -1.00675 -2.95417 0
M  V30 4697 N 462.645 1.35699 -0.801477 0
M  V30 4698 C 464.061 1.52065 -0.484596 0
M  V30 4699 C 464.261 1.75215 0.995084 0
M  V30 4700 O 463.317 1.79061 1.78026 0
M  V30 4701 C 464.63 2.69908 -1.32552 0
M  V30 4702 C 466.178 2.83784 -1.32044 0
M  V30 4703 C 466.653 4.04646 -2.14536 0
M  V30 4704 N 468.144 4.11814 -2.12046 0
M  V30 4705 C 468.879 5.04437 -2.72636 0
M  V30 4706 N 468.375 6.02426 -3.42133 0
M  V30 4707 N 470.168 4.97144 -2.62305 0
M  V30 4708 H 462.319 1.18928 -1.75983 0
M  V30 4709 H 464.582 0.581455 -0.748741 0
M  V30 4710 H 464.288 2.59363 -2.37537 0
M  V30 4711 H 464.162 3.64376 -0.975181 0
M  V30 4712 H 466.549 2.93783 -0.27846 0
M  V30 4713 H 466.63 1.90188 -1.71062 0
M  V30 4714 H 466.274 3.95407 -3.18772 0
M  V30 4715 H 466.204 4.97413 -1.72882 0
M  V30 4716 H 468.695 3.41664 -1.61476 0
M  V30 4717 H 469.008 6.69688 -3.85666 0
M  V30 4718 H 467.353 6.02615 -3.46237 0
M  V30 4719 H 470.544 4.19546 -2.07603 0
M  V30 4720 H 470.717 5.69138 -3.09815 0
M  V30 4721 N 464.123 0.554532 1.47522 0
M  V30 4722 C 465.351 0.034257 2.06872 0
M  V30 4723 C 465.766 -1.25826 1.40759 0
M  V30 4724 O 465.123 -1.75425 0.503217 0
M  V30 4725 C 465.174 -0.167827 3.6111 0
M  V30 4726 O 464.895 1.07351 4.24744 0
M  V30 4727 C 466.396 -0.72569 4.3732 0
M  V30 4728 H 463.616 0.0446275 0.669514 0
M  V30 4729 H 466.16 0.767181 1.89564 0
M  V30 4730 H 464.315 -0.850872 3.7794 0
M  V30 4731 H 464.729 0.869563 5.17242 0
M  V30 4732 H 466.203 -0.816394 5.45929 0
M  V30 4733 H 466.68 -1.73635 4.0342 0
M  V30 4734 H 467.286 -0.0784292 4.25228 0
M  V30 4735 N 465.601 -1.54893 0.290851 0
M  V30 4736 C 466.564 -2.21824 -0.576784 0
M  V30 4737 C 467.564 -1.20104 -1.06919 0
M  V30 4738 O 468.754 -1.44906 -0.966843 0
M  V30 4739 C 465.886 -2.89662 -1.79747 0
M  V30 4740 H 467.079 -2.99899 0.00784051 0
M  V30 4741 H 464.632 -1.56245 0.0415934 0
M  V30 4742 H 465.367 -2.15639 -2.42219 0
M  V30 4743 H 465.152 -3.64219 -1.45214 0
M  V30 4744 H 466.642 -3.4075 -2.4141 0
M  V30 4745 N 467.08 -0.0183926 -1.57589 0
M  V30 4746 C 468.308 0.673046 -1.95647 0
M  V30 4747 C 468.723 1.66275 -0.894312 0
M  V30 4748 O 468.08 1.82072 0.124975 0
M  V30 4749 C 468.131 1.38884 -3.33756 0
M  V30 4750 O 467.852 0.438806 -4.35897 0
M  V30 4751 C 469.353 2.1731 -3.86383 0
M  V30 4752 H 466.573 0.186292 -0.644621 0
M  V30 4753 H 469.117 -0.0749748 -2.04363 0
M  V30 4754 H 467.272 2.08835 -3.26293 0
M  V30 4755 H 467.686 0.945869 -5.15901 0
M  V30 4756 H 469.16 2.62863 -4.85394 0
M  V30 4757 H 469.637 3.00764 -3.20059 0
M  V30 4758 H 470.243 1.52339 -3.97081 0
M  V30 4759 N 468.558 1.5553 0.254621 0
M  V30 4760 C 469.783 1.81383 1.00573 0
M  V30 4761 C 470.208 0.594419 1.78461 0
M  V30 4762 O 469.566 -0.456403 1.75461 0
M  V30 4763 C 469.614 3.04892 1.92545 0
M  V30 4764 O 468.718 2.81266 3.01601 0
M  V30 4765 H 468.059 0.598969 0.286587 0
M  V30 4766 H 470.589 2.02703 0.277952 0
M  V30 4767 H 470.599 3.34119 2.34155 0
M  V30 4768 H 469.274 3.93287 1.3527 0
M  V30 4769 H 467.851 2.63185 2.64174 0
M  V30 4770 N 470.036 -0.519951 1.48776 0
M  V30 4771 C 470.946 -1.65025 1.66745 0
M  V30 4772 C 471.962 -1.6508 0.549954 0
M  V30 4773 O 473.138 -1.83848 0.822295 0
M  V30 4774 C 470.203 -3.0146 1.71238 0
M  V30 4775 C 469.264 -3.12182 2.94688 0
M  V30 4776 C 468.497 -4.42109 2.98958 0
M  V30 4777 O 468.72 -5.29799 2.1135 0
M  V30 4778 O 467.654 -4.57406 3.91233 0
M  V30 4779 H 471.48 -1.52801 2.62461 0
M  V30 4780 H 469.065 -0.694157 1.32294 0
M  V30 4781 H 470.947 -3.82584 1.76657 0
M  V30 4782 H 469.622 -3.13988 0.786975 0
M  V30 4783 H 468.529 -2.30316 2.94797 0
M  V30 4784 H 469.862 -3.04574 3.86646 0
M  V30 4785 N 471.514 -1.37532 -0.769588 0
M  V30 4786 C 472.744 -1.35861 -1.55645 0
M  V30 4787 C 473.152 0.0574398 -1.89113 0
M  V30 4788 O 472.495 1.03021 -1.52093 0
M  V30 4789 C 472.557 -2.13431 -2.89288 0
M  V30 4790 C 472.221 -3.62378 -2.78444 0
M  V30 4791 C 473.218 -4.56215 -2.49326 0
M  V30 4792 C 470.903 -4.05529 -2.96398 0
M  V30 4793 C 472.897 -5.91181 -2.38294 0
M  V30 4794 C 470.584 -5.40579 -2.84987 0
M  V30 4795 C 471.582 -6.33218 -2.55975 0
M  V30 4796 O 471.27 -7.65787 -2.44594 0
M  V30 4797 H 471.002 -0.467001 -0.48876 0
M  V30 4798 H 473.556 -1.81505 -0.961515 0
M  V30 4799 H 471.786 -1.62481 -3.50909 0
M  V30 4800 H 473.475 -2.04368 -3.50697 0
M  V30 4801 H 474.241 -4.24187 -2.35139 0
M  V30 4802 H 470.12 -3.33781 -3.1798 0
M  V30 4803 H 473.664 -6.63457 -2.15571 0
M  V30 4804 H 469.561 -5.72209 -2.98743 0
M  V30 4805 H 470.329 -7.76132 -2.59927 0
M  V30 4806 N 472.992 0.995999 -1.22138 0
M  V30 4807 C 473.924 2.08745 -0.946485 0
M  V30 4808 C 474.937 1.62633 0.0737356 0
M  V30 4809 O 476.126 1.77782 -0.159886 0
M  V30 4810 C 473.226 3.36516 -0.401305 0
M  V30 4811 C 472.399 4.11672 -1.47801 0
M  V30 4812 C 471.458 5.17728 -0.940461 0
M  V30 4813 O 470.484 5.45482 -1.62596 0
M  V30 4814 N 471.686 5.80005 0.239723 0
M  V30 4815 H 474.451 2.32908 -1.88611 0
M  V30 4816 H 472.012 1.16152 -1.12785 0
M  V30 4817 H 474.004 4.04691 -0.0270837 0
M  V30 4818 H 472.574 3.0944 0.443354 0
M  V30 4819 H 471.794 3.38171 -2.02568 0
M  V30 4820 H 473.082 4.58657 -2.20253 0
M  V30 4821 H 472.48 5.5982 0.813518 0
M  V30 4822 H 471.037 6.4943 0.555361 0
M  V30 4823 N 474.47 1.03057 1.19235 0
M  V30 4824 C 475.698 0.747697 1.92917 0
M  V30 4825 C 476.113 -0.69372 1.75593 0
M  V30 4826 O 475.47 -1.47191 1.07894 0
M  V30 4827 C 475.521 1.09159 3.44625 0
M  V30 4828 O 475.242 2.47641 3.61394 0
M  V30 4829 C 476.743 0.831763 4.35427 0
M  V30 4830 H 473.963 0.273453 0.612751 0
M  V30 4831 H 476.507 1.37552 1.51327 0
M  V30 4832 H 474.662 0.508919 3.84043 0
M  V30 4833 H 475.076 2.60499 4.55237 0
M  V30 4834 H 476.55 1.12233 5.4047 0
M  V30 4835 H 477.027 -0.233769 4.38577 0
M  V30 4836 H 477.633 1.39725 4.01693 0
M  V30 4837 N 475.948 -1.35272 0.808662 0
M  V30 4838 C 477.195 -1.98709 0.390003 0
M  V30 4839 C 477.523 -1.64148 -1.04335 0
M  V30 4840 O 476.778 -0.897797 -1.73891 0
M  V30 4841 C 477.077 -3.53556 0.522798 0
M  V30 4842 C 476.743 -4.0799 1.91977 0
M  V30 4843 C 475.405 -4.22568 2.30195 0
M  V30 4844 C 477.757 -4.37442 2.83361 0
M  V30 4845 C 475.085 -4.63918 3.59162 0
M  V30 4846 C 477.437 -4.80232 4.11776 0
M  V30 4847 C 476.101 -4.93016 4.49991 0
M  V30 4848 H 475.371 -0.727127 0.142712 0
M  V30 4849 H 478.018 -1.6145 1.02985 0
M  V30 4850 H 476.323 -3.91287 -0.200494 0
M  V30 4851 H 478.02 -4.00598 0.179608 0
M  V30 4852 H 474.61 -3.97096 1.61284 0
M  V30 4853 H 478.794 -4.25731 2.55083 0
M  V30 4854 H 474.05 -4.72005 3.88615 0
M  V30 4855 H 478.224 -5.01982 4.82687 0
M  V30 4856 H 475.851 -5.24814 5.49976 0
M  V30 4857 N 477.426 -0.562348 -1.47226 0
M  V30 4858 C 478.673 -0.0402165 -2.0246 0
M  V30 4859 C 479.001 1.31169 -1.43614 0
M  V30 4860 O 478.256 1.86805 -0.5833 0
M  V30 4861 C 478.555 0.0969817 -3.57268 0
M  V30 4862 C 478.221 -1.1847 -4.35058 0
M  V30 4863 C 476.883 -1.53588 -4.56031 0
M  V30 4864 C 479.235 -2.03378 -4.79882 0
M  V30 4865 C 476.563 -2.73452 -5.19077 0
M  V30 4866 C 478.915 -3.2245 -5.44251 0
M  V30 4867 C 477.579 -3.57876 -5.63455 0
M  V30 4868 H 476.849 -0.0147163 -0.740854 0
M  V30 4869 H 479.496 -0.734895 -1.76838 0
M  V30 4870 H 477.801 0.87466 -3.81912 0
M  V30 4871 H 479.498 0.516408 -3.97661 0
M  V30 4872 H 476.088 -0.90126 -4.19017 0
M  V30 4873 H 480.272 -1.77553 -4.63453 0
M  V30 4874 H 475.528 -3.01062 -5.32139 0
M  V30 4875 H 479.702 -3.88526 -5.77945 0
M  V30 4876 H 477.329 -4.50849 -6.12078 0
M  V30 4877 N 478.904 1.54736 -0.299062 0
M  V30 4878 C 479.852 2.24897 0.593658 0
M  V30 4879 C 480.846 1.25429 1.13859 0
M  V30 4880 O 482.052 1.43286 1.08945 0
M  V30 4881 H 478.427 0.72207 0.210046 0
M  V30 4882 H 480.398 2.98393 -0.0206421 0
M  V30 4883 C 479.147 3.00159 1.75499 0
M  V30 4884 H 478.47 3.76501 1.34489 0
M  V30 4885 H 479.91 3.52535 2.35574 0
M  V30 4886 C 478.369 2.07015 2.65794 0
M  V30 4887 O 478.899 1.63692 3.66835 0
M  V30 4888 N 477.105 1.73012 2.33485 0
M  V30 4889 H 476.652 2.08439 1.51364 0
M  V30 4890 H 476.61 1.10965 2.94167 0
M  V30 4891 N 480.382 0.0267497 1.57577 0
M  V30 4892 C 481.793 -0.512413 1.79531 0
M  V30 4893 C 482.144 -1.72391 0.936791 0
M  V30 4894 O 481.269 -2.15903 0.146543 0
M  V30 4895 C 481.864 -0.936378 3.25603 0
M  V30 4896 C 480.423 -1.42067 3.4856 0
M  V30 4897 C 479.57 -0.384278 2.74624 0
M  V30 4898 H 482.521 0.252797 1.56674 0
M  V30 4899 H 482.542 -1.80088 3.35184 0
M  V30 4900 H 482.054 -0.0544332 3.88062 0
M  V30 4901 H 480.155 -2.32262 2.9135 0
M  V30 4902 H 480.268 -1.42968 4.57271 0
M  V30 4903 H 478.632 -0.851855 2.40032 0
M  V30 4904 H 479.415 0.489159 3.39797 0
M  V30 4905 N 481.861 -1.55662 -0.24637 0
M  V30 4906 C 483.277 -1.48098 -0.594907 0
M  V30 4907 C 483.477 -0.717044 -1.8831 0
M  V30 4908 O 482.533 -0.246618 -2.51293 0
M  V30 4909 C 483.846 -2.92507 -0.697146 0
M  V30 4910 C 485.394 -3.02881 -0.789436 0
M  V30 4911 C 485.869 -4.48598 -0.923232 0
M  V30 4912 N 487.36 -4.52538 -0.988088 0
M  V30 4913 C 488.095 -5.62536 -1.11089 0
M  V30 4914 N 487.591 -6.82342 -1.19919 0
M  V30 4915 N 489.384 -5.50334 -1.14408 0
M  V30 4916 H 481.535 -2.0377 0.599278 0
M  V30 4917 H 483.798 -0.925145 0.20691 0
M  V30 4918 H 483.504 -3.51242 0.179396 0
M  V30 4919 H 483.378 -3.43024 -1.5689 0
M  V30 4920 H 485.765 -2.44226 -1.65643 0
M  V30 4921 H 485.846 -2.55574 0.107482 0
M  V30 4922 H 485.49 -5.07864 -0.0607927 0
M  V30 4923 H 485.42 -4.93587 -1.8352 0
M  V30 4924 H 487.911 -3.66248 -0.931167 0
M  V30 4925 H 488.224 -7.61924 -1.29197 0
M  V30 4926 H 486.569 -6.85102 -1.16876 0
M  V30 4927 H 489.76 -4.5567 -1.07158 0
M  V30 4928 H 489.933 -6.36096 -1.23634 0
M  V30 4929 N 483.339 0.512053 -1.4905 0
M  V30 4930 C 484.567 1.29116 -1.61669 0
M  V30 4931 C 484.982 1.86655 -0.283787 0
M  V30 4932 O 484.339 1.67293 0.729331 0
M  V30 4933 C 484.39 2.4293 -2.67707 0
M  V30 4934 O 484.111 1.87758 -3.95826 0
M  V30 4935 C 485.612 3.34476 -2.90931 0
M  V30 4936 H 482.832 0.392009 -0.544583 0
M  V30 4937 H 485.376 0.615881 -1.95006 0
M  V30 4938 H 483.531 3.06308 -2.37179 0
M  V30 4939 H 483.945 2.62393 -4.54148 0
M  V30 4940 H 485.419 4.10642 -3.68886 0
M  V30 4941 H 485.896 3.90801 -2.00427 0
M  V30 4942 H 486.502 2.76874 -3.22832 0
M  V30 4943 N 484.817 1.37938 0.762283 0
M  V30 4944 C 486.064 1.33668 1.52115 0
M  V30 4945 C 486.392 -0.0759538 1.94352 0
M  V30 4946 O 485.647 -1.05121 1.6507 0
M  V30 4947 C 485.946 2.23042 2.79261 0
M  V30 4948 C 485.612 3.71159 2.56031 0
M  V30 4949 C 484.274 4.11523 2.49404 0
M  V30 4950 C 486.626 4.64955 2.35513 0
M  V30 4951 C 483.954 5.43784 2.20263 0
M  V30 4952 C 486.306 5.97464 2.07894 0
M  V30 4953 C 484.97 6.36922 1.99718 0
M  V30 4954 H 484.24 0.489127 0.556629 0
M  V30 4955 H 486.887 1.70224 0.877262 0
M  V30 4956 H 485.192 1.79512 3.48256 0
M  V30 4957 H 486.889 2.17047 3.37182 0
M  V30 4958 H 483.479 3.39153 2.62056 0
M  V30 4959 H 487.663 4.34623 2.39617 0
M  V30 4960 H 482.919 5.73307 2.12435 0
M  V30 4961 H 487.093 6.6969 1.91019 0
M  V30 4962 H 484.72 7.39331 1.76902 0
M  V30 4963 N 486.295 -0.989507 1.22664 0
M  V30 4964 C 487.543 -1.72612 1.05117 0
M  V30 4965 C 487.864 -1.90552 -0.414131 0
M  V30 4966 O 487.134 -1.4676 -1.29762 0
M  V30 4967 H 485.714 -0.639555 0.385977 0
M  V30 4968 H 488.376 -1.19158 1.54232 0
M  V30 4969 H 487.472 -2.71926 1.53175 0
M  V30 4970 N 487.773 -1.03688 -1.18687 0
M  V30 4971 C 488.998 -0.757819 -1.93059 0
M  V30 4972 C 489.423 0.678353 -1.75442 0
M  V30 4973 O 488.781 1.46938 -1.06203 0
M  V30 4974 C 488.829 -1.12423 -3.42627 0
M  V30 4975 O 487.933 -0.247505 -4.11657 0
M  V30 4976 H 487.274 -0.279245 -0.602427 0
M  V30 4977 H 489.804 -1.3857 -1.5053 0
M  V30 4978 H 489.814 -1.08454 -3.93322 0
M  V30 4979 H 488.489 -2.17049 -3.54771 0
M  V30 4980 H 487.066 -0.34649 -3.71287 0
M  V30 4981 N 489.251 1.34841 -0.815825 0
M  V30 4982 C 490.499 1.98107 -0.399744 0
M  V30 4983 C 490.82 1.65019 1.03894 0
M  V30 4984 O 490.09 0.937311 1.72021 0
M  V30 4985 H 488.67 0.732827 -0.144823 0
M  V30 4986 H 491.332 1.64599 -1.0437 0
M  V30 4987 H 490.428 3.07856 -0.512965 0
M  V30 4988 N 490.729 0.570148 1.46925 0
M  V30 4989 C 491.639 -0.173061 2.33961 0
M  V30 4990 C 492.655 -0.898825 1.48987 0
M  V30 4991 O 493.831 -0.864825 1.81887 0
M  V30 4992 C 490.896 -1.18177 3.25937 0
M  V30 4993 C 489.957 -0.462041 4.26806 0
M  V30 4994 C 489.19 -1.4227 5.14388 0
M  V30 4995 O 489.413 -2.65842 5.04662 0
M  V30 4996 O 488.347 -0.940127 5.94513 0
M  V30 4997 H 492.173 0.541216 2.98839 0
M  V30 4998 H 489.758 0.330647 1.45695 0
M  V30 4999 H 491.64 -1.76372 3.82715 0
M  V30 5000 H 490.315 -1.87774 2.63671 0
M  V30 5001 H 489.222 0.161429 3.73752 0
M  V30 5002 H 490.555 0.192719 4.91823 0
M  V30 5003 N 492.207 -1.54576 0.307264 0
M  V30 5004 C 493.17 -2.22423 -0.553224 0
M  V30 5005 C 494.17 -1.21231 -1.05639 0
M  V30 5006 O 495.36 -1.45923 -0.951419 0
M  V30 5007 C 492.492 -2.91552 -1.76664 0
M  V30 5008 H 493.685 -2.99874 0.0396484 0
M  V30 5009 H 491.238 -1.56192 0.0581629 0
M  V30 5010 H 491.973 -2.18196 -2.39918 0
M  V30 5011 H 491.758 -3.65738 -1.41343 0
M  V30 5012 H 493.248 -3.43292 -2.37783 0
M  V30 5013 N 493.685 -0.035106 -1.57561 0
M  V30 5014 C 494.962 0.681212 -1.83354 0
M  V30 5015 C 495.342 1.89986 -0.920252 0
M  V30 5016 O 494.69 2.28489 0.0226815 0
M  V30 5017 C 494.9 1.05376 -3.32712 0
M  V30 5018 C 496.248 1.44286 -3.99333 0
M  V30 5019 O 497.272 1.14656 -3.37242 0
M  V30 5020 O 496.131 1.99518 -5.08778 0
M  V30 5021 H 493.225 0.334741 -0.756226 0
M  V30 5022 H 495.771 -0.0632448 -1.69582 0
M  V30 5023 H 494.543 0.186668 -3.90854 0
M  V30 5024 H 494.166 1.85619 -3.51613 0
M  V30 5025 N 495.163 1.55791 0.238111 0
M  V30 5026 C 496.403 1.79801 0.972163 0
M  V30 5027 C 496.767 0.606027 1.82185 0
M  V30 5028 O 497.968 0.725079 2.58836 0
M  V30 5029 C 496.239 3.08608 1.80266 0
M  V30 5030 S 497.798 3.53872 2.59461 0
M  V30 5031 H 494.616 0.631418 0.326852 0
M  V30 5032 H 497.218 1.94031 0.239212 0
M  V30 5033 H 495.922 3.93419 1.1683 0
M  V30 5034 H 495.453 2.9714 2.57821 0
M  V30 5035 H 497.468 3.15899 3.82651 0
M  V30 5036 N 496.642 -0.504142 1.49319 0
M  V30 5037 C 497.89 -1.25598 1.58334 0
M  V30 5038 C 498.211 -1.93114 0.270538 0
M  V30 5039 O 497.481 -1.82585 -0.709891 0
M  V30 5040 H 496.061 -0.466571 0.58337 0
M  V30 5041 H 498.723 -0.584547 1.85928 0
M  V30 5042 H 497.819 -2.02159 2.37778 0
M  V30 5043 N 498.12 -1.38341 -0.754957 0
M  V30 5044 C 499.05 -1.38176 -1.88227 0
M  V30 5045 C 500.031 -0.247873 -1.68284 0
M  V30 5046 O 501.216 -0.45075 -1.88896 0
M  V30 5047 C 498.346 -1.20471 -3.25736 0
M  V30 5048 C 497.3 -2.3105 -3.60278 0
M  V30 5049 C 496.626 -1.98452 -4.96509 0
M  V30 5050 C 497.926 -3.73305 -3.65295 0
M  V30 5051 H 499.62 -2.32512 -1.88622 0
M  V30 5052 H 497.166 -1.1192 -0.906082 0
M  V30 5053 H 499.119 -1.18982 -4.04254 0
M  V30 5054 H 497.843 -0.225965 -3.25817 0
M  V30 5055 H 496.502 -2.31723 -2.84078 0
M  V30 5056 H 496.15 -0.990641 -4.93148 0
M  V30 5057 H 495.85 -2.7251 -5.20588 0
M  V30 5058 H 497.374 -1.98578 -5.77407 0
M  V30 5059 H 498.788 -3.7467 -4.3393 0
M  V30 5060 H 497.185 -4.46557 -4.00883 0
M  V30 5061 H 498.255 -4.05719 -2.65556 0
M  V30 5062 N 499.598 0.982988 -1.23187 0
M  V30 5063 C 501.014 1.2487 -0.993967 0
M  V30 5064 C 501.214 1.99155 0.306498 0
M  V30 5065 O 500.27 2.30688 1.0266 0
M  V30 5066 C 501.583 2.05078 -2.19917 0
M  V30 5067 C 503.131 2.18227 -2.2438 0
M  V30 5068 C 503.606 3.01825 -3.44479 0
M  V30 5069 N 505.097 3.09411 -3.44702 0
M  V30 5070 C 505.832 3.74412 -4.34285 0
M  V30 5071 N 505.328 4.41259 -5.341 0
M  V30 5072 N 507.121 3.71273 -4.22035 0
M  V30 5073 H 499.272 0.485253 -2.06783 0
M  V30 5074 H 501.535 0.276979 -0.906635 0
M  V30 5075 H 501.241 1.57867 -3.14279 0
M  V30 5076 H 501.115 3.05829 -2.2079 0
M  V30 5077 H 503.502 2.64648 -1.30559 0
M  V30 5078 H 503.583 1.16873 -2.2754 0
M  V30 5079 H 503.227 2.56102 -4.38605 0
M  V30 5080 H 503.157 4.03342 -3.38559 0
M  V30 5081 H 505.648 2.61845 -2.7248 0
M  V30 5082 H 505.961 4.88629 -5.98717 0
M  V30 5083 H 504.306 4.39975 -5.38002 0
M  V30 5084 H 507.497 3.18217 -3.43301 0
M  V30 5085 H 507.67 4.21649 -4.92053 0
M  V30 5086 N 501.076 1.04316 1.18135 0
M  V30 5087 C 502.487 0.775505 1.69832 0
M  V30 5088 C 502.838 -0.703348 1.8316 0
M  V30 5089 O 501.963 -1.54729 1.51287 0
M  V30 5090 C 502.558 1.40112 3.0847 0
M  V30 5091 C 501.117 1.18172 3.57368 0
M  V30 5092 C 500.264 1.49022 2.33854 0
M  V30 5093 H 503.215 1.20925 1.02775 0
M  V30 5094 H 503.236 0.805672 3.71873 0
M  V30 5095 H 502.748 2.47744 2.98738 0
M  V30 5096 H 500.849 0.124258 3.72393 0
M  V30 5097 H 500.962 1.8805 4.40652 0
M  V30 5098 H 499.326 0.909995 2.37889 0
M  V30 5099 H 500.109 2.57768 2.26738 0
M  V30 5100 N 502.554 -1.34406 0.822964 0
M  V30 5101 C 503.484 -2.32052 0.259608 0
M  V30 5102 C 504.465 -1.58243 -0.623961 0
M  V30 5103 O 505.65 -1.86224 -0.55083 0
M  V30 5104 C 502.78 -3.42434 -0.579314 0
M  V30 5105 C 501.734 -4.27499 0.20712 0
M  V30 5106 C 501.06 -5.29349 -0.754547 0
M  V30 5107 C 502.36 -5.02758 1.41533 0
M  V30 5108 H 504.054 -2.79418 1.07545 0
M  V30 5109 H 501.6 -1.34338 0.518593 0
M  V30 5110 H 503.553 -4.0976 -0.983612 0
M  V30 5111 H 502.277 -2.93717 -1.4282 0
M  V30 5112 H 500.936 -3.61776 0.592787 0
M  V30 5113 H 500.584 -4.76895 -1.59939 0
M  V30 5114 H 500.284 -5.8714 -0.232561 0
M  V30 5115 H 501.808 -5.99544 -1.1567 0
M  V30 5116 H 503.222 -5.62938 1.08504 0
M  V30 5117 H 501.619 -5.70123 1.87296 0
M  V30 5118 H 502.689 -4.32451 2.1935 0
M  V30 5119 N 504.032 -0.577932 -1.46621 0
M  V30 5120 C 505.279 -0.0616879 -2.02406 0
M  V30 5121 C 505.607 1.29638 -1.44997 0
M  V30 5122 O 504.862 1.86176 -0.60308 0
M  V30 5123 C 505.161 0.0590832 -3.57351 0
M  V30 5124 C 504.827 -1.23077 -4.33777 0
M  V30 5125 C 503.489 -1.58416 -4.54376 0
M  V30 5126 C 505.841 -2.08457 -4.77698 0
M  V30 5127 C 503.169 -2.78943 -5.16147 0
M  V30 5128 C 505.521 -3.28204 -5.408 0
M  V30 5129 C 504.185 -3.63832 -5.59627 0
M  V30 5130 H 503.455 -0.0225732 -0.740656 0
M  V30 5131 H 506.102 -0.753609 -1.76048 0
M  V30 5132 H 504.407 0.834104 -3.82818 0
M  V30 5133 H 506.104 0.474202 -3.98186 0
M  V30 5134 H 502.694 -0.945652 -4.18038 0
M  V30 5135 H 506.878 -1.82459 -4.61544 0
M  V30 5136 H 502.134 -3.06689 -5.28916 0
M  V30 5137 H 506.308 -3.94634 -5.73792 0
M  V30 5138 H 503.935 -4.57315 -6.07262 0
M  V30 5139 N 505.51 1.54411 -0.315457 0
M  V30 5140 C 506.42 2.27737 0.56329 0
M  V30 5141 C 507.436 1.31787 1.13614 0
M  V30 5142 O 508.612 1.64791 1.15784 0
M  V30 5143 C 505.677 3.01478 1.71207 0
M  V30 5144 C 504.738 4.12997 1.17185 0
M  V30 5145 C 503.971 4.83212 2.26588 0
M  V30 5146 O 504.194 4.52884 3.46775 0
M  V30 5147 O 503.128 5.70299 1.92463 0
M  V30 5148 H 506.954 3.03683 -0.0319614 0
M  V30 5149 H 504.539 1.49178 -0.0814188 0
M  V30 5150 H 506.421 3.47683 2.38106 0
M  V30 5151 H 505.096 2.28414 2.29366 0
M  V30 5152 H 504.003 3.71159 0.468174 0
M  V30 5153 H 505.336 4.8808 0.635501 0
M  V30 5154 N 506.988 0.0434614 1.5754 0
M  V30 5155 C 507.935 -0.93356 2.11077 0
M  V30 5156 C 508.905 -1.31383 1.01626 0
M  V30 5157 O 510.09 -1.40465 1.29129 0
M  V30 5158 C 507.23 -2.20578 2.65404 0
M  V30 5159 C 506.343 -1.88068 3.88914 0
M  V30 5160 C 505.478 -3.09691 4.31584 0
M  V30 5161 C 504.517 -2.73067 5.47815 0
M  V30 5162 N 503.654 -3.87359 5.85574 0
M  V30 5163 H 508.494 -0.470118 2.94268 0
M  V30 5164 H 506.031 -0.220434 1.45439 0
M  V30 5165 H 507.989 -2.95011 2.94999 0
M  V30 5166 H 506.619 -2.64513 1.85021 0
M  V30 5167 H 505.671 -1.03816 3.6596 0
M  V30 5168 H 506.983 -1.57104 4.73413 0
M  V30 5169 H 506.137 -3.92431 4.62691 0
M  V30 5170 H 504.876 -3.43827 3.45882 0
M  V30 5171 H 503.881 -1.88742 5.16388 0
M  V30 5172 H 505.106 -2.40131 6.35227 0
M  V30 5173 H 503.052 -4.21311 5.02825 0
M  V30 5174 H 502.969 -3.60068 6.64746 0
M  V30 5175 H 504.237 -4.70761 6.21292 0
M  V30 5176 N 508.466 -1.55915 -0.229846 0
M  V30 5177 C 509.413 -1.91734 -1.28478 0
M  V30 5178 C 510.383 -0.773539 -1.46988 0
M  V30 5179 O 511.568 -1.02871 -1.60693 0
M  V30 5180 C 508.708 -2.23224 -2.63182 0
M  V30 5181 C 507.821 -3.50497 -2.52539 0
M  V30 5182 C 506.956 -3.71474 -3.79711 0
M  V30 5183 C 505.995 -4.92289 -3.63755 0
M  V30 5184 N 505.132 -5.09698 -4.82858 0
M  V30 5185 H 509.972 -2.81692 -0.972308 0
M  V30 5186 H 507.509 -1.39429 -0.468815 0
M  V30 5187 H 509.467 -2.3949 -3.41614 0
M  V30 5188 H 508.097 -1.36451 -2.92542 0
M  V30 5189 H 507.149 -3.4247 -1.65585 0
M  V30 5190 H 508.461 -4.39079 -2.36666 0
M  V30 5191 H 507.615 -3.87791 -4.66586 0
M  V30 5192 H 506.354 -2.81157 -3.985 0
M  V30 5193 H 505.359 -4.7593 -2.75264 0
M  V30 5194 H 506.584 -5.84083 -3.46445 0
M  V30 5195 H 504.53 -4.22322 -5.01976 0
M  V30 5196 H 504.447 -5.92399 -4.69681 0
M  V30 5197 H 505.715 -5.30443 -5.71183 0
M  V30 5198 N 509.944 0.496216 -1.49584 0
M  V30 5199 C 511.169 1.27865 -1.63295 0
M  V30 5200 C 511.594 1.85592 -0.306156 0
M  V30 5201 O 510.952 1.66092 0.726851 0
M  V30 5202 C 511 2.38128 -2.7079 0
M  V30 5203 O 510.104 3.42108 -2.30296 0
M  V30 5204 H 509.445 0.377279 -0.546403 0
M  V30 5205 H 511.975 0.593497 -1.95803 0
M  V30 5206 H 511.985 2.8382 -2.93104 0
M  V30 5207 H 510.66 1.95479 -3.67098 0
M  V30 5208 H 509.237 3.02301 -2.18331 0
M  V30 5209 N 511.423 1.38739 0.74761 0
M  V30 5210 C 512.353 1.39173 1.87492 0
M  V30 5211 C 513.334 0.256794 1.6815 0
M  V30 5212 O 514.519 0.460762 1.88655 0
M  V30 5213 C 511.649 1.22197 3.25093 0
M  V30 5214 C 510.603 2.32957 3.59047 0
M  V30 5215 C 509.929 2.01082 4.95449 0
M  V30 5216 C 511.229 3.75237 3.6331 0
M  V30 5217 H 512.923 2.3351 1.87386 0
M  V30 5218 H 510.469 1.12399 0.900134 0
M  V30 5219 H 512.422 1.21124 4.03617 0
M  V30 5220 H 511.146 0.243241 3.25693 0
M  V30 5221 H 509.805 2.33226 2.82845 0
M  V30 5222 H 509.453 1.01678 4.92616 0
M  V30 5223 H 509.153 2.75267 5.19136 0
M  V30 5224 H 510.677 2.01638 5.76346 0
M  V30 5225 H 512.091 3.76966 4.31937 0
M  V30 5226 H 510.488 4.48677 3.98509 0
M  V30 5227 H 511.558 4.07122 2.634 0
M  V30 5228 N 512.901 -0.976442 1.23707 0
M  V30 5229 C 513.811 -2.10359 1.03856 0
M  V30 5230 C 514.827 -1.73991 -0.0180919 0
M  V30 5231 O 516.003 -2.0061 0.178211 0
M  V30 5232 C 513.068 -3.40809 0.636387 0
M  V30 5233 C 512.129 -3.91179 1.76854 0
M  V30 5234 C 511.362 -5.15404 1.38546 0
M  V30 5235 O 511.585 -5.69754 0.27142 0
M  V30 5236 O 510.519 -5.5994 2.20797 0
M  V30 5237 H 514.345 -2.29997 1.98331 0
M  V30 5238 H 511.93 -1.08742 1.02448 0
M  V30 5239 H 513.812 -4.19269 0.423223 0
M  V30 5240 H 512.487 -3.22493 -0.279322 0
M  V30 5241 H 511.394 -3.13819 2.03638 0
M  V30 5242 H 512.727 -4.13958 2.6627 0
M  V30 5243 N 514.379 -1.04941 -1.1758 0
M  V30 5244 C 515.656 -0.671918 -1.83697 0
M  V30 5245 C 516.036 0.847929 -1.93322 0
M  V30 5246 O 515.384 1.75287 -1.46583 0
M  V30 5247 C 515.594 -1.35797 -3.21497 0
M  V30 5248 C 516.942 -1.4944 -3.97433 0
M  V30 5249 O 517.966 -1.31678 -3.30967 0
M  V30 5250 O 516.825 -1.78463 -5.1654 0
M  V30 5251 H 513.919 -0.236212 -0.792548 0
M  V30 5252 H 516.465 -1.14884 -1.24899 0
M  V30 5253 H 515.237 -2.39498 -3.09446 0
M  V30 5254 H 514.86 -0.870236 -3.8796 0
M  V30 5255 N 515.857 1.33968 -0.830081 0
M  V30 5256 C 516.804 2.29387 -0.255008 0
M  V30 5257 C 517.774 1.53923 0.624243 0
M  V30 5258 O 518.959 1.82262 0.564372 0
M  V30 5259 C 516.099 3.4034 0.571209 0
M  V30 5260 C 515.212 4.30729 -0.331083 0
M  V30 5261 C 514.347 5.2879 0.505389 0
M  V30 5262 C 513.386 6.10819 -0.395843 0
M  V30 5263 N 512.523 7.00948 0.401979 0
M  V30 5264 H 517.363 2.77972 -1.07404 0
M  V30 5265 H 514.9 1.36785 -0.541133 0
M  V30 5266 H 516.858 4.03361 1.06562 0
M  V30 5267 H 515.488 2.9297 1.35529 0
M  V30 5268 H 514.54 3.68507 -0.943759 0
M  V30 5269 H 515.852 4.88181 -1.02377 0
M  V30 5270 H 515.006 5.97297 1.06399 0
M  V30 5271 H 513.745 4.71894 1.23155 0
M  V30 5272 H 512.75 5.41238 -0.966529 0
M  V30 5273 H 513.975 6.69797 -1.12023 0
M  V30 5274 H 511.921 6.46512 1.11168 0
M  V30 5275 H 511.838 7.55643 -0.232167 0
M  V30 5276 H 513.106 7.73774 0.943102 0
M  V30 5277 N 517.335 0.585699 1.46312 0
M  V30 5278 C 518.563 0.0781299 2.06752 0
M  V30 5279 C 518.978 -1.22812 1.43396 0
M  V30 5280 O 518.335 -1.74318 0.540314 0
M  V30 5281 C 518.386 -0.0911927 3.61385 0
M  V30 5282 O 518.107 1.16336 4.22371 0
M  V30 5283 C 519.608 -0.632765 4.38761 0
M  V30 5284 H 516.828 0.0588188 0.668417 0
M  V30 5285 H 519.372 0.807218 1.87894 0
M  V30 5286 H 517.527 -0.770514 3.7966 0
M  V30 5287 H 517.941 0.979082 5.15281 0
M  V30 5288 H 519.415 -0.70041 5.47538 0
M  V30 5289 H 519.892 -1.65039 4.07012 0
M  V30 5290 H 520.498 0.0117856 4.25298 0
M  V30 5291 N 518.813 -1.54241 0.323641 0
M  V30 5292 C 519.723 -2.28033 -0.551205 0
M  V30 5293 C 520.739 -1.32388 -1.12913 0
M  V30 5294 O 521.915 -1.65403 -1.14908 0
M  V30 5295 C 518.98 -3.02382 -1.69606 0
M  V30 5296 C 518.041 -4.13612 -1.14993 0
M  V30 5297 C 517.274 -4.84407 -2.24022 0
M  V30 5298 O 517.497 -4.54716 -3.44368 0
M  V30 5299 O 516.431 -5.71312 -1.89436 0
M  V30 5300 H 520.257 -3.03662 0.048066 0
M  V30 5301 H 517.842 -1.49133 0.0893289 0
M  V30 5302 H 519.724 -3.48941 -2.36259 0
M  V30 5303 H 518.399 -2.29628 -2.28151 0
M  V30 5304 H 517.306 -3.71402 -0.448484 0
M  V30 5305 H 518.639 -4.8841 -0.609608 0
M  V30 5306 N 520.291 -0.0518155 -1.57515 0
M  V30 5307 C 521.707 0.304735 -1.56664 0
M  V30 5308 C 521.907 1.71395 -1.05953 0
M  V30 5309 O 520.963 2.42123 -0.716414 0
M  V30 5310 C 522.276 0.132614 -3.00407 0
M  V30 5311 C 523.824 0.20367 -3.12337 0
M  V30 5312 C 524.299 0.0600706 -4.57961 0
M  V30 5313 N 525.79 0.116326 -4.63054 0
M  V30 5314 C 526.525 0.0293363 -5.73392 0
M  V30 5315 N 526.021 -0.110038 -6.92713 0
M  V30 5316 N 527.814 0.0849651 -5.62036 0
M  V30 5317 H 519.965 -0.973056 -1.888 0
M  V30 5318 H 522.228 -0.377781 -0.869474 0
M  V30 5319 H 521.934 -0.839019 -3.41546 0
M  V30 5320 H 521.808 0.893376 -3.66468 0
M  V30 5321 H 524.195 1.16578 -2.71097 0
M  V30 5322 H 524.276 -0.587857 -2.48954 0
M  V30 5323 H 523.92 -0.898715 -4.99886 0
M  V30 5324 H 523.85 0.87075 -5.19351 0
M  V30 5325 H 526.341 0.22327 -3.7724 0
M  V30 5326 H 526.654 -0.169104 -7.72615 0
M  V30 5327 H 524.999 -0.145132 -6.94848 0
M  V30 5328 H 528.19 0.192411 -4.67704 0
M  V30 5329 H 528.363 0.0137131 -6.47999 0
M  V30 5330 N 521.769 1.56035 0.221574 0
M  V30 5331 C 522.679 1.95581 1.29558 0
M  V30 5332 C 523.695 0.859639 1.51282 0
M  V30 5333 O 524.871 1.16321 1.64413 0
M  V30 5334 C 521.936 2.26447 2.62531 0
M  V30 5335 C 520.997 3.49632 2.4911 0
M  V30 5336 C 520.23 3.79017 3.75742 0
M  V30 5337 O 520.453 3.10077 4.78757 0
M  V30 5338 O 519.387 4.72507 3.72855 0
M  V30 5339 H 523.213 2.8711 0.990035 0
M  V30 5340 H 520.798 1.43244 0.424434 0
M  V30 5341 H 522.68 2.47494 3.41064 0
M  V30 5342 H 521.355 1.38092 2.92766 0
M  V30 5343 H 520.262 3.33864 1.68777 0
M  V30 5344 H 521.595 4.3837 2.23814 0
M  V30 5345 N 523.247 -0.488276 1.49845 0
M  V30 5346 C 524.177 -1.59675 1.70371 0
M  V30 5347 C 525.158 -1.60878 0.552473 0
M  V30 5348 O 526.343 -1.77417 0.78973 0
M  V30 5349 C 523.473 -2.98098 1.782 0
M  V30 5350 C 522.427 -3.11761 2.93239 0
M  V30 5351 C 521.753 -4.51661 2.86193 0
M  V30 5352 C 523.053 -2.90589 4.33999 0
M  V30 5353 H 524.747 -1.42752 2.63177 0
M  V30 5354 H 522.293 -0.685317 1.26647 0
M  V30 5355 H 524.246 -3.75555 1.91144 0
M  V30 5356 H 522.97 -3.16138 0.820018 0
M  V30 5357 H 521.629 -2.36732 2.79917 0
M  V30 5358 H 521.277 -4.66595 1.87877 0
M  V30 5359 H 520.977 -4.61742 3.63412 0
M  V30 5360 H 522.501 -5.31162 3.01163 0
M  V30 5361 H 523.915 -3.57807 4.47936 0
M  V30 5362 H 522.312 -3.1213 5.12538 0
M  V30 5363 H 523.382 -1.86595 4.4756 0
M  V30 5364 N 524.725 -1.39134 -0.740242 0
M  V30 5365 C 525.655 -1.40165 -1.86751 0
M  V30 5366 C 526.636 -0.265708 -1.68012 0
M  V30 5367 O 527.821 -0.47076 -1.88408 0
M  V30 5368 C 524.951 -1.2392 -3.2444 0
M  V30 5369 C 523.905 -2.34858 -3.57807 0
M  V30 5370 C 523.231 -2.03707 -4.94376 0
M  V30 5371 C 524.531 -3.77159 -3.61315 0
M  V30 5372 H 526.225 -2.345 -1.86145 0
M  V30 5373 H 523.771 -1.12875 -0.89416 0
M  V30 5374 H 525.724 -1.23263 -4.02969 0
M  V30 5375 H 524.448 -0.26051 -3.25559 0
M  V30 5376 H 523.107 -2.34723 -2.81604 0
M  V30 5377 H 522.755 -1.04289 -4.9207 0
M  V30 5378 H 522.455 -2.78016 -5.17669 0
M  V30 5379 H 523.979 -2.04691 -5.75268 0
M  V30 5380 H 525.393 -3.79252 -4.29931 0
M  V30 5381 H 523.79 -4.50784 -3.96124 0
M  V30 5382 H 524.86 -4.08513 -2.61238 0
M  V30 5383 N 526.204 0.969867 -1.24223 0
M  V30 5384 C 527.114 2.09806 -1.0497 0
M  V30 5385 C 528.13 1.73998 0.00886455 0
M  V30 5386 O 529.306 2.00513 -0.188848 0
M  V30 5387 C 526.371 3.40467 -0.654452 0
M  V30 5388 C 525.432 3.90236 -1.78926 0
M  V30 5389 C 524.665 5.14662 -1.41277 0
M  V30 5390 O 524.888 5.69602 -0.301632 0
M  V30 5391 O 523.822 5.58761 -2.23763 0
M  V30 5392 H 527.648 2.28942 -1.99548 0
M  V30 5393 H 525.233 1.08197 -1.03023 0
M  V30 5394 H 527.115 4.19039 -0.445452 0
M  V30 5395 H 525.79 3.22636 0.262216 0
M  V30 5396 H 524.697 3.12735 -2.05299 0
M  V30 5397 H 526.03 4.1254 -2.68462 0
M  V30 5398 N 527.682 1.05563 1.17022 0
M  V30 5399 C 528.907 0.788437 1.91829 0
M  V30 5400 C 529.332 -0.650356 1.76499 0
M  V30 5401 O 528.69 -1.45229 1.08527 0
M  V30 5402 C 528.738 1.1786 3.40795 0
M  V30 5403 O 527.842 0.312965 4.11211 0
M  V30 5404 H 527.183 0.288794 0.597908 0
M  V30 5405 H 529.713 1.40948 1.48307 0
M  V30 5406 H 529.723 1.14697 3.91546 0
M  V30 5407 H 528.398 2.22666 3.51273 0
M  V30 5408 H 526.975 0.405515 3.70689 0
M  V30 5409 N 529.16 -1.33526 0.837174 0
M  V30 5410 C 530.39 -2.01754 0.444848 0
M  V30 5411 C 530.798 -1.63149 -0.958072 0
M  V30 5412 O 530.141 -0.839827 -1.63379 0
M  V30 5413 C 530.203 -3.56228 0.483917 0
M  V30 5414 C 529.867 -4.18205 1.84265 0
M  V30 5415 C 530.864 -4.37699 2.80563 0
M  V30 5416 C 528.549 -4.54667 2.13503 0
M  V30 5417 C 530.543 -4.928 4.04261 0
M  V30 5418 C 528.23 -5.09475 3.37458 0
M  V30 5419 C 529.228 -5.28488 4.32654 0
M  V30 5420 O 528.916 -5.82132 5.54417 0
M  V30 5421 H 528.648 -0.652928 0.175104 0
M  V30 5422 H 531.202 -1.71469 1.13082 0
M  V30 5423 H 529.432 -3.85833 -0.258826 0
M  V30 5424 H 531.121 -4.05752 0.109653 0
M  V30 5425 H 531.887 -4.0988 2.59274 0
M  V30 5426 H 527.766 -4.39164 1.40201 0
M  V30 5427 H 531.31 -5.07555 4.78574 0
M  V30 5428 H 527.207 -5.36725 3.58604 0
M  V30 5429 H 527.975 -6.00548 5.56133 0
M  V30 5430 N 530.638 -0.59345 -1.46 0
M  V30 5431 C 531.887 -0.0808084 -2.01538 0
M  V30 5432 C 532.2 1.29112 -1.46934 0
M  V30 5433 O 533.406 1.8957 -1.94359 0
M  V30 5434 C 531.862 -0.0938311 -3.59778 0
M  V30 5435 C 531.47 -1.46474 -4.23379 0
M  V30 5436 C 533.214 0.364306 -4.22934 0
M  V30 5437 C 531.121 -1.4349 -5.73729 0
M  V30 5438 H 530.051 -0.0264407 -0.753536 0
M  V30 5439 H 532.702 -0.746689 -1.67621 0
M  V30 5440 H 531.084 0.638427 -3.9082 0
M  V30 5441 H 532.258 -2.21758 -4.03931 0
M  V30 5442 H 530.573 -1.86379 -3.7236 0
M  V30 5443 H 533.17 0.405584 -5.3316 0
M  V30 5444 H 533.513 1.38409 -3.92618 0
M  V30 5445 H 534.046 -0.31423 -3.96557 0
M  V30 5446 H 530.785 -2.43184 -6.08722 0
M  V30 5447 H 530.305 -0.724431 -5.95409 0
M  V30 5448 H 531.984 -1.15243 -6.36654 0
M  V30 5449 N 532.116 1.54067 -0.331816 0
M  V30 5450 C 533.393 1.92915 0.322955 0
M  V30 5451 C 533.773 1.26225 1.69205 0
M  V30 5452 O 533.121 0.408919 2.24811 0
M  V30 5453 C 533.331 3.46619 0.406946 0
M  V30 5454 C 534.679 4.19386 0.663339 0
M  V30 5455 O 535.703 3.5282 0.489536 0
M  V30 5456 O 534.562 5.37288 0.999193 0
M  V30 5457 H 531.656 0.805808 0.186016 0
M  V30 5458 H 534.202 1.65342 -0.382135 0
M  V30 5459 H 532.974 3.87354 -0.554287 0
M  V30 5460 H 532.597 3.80324 1.15929 0
M  V30 5461 N 533.594 0.0601682 1.57485 0
M  V30 5462 C 534.842 -0.610386 1.92662 0
M  V30 5463 C 535.163 -1.70849 0.939981 0
M  V30 5464 O 534.433 -1.95895 -0.0137455 0
M  V30 5465 H 533.013 -0.228457 0.711208 0
M  V30 5466 H 535.675 0.115288 1.94559 0
M  V30 5467 H 534.771 -1.0432 2.94149 0
M  V30 5468 N 535.072 -1.5615 -0.213296 0
M  V30 5469 C 536.488 -1.49327 -0.56336 0
M  V30 5470 C 536.688 -0.756826 -1.86747 0
M  V30 5471 O 535.744 -0.299866 -2.50713 0
M  V30 5472 C 537.057 -2.9392 -0.634944 0
M  V30 5473 C 538.605 -3.04487 -0.725013 0
M  V30 5474 C 539.08 -4.50456 -0.82787 0
M  V30 5475 N 540.571 -4.54533 -0.891876 0
M  V30 5476 C 541.306 -5.64766 -0.991315 0
M  V30 5477 N 540.802 -6.84733 -1.05419 0
M  V30 5478 N 542.595 -5.52637 -1.02709 0
M  V30 5479 H 534.746 -2.02453 0.642366 0
M  V30 5480 H 537.009 -0.920548 0.226487 0
M  V30 5481 H 536.715 -3.50783 0.253859 0
M  V30 5482 H 536.589 -3.46274 -1.49579 0
M  V30 5483 H 538.976 -2.47685 -1.60425 0
M  V30 5484 H 539.057 -2.55289 0.161669 0
M  V30 5485 H 538.701 -5.07878 0.0469464 0
M  V30 5486 H 538.631 -4.97369 -1.73009 0
M  V30 5487 H 541.122 -3.68141 -0.85327 0
M  V30 5488 H 541.435 -7.64493 -1.13007 0
M  V30 5489 H 539.78 -6.87427 -1.02318 0
M  V30 5490 H 542.971 -4.5784 -0.974687 0
M  V30 5491 H 543.144 -6.38576 -1.10113 0
M  V30 5492 N 536.55 0.480323 -1.50102 0
M  V30 5493 C 537.799 1.22979 -1.59872 0
M  V30 5494 C 538.112 1.93282 -0.30022 0
M  V30 5495 O 539.318 2.70086 -0.276709 0
M  V30 5496 C 537.774 2.23408 -2.82164 0
M  V30 5497 C 537.382 1.5895 -4.18854 0
M  V30 5498 C 539.126 2.99055 -3.01275 0
M  V30 5499 C 537.033 2.57611 -5.32344 0
M  V30 5500 H 535.963 0.462707 -0.59533 0
M  V30 5501 H 538.614 0.501291 -1.7652 0
M  V30 5502 H 536.996 2.99511 -2.59055 0
M  V30 5503 H 538.17 0.887 -4.52182 0
M  V30 5504 H 536.485 0.956191 -4.05273 0
M  V30 5505 H 539.082 3.72876 -3.83233 0
M  V30 5506 H 539.425 3.57897 -2.12639 0
M  V30 5507 H 539.958 2.30066 -3.24522 0
M  V30 5508 H 536.697 2.03521 -6.23105 0
M  V30 5509 H 536.217 3.26041 -5.03445 0
M  V30 5510 H 537.896 3.19627 -5.62537 0
M  V30 5511 N 538.028 1.39524 0.732853 0
M  V30 5512 C 539.274 1.37068 1.49467 0
M  V30 5513 C 539.607 -0.0327166 1.94172 0
M  V30 5514 O 538.882 -0.998071 1.66939 0
M  V30 5515 C 539.165 2.34494 2.73285 0
M  V30 5516 C 539.018 3.83784 2.34585 0
M  V30 5517 C 540.337 2.29717 3.75391 0
M  V30 5518 H 537.456 0.499206 0.542183 0
M  V30 5519 H 540.098 1.70532 0.837783 0
M  V30 5520 H 538.248 2.06087 3.29333 0
M  V30 5521 H 539.92 4.22949 1.84151 0
M  V30 5522 H 538.163 4.00455 1.66787 0
M  V30 5523 H 538.834 4.47444 3.23262 0
M  V30 5524 H 541.31 2.54839 3.28932 0
M  V30 5525 H 540.186 2.99962 4.59689 0
M  V30 5526 H 540.447 1.30291 4.22465 0
M  V30 5527 N 539.506 -0.963266 1.24736 0
M  V30 5528 C 540.416 -2.09246 1.06082 0
M  V30 5529 C 541.432 -1.74 0.000363101 0
M  V30 5530 O 542.608 -2.0041 0.199479 0
M  V30 5531 C 539.673 -3.40115 0.672498 0
M  V30 5532 C 538.734 -3.89282 1.80993 0
M  V30 5533 C 537.967 -5.13905 1.44004 0
M  V30 5534 O 538.19 -5.69434 0.331835 0
M  V30 5535 O 537.124 -5.57566 2.26723 0
M  V30 5536 H 540.95 -2.27881 2.00759 0
M  V30 5537 H 538.535 -1.07649 1.03595 0
M  V30 5538 H 540.417 -4.18797 0.467668 0
M  V30 5539 H 539.092 -3.22771 -0.245102 0
M  V30 5540 H 537.999 -3.11642 2.06955 0
M  V30 5541 H 539.332 -4.1111 2.70646 0
M  V30 5542 N 540.985 -1.06182 -1.16461 0
M  V30 5543 C 542.233 -0.776326 -1.86595 0
M  V30 5544 C 542.554 0.69921 -1.82033 0
M  V30 5545 O 541.824 1.50579 -1.2531 0
M  V30 5546 H 540.404 -0.284184 -0.690832 0
M  V30 5547 H 543.066 -1.34308 -1.41235 0
M  V30 5548 H 542.162 -1.10022 -2.92064 0
M  V30 5549 N 542.463 1.3308 -0.844243 0
M  V30 5550 C 543.688 2.02341 -0.455282 0
M  V30 5551 C 544.113 1.6308 0.93737 0
M  V30 5552 O 543.471 0.826118 1.61385 0
M  V30 5553 C 543.519 3.55743 -0.58988 0
M  V30 5554 O 542.623 4.1063 0.38166 0
M  V30 5555 H 541.964 0.637898 -0.184343 0
M  V30 5556 H 544.494 1.6986 -1.14056 0
M  V30 5557 H 544.504 4.05243 -0.473522 0
M  V30 5558 H 543.179 3.83662 -1.60549 0
M  V30 5559 H 541.756 3.72236 0.22241 0
M  V30 5560 N 543.941 0.601185 1.45683 0
M  V30 5561 C 545.218 0.0261659 1.95582 0
M  V30 5562 C 545.598 -1.4399 1.5437 0
M  V30 5563 O 544.946 -2.13919 0.80318 0
M  V30 5564 C 545.156 0.217557 3.48321 0
M  V30 5565 C 546.504 0.0950076 4.24494 0
M  V30 5566 O 547.528 0.147345 3.55895 0
M  V30 5567 O 546.387 -0.025261 5.46494 0
M  V30 5568 H 543.481 -0.0393688 0.826062 0
M  V30 5569 H 546.027 0.670798 1.55879 0
M  V30 5570 H 544.799 1.23601 3.71266 0
M  V30 5571 H 544.422 -0.46264 3.94899 0
M  V30 5572 N 545.419 -1.53889 0.339982 0
M  V30 5573 C 546.382 -2.23547 -0.50592 0
M  V30 5574 C 547.382 -1.23445 -1.03044 0
M  V30 5575 O 548.572 -1.47909 -0.920253 0
M  V30 5576 C 545.704 -2.95234 -1.7044 0
M  V30 5577 H 546.897 -2.99722 0.103247 0
M  V30 5578 H 544.45 -1.56033 0.0912804 0
M  V30 5579 H 545.185 -2.23236 -2.35236 0
M  V30 5580 H 544.97 -3.68654 -1.33553 0
M  V30 5581 H 546.46 -3.48258 -2.30447 0
M  V30 5582 N 546.897 -0.0685191 -1.57451 0
M  V30 5583 C 547.807 0.914677 -2.16034 0
M  V30 5584 C 548.823 1.32938 -1.12265 0
M  V30 5585 O 549.999 1.40275 -1.44516 0
M  V30 5586 C 547.064 2.16519 -2.70777 0
M  V30 5587 C 546.125 1.80721 -3.89408 0
M  V30 5588 C 545.358 2.9981 -4.41531 0
M  V30 5589 O 545.581 4.13727 -3.92666 0
M  V30 5590 O 544.515 2.79817 -5.32903 0
M  V30 5591 H 548.341 0.446364 -3.00402 0
M  V30 5592 H 545.926 0.154367 -1.486 0
M  V30 5593 H 547.808 2.89856 -3.05878 0
M  V30 5594 H 546.483 2.62454 -1.89471 0
M  V30 5595 H 545.39 1.04646 -3.59166 0
M  V30 5596 H 546.723 1.39571 -4.71997 0
M  V30 5597 N 548.375 1.56261 0.205012 0
M  V30 5598 C 549.624 1.79236 0.925058 0
M  V30 5599 C 549.937 0.640011 1.84833 0
M  V30 5600 O 551.143 0.753809 2.60826 0
M  V30 5601 C 549.599 3.17475 1.69522 0
M  V30 5602 C 549.207 4.40482 0.817269 0
M  V30 5603 C 550.951 3.49766 2.4055 0
M  V30 5604 C 548.858 5.69744 1.58573 0
M  V30 5605 H 547.788 0.668287 0.349153 0
M  V30 5606 H 550.439 1.82629 0.178544 0
M  V30 5607 H 548.821 3.08304 2.48526 0
M  V30 5608 H 549.995 4.60752 0.0665988 0
M  V30 5609 H 548.31 4.15827 0.218316 0
M  V30 5610 H 550.907 4.43573 2.98575 0
M  V30 5611 H 551.25 2.73041 3.14252 0
M  V30 5612 H 551.783 3.60341 1.68522 0
M  V30 5613 H 548.522 6.49407 0.891679 0
M  V30 5614 H 548.042 5.53509 2.31059 0
M  V30 5615 H 549.721 6.1051 2.14212 0
M  V30 5616 N 549.853 -0.472356 1.50355 0
M  V30 5617 C 551.101 -1.22211 1.60962 0
M  V30 5618 C 551.422 -1.92497 0.311439 0
M  V30 5619 O 550.692 -1.8405 -0.671002 0
M  V30 5620 H 549.272 -0.454092 0.593135 0
M  V30 5621 H 551.934 -0.544977 1.87126 0
M  V30 5622 H 551.03 -1.9707 2.42012 0
M  V30 5623 N 551.331 -1.39911 -0.725443 0
M  V30 5624 C 552.264 -1.33788 -1.84867 0
M  V30 5625 C 553.242 -0.209907 -1.61239 0
M  V30 5626 O 554.426 -0.391943 -1.8438 0
M  V30 5627 C 551.553 -1.07975 -3.21028 0
M  V30 5628 C 550.599 -2.23092 -3.635 0
M  V30 5629 S 551.432 -3.85431 -3.71757 0
M  V30 5630 C 552.588 -3.61862 -5.10692 0
M  V30 5631 H 552.821 -2.28848 -1.89779 0
M  V30 5632 H 550.354 -1.26079 -0.891254 0
M  V30 5633 H 552.312 -0.937669 -3.99647 0
M  V30 5634 H 550.973 -0.145865 -3.13761 0
M  V30 5635 H 550.166 -2.00647 -4.62338 0
M  V30 5636 H 549.768 -2.33553 -2.92112 0
M  V30 5637 H 552.06 -3.19719 -5.97316 0
M  V30 5638 H 553.003 -4.60196 -5.38169 0
M  V30 5639 H 553.411 -2.95757 -4.8082 0
M  V30 5640 N 552.809 0.956637 -1.25245 0
M  V30 5641 C 554.034 1.74104 -1.12706 0
M  V30 5642 C 554.459 1.85436 0.315429 0
M  V30 5643 O 553.817 1.33334 1.22848 0
M  V30 5644 C 553.865 3.1338 -1.78396 0
M  V30 5645 O 552.969 3.98485 -1.06224 0
M  V30 5646 H 552.31 0.53476 -0.393609 0
M  V30 5647 H 554.84 1.19924 -1.65769 0
M  V30 5648 H 554.85 3.6385 -1.846 0
M  V30 5649 H 553.525 3.04448 -2.83345 0
M  V30 5650 H 552.102 3.56952 -1.07886 0
M  V30 5651 N 554.287 1.06798 1.15896 0
M  V30 5652 C 555.698 0.811355 1.68149 0
M  V30 5653 C 556.049 -0.664339 1.8461 0
M  V30 5654 O 555.174 -1.51485 1.54535 0
M  V30 5655 C 555.769 1.46624 3.05429 0
M  V30 5656 C 554.328 1.25726 3.54781 0
M  V30 5657 C 553.475 1.53949 2.3064 0
M  V30 5658 H 556.426 1.23078 1.00187 0
M  V30 5659 H 556.447 0.88437 3.7008 0
M  V30 5660 H 555.959 2.54025 2.93416 0
M  V30 5661 H 554.06 0.20322 3.72045 0
M  V30 5662 H 554.173 1.97354 4.36564 0
M  V30 5663 H 552.537 0.96025 2.35905 0
M  V30 5664 H 553.32 2.6252 2.2122 0
M  V30 5665 N 555.766 -1.3263 0.851289 0
M  V30 5666 C 557.012 -1.98061 0.462963 0
M  V30 5667 C 557.367 -1.66162 -0.969948 0
M  V30 5668 O 556.66 -0.937723 -1.67085 0
M  V30 5669 C 556.854 -3.51713 0.635015 0
M  V30 5670 C 556.683 -3.98544 2.0831 0
M  V30 5671 C 555.453 -4.25787 2.72091 0
M  V30 5672 C 557.651 -4.13858 3.0533 0
M  V30 5673 N 555.633 -4.58842 4.07845 0
M  V30 5674 C 557.004 -4.50412 4.26063 0
M  V30 5675 C 559.059 -3.96182 3.0157 0
M  V30 5676 C 557.762 -4.71136 5.43529 0
M  V30 5677 C 559.788 -4.18088 4.18278 0
M  V30 5678 C 559.15 -4.54956 5.37768 0
M  V30 5679 H 555.249 -0.750976 0.218082 0
M  V30 5680 H 557.833 -1.60514 1.10197 0
M  V30 5681 H 556.004 -3.88391 0.0257298 0
M  V30 5682 H 557.736 -4.04118 0.216915 0
M  V30 5683 H 554.491 -4.17734 2.23149 0
M  V30 5684 H 554.915 -4.7956 4.77862 0
M  V30 5685 H 559.557 -3.66783 2.1031 0
M  V30 5686 H 557.275 -4.9939 6.35323 0
M  V30 5687 H 560.861 -4.05918 4.168 0
M  V30 5688 H 559.741 -4.71567 6.26573 0
M  V30 5689 N 557.244 -0.608902 -1.45362 0
M  V30 5690 C 558.176 0.147318 -2.28726 0
M  V30 5691 C 559.189 0.830468 -1.40025 0
M  V30 5692 O 560.378 0.695636 -1.64387 0
M  V30 5693 C 557.478 1.22968 -3.15804 0
M  V30 5694 C 556.651 0.633391 -4.3279 0
M  V30 5695 C 555.71 1.60682 -5.01067 0
M  V30 5696 O 554.736 1.13261 -5.57818 0
M  V30 5697 N 555.938 2.94123 -5.00472 0
M  V30 5698 H 558.703 -0.568014 -2.94268 0
M  V30 5699 H 556.264 -0.448479 -1.55564 0
M  V30 5700 H 558.256 1.88072 -3.58345 0
M  V30 5701 H 556.826 1.84752 -2.52162 0
M  V30 5702 H 556.046 -0.195762 -3.93714 0
M  V30 5703 H 557.334 0.215255 -5.08344 0
M  V30 5704 H 556.732 3.3525 -4.55657 0
M  V30 5705 H 555.289 3.54646 -5.46872 0
M  V30 5706 N 558.722 1.53707 -0.348139 0
M  V30 5707 C 559.968 2.01286 0.247332 0
M  V30 5708 C 560.301 1.23546 1.49834 0
M  V30 5709 O 559.576 0.324331 1.91777 0
M  V30 5710 C 559.859 3.55768 0.556858 0
M  V30 5711 C 559.712 4.44216 -0.706564 0
M  V30 5712 C 561.031 4.1841 1.3646 0
M  V30 5713 H 558.15 0.731677 0.0884201 0
M  V30 5714 H 560.792 1.84106 -0.469584 0
M  V30 5715 H 558.942 3.70539 1.16761 0
M  V30 5716 H 560.614 4.41274 -1.34444 0
M  V30 5717 H 558.857 4.12892 -1.33052 0
M  V30 5718 H 559.528 5.50202 -0.445186 0
M  V30 5719 H 562.004 4.07365 0.848113 0
M  V30 5720 H 560.88 5.26563 1.54992 0
M  V30 5721 H 561.141 3.7333 2.36805 0
M  V30 5722 N 560.2 0.0768682 1.57412 0
M  V30 5723 C 561.133 -0.924685 2.08626 0
M  V30 5724 C 562.111 -1.28792 0.992542 0
M  V30 5725 O 563.295 -1.39634 1.26628 0
M  V30 5726 C 560.422 -2.23131 2.54814 0
M  V30 5727 C 559.468 -2.01928 3.75669 0
M  V30 5728 S 560.301 -1.27397 5.20125 0
M  V30 5729 C 561.457 -2.59329 5.69648 0
M  V30 5730 H 561.69 -0.488928 2.93252 0
M  V30 5731 H 559.223 -0.136014 1.538 0
M  V30 5732 H 561.181 -2.98226 2.82084 0
M  V30 5733 H 559.842 -2.63831 1.70447 0
M  V30 5734 H 559.035 -2.98639 4.05993 0
M  V30 5735 H 558.637 -1.34967 3.48798 0
M  V30 5736 H 560.929 -3.55394 5.76803 0
M  V30 5737 H 561.872 -2.33608 6.68456 0
M  V30 5738 H 562.28 -2.66767 4.9749 0
M  V30 5739 N 561.678 -1.56367 -0.196722 0
M  V30 5740 C 562.608 -1.97442 -1.24655 0
M  V30 5741 C 563.589 -0.846147 -1.47561 0
M  V30 5742 O 564.774 -1.11035 -1.59326 0
M  V30 5743 C 561.904 -2.31253 -2.59112 0
M  V30 5744 C 560.858 -3.46804 -2.50821 0
M  V30 5745 C 560.184 -3.66286 -3.89536 0
M  V30 5746 C 561.484 -4.8104 -2.03465 0
M  V30 5747 H 563.178 -2.85388 -0.905216 0
M  V30 5748 H 560.724 -1.37304 -0.434002 0
M  V30 5749 H 562.677 -2.58583 -3.32736 0
M  V30 5750 H 561.401 -1.40188 -2.94983 0
M  V30 5751 H 560.06 -3.19563 -1.79653 0
M  V30 5752 H 559.708 -2.72555 -4.22756 0
M  V30 5753 H 559.408 -4.4402 -3.84864 0
M  V30 5754 H 560.932 -3.9599 -4.64784 0
M  V30 5755 H 562.346 -5.07411 -2.66846 0
M  V30 5756 H 560.743 -5.62232 -2.09798 0
M  V30 5757 H 561.813 -4.74732 -0.98781 0
M  V30 5758 N 563.156 0.464375 -1.50603 0
M  V30 5759 C 564.403 1.21596 -1.61928 0
M  V30 5760 C 564.731 1.91804 -0.322737 0
M  V30 5761 O 563.986 1.83065 0.691776 0
M  V30 5762 C 564.285 2.278 -2.75394 0
M  V30 5763 C 563.951 1.74797 -4.1564 0
M  V30 5764 C 562.613 1.60063 -4.53799 0
M  V30 5765 C 564.965 1.35548 -5.03266 0
M  V30 5766 C 562.293 1.04514 -5.77316 0
M  V30 5767 C 564.645 0.814381 -6.27336 0
M  V30 5768 C 563.309 0.653726 -6.64291 0
M  V30 5769 H 562.579 0.444951 -0.592536 0
M  V30 5770 H 565.226 0.510964 -1.84557 0
M  V30 5771 H 563.531 3.04233 -2.46879 0
M  V30 5772 H 565.228 2.85723 -2.81359 0
M  V30 5773 H 561.818 1.87234 -3.8554 0
M  V30 5774 H 566.002 1.45763 -4.74412 0
M  V30 5775 H 561.258 0.908186 -6.04617 0
M  V30 5776 H 565.432 0.501626 -6.94591 0
M  V30 5777 H 563.059 0.22114 -7.59878 0
M  V30 5778 N 564.634 1.40294 0.718013 0
M  V30 5779 C 566.05 1.2227 1.02577 0
M  V30 5780 C 566.25 0.0961976 2.0127 0
M  V30 5781 O 565.306 -0.546695 2.46511 0
M  V30 5782 C 566.619 2.56348 1.57182 0
M  V30 5783 C 568.167 2.6334 1.69178 0
M  V30 5784 C 568.642 3.9768 2.27188 0
M  V30 5785 N 570.133 3.99409 2.34578 0
M  V30 5786 C 570.868 5.00141 2.8044 0
M  V30 5787 N 570.364 6.11268 3.26073 0
M  V30 5788 N 572.157 4.87511 2.79802 0
M  V30 5789 H 564.308 2.12304 0.0637899 0
M  V30 5790 H 566.571 0.943632 0.0909036 0
M  V30 5791 H 566.277 3.3942 0.921262 0
M  V30 5792 H 566.151 2.77266 2.55741 0
M  V30 5793 H 568.538 1.80641 2.33351 0
M  V30 5794 H 568.619 2.46255 0.692247 0
M  V30 5795 H 568.263 4.80817 1.63638 0
M  V30 5796 H 568.193 4.12093 3.27852 0
M  V30 5797 H 570.684 3.19162 2.02346 0
M  V30 5798 H 570.997 6.84023 3.59628 0
M  V30 5799 H 569.342 6.14837 3.24038 0
M  V30 5800 H 572.533 3.9979 2.43487 0
M  V30 5801 H 572.706 5.66158 3.15228 0
M  V30 5802 N 566.112 -0.949982 1.2575 0
M  V30 5803 C 567.059 -2.04738 1.06541 0
M  V30 5804 C 568.029 -1.66078 -0.0268818 0
M  V30 5805 O 569.214 -1.90348 0.131196 0
M  V30 5806 C 566.354 -3.38027 0.695127 0
M  V30 5807 C 565.467 -3.89776 1.86276 0
M  V30 5808 C 564.602 -5.11411 1.4364 0
M  V30 5809 C 563.641 -5.554 2.57287 0
M  V30 5810 N 562.778 -6.68244 2.15395 0
M  V30 5811 H 567.618 -2.20502 2.00457 0
M  V30 5812 H 565.155 -1.0805 0.998178 0
M  V30 5813 H 567.113 -4.14641 0.461375 0
M  V30 5814 H 565.743 -3.22135 -0.207046 0
M  V30 5815 H 564.795 -3.0964 2.20969 0
M  V30 5816 H 566.107 -4.18368 2.71606 0
M  V30 5817 H 565.261 -5.95457 1.16257 0
M  V30 5818 H 564 -4.84545 0.553879 0
M  V30 5819 H 563.005 -4.69916 2.85409 0
M  V30 5820 H 564.23 -5.84272 3.46125 0
M  V30 5821 H 562.176 -6.43078 1.29565 0
M  V30 5822 H 562.093 -6.96377 2.94272 0
M  V30 5823 H 563.361 -7.55687 1.91201 0
M  V30 5824 N 567.59 -1.07411 -1.15328 0
M  V30 5825 C 568.815 -0.818856 -1.90551 0
M  V30 5826 C 569.24 0.622194 -1.77512 0
M  V30 5827 O 568.598 1.43484 -1.10824 0
M  V30 5828 C 568.646 -1.23267 -3.38877 0
M  V30 5829 O 567.75 -0.378345 -4.10661 0
M  V30 5830 H 567.091 -0.29827 -0.593238 0
M  V30 5831 H 569.621 -1.43289 -1.46046 0
M  V30 5832 H 569.631 -1.20912 -3.89672 0
M  V30 5833 H 568.306 -2.28226 -3.47686 0
M  V30 5834 H 566.883 -0.464437 -3.69996 0
M  V30 5835 N 569.068 1.32177 -0.85831 0
M  V30 5836 C 570.479 1.79381 -0.517621 0
M  V30 5837 C 570.83 1.70841 0.964769 0
M  V30 5838 O 569.955 1.26917 1.75274 0
M  V30 5839 C 570.55 3.25706 -0.932801 0
M  V30 5840 C 569.109 3.70851 -0.643953 0
M  V30 5841 C 568.256 2.53208 -1.13054 0
M  V30 5842 H 571.207 1.19424 -1.04516 0
M  V30 5843 H 571.228 3.79673 -0.250674 0
M  V30 5844 H 570.74 3.31889 -2.01174 0
M  V30 5845 H 568.841 3.70178 0.424112 0
M  V30 5846 H 568.954 4.63495 -1.21281 0
M  V30 5847 H 567.318 2.48676 -0.550679 0
M  V30 5848 H 568.101 2.62143 -2.21666 0
M  V30 5849 N 570.547 0.616602 1.45037 0
M  V30 5850 C 571.479 -0.135186 2.28801 0
M  V30 5851 C 572.492 -0.82303 1.40464 0
M  V30 5852 O 573.681 -0.686909 1.64754 0
M  V30 5853 C 570.781 -1.21292 3.16451 0
M  V30 5854 C 569.954 -0.61043 4.3312 0
M  V30 5855 C 569.013 -1.58022 5.01912 0
M  V30 5856 O 568.039 -1.10301 5.58411 0
M  V30 5857 N 569.241 -2.91464 5.02025 0
M  V30 5858 H 572.006 0.583612 2.93963 0
M  V30 5859 H 569.567 0.456723 1.55324 0
M  V30 5860 H 571.559 -1.86169 3.59337 0
M  V30 5861 H 570.129 -1.83412 2.53138 0
M  V30 5862 H 569.349 0.216638 3.93604 0
M  V30 5863 H 570.637 -0.188293 5.08451 0
M  V30 5864 H 570.035 -3.32829 4.57429 0
M  V30 5865 H 568.592 -3.51741 5.48745 0
M  V30 5866 N 572.025 -1.5352 0.356285 0
M  V30 5867 C 572.935 -2.29151 -0.502712 0
M  V30 5868 C 573.951 -1.34753 -1.1008 0
M  V30 5869 O 575.127 -1.67803 -1.11374 0
M  V30 5870 C 572.192 -3.05911 -1.63154 0
M  V30 5871 C 571.253 -4.15958 -1.06194 0
M  V30 5872 C 570.486 -4.8905 -2.13696 0
M  V30 5873 O 570.709 -4.61919 -3.34645 0
M  V30 5874 O 569.643 -5.75202 -1.77275 0
M  V30 5875 H 573.469 -3.03492 0.112466 0
M  V30 5876 H 571.054 -1.4891 0.120942 0
M  V30 5877 H 572.936 -3.53874 -2.28804 0
M  V30 5878 H 571.611 -2.34415 -2.23229 0
M  V30 5879 H 570.518 -3.7227 -0.369603 0
M  V30 5880 H 571.851 -4.89593 -0.505872 0
M  V30 5881 N 573.503 -0.0852151 -1.57369 0
M  V30 5882 C 574.433 0.874556 -2.16503 0
M  V30 5883 C 575.414 1.30111 -1.09568 0
M  V30 5884 O 576.599 1.36977 -1.37662 0
M  V30 5885 C 573.729 2.13731 -2.73745 0
M  V30 5886 C 572.683 1.84971 -3.85966 0
M  V30 5887 C 572.009 3.17991 -4.29867 0
M  V30 5888 C 573.309 1.14442 -5.09608 0
M  V30 5889 H 575.003 0.381899 -2.96954 0
M  V30 5890 H 572.549 0.18225 -1.42842 0
M  V30 5891 H 574.502 2.81302 -3.13763 0
M  V30 5892 H 573.226 2.65263 -1.90534 0
M  V30 5893 H 571.885 1.19801 -3.46473 0
M  V30 5894 H 571.533 3.6739 -3.4356 0
M  V30 5895 H 571.233 2.99534 -5.05523 0
M  V30 5896 H 572.757 3.86737 -4.72511 0
M  V30 5897 H 574.171 1.72105 -5.46857 0
M  V30 5898 H 572.568 1.06197 -5.90629 0
M  V30 5899 H 573.638 0.12559 -4.84737 0
M  V30 5900 N 574.981 1.5647 0.188427 0
M  V30 5901 C 575.911 1.98101 1.23606 0
M  V30 5902 C 576.892 0.853961 1.47111 0
M  V30 5903 O 578.077 1.11879 1.58735 0
M  V30 5904 C 575.207 2.32624 2.57882 0
M  V30 5905 C 574.161 3.48129 2.48978 0
M  V30 5906 C 573.487 3.68347 3.87588 0
M  V30 5907 C 574.787 4.82112 2.00911 0
M  V30 5908 H 576.481 2.85864 0.890068 0
M  V30 5909 H 574.027 1.37532 0.426714 0
M  V30 5910 H 575.98 2.60343 3.3136 0
M  V30 5911 H 574.704 1.41751 2.94235 0
M  V30 5912 H 573.363 3.20511 1.77956 0
M  V30 5913 H 573.011 2.74793 4.21305 0
M  V30 5914 H 572.711 4.46055 3.82503 0
M  V30 5915 H 574.235 3.98449 4.62678 0
M  V30 5916 H 575.649 5.08819 2.64151 0
M  V30 5917 H 574.046 5.63337 2.06814 0
M  V30 5918 H 575.116 4.75249 0.96262 0
M  V30 5919 N 576.459 -0.456382 1.50847 0
M  V30 5920 C 577.699 -1.21704 1.64218 0
M  V30 5921 C 578.063 -1.88932 0.341859 0
M  V30 5922 O 579.264 -2.66497 0.351137 0
M  V30 5923 C 577.535 -2.22162 2.79962 0
M  V30 5924 S 579.094 -3.0697 3.13552 0
M  V30 5925 H 575.912 -0.412995 0.578754 0
M  V30 5926 H 578.514 -0.511637 1.88686 0
M  V30 5927 H 577.218 -1.71379 3.72904 0
M  V30 5928 H 576.749 -2.9731 2.57624 0
M  V30 5929 H 578.764 -4.23539 2.58513 0
M  V30 5930 N 577.937 -1.40673 -0.710563 0
M  V30 5931 C 579.185 -1.38947 -1.46759 0
M  V30 5932 C 579.506 0.00572879 -1.94999 0
M  V30 5933 O 578.776 0.961358 -1.70689 0
M  V30 5934 H 577.356 -0.5114 -0.544499 0
M  V30 5935 H 580.018 -1.75773 -0.842012 0
M  V30 5936 H 579.114 -2.06745 -2.33801 0
M  V30 5937 N 579.415 0.9433 -1.26252 0
M  V30 5938 C 580.378 2.02326 -1.07689 0
M  V30 5939 C 581.378 1.60779 -0.0259174 0
M  V30 5940 O 582.568 1.72108 -0.269134 0
M  V30 5941 C 579.7 3.34886 -0.63752 0
M  V30 5942 H 580.893 2.20225 -2.0357 0
M  V30 5943 H 578.446 1.12197 -1.08819 0
M  V30 5944 H 579.181 3.22684 0.323377 0
M  V30 5945 H 578.966 3.66393 -1.39637 0
M  V30 5946 H 580.456 4.14231 -0.529418 0
M  V30 5947 N 580.893 1.08022 1.14757 0
M  V30 5948 C 582.118 0.82895 1.90114 0
M  V30 5949 C 582.543 -0.612772 1.77839 0
M  V30 5950 O 581.901 -1.42895 1.11583 0
M  V30 5951 C 581.949 1.25062 3.38219 0
M  V30 5952 O 581.053 0.400119 4.10454 0
M  V30 5953 H 580.394 0.301412 0.591648 0
M  V30 5954 H 582.924 1.44062 1.45284 0
M  V30 5955 H 582.934 1.22977 3.89025 0
M  V30 5956 H 581.609 2.30067 3.46471 0
M  V30 5957 H 580.186 0.484052 3.69745 0
M  V30 5958 N 582.371 -1.3172 0.865308 0
M  V30 5959 C 583.301 -2.31109 0.333302 0
M  V30 5960 C 584.282 -1.60148 -0.573301 0
M  V30 5961 O 585.467 -1.87882 -0.491305 0
M  V30 5962 C 582.597 -3.44104 -0.470078 0
M  V30 5963 C 581.551 -4.26623 0.343021 0
M  V30 5964 C 580.877 -5.31482 -0.585756 0
M  V30 5965 C 582.177 -4.98001 1.57456 0
M  V30 5966 H 583.871 -2.75855 1.1638 0
M  V30 5967 H 581.417 -1.3262 0.561069 0
M  V30 5968 H 583.37 -4.12682 -0.852752 0
M  V30 5969 H 582.094 -2.98112 -1.33404 0
M  V30 5970 H 580.753 -3.59707 0.707583 0
M  V30 5971 H 580.401 -4.81741 -1.44686 0
M  V30 5972 H 580.101 -5.87582 -0.0456494 0
M  V30 5973 H 581.625 -6.0292 -0.965375 0
M  V30 5974 H 583.039 -5.59201 1.26359 0
M  V30 5975 H 581.436 -5.63876 2.05339 0
M  V30 5976 H 582.506 -4.25253 2.32997 0
M  V30 5977 N 583.85 -0.624285 -1.44708 0
M  V30 5978 C 585.099 -0.123539 -2.01321 0
M  V30 5979 C 585.412 1.25966 -1.49639 0
M  V30 5980 O 586.618 1.85405 -1.98336 0
M  V30 5981 C 585.074 -0.170124 -3.59498 0
M  V30 5982 C 584.682 -1.55421 -4.20176 0
M  V30 5983 C 586.426 0.274513 -4.23611 0
M  V30 5984 C 584.332 -1.55628 -5.70556 0
M  V30 5985 H 583.263 -0.0424183 -0.752806 0
M  V30 5986 H 585.913 -0.782076 -1.65999 0
M  V30 5987 H 584.296 0.555385 -3.92086 0
M  V30 5988 H 585.47 -2.30276 -3.99136 0
M  V30 5989 H 583.784 -1.94235 -3.68323 0
M  V30 5990 H 586.382 0.292402 -5.339 0
M  V30 5991 H 586.725 1.3005 -3.95465 0
M  V30 5992 H 587.258 -0.398275 -3.95801 0
M  V30 5993 H 583.997 -2.56041 -6.03426 0
M  V30 5994 H 583.517 -0.850563 -5.93739 0
M  V30 5995 H 585.196 -1.28721 -6.34066 0
M  V30 5996 N 585.328 1.53329 -0.364422 0
M  V30 5997 C 586.553 2.06132 0.229033 0
M  V30 5998 C 586.978 1.23625 1.41769 0
M  V30 5999 O 586.336 0.255038 1.79497 0
M  V30 6000 C 586.384 3.55544 0.60174 0
M  V30 6001 O 585.488 3.75771 1.69912 0
M  V30 6002 H 584.829 0.663148 0.0336213 0
M  V30 6003 H 587.359 1.97758 -0.524689 0
M  V30 6004 H 587.369 3.98549 0.873073 0
M  V30 6005 H 586.044 4.15039 -0.267421 0
M  V30 6006 H 584.621 3.44663 1.42343 0
M  V30 6007 N 586.806 0.0935595 1.57322 0
M  V30 6008 C 588.083 -0.612692 1.85756 0
M  V30 6009 C 588.463 -1.86439 0.99013 0
M  V30 6010 O 587.811 -2.28416 0.0621362 0
M  V30 6011 C 588.021 -0.929547 3.36393 0
M  V30 6012 C 589.369 -1.29366 4.04413 0
M  V30 6013 O 590.393 -1.02061 3.41265 0
M  V30 6014 O 589.252 -1.80498 5.15832 0
M  V30 6015 H 586.346 -0.306444 0.768128 0
M  V30 6016 H 588.892 0.126141 1.69231 0
M  V30 6017 H 587.664 -0.0414766 3.91278 0
M  V30 6018 H 587.287 -1.72441 3.5826 0
M  V30 6019 N 588.284 -1.56567 -0.180126 0
M  V30 6020 C 589.7 -1.50488 -0.531559 0
M  V30 6021 C 589.9 -0.796267 -1.851 0
M  V30 6022 O 588.956 -0.352978 -2.50021 0
M  V30 6023 C 590.269 -2.95201 -0.572456 0
M  V30 6024 C 591.817 -3.05957 -0.660264 0
M  V30 6025 C 592.292 -4.5211 -0.732135 0
M  V30 6026 N 593.783 -4.56322 -0.795262 0
M  V30 6027 C 594.518 -5.66742 -0.871296 0
M  V30 6028 N 594.014 -6.86815 -0.908708 0
M  V30 6029 N 595.807 -5.54691 -0.909639 0
M  V30 6030 H 587.958 -2.01045 0.685165 0
M  V30 6031 H 590.221 -0.915536 0.245962 0
M  V30 6032 H 589.927 -3.50165 0.328208 0
M  V30 6033 H 589.801 -3.49369 -1.422 0
M  V30 6034 H 592.188 -2.51032 -1.55136 0
M  V30 6035 H 592.269 -2.54888 0.215783 0
M  V30 6036 H 591.913 -5.07664 0.154664 0
M  V30 6037 H 591.843 -5.00926 -1.6242 0
M  V30 6038 H 594.334 -3.69868 -0.77499 0
M  V30 6039 H 594.647 -7.66718 -0.967654 0
M  V30 6040 H 592.992 -6.89443 -0.877132 0
M  V30 6041 H 596.183 -4.59804 -0.877353 0
M  V30 6042 H 596.356 -6.40768 -0.965434 0
M  V30 6043 N 589.762 0.448376 -1.51087 0
M  V30 6044 C 591.008 1.19748 -1.64414 0
M  V30 6045 C 591.363 1.89177 -0.350715 0
M  V30 6046 O 590.656 1.80135 0.652834 0
M  V30 6047 C 590.85 2.24866 -2.77795 0
M  V30 6048 C 590.679 1.65753 -4.18038 0
M  V30 6049 C 589.449 1.44728 -4.8413 0
M  V30 6050 C 591.647 1.13985 -5.0151 0
M  V30 6051 N 589.629 0.810962 -6.0852 0
M  V30 6052 C 591 0.628141 -6.1681 0
M  V30 6053 C 593.055 1.03055 -4.87118 0
M  V30 6054 C 591.758 0.0178906 -7.19298 0
M  V30 6055 C 593.784 0.434212 -5.89804 0
M  V30 6056 C 593.146 -0.0670069 -7.04368 0
M  V30 6057 H 589.245 0.426254 -0.655615 0
M  V30 6058 H 591.829 0.495806 -1.88281 0
M  V30 6059 H 590 2.92434 -2.55611 0
M  V30 6060 H 591.732 2.91857 -2.8036 0
M  V30 6061 H 588.487 1.70593 -4.41809 0
M  V30 6062 H 588.911 0.510563 -6.75072 0
M  V30 6063 H 593.553 1.40395 -3.9881 0
M  V30 6064 H 591.271 -0.367662 -8.07263 0
M  V30 6065 H 594.857 0.3517 -5.80736 0
M  V30 6066 H 593.737 -0.521209 -7.82466 0
M  V30 6067 N 591.24 1.41047 0.703093 0
M  V30 6068 C 592.486 1.40207 1.46526 0
M  V30 6069 C 592.819 0.00847763 1.94198 0
M  V30 6070 O 592.094 -0.962437 1.69019 0
M  V30 6071 C 592.377 2.40238 2.6825 0
M  V30 6072 C 592.23 3.88674 2.26391 0
M  V30 6073 C 593.549 2.37627 3.70434 0
M  V30 6074 H 590.668 0.510594 0.531472 0
M  V30 6075 H 593.31 1.72271 0.801422 0
M  V30 6076 H 591.46 2.13026 3.24888 0
M  V30 6077 H 593.132 4.2676 1.75138 0
M  V30 6078 H 591.375 4.03903 1.58255 0
M  V30 6079 H 592.046 4.542 3.13698 0
M  V30 6080 H 594.522 2.61759 3.23452 0
M  V30 6081 H 593.398 3.09645 4.53223 0
M  V30 6082 H 593.659 1.39223 4.19606 0
M  V30 6083 N 592.718 -0.936591 1.26751 0
M  V30 6084 C 593.648 -2.05315 1.11212 0
M  V30 6085 C 594.629 -1.70092 0.0160262 0
M  V30 6086 O 595.814 -1.93279 0.188894 0
M  V30 6087 C 592.944 -3.39123 0.749171 0
M  V30 6088 C 591.898 -3.88425 1.79751 0
M  V30 6089 C 591.224 -5.18936 1.28876 0
M  V30 6090 C 592.524 -4.12798 3.19992 0
M  V30 6091 H 594.218 -2.18573 2.04613 0
M  V30 6092 H 591.764 -1.05027 0.985159 0
M  V30 6093 H 593.717 -4.16704 0.627323 0
M  V30 6094 H 592.441 -3.25855 -0.220543 0
M  V30 6095 H 591.1 -3.13028 1.90811 0
M  V30 6096 H 590.748 -5.02051 0.308757 0
M  V30 6097 H 590.448 -5.52892 1.98958 0
M  V30 6098 H 591.972 -5.99096 1.17967 0
M  V30 6099 H 593.386 -4.80977 3.11983 0
M  V30 6100 H 591.783 -4.58044 3.87705 0
M  V30 6101 H 592.853 -3.18412 3.65707 0
M  V30 6102 N 594.196 -1.08629 -1.14182 0
M  V30 6103 C 595.424 -0.838889 -1.8913 0
M  V30 6104 C 595.839 0.609153 -1.78703 0
M  V30 6105 O 595.196 1.41876 -1.14794 0
M  V30 6106 C 595.247 -1.25477 -3.39025 0
M  V30 6107 O 594.968 -2.64601 -3.49167 0
M  V30 6108 C 596.469 -1.03856 -4.30963 0
M  V30 6109 H 593.689 -0.302377 -0.599007 0
M  V30 6110 H 596.233 -1.44615 -1.44592 0
M  V30 6111 H 594.388 -0.691571 -3.81177 0
M  V30 6112 H 594.802 -2.81922 -4.42289 0
M  V30 6113 H 596.276 -1.37892 -5.345 0
M  V30 6114 H 596.753 0.0242522 -4.39193 0
M  V30 6115 H 597.359 -1.58731 -3.94569 0
M  V30 6116 N 595.674 1.31259 -0.872281 0
M  V30 6117 C 596.637 2.26744 -0.334656 0
M  V30 6118 C 597.637 1.52307 0.515681 0
M  V30 6119 O 598.827 1.71148 0.324656 0
M  V30 6120 C 595.959 3.36841 0.524482 0
M  V30 6121 H 597.152 2.75812 -1.17762 0
M  V30 6122 H 594.705 1.42232 -0.648064 0
M  V30 6123 H 595.44 2.93069 1.38855 0
M  V30 6124 H 595.225 3.92009 -0.0844299 0
M  V30 6125 H 596.715 4.07944 0.892838 0
M  V30 6126 N 597.152 0.631951 1.44375 0
M  V30 6127 C 598.115 -0.0628142 2.29114 0
M  V30 6128 C 599.115 -0.771494 1.41084 0
M  V30 6129 O 600.305 -0.615959 1.62947 0
M  V30 6130 C 597.437 -1.09953 3.22681 0
M  V30 6131 H 598.63 0.682509 2.92031 0
M  V30 6132 H 596.183 0.392128 1.51301 0
M  V30 6133 H 596.918 -1.87481 2.64616 0
M  V30 6134 H 596.703 -0.595286 3.87555 0
M  V30 6135 H 598.193 -1.58538 3.86336 0
M  V30 6136 N 598.631 -1.53133 0.372548 0
M  V30 6137 C 599.581 -2.22733 -0.487218 0
M  V30 6138 C 600.565 -1.22506 -1.04312 0
M  V30 6139 O 601.757 -1.47923 -0.972005 0
M  V30 6140 C 598.886 -3.02524 -1.62278 0
M  V30 6141 C 597.972 -4.10133 -1.07943 0
M  V30 6142 N 598.363 -5.05133 -0.259629 0
M  V30 6143 C 596.661 -4.24964 -1.35356 0
M  V30 6144 C 597.362 -5.81687 0.0386656 0
M  V30 6145 N 596.338 -5.40699 -0.560827 0
M  V30 6146 H 600.14 -2.93538 0.145853 0
M  V30 6147 H 597.654 -1.61389 0.180938 0
M  V30 6148 H 599.651 -3.50909 -2.25096 0
M  V30 6149 H 598.311 -2.33252 -2.25884 0
M  V30 6150 H 599.322 -5.178 0.101746 0
M  V30 6151 H 595.999 -3.66919 -1.9919 0
M  V30 6152 H 597.389 -6.68224 0.701841 0
M  V30 6153 N 600.109 -0.101901 -1.5727 0
M  V30 6154 C 601.349 0.563489 -1.96479 0
M  V30 6155 C 601.713 1.64926 -0.983021 0
M  V30 6156 O 602.914 2.37234 -1.26386 0
M  V30 6157 C 601.185 1.09809 -3.40113 0
M  V30 6158 S 602.744 1.7744 -4.01323 0
M  V30 6159 H 599.562 0.183675 -0.686866 0
M  V30 6160 H 602.164 -0.182922 -1.94642 0
M  V30 6161 H 600.868 0.296447 -4.09328 0
M  V30 6162 H 600.399 1.88018 -3.45562 0
M  V30 6163 H 602.414 3.0591 -3.90683 0
M  V30 6164 N 601.587 1.56661 0.17182 0
M  V30 6165 C 602.517 1.99401 1.21498 0
M  V30 6166 C 603.498 0.869516 1.46197 0
M  V30 6167 O 604.683 1.13556 1.57539 0
M  V30 6168 C 601.813 2.35346 2.55401 0
M  V30 6169 C 600.767 3.5075 2.45272 0
M  V30 6170 C 600.093 3.72437 3.8366 0
M  V30 6171 C 601.393 4.84216 1.95787 0
M  V30 6172 H 603.087 2.86792 0.859699 0
M  V30 6173 H 600.633 1.37977 0.412103 0
M  V30 6174 H 602.586 2.63843 3.2858 0
M  V30 6175 H 601.31 1.44864 2.92715 0
M  V30 6176 H 599.969 3.2238 1.74547 0
M  V30 6177 H 599.617 2.79246 4.18367 0
M  V30 6178 H 599.317 4.50087 3.77751 0
M  V30 6179 H 600.841 4.03334 4.58426 0
M  V30 6180 H 602.255 5.11592 2.5874 0
M  V30 6181 H 600.652 5.65498 2.00827 0
M  V30 6182 H 601.722 4.76243 0.912159 0
M  V30 6183 N 603.065 -0.440357 1.51323 0
M  V30 6184 C 603.995 -1.54174 1.75364 0
M  V30 6185 C 604.976 -1.59039 0.603375 0
M  V30 6186 O 606.161 -1.74815 0.845774 0
M  V30 6187 C 603.291 -2.92277 1.87593 0
M  V30 6188 C 602.245 -3.02274 3.03009 0
M  V30 6189 C 601.571 -4.42327 3.00418 0
M  V30 6190 C 602.871 -2.76634 4.43024 0
M  V30 6191 H 604.565 -1.34307 2.67585 0
M  V30 6192 H 602.111 -0.644678 1.28763 0
M  V30 6193 H 604.064 -3.69284 2.02995 0
M  V30 6194 H 602.788 -3.13369 0.920179 0
M  V30 6195 H 601.447 -2.27706 2.87307 0
M  V30 6196 H 601.095 -4.60382 2.02626 0
M  V30 6197 H 600.795 -4.49946 3.77918 0
M  V30 6198 H 602.319 -5.21312 3.17909 0
M  V30 6199 H 603.733 -3.43376 4.59093 0
M  V30 6200 H 602.13 -2.95666 5.22208 0
M  V30 6201 H 603.2 -1.72262 4.5327 0
M  V30 6202 N 604.543 -1.41418 -0.695603 0
M  V30 6203 C 605.773 -1.43921 -1.48224 0
M  V30 6204 C 606.181 -0.0428855 -1.89151 0
M  V30 6205 O 605.524 0.948138 -1.5734 0
M  V30 6206 C 605.586 -2.28466 -2.77567 0
M  V30 6207 C 605.25 -3.76629 -2.58844 0
M  V30 6208 C 606.247 -4.6879 -2.24793 0
M  V30 6209 C 603.932 -4.2067 -2.74485 0
M  V30 6210 C 605.926 -6.02981 -2.06622 0
M  V30 6211 C 603.613 -5.54926 -2.55931 0
M  V30 6212 C 604.611 -6.45897 -2.2205 0
M  V30 6213 O 604.299 -7.77675 -2.03657 0
M  V30 6214 H 604.031 -0.492252 -0.463318 0
M  V30 6215 H 606.585 -1.86347 -0.863952 0
M  V30 6216 H 604.815 -1.80853 -3.41802 0
M  V30 6217 H 606.504 -2.2267 -3.39371 0
M  V30 6218 H 607.27 -4.36055 -2.12323 0
M  V30 6219 H 603.149 -3.50167 -2.9984 0
M  V30 6220 H 606.693 -6.73951 -1.80099 0
M  V30 6221 H 602.59 -5.8724 -2.67991 0
M  V30 6222 H 603.358 -7.88819 -2.1842 0
M  V30 6223 N 606.021 0.929856 -1.27246 0
M  V30 6224 C 607.432 1.49223 -1.12203 0
M  V30 6225 C 607.783 1.93989 0.293731 0
M  V30 6226 O 606.908 1.80978 1.18642 0
M  V30 6227 C 607.503 2.71198 -2.0307 0
M  V30 6228 C 606.062 3.23666 -1.92139 0
M  V30 6229 C 605.209 1.96409 -1.95752 0
M  V30 6230 H 608.16 0.744181 -1.4017 0
M  V30 6231 H 608.181 3.45905 -1.58524 0
M  V30 6232 H 607.693 2.38585 -3.06102 0
M  V30 6233 H 605.794 3.61042 -0.920834 0
M  V30 6234 H 605.907 3.90006 -2.78267 0
M  V30 6235 H 604.271 2.12806 -1.39949 0
M  V30 6236 H 605.054 1.66113 -3.00436 0
M  V30 6237 N 607.499 1.09233 1.13605 0
M  V30 6238 C 608.91 0.846839 1.6639 0
M  V30 6239 C 609.261 -0.625031 1.85978 0
M  V30 6240 O 608.386 -1.48173 1.57714 0
M  V30 6241 C 608.981 1.5307 3.0225 0
M  V30 6242 C 607.54 1.33223 3.52035 0
M  V30 6243 C 606.687 1.58806 2.27323 0
M  V30 6244 H 609.638 1.25175 0.975541 0
M  V30 6245 H 609.659 0.96267 3.68121 0
M  V30 6246 H 609.171 2.60192 2.87961 0
M  V30 6247 H 607.272 0.282091 3.71531 0
M  V30 6248 H 607.385 2.0657 4.32279 0
M  V30 6249 H 605.749 1.01007 2.33815 0
M  V30 6250 H 606.532 2.67153 2.15602 0
M  V30 6251 N 608.977 -1.30795 0.87923 0
M  V30 6252 C 610.223 -1.97035 0.50487 0
M  V30 6253 C 610.578 -1.68182 -0.934484 0
M  V30 6254 O 609.871 -0.972953 -1.65058 0
M  V30 6255 C 610.065 -3.50287 0.709476 0
M  V30 6256 C 609.894 -3.94035 2.16717 0
M  V30 6257 C 608.664 -4.1992 2.81061 0
M  V30 6258 C 610.862 -4.07288 3.1404 0
M  V30 6259 N 608.844 -4.50088 4.17486 0
M  V30 6260 C 610.215 -4.41273 4.35521 0
M  V30 6261 C 612.27 -3.89696 3.09906 0
M  V30 6262 C 610.973 -4.59501 5.534 0
M  V30 6263 C 612.999 -4.09122 4.27052 0
M  V30 6264 C 612.361 -4.43447 5.47297 0
M  V30 6265 H 608.46 -0.746181 0.233962 0
M  V30 6266 H 611.044 -1.5814 1.13577 0
M  V30 6267 H 609.215 -3.8825 0.108108 0
M  V30 6268 H 610.947 -4.03567 0.302585 0
M  V30 6269 H 607.702 -4.12906 2.3196 0
M  V30 6270 H 608.126 -4.69316 4.87926 0
M  V30 6271 H 612.768 -3.62239 2.18043 0
M  V30 6272 H 610.486 -4.85802 6.45773 0
M  V30 6273 H 614.072 -3.96985 4.25316 0
M  V30 6274 H 612.952 -4.58171 6.36435 0
M  V30 6275 N 610.455 -0.639598 -1.44038 0
M  V30 6276 C 611.732 -0.078012 -1.95444 0
M  V30 6277 C 612.112 1.39847 -1.58133 0
M  V30 6278 O 611.46 2.11714 -0.859614 0
M  V30 6279 C 611.67 -0.309832 -3.47622 0
M  V30 6280 C 613.018 -0.207521 -4.24093 0
M  V30 6281 O 614.042 -0.241653 -3.55379 0
M  V30 6282 O 612.901 -0.119641 -5.46369 0
M  V30 6283 H 609.995 0.0174534 -0.826816 0
M  V30 6284 H 612.541 -0.711891 -1.54046 0
M  V30 6285 H 611.313 -1.33401 -3.67858 0
M  V30 6286 H 610.936 0.357777 -3.95987 0
M  V30 6287 N 611.933 1.52934 -0.380664 0
M  V30 6288 C 612.88 2.26197 0.458641 0
M  V30 6289 C 613.85 1.27462 1.06502 0
M  V30 6290 O 615.035 1.56274 1.09467 0
M  V30 6291 C 612.175 3.06571 1.58456 0
M  V30 6292 C 611.288 4.20222 1.00189 0
M  V30 6293 C 610.423 4.88007 2.09815 0
M  V30 6294 C 609.462 5.93665 1.49092 0
M  V30 6295 N 608.599 6.55081 2.52613 0
M  V30 6296 H 613.439 2.975 -0.172595 0
M  V30 6297 H 610.976 1.4678 -0.0969426 0
M  V30 6298 H 612.934 3.51455 2.24801 0
M  V30 6299 H 611.564 2.37494 2.18624 0
M  V30 6300 H 610.616 3.79714 0.228292 0
M  V30 6301 H 611.928 4.96102 0.518064 0
M  V30 6302 H 611.082 5.36151 2.83948 0
M  V30 6303 H 609.821 4.11632 2.61555 0
M  V30 6304 H 608.826 5.44868 0.7348 0
M  V30 6305 H 610.051 6.71969 0.981582 0
M  V30 6306 H 607.997 5.8155 3.03538 0
M  V30 6307 H 607.914 7.26548 2.08961 0
M  V30 6308 H 609.182 7.07871 3.26402 0
M  V30 6309 N 613.412 0.11024 1.57214 0
M  V30 6310 C 614.36 -0.860586 2.16094 0
M  V30 6311 C 615.354 -1.28156 1.1078 0
M  V30 6312 O 616.56 -1.25433 1.29099 0
M  V30 6313 H 612.935 -0.295606 0.691463 0
M  V30 6314 H 614.906 -0.33942 2.96463 0
M  V30 6315 C 613.655 -2.10421 2.768 0
M  V30 6316 H 612.978 -1.7892 3.5753 0
M  V30 6317 H 614.418 -2.76375 3.21547 0
M  V30 6318 C 612.877 -2.88823 1.73444 0
M  V30 6319 O 613.407 -3.839 1.18251 0
M  V30 6320 N 611.613 -2.52649 1.43586 0
M  V30 6321 H 611.16 -1.754 1.8866 0
M  V30 6322 H 611.118 -3.05403 0.746735 0
M  V30 6323 N 614.89 -1.56749 -0.16351 0
M  V30 6324 C 616.137 -1.82434 -0.878866 0
M  V30 6325 C 616.465 -0.688557 -1.81904 0
M  V30 6326 O 615.72 0.323644 -1.93005 0
M  V30 6327 C 616.019 -3.14342 -1.70071 0
M  V30 6328 C 615.685 -4.41647 -0.908775 0
M  V30 6329 C 614.347 -4.76224 -0.690236 0
M  V30 6330 C 616.699 -5.19998 -0.353815 0
M  V30 6331 C 614.027 -5.86624 0.0942374 0
M  V30 6332 C 616.379 -6.3122 0.41761 0
M  V30 6333 C 615.043 -6.64358 0.646879 0
M  V30 6334 H 614.313 -0.667574 -0.3216 0
M  V30 6335 H 616.96 -1.90963 -0.14337 0
M  V30 6336 H 615.265 -3.0119 -2.50583 0
M  V30 6337 H 616.962 -3.31426 -2.25738 0
M  V30 6338 H 613.552 -4.1453 -1.08916 0
M  V30 6339 H 617.736 -4.93673 -0.509975 0
M  V30 6340 H 612.992 -6.10751 0.281529 0
M  V30 6341 H 617.166 -6.91133 0.854849 0
M  V30 6342 H 614.793 -7.49742 1.25662 0
M  V30 6343 N 616.368 0.432326 -1.51554 0
M  V30 6344 C 617.596 1.20364 -1.68286 0
M  V30 6345 C 618.011 1.84888 -0.38233 0
M  V30 6346 O 617.368 1.70924 0.639627 0
M  V30 6347 C 617.419 2.28398 -2.80208 0
M  V30 6348 O 617.14 1.66512 -4.05223 0
M  V30 6349 C 618.641 3.18584 -3.08251 0
M  V30 6350 H 615.861 0.36259 -0.564596 0
M  V30 6351 H 618.405 0.511647 -1.97996 0
M  V30 6352 H 616.56 2.93305 -2.53083 0
M  V30 6353 H 616.974 2.37951 -4.67418 0
M  V30 6354 H 618.448 3.90511 -3.90135 0
M  V30 6355 H 618.925 3.79628 -2.2086 0
M  V30 6356 H 619.531 2.59372 -3.37055 0
M  V30 6357 N 617.846 1.41785 0.688094 0
M  V30 6358 C 618.756 1.46596 1.83158 0
M  V30 6359 C 619.772 0.355862 1.70322 0
M  V30 6360 O 620.948 0.604737 1.92106 0
M  V30 6361 C 618.013 1.35322 3.192 0
M  V30 6362 C 617.074 2.56711 3.4409 0
M  V30 6363 C 616.307 2.45965 4.73642 0
M  V30 6364 O 616.53 1.48827 5.50642 0
M  V30 6365 O 615.464 3.35859 4.99482 0
M  V30 6366 H 619.29 2.43083 1.82056 0
M  V30 6367 H 616.875 1.23404 0.842126 0
M  V30 6368 H 618.757 1.31347 4.00407 0
M  V30 6369 H 617.432 0.419536 3.2097 0
M  V30 6370 H 616.339 2.66262 2.62784 0
M  V30 6371 H 617.672 3.48933 3.47141 0
M  V30 6372 N 619.324 -0.923095 1.27737 0
M  V30 6373 C 620.272 -2.04567 1.10703 0
M  V30 6374 C 621.266 -1.69375 0.0288445 0
M  V30 6375 O 622.472 -1.79027 0.186913 0
M  V30 6376 H 618.847 -0.670109 0.34126 0
M  V30 6377 H 620.818 -2.1608 2.05796 0
M  V30 6378 C 619.567 -3.38934 0.775837 0
M  V30 6379 H 618.89 -3.66501 1.59741 0
M  V30 6380 H 620.33 -4.18239 0.696548 0
M  V30 6381 C 618.789 -3.32863 -0.520012 0
M  V30 6382 O 619.319 -3.70462 -1.55308 0
M  V30 6383 N 617.525 -2.85958 -0.51732 0
M  V30 6384 H 617.072 -2.55557 0.32379 0
M  V30 6385 H 617.03 -2.82279 -1.38441 0
M  V30 6386 N 620.802 -1.09834 -1.13024 0
M  V30 6387 C 622.079 -0.749225 -1.80682 0
M  V30 6388 C 622.459 0.765171 -1.96744 0
M  V30 6389 O 621.807 1.68912 -1.53886 0
M  V30 6390 C 622.017 -1.49311 -3.15448 0
M  V30 6391 C 623.365 -1.66162 -3.90737 0
M  V30 6392 O 624.389 -1.45597 -3.25085 0
M  V30 6393 O 623.248 -2.00211 -5.08505 0
M  V30 6394 H 620.342 -0.269614 -0.781817 0
M  V30 6395 H 622.888 -1.20078 -1.19914 0
M  V30 6396 H 621.66 -2.52407 -2.99009 0
M  V30 6397 H 621.283 -1.034 -3.8392 0
M  V30 6398 N 622.28 1.30327 -0.886154 0
M  V30 6399 C 623.21 2.30549 -0.370028 0
M  V30 6400 C 624.191 1.61039 0.547751 0
M  V30 6401 O 625.376 1.8864 0.461353 0
M  V30 6402 C 622.506 3.44808 0.415275 0
M  V30 6403 C 621.46 4.26024 -0.41085 0
M  V30 6404 C 620.786 5.32347 0.501128 0
M  V30 6405 C 622.086 4.95433 -1.65359 0
M  V30 6406 H 623.78 2.73969 -1.20754 0
M  V30 6407 H 621.326 1.3171 -0.582097 0
M  V30 6408 H 623.279 4.13986 0.78699 0
M  V30 6409 H 622.003 3.00197 1.28644 0
M  V30 6410 H 620.662 3.58535 -0.764719 0
M  V30 6411 H 620.31 4.83982 1.37004 0
M  V30 6412 H 620.01 5.87581 -0.0478356 0
M  V30 6413 H 621.534 6.0438 0.869333 0
M  V30 6414 H 622.948 5.5712 -1.35239 0
M  V30 6415 H 621.345 5.60537 -2.14284 0
M  V30 6416 H 622.415 4.21493 -2.39733 0
M  V30 6417 N 623.758 0.647228 1.43697 0
M  V30 6418 C 624.688 -0.0345631 2.33474 0
M  V30 6419 C 625.669 -0.818193 1.4913 0
M  V30 6420 O 626.854 -0.780867 1.77809 0
M  V30 6421 C 623.984 -1.00576 3.32418 0
M  V30 6422 C 622.938 -0.33266 4.26705 0
M  V30 6423 C 622.264 -1.41489 5.1564 0
M  V30 6424 C 623.564 0.771204 5.16575 0
M  V30 6425 H 625.258 0.715163 2.90733 0
M  V30 6426 H 622.804 0.345364 1.39797 0
M  V30 6427 H 624.757 -1.49159 3.94119 0
M  V30 6428 H 623.481 -1.78657 2.73403 0
M  V30 6429 H 622.14 0.13267 3.6636 0
M  V30 6430 H 621.788 -2.18698 4.52968 0
M  V30 6431 H 621.488 -0.969799 5.79542 0
M  V30 6432 H 623.012 -1.9022 5.80214 0
M  V30 6433 H 624.426 0.36779 5.72119 0
M  V30 6434 H 622.823 1.1404 5.89165 0
M  V30 6435 H 623.893 1.63169 4.56622 0
M  V30 6436 N 625.236 -1.5273 0.388769 0
M  V30 6437 C 626.482 -2.01871 -0.193877 0
M  V30 6438 C 626.815 -1.27475 -1.46505 0
M  V30 6439 O 626.09 -0.375063 -1.90849 0
M  V30 6440 C 626.373 -3.5712 -0.462336 0
M  V30 6441 C 626.226 -4.42186 0.824091 0
M  V30 6442 C 627.545 -4.21881 -1.25319 0
M  V30 6443 H 624.664 -0.733764 -0.0689899 0
M  V30 6444 H 627.306 -1.82796 0.518231 0
M  V30 6445 H 625.456 -3.73504 -1.06896 0
M  V30 6446 H 627.128 -4.37554 1.46096 0
M  V30 6447 H 625.371 -4.09219 1.43952 0
M  V30 6448 H 626.042 -5.48828 0.590905 0
M  V30 6449 H 628.518 -4.0947 -0.73981 0
M  V30 6450 H 627.394 -5.30487 -1.40977 0
M  V30 6451 H 627.655 -3.79478 -2.26824 0
M  V30 6452 N 626.714 -0.118576 -1.57153 0
M  V30 6453 C 628.13 0.238014 -1.57815 0
M  V30 6454 C 628.33 1.66747 -1.13127 0
M  V30 6455 O 627.386 2.38867 -0.818462 0
M  V30 6456 C 628.699 0.00508207 -3.007 0
M  V30 6457 C 630.247 0.0710139 -3.12919 0
M  V30 6458 C 630.722 -0.13422 -4.57803 0
M  V30 6459 N 632.213 -0.0801755 -4.63131 0
M  V30 6460 C 632.948 -0.213885 -5.73001 0
M  V30 6461 N 632.444 -0.403742 -6.91623 0
M  V30 6462 N 634.237 -0.15349 -5.6189 0
M  V30 6463 H 626.388 -1.05226 -1.84503 0
M  V30 6464 H 628.651 -0.414318 -0.852669 0
M  V30 6465 H 628.357 -0.983125 -3.3768 0
M  V30 6466 H 628.231 0.73714 -3.69927 0
M  V30 6467 H 630.618 1.04975 -2.75798 0
M  V30 6468 H 630.699 -0.692918 -2.46236 0
M  V30 6469 H 630.343 -1.10992 -4.95624 0
M  V30 6470 H 630.273 0.649692 -5.22577 0
M  V30 6471 H 632.764 0.0630689 -3.77847 0
M  V30 6472 H 633.077 -0.496645 -7.71202 0
M  V30 6473 H 631.422 -0.43971 -6.93608 0
M  V30 6474 H 634.613 -0.00613174 -4.681 0
M  V30 6475 H 634.786 -0.261138 -6.47474 0
M  V30 6476 N 628.193 1.56834 0.155195 0
M  V30 6477 C 629.442 1.82088 0.867567 0
M  V30 6478 C 629.755 0.69849 1.82703 0
M  V30 6479 O 630.961 0.836407 2.58295 0
M  V30 6480 C 629.417 3.22707 1.59336 0
M  V30 6481 C 629.025 4.42859 0.676719 0
M  V30 6482 C 630.769 3.57242 2.293 0
M  V30 6483 C 628.676 5.74501 1.40367 0
M  V30 6484 H 627.606 0.679057 0.327715 0
M  V30 6485 H 630.257 1.83105 0.120351 0
M  V30 6486 H 628.639 3.16054 2.38591 0
M  V30 6487 H 629.813 4.60731 -0.0800196 0
M  V30 6488 H 628.128 4.16311 0.0859129 0
M  V30 6489 H 630.725 4.52847 2.84312 0
M  V30 6490 H 631.068 2.82901 3.05406 0
M  V30 6491 H 631.601 3.6552 1.56972 0
M  V30 6492 H 628.34 6.51915 0.684623 0
M  V30 6493 H 627.86 5.60579 2.13332 0
M  V30 6494 H 629.539 6.17016 1.94681 0
M  V30 6495 N 629.671 -0.424282 1.51781 0
M  V30 6496 C 630.919 -1.17028 1.64769 0
M  V30 6497 C 631.24 -1.91409 0.372523 0
M  V30 6498 O 630.51 -1.86091 -0.612108 0
M  V30 6499 H 629.09 -0.434992 0.607282 0
M  V30 6500 H 631.752 -0.485169 1.88765 0
M  V30 6501 H 630.848 -1.8927 2.4816 0
M  V30 6502 N 631.149 -1.42148 -0.680565 0
M  V30 6503 C 632.096 -1.45175 -1.79424 0
M  V30 6504 C 633.066 -0.304352 -1.63288 0
M  V30 6505 O 634.251 -0.507591 -1.83924 0
M  V30 6506 C 631.391 -1.35429 -3.17416 0
M  V30 6507 C 630.504 -2.60158 -3.4488 0
M  V30 6508 C 629.639 -2.42596 -4.72568 0
M  V30 6509 C 628.678 -3.62727 -4.93047 0
M  V30 6510 N 627.815 -3.44143 -6.11973 0
M  V30 6511 H 632.655 -2.40349 -1.76172 0
M  V30 6512 H 630.192 -1.19334 -0.860107 0
M  V30 6513 H 632.15 -1.27777 -3.97151 0
M  V30 6514 H 630.78 -0.438536 -3.19807 0
M  V30 6515 H 629.832 -2.78199 -2.5944 0
M  V30 6516 H 631.144 -3.49473 -3.55908 0
M  V30 6517 H 630.298 -2.32497 -5.60384 0
M  V30 6518 H 629.037 -1.50761 -4.63813 0
M  V30 6519 H 628.042 -3.73264 -4.03676 0
M  V30 6520 H 629.267 -4.55534 -5.03652 0
M  V30 6521 H 627.213 -2.5502 -6.04401 0
M  V30 6522 H 627.13 -4.27041 -6.23836 0
M  V30 6523 H 628.398 -3.37845 -7.02482 0
M  V30 6524 N 632.627 0.916307 -1.28225 0
M  V30 6525 C 633.577 2.00488 -1.08574 0
M  V30 6526 C 634.561 1.60897 -0.0101874 0
M  V30 6527 O 635.753 1.75499 -0.230034 0
M  V30 6528 C 632.882 3.35076 -0.746943 0
M  V30 6529 C 631.968 3.81077 -1.86121 0
M  V30 6530 N 632.359 3.99475 -3.10247 0
M  V30 6531 C 630.657 4.10212 -1.75048 0
M  V30 6532 C 631.358 4.37965 -3.82834 0
M  V30 6533 N 630.334 4.4608 -3.10667 0
M  V30 6534 H 634.136 2.1276 -2.02757 0
M  V30 6535 H 631.65 1.10397 -1.19107 0
M  V30 6536 H 633.647 4.12743 -0.587252 0
M  V30 6537 H 632.307 3.2416 0.187146 0
M  V30 6538 H 633.318 3.85466 -3.45885 0
M  V30 6539 H 629.995 4.07947 -0.887999 0
M  V30 6540 H 631.385 4.60183 -4.89572 0
M  V30 6541 N 634.105 1.10431 1.1244 0
M  V30 6542 C 635.33 0.869089 1.88313 0
M  V30 6543 C 635.755 -0.574912 1.79099 0
M  V30 6544 O 635.113 -1.40496 1.14589 0
M  V30 6545 C 635.161 1.32208 3.3549 0
M  V30 6546 O 634.265 0.487092 4.09513 0
M  V30 6547 H 633.606 0.313894 0.585121 0
M  V30 6548 H 636.136 1.47111 1.42195 0
M  V30 6549 H 636.146 1.31201 3.86329 0
M  V30 6550 H 634.821 2.37364 3.41513 0
M  V30 6551 H 633.398 0.562372 3.68635 0
M  V30 6552 N 635.583 -1.29855 0.893053 0
M  V30 6553 C 636.999 -1.48366 0.588199 0
M  V30 6554 C 637.199 -1.81654 -0.872018 0
M  V30 6555 O 636.255 -1.909 -1.65268 0
M  V30 6556 C 637.568 -2.60136 1.5083 0
M  V30 6557 C 639.116 -2.74014 1.51279 0
M  V30 6558 C 639.591 -3.88905 2.41902 0
M  V30 6559 N 641.082 -3.96228 2.39911 0
M  V30 6560 C 641.817 -4.84458 3.06738 0
M  V30 6561 N 641.313 -5.77426 3.8282 0
M  V30 6562 N 643.106 -4.77894 2.95929 0
M  V30 6563 H 635.257 -1.06522 1.83757 0
M  V30 6564 H 637.52 -0.528495 0.787018 0
M  V30 6565 H 637.226 -2.42383 2.54839 0
M  V30 6566 H 637.1 -3.56793 1.22388 0
M  V30 6567 H 639.487 -2.91167 0.480179 0
M  V30 6568 H 639.568 -1.77952 1.83757 0
M  V30 6569 H 639.212 -3.72508 3.45253 0
M  V30 6570 H 639.142 -4.84322 2.06737 0
M  V30 6571 H 641.633 -3.29728 1.84629 0
M  V30 6572 H 641.946 -6.41529 4.30883 0
M  V30 6573 H 640.291 -5.77332 3.86927 0
M  V30 6574 H 643.482 -4.04248 2.36012 0
M  V30 6575 H 643.655 -5.46444 3.48286 0
M  V30 6576 N 637.061 -0.65484 -1.43351 0
M  V30 6577 C 638.289 -0.176685 -2.06144 0
M  V30 6578 C 638.704 1.15831 -1.49093 0
M  V30 6579 O 638.061 1.71542 -0.622868 0
M  V30 6580 C 638.112 -0.0813326 -3.61408 0
M  V30 6581 O 637.833 -1.36355 -4.1634 0
M  V30 6582 C 639.334 0.422706 -4.4128 0
M  V30 6583 H 636.554 -0.0906429 -0.66485 0
M  V30 6584 H 639.098 -0.895945 -1.83829 0
M  V30 6585 H 637.253 0.588496 -3.82904 0
M  V30 6586 H 637.667 -1.22381 -5.10023 0
M  V30 6587 H 639.141 0.438375 -5.50257 0
M  V30 6588 H 639.618 1.45432 -4.14423 0
M  V30 6589 H 640.224 -0.214687 -4.24758 0
M  V30 6590 N 638.539 1.52521 -0.396863 0
M  V30 6591 C 639.955 1.5953 -0.0471659 0
M  V30 6592 C 640.155 1.41044 1.43906 0
M  V30 6593 O 639.211 1.23122 2.20448 0
M  V30 6594 C 640.524 2.95972 -0.531113 0
M  V30 6595 C 642.072 3.09172 -0.488024 0
M  V30 6596 C 642.547 4.48075 -0.948281 0
M  V30 6597 N 644.038 4.54281 -0.9046 0
M  V30 6598 C 644.773 5.60007 -1.23205 0
M  V30 6599 N 644.269 6.73343 -1.63036 0
M  V30 6600 N 646.062 5.50151 -1.15282 0
M  V30 6601 H 638.213 1.62786 -1.36435 0
M  V30 6602 H 640.476 0.76514 -0.559701 0
M  V30 6603 H 640.182 3.14741 -1.56942 0
M  V30 6604 H 640.056 3.77143 0.0657922 0
M  V30 6605 H 642.443 2.90095 0.541211 0
M  V30 6606 H 642.524 2.29937 -1.12083 0
M  V30 6607 H 642.168 4.67894 -1.97578 0
M  V30 6608 H 642.098 5.25788 -0.292412 0
M  V30 6609 H 644.589 3.72918 -0.6116 0
M  V30 6610 H 644.902 7.49992 -1.86365 0
M  V30 6611 H 643.247 6.74655 -1.66929 0
M  V30 6612 H 646.438 4.6049 -0.840602 0
M  V30 6613 H 646.611 6.32444 -1.41133 0
M  V30 6614 N 640.017 0.126909 1.57088 0
M  V30 6615 C 641.247 -0.535892 1.99529 0
M  V30 6616 C 641.655 -1.60259 1.00566 0
M  V30 6617 O 640.998 -1.83698 -0.00843269 0
M  V30 6618 C 641.06 -1.21374 3.38391 0
M  V30 6619 C 640.724 -0.294044 4.56053 0
M  V30 6620 C 641.721 0.470454 5.17767 0
M  V30 6621 C 639.406 -0.202808 5.0189 0
M  V30 6622 C 641.4 1.31384 6.23712 0
M  V30 6623 C 639.087 0.644203 6.07695 0
M  V30 6624 C 640.085 1.40115 6.68473 0
M  V30 6625 O 639.773 2.23408 7.72233 0
M  V30 6626 H 639.505 -0.145799 0.66009 0
M  V30 6627 H 642.059 0.212441 2.04298 0
M  V30 6628 H 640.289 -2.00931 3.30399 0
M  V30 6629 H 641.978 -1.77424 3.65069 0
M  V30 6630 H 642.744 0.409884 4.83265 0
M  V30 6631 H 638.623 -0.781688 4.54324 0
M  V30 6632 H 642.167 1.90514 6.71081 0
M  V30 6633 H 638.064 0.706137 6.41626 0
M  V30 6634 H 638.832 2.16436 7.89365 0
M  V30 6635 N 641.495 -1.56914 -0.146875 0
M  V30 6636 C 642.405 -2.0154 -1.20079 0
M  V30 6637 C 643.421 -0.930838 -1.47008 0
M  V30 6638 O 644.597 -1.24032 -1.58676 0
M  V30 6639 C 641.662 -2.38715 -2.51428 0
M  V30 6640 C 640.723 -3.6112 -2.32145 0
M  V30 6641 C 639.956 -3.96512 -3.57231 0
M  V30 6642 O 640.179 -3.32566 -4.63418 0
M  V30 6643 O 639.113 -4.89758 -3.49887 0
M  V30 6644 H 642.939 -2.91506 -0.851924 0
M  V30 6645 H 640.524 -1.45106 -0.355607 0
M  V30 6646 H 642.406 -2.63485 -3.28867 0
M  V30 6647 H 641.081 -1.51903 -2.85845 0
M  V30 6648 H 639.988 -3.41536 -1.52656 0
M  V30 6649 H 641.321 -4.48549 -2.02644 0
M  V30 6650 N 642.974 0.416227 -1.52004 0
M  V30 6651 C 644.39 0.754319 -1.40649 0
M  V30 6652 C 644.59 1.95059 -0.505392 0
M  V30 6653 O 643.646 2.5248 0.0315057 0
M  V30 6654 C 644.959 1.0149 -2.83055 0
M  V30 6655 C 646.507 1.11805 -2.9235 0
M  V30 6656 C 646.982 1.41144 -4.35709 0
M  V30 6657 N 648.473 1.48024 -4.38911 0
M  V30 6658 C 649.208 1.72338 -5.46889 0
M  V30 6659 N 648.704 1.94303 -6.64995 0
M  V30 6660 N 650.497 1.74294 -5.34395 0
M  V30 6661 H 642.648 -0.371324 -2.09129 0
M  V30 6662 H 644.911 -0.103811 -0.942299 0
M  V30 6663 H 644.617 0.208345 -3.51082 0
M  V30 6664 H 644.491 1.93697 -3.23668 0
M  V30 6665 H 646.878 1.91521 -2.24508 0
M  V30 6666 H 646.959 0.17451 -2.55204 0
M  V30 6667 H 646.603 0.619484 -5.04108 0
M  V30 6668 H 646.533 2.36739 -4.70385 0
M  V30 6669 H 649.024 1.32868 -3.53772 0
M  V30 6670 H 649.337 2.12286 -7.43071 0
M  V30 6671 H 647.682 1.91582 -6.68073 0
M  V30 6672 H 650.873 1.56667 -4.41104 0
M  V30 6673 H 651.046 1.92904 -6.18621 0
M  V30 6674 N 644.452 1.42507 0.673017 0
M  V30 6675 C 645.4 1.46362 1.80779 0
M  V30 6676 C 646.394 0.339166 1.6597 0
M  V30 6677 O 647.6 0.512262 1.72557 0
M  V30 6678 H 643.975 0.458433 0.596107 0
M  V30 6679 H 645.946 2.41953 1.74646 0
M  V30 6680 C 644.695 1.38462 3.18941 0
M  V30 6681 H 644.018 2.24283 3.30964 0
M  V30 6682 H 645.458 1.45221 3.98355 0
M  V30 6683 C 643.917 0.0996354 3.36753 0
M  V30 6684 O 644.447 -0.846894 3.92671 0
M  V30 6685 N 642.653 0.016211 2.90595 0
M  V30 6686 H 642.2 0.78725 2.45276 0
M  V30 6687 H 642.158 -0.84291 3.0289 0
M  V30 6688 N 645.93 -0.909495 1.28709 0
M  V30 6689 C 647.179 -1.65365 1.15487 0
M  V30 6690 C 647.492 -1.93364 -0.294941 0
M  V30 6691 O 648.698 -2.65905 -0.548338 0
M  V30 6692 C 647.154 -2.97923 2.01916 0
M  V30 6693 C 646.762 -2.77556 3.51663 0
M  V30 6694 C 648.506 -3.75814 1.97393 0
M  V30 6695 C 646.413 -4.0578 4.30229 0
M  V30 6696 H 645.343 -0.620323 0.42862 0
M  V30 6697 H 647.994 -1.00894 1.53273 0
M  V30 6698 H 646.376 -3.63552 1.5699 0
M  V30 6699 H 647.55 -2.2058 4.04575 0
M  V30 6700 H 645.865 -2.13072 3.57756 0
M  V30 6701 H 648.462 -4.70866 2.53357 0
M  V30 6702 H 648.805 -4.05277 0.951643 0
M  V30 6703 H 649.338 -3.1701 2.40311 0
M  V30 6704 H 646.077 -3.81488 5.33055 0
M  V30 6705 H 645.597 -4.62351 3.82089 0
M  V30 6706 H 647.276 -4.74004 4.40374 0
M  V30 6707 N 647.408 -1.11026 -1.11852 0
M  V30 6708 C 648.318 -0.777252 -2.2135 0
M  V30 6709 C 649.334 0.227821 -1.72502 0
M  V30 6710 O 650.51 0.0650587 -2.01295 0
M  V30 6711 C 647.575 -0.220668 -3.45997 0
M  V30 6712 C 646.636 -1.2838 -4.09655 0
M  V30 6713 C 645.869 -0.753678 -5.28352 0
M  V30 6714 O 646.092 0.417779 -5.68868 0
M  V30 6715 O 645.026 -1.51647 -5.82483 0
M  V30 6716 H 648.852 -1.69141 -2.5224 0
M  V30 6717 H 646.437 -0.885836 -1.20305 0
M  V30 6718 H 648.319 0.0855756 -4.21313 0
M  V30 6719 H 646.994 0.666262 -3.16769 0
M  V30 6720 H 645.901 -1.64299 -3.3609 0
M  V30 6721 H 647.234 -2.14396 -4.43052 0
M  V30 6722 N 648.886 1.2938 -0.899927 0
M  V30 6723 C 649.833 2.27713 -0.376243 0
M  V30 6724 C 650.803 1.57016 0.541774 0
M  V30 6725 O 651.988 1.84997 0.466966 0
M  V30 6726 C 649.128 3.42889 0.39 0
M  V30 6727 C 648.241 4.28369 -0.558938 0
M  V30 6728 C 647.376 5.30726 0.224379 0
M  V30 6729 C 646.415 6.07862 -0.719068 0
M  V30 6730 N 645.552 7.02094 0.0298569 0
M  V30 6731 H 650.392 2.71888 -1.21988 0
M  V30 6732 H 647.929 1.33724 -0.612879 0
M  V30 6733 H 649.887 4.08443 0.850314 0
M  V30 6734 H 648.517 2.99743 1.19809 0
M  V30 6735 H 647.569 3.62986 -1.13777 0
M  V30 6736 H 648.881 4.82068 -1.2811 0
M  V30 6737 H 648.035 6.02098 0.745881 0
M  V30 6738 H 646.774 4.77759 0.979674 0
M  V30 6739 H 645.779 5.35353 -1.25207 0
M  V30 6740 H 647.004 6.62917 -1.4737 0
M  V30 6741 H 644.95 6.51496 0.767415 0
M  V30 6742 H 644.867 7.5335 -0.632391 0
M  V30 6743 H 646.135 7.77685 0.531615 0
M  V30 6744 N 650.364 0.662433 1.43002 0
M  V30 6745 C 651.613 0.176873 2.00923 0
M  V30 6746 C 651.926 -1.21954 1.52927 0
M  V30 6747 O 653.132 -1.80081 2.03182 0
M  V30 6748 C 651.588 0.265379 3.5892 0
M  V30 6749 C 651.196 1.66507 4.15908 0
M  V30 6750 C 652.94 -0.162103 4.2419 0
M  V30 6751 C 650.847 1.707 5.66229 0
M  V30 6752 H 649.777 0.0623627 0.751417 0
M  V30 6753 H 652.428 0.825813 1.63868 0
M  V30 6754 H 650.81 -0.451235 3.93421 0
M  V30 6755 H 651.984 2.40777 3.92891 0
M  V30 6756 H 650.299 2.03932 3.63044 0
M  V30 6757 H 652.896 -0.150745 5.34487 0
M  V30 6758 H 653.239 -1.19519 3.98774 0
M  V30 6759 H 653.772 0.503075 3.94606 0
M  V30 6760 H 650.511 2.7195 5.96426 0
M  V30 6761 H 650.031 1.00768 5.91275 0
M  V30 6762 H 651.71 1.45487 6.3043 0
M  V30 6763 N 651.842 -1.52309 0.404946 0
M  V30 6764 C 653.067 -2.06666 -0.1743 0
M  V30 6765 C 653.492 -1.27341 -1.38441 0
M  V30 6766 O 652.85 -0.302539 -1.78758 0
M  V30 6767 C 652.898 -3.57014 -0.507262 0
M  V30 6768 O 652.002 -3.80144 -1.59889 0
M  V30 6769 H 651.343 -0.663807 -0.0160273 0
M  V30 6770 H 653.873 -1.96297 0.576937 0
M  V30 6771 H 653.883 -4.00724 -0.767098 0
M  V30 6772 H 652.558 -4.14184 0.377368 0
M  V30 6773 H 651.135 -3.48316 -1.33155 0
M  V30 6774 N 653.32 -0.135238 -1.57019 0
M  V30 6775 C 654.253 0.846618 -2.11914 0
M  V30 6776 C 655.231 1.25019 -1.03966 0
M  V30 6777 O 656.415 1.34838 -1.31723 0
M  V30 6778 C 653.542 2.1352 -2.6292 0
M  V30 6779 C 652.588 1.87846 -3.82905 0
M  V30 6780 S 653.421 1.08005 -5.24495 0
M  V30 6781 C 654.577 2.38008 -5.78881 0
M  V30 6782 H 654.81 0.379752 -2.94865 0
M  V30 6783 H 652.343 0.0788387 -1.54199 0
M  V30 6784 H 654.301 2.87551 -2.92958 0
M  V30 6785 H 652.962 2.57323 -1.80121 0
M  V30 6786 H 652.155 2.83365 -4.16797 0
M  V30 6787 H 651.757 1.21929 -3.53567 0
M  V30 6788 H 654.049 3.33742 -5.89595 0
M  V30 6789 H 654.992 2.08638 -6.76665 0
M  V30 6790 H 655.4 2.48119 -5.07048 0
M  V30 6791 N 654.798 1.5699 0.138552 0
M  V30 6792 C 655.728 2.01933 1.17241 0
M  V30 6793 C 656.709 0.90033 1.44319 0
M  V30 6794 O 657.894 1.16872 1.55095 0
M  V30 6795 C 655.024 2.40711 2.50351 0
M  V30 6796 C 653.978 3.55874 2.37776 0
M  V30 6797 C 653.304 3.80491 3.75674 0
M  V30 6798 C 654.604 4.8826 1.85472 0
M  V30 6799 H 656.298 2.88551 0.798672 0
M  V30 6800 H 653.844 1.3882 0.382743 0
M  V30 6801 H 655.797 2.70754 3.22909 0
M  V30 6802 H 654.521 1.5104 2.89576 0
M  V30 6803 H 653.18 3.2601 1.67669 0
M  V30 6804 H 652.828 2.88057 4.12349 0
M  V30 6805 H 652.528 4.57998 3.68119 0
M  V30 6806 H 654.052 4.12967 4.49767 0
M  V30 6807 H 655.466 5.16965 2.4783 0
M  V30 6808 H 653.863 5.69631 1.88787 0
M  V30 6809 H 654.933 4.78071 0.810935 0
M  V30 6810 N 656.276 -0.40816 1.52223 0
M  V30 6811 C 657.186 -1.52202 1.78526 0
M  V30 6812 C 658.202 -1.60546 0.670892 0
M  V30 6813 O 659.378 -1.77242 0.956404 0
M  V30 6814 C 656.443 -2.87928 1.93128 0
M  V30 6815 C 655.504 -2.89463 3.17033 0
M  V30 6816 C 654.737 -4.18715 3.30929 0
M  V30 6817 O 654.96 -5.12662 2.50067 0
M  V30 6818 O 653.894 -4.27125 4.24084 0
M  V30 6819 H 657.72 -1.32911 2.73072 0
M  V30 6820 H 655.305 -0.594112 1.37079 0
M  V30 6821 H 657.187 -3.68426 2.04549 0
M  V30 6822 H 655.862 -3.07285 1.01772 0
M  V30 6823 H 654.769 -2.07815 3.11069 0
M  V30 6824 H 656.102 -2.75055 4.08174 0
M  V30 6825 N 657.755 -1.42862 -0.66545 0
M  V30 6826 C 658.702 -1.4707 -1.77874 0
M  V30 6827 C 659.672 -0.321654 -1.62956 0
M  V30 6828 O 660.857 -0.52707 -1.83376 0
M  V30 6829 C 657.997 -1.38788 -3.15962 0
M  V30 6830 C 657.11 -2.63801 -3.42101 0
M  V30 6831 C 656.245 -2.47594 -4.69969 0
M  V30 6832 C 655.284 -3.67936 -4.89172 0
M  V30 6833 N 654.421 -3.50614 -6.08288 0
M  V30 6834 H 659.261 -2.42204 -1.73613 0
M  V30 6835 H 656.798 -1.20239 -0.847401 0
M  V30 6836 H 658.756 -1.31982 -3.95773 0
M  V30 6837 H 657.386 -0.472431 -3.19324 0
M  V30 6838 H 656.438 -2.80935 -2.56475 0
M  V30 6839 H 657.75 -3.53228 -3.52181 0
M  V30 6840 H 656.904 -2.38427 -5.57886 0
M  V30 6841 H 655.643 -1.55672 -4.62188 0
M  V30 6842 H 654.648 -3.77525 -3.99694 0
M  V30 6843 H 655.873 -4.60851 -4.98792 0
M  V30 6844 H 653.819 -2.61417 -6.01662 0
M  V30 6845 H 653.736 -4.33634 -6.19272 0
M  V30 6846 H 655.004 -3.45276 -6.98859 0
M  V30 6847 N 659.233 0.902656 -1.29189 0
M  V30 6848 C 660.482 1.6475 -1.16362 0
M  V30 6849 C 660.795 1.93517 0.284682 0
M  V30 6850 O 662.001 2.66192 0.534229 0
M  V30 6851 C 660.457 2.96848 -2.03493 0
M  V30 6852 C 660.065 2.75687 -3.5313 0
M  V30 6853 C 661.809 3.74762 -1.99383 0
M  V30 6854 C 659.716 4.03492 -4.32375 0
M  V30 6855 H 658.646 0.618041 -0.431904 0
M  V30 6856 H 661.297 1.0008 -1.53806 0
M  V30 6857 H 659.679 3.62715 -1.58916 0
M  V30 6858 H 660.853 2.18431 -4.05739 0
M  V30 6859 H 659.168 2.11171 -3.58881 0
M  V30 6860 H 661.765 4.69515 -2.5585 0
M  V30 6861 H 662.108 4.04767 -0.973123 0
M  V30 6862 H 662.641 3.15732 -2.41988 0
M  V30 6863 H 659.38 3.78656 -5.3507 0
M  V30 6864 H 658.9 4.60318 -3.84535 0
M  V30 6865 H 660.579 4.71662 -4.42881 0
M  V30 6866 N 660.711 1.11618 1.11262 0
M  V30 6867 C 661.941 0.88745 1.86569 0
M  V30 6868 C 662.349 -0.56636 1.80524 0
M  V30 6869 O 661.692 -1.40289 1.18594 0
M  V30 6870 C 661.754 1.27313 3.36202 0
M  V30 6871 C 661.418 2.73649 3.66013 0
M  V30 6872 C 662.415 3.71863 3.63337 0
M  V30 6873 C 660.1 3.10342 3.9496 0
M  V30 6874 C 662.094 5.04788 3.89188 0
M  V30 6875 C 659.781 4.43451 4.20469 0
M  V30 6876 C 660.779 5.40484 4.17572 0
M  V30 6877 O 660.467 6.71195 4.42439 0
M  V30 6878 H 660.199 0.317543 0.596777 0
M  V30 6879 H 662.753 1.48768 1.41624 0
M  V30 6880 H 660.983 0.616062 3.81761 0
M  V30 6881 H 662.672 1.01991 3.92877 0
M  V30 6882 H 663.438 3.44861 3.41022 0
M  V30 6883 H 659.317 2.35431 3.9635 0
M  V30 6884 H 662.861 5.80516 3.86842 0
M  V30 6885 H 658.758 4.70187 4.42261 0
M  V30 6886 H 659.526 6.77012 4.59997 0
M  V30 6887 N 662.189 -1.289 0.906776 0
M  V30 6888 C 663.438 -1.9455 0.532262 0
M  V30 6889 C 663.751 -1.72219 -0.927353 0
M  V30 6890 O 664.957 -2.32033 -1.40971 0
M  V30 6891 C 663.413 -3.48438 0.901041 0
M  V30 6892 C 663.021 -3.79558 2.37991 0
M  V30 6893 C 664.765 -4.20284 0.596777 0
M  V30 6894 C 662.672 -5.26723 2.68918 0
M  V30 6895 H 661.602 -0.728259 0.195333 0
M  V30 6896 H 664.253 -1.46519 1.10474 0
M  V30 6897 H 662.635 -3.95162 0.257419 0
M  V30 6898 H 663.809 -3.43668 3.06967 0
M  V30 6899 H 662.124 -3.20868 2.65391 0
M  V30 6900 H 664.721 -5.28612 0.8046 0
M  V30 6901 H 665.064 -4.13694 -0.465072 0
M  V30 6902 H 665.597 -3.79315 1.19855 0
M  V30 6903 H 662.336 -5.38384 3.73928 0
M  V30 6904 H 661.856 -5.63836 2.04571 0
M  V30 6905 H 663.535 -5.94391 2.55555 0
M  V30 6906 N 663.667 -0.670007 -1.42649 0
M  V30 6907 C 664.617 0.0339546 -2.27975 0
M  V30 6908 C 665.601 0.778295 -1.40824 0
M  V30 6909 O 666.793 0.657997 -1.64315 0
M  V30 6910 C 663.922 0.987899 -3.28779 0
M  V30 6911 C 663.008 0.241153 -4.23414 0
M  V30 6912 N 663.399 -0.751392 -5.00188 0
M  V30 6913 C 661.697 0.480269 -4.43407 0
M  V30 6914 C 662.398 -1.19615 -5.69269 0
M  V30 6915 N 661.374 -0.527045 -5.41039 0
M  V30 6916 H 665.176 -0.727425 -2.84756 0
M  V30 6917 H 662.69 -0.498673 -1.54554 0
M  V30 6918 H 664.687 1.50716 -3.88703 0
M  V30 6919 H 663.347 1.74916 -2.73559 0
M  V30 6920 H 664.358 -1.13075 -5.05405 0
M  V30 6921 H 661.035 1.2214 -3.99234 0
M  V30 6922 H 662.425 -2.01836 -6.40868 0
M  V30 6923 N 665.145 1.52092 -0.413018 0
M  V30 6924 C 666.556 1.86617 0.0556967 0
M  V30 6925 C 666.907 1.33156 1.44097 0
M  V30 6926 O 666.032 0.672417 2.05688 0
M  V30 6927 C 666.627 3.38628 0.107844 0
M  V30 6928 C 665.186 3.72778 0.520904 0
M  V30 6929 C 664.333 2.75649 -0.302109 0
M  V30 6930 H 667.284 1.45663 -0.629919 0
M  V30 6931 H 667.305 3.69152 0.922324 0
M  V30 6932 H 666.817 3.77508 -0.900506 0
M  V30 6933 H 664.918 3.39478 1.53575 0
M  V30 6934 H 665.031 4.7838 0.262591 0
M  V30 6935 H 663.395 2.53603 0.236115 0
M  V30 6936 H 664.178 3.17369 -1.30888 0
M  V30 6937 N 666.623 0.143563 1.56945 0
M  V30 6938 C 668.039 -0.212877 1.58174 0
M  V30 6939 C 668.239 -1.64926 1.15766 0
M  V30 6940 O 667.295 -2.37535 0.856361 0
M  V30 6941 C 668.608 0.0427573 3.0067 0
M  V30 6942 C 670.156 -0.0212221 3.12993 0
M  V30 6943 C 670.631 0.207036 4.57532 0
M  V30 6944 N 672.122 0.153845 4.62944 0
M  V30 6945 C 672.857 0.305018 5.72588 0
M  V30 6946 N 672.353 0.513722 6.90893 0
M  V30 6947 N 674.146 0.242862 5.61575 0
M  V30 6948 H 666.297 1.08148 1.82805 0
M  V30 6949 H 668.56 0.427831 0.84597 0
M  V30 6950 H 668.266 1.03672 3.36073 0
M  V30 6951 H 668.14 -0.678195 3.71053 0
M  V30 6952 H 670.527 -1.00574 2.77433 0
M  V30 6953 H 670.608 0.732004 2.45103 0
M  V30 6954 H 670.252 1.18863 4.93795 0
M  V30 6955 H 670.182 -0.566473 5.23544 0
M  V30 6956 H 672.673 -0.00294866 3.779 0
M  V30 6957 H 672.986 0.619273 7.70315 0
M  V30 6958 H 671.331 0.550001 6.9282 0
M  V30 6959 H 674.522 0.0806015 4.68031 0
M  V30 6960 H 674.695 0.364112 6.46976 0
M  V30 6961 N 668.101 -1.57061 -0.130224 0
M  V30 6962 C 669.331 -1.88159 -0.853217 0
M  V30 6963 C 669.739 -0.731675 -1.7448 0
M  V30 6964 O 669.082 0.307035 -1.81116 0
M  V30 6965 C 669.144 -3.1415 -1.74785 0
M  V30 6966 C 668.808 -4.45202 -1.03173 0
M  V30 6967 C 669.805 -5.18526 -0.377759 0
M  V30 6968 C 667.49 -4.91912 -1.01624 0
M  V30 6969 C 669.484 -6.36775 0.282123 0
M  V30 6970 C 667.171 -6.10082 -0.352555 0
M  V30 6971 C 668.169 -6.82361 0.295483 0
M  V30 6972 O 667.857 -7.98284 0.948606 0
M  V30 6973 H 667.589 -0.627596 -0.251197 0
M  V30 6974 H 670.143 -2.05034 -0.1226 0
M  V30 6975 H 668.373 -2.93328 -2.51983 0
M  V30 6976 H 670.062 -3.31359 -2.34427 0
M  V30 6977 H 670.828 -4.83498 -0.381417 0
M  V30 6978 H 666.707 -4.35566 -1.51007 0
M  V30 6979 H 670.251 -6.93129 0.788525 0
M  V30 6980 H 666.148 -6.44569 -0.346621 0
M  V30 6981 H 666.916 -8.14054 0.851954 0
M  V30 6982 N 669.579 0.400081 -1.52437 0
M  V30 6983 C 670.527 1.50851 -1.7705 0
M  V30 6984 C 671.521 1.56928 -0.637969 0
M  V30 6985 O 672.727 1.60226 -0.820212 0
M  V30 6986 H 669.102 0.50186 -0.560036 0
M  V30 6987 H 671.073 1.27281 -2.69893 0
M  V30 6988 C 669.822 2.88117 -1.94638 0
M  V30 6989 H 669.145 2.84187 -2.81208 0
M  V30 6990 H 670.585 3.64942 -2.15855 0
M  V30 6991 C 669.044 3.29206 -0.715899 0
M  V30 6992 O 669.574 4.01544 0.111944 0
M  V30 6993 N 667.78 2.85363 -0.549191 0
M  V30 6994 H 667.327 2.26664 -1.22397 0
M  V30 6995 H 667.285 3.13214 0.27278 0
M  V30 6996 N 671.057 1.43213 0.657864 0
M  V30 6997 C 672.303 1.45795 1.41829 0
M  V30 6998 C 672.658 0.0792176 1.92237 0
M  V30 6999 O 671.951 -0.901406 1.69072 0
M  V30 7000 C 672.145 2.43143 2.61947 0
M  V30 7001 C 671.974 3.90345 2.23295 0
M  V30 7002 C 670.744 4.58749 2.11843 0
M  V30 7003 C 672.942 4.80308 1.83873 0
M  V30 7004 N 670.924 5.90898 1.66473 0
M  V30 7005 C 672.295 6.01693 1.49549 0
M  V30 7006 C 674.35 4.67609 1.71015 0
M  V30 7007 C 673.053 7.11792 1.03657 0
M  V30 7008 C 675.079 5.77707 1.26527 0
M  V30 7009 C 674.441 6.98215 0.931379 0
M  V30 7010 H 670.54 0.588628 0.514822 0
M  V30 7011 H 673.124 1.7936 0.7575 0
M  V30 7012 H 671.295 2.11612 3.25692 0
M  V30 7013 H 673.027 2.36193 3.28626 0
M  V30 7014 H 669.782 4.1319 2.31453 0
M  V30 7015 H 670.206 6.61034 1.46163 0
M  V30 7016 H 674.848 3.74902 1.95469 0
M  V30 7017 H 672.566 8.04332 0.779502 0
M  V30 7018 H 676.152 5.69899 1.17074 0
M  V30 7019 H 675.032 7.81959 0.592379 0
M  V30 7020 N 672.536 -0.895792 1.29666 0
M  V30 7021 C 673.952 -1.17726 1.07763 0
M  V30 7022 C 674.152 -2.00794 -0.168576 0
M  V30 7023 O 673.208 -2.37213 -0.865244 0
M  V30 7024 C 674.521 -1.89441 2.33522 0
M  V30 7025 C 676.069 -2.02251 2.3888 0
M  V30 7026 C 676.544 -2.77378 3.64452 0
M  V30 7027 N 678.035 -2.8493 3.65198 0
M  V30 7028 C 678.77 -3.43606 4.59045 0
M  V30 7029 N 678.266 -4.03417 5.63228 0
M  V30 7030 N 680.059 -3.41317 4.46608 0
M  V30 7031 H 672.21 -0.341652 2.09634 0
M  V30 7032 H 674.473 -0.213865 0.923561 0
M  V30 7033 H 674.179 -1.35842 3.24407 0
M  V30 7034 H 674.053 -2.89893 2.41334 0
M  V30 7035 H 676.44 -2.55025 1.4848 0
M  V30 7036 H 676.521 -1.0092 2.3505 0
M  V30 7037 H 676.165 -2.25279 4.55205 0
M  V30 7038 H 676.095 -3.79062 3.65541 0
M  V30 7039 H 678.586 -2.42453 2.89871 0
M  V30 7040 H 678.899 -4.46224 6.30955 0
M  V30 7041 H 677.244 -4.01868 5.67033 0
M  V30 7042 H 680.435 -2.93812 3.64407 0
M  V30 7043 H 680.608 -3.86751 5.1993 0
M  V30 7044 N 674.014 -1.12206 -1.10668 0
M  V30 7045 C 674.924 -0.800686 -2.20513 0
M  V30 7046 C 675.94 0.209512 -1.72734 0
M  V30 7047 O 677.116 0.043705 -2.01353 0
M  V30 7048 C 674.181 -0.257353 -3.45744 0
M  V30 7049 C 673.242 -1.32718 -4.0827 0
M  V30 7050 C 672.475 -0.809674 -5.27522 0
M  V30 7051 O 672.698 0.35742 -5.69279 0
M  V30 7052 O 671.632 -1.57816 -5.80842 0
M  V30 7053 H 675.458 -1.71807 -2.50432 0
M  V30 7054 H 673.043 -0.898546 -1.19359 0
M  V30 7055 H 674.925 0.0408849 -4.2138 0
M  V30 7056 H 673.6 0.632627 -3.17458 0
M  V30 7057 H 672.507 -1.67855 -3.34329 0
M  V30 7058 H 673.84 -2.19083 -4.40753 0
M  V30 7059 N 675.492 1.28418 -0.913599 0
M  V30 7060 C 676.44 2.29272 -0.392037 0
M  V30 7061 C 677.434 1.61344 0.516198 0
M  V30 7062 O 678.64 1.75557 0.39746 0
M  V30 7063 H 675.015 0.744178 -0.108178 0
M  V30 7064 H 676.986 2.70691 -1.25574 0
M  V30 7065 C 675.735 3.45905 0.352815 0
M  V30 7066 H 675.058 3.98378 -0.336848 0
M  V30 7067 H 676.498 4.18473 0.682398 0
M  V30 7068 C 674.957 2.98572 1.56065 0
M  V30 7069 O 675.487 3.01033 2.65974 0
M  V30 7070 N 673.693 2.54235 1.40759 0
M  V30 7071 H 673.24 2.52432 0.513403 0
M  V30 7072 H 673.198 2.22925 2.21702 0
M  V30 7073 N 676.97 0.677563 1.42291 0
M  V30 7074 C 677.9 0.014968 2.33495 0
M  V30 7075 C 678.881 -0.786376 1.50831 0
M  V30 7076 O 680.066 -0.742975 1.79426 0
M  V30 7077 C 677.196 -0.935023 3.34477 0
M  V30 7078 C 676.15 -0.242074 4.27315 0
M  V30 7079 C 675.476 -1.30519 5.18526 0
M  V30 7080 C 676.776 0.880604 5.14823 0
M  V30 7081 H 678.47 0.776671 2.89151 0
M  V30 7082 H 676.016 0.37494 1.39033 0
M  V30 7083 H 677.969 -1.40766 3.97194 0
M  V30 7084 H 676.693 -1.72818 2.77131 0
M  V30 7085 H 675.352 0.210351 3.65996 0
M  V30 7086 H 675 -2.09041 4.57505 0
M  V30 7087 H 674.7 -0.846652 5.81468 0
M  V30 7088 H 676.224 -1.7787 5.84119 0
M  V30 7089 H 677.638 0.489062 5.7121 0
M  V30 7090 H 676.035 1.26511 5.86613 0
M  V30 7091 H 677.105 1.72818 4.53059 0
M  V30 7092 N 678.448 -1.51871 0.421078 0
M  V30 7093 C 679.725 -1.9447 -0.20993 0
M  V30 7094 C 680.105 -1.35875 -1.61558 0
M  V30 7095 O 679.453 -0.539294 -2.22045 0
M  V30 7096 C 679.663 -3.48402 -0.204165 0
M  V30 7097 C 681.011 -4.2254 -0.417696 0
M  V30 7098 O 682.035 -3.55074 -0.282999 0
M  V30 7099 O 680.894 -5.422 -0.684239 0
M  V30 7100 H 677.988 -0.815283 -0.138718 0
M  V30 7101 H 680.534 -1.62832 0.477884 0
M  V30 7102 H 679.306 -3.83464 0.779183 0
M  V30 7103 H 678.929 -3.86436 -0.935576 0
M  V30 7104 N 679.926 -0.151884 -1.56866 0
M  V30 7105 C 681.342 0.204486 -1.58285 0
M  V30 7106 C 681.542 1.6431 -1.16639 0
M  V30 7107 O 680.598 2.37077 -0.868946 0
M  V30 7108 C 681.911 -0.0587019 -3.00643 0
M  V30 7109 C 683.459 0.00462303 -3.13 0
M  V30 7110 C 683.934 -0.231297 -4.57416 0
M  V30 7111 N 685.425 -0.178394 -4.62856 0
M  V30 7112 C 686.16 -0.335379 -5.72418 0
M  V30 7113 N 685.656 -0.550355 -6.90611 0
M  V30 7114 N 687.449 -0.272641 -5.61438 0
M  V30 7115 H 679.6 -1.09116 -1.82229 0
M  V30 7116 H 681.863 -0.432311 -0.843689 0
M  V30 7117 H 681.569 -1.05453 -3.35518 0
M  V30 7118 H 681.443 0.658508 -3.71407 0
M  V30 7119 H 683.83 0.991009 -2.77962 0
M  V30 7120 H 683.911 -0.744992 -2.44711 0
M  V30 7121 H 683.555 -1.2148 -4.93158 0
M  V30 7122 H 683.485 0.5387 -5.23837 0
M  V30 7123 H 685.976 -0.0170923 -3.77896 0
M  V30 7124 H 686.289 -0.660116 -7.69976 0
M  V30 7125 H 684.634 -0.586736 -6.92519 0
M  V30 7126 H 687.825 -0.105421 -4.67981 0
M  V30 7127 H 687.998 -0.398418 -6.46774 0
M  V30 7128 N 681.404 1.57128 0.121893 0
M  V30 7129 C 682.681 1.75664 0.860327 0
M  V30 7130 C 683.061 0.726585 1.98202 0
M  V30 7131 O 682.409 -0.24999 2.27128 0
M  V30 7132 C 682.619 3.20571 1.37968 0
M  V30 7133 C 683.967 3.82988 1.83317 0
M  V30 7134 O 684.991 3.24156 1.47654 0
M  V30 7135 O 683.85 4.86393 2.49168 0
M  V30 7136 H 680.944 0.719153 0.408348 0
M  V30 7137 H 683.49 1.6937 0.105859 0
M  V30 7138 H 682.262 3.87056 0.57477 0
M  V30 7139 H 681.885 3.31392 2.19694 0
M  V30 7140 N 682.882 -0.391992 1.52647 0
M  V30 7141 C 684.131 -1.13449 1.6677 0
M  V30 7142 C 684.444 -1.91203 0.412399 0
M  V30 7143 O 685.65 -2.68013 0.433707 0
M  V30 7144 C 684.106 -2.06577 2.9471 0
M  V30 7145 C 683.714 -1.3426 4.27409 0
M  V30 7146 C 685.458 -2.80981 3.18198 0
M  V30 7147 C 683.365 -2.26136 5.46458 0
M  V30 7148 H 682.295 -0.427211 0.621295 0
M  V30 7149 H 684.946 -0.397522 1.79142 0
M  V30 7150 H 683.328 -2.83898 2.76076 0
M  V30 7151 H 684.502 -0.621856 4.56585 0
M  V30 7152 H 682.817 -0.718279 4.10158 0
M  V30 7153 H 685.414 -3.49898 4.04321 0
M  V30 7154 H 685.757 -3.44891 2.33144 0
M  V30 7155 H 686.29 -2.10754 3.37383 0
M  V30 7156 H 683.029 -1.66846 6.33911 0
M  V30 7157 H 682.549 -2.96134 5.21598 0
M  V30 7158 H 684.228 -2.86286 5.80215 0
M  V30 7159 N 684.36 -1.4356 -0.65026 0
M  V30 7160 C 685.323 -1.48615 -1.74489 0
M  V30 7161 C 686.323 -0.370483 -1.56474 0
M  V30 7162 O 687.513 -0.632351 -1.62317 0
M  V30 7163 C 684.645 -1.34161 -3.13391 0
M  V30 7164 H 685.838 -2.46103 -1.71387 0
M  V30 7165 H 683.391 -1.30369 -0.862186 0
M  V30 7166 H 684.126 -0.376918 -3.22102 0
M  V30 7167 H 683.911 -2.1504 -3.27872 0
M  V30 7168 H 685.401 -1.40637 -3.93206 0
M  V30 7169 N 685.838 0.888903 -1.30139 0
M  V30 7170 C 686.768 2.01046 -1.18755 0
M  V30 7171 C 687.749 1.69916 -0.0791438 0
M  V30 7172 O 688.934 1.92445 -0.260498 0
M  V30 7173 C 686.064 3.36109 -0.874518 0
M  V30 7174 C 685.018 3.81486 -1.94043 0
M  V30 7175 C 684.344 5.13796 -1.48047 0
M  V30 7176 C 685.644 4.00637 -3.35093 0
M  V30 7177 H 687.338 2.10828 -2.12584 0
M  V30 7178 H 684.884 1.01298 -1.02346 0
M  V30 7179 H 686.837 4.14089 -0.781548 0
M  V30 7180 H 685.561 3.26449 0.0994519 0
M  V30 7181 H 684.22 3.05731 -2.02297 0
M  V30 7182 H 683.868 5.0056 -0.494878 0
M  V30 7183 H 683.568 5.45127 -2.19341 0
M  V30 7184 H 685.092 5.94305 -1.40121 0
M  V30 7185 H 686.506 4.69067 -3.2962 0
M  V30 7186 H 684.903 4.43339 -4.04438 0
M  V30 7187 H 685.973 3.0462 -3.77273 0
M  V30 7188 N 687.317 1.12792 1.10072 0
M  V30 7189 C 688.25 0.742921 2.15768 0
M  V30 7190 C 689.228 -0.267714 1.60381 0
M  V30 7191 O 690.412 -0.160782 1.87813 0
M  V30 7192 C 687.539 0.100244 3.38552 0
M  V30 7193 C 686.585 1.07831 4.12644 0
M  V30 7194 S 687.418 2.60765 4.6772 0
M  V30 7195 C 688.574 1.97838 5.9381 0
M  V30 7196 H 688.807 1.63822 2.48092 0
M  V30 7197 H 686.34 0.947385 1.21918 0
M  V30 7198 H 688.298 -0.264175 4.09649 0
M  V30 7199 H 686.959 -0.772223 3.04459 0
M  V30 7200 H 686.152 0.576325 5.00694 0
M  V30 7201 H 685.754 1.38586 3.47376 0
M  V30 7202 H 688.046 1.32341 6.64449 0
M  V30 7203 H 688.989 2.83943 6.48677 0
M  V30 7204 H 689.397 1.43267 5.46017 0
M  V30 7205 N 688.795 -1.27931 0.920396 0
M  V30 7206 C 689.742 -2.27085 0.412422 0
M  V30 7207 C 690.712 -1.57858 -0.516725 0
M  V30 7208 O 691.897 -1.85717 -0.437475 0
M  V30 7209 C 689.037 -3.43466 -0.335399 0
M  V30 7210 C 688.15 -4.27425 0.627017 0
M  V30 7211 C 687.285 -5.31016 -0.139916 0
M  V30 7212 C 686.324 -6.06641 0.815683 0
M  V30 7213 N 685.461 -7.02052 0.0818439 0
M  V30 7214 H 690.301 -2.69913 1.26298 0
M  V30 7215 H 687.838 -1.32732 0.634076 0
M  V30 7216 H 689.796 -4.09744 -0.785226 0
M  V30 7217 H 688.426 -3.01611 -1.15025 0
M  V30 7218 H 687.478 -3.6113 1.19537 0
M  V30 7219 H 688.79 -4.79969 1.35763 0
M  V30 7220 H 687.944 -6.03208 -0.649998 0
M  V30 7221 H 686.683 -4.79257 -0.903543 0
M  V30 7222 H 685.688 -5.33294 1.33708 0
M  V30 7223 H 686.913 -6.60489 1.57897 0
M  V30 7224 H 684.859 -6.52634 -0.663671 0
M  V30 7225 H 684.776 -7.52249 0.752163 0
M  V30 7226 H 686.044 -7.78432 -0.407825 0
M  V30 7227 N 690.273 -0.685099 -1.4193 0
M  V30 7228 C 691.203 -0.0273506 -2.33484 0
M  V30 7229 C 692.184 0.778366 -1.51246 0
M  V30 7230 O 693.369 0.733449 -1.79817 0
M  V30 7231 C 690.499 0.917272 -3.34968 0
M  V30 7232 C 689.453 0.21941 -4.27437 0
M  V30 7233 C 688.779 1.27768 -5.1921 0
M  V30 7234 C 690.079 -0.907894 -5.14349 0
M  V30 7235 H 691.773 -0.791994 -2.88735 0
M  V30 7236 H 689.319 -0.382308 -1.38832 0
M  V30 7237 H 691.272 1.38657 -3.97935 0
M  V30 7238 H 689.996 1.71346 -2.78043 0
M  V30 7239 H 688.655 -0.229757 -3.65879 0
M  V30 7240 H 688.303 2.06612 -4.58607 0
M  V30 7241 H 688.003 0.815803 -5.81909 0
M  V30 7242 H 689.527 1.7477 -5.85054 0
M  V30 7243 H 690.941 -0.519348 -5.70943 0
M  V30 7244 H 689.338 -1.2962 -5.85934 0
M  V30 7245 H 690.408 -1.75218 -4.52136 0
M  V30 7246 N 691.751 1.51645 -0.429126 0
M  V30 7247 C 692.698 2.27542 0.386446 0
M  V30 7248 C 693.668 1.30786 1.02393 0
M  V30 7249 O 694.853 1.59678 1.0444 0
M  V30 7250 C 691.993 3.11457 1.48623 0
M  V30 7251 C 691.106 4.23196 0.867691 0
M  V30 7252 C 690.241 4.94435 1.94183 0
M  V30 7253 C 689.28 5.98108 1.30129 0
M  V30 7254 N 688.417 6.62786 2.31644 0
M  V30 7255 H 693.257 2.968 -0.267155 0
M  V30 7256 H 690.794 1.46397 -0.143591 0
M  V30 7257 H 692.752 3.58429 2.13506 0
M  V30 7258 H 691.382 2.44329 2.10957 0
M  V30 7259 H 690.434 3.80248 0.107373 0
M  V30 7260 H 691.746 4.97499 0.35997 0
M  V30 7261 H 690.9 5.44914 2.66747 0
M  V30 7262 H 689.639 4.19744 2.48326 0
M  V30 7263 H 688.644 5.4693 0.561082 0
M  V30 7264 H 689.869 6.74751 0.767303 0
M  V30 7265 H 687.815 5.90913 2.84883 0
M  V30 7266 H 687.732 7.32828 1.85741 0
M  V30 7267 H 689 7.17897 3.03717 0
M  V30 7268 N 693.229 0.160201 1.56784 0
M  V30 7269 C 694.176 -0.774416 2.1742 0
M  V30 7270 C 695.146 -1.23483 1.11091 0
M  V30 7271 O 696.331 -1.30499 1.39193 0
M  V30 7272 C 693.471 -2.00283 2.81035 0
M  V30 7273 C 692.584 -1.58701 4.01793 0
M  V30 7274 C 691.719 -2.76824 4.53367 0
M  V30 7275 C 690.758 -2.31679 5.66561 0
M  V30 7276 N 689.895 -3.42856 6.12694 0
M  V30 7277 H 694.735 -0.250542 2.96945 0
M  V30 7278 H 692.272 -0.111943 1.46673 0
M  V30 7279 H 694.23 -2.72316 3.16069 0
M  V30 7280 H 692.86 -2.5006 2.04132 0
M  V30 7281 H 691.912 -0.76384 3.72652 0
M  V30 7282 H 693.224 -1.21555 4.83762 0
M  V30 7283 H 692.378 -3.57029 4.90525 0
M  V30 7284 H 691.117 -3.17223 3.70433 0
M  V30 7285 H 690.122 -1.49917 5.28966 0
M  V30 7286 H 691.347 -1.9235 6.5129 0
M  V30 7287 H 689.293 -3.82852 5.32692 0
M  V30 7288 H 689.21 -3.09767 6.89624 0
M  V30 7289 H 690.478 -4.23379 6.545 0
M  V30 7290 N 694.707 -1.5719 -0.113559 0
M  V30 7291 C 696.118 -1.74259 -0.670116 0
M  V30 7292 C 696.469 -0.779694 -1.80042 0
M  V30 7293 O 695.594 0.0461353 -2.16351 0
M  V30 7294 C 696.189 -3.15981 -1.22236 0
M  V30 7295 C 694.748 -3.34537 -1.72516 0
M  V30 7296 C 693.895 -2.70116 -0.627098 0
M  V30 7297 H 696.846 -1.58301 0.112396 0
M  V30 7298 H 696.867 -3.17832 -2.09197 0
M  V30 7299 H 696.379 -3.86038 -0.39949 0
M  V30 7300 H 694.48 -2.6953 -2.57263 0
M  V30 7301 H 694.593 -4.42737 -1.83086 0
M  V30 7302 H 692.957 -2.31501 -1.06204 0
M  V30 7303 H 693.74 -3.42802 0.184889 0
M  V30 7304 N 696.185 0.383891 -1.52853 0
M  V30 7305 C 697.431 1.13009 -1.68395 0
M  V30 7306 C 697.764 1.89488 -0.425195 0
M  V30 7307 O 697.039 1.8574 0.577136 0
M  V30 7308 C 697.322 2.10419 -2.92226 0
M  V30 7309 C 697.175 1.3767 -4.28214 0
M  V30 7310 C 698.494 3.10781 -3.11614 0
M  V30 7311 H 695.613 0.409463 -0.612788 0
M  V30 7312 H 698.255 0.412895 -1.85459 0
M  V30 7313 H 696.405 2.71579 -2.77808 0
M  V30 7314 H 698.077 0.794352 -4.54409 0
M  V30 7315 H 696.32 0.678533 -4.2846 0
M  V30 7316 H 696.991 2.08874 -5.10956 0
M  V30 7317 H 699.467 2.59715 -3.25096 0
M  V30 7318 H 698.343 3.76179 -3.99725 0
M  V30 7319 H 698.604 3.79933 -2.2606 0
M  V30 7320 N 697.663 1.43903 0.642637 0
M  V30 7321 C 698.626 1.49538 1.73698 0
M  V30 7322 C 699.626 0.378776 1.56275 0
M  V30 7323 O 700.816 0.64095 1.6198 0
M  V30 7324 C 697.948 1.35821 3.12675 0
M  V30 7325 H 699.141 2.47008 1.70079 0
M  V30 7326 H 696.694 1.30824 0.85526 0
M  V30 7327 H 697.429 0.393994 3.21898 0
M  V30 7328 H 697.214 2.16776 3.26727 0
M  V30 7329 H 698.704 1.4272 3.92455 0
M  V30 7330 N 699.141 -0.881989 1.30609 0
M  V30 7331 C 700.388 -1.63405 1.19604 0
M  V30 7332 C 700.716 -1.92905 -0.248574 0
M  V30 7333 O 699.971 -1.55062 -1.19391 0
M  V30 7334 C 700.27 -2.97999 1.97311 0
M  V30 7335 C 699.936 -2.88039 3.46907 0
M  V30 7336 C 698.598 -2.85029 3.877 0
M  V30 7337 C 700.95 -2.75948 4.42156 0
M  V30 7338 C 698.278 -2.67772 5.2203 0
M  V30 7339 C 700.63 -2.60228 5.76597 0
M  V30 7340 C 699.294 -2.55595 6.16626 0
M  V30 7341 H 698.564 -0.597941 0.437662 0
M  V30 7342 H 701.211 -1.02524 1.61744 0
M  V30 7343 H 699.516 -3.62847 1.47815 0
M  V30 7344 H 701.213 -3.55156 1.86186 0
M  V30 7345 H 697.803 -2.91192 3.14492 0
M  V30 7346 H 701.987 -2.77337 4.1158 0
M  V30 7347 H 697.243 -2.62601 5.52133 0
M  V30 7348 H 701.417 -2.49847 6.50038 0
M  V30 7349 H 699.044 -2.41981 7.20659 0
M  V30 7350 N 700.619 -1.13374 -1.09472 0
M  V30 7351 C 701.844 -0.918711 -1.85942 0
M  V30 7352 C 702.269 0.527225 -1.8056 0
M  V30 7353 O 701.627 1.37408 -1.18274 0
M  V30 7354 C 701.675 -1.41056 -3.31867 0
M  V30 7355 O 700.779 -0.595496 -4.08078 0
M  V30 7356 H 700.12 -0.329297 -0.576593 0
M  V30 7357 H 702.65 -1.50829 -1.38245 0
M  V30 7358 H 702.66 -1.41398 -3.82715 0
M  V30 7359 H 701.335 -2.46335 -3.35099 0
M  V30 7360 H 699.912 -0.659911 -3.67014 0
M  V30 7361 N 702.098 1.27442 -0.927168 0
M  V30 7362 C 703.375 1.89473 -0.485742 0
M  V30 7363 C 703.755 1.83922 1.03614 0
M  V30 7364 O 703.103 1.28409 1.89007 0
M  V30 7365 C 703.313 3.33417 -1.03123 0
M  V30 7366 C 704.661 4.10333 -1.0914 0
M  V30 7367 O 705.685 3.4243 -0.98082 0
M  V30 7368 O 704.544 5.31737 -1.26165 0
M  V30 7369 H 701.638 0.812124 -0.156154 0
M  V30 7370 H 704.184 1.35713 -1.01882 0
M  V30 7371 H 702.956 3.31747 -2.07508 0
M  V30 7372 H 702.579 3.94695 -0.479767 0
M  V30 7373 N 703.576 0.692616 1.41565 0
M  V30 7374 C 704.806 0.230943 2.05305 0
M  V30 7375 C 705.214 -1.12379 1.52209 0
M  V30 7376 O 704.557 -1.71281 0.663968 0
M  V30 7377 C 704.619 0.107894 3.59338 0
M  V30 7378 C 704.283 1.39419 4.35214 0
M  V30 7379 C 705.28 2.33143 4.64694 0
M  V30 7380 C 702.965 1.64674 4.74539 0
M  V30 7381 C 704.959 3.50385 5.32456 0
M  V30 7382 C 702.646 2.82202 5.42038 0
M  V30 7383 C 703.644 3.74881 5.70923 0
M  V30 7384 O 703.332 4.90351 6.37033 0
M  V30 7385 H 703.064 0.105708 0.667684 0
M  V30 7386 H 705.618 0.94488 1.82376 0
M  V30 7387 H 703.848 -0.661785 3.80995 0
M  V30 7388 H 705.537 -0.316213 4.04666 0
M  V30 7389 H 706.303 2.14887 4.34797 0
M  V30 7390 H 702.182 0.934007 4.51439 0
M  V30 7391 H 705.726 4.22743 5.54918 0
M  V30 7392 H 701.623 3.00376 5.71353 0
M  V30 7393 H 702.391 4.90128 6.55528 0
M  V30 7394 N 705.054 -1.51416 0.437162 0
M  V30 7395 C 706.303 -2.01275 -0.130865 0
M  V30 7396 C 706.616 -1.32593 -1.438 0
M  V30 7397 O 707.822 -1.7342 -2.08897 0
M  V30 7398 C 706.278 -3.5878 -0.283763 0
M  V30 7399 C 705.886 -4.36399 1.01293 0
M  V30 7400 C 707.63 -4.16786 -0.805569 0
M  V30 7401 C 705.537 -5.85608 0.825687 0
M  V30 7402 H 704.467 -0.752157 -0.0526818 0
M  V30 7403 H 707.118 -1.74524 0.566896 0
M  V30 7404 H 705.5 -3.81976 -1.04452 0
M  V30 7405 H 706.674 -4.24948 1.78201 0
M  V30 7406 H 704.989 -3.89843 1.46326 0
M  V30 7407 H 707.586 -5.25972 -0.962146 0
M  V30 7408 H 707.929 -3.75949 -1.78796 0
M  V30 7409 H 708.462 -3.97666 -0.103125 0
M  V30 7410 H 705.201 -6.30857 1.78045 0
M  V30 7411 H 704.721 -5.99723 0.0964029 0
M  V30 7412 H 706.4 -6.45226 0.478815 0
M  V30 7413 N 706.532 -0.168513 -1.56696 0
M  V30 7414 C 707.482 0.7751 -2.14421 0
M  V30 7415 C 708.466 1.19476 -1.07769 0
M  V30 7416 O 709.658 1.15759 -1.33898 0
M  V30 7417 C 706.787 2.00549 -2.7863 0
M  V30 7418 C 705.873 1.60795 -3.92436 0
M  V30 7419 N 706.264 0.919812 -4.97366 0
M  V30 7420 C 704.562 1.89917 -4.03544 0
M  V30 7421 C 705.263 0.724485 -5.77171 0
M  V30 7422 N 704.239 1.26505 -5.28675 0
M  V30 7423 H 708.041 0.240349 -2.92916 0
M  V30 7424 H 705.555 0.0322675 -1.62368 0
M  V30 7425 H 707.552 2.6917 -3.1836 0
M  V30 7426 H 706.212 2.54522 -2.01615 0
M  V30 7427 H 707.223 0.578169 -5.14663 0
M  V30 7428 H 703.9 2.45587 -3.37629 0
M  V30 7429 H 705.29 0.180521 -6.71657 0
M  V30 7430 N 708.01 1.57248 0.105221 0
M  V30 7431 C 709.421 1.74612 0.660865 0
M  V30 7432 C 709.772 0.789231 1.79626 0
M  V30 7433 O 708.897 -0.0346611 2.16372 0
M  V30 7434 C 709.492 3.16624 1.20559 0
M  V30 7435 C 708.051 3.35447 1.7074 0
M  V30 7436 C 707.198 2.70445 0.612764 0
M  V30 7437 H 710.149 1.5824 -0.12079 0
M  V30 7438 H 710.17 3.18937 2.07508 0
M  V30 7439 H 709.682 3.86245 0.379012 0
M  V30 7440 H 707.783 2.7089 2.5583 0
M  V30 7441 H 707.896 4.43702 1.80736 0
M  V30 7442 H 706.26 2.32061 1.04975 0
M  V30 7443 H 707.043 3.42699 -0.203066 0
M  V30 7444 N 709.488 -0.375779 1.53054 0
M  V30 7445 C 710.734 -1.12114 1.68992 0
M  V30 7446 C 711.067 -1.8926 0.435238 0
M  V30 7447 O 710.342 -1.86044 -0.567278 0
M  V30 7448 C 710.625 -2.08867 2.93337 0
M  V30 7449 C 710.478 -1.35397 4.28938 0
M  V30 7450 C 711.797 -3.09124 3.13257 0
M  V30 7451 H 708.916 -0.406207 0.614951 0
M  V30 7452 H 711.558 -0.403054 1.85676 0
M  V30 7453 H 709.708 -2.70102 2.79244 0
M  V30 7454 H 711.38 -0.770242 4.54824 0
M  V30 7455 H 709.623 -0.655801 4.28814 0
M  V30 7456 H 710.294 -2.06161 5.12056 0
M  V30 7457 H 712.77 -2.57987 3.26469 0
M  V30 7458 H 711.646 -3.74054 4.01715 0
M  V30 7459 H 711.907 -3.78729 2.28072 0
M  V30 7460 N 710.966 -1.44241 -0.634997 0
M  V30 7461 C 712.206 -1.48339 -1.40623 0
M  V30 7462 C 712.57 -0.111479 -1.91676 0
M  V30 7463 O 713.771 -0.0271345 -2.68786 0
M  V30 7464 C 712.042 -2.51122 -2.54308 0
M  V30 7465 S 713.601 -2.74237 -3.42548 0
M  V30 7466 H 710.419 -0.524715 -0.479787 0
M  V30 7467 H 713.021 -1.81138 -0.735489 0
M  V30 7468 H 711.725 -3.49511 -2.15106 0
M  V30 7469 H 711.256 -2.19883 -3.26213 0
M  V30 7470 H 713.271 -2.0554 -4.51628 0
M  V30 7471 N 712.444 0.87505 -1.31075 0
M  V30 7472 C 713.374 1.99775 -1.20881 0
M  V30 7473 C 714.355 1.69822 -0.0971612 0
M  V30 7474 O 715.54 1.92158 -0.280895 0
M  V30 7475 C 712.67 3.35163 -0.910118 0
M  V30 7476 C 711.624 3.79406 -1.98078 0
M  V30 7477 C 710.95 5.12197 -1.53488 0
M  V30 7478 C 712.25 3.97061 -3.39323 0
M  V30 7479 H 713.944 2.08562 -2.14808 0
M  V30 7480 H 711.49 1.00207 -1.03415 0
M  V30 7481 H 713.443 4.13237 -0.825423 0
M  V30 7482 H 712.167 3.26536 0.064822 0
M  V30 7483 H 710.826 3.03568 -2.05528 0
M  V30 7484 H 710.474 5.00007 -0.547941 0
M  V30 7485 H 710.174 5.4277 -2.2511 0
M  V30 7486 H 711.698 5.92785 -1.46417 0
M  V30 7487 H 713.112 4.65545 -3.34576 0
M  V30 7488 H 711.509 4.39025 -4.09118 0
M  V30 7489 H 712.579 3.00601 -3.80483 0
M  V30 7490 N 713.922 1.13953 1.08869 0
M  V30 7491 C 715.333 0.916649 1.62648 0
M  V30 7492 C 715.684 -0.545589 1.88462 0
M  V30 7493 O 714.809 -1.41351 1.63856 0
M  V30 7494 C 715.404 1.65751 2.95486 0
M  V30 7495 C 713.963 1.48034 3.46068 0
M  V30 7496 C 713.11 1.68305 2.20383 0
M  V30 7497 H 716.061 1.292 0.921572 0
M  V30 7498 H 716.082 1.11794 3.63707 0
M  V30 7499 H 715.594 2.72171 2.76667 0
M  V30 7500 H 713.695 0.439416 3.7 0
M  V30 7501 H 713.808 2.24719 4.23129 0
M  V30 7502 H 712.172 1.10833 2.29321 0
M  V30 7503 H 712.955 2.76057 2.04077 0
M  V30 7504 N 715.4 -1.26948 0.933913 0
M  V30 7505 C 716.677 -1.89212 0.495784 0
M  V30 7506 C 717.057 -1.84469 -1.02637 0
M  V30 7507 O 716.405 -1.29409 -1.88323 0
M  V30 7508 C 716.615 -3.32865 1.0489 0
M  V30 7509 C 717.963 -4.09749 1.11315 0
M  V30 7510 O 718.987 -3.41905 0.998966 0
M  V30 7511 O 717.846 -5.31061 1.28983 0
M  V30 7512 H 714.94 -0.811284 0.160459 0
M  V30 7513 H 717.486 -1.35171 1.02601 0
M  V30 7514 H 716.258 -3.30642 2.09265 0
M  V30 7515 H 715.881 -3.94435 0.500692 0
M  V30 7516 N 716.879 -0.700114 -1.41195 0
M  V30 7517 C 718.295 -0.372114 -1.55201 0
M  V30 7518 C 718.495 1.12053 -1.6747 0
M  V30 7519 O 717.551 1.90642 -1.65566 0
M  V30 7520 C 718.864 -1.12462 -2.78878 0
M  V30 7521 C 720.412 -1.10941 -2.92679 0
M  V30 7522 C 720.887 -1.84376 -4.19249 0
M  V30 7523 N 722.378 -1.81368 -4.26216 0
M  V30 7524 C 723.113 -2.35024 -5.23021 0
M  V30 7525 N 722.609 -2.9717 -6.25829 0
M  V30 7526 N 724.402 -2.25254 -5.14992 0
M  V30 7527 H 716.553 -1.66816 -1.31477 0
M  V30 7528 H 718.816 -0.704223 -0.634644 0
M  V30 7529 H 718.522 -2.17937 -2.76037 0
M  V30 7530 H 718.396 -0.706152 -3.70531 0
M  V30 7531 H 720.783 -0.062911 -2.95033 0
M  V30 7532 H 720.864 -1.56698 -2.02187 0
M  V30 7533 H 720.508 -2.89008 -4.17656 0
M  V30 7534 H 720.438 -1.3605 -5.08722 0
M  V30 7535 H 722.929 -1.36062 -3.52556 0
M  V30 7536 H 723.242 -3.35668 -6.96094 0
M  V30 7537 H 721.587 -3.01249 -6.26318 0
M  V30 7538 H 724.778 -1.76372 -4.33602 0
M  V30 7539 H 724.951 -2.67373 -5.90268 0
M  V30 7540 N 718.357 1.51182 -0.445186 0
M  V30 7541 C 719.267 2.31692 0.368255 0
M  V30 7542 C 720.283 1.40942 1.02036 0
M  V30 7543 O 721.459 1.74011 1.01401 0
M  V30 7544 C 718.524 3.14903 1.45041 0
M  V30 7545 C 717.585 4.21442 0.817615 0
M  V30 7546 C 716.818 5.00677 1.8482 0
M  V30 7547 O 717.041 4.80644 3.07145 0
M  V30 7548 O 715.975 5.84559 1.43438 0
M  V30 7549 H 719.801 3.0232 -0.289219 0
M  V30 7550 H 717.386 1.47951 -0.207555 0
M  V30 7551 H 719.268 3.66612 2.07783 0
M  V30 7552 H 717.943 2.47031 2.09182 0
M  V30 7553 H 716.85 3.73791 0.151931 0
M  V30 7554 H 718.183 4.9171 0.219564 0
M  V30 7555 N 719.835 0.176821 1.56605 0
M  V30 7556 C 721.063 -0.472828 2.01425 0
M  V30 7557 C 721.478 -1.56436 1.05703 0
M  V30 7558 O 720.835 -1.82405 0.058808 0
M  V30 7559 C 720.886 -1.04607 3.46034 0
M  V30 7560 O 720.607 0.00189608 4.381 0
M  V30 7561 C 722.108 -1.7734 4.06282 0
M  V30 7562 H 719.328 -0.120503 0.660091 0
M  V30 7563 H 721.872 0.280166 2.02572 0
M  V30 7564 H 720.027 -1.74953 3.45645 0
M  V30 7565 H 720.441 -0.422118 5.22799 0
M  V30 7566 H 721.915 -2.12703 5.09374 0
M  V30 7567 H 722.392 -2.67043 3.4869 0
M  V30 7568 H 722.998 -1.11623 4.10391 0
M  V30 7569 N 721.313 -1.57302 -0.09688 0
M  V30 7570 C 722.276 -2.00976 -1.10188 0
M  V30 7571 C 723.276 -0.903009 -1.3305 0
M  V30 7572 O 724.466 -1.16853 -1.29194 0
M  V30 7573 C 721.598 -2.36893 -2.45142 0
M  V30 7574 H 722.791 -2.9098 -0.726003 0
M  V30 7575 H 720.344 -1.52515 -0.341872 0
M  V30 7576 H 721.079 -1.49837 -2.8761 0
M  V30 7577 H 720.864 -3.17632 -2.29897 0
M  V30 7578 H 722.354 -2.71345 -3.1743 0
M  V30 7579 N 722.791 0.367657 -1.53252 0
M  V30 7580 C 723.754 1.43308 -1.78873 0
M  V30 7581 C 724.754 1.46671 -0.659115 0
M  V30 7582 O 725.944 1.47468 -0.927306 0
M  V30 7583 C 723.076 2.82442 -1.90892 0
M  V30 7584 H 724.269 1.21864 -2.74024 0
M  V30 7585 H 721.822 0.600668 -1.44297 0
M  V30 7586 H 722.557 3.09202 -0.978 0
M  V30 7587 H 722.342 2.81399 -2.73051 0
M  V30 7588 H 723.832 3.59601 -2.12314 0
M  V30 7589 N 724.269 1.44576 0.627338 0
M  V30 7590 C 725.494 1.51271 1.41887 0
M  V30 7591 C 725.919 0.139814 1.8758 0
M  V30 7592 O 725.277 -0.871746 1.58966 0
M  V30 7593 C 725.325 2.48529 2.61277 0
M  V30 7594 O 724.429 1.98944 3.61241 0
M  V30 7595 H 723.77 0.510668 0.424399 0
M  V30 7596 H 726.3 1.89746 0.765356 0
M  V30 7597 H 726.31 2.66689 3.08773 0
M  V30 7598 H 724.985 3.48249 2.27366 0
M  V30 7599 H 723.562 1.90568 3.20528 0
M  V30 7600 N 725.747 -0.868086 1.31537 0
M  V30 7601 C 726.677 -1.99131 1.21939 0
M  V30 7602 C 727.658 -1.69768 0.106166 0
M  V30 7603 O 728.843 -1.92006 0.291081 0
M  V30 7604 C 725.973 -3.34676 0.927879 0
M  V30 7605 C 724.927 -3.7835 2.00088 0
M  V30 7606 C 724.253 -5.11375 1.56203 0
M  V30 7607 C 725.553 -3.95256 3.41424 0
M  V30 7608 H 727.247 -2.07419 2.15911 0
M  V30 7609 H 724.793 -0.996569 1.03945 0
M  V30 7610 H 726.746 -4.12793 0.847327 0
M  V30 7611 H 725.47 -3.26565 -0.0475042 0
M  V30 7612 H 724.129 -3.02474 2.07135 0
M  V30 7613 H 723.777 -4.99709 0.57445 0
M  V30 7614 H 723.477 -5.41568 2.27985 0
M  V30 7615 H 725.001 -5.92001 1.49558 0
M  V30 7616 H 726.415 -4.63764 3.3704 0
M  V30 7617 H 724.812 -4.36849 4.1144 0
M  V30 7618 H 725.882 -2.98579 3.82072 0
M  V30 7619 N 727.225 -1.14528 -1.08264 0
M  V30 7620 C 728.155 -0.856356 -2.1723 0
M  V30 7621 C 729.136 0.189251 -1.69044 0
M  V30 7622 O 730.321 0.0456119 -1.94146 0
M  V30 7623 C 727.451 -0.334662 -3.45684 0
M  V30 7624 C 726.405 -1.31588 -4.0727 0
M  V30 7625 C 725.731 -0.653428 -5.30692 0
M  V30 7626 C 727.031 -2.67866 -4.48381 0
M  V30 7627 H 728.725 -1.76755 -2.41657 0
M  V30 7628 H 726.271 -0.851287 -1.16143 0
M  V30 7629 H 728.224 -0.120128 -4.21229 0
M  V30 7630 H 726.948 0.611967 -3.20815 0
M  V30 7631 H 725.607 -1.51661 -3.33758 0
M  V30 7632 H 725.255 0.299054 -5.0211 0
M  V30 7633 H 724.955 -1.30817 -5.72853 0
M  V30 7634 H 726.479 -0.448453 -6.08951 0
M  V30 7635 H 727.893 -2.51692 -5.15096 0
M  V30 7636 H 726.29 -3.29627 -5.01464 0
M  V30 7637 H 727.36 -3.24632 -3.60198 0
M  V30 7638 N 728.703 1.26451 -0.940633 0
M  V30 7639 C 729.635 2.25556 -0.407104 0
M  V30 7640 C 730.648 1.55888 0.469324 0
M  V30 7641 O 731.837 1.76292 0.279858 0
M  V30 7642 C 728.937 3.36109 0.434064 0
M  V30 7643 C 728.11 4.3532 -0.426082 0
M  V30 7644 C 727.169 5.25004 0.354563 0
M  V30 7645 O 726.195 5.68684 -0.242219 0
M  V30 7646 N 727.397 5.5652 1.65123 0
M  V30 7647 H 730.162 2.7197 -1.25907 0
M  V30 7648 H 727.723 1.40212 -0.809456 0
M  V30 7649 H 729.715 3.93059 0.963684 0
M  V30 7650 H 728.285 2.89194 1.18683 0
M  V30 7651 H 727.505 3.77449 -1.13692 0
M  V30 7652 H 728.793 4.986 -1.01366 0
M  V30 7653 H 728.191 5.22912 2.15822 0
M  V30 7654 H 726.748 6.16115 2.12711 0
M  V30 7655 N 730.181 0.707592 1.40822 0
M  V30 7656 C 731.144 0.0587224 2.29125 0
M  V30 7657 C 732.144 -0.695624 1.44975 0
M  V30 7658 O 733.334 -0.528718 1.65983 0
M  V30 7659 C 730.466 -0.926939 3.28056 0
M  V30 7660 H 731.659 0.836349 2.88002 0
M  V30 7661 H 729.212 0.471778 1.4901 0
M  V30 7662 H 729.947 -1.7319 2.74182 0
M  V30 7663 H 729.732 -0.389015 3.90165 0
M  V30 7664 H 731.222 -1.37837 3.94196 0
M  V30 7665 N 731.66 -1.50943 0.453197 0
M  V30 7666 C 732.908 -2.01813 -0.107709 0
M  V30 7667 C 733.229 -1.33841 -1.41816 0
M  V30 7668 O 732.499 -0.477973 -1.8998 0
M  V30 7669 H 731.079 -0.745773 -0.0427948 0
M  V30 7670 H 733.741 -1.8545 0.599531 0
M  V30 7671 H 732.837 -3.10911 -0.27218 0
M  V30 7672 N 733.138 -0.185124 -1.56509 0
M  V30 7673 C 734.368 0.461469 -2.0138 0
M  V30 7674 C 734.776 1.56417 -1.06445 0
M  V30 7675 O 734.119 1.83603 -0.0597515 0
M  V30 7676 C 734.181 1.08731 -3.42663 0
M  V30 7677 C 733.845 0.124581 -4.5683 0
M  V30 7678 C 734.842 -0.662295 -5.15664 0
M  V30 7679 C 732.527 0.0163947 -5.02297 0
M  V30 7680 C 734.521 -1.54442 -6.18406 0
M  V30 7681 C 732.208 -0.869301 -6.04885 0
M  V30 7682 C 733.206 -1.64828 -6.62813 0
M  V30 7683 O 732.894 -2.51915 -7.63409 0
M  V30 7684 H 732.626 0.1212 -0.665046 0
M  V30 7685 H 735.18 -0.288119 -2.03369 0
M  V30 7686 H 733.41 1.8853 -3.37629 0
M  V30 7687 H 735.099 1.63753 -3.71403 0
M  V30 7688 H 735.865 -0.588963 -4.81411 0
M  V30 7689 H 731.744 0.61253 -4.56913 0
M  V30 7690 H 735.288 -2.15289 -6.63548 0
M  V30 7691 H 731.185 -0.943786 -6.38563 0
M  V30 7692 H 731.953 -2.45584 -7.80789 0
M  V30 7693 N 734.616 1.57351 0.0885366 0
M  V30 7694 C 735.563 2.02523 1.10693 0
M  V30 7695 C 736.533 0.902736 1.39427 0
M  V30 7696 O 737.718 1.16921 1.50779 0
M  V30 7697 C 734.858 2.46013 2.42016 0
M  V30 7698 C 733.971 3.7181 2.19957 0
M  V30 7699 C 733.106 4.04152 3.44724 0
M  V30 7700 C 732.145 5.2304 3.17956 0
M  V30 7701 N 731.282 5.51102 4.35007 0
M  V30 7702 H 736.122 2.89302 0.714742 0
M  V30 7703 H 733.659 1.43084 0.341378 0
M  V30 7704 H 735.617 2.69274 3.18665 0
M  V30 7705 H 734.247 1.62235 2.79069 0
M  V30 7706 H 733.299 3.55987 1.34079 0
M  V30 7707 H 734.611 4.58604 1.96173 0
M  V30 7708 H 733.765 4.28225 4.29777 0
M  V30 7709 H 732.504 3.15893 3.71568 0
M  V30 7710 H 731.509 4.98781 2.31296 0
M  V30 7711 H 732.734 6.12902 2.92451 0
M  V30 7712 H 730.68 4.65802 4.61914 0
M  V30 7713 H 730.597 6.3228 4.14437 0
M  V30 7714 H 731.865 5.79714 5.21106 0
M  V30 7715 N 736.094 -0.359525 1.53444 0
M  V30 7716 C 737.342 -1.09935 1.69584 0
M  V30 7717 C 737.663 -1.89656 0.453371 0
M  V30 7718 O 736.933 -1.8852 -0.53263 0
M  V30 7719 H 735.513 -0.408843 0.625185 0
M  V30 7720 H 738.175 -0.40467 1.90653 0
M  V30 7721 H 737.271 -1.78575 2.55964 0
M  V30 7722 N 737.572 -1.44907 -0.619662 0
M  V30 7723 C 738.988 -1.29046 -0.939107 0
M  V30 7724 C 739.188 -0.23462 -2.00129 0
M  V30 7725 O 738.244 0.37558 -2.49691 0
M  V30 7726 C 739.557 -2.66567 -1.39149 0
M  V30 7727 C 741.105 -2.74368 -1.50635 0
M  V30 7728 C 741.58 -4.12386 -1.99253 0
M  V30 7729 N 743.071 -4.1462 -2.06506 0
M  V30 7730 C 743.806 -5.18272 -2.4532 0
M  V30 7731 N 743.302 -6.32278 -2.83189 0
M  V30 7732 N 745.095 -5.05628 -2.45554 0
M  V30 7733 H 737.246 -2.12239 0.0826135 0
M  V30 7734 H 739.509 -0.947652 -0.0256829 0
M  V30 7735 H 739.215 -3.4496 -0.685254 0
M  V30 7736 H 739.089 -2.94224 -2.36034 0
M  V30 7737 H 741.476 -1.96287 -2.20353 0
M  V30 7738 H 741.557 -2.50439 -0.520963 0
M  V30 7739 H 741.201 -4.90947 -1.30127 0
M  V30 7740 H 741.131 -4.33699 -2.98684 0
M  V30 7741 H 743.622 -3.32343 -1.79878 0
M  V30 7742 H 743.935 -7.07172 -3.11652 0
M  V30 7743 H 742.28 -6.35699 -2.80913 0
M  V30 7744 H 745.471 -4.15613 -2.15367 0
M  V30 7745 H 745.644 -5.86529 -2.75478 0
M  V30 7746 N 739.05 0.861098 -1.31996 0
M  V30 7747 C 740.296 1.61721 -1.22369 0
M  V30 7748 C 740.629 1.93 0.215587 0
M  V30 7749 O 739.904 1.56789 1.15098 0
M  V30 7750 C 740.187 2.9417 -2.07691 0
M  V30 7751 C 740.04 2.69714 -3.59965 0
M  V30 7752 C 741.359 3.95372 -1.93312 0
M  V30 7753 H 738.478 0.586822 -0.44588 0
M  V30 7754 H 741.12 0.994788 -1.61876 0
M  V30 7755 H 739.27 3.47292 -1.74128 0
M  V30 7756 H 740.942 2.23196 -4.03709 0
M  V30 7757 H 739.185 2.03789 -3.82952 0
M  V30 7758 H 739.856 3.63996 -4.14983 0
M  V30 7759 H 742.332 3.51487 -2.22701 0
M  V30 7760 H 741.208 4.85916 -2.55298 0
M  V30 7761 H 741.469 4.32865 -0.898922 0
M  V30 7762 N 740.528 1.15101 1.07655 0
M  V30 7763 C 741.756 0.947731 1.83918 0
M  V30 7764 C 742.171 -0.503927 1.81951 0
M  V30 7765 O 741.528 -1.34941 1.2287 0
M  V30 7766 C 741.579 1.4503 3.31132 0
M  V30 7767 O 741.3 2.84508 3.33146 0
M  V30 7768 C 742.801 1.28806 4.24174 0
M  V30 7769 H 740.021 0.336786 0.580358 0
M  V30 7770 H 742.565 1.52799 1.35914 0
M  V30 7771 H 740.72 0.912632 3.76497 0
M  V30 7772 H 741.134 3.0723 4.251 0
M  V30 7773 H 742.608 1.6882 5.25551 0
M  V30 7774 H 743.085 0.231851 4.38588 0
M  V30 7775 H 743.691 1.81465 3.84643 0
M  V30 7776 N 742.006 -1.2595 0.947325 0
M  V30 7777 C 743.254 -1.93081 0.596996 0
M  V30 7778 C 743.575 -1.74632 -0.867672 0
M  V30 7779 O 742.845 -1.1056 -1.6172 0
M  V30 7780 H 741.425 -0.714542 0.217805 0
M  V30 7781 H 744.087 -1.53265 1.20398 0
M  V30 7782 H 743.183 -3.01134 0.82004 0
M  V30 7783 N 743.484 -0.715051 -1.40445 0
M  V30 7784 C 744.73 -0.263528 -2.01686 0
M  V30 7785 C 745.085 1.13052 -1.55683 0
M  V30 7786 O 744.378 1.75588 -0.766762 0
M  V30 7787 C 744.572 -0.281791 -3.56287 0
M  V30 7788 C 744.401 -1.67607 -4.17298 0
M  V30 7789 C 743.171 -2.2836 -4.50755 0
M  V30 7790 C 745.369 -2.62621 -4.42193 0
M  V30 7791 N 743.351 -3.6015 -4.97157 0
M  V30 7792 C 744.722 -3.79116 -4.90582 0
M  V30 7793 C 746.777 -2.60639 -4.24231 0
M  V30 7794 C 745.48 -4.93937 -5.22895 0
M  V30 7795 C 747.506 -3.74587 -4.57644 0
M  V30 7796 C 746.868 -4.89815 -5.06222 0
M  V30 7797 H 742.967 -0.142252 -0.768953 0
M  V30 7798 H 745.551 -0.936732 -1.70685 0
M  V30 7799 H 743.722 0.360975 -3.86719 0
M  V30 7800 H 745.454 0.186393 -4.04271 0
M  V30 7801 H 742.209 -1.80463 -4.3787 0
M  V30 7802 H 742.633 -4.27757 -5.24741 0
M  V30 7803 H 747.275 -1.72759 -3.85894 0
M  V30 7804 H 744.993 -5.82462 -5.60146 0
M  V30 7805 H 748.579 -3.74328 -4.45387 0
M  V30 7806 H 747.459 -5.76525 -5.3159 0
M  V30 7807 N 744.962 1.50701 -0.461195 0
M  V30 7808 C 746.21 2.01867 0.0970051 0
M  V30 7809 C 746.531 1.34591 1.41104 0
M  V30 7810 O 745.801 0.488041 1.89723 0
M  V30 7811 H 744.381 0.74599 0.0388392 0
M  V30 7812 H 747.043 1.85129 -0.609357 0
M  V30 7813 H 746.139 3.11051 0.255688 0
M  V30 7814 N 746.441 0.193421 1.56409 0
M  V30 7815 C 747.389 -0.744829 2.20352 0
M  V30 7816 C 748.383 -1.22104 1.17418 0
M  V30 7817 O 749.589 -1.18413 1.35567 0
M  V30 7818 H 745.964 -0.258538 0.70616 0
M  V30 7819 H 747.935 -0.181794 2.97846 0
M  V30 7820 C 746.684 -1.95453 2.87565 0
M  V30 7821 H 746.007 -1.59716 3.66512 0
M  V30 7822 H 747.447 -2.58942 3.35745 0
M  V30 7823 C 745.906 -2.79223 1.8851 0
M  V30 7824 O 746.436 -3.77093 1.38434 0
M  V30 7825 N 744.642 -2.44682 1.56777 0
M  V30 7826 H 744.189 -1.65153 1.97692 0
M  V30 7827 H 744.147 -3.01016 0.907573 0
M  V30 7828 N 747.919 -1.57396 -0.0801906 0
M  V30 7829 C 748.849 -2.06145 -1.09665 0
M  V30 7830 C 749.83 -0.953273 -1.40878 0
M  V30 7831 O 751.015 -1.22548 -1.50651 0
M  V30 7832 C 748.145 -2.49836 -2.41245 0
M  V30 7833 C 747.099 -3.64454 -2.24405 0
M  V30 7834 C 746.425 -3.94172 -3.61293 0
M  V30 7835 C 747.725 -4.94807 -1.67223 0
M  V30 7836 H 749.419 -2.91316 -0.691028 0
M  V30 7837 H 746.965 -1.40145 -0.330957 0
M  V30 7838 H 748.918 -2.82552 -3.12638 0
M  V30 7839 H 747.642 -1.61683 -2.83771 0
M  V30 7840 H 746.301 -3.32008 -1.55454 0
M  V30 7841 H 745.949 -3.03163 -4.01374 0
M  V30 7842 H 745.649 -4.71345 -3.50867 0
M  V30 7843 H 747.173 -4.29376 -4.3413 0
M  V30 7844 H 748.587 -5.25807 -2.28472 0
M  V30 7845 H 746.984 -5.76245 -1.67515 0
M  V30 7846 H 748.054 -4.80751 -0.632944 0
M  V30 7847 N 749.397 0.351382 -1.53633 0
M  V30 7848 C 750.344 1.43115 -1.81071 0
M  V30 7849 C 751.314 1.52601 -0.655913 0
M  V30 7850 O 752.499 1.68264 -0.89955 0
M  V30 7851 C 749.639 2.79874 -2.01903 0
M  V30 7852 C 748.752 2.79242 -3.29618 0
M  V30 7853 C 747.887 4.07667 -3.40559 0
M  V30 7854 C 746.926 4.01233 -4.62254 0
M  V30 7855 N 746.063 5.21334 -4.70271 0
M  V30 7856 H 750.903 1.19017 -2.73201 0
M  V30 7857 H 748.44 0.576691 -1.35324 0
M  V30 7858 H 750.398 3.5934 -2.11969 0
M  V30 7859 H 749.028 3.0234 -1.13094 0
M  V30 7860 H 748.08 1.91927 -3.28433 0
M  V30 7861 H 749.392 2.70363 -4.19172 0
M  V30 7862 H 748.546 4.95555 -3.50015 0
M  V30 7863 H 747.285 4.19317 -2.49047 0
M  V30 7864 H 746.29 3.11732 -4.52884 0
M  V30 7865 H 747.515 3.91173 -5.55122 0
M  V30 7866 H 745.461 5.33543 -3.81665 0
M  V30 7867 H 745.378 5.14681 -5.5375 0
M  V30 7868 H 746.646 6.11014 -4.84027 0
M  V30 7869 N 750.875 1.45233 0.611969 0
M  V30 7870 C 751.785 1.56098 1.7513 0
M  V30 7871 C 752.801 0.445646 1.68196 0
M  V30 7872 O 753.977 0.705718 1.88631 0
M  V30 7873 C 751.042 1.52052 3.11579 0
M  V30 7874 C 750.103 2.74589 3.29999 0
M  V30 7875 C 749.336 2.70726 4.59938 0
M  V30 7876 O 749.559 1.77806 5.41979 0
M  V30 7877 O 748.493 3.61864 4.80976 0
M  V30 7878 H 752.319 2.52392 1.68914 0
M  V30 7879 H 749.904 1.27695 0.775528 0
M  V30 7880 H 751.786 1.52387 3.92882 0
M  V30 7881 H 750.461 0.589085 3.18295 0
M  V30 7882 H 749.368 2.79817 2.48301 0
M  V30 7883 H 750.701 3.66843 3.28157 0
M  V30 7884 N 752.353 -0.854086 1.3245 0
M  V30 7885 C 753.581 -1.64074 1.26045 0
M  V30 7886 C 753.996 -1.8802 -0.171456 0
M  V30 7887 O 753.353 -1.4496 -1.10873 0
M  V30 7888 C 753.404 -2.9997 2.01743 0
M  V30 7889 O 753.125 -2.77084 3.39346 0
M  V30 7890 C 754.626 -3.94414 2.02368 0
M  V30 7891 H 751.846 -0.511015 0.434862 0
M  V30 7892 H 754.39 -1.06494 1.74583 0
M  V30 7893 H 752.545 -3.54193 1.56926 0
M  V30 7894 H 752.959 -3.63514 3.78098 0
M  V30 7895 H 754.433 -4.87032 2.59815 0
M  V30 7896 H 754.91 -4.27427 1.01009 0
M  V30 7897 H 755.516 -3.46127 2.47135 0
M  V30 7898 N 753.831 -1.1567 -1.07043 0
M  V30 7899 C 755.077 -0.944878 -1.80121 0
M  V30 7900 C 755.432 0.522239 -1.85177 0
M  V30 7901 O 754.725 1.38228 -1.32678 0
M  V30 7902 C 754.919 -1.49677 -3.24548 0
M  V30 7903 C 754.748 -3.01602 -3.33566 0
M  V30 7904 C 753.518 -3.70177 -3.43943 0
M  V30 7905 C 755.716 -3.99362 -3.24059 0
M  V30 7906 N 753.698 -5.09882 -3.41896 0
M  V30 7907 C 755.069 -5.25404 -3.29167 0
M  V30 7908 C 757.124 -3.91289 -3.07891 0
M  V30 7909 C 755.827 -6.44314 -3.19769 0
M  V30 7910 C 757.853 -5.09761 -2.99829 0
M  V30 7911 C 757.215 -6.34679 -3.05552 0
M  V30 7912 H 753.314 -0.399447 -0.672284 0
M  V30 7913 H 755.898 -1.4693 -1.27749 0
M  V30 7914 H 754.069 -0.998941 -3.75334 0
M  V30 7915 H 755.801 -1.22346 -3.85764 0
M  V30 7916 H 752.556 -3.2078 -3.48421 0
M  V30 7917 H 752.98 -5.82857 -3.44393 0
M  V30 7918 H 757.622 -2.95573 -3.02318 0
M  V30 7919 H 755.34 -7.4026 -3.24101 0
M  V30 7920 H 758.926 -5.05279 -2.88418 0
M  V30 7921 H 757.806 -7.24812 -2.99361 0
M  V30 7922 N 755.309 1.25446 -0.953992 0
M  V30 7923 C 756.537 1.97215 -0.625595 0
M  V30 7924 C 756.952 1.70911 0.802168 0
M  V30 7925 O 756.309 0.984782 1.5365 0
M  V30 7926 C 756.36 3.50777 -0.873943 0
M  V30 7927 O 756.081 3.76173 -2.24556 0
M  V30 7928 C 757.582 4.39776 -0.557845 0
M  V30 7929 H 754.802 0.628652 -0.2346 0
M  V30 7930 H 757.346 1.59632 -1.27819 0
M  V30 7931 H 755.501 3.86474 -0.267765 0
M  V30 7932 H 755.915 4.70636 -2.31522 0
M  V30 7933 H 757.389 5.46431 -0.782157 0
M  V30 7934 H 757.866 4.36257 0.507573 0
M  V30 7935 H 758.472 4.09644 -1.14332 0
M  V30 7936 N 756.787 0.722489 1.40064 0
M  V30 7937 C 757.75 0.0830209 2.2905 0
M  V30 7938 C 758.75 -0.680208 1.45705 0
M  V30 7939 O 759.94 -0.511084 1.66534 0
M  V30 7940 C 757.072 -0.892092 3.29021 0
M  V30 7941 H 758.265 0.866848 2.87099 0
M  V30 7942 H 755.818 0.487556 1.48501 0
M  V30 7943 H 756.553 -1.70273 2.76003 0
M  V30 7944 H 756.338 -0.34761 3.90556 0
M  V30 7945 H 757.828 -1.33648 3.95636 0
M  V30 7946 N 758.265 -1.50454 0.469181 0
M  V30 7947 C 759.213 -2.30101 -0.340033 0
M  V30 7948 C 760.207 -1.37306 -0.992135 0
M  V30 7949 O 761.413 -1.54506 -0.923458 0
M  V30 7950 H 757.788 -0.740941 -0.128495 0
M  V30 7951 H 759.759 -2.96315 0.352144 0
M  V30 7952 C 758.508 -3.17804 -1.41052 0
M  V30 7953 H 757.831 -3.89115 -0.918124 0
M  V30 7954 H 759.271 -3.76533 -1.94934 0
M  V30 7955 C 757.73 -2.35272 -2.4114 0
M  V30 7956 O 758.26 -2.03448 -3.4637 0
M  V30 7957 N 756.466 -1.97889 -2.1281 0
M  V30 7958 H 756.013 -2.2397 -1.27261 0
M  V30 7959 H 755.971 -1.42971 -2.80012 0
M  V30 7960 N 759.743 -0.201713 -1.56304 0
M  V30 7961 C 760.989 0.435952 -1.98059 0
M  V30 7962 C 761.322 1.60811 -1.08873 0
M  V30 7963 O 760.597 1.9398 -0.142128 0
M  V30 7964 C 760.88 0.889706 -3.48936 0
M  V30 7965 C 760.733 -0.284725 -4.48898 0
M  V30 7966 C 762.052 1.7529 -4.03685 0
M  V30 7967 H 759.171 0.15699 -0.720085 0
M  V30 7968 H 761.813 -0.293965 -1.87712 0
M  V30 7969 H 759.963 1.51166 -3.57884 0
M  V30 7970 H 761.635 -0.922531 -4.51981 0
M  V30 7971 H 759.878 -0.935427 -4.23594 0
M  V30 7972 H 760.549 0.0753865 -5.51949 0
M  V30 7973 H 763.025 1.2283 -3.97558 0
M  V30 7974 H 761.901 2.03933 -5.0961 0
M  V30 7975 H 762.162 2.70939 -3.49348 0
M  V30 7976 N 761.222 1.57436 0.0718424 0
M  V30 7977 C 762.47 1.86878 0.769484 0
M  V30 7978 C 762.791 0.7937 1.78116 0
M  V30 7979 O 762.061 -0.177642 1.95093 0
M  V30 7980 H 760.641 0.689593 0.287177 0
M  V30 7981 H 763.303 1.94841 0.0479427 0
M  V30 7982 H 762.399 2.84387 1.28572 0
M  V30 7983 N 762.7 -0.34323 1.53817 0
M  V30 7984 C 763.647 -1.42153 1.81827 0
M  V30 7985 C 764.617 -1.52251 0.663996 0
M  V30 7986 O 765.802 -1.67784 0.908461 0
M  V30 7987 C 762.942 -2.78799 2.03384 0
M  V30 7988 C 762.055 -2.7749 3.31094 0
M  V30 7989 C 761.19 -4.05856 3.42717 0
M  V30 7990 C 760.229 -3.98776 4.64375 0
M  V30 7991 N 759.366 -5.18833 4.73029 0
M  V30 7992 H 764.206 -1.17567 2.73829 0
M  V30 7993 H 761.743 -0.569506 1.35628 0
M  V30 7994 H 763.701 -3.58211 2.13872 0
M  V30 7995 H 762.331 -3.01736 1.14696 0
M  V30 7996 H 761.383 -1.90182 3.29446 0
M  V30 7997 H 762.695 -2.68137 4.206 0
M  V30 7998 H 761.849 -4.93691 3.52638 0
M  V30 7999 H 760.588 -4.1799 2.51267 0
M  V30 8000 H 759.593 -3.09325 4.5453 0
M  V30 8001 H 760.818 -3.88224 5.57189 0
M  V30 8002 H 758.764 -5.31511 3.84489 0
M  V30 8003 H 758.681 -5.11737 5.56472 0
M  V30 8004 H 759.949 -6.08439 4.87261 0
M  V30 8005 N 764.178 -1.45556 -0.604258 0
M  V30 8006 C 765.426 -1.4945 -1.36048 0
M  V30 8007 C 765.747 -0.138933 -1.94504 0
M  V30 8008 O 765.017 0.832097 -1.7735 0
M  V30 8009 H 763.597 -0.550381 -0.505064 0
M  V30 8010 H 766.259 -1.81535 -0.709308 0
M  V30 8011 H 765.355 -2.23519 -2.17821 0
M  V30 8012 N 765.656 0.84705 -1.32902 0
M  V30 8013 C 766.588 1.96308 -1.18304 0
M  V30 8014 C 767.601 1.62386 -0.116082 0
M  V30 8015 O 768.79 1.74713 -0.365751 0
M  V30 8016 C 765.89 3.29556 -0.790305 0
M  V30 8017 C 765.063 3.91668 -1.94717 0
M  V30 8018 C 764.122 5.0326 -1.53674 0
M  V30 8019 O 763.148 5.22847 -2.24989 0
M  V30 8020 N 764.35 5.78852 -0.437075 0
M  V30 8021 H 767.115 2.09369 -2.14441 0
M  V30 8022 H 764.676 1.02233 -1.25539 0
M  V30 8023 H 766.668 4.01624 -0.49799 0
M  V30 8024 H 765.238 3.12497 0.0801286 0
M  V30 8025 H 764.458 3.12292 -2.40557 0
M  V30 8026 H 765.746 4.299 -2.72146 0
M  V30 8027 H 765.144 5.65484 0.156316 0
M  V30 8028 H 763.701 6.51479 -0.204399 0
M  V30 8029 N 767.134 1.16236 1.06428 0
M  V30 8030 C 768.545 0.950942 1.60667 0
M  V30 8031 C 768.896 -0.505491 1.89576 0
M  V30 8032 O 768.021 -1.37843 1.66818 0
M  V30 8033 C 768.616 1.71982 2.91904 0
M  V30 8034 C 767.175 1.55342 3.4285 0
M  V30 8035 C 766.322 1.72942 2.16763 0
M  V30 8036 H 769.273 1.31126 0.893959 0
M  V30 8037 H 769.294 1.19483 3.61253 0
M  V30 8038 H 768.806 2.77978 2.70831 0
M  V30 8039 H 766.907 0.5178 3.68985 0
M  V30 8040 H 767.02 2.33643 4.18267 0
M  V30 8041 H 765.384 1.15673 2.26918 0
M  V30 8042 H 766.167 2.80324 1.98175 0
M  V30 8043 N 768.612 -1.24939 0.960631 0
M  V30 8044 C 769.837 -1.9742 0.635608 0
M  V30 8045 C 770.262 -1.70857 -0.786737 0
M  V30 8046 O 769.62 -0.968063 -1.53291 0
M  V30 8047 C 769.668 -3.48987 0.907771 0
M  V30 8048 O 768.772 -4.12399 -0.0104053 0
M  V30 8049 H 768.113 -0.61871 0.241027 0
M  V30 8050 H 770.643 -1.58901 1.28886 0
M  V30 8051 H 770.653 -3.99334 0.836453 0
M  V30 8052 H 769.328 -3.6765 1.94439 0
M  V30 8053 H 767.905 -3.72727 0.113631 0
M  V30 8054 N 770.09 -0.729906 -1.39679 0
M  V30 8055 C 771.336 -0.27603 -2.00913 0
M  V30 8056 C 771.669 1.13227 -1.57776 0
M  V30 8057 O 770.944 1.7709 -0.804319 0
M  V30 8058 C 771.227 -0.372157 -3.58172 0
M  V30 8059 C 771.08 -1.81986 -4.11341 0
M  V30 8060 C 772.399 0.248378 -4.39399 0
M  V30 8061 H 769.518 -0.101773 -0.729939 0
M  V30 8062 H 772.16 -0.925104 -1.65957 0
M  V30 8063 H 770.31 0.180459 -3.88081 0
M  V30 8064 H 771.982 -2.42896 -3.92172 0
M  V30 8065 H 770.225 -2.34287 -3.65092 0
M  V30 8066 H 770.896 -1.83842 -5.20486 0
M  V30 8067 H 773.372 -0.222645 -4.15504 0
M  V30 8068 H 772.248 0.150746 -5.48693 0
M  V30 8069 H 772.509 1.33378 -4.21501 0
M  V30 8070 N 771.568 1.50203 -0.477153 0
M  V30 8071 C 772.498 2.31517 0.303646 0
M  V30 8072 C 773.479 1.38696 0.984753 0
M  V30 8073 O 774.664 1.67615 0.980758 0
M  V30 8074 C 771.794 3.18598 1.38249 0
M  V30 8075 C 770.748 4.2002 0.822645 0
M  V30 8076 C 770.074 4.95878 2.00024 0
M  V30 8077 C 771.374 5.22023 -0.170185 0
M  V30 8078 H 773.068 2.97042 -0.375027 0
M  V30 8079 H 770.614 1.42848 -0.181802 0
M  V30 8080 H 772.567 3.74282 1.93625 0
M  V30 8081 H 771.291 2.5097 2.09002 0
M  V30 8082 H 769.95 3.65445 0.290813 0
M  V30 8083 H 769.598 4.24717 2.69489 0
M  V30 8084 H 769.298 5.64487 1.63183 0
M  V30 8085 H 770.822 5.54399 2.55878 0
M  V30 8086 H 772.236 5.72543 0.294606 0
M  V30 8087 H 770.633 5.98386 -0.453181 0
M  V30 8088 H 771.703 4.72396 -1.09408 0
M  V30 8089 N 773.046 0.209999 1.56195 0
M  V30 8090 C 773.978 -0.736967 2.17029 0
M  V30 8091 C 774.991 -1.16599 1.13616 0
M  V30 8092 O 776.18 -1.09914 1.40646 0
M  V30 8093 C 773.28 -2.00852 2.72969 0
M  V30 8094 C 772.453 -1.73691 4.01435 0
M  V30 8095 C 771.512 -2.85439 4.42053 0
M  V30 8096 O 770.538 -2.54405 5.09183 0
M  V30 8097 N 771.74 -4.14135 4.06783 0
M  V30 8098 H 774.505 -0.216656 2.98916 0
M  V30 8099 H 772.066 0.0285672 1.61875 0
M  V30 8100 H 774.058 -2.74778 2.97118 0
M  V30 8101 H 772.628 -2.43963 1.95451 0
M  V30 8102 H 771.848 -0.834676 3.85262 0
M  V30 8103 H 773.136 -1.52961 4.85263 0
M  V30 8104 H 772.534 -4.42196 3.52816 0
M  V30 8105 H 771.091 -4.84642 4.35851 0
M  V30 8106 N 774.524 -1.57472 -0.0634922 0
M  V30 8107 C 775.77 -1.87932 -0.762194 0
M  V30 8108 C 776.103 -0.803377 -1.76804 0
M  V30 8109 O 775.378 0.185468 -1.93614 0
M  V30 8110 C 775.661 -3.29053 -1.46275 0
M  V30 8111 C 775.514 -4.47309 -0.472755 0
M  V30 8112 C 776.833 -3.68537 -2.40558 0
M  V30 8113 H 773.952 -0.683521 -0.275624 0
M  V30 8114 H 776.594 -1.89983 -0.0252651 0
M  V30 8115 H 774.744 -3.27435 -2.0909 0
M  V30 8116 H 776.416 -4.61053 0.150828 0
M  V30 8117 H 774.659 -4.33286 0.211187 0
M  V30 8118 H 775.33 -5.42853 -1.00072 0
M  V30 8119 H 777.806 -3.71302 -1.87814 0
M  V30 8120 H 776.682 -4.68152 -2.86574 0
M  V30 8121 H 776.943 -2.98917 -3.25731 0
M  V30 8122 N 776.003 0.335068 -1.53997 0
M  V30 8123 C 777.249 1.07594 -1.71905 0
M  V30 8124 C 777.582 1.88039 -0.485264 0
M  V30 8125 O 776.857 1.87482 0.517752 0
M  V30 8126 C 777.14 2.01016 -2.98772 0
M  V30 8127 C 776.993 1.23977 -4.32377 0
M  V30 8128 C 778.312 3.0071 -3.21343 0
M  V30 8129 H 775.431 0.38976 -0.625505 0
M  V30 8130 H 778.073 0.353684 -1.86679 0
M  V30 8131 H 776.223 2.62603 -2.86307 0
M  V30 8132 H 777.895 0.649383 -4.56706 0
M  V30 8133 H 776.138 0.541878 -4.30402 0
M  V30 8134 H 776.809 1.92512 -5.17342 0
M  V30 8135 H 779.285 2.4924 -3.33194 0
M  V30 8136 H 778.161 3.63272 -4.11491 0
M  V30 8137 H 778.422 3.72549 -2.38033 0
M  V30 8138 N 777.481 1.45874 0.596531 0
M  V30 8139 C 778.429 1.55739 1.72766 0
M  V30 8140 C 779.423 0.426666 1.63939 0
M  V30 8141 O 780.629 0.60301 1.69599 0
M  V30 8142 H 777.004 0.489386 0.570968 0
M  V30 8143 H 778.975 2.50871 1.61575 0
M  V30 8144 C 777.724 1.55174 3.11153 0
M  V30 8145 H 777.047 2.41511 3.1861 0
M  V30 8146 H 778.487 1.66133 3.90097 0
M  V30 8147 C 776.946 0.278001 3.35751 0
M  V30 8148 O 777.476 -0.637557 3.96608 0
M  V30 8149 N 775.682 0.170227 2.90101 0
M  V30 8150 H 775.229 0.916159 2.40758 0
M  V30 8151 H 775.187 -0.68117 3.06932 0
M  V30 8152 N 778.959 -0.83999 1.33349 0
M  V30 8153 C 779.889 -1.965 1.26135 0
M  V30 8154 C 780.87 -1.69505 0.142152 0
M  V30 8155 O 782.055 -1.91346 0.331743 0
M  V30 8156 C 779.185 -3.32632 0.99866 0
M  V30 8157 C 778.139 -3.74021 2.08068 0
M  V30 8158 C 777.465 -5.07947 1.67014 0
M  V30 8159 C 778.765 -3.87925 3.49731 0
M  V30 8160 H 780.459 -2.02793 2.20262 0
M  V30 8161 H 778.005 -0.974297 1.06035 0
M  V30 8162 H 779.958 -4.10903 0.934696 0
M  V30 8163 H 778.682 -3.26593 0.0217759 0
M  V30 8164 H 777.341 -2.98012 2.13505 0
M  V30 8165 H 776.989 -4.98378 0.680316 0
M  V30 8166 H 776.689 -5.36611 2.39422 0
M  V30 8167 H 778.213 -5.88695 1.62082 0
M  V30 8168 H 779.627 -4.5651 3.46802 0
M  V30 8169 H 778.024 -4.28023 4.20614 0
M  V30 8170 H 779.094 -2.90407 3.88319 0
M  V30 8171 N 780.437 -1.16799 -1.0581 0
M  V30 8172 C 781.848 -0.95945 -1.60161 0
M  V30 8173 C 782.199 0.49543 -1.89842 0
M  V30 8174 O 781.324 1.36957 -1.67546 0
M  V30 8175 C 781.919 -1.73527 -2.90987 0
M  V30 8176 C 780.478 -1.57158 -3.42021 0
M  V30 8177 C 779.625 -1.74089 -2.15843 0
M  V30 8178 H 782.576 -1.31598 -0.886992 0
M  V30 8179 H 782.597 -1.21397 -3.60615 0
M  V30 8180 H 782.109 -2.79411 -2.69353 0
M  V30 8181 H 780.21 -0.537361 -3.68705 0
M  V30 8182 H 780.323 -2.35858 -4.17022 0
M  V30 8183 H 778.687 -1.16874 -2.26302 0
M  V30 8184 H 779.47 -2.81371 -1.96686 0
M  V30 8185 N 781.915 1.24427 -0.967243 0
M  V30 8186 C 783.164 1.91789 -0.624478 0
M  V30 8187 C 783.477 1.76448 0.844129 0
M  V30 8188 O 784.683 2.38495 1.2974 0
M  V30 8189 C 783.139 3.43743 -1.06626 0
M  V30 8190 C 782.747 3.67771 -2.55829 0
M  V30 8191 C 784.491 4.16958 -0.79662 0
M  V30 8192 C 782.398 5.13293 -2.93742 0
M  V30 8193 H 781.328 0.71811 -0.229856 0
M  V30 8194 H 783.979 1.41081 -1.17339 0
M  V30 8195 H 782.361 3.93484 -0.445663 0
M  V30 8196 H 783.535 3.28631 -3.23015 0
M  V30 8197 H 781.85 3.07841 -2.80398 0
M  V30 8198 H 784.447 5.24171 -1.05589 0
M  V30 8199 H 784.79 4.15442 0.267163 0
M  V30 8200 H 785.323 3.73164 -1.37816 0
M  V30 8201 H 782.062 5.19931 -3.9919 0
M  V30 8202 H 781.582 5.53433 -2.3124 0
M  V30 8203 H 783.261 5.81521 -2.83623 0
M  V30 8204 N 783.393 0.737304 1.3929 0
M  V30 8205 C 784.639 0.286681 2.00763 0
M  V30 8206 C 784.972 -1.12388 1.58375 0
M  V30 8207 O 784.247 -1.76661 0.813699 0
M  V30 8208 C 784.53 0.391147 3.57969 0
M  V30 8209 C 784.383 1.84165 4.1037 0
M  V30 8210 C 785.702 -0.225072 4.39524 0
M  V30 8211 H 782.821 0.105642 0.729389 0
M  V30 8212 H 785.463 0.933892 1.65464 0
M  V30 8213 H 783.613 -0.159875 3.88171 0
M  V30 8214 H 785.285 2.44972 3.90879 0
M  V30 8215 H 783.528 2.3622 3.63844 0
M  V30 8216 H 784.199 1.866 5.19504 0
M  V30 8217 H 786.675 0.244677 4.1538 0
M  V30 8218 H 785.551 -0.121646 5.48765 0
M  V30 8219 H 785.812 -1.31141 4.22202 0
M  V30 8220 N 784.871 -1.49948 0.485112 0
M  V30 8221 C 785.781 -2.32587 -0.306697 0
M  V30 8222 C 786.797 -1.43598 -0.982632 0
M  V30 8223 O 787.973 -1.76638 -0.967519 0
M  V30 8224 C 785.038 -3.18638 -1.3664 0
M  V30 8225 C 784.099 -4.23462 -0.705589 0
M  V30 8226 C 783.332 -5.05401 -1.7148 0
M  V30 8227 O 783.555 -4.88618 -2.94293 0
M  V30 8228 O 782.489 -5.88157 -1.27889 0
M  V30 8229 H 786.315 -3.01447 0.369272 0
M  V30 8230 H 783.9 -1.47349 0.246709 0
M  V30 8231 H 785.782 -3.71992 -1.9799 0
M  V30 8232 H 784.457 -2.52491 -2.02559 0
M  V30 8233 H 783.364 -3.74063 -0.0527733 0
M  V30 8234 H 784.697 -4.92119 -0.0891187 0
M  V30 8235 N 786.349 -0.21828 -1.56081 0
M  V30 8236 C 787.765 0.137168 -1.59009 0
M  V30 8237 C 787.965 1.59215 -1.23503 0
M  V30 8238 O 787.021 2.33178 -0.968716 0
M  V30 8239 C 788.334 -0.186162 -3.00123 0
M  V30 8240 C 789.882 -0.128135 -3.12738 0
M  V30 8241 C 790.357 -0.425094 -4.56023 0
M  V30 8242 N 791.848 -0.374547 -4.61683 0
M  V30 8243 C 792.583 -0.57786 -5.70481 0
M  V30 8244 N 792.079 -0.842771 -6.87655 0
M  V30 8245 N 793.872 -0.510521 -5.59777 0
M  V30 8246 H 786.023 -1.16746 -1.77437 0
M  V30 8247 H 788.286 -0.467706 -0.824594 0
M  V30 8248 H 787.992 -1.19589 -3.30744 0
M  V30 8249 H 787.866 0.500388 -3.73866 0
M  V30 8250 H 790.253 0.872224 -2.81915 0
M  V30 8251 H 790.334 -0.848112 -2.41331 0
M  V30 8252 H 789.978 -1.42288 -4.87562 0
M  V30 8253 H 789.908 0.316038 -5.25651 0
M  V30 8254 H 792.399 -0.177356 -3.77484 0
M  V30 8255 H 792.712 -0.986095 -7.66483 0
M  V30 8256 H 791.057 -0.879929 -6.89407 0
M  V30 8257 H 794.248 -0.303813 -4.67113 0
M  V30 8258 H 794.421 -0.672378 -6.44502 0
M  V30 8259 N 787.827 1.57504 0.0551401 0
M  V30 8260 C 789.238 1.76626 0.604979 0
M  V30 8261 C 789.589 0.845978 1.77024 0
M  V30 8262 O 788.714 0.0341936 2.16373 0
M  V30 8263 C 789.309 3.203 1.10425 0
M  V30 8264 C 787.868 3.4071 1.59981 0
M  V30 8265 C 787.015 2.72258 0.526414 0
M  V30 8266 H 789.966 1.57775 -0.171072 0
M  V30 8267 H 789.987 3.25377 1.97256 0
M  V30 8268 H 789.499 3.87255 0.255939 0
M  V30 8269 H 787.6 2.78892 2.47083 0
M  V30 8270 H 787.713 4.49227 1.66528 0
M  V30 8271 H 786.077 2.35283 0.97539 0
M  V30 8272 H 786.86 3.41879 -0.311991 0
M  V30 8273 N 789.305 -0.326896 1.54172 0
M  V30 8274 C 790.551 -1.06681 1.72473 0
M  V30 8275 C 790.884 -1.87779 0.49523 0
M  V30 8276 O 790.159 -1.87754 -0.507803 0
M  V30 8277 C 790.442 -1.99429 2.99834 0
M  V30 8278 C 790.295 -1.21682 4.33028 0
M  V30 8279 C 791.614 -2.99002 3.22933 0
M  V30 8280 H 788.733 -0.386438 0.627563 0
M  V30 8281 H 791.375 -0.343779 1.86864 0
M  V30 8282 H 789.525 -2.61081 2.87696 0
M  V30 8283 H 791.197 -0.625153 4.57044 0
M  V30 8284 H 789.44 -0.519045 4.30684 0
M  V30 8285 H 790.111 -1.89766 5.18356 0
M  V30 8286 H 792.587 -2.4747 3.34511 0
M  V30 8287 H 791.463 -3.61085 4.13412 0
M  V30 8288 H 791.724 -3.71281 2.40006 0
M  V30 8289 N 790.784 -1.46188 -0.588786 0
M  V30 8290 C 792.024 -1.52738 -1.35833 0
M  V30 8291 C 792.388 -0.172403 -1.91224 0
M  V30 8292 O 793.589 -0.112633 -2.68564 0
M  V30 8293 C 791.86 -2.59085 -2.4619 0
M  V30 8294 S 793.419 -2.84997 -3.3365 0
M  V30 8295 H 790.237 -0.539713 -0.462851 0
M  V30 8296 H 792.839 -1.83386 -0.677489 0
M  V30 8297 H 791.543 -3.56177 -2.03878 0
M  V30 8298 H 791.074 -2.3015 -3.19053 0
M  V30 8299 H 793.089 -2.19804 -4.4486 0
M  V30 8300 N 792.262 0.832906 -1.33792 0
M  V30 8301 C 793.209 1.94314 -1.24541 0
M  V30 8302 C 794.179 1.65646 -0.122753 0
M  V30 8303 O 795.364 1.88394 -0.30204 0
M  V30 8304 C 792.504 3.30395 -0.996641 0
M  V30 8305 C 791.617 3.71422 -2.20612 0
M  V30 8306 C 790.752 4.96401 -1.89101 0
M  V30 8307 C 789.791 5.2998 -3.06247 0
M  V30 8308 N 788.928 6.46137 -2.74685 0
M  V30 8309 H 793.768 2.01559 -2.19495 0
M  V30 8310 H 791.305 0.986243 -1.09141 0
M  V30 8311 H 793.263 4.08803 -0.832817 0
M  V30 8312 H 791.893 3.22691 -0.0838242 0
M  V30 8313 H 790.945 2.88488 -2.47949 0
M  V30 8314 H 792.257 3.92215 -3.0817 0
M  V30 8315 H 791.411 5.82572 -1.69396 0
M  V30 8316 H 790.15 4.7759 -0.987882 0
M  V30 8317 H 789.155 4.42312 -3.26559 0
M  V30 8318 H 790.38 5.50737 -3.97323 0
M  V30 8319 H 788.326 6.28801 -1.86938 0
M  V30 8320 H 788.243 6.67054 -3.55774 0
M  V30 8321 H 789.511 7.35403 -2.58461 0
M  V30 8322 N 793.74 1.17359 1.05189 0
M  V30 8323 C 795.017 0.871914 1.75091 0
M  V30 8324 C 795.397 -0.627821 2.01548 0
M  V30 8325 O 794.745 -1.5791 1.65156 0
M  V30 8326 C 794.955 1.70687 3.04413 0
M  V30 8327 C 796.303 1.92684 3.78362 0
M  V30 8328 O 797.327 1.67645 3.14282 0
M  V30 8329 O 796.186 2.34765 4.93505 0
M  V30 8330 H 793.28 0.322831 0.761386 0
M  V30 8331 H 795.826 1.28054 1.11357 0
M  V30 8332 H 794.598 2.72405 2.80911 0
M  V30 8333 H 794.221 1.29602 3.75884 0
M  V30 8334 N 795.218 -1.23913 0.973828 0
M  V30 8335 C 796.443 -1.96735 0.656511 0
M  V30 8336 C 796.868 -1.71682 -0.768571 0
M  V30 8337 O 796.226 -0.984267 -1.52256 0
M  V30 8338 C 796.274 -3.48004 0.944735 0
M  V30 8339 O 795.378 -4.12387 0.0333357 0
M  V30 8340 H 794.719 -0.616119 0.247575 0
M  V30 8341 H 797.249 -1.57525 1.30564 0
M  V30 8342 H 797.259 -3.98424 0.87876 0
M  V30 8343 H 795.934 -3.65567 1.98328 0
M  V30 8344 H 794.511 -3.72585 0.153157 0
M  V30 8345 N 796.696 -0.74468 -1.38897 0
M  V30 8346 C 797.924 -0.307428 -2.04603 0
M  V30 8347 C 798.339 1.06115 -1.56157 0
M  V30 8348 O 797.696 1.67233 -0.730701 0
M  V30 8349 C 797.747 -0.31101 -3.6016 0
M  V30 8350 O 797.468 -1.62557 -4.06825 0
M  V30 8351 C 798.969 0.141213 -4.43075 0
M  V30 8352 H 796.189 -0.132741 -0.657739 0
M  V30 8353 H 798.733 -1.01104 -1.77759 0
M  V30 8354 H 796.888 0.343792 -3.85872 0
M  V30 8355 H 797.302 -1.54569 -5.01207 0
M  V30 8356 H 798.776 0.0875449 -5.51931 0
M  V30 8357 H 799.253 1.18782 -4.22833 0
M  V30 8358 H 799.859 -0.484383 -4.22533 0
M  V30 8359 N 798.174 1.49689 -0.493057 0
M  V30 8360 C 799.59 1.58907 -0.148526 0
M  V30 8361 C 799.79 1.4991 1.34645 0
M  V30 8362 O 798.846 1.36893 2.12171 0
M  V30 8363 C 800.159 2.91996 -0.718265 0
M  V30 8364 C 801.707 3.05443 -0.683658 0
M  V30 8365 C 802.182 4.41138 -1.23132 0
M  V30 8366 N 803.673 4.47608 -1.19167 0
M  V30 8367 C 804.408 5.51038 -1.5857 0
M  V30 8368 N 803.904 6.61612 -2.05528 0
M  V30 8369 N 805.697 5.41706 -1.50036 0
M  V30 8370 H 797.848 1.5378 -1.46511 0
M  V30 8371 H 800.111 0.727996 -0.607228 0
M  V30 8372 H 799.817 3.04123 -1.7664 0
M  V30 8373 H 799.691 3.76798 -0.17419 0
M  V30 8374 H 802.078 2.92949 0.355626 0
M  V30 8375 H 802.159 2.22344 -1.26479 0
M  V30 8376 H 801.803 4.54382 -2.26935 0
M  V30 8377 H 801.733 5.22864 -0.626201 0
M  V30 8378 H 804.224 3.68274 -0.847524 0
M  V30 8379 H 804.537 7.36622 -2.33685 0
M  V30 8380 H 802.882 6.62674 -2.09497 0
M  V30 8381 H 806.073 4.54212 -1.13176 0
M  V30 8382 H 806.246 6.22188 -1.81068 0
M  V30 8383 N 799.652 0.226554 1.55963 0
M  V30 8384 C 800.901 -0.40417 1.97609 0
M  V30 8385 C 801.214 -1.60541 1.1174 0
M  V30 8386 O 802.42 -2.30598 1.43307 0
M  V30 8387 C 800.876 -0.770466 3.51556 0
M  V30 8388 C 800.484 0.408244 4.46136 0
M  V30 8389 C 802.228 -1.36651 4.01904 0
M  V30 8390 C 800.135 0.0192347 5.91397 0
M  V30 8391 H 799.065 -0.15478 0.737943 0
M  V30 8392 H 801.716 0.323558 1.80625 0
M  V30 8393 H 800.098 -1.55575 3.6416 0
M  V30 8394 H 801.272 1.18575 4.45283 0
M  V30 8395 H 799.587 0.917859 4.06158 0
M  V30 8396 H 802.184 -1.67055 5.07934 0
M  V30 8397 H 802.527 -2.28403 3.48049 0
M  V30 8398 H 803.06 -0.644556 3.92543 0
M  V30 8399 H 799.799 0.90336 6.49245 0
M  V30 8400 H 799.319 -0.722485 5.95433 0
M  V30 8401 H 800.998 -0.405711 6.45727 0
M  V30 8402 N 801.13 -1.57531 -0.0467866 0
M  V30 8403 C 802.546 -1.54451 -0.402107 0
M  V30 8404 C 802.746 -0.950275 -1.77685 0
M  V30 8405 O 801.802 -0.563602 -2.4613 0
M  V30 8406 C 803.115 -2.9899 -0.320212 0
M  V30 8407 C 804.663 -3.10452 -0.398588 0
M  V30 8408 C 805.138 -4.56689 -0.346335 0
M  V30 8409 N 806.629 -4.6142 -0.405666 0
M  V30 8410 C 807.364 -5.72087 -0.387845 0
M  V30 8411 N 806.86 -6.92045 -0.32336 0
M  V30 8412 N 808.653 -5.60404 -0.436263 0
M  V30 8413 H 800.804 -1.94515 0.853087 0
M  V30 8414 H 803.067 -0.891397 0.322669 0
M  V30 8415 H 802.773 -3.46124 0.623794 0
M  V30 8416 H 802.647 -3.60164 -1.1208 0
M  V30 8417 H 805.034 -2.63276 -1.33302 0
M  V30 8418 H 805.115 -2.52142 0.431026 0
M  V30 8419 H 804.759 -5.04527 0.584356 0
M  V30 8420 H 804.689 -5.12889 -1.19382 0
M  V30 8421 H 807.18 -3.75105 -0.458737 0
M  V30 8422 H 807.493 -7.7216 -0.314375 0
M  V30 8423 H 805.838 -6.94396 -0.28967 0
M  V30 8424 H 809.029 -4.65586 -0.48451 0
M  V30 8425 H 809.202 -6.46645 -0.418907 0
M  V30 8426 N 802.608 0.318715 -1.54344 0
M  V30 8427 C 803.857 1.05363 -1.71993 0
M  V30 8428 C 804.17 1.89018 -0.503155 0
M  V30 8429 O 805.376 2.65639 -0.561085 0
M  V30 8430 C 803.832 1.92281 -3.0423 0
M  V30 8431 C 803.44 1.13715 -4.33328 0
M  V30 8432 C 805.184 2.65479 -3.31242 0
M  V30 8433 C 803.091 1.99806 -5.56625 0
M  V30 8434 H 802.021 0.397081 -0.64097 0
M  V30 8435 H 804.672 0.311598 -1.80835 0
M  V30 8436 H 803.054 2.70402 -2.89307 0
M  V30 8437 H 804.228 0.403305 -4.59032 0
M  V30 8438 H 802.543 0.521769 -4.13118 0
M  V30 8439 H 805.14 3.30209 -4.20555 0
M  V30 8440 H 805.483 3.33374 -2.49334 0
M  V30 8441 H 806.016 1.94417 -3.47054 0
M  V30 8442 H 802.755 1.36411 -6.41149 0
M  V30 8443 H 802.275 2.70911 -5.35133 0
M  V30 8444 H 803.954 2.58277 -5.93213 0
M  V30 8445 N 804.086 1.46499 0.581025 0
M  V30 8446 C 805.314 1.5547 1.36517 0
M  V30 8447 C 805.729 0.196407 1.87776 0
M  V30 8448 O 805.086 -0.806577 1.63709 0
M  V30 8449 C 805.137 2.56084 2.55154 0
M  V30 8450 O 804.858 3.86637 2.06018 0
M  V30 8451 C 806.359 2.75011 3.47683 0
M  V30 8452 H 803.579 0.525703 0.416986 0
M  V30 8453 H 806.123 1.9192 0.706177 0
M  V30 8454 H 804.278 2.22633 3.17039 0
M  V30 8455 H 804.692 4.41413 2.83292 0
M  V30 8456 H 806.166 3.49329 4.27403 0
M  V30 8457 H 806.643 1.81978 3.99726 0
M  V30 8458 H 807.249 3.09565 2.91632 0
M  V30 8459 N 805.565 -0.825799 1.34232 0
M  V30 8460 C 806.842 -1.56741 1.17011 0
M  V30 8461 C 807.222 -2.09512 -0.258425 0
M  V30 8462 O 806.57 -1.90664 -1.25935 0
M  V30 8463 C 806.78 -2.69104 2.22225 0
M  V30 8464 C 808.128 -3.37947 2.57055 0
M  V30 8465 O 809.152 -2.79358 2.20992 0
M  V30 8466 O 808.011 -4.43743 3.1899 0
M  V30 8467 H 805.105 -0.69163 0.453405 0
M  V30 8468 H 807.651 -0.867422 1.45856 0
M  V30 8469 H 806.423 -2.27844 3.18124 0
M  V30 8470 H 806.046 -3.46756 1.94541 0
M  V30 8471 N 807.043 -1.17915 -1.04565 0
M  V30 8472 C 807.991 -0.897919 -2.1457 0
M  V30 8473 C 808.985 0.139883 -1.68821 0
M  V30 8474 O 810.191 -0.00779463 -1.79998 0
M  V30 8475 H 806.566 -0.272867 -0.700748 0
M  V30 8476 H 808.537 -1.83268 -2.3549 0
M  V30 8477 C 807.286 -0.434634 -3.44973 0
M  V30 8478 H 806.609 -1.22469 -3.8058 0
M  V30 8479 H 808.049 -0.276804 -4.23095 0
M  V30 8480 C 806.508 0.848738 -3.26034 0
M  V30 8481 O 807.038 1.9141 -3.53164 0
M  V30 8482 N 805.244 0.799373 -2.79389 0
M  V30 8483 H 804.791 -0.0678192 -2.57511 0
M  V30 8484 H 804.749 1.6585 -2.67098 0
M  V30 8485 N 808.521 1.23394 -0.980386 0
M  V30 8486 C 809.454 2.23404 -0.465404 0
M  V30 8487 C 810.432 1.55735 0.467471 0
M  V30 8488 O 811.616 1.84295 0.395921 0
M  V30 8489 C 808.743 3.3712 0.32672 0
M  V30 8490 C 807.789 4.22935 -0.550296 0
M  V30 8491 S 808.622 4.96824 -1.99814 0
M  V30 8492 C 809.778 6.13991 -1.21516 0
M  V30 8493 H 810.011 2.6674 -1.31289 0
M  V30 8494 H 807.544 1.32874 -0.78638 0
M  V30 8495 H 809.502 4.03065 0.777738 0
M  V30 8496 H 808.163 2.92317 1.14933 0
M  V30 8497 H 807.356 5.03966 0.0585298 0
M  V30 8498 H 806.958 3.62058 -0.937558 0
M  V30 8499 H 809.25 6.75822 -0.476476 0
M  V30 8500 H 810.193 6.7926 -2.0003 0
M  V30 8501 H 810.601 5.59708 -0.733949 0
M  V30 8502 N 809.999 0.752036 1.385 0
M  V30 8503 C 811.246 0.307503 2.00152 0
M  V30 8504 C 811.574 -1.11033 1.59693 0
M  V30 8505 O 810.829 -1.77455 0.825125 0
M  V30 8506 C 811.128 0.376155 3.55415 0
M  V30 8507 C 810.794 1.74942 4.15579 0
M  V30 8508 C 809.456 2.12525 4.31725 0
M  V30 8509 C 811.808 2.65031 4.48785 0
M  V30 8510 C 809.136 3.39671 4.78373 0
M  V30 8511 C 811.488 3.91567 4.96848 0
M  V30 8512 C 810.152 4.2922 5.11201 0
M  V30 8513 H 809.422 0.112523 0.732407 0
M  V30 8514 H 812.069 0.962213 1.65571 0
M  V30 8515 H 810.374 -0.362121 3.90123 0
M  V30 8516 H 812.071 0.0138065 4.00998 0
M  V30 8517 H 808.661 1.44726 4.03426 0
M  V30 8518 H 812.845 2.3726 4.35914 0
M  V30 8519 H 808.101 3.68765 4.8767 0
M  V30 8520 H 812.275 4.61517 5.21512 0
M  V30 8521 H 809.902 5.27805 5.47107 0
M  V30 8522 N 811.477 -1.49425 0.500989 0
M  V30 8523 C 812.717 -2.04357 -0.0419004 0
M  V30 8524 C 813.081 -1.37236 -1.34277 0
M  V30 8525 O 814.282 -1.82889 -1.9699 0
M  V30 8526 C 812.553 -3.56889 -0.19112 0
M  V30 8527 S 814.112 -4.33369 -0.688259 0
M  V30 8528 H 810.93 -0.710998 -0.00177796 0
M  V30 8529 H 813.532 -1.83479 0.674953 0
M  V30 8530 H 812.236 -4.03283 0.760964 0
M  V30 8531 H 811.767 -3.82171 -0.933214 0
M  V30 8532 H 813.782 -4.55961 -1.9574 0
M  V30 8533 N 812.955 -0.234822 -1.55841 0
M  V30 8534 C 813.918 0.656378 -2.196 0
M  V30 8535 C 814.918 1.11179 -1.16171 0
M  V30 8536 O 816.108 1.01845 -1.41326 0
M  V30 8537 C 813.24 1.90072 -2.82993 0
M  V30 8538 H 814.433 0.100281 -2.99732 0
M  V30 8539 H 811.986 0.0147613 -1.56293 0
M  V30 8540 H 812.721 2.49836 -2.06767 0
M  V30 8541 H 812.506 1.5825 -3.58747 0
M  V30 8542 H 813.996 2.53538 -3.31826 0
M  V30 8543 N 814.433 1.57553 0.0384317 0
M  V30 8544 C 815.681 1.88468 0.729672 0
M  V30 8545 C 816.002 0.831302 1.76393 0
M  V30 8546 O 815.272 -0.13622 1.95426 0
M  V30 8547 H 813.852 0.695529 0.272485 0
M  V30 8548 H 816.514 1.94899 0.0066032 0
M  V30 8549 H 815.61 2.8705 1.22511 0
M  V30 8550 N 815.911 -0.310526 1.54511 0
M  V30 8551 C 817.141 -1.06456 1.77061 0
M  V30 8552 C 817.549 -1.81755 0.525528 0
M  V30 8553 O 816.892 -1.76365 -0.513904 0
M  V30 8554 C 816.954 -2.09856 2.91892 0
M  V30 8555 C 816.618 -1.53838 4.30329 0
M  V30 8556 C 817.615 -0.973358 5.10707 0
M  V30 8557 C 815.3 -1.57688 4.76906 0
M  V30 8558 C 817.294 -0.454283 6.35779 0
M  V30 8559 C 814.981 -1.05393 6.01943 0
M  V30 8560 C 815.979 -0.493595 6.81214 0
M  V30 8561 O 815.667 0.0214506 8.03897 0
M  V30 8562 H 815.399 -0.321913 0.594431 0
M  V30 8563 H 817.953 -0.358289 2.02251 0
M  V30 8564 H 816.183 -2.84137 2.62304 0
M  V30 8565 H 817.872 -2.71085 3.02106 0
M  V30 8566 H 818.638 -0.936588 4.75871 0
M  V30 8567 H 814.517 -2.00242 4.1524 0
M  V30 8568 H 818.061 -0.0162657 6.97598 0
M  V30 8569 H 813.958 -1.08782 6.36268 0
M  V30 8570 H 814.726 -0.0927478 8.18447 0
M  V30 8571 N 817.389 -1.46805 -0.573248 0
M  V30 8572 C 818.336 -1.58084 -1.68161 0
M  V30 8573 C 819.306 -0.424636 -1.6058 0
M  V30 8574 O 820.491 -0.642623 -1.79652 0
M  V30 8575 C 817.631 -1.58601 -3.06496 0
M  V30 8576 C 816.744 -2.85023 -3.24632 0
M  V30 8577 C 815.879 -2.76981 -4.53271 0
M  V30 8578 C 814.918 -3.983 -4.64783 0
M  V30 8579 N 814.055 -3.88589 -5.84759 0
M  V30 8580 H 818.895 -2.52755 -1.57858 0
M  V30 8581 H 816.432 -1.25385 -0.769218 0
M  V30 8582 H 818.39 -1.56885 -3.86579 0
M  V30 8583 H 817.02 -0.674553 -3.15673 0
M  V30 8584 H 816.072 -2.96678 -2.38089 0
M  V30 8585 H 817.384 -3.7491 -3.29004 0
M  V30 8586 H 816.538 -2.73424 -5.41594 0
M  V30 8587 H 815.277 -1.84751 -4.51352 0
M  V30 8588 H 814.282 -4.02179 -3.74876 0
M  V30 8589 H 815.507 -4.91639 -4.68474 0
M  V30 8590 H 813.453 -2.99151 -5.83819 0
M  V30 8591 H 813.37 -4.7214 -5.90441 0
M  V30 8592 H 814.638 -3.89022 -6.75486 0
M  V30 8593 N 818.867 0.818669 -1.34668 0
M  V30 8594 C 820.278 1.39177 -1.24446 0
M  V30 8595 C 820.629 1.9578 0.128268 0
M  V30 8596 O 819.754 1.90382 1.02877 0
M  V30 8597 C 820.349 2.53012 -2.25323 0
M  V30 8598 C 818.908 3.06218 -2.18878 0
M  V30 8599 C 818.055 1.79112 -2.11694 0
M  V30 8600 H 821.006 0.622709 -1.45973 0
M  V30 8601 H 821.027 3.31226 -1.8727 0
M  V30 8602 H 820.539 2.11784 -3.25221 0
M  V30 8603 H 818.64 3.51939 -1.22351 0
M  V30 8604 H 818.753 3.65019 -3.10319 0
M  V30 8605 H 817.117 2.0018 -1.57481 0
M  V30 8606 H 817.9 1.40053 -3.13433 0
M  V30 8607 N 820.346 1.18468 1.03938 0
M  V30 8608 C 821.623 0.890435 1.74157 0
M  V30 8609 C 822.003 -0.606409 2.02203 0
M  V30 8610 O 821.351 -1.5615 1.66822 0
M  V30 8611 C 821.561 1.73906 3.02585 0
M  V30 8612 C 822.909 1.96686 3.76297 0
M  V30 8613 O 823.933 1.70969 3.12487 0
M  V30 8614 O 822.792 2.39986 4.90988 0
M  V30 8615 H 819.886 0.330889 0.757919 0
M  V30 8616 H 822.432 1.29228 1.09992 0
M  V30 8617 H 821.204 2.75369 2.78006 0
M  V30 8618 H 820.827 1.33581 3.74489 0
M  V30 8619 N 821.824 -1.22873 0.986916 0
M  V30 8620 C 822.734 -2.28277 0.540978 0
M  V30 8621 C 823.75 -1.69164 -0.407363 0
M  V30 8622 O 824.926 -1.99504 -0.275674 0
M  V30 8623 C 821.991 -3.46404 -0.143181 0
M  V30 8624 C 821.052 -4.20854 0.847375 0
M  V30 8625 C 820.285 -5.33341 0.19577 0
M  V30 8626 O 820.508 -5.61356 -1.0117 0
M  V30 8627 O 819.442 -5.95169 0.897623 0
M  V30 8628 H 823.268 -2.68578 1.41773 0
M  V30 8629 H 820.853 -1.28927 0.754867 0
M  V30 8630 H 822.735 -4.18096 -0.526676 0
M  V30 8631 H 821.41 -3.08041 -0.994593 0
M  V30 8632 H 820.317 -3.51459 1.28169 0
M  V30 8633 H 821.65 -4.63082 1.6678 0
M  V30 8634 N 823.302 -0.75937 -1.38099 0
M  V30 8635 C 824.55 -0.317485 -1.99591 0
M  V30 8636 C 824.871 1.10628 -1.60581 0
M  V30 8637 O 824.141 1.7575 -0.865378 0
M  V30 8638 H 822.721 -0.114397 -0.738189 0
M  V30 8639 H 825.383 -0.974749 -1.68774 0
M  V30 8640 H 824.479 -0.385227 -3.09713 0
M  V30 8641 N 824.78 1.49157 -0.508906 0
M  V30 8642 C 825.727 2.2927 0.265288 0
M  V30 8643 C 826.697 1.3603 0.953162 0
M  V30 8644 O 827.882 1.64989 0.958291 0
M  V30 8645 C 825.022 3.18897 1.31904 0
M  V30 8646 C 824.135 4.27201 0.642144 0
M  V30 8647 C 823.27 5.04033 1.67701 0
M  V30 8648 C 822.309 6.04165 0.982422 0
M  V30 8649 N 821.446 6.74133 1.96186 0
M  V30 8650 H 826.286 2.94967 -0.424107 0
M  V30 8651 H 823.823 1.45431 -0.220991 0
M  V30 8652 H 825.781 3.69242 1.94206 0
M  V30 8653 H 824.411 2.55168 1.97709 0
M  V30 8654 H 823.463 3.80283 -0.0943395 0
M  V30 8655 H 824.775 4.98708 0.0957507 0
M  V30 8656 H 823.929 5.58287 2.37487 0
M  V30 8657 H 822.668 4.32317 2.25728 0
M  V30 8658 H 821.673 5.49135 0.270378 0
M  V30 8659 H 822.898 6.7787 0.408554 0
M  V30 8660 H 820.844 6.05183 2.53159 0
M  V30 8661 H 820.761 7.41643 1.46634 0
M  V30 8662 H 822.029 7.32987 2.65236 0
M  V30 8663 N 826.258 0.243083 1.55714 0
M  V30 8664 C 827.674 -0.111853 1.59208 0
M  V30 8665 C 827.874 -1.5723 1.2602 0
M  V30 8666 O 826.93 -2.31608 1.00569 0
M  V30 8667 C 828.243 0.233885 2.99789 0
M  V30 8668 C 829.791 0.177873 3.12494 0
M  V30 8669 C 830.266 0.49759 4.55289 0
M  V30 8670 N 831.757 0.447949 4.61029 0
M  V30 8671 C 832.492 0.668545 5.69489 0
M  V30 8672 N 831.988 0.952064 6.86227 0
M  V30 8673 N 833.781 0.599512 5.58894 0
M  V30 8674 H 825.932 1.19554 1.75558 0
M  V30 8675 H 828.195 0.480765 0.817049 0
M  V30 8676 H 827.901 1.24835 3.28799 0
M  V30 8677 H 827.775 -0.440846 3.74615 0
M  V30 8678 H 830.162 -0.827263 2.83267 0
M  V30 8679 H 830.243 0.886399 2.39951 0
M  V30 8680 H 829.887 1.50026 4.85237 0
M  V30 8681 H 829.817 -0.232371 5.26087 0
M  V30 8682 H 832.308 0.237388 3.77154 0
M  V30 8683 H 832.621 1.10791 7.64817 0
M  V30 8684 H 830.966 0.989496 6.8792 0
M  V30 8685 H 834.157 0.378088 4.66571 0
M  V30 8686 H 834.33 0.774828 6.43351 0
M  V30 8687 N 827.736 -1.57571 -0.0300757 0
M  V30 8688 C 828.984 -1.88852 -0.719666 0
M  V30 8689 C 829.305 -0.840645 -1.75949 0
M  V30 8690 O 828.575 0.125854 -1.95495 0
M  V30 8691 H 827.155 -0.696965 -0.268792 0
M  V30 8692 H 829.817 -1.949 0.00373285 0
M  V30 8693 H 828.913 -2.87695 -1.20987 0
M  V30 8694 N 829.214 0.302327 -1.54673 0
M  V30 8695 C 830.491 1.05721 -1.64567 0
M  V30 8696 C 830.871 2.0526 -0.493108 0
M  V30 8697 O 830.219 2.22729 0.510315 0
M  V30 8698 C 830.429 1.74025 -3.02517 0
M  V30 8699 C 831.777 2.26271 -3.59286 0
M  V30 8700 O 832.801 1.8406 -3.0496 0
M  V30 8701 O 831.66 3.0361 -4.54404 0
M  V30 8702 H 828.754 0.488577 -0.667249 0
M  V30 8703 H 831.3 0.300521 -1.67018 0
M  V30 8704 H 830.072 1.0174 -3.77842 0
M  V30 8705 H 829.695 2.56454 -3.03838 0
M  V30 8706 N 830.692 1.47107 0.565454 0
M  V30 8707 C 831.655 1.58535 1.65527 0
M  V30 8708 C 832.655 0.461081 1.54048 0
M  V30 8709 O 833.845 0.725911 1.58355 0
M  V30 8710 C 830.977 1.52204 3.05036 0
M  V30 8711 H 832.17 2.55676 1.56747 0
M  V30 8712 H 829.723 1.35174 0.78471 0
M  V30 8713 H 830.458 0.564071 3.19357 0
M  V30 8714 H 830.243 2.3379 3.14777 0
M  V30 8715 H 831.733 1.63322 3.84338 0
M  V30 8716 N 832.17 -0.811516 1.35101 0
M  V30 8717 C 833.41 -1.58177 1.29458 0
M  V30 8718 C 833.774 -1.91555 -0.130688 0
M  V30 8719 O 834.975 -2.6699 -0.311428 0
M  V30 8720 C 833.246 -2.83896 2.17112 0
M  V30 8721 S 834.805 -3.74344 2.28936 0
M  V30 8722 H 831.623 -0.542021 0.460146 0
M  V30 8723 H 834.225 -0.957653 1.70438 0
M  V30 8724 H 832.929 -2.57391 3.19653 0
M  V30 8725 H 832.46 -3.51297 1.7707 0
M  V30 8726 H 834.475 -4.73909 1.47054 0
M  V30 8727 N 833.648 -1.19017 -1.03309 0
M  V30 8728 C 834.558 -0.939303 -2.14975 0
M  V30 8729 C 835.574 0.0992359 -1.73717 0
M  V30 8730 O 836.75 -0.0844362 -2.01223 0
M  V30 8731 C 833.815 -0.476712 -3.43407 0
M  V30 8732 C 832.876 -1.58413 -3.99003 0
M  V30 8733 C 832.109 -1.14352 -5.21305 0
M  V30 8734 O 832.332 -0.00534408 -5.704 0
M  V30 8735 O 831.266 -1.94436 -5.6963 0
M  V30 8736 H 835.092 -1.87386 -2.38998 0
M  V30 8737 H 832.677 -0.972635 -1.13403 0
M  V30 8738 H 834.559 -0.22718 -4.20787 0
M  V30 8739 H 833.234 0.429455 -3.20839 0
M  V30 8740 H 832.141 -1.88777 -3.22977 0
M  V30 8741 H 833.474 -2.4667 -4.25928 0
M  V30 8742 N 835.127 1.22348 -0.993418 0
M  V30 8743 C 836.375 1.90733 -0.668246 0
M  V30 8744 C 836.696 1.77732 0.802261 0
M  V30 8745 O 835.966 1.16486 1.57505 0
M  V30 8746 H 834.546 0.705966 -0.244174 0
M  V30 8747 H 837.208 1.48691 -1.26004 0
M  V30 8748 H 836.304 2.97883 -0.931239 0
M  V30 8749 N 836.605 0.766683 1.37694 0
M  V30 8750 C 837.882 0.25366 1.93948 0
M  V30 8751 C 838.262 -1.25041 1.70082 0
M  V30 8752 O 837.61 -2.03115 1.04674 0
M  V30 8753 C 837.82 0.621549 3.43421 0
M  V30 8754 C 839.168 0.588504 4.20502 0
M  V30 8755 O 840.192 0.560632 3.5176 0
M  V30 8756 O 839.051 0.61107 5.43073 0
M  V30 8757 H 836.145 0.0570586 0.825029 0
M  V30 8758 H 838.691 0.847693 1.47011 0
M  V30 8759 H 837.463 1.65979 3.54354 0
M  V30 8760 H 837.086 0.000197027 3.976 0
M  V30 8761 N 838.083 -1.48885 0.516809 0
M  V30 8762 C 839.308 -2.0739 -0.0205201 0
M  V30 8763 C 839.733 -1.37259 -1.28614 0
M  V30 8764 O 839.091 -0.434304 -1.76021 0
M  V30 8765 C 839.139 -3.59793 -0.24104 0
M  V30 8766 O 838.243 -3.90957 -1.31251 0
M  V30 8767 H 837.584 -0.663167 0.0332564 0
M  V30 8768 H 840.114 -1.91477 0.720956 0
M  V30 8769 H 840.124 -4.0531 -0.467737 0
M  V30 8770 H 838.799 -4.10244 0.68356 0
M  V30 8771 H 837.376 -3.57234 -1.06951 0
M  V30 8772 N 839.561 -0.251338 -1.55583 0
M  V30 8773 C 840.809 0.371434 -1.98657 0
M  V30 8774 C 841.13 1.58143 -1.14087 0
M  V30 8775 O 840.4 1.94607 -0.224708 0
M  V30 8776 H 838.98 0.140225 -0.733721 0
M  V30 8777 H 841.642 -0.351157 -1.9171 0
M  V30 8778 H 840.738 0.677554 -3.04657 0
M  V30 8779 N 841.039 1.57585 0.0217189 0
M  V30 8780 C 842.287 1.89231 0.709641 0
M  V30 8781 C 842.608 0.849964 1.75501 0
M  V30 8782 O 841.878 -0.115485 1.95559 0
M  V30 8783 H 840.458 0.69838 0.265092 0
M  V30 8784 H 843.12 1.94895 -0.0140688 0
M  V30 8785 H 842.216 2.88333 1.19459 0
M  V30 8786 N 842.517 -0.29412 1.54831 0
M  V30 8787 C 843.928 -0.866651 1.65366 0
M  V30 8788 C 844.279 -1.87834 0.56681 0
M  V30 8789 O 843.404 -2.14374 -0.295389 0
M  V30 8790 C 843.999 -1.57869 2.99771 0
M  V30 8791 C 842.558 -2.09954 3.12404 0
M  V30 8792 C 841.705 -0.934492 2.6108 0
M  V30 8793 H 844.656 -0.0709551 1.58541 0
M  V30 8794 H 844.677 -2.44462 2.91579 0
M  V30 8795 H 844.189 -0.84212 3.78853 0
M  V30 8796 H 842.29 -2.86637 2.38055 0
M  V30 8797 H 842.403 -2.32934 4.18663 0
M  V30 8798 H 840.767 -1.32199 2.17705 0
M  V30 8799 H 841.55 -0.211768 3.42646 0
M  V30 8800 N 843.995 -1.47404 -0.557645 0
M  V30 8801 C 845.242 -1.54007 -1.31484 0
M  V30 8802 C 845.57 -0.202162 -1.93447 0
M  V30 8803 O 844.825 0.804901 -1.78381 0
M  V30 8804 C 845.124 -2.6061 -2.44575 0
M  V30 8805 C 844.79 -4.03896 -2.00446 0
M  V30 8806 C 843.452 -4.42901 -1.88127 0
M  V30 8807 C 845.804 -4.93804 -1.66754 0
M  V30 8808 C 843.132 -5.6965 -1.40411 0
M  V30 8809 C 845.484 -6.21016 -1.20509 0
M  V30 8810 C 844.148 -6.58903 -1.06786 0
M  V30 8811 H 843.418 -0.563552 -0.481134 0
M  V30 8812 H 846.065 -1.81001 -0.625375 0
M  V30 8813 H 844.37 -2.27371 -3.19076 0
M  V30 8814 H 846.067 -2.62941 -3.02759 0
M  V30 8815 H 842.657 -3.73077 -2.10977 0
M  V30 8816 H 846.841 -4.64369 -1.75144 0
M  V30 8817 H 842.097 -5.97755 -1.2845 0
M  V30 8818 H 846.271 -6.90095 -0.935001 0
M  V30 8819 H 843.898 -7.57008 -0.695891 0
M  V30 8820 N 845.473 0.80434 -1.35529 0
M  V30 8821 C 846.719 1.56385 -1.29118 0
M  V30 8822 C 847.052 1.9374 0.133536 0
M  V30 8823 O 846.327 1.6153 1.08344 0
M  V30 8824 C 846.61 2.85097 -2.19981 0
M  V30 8825 C 846.463 2.54204 -3.7108 0
M  V30 8826 C 847.782 3.86817 -2.09907 0
M  V30 8827 H 844.901 0.567382 -0.470368 0
M  V30 8828 H 847.543 0.925235 -1.6595 0
M  V30 8829 H 845.693 3.39594 -1.88701 0
M  V30 8830 H 847.365 2.05872 -4.12813 0
M  V30 8831 H 845.608 1.87364 -3.91251 0
M  V30 8832 H 846.279 3.46068 -4.30048 0
M  V30 8833 H 848.755 3.41725 -2.37409 0
M  V30 8834 H 847.631 4.7465 -2.75678 0
M  V30 8835 H 847.892 4.28663 -1.08171 0
M  V30 8836 N 846.951 1.19563 1.02676 0
M  V30 8837 C 847.884 0.878638 2.10607 0
M  V30 8838 C 848.862 -0.165176 1.61759 0
M  V30 8839 O 850.046 -0.041014 1.88455 0
M  V30 8840 C 847.173 0.315347 3.37229 0
M  V30 8841 C 846.219 1.33855 4.04951 0
M  V30 8842 S 847.052 2.89982 4.50189 0
M  V30 8843 C 848.208 2.35202 5.80027 0
M  V30 8844 H 848.441 1.79268 2.37171 0
M  V30 8845 H 845.974 1.023 1.15646 0
M  V30 8846 H 847.932 -0.00311911 4.105 0
M  V30 8847 H 846.593 -0.577035 3.08754 0
M  V30 8848 H 845.786 0.893581 4.96015 0
M  V30 8849 H 845.388 1.60397 3.37859 0
M  V30 8850 H 847.68 1.74329 6.54687 0
M  V30 8851 H 848.623 3.24622 6.29306 0
M  V30 8852 H 849.031 1.77702 5.35801 0
M  V30 8853 N 848.429 -1.21819 0.999893 0
M  V30 8854 C 849.376 -2.24003 0.556005 0
M  V30 8855 C 850.346 -1.60825 -0.415287 0
M  V30 8856 O 851.531 -1.88123 -0.318481 0
M  V30 8857 C 848.671 -3.44904 -0.116289 0
M  V30 8858 C 847.784 -4.22573 0.897574 0
M  V30 8859 C 846.919 -5.30831 0.198073 0
M  V30 8860 C 845.958 -6.00225 1.19983 0
M  V30 8861 N 845.095 -7.00111 0.528157 0
M  V30 8862 H 849.935 -2.61334 1.43208 0
M  V30 8863 H 847.472 -1.28431 0.717205 0
M  V30 8864 H 849.43 -4.13908 -0.523055 0
M  V30 8865 H 848.06 -3.08315 -0.956108 0
M  V30 8866 H 847.112 -3.52797 1.42262 0
M  V30 8867 H 848.424 -4.70363 1.66013 0
M  V30 8868 H 847.578 -6.06121 -0.265065 0
M  V30 8869 H 846.317 -4.84033 -0.596924 0
M  V30 8870 H 845.322 -5.23711 1.67353 0
M  V30 8871 H 846.547 -6.4911 1.99582 0
M  V30 8872 H 844.493 -6.55534 -0.247276 0
M  V30 8873 H 844.41 -7.45943 1.22904 0
M  V30 8874 H 845.678 -7.7945 0.0880543 0
M  V30 8875 N 849.908 -0.773975 -1.37286 0
M  V30 8876 C 851.133 -0.349561 -2.04433 0
M  V30 8877 C 851.558 1.02082 -1.5799 0
M  V30 8878 O 850.916 1.65458 -0.741172 0
M  V30 8879 C 850.964 -0.404292 -3.58326 0
M  V30 8880 O 850.068 0.594447 -4.08093 0
M  V30 8881 H 849.409 -0.150959 -0.646612 0
M  V30 8882 H 851.939 -1.05079 -1.75555 0
M  V30 8883 H 851.949 -0.262378 -4.07155 0
M  V30 8884 H 850.624 -1.40403 -3.91484 0
M  V30 8885 H 849.201 0.415468 -3.70578 0
M  V30 8886 N 851.386 1.48609 -0.524698 0
M  V30 8887 C 852.797 1.86516 -0.0828846 0
M  V30 8888 C 853.148 1.43478 1.33822 0
M  V30 8889 O 852.273 0.823139 2.00133 0
M  V30 8890 C 852.868 3.38495 -0.143639 0
M  V30 8891 C 851.427 3.75615 0.242951 0
M  V30 8892 C 850.574 2.72649 -0.505747 0
M  V30 8893 H 853.525 1.40589 -0.736233 0
M  V30 8894 H 853.546 3.74977 0.645955 0
M  V30 8895 H 853.058 3.69789 -1.17805 0
M  V30 8896 H 851.159 3.49935 1.27971 0
M  V30 8897 H 851.272 4.7901 -0.0929834 0
M  V30 8898 H 849.636 2.54656 0.0473482 0
M  V30 8899 H 850.419 3.06786 -1.54069 0
M  V30 8900 N 852.864 0.259585 1.55447 0
M  V30 8901 C 854.111 -0.361607 1.99245 0
M  V30 8902 C 854.439 -1.57017 1.14787 0
M  V30 8903 O 853.694 -1.94658 0.201724 0
M  V30 8904 C 853.993 -0.802727 3.48269 0
M  V30 8905 C 853.659 0.299472 4.49904 0
M  V30 8906 C 852.321 0.602157 4.77418 0
M  V30 8907 C 854.673 1.04295 5.10658 0
M  V30 8908 C 852.001 1.65217 5.62957 0
M  V30 8909 C 854.353 2.08257 5.97337 0
M  V30 8910 C 853.017 2.39177 6.23178 0
M  V30 8911 H 852.287 -0.132322 0.72909 0
M  V30 8912 H 854.934 0.370059 1.8789 0
M  V30 8913 H 853.239 -1.61381 3.5702 0
M  V30 8914 H 854.936 -1.29385 3.79553 0
M  V30 8915 H 851.526 0.0534256 4.28567 0
M  V30 8916 H 855.71 0.822358 4.89439 0
M  V30 8917 H 850.966 1.89692 5.81229 0
M  V30 8918 H 855.14 2.6635 6.43452 0
M  V30 8919 H 852.767 3.20677 6.89253 0
M  V30 8920 N 854.342 -1.57594 -0.0133615 0
M  V30 8921 C 855.29 -2.08682 -1.02736 0
M  V30 8922 C 856.284 -1.00391 -1.36448 0
M  V30 8923 O 857.49 -1.18868 -1.35168 0
M  V30 8924 H 853.865 -0.666158 -0.34891 0
M  V30 8925 H 855.836 -2.9289 -0.570815 0
M  V30 8926 C 854.585 -2.5945 -2.31476 0
M  V30 8927 H 853.908 -3.42401 -2.06401 0
M  V30 8928 H 855.348 -2.98888 -3.00735 0
M  V30 8929 C 853.807 -1.50266 -3.01533 0
M  V30 8930 O 854.337 -0.877875 -3.9199 0
M  V30 8931 N 852.543 -1.23336 -2.63129 0
M  V30 8932 H 852.09 -1.74327 -1.89652 0
M  V30 8933 H 852.048 -0.504987 -3.10318 0
M  V30 8934 N 855.82 0.285905 -1.54985 0
M  V30 8935 C 856.768 1.37302 -1.87752 0
M  V30 8936 C 857.762 1.51763 -0.752616 0
M  V30 8937 O 858.968 1.53701 -0.936805 0
M  V30 8938 H 855.343 0.458935 -0.59572 0
M  V30 8939 H 857.314 1.0691 -2.78591 0
M  V30 8940 C 856.063 2.72885 -2.15474 0
M  V30 8941 H 855.386 2.62545 -3.01513 0
M  V30 8942 H 856.826 3.47925 -2.42331 0
M  V30 8943 C 855.285 3.22989 -0.958124 0
M  V30 8944 O 855.815 4.01268 -0.186219 0
M  V30 8945 N 854.021 2.80503 -0.759354 0
M  V30 8946 H 853.568 2.16961 -1.38874 0
M  V30 8947 H 853.526 3.14375 0.0396937 0
M  V30 8948 N 857.298 1.47698 0.54982 0
M  V30 8949 C 858.714 1.3338 0.876468 0
M  V30 8950 C 858.914 0.329837 1.98782 0
M  V30 8951 O 857.97 -0.256022 2.51199 0
M  V30 8952 C 859.283 2.72903 1.26272 0
M  V30 8953 C 860.831 2.81243 1.37373 0
M  V30 8954 C 861.306 4.21423 1.79351 0
M  V30 8955 N 862.797 4.24 1.86489 0
M  V30 8956 C 863.532 5.29386 2.20313 0
M  V30 8957 N 863.028 6.4507 2.527 0
M  V30 8958 N 864.821 5.16768 2.2115 0
M  V30 8959 H 856.972 2.11603 -0.183781 0
M  V30 8960 H 859.235 0.947798 -0.0195601 0
M  V30 8961 H 858.941 3.47836 0.519889 0
M  V30 8962 H 858.815 3.05151 2.21727 0
M  V30 8963 H 861.202 2.06577 2.10737 0
M  V30 8964 H 861.283 2.52639 0.400882 0
M  V30 8965 H 860.927 4.96597 1.06555 0
M  V30 8966 H 860.857 4.47456 2.77652 0
M  V30 8967 H 863.348 3.40547 1.63817 0
M  V30 8968 H 863.661 7.21236 2.77557 0
M  V30 8969 H 862.006 6.48377 2.50263 0
M  V30 8970 H 865.197 4.25416 1.95293 0
M  V30 8971 H 865.37 5.99004 2.4718 0
M  V30 8972 N 858.776 -0.797141 1.35954 0
M  V30 8973 C 860.022 -1.55636 1.30954 0
M  V30 8974 C 860.377 -1.92071 -0.112515 0
M  V30 8975 O 859.67 -1.5926 -1.06521 0
M  V30 8976 C 859.864 -2.84847 2.15863 0
M  V30 8977 C 859.693 -2.61039 3.66182 0
M  V30 8978 C 858.463 -2.56452 4.35385 0
M  V30 8979 C 860.661 -2.30766 4.59621 0
M  V30 8980 N 858.643 -2.2446 5.71394 0
M  V30 8981 C 860.014 -2.08695 5.8382 0
M  V30 8982 C 862.069 -2.16708 4.48266 0
M  V30 8983 C 860.772 -1.73989 6.9794 0
M  V30 8984 C 862.798 -1.83399 5.62244 0
M  V30 8985 C 862.16 -1.62171 6.85478 0
M  V30 8986 H 858.259 -0.570853 0.534463 0
M  V30 8987 H 860.843 -0.932261 1.7093 0
M  V30 8988 H 859.014 -3.45137 1.78144 0
M  V30 8989 H 860.746 -3.50503 2.02311 0
M  V30 8990 H 857.501 -2.7143 3.88101 0
M  V30 8991 H 857.925 -2.11232 6.43203 0
M  V30 8992 H 862.567 -2.31814 3.53585 0
M  V30 8993 H 860.285 -1.57621 7.92579 0
M  V30 8994 H 863.871 -1.73217 5.55416 0
M  V30 8995 H 862.751 -1.36774 7.7218 0
M  V30 8996 N 860.254 -1.20106 -1.0204 0
M  V30 8997 C 861.484 -1.0329 -1.78927 0
M  V30 8998 C 861.892 0.421115 -1.84454 0
M  V30 8999 O 861.235 1.30422 -1.29367 0
M  V30 9000 C 861.297 -1.53627 -3.25021 0
M  V30 9001 C 860.961 -3.01869 -3.4311 0
M  V30 9002 C 861.958 -3.9956 -3.32638 0
M  V30 9003 C 859.643 -3.40746 -3.6905 0
M  V30 9004 C 861.637 -5.34119 -3.47844 0
M  V30 9005 C 859.324 -4.75462 -3.839 0
M  V30 9006 C 860.322 -5.71957 -3.73302 0
M  V30 9007 O 860.01 -7.04231 -3.87703 0
M  V30 9008 H 859.742 -0.363962 -0.569656 0
M  V30 9009 H 862.296 -1.59551 -1.29354 0
M  V30 9010 H 860.526 -0.917481 -3.75658 0
M  V30 9011 H 862.215 -1.32889 -3.8353 0
M  V30 9012 H 862.981 -3.70869 -3.12539 0
M  V30 9013 H 858.86 -2.66182 -3.76388 0
M  V30 9014 H 862.404 -6.09421 -3.39488 0
M  V30 9015 H 858.301 -5.03844 -4.03499 0
M  V30 9016 H 859.069 -7.11425 -4.04744 0
M  V30 9017 N 861.732 1.21287 -1.00634 0
M  V30 9018 C 862.664 2.2308 -0.526094 0
M  V30 9019 C 863.677 1.58157 0.386031 0
M  V30 9020 O 864.866 1.77528 0.186016 0
M  V30 9021 C 861.966 3.37937 0.255289 0
M  V30 9022 C 861.139 4.32449 -0.656236 0
M  V30 9023 C 860.198 5.26145 0.0757714 0
M  V30 9024 O 859.224 5.66601 -0.543325 0
M  V30 9025 N 860.426 5.6449 1.35391 0
M  V30 9026 H 863.191 2.64913 -1.40147 0
M  V30 9027 H 860.752 1.35724 -0.882641 0
M  V30 9028 H 862.744 3.97614 0.753977 0
M  V30 9029 H 861.314 2.95078 1.03187 0
M  V30 9030 H 860.534 3.70892 -1.3354 0
M  V30 9031 H 861.822 4.92526 -1.27653 0
M  V30 9032 H 861.22 5.33617 1.878 0
M  V30 9033 H 859.777 6.26524 1.79753 0
M  V30 9034 N 863.21 0.781244 1.36873 0
M  V30 9035 C 864.143 0.120106 2.27884 0
M  V30 9036 C 865.121 -0.698961 1.4681 0
M  V30 9037 O 866.305 -0.671694 1.76126 0
M  V30 9038 C 863.432 -0.835804 3.28226 0
M  V30 9039 C 862.478 -0.0995527 4.26384 0
M  V30 9040 S 863.311 1.21903 5.2144 0
M  V30 9041 C 864.467 0.266904 6.25331 0
M  V30 9042 H 864.7 0.891796 2.83609 0
M  V30 9043 H 862.233 0.575075 1.43291 0
M  V30 9044 H 864.191 -1.3819 3.86541 0
M  V30 9045 H 862.852 -1.58068 2.71428 0
M  V30 9046 H 862.045 -0.82457 4.97209 0
M  V30 9047 H 861.647 0.375818 3.72107 0
M  V30 9048 H 863.939 -0.55725 6.75204 0
M  V30 9049 H 864.882 0.943603 7.01785 0
M  V30 9050 H 865.29 -0.126121 5.64359 0
M  V30 9051 N 864.689 -1.48329 0.532571 0
M  V30 9052 C 865.937 -2.021 -0.000581206 0
M  V30 9053 C 866.258 -1.4117 -1.34522 0
M  V30 9054 O 865.528 -0.578005 -1.87179 0
M  V30 9055 H 864.108 -0.746993 -0.00320281 0
M  V30 9056 H 866.77 -1.82011 0.696991 0
M  V30 9057 H 865.866 -3.11917 -0.106991 0
M  V30 9058 N 866.167 -0.267825 -1.55308 0
M  V30 9059 C 867.416 0.351635 -1.98611 0
M  V30 9060 C 867.729 1.57522 -1.15957 0
M  V30 9061 O 868.935 2.26717 -1.49371 0
M  V30 9062 C 867.391 0.676986 -3.53475 0
M  V30 9063 C 866.999 -0.526385 -4.44897 0
M  V30 9064 C 868.743 1.25948 -4.05386 0
M  V30 9065 C 866.65 -0.176026 -5.91138 0
M  V30 9066 H 865.58 0.13516 -0.741787 0
M  V30 9067 H 868.231 -0.371333 -1.79704 0
M  V30 9068 H 866.613 1.45866 -3.68156 0
M  V30 9069 H 867.787 -1.30339 -4.41982 0
M  V30 9070 H 866.102 -1.02522 -4.03582 0
M  V30 9071 H 868.699 1.53529 -5.12184 0
M  V30 9072 H 869.042 2.19094 -3.53982 0
M  V30 9073 H 869.575 0.540253 -3.94114 0
M  V30 9074 H 866.314 -1.07518 -6.46622 0
M  V30 9075 H 865.834 0.564363 -5.97139 0
M  V30 9076 H 867.513 0.234365 -6.46575 0
M  V30 9077 N 867.645 1.57599 0.00500368 0
M  V30 9078 C 868.891 1.90631 0.691919 0
M  V30 9079 C 869.224 0.868443 1.737 0
M  V30 9080 O 868.499 -0.113482 1.94169 0
M  V30 9081 C 868.782 3.34255 1.33961 0
M  V30 9082 C 868.635 4.48755 0.306413 0
M  V30 9083 C 869.954 3.77211 2.26715 0
M  V30 9084 H 867.073 0.693279 0.250066 0
M  V30 9085 H 869.715 1.89946 -0.0452634 0
M  V30 9086 H 867.865 3.3497 1.96793 0
M  V30 9087 H 869.537 4.60176 -0.321841 0
M  V30 9088 H 867.78 4.32203 -0.371852 0
M  V30 9089 H 868.451 5.46193 0.798554 0
M  V30 9090 H 870.927 3.78017 1.73904 0
M  V30 9091 H 869.803 4.78466 2.69002 0
M  V30 9092 H 870.064 3.10801 3.14413 0
M  V30 9093 N 869.123 -0.277682 1.55134 0
M  V30 9094 C 870.348 -1.03254 1.7987 0
M  V30 9095 C 870.773 -1.79324 0.567861 0
M  V30 9096 O 870.131 -1.74764 -0.4824 0
M  V30 9097 C 870.179 -1.9705 3.02 0
M  V30 9098 O 869.283 -3.05744 2.76757 0
M  V30 9099 H 868.624 -0.295447 0.594649 0
M  V30 9100 H 871.154 -0.308013 2.02268 0
M  V30 9101 H 871.164 -2.3909 3.30606 0
M  V30 9102 H 869.839 -1.41094 3.91236 0
M  V30 9103 H 868.416 -2.68052 2.59235 0
M  V30 9104 N 870.601 -1.47988 -0.541979 0
M  V30 9105 C 871.847 -1.56604 -1.29795 0
M  V30 9106 C 872.202 -0.231728 -1.90999 0
M  V30 9107 O 871.495 0.764203 -1.757 0
M  V30 9108 C 871.689 -2.63189 -2.41798 0
M  V30 9109 C 871.518 -4.06855 -1.9157 0
M  V30 9110 C 870.288 -4.74132 -1.74719 0
M  V30 9111 C 872.486 -4.934 -1.45123 0
M  V30 9112 N 870.468 -6.02258 -1.18991 0
M  V30 9113 C 871.839 -6.11675 -1.01263 0
M  V30 9114 C 873.894 -4.7972 -1.33315 0
M  V30 9115 C 872.597 -7.17778 -0.467663 0
M  V30 9116 C 874.623 -5.85934 -0.802192 0
M  V30 9117 C 873.985 -7.03409 -0.373595 0
M  V30 9118 H 870.084 -0.627677 -0.466418 0
M  V30 9119 H 872.668 -1.84812 -0.612576 0
M  V30 9120 H 870.839 -2.36823 -3.07846 0
M  V30 9121 H 872.571 -2.6156 -3.08818 0
M  V30 9122 H 869.326 -4.30276 -1.97887 0
M  V30 9123 H 869.75 -6.70558 -0.931715 0
M  V30 9124 H 874.392 -3.89249 -1.6506 0
M  V30 9125 H 872.11 -8.07982 -0.137874 0
M  V30 9126 H 875.696 -5.774 -0.714171 0
M  V30 9127 H 874.576 -7.84194 0.0308796 0
M  V30 9128 N 872.079 0.78992 -1.36375 0
M  V30 9129 C 873.327 1.54472 -1.30319 0
M  V30 9130 C 873.648 1.94647 0.117338 0
M  V30 9131 O 872.918 1.64906 1.05748 0
M  V30 9132 H 871.498 0.572879 -0.479394 0
M  V30 9133 H 874.16 0.941245 -1.70665 0
M  V30 9134 H 873.256 2.45252 -1.93024 0
M  V30 9135 N 873.557 1.20646 1.01402 0
M  V30 9136 C 874.467 0.973385 2.13453 0
M  V30 9137 C 875.483 -0.0715865 1.73853 0
M  V30 9138 O 876.659 0.116438 2.01063 0
M  V30 9139 C 873.724 0.531285 3.42605 0
M  V30 9140 C 872.785 1.64741 3.96433 0
M  V30 9141 C 872.018 1.22631 5.1942 0
M  V30 9142 O 872.241 0.0960891 5.70319 0
M  V30 9143 O 871.175 2.03474 5.66465 0
M  V30 9144 H 875.001 1.91164 2.35987 0
M  V30 9145 H 872.586 0.990553 1.11841 0
M  V30 9146 H 874.468 0.294095 4.20373 0
M  V30 9147 H 873.143 -0.378358 3.21481 0
M  V30 9148 H 872.05 1.93891 3.19933 0
M  V30 9149 H 873.383 2.53415 4.2195 0
M  V30 9150 N 875.035 -1.20752 1.01276 0
M  V30 9151 C 876.283 -1.89645 0.698505 0
M  V30 9152 C 876.604 -1.78986 -0.773883 0
M  V30 9153 O 875.874 -1.18977 -1.55632 0
M  V30 9154 H 874.454 -0.701992 0.255375 0
M  V30 9155 H 877.116 -1.46668 1.28353 0
M  V30 9156 H 876.212 -2.96364 0.978512 0
M  V30 9157 N 876.513 -0.788492 -1.36457 0
M  V30 9158 C 877.753 -0.365855 -2.01099 0
M  V30 9159 C 878.117 1.04262 -1.61225 0
M  V30 9160 O 879.318 1.56628 -2.18451 0
M  V30 9161 C 877.589 -0.523344 -3.53548 0
M  V30 9162 S 879.148 -0.188448 -4.38395 0
M  V30 9163 H 875.966 -0.139832 -0.697114 0
M  V30 9164 H 878.568 -1.02678 -1.66365 0
M  V30 9165 H 877.272 -1.54874 -3.80055 0
M  V30 9166 H 876.803 0.153547 -3.931 0
M  V30 9167 H 878.818 1.0103 -4.85806 0
M  V30 9168 N 877.991 1.48044 -0.54043 0
M  V30 9169 C 879.268 1.95523 0.0547302 0
M  V30 9170 C 879.648 1.48284 1.5025 0
M  V30 9171 O 878.996 0.714037 2.17057 0
M  V30 9172 C 879.206 3.48923 -0.0733393 0
M  V30 9173 C 880.554 4.24523 0.0806026 0
M  V30 9174 O 881.578 3.562 -5.58687e-05 0
M  V30 9175 O 880.437 5.45922 0.251216 0
M  V30 9176 H 877.531 0.823728 0.073493 0
M  V30 9177 H 880.077 1.5852 -0.605768 0
M  V30 9178 H 878.849 3.76059 -1.08144 0
M  V30 9179 H 878.472 3.92648 0.625536 0
M  V30 9180 N 879.47 0.276058 1.55163 0
M  V30 9181 C 880.886 -0.0780579 1.59409 0
M  V30 9182 C 881.086 -1.54521 1.29327 0
M  V30 9183 O 880.142 -2.29422 1.05459 0
M  V30 9184 C 881.455 0.297422 2.99225 0
M  V30 9185 C 883.003 0.244117 3.12047 0
M  V30 9186 C 883.478 0.594051 4.54131 0
M  V30 9187 N 884.969 0.54564 4.59975 0
M  V30 9188 C 885.704 0.789192 5.67943 0
M  V30 9189 N 885.2 1.09741 6.84053 0
M  V30 9190 N 886.993 0.717926 5.57496 0
M  V30 9191 H 879.144 1.23251 1.72982 0
M  V30 9192 H 881.407 0.497988 0.806667 0
M  V30 9193 H 881.113 1.31782 3.26077 0
M  V30 9194 H 880.987 -0.361286 3.75466 0
M  V30 9195 H 883.374 -0.766992 2.84958 0
M  V30 9196 H 883.455 0.937097 2.38017 0
M  V30 9197 H 883.099 1.60285 4.81945 0
M  V30 9198 H 883.029 -0.120728 5.26462 0
M  V30 9199 H 885.52 0.317334 3.76565 0
M  V30 9200 H 885.833 1.26989 7.62295 0
M  V30 9201 H 884.178 1.13519 6.85666 0
M  V30 9202 H 887.369 0.47697 4.65664 0
M  V30 9203 H 887.542 0.911118 6.41563 0
M  V30 9204 N 880.948 -1.576 0.00335426 0
M  V30 9205 C 882.225 -1.81945 -0.718015 0
M  V30 9206 C 882.605 -0.881788 -1.91801 0
M  V30 9207 O 881.953 0.0687118 -2.28397 0
M  V30 9208 C 882.163 -3.30521 -1.12058 0
M  V30 9209 C 883.511 -3.96345 -1.52303 0
M  V30 9210 O 884.535 -3.34864 -1.21428 0
M  V30 9211 O 883.394 -5.04655 -2.09728 0
M  V30 9212 H 880.488 -0.749328 -0.34991 0
M  V30 9213 H 883.034 -1.69675 0.0290654 0
M  V30 9214 H 881.806 -3.90399 -0.265378 0
M  V30 9215 H 881.429 -3.47802 -1.92665 0
M  V30 9216 N 882.426 0.269451 -1.5528 0
M  V30 9217 C 883.674 0.998604 -1.75705 0
M  V30 9218 C 883.995 1.86691 -0.563175 0
M  V30 9219 O 883.265 1.91305 0.421811 0
M  V30 9220 H 881.845 0.371698 -0.647958 0
M  V30 9221 H 884.507 0.292826 -1.92688 0
M  V30 9222 H 883.603 1.63348 -2.6594 0
M  V30 9223 N 883.904 1.48273 0.534124 0
M  V30 9224 C 884.851 1.62487 1.6391 0
M  V30 9225 C 885.821 0.467062 1.59398 0
M  V30 9226 O 887.006 0.690029 1.77885 0
M  V30 9227 C 884.146 1.66671 3.02183 0
M  V30 9228 C 883.259 2.9353 3.16961 0
M  V30 9229 C 882.394 2.88902 4.45768 0
M  V30 9230 C 881.433 4.10483 4.54059 0
M  V30 9231 N 880.57 4.03956 5.74251 0
M  V30 9232 H 885.41 2.56851 1.51101 0
M  V30 9233 H 882.947 1.27381 0.735704 0
M  V30 9234 H 884.905 1.67079 3.82283 0
M  V30 9235 H 883.535 0.758011 3.13774 0
M  V30 9236 H 882.587 3.02886 2.3014 0
M  V30 9237 H 883.899 3.83501 3.18949 0
M  V30 9238 H 883.053 2.87688 5.34154 0
M  V30 9239 H 881.792 1.96652 4.46295 0
M  V30 9240 H 880.797 4.11977 3.64081 0
M  V30 9241 H 882.022 5.03887 4.55274 0
M  V30 9242 H 879.968 3.14525 5.75682 0
M  V30 9243 H 879.885 4.87628 5.77715 0
M  V30 9244 H 881.153 4.06795 6.64935 0
M  V30 9245 N 885.382 -0.782676 1.36792 0
M  V30 9246 C 886.612 -1.56934 1.3437 0
M  V30 9247 C 887.02 -1.89049 -0.0754828 0
M  V30 9248 O 886.363 -1.51103 -1.04467 0
M  V30 9249 C 886.425 -2.91311 2.10661 0
M  V30 9250 C 886.089 -2.81889 3.59705 0
M  V30 9251 C 887.086 -2.53668 4.53815 0
M  V30 9252 C 884.771 -3.00254 4.02682 0
M  V30 9253 C 886.765 -2.43925 5.8888 0
M  V30 9254 C 884.452 -2.90132 5.37835 0
M  V30 9255 C 885.45 -2.62006 6.30747 0
M  V30 9256 O 885.138 -2.5189 7.63418 0
M  V30 9257 H 884.87 -0.493194 0.462316 0
M  V30 9258 H 887.424 -0.978791 1.80579 0
M  V30 9259 H 885.654 -3.52443 1.59125 0
M  V30 9260 H 887.343 -3.52632 2.01012 0
M  V30 9261 H 888.109 -2.39176 4.21924 0
M  V30 9262 H 883.988 -3.21151 3.30731 0
M  V30 9263 H 887.532 -2.21892 6.6137 0
M  V30 9264 H 883.429 -3.04189 5.69332 0
M  V30 9265 H 884.197 -2.67321 7.73616 0
M  V30 9266 N 886.86 -1.21182 -1.00761 0
M  V30 9267 C 888.108 -1.02543 -1.74153 0
M  V30 9268 C 888.429 0.442372 -1.89916 0
M  V30 9269 O 887.699 1.31927 -1.44818 0
M  V30 9270 H 886.279 -0.37644 -0.645214 0
M  V30 9271 H 888.941 -1.52446 -1.21434 0
M  V30 9272 H 888.037 -1.49122 -2.7417 0
M  V30 9273 N 888.338 1.20213 -1.01915 0
M  V30 9274 C 889.585 1.89647 -0.709955 0
M  V30 9275 C 889.913 1.7901 0.760631 0
M  V30 9276 O 889.168 1.17028 1.56853 0
M  V30 9277 C 889.467 3.40232 -1.09438 0
M  V30 9278 C 889.133 3.7107 -2.5616 0
M  V30 9279 C 887.795 3.79196 -2.96249 0
M  V30 9280 C 890.147 3.85169 -3.51133 0
M  V30 9281 C 887.475 3.98882 -4.30244 0
M  V30 9282 C 889.827 4.06365 -4.8482 0
M  V30 9283 C 888.491 4.12722 -5.24611 0
M  V30 9284 H 887.761 0.693967 -0.259791 0
M  V30 9285 H 890.408 1.42419 -1.2802 0
M  V30 9286 H 888.713 3.89292 -0.442596 0
M  V30 9287 H 890.41 3.92257 -0.832811 0
M  V30 9288 H 887 3.65346 -2.24099 0
M  V30 9289 H 891.184 3.78243 -3.21319 0
M  V30 9290 H 886.44 4.02039 -4.60624 0
M  V30 9291 H 890.614 4.16216 -5.58334 0
M  V30 9292 H 888.241 4.27728 -6.28453 0
M  V30 9293 N 889.816 0.795718 1.36037 0
M  V30 9294 C 891.046 0.382597 2.03026 0
M  V30 9295 C 891.454 -1.00779 1.60126 0
M  V30 9296 O 890.797 -1.65884 0.78919 0
M  V30 9297 C 890.859 0.374145 3.57548 0
M  V30 9298 C 890.523 1.71318 4.23673 0
M  V30 9299 C 891.52 2.6697 4.4612 0
M  V30 9300 C 889.205 1.99421 4.61017 0
M  V30 9301 C 891.199 3.88916 5.04998 0
M  V30 9302 C 888.886 3.21632 5.19611 0
M  V30 9303 C 889.884 4.16198 5.41542 0
M  V30 9304 O 889.572 5.36254 5.98905 0
M  V30 9305 H 889.304 0.154944 0.658003 0
M  V30 9306 H 891.858 1.07756 1.74865 0
M  V30 9307 H 890.088 -0.377349 3.84854 0
M  V30 9308 H 891.777 -0.01517 4.05897 0
M  V30 9309 H 892.543 2.46548 4.17659 0
M  V30 9310 H 888.422 1.2663 4.43267 0
M  V30 9311 H 891.966 4.6274 5.22032 0
M  V30 9312 H 887.863 3.4193 5.47498 0
M  V30 9313 H 888.631 5.37403 6.17366 0
M  V30 9314 N 891.294 -1.47756 0.548274 0
M  V30 9315 C 892.522 -2.06884 0.0254873 0
M  V30 9316 C 892.937 -1.40225 -1.26422 0
M  V30 9317 O 892.294 -0.495776 -1.75637 0
M  V30 9318 C 892.345 -3.61036 -0.183134 0
M  V30 9319 O 892.066 -4.25195 1.05549 0
M  V30 9320 C 893.567 -4.37008 -0.744222 0
M  V30 9321 H 890.787 -0.669697 0.041789 0
M  V30 9322 H 893.331 -1.89888 0.759138 0
M  V30 9323 H 891.486 -3.77576 -0.866886 0
M  V30 9324 H 891.9 -5.17606 0.847629 0
M  V30 9325 H 893.374 -5.45579 -0.839529 0
M  V30 9326 H 893.851 -4.0268 -1.75344 0
M  V30 9327 H 894.457 -4.25191 -0.0964542 0
M  V30 9328 N 892.772 -0.284283 -1.55015 0
M  V30 9329 C 893.722 0.613913 -2.19579 0
M  V30 9330 C 894.706 1.11153 -1.16335 0
M  V30 9331 O 895.898 1.05508 -1.42116 0
M  V30 9332 C 893.027 1.79329 -2.92739 0
M  V30 9333 C 892.113 1.31242 -4.03282 0
M  V30 9334 N 892.504 0.548344 -5.02819 0
M  V30 9335 C 890.802 1.5946 -4.1652 0
M  V30 9336 C 891.503 0.294358 -5.80955 0
M  V30 9337 N 890.479 0.869406 -5.36603 0
M  V30 9338 H 894.281 0.0224088 -2.93891 0
M  V30 9339 H 891.795 -0.0882619 -1.6216 0
M  V30 9340 H 893.792 2.44814 -3.37449 0
M  V30 9341 H 892.452 2.38865 -2.1994 0
M  V30 9342 H 893.463 0.194812 -5.17533 0
M  V30 9343 H 890.14 2.19866 -3.54916 0
M  V30 9344 H 891.53 -0.318195 -6.71146 0
M  V30 9345 N 894.251 1.57596 -0.0117121 0
M  V30 9346 C 895.497 1.91355 0.671661 0
M  V30 9347 C 895.83 0.886818 1.72769 0
M  V30 9348 O 895.105 -0.0928813 1.94278 0
M  V30 9349 C 895.388 3.35657 1.30409 0
M  V30 9350 C 895.241 4.49055 0.2588 0
M  V30 9351 C 896.56 3.79595 2.22701 0
M  V30 9352 H 893.679 0.695893 0.242698 0
M  V30 9353 H 896.321 1.89887 -0.0654071 0
M  V30 9354 H 894.471 3.37038 1.9323 0
M  V30 9355 H 896.143 4.59809 -0.370631 0
M  V30 9356 H 894.386 4.31785 -0.417672 0
M  V30 9357 H 895.057 5.4701 0.740578 0
M  V30 9358 H 897.533 3.7984 1.69885 0
M  V30 9359 H 896.409 4.81292 2.63912 0
M  V30 9360 H 896.67 3.14118 3.11098 0
M  V30 9361 N 895.729 -0.261212 1.5542 0
M  V30 9362 C 896.976 -0.99123 1.76581 0
M  V30 9363 C 897.304 -1.85854 0.573457 0
M  V30 9364 O 896.559 -1.90604 -0.443705 0
M  V30 9365 C 896.858 -1.89395 3.03091 0
M  V30 9366 C 896.524 -1.18318 4.351 0
M  V30 9367 C 895.186 -0.986688 4.70975 0
M  V30 9368 C 897.538 -0.678299 5.16767 0
M  V30 9369 C 894.866 -0.272788 5.86065 0
M  V30 9370 C 897.218 0.0220646 6.32596 0
M  V30 9371 C 895.882 0.230161 6.67103 0
M  V30 9372 H 895.152 -0.362717 0.646156 0
M  V30 9373 H 897.799 -0.262506 1.89692 0
M  V30 9374 H 896.104 -2.68927 2.8493 0
M  V30 9375 H 897.801 -2.46022 3.16661 0
M  V30 9376 H 894.391 -1.34625 4.06908 0
M  V30 9377 H 898.575 -0.817691 4.89518 0
M  V30 9378 H 893.831 -0.10095 6.11317 0
M  V30 9379 H 898.005 0.420981 6.95126 0
M  V30 9380 H 895.632 0.785312 7.56133 0
M  V30 9381 N 897.207 -1.48554 -0.526253 0
M  V30 9382 C 898.623 -1.34757 -0.855138 0
M  V30 9383 C 898.823 -0.36142 -1.98232 0
M  V30 9384 O 897.879 0.216026 -2.51574 0
M  V30 9385 C 899.192 -2.74877 -1.21915 0
M  V30 9386 C 900.74 -2.83393 -1.32882 0
M  V30 9387 C 901.215 -4.24223 -1.72624 0
M  V30 9388 N 902.706 -4.26913 -1.7972 0
M  V30 9389 C 903.441 -5.32824 -2.11863 0
M  V30 9390 N 902.937 -6.49008 -2.42405 0
M  V30 9391 N 904.73 -5.20221 -2.12901 0
M  V30 9392 H 896.881 -2.11284 0.217422 0
M  V30 9393 H 899.144 -0.947367 0.0346362 0
M  V30 9394 H 898.85 -3.48619 -0.464486 0
M  V30 9395 H 898.724 -3.0864 -2.16844 0
M  V30 9396 H 901.111 -2.09904 -2.07424 0
M  V30 9397 H 901.192 -2.53245 -0.360638 0
M  V30 9398 H 900.836 -4.98229 -0.986411 0
M  V30 9399 H 900.766 -4.51817 -2.70498 0
M  V30 9400 H 903.257 -3.4311 -1.58379 0
M  V30 9401 H 903.57 -7.25561 -2.66048 0
M  V30 9402 H 901.915 -6.52277 -2.39917 0
M  V30 9403 H 905.106 -4.28469 -1.885 0
M  V30 9404 H 905.279 -6.02861 -2.37619 0
M  V30 9405 N 898.685 0.775411 -1.37205 0
M  V30 9406 C 899.615 1.90258 -1.35367 0
M  V30 9407 C 900.596 1.68634 -0.222864 0
M  V30 9408 O 901.781 1.89545 -0.422659 0
M  V30 9409 C 898.911 3.27488 -1.15623 0
M  V30 9410 C 897.865 3.63668 -2.25676 0
M  V30 9411 C 897.191 4.994 -1.91059 0
M  V30 9412 C 898.491 3.70797 -3.67841 0
M  V30 9413 H 900.185 1.92053 -2.29687 0
M  V30 9414 H 897.731 0.922597 -1.10563 0
M  V30 9415 H 899.684 4.05976 -1.12968 0
M  V30 9416 H 898.408 3.26117 -0.177573 0
M  V30 9417 H 897.067 2.87486 -2.2748 0
M  V30 9418 H 896.715 4.94565 -0.917324 0
M  V30 9419 H 896.415 5.24576 -2.64751 0
M  V30 9420 H 897.939 5.80291 -1.89985 0
M  V30 9421 H 899.353 4.39444 -3.68187 0
M  V30 9422 H 897.75 4.07468 -4.40556 0
M  V30 9423 H 898.82 2.71549 -4.01732 0
M  V30 9424 N 900.163 1.21714 1.00117 0
M  V30 9425 C 901.11 0.979837 2.08968 0
M  V30 9426 C 902.08 -0.0955324 1.65825 0
M  V30 9427 O 903.265 0.0523742 1.90728 0
M  V30 9428 C 900.405 0.554758 3.40612 0
M  V30 9429 C 899.518 1.69999 3.97145 0
M  V30 9430 C 898.653 1.2237 5.16913 0
M  V30 9431 C 897.692 2.34101 5.65564 0
M  V30 9432 N 896.829 1.87579 6.76579 0
M  V30 9433 H 901.669 1.91167 2.28602 0
M  V30 9434 H 899.206 0.952645 1.12085 0
M  V30 9435 H 901.164 0.289526 4.16194 0
M  V30 9436 H 899.794 -0.340073 3.21004 0
M  V30 9437 H 898.846 2.07976 3.18512 0
M  V30 9438 H 900.158 2.54074 4.29241 0
M  V30 9439 H 899.312 0.915358 5.99755 0
M  V30 9440 H 898.051 0.353045 4.8642 0
M  V30 9441 H 897.056 2.65734 4.81316 0
M  V30 9442 H 898.281 3.21669 5.98085 0
M  V30 9443 H 896.227 1.02863 6.47885 0
M  V30 9444 H 896.144 2.65225 7.07949 0
M  V30 9445 H 897.412 1.5979 7.62947 0
M  V30 9446 N 901.641 -1.19671 1.02551 0
M  V30 9447 C 902.588 -2.22773 0.603394 0
M  V30 9448 C 903.558 -1.61669 -0.381081 0
M  V30 9449 O 904.743 -1.88756 -0.278505 0
M  V30 9450 C 901.883 -3.45073 -0.0431034 0
M  V30 9451 C 900.996 -4.20574 0.987006 0
M  V30 9452 C 900.131 -5.30291 0.310626 0
M  V30 9453 C 899.17 -5.97545 1.32688 0
M  V30 9454 N 898.307 -6.98833 0.676542 0
M  V30 9455 H 903.147 -2.58238 1.48719 0
M  V30 9456 H 900.684 -1.26881 0.744286 0
M  V30 9457 H 902.642 -4.14925 -0.435141 0
M  V30 9458 H 901.272 -3.10274 -0.890495 0
M  V30 9459 H 900.324 -3.497 1.49713 0
M  V30 9460 H 901.636 -4.66736 1.75952 0
M  V30 9461 H 900.79 -6.06547 -0.136438 0
M  V30 9462 H 899.529 -4.8519 -0.49412 0
M  V30 9463 H 898.534 -5.20043 1.78424 0
M  V30 9464 H 899.759 -6.4473 2.13306 0
M  V30 9465 H 897.705 -6.55911 -0.108172 0
M  V30 9466 H 897.622 -7.43168 1.38699 0
M  V30 9467 H 898.89 -7.79088 0.253367 0
M  V30 9468 N 903.119 -0.802921 -1.35613 0
M  V30 9469 C 904.365 -0.391259 -1.99601 0
M  V30 9470 C 904.72 1.02922 -1.62557 0
M  V30 9471 O 904.013 1.70357 -0.876878 0
M  V30 9472 C 904.207 -0.507806 -3.53774 0
M  V30 9473 C 904.036 -1.93807 -4.05794 0
M  V30 9474 C 902.806 -2.56564 -4.3532 0
M  V30 9475 C 905.004 -2.90211 -4.24596 0
M  V30 9476 N 902.986 -3.91038 -4.73247 0
M  V30 9477 C 904.357 -4.09548 -4.65479 0
M  V30 9478 C 906.412 -2.87091 -4.06796 0
M  V30 9479 C 905.115 -5.26191 -4.90424 0
M  V30 9480 C 907.141 -4.02933 -4.32896 0
M  V30 9481 C 906.503 -5.21017 -4.74047 0
M  V30 9482 H 902.602 -0.190867 -0.758349 0
M  V30 9483 H 905.186 -1.04338 -1.64382 0
M  V30 9484 H 903.357 0.114306 -3.88232 0
M  V30 9485 H 905.089 -0.0710855 -4.04638 0
M  V30 9486 H 901.844 -2.07945 -4.25507 0
M  V30 9487 H 902.268 -4.60262 -4.96475 0
M  V30 9488 H 906.91 -1.96951 -3.74126 0
M  V30 9489 H 904.628 -6.16906 -5.2197 0
M  V30 9490 H 908.214 -4.01895 -4.2068 0
M  V30 9491 H 907.094 -6.09165 -4.93849 0
M  V30 9492 N 904.597 1.47463 -0.556102 0
M  V30 9493 C 905.846 2.01678 -0.029492 0
M  V30 9494 C 906.159 1.436 1.32809 0
M  V30 9495 O 907.365 1.89472 1.94455 0
M  V30 9496 C 905.821 3.599 -0.00223937 0
M  V30 9497 C 905.429 4.26969 -1.35651 0
M  V30 9498 C 907.173 4.2187 0.471822 0
M  V30 9499 C 905.08 5.77194 -1.28843 0
M  V30 9500 H 904.01 0.753965 -0.00725504 0
M  V30 9501 H 906.661 1.69467 -0.703789 0
M  V30 9502 H 905.043 3.89068 0.737682 0
M  V30 9503 H 906.217 4.09444 -2.11406 0
M  V30 9504 H 904.532 3.76983 -1.76842 0
M  V30 9505 H 907.129 5.31955 0.541139 0
M  V30 9506 H 907.472 3.88968 1.48356 0
M  V30 9507 H 908.005 3.97228 -0.213207 0
M  V30 9508 H 904.744 6.14713 -2.27613 0
M  V30 9509 H 904.264 5.9706 -0.572668 0
M  V30 9510 H 905.943 6.3938 -0.990031 0
M  V30 9511 N 906.075 0.2925 1.54862 0
M  V30 9512 C 907.007 -0.620889 2.2063 0
M  V30 9513 C 908.02 -1.10412 1.19637 0
M  V30 9514 O 909.209 -1.02304 1.46274 0
M  V30 9515 C 906.309 -1.861 2.83232 0
M  V30 9516 C 905.482 -1.52168 4.10078 0
M  V30 9517 C 904.541 -2.61605 4.56562 0
M  V30 9518 O 903.567 -2.27056 5.21952 0
M  V30 9519 N 904.769 -3.9199 4.28163 0
M  V30 9520 H 907.534 -0.0579028 2.99644 0
M  V30 9521 H 905.095 0.114333 1.61496 0
M  V30 9522 H 907.087 -2.58642 3.11266 0
M  V30 9523 H 905.657 -2.33259 2.08108 0
M  V30 9524 H 904.877 -0.629283 3.89145 0
M  V30 9525 H 906.165 -1.27023 4.92689 0
M  V30 9526 H 905.563 -4.22872 3.7576 0
M  V30 9527 H 904.12 -4.60857 4.60928 0
M  V30 9528 N 907.553 -1.57587 0.0200696 0
M  V30 9529 C 908.5 -2.09667 -0.964791 0
M  V30 9530 C 909.47 -0.99664 -1.32877 0
M  V30 9531 O 910.655 -1.2703 -1.42366 0
M  V30 9532 C 907.795 -2.62101 -2.24493 0
M  V30 9533 C 906.908 -3.8608 -1.93821 0
M  V30 9534 C 906.043 -4.26939 -3.16064 0
M  V30 9535 C 905.082 -5.43701 -2.81169 0
M  V30 9536 N 904.219 -5.79759 -3.9601 0
M  V30 9537 H 909.059 -2.93538 -0.513751 0
M  V30 9538 H 906.596 -1.45096 -0.242 0
M  V30 9539 H 908.554 -2.90587 -2.99358 0
M  V30 9540 H 907.184 -1.81074 -2.6723 0
M  V30 9541 H 906.236 -3.64378 -1.09237 0
M  V30 9542 H 907.548 -4.71028 -1.64115 0
M  V30 9543 H 906.702 -4.56814 -3.99257 0
M  V30 9544 H 905.441 -3.40739 -3.48924 0
M  V30 9545 H 904.446 -5.13529 -1.96387 0
M  V30 9546 H 905.671 -6.31593 -2.49535 0
M  V30 9547 H 903.617 -4.96516 -4.28729 0
M  V30 9548 H 903.534 -6.59327 -3.69896 0
M  V30 9549 H 904.802 -6.14235 -4.79933 0
M  V30 9550 N 909.032 0.252966 -1.55557 0
M  V30 9551 C 910.278 0.983306 -1.77367 0
M  V30 9552 C 910.611 1.85203 -0.584258 0
M  V30 9553 O 909.886 1.89963 0.417644 0
M  V30 9554 C 910.169 1.84896 -3.09007 0
M  V30 9555 C 910.022 1.00883 -4.38341 0
M  V30 9556 C 911.341 2.83254 -3.36831 0
M  V30 9557 H 908.46 0.356056 -0.645286 0
M  V30 9558 H 911.102 0.254232 -1.88291 0
M  V30 9559 H 909.252 2.47058 -2.99825 0
M  V30 9560 H 910.924 0.40638 -4.59507 0
M  V30 9561 H 909.167 0.31297 -4.3267 0
M  V30 9562 H 909.838 1.64818 -5.2682 0
M  V30 9563 H 912.314 2.31228 -3.45937 0
M  V30 9564 H 911.19 3.40949 -4.30169 0
M  V30 9565 H 911.451 3.59407 -2.57447 0
M  V30 9566 N 910.51 1.48831 0.518367 0
M  V30 9567 C 911.759 1.5669 1.27008 0
M  V30 9568 C 912.072 0.250934 1.93984 0
M  V30 9569 O 913.278 0.207884 2.70703 0
M  V30 9570 C 911.734 2.76387 2.30517 0
M  V30 9571 C 911.342 4.14673 1.69559 0
M  V30 9572 C 913.086 2.93566 3.06625 0
M  V30 9573 C 910.993 5.25616 2.71076 0
M  V30 9574 H 909.923 0.583362 0.477708 0
M  V30 9575 H 912.574 1.75187 0.546052 0
M  V30 9576 H 910.956 2.51348 3.06006 0
M  V30 9577 H 912.13 4.49779 1.00179 0
M  V30 9578 H 910.445 4.02708 1.05902 0
M  V30 9579 H 913.042 3.7362 3.82508 0
M  V30 9580 H 913.385 2.03462 3.63193 0
M  V30 9581 H 913.918 3.18562 2.38251 0
M  V30 9582 H 910.657 6.17723 2.19313 0
M  V30 9583 H 910.177 4.94985 3.38748 0
M  V30 9584 H 911.856 5.5422 3.3384 0
M  V30 9585 N 911.988 -0.768124 1.37614 0
M  V30 9586 C 913.265 -1.51637 1.23554 0
M  V30 9587 C 913.645 -2.1042 -0.169331 0
M  V30 9588 O 912.993 -1.95834 -1.17735 0
M  V30 9589 C 913.203 -2.59436 2.33439 0
M  V30 9590 C 914.551 -3.2674 2.71157 0
M  V30 9591 O 915.575 -2.69733 2.32642 0
M  V30 9592 O 914.434 -4.29814 3.37524 0
M  V30 9593 H 911.528 -0.671778 0.482332 0
M  V30 9594 H 914.074 -0.804779 1.49403 0
M  V30 9595 H 912.846 -2.14146 3.27502 0
M  V30 9596 H 912.469 -3.38192 2.09073 0
M  V30 9597 N 913.466 -1.22244 -0.994698 0
M  V30 9598 C 914.398 -0.948706 -2.08644 0
M  V30 9599 C 915.411 0.0720049 -1.62641 0
M  V30 9600 O 916.6 -0.161778 -1.77765 0
M  V30 9601 C 913.7 -0.404885 -3.36473 0
M  V30 9602 C 912.873 -1.48239 -4.11514 0
M  V30 9603 C 911.932 -0.94597 -5.17627 0
M  V30 9604 O 910.958 -1.63177 -5.45309 0
M  V30 9605 N 912.16 0.23355 -5.8003 0
M  V30 9606 H 914.925 -1.88858 -2.32707 0
M  V30 9607 H 912.486 -1.12908 -1.16032 0
M  V30 9608 H 914.478 -0.0313903 -4.04688 0
M  V30 9609 H 913.048 0.440061 -3.09487 0
M  V30 9610 H 912.268 -2.02928 -3.37955 0
M  V30 9611 H 913.556 -2.20741 -4.58422 0
M  V30 9612 H 912.954 0.80756 -5.59906 0
M  V30 9613 H 911.511 0.54845 -6.49488 0
M  V30 9614 N 914.944 1.19125 -1.03184 0
M  V30 9615 C 916.191 1.88883 -0.730029 0
M  V30 9616 C 916.519 1.79807 0.741602 0
M  V30 9617 O 915.774 1.18686 1.55603 0
M  V30 9618 C 916.073 3.39052 -1.13041 0
M  V30 9619 C 915.739 3.68332 -2.60082 0
M  V30 9620 C 914.401 3.76033 -3.00254 0
M  V30 9621 C 916.753 3.81423 -3.55199 0
M  V30 9622 C 914.081 3.94296 -4.34451 0
M  V30 9623 C 916.433 4.012 -4.89103 0
M  V30 9624 C 915.097 4.07134 -5.28959 0
M  V30 9625 H 914.367 0.691172 -0.267137 0
M  V30 9626 H 917.014 1.41053 -1.29523 0
M  V30 9627 H 915.319 3.88801 -0.48386 0
M  V30 9628 H 917.016 3.91351 -0.874368 0
M  V30 9629 H 913.606 3.62948 -2.27961 0
M  V30 9630 H 917.79 3.74814 -3.25313 0
M  V30 9631 H 913.046 3.97131 -4.64863 0
M  V30 9632 H 917.22 4.10271 -5.62717 0
M  V30 9633 H 914.847 4.21038 -6.32954 0
M  V30 9634 N 916.422 0.810101 1.35185 0
M  V30 9635 C 917.67 0.391343 1.98275 0
M  V30 9636 C 917.991 -1.04592 1.64577 0
M  V30 9637 O 917.261 -1.72417 0.93001 0
M  V30 9638 H 915.841 0.141715 0.733434 0
M  V30 9639 H 918.503 1.03672 1.6504 0
M  V30 9640 H 917.599 0.49991 3.0807 0
M  V30 9641 N 917.9 -1.47166 0.563914 0
M  V30 9642 C 918.81 -2.33885 -0.182977 0
M  V30 9643 C 919.826 -1.48605 -0.905132 0
M  V30 9644 O 921.002 -1.81518 -0.872527 0
M  V30 9645 C 918.067 -3.25433 -1.19558 0
M  V30 9646 C 917.128 -4.26607 -0.480129 0
M  V30 9647 C 916.361 -5.1378 -1.44449 0
M  V30 9648 O 916.584 -5.03531 -2.67979 0
M  V30 9649 O 915.518 -5.94109 -0.965321 0
M  V30 9650 H 919.344 -2.99065 0.528544 0
M  V30 9651 H 916.929 -1.45834 0.324468 0
M  V30 9652 H 918.811 -3.81964 -1.77993 0
M  V30 9653 H 917.486 -2.62873 -1.8889 0
M  V30 9654 H 916.393 -3.73817 0.145583 0
M  V30 9655 H 917.726 -4.919 0.171868 0
M  V30 9656 O 919.417 -0.442777 -1.55312 0
M  V30 9657 H 920.108 0.0896089 -1.93493 0
M  V30 END ATOM
M  V30 BEGIN BOND
M  V30 END BOND
M  V30 END CTAB
M  END
$$$$
