drugbank_target|P00512 ATP-dependent 6-phosphofructokinase (DB02726; DB04493)
 OpenBabel12092120003D

  0  0  0     0  0            999 V3000
M  V30 BEGIN CTAB
M  V30 COUNTS 4817 4853 0 0 0
M  V30 BEGIN ATOM
M  V30 1 H -0.908 1.98254 -0.117106 0
M  V30 2 N 0 1.576 0 0
M  V30 3 C 0.933 2.03868 1.02534 0
M  V30 4 C 1.911 0.928543 1.3348 0
M  V30 5 O 3.095 1.19667 1.45644 0
M  V30 6 C 0.222 2.43627 2.35294 0
M  V30 7 C -0.732 3.65373 2.2001 0
M  V30 8 S 0.101 5.13292 1.52614 0
M  V30 9 C 1.257 5.56322 2.86805 0
M  V30 10 H 1.49 2.90518 0.631377 0
M  V30 11 H -0.977 1.52953 0.210867 0
M  V30 12 H 0.981 2.67203 3.11629 0
M  V30 13 H -0.358 1.57376 2.7183 0
M  V30 14 H -1.165 3.90944 3.18086 0
M  V30 15 H -1.563 3.418 1.51819 0
M  V30 16 H 0.729 5.58782 3.83104 0
M  V30 17 H 1.672 6.56266 2.65933 0
M  V30 18 H 2.08 4.83886 2.90714 0
M  V30 19 N 1.4781 -0.272755 1.55222 0
M  V30 20 C 2.4251 -1.33716 1.88119 0
M  V30 21 C 3.3951 -1.49066 0.73271 0
M  V30 22 O 4.5801 -1.63469 0.984002 0
M  V30 23 C 1.7201 -2.69238 2.15882 0
M  V30 24 C 0.8331 -2.62108 3.43399 0
M  V30 25 C -0.0319 -3.89811 3.60861 0
M  V30 26 C -0.9929 -3.77193 4.8207 0
M  V30 27 N -1.8559 -4.9673 4.96189 0
M  V30 28 H 2.9841 -1.04962 2.78903 0
M  V30 29 H 0.5211 -0.507088 1.38083 0
M  V30 30 H 2.4791 -3.48089 2.29978 0
M  V30 31 H 1.1091 -2.96194 1.28331 0
M  V30 32 H 0.1611 -1.74967 3.37773 0
M  V30 33 H 1.4731 -2.48685 4.32386 0
M  V30 34 H 0.6271 -4.77103 3.74777 0
M  V30 35 H -0.6339 -4.06102 2.7006 0
M  V30 36 H -1.6289 -2.88284 4.68159 0
M  V30 37 H -0.4039 -3.62421 5.74307 0
M  V30 38 H -2.4579 -5.13431 4.08319 0
M  V30 39 H -2.5409 -4.85839 5.79221 0
M  V30 40 H -1.2729 -5.85594 5.1449 0
M  V30 41 N 2.9562 -1.48159 -0.537278 0
M  V30 42 C 4.3722 -1.34118 -0.865129 0
M  V30 43 C 4.5722 -0.346678 -1.98495 0
M  V30 44 O 3.6282 0.234715 -2.51407 0
M  V30 45 C 4.9412 -2.73963 -1.23954 0
M  V30 46 C 6.4892 -2.82397 -1.34984 0
M  V30 47 C 6.9642 -4.22928 -1.75772 0
M  V30 48 N 8.4552 -4.25566 -1.82887 0
M  V30 49 C 9.1902 -5.31235 -2.15817 0
M  V30 50 N 8.6862 -6.47189 -2.47222 0
M  V30 51 N 10.4792 -5.18624 -2.16761 0
M  V30 52 H 2.6302 -2.1144 0.201715 0
M  V30 53 H 4.8932 -0.947598 0.0275949 0
M  V30 54 H 4.5992 -3.48264 -0.490381 0
M  V30 55 H 4.4732 -3.0702 -2.19132 0
M  V30 56 H 6.8602 -2.08356 -2.08978 0
M  V30 57 H 6.9412 -2.5297 -0.379448 0
M  V30 58 H 6.5852 -4.97482 -1.02341 0
M  V30 59 H 6.5152 -4.49794 -2.73848 0
M  V30 60 H 9.0062 -3.41924 -1.60924 0
M  V30 61 H 9.3192 -7.23564 -2.71433 0
M  V30 62 H 7.6642 -6.50476 -2.44757 0
M  V30 63 H 10.8552 -4.27056 -1.91679 0
M  V30 64 H 11.0282 -6.01078 -2.42093 0
M  V30 65 N 4.4343 0.785586 -1.36625 0
M  V30 66 C 5.6833 1.53883 -1.30396 0
M  V30 67 C 5.9963 1.95271 0.113452 0
M  V30 68 O 7.2023 2.69858 0.298142 0
M  V30 69 C 5.6583 2.77808 -2.28802 0
M  V30 70 C 5.2663 2.43574 -3.75999 0
M  V30 71 C 7.0103 3.55783 -2.31558 0
M  V30 72 C 4.9173 3.63919 -4.66173 0
M  V30 73 H 3.8473 0.577678 -0.484566 0
M  V30 74 H 6.4983 0.861705 -1.62009 0
M  V30 75 H 4.8803 3.47339 -1.90188 0
M  V30 76 H 6.0543 1.81916 -4.23371 0
M  V30 77 H 4.3693 1.78803 -3.76056 0
M  V30 78 H 6.9663 4.45205 -2.96137 0
M  V30 79 H 7.3093 3.94644 -1.3252 0
M  V30 80 H 7.8423 2.93235 -2.68809 0
M  V30 81 H 4.5813 3.3015 -5.66287 0
M  V30 82 H 4.1013 4.2473 -4.23515 0
M  V30 83 H 5.7803 4.30901 -4.82632 0
M  V30 84 N 5.9124 1.20967 1.01018 0
M  V30 85 C 7.1604 1.02172 1.74371 0
M  V30 86 C 7.4814 -0.446414 1.89821 0
M  V30 87 O 6.7514 -1.32234 1.44537 0
M  V30 88 H 5.3314 0.375066 0.646014 0
M  V30 89 H 7.9934 1.52187 1.21758 0
M  V30 90 H 7.0894 1.48538 2.74487 0
M  V30 91 N 7.3905 -1.2043 1.01659 0
M  V30 92 C 8.6365 -1.90079 0.706963 0
M  V30 93 C 8.9695 -1.78648 -0.761474 0
M  V30 94 O 8.2445 -1.17069 -1.55323 0
M  V30 95 C 8.5275 -3.41469 1.14327 0
M  V30 96 C 8.3805 -3.61833 2.67201 0
M  V30 97 C 9.6995 -4.34261 0.714529 0
M  V30 98 H 6.8185 -0.690254 0.2583 0
M  V30 99 H 9.4605 -1.41826 1.26433 0
M  V30 100 H 7.6105 -3.82696 0.669056 0
M  V30 101 H 9.2825 -3.2986 3.22475 0
M  V30 102 H 7.5255 -3.05304 3.08175 0
M  V30 103 H 8.1965 -4.67955 2.92783 0
M  V30 104 H 10.6725 -4.00682 1.12221 0
M  V30 105 H 9.5485 -5.38806 1.04784 0
M  V30 106 H 9.8095 -4.40431 -0.383799 0
M  V30 107 N 8.8686 -0.792821 -1.36206 0
M  V30 108 C 9.7986 -0.207853 -2.32573 0
M  V30 109 C 10.7796 0.659055 -1.56813 0
M  V30 110 O 11.9646 0.592176 -1.84951 0
M  V30 111 C 9.0946 0.655449 -3.41059 0
M  V30 112 C 8.0486 -0.111842 -4.27854 0
M  V30 113 C 7.3746 0.872274 -5.27537 0
M  V30 114 C 8.6746 -1.30299 -5.05786 0
M  V30 115 H 10.3686 -1.01294 -2.81744 0
M  V30 116 H 7.9146 -0.48854 -1.3546 0
M  V30 117 H 9.8676 1.07464 -4.07467 0
M  V30 118 H 8.5916 1.49328 -2.90463 0
M  V30 119 H 7.2506 -0.512053 -3.63006 0
M  V30 120 H 6.8986 1.70523 -4.73214 0
M  V30 121 H 6.5986 0.363291 -5.86476 0
M  V30 122 H 8.1226 1.28996 -5.96818 0
M  V30 123 H 9.5366 -0.959379 -5.65216 0
M  V30 124 H 7.9336 -1.7455 -5.74154 0
M  V30 125 H 9.0036 -2.09663 -4.37229 0
M  V30 126 N 10.3467 1.47872 -0.545128 0
M  V30 127 C 11.5747 2.06889 -0.021084 0
M  V30 128 C 11.9897 1.39955 1.2672 0
M  V30 129 O 11.3467 0.492036 1.75742 0
M  V30 130 C 11.3977 3.60996 0.190817 0
M  V30 131 O 11.1187 4.25419 -1.04644 0
M  V30 132 C 12.6197 4.36849 0.753521 0
M  V30 133 H 9.8397 0.669785 -0.0403635 0
M  V30 134 H 12.3837 1.90049 -0.755095 0
M  V30 135 H 10.5387 3.77391 0.87492 0
M  V30 136 H 10.9527 5.17785 -0.836611 0
M  V30 137 H 12.4267 5.45399 0.851139 0
M  V30 138 H 12.9037 4.02306 1.762 0
M  V30 139 H 13.5097 4.25169 0.105503 0
M  V30 140 N 11.8248 0.280983 1.55075 0
M  V30 141 C 13.0498 -0.340154 2.04592 0
M  V30 142 C 13.4748 -1.48246 1.15779 0
M  V30 143 O 12.8328 -1.80614 0.15761 0
M  V30 144 C 12.8808 -0.793104 3.5177 0
M  V30 145 O 11.9848 -1.89981 3.66034 0
M  V30 146 H 11.3258 -0.0694289 0.66036 0
M  V30 147 H 13.8558 0.416993 2.00306 0
M  V30 148 H 13.8658 -1.08729 3.93245 0
M  V30 149 H 12.5408 0.0426163 4.15878 0
M  V30 150 H 11.1178 -1.60771 3.36463 0
M  V30 151 N 13.3029 -1.57598 0.00835791 0
M  V30 152 C 14.5509 -1.90551 -0.6734 0
M  V30 153 C 14.8719 -0.883301 -1.73847 0
M  V30 154 O 14.1419 0.0781442 -1.95744 0
M  V30 155 H 12.7219 -0.703312 -0.251717 0
M  V30 156 H 15.3839 -1.94833 0.0512592 0
M  V30 157 H 14.4799 -2.9056 -1.13935 0
M  V30 158 N 14.781 0.264519 -1.55364 0
M  V30 159 C 16.029 0.993021 -1.76021 0
M  V30 160 C 16.35 1.86511 -0.569099 0
M  V30 161 O 15.62 1.91438 0.415735 0
M  V30 162 H 14.2 0.369639 -0.649135 0
M  V30 163 H 16.862 0.286707 -1.9278 0
M  V30 164 H 15.958 1.62502 -2.66457 0
M  V30 165 N 16.2591 1.48442 0.529413 0
M  V30 166 C 17.5361 1.46978 1.29062 0
M  V30 167 C 17.9161 0.181769 2.10316 0
M  V30 168 O 17.2641 -0.836481 2.12639 0
M  V30 169 C 17.4741 2.7321 2.17157 0
M  V30 170 C 18.8221 3.21562 2.77278 0
M  V30 171 O 19.8461 2.74131 2.27444 0
M  V30 172 O 18.7051 4.04094 3.67927 0
M  V30 173 H 15.7991 0.587003 0.582543 0
M  V30 174 H 18.3451 1.60676 0.546021 0
M  V30 175 H 17.1171 3.58465 1.56903 0
M  V30 176 H 16.7401 2.62235 2.98862 0
M  V30 177 N 17.7372 -0.778329 1.37039 0
M  V30 178 C 18.9622 -1.57248 1.35233 0
M  V30 179 C 19.3872 -1.87999 -0.0615568 0
M  V30 180 O 18.7452 -1.48734 -1.03672 0
M  V30 181 C 18.7932 -2.86353 2.19167 0
M  V30 182 O 17.8972 -3.80442 1.59178 0
M  V30 183 H 17.2382 -0.476569 0.462362 0
M  V30 184 H 19.7682 -0.963853 1.80474 0
M  V30 185 H 19.7782 -3.35519 2.32145 0
M  V30 186 H 18.4532 -2.63299 3.21942 0
M  V30 187 H 17.0302 -3.39067 1.55203 0
M  V30 188 N 19.2153 -1.21501 -1.00376 0
M  V30 189 C 20.6263 -1.03146 -1.55621 0
M  V30 190 C 20.9773 0.408375 -1.91903 0
M  V30 191 O 20.1023 1.29177 -1.73616 0
M  V30 192 C 20.6973 -1.86612 -2.82775 0
M  V30 193 C 19.2563 -1.72586 -3.34501 0
M  V30 194 C 18.4033 -1.83747 -2.07683 0
M  V30 195 H 21.3543 -1.35505 -0.826081 0
M  V30 196 H 21.3753 -1.3771 -3.54706 0
M  V30 197 H 20.8873 -2.91399 -2.56336 0
M  V30 198 H 18.9883 -0.704877 -3.65872 0
M  V30 199 H 19.1013 -2.54623 -4.05837 0
M  V30 200 H 17.4653 -1.27069 -2.20739 0
M  V30 201 H 18.2483 -2.90044 -1.83655 0
M  V30 202 N 20.6934 1.19889 -1.02296 0
M  V30 203 C 21.9414 1.89046 -0.714558 0
M  V30 204 C 22.2624 1.79636 0.758681 0
M  V30 205 O 21.5324 1.20292 1.54618 0
M  V30 206 H 20.1124 0.699802 -0.261317 0
M  V30 207 H 22.7744 1.45574 -1.29592 0
M  V30 208 H 21.8704 2.95524 -1.0036 0
M  V30 209 N 22.1715 0.800033 1.35784 0
M  V30 210 C 23.1045 0.151499 2.27697 0
M  V30 211 C 24.0825 -0.678663 1.4776 0
M  V30 212 O 25.2665 -0.647358 1.77035 0
M  V30 213 C 22.3935 -0.790492 3.29346 0
M  V30 214 C 21.4395 -0.0407832 4.26481 0
M  V30 215 S 22.2725 1.29077 5.19711 0
M  V30 216 C 23.4285 0.353055 6.24903 0
M  V30 217 H 23.6615 0.930796 2.82353 0
M  V30 218 H 21.1945 0.594767 1.42485 0
M  V30 219 H 23.1525 -1.3285 3.88409 0
M  V30 220 H 21.8135 -1.54312 2.73581 0
M  V30 221 H 21.0065 -0.755971 4.98298 0
M  V30 222 H 20.6085 0.427063 3.71554 0
M  V30 223 H 22.9005 -0.464147 6.75908 0
M  V30 224 H 23.8435 1.04023 7.00418 0
M  V30 225 H 24.2515 -0.0483344 5.64479 0
M  V30 226 N 23.6496 -1.47581 0.552962 0
M  V30 227 C 24.5976 -2.31648 -0.21023 0
M  V30 228 C 25.5916 -1.42663 -0.913432 0
M  V30 229 O 26.7976 -1.5945 -0.835201 0
M  V30 230 H 23.1726 -0.746989 -0.0866676 0
M  V30 231 H 25.1436 -2.93869 0.518051 0
M  V30 232 C 23.8926 -3.25226 -1.22976 0
M  V30 233 H 23.2156 -3.93658 -0.698077 0
M  V30 234 H 24.6556 -3.86889 -1.73473 0
M  V30 235 C 23.1146 -2.48448 -2.27542 0
M  V30 236 O 23.6446 -2.22585 -3.34393 0
M  V30 237 N 21.8506 -2.09532 -2.01357 0
M  V30 238 H 21.3976 -2.30765 -1.14478 0
M  V30 239 H 21.3556 -1.58476 -2.71538 0
M  V30 240 N 25.1277 -0.289203 -1.54924 0
M  V30 241 C 26.0907 0.579144 -2.21762 0
M  V30 242 C 27.0907 1.07047 -1.1999 0
M  V30 243 O 28.2807 0.968384 -1.44803 0
M  V30 244 C 25.4127 1.80055 -2.8947 0
M  V30 245 H 26.6057 -0.00464908 -2.999 0
M  V30 246 H 24.1587 -0.0399306 -1.56249 0
M  V30 247 H 24.8937 2.42449 -2.15381 0
M  V30 248 H 24.6787 1.45602 -3.64064 0
M  V30 249 H 26.1687 2.41773 -3.40493 0
M  V30 250 N 26.6058 1.57591 -0.0167156 0
M  V30 251 C 27.5688 2.08393 0.954204 0
M  V30 252 C 28.5688 0.996531 1.26198 0
M  V30 253 O 29.7588 1.25858 1.20438 0
M  V30 254 C 26.8908 2.5394 2.27436 0
M  V30 255 H 28.0838 2.95455 0.514451 0
M  V30 256 H 25.6368 1.54582 0.231089 0
M  V30 257 H 26.3718 1.70171 2.76066 0
M  V30 258 H 26.1568 3.33371 2.06412 0
M  V30 259 H 27.6468 2.93512 2.97053 0
M  V30 260 N 28.0839 -0.256276 1.55502 0
M  V30 261 C 29.3329 -0.983486 1.76098 0
M  V30 262 C 29.6459 -1.86837 0.578896 0
M  V30 263 O 30.8519 -2.63163 0.667648 0
M  V30 264 C 29.3079 -1.79868 3.1173 0
M  V30 265 C 28.9159 -0.961648 4.37557 0
M  V30 266 C 30.6599 -2.51919 3.41668 0
M  V30 267 C 28.5669 -1.77219 5.64223 0
M  V30 268 H 27.4969 -0.370936 0.656447 0
M  V30 269 H 30.1479 -0.238492 1.81944 0
M  V30 270 H 28.5299 -2.58527 2.99966 0
M  V30 271 H 29.7039 -0.218048 4.60284 0
M  V30 272 H 28.0189 -0.354913 4.14885 0
M  V30 273 H 30.6159 -3.12998 4.33516 0
M  V30 274 H 30.9589 -3.23059 2.62562 0
M  V30 275 H 31.4919 -1.80278 3.54605 0
M  V30 276 H 28.2309 -1.10471 6.46124 0
M  V30 277 H 27.7509 -2.49132 5.45613 0
M  V30 278 H 29.4299 -2.34169 6.03137 0
M  V30 279 N 29.562 -1.4872 -0.521534 0
M  V30 280 C 30.978 -1.35028 -0.850855 0
M  V30 281 C 31.178 -0.367712 -1.98116 0
M  V30 282 O 30.234 0.208037 -2.51642 0
M  V30 283 C 31.547 -2.75263 -1.21041 0
M  V30 284 C 33.095 -2.83813 -1.31981 0
M  V30 285 C 33.57 -4.24769 -1.71276 0
M  V30 286 N 35.061 -4.27482 -1.78363 0
M  V30 287 C 35.796 -5.33494 -2.1017 0
M  V30 288 N 35.292 -6.49775 -2.40343 0
M  V30 289 N 37.085 -5.20894 -2.11248 0
M  V30 290 H 29.236 -2.11214 0.22413 0
M  V30 291 H 31.499 -0.947252 0.0376439 0
M  V30 292 H 31.205 -3.48765 -0.453415 0
M  V30 293 H 31.079 -3.09327 -2.15863 0
M  V30 294 H 33.466 -2.10561 -2.06756 0
M  V30 295 H 33.547 -2.53358 -0.352596 0
M  V30 296 H 33.191 -4.9854 -0.970588 0
M  V30 297 H 33.121 -4.52673 -2.69062 0
M  V30 298 H 35.612 -3.43611 -1.57288 0
M  V30 299 H 35.925 -7.26402 -2.63743 0
M  V30 300 H 34.27 -6.53035 -2.37844 0
M  V30 301 H 37.461 -4.29065 -1.87139 0
M  V30 302 H 37.634 -6.03612 -2.35704 0
M  V30 303 N 31.0401 0.771051 -1.3745 0
M  V30 304 C 32.2651 1.56529 -1.36065 0
M  V30 305 C 32.6901 1.88029 0.0515859 0
M  V30 306 O 32.0481 1.49282 1.02882 0
M  V30 307 C 32.0961 2.85187 -2.20683 0
M  V30 308 O 31.2001 3.79593 -1.61193 0
M  V30 309 H 30.5411 0.47411 -0.464883 0
M  V30 310 H 33.0711 0.954269 -1.80983 0
M  V30 311 H 33.0811 3.34283 -2.33921 0
M  V30 312 H 31.7561 2.61588 -3.23334 0
M  V30 313 H 30.3331 3.38239 -1.56999 0
M  V30 314 N 32.5182 1.22032 0.997298 0
M  V30 315 C 33.7642 1.04376 1.73878 0
M  V30 316 C 34.0972 -0.420716 1.89588 0
M  V30 317 O 33.3722 -1.31202 1.43583 0
M  V30 318 C 33.6552 1.75047 3.14691 0
M  V30 319 C 33.5082 3.29062 3.06656 0
M  V30 320 C 34.8272 1.49928 4.13775 0
M  V30 321 H 31.9462 0.380578 0.631133 0
M  V30 322 H 34.5882 1.50312 1.16217 0
M  V30 323 H 32.7382 1.35996 3.63919 0
M  V30 324 H 34.4102 3.7753 2.65083 0
M  V30 325 H 32.6532 3.58967 2.43568 0
M  V30 326 H 33.3242 3.73683 4.06282 0
M  V30 327 H 35.8002 1.83842 3.73285 0
M  V30 328 H 34.6762 2.01878 5.10428 0
M  V30 329 H 34.9372 0.430929 4.39995 0
M  V30 330 N 33.9963 -1.19345 1.0293 0
M  V30 331 C 35.2423 -1.89318 0.727083 0
M  V30 332 C 35.5753 -1.79446 -0.742483 0
M  V30 333 O 34.8503 -1.1871 -1.54072 0
M  V30 334 C 35.1333 -3.40238 1.17942 0
M  V30 335 C 34.9863 -3.58979 2.71024 0
M  V30 336 C 36.3053 -4.33479 0.760548 0
M  V30 337 H 33.4243 -0.687475 0.265606 0
M  V30 338 H 36.0663 -1.40477 1.2793 0
M  V30 339 H 34.2163 -3.81964 0.709608 0
M  V30 340 H 35.8883 -3.26421 3.25955 0
M  V30 341 H 34.1313 -3.02018 3.11396 0
M  V30 342 H 34.8023 -4.64823 2.9773 0
M  V30 343 H 37.2783 -3.99469 1.16464 0
M  V30 344 H 36.1543 -5.37664 1.10493 0
M  V30 345 H 36.4153 -4.40813 -0.337063 0
M  V30 346 N 35.4744 -0.807222 -1.35358 0
M  V30 347 C 36.8904 -0.491038 -1.51858 0
M  V30 348 C 37.0904 0.987648 -1.75635 0
M  V30 349 O 36.1464 1.77265 -1.79815 0
M  V30 350 C 37.4594 -1.33695 -2.69344 0
M  V30 351 C 39.0074 -1.33246 -2.83222 0
M  V30 352 C 39.4824 -2.1625 -4.03733 0
M  V30 353 N 40.9734 -2.1379 -4.10911 0
M  V30 354 C 41.7084 -2.74772 -5.03277 0
M  V30 355 N 41.2044 -3.44684 -6.0097 0
M  V30 356 N 42.9974 -2.6441 -4.96028 0
M  V30 357 H 35.1484 -1.76485 -1.18181 0
M  V30 358 H 37.4114 -0.751199 -0.578276 0
M  V30 359 H 37.1174 -2.38634 -2.58354 0
M  V30 360 H 36.9914 -0.990618 -3.6396 0
M  V30 361 H 39.3784 -0.290911 -2.93663 0
M  V30 362 H 39.4594 -1.71866 -1.89461 0
M  V30 363 H 39.1034 -3.20445 -3.94052 0
M  V30 364 H 39.0334 -1.74989 -4.96675 0
M  V30 365 H 41.5244 -1.62923 -3.40976 0
M  V30 366 H 41.8374 -3.88501 -6.68047 0
M  V30 367 H 40.1824 -3.48788 -6.01142 0
M  V30 368 H 43.3734 -2.0938 -4.18662 0
M  V30 369 H 43.5464 -3.12225 -5.6782 0
M  V30 370 N 36.9525 1.47285 -0.560781 0
M  V30 371 C 37.8995 2.30058 0.18491 0
M  V30 372 C 38.8695 1.39281 0.904986 0
M  V30 373 O 40.0545 1.68241 0.899979 0
M  V30 374 C 37.1945 3.23317 1.20666 0
M  V30 375 C 36.3075 4.29186 0.492285 0
M  V30 376 C 35.4425 5.09592 1.49964 0
M  V30 377 C 34.4815 6.07232 0.770439 0
M  V30 378 N 33.6185 6.80584 1.72479 0
M  V30 379 H 38.4585 2.93302 -0.527048 0
M  V30 380 H 35.9955 1.44568 -0.271738 0
M  V30 381 H 37.9535 3.75811 1.81168 0
M  V30 382 H 36.5835 2.61929 1.88661 0
M  V30 383 H 35.6355 3.7972 -0.227333 0
M  V30 384 H 36.9475 4.98738 -0.0787929 0
M  V30 385 H 36.1015 5.66254 2.17809 0
M  V30 386 H 34.8405 4.3995 2.10464 0
M  V30 387 H 33.8455 5.49745 0.0780846 0
M  V30 388 H 35.0705 6.78884 0.171134 0
M  V30 389 H 33.0165 6.1367 2.3183 0
M  V30 390 H 32.9335 7.46319 1.20596 0
M  V30 391 H 34.2015 7.41818 2.39428 0
M  V30 392 N 38.4306 0.297415 1.54768 0
M  V30 393 C 39.3936 -0.567375 2.22066 0
M  V30 394 C 40.3936 -1.06409 1.20556 0
M  V30 395 O 41.5836 -0.960691 1.45315 0
M  V30 396 C 38.7156 -1.78517 2.90421 0
M  V30 397 H 39.9086 0.0205534 2.99893 0
M  V30 398 H 37.4616 0.0482163 1.56226 0
M  V30 399 H 38.1966 -2.41303 2.16664 0
M  V30 400 H 37.9816 -1.43669 3.64831 0
M  V30 401 H 39.4716 -2.39964 3.41771 0
M  V30 402 N 39.9087 -1.5758 0.0250728 0
M  V30 403 C 41.1577 -1.90811 -0.653767 0
M  V30 404 C 41.4707 -0.90273 -1.73523 0
M  V30 405 O 42.6767 -1.12614 -2.47043 0
M  V30 406 C 41.1327 -3.38804 -1.21409 0
M  V30 407 C 40.7407 -4.47692 -0.166126 0
M  V30 408 C 42.4847 -3.81108 -1.86967 0
M  V30 409 C 40.3917 -5.86779 -0.737856 0
M  V30 410 H 39.3217 -0.712063 -0.247956 0
M  V30 411 H 41.9727 -1.83281 0.0897137 0
M  V30 412 H 40.3547 -3.41252 -2.00905 0
M  V30 413 H 41.5287 -4.56797 0.606079 0
M  V30 414 H 39.8437 -4.14565 0.390466 0
M  V30 415 H 42.4407 -4.82375 -2.30692 0
M  V30 416 H 42.7837 -3.15953 -2.71071 0
M  V30 417 H 43.3167 -3.81065 -1.14167 0
M  V30 418 H 40.0557 -6.55468 0.0649577 0
M  V30 419 H 39.5757 -5.81288 -1.47864 0
M  V30 420 H 41.2547 -6.35223 -1.22884 0
M  V30 421 N 41.3868 0.248026 -1.55636 0
M  V30 422 C 42.6168 0.992367 -1.81206 0
M  V30 423 C 43.0248 1.7949 -0.598324 0
M  V30 424 O 42.3678 1.78292 0.442434 0
M  V30 425 C 42.4298 1.97926 -3.00109 0
M  V30 426 C 42.0938 1.36377 -4.36177 0
M  V30 427 C 43.0908 0.76682 -5.14214 0
M  V30 428 C 40.7758 1.38347 -4.82872 0
M  V30 429 C 42.7698 0.197778 -6.37093 0
M  V30 430 C 40.4568 0.810574 -6.057 0
M  V30 431 C 41.4548 0.218754 -6.8265 0
M  V30 432 O 41.1428 -0.345298 -8.03158 0
M  V30 433 H 40.8748 0.297704 -0.606917 0
M  V30 434 H 43.4288 0.276517 -2.0353 0
M  V30 435 H 41.6588 2.73339 -2.73538 0
M  V30 436 H 43.3478 2.58694 -3.12781 0
M  V30 437 H 44.1138 0.744114 -4.79258 0
M  V30 438 H 39.9928 1.8335 -4.2297 0
M  V30 439 H 43.5368 -0.264788 -6.97097 0
M  V30 440 H 39.4338 0.830604 -6.40134 0
M  V30 441 H 40.2018 -0.237055 -8.18157 0
M  V30 442 N 42.8649 1.48995 0.513639 0
M  V30 443 C 43.8149 1.61127 1.61314 0
M  V30 444 C 44.7989 0.467521 1.53958 0
M  V30 445 O 45.9909 0.719826 1.61702 0
M  V30 446 C 43.1199 1.66937 2.99978 0
M  V30 447 C 42.2059 2.86847 3.12377 0
M  V30 448 N 42.5969 4.11078 2.94701 0
M  V30 449 C 40.8949 2.84521 3.43459 0
M  V30 450 C 41.5959 4.91615 3.10949 0
M  V30 451 N 40.5719 4.24739 3.3926 0
M  V30 452 H 44.3739 2.54909 1.46282 0
M  V30 453 H 41.8879 1.45593 0.719483 0
M  V30 454 H 43.8849 1.73725 3.78979 0
M  V30 455 H 42.5449 0.742831 3.16089 0
M  V30 456 H 43.5559 4.41258 2.71131 0
M  V30 457 H 40.2329 2.01192 3.65825 0
M  V30 458 H 41.6229 6.00264 3.01882 0
M  V30 459 N 44.343 -0.763751 1.37857 0
M  V30 460 C 45.591 -1.51957 1.33243 0
M  V30 461 C 45.912 -1.94835 -0.0801709 0
M  V30 462 O 45.182 -1.66894 -1.02582 0
M  V30 463 H 43.762 -0.563626 0.49024 0
M  V30 464 H 46.424 -0.908504 1.7243 0
M  V30 465 H 45.52 -2.41523 1.97669 0
M  V30 466 N 45.8211 -1.22559 -0.990812 0
M  V30 467 C 47.0671 -1.05297 -1.73322 0
M  V30 468 C 47.4001 0.410655 -1.89808 0
M  V30 469 O 46.6751 1.30439 -1.44277 0
M  V30 470 C 46.9581 -1.76713 -3.13759 0
M  V30 471 C 46.8111 -3.30684 -3.04907 0
M  V30 472 C 48.1301 -1.52121 -4.12974 0
M  V30 473 H 45.2491 -0.38392 -0.629106 0
M  V30 474 H 47.8911 -1.50926 -1.15418 0
M  V30 475 H 46.0411 -1.37924 -3.63193 0
M  V30 476 H 47.7131 -3.7893 -2.63077 0
M  V30 477 H 45.9561 -3.60253 -2.41661 0
M  V30 478 H 46.6271 -3.75833 -4.04294 0
M  V30 479 H 49.1031 -1.85819 -3.72304 0
M  V30 480 H 47.9791 -2.04582 -5.0935 0
M  V30 481 H 48.2401 -0.454257 -4.3976 0
M  V30 482 N 47.2992 1.18797 -1.03562 0
M  V30 483 C 48.2092 2.25913 -0.632505 0
M  V30 484 C 49.2252 1.70668 0.338882 0
M  V30 485 O 50.4012 2.00453 0.195076 0
M  V30 486 C 47.4662 3.467 0.00350942 0
M  V30 487 C 46.5272 4.17098 -1.01624 0
M  V30 488 C 45.7602 5.32119 -0.410478 0
M  V30 489 O 45.9832 5.64976 0.784725 0
M  V30 490 O 44.9172 5.9107 -1.13667 0
M  V30 491 H 48.7432 2.62648 -1.52478 0
M  V30 492 H 46.3282 1.25781 -0.806195 0
M  V30 493 H 48.2102 4.19878 0.35781 0
M  V30 494 H 46.8852 3.11798 0.869686 0
M  V30 495 H 45.7922 3.4601 -1.42224 0
M  V30 496 H 47.1252 4.55987 -1.85301 0
M  V30 497 N 48.7773 0.814389 1.34928 0
M  V30 498 C 50.0233 0.399013 1.98836 0
M  V30 499 C 50.3563 -1.03314 1.64438 0
M  V30 500 O 49.6313 -1.71811 0.911659 0
M  V30 501 C 49.9143 0.591629 3.55207 0
M  V30 502 C 49.7673 2.06928 3.99376 0
M  V30 503 C 51.0863 0.022199 4.40094 0
M  V30 504 H 48.2053 0.146451 0.722303 0
M  V30 505 H 50.8473 1.02537 1.59957 0
M  V30 506 H 48.9973 0.0584441 3.88456 0
M  V30 507 H 50.6693 2.66544 3.76499 0
M  V30 508 H 48.9123 2.56287 3.49999 0
M  V30 509 H 49.5833 2.1549 5.08201 0
M  V30 510 H 52.0593 0.477643 4.13349 0
M  V30 511 H 50.9353 0.186832 5.48582 0
M  V30 512 H 51.1963 -1.07215 4.28902 0
M  V30 513 N 50.2554 -1.46986 0.568584 0
M  V30 514 C 51.4854 -2.0653 0.0539173 0
M  V30 515 C 51.8934 -1.42004 -1.25026 0
M  V30 516 O 51.2364 -0.514541 -1.76347 0
M  V30 517 C 51.2984 -3.58938 -0.200854 0
M  V30 518 C 50.9624 -4.45572 1.01559 0
M  V30 519 C 51.9594 -4.82986 1.92407 0
M  V30 520 C 49.6444 -4.8692 1.23346 0
M  V30 521 C 51.6384 -5.60559 3.03402 0
M  V30 522 C 49.3254 -5.64255 2.34649 0
M  V30 523 C 50.3234 -6.00986 3.24507 0
M  V30 524 O 50.0114 -6.76761 4.33878 0
M  V30 525 H 49.7434 -0.674292 0.0480234 0
M  V30 526 H 52.2974 -1.89812 0.784896 0
M  V30 527 H 50.5274 -3.73911 -0.986279 0
M  V30 528 H 52.2164 -4.0046 -0.662294 0
M  V30 529 H 52.9824 -4.51633 1.76785 0
M  V30 530 H 48.8614 -4.57789 0.543178 0
M  V30 531 H 52.4054 -5.89147 3.73565 0
M  V30 532 H 48.3024 -5.95021 2.5024 0
M  V30 533 H 49.0704 -6.95168 4.32068 0
M  V30 534 N 51.7335 -0.305618 -1.54608 0
M  V30 535 C 52.9815 0.301701 -1.99835 0
M  V30 536 C 53.3025 1.54054 -1.19551 0
M  V30 537 O 52.5725 1.93702 -0.292658 0
M  V30 538 H 51.1525 0.114468 -0.738178 0
M  V30 539 H 53.8145 -0.418016 -1.90364 0
M  V30 540 H 52.9105 0.570548 -3.06841 0
M  V30 541 N 53.2116 1.57565 -0.0334293 0
M  V30 542 C 54.4576 1.92262 0.645226 0
M  V30 543 C 54.7906 0.910543 1.71531 0
M  V30 544 O 54.0656 -0.066099 1.94388 0
M  V30 545 C 54.3486 3.37422 1.2577 0
M  V30 546 C 54.2016 4.49369 0.196891 0
M  V30 547 C 55.5206 3.82628 2.17449 0
M  V30 548 H 52.6396 0.699171 0.233085 0
M  V30 549 H 55.2816 1.89779 -0.0915694 0
M  V30 550 H 53.4316 3.39669 1.88566 0
M  V30 551 H 55.1036 4.59254 -0.433962 0
M  V30 552 H 53.3466 4.31168 -0.477137 0
M  V30 553 H 54.0176 5.47978 0.665124 0
M  V30 554 H 56.4936 3.82145 1.64634 0
M  V30 555 H 55.3696 4.84883 2.57254 0
M  V30 556 H 55.6306 3.18376 3.0674 0
M  V30 557 N 54.6897 -0.239769 1.55765 0
M  V30 558 C 55.9197 -0.982743 1.8173 0
M  V30 559 C 56.3277 -1.7917 0.607835 0
M  V30 560 O 55.6707 -1.78525 -0.432973 0
M  V30 561 C 55.7327 -1.96332 3.01155 0
M  V30 562 C 55.3967 -1.34062 4.36894 0
M  V30 563 C 56.3937 -0.739539 5.14613 0
M  V30 564 C 54.0787 -1.35784 4.83599 0
M  V30 565 C 56.0727 -0.163989 6.37189 0
M  V30 566 C 53.7597 -0.778441 6.06122 0
M  V30 567 C 54.7577 -0.182548 6.82756 0
M  V30 568 O 54.4457 0.387887 8.02964 0
M  V30 569 H 54.1777 -0.294481 0.608487 0
M  V30 570 H 56.7317 -0.26572 2.03674 0
M  V30 571 H 54.9617 -2.71884 2.74984 0
M  V30 572 H 56.6507 -2.57032 3.14149 0
M  V30 573 H 57.4167 -0.718687 4.79646 0
M  V30 574 H 53.2957 -1.81105 4.23936 0
M  V30 575 H 56.8397 0.301753 6.96947 0
M  V30 576 H 52.7367 -0.796645 6.40565 0
M  V30 577 H 53.5047 0.28044 8.18019 0
M  V30 578 N 56.1678 -1.49265 -0.50573 0
M  V30 579 C 57.1178 -1.6198 -1.60457 0
M  V30 580 C 58.1018 -0.47568 -1.53708 0
M  V30 581 O 59.2938 -0.728392 -1.61318 0
M  V30 582 C 56.4228 -1.68526 -2.99089 0
M  V30 583 C 55.5088 -2.885 -3.10852 0
M  V30 584 N 55.8998 -4.12635 -2.92517 0
M  V30 585 C 54.1978 -2.86338 -3.41945 0
M  V30 586 C 54.8988 -4.93258 -3.08337 0
M  V30 587 N 53.8748 -4.26533 -3.37003 0
M  V30 588 H 57.6768 -2.55681 -1.44928 0
M  V30 589 H 55.1908 -1.45972 -0.711752 0
M  V30 590 H 57.1878 -1.75732 -3.78053 0
M  V30 591 H 55.8478 -0.759584 -3.1569 0
M  V30 592 H 56.8588 -4.42689 -2.68787 0
M  V30 593 H 53.5358 -2.03129 -3.64753 0
M  V30 594 H 54.9258 -6.01856 -2.98695 0
M  V30 595 N 57.6459 0.756429 -1.3826 0
M  V30 596 C 58.8939 1.51248 -1.34047 0
M  V30 597 C 59.2149 1.94875 0.0698372 0
M  V30 598 O 58.4849 1.67436 1.01696 0
M  V30 599 H 57.0649 0.561018 -0.493222 0
M  V30 600 H 59.7269 0.899347 -1.7291 0
M  V30 601 H 58.8229 2.40472 -1.98947 0
M  V30 602 N 59.124 1.23083 0.984299 0
M  V30 603 C 60.354 1.08556 1.75781 0
M  V30 604 C 60.762 -0.366171 1.85623 0
M  V30 605 O 60.105 -1.26524 1.33182 0
M  V30 606 C 60.167 1.63208 3.20318 0
M  V30 607 C 59.831 3.11922 3.33997 0
M  V30 608 C 60.828 4.09259 3.2063 0
M  V30 609 C 58.513 3.51552 3.58771 0
M  V30 610 C 60.507 5.4421 3.31835 0
M  V30 611 C 58.194 4.86649 3.69616 0
M  V30 612 C 59.192 5.82787 3.56157 0
M  V30 613 O 58.88 7.15431 3.66626 0
M  V30 614 H 58.612 0.380713 0.5586 0
M  V30 615 H 61.166 1.63321 1.2456 0
M  V30 616 H 59.396 1.0286 3.72769 0
M  V30 617 H 61.085 1.44216 3.79416 0
M  V30 618 H 61.851 3.79984 3.01392 0
M  V30 619 H 57.73 2.77239 3.6832 0
M  V30 620 H 61.274 6.1923 3.21247 0
M  V30 621 H 57.171 5.15601 3.88363 0
M  V30 622 H 57.939 7.23127 3.83445 0
M  V30 623 N 60.6021 -1.18246 1.0419 0
M  V30 624 C 61.5651 -2.20128 0.638452 0
M  V30 625 C 62.5651 -1.57885 -0.304805 0
M  V30 626 O 63.7551 -1.73967 -0.0900369 0
M  V30 627 C 60.8871 -3.4084 -0.0637751 0
M  V30 628 H 62.0801 -2.57336 1.54007 0
M  V30 629 H 59.6331 -1.32152 0.834598 0
M  V30 630 H 60.3681 -3.09166 -0.979136 0
M  V30 631 H 60.1531 -3.8726 0.614198 0
M  V30 632 H 61.6431 -4.16274 -0.332512 0
M  V30 633 N 62.0802 -0.821533 -1.34494 0
M  V30 634 C 63.3282 -0.408139 -1.97936 0
M  V30 635 C 63.6492 1.03193 -1.65457 0
M  V30 636 O 62.9192 1.71622 -0.944595 0
M  V30 637 H 61.4992 -0.147928 -0.732206 0
M  V30 638 H 64.1612 -1.05067 -1.64155 0
M  V30 639 H 63.2572 -0.52601 -3.07635 0
M  V30 640 N 63.5583 1.46682 -0.576371 0
M  V30 641 C 64.4883 2.33028 0.148397 0
M  V30 642 C 65.4693 1.44961 0.889956 0
M  V30 643 O 66.6543 1.73789 0.866662 0
M  V30 644 C 63.7843 3.27117 1.1667 0
M  V30 645 C 62.7383 4.24575 0.540386 0
M  V30 646 C 62.0643 5.08126 1.6647 0
M  V30 647 C 63.3643 5.19722 -0.518331 0
M  V30 648 H 65.0583 2.93875 -0.572509 0
M  V30 649 H 62.6043 1.41315 -0.276768 0
M  V30 650 H 64.5573 3.86374 1.68204 0
M  V30 651 H 63.2813 2.64364 1.9178 0
M  V30 652 H 61.9403 3.66571 0.0461769 0
M  V30 653 H 61.5883 4.41762 2.40531 0
M  V30 654 H 61.2883 5.74122 1.25131 0
M  V30 655 H 62.8123 5.70246 2.18293 0
M  V30 656 H 64.2263 5.73232 -0.0883058 0
M  V30 657 H 62.6233 5.94026 -0.851679 0
M  V30 658 H 63.6933 4.64037 -1.40703 0
M  V30 659 N 65.0364 0.313813 1.54444 0
M  V30 660 C 66.2854 -0.292519 1.99568 0
M  V30 661 C 66.5984 -1.54011 1.20582 0
M  V30 662 O 67.8044 -2.22183 1.56035 0
M  V30 663 C 66.2604 -0.571752 3.55329 0
M  V30 664 C 65.8684 0.658229 4.43138 0
M  V30 665 C 67.6124 -1.13857 4.08946 0
M  V30 666 C 65.5194 0.351439 5.90355 0
M  V30 667 H 64.4494 -0.113079 0.745472 0
M  V30 668 H 67.1004 0.424518 1.78522 0
M  V30 669 H 65.4824 -1.34872 3.72325 0
M  V30 670 H 66.6564 1.43403 4.37918 0
M  V30 671 H 64.9714 1.14458 4.0036 0
M  V30 672 H 67.5684 -1.38257 5.16516 0
M  V30 673 H 67.9114 -2.08489 3.6033 0
M  V30 674 H 68.4444 -0.423015 3.95544 0
M  V30 675 H 65.1834 1.26667 6.43145 0
M  V30 676 H 64.7034 -0.386842 5.98551 0
M  V30 677 H 66.3824 -0.0423134 6.46986 0
M  V30 678 N 66.5145 -1.57545 0.0417849 0
M  V30 679 C 67.4775 -2.09885 -0.92093 0
M  V30 680 C 68.4775 -1.01648 -1.24596 0
M  V30 681 O 69.6675 -1.27759 -1.1842 0
M  V30 682 C 66.7995 -2.57527 -2.23367 0
M  V30 683 H 67.9925 -2.96236 -0.467382 0
M  V30 684 H 65.5455 -1.5493 -0.206467 0
M  V30 685 H 66.2805 -1.74542 -2.73323 0
M  V30 686 H 66.0655 -3.36613 -2.01083 0
M  V30 687 H 67.5555 -2.98201 -2.92346 0
M  V30 688 N 67.9926 0.231505 -1.5589 0
M  V30 689 C 69.2406 0.955461 -1.78088 0
M  V30 690 C 69.5616 1.85262 -0.608533 0
M  V30 691 O 68.8316 1.92277 0.375035 0
M  V30 692 H 67.4116 0.355787 -0.656829 0
M  V30 693 H 70.0736 0.245751 -1.93344 0
M  V30 694 H 69.1696 1.56814 -2.69844 0
M  V30 695 N 69.4707 1.49531 0.497807 0
M  V30 696 C 70.4187 1.66926 1.61983 0
M  V30 697 C 71.4127 0.535167 1.60724 0
M  V30 698 O 72.6187 0.714896 1.65195 0
M  V30 699 H 68.9937 0.526415 0.537021 0
M  V30 700 H 70.9647 2.61098 1.44465 0
M  V30 701 C 69.7137 1.75602 3.00099 0
M  V30 702 H 69.0367 2.62244 3.01775 0
M  V30 703 H 70.4767 1.91807 3.78135 0
M  V30 704 C 68.9357 0.501543 3.33146 0
M  V30 705 O 69.4657 -0.371342 3.9998 0
M  V30 706 N 67.6717 0.363531 2.88317 0
M  V30 707 H 67.2187 1.07485 2.34104 0
M  V30 708 H 67.1767 -0.474728 3.10795 0
M  V30 709 N 70.9488 -0.749086 1.3866 0
M  V30 710 C 72.1978 -1.50371 1.3443 0
M  V30 711 C 72.5108 -1.95503 -0.0616397 0
M  V30 712 O 73.7168 -2.70554 -0.226489 0
M  V30 713 C 72.1728 -2.71644 2.36088 0
M  V30 714 C 71.7808 -2.3352 3.82325 0
M  V30 715 C 73.5248 -3.49518 2.40909 0
M  V30 716 C 71.4318 -3.51431 4.75658 0
M  V30 717 H 70.3618 -0.564628 0.499712 0
M  V30 718 H 73.0128 -0.818449 1.64237 0
M  V30 719 H 71.3948 -3.42175 1.9933 0
M  V30 720 H 72.5688 -1.70627 4.28046 0
M  V30 721 H 70.8838 -1.6877 3.80665 0
M  V30 722 H 73.4808 -4.37197 3.07836 0
M  V30 723 H 73.8238 -3.90992 1.42937 0
M  V30 724 H 74.3568 -2.86005 2.76489 0
M  V30 725 H 71.0958 -3.15019 5.74842 0
M  V30 726 H 70.6158 -4.13352 4.34627 0
M  V30 727 H 72.2948 -4.17953 4.93887 0
M  V30 728 N 72.4269 -1.23603 -0.977757 0
M  V30 729 C 73.3739 -1.01954 -2.07061 0
M  V30 730 C 74.3439 0.0638697 -1.65977 0
M  V30 731 O 75.5289 -0.0887624 -1.90593 0
M  V30 732 C 72.6689 -0.619658 -3.39491 0
M  V30 733 C 71.7819 -1.77547 -3.93829 0
M  V30 734 C 70.9169 -1.32212 -5.14484 0
M  V30 735 C 69.9559 -2.44852 -5.60994 0
M  V30 736 N 69.0929 -2.00456 -6.72876 0
M  V30 737 H 73.9329 -1.95495 -2.24913 0
M  V30 738 H 71.4699 -0.973861 -1.10247 0
M  V30 739 H 73.4279 -0.368898 -4.15566 0
M  V30 740 H 72.0579 0.278752 -3.21594 0
M  V30 741 H 71.1099 -2.14016 -3.14486 0
M  V30 742 H 72.4219 -2.62219 -4.24314 0
M  V30 743 H 71.5759 -1.02965 -5.97899 0
M  V30 744 H 70.3149 -0.445808 -4.85658 0
M  V30 745 H 69.3199 -2.74871 -4.76157 0
M  V30 746 H 70.5449 -3.33024 -5.91837 0
M  V30 747 H 68.4909 -1.15208 -6.45804 0
M  V30 748 H 68.4079 -2.78687 -7.02759 0
M  V30 749 H 69.6759 -1.7432 -7.59758 0
M  V30 750 N 73.905 1.17692 -1.04816 0
M  V30 751 C 74.852 2.21581 -0.645797 0
M  V30 752 C 75.822 1.62367 0.350159 0
M  V30 753 O 77.007 1.89254 0.242433 0
M  V30 754 C 74.147 3.45092 -0.0227568 0
M  V30 755 C 73.26 4.18613 -1.06709 0
M  V30 756 C 72.395 5.29602 -0.411767 0
M  V30 757 C 71.434 5.94904 -1.44067 0
M  V30 758 N 70.571 6.97414 -0.809781 0
M  V30 759 H 75.411 2.55353 -1.5362 0
M  V30 760 H 72.948 1.25438 -0.768364 0
M  V30 761 H 74.906 4.15679 0.35588 0
M  V30 762 H 73.536 3.11917 0.831122 0
M  V30 763 H 72.588 3.46779 -1.5636 0
M  V30 764 H 73.9 4.63293 -1.84827 0
M  V30 765 H 73.054 6.06696 0.0206623 0
M  V30 766 H 71.793 4.86045 0.401438 0
M  V30 767 H 70.798 5.16544 -1.88316 0
M  V30 768 H 72.023 6.40542 -2.25571 0
M  V30 769 H 69.969 6.55998 -0.0170186 0
M  V30 770 H 69.886 7.40386 -1.52856 0
M  V30 771 H 71.154 7.78463 -0.401999 0
M  V30 772 N 75.3831 0.828654 1.34056 0
M  V30 773 C 76.3131 0.269443 2.3194 0
M  V30 774 C 77.2941 -0.617247 1.58506 0
M  V30 775 O 78.4791 -0.542931 1.86456 0
M  V30 776 C 75.6091 -0.564793 3.42677 0
M  V30 777 C 74.5631 0.225241 4.27407 0
M  V30 778 C 73.8891 -0.7321 5.29664 0
M  V30 779 C 75.1891 1.43663 5.02154 0
M  V30 780 H 76.8831 1.08728 2.7896 0
M  V30 781 H 74.4291 0.524283 1.34117 0
M  V30 782 H 76.3821 -0.966233 4.10173 0
M  V30 783 H 75.1061 -1.41574 2.9432 0
M  V30 784 H 73.7651 0.608117 3.61521 0
M  V30 785 H 73.4131 -1.57916 4.77568 0
M  V30 786 H 73.1131 -0.20767 5.87233 0
M  V30 787 H 74.6371 -1.13128 6.00029 0
M  V30 788 H 76.0511 1.1089 5.62473 0
M  V30 789 H 74.4481 1.89711 5.69324 0
M  V30 790 H 75.5181 2.21181 4.31517 0
M  V30 791 N 76.8612 -1.46375 0.584142 0
M  V30 792 C 77.7712 -2.34115 -0.150728 0
M  V30 793 C 78.7872 -1.49838 -0.884567 0
M  V30 794 O 79.9632 -1.82704 -0.847429 0
M  V30 795 C 77.0282 -3.2705 -1.15062 0
M  V30 796 C 76.0892 -4.27228 -0.421293 0
M  V30 797 C 75.3222 -5.15722 -1.37355 0
M  V30 798 O 75.5452 -5.07176 -2.61014 0
M  V30 799 O 74.4792 -5.95383 -0.883355 0
M  V30 800 H 78.3052 -2.98309 0.569708 0
M  V30 801 H 75.8902 -1.45373 0.344535 0
M  V30 802 H 77.7722 -3.84381 -1.72712 0
M  V30 803 H 76.4472 -2.65451 -1.8525 0
M  V30 804 H 75.3542 -3.7358 0.197085 0
M  V30 805 H 76.6872 -4.91616 0.239641 0
M  V30 806 N 78.3393 -0.321999 -1.54275 0
M  V30 807 C 79.5853 0.281461 -2.00837 0
M  V30 808 C 79.9183 1.51909 -1.20985 0
M  V30 809 O 79.1933 1.923 -0.291733 0
M  V30 810 C 79.4763 0.617162 -3.54772 0
M  V30 811 C 79.3293 -0.631064 -4.45351 0
M  V30 812 C 80.6483 1.43542 -4.16033 0
M  V30 813 H 77.7673 0.100826 -0.730071 0
M  V30 814 H 80.4093 -0.438268 -1.84876 0
M  V30 815 H 78.5593 1.23034 -3.68504 0
M  V30 816 H 80.2313 -1.26934 -4.43492 0
M  V30 817 H 78.4743 -1.26025 -4.15091 0
M  V30 818 H 79.1453 -0.351735 -5.50878 0
M  V30 819 H 81.6213 0.917134 -4.05867 0
M  V30 820 H 80.4973 1.63907 -5.23856 0
M  V30 821 H 80.7583 2.43108 -3.69257 0
M  V30 822 N 79.8174 1.5752 -0.0501392 0
M  V30 823 C 81.0654 1.9227 0.622642 0
M  V30 824 C 81.3864 0.929083 1.71444 0
M  V30 825 O 80.6564 -0.0262186 1.95882 0
M  V30 826 H 79.2364 0.709739 0.232981 0
M  V30 827 H 81.8984 1.94628 -0.102898 0
M  V30 828 H 80.9944 2.93479 1.06191 0
M  V30 829 N 81.2955 -0.223234 1.56011 0
M  V30 830 C 82.5725 -0.972108 1.69733 0
M  V30 831 C 82.9525 -2.02485 0.59691 0
M  V30 832 O 82.3005 -2.25037 -0.396324 0
M  V30 833 C 82.5105 -1.58407 3.10979 0
M  V30 834 C 83.8585 -2.07696 3.70334 0
M  V30 835 O 84.8825 -1.68304 3.1393 0
M  V30 836 O 83.7415 -2.80096 4.69264 0
M  V30 837 H 80.8355 -0.453993 0.691245 0
M  V30 838 H 83.3815 -0.215149 1.68331 0
M  V30 839 H 82.1535 -0.823831 3.82529 0
M  V30 840 H 81.7765 -2.40661 3.16493 0
M  V30 841 N 82.7736 -1.49793 -0.48987 0
M  V30 842 C 84.0196 -1.60078 -1.24511 0
M  V30 843 C 84.3526 -0.291608 -1.91998 0
M  V30 844 O 83.6276 0.705647 -1.81248 0
M  V30 845 C 83.9106 -2.76791 -2.30345 0
M  V30 846 C 83.7636 -4.17535 -1.67286 0
M  V30 847 C 85.0826 -2.89111 -3.31817 0
M  V30 848 H 82.2016 -0.582645 -0.451324 0
M  V30 849 H 84.8436 -1.82117 -0.541612 0
M  V30 850 H 82.9936 -2.5813 -2.90346 0
M  V30 851 H 84.6656 -4.4774 -1.11026 0
M  V30 852 H 82.9086 -4.22665 -0.976577 0
M  V30 853 H 83.5796 -4.95094 -2.44103 0
M  V30 854 H 86.0556 -3.06133 -2.81819 0
M  V30 855 H 84.9316 -3.72433 -4.03219 0
M  V30 856 H 85.1926 -1.9893 -3.94815 0
M  V30 857 N 84.2517 0.741722 -1.39055 0
M  V30 858 C 85.4997 1.49818 -1.35643 0
M  V30 859 C 85.8207 1.94938 0.0491642 0
M  V30 860 O 85.0907 1.68505 0.999141 0
M  V30 861 H 83.6707 0.555755 -0.499144 0
M  V30 862 H 86.3327 0.880957 -1.73854 0
M  V30 863 H 85.4287 2.38348 -2.01486 0
M  V30 864 N 85.7298 1.2412 0.971189 0
M  V30 865 C 87.0068 0.986867 1.6888 0
M  V30 866 C 87.3868 -0.491857 2.0529 0
M  V30 867 O 86.7348 -1.46531 1.75331 0
M  V30 868 C 86.9448 1.9063 2.92338 0
M  V30 869 C 88.2928 2.17515 3.64654 0
M  V30 870 O 89.3168 1.88254 3.02388 0
M  V30 871 O 88.1758 2.6719 4.7673 0
M  V30 872 H 85.2698 0.372944 0.738134 0
M  V30 873 H 87.8158 1.35203 1.02559 0
M  V30 874 H 86.5878 2.90552 2.62097 0
M  V30 875 H 86.2108 1.54408 3.66393 0
M  V30 876 N 87.2079 -1.17134 1.05439 0
M  V30 877 C 88.4569 -1.86791 0.761049 0
M  V30 878 C 88.7699 -1.82072 -0.714795 0
M  V30 879 O 89.9759 -2.47223 -1.12218 0
M  V30 880 C 88.4319 -3.35166 1.31117 0
M  V30 881 C 88.0399 -3.48381 2.81664 0
M  V30 882 C 89.7839 -4.10134 1.09499 0
M  V30 883 C 87.6909 -4.90793 3.29964 0
M  V30 884 H 86.6209 -0.699681 0.281002 0
M  V30 885 H 89.2719 -1.3226 1.27199 0
M  V30 886 H 87.6539 -3.8925 0.72803 0
M  V30 887 H 88.8279 -3.04502 3.45855 0
M  V30 888 H 87.1429 -2.86836 3.01851 0
M  V30 889 H 89.7399 -5.152 1.43084 0
M  V30 890 H 90.0829 -4.16287 0.0328772 0
M  V30 891 H 90.6159 -3.62264 1.64346 0
M  V30 892 H 87.3549 -4.89816 4.35616 0
M  V30 893 H 86.8749 -5.35333 2.70516 0
M  V30 894 H 88.5539 -5.59573 3.24787 0
M  V30 895 N 88.686 -0.835752 -1.33615 0
M  V30 896 C 89.935 -0.426289 -1.97144 0
M  V30 897 C 90.248 1.01912 -1.66953 0
M  V30 898 O 91.454 1.53311 -2.24072 0
M  V30 899 C 89.91 -0.711321 -3.52801 0
M  V30 900 C 89.518 -2.1712 -3.91871 0
M  V30 901 C 91.262 -0.368654 -4.22896 0
M  V30 902 C 89.169 -2.40044 -5.40493 0
M  V30 903 H 88.099 -0.15567 -0.737755 0
M  V30 904 H 90.75 -1.0239 -1.52278 0
M  V30 905 H 89.132 -0.0433766 -3.95976 0
M  V30 906 H 90.306 -2.87936 -3.59763 0
M  V30 907 H 88.621 -2.47654 -3.34749 0
M  V30 908 H 91.218 -0.517601 -5.32189 0
M  V30 909 H 91.561 0.688078 -4.10574 0
M  V30 910 H 92.094 -0.991702 -3.8524 0
M  V30 911 H 88.833 -3.44271 -5.57815 0
M  V30 912 H 88.353 -1.73785 -5.74072 0
M  V30 913 H 90.032 -2.23042 -6.0734 0
M  V30 914 N 90.1641 1.46063 -0.591896 0
M  V30 915 C 91.1141 2.27458 0.157172 0
M  V30 916 C 92.0981 1.3641 0.853301 0
M  V30 917 O 93.2901 1.60517 0.74588 0
M  V30 918 C 90.4191 3.22956 1.16423 0
M  V30 919 C 89.5051 4.2149 0.469742 0
M  V30 920 N 89.8961 5.03519 -0.479839 0
M  V30 921 C 88.1941 4.40161 0.719319 0
M  V30 922 C 88.8951 5.74904 -0.886591 0
M  V30 923 N 87.8711 5.43097 -0.233731 0
M  V30 924 H 91.6731 2.88272 -0.572392 0
M  V30 925 H 89.1871 1.57024 -0.414375 0
M  V30 926 H 91.1841 3.79986 1.71513 0
M  V30 927 H 89.8441 2.63701 1.89451 0
M  V30 928 H 90.8551 5.1078 -0.855823 0
M  V30 929 H 87.5321 3.92046 1.43548 0
M  V30 930 H 88.9221 6.50844 -1.66888 0
M  V30 931 N 91.6422 0.330177 1.54103 0
M  V30 932 C 93.0582 -0.0222371 1.59585 0
M  V30 933 C 93.2582 -1.49902 1.34654 0
M  V30 934 O 92.3142 -2.25592 1.13421 0
M  V30 935 C 93.6272 0.401932 2.98002 0
M  V30 936 C 95.1752 0.353145 3.11001 0
M  V30 937 C 95.6502 0.752576 4.51775 0
M  V30 938 N 97.1412 0.706239 4.57784 0
M  V30 939 C 97.8762 0.987417 5.64834 0
M  V30 940 N 97.3722 1.33607 6.79795 0
M  V30 941 N 99.1652 0.91254 5.54643 0
M  V30 942 H 91.3162 1.29228 1.68564 0
M  V30 943 H 93.5792 0.525906 0.78875 0
M  V30 944 H 93.2852 1.4311 3.21267 0
M  V30 945 H 93.1592 -0.229699 3.765 0
M  V30 946 H 95.5462 -0.666822 2.87467 0
M  V30 947 H 95.6272 1.0198 2.34593 0
M  V30 948 H 95.2712 1.77049 4.76042 0
M  V30 949 H 95.2012 0.0635409 5.26562 0
M  V30 950 H 97.6922 0.44889 3.75224 0
M  V30 951 H 98.0052 1.53582 7.57385 0
M  V30 952 H 96.3502 1.37439 6.81275 0
M  V30 953 H 99.5412 0.639601 4.6371 0
M  V30 954 H 99.7142 1.13503 6.37982 0
M  V30 955 N 93.1203 -1.57491 0.0584922 0
M  V30 956 C 94.3683 -1.92597 -0.612436 0
M  V30 957 C 94.6893 -0.938162 -1.70949 0
M  V30 958 O 93.9593 0.0158301 -1.95894 0
M  V30 959 H 92.5393 -0.710964 -0.229214 0
M  V30 960 H 95.2013 -1.94571 0.113218 0
M  V30 961 H 94.2973 -2.94038 -1.04633 0
M  V30 962 N 94.5984 0.214957 -1.56127 0
M  V30 963 C 95.8464 0.936518 -1.79091 0
M  V30 964 C 96.1674 1.84606 -0.628148 0
M  V30 965 O 95.4374 1.92664 0.35462 0
M  V30 966 H 94.0174 0.3488 -0.660566 0
M  V30 967 H 96.6794 0.22523 -1.93594 0
M  V30 968 H 95.7754 1.53943 -2.71492 0
M  V30 969 N 96.0765 1.50051 0.48192 0
M  V30 970 C 97.3045 1.64237 1.25832 0
M  V30 971 C 97.7195 0.321336 1.86045 0
M  V30 972 O 97.0765 -0.695478 1.68729 0
M  V30 973 C 97.1275 2.72548 2.37487 0
M  V30 974 O 96.8485 3.99529 1.79745 0
M  V30 975 C 98.3495 2.9761 3.28547 0
M  V30 976 H 95.5695 0.55237 0.380957 0
M  V30 977 H 98.1135 1.96207 0.576467 0
M  V30 978 H 96.2685 2.43303 3.01467 0
M  V30 979 H 96.6825 4.59342 2.5319 0
M  V30 980 H 98.1565 3.77084 4.03127 0
M  V30 981 H 98.6335 2.0826 3.86684 0
M  V30 982 H 99.2395 3.28345 2.70314 0
M  V30 983 N 97.5546 -0.734337 1.39446 0
M  V30 984 C 98.8036 -1.48937 1.36017 0
M  V30 985 C 99.1166 -1.95557 -0.0409005 0
M  V30 986 O 100.323 -2.70779 -0.19778 0
M  V30 987 C 98.7786 -2.69125 2.38955 0
M  V30 988 C 98.3866 -2.29452 3.8478 0
M  V30 989 C 100.131 -3.46944 2.44603 0
M  V30 990 C 98.0376 -3.46366 4.79358 0
M  V30 991 H 96.9676 -0.559296 0.505672 0
M  V30 992 H 99.6186 -0.800983 1.65095 0
M  V30 993 H 98.0006 -3.40041 2.02948 0
M  V30 994 H 99.1746 -1.66077 4.29831 0
M  V30 995 H 97.4896 -1.64723 3.82433 0
M  V30 996 H 100.087 -4.33907 3.12456 0
M  V30 997 H 100.43 -3.89454 1.47076 0
M  V30 998 H 100.963 -2.83056 2.79507 0
M  V30 999 H 97.7016 -3.08905 5.78151 0
M  V30 1000 H 97.2216 -4.08719 4.38986 0
M  V30 1001 H 98.9006 -4.12691 4.98292 0
M  V30 1002 N 99.0327 -1.24633 -0.964593 0
M  V30 1003 C 99.9627 -1.06611 -2.07741 0
M  V30 1004 C 100.944 0.0218666 -1.70086 0
M  V30 1005 O 102.129 -0.145793 -1.93652 0
M  V30 1006 C 99.2587 -0.673444 -3.40708 0
M  V30 1007 C 98.2127 -1.71054 -3.92332 0
M  V30 1008 C 97.5387 -1.17285 -5.21678 0
M  V30 1009 C 98.8387 -3.10718 -4.19824 0
M  V30 1010 H 100.533 -1.99693 -2.23076 0
M  V30 1011 H 98.0787 -0.96152 -1.07195 0
M  V30 1012 H 100.032 -0.534345 -4.17998 0
M  V30 1013 H 98.7557 0.293073 -3.25282 0
M  V30 1014 H 97.4147 -1.83791 -3.17201 0
M  V30 1015 H 97.0627 -0.196847 -5.02615 0
M  V30 1016 H 96.7627 -1.86592 -5.57187 0
M  V30 1017 H 98.2867 -1.04593 -6.01575 0
M  V30 1018 H 99.7007 -3.01192 -4.87808 0
M  V30 1019 H 98.0977 -3.77406 -4.66567 0
M  V30 1020 H 99.1677 -3.58524 -3.26479 0
M  V30 1021 N 100.511 1.16574 -1.06058 0
M  V30 1022 C 101.741 1.90675 -0.795397 0
M  V30 1023 C 102.149 1.77547 0.653735 0
M  V30 1024 O 101.492 1.11611 1.45907 0
M  V30 1025 C 101.554 3.42011 -1.10764 0
M  V30 1026 C 101.218 3.78924 -2.55471 0
M  V30 1027 C 102.215 3.81042 -3.53699 0
M  V30 1028 C 99.8998 4.09626 -2.90708 0
M  V30 1029 C 101.894 4.13346 -4.85205 0
M  V30 1030 C 99.5808 4.41597 -4.22416 0
M  V30 1031 C 100.579 4.43436 -5.19474 0
M  V30 1032 O 100.267 4.74649 -6.48817 0
M  V30 1033 H 99.9988 0.611554 -0.288058 0
M  V30 1034 H 102.553 1.48711 -1.41683 0
M  V30 1035 H 100.783 3.84312 -0.429128 0
M  V30 1036 H 102.472 3.97384 -0.827077 0
M  V30 1037 H 103.238 3.57437 -3.27817 0
M  V30 1038 H 99.1168 4.07361 -2.15819 0
M  V30 1039 H 102.661 4.14696 -5.60957 0
M  V30 1040 H 98.5578 4.64667 -4.48056 0
M  V30 1041 H 99.3258 4.9247 -6.5377 0
M  V30 1042 N 101.989 0.842826 1.3317 0
M  V30 1043 C 103.217 0.454055 2.01856 0
M  V30 1044 C 103.632 -0.94587 1.63397 0
M  V30 1045 O 102.989 -1.61534 0.849302 0
M  V30 1046 C 103.04 0.569715 3.56982 0
M  V30 1047 O 102.761 1.91448 3.94055 0
M  V30 1048 C 104.262 0.178412 4.42941 0
M  V30 1049 H 101.482 0.17979 0.646465 0
M  V30 1050 H 104.026 1.1365 1.70012 0
M  V30 1051 H 102.181 -0.0648587 3.87346 0
M  V30 1052 H 102.595 1.90282 4.88767 0
M  V30 1053 H 104.069 0.310376 5.51127 0
M  V30 1054 H 104.546 -0.880056 4.30293 0
M  V30 1055 H 105.152 0.787579 4.17944 0
M  V30 1056 N 103.467 -1.45747 0.599634 0
M  V30 1057 C 104.43 -2.28917 -0.113835 0
M  V30 1058 C 105.43 -1.3933 -0.802729 0
M  V30 1059 O 106.62 -1.61534 -0.652103 0
M  V30 1060 C 103.752 -3.20152 -1.17114 0
M  V30 1061 H 104.945 -2.93478 0.617289 0
M  V30 1062 H 102.498 -1.52137 0.358327 0
M  V30 1063 H 103.233 -2.60374 -1.93329 0
M  V30 1064 H 103.018 -3.86133 -0.681468 0
M  V30 1065 H 104.508 -3.82708 -1.67105 0
M  V30 1066 N 104.945 -0.338344 -1.53925 0
M  V30 1067 C 106.361 0.0137736 -1.59594 0
M  V30 1068 C 106.561 1.49186 -1.35447 0
M  V30 1069 O 105.617 2.24987 -1.14616 0
M  V30 1070 C 106.93 -0.41773 -2.97784 0
M  V30 1071 C 108.478 -0.369633 -3.1081 0
M  V30 1072 C 108.953 -0.776524 -4.51369 0
M  V30 1073 N 110.444 -0.730506 -4.57403 0
M  V30 1074 C 111.179 -1.01736 -5.64303 0
M  V30 1075 N 110.675 -1.3721 -6.79077 0
M  V30 1076 N 112.468 -0.941942 -5.54151 0
M  V30 1077 H 104.619 -1.3012 -1.67876 0
M  V30 1078 H 106.882 -0.530082 -0.78595 0
M  V30 1079 H 106.588 -1.44811 -3.20504 0
M  V30 1080 H 106.462 0.209729 -3.76616 0
M  V30 1081 H 108.849 0.651568 -2.87817 0
M  V30 1082 H 108.93 -1.03223 -2.34049 0
M  V30 1083 H 108.574 -1.79571 -4.75096 0
M  V30 1084 H 108.504 -0.0914649 -5.26521 0
M  V30 1085 H 110.995 -0.468783 -3.74981 0
M  V30 1086 H 111.308 -1.57597 -7.5656 0
M  V30 1087 H 109.653 -1.4105 -6.80536 0
M  V30 1088 H 112.844 -0.664184 -4.63364 0
M  V30 1089 H 113.017 -1.16884 -6.37371 0
M  V30 1090 N 106.423 1.57458 -0.0668435 0
M  V30 1091 C 107.663 1.95175 0.607116 0
M  V30 1092 C 108.027 0.946039 1.67075 0
M  V30 1093 O 109.228 1.2107 2.39991 0
M  V30 1094 C 107.499 3.37582 1.17358 0
M  V30 1095 S 109.058 3.97271 1.86336 0
M  V30 1096 H 105.876 0.682604 0.19893 0
M  V30 1097 H 108.478 1.95002 -0.139519 0
M  V30 1098 H 107.182 4.08566 0.387553 0
M  V30 1099 H 106.713 3.41288 1.95669 0
M  V30 1100 H 108.728 3.83772 3.14537 0
M  V30 1101 N 107.901 -0.206675 1.56239 0
M  V30 1102 C 109.312 -0.772383 1.69974 0
M  V30 1103 C 109.663 -1.84353 0.671436 0
M  V30 1104 O 108.788 -2.15695 -0.174491 0
M  V30 1105 C 109.383 -1.40779 3.08167 0
M  V30 1106 C 107.942 -1.92072 3.23706 0
M  V30 1107 C 107.089 -0.786347 2.65917 0
M  V30 1108 H 110.04 0.0182223 1.5869 0
M  V30 1109 H 110.061 -2.27696 3.04852 0
M  V30 1110 H 109.573 -0.627958 3.82986 0
M  V30 1111 H 107.674 -2.7281 2.53782 0
M  V30 1112 H 107.787 -2.09046 4.31087 0
M  V30 1113 H 106.151 -1.1976 2.24788 0
M  V30 1114 H 106.934 -0.0189416 3.43295 0
M  V30 1115 N 109.379 -1.50304 -0.473955 0
M  V30 1116 C 110.289 -1.7174 -1.5982 0
M  V30 1117 C 111.305 -0.600457 -1.63311 0
M  V30 1118 O 112.481 -0.878441 -1.81233 0
M  V30 1119 C 109.546 -1.80427 -2.96052 0
M  V30 1120 C 108.607 -3.04148 -3.02972 0
M  V30 1121 C 107.84 -3.12411 -4.32706 0
M  V30 1122 O 108.063 -2.27542 -5.23049 0
M  V30 1123 O 106.997 -4.05113 -4.45159 0
M  V30 1124 H 110.823 -2.67035 -1.44657 0
M  V30 1125 H 108.408 -1.34366 -0.653148 0
M  V30 1126 H 110.29 -1.88338 -3.7697 0
M  V30 1127 H 108.965 -0.883156 -3.11419 0
M  V30 1128 H 107.872 -3.0174 -2.21142 0
M  V30 1129 H 109.205 -3.95829 -2.92541 0
M  V30 1130 N 110.857 0.726932 -1.39834 0
M  V30 1131 C 112.104 1.48664 -1.37496 0
M  V30 1132 C 112.432 1.94482 0.0264678 0
M  V30 1133 O 111.687 1.67692 1.00886 0
M  V30 1134 C 111.986 2.73495 -2.30077 0
M  V30 1135 C 111.652 2.46502 -3.77555 0
M  V30 1136 C 110.314 2.3885 -4.17737 0
M  V30 1137 C 112.666 2.23604 -4.70798 0
M  V30 1138 C 109.994 2.06352 -5.49214 0
M  V30 1139 C 112.346 1.92622 -6.02561 0
M  V30 1140 C 111.01 1.83444 -6.41798 0
M  V30 1141 H 110.28 0.544001 -0.503135 0
M  V30 1142 H 112.927 0.833657 -1.72402 0
M  V30 1143 H 111.232 3.43575 -1.88317 0
M  V30 1144 H 112.929 3.31549 -2.25558 0
M  V30 1145 H 109.519 2.5334 -3.45712 0
M  V30 1146 H 113.703 2.28479 -4.40581 0
M  V30 1147 H 108.959 1.97776 -5.78528 0
M  V30 1148 H 113.133 1.73914 -6.74334 0
M  V30 1149 H 110.76 1.58029 -7.43593 0
M  V30 1150 N 112.336 1.25143 0.95797 0
M  V30 1151 C 113.283 1.05235 2.05412 0
M  V30 1152 C 114.253 -0.0374561 1.66058 0
M  V30 1153 O 115.438 0.119073 1.90428 0
M  V30 1154 C 112.578 0.673589 3.38462 0
M  V30 1155 C 111.691 1.8379 3.90954 0
M  V30 1156 C 110.826 1.40381 5.12315 0
M  V30 1157 C 109.865 2.53746 5.57027 0
M  V30 1158 N 109.002 2.11136 6.69601 0
M  V30 1159 H 113.842 1.99048 2.21774 0
M  V30 1160 H 111.379 0.991277 1.08683 0
M  V30 1161 H 113.337 0.434964 4.14926 0
M  V30 1162 H 111.967 -0.227554 3.21997 0
M  V30 1163 H 111.019 2.18992 3.11041 0
M  V30 1164 H 112.331 2.68937 4.20089 0
M  V30 1165 H 111.485 1.12464 5.96185 0
M  V30 1166 H 110.224 0.523015 4.84887 0
M  V30 1167 H 109.229 2.82412 4.71724 0
M  V30 1168 H 110.454 3.42398 5.86464 0
M  V30 1169 H 108.4 1.25468 6.4389 0
M  V30 1170 H 108.317 2.89832 6.98236 0
M  V30 1171 H 109.585 1.86385 7.56889 0
M  V30 1172 N 113.814 -1.1601 1.06675 0
M  V30 1173 C 115.042 -1.90527 0.806667 0
M  V30 1174 C 115.457 -1.77643 -0.639396 0
M  V30 1175 O 114.814 -1.12369 -1.43803 0
M  V30 1176 C 114.865 -3.41106 1.19705 0
M  V30 1177 O 114.586 -3.53608 2.58636 0
M  V30 1178 C 116.087 -4.32663 0.965266 0
M  V30 1179 H 113.307 -0.604053 0.292166 0
M  V30 1180 H 115.851 -1.47026 1.4214 0
M  V30 1181 H 114.006 -3.82296 0.626774 0
M  V30 1182 H 114.42 -4.47011 2.74375 0
M  V30 1183 H 115.894 -5.36763 1.288 0
M  V30 1184 H 116.371 -4.39089 -0.0987936 0
M  V30 1185 H 116.977 -3.97206 1.52011 0
M  V30 1186 N 115.292 -0.849877 -1.32721 0
M  V30 1187 C 116.202 -0.293791 -2.32753 0
M  V30 1188 C 117.218 0.585906 -1.63839 0
M  V30 1189 O 118.394 0.487413 -1.95413 0
M  V30 1190 C 115.459 0.512752 -3.42887 0
M  V30 1191 C 114.52 -0.39252 -4.27502 0
M  V30 1192 C 113.753 0.375625 -5.32377 0
M  V30 1193 O 113.976 1.60613 -5.4732 0
M  V30 1194 O 112.91 -0.256094 -6.01355 0
M  V30 1195 H 116.736 -1.12242 -2.82197 0
M  V30 1196 H 114.321 -0.612685 -1.36259 0
M  V30 1197 H 116.203 0.970704 -4.10067 0
M  V30 1198 H 114.878 1.31826 -2.95641 0
M  V30 1199 H 113.785 -0.898547 -3.63149 0
M  V30 1200 H 115.118 -1.16309 -4.7826 0
M  V30 1201 N 116.77 1.45427 -0.607355 0
M  V30 1202 C 117.68 2.34325 0.113463 0
M  V30 1203 C 118.696 1.51226 0.860617 0
M  V30 1204 O 119.872 1.84029 0.818255 0
M  V30 1205 C 116.937 3.28839 1.09844 0
M  V30 1206 C 115.998 4.27844 0.353271 0
M  V30 1207 C 115.231 5.17842 1.29133 0
M  V30 1208 O 115.454 5.11264 2.52913 0
M  V30 1209 O 114.388 5.96713 0.788523 0
M  V30 1210 H 118.214 2.97364 -0.617094 0
M  V30 1211 H 115.799 1.44807 -0.367619 0
M  V30 1212 H 117.681 3.8708 1.66575 0
M  V30 1213 H 116.356 2.68365 1.81003 0
M  V30 1214 H 115.263 3.7322 -0.256494 0
M  V30 1215 H 116.596 4.91173 -0.317822 0
M  V30 1216 N 118.248 0.346503 1.53744 0
M  V30 1217 C 119.496 -0.248612 2.00565 0
M  V30 1218 C 119.817 -1.5083 1.23593 0
M  V30 1219 O 119.087 -1.92858 0.343912 0
M  V30 1220 H 117.667 -0.0948564 0.740953 0
M  V30 1221 H 120.329 0.468341 1.89189 0
M  V30 1222 H 119.425 -0.488994 3.08245 0
M  V30 1223 N 119.726 -1.57421 0.075193 0
M  V30 1224 C 120.658 -2.09904 -0.920483 0
M  V30 1225 C 121.671 -1.03191 -1.25918 0
M  V30 1226 O 122.86 -1.30695 -1.21577 0
M  V30 1227 C 119.96 -2.54726 -2.23534 0
M  V30 1228 C 119.133 -3.8505 -2.07498 0
M  V30 1229 C 118.192 -4.15929 -3.22319 0
M  V30 1230 O 117.218 -4.85474 -2.9716 0
M  V30 1231 N 118.42 -3.69745 -4.47514 0
M  V30 1232 H 121.185 -2.95954 -0.472359 0
M  V30 1233 H 118.746 -1.61523 -0.110444 0
M  V30 1234 H 120.738 -2.72443 -2.9926 0
M  V30 1235 H 119.308 -1.73795 -2.59835 0
M  V30 1236 H 118.528 -3.76679 -1.16219 0
M  V30 1237 H 119.816 -4.70348 -1.94038 0
M  V30 1238 H 119.214 -3.13569 -4.7084 0
M  V30 1239 H 117.771 -3.92655 -5.20255 0
M  V30 1240 N 121.204 0.198386 -1.56346 0
M  V30 1241 C 122.151 1.24589 -1.94284 0
M  V30 1242 C 123.121 1.454 -0.802997 0
M  V30 1243 O 124.306 1.58588 -1.06087 0
M  V30 1244 C 121.446 2.58631 -2.28482 0
M  V30 1245 C 120.559 2.45426 -3.55514 0
M  V30 1246 C 119.694 3.7215 -3.79049 0
M  V30 1247 C 118.733 3.53763 -4.99518 0
M  V30 1248 N 117.87 4.72491 -5.19323 0
M  V30 1249 H 122.71 0.915356 -2.83593 0
M  V30 1250 H 120.247 0.440629 -1.40346 0
M  V30 1251 H 122.205 3.3672 -2.46324 0
M  V30 1252 H 120.835 2.89734 -1.42317 0
M  V30 1253 H 119.887 1.58652 -3.45737 0
M  V30 1254 H 121.199 2.27772 -4.43758 0
M  V30 1255 H 120.353 4.58679 -3.97113 0
M  V30 1256 H 119.092 3.92754 -2.89129 0
M  V30 1257 H 118.097 2.65619 -4.8138 0
M  V30 1258 H 119.322 3.34607 -5.90944 0
M  V30 1259 H 117.268 4.93365 -4.3235 0
M  V30 1260 H 117.185 4.5765 -6.01741 0
M  V30 1261 H 118.453 5.6038 -5.41843 0
M  V30 1262 N 122.682 1.50554 0.465978 0
M  V30 1263 C 123.629 1.6979 1.56333 0
M  V30 1264 C 124.599 0.539239 1.57103 0
M  V30 1265 O 125.784 0.770401 1.74555 0
M  V30 1266 C 122.924 1.80273 2.94271 0
M  V30 1267 C 122.037 3.07674 3.0325 0
M  V30 1268 C 121.172 3.08922 4.32135 0
M  V30 1269 C 120.211 4.30755 4.34875 0
M  V30 1270 N 119.348 4.29714 5.55239 0
M  V30 1271 H 124.188 2.63472 1.39235 0
M  V30 1272 H 121.725 1.30602 0.676873 0
M  V30 1273 H 123.683 1.84332 3.74269 0
M  V30 1274 H 122.313 0.900258 3.09992 0
M  V30 1275 H 121.365 3.13062 2.16094 0
M  V30 1276 H 122.677 3.97642 3.01135 0
M  V30 1277 H 121.831 3.11738 5.20485 0
M  V30 1278 H 120.57 2.16792 4.36866 0
M  V30 1279 H 119.575 4.28146 3.44922 0
M  V30 1280 H 120.8 5.24117 4.31831 0
M  V30 1281 H 118.746 3.4044 5.60746 0
M  V30 1282 H 118.663 5.13456 5.54886 0
M  V30 1283 H 119.931 4.36683 6.457 0
M  V30 1284 N 124.16 -0.719506 1.40217 0
M  V30 1285 C 125.408 -1.47641 1.3801 0
M  V30 1286 C 125.729 -1.94992 -0.018145 0
M  V30 1287 O 124.999 -1.70073 -0.972207 0
M  V30 1288 H 123.579 -0.547744 0.507923 0
M  V30 1289 H 126.241 -0.853187 1.75233 0
M  V30 1290 H 125.337 -2.35112 2.05253 0
M  V30 1291 N 125.638 -1.25649 -0.95132 0
M  V30 1292 C 126.887 -1.09988 -1.69073 0
M  V30 1293 C 127.2 0.358355 -1.92289 0
M  V30 1294 O 128.406 0.635466 -2.63958 0
M  V30 1295 C 126.862 -1.92012 -3.044 0
M  V30 1296 C 126.47 -3.42347 -2.88968 0
M  V30 1297 C 128.214 -1.8493 -3.82101 0
M  V30 1298 C 126.121 -4.16655 -4.19705 0
M  V30 1299 H 125.051 -0.407993 -0.63408 0
M  V30 1300 H 127.702 -1.49873 -1.05879 0
M  V30 1301 H 126.084 -1.44952 -3.68517 0
M  V30 1302 H 127.258 -3.97104 -2.33762 0
M  V30 1303 H 125.573 -3.50557 -2.24719 0
M  V30 1304 H 128.17 -2.37739 -4.78941 0
M  V30 1305 H 128.513 -0.817883 -4.08187 0
M  V30 1306 H 129.046 -2.29758 -3.2474 0
M  V30 1307 H 125.785 -5.20224 -3.98807 0
M  V30 1308 H 125.305 -3.66681 -4.74663 0
M  V30 1309 H 126.984 -4.24551 -4.88227 0
M  V30 1310 N 127.117 1.15442 -1.07289 0
M  V30 1311 C 128.027 2.23786 -0.704057 0
M  V30 1312 C 129.043 1.7166 0.284413 0
M  V30 1313 O 130.219 2.00972 0.131205 0
M  V30 1314 C 127.284 3.46535 -0.106792 0
M  V30 1315 C 126.345 4.13654 -1.14842 0
M  V30 1316 C 125.578 5.30544 -0.57956 0
M  V30 1317 O 125.801 5.67187 0.604585 0
M  V30 1318 O 124.735 5.87154 -1.32414 0
M  V30 1319 H 128.561 2.57664 -1.60757 0
M  V30 1320 H 126.146 1.23152 -0.845803 0
M  V30 1321 H 128.028 4.20804 0.224048 0
M  V30 1322 H 126.703 3.14407 0.770049 0
M  V30 1323 H 125.61 3.4131 -1.5316 0
M  V30 1324 H 126.943 4.49861 -1.99714 0
M  V30 1325 N 128.595 0.856903 1.32268 0
M  V30 1326 C 129.527 0.260412 2.27716 0
M  V30 1327 C 130.54 -0.569137 1.52528 0
M  V30 1328 O 131.729 -0.39326 1.74114 0
M  V30 1329 C 128.829 -0.650477 3.32599 0
M  V30 1330 C 128.002 0.14372 4.37164 0
M  V30 1331 C 127.061 -0.69328 5.21613 0
M  V30 1332 O 126.087 -0.12599 5.69061 0
M  V30 1333 N 127.289 -2.00761 5.44679 0
M  V30 1334 H 130.054 1.08059 2.79541 0
M  V30 1335 H 127.615 0.717103 1.45152 0
M  V30 1336 H 129.607 -1.21581 3.86005 0
M  V30 1337 H 128.177 -1.37133 2.80915 0
M  V30 1338 H 127.397 0.890486 3.8401 0
M  V30 1339 H 128.685 0.68915 5.04111 0
M  V30 1340 H 128.083 -2.49181 5.07863 0
M  V30 1341 H 126.64 -2.52103 6.01072 0
M  V30 1342 N 130.073 -1.45103 0.615059 0
M  V30 1343 C 131.003 -2.33339 -0.0865619 0
M  V30 1344 C 131.984 -1.4727 -0.851209 0
M  V30 1345 O 133.169 -1.76026 -0.820281 0
M  V30 1346 C 130.299 -3.30095 -1.07956 0
M  V30 1347 C 129.253 -4.25858 -0.427628 0
M  V30 1348 C 128.579 -5.12361 -1.5294 0
M  V30 1349 C 129.879 -5.18165 0.655944 0
M  V30 1350 H 131.573 -2.92254 0.650224 0
M  V30 1351 H 129.119 -1.40532 0.314138 0
M  V30 1352 H 131.072 -3.90698 -1.57901 0
M  V30 1353 H 129.796 -2.69355 -1.84703 0
M  V30 1354 H 128.455 -3.66564 0.0510292 0
M  V30 1355 H 128.103 -4.47984 -2.28734 0
M  V30 1356 H 127.803 -5.77238 -1.09865 0
M  V30 1357 H 129.327 -5.75833 -2.03098 0
M  V30 1358 H 130.741 -5.72796 0.240257 0
M  V30 1359 H 129.138 -5.91559 1.00888 0
M  V30 1360 H 130.208 -4.60144 1.52957 0
M  V30 1361 N 131.551 -0.354651 -1.53558 0
M  V30 1362 C 132.498 0.496968 -2.25386 0
M  V30 1363 C 133.468 1.0865 -1.25636 0
M  V30 1364 O 134.653 1.12104 -1.54394 0
M  V30 1365 C 131.793 1.63637 -3.03837 0
M  V30 1366 C 130.906 1.07307 -4.18461 0
M  V30 1367 C 130.041 2.18068 -4.84376 0
M  V30 1368 C 129.08 1.59147 -5.91049 0
M  V30 1369 N 128.217 2.63695 -6.50699 0
M  V30 1370 H 133.057 -0.122075 -2.9775 0
M  V30 1371 H 130.594 -0.0720154 -1.46924 0
M  V30 1372 H 132.552 2.30734 -3.47589 0
M  V30 1373 H 131.182 2.22623 -2.33749 0
M  V30 1374 H 130.234 0.292708 -3.79272 0
M  V30 1375 H 131.546 0.602193 -4.95152 0
M  V30 1376 H 130.7 2.93007 -5.31255 0
M  V30 1377 H 129.439 2.68504 -4.07133 0
M  V30 1378 H 128.444 0.827175 -5.43542 0
M  V30 1379 H 129.669 1.09549 -6.70206 0
M  V30 1380 H 127.615 3.13365 -5.76315 0
M  V30 1381 H 127.532 2.21263 -7.22896 0
M  V30 1382 H 128.8 3.3837 -7.02229 0
M  V30 1383 N 133.029 1.57378 -0.0835403 0
M  V30 1384 C 133.976 2.13384 0.879539 0
M  V30 1385 C 134.946 1.04936 1.28754 0
M  V30 1386 O 136.131 1.32662 1.37133 0
M  V30 1387 C 133.271 2.70932 2.13752 0
M  V30 1388 C 132.384 3.93575 1.7811 0
M  V30 1389 C 131.519 4.39326 2.98607 0
M  V30 1390 C 130.558 5.54587 2.59037 0
M  V30 1391 N 129.695 5.95243 3.72331 0
M  V30 1392 H 134.535 2.9537 0.395076 0
M  V30 1393 H 132.072 1.45953 0.183349 0
M  V30 1394 H 134.03 3.02411 2.87408 0
M  V30 1395 H 132.66 1.91693 2.59718 0
M  V30 1396 H 131.712 3.68483 0.94469 0
M  V30 1397 H 133.024 4.77258 1.45005 0
M  V30 1398 H 132.178 4.72528 3.80529 0
M  V30 1399 H 130.917 3.5452 3.34913 0
M  V30 1400 H 129.922 5.21024 1.75539 0
M  V30 1401 H 131.147 6.41133 2.23887 0
M  V30 1402 H 129.093 5.13385 4.08378 0
M  V30 1403 H 129.01 6.73694 3.43034 0
M  V30 1404 H 130.278 6.33072 4.54797 0
M  V30 1405 N 134.507 -0.190092 1.56449 0
M  V30 1406 C 135.457 -1.23977 1.91347 0
M  V30 1407 C 136.441 -1.40747 0.779693 0
M  V30 1408 O 137.633 -1.43033 1.04262 0
M  V30 1409 C 134.762 -2.58347 2.26079 0
M  V30 1410 C 133.848 -2.4535 3.45925 0
M  V30 1411 N 134.239 -2.02039 4.63696 0
M  V30 1412 C 132.537 -2.76229 3.50162 0
M  V30 1413 C 133.238 -2.01053 5.4585 0
M  V30 1414 N 132.214 -2.42747 4.8639 0
M  V30 1415 H 136.016 -0.896318 2.79899 0
M  V30 1416 H 133.53 -0.398496 1.57435 0
M  V30 1417 H 135.527 -3.34173 2.49267 0
M  V30 1418 H 134.187 -2.93512 1.38856 0
M  V30 1419 H 135.198 -1.7267 4.88268 0
M  V30 1420 H 131.875 -3.15556 2.73369 0
M  V30 1421 H 133.265 -1.69426 6.50188 0
M  V30 1422 N 135.985 -1.50799 -0.457987 0
M  V30 1423 C 137.233 -1.62121 -1.2067 0
M  V30 1424 C 137.554 -0.329793 -1.92191 0
M  V30 1425 O 136.824 0.653409 -1.84682 0
M  V30 1426 H 135.404 -0.597441 -0.448411 0
M  V30 1427 H 138.066 -1.87637 -0.527096 0
M  V30 1428 H 137.162 -2.43882 -1.94751 0
M  V30 1429 N 137.463 0.71206 -1.40597 0
M  V30 1430 C 138.712 1.46754 -1.38369 0
M  V30 1431 C 139.025 1.95598 0.0097839 0
M  V30 1432 O 140.231 2.71059 0.154677 0
M  V30 1433 C 138.687 2.65289 -2.43207 0
M  V30 1434 C 138.295 2.23301 -3.88382 0
M  V30 1435 C 140.039 3.43008 -2.50091 0
M  V30 1436 C 137.946 3.38696 -4.84808 0
M  V30 1437 H 136.876 0.55118 -0.514506 0
M  V30 1438 H 139.527 0.774616 -1.66349 0
M  V30 1439 H 137.909 3.36769 -2.08332 0
M  V30 1440 H 139.083 1.59218 -4.32419 0
M  V30 1441 H 137.398 1.58618 -3.85006 0
M  V30 1442 H 139.995 4.28881 -3.1932 0
M  V30 1443 H 140.338 3.87065 -1.53253 0
M  V30 1444 H 140.871 2.78574 -2.83974 0
M  V30 1445 H 137.61 2.99668 -5.82992 0
M  V30 1446 H 137.13 4.01683 -4.45433 0
M  V30 1447 H 138.809 4.04712 -5.04794 0
M  V30 1448 N 138.941 1.26152 0.944643 0
M  V30 1449 C 139.851 1.09176 2.07648 0
M  V30 1450 C 140.867 0.0261935 1.7398 0
M  V30 1451 O 142.043 0.229208 2.00091 0
M  V30 1452 C 139.108 0.722915 3.39079 0
M  V30 1453 C 138.169 1.86752 3.86552 0
M  V30 1454 C 137.402 1.51617 5.11711 0
M  V30 1455 O 137.625 0.416331 5.68879 0
M  V30 1456 O 136.559 2.34975 5.54139 0
M  V30 1457 H 140.385 2.0412 2.24875 0
M  V30 1458 H 137.97 1.05182 1.061 0
M  V30 1459 H 139.852 0.529787 4.18056 0
M  V30 1460 H 138.527 -0.197159 3.23099 0
M  V30 1461 H 137.434 2.11558 3.08535 0
M  V30 1462 H 138.767 2.76719 4.07047 0
M  V30 1463 N 140.419 -1.14872 1.07899 0
M  V30 1464 C 141.667 -1.85422 0.803941 0
M  V30 1465 C 141.988 -1.83051 -0.67211 0
M  V30 1466 O 141.258 -1.27532 -1.48703 0
M  V30 1467 H 139.838 -0.686537 0.294408 0
M  V30 1468 H 142.5 -1.39226 1.3639 0
M  V30 1469 H 141.596 -2.90399 1.14346 0
M  V30 1470 N 141.898 -0.863906 -1.31812 0
M  V30 1471 C 142.828 -0.330843 -2.31144 0
M  V30 1472 C 143.809 0.575005 -1.60087 0
M  V30 1473 O 144.994 0.493304 -1.8783 0
M  V30 1474 C 142.124 0.47374 -3.44054 0
M  V30 1475 C 141.078 -0.338481 -4.26659 0
M  V30 1476 C 140.404 0.591412 -5.31419 0
M  V30 1477 C 141.704 -1.56926 -4.98168 0
M  V30 1478 H 143.398 -1.16086 -2.75979 0
M  V30 1479 H 140.944 -0.559657 -1.32679 0
M  V30 1480 H 142.897 0.857143 -4.12591 0
M  V30 1481 H 141.621 1.33721 -2.9797 0
M  V30 1482 H 140.28 -0.703754 -3.59782 0
M  V30 1483 H 139.928 1.45199 -4.81587 0
M  V30 1484 H 139.628 0.0519022 -5.87577 0
M  V30 1485 H 141.152 0.97179 -6.02817 0
M  V30 1486 H 142.566 -1.25764 -5.59336 0
M  V30 1487 H 140.963 -2.04739 -5.64094 0
M  V30 1488 H 142.033 -2.32544 -4.25501 0
M  V30 1489 N 143.376 1.44774 -0.622745 0
M  V30 1490 C 144.622 2.0242 -0.124083 0
M  V30 1491 C 144.955 1.4881 1.24777 0
M  V30 1492 O 144.23 0.668799 1.8264 0
M  V30 1493 C 144.513 3.59957 -0.101619 0
M  V30 1494 C 144.366 4.23867 -1.50521 0
M  V30 1495 C 145.685 4.36284 0.578272 0
M  V30 1496 H 142.804 0.735528 -0.0465645 0
M  V30 1497 H 145.446 1.72447 -0.797617 0
M  V30 1498 H 143.596 3.85623 0.471934 0
M  V30 1499 H 145.268 4.09336 -2.12701 0
M  V30 1500 H 143.511 3.81684 -2.06154 0
M  V30 1501 H 144.182 5.32843 -1.4416 0
M  V30 1502 H 146.658 4.16001 0.0906057 0
M  V30 1503 H 145.534 5.46004 0.563149 0
M  V30 1504 H 145.795 4.10271 1.64713 0
M  V30 1505 N 144.854 0.36279 1.53368 0
M  V30 1506 C 146.1 -0.228113 2.01513 0
M  V30 1507 C 146.433 -1.48648 1.2497 0
M  V30 1508 O 145.708 -1.91459 0.342616 0
M  V30 1509 C 145.991 -0.522884 3.56284 0
M  V30 1510 C 145.844 0.74892 4.43521 0
M  V30 1511 C 147.163 -1.32461 4.19693 0
M  V30 1512 H 144.282 -0.0814343 0.732487 0
M  V30 1513 H 146.924 0.48713 1.83649 0
M  V30 1514 H 145.074 -1.1322 3.71636 0
M  V30 1515 H 146.746 1.38648 4.39971 0
M  V30 1516 H 144.989 1.36986 4.11603 0
M  V30 1517 H 145.66 0.497667 5.49752 0
M  V30 1518 H 148.136 -0.809203 4.08156 0
M  V30 1519 H 147.012 -1.49961 5.28018 0
M  V30 1520 H 147.273 -2.33232 3.75573 0
M  V30 1521 N 146.332 -1.57332 0.0918853 0
M  V30 1522 C 147.581 -1.93412 -0.572249 0
M  V30 1523 C 147.894 -0.975515 -1.69538 0
M  V30 1524 O 149.1 -1.22991 -2.42045 0
M  V30 1525 C 147.556 -3.43648 -1.0693 0
M  V30 1526 C 147.164 -4.47994 0.0239049 0
M  V30 1527 C 148.908 -3.88695 -1.70635 0
M  V30 1528 C 146.815 -5.89381 -0.488319 0
M  V30 1529 H 145.745 -0.721939 -0.217532 0
M  V30 1530 H 148.396 -1.82735 0.167369 0
M  V30 1531 H 146.778 -3.49466 -1.8625 0
M  V30 1532 H 147.952 -4.53815 0.799277 0
M  V30 1533 H 146.267 -4.12536 0.565946 0
M  V30 1534 H 148.864 -4.91725 -2.10025 0
M  V30 1535 H 149.207 -3.27166 -2.57426 0
M  V30 1536 H 149.74 -3.85564 -0.979023 0
M  V30 1537 H 146.479 -6.54602 0.342906 0
M  V30 1538 H 145.999 -5.87037 -1.23077 0
M  V30 1539 H 147.678 -6.39863 -0.958317 0
M  V30 1540 N 147.81 0.181792 -1.56548 0
M  V30 1541 C 149.058 0.89832 -1.81038 0
M  V30 1542 C 149.379 1.83232 -0.667164 0
M  V30 1543 O 148.649 1.93372 0.313673 0
M  V30 1544 H 147.229 0.33471 -0.667816 0
M  V30 1545 H 149.891 0.184116 -1.94028 0
M  V30 1546 H 148.987 1.4815 -2.74696 0
M  V30 1547 N 149.288 1.51039 0.449983 0
M  V30 1548 C 150.536 1.62759 1.19808 0
M  V30 1549 C 150.857 0.339981 1.92013 0
M  V30 1550 O 150.127 -0.643606 1.85026 0
M  V30 1551 H 148.707 0.599811 0.445237 0
M  V30 1552 H 151.369 1.87914 0.517138 0
M  V30 1553 H 150.465 2.44911 1.93455 0
M  V30 1554 N 150.766 -0.704594 1.40972 0
M  V30 1555 C 152.043 -1.45847 1.30338 0
M  V30 1556 C 152.423 -2.10973 -0.0732344 0
M  V30 1557 O 151.771 -2.00997 -1.08685 0
M  V30 1558 C 151.981 -2.48525 2.45023 0
M  V30 1559 C 153.329 -3.1404 2.8577 0
M  V30 1560 O 154.353 -2.58848 2.44696 0
M  V30 1561 O 153.212 -4.13981 3.56766 0
M  V30 1562 H 150.306 -0.649092 0.512454 0
M  V30 1563 H 152.852 -0.735836 1.52917 0
M  V30 1564 H 151.624 -1.98994 3.36923 0
M  V30 1565 H 151.247 -3.2831 2.24272 0
M  V30 1566 N 152.244 -1.26651 -0.937939 0
M  V30 1567 C 153.492 -1.12165 -1.68118 0
M  V30 1568 C 153.813 0.334983 -1.92101 0
M  V30 1569 O 153.083 1.23583 -1.52 0
M  V30 1570 H 151.663 -0.412093 -0.623048 0
M  V30 1571 H 154.325 -1.59027 -1.12678 0
M  V30 1572 H 153.421 -1.64289 -2.6536 0
M  V30 1573 N 153.722 1.14298 -1.08507 0
M  V30 1574 C 154.947 1.8976 -0.837001 0
M  V30 1575 C 155.372 1.78097 0.605228 0
M  V30 1576 O 154.73 1.12188 1.4242 0
M  V30 1577 C 154.778 3.37685 -1.26495 0
M  V30 1578 O 153.882 4.10281 -0.417514 0
M  V30 1579 H 153.223 0.590365 -0.303917 0
M  V30 1580 H 155.753 1.44672 -1.44676 0
M  V30 1581 H 155.763 3.88501 -1.24625 0
M  V30 1582 H 154.438 3.45492 -2.31534 0
M  V30 1583 H 153.015 3.69536 -0.499722 0
M  V30 1584 N 155.201 0.870884 1.31352 0
M  V30 1585 C 156.431 0.496049 2.00557 0
M  V30 1586 C 156.839 -0.916241 1.65534 0
M  V30 1587 O 156.182 -1.61188 0.881134 0
M  V30 1588 C 156.244 0.574418 3.54881 0
M  V30 1589 C 155.908 1.94849 4.1338 0
M  V30 1590 C 156.905 2.91611 4.30417 0
M  V30 1591 C 154.59 2.25005 4.49086 0
M  V30 1592 C 156.584 4.16672 4.82352 0
M  V30 1593 C 154.271 3.50315 5.00722 0
M  V30 1594 C 155.269 4.45964 5.17306 0
M  V30 1595 O 154.957 5.69052 5.67833 0
M  V30 1596 H 154.689 0.191664 0.64826 0
M  V30 1597 H 157.243 1.17409 1.68536 0
M  V30 1598 H 155.473 -0.160549 3.86367 0
M  V30 1599 H 157.162 0.212879 4.05341 0
M  V30 1600 H 157.928 2.69622 4.03149 0
M  V30 1601 H 153.807 1.51332 4.35453 0
M  V30 1602 H 157.351 4.91336 4.95211 0
M  V30 1603 H 153.248 3.72147 5.27424 0
M  V30 1604 H 154.016 5.71236 5.86201 0
M  V30 1605 N 156.679 -1.44442 0.630414 0
M  V30 1606 C 157.611 -2.2892 -0.113347 0
M  V30 1607 C 158.624 -1.41243 -0.80959 0
M  V30 1608 O 159.813 -1.65402 -0.671156 0
M  V30 1609 C 156.913 -3.17594 -1.18266 0
M  V30 1610 C 156.086 -4.33682 -0.569073 0
M  V30 1611 C 155.145 -5.03397 -1.53226 0
M  V30 1612 O 154.171 -5.59438 -1.04967 0
M  V30 1613 N 155.373 -5.04783 -2.86661 0
M  V30 1614 H 158.138 -2.93392 0.611636 0
M  V30 1615 H 155.699 -1.54881 0.471523 0
M  V30 1616 H 157.691 -3.61097 -1.82732 0
M  V30 1617 H 156.261 -2.54876 -1.80988 0
M  V30 1618 H 155.481 -3.9338 0.254187 0
M  V30 1619 H 156.769 -5.08608 -0.139767 0
M  V30 1620 H 156.167 -4.60584 -3.28449 0
M  V30 1621 H 154.724 -5.52077 -3.46489 0
M  V30 1622 N 158.157 -0.370918 -1.53173 0
M  V30 1623 C 159.405 0.216673 -2.00935 0
M  V30 1624 C 159.726 1.48845 -1.25977 0
M  V30 1625 O 158.996 1.92286 -0.374551 0
M  V30 1626 H 157.576 0.0830565 -0.742368 0
M  V30 1627 H 160.238 -0.49838 -1.8842 0
M  V30 1628 H 159.334 0.439893 -3.08984 0
M  V30 1629 N 159.635 1.57281 -0.100228 0
M  V30 1630 C 160.598 2.13158 0.842398 0
M  V30 1631 C 161.598 1.06202 1.20738 0
M  V30 1632 O 162.788 1.32066 1.13597 0
M  V30 1633 C 159.92 2.65639 2.13655 0
M  V30 1634 H 161.113 2.97766 0.357114 0
M  V30 1635 H 158.666 1.5559 0.148823 0
M  V30 1636 H 159.401 1.84566 2.66657 0
M  V30 1637 H 159.186 3.43844 1.88451 0
M  V30 1638 H 160.676 3.08846 2.81077 0
M  V30 1639 N 161.113 -0.173488 1.56642 0
M  V30 1640 C 162.06 -1.21482 1.96242 0
M  V30 1641 C 163.03 -1.44104 0.826027 0
M  V30 1642 O 164.215 -1.5688 1.08597 0
M  V30 1643 C 161.355 -2.54964 2.32567 0
M  V30 1644 C 160.468 -2.39739 3.59373 0
M  V30 1645 C 159.603 -3.66072 3.84921 0
M  V30 1646 C 158.642 -3.45771 5.05083 0
M  V30 1647 N 157.779 -4.64169 5.26775 0
M  V30 1648 H 162.619 -0.870123 2.85014 0
M  V30 1649 H 160.156 -0.418245 1.41029 0
M  V30 1650 H 162.114 -3.32758 2.5165 0
M  V30 1651 H 160.744 -2.87433 1.46908 0
M  V30 1652 H 159.796 -1.53131 3.48217 0
M  V30 1653 H 161.108 -2.20683 4.47326 0
M  V30 1654 H 160.262 -4.52303 4.0436 0
M  V30 1655 H 159.001 -3.88105 2.9534 0
M  V30 1656 H 158.006 -2.57927 4.85545 0
M  V30 1657 H 159.231 -3.25163 5.96193 0
M  V30 1658 H 157.177 -4.86425 4.40144 0
M  V30 1659 H 157.094 -4.48019 6.08946 0
M  V30 1660 H 158.362 -5.51689 5.5069 0
M  V30 1661 N 162.591 -1.51276 -0.441967 0
M  V30 1662 C 163.538 -1.72256 -1.53612 0
M  V30 1663 C 164.508 -0.564164 -1.56225 0
M  V30 1664 O 165.693 -0.798074 -1.73307 0
M  V30 1665 C 162.833 -1.84932 -2.91366 0
M  V30 1666 C 161.946 -3.12459 -2.98317 0
M  V30 1667 C 161.081 -3.15758 -4.27166 0
M  V30 1668 C 160.12 -4.37619 -4.27967 0
M  V30 1669 N 159.257 -4.38493 -5.48333 0
M  V30 1670 H 164.097 -2.65654 -1.35026 0
M  V30 1671 H 161.634 -1.31662 -0.656009 0
M  V30 1672 H 163.592 -1.90263 -3.7129 0
M  V30 1673 H 162.222 -0.949461 -3.08521 0
M  V30 1674 H 161.274 -3.1646 -2.11086 0
M  V30 1675 H 162.586 -4.02382 -2.94771 0
M  V30 1676 H 161.74 -3.19979 -5.15459 0
M  V30 1677 H 160.479 -2.23715 -4.33362 0
M  V30 1678 H 159.484 -4.33579 -3.38067 0
M  V30 1679 H 160.709 -5.30921 -4.23438 0
M  V30 1680 H 158.655 -3.49318 -5.55259 0
M  V30 1681 H 158.572 -5.22219 -5.46647 0
M  V30 1682 H 159.84 -4.469 -6.38671 0
M  V30 1683 N 164.069 0.697108 -1.41344 0
M  V30 1684 C 164.999 1.82353 -1.45841 0
M  V30 1685 C 165.98 1.67115 -0.317247 0
M  V30 1686 O 167.165 1.86871 -0.528474 0
M  V30 1687 C 164.295 3.20476 -1.33838 0
M  V30 1688 C 163.249 3.50415 -2.4575 0
M  V30 1689 C 162.575 4.87878 -2.18813 0
M  V30 1690 C 163.875 3.49546 -3.88091 0
M  V30 1691 H 165.569 1.78846 -2.40113 0
M  V30 1692 H 163.115 0.859028 -1.15571 0
M  V30 1693 H 165.068 3.98988 -1.35596 0
M  V30 1694 H 163.792 3.24604 -0.360498 0
M  V30 1695 H 162.451 2.74253 -2.43271 0
M  V30 1696 H 162.099 4.8863 -1.19371 0
M  V30 1697 H 161.799 5.08875 -2.93803 0
M  V30 1698 H 163.323 5.68702 -2.22284 0
M  V30 1699 H 164.737 4.18066 -3.92293 0
M  V30 1700 H 163.134 3.82075 -4.62751 0
M  V30 1701 H 164.204 2.48552 -4.16353 0
M  V30 1702 N 165.547 1.27147 0.931209 0
M  V30 1703 C 166.775 1.16082 1.71267 0
M  V30 1704 C 167.19 -0.282772 1.8667 0
M  V30 1705 O 166.547 -1.19283 1.38122 0
M  V30 1706 C 166.598 1.8358 3.11417 0
M  V30 1707 O 166.319 3.22299 2.96741 0
M  V30 1708 C 167.82 1.78597 4.05732 0
M  V30 1709 H 165.04 0.403758 0.535929 0
M  V30 1710 H 167.584 1.67953 1.16671 0
M  V30 1711 H 165.739 1.35623 3.62885 0
M  V30 1712 H 166.153 3.55851 3.85319 0
M  V30 1713 H 167.627 2.30444 5.01597 0
M  V30 1714 H 168.104 0.754564 4.3267 0
M  V30 1715 H 168.71 2.26152 3.60188 0
M  V30 1716 N 167.025 -1.13721 1.09112 0
M  V30 1717 C 167.935 -2.22638 0.73957 0
M  V30 1718 C 168.951 -1.72091 -0.257068 0
M  V30 1719 O 170.127 -2.01155 -0.0992154 0
M  V30 1720 C 167.192 -3.46322 0.16191 0
M  V30 1721 C 166.253 -4.11775 1.21408 0
M  V30 1722 C 165.486 -5.29555 0.663891 0
M  V30 1723 O 165.709 -5.68077 -0.514274 0
M  V30 1724 O 164.643 -5.84973 1.41738 0
M  V30 1725 H 168.469 -2.55074 1.64836 0
M  V30 1726 H 166.054 -1.21791 0.865289 0
M  V30 1727 H 167.936 -4.21107 -0.157073 0
M  V30 1728 H 166.611 -3.15593 -0.719932 0
M  V30 1729 H 165.518 -3.3883 1.58571 0
M  V30 1730 H 166.851 -4.46627 2.06845 0
M  V30 1731 N 168.503 -0.877838 -1.30888 0
M  V30 1732 C 169.453 -0.310872 -2.25871 0
M  V30 1733 C 170.437 0.556596 -1.50966 0
M  V30 1734 O 171.629 0.402187 -1.7237 0
M  V30 1735 C 168.758 0.479821 -3.3993 0
M  V30 1736 C 167.844 -0.401333 -4.22197 0
M  V30 1737 N 168.235 -1.49848 -4.83093 0
M  V30 1738 C 166.533 -0.195167 -4.45573 0
M  V30 1739 C 167.234 -2.0425 -5.44662 0
M  V30 1740 N 166.21 -1.33843 -5.26865 0
M  V30 1741 H 170.012 -1.1493 -2.70496 0
M  V30 1742 H 167.526 -0.726458 -1.45246 0
M  V30 1743 H 169.523 0.902582 -4.07012 0
M  V30 1744 H 168.183 1.31577 -2.96846 0
M  V30 1745 H 169.194 -1.88137 -4.82519 0
M  V30 1746 H 165.871 0.604192 -4.13105 0
M  V30 1747 H 167.261 -2.96345 -6.03017 0
M  V30 1748 N 169.982 1.44106 -0.638065 0
M  V30 1749 C 171.23 2.01579 -0.145043 0
M  V30 1750 C 171.551 1.50496 1.24 0
M  V30 1751 O 170.821 0.711374 1.82527 0
M  V30 1752 H 169.401 0.745282 -0.05063 0
M  V30 1753 H 172.063 1.76516 -0.826327 0
M  V30 1754 H 171.159 3.11877 -0.118039 0
M  V30 1755 N 171.46 0.379036 1.52974 0
M  V30 1756 C 172.707 -0.206421 2.01445 0
M  V30 1757 C 173.035 -1.47668 1.26587 0
M  V30 1758 O 172.29 -1.92514 0.351675 0
M  V30 1759 C 172.589 -0.53096 3.53434 0
M  V30 1760 C 172.255 0.646546 4.46241 0
M  V30 1761 C 170.917 0.969604 4.7133 0
M  V30 1762 C 173.269 1.43479 5.01062 0
M  V30 1763 C 170.597 2.08263 5.48492 0
M  V30 1764 C 172.949 2.53834 5.7944 0
M  V30 1765 C 171.613 2.86659 6.02812 0
M  V30 1766 H 170.883 -0.0755349 0.73714 0
M  V30 1767 H 173.53 0.514271 1.84465 0
M  V30 1768 H 171.835 -1.33285 3.68432 0
M  V30 1769 H 173.532 -0.996417 3.88423 0
M  V30 1770 H 170.122 0.384734 4.2687 0
M  V30 1771 H 174.306 1.19844 4.81613 0
M  V30 1772 H 169.562 2.34078 5.64816 0
M  V30 1773 H 173.736 3.15319 6.20924 0
M  V30 1774 H 171.363 3.73026 6.62387 0
M  V30 1775 N 172.938 -1.57226 0.108567 0
M  V30 1776 C 174.349 -1.8195 -0.418464 0
M  V30 1777 C 174.7 -1.02508 -1.67292 0
M  V30 1778 O 173.825 -0.258496 -2.14851 0
M  V30 1779 C 174.42 -3.30028 -0.765979 0
M  V30 1780 C 172.979 -3.55469 -1.23769 0
M  V30 1781 C 172.126 -2.7625 -0.241106 0
M  V30 1782 H 175.077 -1.55149 0.33384 0
M  V30 1783 H 175.098 -3.44086 -1.62434 0
M  V30 1784 H 174.61 -3.87821 0.147219 0
M  V30 1785 H 172.711 -3.03022 -2.16814 0
M  V30 1786 H 172.824 -4.6408 -1.19022 0
M  V30 1787 H 171.188 -2.44133 -0.72602 0
M  V30 1788 H 171.971 -3.36797 0.665007 0
M  V30 1789 N 174.416 0.165178 -1.56732 0
M  V30 1790 C 175.656 0.887231 -1.8414 0
M  V30 1791 C 176.02 1.79159 -0.690353 0
M  V30 1792 O 177.221 2.55172 -0.845032 0
M  V30 1793 C 175.492 1.65674 -3.16681 0
M  V30 1794 S 177.051 2.42671 -3.6559 0
M  V30 1795 H 173.869 0.297042 -0.645978 0
M  V30 1796 H 176.471 0.148439 -1.94936 0
M  V30 1797 H 175.175 0.983507 -3.98441 0
M  V30 1798 H 174.706 2.43679 -3.08843 0
M  V30 1799 H 176.721 3.67499 -3.33406 0
M  V30 1800 N 175.894 1.51508 0.433938 0
M  V30 1801 C 177.14 1.64588 1.18484 0
M  V30 1802 C 177.473 0.362666 1.90784 0
M  V30 1803 O 176.748 -0.637892 1.83742 0
M  V30 1804 C 177.031 2.85149 2.19913 0
M  V30 1805 C 176.884 4.23456 1.51674 0
M  V30 1806 C 178.203 3.01227 3.20858 0
M  V30 1807 H 175.322 0.598994 0.429389 0
M  V30 1808 H 177.964 1.84002 0.473647 0
M  V30 1809 H 176.114 2.68729 2.80566 0
M  V30 1810 H 177.786 4.51552 0.943322 0
M  V30 1811 H 176.029 4.25998 0.819035 0
M  V30 1812 H 176.7 5.03812 2.2556 0
M  V30 1813 H 179.176 3.16382 2.70263 0
M  V30 1814 H 178.052 3.87141 3.89118 0
M  V30 1815 H 178.313 2.13447 3.8716 0
M  V30 1816 N 177.372 -0.689602 1.41712 0
M  V30 1817 C 178.62 -1.4468 1.4111 0
M  V30 1818 C 178.941 -1.94986 0.0232196 0
M  V30 1819 O 178.211 -1.72097 -0.935913 0
M  V30 1820 H 176.791 -0.536847 0.519427 0
M  V30 1821 H 179.453 -0.815825 1.77004 0
M  V30 1822 H 178.549 -2.30706 2.10193 0
M  V30 1823 N 178.85 -1.27639 -0.924453 0
M  V30 1824 C 180.096 -1.14336 -1.67497 0
M  V30 1825 C 180.429 0.309465 -1.91718 0
M  V30 1826 O 179.704 1.22608 -1.50989 0
M  V30 1827 C 179.987 -1.93096 -3.0395 0
M  V30 1828 C 179.84 -3.46381 -2.8695 0
M  V30 1829 C 181.159 -1.73798 -4.0433 0
M  V30 1830 H 178.278 -0.416728 -0.607871 0
M  V30 1831 H 180.92 -1.56832 -1.07256 0
M  V30 1832 H 179.07 -1.56982 -3.55372 0
M  V30 1833 H 180.742 -3.92343 -2.42621 0
M  V30 1834 H 178.985 -3.72557 -2.22225 0
M  V30 1835 H 179.656 -3.96735 -3.83804 0
M  V30 1836 H 182.132 -2.05293 -3.61931 0
M  V30 1837 H 181.008 -2.31294 -4.97789 0
M  V30 1838 H 181.269 -0.686725 -4.36734 0
M  V30 1839 N 180.328 1.1314 -1.09713 0
M  V30 1840 C 181.739 1.66029 -0.853885 0
M  V30 1841 C 182.09 1.86241 0.617142 0
M  V30 1842 O 181.215 1.5834 1.47503 0
M  V30 1843 C 181.81 3.01599 -1.5435 0
M  V30 1844 C 180.369 3.51467 -1.34714 0
M  V30 1845 C 179.516 2.26648 -1.59769 0
M  V30 1846 H 182.467 0.970226 -1.25588 0
M  V30 1847 H 182.488 3.67709 -0.978267 0
M  V30 1848 H 182 2.86856 -2.6141 0
M  V30 1849 H 180.101 3.71408 -0.297838 0
M  V30 1850 H 180.214 4.314 -2.08401 0
M  V30 1851 H 178.578 2.33385 -1.01998 0
M  V30 1852 H 179.361 2.14467 -2.68065 0
M  V30 1853 N 181.806 0.884767 1.30421 0
M  V30 1854 C 183.054 0.502112 1.95763 0
M  V30 1855 C 183.375 -0.951815 1.70192 0
M  V30 1856 O 182.645 -1.6692 1.0254 0
M  V30 1857 H 181.225 0.182694 0.724315 0
M  V30 1858 H 183.887 1.1278 1.58955 0
M  V30 1859 H 182.983 0.672188 3.04775 0
M  V30 1860 N 183.284 -1.43765 0.645699 0
M  V30 1861 C 184.512 -2.06253 0.163556 0
M  V30 1862 C 184.927 -1.48352 -1.16778 0
M  V30 1863 O 184.284 -0.611932 -1.71935 0
M  V30 1864 C 184.335 -3.61453 0.0583186 0
M  V30 1865 O 184.056 -4.172 1.33702 0
M  V30 1866 C 185.557 -4.41002 -0.450795 0
M  V30 1867 H 182.777 -0.665413 0.0864077 0
M  V30 1868 H 185.321 -1.84396 0.884222 0
M  V30 1869 H 183.476 -3.82522 -0.612865 0
M  V30 1870 H 183.89 -5.10791 1.19131 0
M  V30 1871 H 185.364 -5.49966 -0.473403 0
M  V30 1872 H 185.841 -4.13488 -1.48068 0
M  V30 1873 H 186.447 -4.24886 0.187637 0
M  V30 1874 N 184.763 -0.387143 -1.52771 0
M  V30 1875 C 186.012 0.19697 -2.00736 0
M  V30 1876 C 186.325 1.48082 -1.27793 0
M  V30 1877 O 187.531 2.14485 -1.66458 0
M  V30 1878 C 185.987 0.401568 -3.57653 0
M  V30 1879 C 185.595 -0.868907 -4.39493 0
M  V30 1880 C 187.339 0.942164 -4.13912 0
M  V30 1881 C 185.246 -0.632705 -5.88006 0
M  V30 1882 H 184.176 0.0773827 -0.750019 0
M  V30 1883 H 186.827 -0.50921 -1.76293 0
M  V30 1884 H 185.209 1.16954 -3.78335 0
M  V30 1885 H 186.383 -1.64133 -4.30577 0
M  V30 1886 H 184.698 -1.33429 -3.94443 0
M  V30 1887 H 187.295 1.13455 -5.22525 0
M  V30 1888 H 187.638 1.9106 -3.69867 0
M  V30 1889 H 188.171 0.233814 -3.97112 0
M  V30 1890 H 184.91 -1.57208 -6.36369 0
M  V30 1891 H 184.43 0.100825 -5.99715 0
M  V30 1892 H 186.109 -0.26642 -6.46451 0
M  V30 1893 N 186.241 1.57166 -0.116904 0
M  V30 1894 C 187.518 1.86645 0.585049 0
M  V30 1895 C 187.898 1.0177 1.84949 0
M  V30 1896 O 187.246 0.0960379 2.28298 0
M  V30 1897 C 187.456 3.37736 0.879507 0
M  V30 1898 C 188.804 4.06289 1.23348 0
M  V30 1899 O 189.828 3.42743 0.969836 0
M  V30 1900 O 188.687 5.18455 1.7282 0
M  V30 1901 H 185.781 0.772593 0.295007 0
M  V30 1902 H 188.327 1.69025 -0.151249 0
M  V30 1903 H 187.099 3.91296 -0.0166136 0
M  V30 1904 H 186.722 3.6078 1.67103 0
M  V30 1905 N 187.719 -0.156864 1.56817 0
M  V30 1906 C 188.667 -1.21319 1.98455 0
M  V30 1907 C 189.661 -1.45025 0.875444 0
M  V30 1908 O 190.867 -1.45435 1.0606 0
M  V30 1909 H 187.242 -0.408142 0.631605 0
M  V30 1910 H 189.213 -0.835244 2.86472 0
M  V30 1911 C 187.962 -2.54148 2.37285 0
M  V30 1912 H 187.285 -2.36733 3.22176 0
M  V30 1913 H 188.725 -3.26712 2.70251 0
M  V30 1914 C 187.184 -3.13967 1.22173 0
M  V30 1915 O 187.714 -3.98357 0.517149 0
M  V30 1916 N 185.92 -2.7327 0.988536 0
M  V30 1917 H 185.467 -2.04744 1.56326 0
M  V30 1918 H 185.425 -3.13628 0.220209 0
M  V30 1919 N 189.197 -1.51736 -0.425897 0
M  V30 1920 C 190.474 -1.55519 -1.1863 0
M  V30 1921 C 190.854 -0.326219 -2.08564 0
M  V30 1922 O 190.202 0.688012 -2.17896 0
M  V30 1923 C 190.412 -2.87521 -1.9782 0
M  V30 1924 C 191.76 -3.39899 -2.54468 0
M  V30 1925 O 192.784 -2.89148 -2.08019 0
M  V30 1926 O 191.643 -4.2848 -3.39215 0
M  V30 1927 H 188.737 -0.625739 -0.540721 0
M  V30 1928 H 191.283 -1.64055 -0.434038 0
M  V30 1929 H 190.055 -3.68422 -1.31836 0
M  V30 1930 H 189.678 -2.822 -2.80088 0
M  V30 1931 N 190.675 0.682077 -1.42076 0
M  V30 1932 C 191.924 1.43786 -1.41451 0
M  V30 1933 C 192.237 1.95574 -0.0317074 0
M  V30 1934 O 193.443 2.71326 0.0971462 0
M  V30 1935 C 191.899 2.60071 -2.48779 0
M  V30 1936 C 191.507 2.15013 -3.93031 0
M  V30 1937 C 193.251 3.37626 -2.57311 0
M  V30 1938 C 191.158 3.28336 -4.91883 0
M  V30 1939 H 190.088 0.540143 -0.526082 0
M  V30 1940 H 192.739 0.739157 -1.67955 0
M  V30 1941 H 191.121 3.32275 -2.15429 0
M  V30 1942 H 192.295 1.5001 -4.35699 0
M  V30 1943 H 190.61 1.50416 -3.88284 0
M  V30 1944 H 193.207 4.22012 -3.28345 0
M  V30 1945 H 193.55 3.83727 -1.61429 0
M  V30 1946 H 194.083 2.72488 -2.89819 0
M  V30 1947 H 190.822 2.87234 -5.89217 0
M  V30 1948 H 190.342 3.92145 -4.53853 0
M  V30 1949 H 192.021 3.93913 -5.13265 0
M  V30 1950 N 192.153 1.28127 0.917671 0
M  V30 1951 C 193.564 1.13622 1.48145 0
M  V30 1952 C 193.915 -0.275207 1.9426 0
M  V30 1953 O 193.04 -1.1691 1.82102 0
M  V30 1954 C 193.635 2.05648 2.69248 0
M  V30 1955 C 192.194 1.95219 3.21818 0
M  V30 1956 C 191.341 1.97618 1.94532 0
M  V30 1957 H 194.292 1.40874 0.730772 0
M  V30 1958 H 194.313 1.61818 3.44377 0
M  V30 1959 H 193.825 3.08365 2.35653 0
M  V30 1960 H 191.926 0.955244 3.60147 0
M  V30 1961 H 192.039 2.81976 3.87333 0
M  V30 1962 H 190.403 1.41973 2.11461 0
M  V30 1963 H 191.186 3.02007 1.63238 0
M  V30 1964 N 193.631 -1.12557 1.10312 0
M  V30 1965 C 194.879 -1.83675 0.843091 0
M  V30 1966 C 195.2 -1.84435 -0.633131 0
M  V30 1967 O 194.47 -1.30657 -1.45964 0
M  V30 1968 H 193.05 -0.680138 0.308904 0
M  V30 1969 H 195.712 -1.36301 1.39313 0
M  V30 1970 H 194.808 -2.87908 1.2048 0
M  V30 1971 N 195.109 -0.891671 -1.2995 0
M  V30 1972 C 196.337 -0.52866 -2.00032 0
M  V30 1973 C 196.752 0.884574 -1.66795 0
M  V30 1974 O 196.109 1.5827 -0.908669 0
M  V30 1975 C 196.16 -0.701814 -3.54622 0
M  V30 1976 O 195.881 -2.05942 -3.86678 0
M  V30 1977 C 197.382 -0.342683 -4.41973 0
M  V30 1978 H 194.602 -0.203659 -0.639347 0
M  V30 1979 H 197.146 -1.19881 -1.65677 0
M  V30 1980 H 195.301 -0.0789468 -3.8732 0
M  V30 1981 H 195.715 -2.08291 -4.81368 0
M  V30 1982 H 197.189 -0.514709 -5.49595 0
M  V30 1983 H 197.666 0.71975 -4.33262 0
M  V30 1984 H 198.272 -0.942154 -4.14733 0
M  V30 1985 N 196.587 1.43421 -0.653314 0
M  V30 1986 C 197.864 1.95361 -0.0966581 0
M  V30 1987 C 198.244 1.59461 1.38331 0
M  V30 1988 O 197.592 0.879777 2.10884 0
M  V30 1989 C 197.802 3.47311 -0.342988 0
M  V30 1990 C 199.15 4.23875 -0.24798 0
M  V30 1991 O 200.174 3.55133 -0.275553 0
M  V30 1992 O 199.033 5.4623 -0.171771 0
M  V30 1993 H 196.127 0.826945 0.00956291 0
M  V30 1994 H 198.673 1.5336 -0.726558 0
M  V30 1995 H 197.445 3.66569 -1.36906 0
M  V30 1996 H 197.068 3.9631 0.319975 0
M  V30 1997 N 198.065 0.39524 1.52563 0
M  V30 1998 C 199.312 -0.185044 2.01653 0
M  V30 1999 C 199.64 -1.46317 1.28146 0
M  V30 2000 O 198.895 -1.9213 0.372074 0
M  V30 2001 C 199.194 -0.493444 3.53977 0
M  V30 2002 C 198.86 0.69384 4.4553 0
M  V30 2003 C 197.522 1.01954 4.70275 0
M  V30 2004 C 199.874 1.48785 4.99512 0
M  V30 2005 C 197.202 2.14069 5.46252 0
M  V30 2006 C 199.554 2.59965 5.76716 0
M  V30 2007 C 198.218 2.93037 5.99738 0
M  V30 2008 H 197.488 -0.0677123 0.7379 0
M  V30 2009 H 200.135 0.533807 1.8391 0
M  V30 2010 H 198.44 -1.29369 3.69825 0
M  V30 2011 H 200.137 -0.955163 3.89458 0
M  V30 2012 H 196.727 0.429987 4.26438 0
M  V30 2013 H 200.911 1.24946 4.80315 0
M  V30 2014 H 196.167 2.40056 5.62302 0
M  V30 2015 H 200.341 3.21887 6.17545 0
M  V30 2016 H 197.968 3.8003 6.58393 0
M  V30 2017 N 199.544 -1.57102 0.125237 0
M  V30 2018 C 200.772 -1.99761 -0.538797 0
M  V30 2019 C 201.187 -1.00503 -1.59827 0
M  V30 2020 O 200.544 0.00119474 -1.825 0
M  V30 2021 C 200.595 -3.42408 -1.15927 0
M  V30 2022 O 200.316 -4.37869 -0.142143 0
M  V30 2023 C 201.817 -4.00232 -1.90602 0
M  V30 2024 H 199.037 -0.655772 -0.14214 0
M  V30 2025 H 201.581 -2.03383 0.213413 0
M  V30 2026 H 199.736 -3.39706 -1.86223 0
M  V30 2027 H 200.15 -5.21128 -0.593775 0
M  V30 2028 H 201.624 -5.02105 -2.29335 0
M  V30 2029 H 202.101 -3.39721 -2.78363 0
M  V30 2030 H 202.707 -4.06499 -1.25055 0
M  V30 2031 N 201.022 0.148545 -1.56898 0
M  V30 2032 C 202.271 0.85984 -1.82454 0
M  V30 2033 C 202.584 1.82406 -0.706229 0
M  V30 2034 O 203.79 2.57938 -0.847349 0
M  V30 2035 C 202.246 1.57967 -3.2338 0
M  V30 2036 C 201.854 0.65794 -4.43142 0
M  V30 2037 C 203.598 2.27784 -3.58211 0
M  V30 2038 C 201.505 1.3793 -5.75091 0
M  V30 2039 H 200.435 0.324834 -0.68044 0
M  V30 2040 H 203.086 0.112588 -1.83154 0
M  V30 2041 H 201.468 2.37249 -3.17063 0
M  V30 2042 H 202.642 -0.0995497 -4.60692 0
M  V30 2043 H 200.957 0.0682643 -4.16344 0
M  V30 2044 H 203.554 2.8239 -4.54048 0
M  V30 2045 H 203.897 3.04204 -2.84193 0
M  V30 2046 H 204.43 1.55421 -3.66182 0
M  V30 2047 H 201.169 0.656982 -6.52199 0
M  V30 2048 H 200.689 2.10954 -5.61479 0
M  V30 2049 H 202.368 1.92063 -6.17835 0
M  V30 2050 N 202.5 1.5196 0.417844 0
M  V30 2051 C 203.748 1.65263 1.16329 0
M  V30 2052 C 204.069 0.380634 1.91249 0
M  V30 2053 O 203.339 -0.604214 1.86349 0
M  V30 2054 H 201.919 0.60912 0.432414 0
M  V30 2055 H 204.581 1.88969 0.477162 0
M  V30 2056 H 203.677 2.4896 1.88217 0
M  V30 2057 N 203.978 -0.674533 1.42435 0
M  V30 2058 C 205.225 -1.43459 1.42919 0
M  V30 2059 C 205.553 -1.94446 0.0457312 0
M  V30 2060 O 204.808 -1.7132 -0.94593 0
M  V30 2061 C 205.107 -2.64767 2.40069 0
M  V30 2062 C 204.773 -2.3232 3.86443 0
M  V30 2063 C 203.435 -2.23182 4.26314 0
M  V30 2064 C 205.787 -2.05977 4.78773 0
M  V30 2065 C 203.115 -1.85827 5.56494 0
M  V30 2066 C 205.467 -1.70125 6.09295 0
M  V30 2067 C 204.131 -1.59498 6.48164 0
M  V30 2068 H 203.401 -0.524952 0.522978 0
M  V30 2069 H 206.048 -0.769097 1.75377 0
M  V30 2070 H 204.353 -3.36349 2.00939 0
M  V30 2071 H 206.05 -3.22949 2.37707 0
M  V30 2072 H 202.64 -2.40334 3.54877 0
M  V30 2073 H 206.824 -2.11969 4.48757 0
M  V30 2074 H 202.08 -1.76168 5.8547 0
M  V30 2075 H 206.254 -1.48767 6.80324 0
M  V30 2076 H 203.881 -1.30322 7.48946 0
M  V30 2077 N 205.456 -1.28612 -0.910864 0
M  V30 2078 C 206.733 -1.06632 -1.63979 0
M  V30 2079 C 207.113 0.393351 -2.07403 0
M  V30 2080 O 206.461 1.37999 -1.82122 0
M  V30 2081 C 206.671 -2.0436 -2.8291 0
M  V30 2082 C 208.019 -2.34666 -3.5386 0
M  V30 2083 O 209.043 -2.02467 -2.93062 0
M  V30 2084 O 207.902 -2.89631 -4.63439 0
M  V30 2085 H 204.996 -0.407737 -0.7195 0
M  V30 2086 H 207.542 -1.39942 -0.959914 0
M  V30 2087 H 206.314 -3.02727 -2.47936 0
M  V30 2088 H 205.937 -1.71714 -3.58609 0
M  V30 2089 N 206.934 1.1197 -1.10907 0
M  V30 2090 C 208.162 1.87402 -0.876824 0
M  V30 2091 C 208.577 1.79894 0.573025 0
M  V30 2092 O 207.934 1.17629 1.39534 0
M  V30 2093 C 207.985 3.36428 -1.32282 0
M  V30 2094 O 207.706 3.43765 -2.71582 0
M  V30 2095 C 209.207 4.28783 -1.12518 0
M  V30 2096 H 206.427 0.592793 -0.314384 0
M  V30 2097 H 208.971 1.41649 -1.47499 0
M  V30 2098 H 207.126 3.79706 -0.768229 0
M  V30 2099 H 207.54 4.3652 -2.90776 0
M  V30 2100 H 209.014 5.31613 -1.48633 0
M  V30 2101 H 209.491 4.39153 -0.0642394 0
M  V30 2102 H 210.097 3.91291 -1.66648 0
M  V30 2103 N 208.412 0.89855 1.29475 0
M  V30 2104 C 209.375 0.380272 2.26023 0
M  V30 2105 C 210.375 -0.484891 1.53315 0
M  V30 2106 O 211.565 -0.290108 1.71767 0
M  V30 2107 C 208.697 -0.45651 3.3783 0
M  V30 2108 H 209.89 1.23295 2.73383 0
M  V30 2109 H 207.443 0.676589 1.40897 0
M  V30 2110 H 208.178 -1.32922 2.95808 0
M  V30 2111 H 207.963 0.163393 3.91759 0
M  V30 2112 H 209.453 -0.810466 4.0966 0
M  V30 2113 N 209.89 -1.43072 0.660911 0
M  V30 2114 C 210.82 -2.33497 -0.0122829 0
M  V30 2115 C 211.801 -1.49903 -0.803925 0
M  V30 2116 O 212.986 -1.78546 -0.763864 0
M  V30 2117 C 210.116 -3.33363 -0.973994 0
M  V30 2118 C 209.07 -4.27003 -0.291928 0
M  V30 2119 C 208.396 -5.16967 -1.36562 0
M  V30 2120 C 209.696 -5.15816 0.820462 0
M  V30 2121 H 211.39 -2.90038 0.742873 0
M  V30 2122 H 208.936 -1.39461 0.358688 0
M  V30 2123 H 210.889 -3.95524 -1.45392 0
M  V30 2124 H 209.613 -2.75095 -1.7604 0
M  V30 2125 H 208.272 -3.66217 0.167623 0
M  V30 2126 H 207.92 -4.55034 -2.14366 0
M  V30 2127 H 207.62 -5.80441 -0.914454 0
M  V30 2128 H 209.144 -5.82003 -1.84675 0
M  V30 2129 H 210.558 -5.71742 0.422366 0
M  V30 2130 H 208.955 -5.8805 1.19656 0
M  V30 2131 H 210.025 -4.55045 1.67518 0
M  V30 2132 N 211.368 -0.403325 -1.52352 0
M  V30 2133 C 212.316 0.439752 -2.28405 0
M  V30 2134 C 213.31 1.05089 -1.32863 0
M  V30 2135 O 214.516 0.989759 -1.50345 0
M  V30 2136 H 210.891 0.160587 -0.734653 0
M  V30 2137 H 212.862 -0.222983 -2.97566 0
M  V30 2138 C 211.611 1.54736 -3.11371 0
M  V30 2139 H 210.934 1.08643 -3.84755 0
M  V30 2140 H 212.374 2.1112 -3.67701 0
M  V30 2141 C 210.833 2.51141 -2.24566 0
M  V30 2142 O 211.363 3.54887 -1.88196 0
M  V30 2143 N 209.569 2.21213 -1.8845 0
M  V30 2144 H 209.116 1.36878 -2.18225 0
M  V30 2145 H 209.074 2.85963 -1.30662 0
M  V30 2146 N 212.846 1.57033 -0.133567 0
M  V30 2147 C 214.074 2.00044 0.528195 0
M  V30 2148 C 214.489 1.01349 1.59291 0
M  V30 2149 O 213.846 0.00848369 1.82498 0
M  V30 2150 C 213.897 3.43018 1.1411 0
M  V30 2151 O 213.618 4.37939 0.11892 0
M  V30 2152 C 215.119 4.01237 1.88477 0
M  V30 2153 H 212.339 0.656517 0.138661 0
M  V30 2154 H 214.883 2.03267 -0.224196 0
M  V30 2155 H 213.038 3.40688 1.84418 0
M  V30 2156 H 213.452 5.21436 0.56613 0
M  V30 2157 H 214.926 5.03314 2.26669 0
M  V30 2158 H 215.403 3.41193 2.76558 0
M  V30 2159 H 216.009 4.07156 1.22898 0
M  V30 2160 N 214.325 -0.140222 1.56975 0
M  V30 2161 C 215.571 -0.852949 1.83991 0
M  V30 2162 C 215.904 -1.80512 0.716187 0
M  V30 2163 O 215.179 -1.92479 -0.279681 0
M  V30 2164 C 215.462 -1.6215 3.21527 0
M  V30 2165 C 215.315 -0.690363 4.4447 0
M  V30 2166 C 216.634 -2.58247 3.56366 0
M  V30 2167 H 213.753 -0.308634 0.669264 0
M  V30 2168 H 216.395 -0.117898 1.89634 0
M  V30 2169 H 214.545 -2.24812 3.16847 0
M  V30 2170 H 216.217 -0.0742264 4.6124 0
M  V30 2171 H 214.46 -0.000396433 4.338 0
M  V30 2172 H 215.131 -1.2643 5.37326 0
M  V30 2173 H 217.607 -2.05701 3.61699 0
M  V30 2174 H 216.483 -3.09067 4.53617 0
M  V30 2175 H 216.744 -3.39923 2.82674 0
M  V30 2176 N 215.803 -1.52179 -0.40978 0
M  V30 2177 C 217.052 -1.65434 -1.15388 0
M  V30 2178 C 217.365 -0.390056 -1.91671 0
M  V30 2179 O 218.571 -0.402399 -2.68501 0
M  V30 2180 C 217.027 -2.92279 -2.10003 0
M  V30 2181 C 216.635 -4.25813 -1.39239 0
M  V30 2182 C 218.379 -3.14897 -2.84675 0
M  V30 2183 C 216.286 -5.43782 -2.32498 0
M  V30 2184 H 215.216 -0.616267 -0.434432 0
M  V30 2185 H 217.867 -1.78666 -0.418401 0
M  V30 2186 H 216.249 -2.72744 -2.871 0
M  V30 2187 H 217.423 -4.55828 -0.675099 0
M  V30 2188 H 215.738 -4.09292 -0.766097 0
M  V30 2189 H 218.335 -4.0021 -3.54593 0
M  V30 2190 H 218.678 -2.29103 -3.47588 0
M  V30 2191 H 219.211 -3.34901 -2.14677 0
M  V30 2192 H 215.95 -6.3192 -1.74233 0
M  V30 2193 H 215.47 -5.18106 -3.02201 0
M  V30 2194 H 217.149 -5.76834 -2.93038 0
M  V30 2195 N 217.281 0.66697 -1.42791 0
M  V30 2196 C 218.558 1.4234 -1.34159 0
M  V30 2197 C 218.938 2.11093 0.0172729 0
M  V30 2198 O 218.286 2.03808 1.03318 0
M  V30 2199 C 218.496 2.41942 -2.51526 0
M  V30 2200 C 219.844 3.06353 -2.93995 0
M  V30 2201 O 220.868 2.52269 -2.51473 0
M  V30 2202 O 219.727 4.04376 -3.67617 0
M  V30 2203 H 216.821 0.635277 -0.529483 0
M  V30 2204 H 219.367 0.695034 -1.54814 0
M  V30 2205 H 218.139 1.89991 -3.42081 0
M  V30 2206 H 217.762 3.22249 -2.32898 0
M  V30 2207 N 218.759 1.29093 0.90403 0
M  V30 2208 C 219.722 1.1386 1.98919 0
M  V30 2209 C 220.722 0.0753457 1.60623 0
M  V30 2210 O 221.912 0.321931 1.71199 0
M  V30 2211 C 219.044 0.740198 3.32767 0
M  V30 2212 H 220.237 2.10246 2.13861 0
M  V30 2213 H 217.79 1.12218 1.08797 0
M  V30 2214 H 218.525 -0.223997 3.23525 0
M  V30 2215 H 218.31 1.50838 3.61926 0
M  V30 2216 H 219.8 0.656546 4.12407 0
M  V30 2217 N 220.237 -1.11381 1.11499 0
M  V30 2218 C 221.486 -1.82494 0.858993 0
M  V30 2219 C 221.799 -1.85605 -0.617278 0
M  V30 2220 O 223.005 -2.52824 -0.989552 0
M  V30 2221 C 221.461 -3.27745 1.48699 0
M  V30 2222 C 221.069 -3.32961 2.99735 0
M  V30 2223 C 222.813 -4.03754 1.31085 0
M  V30 2224 C 220.72 -4.72612 3.55516 0
M  V30 2225 H 219.65 -0.683802 0.317696 0
M  V30 2226 H 222.301 -1.25331 1.34031 0
M  V30 2227 H 220.683 -3.84844 0.933339 0
M  V30 2228 H 221.857 -2.85741 3.61509 0
M  V30 2229 H 220.172 -2.70433 3.16631 0
M  V30 2230 H 222.769 -5.06891 1.70192 0
M  V30 2231 H 223.112 -4.15527 0.253496 0
M  V30 2232 H 223.645 -3.53043 1.83318 0
M  V30 2233 H 220.384 -4.66036 4.60967 0
M  V30 2234 H 219.904 -5.2024 2.98513 0
M  V30 2235 H 221.583 -5.4157 3.53992 0
M  V30 2236 N 221.715 -0.905404 -1.28997 0
M  V30 2237 C 222.992 -0.453513 -1.9027 0
M  V30 2238 C 223.372 1.06721 -1.82137 0
M  V30 2239 O 222.72 1.91159 -1.25182 0
M  V30 2240 C 222.93 -0.974494 -3.35119 0
M  V30 2241 C 224.278 -1.0216 -4.12127 0
M  V30 2242 O 225.302 -0.922557 -3.44046 0
M  V30 2243 O 224.161 -1.17121 -5.33802 0
M  V30 2244 H 221.255 -0.142347 -0.814657 0
M  V30 2245 H 223.801 -0.995642 -1.37423 0
M  V30 2246 H 222.573 -2.01848 -3.35221 0
M  V30 2247 H 222.196 -0.412706 -3.95452 0
M  V30 2248 N 223.193 1.4272 -0.668489 0
M  V30 2249 C 224.14 2.30796 0.0137489 0
M  V30 2250 C 225.11 1.4561 0.799177 0
M  V30 2251 O 226.295 1.74453 0.772702 0
M  V30 2252 C 223.435 3.31377 0.963507 0
M  V30 2253 C 222.548 4.31655 0.172569 0
M  V30 2254 C 221.683 5.19312 1.1175 0
M  V30 2255 C 220.722 6.11274 0.317886 0
M  V30 2256 N 219.859 6.91504 1.2152 0
M  V30 2257 H 224.699 2.88585 -0.743161 0
M  V30 2258 H 222.236 1.42154 -0.378226 0
M  V30 2259 H 224.194 3.88214 1.52792 0
M  V30 2260 H 222.824 2.75202 1.68712 0
M  V30 2261 H 221.876 3.76988 -0.508374 0
M  V30 2262 H 223.188 4.96779 -0.448527 0
M  V30 2263 H 222.342 5.80851 1.75206 0
M  V30 2264 H 221.081 4.5435 1.77249 0
M  V30 2265 H 220.086 5.48809 -0.329918 0
M  V30 2266 H 221.311 6.78283 -0.332917 0
M  V30 2267 H 219.257 6.29176 1.85671 0
M  V30 2268 H 219.174 7.53209 0.649036 0
M  V30 2269 H 220.442 7.57535 1.83742 0
M  V30 2270 N 224.671 0.411399 1.52136 0
M  V30 2271 C 225.92 -0.165009 2.01024 0
M  V30 2272 C 226.233 -1.4603 1.30133 0
M  V30 2273 O 227.439 -2.1181 1.69849 0
M  V30 2274 C 225.895 -0.344618 3.58246 0
M  V30 2275 C 225.503 0.938716 4.38055 0
M  V30 2276 C 227.247 -0.876195 4.15359 0
M  V30 2277 C 225.154 0.726172 5.86925 0
M  V30 2278 H 224.084 -0.0654407 0.751155 0
M  V30 2279 H 226.735 0.537192 1.75461 0
M  V30 2280 H 225.117 -1.10921 3.80148 0
M  V30 2281 H 226.291 1.70963 4.27912 0
M  V30 2282 H 224.606 1.39688 3.92271 0
M  V30 2283 H 227.203 -1.05128 5.24263 0
M  V30 2284 H 227.546 -1.85152 3.7286 0
M  V30 2285 H 228.079 -0.170607 3.97434 0
M  V30 2286 H 224.818 1.67312 6.33788 0
M  V30 2287 H 224.338 -0.00540283 5.998 0
M  V30 2288 H 226.017 0.369231 6.45946 0
M  V30 2289 N 226.149 -1.5696 0.141893 0
M  V30 2290 C 227.565 -1.58151 -0.21456 0
M  V30 2291 C 227.765 -1.1559 -1.65049 0
M  V30 2292 O 226.821 -0.853832 -2.37626 0
M  V30 2293 C 228.134 -3.00674 0.0395576 0
M  V30 2294 C 229.682 -3.1299 -0.0245529 0
M  V30 2295 C 230.157 -4.57554 0.202167 0
M  V30 2296 N 231.648 -4.62961 0.148919 0
M  V30 2297 C 232.383 -5.7262 0.298924 0
M  V30 2298 N 231.879 -6.90947 0.50637 0
M  V30 2299 N 233.672 -5.61601 0.236886 0
M  V30 2300 H 225.823 -1.8292 1.07953 0
M  V30 2301 H 228.086 -0.846425 0.42693 0
M  V30 2302 H 227.792 -3.36183 1.03315 0
M  V30 2303 H 227.666 -3.70981 -0.682143 0
M  V30 2304 H 230.053 -2.77326 -1.00869 0
M  V30 2305 H 230.134 -2.4518 0.729396 0
M  V30 2306 H 229.778 -4.93922 1.18338 0
M  V30 2307 H 229.708 -5.23484 -0.572044 0
M  V30 2308 H 232.199 -3.77899 -0.00697015 0
M  V30 2309 H 232.512 -7.7038 0.611076 0
M  V30 2310 H 230.857 -6.92878 0.542628 0
M  V30 2311 H 234.048 -4.68039 0.0756209 0
M  V30 2312 H 234.221 -6.47015 0.357227 0
M  V30 2313 N 227.627 0.131896 -1.57047 0
M  V30 2314 C 228.904 0.871495 -1.75112 0
M  V30 2315 C 229.284 1.9866 -0.713949 0
M  V30 2316 O 228.632 2.26965 0.264447 0
M  V30 2317 C 228.842 1.40007 -3.19686 0
M  V30 2318 C 230.19 1.85752 -3.81813 0
M  V30 2319 O 231.214 1.49715 -3.23209 0
M  V30 2320 O 230.073 2.5226 -4.84796 0
M  V30 2321 H 227.167 0.412919 -0.716538 0
M  V30 2322 H 229.713 0.116641 -1.69299 0
M  V30 2323 H 228.485 0.599404 -3.86682 0
M  V30 2324 H 228.108 2.218 -3.29986 0
M  V30 2325 N 229.106 1.52395 0.401703 0
M  V30 2326 C 230.334 1.70676 1.16949 0
M  V30 2327 C 230.749 0.419503 1.8408 0
M  V30 2328 O 230.106 -0.605061 1.72178 0
M  V30 2329 C 230.157 2.84753 2.22706 0
M  V30 2330 O 229.878 4.08495 1.58314 0
M  V30 2331 C 231.379 3.14608 3.12309 0
M  V30 2332 H 228.599 0.571787 0.351142 0
M  V30 2333 H 231.143 1.98987 0.471652 0
M  V30 2334 H 229.298 2.58941 2.88147 0
M  V30 2335 H 229.712 4.72117 2.28485 0
M  V30 2336 H 231.186 3.97923 3.82572 0
M  V30 2337 H 231.663 2.28464 3.75101 0
M  V30 2338 H 232.269 3.42212 2.52529 0
M  V30 2339 N 230.584 -0.659388 1.43143 0
M  V30 2340 C 231.547 -1.75432 1.47501 0
M  V30 2341 C 232.547 -1.56707 0.360512 0
M  V30 2342 O 233.737 -1.62717 0.622002 0
M  V30 2343 C 230.869 -3.14239 1.32162 0
M  V30 2344 H 232.062 -1.7295 2.45006 0
M  V30 2345 H 229.615 -0.870469 1.29817 0
M  V30 2346 H 230.35 -3.22336 0.356401 0
M  V30 2347 H 230.135 -3.29235 2.12948 0
M  V30 2348 H 231.625 -3.94094 1.3813 0
M  V30 2349 N 232.062 -1.29571 -0.897171 0
M  V30 2350 C 233.29 -1.20583 -1.68129 0
M  V30 2351 C 233.705 0.233181 -1.87354 0
M  V30 2352 O 233.062 1.15579 -1.41236 0
M  V30 2353 C 233.113 -1.91772 -3.06441 0
M  V30 2354 O 232.834 -3.30053 -2.88091 0
M  V30 2355 C 234.335 -1.89291 -4.00854 0
M  V30 2356 H 231.555 -0.417826 -0.525036 0
M  V30 2357 H 234.099 -1.70987 -1.12177 0
M  V30 2358 H 232.254 -1.45196 -3.59161 0
M  V30 2359 H 232.668 -3.65942 -3.75748 0
M  V30 2360 H 234.142 -2.43662 -4.95311 0
M  V30 2361 H 234.619 -0.869014 -4.30517 0
M  V30 2362 H 235.225 -2.35622 -3.54066 0
M  V30 2363 N 233.54 1.10788 -1.12088 0
M  V30 2364 C 234.765 1.87002 -0.896949 0
M  V30 2365 C 235.19 1.79933 0.548261 0
M  V30 2366 O 234.548 1.16662 1.38779 0
M  V30 2367 C 234.596 3.3349 -1.37174 0
M  V30 2368 O 233.7 4.08745 -0.547831 0
M  V30 2369 H 233.041 0.580397 -0.322545 0
M  V30 2370 H 235.571 1.39996 -1.49206 0
M  V30 2371 H 235.581 3.84339 -1.36922 0
M  V30 2372 H 234.256 3.37951 -2.42408 0
M  V30 2373 H 232.833 3.6776 -0.617034 0
M  V30 2374 N 235.018 0.912232 1.28515 0
M  V30 2375 C 235.968 0.370649 2.24967 0
M  V30 2376 C 236.952 -0.516375 1.52389 0
M  V30 2377 O 238.144 -0.356345 1.73376 0
M  V30 2378 C 235.273 -0.389526 3.41083 0
M  V30 2379 C 234.359 0.51313 4.20984 0
M  V30 2380 N 234.75 1.62604 4.78951 0
M  V30 2381 C 233.048 0.313235 4.44899 0
M  V30 2382 C 233.749 2.18619 5.39055 0
M  V30 2383 N 232.725 1.47765 5.23132 0
M  V30 2384 H 236.527 1.22061 2.67354 0
M  V30 2385 H 234.041 0.764712 1.43269 0
M  V30 2386 H 236.038 -0.794353 4.09262 0
M  V30 2387 H 234.698 -1.2366 3.0023 0
M  V30 2388 H 235.709 2.00864 4.77362 0
M  V30 2389 H 232.386 -0.494452 4.14562 0
M  V30 2390 H 233.776 3.12228 5.94948 0
M  V30 2391 N 236.496 -1.42363 0.676048 0
M  V30 2392 C 237.406 -2.346 -0.00153389 0
M  V30 2393 C 238.422 -1.5516 -0.787485 0
M  V30 2394 O 239.598 -1.87723 -0.729521 0
M  V30 2395 C 236.663 -3.33705 -0.940298 0
M  V30 2396 C 235.724 -4.29042 -0.148739 0
M  V30 2397 C 234.957 -5.23413 -1.04279 0
M  V30 2398 O 235.18 -5.22749 -2.28232 0
M  V30 2399 O 234.114 -5.99795 -0.502925 0
M  V30 2400 H 237.94 -2.94082 0.758268 0
M  V30 2401 H 235.525 -1.42888 0.436289 0
M  V30 2402 H 237.407 -3.94586 -1.47917 0
M  V30 2403 H 236.082 -2.76695 -1.67993 0
M  V30 2404 H 234.989 -3.71571 0.43427 0
M  V30 2405 H 236.322 -4.89097 0.551805 0
M  V30 2406 N 237.974 -0.419461 -1.51915 0
M  V30 2407 C 239.39 -0.0708431 -1.59443 0
M  V30 2408 C 239.59 1.41796 -1.43164 0
M  V30 2409 O 238.646 2.18596 -1.26381 0
M  V30 2410 C 239.959 -0.574991 -2.95151 0
M  V30 2411 C 241.507 -0.533867 -3.08413 0
M  V30 2412 C 241.982 -1.01469 -4.46618 0
M  V30 2413 N 243.473 -0.971939 -4.52888 0
M  V30 2414 C 244.208 -1.31505 -5.58116 0
M  V30 2415 N 243.704 -1.73014 -6.70849 0
M  V30 2416 N 245.497 -1.23436 -5.48379 0
M  V30 2417 H 237.648 -1.38836 -1.60743 0
M  V30 2418 H 239.911 -0.570998 -0.756747 0
M  V30 2419 H 239.617 -1.61597 -3.12377 0
M  V30 2420 H 239.491 0.00979777 -3.77199 0
M  V30 2421 H 241.878 0.498086 -2.90866 0
M  V30 2422 H 241.959 -1.15484 -2.28248 0
M  V30 2423 H 241.603 -2.04502 -4.6491 0
M  V30 2424 H 241.533 -0.370433 -5.25295 0
M  V30 2425 H 244.024 -0.666893 -3.71969 0
M  V30 2426 H 244.337 -1.97479 -7.47143 0
M  V30 2427 H 242.682 -1.76926 -6.72103 0
M  V30 2428 H 245.873 -0.908869 -4.59192 0
M  V30 2429 H 246.046 -1.50506 -6.30279 0
M  V30 2430 N 239.452 1.56882 -0.150215 0
M  V30 2431 C 240.68 2.00593 0.506948 0
M  V30 2432 C 241.095 1.03033 1.58208 0
M  V30 2433 O 240.452 0.0278396 1.82479 0
M  V30 2434 C 240.503 3.44209 1.10465 0
M  V30 2435 O 240.224 4.3804 0.0724636 0
M  V30 2436 C 241.725 4.03214 1.84211 0
M  V30 2437 H 238.945 0.65795 0.13169 0
M  V30 2438 H 241.489 2.03018 -0.245743 0
M  V30 2439 H 239.644 3.42625 1.80795 0
M  V30 2440 H 240.058 5.22007 0.510793 0
M  V30 2441 H 241.532 5.0569 2.21318 0
M  V30 2442 H 242.009 3.44107 2.72923 0
M  V30 2443 H 242.615 4.08437 1.18572 0
M  V30 2444 N 240.93 -0.123565 1.57115 0
M  V30 2445 C 242.16 -0.845233 1.88519 0
M  V30 2446 C 242.568 -1.74168 0.739064 0
M  V30 2447 O 241.911 -1.81244 -0.299355 0
M  V30 2448 C 241.973 -1.73452 3.14888 0
M  V30 2449 C 241.637 -1.01285 4.45635 0
M  V30 2450 C 242.634 -0.355774 5.18681 0
M  V30 2451 C 240.319 -0.99538 4.92339 0
M  V30 2452 C 242.313 0.309114 6.3665 0
M  V30 2453 C 240 -0.32669 6.10226 0
M  V30 2454 C 240.998 0.324406 6.82229 0
M  V30 2455 O 240.686 0.982437 7.97874 0
M  V30 2456 H 240.418 -0.248534 0.628655 0
M  V30 2457 H 242.972 -0.113907 2.05084 0
M  V30 2458 H 241.202 -2.50737 2.94394 0
M  V30 2459 H 242.891 -2.33021 3.32349 0
M  V30 2460 H 243.657 -0.360918 4.83655 0
M  V30 2461 H 239.536 -1.49159 4.36202 0
M  V30 2462 H 243.08 0.8179 6.92789 0
M  V30 2463 H 238.977 -0.319294 6.4471 0
M  V30 2464 H 239.745 0.886454 8.13686 0
M  V30 2465 N 242.408 -1.52605 -0.393616 0
M  V30 2466 C 243.654 -1.67672 -1.14079 0
M  V30 2467 C 243.987 -0.413121 -1.89755 0
M  V30 2468 O 243.262 0.588952 -1.85369 0
M  V30 2469 C 243.545 -2.9088 -2.12276 0
M  V30 2470 C 243.398 -4.27329 -1.40394 0
M  V30 2471 C 244.717 -3.09628 -3.12759 0
M  V30 2472 H 241.836 -0.610168 -0.413356 0
M  V30 2473 H 244.478 -1.85193 -0.424696 0
M  V30 2474 H 242.628 -2.76073 -2.73342 0
M  V30 2475 H 244.3 -4.53894 -0.82327 0
M  V30 2476 H 242.543 -4.2802 -0.705801 0
M  V30 2477 H 243.214 -5.09615 -2.12123 0
M  V30 2478 H 245.69 -3.23436 -2.61779 0
M  V30 2479 H 244.566 -3.97322 -3.78717 0
M  V30 2480 H 244.827 -2.23637 -3.81365 0
M  V30 2481 N 243.887 0.651787 -1.4349 0
M  V30 2482 C 245.136 1.40754 -1.44469 0
M  V30 2483 C 245.449 1.95463 -0.0731845 0
M  V30 2484 O 246.655 2.71471 0.0395721 0
M  V30 2485 C 245.111 2.54735 -2.5424 0
M  V30 2486 C 244.719 2.06628 -3.97504 0
M  V30 2487 C 246.463 3.32092 -2.64414 0
M  V30 2488 C 244.37 3.17829 -4.98737 0
M  V30 2489 H 243.3 0.528862 -0.53742 0
M  V30 2490 H 245.951 0.703365 -1.69485 0
M  V30 2491 H 244.333 3.2763 -2.22428 0
M  V30 2492 H 245.507 1.40734 -4.38783 0
M  V30 2493 H 243.822 1.42146 -3.91387 0
M  V30 2494 H 246.419 4.14952 -3.37223 0
M  V30 2495 H 246.762 3.80217 -1.69532 0
M  V30 2496 H 247.295 2.66279 -2.95534 0
M  V30 2497 H 244.034 2.74671 -5.95177 0
M  V30 2498 H 243.554 3.82429 -4.62069 0
M  V30 2499 H 245.233 3.82937 -5.21505 0
M  V30 2500 N 245.365 1.30045 0.890287 0
M  V30 2501 C 246.275 1.17885 2.02831 0
M  V30 2502 C 247.291 0.0999609 1.73713 0
M  V30 2503 O 248.467 0.313867 1.98939 0
M  V30 2504 C 245.532 0.866079 3.35708 0
M  V30 2505 C 244.593 2.02979 3.78283 0
M  V30 2506 C 243.826 1.73184 5.0482 0
M  V30 2507 O 244.049 0.657237 5.66601 0
M  V30 2508 O 242.983 2.58267 5.43674 0
M  V30 2509 H 246.809 2.13474 2.16015 0
M  V30 2510 H 244.394 1.09587 1.01543 0
M  V30 2511 H 246.276 0.706623 4.15433 0
M  V30 2512 H 244.951 -0.0599443 3.23644 0
M  V30 2513 H 243.858 2.24454 2.99285 0
M  V30 2514 H 245.191 2.93734 3.94944 0
M  V30 2515 N 246.843 -1.10192 1.12674 0
M  V30 2516 C 248.089 -1.82475 0.884915 0
M  V30 2517 C 248.422 -1.85093 -0.58773 0
M  V30 2518 O 247.697 -1.3134 -1.43457 0
M  V30 2519 C 247.98 -3.29018 1.46353 0
M  V30 2520 C 247.833 -3.34718 3.00473 0
M  V30 2521 C 249.152 -4.25473 1.12519 0
M  V30 2522 H 246.271 -0.662492 0.322915 0
M  V30 2523 H 248.913 -1.2913 1.39375 0
M  V30 2524 H 247.063 -3.74576 1.03077 0
M  V30 2525 H 248.735 -2.97622 3.52447 0
M  V30 2526 H 246.978 -2.74541 3.35872 0
M  V30 2527 H 247.649 -4.37918 3.36053 0
M  V30 2528 H 250.125 -3.88161 1.499 0
M  V30 2529 H 249.001 -5.26365 1.55663 0
M  V30 2530 H 249.262 -4.42084 0.0377407 0
M  V30 2531 N 248.321 -0.919034 -1.28029 0
M  V30 2532 C 249.254 -0.355887 -2.25408 0
M  V30 2533 C 250.232 0.542874 -1.5327 0
M  V30 2534 O 251.416 0.485338 -1.82145 0
M  V30 2535 C 248.543 0.490759 -3.35126 0
M  V30 2536 C 247.589 -0.343358 -4.25116 0
M  V30 2537 S 248.422 -1.75344 -5.05979 0
M  V30 2538 C 249.578 -0.914244 -6.19187 0
M  V30 2539 H 249.811 -1.18123 -2.72826 0
M  V30 2540 H 247.344 -0.720636 -1.36551 0
M  V30 2541 H 249.302 0.973404 -3.98792 0
M  V30 2542 H 247.963 1.29054 -2.86363 0
M  V30 2543 H 247.156 0.304266 -5.03081 0
M  V30 2544 H 246.758 -0.759851 -3.662 0
M  V30 2545 H 249.05 -0.146282 -6.77342 0
M  V30 2546 H 249.993 -1.66661 -6.88208 0
M  V30 2547 H 250.401 -0.460082 -5.62622 0
M  V30 2548 N 249.799 1.42003 -0.683588 0
M  V30 2549 C 251.047 2.01015 -0.209101 0
M  V30 2550 C 251.368 1.54365 1.19149 0
M  V30 2551 O 250.638 0.769083 1.80172 0
M  V30 2552 H 249.218 0.743294 -0.074315 0
M  V30 2553 H 251.88 1.73798 -0.882066 0
M  V30 2554 H 250.976 3.11343 -0.2172 0
M  V30 2555 N 251.277 0.427512 1.51691 0
M  V30 2556 C 252.693 0.0792977 1.59403 0
M  V30 2557 C 252.893 -1.41035 1.43914 0
M  V30 2558 O 251.949 -2.17922 1.27539 0
M  V30 2559 C 253.262 0.590636 2.94842 0
M  V30 2560 C 254.81 0.550215 3.08126 0
M  V30 2561 C 255.285 1.03836 4.46074 0
M  V30 2562 N 256.776 0.995943 4.52366 0
M  V30 2563 C 257.511 1.34463 5.57411 0
M  V30 2564 N 257.007 1.76569 6.69922 0
M  V30 2565 N 258.8 1.26343 5.47717 0
M  V30 2566 H 250.951 1.39687 1.60004 0
M  V30 2567 H 253.214 0.575003 0.753708 0
M  V30 2568 H 252.92 1.63251 3.11516 0
M  V30 2569 H 252.794 0.0102061 3.77199 0
M  V30 2570 H 255.181 -0.482654 2.91126 0
M  V30 2571 H 255.262 1.16693 2.27632 0
M  V30 2572 H 254.906 2.06965 4.63819 0
M  V30 2573 H 254.836 0.398286 5.25092 0
M  V30 2574 H 257.327 0.68661 3.7161 0
M  V30 2575 H 257.64 2.01438 7.46085 0
M  V30 2576 H 255.985 1.80488 6.71155 0
M  V30 2577 H 259.176 0.933209 4.58703 0
M  V30 2578 H 259.349 1.53846 6.29472 0
M  V30 2579 N 252.755 -1.56801 0.158532 0
M  V30 2580 C 253.705 -2.13923 -0.788738 0
M  V30 2581 C 254.689 -1.07006 -1.2016 0
M  V30 2582 O 255.881 -1.33159 -1.1661 0
M  V30 2583 C 253.01 -2.77348 -2.02319 0
M  V30 2584 C 252.096 -3.91404 -1.6329 0
M  V30 2585 N 252.487 -4.9677 -0.951463 0
M  V30 2586 C 250.785 -4.02326 -1.92482 0
M  V30 2587 C 251.486 -5.76698 -0.761221 0
M  V30 2588 N 250.462 -5.27859 -1.29869 0
M  V30 2589 H 254.264 -2.92757 -0.258995 0
M  V30 2590 H 251.778 -1.62344 -0.0426055 0
M  V30 2591 H 253.775 -3.16639 -2.71192 0
M  V30 2592 H 252.435 -1.99991 -2.558 0
M  V30 2593 H 253.446 -5.14284 -0.610928 0
M  V30 2594 H 250.123 -3.36059 -2.47732 0
M  V30 2595 H 251.513 -6.71529 -0.223284 0
M  V30 2596 N 254.233 0.115231 -1.57178 0
M  V30 2597 C 255.196 1.12526 -1.99676 0
M  V30 2598 C 256.196 1.34095 -0.88742 0
M  V30 2599 O 257.386 1.30548 -1.15337 0
M  V30 2600 C 254.518 2.4789 -2.34015 0
M  V30 2601 H 255.711 0.759912 -2.90113 0
M  V30 2602 H 253.264 0.359648 -1.52106 0
M  V30 2603 H 253.999 2.89339 -1.4647 0
M  V30 2604 H 253.784 2.33588 -3.14927 0
M  V30 2605 H 255.274 3.20575 -2.67622 0
M  V30 2606 N 255.711 1.52812 0.385517 0
M  V30 2607 C 256.959 1.67694 1.12797 0
M  V30 2608 C 257.28 0.421115 1.90399 0
M  V30 2609 O 256.55 -0.564551 1.87589 0
M  V30 2610 H 255.13 0.618155 0.419396 0
M  V30 2611 H 257.792 1.89938 0.436972 0
M  V30 2612 H 256.888 2.52896 1.82894 0
M  V30 2613 N 257.189 -0.644168 1.43834 0
M  V30 2614 C 258.466 -1.40188 1.36406 0
M  V30 2615 C 258.846 -2.11094 0.0163124 0
M  V30 2616 O 258.194 -2.05426 -1.00062 0
M  V30 2617 C 258.404 -2.3791 2.55343 0
M  V30 2618 C 259.752 -3.01637 2.98832 0
M  V30 2619 O 260.776 -2.48237 2.55455 0
M  V30 2620 O 259.635 -3.98477 3.74003 0
M  V30 2621 H 256.729 -0.626773 0.539523 0
M  V30 2622 H 259.275 -0.670317 1.559 0
M  V30 2623 H 258.047 -1.84525 3.4506 0
M  V30 2624 H 257.67 -3.18503 2.37995 0
M  V30 2625 N 258.668 -1.30515 -0.883378 0
M  V30 2626 C 259.917 -1.18795 -1.63005 0
M  V30 2627 C 260.23 0.255923 -1.93919 0
M  V30 2628 O 261.436 0.494654 -2.66956 0
M  V30 2629 C 259.892 -2.07878 -2.93794 0
M  V30 2630 C 259.5 -3.57184 -2.70414 0
M  V30 2631 C 261.244 -2.04924 -3.71761 0
M  V30 2632 C 259.151 -4.38317 -3.97029 0
M  V30 2633 H 258.081 -0.441031 -0.611562 0
M  V30 2634 H 260.732 -1.55275 -0.977854 0
M  V30 2635 H 259.114 -1.64283 -3.60315 0
M  V30 2636 H 260.288 -4.08937 -2.12384 0
M  V30 2637 H 258.603 -3.61976 -2.0582 0
M  V30 2638 H 261.2 -2.62792 -4.65665 0
M  V30 2639 H 261.543 -1.0331 -4.03277 0
M  V30 2640 H 262.076 -2.46649 -3.12104 0
M  V30 2641 H 258.815 -5.40632 -3.70671 0
M  V30 2642 H 258.335 -3.91326 -4.54559 0
M  V30 2643 H 260.014 -4.49834 -4.65036 0
M  V30 2644 N 260.146 1.09593 -1.13257 0
M  V30 2645 C 261.109 2.14359 -0.811358 0
M  V30 2646 C 262.109 1.59808 0.178377 0
M  V30 2647 O 263.299 1.74132 -0.0484911 0
M  V30 2648 C 260.431 3.40269 -0.207276 0
M  V30 2649 H 261.624 2.44284 -1.73969 0
M  V30 2650 H 259.177 1.25102 -0.936973 0
M  V30 2651 H 259.912 3.15969 0.73036 0
M  V30 2652 H 259.697 3.81154 -0.919992 0
M  V30 2653 H 261.187 4.176 0.000667944 0
M  V30 2654 N 261.624 0.925811 1.2754 0
M  V30 2655 C 262.554 0.440748 2.29303 0
M  V30 2656 C 263.535 -0.497971 1.62648 0
M  V30 2657 O 264.72 -0.403126 1.8997 0
M  V30 2658 C 261.85 -0.309048 3.45922 0
M  V30 2659 C 260.804 0.54166 4.24559 0
M  V30 2660 C 260.13 -0.337191 5.33636 0
M  V30 2661 C 261.43 1.80516 4.90114 0
M  V30 2662 H 263.124 1.29121 2.70126 0
M  V30 2663 H 260.67 0.622323 1.29858 0
M  V30 2664 H 262.623 -0.659315 4.1621 0
M  V30 2665 H 261.347 -1.19352 3.04011 0
M  V30 2666 H 260.006 0.874609 3.56014 0
M  V30 2667 H 259.654 -1.22056 4.87966 0
M  V30 2668 H 259.354 0.228497 5.87156 0
M  V30 2669 H 260.878 -0.683072 6.06767 0
M  V30 2670 H 262.292 1.52307 5.52698 0
M  V30 2671 H 260.689 2.3142 5.53683 0
M  V30 2672 H 261.759 2.52581 4.13921 0
M  V30 2673 N 263.102 -1.41638 0.69111 0
M  V30 2674 C 264.348 -2.02104 0.229258 0
M  V30 2675 C 264.703 -1.53741 -1.15678 0
M  V30 2676 O 263.996 -0.736849 -1.76865 0
M  V30 2677 C 264.19 -3.56714 0.221277 0
M  V30 2678 C 264.019 -4.20083 1.605 0
M  V30 2679 C 262.789 -4.54566 2.20676 0
M  V30 2680 C 264.987 -4.46587 2.55078 0
M  V30 2681 N 262.969 -5.03199 3.5166 0
M  V30 2682 C 264.34 -4.96946 3.70735 0
M  V30 2683 C 266.395 -4.28593 2.53401 0
M  V30 2684 C 265.098 -5.31203 4.8499 0
M  V30 2685 C 267.124 -4.63936 3.66765 0
M  V30 2686 C 266.486 -5.14463 4.81152 0
M  V30 2687 H 262.585 -0.771256 0.12918 0
M  V30 2688 H 265.169 -1.72251 0.907626 0
M  V30 2689 H 263.34 -3.86051 -0.426562 0
M  V30 2690 H 265.072 -4.03896 -0.254983 0
M  V30 2691 H 261.827 -4.4087 1.73005 0
M  V30 2692 H 262.251 -5.31926 4.18789 0
M  V30 2693 H 266.893 -3.88771 1.66184 0
M  V30 2694 H 264.611 -5.69951 5.72871 0
M  V30 2695 H 268.197 -4.51677 3.66714 0
M  V30 2696 H 267.077 -5.41299 5.67419 0
M  V30 2697 N 264.58 -0.43555 -1.51462 0
M  V30 2698 C 265.805 0.132627 -2.06976 0
M  V30 2699 C 266.23 1.35848 -1.30104 0
M  V30 2700 O 265.588 1.78112 -0.338493 0
M  V30 2701 C 265.636 0.43523 -3.57964 0
M  V30 2702 O 264.74 1.52198 -3.83288 0
M  V30 2703 H 264.081 0.00265 -0.663995 0
M  V30 2704 H 266.611 -0.616369 -1.95095 0
M  V30 2705 H 266.621 0.686206 -4.02188 0
M  V30 2706 H 265.296 -0.460739 -4.1334 0
M  V30 2707 H 263.873 1.2611 -3.50928 0
M  V30 2708 N 266.058 1.56714 -0.166846 0
M  V30 2709 C 267.306 1.96358 0.478305 0
M  V30 2710 C 267.627 1.0537 1.6408 0
M  V30 2711 O 266.897 0.119154 1.95537 0
M  V30 2712 H 265.477 0.725065 0.179692 0
M  V30 2713 H 268.139 1.93329 -0.246985 0
M  V30 2714 H 267.235 3.00547 0.841292 0
M  V30 2715 N 267.536 -0.106894 1.57237 0
M  V30 2716 C 268.466 -1.13148 2.04254 0
M  V30 2717 C 269.447 -1.42476 0.929224 0
M  V30 2718 O 270.632 -1.52709 1.19973 0
M  V30 2719 C 267.762 -2.4545 2.45706 0
M  V30 2720 C 266.716 -2.30558 3.60592 0
M  V30 2721 C 266.042 -3.67931 3.87983 0
M  V30 2722 C 267.342 -1.75597 4.91897 0
M  V30 2723 H 269.036 -0.740374 2.90101 0
M  V30 2724 H 266.582 -0.354696 1.39563 0
M  V30 2725 H 268.535 -3.17389 2.77205 0
M  V30 2726 H 267.259 -2.86475 1.56843 0
M  V30 2727 H 265.918 -1.61067 3.29322 0
M  V30 2728 H 265.566 -4.06462 2.96306 0
M  V30 2729 H 265.266 -3.58817 4.65322 0
M  V30 2730 H 266.79 -4.41356 4.21945 0
M  V30 2731 H 268.204 -2.37364 5.21854 0
M  V30 2732 H 266.601 -1.77272 5.73319 0
M  V30 2733 H 267.671 -0.714451 4.79608 0
M  V30 2734 N 269.014 -1.53014 -0.377408 0
M  V30 2735 C 269.977 -1.77957 -1.44444 0
M  V30 2736 C 270.977 -0.649763 -1.47087 0
M  V30 2737 O 272.167 -0.917897 -1.48055 0
M  V30 2738 C 269.299 -1.89089 -2.83651 0
M  V30 2739 H 270.492 -2.73243 -1.23606 0
M  V30 2740 H 268.045 -1.43912 -0.609844 0
M  V30 2741 H 268.78 -0.958293 -3.09818 0
M  V30 2742 H 268.565 -2.71254 -2.83132 0
M  V30 2743 H 270.055 -2.1002 -3.60945 0
M  V30 2744 N 270.492 0.636531 -1.44174 0
M  V30 2745 C 271.74 1.39343 -1.46383 0
M  V30 2746 C 272.061 1.94766 -0.0955715 0
M  V30 2747 O 271.331 1.75452 0.871395 0
M  V30 2748 H 269.911 0.517199 -0.538994 0
M  V30 2749 H 272.573 0.74957 -1.7991 0
M  V30 2750 H 271.669 2.22746 -2.18611 0
M  V30 2751 N 271.97 1.30982 0.876444 0
M  V30 2752 C 273.218 1.20058 1.62575 0
M  V30 2753 C 273.539 -0.242947 1.93481 0
M  V30 2754 O 272.809 -1.1619 1.57724 0
M  V30 2755 H 271.389 0.44135 0.602677 0
M  V30 2756 H 274.051 1.64222 1.04962 0
M  V30 2757 H 273.147 1.76762 2.57219 0
M  V30 2758 N 273.449 -1.08991 1.13837 0
M  V30 2759 C 274.412 -2.13925 0.822715 0
M  V30 2760 C 275.412 -1.599 -0.1699 0
M  V30 2761 O 276.602 -1.74104 0.0577251 0
M  V30 2762 C 273.734 -3.40155 0.225318 0
M  V30 2763 H 274.927 -2.43358 1.75262 0
M  V30 2764 H 272.48 -1.24603 0.943594 0
M  V30 2765 H 273.215 -3.16352 -0.713594 0
M  V30 2766 H 273 -3.80661 0.940193 0
M  V30 2767 H 274.49 -4.17594 0.0214784 0
M  V30 2768 N 274.927 -0.932562 -1.27047 0
M  V30 2769 C 275.837 -0.441219 -2.30414 0
M  V30 2770 C 276.853 0.480525 -1.67233 0
M  V30 2771 O 278.029 0.362151 -1.98117 0
M  V30 2772 C 275.094 0.293651 -3.45454 0
M  V30 2773 C 274.155 -0.663601 -4.2414 0
M  V30 2774 C 273.388 0.0362932 -5.33688 0
M  V30 2775 O 273.611 1.2548 -5.56427 0
M  V30 2776 O 272.545 -0.638015 -5.98509 0
M  V30 2777 H 276.371 -1.29962 -2.74488 0
M  V30 2778 H 273.956 -0.6981 -1.32087 0
M  V30 2779 H 275.838 0.707951 -4.15411 0
M  V30 2780 H 274.513 1.12758 -3.03426 0
M  V30 2781 H 273.42 -1.12768 -3.56699 0
M  V30 2782 H 274.753 -1.46489 -4.69896 0
M  V30 2783 N 276.405 1.4127 -0.698611 0
M  V30 2784 C 277.633 2.05503 -0.239992 0
M  V30 2785 C 278.048 1.52584 1.11191 0
M  V30 2786 O 277.405 0.675323 1.69545 0
M  V30 2787 C 277.456 3.60987 -0.192429 0
M  V30 2788 O 277.177 4.1195 -1.49094 0
M  V30 2789 C 278.678 4.42371 0.28681 0
M  V30 2790 H 275.898 0.661748 -0.111045 0
M  V30 2791 H 278.442 1.80987 -0.95205 0
M  V30 2792 H 276.597 3.84533 0.470472 0
M  V30 2793 H 277.011 5.06018 -1.38007 0
M  V30 2794 H 278.485 5.51344 0.26896 0
M  V30 2795 H 278.962 4.18699 1.32619 0
M  V30 2796 H 279.568 4.23897 -0.345201 0
M  V30 2797 N 277.883 0.443576 1.51229 0
M  V30 2798 C 279.132 -0.122332 2.01329 0
M  V30 2799 C 279.445 -1.43237 1.33201 0
M  V30 2800 O 280.651 -2.0816 1.74304 0
M  V30 2801 C 279.107 -0.268551 3.58897 0
M  V30 2802 C 278.715 1.03142 4.35965 0
M  V30 2803 C 280.459 -0.787894 4.17124 0
M  V30 2804 C 278.366 0.850504 5.85252 0
M  V30 2805 H 277.296 -0.0494929 0.752374 0
M  V30 2806 H 279.947 0.574289 1.74282 0
M  V30 2807 H 278.329 -1.02832 3.82415 0
M  V30 2808 H 279.503 1.80001 4.24189 0
M  V30 2809 H 277.818 1.47977 3.89219 0
M  V30 2810 H 280.415 -0.939841 5.26375 0
M  V30 2811 H 280.758 -1.77201 3.76703 0
M  V30 2812 H 281.291 -0.0862669 3.97706 0
M  V30 2813 H 278.03 1.80718 6.30096 0
M  V30 2814 H 277.55 0.121825 5.99676 0
M  V30 2815 H 279.229 0.506163 6.45017 0
M  V30 2816 N 279.361 -1.56624 0.175154 0
M  V30 2817 C 280.291 -2.21155 -0.749195 0
M  V30 2818 C 281.272 -1.16836 -1.23626 0
M  V30 2819 O 282.457 -1.45277 -1.28873 0
M  V30 2820 C 279.587 -2.8553 -1.97711 0
M  V30 2821 C 278.541 -3.95921 -1.62575 0
M  V30 2822 C 277.867 -4.47365 -2.92864 0
M  V30 2823 C 279.167 -5.15323 -0.850838 0
M  V30 2824 H 280.861 -2.98653 -0.211295 0
M  V30 2825 H 278.407 -1.43651 -0.100188 0
M  V30 2826 H 280.36 -3.2935 -2.62881 0
M  V30 2827 H 279.084 -2.05406 -2.53921 0
M  V30 2828 H 277.743 -3.52762 -0.997719 0
M  V30 2829 H 277.391 -3.64027 -3.47122 0
M  V30 2830 H 277.091 -5.21839 -2.70106 0
M  V30 2831 H 278.615 -4.93873 -3.59056 0
M  V30 2832 H 280.029 -5.55812 -1.40521 0
M  V30 2833 H 278.426 -5.95739 -0.722154 0
M  V30 2834 H 279.496 -4.84661 0.152082 0
M  V30 2835 N 280.839 0.0985539 -1.57292 0
M  V30 2836 C 282.088 0.801358 -1.85098 0
M  V30 2837 C 282.401 1.80066 -0.763902 0
M  V30 2838 O 283.607 2.55112 -0.928981 0
M  V30 2839 C 282.063 1.47599 -3.28242 0
M  V30 2840 C 281.671 0.516624 -4.45011 0
M  V30 2841 C 283.415 2.16272 -3.65276 0
M  V30 2842 C 281.322 1.19564 -5.79188 0
M  V30 2843 H 280.252 0.303022 -0.69043 0
M  V30 2844 H 282.903 0.0542623 -1.8342 0
M  V30 2845 H 281.285 2.27042 -3.2445 0
M  V30 2846 H 282.459 -0.246065 -4.60143 0
M  V30 2847 H 280.774 -0.064227 -4.1635 0
M  V30 2848 H 283.371 2.67802 -4.62803 0
M  V30 2849 H 283.714 2.95009 -2.93727 0
M  V30 2850 H 284.247 1.43693 -3.70941 0
M  V30 2851 H 280.986 0.449157 -6.53959 0
M  V30 2852 H 280.506 1.92984 -5.67906 0
M  V30 2853 H 282.185 1.7231 -6.23633 0
M  V30 2854 N 282.317 1.53212 0.369288 0
M  V30 2855 C 283.728 1.60943 0.946276 0
M  V30 2856 C 284.079 0.47452 1.90375 0
M  V30 2857 O 283.204 -0.399597 2.12679 0
M  V30 2858 C 283.799 2.91715 1.72302 0
M  V30 2859 C 282.358 3.01792 2.24941 0
M  V30 2860 C 281.505 2.56211 1.06072 0
M  V30 2861 H 284.456 1.58007 0.148198 0
M  V30 2862 H 284.477 2.79309 2.58393 0
M  V30 2863 H 283.989 3.74295 1.0259 0
M  V30 2864 H 282.09 2.23791 2.97906 0
M  V30 2865 H 282.203 4.06803 2.53077 0
M  V30 2866 H 280.567 2.10998 1.4266 0
M  V30 2867 H 281.35 3.41206 0.378639 0
M  V30 2868 N 283.795 -0.628877 1.44509 0
M  V30 2869 C 284.705 -1.7694 1.54044 0
M  V30 2870 C 285.721 -1.68705 0.425987 0
M  V30 2871 O 286.897 -1.89442 0.683656 0
M  V30 2872 C 283.962 -3.13332 1.48405 0
M  V30 2873 C 283.023 -3.33181 2.70719 0
M  V30 2874 C 282.256 -4.63067 2.6534 0
M  V30 2875 O 282.479 -5.44017 1.71469 0
M  V30 2876 O 281.413 -4.85167 3.56226 0
M  V30 2877 H 285.239 -1.71848 2.50403 0
M  V30 2878 H 282.824 -0.790378 1.26781 0
M  V30 2879 H 284.706 -3.94634 1.47791 0
M  V30 2880 H 283.381 -3.1896 0.551898 0
M  V30 2881 H 282.288 -2.51549 2.769 0
M  V30 2882 H 283.621 -3.32416 3.62988 0
M  V30 2883 N 285.273 -1.31445 -0.869486 0
M  V30 2884 C 286.236 -1.19094 -1.9583 0
M  V30 2885 C 287.236 -0.117906 -1.60367 0
M  V30 2886 O 288.426 -0.367208 -1.70286 0
M  V30 2887 C 285.558 -0.828165 -3.30688 0
M  V30 2888 H 286.751 -2.15842 -2.08212 0
M  V30 2889 H 284.304 -1.15063 -1.05784 0
M  V30 2890 H 285.039 0.138142 -3.24006 0
M  V30 2891 H 284.824 -1.6038 -3.578 0
M  V30 2892 H 286.314 -0.765658 -4.10521 0
M  V30 2893 N 286.751 1.08385 -1.14413 0
M  V30 2894 C 288.028 1.77429 -0.823297 0
M  V30 2895 C 288.408 1.9974 0.683163 0
M  V30 2896 O 287.756 1.60739 1.62405 0
M  V30 2897 C 287.966 3.09004 -1.62227 0
M  V30 2898 C 289.314 3.83532 -1.82177 0
M  V30 2899 O 290.338 3.18786 -1.58915 0
M  V30 2900 O 289.197 4.99792 -2.21067 0
M  V30 2901 H 286.291 0.769999 -0.301712 0
M  V30 2902 H 288.837 1.14846 -1.24934 0
M  V30 2903 H 287.609 2.88316 -2.64555 0
M  V30 2904 H 287.232 3.79316 -1.19187 0
M  V30 2905 N 288.23 0.939286 1.26551 0
M  V30 2906 C 289.46 0.601663 1.97645 0
M  V30 2907 C 289.868 -0.827206 1.70159 0
M  V30 2908 O 289.211 -1.56291 0.965338 0
M  V30 2909 C 289.273 0.761725 3.51337 0
M  V30 2910 C 288.937 2.16487 4.0247 0
M  V30 2911 C 289.934 3.14016 4.14355 0
M  V30 2912 C 287.619 2.48494 4.36527 0
M  V30 2913 C 289.613 4.41654 4.59587 0
M  V30 2914 C 287.3 3.76364 4.81449 0
M  V30 2915 C 288.298 4.72758 4.92939 0
M  V30 2916 O 287.986 5.98352 5.36871 0
M  V30 2917 H 287.718 0.225758 0.637189 0
M  V30 2918 H 290.272 1.26178 1.62075 0
M  V30 2919 H 288.502 0.0444808 3.86674 0
M  V30 2920 H 290.191 0.427442 4.03643 0
M  V30 2921 H 290.957 2.90613 3.8829 0
M  V30 2922 H 286.836 1.74202 4.26819 0
M  V30 2923 H 290.38 5.16896 4.68471 0
M  V30 2924 H 286.277 3.99582 5.06956 0
M  V30 2925 H 287.045 6.01507 5.55096 0
M  V30 2926 N 289.708 -1.40897 0.706093 0
M  V30 2927 C 290.985 -1.94868 0.169099 0
M  V30 2928 C 291.365 -1.64485 -1.32318 0
M  V30 2929 O 290.713 -0.95744 -2.07474 0
M  V30 2930 C 290.923 -3.45798 0.471654 0
M  V30 2931 C 292.271 -4.22663 0.405127 0
M  V30 2932 O 293.295 -3.53865 0.407168 0
M  V30 2933 O 292.154 -5.45216 0.374383 0
M  V30 2934 H 289.248 -0.82673 0.0211352 0
M  V30 2935 H 291.794 -1.50558 0.782976 0
M  V30 2936 H 290.566 -3.61235 1.50416 0
M  V30 2937 H 290.189 -3.97225 -0.172666 0
M  V30 2938 N 291.186 -0.45159 -1.50991 0
M  V30 2939 C 292.119 0.398179 -2.24699 0
M  V30 2940 C 293.097 1.01276 -1.27208 0
M  V30 2941 O 294.281 1.05247 -1.56382 0
M  V30 2942 C 291.408 1.55618 -3.00833 0
M  V30 2943 C 290.454 1.0609 -4.13095 0
M  V30 2944 S 291.287 -0.00865136 -5.35499 0
M  V30 2945 C 292.443 1.15369 -6.15175 0
M  V30 2946 H 292.676 -0.227555 -2.96428 0
M  V30 2947 H 290.209 -0.236251 -1.52582 0
M  V30 2948 H 292.167 2.21997 -3.45293 0
M  V30 2949 H 290.828 2.15337 -2.28667 0
M  V30 2950 H 290.021 1.92726 -4.65696 0
M  V30 2951 H 289.623 0.47513 -3.7097 0
M  V30 2952 H 291.915 2.06925 -6.45126 0
M  V30 2953 H 292.858 0.667344 -7.04948 0
M  V30 2954 H 293.266 1.3987 -5.46897 0
M  V30 2955 N 292.664 1.56529 -0.183458 0
M  V30 2956 C 293.612 2.19873 0.758845 0
M  V30 2957 C 294.606 1.16638 1.22849 0
M  V30 2958 O 295.812 1.3481 1.19274 0
M  V30 2959 H 292.187 0.7045 0.263029 0
M  V30 2960 H 294.158 2.97724 0.200755 0
M  V30 2961 C 292.907 2.86314 1.9728 0
M  V30 2962 H 292.23 3.65487 1.62047 0
M  V30 2963 H 293.67 3.3409 2.61075 0
M  V30 2964 C 292.129 1.86729 2.80418 0
M  V30 2965 O 292.659 1.36031 3.77966 0
M  V30 2966 N 290.865 1.55216 2.45675 0
M  V30 2967 H 290.412 1.96636 1.66409 0
M  V30 2968 H 290.37 0.888388 3.01588 0
M  V30 2969 N 294.142 -0.090211 1.57342 0
M  V30 2970 C 295.419 -0.824761 1.77361 0
M  V30 2971 C 295.799 -1.96698 0.76637 0
M  V30 2972 O 295.147 -2.27586 -0.204179 0
M  V30 2973 C 295.357 -1.31481 3.23286 0
M  V30 2974 C 296.705 -1.75563 3.86604 0
M  V30 2975 O 297.729 -1.41093 3.27065 0
M  V30 2976 O 296.588 -2.39317 4.91314 0
M  V30 2977 H 293.682 -0.393776 0.727234 0
M  V30 2978 H 296.228 -0.0717138 1.69548 0
M  V30 2979 H 295 -0.496671 3.88135 0
M  V30 2980 H 294.623 -2.12973 3.35751 0
M  V30 2981 N 295.62 -1.53406 -0.361157 0
M  V30 2982 C 296.866 -1.70054 -1.10496 0
M  V30 2983 C 297.199 -0.453278 -1.88836 0
M  V30 2984 O 296.474 0.5495 -1.86576 0
M  V30 2985 C 296.757 -2.95317 -2.06058 0
M  V30 2986 C 296.61 -4.3021 -1.31298 0
M  V30 2987 C 297.929 -3.16193 -3.06121 0
M  V30 2988 H 295.048 -0.618799 -0.400321 0
M  V30 2989 H 297.69 -1.86052 -0.385318 0
M  V30 2990 H 295.84 -2.81809 -2.67425 0
M  V30 2991 H 297.512 -4.55538 -0.726807 0
M  V30 2992 H 295.755 -4.29421 -0.614853 0
M  V30 2993 H 296.426 -5.14 -2.01265 0
M  V30 2994 H 298.902 -3.28916 -2.5486 0
M  V30 2995 H 297.778 -4.05266 -3.70204 0
M  V30 2996 H 298.039 -2.31676 -3.76535 0
M  V30 2997 N 297.098 0.621204 -1.44841 0
M  V30 2998 C 298.347 1.37658 -1.47422 0
M  V30 2999 C 298.66 1.95264 -0.114629 0
M  V30 3000 O 299.866 2.71494 -0.0180199 0
M  V30 3001 C 298.322 2.49285 -2.59586 0
M  V30 3002 C 297.93 1.98149 -4.01797 0
M  V30 3003 C 299.674 3.26409 -2.71399 0
M  V30 3004 C 297.581 3.07178 -5.05367 0
M  V30 3005 H 296.511 0.517344 -0.548517 0
M  V30 3006 H 299.162 0.667257 -1.70938 0
M  V30 3007 H 297.544 3.22839 -2.29328 0
M  V30 3008 H 298.718 1.31395 -4.41669 0
M  V30 3009 H 297.033 1.33812 -3.94314 0
M  V30 3010 H 299.63 4.07706 -3.45948 0
M  V30 3011 H 299.973 3.76535 -1.77559 0
M  V30 3012 H 300.506 2.5995 -3.01116 0
M  V30 3013 H 297.245 2.61985 -6.00869 0
M  V30 3014 H 296.765 3.72542 -4.70077 0
M  V30 3015 H 298.444 3.71789 -5.29511 0
M  V30 3016 N 298.576 1.31904 0.862503 0
M  V30 3017 C 299.539 1.20131 1.95195 0
M  V30 3018 C 300.539 0.126409 1.60302 0
M  V30 3019 O 301.729 0.376234 1.70089 0
M  V30 3020 C 298.861 0.845691 3.30244 0
M  V30 3021 H 300.054 2.16943 2.07064 0
M  V30 3022 H 297.607 1.15622 1.05172 0
M  V30 3023 H 298.342 -0.120957 3.24074 0
M  V30 3024 H 298.127 1.62276 3.56944 0
M  V30 3025 H 299.617 0.787418 4.10109 0
M  V30 3026 N 300.054 -1.07777 1.14986 0
M  V30 3027 C 301.47 -1.32373 0.891596 0
M  V30 3028 C 301.67 -1.9609 -0.463788 0
M  V30 3029 O 300.726 -2.21801 -1.20667 0
M  V30 3030 C 302.039 -2.21905 2.02925 0
M  V30 3031 C 303.587 -2.35367 2.06329 0
M  V30 3032 C 304.062 -3.28245 3.19405 0
M  V30 3033 N 305.553 -3.35824 3.19024 0
M  V30 3034 C 306.288 -4.07739 4.03158 0
M  V30 3035 N 305.784 -4.82306 4.97346 0
M  V30 3036 N 307.577 -4.03635 3.91197 0
M  V30 3037 H 299.728 -0.648039 2.02273 0
M  V30 3038 H 301.991 -0.348149 0.881757 0
M  V30 3039 H 301.697 -1.82342 3.0074 0
M  V30 3040 H 301.571 -3.22407 1.95789 0
M  V30 3041 H 303.958 -2.74186 1.09116 0
M  V30 3042 H 304.039 -1.34585 2.17533 0
M  V30 3043 H 303.683 -2.90146 4.16867 0
M  V30 3044 H 303.613 -4.28971 3.05437 0
M  V30 3045 H 306.104 -2.8267 2.50811 0
M  V30 3046 H 306.417 -5.34661 5.57994 0
M  V30 3047 H 304.762 -4.81337 5.01338 0
M  V30 3048 H 307.953 -3.44491 3.16928 0
M  V30 3049 H 308.126 -4.59417 4.5699 0
M  V30 3050 N 301.532 -0.945985 -1.26051 0
M  V30 3051 C 302.462 -0.477172 -2.28572 0
M  V30 3052 C 303.443 0.472032 -1.63419 0
M  V30 3053 O 304.628 0.372853 -1.90587 0
M  V30 3054 C 301.758 0.253975 -3.4637 0
M  V30 3055 C 300.712 -0.609135 -4.23643 0
M  V30 3056 C 300.038 0.252252 -5.34105 0
M  V30 3057 C 301.338 -1.8829 -4.8718 0
M  V30 3058 H 303.032 -1.33402 -2.68038 0
M  V30 3059 H 300.578 -0.642904 -1.28852 0
M  V30 3060 H 302.531 0.593016 -4.17207 0
M  V30 3061 H 301.255 1.145 -3.05871 0
M  V30 3062 H 299.914 -0.931138 -3.54578 0
M  V30 3063 H 299.562 1.14278 -4.89846 0
M  V30 3064 H 299.262 -0.32188 -5.86718 0
M  V30 3065 H 300.786 0.586454 -6.07777 0
M  V30 3066 H 302.2 -1.61081 -5.50205 0
M  V30 3067 H 300.597 -2.40199 -5.49931 0
M  V30 3068 H 301.667 -2.59134 -4.09851 0
M  V30 3069 N 303.011 1.40521 -0.713556 0
M  V30 3070 C 303.958 2.30723 -0.059684 0
M  V30 3071 C 304.928 1.48079 0.752448 0
M  V30 3072 O 306.113 1.76823 0.71681 0
M  V30 3073 C 303.253 3.34274 0.857594 0
M  V30 3074 C 302.366 4.31986 0.0351536 0
M  V30 3075 C 301.501 5.22605 0.951724 0
M  V30 3076 C 300.54 6.11976 0.123253 0
M  V30 3077 N 299.677 6.9502 0.99459 0
M  V30 3078 H 304.517 2.86074 -0.834596 0
M  V30 3079 H 302.054 1.40879 -0.42326 0
M  V30 3080 H 304.012 3.92879 1.40364 0
M  V30 3081 H 302.642 2.8043 1.59871 0
M  V30 3082 H 301.694 3.7518 -0.628052 0
M  V30 3083 H 303.006 4.95101 -0.606347 0
M  V30 3084 H 302.16 5.86131 1.56638 0
M  V30 3085 H 300.899 4.59759 1.62705 0
M  V30 3086 H 299.904 5.47482 -0.50435 0
M  V30 3087 H 301.129 6.76881 -0.548539 0
M  V30 3088 H 299.075 6.34764 1.6556 0
M  V30 3089 H 298.992 7.54892 0.40908 0
M  V30 3090 H 300.26 7.62997 1.59549 0
M  V30 3091 N 304.489 0.459591 1.5075 0
M  V30 3092 C 305.905 0.113092 1.59199 0
M  V30 3093 C 306.105 -1.37951 1.46874 0
M  V30 3094 O 305.161 -2.15168 1.32132 0
M  V30 3095 C 306.474 0.653043 2.93523 0
M  V30 3096 C 308.022 0.615449 3.0689 0
M  V30 3097 C 308.497 1.13275 4.43771 0
M  V30 3098 N 309.988 1.09167 4.50152 0
M  V30 3099 C 310.723 1.46256 5.54434 0
M  V30 3100 N 310.219 1.90739 6.66026 0
M  V30 3101 N 312.012 1.37932 5.44914 0
M  V30 3102 H 304.163 1.43049 1.57005 0
M  V30 3103 H 306.426 0.590861 0.741341 0
M  V30 3104 H 306.132 1.69822 3.07983 0
M  V30 3105 H 306.006 0.0902132 3.77092 0
M  V30 3106 H 308.393 -0.420793 2.92084 0
M  V30 3107 H 308.474 1.21495 2.25106 0
M  V30 3108 H 308.118 2.16757 4.59324 0
M  V30 3109 H 308.048 0.509576 5.24129 0
M  V30 3110 H 310.539 0.76528 3.7007 0
M  V30 3111 H 310.852 2.17218 7.41644 0
M  V30 3112 H 309.197 1.94683 6.67176 0
M  V30 3113 H 312.388 1.0303 4.56621 0
M  V30 3114 H 312.561 1.67164 6.26067 0
M  V30 3115 N 305.967 -1.56429 0.191757 0
M  V30 3116 C 307.215 -1.97095 -0.447006 0
M  V30 3117 C 307.536 -1.07967 -1.62383 0
M  V30 3118 O 306.806 -0.150248 -1.95323 0
M  V30 3119 H 305.386 -0.727832 -0.168135 0
M  V30 3120 H 308.048 -1.92911 0.27771 0
M  V30 3121 H 307.144 -3.01848 -0.793371 0
M  V30 3122 N 307.445 0.0818655 -1.57387 0
M  V30 3123 C 308.395 1.10501 -1.99433 0
M  V30 3124 C 309.379 1.35041 -0.874798 0
M  V30 3125 O 310.571 1.35511 -1.13868 0
M  V30 3126 C 307.7 2.42159 -2.43339 0
M  V30 3127 C 306.786 2.20937 -3.62005 0
M  V30 3128 N 307.177 1.69616 -4.76512 0
M  V30 3129 C 305.475 2.51451 -3.68359 0
M  V30 3130 C 306.176 1.62973 -5.58404 0
M  V30 3131 N 305.152 2.08664 -5.01956 0
M  V30 3132 H 308.954 0.701373 -2.85408 0
M  V30 3133 H 306.468 0.289096 -1.59806 0
M  V30 3134 H 308.465 3.16208 -2.71695 0
M  V30 3135 H 307.125 2.83249 -1.58746 0
M  V30 3136 H 308.136 1.38624 -4.99003 0
M  V30 3137 H 304.813 2.95975 -2.94457 0
M  V30 3138 H 306.203 1.24233 -6.60315 0
M  V30 3139 N 308.923 1.53595 0.353017 0
M  V30 3140 C 309.833 1.83897 1.45667 0
M  V30 3141 C 310.849 0.728334 1.58023 0
M  V30 3142 O 312.025 1.01968 1.73679 0
M  V30 3143 C 309.09 2.03383 2.80778 0
M  V30 3144 C 308.151 3.27262 2.77845 0
M  V30 3145 C 307.384 3.45809 4.06512 0
M  V30 3146 O 307.607 2.68387 5.03314 0
M  V30 3147 O 306.541 4.39207 4.11559 0
M  V30 3148 H 310.367 2.77686 1.2298 0
M  V30 3149 H 307.952 1.39132 0.544308 0
M  V30 3150 H 309.834 2.17698 3.60812 0
M  V30 3151 H 308.509 1.12783 3.03417 0
M  V30 3152 H 307.416 3.18359 1.96465 0
M  V30 3153 H 308.749 4.17824 2.60161 0
M  V30 3154 N 310.401 -0.613514 1.45168 0
M  V30 3155 C 311.817 -0.933629 1.29443 0
M  V30 3156 C 312.017 -2.00028 0.243101 0
M  V30 3157 O 311.073 -2.49848 -0.364992 0
M  V30 3158 C 312.386 -1.38018 2.67155 0
M  V30 3159 C 313.934 -1.49471 2.75004 0
M  V30 3160 C 314.409 -1.97503 4.13227 0
M  V30 3161 N 315.9 -2.04746 4.15491 0
M  V30 3162 C 316.635 -2.43121 5.19307 0
M  V30 3163 N 316.131 -2.80506 6.33473 0
M  V30 3164 N 317.924 -2.43408 5.06664 0
M  V30 3165 H 310.075 0.0916097 2.12202 0
M  V30 3166 H 312.338 -0.0216655 0.947752 0
M  V30 3167 H 312.044 -0.670625 3.45247 0
M  V30 3168 H 311.918 -2.34784 2.95222 0
M  V30 3169 H 314.305 -2.19519 1.9722 0
M  V30 3170 H 314.386 -0.510342 2.50657 0
M  V30 3171 H 314.03 -1.28045 4.91495 0
M  V30 3172 H 313.96 -2.96843 4.34962 0
M  V30 3173 H 316.451 -1.78468 3.33103 0
M  V30 3174 H 316.764 -3.08652 7.08487 0
M  V30 3175 H 315.109 -2.78216 6.36884 0
M  V30 3176 H 318.3 -2.13604 4.16523 0
M  V30 3177 H 318.473 -2.72989 5.87691 0
M  V30 3178 N 311.879 -1.3236 -0.855495 0
M  V30 3179 C 313.127 -1.22629 -1.60644 0
M  V30 3180 C 313.448 0.212136 -1.93843 0
M  V30 3181 O 312.718 1.13666 -1.59552 0
M  V30 3182 H 311.298 -0.450882 -0.595579 0
M  V30 3183 H 313.96 -1.65871 -1.02337 0
M  V30 3184 H 313.056 -1.80832 -2.54374 0
M  V30 3185 N 313.357 1.07166 -1.15556 0
M  V30 3186 C 314.304 2.14417 -0.854055 0
M  V30 3187 C 315.274 1.64965 0.193806 0
M  V30 3188 O 316.459 1.90703 0.0609443 0
M  V30 3189 C 313.599 3.43304 -0.351574 0
M  V30 3190 C 312.712 4.06537 -1.46123 0
M  V30 3191 C 311.847 5.23266 -0.914677 0
M  V30 3192 C 310.886 5.78464 -2.00114 0
M  V30 3193 N 310.023 6.86521 -1.47083 0
M  V30 3194 H 314.863 2.39548 -1.77259 0
M  V30 3195 H 312.4 1.17543 -0.884425 0
M  V30 3196 H 314.358 4.17179 -0.0419409 0
M  V30 3197 H 312.988 3.18419 0.530037 0
M  V30 3198 H 312.04 3.30297 -1.88701 0
M  V30 3199 H 313.352 4.43567 -2.28144 0
M  V30 3200 H 312.506 6.04131 -0.557698 0
M  V30 3201 H 311.245 4.87658 -0.0636583 0
M  V30 3202 H 310.25 4.96243 -2.36692 0
M  V30 3203 H 311.475 6.16126 -2.85597 0
M  V30 3204 H 309.421 6.52849 -0.642198 0
M  V30 3205 H 309.338 7.22446 -2.22729 0
M  V30 3206 H 310.606 7.71087 -1.14215 0
M  V30 3207 N 314.835 0.952656 1.25548 0
M  V30 3208 C 315.782 0.47008 2.25962 0
M  V30 3209 C 316.752 -0.476384 1.59122 0
M  V30 3210 O 317.937 -0.39007 1.8677 0
M  V30 3211 C 315.077 -0.247881 3.44209 0
M  V30 3212 C 314.19 0.735591 4.25691 0
M  V30 3213 C 313.325 -0.0047306 5.312 0
M  V30 3214 C 312.364 0.969805 6.04368 0
M  V30 3215 N 311.501 0.260486 7.01617 0
M  V30 3216 H 316.341 1.33126 2.66611 0
M  V30 3217 H 313.878 0.66765 1.31076 0
M  V30 3218 H 315.836 -0.680695 4.1161 0
M  V30 3219 H 314.466 -1.07312 3.0444 0
M  V30 3220 H 313.518 1.28689 3.57971 0
M  V30 3221 H 314.83 1.47934 4.76358 0
M  V30 3222 H 313.984 -0.496275 6.04667 0
M  V30 3223 H 312.723 -0.781282 4.81401 0
M  V30 3224 H 311.728 1.47237 5.29718 0
M  V30 3225 H 312.953 1.74655 6.56256 0
M  V30 3226 H 310.899 -0.497364 6.54112 0
M  V30 3227 H 310.816 0.943362 7.50091 0
M  V30 3228 H 312.084 -0.209587 7.79218 0
M  V30 3229 N 316.313 -1.40141 0.720998 0
M  V30 3230 C 317.263 -2.27949 0.0482544 0
M  V30 3231 C 318.247 -1.43538 -0.727021 0
M  V30 3232 O 319.439 -1.6658 -0.598332 0
M  V30 3233 C 316.568 -3.32126 -0.868729 0
M  V30 3234 C 315.654 -4.24008 -0.0883515 0
M  V30 3235 N 316.045 -4.97154 0.931226 0
M  V30 3236 C 314.343 -4.4485 -0.320105 0
M  V30 3237 C 315.044 -5.64587 1.4006 0
M  V30 3238 N 314.02 -5.38787 0.721752 0
M  V30 3239 H 317.822 -2.81948 0.829609 0
M  V30 3240 H 315.336 -1.52656 0.554067 0
M  V30 3241 H 317.333 -3.93884 -1.36605 0
M  V30 3242 H 315.993 -2.79687 -1.6494 0
M  V30 3243 H 317.004 -5.01 1.31222 0
M  V30 3244 H 313.681 -4.03378 -1.07668 0
M  V30 3245 H 315.071 -6.33175 2.24808 0
M  V30 3246 N 317.792 -0.46758 -1.50504 0
M  V30 3247 C 319.017 0.0886943 -2.0721 0
M  V30 3248 C 319.442 1.33057 -1.32956 0
M  V30 3249 O 318.8 1.77354 -0.376197 0
M  V30 3250 C 318.848 0.359202 -3.58806 0
M  V30 3251 O 317.952 1.44034 -3.8643 0
M  V30 3252 H 317.293 -0.0114349 -0.663902 0
M  V30 3253 H 319.823 -0.657613 -1.93744 0
M  V30 3254 H 319.833 0.600742 -4.03553 0
M  V30 3255 H 318.508 -0.548311 -4.1227 0
M  V30 3256 H 317.085 1.18638 -3.53524 0
M  V30 3257 N 319.27 1.56325 -0.20005 0
M  V30 3258 C 320.519 1.96895 0.437652 0
M  V30 3259 C 320.832 1.08999 1.62415 0
M  V30 3260 O 322.038 1.39372 2.32997 0
M  V30 3261 C 320.494 3.50198 0.830025 0
M  V30 3262 C 320.102 4.46765 -0.332461 0
M  V30 3263 C 321.846 3.99526 1.43453 0
M  V30 3264 C 319.753 5.91344 0.0811468 0
M  V30 3265 H 318.683 0.735209 0.167282 0
M  V30 3266 H 321.334 1.81148 -0.292853 0
M  V30 3267 H 319.716 3.61467 1.61734 0
M  V30 3268 H 320.89 4.47231 -1.11 0
M  V30 3269 H 319.205 4.07657 -0.848789 0
M  V30 3270 H 321.802 5.05025 1.75652 0
M  V30 3271 H 322.145 3.44122 2.34277 0
M  V30 3272 H 322.678 3.91393 0.71109 0
M  V30 3273 H 319.417 6.50685 -0.793033 0
M  V30 3274 H 318.937 5.94121 0.823445 0
M  V30 3275 H 320.616 6.44945 0.515252 0
M  V30 3276 N 320.748 -0.0735177 1.57428 0
M  V30 3277 C 321.997 -0.771809 1.86349 0
M  V30 3278 C 322.31 -1.78828 0.792452 0
M  V30 3279 O 323.516 -2.53602 0.96945 0
M  V30 3280 C 321.972 -1.42358 3.30548 0
M  V30 3281 C 321.58 -0.445761 4.45777 0
M  V30 3282 C 323.324 -2.10434 3.6867 0
M  V30 3283 C 321.231 -1.10335 5.81016 0
M  V30 3284 H 320.161 -0.291999 0.695164 0
M  V30 3285 H 322.812 -0.0250749 1.83483 0
M  V30 3286 H 321.194 -2.21852 3.28021 0
M  V30 3287 H 322.368 0.319239 4.59693 0
M  V30 3288 H 320.683 0.130457 4.16196 0
M  V30 3289 H 323.28 -2.60405 4.67004 0
M  V30 3290 H 323.623 -2.90298 2.98383 0
M  V30 3291 H 324.156 -1.37773 3.7318 0
M  V30 3292 H 320.895 -0.345061 6.54591 0
M  V30 3293 H 320.415 -1.83925 5.70904 0
M  V30 3294 H 322.094 -1.62367 6.26295 0
M  V30 3295 N 322.226 -1.5378 -0.344866 0
M  V30 3296 C 323.475 -1.7018 -1.08267 0
M  V30 3297 C 323.788 -0.471 -1.89845 0
M  V30 3298 O 324.994 -0.515917 -2.66553 0
M  V30 3299 C 323.45 -3.00923 -1.97417 0
M  V30 3300 C 323.058 -4.31335 -1.21053 0
M  V30 3301 C 324.802 -3.26688 -2.71063 0
M  V30 3302 C 322.709 -5.53153 -2.09225 0
M  V30 3303 H 321.639 -0.634138 -0.407903 0
M  V30 3304 H 324.29 -1.8028 -0.342246 0
M  V30 3305 H 322.672 -2.84676 -2.75274 0
M  V30 3306 H 323.846 -4.58281 -0.481159 0
M  V30 3307 H 322.161 -4.12173 -0.591813 0
M  V30 3308 H 324.758 -4.1489 -3.37299 0
M  V30 3309 H 325.101 -2.43639 -3.37558 0
M  V30 3310 H 325.634 -3.43705 -2.0028 0
M  V30 3311 H 322.373 -6.38741 -1.47274 0
M  V30 3312 H 321.893 -5.30458 -2.79955 0
M  V30 3313 H 323.572 -5.88744 -2.68308 0
M  V30 3314 N 323.704 0.605807 -1.45491 0
M  V30 3315 C 324.95 1.36679 -1.49823 0
M  V30 3316 C 325.283 1.93693 -0.140175 0
M  V30 3317 O 324.558 1.75158 0.845581 0
M  V30 3318 C 324.841 2.51337 -2.57879 0
M  V30 3319 C 324.694 1.99508 -4.03134 0
M  V30 3320 C 326.013 3.53463 -2.62205 0
M  V30 3321 H 323.132 0.495617 -0.545466 0
M  V30 3322 H 325.774 0.682732 -1.7731 0
M  V30 3323 H 323.924 3.09691 -2.34571 0
M  V30 3324 H 325.596 1.45789 -4.37656 0
M  V30 3325 H 323.839 1.30496 -4.13707 0
M  V30 3326 H 324.51 2.82169 -4.74431 0
M  V30 3327 H 326.986 3.04953 -2.83095 0
M  V30 3328 H 325.862 4.31178 -3.39672 0
M  V30 3329 H 326.123 4.09197 -1.67363 0
M  V30 3330 N 325.182 1.32811 0.848464 0
M  V30 3331 C 326.145 1.22194 1.9391 0
M  V30 3332 C 327.145 0.143404 1.60159 0
M  V30 3333 O 328.335 0.394253 1.6968 0
M  V30 3334 C 325.467 0.88067 3.29328 0
M  V30 3335 H 326.66 2.19127 2.04752 0
M  V30 3336 H 324.213 1.16731 1.0394 0
M  V30 3337 H 324.948 -0.0865776 3.24184 0
M  V30 3338 H 324.733 1.66052 3.55203 0
M  V30 3339 H 326.223 0.830871 4.09251 0
M  V30 3340 N 326.66 -1.06551 1.16123 0
M  V30 3341 C 327.57 -2.17484 0.879662 0
M  V30 3342 C 328.586 -1.73377 -0.147104 0
M  V30 3343 O 329.762 -2.01379 0.0289128 0
M  V30 3344 C 326.827 -3.44591 0.381829 0
M  V30 3345 C 325.888 -4.0322 1.4735 0
M  V30 3346 C 325.121 -5.24261 0.999324 0
M  V30 3347 O 325.344 -5.70198 -0.151957 0
M  V30 3348 O 324.278 -5.74775 1.78653 0
M  V30 3349 H 328.104 -2.44075 1.80724 0
M  V30 3350 H 325.689 -1.16042 0.940992 0
M  V30 3351 H 327.571 -4.21254 0.111053 0
M  V30 3352 H 326.246 -3.19532 -0.51777 0
M  V30 3353 H 325.153 -3.2806 1.79798 0
M  V30 3354 H 326.486 -4.32568 2.34831 0
M  V30 3355 N 328.138 -0.959301 -1.25041 0
M  V30 3356 C 329.386 -0.615393 -1.92503 0
M  V30 3357 C 329.707 0.850969 -1.75452 0
M  V30 3358 O 328.977 1.60658 -1.12098 0
M  V30 3359 H 327.557 -0.224613 -0.712431 0
M  V30 3360 H 330.219 -1.21855 -1.5211 0
M  V30 3361 H 329.315 -0.848738 -3.00338 0
M  V30 3362 N 329.616 1.39756 -0.72842 0
M  V30 3363 C 330.862 2.00942 -0.273892 0
M  V30 3364 C 331.195 1.57656 1.13394 0
M  V30 3365 O 330.47 0.802434 1.77176 0
M  V30 3366 C 330.753 3.58211 -0.368346 0
M  V30 3367 C 330.606 4.11534 -1.81548 0
M  V30 3368 C 331.925 4.39372 0.253054 0
M  V30 3369 H 329.044 0.730047 -0.100996 0
M  V30 3370 H 331.686 1.66056 -0.923337 0
M  V30 3371 H 329.836 3.88061 0.184588 0
M  V30 3372 H 331.508 3.92431 -2.42478 0
M  V30 3373 H 329.751 3.65341 -2.33898 0
M  V30 3374 H 330.422 5.20682 -1.83288 0
M  V30 3375 H 332.898 4.15527 -0.218224 0
M  V30 3376 H 331.774 5.48677 0.156585 0
M  V30 3377 H 332.035 4.21358 1.33826 0
M  V30 3378 N 331.094 0.475555 1.50254 0
M  V30 3379 C 332.342 -0.077738 2.0195 0
M  V30 3380 C 332.663 -1.39813 1.35931 0
M  V30 3381 O 331.933 -1.89249 0.506123 0
M  V30 3382 H 330.513 -0.031719 0.746326 0
M  V30 3383 H 333.175 0.626995 1.84539 0
M  V30 3384 H 332.271 -0.225995 3.11281 0
M  V30 3385 N 332.573 -1.56217 0.208337 0
M  V30 3386 C 333.798 -2.02782 -0.435222 0
M  V30 3387 C 334.223 -1.08738 -1.53485 0
M  V30 3388 O 333.581 -0.0731855 -1.81152 0
M  V30 3389 C 333.629 -3.47687 -0.956335 0
M  V30 3390 O 332.733 -3.56773 -2.06849 0
M  V30 3391 H 332.074 -0.656403 -0.100158 0
M  V30 3392 H 334.604 -2.02033 0.3231 0
M  V30 3393 H 334.614 -3.87745 -1.26955 0
M  V30 3394 H 333.289 -4.15624 -0.15143 0
M  V30 3395 H 331.866 -3.28597 -1.76292 0
M  V30 3396 N 334.051 0.0651679 -1.57465 0
M  V30 3397 C 335.299 0.761555 -1.87202 0
M  V30 3398 C 335.62 1.77778 -0.801243 0
M  V30 3399 O 334.89 1.95166 0.16937 0
M  V30 3400 H 333.47 0.284251 -0.690804 0
M  V30 3401 H 336.132 0.0396827 -1.9486 0
M  V30 3402 H 335.228 1.27365 -2.84929 0
M  V30 3403 N 335.529 1.53961 0.336706 0
M  V30 3404 C 336.775 1.7179 1.07777 0
M  V30 3405 C 337.108 0.483263 1.88091 0
M  V30 3406 O 336.383 -0.519747 1.87427 0
M  V30 3407 C 336.666 2.98558 2.01334 0
M  V30 3408 C 336.519 4.32245 1.24437 0
M  V30 3409 C 337.838 3.21023 3.01052 0
M  V30 3410 H 334.957 0.625089 0.390426 0
M  V30 3411 H 337.599 1.86641 0.35567 0
M  V30 3412 H 335.749 2.86028 2.62908 0
M  V30 3413 H 337.421 4.56637 0.654243 0
M  V30 3414 H 335.664 4.30344 0.546458 0
M  V30 3415 H 336.335 5.17137 1.93063 0
M  V30 3416 H 338.811 3.32929 2.49595 0
M  V30 3417 H 337.687 4.11104 3.6371 0
M  V30 3418 H 337.948 2.37637 3.72802 0
M  V30 3419 N 337.007 -0.598083 1.45811 0
M  V30 3420 C 338.284 -1.35777 1.40797 0
M  V30 3421 C 338.664 -2.10935 0.083462 0
M  V30 3422 O 338.012 -2.08505 -0.934763 0
M  V30 3423 C 338.222 -2.29666 2.62783 0
M  V30 3424 C 339.57 -2.91977 3.08277 0
M  V30 3425 O 340.594 -2.39984 2.63223 0
M  V30 3426 O 339.453 -3.86376 3.86491 0
M  V30 3427 H 336.547 -0.609291 0.55919 0
M  V30 3428 H 339.093 -0.620379 1.57954 0
M  V30 3429 H 337.865 -1.73454 3.50756 0
M  V30 3430 H 337.488 -3.1077 2.48008 0
M  V30 3431 N 338.485 -1.33259 -0.841409 0
M  V30 3432 C 339.732 -1.24572 -1.5965 0
M  V30 3433 C 340.06 0.189137 -1.93578 0
M  V30 3434 O 339.315 1.14566 -1.5866 0
M  V30 3435 C 339.614 -2.06381 -2.9179 0
M  V30 3436 C 339.28 -3.556 -2.77235 0
M  V30 3437 C 337.942 -3.96282 -2.72973 0
M  V30 3438 C 340.294 -4.50433 -2.62221 0
M  V30 3439 C 337.622 -5.30017 -2.51592 0
M  V30 3440 C 339.974 -5.84327 -2.42374 0
M  V30 3441 C 338.638 -6.24194 -2.36512 0
M  V30 3442 H 337.908 -0.455842 -0.5842 0
M  V30 3443 H 340.555 -1.6482 -0.975016 0
M  V30 3444 H 338.86 -1.58903 -3.5813 0
M  V30 3445 H 340.557 -1.97019 -3.49263 0
M  V30 3446 H 337.147 -3.23298 -2.81384 0
M  V30 3447 H 341.331 -4.19914 -2.64549 0
M  V30 3448 H 336.587 -5.59947 -2.45499 0
M  V30 3449 H 340.761 -6.57414 -2.29739 0
M  V30 3450 H 338.388 -7.27759 -2.19706 0
M  V30 3451 N 339.963 1.05934 -1.16686 0
M  V30 3452 C 341.211 1.78447 -0.948744 0
M  V30 3453 C 341.532 1.87813 0.524523 0
M  V30 3454 O 340.802 1.38945 1.38098 0
M  V30 3455 H 339.382 0.660971 -0.348033 0
M  V30 3456 H 342.044 1.27947 -1.47022 0
M  V30 3457 H 341.14 2.80394 -1.37061 0
M  V30 3458 N 341.441 0.965919 1.2453 0
M  V30 3459 C 342.857 0.67216 1.44756 0
M  V30 3460 C 343.057 -0.766609 1.86347 0
M  V30 3461 O 342.113 -1.5407 2.00047 0
M  V30 3462 C 343.426 1.65473 2.51076 0
M  V30 3463 C 344.974 1.66716 2.64905 0
M  V30 3464 C 345.449 2.63766 3.74421 0
M  V30 3465 N 346.94 2.62198 3.81846 0
M  V30 3466 C 347.675 3.33966 4.66106 0
M  V30 3467 N 347.171 4.15245 5.54566 0
M  V30 3468 N 348.964 3.22799 4.60171 0
M  V30 3469 H 341.115 1.89553 0.958293 0
M  V30 3470 H 343.378 0.815979 0.482579 0
M  V30 3471 H 343.084 2.68296 2.27399 0
M  V30 3472 H 342.958 1.4261 3.49202 0
M  V30 3473 H 345.345 0.646057 2.87941 0
M  V30 3474 H 345.426 1.93642 1.67142 0
M  V30 3475 H 345.07 3.6601 3.52135 0
M  V30 3476 H 345 2.34121 4.71694 0
M  V30 3477 H 347.491 2.032 3.18619 0
M  V30 3478 H 347.804 4.66898 6.15814 0
M  V30 3479 H 346.149 4.1934 5.54237 0
M  V30 3480 H 349.34 2.58764 3.90075 0
M  V30 3481 H 349.513 3.78994 5.25612 0
M  V30 3482 N 342.919 -1.39368 0.735821 0
M  V30 3483 C 343.851 -2.2913 0.0567723 0
M  V30 3484 C 344.864 -1.46859 -0.702589 0
M  V30 3485 O 346.053 -1.69925 -0.546616 0
M  V30 3486 C 343.153 -3.25492 -0.943823 0
M  V30 3487 C 342.326 -4.36709 -0.24581 0
M  V30 3488 C 341.385 -5.13376 -1.15463 0
M  V30 3489 O 340.411 -5.65683 -0.631803 0
M  V30 3490 N 341.613 -5.24656 -2.48427 0
M  V30 3491 H 344.378 -2.88047 0.827582 0
M  V30 3492 H 341.939 -1.50957 0.585112 0
M  V30 3493 H 343.931 -3.73657 -1.55443 0
M  V30 3494 H 342.501 -2.676 -1.61583 0
M  V30 3495 H 341.721 -3.9041 0.545286 0
M  V30 3496 H 343.009 -5.08244 0.237891 0
M  V30 3497 H 342.407 -4.83679 -2.93379 0
M  V30 3498 H 340.964 -5.76258 -3.04582 0
M  V30 3499 N 344.397 -0.483516 -1.5 0
M  V30 3500 C 345.646 0.0689102 -2.01582 0
M  V30 3501 C 345.959 1.39655 -1.36952 0
M  V30 3502 O 347.165 2.03465 -1.79762 0
M  V30 3503 C 345.621 0.173302 -3.59483 0
M  V30 3504 C 345.229 -1.14665 -4.33077 0
M  V30 3505 C 346.973 0.677024 -4.19066 0
M  V30 3506 C 344.88 -1.00537 -5.82792 0
M  V30 3507 H 343.81 0.0295277 -0.753422 0
M  V30 3508 H 346.461 -0.620295 -1.72698 0
M  V30 3509 H 344.843 0.926569 -3.85007 0
M  V30 3510 H 346.017 -1.91184 -4.19268 0
M  V30 3511 H 344.332 -1.58244 -3.85159 0
M  V30 3512 H 346.929 0.799952 -5.28682 0
M  V30 3513 H 347.272 1.67151 -3.81269 0
M  V30 3514 H 347.805 -0.0192083 -3.97795 0
M  V30 3515 H 344.544 -1.9736 -6.25083 0
M  V30 3516 H 344.064 -0.280776 -5.99142 0
M  V30 3517 H 345.743 -0.677 -6.43448 0
M  V30 3518 N 345.875 1.56104 -0.216619 0
M  V30 3519 C 346.807 2.17339 0.72776 0
M  V30 3520 C 347.82 1.14109 1.16116 0
M  V30 3521 O 349.009 1.4111 1.09317 0
M  V30 3522 C 346.109 2.73818 1.99693 0
M  V30 3523 C 345.282 4.02168 1.71988 0
M  V30 3524 C 344.341 4.43259 2.83562 0
M  V30 3525 O 343.367 5.10257 2.52244 0
M  V30 3526 N 344.569 4.08535 4.12407 0
M  V30 3527 H 347.334 2.99005 0.203983 0
M  V30 3528 H 344.895 1.61861 -0.0354289 0
M  V30 3529 H 346.887 2.9828 2.73516 0
M  V30 3530 H 345.457 1.96483 2.43132 0
M  V30 3531 H 344.677 3.85612 0.818337 0
M  V30 3532 H 345.965 4.85907 1.50903 0
M  V30 3533 H 345.363 3.54687 4.40696 0
M  V30 3534 H 343.92 4.37901 4.8279 0
M  V30 3535 N 347.353 -0.0568162 1.57498 0
M  V30 3536 C 348.263 -1.08346 2.08083 0
M  V30 3537 C 349.279 -1.41439 1.01346 0
M  V30 3538 O 350.455 -1.51316 1.32912 0
M  V30 3539 C 347.52 -2.37352 2.52715 0
M  V30 3540 C 346.581 -2.11093 3.73816 0
M  V30 3541 C 345.814 -3.33949 4.1631 0
M  V30 3542 O 346.037 -4.43622 3.58547 0
M  V30 3543 O 344.971 -3.21279 5.08983 0
M  V30 3544 H 348.797 -0.683667 2.95905 0
M  V30 3545 H 346.382 -0.271965 1.46904 0
M  V30 3546 H 348.264 -3.13246 2.81877 0
M  V30 3547 H 346.939 -2.76681 1.68016 0
M  V30 3548 H 345.846 -1.32856 3.49714 0
M  V30 3549 H 347.179 -1.76637 4.59413 0
M  V30 3550 N 348.832 -1.54138 -0.328536 0
M  V30 3551 C 349.795 -1.82462 -1.38709 0
M  V30 3552 C 350.795 -0.696229 -1.44946 0
M  V30 3553 O 351.985 -0.964535 -1.4506 0
M  V30 3554 C 349.117 -1.98018 -2.77492 0
M  V30 3555 H 350.31 -2.77037 -1.14851 0
M  V30 3556 H 347.863 -1.45779 -0.563751 0
M  V30 3557 H 348.598 -1.05637 -3.06613 0
M  V30 3558 H 348.383 -2.80124 -2.74359 0
M  V30 3559 H 349.873 -2.21396 -3.54081 0
M  V30 3560 N 350.31 0.590341 -1.46126 0
M  V30 3561 C 351.538 1.37504 -1.54597 0
M  V30 3562 C 351.953 1.87897 -0.184447 0
M  V30 3563 O 351.31 1.63192 0.816984 0
M  V30 3564 C 351.361 2.56779 -2.54454 0
M  V30 3565 O 351.082 2.08476 -3.85317 0
M  V30 3566 C 352.583 3.49427 -2.72792 0
M  V30 3567 H 349.803 0.420325 -0.523037 0
M  V30 3568 H 352.347 0.718383 -1.91467 0
M  V30 3569 H 350.502 3.1845 -2.20609 0
M  V30 3570 H 350.916 2.86097 -4.396 0
M  V30 3571 H 352.39 4.29619 -3.466 0
M  V30 3572 H 352.867 4.00876 -1.79429 0
M  V30 3573 H 353.473 2.93598 -3.07702 0
M  V30 3574 N 351.788 1.33704 0.83433 0
M  V30 3575 C 353.036 1.25169 1.58673 0
M  V30 3576 C 353.357 -0.18127 1.94156 0
M  V30 3577 O 352.627 -1.11113 1.6134 0
M  V30 3578 H 351.207 0.4603 0.58833 0
M  V30 3579 H 353.869 1.67478 0.996847 0
M  V30 3580 H 352.965 1.84856 2.51465 0
M  V30 3581 N 353.266 -1.05314 1.17247 0
M  V30 3582 C 354.513 -1.78293 0.960091 0
M  V30 3583 C 354.841 -1.87658 -0.51136 0
M  V30 3584 O 354.096 -1.3718 -1.39571 0
M  V30 3585 C 354.395 -3.2229 1.54479 0
M  V30 3586 C 354.061 -3.32987 3.04024 0
M  V30 3587 C 352.723 -3.35613 3.44844 0
M  V30 3588 C 355.075 -3.34102 4.00031 0
M  V30 3589 C 352.403 -3.36982 4.8027 0
M  V30 3590 C 354.755 -3.3701 5.35357 0
M  V30 3591 C 353.419 -3.37923 5.75642 0
M  V30 3592 H 352.689 -0.652422 0.351322 0
M  V30 3593 H 355.336 -1.23782 1.46117 0
M  V30 3594 H 353.641 -3.7972 0.965391 0
M  V30 3595 H 355.338 -3.77376 1.35603 0
M  V30 3596 H 351.928 -3.31655 2.71483 0
M  V30 3597 H 356.112 -3.31276 3.69554 0
M  V30 3598 H 351.368 -3.35999 5.10798 0
M  V30 3599 H 355.542 -3.36822 6.09528 0
M  V30 3600 H 353.169 -3.38738 6.80559 0
M  V30 3601 N 354.744 -0.972509 -1.24016 0
M  V30 3602 C 355.654 -0.5143 -2.28893 0
M  V30 3603 C 356.67 0.427078 -1.68677 0
M  V30 3604 O 357.846 0.298939 -1.99169 0
M  V30 3605 C 354.911 0.183598 -3.46214 0
M  V30 3606 C 353.972 -0.798202 -4.21814 0
M  V30 3607 C 353.205 -0.133514 -5.33533 0
M  V30 3608 O 353.428 1.07714 -5.60137 0
M  V30 3609 O 352.362 -0.828103 -5.96176 0
M  V30 3610 H 356.188 -1.38629 -2.70214 0
M  V30 3611 H 353.773 -0.739769 -1.29799 0
M  V30 3612 H 355.655 0.575433 -4.17453 0
M  V30 3613 H 354.33 1.03048 -3.0686 0
M  V30 3614 H 353.237 -1.24059 -3.52931 0
M  V30 3615 H 354.57 -1.61364 -4.64997 0
M  V30 3616 N 356.222 1.38976 -0.743202 0
M  V30 3617 C 357.45 2.04636 -0.30525 0
M  V30 3618 C 357.865 1.56044 1.06281 0
M  V30 3619 O 357.222 0.728921 1.67311 0
M  V30 3620 C 357.273 3.60193 -0.307177 0
M  V30 3621 O 356.994 4.06998 -1.62124 0
M  V30 3622 C 358.495 4.4306 0.145928 0
M  V30 3623 H 355.715 0.65788 -0.132041 0
M  V30 3624 H 358.259 1.77866 -1.00915 0
M  V30 3625 H 356.414 3.85835 0.347898 0
M  V30 3626 H 356.828 5.01371 -1.54036 0
M  V30 3627 H 358.302 5.51921 0.0934183 0
M  V30 3628 H 358.779 4.22706 1.19231 0
M  V30 3629 H 359.385 4.22584 -0.479886 0
M  V30 3630 N 357.7 0.491464 1.49741 0
M  V30 3631 C 359.116 0.146835 1.58923 0
M  V30 3632 C 359.316 -1.34804 1.49767 0
M  V30 3633 O 358.372 -2.12317 1.36667 0
M  V30 3634 C 359.685 0.715157 2.92072 0
M  V30 3635 C 361.233 0.680407 3.05515 0
M  V30 3636 C 361.708 1.22663 4.41269 0
M  V30 3637 N 363.199 1.18691 4.47735 0
M  V30 3638 C 363.934 1.57984 5.51207 0
M  V30 3639 N 363.43 2.04824 6.6183 0
M  V30 3640 N 365.223 1.49459 5.41866 0
M  V30 3641 H 357.374 1.46347 1.53936 0
M  V30 3642 H 359.637 0.606453 0.728642 0
M  V30 3643 H 359.343 1.76317 3.04311 0
M  V30 3644 H 359.217 0.17018 3.76816 0
M  V30 3645 H 361.604 -0.358743 2.92911 0
M  V30 3646 H 361.685 1.26242 2.22478 0
M  V30 3647 H 361.329 2.26451 4.54623 0
M  V30 3648 H 361.259 0.620637 5.2293 0
M  V30 3649 H 363.75 0.843605 3.68364 0
M  V30 3650 H 364.063 2.32901 7.3687 0
M  V30 3651 H 362.408 2.08791 6.62896 0
M  V30 3652 H 365.599 1.12692 4.54333 0
M  V30 3653 H 365.772 1.80406 6.22381 0
M  V30 3654 N 359.178 -1.55987 0.224894 0
M  V30 3655 C 360.424 -1.98684 -0.406502 0
M  V30 3656 C 360.757 -1.11248 -1.59177 0
M  V30 3657 O 360.032 -0.170909 -1.93748 0
M  V30 3658 C 360.315 -3.50218 -0.837808 0
M  V30 3659 C 360.168 -4.48426 0.351332 0
M  V30 3660 C 361.487 -4.06243 -1.69278 0
M  V30 3661 H 358.606 -0.722337 -0.146283 0
M  V30 3662 H 361.248 -1.87255 0.321799 0
M  V30 3663 H 359.398 -3.60089 -1.45837 0
M  V30 3664 H 361.07 -4.50562 0.989526 0
M  V30 3665 H 359.313 -4.22159 0.998207 0
M  V30 3666 H 359.984 -5.52 0.00655905 0
M  V30 3667 H 362.46 -3.99337 -1.16914 0
M  V30 3668 H 361.336 -5.12581 -1.96346 0
M  V30 3669 H 361.597 -3.53332 -2.65723 0
M  V30 3670 N 360.656 0.0484629 -1.57525 0
M  V30 3671 C 361.884 0.755421 -1.92616 0
M  V30 3672 C 362.299 1.69919 -0.822984 0
M  V30 3673 O 361.656 1.81378 0.202085 0
M  V30 3674 C 361.707 1.52915 -3.27566 0
M  V30 3675 O 361.428 0.62329 -4.33644 0
M  V30 3676 C 362.929 2.33502 -3.76818 0
M  V30 3677 H 360.149 0.213465 -0.63614 0
M  V30 3678 H 362.693 0.0117698 -2.04497 0
M  V30 3679 H 360.848 2.22486 -3.17142 0
M  V30 3680 H 361.262 1.16383 -5.11425 0
M  V30 3681 H 362.736 2.83214 -4.73808 0
M  V30 3682 H 363.213 3.14068 -3.07014 0
M  V30 3683 H 363.819 1.69043 -3.90262 0
M  V30 3684 N 362.134 1.5431 0.320358 0
M  V30 3685 C 363.38 1.72924 1.05949 0
M  V30 3686 C 363.713 0.503185 1.87568 0
M  V30 3687 O 362.988 -0.499839 1.87968 0
M  V30 3688 C 363.271 3.00676 1.98156 0
M  V30 3689 C 363.124 4.3354 1.19845 0
M  V30 3690 C 364.443 3.24198 2.9763 0
M  V30 3691 H 361.562 0.629195 0.383774 0
M  V30 3692 H 364.204 1.87008 0.335854 0
M  V30 3693 H 362.354 2.888 2.59859 0
M  V30 3694 H 364.026 4.57305 0.605773 0
M  V30 3695 H 362.269 4.309 0.500784 0
M  V30 3696 H 362.94 5.19156 1.87567 0
M  V30 3697 H 365.416 3.35557 2.4605 0
M  V30 3698 H 364.292 4.14938 3.59329 0
M  V30 3699 H 364.553 2.41577 3.7026 0
M  V30 3700 N 363.613 -0.582584 1.46437 0
M  V30 3701 C 364.543 -1.70187 1.59871 0
M  V30 3702 C 365.524 -1.64066 0.449042 0
M  V30 3703 O 366.709 -1.82081 0.6753 0
M  V30 3704 C 363.839 -3.08827 1.58881 0
M  V30 3705 C 362.793 -3.29779 2.72819 0
M  V30 3706 C 362.119 -4.68947 2.5689 0
M  V30 3707 C 363.419 -3.17601 4.1464 0
M  V30 3708 H 365.113 -1.592 2.53566 0
M  V30 3709 H 362.659 -0.764472 1.22032 0
M  V30 3710 H 364.612 -3.86951 1.66873 0
M  V30 3711 H 363.336 -3.20713 0.617306 0
M  V30 3712 H 361.995 -2.54054 2.64296 0
M  V30 3713 H 361.643 -4.77599 1.57823 0
M  V30 3714 H 361.343 -4.83919 3.33312 0
M  V30 3715 H 362.867 -5.4924 2.66773 0
M  V30 3716 H 364.281 -3.8557 4.24274 0
M  V30 3717 H 362.678 -3.44094 4.9165 0
M  V30 3718 H 363.748 -2.14681 4.34788 0
M  V30 3719 N 365.091 -1.34144 -0.827227 0
M  V30 3720 C 366.339 -1.26009 -1.58007 0
M  V30 3721 C 366.66 0.170971 -1.94249 0
M  V30 3722 O 365.93 1.10256 -1.61927 0
M  V30 3723 H 364.51 -0.463414 -0.585881 0
M  V30 3724 H 367.172 -1.68005 -0.987951 0
M  V30 3725 H 366.268 -1.86187 -2.50481 0
M  V30 3726 N 366.569 1.04691 -1.17803 0
M  V30 3727 C 367.519 2.10856 -0.867391 0
M  V30 3728 C 368.503 1.601 0.160206 0
M  V30 3729 O 369.695 1.76948 -0.042947 0
M  V30 3730 C 366.824 3.411 -0.388012 0
M  V30 3731 C 365.91 3.9864 -1.44732 0
M  V30 3732 N 366.301 4.30075 -2.66212 0
M  V30 3733 C 364.599 4.26439 -1.30637 0
M  V30 3734 C 365.3 4.76033 -3.34317 0
M  V30 3735 N 364.276 4.76462 -2.61696 0
M  V30 3736 H 368.078 2.33029 -1.79094 0
M  V30 3737 H 365.592 1.22386 -1.0675 0
M  V30 3738 H 367.589 4.16641 -0.146994 0
M  V30 3739 H 366.249 3.20357 0.529271 0
M  V30 3740 H 367.26 4.19917 -3.03134 0
M  V30 3741 H 363.937 4.15056 -0.451129 0
M  V30 3742 H 365.327 5.09427 -4.38103 0
M  V30 3743 N 368.047 0.979072 1.23499 0
M  V30 3744 C 369.293 0.648178 1.92163 0
M  V30 3745 C 369.626 -0.816049 1.76222 0
M  V30 3746 O 368.901 -1.58849 1.12237 0
M  V30 3747 C 369.184 1.03773 3.44824 0
M  V30 3748 C 369.037 2.55948 3.69879 0
M  V30 3749 C 370.356 0.580653 4.36253 0
M  V30 3750 H 367.475 0.236952 0.69787 0
M  V30 3751 H 370.117 1.22012 1.45647 0
M  V30 3752 H 368.267 0.551058 3.84572 0
M  V30 3753 H 369.939 3.12179 3.3962 0
M  V30 3754 H 368.182 2.98641 3.14636 0
M  V30 3755 H 368.853 2.78255 4.76737 0
M  V30 3756 H 371.329 0.998465 4.03943 0
M  V30 3757 H 370.205 0.881663 5.41773 0
M  V30 3758 H 370.466 -0.519052 4.39042 0
M  V30 3759 N 369.525 -1.3858 0.750561 0
M  V30 3760 C 370.457 -2.29057 0.0810714 0
M  V30 3761 C 371.47 -1.47596 -0.686973 0
M  V30 3762 O 372.659 -1.70495 -0.528563 0
M  V30 3763 C 369.759 -3.26475 -0.909247 0
M  V30 3764 C 368.932 -4.36945 -0.199478 0
M  V30 3765 C 367.991 -5.14572 -1.10011 0
M  V30 3766 O 367.017 -5.66321 -0.57177 0
M  V30 3767 N 368.219 -5.27262 -2.42849 0
M  V30 3768 H 370.984 -2.87153 0.858087 0
M  V30 3769 H 368.545 -1.50328 0.60109 0
M  V30 3770 H 370.537 -3.75285 -1.51471 0
M  V30 3771 H 369.107 -2.69298 -1.58736 0
M  V30 3772 H 368.327 -3.8981 0.586664 0
M  V30 3773 H 369.615 -5.07963 0.291783 0
M  V30 3774 H 369.013 -4.86763 -2.88233 0
M  V30 3775 H 367.57 -5.79456 -2.98453 0
M  V30 3776 N 371.003 -0.499398 -1.49478 0
M  V30 3777 C 372.419 -0.155261 -1.58843 0
M  V30 3778 C 372.619 1.34008 -1.50479 0
M  V30 3779 O 371.675 2.11589 -1.37791 0
M  V30 3780 C 372.988 -0.730636 -2.91689 0
M  V30 3781 C 374.536 -0.696599 -3.0515 0
M  V30 3782 C 375.011 -1.25001 -4.40612 0
M  V30 3783 N 376.502 -1.21064 -4.47099 0
M  V30 3784 C 377.237 -1.60905 -5.50361 0
M  V30 3785 N 376.733 -2.08331 -6.60735 0
M  V30 3786 N 378.526 -1.52331 -5.41065 0
M  V30 3787 H 370.677 -1.47162 -1.53158 0
M  V30 3788 H 372.94 -0.610309 -0.725415 0
M  V30 3789 H 372.646 -1.77928 -3.03372 0
M  V30 3790 H 372.52 -0.190161 -3.7672 0
M  V30 3791 H 374.907 0.343204 -2.93097 0
M  V30 3792 H 374.988 -1.2742 -2.21806 0
M  V30 3793 H 374.632 -2.28859 -4.53416 0
M  V30 3794 H 374.562 -0.64836 -5.22593 0
M  V30 3795 H 377.053 -0.863128 -3.67911 0
M  V30 3796 H 377.366 -2.36805 -7.35624 0
M  V30 3797 H 375.711 -2.12304 -6.6178 0
M  V30 3798 H 378.902 -1.151 -4.53729 0
M  V30 3799 H 379.075 -1.83704 -6.21415 0
M  V30 3800 N 372.481 1.55866 -0.233164 0
M  V30 3801 C 373.729 1.9821 0.394593 0
M  V30 3802 C 374.05 1.12234 1.59463 0
M  V30 3803 O 373.32 0.201981 1.94856 0
M  V30 3804 H 371.9 0.732034 0.148778 0
M  V30 3805 H 374.562 1.92107 -0.32876 0
M  V30 3806 H 373.658 3.03845 0.713063 0
M  V30 3807 N 373.959 -0.0401083 1.57549 0
M  V30 3808 C 375.207 -0.731677 1.8839 0
M  V30 3809 C 375.528 -1.76481 0.829425 0
M  V30 3810 O 374.798 -1.95411 -0.1383 0
M  V30 3811 H 373.378 -0.273225 0.695239 0
M  V30 3812 H 376.04 -0.00867725 1.94898 0
M  V30 3813 H 375.136 -1.22816 2.86919 0
M  V30 3814 N 375.437 -1.54477 -0.31217 0
M  V30 3815 C 376.662 -1.77526 -1.07235 0
M  V30 3816 C 377.087 -0.527775 -1.80544 0
M  V30 3817 O 376.445 0.52121 -1.73646 0
M  V30 3818 C 376.493 -2.97535 -2.03728 0
M  V30 3819 O 375.597 -2.69878 -3.11833 0
M  V30 3820 H 374.938 -0.58792 -0.30862 0
M  V30 3821 H 377.468 -2.01532 -0.352993 0
M  V30 3822 H 377.478 -3.25198 -2.46395 0
M  V30 3823 H 376.153 -3.87996 -1.49774 0
M  V30 3824 H 374.73 -2.53199 -2.7376 0
M  V30 3825 N 376.915 0.57481 -1.46744 0
M  V30 3826 C 378.326 1.15695 -1.46532 0
M  V30 3827 C 378.677 1.95068 -0.210425 0
M  V30 3828 O 377.802 2.05241 0.685944 0
M  V30 3829 C 378.397 2.1048 -2.65487 0
M  V30 3830 C 376.956 2.64002 -2.68291 0
M  V30 3831 C 376.103 1.40026 -2.39349 0
M  V30 3832 H 379.054 0.362325 -1.54509 0
M  V30 3833 H 379.075 2.94074 -2.41455 0
M  V30 3834 H 378.587 1.52683 -3.56805 0
M  V30 3835 H 376.688 3.25646 -1.81067 0
M  V30 3836 H 376.801 3.06197 -3.68483 0
M  V30 3837 H 375.165 1.70106 -1.89568 0
M  V30 3838 H 375.948 0.840485 -3.32852 0
M  V30 3839 N 378.394 1.34581 0.820102 0
M  V30 3840 C 379.622 1.3018 1.60813 0
M  V30 3841 C 380.037 -0.123551 1.88395 0
M  V30 3842 O 379.394 -1.07148 1.47735 0
M  V30 3843 C 379.445 2.09312 2.94739 0
M  V30 3844 O 379.166 3.46288 2.68358 0
M  V30 3845 C 380.667 2.1234 3.89136 0
M  V30 3846 H 377.887 0.447726 0.499782 0
M  V30 3847 H 380.431 1.77237 1.02017 0
M  V30 3848 H 378.586 1.65889 3.50085 0
M  V30 3849 H 379 3.87227 3.53774 0
M  V30 3850 H 380.474 2.72126 4.80262 0
M  V30 3851 H 380.951 1.11854 4.24718 0
M  V30 3852 H 381.557 2.55864 3.39726 0
M  V30 3853 N 379.872 -1.04064 1.18357 0
M  V30 3854 C 380.835 -2.10243 0.912707 0
M  V30 3855 C 381.835 -1.60477 -0.101928 0
M  V30 3856 O 383.025 -1.73703 0.131517 0
M  V30 3857 C 380.157 -3.38893 0.369387 0
M  V30 3858 H 381.35 -2.35706 1.85426 0
M  V30 3859 H 378.903 -1.20489 0.995594 0
M  V30 3860 H 379.638 -3.19094 -0.578776 0
M  V30 3861 H 379.423 -3.76331 1.1008 0
M  V30 3862 H 380.913 -4.17128 0.198575 0
M  V30 3863 N 381.35 -0.985608 -1.22978 0
M  V30 3864 C 382.597 -0.657386 -1.91532 0
M  V30 3865 C 382.925 0.809707 -1.76845 0
M  V30 3866 O 382.18 1.60021 -1.12658 0
M  V30 3867 C 382.479 -1.00014 -3.43121 0
M  V30 3868 C 382.145 -2.4583 -3.77993 0
M  V30 3869 C 380.807 -2.85679 -3.87222 0
M  V30 3870 C 383.159 -3.40378 -3.94705 0
M  V30 3871 C 380.487 -4.19081 -4.10595 0
M  V30 3872 C 382.839 -4.73429 -4.1958 0
M  V30 3873 C 381.503 -5.1303 -4.27032 0
M  V30 3874 H 380.773 -0.240555 -0.700867 0
M  V30 3875 H 383.42 -1.24044 -1.45895 0
M  V30 3876 H 381.725 -0.335072 -3.90365 0
M  V30 3877 H 383.422 -0.724322 -3.94404 0
M  V30 3878 H 380.012 -2.13939 -3.71387 0
M  V30 3879 H 384.196 -3.10766 -3.8696 0
M  V30 3880 H 379.452 -4.49362 -4.14589 0
M  V30 3881 H 383.626 -5.46644 -4.31455 0
M  V30 3882 H 381.253 -6.16418 -4.44896 0
M  V30 3883 N 382.828 1.3818 -0.7579 0
M  V30 3884 C 384.105 1.94106 -0.241306 0
M  V30 3885 C 384.485 1.69282 1.26122 0
M  V30 3886 O 383.833 1.03378 2.03777 0
M  V30 3887 C 384.043 3.43809 -0.59967 0
M  V30 3888 C 385.391 4.20868 -0.561717 0
M  V30 3889 O 386.415 3.5211 -0.538222 0
M  V30 3890 O 385.274 5.43451 -0.576478 0
M  V30 3891 H 382.368 0.825376 -0.0518042 0
M  V30 3892 H 384.914 1.47548 -0.838315 0
M  V30 3893 H 383.686 3.55403 -1.6372 0
M  V30 3894 H 383.309 3.97592 0.0251197 0
M  V30 3895 N 384.306 0.507319 1.49211 0
M  V30 3896 C 385.722 0.163682 1.58758 0
M  V30 3897 C 385.922 -1.33208 1.51188 0
M  V30 3898 O 384.978 -2.10855 1.38911 0
M  V30 3899 C 386.291 0.746095 2.91297 0
M  V30 3900 C 387.839 0.712773 3.04776 0
M  V30 3901 C 388.314 1.27336 4.39943 0
M  V30 3902 N 389.805 1.23433 4.46451 0
M  V30 3903 C 390.54 1.63821 5.495 0
M  V30 3904 N 390.036 2.11832 6.5962 0
M  V30 3905 N 391.829 1.55198 5.4025 0
M  V30 3906 H 383.98 1.47972 1.52375 0
M  V30 3907 H 386.243 0.614147 0.722168 0
M  V30 3908 H 385.949 1.79534 3.02424 0
M  V30 3909 H 385.823 0.210137 3.76614 0
M  V30 3910 H 388.21 -0.327656 2.93275 0
M  V30 3911 H 388.291 1.28595 2.21127 0
M  V30 3912 H 387.935 2.3126 4.52196 0
M  V30 3913 H 387.865 0.676066 5.22242 0
M  V30 3914 H 390.356 0.882627 3.67448 0
M  V30 3915 H 390.669 2.40703 7.34358 0
M  V30 3916 H 389.014 2.1581 6.60644 0
M  V30 3917 H 392.205 1.17505 4.53112 0
M  V30 3918 H 392.378 1.86997 6.20432 0
M  V30 3919 N 385.784 -1.5574 0.241426 0
M  V30 3920 C 387.03 -1.99104 -0.385406 0
M  V30 3921 C 387.363 -1.1293 -1.57988 0
M  V30 3922 O 386.638 -0.191449 -1.93555 0
M  V30 3923 C 386.921 -3.51087 -0.800616 0
M  V30 3924 C 386.774 -4.48028 0.398874 0
M  V30 3925 C 388.093 -4.08015 -1.64959 0
M  V30 3926 H 385.212 -0.723848 -0.138614 0
M  V30 3927 H 387.854 -1.86903 0.341642 0
M  V30 3928 H 386.004 -3.61615 -1.4201 0
M  V30 3929 H 387.676 -4.49487 1.03726 0
M  V30 3930 H 385.919 -4.21077 1.04293 0
M  V30 3931 H 386.59 -5.51962 0.0651056 0
M  V30 3932 H 389.066 -4.00555 -1.12672 0
M  V30 3933 H 387.942 -5.14635 -1.90898 0
M  V30 3934 H 388.203 -3.56131 -2.61961 0
M  V30 3935 N 387.262 0.0317525 -1.57568 0
M  V30 3936 C 388.192 1.03274 -2.0942 0
M  V30 3937 C 389.173 1.3788 -0.996143 0
M  V30 3938 O 390.358 1.46811 -1.27122 0
M  V30 3939 C 387.488 2.33448 -2.57137 0
M  V30 3940 C 386.442 2.13091 -3.71182 0
M  V30 3941 C 385.768 3.49001 -4.05095 0
M  V30 3942 C 387.068 1.51928 -4.99715 0
M  V30 3943 H 388.762 0.60112 -2.93303 0
M  V30 3944 H 386.308 0.287705 -1.41097 0
M  V30 3945 H 388.261 3.03802 -2.92032 0
M  V30 3946 H 386.985 2.78665 -1.70333 0
M  V30 3947 H 385.644 1.45171 -3.36632 0
M  V30 3948 H 385.292 3.91862 -3.15362 0
M  V30 3949 H 384.992 3.36207 -4.81911 0
M  V30 3950 H 386.516 4.20721 -4.42522 0
M  V30 3951 H 387.93 2.12196 -5.32584 0
M  V30 3952 H 386.327 1.49716 -5.81124 0
M  V30 3953 H 387.397 0.484811 -4.8247 0
M  V30 3954 N 388.74 1.54641 0.303973 0
M  V30 3955 C 389.703 1.84646 1.35789 0
M  V30 3956 C 390.703 0.7192 1.4382 0
M  V30 3957 O 391.893 0.987491 1.43507 0
M  V30 3958 C 389.025 2.02407 2.74307 0
M  V30 3959 H 390.218 2.78829 1.10429 0
M  V30 3960 H 387.771 1.46658 0.540487 0
M  V30 3961 H 388.506 1.10502 3.04893 0
M  V30 3962 H 388.291 2.84453 2.69868 0
M  V30 3963 H 389.781 2.27002 3.50514 0
M  V30 3964 N 390.218 -0.567019 1.47046 0
M  V30 3965 C 391.443 -1.3551 1.57009 0
M  V30 3966 C 391.868 -1.86841 0.217259 0
M  V30 3967 O 391.226 -1.62435 -0.805268 0
M  V30 3968 C 391.274 -2.50777 2.5912 0
M  V30 3969 O 390.378 -3.52706 2.13711 0
M  V30 3970 H 389.719 -0.402919 0.52778 0
M  V30 3971 H 392.249 -0.686241 1.92748 0
M  V30 3972 H 392.259 -2.97481 2.79229 0
M  V30 3973 H 390.934 -2.12771 3.57353 0
M  V30 3974 H 389.511 -3.12374 2.03659 0
M  V30 3975 N 391.696 -1.35014 -0.812953 0
M  V30 3976 C 393.112 -1.14914 -1.10757 0
M  V30 3977 C 393.312 0.0426818 -2.01455 0
M  V30 3978 O 392.368 0.715212 -2.42159 0
M  V30 3979 C 393.681 -2.44911 -1.74468 0
M  V30 3980 C 395.229 -2.5106 -1.86917 0
M  V30 3981 C 395.704 -3.81085 -2.54044 0
M  V30 3982 N 397.195 -3.82301 -2.61535 0
M  V30 3983 C 397.93 -4.79634 -3.14227 0
M  V30 3984 N 397.426 -5.87353 -3.67407 0
M  V30 3985 N 399.219 -4.67078 -3.12721 0
M  V30 3986 H 391.37 -2.1136 -0.20989 0
M  V30 3987 H 393.633 -0.935128 -0.155692 0
M  V30 3988 H 393.339 -3.32267 -1.15289 0
M  V30 3989 H 393.213 -2.58989 -2.74234 0
M  V30 3990 H 395.6 -1.64137 -2.45241 0
M  V30 3991 H 395.681 -2.40901 -0.860242 0
M  V30 3992 H 395.325 -4.68402 -1.96372 0
M  V30 3993 H 395.255 -3.88529 -3.55461 0
M  V30 3994 H 397.746 -3.04465 -2.23851 0
M  V30 3995 H 398.059 -6.57624 -4.05894 0
M  V30 3996 H 396.404 -5.91054 -3.65623 0
M  V30 3997 H 399.595 -3.82067 -2.70449 0
M  V30 3998 H 399.768 -5.43098 -3.53481 0
M  V30 3999 N 393.175 1.03435 -1.18907 0
M  V30 4000 C 394.105 2.13503 -0.945448 0
M  V30 4001 C 395.086 1.69682 0.119189 0
M  V30 4002 O 396.271 1.94169 -0.034707 0
M  V30 4003 C 393.401 3.44004 -0.477316 0
M  V30 4004 C 392.355 4.0148 -1.48316 0
M  V30 4005 C 391.681 5.27537 -0.872311 0
M  V30 4006 C 392.981 4.36921 -2.86177 0
M  V30 4007 H 394.675 2.34141 -1.86597 0
M  V30 4008 H 392.221 1.12523 -0.898584 0
M  V30 4009 H 394.174 4.20372 -0.294204 0
M  V30 4010 H 392.898 3.23072 0.478786 0
M  V30 4011 H 391.557 3.27201 -1.65332 0
M  V30 4012 H 391.205 5.02917 0.0911752 0
M  V30 4013 H 390.905 5.66954 -1.54393 0
M  V30 4014 H 392.429 6.06576 -0.699871 0
M  V30 4015 H 393.843 5.04248 -2.72776 0
M  V30 4016 H 392.24 4.87405 -3.50081 0
M  V30 4017 H 393.31 3.46466 -3.39248 0
M  V30 4018 N 394.653 0.992116 1.22453 0
M  V30 4019 C 395.901 0.666215 1.90804 0
M  V30 4020 C 396.222 -0.804152 1.77647 0
M  V30 4021 O 395.492 -1.57629 1.16318 0
M  V30 4022 H 394.072 0.243423 0.706225 0
M  V30 4023 H 396.734 1.25845 1.48825 0
M  V30 4024 H 395.83 0.928069 2.97982 0
M  V30 4025 N 396.131 -1.37776 0.765217 0
M  V30 4026 C 397.094 -2.28686 0.153416 0
M  V30 4027 C 398.094 -1.47727 -0.635081 0
M  V30 4028 O 399.284 -1.68027 -0.459632 0
M  V30 4029 C 396.416 -3.31608 -0.790495 0
M  V30 4030 H 397.609 -2.84297 0.954723 0
M  V30 4031 H 395.162 -1.46932 0.53299 0
M  V30 4032 H 395.897 -2.81109 -1.61705 0
M  V30 4033 H 395.682 -3.9144 -0.227348 0
M  V30 4034 H 397.172 -3.99559 -1.21419 0
M  V30 4035 N 397.609 -0.515225 -1.4894 0
M  V30 4036 C 399.025 -0.172099 -1.58669 0
M  V30 4037 C 399.225 1.32405 -1.51892 0
M  V30 4038 O 398.281 2.10116 -1.40027 0
M  V30 4039 C 399.594 -0.761533 -2.90897 0
M  V30 4040 C 401.142 -0.728926 -3.04394 0
M  V30 4041 C 401.617 -1.29667 -4.39261 0
M  V30 4042 N 403.108 -1.25799 -4.4579 0
M  V30 4043 C 403.843 -1.66733 -5.48623 0
M  V30 4044 N 403.339 -2.15327 -6.58488 0
M  V30 4045 N 405.132 -1.58061 -5.39419 0
M  V30 4046 H 397.283 -1.48778 -1.51588 0
M  V30 4047 H 399.546 -0.617968 -0.718901 0
M  V30 4048 H 399.252 -1.81136 -3.01468 0
M  V30 4049 H 399.126 -0.230106 -3.76497 0
M  V30 4050 H 401.513 0.312098 -2.93445 0
M  V30 4051 H 401.594 -1.29766 -2.20442 0
M  V30 4052 H 401.238 -2.33655 -4.50963 0
M  V30 4053 H 401.168 -0.703752 -5.21876 0
M  V30 4054 H 403.659 -0.902102 -3.66975 0
M  V30 4055 H 403.972 -2.44594 -7.33071 0
M  V30 4056 H 402.317 -2.19311 -6.59491 0
M  V30 4057 H 405.508 -1.19906 -4.52482 0
M  V30 4058 H 405.681 -1.90284 -6.19432 0
M  V30 4059 N 399.087 1.5561 -0.249682 0
M  V30 4060 C 400.05 2.20217 0.635394 0
M  V30 4061 C 401.05 1.17227 1.10066 0
M  V30 4062 O 402.24 1.42292 1.00492 0
M  V30 4063 C 399.372 2.84794 1.87363 0
M  V30 4064 H 400.565 2.99814 0.0716752 0
M  V30 4065 H 398.118 1.563 -0.000153234 0
M  V30 4066 H 398.853 2.09142 2.47851 0
M  V30 4067 H 398.638 3.60241 1.5482 0
M  V30 4068 H 400.128 3.3423 2.5036 0
M  V30 4069 N 400.565 -0.0233959 1.57583 0
M  V30 4070 C 401.811 -0.714119 1.89811 0
M  V30 4071 C 402.144 -1.74702 0.848113 0
M  V30 4072 O 401.419 -1.94023 -0.136135 0
M  V30 4073 C 401.702 -1.37853 3.32669 0
M  V30 4074 C 401.555 -0.358764 4.48367 0
M  V30 4075 C 402.874 -2.31101 3.7454 0
M  V30 4076 H 399.993 -0.25814 0.690314 0
M  V30 4077 H 402.635 0.0230927 1.89986 0
M  V30 4078 H 400.785 -2.00689 3.3265 0
M  V30 4079 H 402.457 0.268115 4.6052 0
M  V30 4080 H 400.7 0.321387 4.32608 0
M  V30 4081 H 401.371 -0.862242 5.45224 0
M  V30 4082 H 403.847 -1.78304 3.75961 0
M  V30 4083 H 402.723 -2.74567 4.75294 0
M  V30 4084 H 402.984 -3.18018 3.0711 0
M  V30 4085 N 402.043 -1.548 -0.295768 0
M  V30 4086 C 402.953 -1.89177 -1.38742 0
M  V30 4087 C 403.969 -0.786481 -1.55211 0
M  V30 4088 O 405.145 -1.08344 -1.69775 0
M  V30 4089 C 402.21 -2.13663 -2.73036 0
M  V30 4090 C 401.271 -3.37349 -2.65508 0
M  V30 4091 C 400.504 -3.60658 -3.93398 0
M  V30 4092 O 400.727 -2.86882 -4.93006 0
M  V30 4093 O 399.661 -4.54179 -3.94975 0
M  V30 4094 H 403.487 -2.82059 -1.12589 0
M  V30 4095 H 401.072 -1.41056 -0.492295 0
M  V30 4096 H 402.954 -2.3094 -3.52484 0
M  V30 4097 H 401.629 -1.23967 -2.99022 0
M  V30 4098 H 400.536 -3.25431 -1.84514 0
M  V30 4099 H 401.869 -4.27192 -2.44474 0
M  V30 4100 N 403.521 0.559213 -1.47345 0
M  V30 4101 C 404.451 1.67622 -1.62558 0
M  V30 4102 C 405.432 1.63331 -0.475087 0
M  V30 4103 O 406.617 1.80983 -0.704182 0
M  V30 4104 C 403.747 3.0626 -1.63774 0
M  V30 4105 C 402.701 3.25397 -2.7803 0
M  V30 4106 C 402.027 4.64801 -2.64318 0
M  V30 4107 C 403.327 3.10965 -4.19641 0
M  V30 4108 H 405.021 1.55146 -2.56067 0
M  V30 4109 H 402.567 0.744961 -1.23233 0
M  V30 4110 H 404.52 3.84247 -1.73008 0
M  V30 4111 H 403.244 3.1969 -0.66825 0
M  V30 4112 H 401.903 2.49817 -2.68304 0
M  V30 4113 H 401.551 4.75028 -1.65401 0
M  V30 4114 H 401.251 4.78555 -3.40968 0
M  V30 4115 H 402.775 5.44926 -2.75478 0
M  V30 4116 H 404.189 3.78772 -4.30354 0
M  V30 4117 H 402.586 3.36229 -4.97062 0
M  V30 4118 H 403.656 2.07736 -4.38148 0
M  V30 4119 N 404.999 1.35443 0.805782 0
M  V30 4120 C 405.929 1.31095 1.93226 0
M  V30 4121 C 406.91 0.185244 1.69088 0
M  V30 4122 O 408.095 0.380332 1.90439 0
M  V30 4123 C 405.225 1.08299 3.29983 0
M  V30 4124 C 404.179 2.17519 3.68605 0
M  V30 4125 C 403.505 1.79887 5.03532 0
M  V30 4126 C 404.805 3.5949 3.78898 0
M  V30 4127 H 406.499 2.25352 1.97122 0
M  V30 4128 H 404.045 1.0848 0.946996 0
M  V30 4129 H 405.998 1.03897 4.08391 0
M  V30 4130 H 404.722 0.104885 3.26432 0
M  V30 4131 H 403.381 2.2102 2.92482 0
M  V30 4132 H 403.029 0.80693 4.96485 0
M  V30 4133 H 402.729 2.53001 5.30344 0
M  V30 4134 H 404.253 1.77011 5.84379 0
M  V30 4135 H 405.667 3.58307 4.47536 0
M  V30 4136 H 404.064 4.31371 4.1718 0
M  V30 4137 H 405.134 3.95584 2.80431 0
M  V30 4138 N 406.477 -1.02803 1.19454 0
M  V30 4139 C 407.407 -2.12999 0.956758 0
M  V30 4140 C 408.388 -1.69743 -0.110188 0
M  V30 4141 O 409.573 -1.94148 0.0450038 0
M  V30 4142 C 406.703 -3.43746 0.495553 0
M  V30 4143 C 405.657 -4.00688 1.50443 0
M  V30 4144 C 404.983 -5.27067 0.900275 0
M  V30 4145 C 406.283 -4.35397 2.8849 0
M  V30 4146 H 407.977 -2.33148 1.87836 0
M  V30 4147 H 405.523 -1.12045 0.904539 0
M  V30 4148 H 407.476 -4.2021 0.316493 0
M  V30 4149 H 406.2 -3.23321 -0.461646 0
M  V30 4150 H 404.859 -3.2632 1.67065 0
M  V30 4151 H 404.507 -5.02959 -0.064503 0
M  V30 4152 H 404.207 -5.66127 1.57397 0
M  V30 4153 H 405.731 -6.06196 0.73203 0
M  V30 4154 H 407.145 -5.02795 2.75446 0
M  V30 4155 H 405.542 -4.85541 3.52661 0
M  V30 4156 H 406.612 -3.44662 3.41081 0
M  V30 4157 N 407.956 -0.998596 -1.21925 0
M  V30 4158 C 408.866 -0.562736 -2.27751 0
M  V30 4159 C 409.882 0.391203 -1.69545 0
M  V30 4160 O 411.058 0.256625 -1.99758 0
M  V30 4161 C 408.123 0.11012 -3.46525 0
M  V30 4162 C 407.184 -0.887495 -4.20026 0
M  V30 4163 C 406.417 -0.246654 -5.3313 0
M  V30 4164 O 406.64 0.958088 -5.62296 0
M  V30 4165 O 405.574 -0.954374 -5.94286 0
M  V30 4166 H 409.4 -1.44329 -2.67213 0
M  V30 4167 H 406.985 -0.767135 -1.28201 0
M  V30 4168 H 408.867 0.486756 -4.18579 0
M  V30 4169 H 407.542 0.965154 -3.08976 0
M  V30 4170 H 406.449 -1.31517 -3.5022 0
M  V30 4171 H 407.782 -1.71191 -4.6147 0
M  V30 4172 N 409.434 1.37368 -0.772513 0
M  V30 4173 C 410.682 1.99279 -0.336516 0
M  V30 4174 C 411.003 1.6163 1.09091 0
M  V30 4175 O 410.273 0.882109 1.74916 0
M  V30 4176 H 408.853 0.737063 -0.121435 0
M  V30 4177 H 411.515 1.67836 -0.990809 0
M  V30 4178 H 410.611 3.09332 -0.414763 0
M  V30 4179 N 410.912 0.523116 1.48665 0
M  V30 4180 C 411.859 -0.243398 2.29513 0
M  V30 4181 C 412.829 -0.940139 1.36933 0
M  V30 4182 O 414.014 -0.942503 1.65896 0
M  V30 4183 C 411.154 -1.28855 3.20141 0
M  V30 4184 C 410.267 -0.60135 4.27794 0
M  V30 4185 C 409.402 -1.62884 5.05611 0
M  V30 4186 C 408.441 -0.924726 6.05075 0
M  V30 4187 N 407.578 -1.89744 6.75975 0
M  V30 4188 H 412.418 0.452234 2.94549 0
M  V30 4189 H 409.955 0.234858 1.45213 0
M  V30 4190 H 411.913 -1.90674 3.71079 0
M  V30 4191 H 410.543 -1.95266 2.57043 0
M  V30 4192 H 409.595 0.130623 3.80176 0
M  V30 4193 H 410.907 -0.0481585 4.98777 0
M  V30 4194 H 410.061 -2.32149 5.60528 0
M  V30 4195 H 408.8 -2.21592 4.34452 0
M  V30 4196 H 407.805 -0.217966 5.49368 0
M  V30 4197 H 409.03 -0.343851 6.78229 0
M  V30 4198 H 406.976 -2.47373 6.07571 0
M  V30 4199 H 406.893 -1.3955 7.43009 0
M  V30 4200 H 408.161 -2.58229 7.35485 0
M  V30 4201 N 412.39 -1.55475 0.257931 0
M  V30 4202 C 413.638 -1.98813 -0.363009 0
M  V30 4203 C 413.959 -1.14757 -1.57657 0
M  V30 4204 O 413.229 -0.232956 -1.9451 0
M  V30 4205 H 411.809 -0.734308 -0.137113 0
M  V30 4206 H 414.471 -1.9156 0.359281 0
M  V30 4207 H 413.567 -3.04941 -0.664634 0
M  V30 4208 N 413.868 0.0150385 -1.57593 0
M  V30 4209 C 415.116 0.701613 -1.8953 0
M  V30 4210 C 415.437 1.75139 -0.857396 0
M  V30 4211 O 414.707 1.95607 0.107194 0
M  V30 4212 H 413.287 0.26213 -0.699498 0
M  V30 4213 H 415.949 -0.0223304 -1.94887 0
M  V30 4214 H 415.045 1.18236 -2.88837 0
M  V30 4215 N 415.346 1.54954 0.287554 0
M  V30 4216 C 416.762 1.46469 0.633964 0
M  V30 4217 C 416.962 0.666865 1.90145 0
M  V30 4218 O 416.018 0.179906 2.51858 0
M  V30 4219 C 417.331 2.90556 0.774454 0
M  V30 4220 C 418.879 3.00681 0.869462 0
M  V30 4221 C 419.354 4.45993 1.04184 0
M  V30 4222 N 420.845 4.4976 1.10772 0
M  V30 4223 C 421.58 5.59393 1.25964 0
M  V30 4224 N 421.076 6.78923 1.37968 0
M  V30 4225 N 422.869 5.47107 1.28959 0
M  V30 4226 H 415.02 2.05288 -0.545041 0
M  V30 4227 H 417.283 0.930305 -0.182308 0
M  V30 4228 H 416.989 3.51594 -0.086207 0
M  V30 4229 H 416.863 3.38743 1.6593 0
M  V30 4230 H 419.25 2.39749 1.7206 0
M  V30 4231 H 419.331 2.55769 -0.0396831 0
M  V30 4232 H 418.975 5.07524 0.195422 0
M  V30 4233 H 418.905 4.88548 1.96542 0
M  V30 4234 H 421.396 3.63651 1.02794 0
M  V30 4235 H 421.709 7.58231 1.49353 0
M  V30 4236 H 420.054 6.81763 1.34999 0
M  V30 4237 H 423.245 4.52668 1.19202 0
M  V30 4238 H 423.418 6.32595 1.40455 0
M  V30 4239 N 416.824 -0.551391 1.4764 0
M  V30 4240 C 418.064 -1.31901 1.56145 0
M  V30 4241 C 418.428 -1.90724 0.221013 0
M  V30 4242 O 419.629 -2.6819 0.180945 0
M  V30 4243 C 417.9 -2.39517 2.65267 0
M  V30 4244 S 419.459 -3.26289 2.93395 0
M  V30 4245 H 416.277 -0.448965 0.551318 0
M  V30 4246 H 418.879 -0.630599 1.85051 0
M  V30 4247 H 417.583 -1.94747 3.6125 0
M  V30 4248 H 417.114 -3.13092 2.38195 0
M  V30 4249 H 419.129 -4.39122 2.31055 0
M  V30 4250 N 418.302 -1.35869 -0.798587 0
M  V30 4251 C 419.548 -1.2978 -1.55836 0
M  V30 4252 C 419.881 0.125322 -1.93795 0
M  V30 4253 O 419.156 1.07658 -1.61987 0
M  V30 4254 C 419.439 -2.21188 -2.84162 0
M  V30 4255 C 419.292 -3.72155 -2.52628 0
M  V30 4256 C 420.611 -2.11545 -3.85923 0
M  V30 4257 H 417.73 -0.472769 -0.565383 0
M  V30 4258 H 420.372 -1.66341 -0.918192 0
M  V30 4259 H 418.522 -1.90139 -3.38791 0
M  V30 4260 H 420.194 -4.13682 -2.04121 0
M  V30 4261 H 418.437 -3.92042 -1.85704 0
M  V30 4262 H 419.108 -4.31511 -3.44242 0
M  V30 4263 H 421.584 -2.38855 -3.40716 0
M  V30 4264 H 420.46 -2.77688 -4.73477 0
M  V30 4265 H 420.721 -1.09987 -4.282 0
M  V30 4266 N 419.78 1.02168 -1.19998 0
M  V30 4267 C 421.028 1.75338 -1.00504 0
M  V30 4268 C 421.349 1.89387 0.464506 0
M  V30 4269 O 420.619 1.43268 1.33608 0
M  V30 4270 H 419.199 0.649564 -0.368885 0
M  V30 4271 H 421.861 1.23205 -1.51018 0
M  V30 4272 H 420.957 2.75892 -1.45912 0
M  V30 4273 N 421.258 1.00505 1.21394 0
M  V30 4274 C 422.507 0.683159 1.89778 0
M  V30 4275 C 422.82 -0.789471 1.7896 0
M  V30 4276 O 424.026 -1.22344 2.42372 0
M  V30 4277 C 422.482 1.17146 3.40301 0
M  V30 4278 C 422.09 2.67017 3.5973 0
M  V30 4279 C 423.834 0.924461 4.14311 0
M  V30 4280 C 421.741 3.09387 5.04017 0
M  V30 4281 H 420.671 0.25183 0.710702 0
M  V30 4282 H 423.322 1.21622 1.37406 0
M  V30 4283 H 421.704 0.566451 3.91928 0
M  V30 4284 H 422.878 3.32968 3.18542 0
M  V30 4285 H 421.193 2.89732 2.99073 0
M  V30 4286 H 423.79 1.21658 5.20676 0
M  V30 4287 H 424.133 -0.139286 4.16067 0
M  V30 4288 H 424.666 1.49226 3.6875 0
M  V30 4289 H 421.405 4.14989 5.07409 0
M  V30 4290 H 420.925 2.48149 5.46061 0
M  V30 4291 H 422.604 3.01371 5.72525 0
M  V30 4292 N 422.737 -1.36956 0.779787 0
M  V30 4293 C 423.669 -2.28833 0.129639 0
M  V30 4294 C 424.682 -1.4902 -0.655511 0
M  V30 4295 O 425.871 -1.71578 -0.492279 0
M  V30 4296 C 422.971 -3.2833 -0.839792 0
M  V30 4297 C 422.144 -4.3727 -0.10675 0
M  V30 4298 C 421.203 -5.16789 -0.990717 0
M  V30 4299 O 420.229 -5.67406 -0.451516 0
M  V30 4300 N 421.431 -5.32294 -2.3161 0
M  V30 4301 H 424.196 -2.85268 0.918803 0
M  V30 4302 H 421.757 -1.49019 0.632841 0
M  V30 4303 H 423.749 -3.78413 -1.43477 0
M  V30 4304 H 422.319 -2.72605 -1.52988 0
M  V30 4305 H 421.539 -3.88478 0.669216 0
M  V30 4306 H 422.827 -5.07229 0.399464 0
M  V30 4307 H 422.225 -4.92768 -2.77843 0
M  V30 4308 H 420.782 -5.85656 -2.86095 0
M  V30 4309 N 424.215 -0.530993 -1.48385 0
M  V30 4310 C 425.163 0.244595 -2.3131 0
M  V30 4311 C 426.157 0.93451 -1.41291 0
M  V30 4312 O 427.363 0.85878 -1.58193 0
M  V30 4313 H 423.738 0.0977472 -0.74562 0
M  V30 4314 H 425.709 -0.474369 -2.94605 0
M  V30 4315 C 424.458 1.2779 -3.23365 0
M  V30 4316 H 423.781 0.756439 -3.92579 0
M  V30 4317 H 425.221 1.79198 -3.84271 0
M  V30 4318 C 423.68 2.31205 -2.45042 0
M  V30 4319 O 424.21 3.37661 -2.17596 0
M  V30 4320 N 422.416 2.04446 -2.0652 0
M  V30 4321 H 421.963 1.17891 -2.2904 0
M  V30 4322 H 421.921 2.73861 -1.54427 0
M  V30 4323 N 425.693 1.55336 -0.266172 0
M  V30 4324 C 426.641 2.23587 0.641228 0
M  V30 4325 C 427.635 1.22986 1.16494 0
M  V30 4326 O 428.841 1.40943 1.1196 0
M  V30 4327 H 425.216 0.717452 0.225315 0
M  V30 4328 H 427.187 2.9837 0.0426561 0
M  V30 4329 C 425.936 2.96369 1.81826 0
M  V30 4330 H 425.259 3.73563 1.42445 0
M  V30 4331 H 426.699 3.47459 2.42998 0
M  V30 4332 C 425.158 2.0133 2.70125 0
M  V30 4333 O 425.688 1.55875 3.70224 0
M  V30 4334 N 423.894 1.6802 2.37102 0
M  V30 4335 H 423.441 2.05181 1.55751 0
M  V30 4336 H 423.399 1.047 2.96454 0
M  V30 4337 N 427.171 -0.0066808 1.57599 0
M  V30 4338 C 428.103 -1.02827 2.04839 0
M  V30 4339 C 429.116 -1.31108 0.965113 0
M  V30 4340 O 430.305 -1.28202 1.24203 0
M  V30 4341 C 427.405 -2.36464 2.42771 0
M  V30 4342 C 426.578 -2.27219 3.73751 0
M  V30 4343 C 425.637 -3.43489 3.98625 0
M  V30 4344 O 424.663 -3.21976 4.69382 0
M  V30 4345 N 425.865 -4.66116 3.46 0
M  V30 4346 H 428.63 -0.625455 2.93101 0
M  V30 4347 H 426.191 -0.194198 1.60731 0
M  V30 4348 H 428.183 -3.13008 2.56531 0
M  V30 4349 H 426.753 -2.68512 1.60063 0
M  V30 4350 H 425.973 -1.35629 3.70133 0
M  V30 4351 H 427.261 -2.18208 4.59633 0
M  V30 4352 H 426.659 -4.86493 2.88688 0
M  V30 4353 H 425.216 -5.39949 3.65101 0
M  V30 4354 N 428.649 -1.55105 -0.279332 0
M  V30 4355 C 429.579 -1.90557 -1.34945 0
M  V30 4356 C 430.56 -0.766738 -1.51839 0
M  V30 4357 O 431.745 -1.02434 -1.64988 0
M  V30 4358 C 428.875 -2.17193 -2.71006 0
M  V30 4359 C 427.829 -3.33021 -2.68851 0
M  V30 4360 C 427.155 -3.45123 -4.08405 0
M  V30 4361 C 428.455 -4.69578 -2.28678 0
M  V30 4362 H 430.149 -2.80188 -1.05522 0
M  V30 4363 H 427.695 -1.34811 -0.506173 0
M  V30 4364 H 429.648 -2.40581 -3.45975 0
M  V30 4365 H 428.372 -1.24355 -3.01999 0
M  V30 4366 H 427.031 -3.0959 -1.9634 0
M  V30 4367 H 426.679 -2.49762 -4.3661 0
M  V30 4368 H 426.379 -4.22995 -4.07859 0
M  V30 4369 H 427.903 -3.70796 -4.85121 0
M  V30 4370 H 429.317 -4.92553 -2.93368 0
M  V30 4371 H 427.714 -5.5032 -2.39306 0
M  V30 4372 H 428.784 -4.68828 -1.23807 0
M  V30 4373 N 430.127 0.543554 -1.4793 0
M  V30 4374 C 431.373 1.30201 -1.55485 0
M  V30 4375 C 431.706 1.92925 -0.222201 0
M  V30 4376 O 430.981 1.78586 0.77053 0
M  V30 4377 C 431.264 2.40174 -2.68307 0
M  V30 4378 C 431.117 1.8223 -4.11233 0
M  V30 4379 C 432.436 3.42024 -2.76961 0
M  V30 4380 H 429.555 0.472036 -0.565996 0
M  V30 4381 H 432.197 0.606914 -1.80046 0
M  V30 4382 H 430.347 2.99463 -2.47495 0
M  V30 4383 H 432.019 1.27096 -4.43446 0
M  V30 4384 H 430.262 1.12832 -4.18869 0
M  V30 4385 H 430.933 2.61793 -4.85972 0
M  V30 4386 H 433.409 2.92672 -2.95774 0
M  V30 4387 H 432.285 4.16383 -3.57654 0
M  V30 4388 H 432.546 4.0173 -1.84568 0
M  V30 4389 N 431.605 1.3629 0.791371 0
M  V30 4390 C 432.882 1.20962 1.53712 0
M  V30 4391 C 433.262 -0.205021 2.10102 0
M  V30 4392 O 432.61 -1.21042 1.93807 0
M  V30 4393 C 432.82 2.29002 2.63361 0
M  V30 4394 C 434.168 2.65572 3.31295 0
M  V30 4395 O 435.192 2.2803 2.73643 0
M  V30 4396 O 434.051 3.3018 4.35481 0
M  V30 4397 H 431.145 0.47086 0.679867 0
M  V30 4398 H 433.691 1.48016 0.830021 0
M  V30 4399 H 432.463 3.2382 2.19674 0
M  V30 4400 H 432.086 2.03303 3.41692 0
M  V30 4401 N 433.083 -1.0153 1.20538 0
M  V30 4402 C 434.033 -2.08482 0.922991 0
M  V30 4403 C 435.017 -1.60469 -0.117702 0
M  V30 4404 O 436.209 -1.76772 0.0898465 0
M  V30 4405 C 433.338 -3.39952 0.478312 0
M  V30 4406 C 432.424 -3.94662 1.5525 0
M  V30 4407 N 432.815 -4.22866 2.77521 0
M  V30 4408 C 431.113 -4.22825 1.41897 0
M  V30 4409 C 431.814 -4.67002 3.4682 0
M  V30 4410 N 430.79 -4.69356 2.74237 0
M  V30 4411 H 434.592 -2.28199 1.85209 0
M  V30 4412 H 432.106 -1.19512 1.09957 0
M  V30 4413 H 434.103 -4.16105 0.257408 0
M  V30 4414 H 432.763 -3.21648 -0.444148 0
M  V30 4415 H 433.774 -4.11732 3.1416 0
M  V30 4416 H 430.451 -4.13714 0.561015 0
M  V30 4417 H 431.841 -4.97632 4.51455 0
M  V30 4418 N 434.561 -1.01147 -1.20859 0
M  V30 4419 C 435.838 -0.613136 -1.85742 0
M  V30 4420 C 436.218 0.909004 -1.90526 0
M  V30 4421 O 435.566 1.79862 -1.40932 0
M  V30 4422 C 435.776 -1.255 -3.25654 0
M  V30 4423 C 437.124 -1.3672 -4.01986 0
M  V30 4424 O 438.148 -1.21082 -3.34989 0
M  V30 4425 O 437.007 -1.6194 -5.21956 0
M  V30 4426 H 434.101 -0.210878 -0.799662 0
M  V30 4427 H 436.647 -1.10853 -1.2849 0
M  V30 4428 H 435.419 -2.29532 -3.16908 0
M  V30 4429 H 435.042 -0.746369 -3.90532 0
M  V30 4430 N 436.039 1.36541 -0.78704 0
M  V30 4431 C 437.288 1.98552 -0.35494 0
M  V30 4432 C 437.601 1.63171 1.07864 0
M  V30 4433 O 438.807 2.18399 1.61289 0
M  V30 4434 C 437.263 3.55136 -0.583671 0
M  V30 4435 C 436.871 3.99444 -2.02851 0
M  V30 4436 C 438.615 4.2395 -0.215957 0
M  V30 4437 C 436.522 5.48796 -2.20403 0
M  V30 4438 H 435.452 0.742888 -0.128972 0
M  V30 4439 H 438.103 1.5587 -0.968337 0
M  V30 4440 H 436.485 3.95875 0.0994046 0
M  V30 4441 H 437.659 3.6991 -2.74779 0
M  V30 4442 H 435.974 3.43459 -2.35425 0
M  V30 4443 H 438.571 5.33709 -0.325405 0
M  V30 4444 H 438.914 4.07827 0.835646 0
M  V30 4445 H 439.447 3.88565 -0.852175 0
M  V30 4446 H 436.186 5.69864 -3.23937 0
M  V30 4447 H 435.706 5.79964 -1.52977 0
M  V30 4448 H 437.385 6.14986 -2.01002 0
M  V30 4449 N 437.518 0.538854 1.48102 0
M  V30 4450 C 438.481 -0.208395 2.28251 0
M  V30 4451 C 439.481 -0.859656 1.35892 0
M  V30 4452 O 440.671 -0.71834 1.58699 0
M  V30 4453 C 437.803 -1.30252 3.15035 0
M  V30 4454 H 438.996 0.495407 2.9578 0
M  V30 4455 H 436.549 0.295112 1.53489 0
M  V30 4456 H 437.284 -2.0393 2.52157 0
M  V30 4457 H 437.069 -0.840551 3.82985 0
M  V30 4458 H 438.559 -1.82787 3.75471 0
M  V30 4459 N 438.996 -1.55193 0.274407 0
M  V30 4460 C 439.906 -2.26164 -0.623473 0
M  V30 4461 C 440.922 -1.28729 -1.17068 0
M  V30 4462 O 442.098 -1.61663 -1.20112 0
M  V30 4463 C 439.163 -2.96833 -1.7914 0
M  V30 4464 C 438.224 -4.09745 -1.28093 0
M  V30 4465 C 437.457 -4.77034 -2.3932 0
M  V30 4466 O 437.68 -4.4353 -3.5866 0
M  V30 4467 O 436.614 -5.64996 -2.07516 0
M  V30 4468 H 440.44 -3.03661 -0.0485661 0
M  V30 4469 H 438.025 -1.49341 0.0418382 0
M  V30 4470 H 439.907 -3.41248 -2.4724 0
M  V30 4471 H 438.582 -2.22253 -2.35341 0
M  V30 4472 H 437.489 -3.69787 -0.566416 0
M  V30 4473 H 438.822 -4.86224 -0.764683 0
M  V30 4474 N 440.474 -0.00167713 -1.576 0
M  V30 4475 C 441.437 0.974046 -2.07473 0
M  V30 4476 C 442.437 1.27143 -0.984444 0
M  V30 4477 O 443.627 1.21633 -1.24703 0
M  V30 4478 C 440.759 2.29849 -2.51759 0
M  V30 4479 H 441.952 0.54262 -2.9495 0
M  V30 4480 H 439.505 0.245829 -1.54355 0
M  V30 4481 H 440.24 2.77677 -1.67529 0
M  V30 4482 H 440.025 2.09584 -3.31386 0
M  V30 4483 H 441.515 2.9984 -2.90664 0
M  V30 4484 N 441.952 1.55251 0.271103 0
M  V30 4485 C 442.882 1.9127 1.33933 0
M  V30 4486 C 443.863 0.77478 1.5143 0
M  V30 4487 O 445.048 1.03307 1.64442 0
M  V30 4488 C 442.178 2.18627 2.69851 0
M  V30 4489 C 441.132 3.34442 2.67081 0
M  V30 4490 C 440.458 3.47284 4.06569 0
M  V30 4491 C 441.758 4.70784 2.26185 0
M  V30 4492 H 443.452 2.80744 1.04035 0
M  V30 4493 H 440.998 1.35077 0.499017 0
M  V30 4494 H 442.951 2.42413 3.44694 0
M  V30 4495 H 441.675 1.25955 3.01335 0
M  V30 4496 H 440.334 3.10627 1.94695 0
M  V30 4497 H 439.982 2.52074 4.35279 0
M  V30 4498 H 439.682 4.25152 4.0561 0
M  V30 4499 H 441.206 3.73363 4.83148 0
M  V30 4500 H 442.62 4.94102 2.90751 0
M  V30 4501 H 441.017 5.51582 2.36384 0
M  V30 4502 H 442.087 4.69478 1.21319 0
M  V30 4503 N 443.43 -0.535701 1.48216 0
M  V30 4504 C 444.393 -1.623 1.61838 0
M  V30 4505 C 445.393 -1.53087 0.492024 0
M  V30 4506 O 446.583 -1.5686 0.757668 0
M  V30 4507 C 443.715 -3.01907 1.58319 0
M  V30 4508 H 444.908 -1.51564 2.58783 0
M  V30 4509 H 442.461 -0.757317 1.36727 0
M  V30 4510 H 443.196 -3.18155 0.628299 0
M  V30 4511 H 442.981 -3.10003 2.40085 0
M  V30 4512 H 444.471 -3.80969 1.71033 0
M  V30 4513 N 444.908 -1.36708 -0.784132 0
M  V30 4514 C 445.856 -1.31533 -1.91838 0
M  V30 4515 C 446.85 -0.206205 -1.6814 0
M  V30 4516 O 448.056 -0.373519 -1.76082 0
M  V30 4517 H 444.431 -0.409613 -0.630651 0
M  V30 4518 H 446.402 -2.2731 -1.9332 0
M  V30 4519 C 445.151 -1.12679 -3.28936 0
M  V30 4520 H 444.474 -1.97274 -3.4774 0
M  V30 4521 H 445.914 -1.13106 -4.08636 0
M  V30 4522 C 444.373 0.168281 -3.36479 0
M  V30 4523 O 444.903 1.15625 -3.84699 0
M  V30 4524 N 443.109 0.214762 -2.89805 0
M  V30 4525 H 442.656 -0.589852 -2.50756 0
M  V30 4526 H 442.614 1.08094 -2.95234 0
M  V30 4527 N 446.386 1.0089 -1.21074 0
M  V30 4528 C 447.333 2.09588 -0.966512 0
M  V30 4529 C 448.303 1.65761 0.106089 0
M  V30 4530 O 449.488 1.90758 -0.0402287 0
M  V30 4531 C 446.628 3.40958 -0.533058 0
M  V30 4532 C 445.741 3.9822 -1.67467 0
M  V30 4533 C 444.876 5.17682 -1.19076 0
M  V30 4534 C 443.915 5.67043 -2.30496 0
M  V30 4535 N 443.052 6.77759 -1.83267 0
M  V30 4536 H 447.892 2.29815 -1.89708 0
M  V30 4537 H 445.429 1.12689 -0.945489 0
M  V30 4538 H 447.387 4.1637 -0.263019 0
M  V30 4539 H 446.017 3.20781 0.360505 0
M  V30 4540 H 445.069 3.1983 -2.05944 0
M  V30 4541 H 446.381 4.3085 -2.51336 0
M  V30 4542 H 445.535 6.00326 -0.877151 0
M  V30 4543 H 444.274 4.86635 -0.322066 0
M  V30 4544 H 443.279 4.82999 -2.62664 0
M  V30 4545 H 444.504 6.00121 -3.17855 0
M  V30 4546 H 442.45 6.48527 -0.987356 0
M  V30 4547 H 442.367 7.09624 -2.60711 0
M  V30 4548 H 443.635 7.63949 -1.54928 0
M  V30 4549 N 447.864 1.01787 1.20321 0
M  V30 4550 C 448.814 0.559976 2.21016 0
M  V30 4551 C 449.798 -0.385366 1.56217 0
M  V30 4552 O 450.99 -0.208126 1.75772 0
M  V30 4553 C 448.119 -0.0990553 3.43157 0
M  V30 4554 C 447.205 0.86807 4.15121 0
M  V30 4555 N 447.596 2.0261 4.63447 0
M  V30 4556 C 445.894 0.689162 4.40643 0
M  V30 4557 C 446.595 2.63518 5.18588 0
M  V30 4558 N 445.571 1.91569 5.08726 0
M  V30 4559 H 449.373 1.44281 2.56048 0
M  V30 4560 H 446.887 0.883381 1.36272 0
M  V30 4561 H 448.884 -0.444643 4.14522 0
M  V30 4562 H 447.544 -0.977709 3.0963 0
M  V30 4563 H 448.555 2.40598 4.58621 0
M  V30 4564 H 445.232 -0.14133 4.17261 0
M  V30 4565 H 446.622 3.61527 5.66346 0
M  V30 4566 N 449.342 -1.36122 0.79427 0
M  V30 4567 C 450.57 -2.03362 0.380989 0
M  V30 4568 C 450.985 -1.59881 -1.00416 0
M  V30 4569 O 450.342 -0.790515 -1.6449 0
M  V30 4570 C 450.393 -3.58804 0.440649 0
M  V30 4571 O 450.114 -4.007 1.77118 0
M  V30 4572 C 451.615 -4.43296 0.0186117 0
M  V30 4573 H 448.835 -0.652526 0.156367 0
M  V30 4574 H 451.379 -1.73998 1.07447 0
M  V30 4575 H 449.534 -3.8686 -0.204458 0
M  V30 4576 H 449.948 -4.95309 1.72538 0
M  V30 4577 H 451.422 -5.51887 0.111488 0
M  V30 4578 H 451.899 -4.2684 -1.03461 0
M  V30 4579 H 452.505 -4.20512 0.636395 0
M  V30 4580 N 450.82 -0.546701 -1.47814 0
M  V30 4581 C 452.069 -0.0166497 -2.01693 0
M  V30 4582 C 452.382 1.33721 -1.42752 0
M  V30 4583 O 453.588 1.95658 -1.8823 0
M  V30 4584 C 452.044 0.0206769 -3.59894 0
M  V30 4585 C 451.652 -1.3293 -4.27824 0
M  V30 4586 C 453.396 0.498674 -4.21561 0
M  V30 4587 C 451.303 -1.25165 -5.78003 0
M  V30 4588 H 450.233 -0.0024541 -0.753996 0
M  V30 4589 H 452.884 -0.692984 -1.69912 0
M  V30 4590 H 451.266 0.76244 -3.88591 0
M  V30 4591 H 452.44 -2.08795 -4.10781 0
M  V30 4592 H 450.755 -1.74438 -3.78101 0
M  V30 4593 H 453.352 0.575 -5.31599 0
M  V30 4594 H 453.695 1.5083 -3.88016 0
M  V30 4595 H 454.228 -0.18791 -3.97356 0
M  V30 4596 H 450.967 -2.23695 -6.1615 0
M  V30 4597 H 450.487 -0.53464 -5.97412 0
M  V30 4598 H 452.166 -0.949299 -6.39998 0
M  V30 4599 N 452.299 1.55045 -0.282633 0
M  V30 4600 C 453.576 1.9179 0.384166 0
M  V30 4601 C 453.956 1.20778 1.73136 0
M  V30 4602 O 453.304 0.33719 2.25998 0
M  V30 4603 C 453.514 3.45149 0.517014 0
M  V30 4604 C 454.862 4.17064 0.796427 0
M  V30 4605 O 455.886 3.51084 0.601535 0
M  V30 4606 O 454.745 5.33837 1.16962 0
M  V30 4607 H 451.839 0.799483 0.211558 0
M  V30 4608 H 454.385 1.66474 -0.32934 0
M  V30 4609 H 453.157 3.88922 -0.430772 0
M  V30 4610 H 452.78 3.76443 1.2797 0
M  V30 4611 N 453.777 0.010035 1.57597 0
M  V30 4612 C 454.709 -1.00649 2.05918 0
M  V30 4613 C 455.722 -1.30077 0.978964 0
M  V30 4614 O 456.911 -1.26878 1.25556 0
M  V30 4615 C 454.011 -2.33876 2.45265 0
M  V30 4616 C 453.184 -2.23242 3.7614 0
M  V30 4617 C 452.243 -3.39242 4.02245 0
M  V30 4618 O 451.269 -3.1698 4.72771 0
M  V30 4619 N 452.471 -4.6242 3.50924 0
M  V30 4620 H 455.236 -0.594333 2.93748 0
M  V30 4621 H 452.797 -0.17714 1.60928 0
M  V30 4622 H 454.789 -3.1027 2.59836 0
M  V30 4623 H 453.359 -2.66799 1.62902 0
M  V30 4624 H 452.579 -1.31696 3.71551 0
M  V30 4625 H 453.867 -2.13321 4.61922 0
M  V30 4626 H 453.265 -4.83404 2.93832 0
M  V30 4627 H 451.822 -5.36046 3.70807 0
M  V30 4628 N 455.255 -1.55392 -0.262866 0
M  V30 4629 C 456.671 -1.47459 -0.610582 0
M  V30 4630 C 456.871 -0.697031 -1.8906 0
M  V30 4631 O 455.927 -0.219952 -2.5154 0
M  V30 4632 C 457.24 -2.91751 -0.728131 0
M  V30 4633 C 458.788 -3.02027 -0.821517 0
M  V30 4634 C 459.263 -4.47594 -0.97076 0
M  V30 4635 N 460.754 -4.51465 -1.03603 0
M  V30 4636 C 461.489 -5.61326 -1.17049 0
M  V30 4637 N 460.985 -6.81032 -1.2715 0
M  V30 4638 N 462.778 -5.49089 -1.20239 0
M  V30 4639 H 454.929 -2.04395 0.577632 0
M  V30 4640 H 457.192 -0.927287 0.197086 0
M  V30 4641 H 456.898 -3.51413 0.142132 0
M  V30 4642 H 456.772 -3.4134 -1.6052 0
M  V30 4643 H 459.159 -2.42456 -1.68224 0
M  V30 4644 H 459.24 -2.55674 0.0803688 0
M  V30 4645 H 458.884 -5.07771 -0.114655 0
M  V30 4646 H 458.814 -4.91613 -1.88745 0
M  V30 4647 H 461.305 -3.6524 -0.96996 0
M  V30 4648 H 461.618 -7.60511 -1.37271 0
M  V30 4649 H 459.963 -6.83824 -1.24136 0
M  V30 4650 H 463.154 -4.54507 -1.11985 0
M  V30 4651 H 463.327 -6.34749 -1.30373 0
M  V30 4652 N 456.733 0.527833 -1.48498 0
M  V30 4653 C 457.666 1.64892 -1.57753 0
M  V30 4654 C 458.644 1.5687 -0.427867 0
M  V30 4655 O 459.828 1.77311 -0.639764 0
M  V30 4656 C 456.955 3.03301 -1.50752 0
M  V30 4657 C 456.001 3.29675 -2.70586 0
M  V30 4658 S 456.834 3.15712 -4.32535 0
M  V30 4659 C 457.99 4.56564 -4.28136 0
M  V30 4660 H 458.223 1.56792 -2.52594 0
M  V30 4661 H 455.756 0.710959 -1.37057 0
M  V30 4662 H 457.714 3.83123 -1.474 0
M  V30 4663 H 456.375 3.08839 -0.572454 0
M  V30 4664 H 455.568 4.3065 -2.61833 0
M  V30 4665 H 455.17 2.57526 -2.71212 0
M  V30 4666 H 457.462 5.48126 -3.98201 0
M  V30 4667 H 458.405 4.70371 -5.29298 0
M  V30 4668 H 458.813 4.35987 -3.58574 0
M  V30 4669 N 458.211 1.37122 0.776871 0
M  V30 4670 C 459.441 1.35034 1.56363 0
M  V30 4671 C 459.849 -0.0674681 1.8908 0
M  V30 4672 O 459.192 -1.03826 1.51545 0
M  V30 4673 C 459.254 2.11894 2.90415 0
M  V30 4674 C 458.918 3.60897 2.80362 0
M  V30 4675 C 459.915 4.54887 2.51742 0
M  V30 4676 C 457.6 4.03951 2.98545 0
M  V30 4677 C 459.594 5.89909 2.41426 0
M  V30 4678 C 457.281 5.3906 2.87849 0
M  V30 4679 C 458.279 6.31852 2.5933 0
M  V30 4680 O 457.967 7.64479 2.48651 0
M  V30 4681 H 457.699 0.464402 0.49123 0
M  V30 4682 H 460.253 1.80992 0.971127 0
M  V30 4683 H 458.483 1.60618 3.51765 0
M  V30 4684 H 460.172 2.02505 3.51776 0
M  V30 4685 H 460.938 4.22934 2.37385 0
M  V30 4686 H 456.817 3.3209 3.19746 0
M  V30 4687 H 460.361 6.62304 2.19086 0
M  V30 4688 H 456.258 5.70617 3.01773 0
M  V30 4689 H 457.026 7.74742 2.64039 0
M  V30 4690 N 459.689 -1.00246 1.21608 0
M  V30 4691 C 460.652 -2.07233 0.979133 0
M  V30 4692 C 461.652 -1.6072 -0.0508219 0
M  V30 4693 O 462.842 -1.73196 0.186712 0
M  V30 4694 C 459.974 -3.37546 0.477016 0
M  V30 4695 H 461.167 -2.29687 1.92831 0
M  V30 4696 H 458.72 -1.17261 1.03342 0
M  V30 4697 H 459.455 -3.20773 -0.476966 0
M  V30 4698 H 459.24 -3.72638 1.21997 0
M  V30 4699 H 460.73 -4.16285 0.331181 0
M  V30 4700 N 461.167 -1.02423 -1.1978 0
M  V30 4701 C 462.097 -0.62157 -2.25075 0
M  V30 4702 C 463.078 0.367148 -1.6609 0
M  V30 4703 O 464.263 0.250892 -1.92573 0
M  V30 4704 C 461.393 0.0331826 -3.47284 0
M  V30 4705 C 460.347 -0.877323 -4.18912 0
M  V30 4706 C 459.673 -0.0879296 -5.34628 0
M  V30 4707 C 460.973 -2.18892 -4.74219 0
M  V30 4708 H 462.667 -1.50179 -2.59011 0
M  V30 4709 H 460.213 -0.723547 -1.24502 0
M  V30 4710 H 462.166 0.326488 -4.20133 0
M  V30 4711 H 460.89 0.948164 -3.12534 0
M  V30 4712 H 459.549 -1.15475 -3.47938 0
M  V30 4713 H 459.197 0.828941 -4.96123 0
M  V30 4714 H 458.897 -0.694359 -5.83483 0
M  V30 4715 H 460.421 0.198743 -6.10276 0
M  V30 4716 H 461.835 -1.95746 -5.38847 0
M  V30 4717 H 460.232 -2.74686 -5.33542 0
M  V30 4718 H 461.302 -2.84674 -3.92541 0
M  V30 4719 N 462.645 1.35699 -0.801477 0
M  V30 4720 C 463.87 2.03687 -0.390678 0
M  V30 4721 C 464.295 1.60015 0.988778 0
M  V30 4722 O 463.653 0.774357 1.63931 0
M  V30 4723 C 463.701 3.57439 -0.476404 0
M  V30 4724 O 462.805 4.09208 0.512106 0
M  V30 4725 H 462.146 0.64344 -0.163956 0
M  V30 4726 H 464.676 1.73403 -1.08594 0
M  V30 4727 H 464.686 4.06544 -0.344357 0
M  V30 4728 H 463.361 3.88576 -1.48262 0
M  V30 4729 H 461.938 3.7134 0.340721 0
M  V30 4730 N 464.123 0.554532 1.47522 0
M  V30 4731 C 465.07 -0.19466 2.29978 0
M  V30 4732 C 466.04 -0.910882 1.38896 0
M  V30 4733 O 467.225 -0.907102 1.67858 0
M  V30 4734 C 464.365 -1.22035 3.22802 0
M  V30 4735 C 463.478 -0.510474 4.28973 0
M  V30 4736 C 462.613 -1.52123 5.08952 0
M  V30 4737 C 461.652 -0.796173 6.069 0
M  V30 4738 N 460.789 -1.75363 6.79847 0
M  V30 4739 H 465.629 0.51461 2.93523 0
M  V30 4740 H 463.166 0.265607 1.44682 0
M  V30 4741 H 465.124 -1.8276 3.7504 0
M  V30 4742 H 463.754 -1.89769 2.61127 0
M  V30 4743 H 462.806 0.211234 3.79813 0
M  V30 4744 H 464.118 0.0576503 4.98767 0
M  V30 4745 H 463.272 -2.20207 5.65326 0
M  V30 4746 H 462.011 -2.12327 4.39054 0
M  V30 4747 H 461.016 -0.101388 5.49707 0
M  V30 4748 H 462.241 -0.199911 6.78806 0
M  V30 4749 H 460.187 -2.3443 6.12682 0
M  V30 4750 H 460.104 -1.23759 7.45801 0
M  V30 4751 H 461.372 -2.4257 7.40797 0
M  V30 4752 N 465.601 -1.54893 0.290851 0
M  V30 4753 C 466.511 -2.26812 -0.59945 0
M  V30 4754 C 467.527 -1.29963 -1.15696 0
M  V30 4755 O 468.703 -1.62928 -1.18391 0
M  V30 4756 C 465.768 -2.98716 -1.75982 0
M  V30 4757 C 464.829 -4.1108 -1.2374 0
M  V30 4758 C 464.062 -4.79546 -2.34246 0
M  V30 4759 O 464.285 -4.47309 -3.53936 0
M  V30 4760 O 463.219 -5.67165 -2.01512 0
M  V30 4761 H 467.045 -3.03696 -0.0163561 0
M  V30 4762 H 464.63 -1.49289 0.0576755 0
M  V30 4763 H 466.512 -3.43851 -2.43607 0
M  V30 4764 H 465.187 -2.24737 -2.3297 0
M  V30 4765 H 464.094 -3.70367 -0.527163 0
M  V30 4766 H 465.427 -4.87007 -0.71307 0
M  V30 4767 N 467.08 -0.0183926 -1.57589 0
M  V30 4768 C 468.01 0.965596 -2.12599 0
M  V30 4769 C 468.991 1.34641 -1.0395 0
M  V30 4770 O 470.176 1.42693 -1.31729 0
M  V30 4771 C 467.306 2.25149 -2.64434 0
M  V30 4772 C 466.26 2.01175 -3.77773 0
M  V30 4773 C 465.586 3.35937 -4.15994 0
M  V30 4774 C 466.886 1.35953 -5.04296 0
M  V30 4775 H 468.58 0.507504 -2.95067 0
M  V30 4776 H 466.126 0.242671 -1.41941 0
M  V30 4777 H 468.079 2.94357 -3.01549 0
M  V30 4778 H 466.803 2.73105 -1.79112 0
M  V30 4779 H 465.462 1.34388 -3.4108 0
M  V30 4780 H 465.11 3.81631 -3.27669 0
M  V30 4781 H 464.81 3.20705 -4.92364 0
M  V30 4782 H 466.334 4.0643 -4.55683 0
M  V30 4783 H 467.748 1.95144 -5.39065 0
M  V30 4784 H 466.145 1.31152 -5.85593 0
M  V30 4785 H 467.215 0.331071 -4.83768 0
M  V30 4786 N 468.558 1.5553 0.254621 0
M  V30 4787 C 469.783 1.81383 1.00573 0
M  V30 4788 C 470.208 0.594419 1.78461 0
M  V30 4789 O 469.566 -0.456403 1.75461 0
M  V30 4790 C 469.614 3.04892 1.92545 0
M  V30 4791 O 468.718 2.81266 3.01601 0
M  V30 4792 H 468.059 0.598969 0.286587 0
M  V30 4793 H 470.589 2.02703 0.277952 0
M  V30 4794 H 470.599 3.34119 2.34155 0
M  V30 4795 H 469.274 3.93287 1.3527 0
M  V30 4796 H 467.851 2.63185 2.64174 0
M  V30 4797 N 470.036 -0.519951 1.48776 0
M  V30 4798 C 471.285 -1.27175 1.56555 0
M  V30 4799 C 471.598 -1.9401 0.248869 0
M  V30 4800 O 472.804 -2.70725 0.205004 0
M  V30 4801 C 471.26 -2.30811 2.76142 0
M  V30 4802 C 470.868 -1.7 4.14493 0
M  V30 4803 C 472.612 -3.06937 2.9324 0
M  V30 4804 C 470.519 -2.71635 5.25327 0
M  V30 4805 H 469.449 -0.478329 0.582853 0
M  V30 4806 H 472.1 -0.547916 1.75129 0
M  V30 4807 H 470.482 -3.06274 2.51023 0
M  V30 4808 H 471.656 -1.00658 4.49672 0
M  V30 4809 H 469.971 -1.06331 4.02595 0
M  V30 4810 H 472.568 -3.82905 3.73213 0
M  V30 4811 H 472.911 -3.63409 2.03075 0
M  V30 4812 H 473.444 -2.38589 3.18308 0
M  V30 4813 H 470.183 -2.1997 6.1749 0
M  V30 4814 H 469.703 -3.39275 4.94624 0
M  V30 4815 H 471.382 -3.34429 5.53865 0
M  V30 4816 O 471.553 -1.47171 -0.665045 0
M  V30 4817 H 472.244 -1.41937 -1.31809 0
M  V30 END ATOM
M  V30 BEGIN BOND
M  V30 END BOND
M  V30 END CTAB
M  END
$$$$
