drugbank_target|P15170 Eukaryotic peptide chain release factor GTP-binding subunit ERF3A (DB04315)
 OpenBabel12092120533D

  0  0  0     0  0            999 V3000
M  V30 BEGIN CTAB
M  V30 COUNTS 7826 7906 0 0 0
M  V30 BEGIN ATOM
M  V30 1 H -0.908 1.98254 -0.117106 0
M  V30 2 N 0 1.576 0 0
M  V30 3 C 0.933 2.03868 1.02534 0
M  V30 4 C 1.911 0.928543 1.3348 0
M  V30 5 O 3.095 1.19667 1.45644 0
M  V30 6 C 0.222 2.43627 2.35294 0
M  V30 7 C -0.732 3.65373 2.2001 0
M  V30 8 S 0.101 5.13292 1.52614 0
M  V30 9 C 1.257 5.56322 2.86805 0
M  V30 10 H 1.49 2.90518 0.631377 0
M  V30 11 H -0.977 1.52953 0.210867 0
M  V30 12 H 0.981 2.67203 3.11629 0
M  V30 13 H -0.358 1.57376 2.7183 0
M  V30 14 H -1.165 3.90944 3.18086 0
M  V30 15 H -1.563 3.418 1.51819 0
M  V30 16 H 0.729 5.58782 3.83104 0
M  V30 17 H 1.672 6.56266 2.65933 0
M  V30 18 H 2.08 4.83886 2.90714 0
M  V30 19 N 1.4781 -0.272755 1.55222 0
M  V30 20 C 2.3881 -1.35918 1.91216 0
M  V30 21 C 3.4041 -1.54026 0.809436 0
M  V30 22 O 4.5801 -1.68148 1.10852 0
M  V30 23 C 1.6451 -2.69834 2.17693 0
M  V30 24 C 0.7061 -2.6047 3.41253 0
M  V30 25 C -0.0609 -3.88 3.66458 0
M  V30 26 O 0.1621 -4.88693 2.94169 0
M  V30 27 O -0.9039 -3.88189 4.59992 0
M  V30 28 H 2.9221 -1.0839 2.83699 0
M  V30 29 H 0.5071 -0.471301 1.41771 0
M  V30 30 H 2.3891 -3.49017 2.36147 0
M  V30 31 H 1.0641 -2.97148 1.28392 0
M  V30 32 H -0.0289 -1.79663 3.28134 0
M  V30 33 H 1.3041 -2.38106 4.30774 0
M  V30 34 N 2.9562 -1.48159 -0.537278 0
M  V30 35 C 3.8862 -1.65029 -1.6519 0
M  V30 36 C 4.8672 -0.499281 -1.62607 0
M  V30 37 O 6.0522 -0.730972 -1.79918 0
M  V30 38 C 3.1822 -1.68303 -3.03795 0
M  V30 39 C 2.1362 -2.8283 -3.21234 0
M  V30 40 C 1.4622 -2.71189 -4.60826 0
M  V30 41 C 2.7622 -4.24211 -3.04701 0
M  V30 42 H 4.4562 -2.58341 -1.51328 0
M  V30 43 H 2.0022 -1.24325 -0.726585 0
M  V30 44 H 3.9552 -1.78693 -3.81637 0
M  V30 45 H 2.6792 -0.715635 -3.18663 0
M  V30 46 H 1.3382 -2.71983 -2.45807 0
M  V30 47 H 0.9862 -1.72435 -4.7252 0
M  V30 48 H 0.6862 -3.48035 -4.7344 0
M  V30 49 H 2.2102 -2.83537 -5.40777 0
M  V30 50 H 3.6242 -4.3593 -3.72341 0
M  V30 51 H 2.0212 -5.01998 -3.28813 0
M  V30 52 H 3.0912 -4.41184 -2.01209 0
M  V30 53 N 4.4343 0.785586 -1.36625 0
M  V30 54 C 5.6593 1.57963 -1.34397 0
M  V30 55 C 6.0843 1.87964 0.071526 0
M  V30 56 O 5.4423 1.48182 1.0446 0
M  V30 57 C 5.4903 2.87511 -2.17646 0
M  V30 58 O 4.5943 3.81281 -1.57158 0
M  V30 59 H 3.9353 0.479014 -0.459828 0
M  V30 60 H 6.4653 0.973411 -1.79961 0
M  V30 61 H 6.4753 3.36745 -2.30362 0
M  V30 62 H 5.1503 2.65002 -3.20541 0
M  V30 63 H 3.7273 3.39885 -1.53403 0
M  V30 64 N 5.9124 1.20967 1.01018 0
M  V30 65 C 6.8224 0.980157 2.13143 0
M  V30 66 C 7.8384 -0.0660665 1.73875 0
M  V30 67 O 9.0144 0.122821 2.01025 0
M  V30 68 C 6.0794 0.54216 3.42435 0
M  V30 69 C 5.1404 1.65999 3.95908 0
M  V30 70 C 4.3734 1.2428 5.19028 0
M  V30 71 O 4.5964 0.114196 5.70286 0
M  V30 72 O 3.5304 2.05271 5.65816 0
M  V30 73 H 7.3564 1.91913 2.35379 0
M  V30 74 H 4.9414 0.994099 1.11526 0
M  V30 75 H 6.8234 0.30744 4.20277 0
M  V30 76 H 5.4984 -0.36815 3.216 0
M  V30 77 H 4.4054 1.94906 3.19316 0
M  V30 78 H 5.7384 2.54753 4.21143 0
M  V30 79 N 7.3905 -1.2043 1.01659 0
M  V30 80 C 8.8015 -1.71517 0.737482 0
M  V30 81 C 9.1525 -1.81547 -0.743973 0
M  V30 82 O 8.2775 -1.47803 -1.58061 0
M  V30 83 C 8.8725 -3.11515 1.33206 0
M  V30 84 C 7.4315 -3.59912 1.10183 0
M  V30 85 C 6.5785 -2.37116 1.43776 0
M  V30 86 H 9.5295 -1.05444 1.18606 0
M  V30 87 H 9.5505 -3.73575 0.722636 0
M  V30 88 H 9.0625 -3.04182 2.41028 0
M  V30 89 H 7.1635 -3.72577 0.0412756 0
M  V30 90 H 7.2765 -4.44731 1.78188 0
M  V30 91 H 5.6405 -2.39857 0.856778 0
M  V30 92 H 6.4235 -2.32424 2.52654 0
M  V30 93 N 8.8686 -0.792821 -1.36206 0
M  V30 94 C 10.1176 -0.363353 -1.984 0
M  V30 95 C 10.4306 1.07172 -1.63626 0
M  V30 96 O 11.6366 1.60362 -2.19081 0
M  V30 97 C 10.0926 -0.59872 -3.54885 0
M  V30 98 C 9.7006 -2.04543 -3.9858 0
M  V30 99 C 11.4446 -0.233926 -4.23855 0
M  V30 100 C 9.3516 -2.22727 -5.47856 0
M  V30 101 H 8.2816 -0.13212 -0.742334 0
M  V30 102 H 10.9326 -0.974935 -1.55458 0
M  V30 103 H 9.3146 0.0826222 -3.95914 0
M  V30 104 H 10.4886 -2.76345 -3.68741 0
M  V30 105 H 8.8036 -2.36879 -3.42458 0
M  V30 106 H 11.4006 -0.348027 -5.33566 0
M  V30 107 H 11.7436 0.818351 -4.08177 0
M  V30 108 H 12.2766 -0.868639 -3.882 0
M  V30 109 H 9.0156 -3.2635 -5.68486 0
M  V30 110 H 8.5356 -1.55434 -5.7931 0
M  V30 111 H 10.2146 -2.03607 -6.14128 0
M  V30 112 N 10.3467 1.47872 -0.545128 0
M  V30 113 C 11.5927 2.02793 -0.0166104 0
M  V30 114 C 11.9257 1.41987 1.32489 0
M  V30 115 O 11.2007 0.571045 1.85928 0
M  V30 116 C 11.4837 3.59989 0.0893294 0
M  V30 117 C 11.3367 4.3125 -1.27841 0
M  V30 118 C 12.6557 4.32606 0.808724 0
M  V30 119 H 9.7747 0.736962 -0.00751035 0
M  V30 120 H 12.4167 1.76433 -0.705085 0
M  V30 121 H 10.5667 3.82579 0.675681 0
M  V30 122 H 12.2387 4.20035 -1.90704 0
M  V30 123 H 10.4817 3.92076 -1.85632 0
M  V30 124 H 11.1527 5.39736 -1.15713 0
M  V30 125 H 13.6287 4.14936 0.310992 0
M  V30 126 H 12.5047 5.42251 0.851782 0
M  V30 127 H 12.7657 4.00963 1.86229 0
M  V30 128 N 11.8248 0.280983 1.55075 0
M  V30 129 C 12.7348 -0.61388 2.26426 0
M  V30 130 C 13.7508 -1.16521 1.29224 0
M  V30 131 O 14.9268 -1.19426 1.62171 0
M  V30 132 C 11.9918 -1.7788 2.9759 0
M  V30 133 C 11.0528 -1.26355 4.10284 0
M  V30 134 C 10.2858 -2.37295 4.78045 0
M  V30 135 O 10.5088 -3.56777 4.45047 0
M  V30 136 O 9.4428 -2.05119 5.65871 0
M  V30 137 H 13.2688 -0.0356932 3.03679 0
M  V30 138 H 10.8538 0.0481686 1.49322 0
M  V30 139 H 12.7358 -2.45791 3.42293 0
M  V30 140 H 11.4108 -2.34397 2.23249 0
M  V30 141 H 10.3178 -0.550735 3.70024 0
M  V30 142 H 11.6508 -0.744065 4.86543 0
M  V30 143 N 13.3029 -1.57598 0.00835791 0
M  V30 144 C 14.2509 -2.10078 -0.998508 0
M  V30 145 C 15.2449 -1.02262 -1.35051 0
M  V30 146 O 16.4509 -1.20719 -1.33518 0
M  V30 147 H 12.8259 -0.670903 -0.339696 0
M  V30 148 H 14.7969 -2.93648 -0.530398 0
M  V30 149 C 13.5459 -2.62615 -2.27879 0
M  V30 150 H 12.8689 -3.45213 -2.01662 0
M  V30 151 H 14.3089 -3.03004 -2.96588 0
M  V30 152 C 12.7679 -1.54407 -2.99433 0
M  V30 153 O 13.2979 -0.931812 -3.90743 0
M  V30 154 N 11.5039 -1.2695 -2.61404 0
M  V30 155 H 11.0509 -1.76924 -1.87232 0
M  V30 156 H 11.0089 -0.547704 -3.09593 0
M  V30 157 N 14.781 0.264519 -1.55364 0
M  V30 158 C 16.029 0.993021 -1.76021 0
M  V30 159 C 16.35 1.86511 -0.569099 0
M  V30 160 O 15.62 1.91438 0.415735 0
M  V30 161 H 14.2 0.369639 -0.649135 0
M  V30 162 H 16.862 0.286707 -1.9278 0
M  V30 163 H 15.958 1.62502 -2.66457 0
M  V30 164 N 16.2591 1.48442 0.529413 0
M  V30 165 C 17.1691 1.6569 1.66084 0
M  V30 166 C 18.1851 0.539432 1.65427 0
M  V30 167 O 19.3611 0.810572 1.84368 0
M  V30 168 C 16.4261 1.69315 3.02545 0
M  V30 169 C 15.4871 2.92694 3.14052 0
M  V30 170 C 14.7201 2.96137 4.44003 0
M  V30 171 O 14.9431 2.07973 5.31134 0
M  V30 172 O 13.8771 3.88312 4.59888 0
M  V30 173 H 17.7031 2.61483 1.54469 0
M  V30 174 H 15.2881 1.3185 0.702567 0
M  V30 175 H 17.1701 1.74217 3.83701 0
M  V30 176 H 15.8451 0.766966 3.14483 0
M  V30 177 H 14.7521 2.93324 2.32189 0
M  V30 178 H 16.0851 3.84699 3.0703 0
M  V30 179 N 17.7372 -0.778329 1.37039 0
M  V30 180 C 18.9652 -1.56734 1.35063 0
M  V30 181 C 19.3802 -1.88686 -0.0655597 0
M  V30 182 O 18.7372 -1.5096 -1.02554 0
M  V30 183 C 18.7882 -2.88163 2.18276 0
M  V30 184 O 18.5092 -2.57583 3.54376 0
M  V30 185 C 20.0102 -3.82422 2.24206 0
M  V30 186 H 17.2302 -0.485778 0.462883 0
M  V30 187 H 19.7742 -0.965185 1.8029 0
M  V30 188 H 17.9292 -3.44818 1.76576 0
M  V30 189 H 18.3432 -3.41699 3.97922 0
M  V30 190 H 19.8172 -4.71667 2.86765 0
M  V30 191 H 20.2942 -4.21078 1.24861 0
M  V30 192 H 20.9002 -3.31697 2.6619 0
M  V30 193 N 19.2153 -1.21501 -1.00376 0
M  V30 194 C 20.1253 -0.991447 -2.12621 0
M  V30 195 C 21.1413 0.0568446 -1.73907 0
M  V30 196 O 22.3173 -0.13348 -2.00957 0
M  V30 197 C 19.3823 -0.560312 -3.42142 0
M  V30 198 C 18.4433 -1.68096 -3.95022 0
M  V30 199 C 17.6763 -1.2703 -5.18362 0
M  V30 200 O 17.8993 -0.144438 -5.70217 0
M  V30 201 O 16.8333 -2.08269 -5.64719 0
M  V30 202 H 20.6593 -1.93158 -2.34358 0
M  V30 203 H 18.2443 -0.999999 -1.10997 0
M  V30 204 H 20.1263 -0.329724 -4.20108 0
M  V30 205 H 18.8013 0.351089 -3.2179 0
M  V30 206 H 17.7083 -1.96597 -3.18278 0
M  V30 207 H 19.0413 -2.56983 -4.19786 0
M  V30 208 N 20.6934 1.19889 -1.02296 0
M  V30 209 C 21.6264 2.21639 -0.543282 0
M  V30 210 C 22.6044 1.57275 0.412698 0
M  V30 211 O 23.7884 1.85568 0.331198 0
M  V30 212 C 20.9154 3.38057 0.208571 0
M  V30 213 C 19.9614 4.20751 -0.697933 0
M  V30 214 S 20.7944 4.89529 -2.17075 0
M  V30 215 C 21.9504 6.09363 -1.42923 0
M  V30 216 H 22.1834 2.61984 -1.40541 0
M  V30 217 H 19.7164 1.30041 -0.832387 0
M  V30 218 H 21.6744 4.05539 0.63624 0
M  V30 219 H 20.3354 2.96159 1.04635 0
M  V30 220 H 19.5284 5.03862 -0.117831 0
M  V30 221 H 19.1304 3.58556 -1.06366 0
M  V30 222 H 21.4224 6.73742 -0.712637 0
M  V30 223 H 22.3654 6.71845 -2.23673 0
M  V30 224 H 22.7734 5.56798 -0.929327 0
M  V30 225 N 22.1715 0.800033 1.35784 0
M  V30 226 C 23.3965 0.388511 2.03729 0
M  V30 227 C 23.8215 -0.990481 1.5991 0
M  V30 228 O 23.1795 -1.64013 0.772612 0
M  V30 229 C 23.2275 0.4726 3.5749 0
M  V30 230 O 22.3315 -0.51646 4.09153 0
M  V30 231 H 21.6725 0.163271 0.643614 0
M  V30 232 H 24.2025 1.0841 1.73518 0
M  V30 233 H 24.2125 0.34003 4.06581 0
M  V30 234 H 22.8875 1.47848 3.88734 0
M  V30 235 H 21.4645 -0.344673 3.71304 0
M  V30 236 N 23.6496 -1.47581 0.552962 0
M  V30 237 C 25.0606 -1.86324 0.118463 0
M  V30 238 C 25.4116 -1.46006 -1.3106 0
M  V30 239 O 24.5366 -0.861182 -1.98526 0
M  V30 240 C 25.1316 -3.3816 0.20821 0
M  V30 241 C 23.6906 -3.7601 -0.171226 0
M  V30 242 C 22.8376 -2.71634 0.557686 0
M  V30 243 H 25.7886 -1.39159 0.762928 0
M  V30 244 H 25.8096 -3.76141 -0.574278 0
M  V30 245 H 25.3216 -3.67473 1.24841 0
M  V30 246 H 23.4226 -3.52313 -1.21269 0
M  V30 247 H 23.5356 -4.78745 0.184379 0
M  V30 248 H 21.8996 -2.547 0.00125792 0
M  V30 249 H 22.6826 -3.0379 1.59896 0
M  V30 250 N 25.1277 -0.289203 -1.54924 0
M  V30 251 C 26.0377 0.601863 -2.26748 0
M  V30 252 C 27.0537 1.15834 -1.2984 0
M  V30 253 O 28.2297 1.18564 -1.62802 0
M  V30 254 C 25.2947 1.76299 -2.98529 0
M  V30 255 C 24.3557 1.24178 -4.10948 0
M  V30 256 C 23.5887 2.34757 -4.79296 0
M  V30 257 O 23.8117 3.54411 -4.46933 0
M  V30 258 O 22.7457 2.02115 -5.66951 0
M  V30 259 H 26.5717 0.0195879 -3.03694 0
M  V30 260 H 24.1567 -0.0560868 -1.49295 0
M  V30 261 H 26.0387 2.43973 -3.43592 0
M  V30 262 H 24.7137 2.33209 -2.24488 0
M  V30 263 H 23.6207 0.531104 -3.70311 0
M  V30 264 H 24.9537 0.718252 -4.86931 0
M  V30 265 N 26.6058 1.57591 -0.0167156 0
M  V30 266 C 27.5158 2.1291 0.98521 0
M  V30 267 C 28.5318 1.07834 1.36557 0
M  V30 268 O 29.7078 1.39826 1.44951 0
M  V30 269 C 26.7728 2.63512 2.25305 0
M  V30 270 C 25.8338 3.83256 1.93426 0
M  V30 271 C 25.0668 4.31435 3.14165 0
M  V30 272 O 25.2898 3.78851 4.26413 0
M  V30 273 O 24.2238 5.23416 2.97186 0
M  V30 274 H 28.0498 2.98772 0.544888 0
M  V30 275 H 25.6348 1.48012 0.203141 0
M  V30 276 H 27.5168 2.96183 2.99756 0
M  V30 277 H 26.1918 1.8074 2.68542 0
M  V30 278 H 25.0988 3.55531 1.16398 0
M  V30 279 H 26.4318 4.67153 1.55013 0
M  V30 280 N 28.0839 -0.256276 1.55502 0
M  V30 281 C 29.3089 -1.00766 1.81276 0
M  V30 282 C 29.7339 -1.78524 0.59252 0
M  V30 283 O 29.0919 -1.75413 -0.45827 0
M  V30 284 C 29.1399 -1.92869 3.04687 0
M  V30 285 O 28.2439 -3.019 2.80945 0
M  V30 286 H 27.5849 -0.287224 0.598664 0
M  V30 287 H 30.1149 -0.280109 2.02674 0
M  V30 288 H 30.1249 -2.34511 3.33869 0
M  V30 289 H 28.7999 -1.35689 3.93143 0
M  V30 290 H 27.3769 -2.64454 2.62904 0
M  V30 291 N 29.562 -1.4872 -0.521534 0
M  V30 292 C 30.808 -1.58378 -1.27624 0
M  V30 293 C 31.163 -0.258028 -1.90662 0
M  V30 294 O 30.456 0.739917 -1.76736 0
M  V30 295 C 30.65 -2.66497 -2.38148 0
M  V30 296 C 30.479 -4.09456 -1.85945 0
M  V30 297 C 29.249 -4.76495 -1.68168 0
M  V30 298 C 31.447 -4.95353 -1.3831 0
M  V30 299 N 29.429 -6.0384 -1.1068 0
M  V30 300 C 30.8 -6.13012 -0.928238 0
M  V30 301 C 32.855 -4.81512 -1.26692 0
M  V30 302 C 31.558 -7.18354 -0.368701 0
M  V30 303 C 33.584 -5.86984 -0.721368 0
M  V30 304 C 32.946 -7.03857 -0.276623 0
M  V30 305 H 29.045 -0.634045 -0.457724 0
M  V30 306 H 31.629 -1.85639 -0.587049 0
M  V30 307 H 29.8 -2.41043 -3.04553 0
M  V30 308 H 31.532 -2.65791 -3.05184 0
M  V30 309 H 28.287 -4.32962 -1.91939 0
M  V30 310 H 28.711 -6.71778 -0.839217 0
M  V30 311 H 33.353 -3.91487 -1.5968 0
M  V30 312 H 31.071 -8.08096 -0.0265122 0
M  V30 313 H 34.657 -5.78329 -0.634531 0
M  V30 314 H 33.537 -7.84077 0.138947 0
M  V30 315 N 31.0401 0.771051 -1.3745 0
M  V30 316 C 31.9501 1.91538 -1.35464 0
M  V30 317 C 32.9661 1.72134 -0.254123 0
M  V30 318 O 34.1421 1.95358 -0.489626 0
M  V30 319 C 31.2071 3.26671 -1.16134 0
M  V30 320 C 30.2681 3.58723 -2.35831 0
M  V30 321 C 29.5011 4.87409 -2.17413 0
M  V30 322 O 29.7241 5.58506 -1.15876 0
M  V30 323 O 28.6581 5.18539 -3.05615 0
M  V30 324 H 32.4841 1.96165 -2.31847 0
M  V30 325 H 30.0691 0.9139 -1.18187 0
M  V30 326 H 31.9511 4.07499 -1.07345 0
M  V30 327 H 30.6261 3.22894 -0.228251 0
M  V30 328 H 29.5331 2.78127 -2.50192 0
M  V30 329 H 30.8661 3.67243 -3.27709 0
M  V30 330 N 32.5182 1.22032 0.997298 0
M  V30 331 C 33.4682 0.953838 2.07089 0
M  V30 332 C 34.4522 -0.0938669 1.60626 0
M  V30 333 O 35.6442 0.116078 1.76619 0
M  V30 334 C 32.7732 0.528726 3.39204 0
M  V30 335 C 31.8592 1.61092 3.92314 0
M  V30 336 N 32.2502 2.83768 4.18699 0
M  V30 337 C 30.5482 1.48158 4.20672 0
M  V30 338 C 31.2492 3.53715 4.61802 0
M  V30 339 N 30.2252 2.81174 4.65233 0
M  V30 340 H 34.0272 1.88577 2.25424 0
M  V30 341 H 31.5412 1.11719 1.17867 0
M  V30 342 H 33.5382 0.31915 4.15677 0
M  V30 343 H 32.1982 -0.39635 3.22272 0
M  V30 344 H 33.2092 3.20238 4.07023 0
M  V30 345 H 29.8862 0.622369 4.12835 0
M  V30 346 H 31.2762 4.58793 4.90875 0
M  V30 347 N 33.9963 -1.19345 1.0293 0
M  V30 348 C 34.9433 -2.2258 0.610464 0
M  V30 349 C 35.9133 -1.6179 -0.375946 0
M  V30 350 O 37.0983 -1.88844 -0.272511 0
M  V30 351 C 34.2383 -3.45085 -0.0321473 0
M  V30 352 C 33.3513 -4.20258 1.00035 0
M  V30 353 C 32.4863 -5.3019 0.32746 0
M  V30 354 C 31.5253 -5.97121 1.34584 0
M  V30 355 N 30.6623 -6.98615 0.698726 0
M  V30 356 H 35.5023 -2.57764 1.49538 0
M  V30 357 H 33.0393 -1.26644 0.748311 0
M  V30 358 H 34.9973 -4.15061 -0.421966 0
M  V30 359 H 33.6273 -3.10555 -0.88064 0
M  V30 360 H 32.6793 -3.49223 1.50823 0
M  V30 361 H 33.9913 -4.66175 1.77433 0
M  V30 362 H 33.1453 -6.06587 -0.11718 0
M  V30 363 H 31.8843 -4.85345 -0.478713 0
M  V30 364 H 30.8893 -5.19474 1.80074 0
M  V30 365 H 32.1143 -6.4405 2.15352 0
M  V30 366 H 30.0603 -6.55942 -0.0873471 0
M  V30 367 H 29.9773 -7.42724 1.41058 0
M  V30 368 H 31.2453 -7.79004 0.278102 0
M  V30 369 N 35.4744 -0.807222 -1.35358 0
M  V30 370 C 36.3844 -0.219594 -2.3357 0
M  V30 371 C 37.4004 0.637734 -1.61892 0
M  V30 372 O 38.5764 0.549336 -1.93763 0
M  V30 373 C 35.6414 0.62158 -3.41083 0
M  V30 374 C 34.7024 -0.256315 -4.28534 0
M  V30 375 C 33.9354 0.544807 -5.30912 0
M  V30 376 O 34.1584 1.77944 -5.41934 0
M  V30 377 O 33.0924 -0.0646478 -6.01865 0
M  V30 378 H 36.9184 -1.03208 -2.85625 0
M  V30 379 H 34.5034 -0.569025 -1.38139 0
M  V30 380 H 36.3854 1.10067 -4.06772 0
M  V30 381 H 35.0604 1.41165 -2.91297 0
M  V30 382 H 33.9674 -0.782559 -3.65823 0
M  V30 383 H 35.3004 -1.01034 -4.81719 0
M  V30 384 N 36.9525 1.47285 -0.560781 0
M  V30 385 C 37.8625 2.33846 0.187954 0
M  V30 386 C 38.8785 1.48412 0.908293 0
M  V30 387 O 40.0545 1.81332 0.876388 0
M  V30 388 C 37.1195 3.25178 1.2025 0
M  V30 389 C 36.1805 4.26504 0.489208 0
M  V30 390 C 35.4135 5.13472 1.45542 0
M  V30 391 O 35.6365 5.02959 2.6905 0
M  V30 392 O 34.5705 5.93902 0.977963 0
M  V30 393 H 38.3965 2.99177 -0.522177 0
M  V30 394 H 35.9815 1.45903 -0.321364 0
M  V30 395 H 37.8635 3.81584 1.78805 0
M  V30 396 H 36.5385 2.6247 1.89449 0
M  V30 397 H 35.4455 3.73847 -0.137627 0
M  V30 398 H 36.7785 4.91935 -0.161399 0
M  V30 399 N 38.4306 0.297415 1.54768 0
M  V30 400 C 39.6796 -0.313669 1.99246 0
M  V30 401 C 39.9926 -1.55281 1.18942 0
M  V30 402 O 41.1986 -2.23825 1.5367 0
M  V30 403 C 39.6546 -0.609407 3.54703 0
M  V30 404 C 39.2626 0.611192 4.43811 0
M  V30 405 C 41.0066 -1.18188 4.07715 0
M  V30 406 C 38.9136 0.288805 5.90694 0
M  V30 407 H 37.8436 -0.120979 0.744231 0
M  V30 408 H 40.4946 0.40556 1.78962 0
M  V30 409 H 38.8766 -1.38813 3.70873 0
M  V30 410 H 40.0506 1.3875 4.39414 0
M  V30 411 H 38.3656 1.10205 4.01552 0
M  V30 412 H 40.9626 -1.43727 5.15021 0
M  V30 413 H 41.3056 -2.12299 3.58099 0
M  V30 414 H 41.8386 -0.464944 3.95074 0
M  V30 415 H 38.5776 1.19838 6.44453 0
M  V30 416 H 38.0976 -0.450305 5.98107 0
M  V30 417 H 39.7766 -0.110933 6.46905 0
M  V30 418 N 39.9087 -1.5758 0.0250728 0
M  V30 419 C 41.1337 -1.96337 -0.668317 0
M  V30 420 C 41.5587 -0.901314 -1.651 0
M  V30 421 O 40.9167 0.138187 -1.80773 0
M  V30 422 C 40.9647 -3.34191 -1.35457 0
M  V30 423 O 40.0687 -3.30269 -2.46974 0
M  V30 424 H 39.4097 -0.640281 -0.175887 0
M  V30 425 H 41.9397 -2.0442 0.0857224 0
M  V30 426 H 41.9497 -3.70331 -1.71228 0
M  V30 427 H 40.6247 -4.11036 -0.634218 0
M  V30 428 H 39.2017 -3.05841 -2.13344 0
M  V30 429 N 41.3868 0.248026 -1.55636 0
M  V30 430 C 42.2968 1.32859 -1.93354 0
M  V30 431 C 43.3128 1.52719 -0.833838 0
M  V30 432 O 44.4888 1.66363 -1.13513 0
M  V30 433 C 41.5538 2.66337 -2.21958 0
M  V30 434 C 40.6148 2.55008 -3.45354 0
M  V30 435 C 39.8478 3.82121 -3.72584 0
M  V30 436 O 40.0708 4.83951 -3.01907 0
M  V30 437 O 39.0048 3.80822 -4.6611 0
M  V30 438 H 42.8308 1.03862 -2.85388 0
M  V30 439 H 40.4158 0.448686 -1.42503 0
M  V30 440 H 42.2978 3.45216 -2.4167 0
M  V30 441 H 40.9728 2.95068 -1.33103 0
M  V30 442 H 39.8798 1.7442 -3.30951 0
M  V30 443 H 41.2128 2.31222 -4.34508 0
M  V30 444 N 42.8649 1.48995 0.513639 0
M  V30 445 C 43.8279 1.64229 1.59879 0
M  V30 446 C 44.8279 0.514696 1.5234 0
M  V30 447 O 46.0179 0.78087 1.55718 0
M  V30 448 C 43.1499 1.62783 2.99524 0
M  V30 449 H 44.3429 2.61004 1.47705 0
M  V30 450 H 41.8959 1.37837 0.736936 0
M  V30 451 H 42.6309 0.675461 3.17188 0
M  V30 452 H 42.4159 2.4466 3.06404 0
M  V30 453 H 43.9059 1.76669 3.78388 0
M  V30 454 N 44.343 -0.763751 1.37857 0
M  V30 455 C 45.253 -1.90817 1.36478 0
M  V30 456 C 46.269 -1.71997 0.263248 0
M  V30 457 O 47.445 -1.95095 0.499979 0
M  V30 458 C 44.51 -3.2605 1.17864 0
M  V30 459 C 43.571 -3.57467 2.3773 0
M  V30 460 C 42.804 -4.86249 2.19995 0
M  V30 461 O 43.027 -5.57884 1.18836 0
M  V30 462 O 41.961 -5.16911 3.08361 0
M  V30 463 H 45.787 -1.94933 2.32884 0
M  V30 464 H 43.372 -0.907619 1.1867 0
M  V30 465 H 45.254 -4.06924 1.09504 0
M  V30 466 H 43.929 -3.22769 0.245372 0
M  V30 467 H 42.836 -2.76796 2.51664 0
M  V30 468 H 44.169 -3.655 3.29652 0
M  V30 469 N 45.8211 -1.22559 -0.990812 0
M  V30 470 C 47.2321 -1.04791 -1.54518 0
M  V30 471 C 47.5831 0.387998 -1.92325 0
M  V30 472 O 46.7081 1.27328 -1.74976 0
M  V30 473 C 47.3031 -1.896 -2.80779 0
M  V30 474 C 45.8621 -1.76124 -3.32652 0
M  V30 475 C 45.0091 -1.8594 -2.05722 0
M  V30 476 H 47.9601 -1.36374 -0.811662 0
M  V30 477 H 47.9811 -1.41464 -3.53225 0
M  V30 478 H 47.4931 -2.94101 -2.53231 0
M  V30 479 H 45.5941 -0.743643 -3.65104 0
M  V30 480 H 45.7071 -2.58913 -4.03114 0
M  V30 481 H 44.0711 -1.29403 -2.19379 0
M  V30 482 H 44.8541 -2.91976 -1.80568 0
M  V30 483 N 47.2992 1.18797 -1.03562 0
M  V30 484 C 48.5472 1.88278 -0.734569 0
M  V30 485 C 48.8682 1.8043 0.739586 0
M  V30 486 O 48.1382 1.21925 1.53333 0
M  V30 487 H 46.7182 0.696991 -0.268725 0
M  V30 488 H 49.3802 1.44192 -1.31129 0
M  V30 489 H 48.4762 2.94443 -1.03489 0
M  V30 490 N 48.7773 0.814389 1.34928 0
M  V30 491 C 50.0253 0.397636 1.9815 0
M  V30 492 C 50.3463 -1.04069 1.64908 0
M  V30 493 O 49.6163 -1.72121 0.93548 0
M  V30 494 H 48.1963 0.144043 0.732981 0
M  V30 495 H 50.8583 1.04195 1.6471 0
M  V30 496 H 49.9543 0.509688 3.0791 0
M  V30 497 N 50.2554 -1.46986 0.568584 0
M  V30 498 C 51.5034 -2.02041 0.0487022 0
M  V30 499 C 51.8244 -1.44408 -1.31039 0
M  V30 500 O 51.0944 -0.623477 -1.85714 0
M  V30 501 H 49.6744 -0.746849 0.015014 0
M  V30 502 H 52.3364 -1.80257 0.741168 0
M  V30 503 H 51.4324 -3.12085 -0.0308961 0
M  V30 504 N 51.7335 -0.305618 -1.54608 0
M  V30 505 C 52.9585 0.307562 -2.05107 0
M  V30 506 C 53.3835 1.46385 -1.18123 0
M  V30 507 O 52.7415 1.8034 -0.186324 0
M  V30 508 C 52.7895 0.73704 -3.52987 0
M  V30 509 O 51.8935 1.84134 -3.6901 0
M  V30 510 H 51.2345 0.0589143 -0.661381 0
M  V30 511 H 53.7645 -0.448807 -1.99617 0
M  V30 512 H 53.7745 1.02459 -3.94925 0
M  V30 513 H 52.4495 -0.108773 -4.15758 0
M  V30 514 H 51.0265 1.55398 -3.38978 0
M  V30 515 N 53.2116 1.57565 -0.0334293 0
M  V30 516 C 54.1416 2.13511 0.945265 0
M  V30 517 C 55.1226 1.05231 1.33643 0
M  V30 518 O 56.3076 1.33084 1.41429 0
M  V30 519 C 53.4376 2.6657 2.22616 0
M  V30 520 C 52.3916 3.79676 1.97561 0
M  V30 521 C 51.7176 4.1918 3.31952 0
M  V30 522 C 53.0176 5.0557 1.31135 0
M  V30 523 H 54.7116 2.95538 0.479325 0
M  V30 524 H 52.2576 1.42166 0.229115 0
M  V30 525 H 54.2106 3.04344 2.91466 0
M  V30 526 H 52.9346 1.8171 2.71384 0
M  V30 527 H 51.5936 3.42347 1.31127 0
M  V30 528 H 51.2416 3.31296 3.78487 0
M  V30 529 H 50.9416 4.95402 3.15992 0
M  V30 530 H 52.4656 4.59541 4.02063 0
M  V30 531 H 53.8796 5.40903 1.89992 0
M  V30 532 H 52.2766 5.86818 1.25559 0
M  V30 533 H 53.3466 4.84062 0.284894 0
M  V30 534 N 54.6897 -0.239769 1.55765 0
M  V30 535 C 55.9377 -0.964892 1.77579 0
M  V30 536 C 56.2587 -1.85582 0.598699 0
M  V30 537 O 55.5287 -1.92075 -0.385226 0
M  V30 538 H 54.1087 -0.359265 0.654933 0
M  V30 539 H 56.7707 -0.256001 1.93211 0
M  V30 540 H 55.8667 -1.58243 2.69009 0
M  V30 541 N 56.1678 -1.49265 -0.50573 0
M  V30 542 C 57.4448 -1.49012 -1.26707 0
M  V30 543 C 57.8248 -0.215205 -2.1 0
M  V30 544 O 57.1728 0.802547 -2.13943 0
M  V30 545 C 57.3828 -2.7663 -2.12783 0
M  V30 546 C 58.7308 -3.25932 -2.72127 0
M  V30 547 O 59.7548 -2.77715 -2.23054 0
M  V30 548 O 58.6138 -4.09897 -3.61451 0
M  V30 549 H 55.7078 -0.596197 -0.57313 0
M  V30 550 H 58.2538 -1.61524 -0.52039 0
M  V30 551 H 57.0258 -3.60916 -1.5118 0
M  V30 552 H 56.6488 -2.66956 -2.94653 0
M  V30 553 N 57.6459 0.756429 -1.3826 0
M  V30 554 C 58.8939 1.51248 -1.34047 0
M  V30 555 C 59.2149 1.94875 0.0698372 0
M  V30 556 O 58.4849 1.67436 1.01696 0
M  V30 557 H 57.0649 0.561018 -0.493222 0
M  V30 558 H 59.7269 0.899347 -1.7291 0
M  V30 559 H 58.8229 2.40472 -1.98947 0
M  V30 560 N 59.124 1.23083 0.984299 0
M  V30 561 C 60.54 0.992637 1.24975 0
M  V30 562 C 60.74 -0.308618 1.99123 0
M  V30 563 O 59.796 -1.02905 2.30579 0
M  V30 564 C 61.109 2.19698 2.05312 0
M  V30 565 C 62.657 2.24147 2.18465 0
M  V30 566 C 63.132 3.44157 3.02192 0
M  V30 567 N 64.623 3.44372 3.09777 0
M  V30 568 C 65.358 4.33886 3.74874 0
M  V30 569 N 64.854 5.3363 4.41827 0
M  V30 570 N 66.647 4.21639 3.71721 0
M  V30 571 H 58.798 2.06731 0.487453 0
M  V30 572 H 61.061 0.906339 0.277944 0
M  V30 573 H 60.767 3.1411 1.58201 0
M  V30 574 H 60.641 2.20465 3.06064 0
M  V30 575 H 63.028 1.30277 2.64786 0
M  V30 576 H 63.109 2.27415 1.17115 0
M  V30 577 H 62.753 4.38332 2.56568 0
M  V30 578 H 62.683 3.3813 4.03702 0
M  V30 579 H 65.174 2.72201 2.62135 0
M  V30 580 H 65.487 5.98196 4.89266 0
M  V30 581 H 63.832 5.37534 4.40548 0
M  V30 582 H 67.023 3.42962 3.18582 0
M  V30 583 H 67.196 4.91604 4.22173 0
M  V30 584 N 60.6021 -1.18246 1.0419 0
M  V30 585 C 62.0131 -1.69914 0.773698 0
M  V30 586 C 62.3641 -1.83085 -0.705297 0
M  V30 587 O 61.4891 -1.51123 -1.5489 0
M  V30 588 C 62.0841 -3.08619 1.39784 0
M  V30 589 C 60.6431 -3.57494 1.17792 0
M  V30 590 C 59.7901 -2.34013 1.48773 0
M  V30 591 H 62.7411 -1.02904 1.20816 0
M  V30 592 H 62.7621 -3.71958 0.801714 0
M  V30 593 H 62.2741 -2.99001 2.47426 0
M  V30 594 H 60.3751 -3.72406 0.120295 0
M  V30 595 H 60.4881 -4.40852 1.87581 0
M  V30 596 H 58.8521 -2.37986 0.907463 0
M  V30 597 H 59.6351 -2.27013 2.57527 0
M  V30 598 N 62.0802 -0.821533 -1.34494 0
M  V30 599 C 63.4912 -0.467956 -1.8074 0
M  V30 600 C 63.8422 1.01151 -1.68116 0
M  V30 601 O 62.9672 1.78707 -1.22036 0
M  V30 602 C 63.5622 -0.842627 -3.28154 0
M  V30 603 C 62.1212 -0.541439 -3.72485 0
M  V30 604 C 61.2682 -1.06028 -2.56229 0
M  V30 605 H 64.2192 -1.01183 -1.22261 0
M  V30 606 H 64.2402 -0.145876 -3.8022 0
M  V30 607 H 63.7522 -1.91945 -3.37311 0
M  V30 608 H 61.8532 0.526034 -3.68868 0
M  V30 609 H 61.9662 -1.08453 -4.66663 0
M  V30 610 H 60.3302 -0.481892 -2.501 0
M  V30 611 H 61.1132 -2.14352 -2.68157 0
M  V30 612 N 63.5583 1.46682 -0.576371 0
M  V30 613 C 64.4683 2.34032 0.163141 0
M  V30 614 C 65.4843 1.49367 0.892501 0
M  V30 615 O 66.6603 1.82252 0.857106 0
M  V30 616 C 63.7253 3.26435 1.16795 0
M  V30 617 C 62.7863 4.26998 0.443944 0
M  V30 618 C 62.0193 5.14986 1.40088 0
M  V30 619 O 62.2423 5.05785 2.637 0
M  V30 620 O 61.1763 5.94906 0.914917 0
M  V30 621 H 65.0023 2.98607 -0.55388 0
M  V30 622 H 62.5873 1.45554 -0.336821 0
M  V30 623 H 64.4693 3.83459 1.74748 0
M  V30 624 H 63.1443 2.64465 1.86655 0
M  V30 625 H 62.0513 3.7368 -0.177271 0
M  V30 626 H 63.3843 4.91736 -0.213566 0
M  V30 627 N 65.0364 0.313813 1.54444 0
M  V30 628 C 65.9464 -0.565714 2.27677 0
M  V30 629 C 66.9624 -1.13754 1.31666 0
M  V30 630 O 68.1384 -1.15959 1.64668 0
M  V30 631 C 65.2034 -1.71528 3.01296 0
M  V30 632 C 64.2644 -1.17624 4.12872 0
M  V30 633 C 63.4974 -2.27102 4.8297 0
M  V30 634 O 63.7204 -3.47256 4.52514 0
M  V30 635 O 62.6544 -1.9307 5.70094 0
M  V30 636 H 66.4804 0.0287296 3.03686 0
M  V30 637 H 64.0654 0.0798312 1.49187 0
M  V30 638 H 65.9474 -2.38476 3.4743 0
M  V30 639 H 64.6224 -2.29608 2.2817 0
M  V30 640 H 63.5294 -0.472124 3.71109 0
M  V30 641 H 64.8624 -0.640695 4.88012 0
M  V30 642 N 66.5145 -1.57545 0.0417849 0
M  V30 643 C 67.7395 -1.97035 -0.647455 0
M  V30 644 C 68.1645 -0.918775 -1.64135 0
M  V30 645 O 67.5225 0.119006 -1.80909 0
M  V30 646 C 67.5705 -3.35609 -1.31905 0
M  V30 647 O 66.6745 -3.3287 -2.43457 0
M  V30 648 H 66.0155 -0.64211 -0.169086 0
M  V30 649 H 68.5455 -2.04318 0.107399 0
M  V30 650 H 68.5555 -3.72126 -1.67291 0
M  V30 651 H 67.2305 -4.11685 -0.590586 0
M  V30 652 H 65.8075 -3.08087 -2.10088 0
M  V30 653 N 67.9926 0.231505 -1.5589 0
M  V30 654 C 68.9556 1.27028 -1.90779 0
M  V30 655 C 69.9556 1.40308 -0.785507 0
M  V30 656 O 71.1456 1.38744 -1.05336 0
M  V30 657 C 68.2776 2.64566 -2.14983 0
M  V30 658 H 69.4706 0.973017 -2.83677 0
M  V30 659 H 67.0236 0.471486 -1.49019 0
M  V30 660 H 67.7586 2.99406 -1.24604 0
M  V30 661 H 67.5436 2.56305 -2.96732 0
M  V30 662 H 69.0336 3.39543 -2.43105 0
M  V30 663 N 69.4707 1.49531 0.497807 0
M  V30 664 C 70.4207 1.62829 1.59596 0
M  V30 665 C 71.4047 0.483824 1.53453 0
M  V30 666 O 72.5967 0.736937 1.60929 0
M  V30 667 C 69.7257 1.7011 2.98191 0
M  V30 668 C 68.8117 2.90144 3.09317 0
M  V30 669 N 69.2027 4.1418 2.90324 0
M  V30 670 C 67.5007 2.88148 3.40422 0
M  V30 671 C 68.2017 4.94886 3.05717 0
M  V30 672 N 67.1777 4.28314 3.34736 0
M  V30 673 H 70.9797 2.56446 1.4357 0
M  V30 674 H 68.4937 1.46347 0.704001 0
M  V30 675 H 70.4907 1.77735 3.77115 0
M  V30 676 H 69.1507 0.776315 3.15283 0
M  V30 677 H 70.1617 4.44109 2.66436 0
M  V30 678 H 66.8387 2.05061 3.63671 0
M  V30 679 H 68.2287 6.03432 2.95499 0
M  V30 680 N 70.9488 -0.749086 1.3866 0
M  V30 681 C 71.8588 -1.89358 1.38494 0
M  V30 682 C 72.8748 -1.71708 0.281476 0
M  V30 683 O 74.0508 -1.94554 0.520643 0
M  V30 684 C 71.1158 -3.24782 1.21316 0
M  V30 685 C 70.1768 -3.54926 2.41508 0
M  V30 686 C 69.4098 -4.83888 2.2514 0
M  V30 687 O 69.6328 -5.56592 1.24746 0
M  V30 688 O 68.5668 -5.13612 3.13826 0
M  V30 689 H 72.3928 -1.92452 2.34938 0
M  V30 690 H 69.9778 -0.894981 1.19626 0
M  V30 691 H 71.8598 -4.05739 1.13814 0
M  V30 692 H 70.5348 -3.2249 0.279592 0
M  V30 693 H 69.4418 -2.74112 2.54585 0
M  V30 694 H 70.7748 -3.61983 3.3351 0
M  V30 695 N 72.4269 -1.23603 -0.977757 0
M  V30 696 C 73.3599 -0.962772 -2.06896 0
M  V30 697 C 74.3379 0.0998743 -1.62293 0
M  V30 698 O 75.5219 -0.0349421 -1.88468 0
M  V30 699 C 72.6489 -0.45095 -3.35685 0
M  V30 700 C 71.6949 -1.50061 -3.99229 0
M  V30 701 S 72.5279 -3.07884 -4.38142 0
M  V30 702 C 73.6839 -2.58378 -5.7008 0
M  V30 703 H 73.9169 -1.88677 -2.29757 0
M  V30 704 H 71.4499 -1.06876 -1.11431 0
M  V30 705 H 73.4079 -0.162261 -4.10179 0
M  V30 706 H 72.0689 0.452179 -3.10828 0
M  V30 707 H 71.2619 -1.09269 -4.92013 0
M  V30 708 H 70.8639 -1.73878 -3.31123 0
M  V30 709 H 73.1559 -2.00563 -6.47133 0
M  V30 710 H 74.0989 -3.49711 -6.15717 0
M  V30 711 H 74.5069 -1.99143 -5.28207 0
M  V30 712 N 73.905 1.17692 -1.04816 0
M  V30 713 C 74.838 2.20436 -0.590173 0
M  V30 714 C 75.816 1.58115 0.379244 0
M  V30 715 O 77 1.86228 0.291762 0
M  V30 716 C 74.127 3.38424 0.136817 0
M  V30 717 C 73.173 4.19176 -0.787023 0
M  V30 718 S 74.006 4.84815 -2.27409 0
M  V30 719 C 75.162 6.06195 -1.55817 0
M  V30 720 H 75.395 2.58944 -1.46067 0
M  V30 721 H 72.928 1.28246 -0.859784 0
M  V30 722 H 74.886 4.06798 0.550076 0
M  V30 723 H 73.547 2.98312 0.983299 0
M  V30 724 H 72.74 5.03499 -0.224681 0
M  V30 725 H 72.342 3.56219 -1.13947 0
M  V30 726 H 74.634 6.72078 -0.855387 0
M  V30 727 H 75.577 6.6695 -2.37873 0
M  V30 728 H 75.985 5.54701 -1.04722 0
M  V30 729 N 75.3831 0.828654 1.34056 0
M  V30 730 C 76.2931 0.256725 2.33191 0
M  V30 731 C 77.3091 -0.611898 1.62886 0
M  V30 732 O 78.4851 -0.51844 1.94613 0
M  V30 733 C 75.5501 -0.567238 3.42028 0
M  V30 734 C 74.6111 0.324458 4.28072 0
M  V30 735 C 73.8441 -0.460274 5.31712 0
M  V30 736 O 74.0671 -1.693 5.44696 0
M  V30 737 O 73.0011 0.160391 6.01686 0
M  V30 738 H 76.8271 1.07739 2.83947 0
M  V30 739 H 74.4121 0.59093 1.37217 0
M  V30 740 H 76.2941 -1.03582 4.08471 0
M  V30 741 H 74.9691 -1.36513 2.93506 0
M  V30 742 H 73.8761 0.840659 3.64532 0
M  V30 743 H 75.2091 1.08685 4.8005 0
M  V30 744 N 76.8612 -1.46375 0.584142 0
M  V30 745 C 77.7712 -2.34115 -0.150728 0
M  V30 746 C 78.7872 -1.49838 -0.884567 0
M  V30 747 O 79.9632 -1.82704 -0.847429 0
M  V30 748 C 77.0282 -3.2705 -1.15062 0
M  V30 749 C 76.0892 -4.27228 -0.421293 0
M  V30 750 C 75.3222 -5.15722 -1.37355 0
M  V30 751 O 75.5452 -5.07176 -2.61014 0
M  V30 752 O 74.4792 -5.95383 -0.883355 0
M  V30 753 H 78.3052 -2.98309 0.569708 0
M  V30 754 H 75.8902 -1.45373 0.344535 0
M  V30 755 H 77.7722 -3.84381 -1.72712 0
M  V30 756 H 76.4472 -2.65451 -1.8525 0
M  V30 757 H 75.3542 -3.7358 0.197085 0
M  V30 758 H 76.6872 -4.91616 0.239641 0
M  V30 759 N 78.3393 -0.321999 -1.54275 0
M  V30 760 C 79.2493 0.553631 -2.27974 0
M  V30 761 C 80.2653 1.13054 -1.32268 0
M  V30 762 O 81.4413 1.15084 -1.6528 0
M  V30 763 C 78.5063 1.69927 -3.02201 0
M  V30 764 C 77.5673 1.15433 -4.1349 0
M  V30 765 C 76.8003 2.24537 -4.84168 0
M  V30 766 O 77.0233 3.44852 -4.5435 0
M  V30 767 O 75.9573 1.90044 -5.7111 0
M  V30 768 H 79.7833 -0.0448345 -3.03667 0
M  V30 769 H 77.3683 -0.0877418 -1.49142 0
M  V30 770 H 79.2503 2.3663 -3.48689 0
M  V30 771 H 77.9253 2.28395 -2.29385 0
M  V30 772 H 76.8323 0.452436 -3.71354 0
M  V30 773 H 78.1653 0.614805 -4.88345 0
M  V30 774 N 79.8174 1.5752 -0.0501392 0
M  V30 775 C 80.7274 2.14952 0.939827 0
M  V30 776 C 81.7434 1.10706 1.34239 0
M  V30 777 O 82.9194 1.42869 1.41952 0
M  V30 778 C 79.9844 2.68232 2.19665 0
M  V30 779 C 79.0454 3.87272 1.85253 0
M  V30 780 C 78.2784 4.38002 3.04943 0
M  V30 781 O 78.5014 3.87811 4.18281 0
M  V30 782 O 77.4354 5.29602 2.86017 0
M  V30 783 H 81.2614 2.9986 0.481392 0
M  V30 784 H 78.8464 1.4841 0.171699 0
M  V30 785 H 80.7284 3.02475 2.93406 0
M  V30 786 H 79.4034 1.86395 2.64648 0
M  V30 787 H 78.3104 3.5792 1.0883 0
M  V30 788 H 79.6434 4.70336 1.4507 0
M  V30 789 N 81.2955 -0.223234 1.56011 0
M  V30 790 C 82.2055 -1.29766 1.95443 0
M  V30 791 C 83.2215 -1.51373 0.858028 0
M  V30 792 O 84.3975 -1.64536 1.16146 0
M  V30 793 C 81.4625 -2.62772 2.26167 0
M  V30 794 C 80.5235 -2.49482 3.49367 0
M  V30 795 C 79.7565 -3.76145 3.78616 0
M  V30 796 O 79.9795 -4.79087 3.09568 0
M  V30 797 O 78.9135 -3.73358 4.72109 0
M  V30 798 H 82.7395 -0.99309 2.87004 0
M  V30 799 H 80.3245 -0.425958 1.43199 0
M  V30 800 H 82.2065 -3.41327 2.47131 0
M  V30 801 H 80.8815 -2.92913 1.37781 0
M  V30 802 H 79.7885 -1.69133 3.33684 0
M  V30 803 H 81.1215 -2.2428 4.38131 0
M  V30 804 N 82.7736 -1.49793 -0.48987 0
M  V30 805 C 84.0226 -1.59085 -1.23995 0
M  V30 806 C 84.3356 -0.287907 -1.9347 0
M  V30 807 O 85.5416 -0.259506 -2.70257 0
M  V30 808 C 83.9976 -2.80736 -2.252 0
M  V30 809 C 83.6056 -4.17833 -1.61614 0
M  V30 810 C 85.3496 -2.99364 -3.00967 0
M  V30 811 C 83.2566 -5.30693 -2.60996 0
M  V30 812 H 82.1866 -0.592372 -0.466488 0
M  V30 813 H 84.8376 -1.76197 -0.51252 0
M  V30 814 H 83.2196 -2.57142 -3.01154 0
M  V30 815 H 84.3936 -4.51608 -0.915774 0
M  V30 816 H 82.7086 -4.04656 -0.981977 0
M  V30 817 H 85.3056 -3.80851 -3.75308 0
M  V30 818 H 85.6486 -2.10356 -3.59244 0
M  V30 819 H 86.1816 -3.2305 -2.32128 0
M  V30 820 H 82.9206 -6.21796 -2.07485 0
M  V30 821 H 82.4406 -5.01359 -3.2924 0
M  V30 822 H 84.1196 -5.6049 -3.23202 0
M  V30 823 N 84.2517 0.741722 -1.39055 0
M  V30 824 C 85.6627 1.31966 -1.32068 0
M  V30 825 C 86.0137 1.96192 0.0180797 0
M  V30 826 O 85.1387 1.95861 0.920196 0
M  V30 827 C 85.7337 2.39954 -2.39181 0
M  V30 828 C 84.2927 2.93438 -2.35735 0
M  V30 829 C 83.4397 1.66936 -2.21422 0
M  V30 830 H 86.3907 0.539721 -1.4924 0
M  V30 831 H 86.4117 3.20182 -2.05581 0
M  V30 832 H 85.9237 1.9318 -3.36605 0
M  V30 833 H 84.0247 3.4451 -1.41929 0
M  V30 834 H 84.1377 3.4701 -3.30335 0
M  V30 835 H 82.5017 1.91016 -1.68478 0
M  V30 836 H 83.2847 1.22224 -3.20806 0
M  V30 837 N 85.7298 1.2412 0.971189 0
M  V30 838 C 86.6768 1.0305 2.06517 0
M  V30 839 C 87.6468 -0.0550666 1.66009 0
M  V30 840 O 88.8318 0.0988688 1.90544 0
M  V30 841 C 85.9718 0.637653 3.39158 0
M  V30 842 C 85.0848 1.79633 3.92882 0
M  V30 843 C 84.2198 1.34939 5.13775 0
M  V30 844 C 83.2588 2.47823 5.59687 0
M  V30 845 N 82.3958 2.04022 6.71803 0
M  V30 846 H 87.2358 1.96685 2.23873 0
M  V30 847 H 84.7728 0.979694 1.09729 0
M  V30 848 H 86.7308 0.390931 4.15364 0
M  V30 849 H 85.3608 -0.261693 3.21737 0
M  V30 850 H 84.4128 2.15681 3.13346 0
M  V30 851 H 85.7248 2.64466 4.22918 0
M  V30 852 H 84.8788 1.06134 5.97345 0
M  V30 853 H 83.6178 0.471557 4.85415 0
M  V30 854 H 82.6228 2.77392 4.74693 0
M  V30 855 H 83.8478 3.36158 5.90063 0
M  V30 856 H 81.7938 1.18632 6.45184 0
M  V30 857 H 81.7108 2.82409 7.01271 0
M  V30 858 H 82.9788 1.78347 7.58823 0
M  V30 859 N 87.2079 -1.17134 1.05439 0
M  V30 860 C 88.6189 -1.69084 0.791676 0
M  V30 861 C 88.9699 -1.83822 -0.685839 0
M  V30 862 O 88.0949 -1.52757 -1.53278 0
M  V30 863 C 88.6899 -3.07119 1.4305 0
M  V30 864 C 87.2489 -3.56225 1.21577 0
M  V30 865 C 86.3959 -2.32421 1.51247 0
M  V30 866 H 89.3469 -1.01617 1.219 0
M  V30 867 H 89.3679 -3.71087 0.84112 0
M  V30 868 H 88.8799 -2.9636 2.50584 0
M  V30 869 H 86.9809 -3.72257 0.159787 0
M  V30 870 H 87.0939 -4.38837 1.92246 0
M  V30 871 H 85.4579 -2.3701 0.932653 0
M  V30 872 H 86.2409 -2.24268 2.5992 0
M  V30 873 N 88.686 -0.835752 -1.33615 0
M  V30 874 C 89.633 -0.26473 -2.29277 0
M  V30 875 C 90.603 0.617712 -1.54187 0
M  V30 876 O 91.788 0.556641 -1.825 0
M  V30 877 C 88.928 0.556777 -3.40579 0
M  V30 878 C 88.041 -0.349339 -4.30585 0
M  V30 879 C 87.176 0.482969 -5.29 0
M  V30 880 C 86.215 -0.421732 -6.10645 0
M  V30 881 N 85.352 0.372262 -7.01112 0
M  V30 882 H 90.192 -1.08582 -2.77514 0
M  V30 883 H 87.729 -0.546927 -1.36554 0
M  V30 884 H 89.687 1.04852 -4.03809 0
M  V30 885 H 88.317 1.34286 -2.93542 0
M  V30 886 H 87.369 -0.959372 -3.68104 0
M  V30 887 H 88.681 -1.04445 -4.87742 0
M  V30 888 H 87.835 1.03866 -5.97743 0
M  V30 889 H 86.574 1.21153 -4.72412 0
M  V30 890 H 85.579 -0.989464 -5.40823 0
M  V30 891 H 86.804 -1.14861 -6.69316 0
M  V30 892 H 84.75 1.08426 -6.46977 0
M  V30 893 H 84.667 -0.264198 -7.55538 0
M  V30 894 H 85.935 0.910293 -7.74167 0
M  V30 895 N 90.1641 1.46063 -0.591896 0
M  V30 896 C 91.3891 2.07226 -0.0850314 0
M  V30 897 C 91.8141 1.43625 1.21463 0
M  V30 898 O 91.1721 0.523305 1.73583 0
M  V30 899 C 91.2201 3.60554 0.0576567 0
M  V30 900 O 90.3241 3.97128 1.11188 0
M  V30 901 H 89.6651 0.660615 -0.0669568 0
M  V30 902 H 92.1951 1.8756 -0.81745 0
M  V30 903 H 92.2051 4.07165 0.2609 0
M  V30 904 H 90.8801 4.06235 -0.891416 0
M  V30 905 H 89.4571 3.62213 0.886356 0
M  V30 906 N 91.6422 0.330177 1.54103 0
M  V30 907 C 92.8882 -0.270806 2.00984 0
M  V30 908 C 93.2212 -1.51265 1.21789 0
M  V30 909 O 92.4962 -1.92142 0.301927 0
M  V30 910 C 92.7792 -0.598339 3.55094 0
M  V30 911 C 92.6322 0.654674 4.4501 0
M  V30 912 C 93.9512 -1.41334 4.16789 0
M  V30 913 H 91.0702 -0.0969531 0.730595 0
M  V30 914 H 93.7122 0.448066 1.84641 0
M  V30 915 H 91.8622 -1.21078 3.69151 0
M  V30 916 H 93.5342 1.29285 4.42813 0
M  V30 917 H 91.7772 1.28224 4.14416 0
M  V30 918 H 92.4482 0.380944 5.50684 0
M  V30 919 H 94.9242 -0.895597 4.06347 0
M  V30 920 H 93.8002 -1.61127 5.24718 0
M  V30 921 H 94.0612 -2.41146 3.70541 0
M  V30 922 N 93.1203 -1.57491 0.0584922 0
M  V30 923 C 94.3663 -1.93264 -0.614558 0
M  V30 924 C 94.6993 -0.937717 -1.7006 0
M  V30 925 O 93.9743 0.0351652 -1.94468 0
M  V30 926 C 94.2573 -3.3938 -1.20386 0
M  V30 927 C 94.1103 -4.49625 -0.125375 0
M  V30 928 C 95.4293 -3.86039 -2.11334 0
M  V30 929 H 92.5483 -0.702791 -0.221933 0
M  V30 930 H 95.1903 -1.8961 0.12175 0
M  V30 931 H 93.3403 -3.42626 -1.83139 0
M  V30 932 H 95.0123 -4.58506 0.506971 0
M  V30 933 H 93.2553 -4.30354 0.545672 0
M  V30 934 H 93.9263 -5.48967 -0.577861 0
M  V30 935 H 96.4023 -3.84716 -1.58534 0
M  V30 936 H 95.2783 -4.88914 -2.49507 0
M  V30 937 H 95.5393 -3.23215 -3.01636 0
M  V30 938 N 94.5984 0.214957 -1.56127 0
M  V30 939 C 95.5614 1.24997 -1.92116 0
M  V30 940 C 96.5614 1.39467 -0.800344 0
M  V30 941 O 97.7514 1.37619 -1.06802 0
M  V30 942 C 94.8834 2.62271 -2.17777 0
M  V30 943 H 96.0764 0.942875 -2.84693 0
M  V30 944 H 93.6294 0.455654 -1.49511 0
M  V30 945 H 94.3644 2.98068 -1.27773 0
M  V30 946 H 94.1494 2.53143 -2.99434 0
M  V30 947 H 95.6394 3.36946 -2.46693 0
M  V30 948 N 96.0765 1.50051 0.48192 0
M  V30 949 C 97.4875 1.5348 1.06305 0
M  V30 950 C 97.8385 0.331997 1.93371 0
M  V30 951 O 96.9635 -0.556256 2.09129 0
M  V30 952 C 97.5585 2.7813 1.93466 0
M  V30 953 C 96.1175 2.84275 2.46707 0
M  V30 954 C 95.2645 2.47637 1.24785 0
M  V30 955 H 98.2155 1.56472 0.264995 0
M  V30 956 H 98.2365 2.59372 2.78399 0
M  V30 957 H 97.7485 3.65654 1.30072 0
M  V30 958 H 95.8495 2.01077 3.13686 0
M  V30 959 H 95.9625 3.8691 2.82555 0
M  V30 960 H 94.3265 1.99835 1.57918 0
M  V30 961 H 95.1095 3.37457 0.630694 0
M  V30 962 N 97.5546 -0.734337 1.39446 0
M  V30 963 C 98.9656 -1.31264 1.32766 0
M  V30 964 C 99.3166 -1.96198 -0.00767497 0
M  V30 965 O 98.4416 -1.96346 -0.909796 0
M  V30 966 C 99.0366 -2.38682 2.4045 0
M  V30 967 C 97.5956 -2.92184 2.37288 0
M  V30 968 C 96.7426 -1.6576 2.22304 0
M  V30 969 H 99.6936 -0.531799 1.49525 0
M  V30 970 H 99.7146 -3.19087 2.07276 0
M  V30 971 H 99.2266 -1.91392 3.37625 0
M  V30 972 H 97.3276 -3.43752 1.43754 0
M  V30 973 H 97.4406 -3.45253 3.3217 0
M  V30 974 H 95.8046 -1.9012 1.69489 0
M  V30 975 H 96.5876 -1.20521 3.21449 0
M  V30 976 N 99.0327 -1.24633 -0.964593 0
M  V30 977 C 100.281 -1.08573 -1.70459 0
M  V30 978 C 100.602 0.375655 -1.91347 0
M  V30 979 O 99.8717 1.26779 -1.49345 0
M  V30 980 H 98.4517 -0.398784 -0.631649 0
M  V30 981 H 101.114 -1.56601 -1.16026 0
M  V30 982 H 100.21 -1.58623 -2.68785 0
M  V30 983 N 100.511 1.16574 -1.06058 0
M  V30 984 C 101.474 2.19085 -0.673392 0
M  V30 985 C 102.474 1.5835 0.279648 0
M  V30 986 O 103.664 1.74088 0.0623488 0
M  V30 987 C 100.796 3.40899 0.00954234 0
M  V30 988 H 101.989 2.54853 -1.58081 0
M  V30 989 H 99.5418 1.30808 -0.855516 0
M  V30 990 H 100.277 3.10684 0.929826 0
M  V30 991 H 100.062 3.86233 -0.67573 0
M  V30 992 H 101.552 4.1675 0.266245 0
M  V30 993 N 101.989 0.842826 1.3317 0
M  V30 994 C 103.4 0.496651 1.79973 0
M  V30 995 C 103.751 -0.984641 1.69703 0
M  V30 996 O 102.876 -1.76743 1.24863 0
M  V30 997 C 103.471 0.894727 3.26772 0
M  V30 998 C 102.03 0.600629 3.71577 0
M  V30 999 C 101.177 1.10091 2.5451 0
M  V30 1000 H 104.128 1.03116 1.20635 0
M  V30 1001 H 104.149 0.206347 3.7994 0
M  V30 1002 H 103.661 1.97287 3.34215 0
M  V30 1003 H 101.762 -0.467284 3.69658 0
M  V30 1004 H 101.875 1.15863 4.64879 0
M  V30 1005 H 100.239 0.52162 2.49301 0
M  V30 1006 H 101.022 2.18591 2.64713 0
M  V30 1007 N 103.467 -1.45747 0.599634 0
M  V30 1008 C 104.414 -2.30467 -0.123849 0
M  V30 1009 C 105.384 -1.41632 -0.86774 0
M  V30 1010 O 106.569 -1.70568 -0.855056 0
M  V30 1011 C 103.709 -3.26402 -1.12051 0
M  V30 1012 C 102.822 -4.3034 -0.37832 0
M  V30 1013 C 101.957 -5.13389 -1.364 0
M  V30 1014 C 100.996 -6.09061 -0.609171 0
M  V30 1015 N 100.133 -6.84918 -1.54374 0
M  V30 1016 H 104.973 -2.91802 0.604627 0
M  V30 1017 H 102.51 -1.43797 0.309972 0
M  V30 1018 H 104.468 -3.80482 -1.7114 0
M  V30 1019 H 103.098 -2.66839 -1.8165 0
M  V30 1020 H 102.15 -3.78984 0.327929 0
M  V30 1021 H 103.462 -4.98354 0.210997 0
M  V30 1022 H 102.616 -5.7183 -2.02719 0
M  V30 1023 H 101.355 -4.45376 -1.98725 0
M  V30 1024 H 100.36 -5.49758 0.0676979 0
M  V30 1025 H 101.585 -6.79099 0.00891991 0
M  V30 1026 H 99.531 -6.19601 -2.15478 0
M  V30 1027 H 99.448 -7.49254 -1.00766 0
M  V30 1028 H 100.716 -7.47906 -2.19676 0
M  V30 1029 N 104.945 -0.338344 -1.53925 0
M  V30 1030 C 105.892 0.520845 -2.24846 0
M  V30 1031 C 106.862 1.09976 -1.24477 0
M  V30 1032 O 108.047 1.13735 -1.53196 0
M  V30 1033 C 105.187 1.6685 -3.02084 0
M  V30 1034 C 104.3 1.11739 -4.17299 0
M  V30 1035 C 103.435 2.23193 -4.82036 0
M  V30 1036 C 102.474 1.65407 -5.89328 0
M  V30 1037 N 101.611 2.70582 -6.47866 0
M  V30 1038 H 106.451 -0.0904881 -2.97863 0
M  V30 1039 H 103.988 -0.0564282 -1.46992 0
M  V30 1040 H 105.946 2.34407 -3.45122 0
M  V30 1041 H 104.576 2.2509 -2.31375 0
M  V30 1042 H 103.628 0.332919 -3.7894 0
M  V30 1043 H 104.94 0.654677 -4.94485 0
M  V30 1044 H 104.094 2.98626 -5.28117 0
M  V30 1045 H 102.833 2.72807 -4.04262 0
M  V30 1046 H 101.838 0.884779 -5.42634 0
M  V30 1047 H 103.063 1.16652 -6.69006 0
M  V30 1048 H 101.009 3.1946 -5.72959 0
M  V30 1049 H 100.926 2.28917 -7.20509 0
M  V30 1050 H 102.194 3.45799 -6.98601 0
M  V30 1051 N 106.423 1.57458 -0.0668435 0
M  V30 1052 C 107.333 2.15937 0.916975 0
M  V30 1053 C 108.349 1.12123 1.33058 0
M  V30 1054 O 109.525 1.44366 1.40429 0
M  V30 1055 C 106.59 2.70547 2.16807 0
M  V30 1056 C 105.651 3.89215 1.81135 0
M  V30 1057 C 104.884 4.41211 3.0028 0
M  V30 1058 O 105.107 3.92225 4.14144 0
M  V30 1059 O 104.041 5.32605 2.80384 0
M  V30 1060 H 107.867 3.00354 0.449561 0
M  V30 1061 H 105.452 1.48584 0.155949 0
M  V30 1062 H 107.334 3.0557 2.90181 0
M  V30 1063 H 106.009 1.89192 2.62656 0
M  V30 1064 H 104.916 3.59054 1.05028 0
M  V30 1065 H 106.249 4.71848 1.40073 0
M  V30 1066 N 107.901 -0.206675 1.56239 0
M  V30 1067 C 108.851 -1.26 1.90021 0
M  V30 1068 C 109.835 -1.41566 0.764721 0
M  V30 1069 O 111.027 -1.44131 1.02739 0
M  V30 1070 C 108.156 -2.6073 2.23326 0
M  V30 1071 C 107.242 -2.49005 3.43304 0
M  V30 1072 N 107.633 -2.06946 4.61527 0
M  V30 1073 C 105.931 -2.79927 3.47213 0
M  V30 1074 C 106.632 -2.06832 5.43687 0
M  V30 1075 N 105.608 -2.47892 4.83788 0
M  V30 1076 H 109.41 -0.925955 2.78932 0
M  V30 1077 H 106.924 -0.415172 1.57003 0
M  V30 1078 H 108.921 -3.36798 2.45708 0
M  V30 1079 H 107.581 -2.94968 1.35735 0
M  V30 1080 H 108.592 -1.77839 4.86409 0
M  V30 1081 H 105.269 -3.18438 2.70006 0
M  V30 1082 H 106.659 -1.76312 6.48354 0
M  V30 1083 N 109.379 -1.50304 -0.473955 0
M  V30 1084 C 110.625 -1.61389 -1.22806 0
M  V30 1085 C 110.958 -0.311955 -1.91678 0
M  V30 1086 O 110.233 0.686384 -1.81986 0
M  V30 1087 C 110.516 -2.79219 -2.27396 0
M  V30 1088 C 110.369 -4.19286 -1.62848 0
M  V30 1089 C 111.688 -2.92614 -3.28732 0
M  V30 1090 H 108.807 -0.587399 -0.445119 0
M  V30 1091 H 111.449 -1.82681 -0.522265 0
M  V30 1092 H 109.599 -2.61195 -2.87592 0
M  V30 1093 H 111.271 -4.48892 -1.06271 0
M  V30 1094 H 109.514 -4.23677 -0.931693 0
M  V30 1095 H 110.185 -4.97655 -2.38838 0
M  V30 1096 H 112.661 -3.09105 -2.78556 0
M  V30 1097 H 111.537 -3.76688 -3.99246 0
M  V30 1098 H 111.798 -2.03107 -3.92683 0
M  V30 1099 N 110.857 0.726932 -1.39834 0
M  V30 1100 C 111.805 1.86235 -1.39353 0
M  V30 1101 C 112.799 1.67144 -0.275555 0
M  V30 1102 O 114.005 1.74387 -0.44601 0
M  V30 1103 H 110.38 0.613174 -0.43534 0
M  V30 1104 H 112.351 1.83756 -2.35109 0
M  V30 1105 C 111.1 3.23995 -1.26185 0
M  V30 1106 H 110.423 3.39285 -2.11484 0
M  V30 1107 H 111.863 4.03609 -1.29907 0
M  V30 1108 C 110.322 3.36888 0.0290018 0
M  V30 1109 O 110.852 3.89152 0.99619 0
M  V30 1110 N 109.058 2.90446 0.0947437 0
M  V30 1111 H 108.605 2.48102 -0.693035 0
M  V30 1112 H 108.563 2.99451 0.957932 0
M  V30 1113 N 112.336 1.25143 0.95797 0
M  V30 1114 C 113.582 1.09855 1.70469 0
M  V30 1115 C 113.915 -0.360187 1.90831 0
M  V30 1116 O 113.19 -1.26568 1.47685 0
M  V30 1117 C 113.473 1.8497 3.08963 0
M  V30 1118 C 113.326 3.38652 2.96032 0
M  V30 1119 C 114.645 1.63016 4.08795 0
M  V30 1120 H 111.764 0.400465 0.618706 0
M  V30 1121 H 114.406 1.53933 1.11376 0
M  V30 1122 H 112.556 1.47505 3.59409 0
M  V30 1123 H 114.228 3.85772 2.52938 0
M  V30 1124 H 112.471 3.66534 2.32025 0
M  V30 1125 H 113.142 3.8642 3.94187 0
M  V30 1126 H 115.618 1.95625 3.67247 0
M  V30 1127 H 114.494 2.18015 5.03747 0
M  V30 1128 H 114.755 0.570692 4.38401 0
M  V30 1129 N 113.814 -1.1601 1.06675 0
M  V30 1130 C 115.06 -1.86909 0.786945 0
M  V30 1131 C 115.393 -1.81717 -0.685018 0
M  V30 1132 O 114.668 -1.23551 -1.50218 0
M  V30 1133 C 114.951 -3.36313 1.28707 0
M  V30 1134 C 114.804 -3.50175 2.82308 0
M  V30 1135 C 116.123 -4.3084 0.898071 0
M  V30 1136 H 113.242 -0.678677 0.287343 0
M  V30 1137 H 115.884 -1.36336 1.32334 0
M  V30 1138 H 114.034 -3.79513 0.830768 0
M  V30 1139 H 115.706 -3.15886 3.36175 0
M  V30 1140 H 113.949 -2.91959 3.20847 0
M  V30 1141 H 114.62 -4.55116 3.12368 0
M  V30 1142 H 117.096 -3.95561 1.29114 0
M  V30 1143 H 115.972 -5.33876 1.27543 0
M  V30 1144 H 116.233 -4.41662 -0.196651 0
M  V30 1145 N 115.292 -0.849877 -1.32721 0
M  V30 1146 C 116.539 -0.450923 -1.97416 0
M  V30 1147 C 116.867 0.992376 -1.67279 0
M  V30 1148 O 116.122 1.71048 -0.950845 0
M  V30 1149 C 116.421 -0.631272 -3.51781 0
M  V30 1150 C 116.087 -2.04432 -4.01894 0
M  V30 1151 C 114.749 -2.4308 -4.1529 0
M  V30 1152 C 117.101 -2.96679 -4.28522 0
M  V30 1153 C 114.429 -3.73257 -4.52654 0
M  V30 1154 C 116.781 -4.26349 -4.67343 0
M  V30 1155 C 115.445 -4.64939 -4.78945 0
M  V30 1156 H 114.715 -0.165004 -0.722395 0
M  V30 1157 H 117.362 -1.07901 -1.58207 0
M  V30 1158 H 115.667 0.0800767 -3.91718 0
M  V30 1159 H 117.364 -0.302709 -3.99856 0
M  V30 1160 H 113.954 -1.73419 -3.91949 0
M  V30 1161 H 118.138 -2.68054 -4.17685 0
M  V30 1162 H 113.394 -4.02946 -4.59831 0
M  V30 1163 H 117.568 -4.97895 -4.86902 0
M  V30 1164 H 115.195 -5.65855 -5.07654 0
M  V30 1165 N 116.77 1.45427 -0.607355 0
M  V30 1166 C 118.019 2.01452 -0.100036 0
M  V30 1167 C 118.332 1.48159 1.27704 0
M  V30 1168 O 119.538 1.96159 1.87707 0
M  V30 1169 C 117.994 3.59672 -0.128158 0
M  V30 1170 C 117.602 4.21962 -1.50507 0
M  V30 1171 C 119.346 4.23262 0.323932 0
M  V30 1172 C 117.253 5.72333 -1.48959 0
M  V30 1173 H 116.183 0.75325 -0.0336299 0
M  V30 1174 H 118.834 1.66901 -0.76265 0
M  V30 1175 H 117.216 3.91411 0.601105 0
M  V30 1176 H 118.39 4.01796 -2.25602 0
M  V30 1177 H 116.705 3.70565 -1.89923 0
M  V30 1178 H 119.302 5.33522 0.354691 0
M  V30 1179 H 119.645 3.93921 1.34656 0
M  V30 1180 H 120.178 3.96239 -0.352056 0
M  V30 1181 H 116.917 6.06373 -2.48981 0
M  V30 1182 H 116.437 5.94691 -0.781214 0
M  V30 1183 H 118.116 6.35525 -1.21313 0
M  V30 1184 N 118.248 0.346503 1.53744 0
M  V30 1185 C 119.496 -0.248612 2.00565 0
M  V30 1186 C 119.817 -1.5083 1.23593 0
M  V30 1187 O 119.087 -1.92858 0.343912 0
M  V30 1188 H 117.667 -0.0948564 0.740953 0
M  V30 1189 H 120.329 0.468341 1.89189 0
M  V30 1190 H 119.425 -0.488994 3.08245 0
M  V30 1191 N 119.726 -1.57421 0.075193 0
M  V30 1192 C 120.676 -2.09441 -0.901025 0
M  V30 1193 C 121.66 -1.00486 -1.25663 0
M  V30 1194 O 122.852 -1.2679 -1.23504 0
M  V30 1195 C 119.981 -2.66233 -2.16737 0
M  V30 1196 C 119.067 -3.82198 -1.83808 0
M  V30 1197 N 119.458 -4.91028 -1.21345 0
M  V30 1198 C 117.756 -3.91558 -2.13538 0
M  V30 1199 C 118.457 -5.71852 -1.06585 0
M  V30 1200 N 117.433 -5.20233 -1.57667 0
M  V30 1201 H 121.235 -2.90972 -0.413815 0
M  V30 1202 H 118.749 -1.6189 -0.128601 0
M  V30 1203 H 120.746 -3.01819 -2.87595 0
M  V30 1204 H 119.406 -1.8615 -2.66042 0
M  V30 1205 H 120.417 -5.10323 -0.88268 0
M  V30 1206 H 117.094 -3.22454 -2.65197 0
M  V30 1207 H 118.484 -6.69401 -0.578933 0
M  V30 1208 N 121.204 0.198386 -1.56346 0
M  V30 1209 C 122.45 0.920648 -1.80698 0
M  V30 1210 C 122.783 1.83045 -0.648697 0
M  V30 1211 O 122.058 1.91308 0.350925 0
M  V30 1212 C 122.341 1.73971 -3.15287 0
M  V30 1213 C 122.194 0.85485 -4.41602 0
M  V30 1214 C 123.513 2.71296 -3.46535 0
M  V30 1215 H 120.632 0.333261 -0.657348 0
M  V30 1216 H 123.274 0.188198 -1.89066 0
M  V30 1217 H 121.424 2.36416 -3.08285 0
M  V30 1218 H 123.096 0.245362 -4.60647 0
M  V30 1219 H 121.339 0.161398 -4.335 0
M  V30 1220 H 122.01 1.46286 -5.32264 0
M  V30 1221 H 124.486 2.18983 -3.53816 0
M  V30 1222 H 123.362 3.2569 -4.41834 0
M  V30 1223 H 123.623 3.5018 -2.69864 0
M  V30 1224 N 122.682 1.50554 0.465978 0
M  V30 1225 C 123.959 1.5232 1.22712 0
M  V30 1226 C 124.339 0.270807 2.09356 0
M  V30 1227 O 123.687 -0.745541 2.15995 0
M  V30 1228 C 123.897 2.82175 2.05374 0
M  V30 1229 C 125.245 3.33033 2.6339 0
M  V30 1230 O 126.269 2.83531 2.15612 0
M  V30 1231 O 125.128 4.19336 3.50456 0
M  V30 1232 H 122.222 0.611183 0.557122 0
M  V30 1233 H 124.768 1.62847 0.477381 0
M  V30 1234 H 123.54 3.64797 1.41558 0
M  V30 1235 H 123.163 2.74675 2.87471 0
M  V30 1236 N 124.16 -0.719506 1.40217 0
M  V30 1237 C 125.123 -1.8153 1.39927 0
M  V30 1238 C 126.123 -1.58095 0.293723 0
M  V30 1239 O 127.313 -1.65209 0.552429 0
M  V30 1240 C 124.445 -3.19561 1.18716 0
M  V30 1241 H 125.638 -1.83186 2.37451 0
M  V30 1242 H 123.191 -0.924746 1.26008 0
M  V30 1243 H 123.926 -3.23557 0.219366 0
M  V30 1244 H 123.711 -3.3797 1.98793 0
M  V30 1245 H 125.201 -3.99598 1.21291 0
M  V30 1246 N 125.638 -1.25649 -0.95132 0
M  V30 1247 C 126.886 -1.10375 -1.69298 0
M  V30 1248 C 127.207 0.355339 -1.91735 0
M  V30 1249 O 126.477 1.25188 -1.50681 0
M  V30 1250 H 125.057 -0.405461 -0.627384 0
M  V30 1251 H 127.719 -1.57823 -1.14358 0
M  V30 1252 H 126.815 -1.61465 -2.67087 0
M  V30 1253 N 127.117 1.15442 -1.07289 0
M  V30 1254 C 128.064 2.20161 -0.692653 0
M  V30 1255 C 129.034 1.63073 0.31564 0
M  V30 1256 O 130.219 1.89725 0.202235 0
M  V30 1257 C 127.359 3.44967 -0.0959509 0
M  V30 1258 C 126.472 4.16256 -1.15564 0
M  V30 1259 C 125.607 5.28609 -0.524011 0
M  V30 1260 C 124.646 5.91715 -1.56653 0
M  V30 1261 N 123.783 6.9554 -0.957531 0
M  V30 1262 H 128.623 2.52037 -1.59002 0
M  V30 1263 H 126.16 1.2378 -0.794798 0
M  V30 1264 H 128.118 4.16341 0.267628 0
M  V30 1265 H 126.748 3.1361 0.764772 0
M  V30 1266 H 125.8 3.43385 -1.6368 0
M  V30 1267 H 127.112 4.59268 -1.94613 0
M  V30 1268 H 126.266 6.06604 -0.108032 0
M  V30 1269 H 125.005 4.86787 0.29825 0
M  V30 1270 H 124.01 5.12433 -1.9923 0
M  V30 1271 H 125.235 6.35614 -2.39107 0
M  V30 1272 H 123.181 6.55814 -0.156162 0
M  V30 1273 H 123.098 7.36977 -1.68526 0
M  V30 1274 H 124.366 7.77435 -0.567032 0
M  V30 1275 N 128.595 0.856903 1.32268 0
M  V30 1276 C 129.82 0.474569 2.01897 0
M  V30 1277 C 130.245 -0.921766 1.63967 0
M  V30 1278 O 129.603 -1.60589 0.84148 0
M  V30 1279 C 129.651 0.623799 3.55164 0
M  V30 1280 O 128.755 -0.342459 4.10976 0
M  V30 1281 H 128.096 0.190422 0.63611 0
M  V30 1282 H 130.626 1.15672 1.68764 0
M  V30 1283 H 130.636 0.512169 4.04773 0
M  V30 1284 H 129.311 1.64202 3.82113 0
M  V30 1285 H 127.888 -0.18688 3.72431 0
M  V30 1286 N 130.073 -1.45103 0.615059 0
M  V30 1287 C 131.301 -2.06553 0.11977 0
M  V30 1288 C 131.716 -1.45842 -1.19898 0
M  V30 1289 O 131.073 -0.575325 -1.73194 0
M  V30 1290 C 131.124 -3.61495 -0.018364 0
M  V30 1291 O 130.845 -4.19942 1.24822 0
M  V30 1292 C 132.346 -4.39947 -0.544237 0
M  V30 1293 H 129.566 -0.667096 0.0722739 0
M  V30 1294 H 132.11 -1.8623 0.84491 0
M  V30 1295 H 130.265 -3.81135 -0.693865 0
M  V30 1296 H 130.679 -5.13204 1.0827 0
M  V30 1297 H 132.153 -5.48838 -0.589953 0
M  V30 1298 H 132.63 -4.10255 -1.56805 0
M  V30 1299 H 133.236 -4.25188 0.0974703 0
M  V30 1300 N 131.551 -0.354651 -1.53558 0
M  V30 1301 C 132.8 0.239504 -2.00273 0
M  V30 1302 C 133.113 1.50759 -1.24623 0
M  V30 1303 O 134.319 2.17968 -1.61871 0
M  V30 1304 C 132.775 0.477341 -3.5672 0
M  V30 1305 C 132.383 -0.775488 -4.41237 0
M  V30 1306 C 134.127 1.02975 -4.11821 0
M  V30 1307 C 132.034 -0.507838 -5.89216 0
M  V30 1308 H 130.964 0.0932743 -0.748208 0
M  V30 1309 H 133.615 -0.471701 -1.77334 0
M  V30 1310 H 131.997 1.24953 -3.7577 0
M  V30 1311 H 133.171 -1.54963 -4.33962 0
M  V30 1312 H 131.486 -1.25033 -3.97185 0
M  V30 1313 H 134.083 1.24513 -5.2 0
M  V30 1314 H 134.426 1.98862 -3.65731 0
M  V30 1315 H 134.959 0.317994 -3.96527 0
M  V30 1316 H 131.698 -1.43674 -6.39561 0
M  V30 1317 H 131.218 0.228011 -5.99366 0
M  V30 1318 H 132.897 -0.129238 -6.46871 0
M  V30 1319 N 133.029 1.57378 -0.0835403 0
M  V30 1320 C 134.277 1.93547 0.581718 0
M  V30 1321 C 134.598 0.96524 1.69435 0
M  V30 1322 O 133.868 0.0153369 1.95894 0
M  V30 1323 H 132.448 0.714521 0.217874 0
M  V30 1324 H 135.11 1.94366 -0.144158 0
M  V30 1325 H 134.206 2.95665 0.999423 0
M  V30 1326 N 134.507 -0.190092 1.56449 0
M  V30 1327 C 135.755 -0.907908 1.80559 0
M  V30 1328 C 136.076 -1.83583 0.657438 0
M  V30 1329 O 135.346 -1.93203 -0.323924 0
M  V30 1330 H 133.926 -0.338247 0.666032 0
M  V30 1331 H 136.588 -0.194403 1.93928 0
M  V30 1332 H 135.684 -1.49604 2.73907 0
M  V30 1333 N 135.985 -1.50799 -0.457987 0
M  V30 1334 C 136.917 -1.66786 -1.57211 0
M  V30 1335 C 137.93 -0.548962 -1.53265 0
M  V30 1336 O 139.119 -0.8226 -1.58416 0
M  V30 1337 C 136.219 -1.64834 -2.96113 0
M  V30 1338 C 135.392 -2.92971 -3.24787 0
M  V30 1339 C 134.451 -2.83485 -4.43309 0
M  V30 1340 O 133.477 -3.5744 -4.42973 0
M  V30 1341 N 134.679 -1.97929 -5.45714 0
M  V30 1342 H 137.444 -2.62889 -1.43909 0
M  V30 1343 H 135.005 -1.48427 -0.646617 0
M  V30 1344 H 136.997 -1.56084 -3.7339 0
M  V30 1345 H 135.567 -0.764118 -3.03117 0
M  V30 1346 H 134.787 -3.15749 -2.36 0
M  V30 1347 H 136.075 -3.77834 -3.40762 0
M  V30 1348 H 135.473 -1.37182 -5.48815 0
M  V30 1349 H 134.03 -1.95073 -6.21924 0
M  V30 1350 N 137.463 0.71206 -1.40597 0
M  V30 1351 C 138.712 1.46754 -1.38369 0
M  V30 1352 C 139.025 1.95598 0.0097839 0
M  V30 1353 O 140.231 2.71059 0.154677 0
M  V30 1354 C 138.687 2.65289 -2.43207 0
M  V30 1355 C 138.295 2.23301 -3.88382 0
M  V30 1356 C 140.039 3.43008 -2.50091 0
M  V30 1357 C 137.946 3.38696 -4.84808 0
M  V30 1358 H 136.876 0.55118 -0.514506 0
M  V30 1359 H 139.527 0.774616 -1.66349 0
M  V30 1360 H 137.909 3.36769 -2.08332 0
M  V30 1361 H 139.083 1.59218 -4.32419 0
M  V30 1362 H 137.398 1.58618 -3.85006 0
M  V30 1363 H 139.995 4.28881 -3.1932 0
M  V30 1364 H 140.338 3.87065 -1.53253 0
M  V30 1365 H 140.871 2.78574 -2.83974 0
M  V30 1366 H 137.61 2.99668 -5.82992 0
M  V30 1367 H 137.13 4.01683 -4.45433 0
M  V30 1368 H 138.809 4.04712 -5.04794 0
M  V30 1369 N 138.941 1.26152 0.944643 0
M  V30 1370 C 139.874 1.01729 2.04271 0
M  V30 1371 C 140.852 -0.0568101 1.62501 0
M  V30 1372 O 142.036 0.0848987 1.88309 0
M  V30 1373 C 139.163 0.539792 3.34371 0
M  V30 1374 C 138.209 1.60593 3.9511 0
M  V30 1375 S 139.042 3.19392 4.29825 0
M  V30 1376 C 140.198 2.73402 5.63029 0
M  V30 1377 H 140.431 1.94703 2.24673 0
M  V30 1378 H 137.964 1.09793 1.08558 0
M  V30 1379 H 139.922 0.270956 4.09605 0
M  V30 1380 H 138.583 -0.369609 3.11918 0
M  V30 1381 H 137.776 1.22275 4.88943 0
M  V30 1382 H 137.378 1.82596 3.26397 0
M  V30 1383 H 139.67 2.1765 6.41588 0
M  V30 1384 H 140.613 3.65913 6.06229 0
M  V30 1385 H 141.021 2.13077 5.22741 0
M  V30 1386 N 140.419 -1.14872 1.07899 0
M  V30 1387 C 141.649 -1.89386 0.825631 0
M  V30 1388 C 142.057 -1.78565 -0.625406 0
M  V30 1389 O 141.4 -1.13918 -1.44113 0
M  V30 1390 C 141.462 -3.40206 1.16191 0
M  V30 1391 C 141.126 -3.74812 2.61467 0
M  V30 1392 C 142.123 -3.75367 3.59716 0
M  V30 1393 C 139.808 -4.0495 2.97189 0
M  V30 1394 C 141.802 -4.05574 4.9172 0
M  V30 1395 C 139.489 -4.34821 4.29388 0
M  V30 1396 C 140.487 -4.35116 5.26463 0
M  V30 1397 O 140.175 -4.64267 6.56286 0
M  V30 1398 H 139.907 -0.606894 0.297751 0
M  V30 1399 H 142.461 -1.46438 1.44031 0
M  V30 1400 H 140.691 -3.8358 0.490214 0
M  V30 1401 H 142.38 -3.96018 0.890193 0
M  V30 1402 H 143.146 -3.52176 3.33462 0
M  V30 1403 H 139.025 -4.03876 2.22273 0
M  V30 1404 H 142.569 -4.05719 5.67484 0
M  V30 1405 H 138.466 -4.5748 4.55392 0
M  V30 1406 H 139.234 -4.82007 6.61522 0
M  V30 1407 N 141.898 -0.863906 -1.31812 0
M  V30 1408 C 142.828 -0.330843 -2.31144 0
M  V30 1409 C 143.809 0.575005 -1.60087 0
M  V30 1410 O 144.994 0.493304 -1.8783 0
M  V30 1411 C 142.124 0.47374 -3.44054 0
M  V30 1412 C 141.078 -0.338481 -4.26659 0
M  V30 1413 C 140.404 0.591412 -5.31419 0
M  V30 1414 C 141.704 -1.56926 -4.98168 0
M  V30 1415 H 143.398 -1.16086 -2.75979 0
M  V30 1416 H 140.944 -0.559657 -1.32679 0
M  V30 1417 H 142.897 0.857143 -4.12591 0
M  V30 1418 H 141.621 1.33721 -2.9797 0
M  V30 1419 H 140.28 -0.703754 -3.59782 0
M  V30 1420 H 139.928 1.45199 -4.81587 0
M  V30 1421 H 139.628 0.0519022 -5.87577 0
M  V30 1422 H 141.152 0.97179 -6.02817 0
M  V30 1423 H 142.566 -1.25764 -5.59336 0
M  V30 1424 H 140.963 -2.04739 -5.64094 0
M  V30 1425 H 142.033 -2.32544 -4.25501 0
M  V30 1426 N 143.376 1.44774 -0.622745 0
M  V30 1427 C 144.604 2.06487 -0.130722 0
M  V30 1428 C 145.019 1.46476 1.19123 0
M  V30 1429 O 144.376 0.584502 1.72887 0
M  V30 1430 C 144.427 3.615 -0.000807207 0
M  V30 1431 O 144.148 4.19274 -1.27048 0
M  V30 1432 C 145.649 4.40229 0.520898 0
M  V30 1433 H 142.869 0.666704 -0.0758106 0
M  V30 1434 H 145.413 1.85779 -0.854774 0
M  V30 1435 H 143.568 3.81498 0.673643 0
M  V30 1436 H 143.982 5.12622 -1.1099 0
M  V30 1437 H 145.456 5.49144 0.560838 0
M  V30 1438 H 145.933 4.1108 1.54627 0
M  V30 1439 H 146.539 4.25131 -0.120018 0
M  V30 1440 N 144.854 0.36279 1.53368 0
M  V30 1441 C 146.102 -0.227326 2.00817 0
M  V30 1442 C 146.423 -1.49511 1.25186 0
M  V30 1443 O 145.693 -1.92482 0.364348 0
M  V30 1444 H 144.273 -0.0869923 0.741917 0
M  V30 1445 H 146.935 0.488381 1.88682 0
M  V30 1446 H 146.031 -0.456273 3.08747 0
M  V30 1447 N 146.332 -1.57332 0.0918853 0
M  V30 1448 C 147.265 -2.09499 -0.904735 0
M  V30 1449 C 148.243 -1.00479 -1.27839 0
M  V30 1450 O 149.427 -1.27954 -1.38419 0
M  V30 1451 C 146.554 -2.56931 -2.2069 0
M  V30 1452 C 145.6 -3.77579 -1.98334 0
M  V30 1453 S 146.433 -5.21317 -1.22428 0
M  V30 1454 C 147.589 -5.72097 -2.53882 0
M  V30 1455 H 147.822 -2.93705 -0.460922 0
M  V30 1456 H 145.355 -1.53923 -0.121332 0
M  V30 1457 H 147.313 -2.84917 -2.95521 0
M  V30 1458 H 145.974 -1.72956 -2.62192 0
M  V30 1459 H 145.167 -4.08824 -2.94752 0
M  V30 1460 H 144.769 -3.5007 -1.31633 0
M  V30 1461 H 147.061 -5.80168 -3.49874 0
M  V30 1462 H 148.004 -6.70654 -2.27219 0
M  V30 1463 H 148.412 -5.00012 -2.62007 0
M  V30 1464 N 147.81 0.181792 -1.56548 0
M  V30 1465 C 149.056 0.901431 -1.81665 0
M  V30 1466 C 149.389 1.82347 -0.668075 0
M  V30 1467 O 148.664 1.91669 0.330615 0
M  V30 1468 C 148.947 1.70618 -3.17115 0
M  V30 1469 C 148.8 0.807964 -4.42484 0
M  V30 1470 C 150.119 2.67605 -3.49393 0
M  V30 1471 H 147.238 0.32627 -0.660846 0
M  V30 1472 H 149.88 0.168134 -1.89255 0
M  V30 1473 H 148.03 2.33133 -3.10775 0
M  V30 1474 H 149.702 0.19649 -4.60881 0
M  V30 1475 H 147.945 0.115411 -4.33646 0
M  V30 1476 H 148.616 1.40632 -5.33785 0
M  V30 1477 H 151.092 2.15218 -3.56118 0
M  V30 1478 H 149.968 3.20985 -4.45264 0
M  V30 1479 H 150.229 3.47298 -2.73563 0
M  V30 1480 N 149.288 1.51039 0.449983 0
M  V30 1481 C 150.565 1.53612 1.21089 0
M  V30 1482 C 150.945 0.292997 2.09057 0
M  V30 1483 O 150.293 -0.72259 2.16774 0
M  V30 1484 C 150.503 2.84337 2.0237 0
M  V30 1485 C 151.851 3.35807 2.59843 0
M  V30 1486 O 152.875 2.85802 2.12593 0
M  V30 1487 O 151.734 4.23029 3.45989 0
M  V30 1488 H 148.828 0.617057 0.550608 0
M  V30 1489 H 151.374 1.63344 0.460082 0
M  V30 1490 H 150.146 3.66278 1.37681 0
M  V30 1491 H 149.769 2.77708 2.84542 0
M  V30 1492 N 150.766 -0.704594 1.40972 0
M  V30 1493 C 151.713 -1.81862 1.42109 0
M  V30 1494 C 152.683 -1.63781 0.276593 0
M  V30 1495 O 153.868 -1.84759 0.4763 0
M  V30 1496 C 151.008 -3.19669 1.30022 0
M  V30 1497 C 150.121 -3.49246 2.54267 0
M  V30 1498 C 149.256 -4.76618 2.3454 0
M  V30 1499 C 148.295 -4.99133 3.54306 0
M  V30 1500 N 147.432 -6.17726 3.33706 0
M  V30 1501 H 152.272 -1.80226 2.37324 0
M  V30 1502 H 149.809 -0.880238 1.17857 0
M  V30 1503 H 151.767 -3.99263 1.21018 0
M  V30 1504 H 150.397 -3.20506 0.384192 0
M  V30 1505 H 149.449 -2.64125 2.73756 0
M  V30 1506 H 150.761 -3.61788 3.43381 0
M  V30 1507 H 149.915 -5.64249 2.22952 0
M  V30 1508 H 148.654 -4.66305 1.42867 0
M  V30 1509 H 147.659 -4.09953 3.66359 0
M  V30 1510 H 148.884 -5.11311 4.4692 0
M  V30 1511 H 146.83 -6.08642 2.44725 0
M  V30 1512 H 146.747 -6.30995 4.16391 0
M  V30 1513 H 148.015 -7.08115 3.25873 0
M  V30 1514 N 152.244 -1.26651 -0.937939 0
M  V30 1515 C 153.66 -1.03834 -1.21205 0
M  V30 1516 C 153.86 0.234502 -2.00131 0
M  V30 1517 O 152.916 0.942767 -2.3424 0
M  V30 1518 C 154.229 -2.27167 -1.97017 0
M  V30 1519 C 155.777 -2.32101 -2.09996 0
M  V30 1520 C 156.252 -3.55136 -2.8921 0
M  V30 1521 N 157.743 -3.55632 -2.96783 0
M  V30 1522 C 158.478 -4.475 -3.58512 0
M  V30 1523 N 157.974 -5.4966 -4.21717 0
M  V30 1524 N 159.767 -4.35145 -3.55816 0
M  V30 1525 H 151.918 -2.08398 -0.410391 0
M  V30 1526 H 154.181 -0.916031 -0.244114 0
M  V30 1527 H 153.887 -3.19765 -1.46434 0
M  V30 1528 H 153.761 -2.31672 -2.97671 0
M  V30 1529 H 156.148 -1.40015 -2.59769 0
M  V30 1530 H 156.229 -2.31605 -1.08594 0
M  V30 1531 H 155.873 -4.47553 -2.40123 0
M  V30 1532 H 155.803 -3.5288 -3.90875 0
M  V30 1533 H 158.294 -2.81743 -2.51852 0
M  V30 1534 H 158.607 -6.15943 -4.66727 0
M  V30 1535 H 156.952 -5.53514 -4.20294 0
M  V30 1536 H 160.143 -3.5455 -3.05634 0
M  V30 1537 H 160.316 -5.06934 -4.03636 0
M  V30 1538 N 153.722 1.14298 -1.08507 0
M  V30 1539 C 154.95 1.89219 -0.836876 0
M  V30 1540 C 155.365 1.78638 0.611054 0
M  V30 1541 O 154.722 1.14643 1.41998 0
M  V30 1542 C 154.773 3.39158 -1.25116 0
M  V30 1543 O 154.494 3.49449 -2.64229 0
M  V30 1544 C 155.995 4.31073 -1.03398 0
M  V30 1545 H 153.215 0.599328 -0.301739 0
M  V30 1546 H 155.759 1.44746 -1.44461 0
M  V30 1547 H 153.914 3.81251 -0.687514 0
M  V30 1548 H 154.328 4.42589 -2.81452 0
M  V30 1549 H 155.802 5.34646 -1.37323 0
M  V30 1550 H 156.279 4.3919 0.0289259 0
M  V30 1551 H 156.885 3.94738 -1.58311 0
M  V30 1552 N 155.201 0.870884 1.31352 0
M  V30 1553 C 156.131 0.343096 2.30966 0
M  V30 1554 C 157.112 -0.566507 1.60389 0
M  V30 1555 O 158.297 -0.483336 1.88089 0
M  V30 1556 C 155.427 -0.455487 3.443 0
M  V30 1557 C 154.381 0.361103 4.26474 0
M  V30 1558 C 153.707 -0.563221 5.31725 0
M  V30 1559 C 155.007 1.59566 4.97329 0
M  V30 1560 H 156.701 1.17548 2.75359 0
M  V30 1561 H 154.247 0.566686 1.32381 0
M  V30 1562 H 156.2 -0.83525 4.13039 0
M  V30 1563 H 154.924 -1.32139 2.98675 0
M  V30 1564 H 153.583 0.722825 3.59403 0
M  V30 1565 H 153.231 -1.42643 4.82351 0
M  V30 1566 H 152.931 -0.0207409 5.87596 0
M  V30 1567 H 154.455 -0.939808 6.03324 0
M  V30 1568 H 155.869 1.28728 5.58661 0
M  V30 1569 H 154.266 2.07728 5.63 0
M  V30 1570 H 155.336 2.34798 4.24262 0
M  V30 1571 N 156.679 -1.44442 0.630414 0
M  V30 1572 C 157.589 -2.34476 -0.0761693 0
M  V30 1573 C 158.605 -1.52576 -0.836449 0
M  V30 1574 O 159.781 -1.85307 -0.788874 0
M  V30 1575 C 156.846 -3.30545 -1.04599 0
M  V30 1576 C 155.907 -4.28352 -0.28516 0
M  V30 1577 C 155.14 -5.19831 -1.20878 0
M  V30 1578 O 155.363 -5.15223 -2.44747 0
M  V30 1579 O 154.297 -5.97892 -0.693491 0
M  V30 1580 H 158.123 -2.96345 0.664324 0
M  V30 1581 H 155.708 -1.44203 0.39061 0
M  V30 1582 H 157.59 -3.89681 -1.60396 0
M  V30 1583 H 156.265 -2.7121 -1.76711 0
M  V30 1584 H 155.172 -3.72764 0.315837 0
M  V30 1585 H 156.505 -4.90605 0.395924 0
M  V30 1586 N 158.157 -0.370918 -1.53173 0
M  V30 1587 C 159.104 0.473035 -2.259 0
M  V30 1588 C 160.074 1.07311 -1.26781 0
M  V30 1589 O 161.259 1.1046 -1.55574 0
M  V30 1590 C 158.399 1.60405 -3.05556 0
M  V30 1591 C 157.512 1.02863 -4.19575 0
M  V30 1592 C 156.647 2.12918 -4.86661 0
M  V30 1593 C 155.686 1.52869 -5.92704 0
M  V30 1594 N 154.823 2.56779 -6.53459 0
M  V30 1595 H 159.663 -0.153649 -2.97604 0
M  V30 1596 H 157.2 -0.0875946 -1.46839 0
M  V30 1597 H 159.158 2.27034 -3.50016 0
M  V30 1598 H 157.788 2.20131 -2.36097 0
M  V30 1599 H 156.84 0.252465 -3.79561 0
M  V30 1600 H 158.152 0.549642 -4.95762 0
M  V30 1601 H 157.306 2.87356 -5.34333 0
M  V30 1602 H 156.045 2.6417 -4.09958 0
M  V30 1603 H 155.05 0.769479 -5.44389 0
M  V30 1604 H 156.275 1.02435 -6.7133 0
M  V30 1605 H 154.221 3.07235 -5.79606 0
M  V30 1606 H 154.138 2.13583 -7.25202 0
M  V30 1607 H 155.406 3.30903 -7.05779 0
M  V30 1608 N 159.635 1.57281 -0.100228 0
M  V30 1609 C 160.865 1.98591 0.569681 0
M  V30 1610 C 161.273 0.978315 1.61943 0
M  V30 1611 O 160.616 -0.0396108 1.83657 0
M  V30 1612 C 160.678 3.36282 1.271 0
M  V30 1613 C 160.342 4.55488 0.371409 0
M  V30 1614 C 161.339 5.18491 -0.382504 0
M  V30 1615 C 159.024 5.01474 0.287965 0
M  V30 1616 C 161.018 6.25852 -1.20779 0
M  V30 1617 C 158.705 6.08701 -0.540965 0
M  V30 1618 C 159.703 6.70755 -1.28749 0
M  V30 1619 O 159.391 7.75914 -2.10269 0
M  V30 1620 H 159.123 0.65752 0.156982 0
M  V30 1621 H 161.677 2.0463 -0.177734 0
M  V30 1622 H 159.907 3.26941 2.0651 0
M  V30 1623 H 161.596 3.62005 1.83595 0
M  V30 1624 H 162.362 4.83891 -0.3278 0
M  V30 1625 H 158.241 4.52932 0.858689 0
M  V30 1626 H 161.785 6.74218 -1.79096 0
M  V30 1627 H 157.682 6.42732 -0.597131 0
M  V30 1628 H 158.45 7.92925 -2.03007 0
M  V30 1629 N 161.113 -0.173488 1.56642 0
M  V30 1630 C 162.023 -1.23482 1.99473 0
M  V30 1631 C 163.039 -1.48567 0.905752 0
M  V30 1632 O 164.215 -1.60758 1.21321 0
M  V30 1633 C 161.28 -2.55444 2.34413 0
M  V30 1634 C 160.341 -2.38241 3.57127 0
M  V30 1635 C 159.574 -3.63909 3.90392 0
M  V30 1636 O 159.797 -4.68996 3.24653 0
M  V30 1637 O 158.731 -3.58149 4.83749 0
M  V30 1638 H 162.557 -0.901279 2.90018 0
M  V30 1639 H 160.142 -0.380185 1.44482 0
M  V30 1640 H 162.024 -3.33292 2.57865 0
M  V30 1641 H 160.699 -2.88382 1.4703 0
M  V30 1642 H 159.606 -1.58431 3.38896 0
M  V30 1643 H 160.939 -2.10228 4.45045 0
M  V30 1644 N 162.591 -1.51276 -0.441967 0
M  V30 1645 C 164.007 -1.39349 -0.778083 0
M  V30 1646 C 164.207 -0.472212 -1.95889 0
M  V30 1647 O 163.263 0.0743551 -2.5239 0
M  V30 1648 C 164.576 -2.81292 -1.0628 0
M  V30 1649 C 166.124 -2.9041 -1.16751 0
M  V30 1650 C 166.599 -4.33251 -1.48519 0
M  V30 1651 N 168.09 -4.36336 -1.55453 0
M  V30 1652 C 168.825 -5.43885 -1.81596 0
M  V30 1653 N 168.321 -6.61601 -2.05562 0
M  V30 1654 N 170.114 -5.3136 -1.8334 0
M  V30 1655 H 162.265 -2.09729 0.335774 0
M  V30 1656 H 164.528 -0.943925 0.0878028 0
M  V30 1657 H 164.234 -3.50678 -0.267905 0
M  V30 1658 H 164.108 -3.20334 -1.99163 0
M  V30 1659 H 166.495 -2.21225 -1.95304 0
M  V30 1660 H 166.576 -2.54871 -0.217801 0
M  V30 1661 H 166.22 -5.02984 -0.704958 0
M  V30 1662 H 166.15 -4.66299 -2.44689 0
M  V30 1663 H 168.641 -3.51466 -1.38853 0
M  V30 1664 H 168.954 -7.39361 -2.24867 0
M  V30 1665 H 167.299 -6.64725 -2.02894 0
M  V30 1666 H 170.49 -4.38382 -1.64132 0
M  V30 1667 H 170.663 -6.15258 -2.03377 0
M  V30 1668 N 164.069 0.697108 -1.41344 0
M  V30 1669 C 164.979 1.84088 -1.45427 0
M  V30 1670 C 165.995 1.70545 -0.34501 0
M  V30 1671 O 167.171 1.92488 -0.592492 0
M  V30 1672 C 164.236 3.20056 -1.33286 0
M  V30 1673 C 163.297 3.45718 -2.54514 0
M  V30 1674 C 162.53 4.75199 -2.42944 0
M  V30 1675 O 162.753 5.51579 -1.45318 0
M  V30 1676 O 161.687 5.0161 -3.32672 0
M  V30 1677 H 165.513 1.836 -2.41919 0
M  V30 1678 H 163.098 0.849966 -1.22866 0
M  V30 1679 H 164.98 4.01236 -1.28794 0
M  V30 1680 H 163.655 3.2123 -0.39909 0
M  V30 1681 H 162.562 2.64474 -2.64583 0
M  V30 1682 H 163.895 3.49356 -3.46715 0
M  V30 1683 N 165.547 1.27147 0.931209 0
M  V30 1684 C 166.51 1.09615 2.01289 0
M  V30 1685 C 167.51 0.0412581 1.60747 0
M  V30 1686 O 168.7 0.285545 1.71844 0
M  V30 1687 C 165.832 0.669447 3.34262 0
M  V30 1688 H 167.025 2.05662 2.18273 0
M  V30 1689 H 164.578 1.09885 1.11153 0
M  V30 1690 H 165.313 -0.292572 3.22978 0
M  V30 1691 H 165.098 1.43127 3.65044 0
M  V30 1692 H 166.588 0.568921 4.13706 0
M  V30 1693 N 167.025 -1.13721 1.09112 0
M  V30 1694 C 167.972 -2.19031 0.727591 0
M  V30 1695 C 168.942 -1.63555 -0.289656 0
M  V30 1696 O 170.127 -1.90023 -0.172026 0
M  V30 1697 C 167.267 -3.4477 0.15082 0
M  V30 1698 C 166.38 -4.14365 1.22172 0
M  V30 1699 C 165.515 -5.27709 0.608042 0
M  V30 1700 C 164.554 -5.89147 1.66047 0
M  V30 1701 N 163.691 -6.93929 1.06806 0
M  V30 1702 H 168.531 -2.49475 1.62991 0
M  V30 1703 H 166.068 -1.22499 0.81439 0
M  V30 1704 H 168.026 -4.16714 -0.201358 0
M  V30 1705 H 166.656 -3.14787 -0.714783 0
M  V30 1706 H 165.708 -3.40737 1.69122 0
M  V30 1707 H 167.02 -4.56114 2.01895 0
M  V30 1708 H 166.174 -6.06355 0.204523 0
M  V30 1709 H 164.913 -4.872 -0.220769 0
M  V30 1710 H 163.918 -5.09198 2.07357 0
M  V30 1711 H 165.143 -6.31729 2.49189 0
M  V30 1712 H 163.089 -6.55483 0.260476 0
M  V30 1713 H 163.006 -7.34202 1.8023 0
M  V30 1714 H 164.274 -7.76434 0.690644 0
M  V30 1715 N 168.503 -0.877838 -1.30888 0
M  V30 1716 C 169.413 -0.343096 -2.32078 0
M  V30 1717 C 170.429 0.551022 -1.65045 0
M  V30 1718 O 171.605 0.445854 -1.96403 0
M  V30 1719 C 168.67 0.439905 -3.43898 0
M  V30 1720 C 167.731 -0.483111 -4.26573 0
M  V30 1721 C 166.964 0.262616 -5.33053 0
M  V30 1722 O 167.187 1.48967 -5.50604 0
M  V30 1723 O 166.121 -0.383593 -6.00676 0
M  V30 1724 H 169.947 -1.18203 -2.79753 0
M  V30 1725 H 167.532 -0.64145 -1.34929 0
M  V30 1726 H 169.414 0.883504 -4.12034 0
M  V30 1727 H 168.089 1.25526 -2.98371 0
M  V30 1728 H 166.996 -0.975374 -3.61161 0
M  V30 1729 H 168.329 -1.26427 -4.75686 0
M  V30 1730 N 169.982 1.44106 -0.638065 0
M  V30 1731 C 170.929 2.30715 0.062701 0
M  V30 1732 C 171.899 1.43882 0.829883 0
M  V30 1733 O 173.084 1.72775 0.809532 0
M  V30 1734 C 170.224 3.29258 1.03358 0
M  V30 1735 C 169.337 4.31192 0.26409 0
M  V30 1736 C 168.472 5.16825 1.22741 0
M  V30 1737 C 167.511 6.10462 0.447475 0
M  V30 1738 N 166.648 6.8877 1.36161 0
M  V30 1739 H 171.488 2.90096 -0.681781 0
M  V30 1740 H 169.025 1.42925 -0.347988 0
M  V30 1741 H 170.983 3.84886 1.60992 0
M  V30 1742 H 169.613 2.71562 1.74511 0
M  V30 1743 H 168.665 3.77981 -0.428295 0
M  V30 1744 H 169.977 4.97619 -0.343052 0
M  V30 1745 H 169.131 5.77004 1.87487 0
M  V30 1746 H 167.87 4.50488 1.86847 0
M  V30 1747 H 166.875 5.49386 -0.213433 0
M  V30 1748 H 168.1 6.78837 -0.188968 0
M  V30 1749 H 166.046 6.25096 1.98975 0
M  V30 1750 H 165.963 7.51663 0.808656 0
M  V30 1751 H 167.231 7.53467 1.99769 0
M  V30 1752 N 171.46 0.379036 1.52974 0
M  V30 1753 C 172.408 -0.476033 2.27677 0
M  V30 1754 C 173.402 -1.0719 1.31174 0
M  V30 1755 O 174.608 -1.01355 1.48752 0
M  V30 1756 H 170.983 -0.172255 0.732006 0
M  V30 1757 H 172.954 0.175615 2.97883 0
M  V30 1758 C 171.703 -1.5967 3.0887 0
M  V30 1759 H 171.026 -1.1475 3.82978 0
M  V30 1760 H 172.466 -2.16943 3.64296 0
M  V30 1761 C 170.925 -2.54682 2.20542 0
M  V30 1762 O 171.455 -3.57836 1.82527 0
M  V30 1763 N 169.661 -2.24183 1.84907 0
M  V30 1764 H 169.208 -1.40333 2.1602 0
M  V30 1765 H 169.166 -2.88006 1.26096 0
M  V30 1766 N 172.938 -1.57226 0.108567 0
M  V30 1767 C 174.354 -1.5766 -0.248058 0
M  V30 1768 C 174.554 -1.12063 -1.67464 0
M  V30 1769 O 173.61 -0.803236 -2.39383 0
M  V30 1770 C 174.923 -3.0069 -0.0242287 0
M  V30 1771 C 176.471 -3.12868 -0.0909372 0
M  V30 1772 C 176.946 -4.57879 0.105067 0
M  V30 1773 N 178.437 -4.63172 0.0506846 0
M  V30 1774 C 179.172 -5.73126 0.177396 0
M  V30 1775 N 178.668 -6.91866 0.359696 0
M  V30 1776 N 180.461 -5.61977 0.117709 0
M  V30 1777 H 172.612 -1.85169 1.04049 0
M  V30 1778 H 174.875 -0.85529 0.40888 0
M  V30 1779 H 174.581 -3.38299 0.961604 0
M  V30 1780 H 174.455 -3.6945 -0.76068 0
M  V30 1781 H 176.842 -2.75124 -1.06729 0
M  V30 1782 H 176.923 -2.46672 0.677225 0
M  V30 1783 H 176.567 -4.96321 1.07834 0
M  V30 1784 H 176.497 -5.22153 -0.682954 0
M  V30 1785 H 178.988 -3.778 -0.0871266 0
M  V30 1786 H 179.301 -7.71503 0.447529 0
M  V30 1787 H 177.646 -6.93874 0.395536 0
M  V30 1788 H 180.837 -4.68094 -0.0236741 0
M  V30 1789 H 181.01 -6.47627 0.219905 0
M  V30 1790 N 174.416 0.165178 -1.56732 0
M  V30 1791 C 175.326 1.22423 -2.00125 0
M  V30 1792 C 176.342 1.48084 -0.913619 0
M  V30 1793 O 177.518 1.60112 -1.22172 0
M  V30 1794 C 174.583 2.54197 -2.35764 0
M  V30 1795 C 173.644 2.36343 -3.58386 0
M  V30 1796 C 172.877 3.61834 -3.92316 0
M  V30 1797 O 173.1 4.67267 -3.27135 0
M  V30 1798 O 172.034 3.55579 -4.85641 0
M  V30 1799 H 175.86 0.885886 -2.90492 0
M  V30 1800 H 173.445 0.372518 -1.44681 0
M  V30 1801 H 175.327 3.3192 -2.59629 0
M  V30 1802 H 174.002 2.87598 -1.48557 0
M  V30 1803 H 172.909 1.56632 -3.39731 0
M  V30 1804 H 174.242 2.07865 -4.46154 0
M  V30 1805 N 175.894 1.51508 0.433938 0
M  V30 1806 C 177.122 1.68157 1.20543 0
M  V30 1807 C 177.537 0.380362 1.84929 0
M  V30 1808 O 176.894 -0.641446 1.70856 0
M  V30 1809 C 176.945 2.79965 2.28696 0
M  V30 1810 O 176.666 4.05045 1.66943 0
M  V30 1811 C 178.167 3.07912 3.18912 0
M  V30 1812 H 175.387 0.56421 0.363191 0
M  V30 1813 H 177.931 1.97941 0.513754 0
M  V30 1814 H 176.086 2.5277 2.93574 0
M  V30 1815 H 176.5 4.67165 2.38448 0
M  V30 1816 H 177.974 3.89719 3.90926 0
M  V30 1817 H 178.451 2.20456 3.79863 0
M  V30 1818 H 179.057 3.36779 2.59731 0
M  V30 1819 N 177.372 -0.689602 1.41712 0
M  V30 1820 C 178.618 -1.45041 1.42599 0
M  V30 1821 C 178.973 -1.92366 0.0363764 0
M  V30 1822 O 178.266 -1.67022 -0.938844 0
M  V30 1823 C 178.46 -2.67298 2.37247 0
M  V30 1824 C 178.289 -2.31935 3.85274 0
M  V30 1825 C 177.059 -2.2201 4.53916 0
M  V30 1826 C 179.257 -1.94526 4.76093 0
M  V30 1827 N 177.239 -1.79594 5.87043 0
M  V30 1828 C 178.61 -1.62915 5.98213 0
M  V30 1829 C 180.665 -1.81388 4.63684 0
M  V30 1830 C 179.368 -1.19486 7.09306 0
M  V30 1831 C 181.394 -1.39364 5.74745 0
M  V30 1832 C 180.756 -1.08668 6.95967 0
M  V30 1833 H 176.855 -0.527806 0.577014 0
M  V30 1834 H 179.439 -0.797266 1.77628 0
M  V30 1835 H 177.61 -3.30325 2.04304 0
M  V30 1836 H 179.342 -3.33806 2.28814 0
M  V30 1837 H 176.097 -2.406 4.07932 0
M  V30 1838 H 176.521 -1.60851 6.57614 0
M  V30 1839 H 181.163 -2.03772 3.70455 0
M  V30 1840 H 178.881 -0.958477 8.02396 0
M  V30 1841 H 182.467 -1.2974 5.6715 0
M  V30 1842 H 181.347 -0.766417 7.80446 0
M  V30 1843 N 178.85 -1.27639 -0.924453 0
M  V30 1844 C 180.08 -1.16819 -1.70402 0
M  V30 1845 C 180.488 0.277191 -1.87158 0
M  V30 1846 O 179.831 1.20025 -1.39067 0
M  V30 1847 C 179.893 -1.78305 -3.12166 0
M  V30 1848 C 179.557 -3.27502 -3.18734 0
M  V30 1849 C 180.554 -4.2409 -3.00738 0
M  V30 1850 C 178.239 -3.68269 -3.4159 0
M  V30 1851 C 180.233 -5.59422 -3.05492 0
M  V30 1852 C 177.92 -5.0373 -3.45977 0
M  V30 1853 C 178.918 -5.99116 -3.27946 0
M  V30 1854 O 178.606 -7.32108 -3.32074 0
M  V30 1855 H 178.338 -0.406931 -0.539799 0
M  V30 1856 H 180.892 -1.69078 -1.16626 0
M  V30 1857 H 179.122 -1.20528 -3.67437 0
M  V30 1858 H 180.811 -1.62154 -3.72103 0
M  V30 1859 H 181.577 -3.93931 -2.82919 0
M  V30 1860 H 177.456 -2.94496 -3.54673 0
M  V30 1861 H 181 -6.33852 -2.91337 0
M  V30 1862 H 176.897 -5.33543 -3.63321 0
M  V30 1863 H 177.665 -7.40598 -3.48507 0
M  V30 1864 N 180.328 1.1314 -1.09713 0
M  V30 1865 C 181.258 2.20748 -0.761102 0
M  V30 1866 C 182.239 1.68061 0.262566 0
M  V30 1867 O 183.424 1.93765 0.129977 0
M  V30 1868 C 180.554 3.46812 -0.184054 0
M  V30 1869 C 179.508 4.12606 -1.13757 0
M  V30 1870 C 178.834 5.33031 -0.422083 0
M  V30 1871 C 180.134 4.59603 -2.48118 0
M  V30 1872 H 181.828 2.49113 -1.66082 0
M  V30 1873 H 179.374 1.19734 -0.799987 0
M  V30 1874 H 181.327 4.21353 0.0631215 0
M  V30 1875 H 180.051 3.17851 0.750868 0
M  V30 1876 H 178.71 3.40036 -1.37007 0
M  V30 1877 H 178.358 5.00335 0.517072 0
M  V30 1878 H 178.058 5.77999 -1.05788 0
M  V30 1879 H 179.582 6.10325 -0.183277 0
M  V30 1880 H 180.996 5.25552 -2.29059 0
M  V30 1881 H 179.393 5.15321 -3.07514 0
M  V30 1882 H 180.463 3.73971 -3.08665 0
M  V30 1883 N 181.806 0.884767 1.30421 0
M  V30 1884 C 183.031 0.517288 2.00845 0
M  V30 1885 C 183.456 -0.886779 1.65885 0
M  V30 1886 O 182.814 -1.58768 0.875354 0
M  V30 1887 C 182.862 0.698994 3.5376 0
M  V30 1888 O 181.966 -0.255208 4.1161 0
M  V30 1889 H 181.307 0.203872 0.631927 0
M  V30 1890 H 183.837 1.19225 1.66272 0
M  V30 1891 H 183.847 0.597912 4.03595 0
M  V30 1892 H 182.522 1.72271 3.78544 0
M  V30 1893 H 181.099 -0.10784 3.72744 0
M  V30 1894 N 183.284 -1.43765 0.645699 0
M  V30 1895 C 184.53 -2.02731 0.164844 0
M  V30 1896 C 184.885 -1.49983 -1.2051 0
M  V30 1897 O 184.178 -0.680208 -1.79119 0
M  V30 1898 C 184.372 -3.57238 0.107679 0
M  V30 1899 C 184.201 -4.24977 1.47054 0
M  V30 1900 C 182.971 -4.61356 2.06103 0
M  V30 1901 C 185.169 -4.54476 2.40741 0
M  V30 1902 N 183.151 -5.14132 3.35473 0
M  V30 1903 C 184.522 -5.08489 3.54737 0
M  V30 1904 C 186.577 -4.36438 2.39637 0
M  V30 1905 C 185.28 -5.46364 4.67845 0
M  V30 1906 C 187.306 -4.7537 3.5182 0
M  V30 1907 C 186.668 -5.2951 4.64541 0
M  V30 1908 H 182.767 -0.774976 0.104578 0
M  V30 1909 H 185.351 -1.75051 0.852367 0
M  V30 1910 H 183.522 -3.84498 -0.549165 0
M  V30 1911 H 185.254 -4.0288 -0.383351 0
M  V30 1912 H 182.009 -4.46151 1.58892 0
M  V30 1913 H 182.433 -5.4498 4.01654 0
M  V30 1914 H 187.075 -3.93861 1.53731 0
M  V30 1915 H 184.793 -5.87888 5.54448 0
M  V30 1916 H 188.379 -4.63115 3.52159 0
M  V30 1917 H 187.259 -5.59077 5.49911 0
M  V30 1918 N 184.763 -0.387143 -1.52771 0
M  V30 1919 C 185.726 0.436939 -2.24997 0
M  V30 1920 C 186.726 0.991991 -1.26555 0
M  V30 1921 O 187.916 0.874335 -1.50669 0
M  V30 1922 C 185.048 1.61281 -3.00335 0
M  V30 1923 H 186.241 -0.195365 -2.99263 0
M  V30 1924 H 183.794 -0.139218 -1.55679 0
M  V30 1925 H 184.529 2.2826 -2.30364 0
M  V30 1926 H 184.314 1.22154 -3.72587 0
M  V30 1927 H 185.804 2.19629 -3.5518 0
M  V30 1928 N 186.241 1.57166 -0.116904 0
M  V30 1929 C 187.171 2.18222 0.830759 0
M  V30 1930 C 188.152 1.12167 1.27877 0
M  V30 1931 O 189.337 1.40394 1.34176 0
M  V30 1932 C 186.467 2.77996 2.08172 0
M  V30 1933 C 185.421 3.89614 1.77157 0
M  V30 1934 C 184.747 4.36187 3.09265 0
M  V30 1935 C 186.047 5.1181 1.04151 0
M  V30 1936 H 187.741 2.97664 0.321992 0
M  V30 1937 H 185.287 1.4318 0.153434 0
M  V30 1938 H 187.24 3.19366 2.74924 0
M  V30 1939 H 185.964 1.9584 2.6137 0
M  V30 1940 H 184.623 3.48816 1.12796 0
M  V30 1941 H 184.271 3.50893 3.60393 0
M  V30 1942 H 183.971 5.11455 2.89288 0
M  V30 1943 H 185.495 4.80207 3.77139 0
M  V30 1944 H 186.909 5.50214 1.61052 0
M  V30 1945 H 185.306 5.92648 0.942762 0
M  V30 1946 H 186.376 4.84892 0.0279022 0
M  V30 1947 N 187.719 -0.156864 1.56817 0
M  V30 1948 C 188.996 -0.899244 1.73704 0
M  V30 1949 C 189.376 -1.99771 0.682254 0
M  V30 1950 O 188.724 -2.26515 -0.300522 0
M  V30 1951 C 188.934 -1.45075 3.17418 0
M  V30 1952 C 190.282 -1.91802 3.7881 0
M  V30 1953 O 191.306 -1.54838 3.20786 0
M  V30 1954 O 190.165 -2.5994 4.80722 0
M  V30 1955 H 187.259 -0.424267 0.709878 0
M  V30 1956 H 189.805 -0.143561 1.69092 0
M  V30 1957 H 188.577 -0.660846 3.85679 0
M  V30 1958 H 188.2 -2.27021 3.26416 0
M  V30 1959 N 189.197 -1.51736 -0.425897 0
M  V30 1960 C 190.425 -1.68794 -1.1965 0
M  V30 1961 C 190.84 -0.390164 -1.84725 0
M  V30 1962 O 190.197 0.632376 -1.71194 0
M  V30 1963 C 190.248 -2.81174 -2.27208 0
M  V30 1964 O 189.969 -4.05925 -1.64793 0
M  V30 1965 C 191.47 -3.09599 -3.17275 0
M  V30 1966 H 188.69 -0.566128 -0.360194 0
M  V30 1967 H 191.234 -1.98211 -0.503249 0
M  V30 1968 H 189.389 -2.54324 -2.9223 0
M  V30 1969 H 189.803 -4.68423 -2.35967 0
M  V30 1970 H 191.277 -3.91786 -3.88854 0
M  V30 1971 H 191.754 -2.22468 -3.78688 0
M  V30 1972 H 192.36 -3.38151 -2.57941 0
M  V30 1973 N 190.675 0.682077 -1.42076 0
M  V30 1974 C 191.623 1.81707 -1.45208 0
M  V30 1975 C 192.617 1.66183 -0.328591 0
M  V30 1976 O 193.823 1.7288 -0.501264 0
M  V30 1977 H 190.198 0.599014 -0.454628 0
M  V30 1978 H 192.169 1.76183 -2.40836 0
M  V30 1979 C 190.918 3.19816 -1.36428 0
M  V30 1980 H 190.241 3.32385 -2.22171 0
M  V30 1981 H 191.681 3.99272 -1.42681 0
M  V30 1982 C 190.14 3.36809 -0.078191 0
M  V30 1983 O 190.67 3.92124 0.87188 0
M  V30 1984 N 188.876 2.906 0.00229266 0
M  V30 1985 H 188.423 2.45772 -0.771616 0
M  V30 1986 H 188.381 3.02347 0.862179 0
M  V30 1987 N 192.153 1.28127 0.917671 0
M  V30 1988 C 193.085 1.07517 2.02417 0
M  V30 1989 C 194.098 0.0281099 1.62776 0
M  V30 1990 O 195.287 0.270748 1.76435 0
M  V30 1991 C 192.387 0.610957 3.33347 0
M  V30 1992 C 191.56 1.73255 4.01624 0
M  V30 1993 C 190.619 1.26238 5.10833 0
M  V30 1994 O 189.645 1.96389 5.34247 0
M  V30 1995 N 190.847 0.123448 5.80369 0
M  V30 1996 H 193.612 2.02806 2.20658 0
M  V30 1997 H 191.173 1.19827 1.08871 0
M  V30 1998 H 193.165 0.280101 4.0373 0
M  V30 1999 H 191.735 -0.24898 3.11607 0
M  V30 2000 H 190.955 2.23319 3.24842 0
M  V30 2001 H 192.243 2.48503 4.43986 0
M  V30 2002 H 191.641 -0.461847 5.63812 0
M  V30 2003 H 190.198 -0.148158 6.51632 0
M  V30 2004 N 193.631 -1.12557 1.10312 0
M  V30 2005 C 194.541 -2.21841 0.763142 0
M  V30 2006 C 195.557 -1.72354 -0.238801 0
M  V30 2007 O 196.733 -2.01249 -0.0778746 0
M  V30 2008 C 193.798 -3.46131 0.198632 0
M  V30 2009 C 192.859 -4.10464 1.25769 0
M  V30 2010 C 192.092 -5.28821 0.72002 0
M  V30 2011 O 192.315 -5.6859 -0.453993 0
M  V30 2012 O 191.249 -5.83437 1.47935 0
M  V30 2013 H 195.075 -2.53312 1.67532 0
M  V30 2014 H 192.66 -1.20867 0.878157 0
M  V30 2015 H 194.542 -4.2125 -0.112401 0
M  V30 2016 H 193.217 -3.16338 -0.686419 0
M  V30 2017 H 192.124 -3.3713 1.62156 0
M  V30 2018 H 193.457 -4.44408 2.11571 0
M  V30 2019 N 195.109 -0.891671 -1.2995 0
M  V30 2020 C 196.019 -0.367691 -2.31701 0
M  V30 2021 C 197.035 0.533486 -1.6562 0
M  V30 2022 O 198.211 0.424997 -1.96865 0
M  V30 2023 C 195.276 0.403406 -3.44345 0
M  V30 2024 C 194.337 -0.528328 -4.26037 0
M  V30 2025 C 193.57 0.206063 -5.33302 0
M  V30 2026 O 193.793 1.43119 -5.52153 0
M  V30 2027 O 192.727 -0.447281 -6.00236 0
M  V30 2028 H 196.553 -1.21163 -2.78484 0
M  V30 2029 H 194.138 -0.655725 -1.34241 0
M  V30 2030 H 196.02 0.839753 -4.12948 0
M  V30 2031 H 194.695 1.22354 -2.99685 0
M  V30 2032 H 193.602 -1.01362 -3.60106 0
M  V30 2033 H 194.935 -1.31465 -4.74318 0
M  V30 2034 N 196.587 1.43421 -0.653314 0
M  V30 2035 C 198.003 1.56341 -0.320886 0
M  V30 2036 C 198.203 1.63696 1.17499 0
M  V30 2037 O 197.259 1.59208 1.95982 0
M  V30 2038 C 198.572 2.82424 -1.03233 0
M  V30 2039 C 200.12 2.96168 -1.01259 0
M  V30 2040 C 200.595 4.25084 -1.70492 0
M  V30 2041 N 202.086 4.31948 -1.67257 0
M  V30 2042 C 202.821 5.30466 -2.17701 0
M  V30 2043 N 202.317 6.35261 -2.76434 0
M  V30 2044 N 204.11 5.2212 -2.082 0
M  V30 2045 H 196.261 1.3689 -1.62403 0
M  V30 2046 H 198.524 0.657455 -0.682977 0
M  V30 2047 H 198.23 2.83053 -2.08744 0
M  V30 2048 H 198.104 3.72653 -0.583948 0
M  V30 2049 H 200.491 2.9508 0.0341235 0
M  V30 2050 H 200.572 2.07229 -1.49966 0
M  V30 2051 H 200.216 4.26932 -2.7512 0
M  V30 2052 H 200.146 5.1292 -1.19251 0
M  V30 2053 H 202.637 3.56838 -1.24398 0
M  V30 2054 H 202.95 7.06754 -3.12601 0
M  V30 2055 H 201.295 6.35884 -2.80495 0
M  V30 2056 H 204.486 4.39166 -1.62021 0
M  V30 2057 H 204.659 5.98739 -2.47822 0
M  V30 2058 N 198.065 0.39524 1.52563 0
M  V30 2059 C 199.342 -0.242908 1.94086 0
M  V30 2060 C 199.722 -1.63841 1.33114 0
M  V30 2061 O 199.07 -2.22928 0.501529 0
M  V30 2062 C 199.28 -0.26327 3.48006 0
M  V30 2063 C 200.628 -0.489354 4.21771 0
M  V30 2064 O 201.652 -0.343226 3.54543 0
M  V30 2065 O 200.511 -0.776169 5.4096 0
M  V30 2066 H 197.605 -0.152536 0.812811 0
M  V30 2067 H 200.151 0.450178 1.6362 0
M  V30 2068 H 198.923 0.713985 3.84731 0
M  V30 2069 H 198.546 -1.00103 3.84792 0
M  V30 2070 N 199.544 -1.57102 0.125237 0
M  V30 2071 C 200.491 -2.15641 -0.822655 0
M  V30 2072 C 201.461 -1.08313 -1.25927 0
M  V30 2073 O 202.646 -1.36251 -1.33567 0
M  V30 2074 C 199.786 -2.76504 -2.06494 0
M  V30 2075 C 198.899 -3.98158 -1.67612 0
M  V30 2076 C 198.034 -4.47088 -2.86854 0
M  V30 2077 C 197.073 -5.6126 -2.44242 0
M  V30 2078 N 196.21 -6.04905 -3.56419 0
M  V30 2079 H 201.05 -2.96313 -0.316625 0
M  V30 2080 H 198.587 -1.46388 -0.144588 0
M  V30 2081 H 200.545 -3.09925 -2.79289 0
M  V30 2082 H 199.175 -1.98512 -2.54545 0
M  V30 2083 H 198.227 -3.70858 -0.846661 0
M  V30 2084 H 199.539 -4.80934 -1.32301 0
M  V30 2085 H 198.693 -4.82451 -3.67867 0
M  V30 2086 H 197.432 -3.63275 -3.25396 0
M  V30 2087 H 196.437 -5.25495 -1.61663 0
M  V30 2088 H 197.662 -6.46843 -2.0681 0
M  V30 2089 H 195.608 -5.24032 -3.94623 0
M  V30 2090 H 195.525 -6.82552 -3.25051 0
M  V30 2091 H 196.793 -6.44907 -4.37853 0
M  V30 2092 N 201.022 0.148545 -1.56898 0
M  V30 2093 C 202.27 0.859717 -1.82902 0
M  V30 2094 C 202.591 1.81775 -0.70588 0
M  V30 2095 O 201.861 1.93994 0.272586 0
M  V30 2096 H 200.441 0.320469 -0.674766 0
M  V30 2097 H 203.103 0.142918 -1.94375 0
M  V30 2098 H 202.199 1.4229 -2.77777 0
M  V30 2099 N 202.5 1.5196 0.417844 0
M  V30 2100 C 203.447 1.74678 1.50852 0
M  V30 2101 C 204.417 0.588947 1.55308 0
M  V30 2102 O 205.602 0.825544 1.72016 0
M  V30 2103 C 202.742 1.89544 2.88387 0
M  V30 2104 C 201.855 3.17166 2.93309 0
M  V30 2105 C 200.99 3.22513 4.22088 0
M  V30 2106 C 200.029 4.44372 4.20951 0
M  V30 2107 N 199.166 4.47161 5.41287 0
M  V30 2108 H 204.006 2.67768 1.30783 0
M  V30 2109 H 201.543 1.32689 0.63498 0
M  V30 2110 H 203.501 1.96146 3.68216 0
M  V30 2111 H 202.131 0.998424 3.06971 0
M  V30 2112 H 201.183 3.19778 2.06024 0
M  V30 2113 H 202.495 4.07021 2.88332 0
M  V30 2114 H 201.649 3.28139 5.10303 0
M  V30 2115 H 200.388 2.30581 4.29748 0
M  V30 2116 H 199.393 4.38902 3.31127 0
M  V30 2117 H 200.618 5.3759 4.14938 0
M  V30 2118 H 198.564 3.58108 5.49632 0
M  V30 2119 H 198.481 5.3085 5.3827 0
M  V30 2120 H 199.749 4.57005 6.3148 0
M  V30 2121 N 203.978 -0.674533 1.42435 0
M  V30 2122 C 205.206 -1.46283 1.46317 0
M  V30 2123 C 205.621 -1.88653 0.0745836 0
M  V30 2124 O 204.978 -1.58151 -0.91074 0
M  V30 2125 C 205.029 -2.71178 2.3905 0
M  V30 2126 O 204.75 -2.30586 3.72507 0
M  V30 2127 C 206.251 -3.64738 2.51955 0
M  V30 2128 H 203.471 -0.450104 0.497642 0
M  V30 2129 H 206.015 -0.828792 1.86953 0
M  V30 2130 H 204.17 -3.3077 2.01667 0
M  V30 2131 H 204.584 -3.11241 4.22172 0
M  V30 2132 H 206.058 -4.49096 3.20962 0
M  V30 2133 H 206.535 -4.10656 1.55752 0
M  V30 2134 H 207.141 -3.11038 2.90061 0
M  V30 2135 N 205.456 -1.28612 -0.910864 0
M  V30 2136 C 206.702 -1.16106 -1.66274 0
M  V30 2137 C 207.035 0.289113 -1.92036 0
M  V30 2138 O 206.31 1.21 -1.52281 0
M  V30 2139 C 206.593 -1.96309 -3.01885 0
M  V30 2140 C 206.446 -3.49405 -2.8326 0
M  V30 2141 C 207.765 -1.78076 -4.02463 0
M  V30 2142 H 204.884 -0.423152 -0.603417 0
M  V30 2143 H 207.526 -1.57961 -1.05586 0
M  V30 2144 H 205.676 -1.60742 -3.53687 0
M  V30 2145 H 207.348 -3.94894 -2.38446 0
M  V30 2146 H 205.591 -3.74893 -2.18261 0
M  V30 2147 H 206.262 -4.00784 -3.79574 0
M  V30 2148 H 208.738 -2.0912 -3.59733 0
M  V30 2149 H 207.614 -2.36561 -4.95308 0
M  V30 2150 H 207.875 -0.733008 -4.35981 0
M  V30 2151 N 206.934 1.1197 -1.10907 0
M  V30 2152 C 207.844 2.21433 -0.774896 0
M  V30 2153 C 208.86 1.72478 0.229657 0
M  V30 2154 O 210.036 2.01288 0.0672008 0
M  V30 2155 C 207.101 3.4602 -0.216986 0
M  V30 2156 C 206.162 4.09791 -1.27944 0
M  V30 2157 C 205.395 5.28431 -0.748055 0
M  V30 2158 O 205.618 5.68823 0.423833 0
M  V30 2159 O 204.552 5.82644 -1.51027 0
M  V30 2160 H 208.378 2.5242 -1.68873 0
M  V30 2161 H 205.963 1.20399 -0.884555 0
M  V30 2162 H 207.845 4.21304 0.090059 0
M  V30 2163 H 206.52 3.16698 0.669633 0
M  V30 2164 H 205.427 3.36265 -1.63941 0
M  V30 2165 H 206.76 4.4328 -2.13925 0
M  V30 2166 N 208.412 0.89855 1.29475 0
M  V30 2167 C 209.658 0.524658 1.95896 0
M  V30 2168 C 209.991 -0.926468 1.70676 0
M  V30 2169 O 209.266 -1.65665 1.01908 0
M  V30 2170 C 209.549 0.81633 3.50725 0
M  V30 2171 C 209.402 2.31907 3.85408 0
M  V30 2172 C 210.721 0.302038 4.39062 0
M  V30 2173 H 207.84 0.19209 0.711527 0
M  V30 2174 H 210.482 1.12502 1.53112 0
M  V30 2175 H 208.632 0.305369 3.87298 0
M  V30 2176 H 210.304 2.89949 3.58786 0
M  V30 2177 H 208.547 2.78027 3.32992 0
M  V30 2178 H 209.218 2.47373 4.93468 0
M  V30 2179 H 211.694 0.739551 4.09475 0
M  V30 2180 H 210.57 0.535331 5.46283 0
M  V30 2181 H 210.831 -0.797216 4.34853 0
M  V30 2182 N 209.89 -1.43072 0.660911 0
M  V30 2183 C 211.138 -2.01323 0.177094 0
M  V30 2184 C 211.459 -1.5245 -1.2159 0
M  V30 2185 O 210.729 -0.740322 -1.81373 0
M  V30 2186 H 209.309 -0.744382 0.0624804 0
M  V30 2187 H 211.971 -1.75179 0.854305 0
M  V30 2188 H 211.067 -3.11649 0.167641 0
M  V30 2189 N 211.368 -0.403325 -1.52352 0
M  V30 2190 C 212.784 -0.0539281 -1.59509 0
M  V30 2191 C 212.984 1.43307 -1.41652 0
M  V30 2192 O 212.04 2.19924 -1.24056 0
M  V30 2193 C 213.353 -0.543654 -2.95745 0
M  V30 2194 C 214.901 -0.501125 -3.08962 0
M  V30 2195 C 215.376 -0.967267 -4.47669 0
M  V30 2196 N 216.867 -0.923849 -4.53893 0
M  V30 2197 C 217.602 -1.25578 -5.5948 0
M  V30 2198 N 217.098 -1.65889 -6.72646 0
M  V30 2199 N 218.891 -1.17613 -5.49658 0
M  V30 2200 H 211.042 -1.37123 -1.62206 0
M  V30 2201 H 213.305 -0.56294 -0.76276 0
M  V30 2202 H 213.011 -1.58275 -3.14073 0
M  V30 2203 H 212.885 0.0498042 -3.77167 0
M  V30 2204 H 215.272 0.528909 -2.90321 0
M  V30 2205 H 215.353 -1.13056 -2.2946 0
M  V30 2206 H 214.997 -1.9956 -4.67053 0
M  V30 2207 H 214.927 -0.314698 -5.25659 0
M  V30 2208 H 217.418 -0.627403 -3.72655 0
M  V30 2209 H 217.731 -1.89543 -7.49195 0
M  V30 2210 H 216.076 -1.69787 -6.73942 0
M  V30 2211 H 219.267 -0.860115 -4.6013 0
M  V30 2212 H 219.44 -1.43812 -6.3184 0
M  V30 2213 N 212.846 1.57033 -0.133567 0
M  V30 2214 C 213.809 2.14897 0.796995 0
M  V30 2215 C 214.809 1.0874 1.18458 0
M  V30 2216 O 215.999 1.34446 1.1077 0
M  V30 2217 C 213.131 2.70112 2.07973 0
M  V30 2218 H 214.324 2.98457 0.293873 0
M  V30 2219 H 211.877 1.55871 0.115787 0
M  V30 2220 H 212.612 1.9018 2.62682 0
M  V30 2221 H 212.397 3.47764 1.81115 0
M  V30 2222 H 213.887 3.14738 2.74462 0
M  V30 2223 N 214.325 -0.140222 1.56975 0
M  V30 2224 C 215.555 -0.865181 1.87612 0
M  V30 2225 C 215.963 -1.74942 0.72055 0
M  V30 2226 O 215.306 -1.80917 -0.318561 0
M  V30 2227 C 215.368 -1.76782 3.13031 0
M  V30 2228 C 215.032 -1.06005 4.44536 0
M  V30 2229 C 216.029 -0.410768 5.18275 0
M  V30 2230 C 213.714 -1.04754 4.91255 0
M  V30 2231 C 215.708 0.241572 6.36942 0
M  V30 2232 C 213.395 -0.391394 6.09845 0
M  V30 2233 C 214.393 0.252029 6.82535 0
M  V30 2234 O 214.081 0.897757 7.98871 0
M  V30 2235 H 213.813 -0.255188 0.625983 0
M  V30 2236 H 216.367 -0.135653 2.04952 0
M  V30 2237 H 214.597 -2.53846 2.91718 0
M  V30 2238 H 216.286 -2.36533 3.29859 0
M  V30 2239 H 217.052 -0.412195 4.83245 0
M  V30 2240 H 212.931 -1.53777 4.34596 0
M  V30 2241 H 216.475 0.744375 6.93617 0
M  V30 2242 H 212.372 -0.387656 6.44335 0
M  V30 2243 H 213.14 0.800102 8.1458 0
M  V30 2244 N 215.803 -1.52179 -0.40978 0
M  V30 2245 C 217.05 -1.66206 -1.15679 0
M  V30 2246 C 217.378 -0.391674 -1.90516 0
M  V30 2247 O 216.633 0.62533 -1.8544 0
M  V30 2248 C 216.932 -2.83428 -2.17723 0
M  V30 2249 C 216.598 -4.21672 -1.59699 0
M  V30 2250 C 215.26 -4.59274 -1.43599 0
M  V30 2251 C 217.612 -5.07825 -1.17317 0
M  V30 2252 C 214.94 -5.80709 -0.836328 0
M  V30 2253 C 217.292 -6.29864 -0.587691 0
M  V30 2254 C 215.956 -6.66216 -0.413818 0
M  V30 2255 H 215.226 -0.608192 -0.423301 0
M  V30 2256 H 217.873 -1.86279 -0.444097 0
M  V30 2257 H 216.178 -2.57687 -2.95135 0
M  V30 2258 H 217.875 -2.91477 -2.75394 0
M  V30 2259 H 214.465 -3.9204 -1.73213 0
M  V30 2260 H 218.649 -4.79359 -1.28565 0
M  V30 2261 H 213.905 -6.07498 -0.689626 0
M  V30 2262 H 218.079 -6.95948 -0.250894 0
M  V30 2263 H 215.706 -7.60182 0.0529471 0
M  V30 2264 N 217.281 0.66697 -1.42791 0
M  V30 2265 C 218.191 1.80962 -1.49299 0
M  V30 2266 C 219.207 1.69775 -0.381108 0
M  V30 2267 O 220.383 1.91188 -0.633188 0
M  V30 2268 C 217.448 3.17156 -1.40045 0
M  V30 2269 C 216.509 3.40242 -2.6179 0
M  V30 2270 C 215.742 4.69939 -2.52969 0
M  V30 2271 O 215.965 5.48372 -1.56985 0
M  V30 2272 O 214.899 4.94441 -3.43237 0
M  V30 2273 H 218.725 1.78427 -2.45759 0
M  V30 2274 H 216.31 0.823713 -1.24641 0
M  V30 2275 H 218.192 3.98413 -1.37276 0
M  V30 2276 H 216.867 3.20312 -0.467138 0
M  V30 2277 H 215.774 2.58802 -2.70134 0
M  V30 2278 H 217.107 3.41923 -3.54047 0
M  V30 2279 N 218.759 1.29093 0.90403 0
M  V30 2280 C 219.987 1.19689 1.68766 0
M  V30 2281 C 220.402 -0.243113 1.87228 0
M  V30 2282 O 219.759 -1.16326 1.40621 0
M  V30 2283 C 219.81 1.90144 3.07453 0
M  V30 2284 O 219.531 3.2852 2.89838 0
M  V30 2285 C 221.032 1.87162 4.01852 0
M  V30 2286 H 218.252 0.415035 0.527244 0
M  V30 2287 H 220.796 1.7039 1.13082 0
M  V30 2288 H 218.951 1.43289 3.59926 0
M  V30 2289 H 219.365 3.63944 3.77684 0
M  V30 2290 H 220.839 2.41032 4.96596 0
M  V30 2291 H 221.316 0.84617 4.30972 0
M  V30 2292 H 221.922 2.33741 3.5531 0
M  V30 2293 N 220.237 -1.11381 1.11499 0
M  V30 2294 C 221.147 -2.21019 0.786628 0
M  V30 2295 C 222.163 -1.72597 -0.220507 0
M  V30 2296 O 223.339 -2.01321 -0.0565251 0
M  V30 2297 C 220.404 -3.459 0.235333 0
M  V30 2298 C 219.465 -4.09107 1.30115 0
M  V30 2299 C 218.698 -5.28027 0.776068 0
M  V30 2300 O 218.921 -5.6904 -0.393661 0
M  V30 2301 O 217.855 -5.81835 1.54114 0
M  V30 2302 H 221.681 -2.51521 1.70209 0
M  V30 2303 H 219.266 -1.19928 0.890928 0
M  V30 2304 H 221.148 -4.21346 -0.067715 0
M  V30 2305 H 219.823 -3.17049 -0.652828 0
M  V30 2306 H 218.73 -3.35391 1.65722 0
M  V30 2307 H 220.063 -4.42139 2.16273 0
M  V30 2308 N 221.715 -0.905404 -1.28997 0
M  V30 2309 C 222.662 -0.385892 -2.27551 0
M  V30 2310 C 223.632 0.535113 -1.57244 0
M  V30 2311 O 224.817 0.459119 -1.85194 0
M  V30 2312 C 221.957 0.375461 -3.43051 0
M  V30 2313 C 221.07 -0.577092 -4.28128 0
M  V30 2314 C 220.205 0.201879 -5.30816 0
M  V30 2315 C 219.244 -0.744829 -6.07551 0
M  V30 2316 N 218.381 9.42587e-05 -7.021 0
M  V30 2317 H 223.221 -1.23139 -2.71368 0
M  V30 2318 H 220.758 -0.618542 -1.33463 0
M  V30 2319 H 222.716 0.832992 -4.088 0
M  V30 2320 H 221.346 1.18537 -3.00248 0
M  V30 2321 H 220.398 -1.15315 -3.62501 0
M  V30 2322 H 221.71 -1.30152 -4.8152 0
M  V30 2323 H 220.864 0.720351 -6.02408 0
M  V30 2324 H 219.603 0.959413 -4.7817 0
M  V30 2325 H 218.608 -1.27475 -5.34818 0
M  V30 2326 H 219.833 -1.50178 -6.62286 0
M  V30 2327 H 217.779 0.739791 -6.51815 0
M  V30 2328 H 217.696 -0.664321 -7.53076 0
M  V30 2329 H 218.964 0.498644 -7.77903 0
M  V30 2330 N 223.193 1.4272 -0.668489 0
M  V30 2331 C 224.14 2.30796 0.0137489 0
M  V30 2332 C 225.11 1.4561 0.799177 0
M  V30 2333 O 226.295 1.74453 0.772702 0
M  V30 2334 C 223.435 3.31377 0.963507 0
M  V30 2335 C 222.548 4.31655 0.172569 0
M  V30 2336 C 221.683 5.19312 1.1175 0
M  V30 2337 C 220.722 6.11274 0.317886 0
M  V30 2338 N 219.859 6.91504 1.2152 0
M  V30 2339 H 224.699 2.88585 -0.743161 0
M  V30 2340 H 222.236 1.42154 -0.378226 0
M  V30 2341 H 224.194 3.88214 1.52792 0
M  V30 2342 H 222.824 2.75202 1.68712 0
M  V30 2343 H 221.876 3.76988 -0.508374 0
M  V30 2344 H 223.188 4.96779 -0.448527 0
M  V30 2345 H 222.342 5.80851 1.75206 0
M  V30 2346 H 221.081 4.5435 1.77249 0
M  V30 2347 H 220.086 5.48809 -0.329918 0
M  V30 2348 H 221.311 6.78283 -0.332917 0
M  V30 2349 H 219.257 6.29176 1.85671 0
M  V30 2350 H 219.174 7.53209 0.649036 0
M  V30 2351 H 220.442 7.57535 1.83742 0
M  V30 2352 N 224.671 0.411399 1.52136 0
M  V30 2353 C 225.621 -0.430376 2.23901 0
M  V30 2354 C 226.605 -1.0116 1.25121 0
M  V30 2355 O 227.797 -0.934044 1.50348 0
M  V30 2356 C 224.926 -1.54527 3.06556 0
M  V30 2357 C 224.012 -0.9747 4.12747 0
M  V30 2358 N 224.403 -0.130991 5.0563 0
M  V30 2359 C 222.701 -1.24497 4.28271 0
M  V30 2360 C 223.402 0.186689 5.814 0
M  V30 2361 N 222.378 -0.42304 5.41951 0
M  V30 2362 H 226.18 0.220509 2.93072 0
M  V30 2363 H 223.694 0.221952 1.60876 0
M  V30 2364 H 225.691 -2.16093 3.56524 0
M  V30 2365 H 224.351 -2.19875 2.38925 0
M  V30 2366 H 225.362 0.23349 5.17373 0
M  V30 2367 H 222.039 -1.89787 3.7187 0
M  V30 2368 H 223.429 0.871673 6.66222 0
M  V30 2369 N 226.149 -1.5696 0.141893 0
M  V30 2370 C 227.396 -1.9596 -0.510492 0
M  V30 2371 C 227.724 -1.02648 -1.65208 0
M  V30 2372 O 226.979 -0.0546947 -1.95624 0
M  V30 2373 C 227.278 -3.41242 -1.06249 0
M  V30 2374 C 226.944 -4.50882 -0.0398791 0
M  V30 2375 C 225.606 -4.80595 0.241247 0
M  V30 2376 C 227.958 -5.17058 0.65578 0
M  V30 2377 C 225.286 -5.73792 1.22393 0
M  V30 2378 C 227.638 -6.11313 1.62724 0
M  V30 2379 C 226.302 -6.39407 1.91612 0
M  V30 2380 H 225.572 -0.717068 -0.186802 0
M  V30 2381 H 228.219 -1.90142 0.227643 0
M  V30 2382 H 226.524 -3.43866 -1.87785 0
M  V30 2383 H 228.221 -3.68742 -1.57576 0
M  V30 2384 H 224.811 -4.27754 -0.269174 0
M  V30 2385 H 228.995 -4.94239 0.451779 0
M  V30 2386 H 224.251 -5.93853 1.45424 0
M  V30 2387 H 228.425 -6.61668 2.17183 0
M  V30 2388 H 226.052 -7.11427 2.6791 0
M  V30 2389 N 227.627 0.131896 -1.57047 0
M  V30 2390 C 228.855 0.856461 -1.88341 0
M  V30 2391 C 229.27 1.74042 -0.731757 0
M  V30 2392 O 228.627 1.80051 0.297945 0
M  V30 2393 C 228.678 1.70064 -3.18999 0
M  V30 2394 O 228.399 0.852278 -4.2973 0
M  V30 2395 C 229.9 2.53148 -3.63911 0
M  V30 2396 H 227.12 0.246885 -0.62393 0
M  V30 2397 H 229.664 0.120152 -2.04147 0
M  V30 2398 H 227.819 2.38984 -3.04902 0
M  V30 2399 H 228.233 1.43329 -5.04537 0
M  V30 2400 H 229.707 3.07931 -4.58129 0
M  V30 2401 H 230.184 3.29901 -2.89935 0
M  V30 2402 H 230.79 1.89492 -3.80753 0
M  V30 2403 N 229.106 1.52395 0.401703 0
M  V30 2404 C 230.355 1.66044 1.14509 0
M  V30 2405 C 230.668 0.400216 1.91462 0
M  V30 2406 O 231.874 0.416632 2.68284 0
M  V30 2407 C 230.33 2.93388 2.0845 0
M  V30 2408 C 229.938 4.26545 1.36978 0
M  V30 2409 C 231.682 3.16402 2.83001 0
M  V30 2410 C 229.589 5.45007 2.29611 0
M  V30 2411 H 228.519 0.618562 0.431158 0
M  V30 2412 H 231.17 1.78886 0.40892 0
M  V30 2413 H 229.552 2.74263 2.8565 0
M  V30 2414 H 230.726 4.56179 0.650916 0
M  V30 2415 H 229.041 4.09692 0.74438 0
M  V30 2416 H 231.638 4.02085 3.52465 0
M  V30 2417 H 231.981 2.30943 3.46368 0
M  V30 2418 H 232.514 3.36034 2.12898 0
M  V30 2419 H 229.253 6.32835 1.70879 0
M  V30 2420 H 228.773 5.19702 2.9945 0
M  V30 2421 H 230.452 5.7838 2.89974 0
M  V30 2422 N 230.584 -0.659388 1.43143 0
M  V30 2423 C 231.514 -1.78422 1.50625 0
M  V30 2424 C 232.495 -1.66216 0.361443 0
M  V30 2425 O 233.68 -1.85404 0.577834 0
M  V30 2426 C 230.81 -3.16815 1.42287 0
M  V30 2427 C 229.764 -3.43777 2.54954 0
M  V30 2428 C 229.09 -4.81905 2.31671 0
M  V30 2429 C 230.39 -3.39134 3.97222 0
M  V30 2430 H 232.084 -1.72417 2.44771 0
M  V30 2431 H 229.63 -0.828084 1.17808 0
M  V30 2432 H 231.583 -3.95253 1.46127 0
M  V30 2433 H 230.307 -3.23534 0.446435 0
M  V30 2434 H 228.966 -2.67707 2.50457 0
M  V30 2435 H 228.614 -4.85294 1.32284 0
M  V30 2436 H 228.314 -5.00906 3.07192 0
M  V30 2437 H 229.838 -5.62609 2.37284 0
M  V30 2438 H 231.252 -4.07518 4.03239 0
M  V30 2439 H 229.649 -3.69671 4.72719 0
M  V30 2440 H 230.719 -2.37426 4.22797 0
M  V30 2441 N 232.062 -1.29571 -0.897171 0
M  V30 2442 C 233.339 -1.08365 -1.62839 0
M  V30 2443 C 233.719 0.371331 -2.07808 0
M  V30 2444 O 233.067 1.3606 -1.83576 0
M  V30 2445 C 233.277 -2.0735 -2.80726 0
M  V30 2446 C 234.625 -2.38406 -3.51351 0
M  V30 2447 O 235.649 -2.05564 -2.90898 0
M  V30 2448 O 234.508 -2.9453 -4.60341 0
M  V30 2449 H 231.602 -0.415345 -0.715134 0
M  V30 2450 H 234.148 -1.40952 -0.945018 0
M  V30 2451 H 232.92 -3.05339 -2.44711 0
M  V30 2452 H 232.543 -1.75507 -3.56767 0
M  V30 2453 N 233.54 1.10788 -1.12088 0
M  V30 2454 C 234.503 2.15207 -0.788577 0
M  V30 2455 C 235.503 1.59609 0.195317 0
M  V30 2456 O 236.693 1.74174 -0.0300193 0
M  V30 2457 C 233.825 3.4047 -0.171174 0
M  V30 2458 H 235.018 2.46116 -1.71368 0
M  V30 2459 H 232.571 1.26089 -0.923652 0
M  V30 2460 H 233.306 3.15176 0.763832 0
M  V30 2461 H 233.091 3.82109 -0.879514 0
M  V30 2462 H 234.581 4.17576 0.04496 0
M  V30 2463 N 235.018 0.912232 1.28515 0
M  V30 2464 C 236.429 0.591352 1.77087 0
M  V30 2465 C 236.78 -0.8933 1.74684 0
M  V30 2466 O 235.905 -1.69876 1.34056 0
M  V30 2467 C 236.5 1.06668 3.2157 0
M  V30 2468 C 235.059 0.79675 3.67871 0
M  V30 2469 C 234.206 1.23427 2.48316 0
M  V30 2470 H 237.157 1.09365 1.15 0
M  V30 2471 H 237.178 0.407455 3.78312 0
M  V30 2472 H 236.69 2.14726 3.23287 0
M  V30 2473 H 234.791 -0.270679 3.71616 0
M  V30 2474 H 234.904 1.40343 4.58084 0
M  V30 2475 H 233.268 0.653036 2.46186 0
M  V30 2476 H 234.051 2.32316 2.52753 0
M  V30 2477 N 236.496 -1.42363 0.676048 0
M  V30 2478 C 237.744 -2.01123 0.198437 0
M  V30 2479 C 238.065 -1.53731 -1.19966 0
M  V30 2480 O 237.335 -0.759518 -1.80577 0
M  V30 2481 H 235.915 -0.743678 0.0703721 0
M  V30 2482 H 238.577 -1.74263 0.872837 0
M  V30 2483 H 237.673 -3.11454 0.200686 0
M  V30 2484 N 237.974 -0.419461 -1.51915 0
M  V30 2485 C 238.924 0.418496 -2.24126 0
M  V30 2486 C 239.908 1.00495 -1.25656 0
M  V30 2487 O 241.1 0.926058 -1.50842 0
M  V30 2488 C 238.229 1.52899 -3.07371 0
M  V30 2489 C 237.315 0.952797 -4.13258 0
M  V30 2490 N 237.706 0.104175 -5.05693 0
M  V30 2491 C 236.004 1.22224 -4.28926 0
M  V30 2492 C 236.705 -0.21752 -5.81293 0
M  V30 2493 N 235.681 0.394293 -5.42168 0
M  V30 2494 H 239.483 -0.236048 -2.92951 0
M  V30 2495 H 236.997 -0.230481 -1.60756 0
M  V30 2496 H 238.994 2.14199 -3.57665 0
M  V30 2497 H 237.654 2.18605 -2.40088 0
M  V30 2498 H 238.665 -0.260924 -5.17242 0
M  V30 2499 H 235.342 1.87812 -3.72871 0
M  V30 2500 H 236.732 -0.906992 -6.6575 0
M  V30 2501 N 239.452 1.56882 -0.150215 0
M  V30 2502 C 240.399 2.16922 0.788244 0
M  V30 2503 C 241.369 1.10303 1.24187 0
M  V30 2504 O 242.554 1.38359 1.31383 0
M  V30 2505 C 239.694 2.79754 2.02068 0
M  V30 2506 C 238.807 4.00775 1.61257 0
M  V30 2507 C 237.942 4.51595 2.79705 0
M  V30 2508 C 236.981 5.65074 2.35282 0
M  V30 2509 N 236.118 6.10499 3.4675 0
M  V30 2510 H 240.958 2.96779 0.269444 0
M  V30 2511 H 238.495 1.46599 0.12128 0
M  V30 2512 H 240.453 3.14329 2.74323 0
M  V30 2513 H 239.083 2.02536 2.51354 0
M  V30 2514 H 238.135 3.72158 0.787553 0
M  V30 2515 H 239.447 4.82978 1.24633 0
M  V30 2516 H 238.601 4.88242 3.60145 0
M  V30 2517 H 237.34 3.68406 3.19576 0
M  V30 2518 H 236.345 5.28 1.53283 0
M  V30 2519 H 237.57 6.50052 1.96493 0
M  V30 2520 H 235.516 5.30243 3.86236 0
M  V30 2521 H 235.433 6.87637 3.14152 0
M  V30 2522 H 236.701 6.51791 4.27537 0
M  V30 2523 N 240.93 -0.123565 1.57115 0
M  V30 2524 C 242.155 -0.850398 1.89164 0
M  V30 2525 C 242.58 -1.7286 0.741688 0
M  V30 2526 O 241.938 -1.78665 -0.307958 0
M  V30 2527 C 241.986 -1.66353 3.19936 0
M  V30 2528 O 241.09 -2.77004 3.0552 0
M  V30 2529 H 240.431 -0.235454 0.620852 0
M  V30 2530 H 242.961 -0.107335 2.04318 0
M  V30 2531 H 242.971 -2.05372 3.52543 0
M  V30 2532 H 241.646 -1.01881 4.03228 0
M  V30 2533 H 240.223 -2.41221 2.84371 0
M  V30 2534 N 242.408 -1.52605 -0.393616 0
M  V30 2535 C 243.655 -1.67424 -1.1391 0
M  V30 2536 C 243.983 -0.411859 -1.90089 0
M  V30 2537 O 243.238 0.605626 -1.86093 0
M  V30 2538 C 243.537 -2.85721 -2.14705 0
M  V30 2539 C 243.203 -4.23342 -1.55218 0
M  V30 2540 C 241.865 -4.60771 -1.3872 0
M  V30 2541 C 244.217 -5.09041 -1.11924 0
M  V30 2542 C 241.545 -5.81563 -0.774689 0
M  V30 2543 C 243.897 -6.30452 -0.520853 0
M  V30 2544 C 242.561 -6.66617 -0.343134 0
M  V30 2545 H 241.831 -0.612648 -0.416826 0
M  V30 2546 H 244.478 -1.8674 -0.424315 0
M  V30 2547 H 242.783 -2.60803 -2.92385 0
M  V30 2548 H 244.48 -2.94382 -2.72288 0
M  V30 2549 H 241.07 -3.93855 -1.69045 0
M  V30 2550 H 245.254 -4.80695 -1.23473 0
M  V30 2551 H 240.51 -6.08196 -0.625154 0
M  V30 2552 H 244.684 -6.96175 -0.177065 0
M  V30 2553 H 242.311 -7.60083 0.133571 0
M  V30 2554 N 243.887 0.651787 -1.4349 0
M  V30 2555 C 245.133 1.41376 -1.45398 0
M  V30 2556 C 245.466 1.94041 -0.0784823 0
M  V30 2557 O 244.741 1.72379 0.900878 0
M  V30 2558 C 245.024 2.59414 -2.49752 0
M  V30 2559 C 244.877 2.12232 -3.96582 0
M  V30 2560 C 246.196 3.61626 -2.50827 0
M  V30 2561 H 243.315 0.512719 -0.529422 0
M  V30 2562 H 245.957 0.738796 -1.75048 0
M  V30 2563 H 244.107 3.16997 -2.246 0
M  V30 2564 H 245.779 1.59639 -4.32797 0
M  V30 2565 H 244.022 1.43592 -4.09346 0
M  V30 2566 H 244.693 2.9712 -4.65214 0
M  V30 2567 H 247.169 3.13805 -2.7325 0
M  V30 2568 H 246.045 4.41766 -3.25783 0
M  V30 2569 H 246.306 4.14314 -1.5426 0
M  V30 2570 N 245.365 1.30045 0.890287 0
M  V30 2571 C 246.776 1.16738 1.45702 0
M  V30 2572 C 247.127 -0.233939 1.948 0
M  V30 2573 O 246.252 -1.13021 1.84541 0
M  V30 2574 C 246.847 2.11313 2.64825 0
M  V30 2575 C 245.406 2.02001 3.17604 0
M  V30 2576 C 244.553 2.01699 1.90296 0
M  V30 2577 H 247.504 1.42392 0.700726 0
M  V30 2578 H 247.525 1.69086 3.40867 0
M  V30 2579 H 247.037 3.13294 2.2906 0
M  V30 2580 H 245.138 1.03142 3.5804 0
M  V30 2581 H 245.251 2.90128 3.81264 0
M  V30 2582 H 243.615 1.46427 2.08402 0
M  V30 2583 H 244.398 3.05402 1.56795 0
M  V30 2584 N 246.843 -1.10192 1.12674 0
M  V30 2585 C 247.791 -2.18694 0.792196 0
M  V30 2586 C 248.785 -1.67938 -0.222058 0
M  V30 2587 O 249.991 -1.79822 -0.0800074 0
M  V30 2588 H 246.366 -0.713223 0.238364 0
M  V30 2589 H 248.337 -2.44149 1.71564 0
M  V30 2590 C 247.086 -3.46682 0.265859 0
M  V30 2591 H 246.409 -3.86101 1.03761 0
M  V30 2592 H 247.849 -4.23942 0.0701128 0
M  V30 2593 C 246.308 -3.21506 -1.00675 0
M  V30 2594 O 246.838 -3.43408 -2.08408 0
M  V30 2595 N 245.044 -2.75158 -0.934692 0
M  V30 2596 H 244.591 -2.57535 -0.0578604 0
M  V30 2597 H 244.549 -2.58691 -1.7868 0
M  V30 2598 N 248.321 -0.919034 -1.28029 0
M  V30 2599 C 249.254 -0.355887 -2.25408 0
M  V30 2600 C 250.232 0.542874 -1.5327 0
M  V30 2601 O 251.416 0.485338 -1.82145 0
M  V30 2602 C 248.543 0.490759 -3.35126 0
M  V30 2603 C 247.589 -0.343358 -4.25116 0
M  V30 2604 S 248.422 -1.75344 -5.05979 0
M  V30 2605 C 249.578 -0.914244 -6.19187 0
M  V30 2606 H 249.811 -1.18123 -2.72826 0
M  V30 2607 H 247.344 -0.720636 -1.36551 0
M  V30 2608 H 249.302 0.973404 -3.98792 0
M  V30 2609 H 247.963 1.29054 -2.86363 0
M  V30 2610 H 247.156 0.304266 -5.03081 0
M  V30 2611 H 246.758 -0.759851 -3.662 0
M  V30 2612 H 249.05 -0.146282 -6.77342 0
M  V30 2613 H 249.993 -1.66661 -6.88208 0
M  V30 2614 H 250.401 -0.460082 -5.62622 0
M  V30 2615 N 249.799 1.42003 -0.683588 0
M  V30 2616 C 251.048 2.00638 -0.206681 0
M  V30 2617 C 251.361 1.5472 1.19671 0
M  V30 2618 O 252.567 2.05833 1.77045 0
M  V30 2619 C 251.023 3.58487 -0.318632 0
M  V30 2620 C 250.631 4.1339 -1.72663 0
M  V30 2621 C 252.375 4.24384 0.0991141 0
M  V30 2622 C 250.282 5.63633 -1.79087 0
M  V30 2623 H 249.212 0.750408 -0.0735107 0
M  V30 2624 H 251.863 1.62624 -0.850048 0
M  V30 2625 H 250.245 3.94047 0.392781 0
M  V30 2626 H 251.419 3.89273 -2.46583 0
M  V30 2627 H 249.734 3.59976 -2.09299 0
M  V30 2628 H 252.331 5.34652 0.0713833 0
M  V30 2629 H 252.674 4.00505 1.13586 0
M  V30 2630 H 253.207 3.93816 -0.561599 0
M  V30 2631 H 249.946 5.92323 -2.80774 0
M  V30 2632 H 249.466 5.89714 -1.09535 0
M  V30 2633 H 251.145 6.28201 -1.5483 0
M  V30 2634 N 251.277 0.427512 1.51691 0
M  V30 2635 C 252.525 -0.141948 2.01601 0
M  V30 2636 C 252.846 -1.44067 1.31414 0
M  V30 2637 O 252.116 -1.90763 0.445658 0
M  V30 2638 H 250.696 -0.0554468 0.744939 0
M  V30 2639 H 253.358 0.567968 1.86441 0
M  V30 2640 H 252.454 -0.324913 3.10404 0
M  V30 2641 N 252.755 -1.56801 0.158532 0
M  V30 2642 C 254.003 -1.96102 -0.488712 0
M  V30 2643 C 254.324 -1.04498 -1.64636 0
M  V30 2644 O 253.594 -0.108783 -1.95598 0
M  V30 2645 H 252.174 -0.724102 -0.183535 0
M  V30 2646 H 254.836 -1.93457 0.236728 0
M  V30 2647 H 253.932 -3.00097 -0.857219 0
M  V30 2648 N 254.233 0.115231 -1.57178 0
M  V30 2649 C 255.196 1.12526 -1.99676 0
M  V30 2650 C 256.196 1.34095 -0.88742 0
M  V30 2651 O 257.386 1.30548 -1.15337 0
M  V30 2652 C 254.518 2.4789 -2.34015 0
M  V30 2653 H 255.711 0.759912 -2.90113 0
M  V30 2654 H 253.264 0.359648 -1.52106 0
M  V30 2655 H 253.999 2.89339 -1.4647 0
M  V30 2656 H 253.784 2.33588 -3.14927 0
M  V30 2657 H 255.274 3.20575 -2.67622 0
M  V30 2658 N 255.711 1.52812 0.385517 0
M  V30 2659 C 256.936 1.72207 1.15583 0
M  V30 2660 C 257.361 0.441034 1.82857 0
M  V30 2661 O 256.719 -0.603465 1.70962 0
M  V30 2662 C 256.767 2.87476 2.17692 0
M  V30 2663 O 255.871 2.54693 3.24354 0
M  V30 2664 H 255.212 0.572526 0.336319 0
M  V30 2665 H 257.742 1.99618 0.448744 0
M  V30 2666 H 257.752 3.13072 2.6163 0
M  V30 2667 H 256.427 3.80408 1.68115 0
M  V30 2668 H 255.004 2.3985 2.85529 0
M  V30 2669 N 257.189 -0.644168 1.43834 0
M  V30 2670 C 258.121 -1.76955 1.45669 0
M  V30 2671 C 259.134 -1.58956 0.351666 0
M  V30 2672 O 260.323 -1.6751 0.616644 0
M  V30 2673 C 257.423 -3.14507 1.26248 0
M  V30 2674 C 256.596 -3.59083 2.49757 0
M  V30 2675 C 255.655 -4.75467 2.25427 0
M  V30 2676 O 254.681 -4.84444 2.98836 0
M  V30 2677 N 255.883 -5.66289 1.27661 0
M  V30 2678 H 258.648 -1.75856 2.42682 0
M  V30 2679 H 256.209 -0.828312 1.39106 0
M  V30 2680 H 258.201 -3.90067 1.0784 0
M  V30 2681 H 256.771 -3.10325 0.376478 0
M  V30 2682 H 255.991 -2.7387 2.8353 0
M  V30 2683 H 257.279 -3.85613 3.31934 0
M  V30 2684 H 256.677 -5.61718 0.670064 0
M  V30 2685 H 255.234 -6.41533 1.15234 0
M  V30 2686 N 258.668 -1.30515 -0.883378 0
M  V30 2687 C 259.631 -1.1701 -1.97082 0
M  V30 2688 C 260.631 -0.10089 -1.60483 0
M  V30 2689 O 261.821 -0.349127 -1.70666 0
M  V30 2690 C 258.953 -0.793045 -3.31547 0
M  V30 2691 H 260.146 -2.13622 -2.10489 0
M  V30 2692 H 257.699 -1.13935 -1.06998 0
M  V30 2693 H 258.434 0.172499 -3.23841 0
M  V30 2694 H 258.219 -1.56576 -3.5948 0
M  V30 2695 H 259.709 -0.722073 -4.1131 0
M  V30 2696 N 260.146 1.09593 -1.13257 0
M  V30 2697 C 261.423 1.78293 -0.804432 0
M  V30 2698 C 261.803 1.99004 0.70431 0
M  V30 2699 O 261.151 1.59007 1.641 0
M  V30 2700 C 261.361 3.10707 -1.5894 0
M  V30 2701 C 262.709 3.85443 -1.78099 0
M  V30 2702 O 263.733 3.20454 -1.55525 0
M  V30 2703 O 262.592 5.02108 -2.15753 0
M  V30 2704 H 259.686 0.773156 -0.293528 0
M  V30 2705 H 262.232 1.16164 -1.23709 0
M  V30 2706 H 261.004 2.91106 -2.61482 0
M  V30 2707 H 260.627 3.80558 -1.15157 0
M  V30 2708 N 261.624 0.925811 1.2754 0
M  V30 2709 C 262.554 0.440748 2.29303 0
M  V30 2710 C 263.535 -0.497971 1.62648 0
M  V30 2711 O 264.72 -0.403126 1.8997 0
M  V30 2712 C 261.85 -0.309048 3.45922 0
M  V30 2713 C 260.804 0.54166 4.24559 0
M  V30 2714 C 260.13 -0.337191 5.33636 0
M  V30 2715 C 261.43 1.80516 4.90114 0
M  V30 2716 H 263.124 1.29121 2.70126 0
M  V30 2717 H 260.67 0.622323 1.29858 0
M  V30 2718 H 262.623 -0.659315 4.1621 0
M  V30 2719 H 261.347 -1.19352 3.04011 0
M  V30 2720 H 260.006 0.874609 3.56014 0
M  V30 2721 H 259.654 -1.22056 4.87966 0
M  V30 2722 H 259.354 0.228497 5.87156 0
M  V30 2723 H 260.878 -0.683072 6.06767 0
M  V30 2724 H 262.292 1.52307 5.52698 0
M  V30 2725 H 260.689 2.3142 5.53683 0
M  V30 2726 H 261.759 2.52581 4.13921 0
M  V30 2727 N 263.102 -1.41638 0.69111 0
M  V30 2728 C 264.065 -2.29178 0.0319786 0
M  V30 2729 C 265.065 -1.44153 -0.712496 0
M  V30 2730 O 266.255 -1.65354 -0.548053 0
M  V30 2731 C 263.387 -3.26952 -0.965161 0
M  V30 2732 H 264.58 -2.88959 0.802681 0
M  V30 2733 H 262.133 -1.4955 0.454356 0
M  V30 2734 H 262.868 -2.72142 -1.76378 0
M  V30 2735 H 262.653 -3.89685 -0.434522 0
M  V30 2736 H 264.143 -3.92561 -1.42428 0
M  V30 2737 N 264.58 -0.43555 -1.51462 0
M  V30 2738 C 265.826 0.131709 -2.02372 0
M  V30 2739 C 266.159 1.42516 -1.3192 0
M  V30 2740 O 265.434 1.89606 -0.433573 0
M  V30 2741 C 265.717 0.352301 -3.58373 0
M  V30 2742 C 265.57 -0.959676 -4.39443 0
M  V30 2743 C 266.889 1.12286 -4.25535 0
M  V30 2744 H 264.008 0.0463936 -0.735538 0
M  V30 2745 H 266.65 -0.574197 -1.81116 0
M  V30 2746 H 264.8 0.9536 -3.76615 0
M  V30 2747 H 266.472 -1.59482 -4.32855 0
M  V30 2748 H 264.715 -1.56468 -4.04599 0
M  V30 2749 H 265.386 -0.759394 -5.46752 0
M  V30 2750 H 267.862 0.613545 -4.11552 0
M  V30 2751 H 266.738 1.24598 -5.34571 0
M  V30 2752 H 266.999 2.15048 -3.86273 0
M  V30 2753 N 266.058 1.56714 -0.166846 0
M  V30 2754 C 266.988 2.20754 0.760913 0
M  V30 2755 C 267.969 1.16178 1.24244 0
M  V30 2756 O 269.154 1.44592 1.29641 0
M  V30 2757 C 266.284 2.84478 1.99223 0
M  V30 2758 C 265.238 3.95053 1.64672 0
M  V30 2759 C 264.564 4.45805 2.95232 0
M  V30 2760 C 265.864 5.14865 0.878155 0
M  V30 2761 H 267.558 2.98537 0.22713 0
M  V30 2762 H 265.104 1.43596 0.107805 0
M  V30 2763 H 267.057 3.27951 2.64624 0
M  V30 2764 H 265.781 2.04056 2.55007 0
M  V30 2765 H 264.44 3.52228 1.01641 0
M  V30 2766 H 264.088 3.62181 3.49047 0
M  V30 2767 H 263.788 5.204 2.7287 0
M  V30 2768 H 265.312 4.91962 3.6167 0
M  V30 2769 H 266.726 5.55059 1.43466 0
M  V30 2770 H 265.123 5.95348 0.753738 0
M  V30 2771 H 266.193 4.84735 -0.126377 0
M  V30 2772 N 267.536 -0.106894 1.57237 0
M  V30 2773 C 268.782 -0.81373 1.85759 0
M  V30 2774 C 269.115 -1.78952 0.754315 0
M  V30 2775 O 268.39 -1.93029 -0.23879 0
M  V30 2776 C 268.673 -1.55293 3.24894 0
M  V30 2777 C 268.526 -0.595929 4.45835 0
M  V30 2778 C 269.845 -2.5063 3.61763 0
M  V30 2779 H 266.964 -0.294369 0.67566 0
M  V30 2780 H 269.606 -0.0776472 1.89841 0
M  V30 2781 H 267.756 -2.1804 3.21544 0
M  V30 2782 H 269.428 0.0236262 4.61294 0
M  V30 2783 H 267.671 0.0916191 4.33703 0
M  V30 2784 H 268.342 -1.15004 5.39887 0
M  V30 2785 H 270.818 -1.97982 3.65981 0
M  V30 2786 H 269.694 -2.99376 4.60071 0
M  V30 2787 H 269.955 -3.3385 2.89821 0
M  V30 2788 N 269.014 -1.53014 -0.377408 0
M  V30 2789 C 270.263 -1.67845 -1.11853 0
M  V30 2790 C 270.576 -0.430625 -1.90801 0
M  V30 2791 O 271.782 -0.459261 -2.67587 0
M  V30 2792 C 270.238 -2.96668 -2.03756 0
M  V30 2793 C 269.846 -4.28671 -1.30175 0
M  V30 2794 C 271.59 -3.20865 -2.77932 0
M  V30 2795 C 269.497 -5.48591 -2.20911 0
M  V30 2796 H 268.427 -0.625343 -0.421263 0
M  V30 2797 H 271.078 -1.79514 -0.380409 0
M  V30 2798 H 269.46 -2.78773 -2.8125 0
M  V30 2799 H 270.634 -4.57157 -0.578259 0
M  V30 2800 H 268.949 -4.10825 -0.679108 0
M  V30 2801 H 271.546 -4.07642 -3.46024 0
M  V30 2802 H 271.889 -2.36424 -3.4265 0
M  V30 2803 H 272.422 -3.39379 -2.07525 0
M  V30 2804 H 269.161 -6.35474 -1.6079 0
M  V30 2805 H 268.681 -5.244 -2.91144 0
M  V30 2806 H 270.36 -5.8292 -2.80736 0
M  V30 2807 N 270.492 0.636531 -1.44174 0
M  V30 2808 C 271.717 1.42847 -1.50364 0
M  V30 2809 C 272.142 1.87665 -0.127867 0
M  V30 2810 O 271.5 1.58408 0.88185 0
M  V30 2811 C 271.548 2.62854 -2.4686 0
M  V30 2812 O 270.652 3.62501 -1.9664 0
M  V30 2813 H 269.993 0.427642 -0.507955 0
M  V30 2814 H 272.523 0.777422 -1.89255 0
M  V30 2815 H 272.533 3.10465 -2.64718 0
M  V30 2816 H 271.208 2.29578 -3.46795 0
M  V30 2817 H 269.785 3.21735 -1.88523 0
M  V30 2818 N 271.97 1.30982 0.876444 0
M  V30 2819 C 272.933 1.18054 1.96459 0
M  V30 2820 C 273.933 0.109399 1.60427 0
M  V30 2821 O 275.123 0.358173 1.70478 0
M  V30 2822 C 272.255 0.810616 3.31122 0
M  V30 2823 H 273.448 2.14735 2.09354 0
M  V30 2824 H 271.001 1.145 1.06392 0
M  V30 2825 H 271.736 -0.155322 3.23928 0
M  V30 2826 H 271.521 1.58481 3.58645 0
M  V30 2827 H 273.011 0.743876 4.10921 0
M  V30 2828 N 273.449 -1.08991 1.13837 0
M  V30 2829 C 274.865 -1.33312 0.877506 0
M  V30 2830 C 275.065 -1.95587 -0.48456 0
M  V30 2831 O 274.121 -2.20509 -1.23013 0
M  V30 2832 C 275.434 -2.24045 2.0056 0
M  V30 2833 C 276.982 -2.37542 2.03821 0
M  V30 2834 C 277.457 -3.31614 3.15905 0
M  V30 2835 N 278.948 -3.39189 3.15445 0
M  V30 2836 C 279.683 -4.11992 3.98811 0
M  V30 2837 N 279.179 -4.87553 4.92203 0
M  V30 2838 N 280.972 -4.07762 3.86894 0
M  V30 2839 H 273.123 -0.669456 2.01574 0
M  V30 2840 H 275.386 -0.357482 0.878015 0
M  V30 2841 H 275.092 -1.85521 2.98789 0
M  V30 2842 H 274.966 -3.24466 1.92359 0
M  V30 2843 H 277.353 -2.75327 1.06202 0
M  V30 2844 H 277.434 -1.36884 2.16093 0
M  V30 2845 H 277.078 -2.94551 4.13766 0
M  V30 2846 H 277.008 -4.32186 3.0087 0
M  V30 2847 H 279.499 -2.85314 2.47799 0
M  V30 2848 H 279.812 -5.40549 5.52292 0
M  V30 2849 H 278.157 -4.86627 4.96205 0
M  V30 2850 H 281.348 -3.47833 3.13257 0
M  V30 2851 H 281.521 -4.64238 4.52092 0
M  V30 2852 N 274.927 -0.932562 -1.27047 0
M  V30 2853 C 275.874 -0.434072 -2.26681 0
M  V30 2854 C 276.844 0.501639 -1.58344 0
M  V30 2855 O 278.029 0.419734 -1.86126 0
M  V30 2856 C 275.169 0.30261 -3.43771 0
M  V30 2857 C 274.282 -0.667774 -4.26808 0
M  V30 2858 C 273.417 0.0892393 -5.31125 0
M  V30 2859 C 272.456 -0.873532 -6.05835 0
M  V30 2860 N 271.593 -0.148832 -7.01942 0
M  V30 2861 H 276.433 -1.28868 -2.68695 0
M  V30 2862 H 273.97 -0.646713 -1.32121 0
M  V30 2863 H 275.928 0.746092 -4.10474 0
M  V30 2864 H 274.558 1.12142 -3.02695 0
M  V30 2865 H 273.61 -1.22978 -3.59973 0
M  V30 2866 H 274.922 -1.40337 -4.78651 0
M  V30 2867 H 274.076 0.592409 -6.03801 0
M  V30 2868 H 272.815 0.85777 -4.80097 0
M  V30 2869 H 271.82 -1.38791 -5.31994 0
M  V30 2870 H 273.045 -1.64193 -6.58952 0
M  V30 2871 H 270.991 0.601365 -6.53238 0
M  V30 2872 H 270.908 -0.82391 -7.51497 0
M  V30 2873 H 272.176 0.333527 -7.78786 0
M  V30 2874 N 276.405 1.4127 -0.698611 0
M  V30 2875 C 277.653 2.00782 -0.230409 0
M  V30 2876 C 277.974 1.5562 1.17505 0
M  V30 2877 O 277.244 0.78815 1.79346 0
M  V30 2878 H 275.824 0.742464 -0.0821944 0
M  V30 2879 H 278.486 1.72852 -0.90045 0
M  V30 2880 H 277.582 3.11095 -0.25021 0
M  V30 2881 N 277.883 0.443576 1.51229 0
M  V30 2882 C 278.793 -0.370721 2.31652 0
M  V30 2883 C 279.809 -1.02186 1.40833 0
M  V30 2884 O 280.985 -1.01586 1.73903 0
M  V30 2885 C 278.05 -1.45376 3.14749 0
M  V30 2886 C 277.111 -0.822099 4.21355 0
M  V30 2887 C 276.344 -1.85353 5.0048 0
M  V30 2888 O 276.567 -3.07656 4.80316 0
M  V30 2889 O 275.501 -1.4406 5.84406 0
M  V30 2890 H 279.327 0.286002 3.0235 0
M  V30 2891 H 276.912 0.20598 1.47973 0
M  V30 2892 H 278.794 -2.08173 3.66391 0
M  V30 2893 H 277.469 -2.09445 2.46809 0
M  V30 2894 H 276.376 -0.155909 3.73775 0
M  V30 2895 H 277.709 -0.224797 4.91686 0
M  V30 2896 N 279.361 -1.56624 0.175154 0
M  V30 2897 C 280.608 -1.96999 -0.468811 0
M  V30 2898 C 280.936 -1.06129 -1.62994 0
M  V30 2899 O 280.191 -0.0961771 -1.95464 0
M  V30 2900 C 280.49 -3.43419 -0.989864 0
M  V30 2901 C 280.156 -4.50866 0.0557687 0
M  V30 2902 C 278.818 -4.79975 0.343134 0
M  V30 2903 C 281.17 -5.15551 0.765308 0
M  V30 2904 C 278.498 -5.71066 1.34536 0
M  V30 2905 C 280.85 -6.07724 1.75654 0
M  V30 2906 C 279.514 -6.35199 2.05132 0
M  V30 2907 H 278.784 -0.720869 -0.17155 0
M  V30 2908 H 281.431 -1.89616 0.267924 0
M  V30 2909 H 279.736 -3.47772 -1.80449 0
M  V30 2910 H 281.433 -3.72002 -1.49719 0
M  V30 2911 H 278.023 -4.28229 -0.178381 0
M  V30 2912 H 282.207 -4.9317 0.556513 0
M  V30 2913 H 277.463 -5.90635 1.57988 0
M  V30 2914 H 281.637 -6.56912 2.31169 0
M  V30 2915 H 279.264 -7.05584 2.8294 0
M  V30 2916 N 280.839 0.0985539 -1.57292 0
M  V30 2917 C 281.749 1.13824 -2.05137 0
M  V30 2918 C 282.765 1.44076 -0.975604 0
M  V30 2919 O 283.941 1.54786 -1.28853 0
M  V30 2920 C 281.006 2.43969 -2.46333 0
M  V30 2921 C 280.067 2.2093 -3.68087 0
M  V30 2922 C 279.3 3.44869 -4.0731 0
M  V30 2923 O 279.523 4.52972 -3.46659 0
M  V30 2924 O 278.457 3.34661 -5.00285 0
M  V30 2925 H 282.283 0.761881 -2.93988 0
M  V30 2926 H 279.868 0.310818 -1.46131 0
M  V30 2927 H 281.75 3.20609 -2.73473 0
M  V30 2928 H 280.425 2.81038 -1.60621 0
M  V30 2929 H 279.332 1.42081 -3.46069 0
M  V30 2930 H 280.665 1.88755 -4.54568 0
M  V30 2931 N 282.317 1.53212 0.369288 0
M  V30 2932 C 283.545 1.73119 1.13303 0
M  V30 2933 C 283.96 0.458455 1.83149 0
M  V30 2934 O 283.317 -0.568403 1.73423 0
M  V30 2935 C 283.368 2.89413 2.16616 0
M  V30 2936 O 283.089 4.11761 1.49614 0
M  V30 2937 C 284.59 3.21161 3.05566 0
M  V30 2938 H 281.81 0.579107 0.338934 0
M  V30 2939 H 284.354 1.99942 0.429338 0
M  V30 2940 H 282.509 2.64994 2.82589 0
M  V30 2941 H 282.923 4.76858 2.18419 0
M  V30 2942 H 284.397 4.05949 3.74045 0
M  V30 2943 H 284.874 2.36369 3.70171 0
M  V30 2944 H 285.48 3.47492 2.45213 0
M  V30 2945 N 283.795 -0.628877 1.44509 0
M  V30 2946 C 285.043 -1.38565 1.4712 0
M  V30 2947 C 285.364 -1.94712 0.105899 0
M  V30 2948 O 284.634 -1.75912 -0.862079 0
M  V30 2949 H 283.214 -0.514333 0.541729 0
M  V30 2950 H 285.876 -0.740018 1.80305 0
M  V30 2951 H 284.972 -2.21583 2.19789 0
M  V30 2952 N 285.273 -1.31445 -0.869486 0
M  V30 2953 C 286.52 -1.21158 -1.62256 0
M  V30 2954 C 286.848 0.230155 -1.93133 0
M  V30 2955 O 286.103 1.17906 -1.56194 0
M  V30 2956 C 286.402 -2.00145 -2.96102 0
M  V30 2957 C 286.068 -3.4964 -2.84715 0
M  V30 2958 C 284.73 -3.90403 -2.81317 0
M  V30 2959 C 287.082 -4.44769 -2.71716 0
M  V30 2960 C 284.41 -5.24561 -2.62778 0
M  V30 2961 C 286.762 -5.79054 -2.54714 0
M  V30 2962 C 285.426 -6.19037 -2.49699 0
M  V30 2963 H 284.696 -0.443348 -0.593737 0
M  V30 2964 H 287.343 -1.62715 -1.00976 0
M  V30 2965 H 285.648 -1.5127 -3.6142 0
M  V30 2966 H 287.345 -1.89566 -3.53363 0
M  V30 2967 H 283.935 -3.17256 -2.88178 0
M  V30 2968 H 288.119 -4.14208 -2.73397 0
M  V30 2969 H 283.375 -5.54613 -2.57321 0
M  V30 2970 H 287.549 -6.52393 -2.43632 0
M  V30 2971 H 285.176 -7.22935 -2.35093 0
M  V30 2972 N 286.751 1.08385 -1.14413 0
M  V30 2973 C 287.661 2.18856 -0.844951 0
M  V30 2974 C 288.677 1.73121 0.174668 0
M  V30 2975 O 289.853 2.014 0.00312857 0
M  V30 2976 C 286.918 3.45155 -0.32696 0
M  V30 2977 C 285.979 4.05513 -1.40916 0
M  V30 2978 C 285.212 5.25784 -0.915793 0
M  V30 2979 O 285.435 5.69884 0.242651 0
M  V30 2980 O 284.369 5.77545 -1.69487 0
M  V30 2981 H 288.195 2.46919 -1.76818 0
M  V30 2982 H 285.78 1.17524 -0.922411 0
M  V30 2983 H 287.662 4.21377 -0.0440211 0
M  V30 2984 H 286.337 3.18668 0.568539 0
M  V30 2985 H 285.244 3.30879 -1.74556 0
M  V30 2986 H 286.577 4.3625 -2.27919 0
M  V30 2987 N 288.23 0.939286 1.26551 0
M  V30 2988 C 289.177 0.446088 2.26448 0
M  V30 2989 C 290.147 -0.493234 1.58608 0
M  V30 2990 O 291.332 -0.409857 1.86346 0
M  V30 2991 C 288.472 -0.284375 3.43926 0
M  V30 2992 C 287.585 0.690399 4.26448 0
M  V30 2993 C 286.72 -0.0610712 5.31165 0
M  V30 2994 C 285.759 0.905649 6.05363 0
M  V30 2995 N 284.896 0.186055 7.01853 0
M  V30 2996 H 289.736 1.30291 2.68008 0
M  V30 2997 H 287.273 0.65371 1.31776 0
M  V30 2998 H 289.231 -0.724313 4.10864 0
M  V30 2999 H 287.861 -1.10535 3.03285 0
M  V30 3000 H 286.913 1.24885 3.59316 0
M  V30 3001 H 288.225 1.42873 4.779 0
M  V30 3002 H 287.379 -0.56038 6.04106 0
M  V30 3003 H 286.118 -0.832297 4.80546 0
M  V30 3004 H 285.123 1.4161 5.3125 0
M  V30 3005 H 286.348 1.67685 6.58072 0
M  V30 3006 H 284.294 -0.566714 6.53548 0
M  V30 3007 H 284.211 0.863752 7.51049 0
M  V30 3008 H 285.479 -0.292221 7.78952 0
M  V30 3009 N 289.708 -1.40897 0.706093 0
M  V30 3010 C 290.956 -2.00657 0.241054 0
M  V30 3011 C 291.277 -1.56241 -1.16678 0
M  V30 3012 O 290.547 -0.79765 -1.78926 0
M  V30 3013 H 289.127 -0.742018 0.0861308 0
M  V30 3014 H 291.789 -1.72372 0.909604 0
M  V30 3015 H 290.885 -3.10958 0.266705 0
M  V30 3016 N 291.186 -0.45159 -1.50991 0
M  V30 3017 C 292.434 0.109857 -2.01801 0
M  V30 3018 C 292.755 1.41958 -1.3369 0
M  V30 3019 O 292.025 1.9003 -0.475951 0
M  V30 3020 H 290.605 0.0435884 -0.745727 0
M  V30 3021 H 293.267 -0.597557 -1.85514 0
M  V30 3022 H 292.363 0.275489 -3.10882 0
M  V30 3023 N 292.664 1.56529 -0.183458 0
M  V30 3024 C 293.596 2.15747 0.773697 0
M  V30 3025 C 294.609 1.1162 1.1851 0
M  V30 3026 O 295.798 1.3876 1.12285 0
M  V30 3027 C 292.898 2.6952 2.05456 0
M  V30 3028 C 292.071 3.98429 1.8048 0
M  V30 3029 C 291.13 4.37145 2.92901 0
M  V30 3030 O 290.156 5.04791 2.6301 0
M  V30 3031 N 291.358 3.99695 4.2098 0
M  V30 3032 H 294.123 2.98505 0.26736 0
M  V30 3033 H 291.684 1.619 -0.0010878 0
M  V30 3034 H 293.676 2.92412 2.79781 0
M  V30 3035 H 292.246 1.91282 2.47245 0
M  V30 3036 H 291.466 3.8379 0.899947 0
M  V30 3037 H 292.754 4.82597 1.61175 0
M  V30 3038 H 292.152 3.4526 4.48121 0
M  V30 3039 H 290.709 4.27562 4.9197 0
M  V30 3040 N 294.142 -0.090211 1.57342 0
M  V30 3041 C 295.37 -0.806224 1.90546 0
M  V30 3042 C 295.785 -1.72041 0.777644 0
M  V30 3043 O 295.142 -1.80778 -0.250103 0
M  V30 3044 C 295.193 -1.61546 3.23396 0
M  V30 3045 O 294.914 -0.738043 4.31839 0
M  V30 3046 C 296.415 -2.4341 3.70495 0
M  V30 3047 H 293.635 -0.230256 0.630257 0
M  V30 3048 H 296.179 -0.0659843 2.04394 0
M  V30 3049 H 294.334 -2.30816 3.11131 0
M  V30 3050 H 294.748 -1.29901 5.08159 0
M  V30 3051 H 296.222 -2.95676 4.66133 0
M  V30 3052 H 296.699 -3.22098 2.98579 0
M  V30 3053 H 297.305 -1.79331 3.85643 0
M  V30 3054 N 295.62 -1.53406 -0.361157 0
M  V30 3055 C 297.036 -1.43277 -0.703124 0
M  V30 3056 C 297.236 -0.575384 -1.9311 0
M  V30 3057 O 296.292 -0.0595362 -2.5243 0
M  V30 3058 C 297.605 -2.8653 -0.9122 0
M  V30 3059 C 299.153 -2.96191 -1.01193 0
M  V30 3060 C 299.628 -4.40514 -1.25345 0
M  V30 3061 N 301.119 -4.43962 -1.32105 0
M  V30 3062 C 301.854 -5.52746 -1.5251 0
M  V30 3063 N 301.35 -6.71567 -1.70203 0
M  V30 3064 N 303.143 -5.40331 -1.54916 0
M  V30 3065 H 295.294 -2.07654 0.446475 0
M  V30 3066 H 297.557 -0.937944 0.137715 0
M  V30 3067 H 297.263 -3.51605 -0.0816414 0
M  V30 3068 H 297.137 -3.30441 -1.81903 0
M  V30 3069 H 299.524 -2.31266 -1.83303 0
M  V30 3070 H 299.605 -2.55667 -0.0823929 0
M  V30 3071 H 299.249 -5.06014 -0.437346 0
M  V30 3072 H 299.179 -4.78614 -2.19627 0
M  V30 3073 H 301.67 -3.58332 -1.20028 0
M  V30 3074 H 301.983 -7.50241 -1.85359 0
M  V30 3075 H 300.328 -6.74545 -1.67373 0
M  V30 3076 H 303.519 -4.46465 -1.40663 0
M  V30 3077 H 303.692 -6.25173 -1.70477 0
M  V30 3078 N 297.098 0.621204 -1.44841 0
M  V30 3079 C 298.008 1.7612 -1.5498 0
M  V30 3080 C 299.024 1.68477 -0.434927 0
M  V30 3081 O 300.2 1.89076 -0.693693 0
M  V30 3082 C 297.265 3.1254 -1.50065 0
M  V30 3083 C 296.326 3.31741 -2.72482 0
M  V30 3084 C 295.559 4.61653 -2.67792 0
M  V30 3085 O 295.782 5.431 -1.74352 0
M  V30 3086 O 294.716 4.83271 -3.58794 0
M  V30 3087 H 298.542 1.70518 -2.51311 0
M  V30 3088 H 296.127 0.783643 -1.27198 0
M  V30 3089 H 298.009 3.93844 -1.49882 0
M  V30 3090 H 296.684 3.18663 -0.568806 0
M  V30 3091 H 295.591 2.50077 -2.7823 0
M  V30 3092 H 296.924 3.30486 -3.64746 0
M  V30 3093 N 298.576 1.31904 0.862503 0
M  V30 3094 C 299.526 1.16772 1.95827 0
M  V30 3095 C 300.51 0.0767098 1.60717 0
M  V30 3096 O 301.702 0.302407 1.74398 0
M  V30 3097 C 298.831 0.884858 3.317 0
M  V30 3098 C 297.917 2.0172 3.73055 0
M  V30 3099 N 298.308 3.265 3.86305 0
M  V30 3100 C 296.606 1.91861 4.02623 0
M  V30 3101 C 297.307 4.00616 4.2176 0
M  V30 3102 N 296.283 3.28847 4.32852 0
M  V30 3103 H 300.085 2.11382 2.04193 0
M  V30 3104 H 297.599 1.2357 1.05377 0
M  V30 3105 H 299.596 0.757419 4.09962 0
M  V30 3106 H 298.256 -0.0529448 3.24657 0
M  V30 3107 H 299.267 3.61529 3.70833 0
M  V30 3108 H 295.944 1.05593 4.03926 0
M  V30 3109 H 297.334 5.08182 4.39546 0
M  V30 3110 N 300.054 -1.07777 1.14986 0
M  V30 3111 C 301.017 -2.13041 0.845358 0
M  V30 3112 C 302.017 -1.60071 -0.152931 0
M  V30 3113 O 303.207 -1.74033 0.0761879 0
M  V30 3114 C 300.339 -3.39896 0.261383 0
M  V30 3115 H 301.532 -2.41485 1.77834 0
M  V30 3116 H 299.085 -1.23595 0.956757 0
M  V30 3117 H 299.82 -3.17091 -0.68 0
M  V30 3118 H 299.605 -3.79642 0.980514 0
M  V30 3119 H 301.095 -4.17548 0.0657687 0
M  V30 3120 N 301.532 -0.945985 -1.26051 0
M  V30 3121 C 302.465 -0.403619 -2.24602 0
M  V30 3122 C 303.443 0.510241 -1.54387 0
M  V30 3123 O 304.627 0.446593 -1.83133 0
M  V30 3124 C 301.754 0.419564 -3.36091 0
M  V30 3125 C 300.8 -0.433454 -4.24292 0
M  V30 3126 S 301.633 -1.86037 -5.02146 0
M  V30 3127 C 302.789 -1.04538 -6.17108 0
M  V30 3128 H 303.022 -1.23883 -2.7026 0
M  V30 3129 H 300.555 -0.749438 -1.34992 0
M  V30 3130 H 302.513 0.888595 -4.00767 0
M  V30 3131 H 301.174 1.22951 -2.89036 0
M  V30 3132 H 300.367 0.197486 -5.03613 0
M  V30 3133 H 299.969 -0.837357 -3.64506 0
M  V30 3134 H 302.261 -0.289923 -6.76879 0
M  V30 3135 H 303.204 -1.81222 -6.84518 0
M  V30 3136 H 303.612 -0.579319 -5.61519 0
M  V30 3137 N 303.011 1.40521 -0.713556 0
M  V30 3138 C 303.941 2.33381 -0.0743864 0
M  V30 3139 C 304.922 1.52784 0.747735 0
M  V30 3140 O 306.107 1.81258 0.697071 0
M  V30 3141 C 303.237 3.36748 0.849598 0
M  V30 3142 C 302.191 4.27793 0.133247 0
M  V30 3143 C 301.517 5.21679 1.17281 0
M  V30 3144 C 302.817 5.12415 -1.01134 0
M  V30 3145 H 304.511 2.87081 -0.850007 0
M  V30 3146 H 302.057 1.38034 -0.410201 0
M  V30 3147 H 304.01 4.00648 1.30612 0
M  V30 3148 H 302.734 2.81439 1.65709 0
M  V30 3149 H 301.393 3.65342 -0.303426 0
M  V30 3150 H 301.041 4.62677 1.9733 0
M  V30 3151 H 300.741 5.83435 0.698397 0
M  V30 3152 H 302.265 5.88456 1.62947 0
M  V30 3153 H 303.679 5.69781 -0.634274 0
M  V30 3154 H 302.076 5.83203 -1.41399 0
M  V30 3155 H 303.146 4.48514 -1.84292 0
M  V30 3156 N 304.489 0.459591 1.5075 0
M  V30 3157 C 305.452 -0.329093 2.26825 0
M  V30 3158 C 306.452 -0.930481 1.31144 0
M  V30 3159 O 307.642 -0.801453 1.54669 0
M  V30 3160 C 304.774 -1.46768 3.07688 0
M  V30 3161 H 305.967 0.337924 2.9799 0
M  V30 3162 H 303.52 0.213336 1.54837 0
M  V30 3163 H 304.255 -2.17009 2.40993 0
M  V30 3164 H 304.04 -1.04238 3.77991 0
M  V30 3165 H 305.53 -2.02433 3.65254 0
M  V30 3166 N 305.967 -1.56429 0.191757 0
M  V30 3167 C 306.914 -2.18936 -0.730454 0
M  V30 3168 C 307.884 -1.13557 -1.21219 0
M  V30 3169 O 309.069 -1.41794 -1.27668 0
M  V30 3170 C 306.209 -2.85013 -1.9458 0
M  V30 3171 C 305.322 -4.04909 -1.50574 0
M  V30 3172 C 304.457 -4.58853 -2.67634 0
M  V30 3173 C 303.496 -5.71114 -2.20217 0
M  V30 3174 N 302.633 -6.19478 -3.30442 0
M  V30 3175 H 307.473 -2.97389 -0.190664 0
M  V30 3176 H 305.01 -1.46869 -0.0823694 0
M  V30 3177 H 306.968 -3.21492 -2.65893 0
M  V30 3178 H 305.598 -2.09129 -2.45896 0
M  V30 3179 H 304.65 -3.74115 -0.688605 0
M  V30 3180 H 305.962 -4.86113 -1.11784 0
M  V30 3181 H 305.116 -4.97619 -3.47074 0
M  V30 3182 H 303.855 -3.76749 -3.09696 0
M  V30 3183 H 302.86 -5.31879 -1.3923 0
M  V30 3184 H 304.085 -6.55033 -1.79189 0
M  V30 3185 H 302.031 -5.40297 -3.72041 0
M  V30 3186 H 301.948 -6.95725 -2.9581 0
M  V30 3187 H 303.216 -6.62898 -4.10106 0
M  V30 3188 N 307.445 0.0818655 -1.57387 0
M  V30 3189 C 308.673 0.796108 -1.9097 0
M  V30 3190 C 309.088 1.71626 -0.786757 0
M  V30 3191 O 308.445 1.80908 0.240513 0
M  V30 3192 C 308.496 1.59829 -3.24248 0
M  V30 3193 O 308.217 0.715131 -4.32224 0
M  V30 3194 C 309.718 2.41442 -3.7178 0
M  V30 3195 H 306.938 0.22691 -0.631469 0
M  V30 3196 H 309.482 0.0551439 -2.04426 0
M  V30 3197 H 307.637 2.29163 -3.12351 0
M  V30 3198 H 308.051 1.27205 -5.08841 0
M  V30 3199 H 309.525 2.932 -4.67694 0
M  V30 3200 H 310.002 3.2051 -3.00283 0
M  V30 3201 H 310.608 1.77283 -3.86589 0
M  V30 3202 N 308.923 1.53595 0.353017 0
M  V30 3203 C 309.886 1.80232 1.41594 0
M  V30 3204 C 310.886 0.673081 1.46035 0
M  V30 3205 O 312.076 0.941335 1.46576 0
M  V30 3206 C 309.208 1.93578 2.80607 0
M  V30 3207 H 310.401 2.75174 1.19244 0
M  V30 3208 H 307.954 1.44864 0.586872 0
M  V30 3209 H 308.689 1.00746 3.08254 0
M  V30 3210 H 308.474 2.75724 2.78781 0
M  V30 3211 H 309.964 2.15735 3.57558 0
M  V30 3212 N 310.401 -0.613514 1.45168 0
M  V30 3213 C 311.649 -1.36997 1.48581 0
M  V30 3214 C 311.97 -1.94589 0.126545 0
M  V30 3215 O 311.24 -1.76816 -0.843372 0
M  V30 3216 H 309.82 -0.508558 0.547154 0
M  V30 3217 H 312.482 -0.720853 1.81079 0
M  V30 3218 H 311.578 -2.1924 2.22127 0
M  V30 3219 N 311.879 -1.3236 -0.855495 0
M  V30 3220 C 313.125 -1.23054 -1.612 0
M  V30 3221 C 313.458 0.207404 -1.93089 0
M  V30 3222 O 312.733 1.14432 -1.57275 0
M  V30 3223 C 313.016 -2.08937 -2.93287 0
M  V30 3224 C 312.869 -3.61105 -2.68185 0
M  V30 3225 C 314.188 -1.94986 -3.94549 0
M  V30 3226 H 311.307 -0.448364 -0.584926 0
M  V30 3227 H 313.949 -1.62297 -0.987917 0
M  V30 3228 H 312.099 -1.75599 -3.46551 0
M  V30 3229 H 313.771 -4.04652 -2.21483 0
M  V30 3230 H 312.014 -3.83813 -2.02164 0
M  V30 3231 H 312.685 -4.16522 -3.62234 0
M  V30 3232 H 315.161 -2.24189 -3.5054 0
M  V30 3233 H 314.037 -2.57356 -4.84829 0
M  V30 3234 H 314.298 -0.917263 -4.3248 0
M  V30 3235 N 313.357 1.07166 -1.15556 0
M  V30 3236 C 314.304 2.14417 -0.854055 0
M  V30 3237 C 315.274 1.64965 0.193806 0
M  V30 3238 O 316.459 1.90703 0.0609443 0
M  V30 3239 C 313.599 3.43304 -0.351574 0
M  V30 3240 C 312.712 4.06537 -1.46123 0
M  V30 3241 C 311.847 5.23266 -0.914677 0
M  V30 3242 C 310.886 5.78464 -2.00114 0
M  V30 3243 N 310.023 6.86521 -1.47083 0
M  V30 3244 H 314.863 2.39548 -1.77259 0
M  V30 3245 H 312.4 1.17543 -0.884425 0
M  V30 3246 H 314.358 4.17179 -0.0419409 0
M  V30 3247 H 312.988 3.18419 0.530037 0
M  V30 3248 H 312.04 3.30297 -1.88701 0
M  V30 3249 H 313.352 4.43567 -2.28144 0
M  V30 3250 H 312.506 6.04131 -0.557698 0
M  V30 3251 H 311.245 4.87658 -0.0636583 0
M  V30 3252 H 310.25 4.96243 -2.36692 0
M  V30 3253 H 311.475 6.16126 -2.85597 0
M  V30 3254 H 309.421 6.52849 -0.642198 0
M  V30 3255 H 309.338 7.22446 -2.22729 0
M  V30 3256 H 310.606 7.71087 -1.14215 0
M  V30 3257 N 314.835 0.952656 1.25548 0
M  V30 3258 C 315.785 0.442033 2.23674 0
M  V30 3259 C 316.769 -0.467632 1.53955 0
M  V30 3260 O 317.961 -0.301006 1.74422 0
M  V30 3261 C 315.09 -0.280816 3.4215 0
M  V30 3262 C 314.176 0.646803 4.19139 0
M  V30 3263 N 314.567 1.77759 4.73535 0
M  V30 3264 C 312.865 0.454617 4.43677 0
M  V30 3265 C 313.566 2.35658 5.31827 0
M  V30 3266 N 312.542 1.64333 5.18166 0
M  V30 3267 H 316.344 1.30505 2.63336 0
M  V30 3268 H 313.858 0.809904 1.40763 0
M  V30 3269 H 315.855 -0.663747 4.11582 0
M  V30 3270 H 314.515 -1.14046 3.04012 0
M  V30 3271 H 315.526 2.15949 4.7073 0
M  V30 3272 H 312.203 -0.362312 4.15925 0
M  V30 3273 H 313.593 3.30998 5.84713 0
M  V30 3274 N 316.313 -1.40141 0.720998 0
M  V30 3275 C 317.243 -2.33339 0.0867621 0
M  V30 3276 C 318.224 -1.53178 -0.739622 0
M  V30 3277 O 319.409 -1.81625 -0.687449 0
M  V30 3278 C 316.539 -3.37194 -0.831728 0
M  V30 3279 C 315.493 -4.27857 -0.110558 0
M  V30 3280 C 314.819 -5.22294 -1.14513 0
M  V30 3281 C 316.119 -5.11872 1.0385 0
M  V30 3282 H 317.813 -2.86626 0.865219 0
M  V30 3283 H 315.359 -1.37814 0.417516 0
M  V30 3284 H 317.312 -4.01335 -1.28485 0
M  V30 3285 H 316.036 -2.82314 -1.64214 0
M  V30 3286 H 314.695 -3.65176 0.322797 0
M  V30 3287 H 314.343 -4.63717 -1.94874 0
M  V30 3288 H 314.043 -5.83797 -0.667446 0
M  V30 3289 H 315.567 -5.89312 -1.59824 0
M  V30 3290 H 316.981 -5.69436 0.664482 0
M  V30 3291 H 315.378 -5.82445 1.4449 0
M  V30 3292 H 316.448 -4.4753 1.86668 0
M  V30 3293 N 317.792 -0.46758 -1.50504 0
M  V30 3294 C 319.041 0.0902868 -2.01498 0
M  V30 3295 C 319.354 1.411 -1.35463 0
M  V30 3296 O 320.56 2.0536 -1.77594 0
M  V30 3297 C 319.016 0.21142 -3.59278 0
M  V30 3298 C 318.624 -1.10065 -4.34269 0
M  V30 3299 C 320.368 0.721433 -4.18325 0
M  V30 3300 C 318.275 -0.943505 -5.83825 0
M  V30 3301 H 317.205 0.037517 -0.753066 0
M  V30 3302 H 319.856 -0.601943 -1.73346 0
M  V30 3303 H 318.238 0.967352 -3.84003 0
M  V30 3304 H 319.412 -1.86726 -4.21272 0
M  V30 3305 H 317.727 -1.5415 -3.86816 0
M  V30 3306 H 320.324 0.85598 -5.27804 0
M  V30 3307 H 320.667 1.71186 -3.79475 0
M  V30 3308 H 321.2 0.0229843 -3.97793 0
M  V30 3309 H 317.939 -1.90719 -6.27141 0
M  V30 3310 H 317.459 -0.217213 -5.99407 0
M  V30 3311 H 319.138 -0.608715 -6.4413 0
M  V30 3312 N 319.27 1.56325 -0.20005 0
M  V30 3313 C 320.516 1.98012 0.438059 0
M  V30 3314 C 320.849 1.08702 1.60927 0
M  V30 3315 O 320.124 0.140064 1.93995 0
M  V30 3316 C 320.407 3.48841 0.893419 0
M  V30 3317 C 320.26 4.48928 -0.279947 0
M  V30 3318 C 321.579 4.03498 1.75719 0
M  V30 3319 H 318.698 0.719918 0.157757 0
M  V30 3320 H 321.34 1.87743 -0.291968 0
M  V30 3321 H 319.49 3.57723 1.51547 0
M  V30 3322 H 321.162 4.52079 -0.91772 0
M  V30 3323 H 319.405 4.23694 -0.930919 0
M  V30 3324 H 320.076 5.5194 0.0812601 0
M  V30 3325 H 322.552 3.97427 1.23253 0
M  V30 3326 H 321.428 5.09393 2.04476 0
M  V30 3327 H 321.689 3.4906 2.71311 0
M  V30 3328 N 320.748 -0.0735177 1.57428 0
M  V30 3329 C 321.678 -1.0879 2.06608 0
M  V30 3330 C 322.659 -1.40473 0.959237 0
M  V30 3331 O 323.844 -1.5013 1.23185 0
M  V30 3332 C 320.974 -2.40183 2.50857 0
M  V30 3333 C 319.928 -2.22858 3.65402 0
M  V30 3334 C 319.254 -3.59619 3.957 0
M  V30 3335 C 320.554 -1.65123 4.95511 0
M  V30 3336 H 322.248 -0.678673 2.91607 0
M  V30 3337 H 319.794 -0.325013 1.40284 0
M  V30 3338 H 321.747 -3.11437 2.83874 0
M  V30 3339 H 320.471 -2.83083 1.62885 0
M  V30 3340 H 319.13 -1.54045 3.32664 0
M  V30 3341 H 318.778 -4.00086 3.04861 0
M  V30 3342 H 318.478 -3.48866 4.72828 0
M  V30 3343 H 320.002 -4.32306 4.31212 0
M  V30 3344 H 321.416 -2.26241 5.26771 0
M  V30 3345 H 319.813 -1.65071 5.7695 0
M  V30 3346 H 320.883 -0.612559 4.81015 0
M  V30 3347 N 322.226 -1.5378 -0.344866 0
M  V30 3348 C 323.475 -1.7018 -1.08267 0
M  V30 3349 C 323.788 -0.471 -1.89845 0
M  V30 3350 O 324.994 -0.515917 -2.66553 0
M  V30 3351 C 323.45 -3.00923 -1.97417 0
M  V30 3352 C 323.058 -4.31335 -1.21053 0
M  V30 3353 C 324.802 -3.26688 -2.71063 0
M  V30 3354 C 322.709 -5.53153 -2.09225 0
M  V30 3355 H 321.639 -0.634138 -0.407903 0
M  V30 3356 H 324.29 -1.8028 -0.342246 0
M  V30 3357 H 322.672 -2.84676 -2.75274 0
M  V30 3358 H 323.846 -4.58281 -0.481159 0
M  V30 3359 H 322.161 -4.12173 -0.591813 0
M  V30 3360 H 324.758 -4.1489 -3.37299 0
M  V30 3361 H 325.101 -2.43639 -3.37558 0
M  V30 3362 H 325.634 -3.43705 -2.0028 0
M  V30 3363 H 322.373 -6.38741 -1.47274 0
M  V30 3364 H 321.893 -5.30458 -2.79955 0
M  V30 3365 H 323.572 -5.88744 -2.68308 0
M  V30 3366 N 323.704 0.605807 -1.45491 0
M  V30 3367 C 324.652 1.73754 -1.54636 0
M  V30 3368 C 325.646 1.64207 -0.416219 0
M  V30 3369 O 326.852 1.69979 -0.592199 0
M  V30 3370 H 323.227 0.574073 -0.485741 0
M  V30 3371 H 325.198 1.63169 -2.49837 0
M  V30 3372 C 323.947 3.12135 -1.53189 0
M  V30 3373 H 323.27 3.20141 -2.39478 0
M  V30 3374 H 324.71 3.91147 -1.63645 0
M  V30 3375 C 323.169 3.35921 -0.256616 0
M  V30 3376 O 323.699 3.96194 0.662798 0
M  V30 3377 N 321.905 2.90204 -0.151751 0
M  V30 3378 H 321.452 2.41336 -0.90081 0
M  V30 3379 H 321.41 3.06492 0.700699 0
M  V30 3380 N 325.182 1.32811 0.848464 0
M  V30 3381 C 326.129 1.22265 1.95755 0
M  V30 3382 C 327.099 0.103413 1.65778 0
M  V30 3383 O 328.284 0.280033 1.88734 0
M  V30 3384 C 325.424 0.958014 3.31536 0
M  V30 3385 C 324.537 2.16262 3.73971 0
M  V30 3386 C 323.672 1.83295 4.98575 0
M  V30 3387 C 322.711 3.00041 5.33518 0
M  V30 3388 N 321.848 2.67125 6.49299 0
M  V30 3389 H 326.688 2.17128 2.04107 0
M  V30 3390 H 324.225 1.07982 0.998913 0
M  V30 3391 H 326.183 0.785052 4.09747 0
M  V30 3392 H 324.813 0.046159 3.22767 0
M  V30 3393 H 323.865 2.44565 2.91362 0
M  V30 3394 H 325.177 3.03572 3.95785 0
M  V30 3395 H 324.331 1.62586 5.84509 0
M  V30 3396 H 323.07 0.932078 4.7871 0
M  V30 3397 H 322.075 3.21374 4.46093 0
M  V30 3398 H 323.3 3.90869 5.55336 0
M  V30 3399 H 321.246 1.79586 6.3094 0
M  V30 3400 H 321.163 3.47965 6.71161 0
M  V30 3401 H 322.431 2.49861 7.3837 0
M  V30 3402 N 326.66 -1.06551 1.16123 0
M  V30 3403 C 327.593 -2.13382 0.80892 0
M  V30 3404 C 328.571 -1.61128 -0.21827 0
M  V30 3405 O 329.755 -1.88219 -0.102952 0
M  V30 3406 C 326.882 -3.38083 0.204303 0
M  V30 3407 C 325.928 -4.09133 1.20469 0
M  V30 3408 S 326.761 -4.5948 2.75024 0
M  V30 3409 C 327.917 -5.87446 2.16005 0
M  V30 3410 H 328.15 -2.42937 1.71373 0
M  V30 3411 H 325.683 -1.18947 0.984428 0
M  V30 3412 H 327.641 -4.10268 -0.138081 0
M  V30 3413 H 326.302 -3.0669 -0.678234 0
M  V30 3414 H 325.495 -4.98685 0.730019 0
M  V30 3415 H 325.097 -3.4295 1.49202 0
M  V30 3416 H 327.389 -6.60065 1.5271 0
M  V30 3417 H 328.332 -6.39639 3.03756 0
M  V30 3418 H 328.74 -5.41354 1.59989 0
M  V30 3419 N 328.138 -0.959301 -1.25041 0
M  V30 3420 C 329.415 -0.533805 -1.88175 0
M  V30 3421 C 329.795 0.988994 -1.865 0
M  V30 3422 O 329.143 1.85677 -1.33177 0
M  V30 3423 C 329.353 -1.11575 -3.30684 0
M  V30 3424 C 330.701 -1.19548 -4.07423 0
M  V30 3425 O 331.725 -1.06765 -3.39823 0
M  V30 3426 O 330.584 -1.39656 -5.28354 0
M  V30 3427 H 327.678 -0.176772 -0.807887 0
M  V30 3428 H 330.224 -1.05303 -1.33076 0
M  V30 3429 H 328.996 -2.15884 -3.26358 0
M  V30 3430 H 328.619 -0.580059 -3.93346 0
M  V30 3431 N 329.616 1.39756 -0.72842 0
M  V30 3432 C 330.893 1.94574 -0.200079 0
M  V30 3433 C 331.273 1.66569 1.29684 0
M  V30 3434 O 330.621 0.990326 2.05924 0
M  V30 3435 C 330.831 3.45004 -0.526608 0
M  V30 3436 C 332.179 4.21965 -0.472318 0
M  V30 3437 O 333.203 3.53173 -0.463413 0
M  V30 3438 O 332.062 5.44552 -0.461075 0
M  V30 3439 H 329.156 0.826289 -0.0342851 0
M  V30 3440 H 331.702 1.49293 -0.806829 0
M  V30 3441 H 330.474 3.58796 -1.56144 0
M  V30 3442 H 330.097 3.97449 0.109449 0
M  V30 3443 N 331.094 0.475555 1.50254 0
M  V30 3444 C 332.505 0.0215174 1.86688 0
M  V30 3445 C 332.856 -1.38467 1.39001 0
M  V30 3446 O 331.981 -2.02732 0.756894 0
M  V30 3447 C 332.576 0.0322715 3.38785 0
M  V30 3448 C 331.135 -0.366314 3.74613 0
M  V30 3449 C 330.282 0.415832 2.74164 0
M  V30 3450 H 333.233 0.689612 1.42934 0
M  V30 3451 H 333.254 -0.76889 3.7265 0
M  V30 3452 H 332.766 1.05584 3.73462 0
M  V30 3453 H 330.867 -1.39406 3.45538 0
M  V30 3454 H 330.98 -0.064555 4.79057 0
M  V30 3455 H 329.344 -0.131048 2.54363 0
M  V30 3456 H 330.127 1.43899 3.11686 0
M  V30 3457 N 332.573 -1.56217 0.208337 0
M  V30 3458 C 333.801 -2.02337 -0.43215 0
M  V30 3459 C 334.216 -1.08834 -1.54275 0
M  V30 3460 O 333.573 -0.0955462 -1.8225 0
M  V30 3461 C 333.624 -3.48072 -0.976138 0
M  V30 3462 O 333.345 -4.38007 0.0901621 0
M  V30 3463 C 334.846 -4.09773 -1.69119 0
M  V30 3464 H 332.066 -0.662385 -0.10718 0
M  V30 3465 H 334.61 -2.01966 0.320923 0
M  V30 3466 H 332.765 -3.49099 -1.67954 0
M  V30 3467 H 333.179 -5.23543 -0.316701 0
M  V30 3468 H 334.653 -5.13556 -2.02397 0
M  V30 3469 H 335.13 -3.53999 -2.59964 0
M  V30 3470 H 335.736 -4.12556 -1.03332 0
M  V30 3471 N 334.051 0.0651679 -1.57465 0
M  V30 3472 C 335.297 0.764193 -1.87851 0
M  V30 3473 C 335.63 1.76889 -0.801495 0
M  V30 3474 O 334.905 1.93594 0.187528 0
M  V30 3475 C 335.188 1.46625 -3.28897 0
M  V30 3476 C 335.041 0.477515 -4.47258 0
M  V30 3477 C 336.36 2.4095 -3.68281 0
M  V30 3478 H 333.479 0.276351 -0.683227 0
M  V30 3479 H 336.121 0.0272868 -1.8998 0
M  V30 3480 H 334.271 2.09438 -3.27212 0
M  V30 3481 H 335.943 -0.145922 -4.61069 0
M  V30 3482 H 334.186 -0.206576 -4.33308 0
M  V30 3483 H 334.857 1.0065 -5.42746 0
M  V30 3484 H 337.333 1.88209 -3.71102 0
M  V30 3485 H 336.209 2.87072 -4.67847 0
M  V30 3486 H 336.47 3.26049 -2.98571 0
M  V30 3487 N 335.529 1.53961 0.336706 0
M  V30 3488 C 336.477 1.83136 1.43401 0
M  V30 3489 C 337.471 0.702313 1.54156 0
M  V30 3490 O 338.677 0.885765 1.56698 0
M  V30 3491 H 335.052 0.580309 0.478273 0
M  V30 3492 H 337.023 2.74925 1.16012 0
M  V30 3493 C 335.772 2.06385 2.79822 0
M  V30 3494 H 335.095 2.92718 2.72316 0
M  V30 3495 H 336.535 2.30761 3.55704 0
M  V30 3496 C 334.994 0.851414 3.25964 0
M  V30 3497 O 335.524 0.0541904 4.01663 0
M  V30 3498 N 333.73 0.66672 2.82848 0
M  V30 3499 H 333.277 1.31665 2.21409 0
M  V30 3500 H 333.235 -0.143032 3.14074 0
M  V30 3501 N 337.007 -0.598083 1.45811 0
M  V30 3502 C 338.253 -1.35679 1.51535 0
M  V30 3503 C 338.608 -1.91745 0.15864 0
M  V30 3504 O 337.901 -1.72654 -0.830724 0
M  V30 3505 C 338.095 -2.51669 2.53766 0
M  V30 3506 C 337.924 -2.06963 3.99245 0
M  V30 3507 C 336.694 -1.92693 4.67116 0
M  V30 3508 C 338.892 -1.63855 4.875 0
M  V30 3509 N 336.874 -1.41897 5.97276 0
M  V30 3510 C 338.245 -1.24541 6.07363 0
M  V30 3511 C 340.3 -1.51533 4.74281 0
M  V30 3512 C 339.003 -0.741354 7.15469 0
M  V30 3513 C 341.029 -1.0253 5.82444 0
M  V30 3514 C 340.391 -0.641869 7.01469 0
M  V30 3515 H 336.49 -0.490042 0.609412 0
M  V30 3516 H 339.074 -0.682687 1.82339 0
M  V30 3517 H 337.245 -3.16663 2.24898 0
M  V30 3518 H 338.977 -3.18578 2.4958 0
M  V30 3519 H 335.732 -2.1417 4.22408 0
M  V30 3520 H 336.156 -1.18704 6.66512 0
M  V30 3521 H 340.798 -1.798 3.82664 0
M  V30 3522 H 338.516 -0.446243 8.06867 0
M  V30 3523 H 342.102 -0.934088 5.74253 0
M  V30 3524 H 340.982 -0.268531 7.8374 0
M  V30 3525 N 338.485 -1.33259 -0.841409 0
M  V30 3526 C 339.71 -1.2775 -1.63385 0
M  V30 3527 C 340.135 0.149188 -1.87507 0
M  V30 3528 O 339.493 1.10498 -1.43736 0
M  V30 3529 C 339.541 -2.05571 -2.96265 0
M  V30 3530 O 338.645 -1.41257 -3.87453 0
M  V30 3531 H 337.986 -0.439627 -0.497618 0
M  V30 3532 H 340.516 -1.75782 -1.04699 0
M  V30 3533 H 340.526 -2.16241 -3.45982 0
M  V30 3534 H 339.201 -3.09309 -2.7803 0
M  V30 3535 H 337.778 -1.39217 -3.45938 0
M  V30 3536 N 339.963 1.05934 -1.16686 0
M  V30 3537 C 340.911 2.15603 -0.872817 0
M  V30 3538 C 341.905 1.68647 0.159576 0
M  V30 3539 O 343.111 1.79995 0.0132125 0
M  V30 3540 H 339.486 0.703885 -0.264671 0
M  V30 3541 H 341.457 2.37613 -1.80507 0
M  V30 3542 C 340.206 3.45457 -0.394344 0
M  V30 3543 H 339.529 3.81984 -1.18019 0
M  V30 3544 H 340.969 4.2339 -0.227408 0
M  V30 3545 C 339.428 3.25021 0.88673 0
M  V30 3546 O 339.958 3.50906 1.95519 0
M  V30 3547 N 338.164 2.78437 0.831925 0
M  V30 3548 H 337.711 2.57572 -0.0377619 0
M  V30 3549 H 337.669 2.65144 1.68956 0
M  V30 3550 N 341.441 0.965919 1.2453 0
M  V30 3551 C 342.351 0.502154 2.29163 0
M  V30 3552 C 343.367 -0.436017 1.68448 0
M  V30 3553 O 344.543 -0.309497 1.99008 0
M  V30 3554 C 341.608 -0.201956 3.46111 0
M  V30 3555 C 340.669 0.775821 4.22232 0
M  V30 3556 C 339.902 0.105217 5.33596 0
M  V30 3557 O 340.125 -1.10683 5.59558 0
M  V30 3558 O 339.059 0.796475 5.96607 0
M  V30 3559 H 342.885 1.37194 2.70946 0
M  V30 3560 H 340.47 0.732875 1.30189 0
M  V30 3561 H 342.352 -0.597564 4.17142 0
M  V30 3562 H 341.027 -1.04673 3.06309 0
M  V30 3563 H 339.934 1.22185 3.53584 0
M  V30 3564 H 341.267 1.58896 4.65846 0
M  V30 3565 N 342.919 -1.39368 0.735821 0
M  V30 3566 C 344.335 -1.54204 0.411492 0
M  V30 3567 C 344.535 -1.70268 -1.07755 0
M  V30 3568 O 343.591 -1.70364 -1.86366 0
M  V30 3569 C 344.904 -2.75925 1.19523 0
M  V30 3570 C 346.452 -2.89761 1.18354 0
M  V30 3571 C 346.927 -4.14421 1.94986 0
M  V30 3572 N 348.418 -4.21462 1.92156 0
M  V30 3573 C 349.153 -5.16871 2.48258 0
M  V30 3574 N 348.649 -6.18063 3.13001 0
M  V30 3575 N 350.442 -5.09093 2.38287 0
M  V30 3576 H 342.593 -1.27189 1.70108 0
M  V30 3577 H 344.856 -0.616517 0.720147 0
M  V30 3578 H 344.562 -2.70401 2.24892 0
M  V30 3579 H 344.436 -3.68614 0.800222 0
M  V30 3580 H 346.823 -2.94777 0.137975 0
M  V30 3581 H 346.904 -1.98133 1.61793 0
M  V30 3582 H 346.548 -4.10166 2.99543 0
M  V30 3583 H 346.478 -5.05095 1.48953 0
M  V30 3584 H 348.969 -3.48979 1.44991 0
M  V30 3585 H 349.282 -6.87326 3.53275 0
M  V30 3586 H 347.627 -6.18448 3.17091 0
M  V30 3587 H 350.818 -4.28973 1.8735 0
M  V30 3588 H 350.991 -5.83272 2.82308 0
M  V30 3589 N 344.397 -0.483516 -1.5 0
M  V30 3590 C 345.627 0.0643896 -2.065 0
M  V30 3591 C 346.035 1.32949 -1.34615 0
M  V30 3592 O 345.378 1.79003 -0.412756 0
M  V30 3593 C 345.44 0.405983 -3.572 0
M  V30 3594 C 345.104 -0.758875 -4.50655 0
M  V30 3595 C 346.101 -1.64445 -4.93208 0
M  V30 3596 C 343.786 -0.952725 -4.93182 0
M  V30 3597 C 345.78 -2.70818 -5.77006 0
M  V30 3598 C 343.467 -2.01966 -5.76761 0
M  V30 3599 C 344.465 -2.89574 -6.18576 0
M  V30 3600 O 344.153 -3.94429 -7.00486 0
M  V30 3601 H 343.885 -0.00934786 -0.675935 0
M  V30 3602 H 346.439 -0.674959 -1.93993 0
M  V30 3603 H 344.669 1.19869 -3.67652 0
M  V30 3604 H 346.358 0.890433 -3.96013 0
M  V30 3605 H 347.124 -1.50643 -4.61012 0
M  V30 3606 H 343.003 -0.280247 -4.60147 0
M  V30 3607 H 346.547 -3.3923 -6.09565 0
M  V30 3608 H 342.444 -2.1577 -6.0837 0
M  V30 3609 H 343.212 -3.91568 -7.1876 0
M  V30 3610 N 345.875 1.56104 -0.216619 0
M  V30 3611 C 346.785 2.23694 0.706982 0
M  V30 3612 C 347.801 1.24295 1.21765 0
M  V30 3613 O 348.977 1.57094 1.2603 0
M  V30 3614 C 346.042 2.8998 1.90033 0
M  V30 3615 C 345.103 4.04708 1.43213 0
M  V30 3616 C 344.336 4.67824 2.56859 0
M  V30 3617 O 344.559 4.29913 3.74874 0
M  V30 3618 O 343.493 5.56905 2.28343 0
M  V30 3619 H 347.319 3.03272 0.161235 0
M  V30 3620 H 344.904 1.49394 0.0136177 0
M  V30 3621 H 346.786 3.31837 2.59735 0
M  V30 3622 H 345.461 2.13365 2.43428 0
M  V30 3623 H 344.368 3.6743 0.70327 0
M  V30 3624 H 345.701 4.83051 0.944615 0
M  V30 3625 N 347.353 -0.0568162 1.57498 0
M  V30 3626 C 348.263 -1.08346 2.08083 0
M  V30 3627 C 349.279 -1.41439 1.01346 0
M  V30 3628 O 350.455 -1.51316 1.32912 0
M  V30 3629 C 347.52 -2.37352 2.52715 0
M  V30 3630 C 346.581 -2.11093 3.73816 0
M  V30 3631 C 345.814 -3.33949 4.1631 0
M  V30 3632 O 346.037 -4.43622 3.58547 0
M  V30 3633 O 344.971 -3.21279 5.08983 0
M  V30 3634 H 348.797 -0.683667 2.95905 0
M  V30 3635 H 346.382 -0.271965 1.46904 0
M  V30 3636 H 348.264 -3.13246 2.81877 0
M  V30 3637 H 346.939 -2.76681 1.68016 0
M  V30 3638 H 345.846 -1.32856 3.49714 0
M  V30 3639 H 347.179 -1.76637 4.59413 0
M  V30 3640 N 348.832 -1.54138 -0.328536 0
M  V30 3641 C 350.072 -1.73827 -1.07534 0
M  V30 3642 C 350.436 -0.498777 -1.85408 0
M  V30 3643 O 351.637 -0.572937 -2.62623 0
M  V30 3644 C 349.908 -2.97573 -1.97952 0
M  V30 3645 S 351.467 -3.38143 -2.79652 0
M  V30 3646 H 348.285 -0.611287 -0.36311 0
M  V30 3647 H 350.887 -1.92306 -0.351931 0
M  V30 3648 H 349.591 -3.85939 -1.39569 0
M  V30 3649 H 349.122 -2.81603 -2.74706 0
M  V30 3650 H 351.137 -2.93052 -4.00418 0
M  V30 3651 N 350.31 0.590341 -1.46126 0
M  V30 3652 C 351.257 1.69994 -1.56111 0
M  V30 3653 C 352.227 1.61065 -0.405867 0
M  V30 3654 O 353.412 1.8039 -0.621613 0
M  V30 3655 C 350.552 3.08326 -1.55013 0
M  V30 3656 C 349.665 3.27936 -2.81215 0
M  V30 3657 C 348.8 4.56473 -2.71673 0
M  V30 3658 C 347.839 4.694 -3.92849 0
M  V30 3659 N 346.976 5.89254 -3.81738 0
M  V30 3660 H 351.816 1.60797 -2.50895 0
M  V30 3661 H 349.353 0.783799 -1.24479 0
M  V30 3662 H 351.311 3.88383 -1.52362 0
M  V30 3663 H 349.941 3.16439 -0.637667 0
M  V30 3664 H 348.993 2.41536 -2.93879 0
M  V30 3665 H 350.305 3.33357 -3.71045 0
M  V30 3666 H 349.459 5.44748 -2.67085 0
M  V30 3667 H 348.198 4.53477 -1.7947 0
M  V30 3668 H 347.203 3.79544 -3.97777 0
M  V30 3669 H 348.428 4.7418 -4.86138 0
M  V30 3670 H 346.374 5.87271 -2.92317 0
M  V30 3671 H 346.291 5.95911 -4.65217 0
M  V30 3672 H 347.559 6.79981 -3.81112 0
M  V30 3673 N 351.788 1.33704 0.83433 0
M  V30 3674 C 352.698 1.26382 1.97648 0
M  V30 3675 C 353.714 0.173548 1.73132 0
M  V30 3676 O 354.89 0.397962 1.97429 0
M  V30 3677 C 351.955 1.00769 3.31733 0
M  V30 3678 C 351.016 2.1884 3.69334 0
M  V30 3679 C 350.249 1.9444 4.9702 0
M  V30 3680 O 350.472 0.896961 5.63303 0
M  V30 3681 O 349.406 2.81093 5.32231 0
M  V30 3682 H 353.232 2.22444 2.06767 0
M  V30 3683 H 350.817 1.13795 0.968037 0
M  V30 3684 H 352.699 0.882186 4.12062 0
M  V30 3685 H 351.374 0.0773783 3.23608 0
M  V30 3686 H 350.281 2.36946 2.89495 0
M  V30 3687 H 351.614 3.10221 3.82131 0
M  V30 3688 N 353.266 -1.05314 1.17247 0
M  V30 3689 C 354.213 -2.13031 0.888058 0
M  V30 3690 C 355.183 -1.65253 -0.167537 0
M  V30 3691 O 356.368 -1.90775 -0.0305974 0
M  V30 3692 C 353.508 -3.42702 0.406147 0
M  V30 3693 C 352.621 -4.04161 1.52572 0
M  V30 3694 C 351.756 -5.21744 0.997808 0
M  V30 3695 C 350.795 -5.75207 2.09291 0
M  V30 3696 N 349.932 -6.84094 1.57986 0
M  V30 3697 H 354.772 -2.36698 1.81048 0
M  V30 3698 H 352.309 -1.16121 0.903013 0
M  V30 3699 H 354.267 -4.17059 0.108305 0
M  V30 3700 H 352.897 -3.19222 -0.479313 0
M  V30 3701 H 351.949 -3.27253 1.93931 0
M  V30 3702 H 353.261 -4.39881 2.35172 0
M  V30 3703 H 352.415 -6.03168 0.653739 0
M  V30 3704 H 351.154 -4.87495 0.141232 0
M  V30 3705 H 350.159 -4.92414 2.44557 0
M  V30 3706 H 351.384 -6.11505 2.95362 0
M  V30 3707 H 349.33 -6.51745 0.74598 0
M  V30 3708 H 349.247 -7.18811 2.34195 0
M  V30 3709 H 350.515 -7.69172 1.26468 0
M  V30 3710 N 354.744 -0.972509 -1.24016 0
M  V30 3711 C 355.674 -0.525548 -2.27509 0
M  V30 3712 C 356.655 0.437262 -1.64384 0
M  V30 3713 O 357.84 0.332343 -1.91335 0
M  V30 3714 C 354.97 0.180448 -3.46831 0
M  V30 3715 C 353.924 -0.698859 -4.22256 0
M  V30 3716 C 353.25 0.138903 -5.3452 0
M  V30 3717 C 354.55 -1.98582 -4.83076 0
M  V30 3718 H 356.244 -1.39058 -2.65148 0
M  V30 3719 H 353.79 -0.67009 -1.27459 0
M  V30 3720 H 355.743 0.504387 -4.18371 0
M  V30 3721 H 354.467 1.07987 -3.08231 0
M  V30 3722 H 353.126 -1.00614 -3.52523 0
M  V30 3723 H 352.774 1.03862 -4.9216 0
M  V30 3724 H 352.474 -0.446259 -5.85903 0
M  V30 3725 H 353.998 0.457404 -6.08884 0
M  V30 3726 H 355.412 -1.72715 -5.46665 0
M  V30 3727 H 353.809 -2.5181 -5.44713 0
M  V30 3728 H 354.879 -2.67769 -4.04262 0
M  V30 3729 N 356.222 1.38976 -0.743202 0
M  V30 3730 C 357.468 2.0064 -0.295189 0
M  V30 3731 C 357.801 1.5885 1.11716 0
M  V30 3732 O 357.076 0.821181 1.76315 0
M  V30 3733 C 357.359 3.578 -0.406318 0
M  V30 3734 C 357.212 4.09586 -1.85903 0
M  V30 3735 C 358.531 4.39616 0.206439 0
M  V30 3736 H 355.65 0.728935 -0.108733 0
M  V30 3737 H 358.292 1.65067 -0.940897 0
M  V30 3738 H 356.442 3.88235 0.143419 0
M  V30 3739 H 358.114 3.89837 -2.46627 0
M  V30 3740 H 356.357 3.6284 -2.3776 0
M  V30 3741 H 357.028 5.18708 -1.888 0
M  V30 3742 H 359.504 4.15273 -0.262283 0
M  V30 3743 H 358.38 5.48812 0.0983819 0
M  V30 3744 H 358.641 4.22754 1.2935 0
M  V30 3745 N 357.7 0.491464 1.49741 0
M  V30 3746 C 359.111 0.0413169 1.86654 0
M  V30 3747 C 359.462 -1.36985 1.40462 0
M  V30 3748 O 358.587 -2.01917 0.778354 0
M  V30 3749 C 359.182 0.0682023 3.38731 0
M  V30 3750 C 357.741 -0.32656 3.74981 0
M  V30 3751 C 356.888 0.444888 2.73708 0
M  V30 3752 H 359.839 0.704733 1.42194 0
M  V30 3753 H 359.86 -0.729322 3.73445 0
M  V30 3754 H 359.372 1.09539 3.72321 0
M  V30 3755 H 357.473 -1.35734 3.46997 0
M  V30 3756 H 357.586 -0.013741 4.79098 0
M  V30 3757 H 355.95 -0.104062 2.54487 0
M  V30 3758 H 356.733 1.47197 3.10142 0
M  V30 3759 N 359.178 -1.55987 0.224894 0
M  V30 3760 C 360.425 -1.9839 -0.4059 0
M  V30 3761 C 360.753 -1.11261 -1.59535 0
M  V30 3762 O 360.008 -0.158314 -1.95059 0
M  V30 3763 C 360.307 -3.46394 -0.880106 0
M  V30 3764 C 359.973 -4.5046 0.19918 0
M  V30 3765 C 358.635 -4.7864 0.495661 0
M  V30 3766 C 360.987 -5.12855 0.928939 0
M  V30 3767 C 358.315 -5.66497 1.52636 0
M  V30 3768 C 360.667 -6.01828 1.949 0
M  V30 3769 C 359.331 -6.28351 2.25236 0
M  V30 3770 H 358.601 -0.725961 -0.148529 0
M  V30 3771 H 361.248 -1.88668 0.328113 0
M  V30 3772 H 359.553 -3.53337 -1.69294 0
M  V30 3773 H 361.25 -3.76577 -1.37808 0
M  V30 3774 H 357.84 -4.28579 -0.0420526 0
M  V30 3775 H 362.024 -4.9115 0.713129 0
M  V30 3776 H 357.28 -5.8531 1.76698 0
M  V30 3777 H 361.454 -6.49225 2.51951 0
M  V30 3778 H 359.081 -6.96226 3.05244 0
M  V30 3779 N 360.656 0.0484629 -1.57525 0
M  V30 3780 C 361.586 1.0549 -2.08313 0
M  V30 3781 C 362.567 1.38929 -0.981463 0
M  V30 3782 O 363.752 1.48151 -1.25558 0
M  V30 3783 C 360.882 2.36162 -2.54646 0
M  V30 3784 C 359.836 2.17016 -3.68901 0
M  V30 3785 C 359.162 3.53278 -4.01371 0
M  V30 3786 C 360.462 1.57219 -4.98076 0
M  V30 3787 H 362.156 0.632195 -2.92649 0
M  V30 3788 H 359.702 0.302654 -1.40784 0
M  V30 3789 H 361.655 3.06882 -2.88793 0
M  V30 3790 H 360.379 2.80456 -1.67368 0
M  V30 3791 H 359.038 1.48733 -3.35073 0
M  V30 3792 H 358.686 3.95185 -3.11188 0
M  V30 3793 H 358.386 3.41299 -4.78318 0
M  V30 3794 H 359.91 4.25391 -4.38035 0
M  V30 3795 H 361.324 2.17832 -5.30304 0
M  V30 3796 H 359.721 1.55871 -5.79503 0
M  V30 3797 H 360.791 0.535956 -4.81929 0
M  V30 3798 N 362.134 1.5431 0.320358 0
M  V30 3799 C 363.081 1.83918 1.39438 0
M  V30 3800 C 364.051 0.686525 1.51248 0
M  V30 3801 O 365.236 0.933269 1.66417 0
M  V30 3802 C 362.376 2.075 2.75749 0
M  V30 3803 C 361.489 3.35177 2.72544 0
M  V30 3804 C 360.624 3.48704 4.00723 0
M  V30 3805 C 359.663 4.70244 3.91838 0
M  V30 3806 N 358.8 4.80679 5.11754 0
M  V30 3807 H 363.64 2.75544 1.13489 0
M  V30 3808 H 361.177 1.36459 0.549309 0
M  V30 3809 H 363.135 2.19166 3.54996 0
M  V30 3810 H 361.765 1.19163 3 0
M  V30 3811 H 360.817 3.32233 1.85271 0
M  V30 3812 H 362.129 4.24534 2.61863 0
M  V30 3813 H 361.283 3.59928 4.88402 0
M  V30 3814 H 360.022 2.57445 4.14214 0
M  V30 3815 H 359.027 4.59072 3.02544 0
M  V30 3816 H 360.252 5.6289 3.7991 0
M  V30 3817 H 358.198 3.92337 5.25745 0
M  V30 3818 H 358.115 5.64007 5.0342 0
M  V30 3819 H 359.383 4.96239 6.01138 0
M  V30 3820 N 363.613 -0.582584 1.46437 0
M  V30 3821 C 364.56 -1.69164 1.5701 0
M  V30 3822 C 365.53 -1.60847 0.414403 0
M  V30 3823 O 366.715 -1.80058 0.631171 0
M  V30 3824 C 363.855 -3.075 1.56646 0
M  V30 3825 C 362.968 -3.2644 2.82951 0
M  V30 3826 C 362.103 -4.55026 2.7409 0
M  V30 3827 C 361.142 -4.6731 3.95333 0
M  V30 3828 N 360.279 -5.87221 3.84858 0
M  V30 3829 H 365.119 -1.59464 2.51744 0
M  V30 3830 H 362.656 -0.777186 1.24893 0
M  V30 3831 H 364.614 -3.8757 1.5442 0
M  V30 3832 H 363.244 -3.16096 0.654439 0
M  V30 3833 H 362.296 -2.39974 2.95155 0
M  V30 3834 H 363.608 -3.31385 3.72808 0
M  V30 3835 H 362.762 -5.43324 2.6997 0
M  V30 3836 H 361.501 -4.52519 1.81873 0
M  V30 3837 H 360.506 -3.77429 3.99784 0
M  V30 3838 H 361.731 -4.71595 4.88646 0
M  V30 3839 H 359.677 -5.85712 2.95427 0
M  V30 3840 H 359.594 -5.93435 4.6837 0
M  V30 3841 H 360.862 -6.7795 3.84713 0
M  V30 3842 N 365.091 -1.34144 -0.827227 0
M  V30 3843 C 366.337 -1.26446 -1.58554 0
M  V30 3844 C 366.67 0.1664 -1.93486 0
M  V30 3845 O 365.945 1.1107 -1.59667 0
M  V30 3846 C 366.228 -2.15111 -2.8879 0
M  V30 3847 C 366.081 -3.66712 -2.60465 0
M  V30 3848 C 367.4 -2.03311 -3.90324 0
M  V30 3849 H 364.519 -0.46067 -0.575284 0
M  V30 3850 H 367.161 -1.64356 -0.953269 0
M  V30 3851 H 365.311 -1.8291 -3.42748 0
M  V30 3852 H 366.983 -4.09259 -2.1285 0
M  V30 3853 H 365.226 -3.88014 -1.93978 0
M  V30 3854 H 365.897 -4.24112 -3.53317 0
M  V30 3855 H 368.373 -2.31574 -3.45706 0
M  V30 3856 H 367.249 -2.67582 -4.79261 0
M  V30 3857 H 367.51 -1.00879 -4.30437 0
M  V30 3858 N 366.569 1.04691 -1.17803 0
M  V30 3859 C 367.817 1.7743 -0.967617 0
M  V30 3860 C 368.138 1.88359 0.504574 0
M  V30 3861 O 367.408 1.40402 1.36617 0
M  V30 3862 H 365.988 0.657242 -0.355024 0
M  V30 3863 H 368.65 1.2638 -1.48371 0
M  V30 3864 H 367.746 2.78924 -1.40027 0
M  V30 3865 N 368.047 0.979072 1.23499 0
M  V30 3866 C 369.294 0.647219 1.91878 0
M  V30 3867 C 369.622 -0.819074 1.76413 0
M  V30 3868 O 368.877 -1.60616 1.11808 0
M  V30 3869 C 369.176 0.981932 3.43646 0
M  V30 3870 C 368.842 2.43822 3.79291 0
M  V30 3871 C 367.504 2.83622 3.88731 0
M  V30 3872 C 369.856 3.3828 3.96505 0
M  V30 3873 C 367.184 4.16897 4.12812 0
M  V30 3874 C 369.536 4.71197 4.22085 0
M  V30 3875 C 368.2 5.10758 4.29747 0
M  V30 3876 H 367.47 0.236834 0.702133 0
M  V30 3877 H 370.117 1.23268 1.46551 0
M  V30 3878 H 368.422 0.314365 3.90537 0
M  V30 3879 H 370.119 0.703395 3.94783 0
M  V30 3880 H 366.709 2.11966 3.72516 0
M  V30 3881 H 370.893 3.0871 3.88603 0
M  V30 3882 H 366.149 4.47157 4.16966 0
M  V30 3883 H 370.323 5.44348 4.34348 0
M  V30 3884 H 367.95 6.1405 4.48159 0
M  V30 3885 N 369.525 -1.3858 0.750561 0
M  V30 3886 C 370.473 -2.32339 0.110162 0
M  V30 3887 C 371.467 -1.53864 -0.708674 0
M  V30 3888 O 372.673 -1.69417 -0.608112 0
M  V30 3889 H 369.048 -0.751812 0.0168275 0
M  V30 3890 H 371.019 -2.83959 0.917053 0
M  V30 3891 C 369.768 -3.39043 -0.771067 0
M  V30 3892 H 369.091 -3.99517 -0.150374 0
M  V30 3893 H 370.531 -4.07061 -1.1865 0
M  V30 3894 C 368.99 -2.77365 -1.91234 0
M  V30 3895 O 369.52 -2.66434 -3.00626 0
M  V30 3896 N 367.726 -2.35219 -1.70646 0
M  V30 3897 H 367.273 -2.4431 -0.81673 0
M  V30 3898 H 367.231 -1.94294 -2.47178 0
M  V30 3899 N 371.003 -0.499398 -1.49478 0
M  V30 3900 C 372.414 -0.051215 -1.8663 0
M  V30 3901 C 372.765 1.36238 -1.41186 0
M  V30 3902 O 371.89 2.01502 -0.789051 0
M  V30 3903 C 372.485 -0.0861651 -3.3869 0
M  V30 3904 C 371.044 0.30667 -3.75149 0
M  V30 3905 C 370.191 -0.459397 -2.73468 0
M  V30 3906 H 373.142 -0.712264 -1.41818 0
M  V30 3907 H 373.163 0.709507 -3.73826 0
M  V30 3908 H 372.675 -1.11512 -3.71735 0
M  V30 3909 H 370.776 1.33892 -3.47712 0
M  V30 3910 H 370.889 -0.0116669 -4.79099 0
M  V30 3911 H 369.253 0.0905645 -2.54539 0
M  V30 3912 H 370.036 -1.4884 -3.09357 0
M  V30 3913 N 372.481 1.55866 -0.233164 0
M  V30 3914 C 373.428 2.20796 0.67215 0
M  V30 3915 C 374.398 1.16731 1.18166 0
M  V30 3916 O 375.583 1.45129 1.23864 0
M  V30 3917 C 372.723 2.90072 1.86955 0
M  V30 3918 C 371.836 4.08759 1.39786 0
M  V30 3919 C 370.971 4.65787 2.55374 0
M  V30 3920 C 370.01 5.76752 2.04998 0
M  V30 3921 N 369.147 6.28021 3.13901 0
M  V30 3922 H 373.987 2.9779 0.111749 0
M  V30 3923 H 371.524 1.47036 0.0434007 0
M  V30 3924 H 373.482 3.28428 2.57276 0
M  V30 3925 H 372.112 2.15575 2.40265 0
M  V30 3926 H 371.164 3.7581 0.589173 0
M  V30 3927 H 372.476 4.88906 0.98856 0
M  V30 3928 H 371.63 5.06646 3.33758 0
M  V30 3929 H 370.369 3.84828 2.99598 0
M  V30 3930 H 369.374 5.35383 1.25079 0
M  V30 3931 H 370.599 6.59553 1.61759 0
M  V30 3932 H 368.545 5.49971 3.57586 0
M  V30 3933 H 368.462 7.03323 2.7726 0
M  V30 3934 H 369.73 6.73538 3.92386 0
M  V30 3935 N 373.959 -0.0401083 1.57549 0
M  V30 3936 C 374.906 -1.04413 2.05831 0
M  V30 3937 C 375.876 -1.36585 0.945184 0
M  V30 3938 O 377.061 -1.47112 1.21502 0
M  V30 3939 C 374.201 -2.34336 2.53339 0
M  V30 3940 C 373.314 -2.08419 3.78398 0
M  V30 3941 C 372.449 -3.32133 4.14561 0
M  V30 3942 C 371.488 -3.01721 5.3257 0
M  V30 3943 N 370.625 -4.17855 5.64218 0
M  V30 3944 H 375.465 -0.625442 2.91363 0
M  V30 3945 H 373.002 -0.297218 1.44066 0
M  V30 3946 H 374.96 -3.10234 2.78946 0
M  V30 3947 H 373.59 -2.73948 1.7074 0
M  V30 3948 H 372.642 -1.23069 3.59942 0
M  V30 3949 H 373.954 -1.81978 4.64419 0
M  V30 3950 H 373.108 -4.16406 4.41238 0
M  V30 3951 H 371.847 -3.61678 3.2717 0
M  V30 3952 H 370.852 -2.15849 5.05657 0
M  V30 3953 H 372.077 -2.73466 6.21605 0
M  V30 3954 H 370.023 -4.47372 4.79786 0
M  V30 3955 H 369.94 -3.94798 6.44725 0
M  V30 3956 H 371.208 -5.03033 5.95465 0
M  V30 3957 N 375.437 -1.54477 -0.31217 0
M  V30 3958 C 376.714 -1.63891 -1.06767 0
M  V30 3959 C 377.094 -0.480028 -2.0557 0
M  V30 3960 O 376.442 0.524487 -2.22399 0
M  V30 3961 C 376.652 -3.01402 -1.75948 0
M  V30 3962 C 378 -3.57838 -2.28554 0
M  V30 3963 O 379.024 -3.03782 -1.85998 0
M  V30 3964 O 377.883 -4.52462 -3.06497 0
M  V30 3965 H 374.977 -0.664125 -0.492816 0
M  V30 3966 H 377.523 -1.66823 -0.311149 0
M  V30 3967 H 376.295 -3.77187 -1.04144 0
M  V30 3968 H 375.918 -3.02199 -2.58383 0
M  V30 3969 N 376.915 0.57481 -1.46744 0
M  V30 3970 C 378.164 1.32898 -1.51727 0
M  V30 3971 C 378.477 1.948 -0.176692 0
M  V30 3972 O 379.683 2.71299 -0.104385 0
M  V30 3973 C 378.139 2.40901 -2.67385 0
M  V30 3974 C 377.747 1.85266 -4.07898 0
M  V30 3975 C 379.491 3.17609 -2.81646 0
M  V30 3976 C 377.398 2.90945 -5.14883 0
M  V30 3977 H 376.328 0.499631 -0.564699 0
M  V30 3978 H 378.979 0.612536 -1.72975 0
M  V30 3979 H 377.361 3.15379 -2.39483 0
M  V30 3980 H 378.535 1.17278 -4.45626 0
M  V30 3981 H 376.85 1.21199 -3.98371 0
M  V30 3982 H 379.447 3.96493 -3.58744 0
M  V30 3983 H 379.79 3.70696 -1.89448 0
M  V30 3984 H 380.323 2.50239 -3.09233 0
M  V30 3985 H 377.062 2.42736 -6.089 0
M  V30 3986 H 376.582 3.57398 -4.81691 0
M  V30 3987 H 378.261 3.54755 -5.41071 0
M  V30 3988 N 378.394 1.34581 0.820102 0
M  V30 3989 C 379.344 1.22943 1.92013 0
M  V30 3990 C 380.328 0.127802 1.60392 0
M  V30 3991 O 381.52 0.357737 1.73347 0
M  V30 3992 C 378.649 0.989938 3.28717 0
M  V30 3993 C 377.735 2.13486 3.66449 0
M  V30 3994 N 378.126 3.38625 3.75722 0
M  V30 3995 C 376.424 2.04573 3.96315 0
M  V30 3996 C 377.125 4.13832 4.08801 0
M  V30 3997 N 376.101 3.42451 4.22171 0
M  V30 3998 H 379.903 2.17771 1.97365 0
M  V30 3999 H 377.417 1.2686 1.01392 0
M  V30 4000 H 379.414 0.887462 4.07345 0
M  V30 4001 H 378.074 0.0503691 3.24661 0
M  V30 4002 H 379.085 3.73143 3.59144 0
M  V30 4003 H 375.762 1.1839 4.00362 0
M  V30 4004 H 377.152 5.21909 4.23156 0
M  V30 4005 N 379.872 -1.04064 1.18357 0
M  V30 4006 C 381.119 -1.77265 0.978947 0
M  V30 4007 C 381.447 -1.88189 -0.491428 0
M  V30 4008 O 380.702 -1.38653 -1.38108 0
M  V30 4009 C 381.001 -3.20634 1.57888 0
M  V30 4010 C 380.667 -3.29743 3.07539 0
M  V30 4011 C 379.329 -3.31937 3.48384 0
M  V30 4012 C 381.681 -3.29841 4.03552 0
M  V30 4013 C 379.009 -3.3187 4.83818 0
M  V30 4014 C 381.361 -3.31313 5.38901 0
M  V30 4015 C 380.025 -3.31799 5.79194 0
M  V30 4016 H 379.295 -0.648659 0.358222 0
M  V30 4017 H 381.942 -1.22225 1.47422 0
M  V30 4018 H 380.247 -3.78675 1.00561 0
M  V30 4019 H 381.944 -3.75917 1.39598 0
M  V30 4020 H 378.534 -3.28757 2.74986 0
M  V30 4021 H 382.718 -3.27337 3.73047 0
M  V30 4022 H 377.974 -3.30562 5.14333 0
M  V30 4023 H 382.148 -3.30338 6.13066 0
M  V30 4024 H 379.775 -3.315 6.84114 0
M  V30 4025 N 381.35 -0.985608 -1.22978 0
M  V30 4026 C 382.283 -0.47487 -2.23204 0
M  V30 4027 C 383.261 0.460865 -1.55932 0
M  V30 4028 O 384.445 0.388105 -1.84461 0
M  V30 4029 C 381.572 0.312427 -3.37256 0
M  V30 4030 C 380.618 -0.568219 -4.22698 0
M  V30 4031 S 381.451 -2.01919 -4.95973 0
M  V30 4032 C 382.607 -1.24118 -6.1347 0
M  V30 4033 H 382.84 -1.32419 -2.66181 0
M  V30 4034 H 380.373 -0.792005 -1.32539 0
M  V30 4035 H 382.331 0.760645 -4.03391 0
M  V30 4036 H 380.992 1.13693 -2.92801 0
M  V30 4037 H 380.185 0.0371657 -5.03986 0
M  V30 4038 H 379.787 -0.952897 -3.61657 0
M  V30 4039 H 382.079 -0.505121 -6.75614 0
M  V30 4040 H 383.022 -2.02907 -6.78406 0
M  V30 4041 H 383.43 -0.757669 -5.59392 0
M  V30 4042 N 382.828 1.3818 -0.7579 0
M  V30 4043 C 384.239 1.82726 -0.383134 0
M  V30 4044 C 384.59 1.63214 1.08884 0
M  V30 4045 O 383.715 1.13566 1.84205 0
M  V30 4046 C 384.31 3.31728 -0.688631 0
M  V30 4047 C 382.869 3.74606 -0.367091 0
M  V30 4048 C 382.016 2.60896 -0.939599 0
M  V30 4049 H 384.967 1.26847 -0.953699 0
M  V30 4050 H 384.988 3.80487 0.0316492 0
M  V30 4051 H 384.5 3.45898 -1.76001 0
M  V30 4052 H 382.601 3.66013 0.697532 0
M  V30 4053 H 382.714 4.71215 -0.865658 0
M  V30 4054 H 381.078 2.52075 -0.3647 0
M  V30 4055 H 381.861 2.77864 -2.0161 0
M  V30 4056 N 384.306 0.507319 1.49211 0
M  V30 4057 C 385.546 -0.0332372 2.04373 0
M  V30 4058 C 385.91 -1.33694 1.37804 0
M  V30 4059 O 387.111 -1.96213 1.83722 0
M  V30 4060 C 385.382 -0.17599 3.56966 0
M  V30 4061 S 386.941 -0.669882 4.33657 0
M  V30 4062 H 383.759 0.00123603 0.710999 0
M  V30 4063 H 386.361 0.682725 1.83191 0
M  V30 4064 H 385.065 0.778053 4.02957 0
M  V30 4065 H 384.596 -0.917005 3.82563 0
M  V30 4066 H 386.611 -1.93806 4.56786 0
M  V30 4067 N 385.784 -1.5574 0.241426 0
M  V30 4068 C 387.009 -2.0366 -0.392111 0
M  V30 4069 C 387.434 -1.11969 -1.51144 0
M  V30 4070 O 386.792 -0.111594 -1.80956 0
M  V30 4071 C 386.84 -3.49638 -0.882371 0
M  V30 4072 O 385.944 -3.6108 -1.99235 0
M  V30 4073 H 385.285 -0.658379 -0.0862122 0
M  V30 4074 H 387.815 -2.01302 0.365881 0
M  V30 4075 H 387.825 -3.90351 -1.18702 0
M  V30 4076 H 386.5 -4.15852 -0.0632361 0
M  V30 4077 H 385.077 -3.32262 -1.69282 0
M  V30 4078 N 387.262 0.0317525 -1.57568 0
M  V30 4079 C 388.51 0.721676 -1.88776 0
M  V30 4080 C 388.831 1.76039 -0.838772 0
M  V30 4081 O 388.101 1.95482 0.127935 0
M  V30 4082 H 386.681 0.269534 -0.696678 0
M  V30 4083 H 389.343 -0.00165879 -1.949 0
M  V30 4084 H 388.439 1.21293 -2.87566 0
M  V30 4085 N 388.74 1.54641 0.303973 0
M  V30 4086 C 389.67 1.88386 1.3796 0
M  V30 4087 C 390.651 0.742485 1.5304 0
M  V30 4088 O 391.836 0.997959 1.66597 0
M  V30 4089 C 388.966 2.12854 2.74427 0
M  V30 4090 C 387.92 3.28702 2.74115 0
M  V30 4091 C 387.246 3.38582 4.13844 0
M  V30 4092 C 388.546 4.65881 2.3612 0
M  V30 4093 H 390.24 2.78474 1.09966 0
M  V30 4094 H 387.786 1.33988 0.527556 0
M  V30 4095 H 389.739 2.35047 3.49758 0
M  V30 4096 H 388.463 1.19535 3.03939 0
M  V30 4097 H 387.122 3.06428 2.0124 0
M  V30 4098 H 386.77 2.42784 4.40528 0
M  V30 4099 H 386.47 4.16453 4.14537 0
M  V30 4100 H 387.994 3.63031 4.90959 0
M  V30 4101 H 389.408 4.87823 3.01167 0
M  V30 4102 H 387.805 5.46444 2.48031 0
M  V30 4103 H 388.875 4.66799 1.3125 0
M  V30 4104 N 390.218 -0.567019 1.47046 0
M  V30 4105 C 391.446 -1.35027 1.56765 0
M  V30 4106 C 391.861 -1.8758 0.214316 0
M  V30 4107 O 391.218 -1.64471 -0.790919 0
M  V30 4108 C 391.269 -2.52698 2.58507 0
M  V30 4109 O 390.99 -2.0232 3.88585 0
M  V30 4110 C 392.491 -3.45043 2.78316 0
M  V30 4111 H 389.711 -0.41195 0.529658 0
M  V30 4112 H 392.255 -0.687832 1.92585 0
M  V30 4113 H 390.41 -3.149 2.25648 0
M  V30 4114 H 390.824 -2.79068 4.44096 0
M  V30 4115 H 392.298 -4.2405 3.53391 0
M  V30 4116 H 392.775 -3.97971 1.85784 0
M  V30 4117 H 393.381 -2.88665 3.12334 0
M  V30 4118 N 391.696 -1.35014 -0.812953 0
M  V30 4119 C 392.944 -1.27678 -1.56661 0
M  V30 4120 C 393.265 0.150359 -1.94419 0
M  V30 4121 O 392.535 1.08532 -1.63088 0
M  V30 4122 H 391.115 -0.469602 -0.580933 0
M  V30 4123 H 393.777 -1.69043 -0.970076 0
M  V30 4124 H 392.873 -1.88833 -2.48492 0
M  V30 4125 N 393.175 1.03435 -1.18907 0
M  V30 4126 C 394.138 2.09756 -0.923844 0
M  V30 4127 C 395.138 1.60528 0.093416 0
M  V30 4128 O 396.328 1.73631 -0.140727 0
M  V30 4129 C 393.46 3.38692 -0.387354 0
M  V30 4130 H 394.653 2.34719 -1.86674 0
M  V30 4131 H 392.206 1.19959 -1.00197 0
M  V30 4132 H 392.941 3.19396 0.561845 0
M  V30 4133 H 392.726 3.75742 -1.12074 0
M  V30 4134 H 394.216 4.17016 -0.220694 0
M  V30 4135 N 394.653 0.992116 1.22453 0
M  V30 4136 C 395.601 0.534644 2.26372 0
M  V30 4137 C 396.595 -0.414293 1.64256 0
M  V30 4138 O 397.801 -0.286899 1.77699 0
M  V30 4139 H 394.176 0.154502 0.735957 0
M  V30 4140 H 396.147 1.42256 2.62309 0
M  V30 4141 C 394.896 -0.135815 3.47435 0
M  V30 4142 H 394.219 0.585311 3.95492 0
M  V30 4143 H 395.659 -0.419374 4.21921 0
M  V30 4144 C 394.118 -1.37089 3.07747 0
M  V30 4145 O 394.648 -2.46629 3.17076 0
M  V30 4146 N 392.854 -1.24585 2.62539 0
M  V30 4147 H 392.401 -0.354542 2.55149 0
M  V30 4148 H 392.359 -2.07327 2.36353 0
M  V30 4149 N 396.131 -1.37776 0.765217 0
M  V30 4150 C 397.061 -2.32945 0.160953 0
M  V30 4151 C 398.042 -1.55454 -0.690516 0
M  V30 4152 O 399.227 -1.83721 -0.629318 0
M  V30 4153 C 396.357 -3.39669 -0.724031 0
M  V30 4154 C 395.311 -4.27992 0.0256173 0
M  V30 4155 C 394.637 -5.25673 -0.978383 0
M  V30 4156 C 395.937 -5.08309 1.20082 0
M  V30 4157 H 397.631 -2.83728 0.955969 0
M  V30 4158 H 395.177 -1.36416 0.461149 0
M  V30 4159 H 397.13 -4.05219 -1.15652 0
M  V30 4160 H 395.854 -2.87396 -1.5515 0
M  V30 4161 H 394.513 -3.63964 0.438812 0
M  V30 4162 H 394.161 -4.69682 -1.80022 0
M  V30 4163 H 393.861 -5.85625 -0.481378 0
M  V30 4164 H 395.385 -5.94098 -1.40995 0
M  V30 4165 H 396.799 -5.67034 0.845307 0
M  V30 4166 H 395.196 -5.77554 1.62947 0
M  V30 4167 H 396.266 -4.41365 2.00811 0
M  V30 4168 N 397.609 -0.515225 -1.4894 0
M  V30 4169 C 398.556 0.255567 -2.29381 0
M  V30 4170 C 399.526 0.947387 -1.36432 0
M  V30 4171 O 400.711 0.951288 -1.65394 0
M  V30 4172 C 397.851 1.30551 -3.19453 0
M  V30 4173 C 396.964 0.624029 -4.27469 0
M  V30 4174 C 396.099 1.65563 -5.0474 0
M  V30 4175 C 395.138 0.956802 -6.04576 0
M  V30 4176 N 394.275 1.93326 -6.74959 0
M  V30 4177 H 399.115 -0.436607 -2.94784 0
M  V30 4178 H 396.652 -0.227154 -1.45336 0
M  V30 4179 H 398.61 1.92639 -3.70062 0
M  V30 4180 H 397.24 1.96626 -2.56004 0
M  V30 4181 H 396.292 -0.110459 -3.8024 0
M  V30 4182 H 397.604 0.0746092 -4.98744 0
M  V30 4183 H 396.758 2.35119 -5.59289 0
M  V30 4184 H 395.497 2.23893 -4.3327 0
M  V30 4185 H 394.502 0.247097 -5.49244 0
M  V30 4186 H 395.727 0.379814 -6.78037 0
M  V30 4187 H 393.673 2.50591 -6.06251 0
M  V30 4188 H 393.59 1.43489 -7.42258 0
M  V30 4189 H 394.858 2.62126 -7.34105 0
M  V30 4190 N 399.087 1.5561 -0.249682 0
M  V30 4191 C 399.997 2.25143 0.659375 0
M  V30 4192 C 401.013 1.2685 1.19101 0
M  V30 4193 O 402.189 1.59732 1.22669 0
M  V30 4194 C 399.254 2.93945 1.8384 0
M  V30 4195 C 398.315 4.07655 1.34596 0
M  V30 4196 C 397.548 4.73167 2.46878 0
M  V30 4197 O 397.771 4.37768 3.65671 0
M  V30 4198 O 396.705 5.61623 2.16478 0
M  V30 4199 H 400.531 3.03545 0.0968698 0
M  V30 4200 H 398.116 1.49389 -0.018074 0
M  V30 4201 H 399.998 3.37271 2.52638 0
M  V30 4202 H 398.673 2.18481 2.38847 0
M  V30 4203 H 397.58 3.68839 0.625174 0
M  V30 4204 H 398.913 4.84946 0.841941 0
M  V30 4205 N 400.565 -0.0233959 1.57583 0
M  V30 4206 C 401.497 -1.04994 2.03737 0
M  V30 4207 C 402.51 -1.32125 0.951152 0
M  V30 4208 O 403.699 -1.29512 1.22837 0
M  V30 4209 C 400.799 -2.39026 2.40249 0
M  V30 4210 C 399.972 -2.31171 3.7132 0
M  V30 4211 C 399.031 -3.47698 3.94959 0
M  V30 4212 O 398.057 -3.26937 4.65941 0
M  V30 4213 N 399.259 -4.6976 3.41037 0
M  V30 4214 H 402.024 -0.656507 2.92421 0
M  V30 4215 H 399.585 -0.211235 1.60516 0
M  V30 4216 H 401.577 -3.15712 2.53196 0
M  V30 4217 H 400.147 -2.70194 1.57207 0
M  V30 4218 H 399.367 -1.39547 3.68674 0
M  V30 4219 H 400.655 -2.23071 4.57293 0
M  V30 4220 H 400.053 -4.89528 2.83512 0
M  V30 4221 H 398.61 -5.43791 3.59353 0
M  V30 4222 N 402.043 -1.548 -0.295768 0
M  V30 4223 C 403.268 -1.78653 -1.05346 0
M  V30 4224 C 403.693 -0.546894 -1.79974 0
M  V30 4225 O 403.051 0.502763 -1.7419 0
M  V30 4226 C 403.099 -2.99679 -2.00561 0
M  V30 4227 O 402.203 -2.7317 -3.08953 0
M  V30 4228 H 401.544 -0.59116 -0.302367 0
M  V30 4229 H 404.074 -2.01895 -0.331598 0
M  V30 4230 H 404.084 -3.27793 -2.42932 0
M  V30 4231 H 402.759 -3.89562 -1.4565 0
M  V30 4232 H 401.336 -2.56089 -2.71059 0
M  V30 4233 N 403.521 0.559213 -1.47345 0
M  V30 4234 C 404.798 1.31997 -1.44348 0
M  V30 4235 C 405.178 2.1064 -0.139358 0
M  V30 4236 O 404.526 2.1091 0.879153 0
M  V30 4237 C 404.736 2.22618 -2.68779 0
M  V30 4238 C 406.084 2.83701 -3.1591 0
M  V30 4239 O 407.108 2.32921 -2.69493 0
M  V30 4240 O 405.967 3.75993 -3.966 0
M  V30 4241 H 403.061 0.594251 -0.575147 0
M  V30 4242 H 405.607 0.578282 -1.59543 0
M  V30 4243 H 404.379 1.64093 -3.55231 0
M  V30 4244 H 404.002 3.04085 -2.5616 0
M  V30 4245 N 404.999 1.35443 0.805782 0
M  V30 4246 C 406.246 1.28761 1.56291 0
M  V30 4247 C 406.574 -0.137747 1.94012 0
M  V30 4248 O 405.829 -1.1032 1.61642 0
M  V30 4249 C 406.128 2.14045 2.86216 0
M  V30 4250 C 405.794 3.62826 2.67709 0
M  V30 4251 C 404.456 4.0338 2.6237 0
M  V30 4252 C 406.808 4.57227 2.50186 0
M  V30 4253 C 404.136 5.36501 2.37451 0
M  V30 4254 C 406.488 5.90547 2.26797 0
M  V30 4255 C 405.152 6.30245 2.1988 0
M  V30 4256 H 404.422 0.471171 0.571908 0
M  V30 4257 H 407.069 1.67347 0.930974 0
M  V30 4258 H 405.374 1.68342 3.53791 0
M  V30 4259 H 407.071 2.0621 3.43917 0
M  V30 4260 H 403.661 3.30644 2.72713 0
M  V30 4261 H 407.845 4.2678 2.53323 0
M  V30 4262 H 403.101 5.66259 2.30567 0
M  V30 4263 H 407.275 6.63274 2.12228 0
M  V30 4264 H 404.902 7.33328 2.00333 0
M  V30 4265 N 406.477 -1.02803 1.19454 0
M  V30 4266 C 407.717 -1.77769 1.00883 0
M  V30 4267 C 408.081 -1.86596 -0.45233 0
M  V30 4268 O 409.282 -2.57895 -0.757877 0
M  V30 4269 C 407.553 -3.16486 1.66046 0
M  V30 4270 S 409.112 -4.07632 1.62424 0
M  V30 4271 H 405.93 -0.611949 0.361993 0
M  V30 4272 H 408.532 -1.23175 1.51816 0
M  V30 4273 H 407.236 -3.0768 2.7159 0
M  V30 4274 H 406.767 -3.76156 1.15196 0
M  V30 4275 H 408.782 -4.91937 0.64903 0
M  V30 4276 N 407.956 -0.998596 -1.21925 0
M  V30 4277 C 409.367 -0.711939 -1.72593 0
M  V30 4278 C 409.718 0.770842 -1.80423 0
M  V30 4279 O 408.843 1.60237 -1.4544 0
M  V30 4280 C 409.438 -1.28567 -3.13458 0
M  V30 4281 C 407.997 -1.04828 -3.61508 0
M  V30 4282 C 407.144 -1.4024 -2.39224 0
M  V30 4283 H 410.095 -1.17027 -1.07193 0
M  V30 4284 H 410.116 -0.667098 -3.74607 0
M  V30 4285 H 409.628 -2.36486 -3.07727 0
M  V30 4286 H 407.729 0.0140383 -3.72597 0
M  V30 4287 H 407.842 -1.71566 -4.47328 0
M  V30 4288 H 406.206 -0.821077 -2.41103 0
M  V30 4289 H 406.989 -2.49176 -2.36149 0
M  V30 4290 N 409.434 1.37368 -0.772513 0
M  V30 4291 C 410.68 2.00423 -0.3467 0
M  V30 4292 C 411.035 1.60224 1.06518 0
M  V30 4293 O 410.328 0.838712 1.72268 0
M  V30 4294 C 410.522 3.54817 -0.428876 0
M  V30 4295 C 410.351 4.10011 -1.84719 0
M  V30 4296 C 409.121 4.40927 -2.46803 0
M  V30 4297 C 411.319 4.30955 -2.80681 0
M  V30 4298 N 409.301 4.8184 -3.80399 0
M  V30 4299 C 410.672 4.74486 -3.99078 0
M  V30 4300 C 412.727 4.1309 -2.77958 0
M  V30 4301 C 411.43 5.02023 -5.15136 0
M  V30 4302 C 413.456 4.41764 -3.9319 0
M  V30 4303 C 412.818 4.85535 -5.10328 0
M  V30 4304 H 408.917 0.762413 -0.173927 0
M  V30 4305 H 411.501 1.66666 -1.00651 0
M  V30 4306 H 409.672 3.87881 0.200757 0
M  V30 4307 H 411.404 4.04696 0.0190668 0
M  V30 4308 H 408.159 4.30033 -1.98415 0
M  V30 4309 H 408.583 5.06604 -4.49089 0
M  V30 4310 H 413.225 3.7842 -1.88568 0
M  V30 4311 H 410.943 5.35582 -6.05126 0
M  V30 4312 H 414.529 4.29528 -3.92425 0
M  V30 4313 H 413.409 5.07296 -5.98013 0
M  V30 4314 N 410.912 0.523116 1.48665 0
M  V30 4315 C 412.142 -0.00961724 2.06598 0
M  V30 4316 C 412.55 -1.29333 1.38093 0
M  V30 4317 O 411.893 -1.77846 0.46007 0
M  V30 4318 C 411.955 -0.311135 3.58151 0
M  V30 4319 C 411.619 0.878092 4.48485 0
M  V30 4320 C 412.616 1.77464 4.88674 0
M  V30 4321 C 410.301 1.08315 4.90483 0
M  V30 4322 C 412.295 2.86021 5.69623 0
M  V30 4323 C 409.982 2.17187 5.71203 0
M  V30 4324 C 410.98 3.05873 6.10681 0
M  V30 4325 O 410.668 4.12862 6.89783 0
M  V30 4326 H 410.4 0.0272658 0.67545 0
M  V30 4327 H 412.954 0.726156 1.92136 0
M  V30 4328 H 411.184 -1.10079 3.70701 0
M  V30 4329 H 412.873 -0.785125 3.98234 0
M  V30 4330 H 413.639 1.62813 4.56855 0
M  V30 4331 H 409.518 0.402149 4.59243 0
M  V30 4332 H 413.062 3.55272 6.00356 0
M  V30 4333 H 408.959 2.31824 6.02435 0
M  V30 4334 H 409.727 4.10487 7.08126 0
M  V30 4335 N 412.39 -1.55475 0.257931 0
M  V30 4336 C 413.639 -1.98383 -0.364275 0
M  V30 4337 C 413.952 -1.14952 -1.58258 0
M  V30 4338 O 415.158 -1.47924 -2.27664 0
M  V30 4339 C 413.614 -3.53037 -0.699479 0
M  V30 4340 C 413.222 -4.45223 0.498046 0
M  V30 4341 C 414.966 -4.04575 -1.28526 0
M  V30 4342 C 412.873 -5.91238 0.138383 0
M  V30 4343 H 411.803 -0.740911 -0.13988 0
M  V30 4344 H 414.454 -1.79936 0.359883 0
M  V30 4345 H 412.836 -3.6722 -1.48207 0
M  V30 4346 H 414.01 -4.42803 1.27522 0
M  V30 4347 H 412.325 -4.04226 0.999503 0
M  V30 4348 H 414.922 -5.11196 -1.56788 0
M  V30 4349 H 415.265 -3.5258 -2.21344 0
M  V30 4350 H 415.798 -3.93762 -0.565337 0
M  V30 4351 H 412.537 -6.47294 1.03398 0
M  V30 4352 H 412.057 -5.96768 -0.602374 0
M  V30 4353 H 413.736 -6.46413 -0.27553 0
M  V30 4354 N 413.868 0.0150385 -1.57593 0
M  V30 4355 C 415.116 0.701613 -1.8953 0
M  V30 4356 C 415.437 1.75139 -0.857396 0
M  V30 4357 O 414.707 1.95607 0.107194 0
M  V30 4358 H 413.287 0.26213 -0.699498 0
M  V30 4359 H 415.949 -0.0223304 -1.94887 0
M  V30 4360 H 415.045 1.18236 -2.88837 0
M  V30 4361 N 415.346 1.54954 0.287554 0
M  V30 4362 C 416.276 1.89839 1.35954 0
M  V30 4363 C 417.257 0.758675 1.52244 0
M  V30 4364 O 418.442 1.01557 1.65529 0
M  V30 4365 C 415.572 2.15753 2.72154 0
M  V30 4366 C 414.526 3.3159 2.70614 0
M  V30 4367 C 413.852 3.42952 4.10229 0
M  V30 4368 C 415.152 4.68359 2.31165 0
M  V30 4369 H 416.846 2.79625 1.07007 0
M  V30 4370 H 414.392 1.3454 0.513316 0
M  V30 4371 H 416.345 2.38743 3.47246 0
M  V30 4372 H 415.069 1.22752 3.02654 0
M  V30 4373 H 413.728 3.08545 1.97979 0
M  V30 4374 H 413.376 2.47443 4.37928 0
M  V30 4375 H 413.076 4.20826 4.10097 0
M  V30 4376 H 414.6 3.68218 4.87081 0
M  V30 4377 H 416.014 4.9099 2.95976 0
M  V30 4378 H 414.411 5.49044 2.42221 0
M  V30 4379 H 415.481 4.68165 1.26291 0
M  V30 4380 N 416.824 -0.551391 1.4764 0
M  V30 4381 C 418.235 -1.13349 1.48354 0
M  V30 4382 C 418.586 -1.94709 0.241432 0
M  V30 4383 O 417.711 -2.06306 -0.653205 0
M  V30 4384 C 418.306 -2.0623 2.68802 0
M  V30 4385 C 416.865 -2.597 2.72457 0
M  V30 4386 C 416.012 -1.36201 2.41546 0
M  V30 4387 H 418.963 -0.337698 1.55065 0
M  V30 4388 H 418.984 -2.90196 2.46103 0
M  V30 4389 H 418.496 -1.46987 3.59188 0
M  V30 4390 H 416.597 -3.22724 1.86225 0
M  V30 4391 H 416.71 -3.00296 3.73308 0
M  V30 4392 H 415.074 -1.67068 1.9225 0
M  V30 4393 H 415.857 -0.787425 3.34147 0
M  V30 4394 N 418.302 -1.35869 -0.798587 0
M  V30 4395 C 419.549 -1.29588 -1.55606 0
M  V30 4396 C 419.877 0.127456 -1.94082 0
M  V30 4397 O 419.132 1.09461 -1.62225 0
M  V30 4398 C 419.431 -2.1556 -2.85077 0
M  V30 4399 C 419.097 -3.6424 -2.65781 0
M  V30 4400 C 417.759 -4.04766 -2.60227 0
M  V30 4401 C 420.111 -4.58547 -2.47758 0
M  V30 4402 C 417.439 -5.37753 -2.34603 0
M  V30 4403 C 419.791 -5.91742 -2.23662 0
M  V30 4404 C 418.455 -6.31402 -2.16534 0
M  V30 4405 H 417.725 -0.474197 -0.569402 0
M  V30 4406 H 420.372 -1.67839 -0.922086 0
M  V30 4407 H 418.677 -1.70216 -3.52893 0
M  V30 4408 H 420.374 -2.08031 -3.42818 0
M  V30 4409 H 416.964 -3.32086 -2.70956 0
M  V30 4410 H 421.148 -4.28117 -2.51056 0
M  V30 4411 H 416.404 -5.67474 -2.2756 0
M  V30 4412 H 420.578 -6.6439 -2.08708 0
M  V30 4413 H 418.205 -7.34381 -1.96441 0
M  V30 4414 N 419.78 1.02168 -1.19998 0
M  V30 4415 C 421.029 1.75091 -1.0013 0
M  V30 4416 C 421.342 1.89923 0.467835 0
M  V30 4417 O 422.548 2.59888 0.785515 0
M  V30 4418 C 421.004 3.14892 -1.74273 0
M  V30 4419 C 420.612 3.0809 -3.25245 0
M  V30 4420 C 422.356 3.9206 -1.62755 0
M  V30 4421 C 420.263 4.42867 -3.91948 0
M  V30 4422 H 419.193 0.656394 -0.37103 0
M  V30 4423 H 421.844 1.14284 -1.43567 0
M  V30 4424 H 420.226 3.7621 -1.2362 0
M  V30 4425 H 421.4 2.5611 -3.83072 0
M  V30 4426 H 419.715 2.44416 -3.3712 0
M  V30 4427 H 422.312 4.91764 -2.09934 0
M  V30 4428 H 422.655 4.12199 -0.582894 0
M  V30 4429 H 423.188 3.37359 -2.10793 0
M  V30 4430 H 419.927 4.27931 -4.96543 0
M  V30 4431 H 419.447 4.94874 -3.3891 0
M  V30 4432 H 421.126 5.11728 -3.95909 0
M  V30 4433 N 421.258 1.00505 1.21394 0
M  V30 4434 C 422.669 0.721082 1.72213 0
M  V30 4435 C 423.02 -0.761263 1.80829 0
M  V30 4436 O 422.145 -1.59464 1.46288 0
M  V30 4437 C 422.74 1.30228 3.12772 0
M  V30 4438 C 421.299 1.06743 3.60947 0
M  V30 4439 C 420.446 1.41507 2.38477 0
M  V30 4440 H 423.397 1.17594 1.06571 0
M  V30 4441 H 423.418 0.686955 3.74247 0
M  V30 4442 H 422.93 2.38115 3.06468 0
M  V30 4443 H 421.031 0.00572162 3.726 0
M  V30 4444 H 421.144 1.73936 4.46411 0
M  V30 4445 H 419.508 0.833852 2.40664 0
M  V30 4446 H 420.291 2.50424 2.34824 0
M  V30 4447 N 422.737 -1.36956 0.779787 0
M  V30 4448 C 423.967 -2.03459 0.358877 0
M  V30 4449 C 424.375 -1.58939 -1.02641 0
M  V30 4450 O 423.718 -0.769777 -1.66794 0
M  V30 4451 C 423.78 -3.5796 0.332393 0
M  V30 4452 C 423.444 -4.25644 1.66362 0
M  V30 4453 C 424.441 -4.49205 2.61746 0
M  V30 4454 C 422.126 -4.63313 1.94027 0
M  V30 4455 C 424.12 -5.09503 3.82996 0
M  V30 4456 C 421.807 -5.2333 3.15546 0
M  V30 4457 C 422.805 -5.46363 4.0985 0
M  V30 4458 O 422.493 -6.05122 5.29228 0
M  V30 4459 H 422.225 -0.659767 0.147254 0
M  V30 4460 H 424.779 -1.76111 1.05708 0
M  V30 4461 H 423.009 -3.84388 -0.422237 0
M  V30 4462 H 424.698 -4.05852 -0.0625389 0
M  V30 4463 H 425.464 -4.20508 2.41657 0
M  V30 4464 H 421.343 -4.44715 1.21448 0
M  V30 4465 H 424.887 -5.27397 4.56617 0
M  V30 4466 H 420.784 -5.51451 3.35517 0
M  V30 4467 H 421.552 -6.23595 5.30161 0
M  V30 4468 N 424.215 -0.530993 -1.48385 0
M  V30 4469 C 425.145 0.219985 -2.32461 0
M  V30 4470 C 426.126 0.934111 -1.42156 0
M  V30 4471 O 427.311 0.919694 -1.71042 0
M  V30 4472 C 424.441 1.26674 -3.23375 0
M  V30 4473 C 423.395 0.67069 -4.22712 0
M  V30 4474 C 422.721 1.82017 -5.02766 0
M  V30 4475 C 424.021 -0.358268 -5.2107 0
M  V30 4476 H 425.715 -0.48187 -2.95497 0
M  V30 4477 H 423.261 -0.233182 -1.42099 0
M  V30 4478 H 425.214 1.80006 -3.81019 0
M  V30 4479 H 423.938 1.99818 -2.58341 0
M  V30 4480 H 422.597 0.158878 -3.66256 0
M  V30 4481 H 422.245 2.54002 -4.34157 0
M  V30 4482 H 421.945 1.42727 -5.70003 0
M  V30 4483 H 423.469 2.35725 -5.63264 0
M  V30 4484 H 424.883 0.0880081 -5.73232 0
M  V30 4485 H 423.28 -0.66861 -5.96364 0
M  V30 4486 H 424.35 -1.26367 -4.68145 0
M  V30 4487 N 425.693 1.55336 -0.266172 0
M  V30 4488 C 426.97 1.91372 0.404486 0
M  V30 4489 C 427.35 1.18935 1.74407 0
M  V30 4490 O 426.698 0.3132 2.26343 0
M  V30 4491 C 426.908 3.44581 0.553593 0
M  V30 4492 C 428.256 4.16196 0.840618 0
M  V30 4493 O 429.28 3.50426 0.638739 0
M  V30 4494 O 428.139 5.32567 1.22618 0
M  V30 4495 H 425.233 0.797194 0.220025 0
M  V30 4496 H 427.779 1.66813 -0.311664 0
M  V30 4497 H 426.551 3.89357 -0.389498 0
M  V30 4498 H 426.174 3.75065 1.31955 0
M  V30 4499 N 427.171 -0.0066808 1.57599 0
M  V30 4500 C 428.119 -1.01851 2.09115 0
M  V30 4501 C 429.113 -1.36021 1.00969 0
M  V30 4502 O 430.319 -1.34663 1.19439 0
M  V30 4503 H 426.694 -0.346083 0.667631 0
M  V30 4504 H 428.665 -0.558394 2.93129 0
M  V30 4505 C 427.414 -2.30374 2.60429 0
M  V30 4506 H 426.737 -2.04947 3.43273 0
M  V30 4507 H 428.177 -2.99466 3.00161 0
M  V30 4508 C 426.636 -3.00893 1.51542 0
M  V30 4509 O 427.166 -3.91614 0.894484 0
M  V30 4510 N 425.372 -2.62603 1.2445 0
M  V30 4511 H 424.919 -1.88911 1.75129 0
M  V30 4512 H 424.877 -3.10101 0.518137 0
M  V30 4513 N 428.649 -1.55105 -0.279332 0
M  V30 4514 C 429.579 -1.90557 -1.34945 0
M  V30 4515 C 430.56 -0.766738 -1.51839 0
M  V30 4516 O 431.745 -1.02434 -1.64988 0
M  V30 4517 C 428.875 -2.17193 -2.71006 0
M  V30 4518 C 427.829 -3.33021 -2.68851 0
M  V30 4519 C 427.155 -3.45123 -4.08405 0
M  V30 4520 C 428.455 -4.69578 -2.28678 0
M  V30 4521 H 430.149 -2.80188 -1.05522 0
M  V30 4522 H 427.695 -1.34811 -0.506173 0
M  V30 4523 H 429.648 -2.40581 -3.45975 0
M  V30 4524 H 428.372 -1.24355 -3.01999 0
M  V30 4525 H 427.031 -3.0959 -1.9634 0
M  V30 4526 H 426.679 -2.49762 -4.3661 0
M  V30 4527 H 426.379 -4.22995 -4.07859 0
M  V30 4528 H 427.903 -3.70796 -4.85121 0
M  V30 4529 H 429.317 -4.92553 -2.93368 0
M  V30 4530 H 427.714 -5.5032 -2.39306 0
M  V30 4531 H 428.784 -4.68828 -1.23807 0
M  V30 4532 N 430.127 0.543554 -1.4793 0
M  V30 4533 C 431.538 1.12561 -1.48953 0
M  V30 4534 C 431.889 1.94578 -0.251754 0
M  V30 4535 O 431.014 2.0665 0.642255 0
M  V30 4536 C 431.609 2.04801 -2.69892 0
M  V30 4537 C 430.168 2.58251 -2.73831 0
M  V30 4538 C 429.315 1.34918 -2.42265 0
M  V30 4539 H 432.266 0.32947 -1.55242 0
M  V30 4540 H 432.287 2.88886 -2.47639 0
M  V30 4541 H 431.799 1.4508 -3.59963 0
M  V30 4542 H 429.9 3.21732 -1.87934 0
M  V30 4543 H 430.013 2.98312 -3.74895 0
M  V30 4544 H 428.377 1.66046 -1.93134 0
M  V30 4545 H 429.16 0.769693 -3.3456 0
M  V30 4546 N 431.605 1.3629 0.791371 0
M  V30 4547 C 432.553 1.30514 1.92533 0
M  V30 4548 C 433.547 0.197285 1.68247 0
M  V30 4549 O 434.753 0.364176 1.76278 0
M  V30 4550 H 431.128 0.406263 0.632815 0
M  V30 4551 H 433.099 2.26282 1.94523 0
M  V30 4552 C 431.848 1.10933 3.29529 0
M  V30 4553 H 431.171 1.95427 3.48781 0
M  V30 4554 H 432.611 1.10937 4.0923 0
M  V30 4555 C 431.07 -0.186123 3.36385 0
M  V30 4556 O 431.6 -1.17664 3.84081 0
M  V30 4557 N 429.806 -0.230128 2.89687 0
M  V30 4558 H 429.353 0.576545 2.51065 0
M  V30 4559 H 429.311 -1.09658 2.94657 0
M  V30 4560 N 433.083 -1.0153 1.20538 0
M  V30 4561 C 434.33 -1.75149 1.01633 0
M  V30 4562 C 434.658 -1.89189 -0.451399 0
M  V30 4563 O 433.913 -1.41551 -1.35136 0
M  V30 4564 C 434.212 -3.17213 1.64654 0
M  V30 4565 C 433.878 -3.23146 3.14464 0
M  V30 4566 C 432.54 -3.24472 3.55347 0
M  V30 4567 C 434.892 -3.21207 4.10458 0
M  V30 4568 C 432.22 -3.21532 4.90748 0
M  V30 4569 C 434.572 -3.19808 5.45807 0
M  V30 4570 C 433.236 -3.19439 5.86102 0
M  V30 4571 H 432.506 -0.640914 0.3719 0
M  V30 4572 H 435.153 -1.19071 1.49981 0
M  V30 4573 H 433.458 -3.76457 1.08571 0
M  V30 4574 H 435.155 -3.72871 1.4754 0
M  V30 4575 H 431.745 -3.2285 2.81897 0
M  V30 4576 H 435.929 -3.19351 3.79906 0
M  V30 4577 H 431.185 -3.19578 5.21229 0
M  V30 4578 H 435.359 -3.1726 6.19935 0
M  V30 4579 H 432.986 -3.16915 6.90991 0
M  V30 4580 N 434.561 -1.01147 -1.20859 0
M  V30 4581 C 435.509 -0.57059 -2.25493 0
M  V30 4582 C 436.503 0.388109 -1.64894 0
M  V30 4583 O 437.709 0.258592 -1.78133 0
M  V30 4584 H 434.084 -0.166191 -0.733406 0
M  V30 4585 H 436.055 -1.46411 -2.60012 0
M  V30 4586 C 434.804 0.0805241 -3.47607 0
M  V30 4587 H 434.127 -0.648156 -3.94511 0
M  V30 4588 H 435.567 0.352197 -4.22535 0
M  V30 4589 C 434.026 1.32175 -3.09889 0
M  V30 4590 O 434.556 2.41553 -3.20959 0
M  V30 4591 N 432.762 1.20392 -2.64488 0
M  V30 4592 H 432.309 0.313905 -2.5568 0
M  V30 4593 H 432.267 2.03541 -2.39621 0
M  V30 4594 N 436.039 1.36541 -0.78704 0
M  V30 4595 C 437.455 1.52571 -0.46844 0
M  V30 4596 C 437.655 1.7415 1.01361 0
M  V30 4597 O 436.711 1.77163 1.79915 0
M  V30 4598 C 438.024 2.71299 -1.29682 0
M  V30 4599 C 439.572 2.85169 -1.29027 0
M  V30 4600 C 440.047 4.06898 -2.10233 0
M  V30 4601 N 441.538 4.1404 -2.07666 0
M  V30 4602 C 442.273 5.07301 -2.67271 0
M  V30 4603 N 441.769 6.06021 -3.35724 0
M  V30 4604 N 443.562 4.99898 -2.57018 0
M  V30 4605 H 435.713 1.20788 -1.74711 0
M  V30 4606 H 437.976 0.589364 -0.742532 0
M  V30 4607 H 437.682 2.61868 -2.34773 0
M  V30 4608 H 437.556 3.6539 -0.936479 0
M  V30 4609 H 439.943 2.94062 -0.247284 0
M  V30 4610 H 440.024 1.91992 -1.69035 0
M  V30 4611 H 439.668 3.98766 -3.1456 0
M  V30 4612 H 439.598 4.99218 -1.67597 0
M  V30 4613 H 442.089 3.43357 -1.57843 0
M  V30 4614 H 442.402 6.73741 -3.78541 0
M  V30 4615 H 440.747 6.06253 -3.39826 0
M  V30 4616 H 443.938 4.21724 -2.03142 0
M  V30 4617 H 444.111 5.72392 -3.03761 0
M  V30 4618 N 437.518 0.538854 1.48102 0
M  V30 4619 C 438.743 0.0102694 2.07397 0
M  V30 4620 C 439.168 -1.26562 1.39153 0
M  V30 4621 O 438.526 -1.75357 0.460387 0
M  V30 4622 C 438.574 -0.187602 3.60112 0
M  V30 4623 O 437.678 -1.25432 3.92862 0
M  V30 4624 H 437.019 0.0430975 0.6626 0
M  V30 4625 H 439.549 0.749301 1.90385 0
M  V30 4626 H 439.559 -0.407517 4.0596 0
M  V30 4627 H 438.234 0.744386 4.09184 0
M  V30 4628 H 436.811 -1.01636 3.58782 0
M  V30 4629 N 438.996 -1.55193 0.274407 0
M  V30 4630 C 440.242 -1.99877 -0.343086 0
M  V30 4631 C 440.575 -1.16256 -1.55558 0
M  V30 4632 O 439.85 -0.232462 -1.93106 0
M  V30 4633 C 440.133 -3.52706 -0.725965 0
M  V30 4634 C 439.986 -4.47081 0.493818 0
M  V30 4635 C 441.305 -4.11422 -1.56268 0
M  V30 4636 H 438.424 -0.726625 -0.123229 0
M  V30 4637 H 441.066 -1.86136 0.38121 0
M  V30 4638 H 439.216 -3.64546 -1.34307 0
M  V30 4639 H 440.888 -4.47186 1.13237 0
M  V30 4640 H 439.131 -4.1877 1.13201 0
M  V30 4641 H 439.802 -5.51699 0.18217 0
M  V30 4642 H 442.278 -4.02855 -1.04151 0
M  V30 4643 H 441.154 -5.18568 -1.79939 0
M  V30 4644 H 441.415 -3.61607 -2.54348 0
M  V30 4645 N 440.474 -0.00167713 -1.576 0
M  V30 4646 C 441.751 0.719951 -1.81868 0
M  V30 4647 C 442.131 1.91895 -0.879747 0
M  V30 4648 O 441.479 2.28389 0.0711423 0
M  V30 4649 C 441.689 1.12409 -3.30402 0
M  V30 4650 C 443.037 1.52724 -3.96182 0
M  V30 4651 O 444.061 1.21784 -3.34734 0
M  V30 4652 O 442.92 2.10265 -5.04431 0
M  V30 4653 H 440.014 0.350707 -0.748955 0
M  V30 4654 H 442.56 -0.0272597 -1.69678 0
M  V30 4655 H 441.332 0.269532 -3.90371 0
M  V30 4656 H 440.955 1.93035 -3.47596 0
M  V30 4657 N 441.952 1.55251 0.271103 0
M  V30 4658 C 443.2 1.75599 1.00047 0
M  V30 4659 C 443.521 0.561188 1.8675 0
M  V30 4660 O 442.791 -0.423846 1.9126 0
M  V30 4661 H 441.371 0.647562 0.372387 0
M  V30 4662 H 444.033 1.92656 0.294876 0
M  V30 4663 H 443.129 2.65766 1.6363 0
M  V30 4664 N 443.43 -0.535701 1.48216 0
M  V30 4665 C 444.841 -1.11769 1.49548 0
M  V30 4666 C 445.192 -1.94442 0.26207 0
M  V30 4667 O 444.317 -2.06987 -0.631287 0
M  V30 4668 C 444.912 -2.03367 2.70975 0
M  V30 4669 C 443.471 -2.56795 2.75196 0
M  V30 4670 C 442.618 -1.33631 2.42977 0
M  V30 4671 H 445.569 -0.321232 1.55415 0
M  V30 4672 H 445.59 -2.87569 2.49167 0
M  V30 4673 H 445.102 -1.43169 3.60727 0
M  V30 4674 H 443.203 -3.20731 1.89638 0
M  V30 4675 H 443.316 -2.9632 3.76472 0
M  V30 4676 H 441.68 -1.6502 1.94012 0
M  V30 4677 H 442.463 -0.75194 3.34964 0
M  V30 4678 N 444.908 -1.36708 -0.784132 0
M  V30 4679 C 446.157 -1.30559 -1.53744 0
M  V30 4680 C 446.47 0.111374 -1.95283 0
M  V30 4681 O 447.676 0.29527 -2.6989 0
M  V30 4682 C 446.132 -2.29098 -2.77565 0
M  V30 4683 C 445.74 -3.76258 -2.43174 0
M  V30 4684 C 447.484 -2.31936 -3.55536 0
M  V30 4685 C 445.391 -4.6656 -3.63422 0
M  V30 4686 H 444.321 -0.48518 -0.577162 0
M  V30 4687 H 446.972 -1.62101 -0.859981 0
M  V30 4688 H 445.354 -1.90557 -3.47137 0
M  V30 4689 H 446.528 -4.23565 -1.81465 0
M  V30 4690 H 444.843 -3.76246 -1.78403 0
M  V30 4691 H 447.44 -2.9661 -4.44889 0
M  V30 4692 H 447.783 -1.3294 -3.94503 0
M  V30 4693 H 448.316 -2.6912 -2.92949 0
M  V30 4694 H 445.055 -5.66638 -3.29547 0
M  V30 4695 H 444.575 -4.23966 -4.24279 0
M  V30 4696 H 446.254 -4.8309 -4.30387 0
M  V30 4697 N 446.386 1.0089 -1.21074 0
M  V30 4698 C 447.802 1.2695 -0.967257 0
M  V30 4699 C 448.002 1.9846 0.348673 0
M  V30 4700 O 447.058 2.28459 1.0753 0
M  V30 4701 C 448.371 2.09697 -2.15517 0
M  V30 4702 C 449.919 2.22937 -2.197 0
M  V30 4703 C 450.394 3.09064 -3.37999 0
M  V30 4704 N 451.885 3.16653 -3.38061 0
M  V30 4705 C 452.62 3.8354 -4.26245 0
M  V30 4706 N 452.116 4.52488 -5.2462 0
M  V30 4707 N 453.909 3.80141 -4.14064 0
M  V30 4708 H 446.06 0.529005 -2.05707 0
M  V30 4709 H 448.323 0.296148 -0.900556 0
M  V30 4710 H 448.029 1.64497 -3.10859 0
M  V30 4711 H 447.903 3.10444 -2.14253 0
M  V30 4712 H 450.29 2.67357 -1.24916 0
M  V30 4713 H 450.371 1.21673 -2.2501 0
M  V30 4714 H 450.015 2.65347 -4.33074 0
M  V30 4715 H 449.945 4.10433 -3.29928 0
M  V30 4716 H 452.436 2.67566 -2.66865 0
M  V30 4717 H 452.749 5.01219 -5.88217 0
M  V30 4718 H 451.094 4.51288 -5.28549 0
M  V30 4719 H 454.285 3.25427 -3.36474 0
M  V30 4720 H 454.458 4.31992 -4.82998 0
M  V30 4721 N 447.864 1.01787 1.20321 0
M  V30 4722 C 448.794 0.609625 2.25401 0
M  V30 4723 C 449.775 -0.375951 1.65893 0
M  V30 4724 O 450.96 -0.261101 1.92437 0
M  V30 4725 C 448.09 -0.0515995 3.47262 0
M  V30 4726 C 447.044 0.855095 4.19371 0
M  V30 4727 C 446.37 0.0595757 5.34667 0
M  V30 4728 C 447.67 2.16374 4.75373 0
M  V30 4729 H 449.364 1.48803 2.59804 0
M  V30 4730 H 446.91 0.716934 1.24884 0
M  V30 4731 H 448.863 -0.348764 4.19954 0
M  V30 4732 H 447.587 -0.964726 3.12027 0
M  V30 4733 H 446.246 1.13628 3.48546 0
M  V30 4734 H 445.894 -0.85524 4.95676 0
M  V30 4735 H 445.594 0.663406 5.83843 0
M  V30 4736 H 447.118 -0.231105 6.10162 0
M  V30 4737 H 448.532 1.92885 5.39878 0
M  V30 4738 H 446.929 2.71853 5.34991 0
M  V30 4739 H 447.999 2.82589 3.94045 0
M  V30 4740 N 449.342 -1.36122 0.79427 0
M  V30 4741 C 450.753 -1.81646 0.431446 0
M  V30 4742 C 451.104 -1.66043 -1.04518 0
M  V30 4743 O 450.229 -1.1841 -1.8113 0
M  V30 4744 C 450.824 -3.29785 0.776341 0
M  V30 4745 C 449.383 -3.73501 0.466282 0
M  V30 4746 C 448.53 -2.58313 1.00844 0
M  V30 4747 H 451.481 -1.24274 0.986995 0
M  V30 4748 H 451.502 -3.80437 0.0692413 0
M  V30 4749 H 451.014 -3.4111 1.8511 0
M  V30 4750 H 449.115 -3.67733 -0.600245 0
M  V30 4751 H 449.228 -4.68754 0.990288 0
M  V30 4752 H 447.592 -2.5102 0.431406 0
M  V30 4753 H 448.375 -2.72421 2.08906 0
M  V30 4754 N 450.82 -0.546701 -1.47814 0
M  V30 4755 C 452.069 -0.0166497 -2.01693 0
M  V30 4756 C 452.382 1.33721 -1.42752 0
M  V30 4757 O 453.588 1.95658 -1.8823 0
M  V30 4758 C 452.044 0.0206769 -3.59894 0
M  V30 4759 C 451.652 -1.3293 -4.27824 0
M  V30 4760 C 453.396 0.498674 -4.21561 0
M  V30 4761 C 451.303 -1.25165 -5.78003 0
M  V30 4762 H 450.233 -0.0024541 -0.753996 0
M  V30 4763 H 452.884 -0.692984 -1.69912 0
M  V30 4764 H 451.266 0.76244 -3.88591 0
M  V30 4765 H 452.44 -2.08795 -4.10781 0
M  V30 4766 H 450.755 -1.74438 -3.78101 0
M  V30 4767 H 453.352 0.575 -5.31599 0
M  V30 4768 H 453.695 1.5083 -3.88016 0
M  V30 4769 H 454.228 -0.18791 -3.97356 0
M  V30 4770 H 450.967 -2.23695 -6.1615 0
M  V30 4771 H 450.487 -0.53464 -5.97412 0
M  V30 4772 H 452.166 -0.949299 -6.39998 0
M  V30 4773 N 452.299 1.55045 -0.282633 0
M  V30 4774 C 453.545 2.00056 0.332481 0
M  V30 4775 C 453.878 1.1708 1.54939 0
M  V30 4776 O 453.153 0.2427 1.9298 0
M  V30 4777 C 453.436 3.53086 0.70725 0
M  V30 4778 C 453.289 4.46813 -0.517521 0
M  V30 4779 C 454.608 4.12245 1.54084 0
M  V30 4780 H 451.727 0.727268 0.119373 0
M  V30 4781 H 454.369 1.85932 -0.391076 0
M  V30 4782 H 452.519 3.65253 1.32372 0
M  V30 4783 H 454.191 4.46579 -1.15607 0
M  V30 4784 H 452.434 4.18163 -1.1542 0
M  V30 4785 H 453.105 5.51595 -0.211426 0
M  V30 4786 H 455.581 4.03401 1.02013 0
M  V30 4787 H 454.457 5.19515 1.77186 0
M  V30 4788 H 454.718 3.62951 2.52427 0
M  V30 4789 N 453.777 0.010035 1.57597 0
M  V30 4790 C 455.054 -0.710296 1.82248 0
M  V30 4791 C 455.434 -1.91426 0.889911 0
M  V30 4792 O 454.782 -2.28424 -0.0590292 0
M  V30 4793 C 454.992 -1.10655 3.30993 0
M  V30 4794 C 456.34 -1.50621 3.96987 0
M  V30 4795 O 457.364 -1.20007 3.35375 0
M  V30 4796 O 456.223 -2.07587 5.05539 0
M  V30 4797 H 453.317 -0.34673 0.750804 0
M  V30 4798 H 455.863 0.0362578 1.69661 0
M  V30 4799 H 454.635 -0.248826 3.90508 0
M  V30 4800 H 454.258 -1.91189 3.48615 0
M  V30 4801 N 455.255 -1.55392 -0.262866 0
M  V30 4802 C 456.202 -1.88966 -1.32516 0
M  V30 4803 C 457.172 -0.742187 -1.48596 0
M  V30 4804 O 458.357 -0.99439 -1.62839 0
M  V30 4805 C 455.497 -2.17592 -2.67858 0
M  V30 4806 C 454.61 -3.45061 -2.59917 0
M  V30 4807 C 453.745 -3.63336 -3.87505 0
M  V30 4808 C 452.784 -4.84462 -3.74116 0
M  V30 4809 N 451.921 -4.99342 -4.93561 0
M  V30 4810 H 456.761 -2.79566 -1.03184 0
M  V30 4811 H 454.298 -1.38404 -0.498285 0
M  V30 4812 H 456.256 -2.3219 -3.46617 0
M  V30 4813 H 454.886 -1.30215 -2.95371 0
M  V30 4814 H 453.938 -3.38881 -1.72812 0
M  V30 4815 H 455.25 -4.3396 -2.45926 0
M  V30 4816 H 454.404 -3.77807 -4.74707 0
M  V30 4817 H 453.143 -2.72641 -4.04374 0
M  V30 4818 H 452.148 -4.69985 -2.85297 0
M  V30 4819 H 453.373 -5.76603 -3.58757 0
M  V30 4820 H 451.319 -4.1158 -5.10821 0
M  V30 4821 H 451.236 -5.82303 -4.82141 0
M  V30 4822 H 452.504 -5.18208 -5.82306 0
M  V30 4823 N 456.733 0.527833 -1.48498 0
M  V30 4824 C 457.963 1.30633 -1.60058 0
M  V30 4825 C 458.371 1.87394 -0.260786 0
M  V30 4826 O 457.714 1.67227 0.760317 0
M  V30 4827 C 457.776 2.49361 -2.58958 0
M  V30 4828 C 457.44 2.13671 -4.03972 0
M  V30 4829 C 458.437 1.69217 -4.91591 0
M  V30 4830 C 456.122 2.24129 -4.49524 0
M  V30 4831 C 458.116 1.35689 -6.2279 0
M  V30 4832 C 455.803 1.90212 -5.80743 0
M  V30 4833 C 456.801 1.46063 -6.67199 0
M  V30 4834 O 456.489 1.12593 -7.95976 0
M  V30 4835 H 456.221 0.403444 -0.54241 0
M  V30 4836 H 458.775 0.643233 -1.95068 0
M  V30 4837 H 457.005 3.18659 -2.19073 0
M  V30 4838 H 458.694 3.11421 -2.6033 0
M  V30 4839 H 459.46 1.60607 -4.57636 0
M  V30 4840 H 455.339 2.57447 -3.82416 0
M  V30 4841 H 458.883 1.01157 -6.90227 0
M  V30 4842 H 454.78 1.98464 -6.14233 0
M  V30 4843 H 455.548 1.25972 -8.08748 0
M  V30 4844 N 458.211 1.37122 0.776871 0
M  V30 4845 C 459.158 1.3247 1.88998 0
M  V30 4846 C 460.128 0.191143 1.64997 0
M  V30 4847 O 461.313 0.379683 1.86984 0
M  V30 4848 C 458.453 1.13241 3.25992 0
M  V30 4849 C 457.566 2.35782 3.61982 0
M  V30 4850 C 456.701 2.09465 4.88158 0
M  V30 4851 C 455.74 3.279 5.16864 0
M  V30 4852 N 454.877 3.01167 6.34226 0
M  V30 4853 H 459.717 2.27642 1.9231 0
M  V30 4854 H 457.254 1.13125 0.94027 0
M  V30 4855 H 459.212 1.00115 4.0501 0
M  V30 4856 H 457.842 0.217186 3.22069 0
M  V30 4857 H 456.894 2.59666 2.77989 0
M  V30 4858 H 458.206 3.24125 3.79137 0
M  V30 4859 H 457.36 1.93341 5.75069 0
M  V30 4860 H 456.099 1.18452 4.73097 0
M  V30 4861 H 455.104 3.44569 4.2843 0
M  V30 4862 H 456.329 4.19757 5.33836 0
M  V30 4863 H 454.275 2.12779 6.20533 0
M  V30 4864 H 454.192 3.83052 6.51772 0
M  V30 4865 H 455.46 2.88649 7.24087 0
M  V30 4866 N 459.689 -1.00246 1.21608 0
M  V30 4867 C 460.966 -1.71336 0.943568 0
M  V30 4868 C 461.346 -2.03972 -0.543943 0
M  V30 4869 O 460.694 -1.71545 -1.50946 0
M  V30 4870 C 460.904 -2.97094 1.83128 0
M  V30 4871 C 462.252 -3.70071 2.08165 0
M  V30 4872 O 463.276 -3.07081 1.80498 0
M  V30 4873 O 462.135 -4.83376 2.54971 0
M  V30 4874 H 459.229 -0.747386 0.354039 0
M  V30 4875 H 461.775 -1.05967 1.32549 0
M  V30 4876 H 460.547 -2.69407 2.83788 0
M  V30 4877 H 460.17 -3.70204 1.45034 0
M  V30 4878 N 461.167 -1.02423 -1.1978 0
M  V30 4879 C 462.1 -0.545641 -2.21581 0
M  V30 4880 C 463.078 0.411024 -1.57319 0
M  V30 4881 O 464.262 0.329223 -1.85603 0
M  V30 4882 C 461.389 0.204973 -3.38079 0
M  V30 4883 C 460.435 -0.70241 -4.20676 0
M  V30 4884 S 461.268 -2.17595 -4.89298 0
M  V30 4885 C 462.424 -1.43572 -6.09211 0
M  V30 4886 H 462.657 -1.4082 -2.61834 0
M  V30 4887 H 460.19 -0.833771 -1.29952 0
M  V30 4888 H 462.148 0.631924 -4.05607 0
M  V30 4889 H 460.809 1.0432 -2.9627 0
M  V30 4890 H 460.002 -0.123193 -5.03849 0
M  V30 4891 H 459.604 -1.06747 -3.58442 0
M  V30 4892 H 461.896 -0.719806 -6.73665 0
M  V30 4893 H 462.839 -2.24388 -6.71607 0
M  V30 4894 H 463.247 -0.935252 -5.56699 0
M  V30 4895 N 462.645 1.35699 -0.801477 0
M  V30 4896 C 463.893 1.9852 -0.37871 0
M  V30 4897 C 464.214 1.63907 1.05638 0
M  V30 4898 O 463.484 0.919013 1.73006 0
M  V30 4899 H 462.064 0.734322 -0.137042 0
M  V30 4900 H 464.726 1.65697 -1.02619 0
M  V30 4901 H 463.822 3.08382 -0.480284 0
M  V30 4902 N 464.123 0.554532 1.47522 0
M  V30 4903 C 465.351 0.034257 2.06872 0
M  V30 4904 C 465.766 -1.25826 1.40759 0
M  V30 4905 O 465.123 -1.75425 0.503217 0
M  V30 4906 C 465.174 -0.167827 3.6111 0
M  V30 4907 O 464.895 1.07351 4.24744 0
M  V30 4908 C 466.396 -0.72569 4.3732 0
M  V30 4909 H 463.616 0.0446275 0.669514 0
M  V30 4910 H 466.16 0.767181 1.89564 0
M  V30 4911 H 464.315 -0.850872 3.7794 0
M  V30 4912 H 464.729 0.869563 5.17242 0
M  V30 4913 H 466.203 -0.816394 5.45929 0
M  V30 4914 H 466.68 -1.73635 4.0342 0
M  V30 4915 H 467.286 -0.0784292 4.25228 0
M  V30 4916 N 465.601 -1.54893 0.290851 0
M  V30 4917 C 466.847 -2.0023 -0.321867 0
M  V30 4918 C 467.18 -1.179 -1.54316 0
M  V30 4919 O 466.455 -0.25293 -1.92848 0
M  V30 4920 C 466.738 -3.53456 -0.688515 0
M  V30 4921 C 466.591 -4.46532 0.541209 0
M  V30 4922 C 467.91 -4.13057 -1.51895 0
M  V30 4923 H 465.029 -0.727891 -0.115515 0
M  V30 4924 H 467.671 -1.85722 0.400931 0
M  V30 4925 H 465.821 -3.6595 -1.30433 0
M  V30 4926 H 467.493 -4.4596 1.17973 0
M  V30 4927 H 465.736 -4.17545 1.17636 0
M  V30 4928 H 466.407 -5.51475 0.240675 0
M  V30 4929 H 468.883 -4.03937 -0.99872 0
M  V30 4930 H 467.759 -5.20448 -1.74429 0
M  V30 4931 H 468.02 -3.64284 -2.50498 0
M  V30 4932 N 467.08 -0.0183926 -1.57589 0
M  V30 4933 C 468.326 0.663543 -1.91638 0
M  V30 4934 C 468.659 1.72392 -0.894134 0
M  V30 4935 O 467.934 1.94316 0.0846449 0
M  V30 4936 C 468.217 1.28984 -3.36207 0
M  V30 4937 C 468.07 0.239761 -4.49161 0
M  V30 4938 C 469.389 2.2109 -3.80536 0
M  V30 4939 H 466.508 0.239746 -0.696915 0
M  V30 4940 H 469.15 -0.073456 -1.89858 0
M  V30 4941 H 467.3 1.91799 -3.37854 0
M  V30 4942 H 468.972 -0.390119 -4.59647 0
M  V30 4943 H 467.215 -0.435972 -4.31604 0
M  V30 4944 H 467.886 0.717383 -5.47319 0
M  V30 4945 H 470.362 1.68273 -3.80557 0
M  V30 4946 H 469.238 2.61869 -4.82406 0
M  V30 4947 H 469.499 3.09764 -3.15434 0
M  V30 4948 N 468.558 1.5553 0.254621 0
M  V30 4949 C 469.488 1.9268 1.31897 0
M  V30 4950 C 470.469 0.790797 1.506 0
M  V30 4951 O 471.654 1.05045 1.63337 0
M  V30 4952 C 468.784 2.21477 2.67517 0
M  V30 4953 C 467.738 3.37256 2.63519 0
M  V30 4954 C 467.064 3.51576 4.02862 0
M  V30 4955 C 468.364 4.73157 2.21179 0
M  V30 4956 H 470.058 2.81832 1.01051 0
M  V30 4957 H 467.604 1.35599 0.484662 0
M  V30 4958 H 469.557 2.46055 3.42104 0
M  V30 4959 H 468.281 1.29144 2.99982 0
M  V30 4960 H 466.94 3.12675 1.9139 0
M  V30 4961 H 466.588 2.56676 4.32581 0
M  V30 4962 H 466.288 4.2943 4.01078 0
M  V30 4963 H 467.812 3.78467 4.79161 0
M  V30 4964 H 469.226 4.97158 2.85494 0
M  V30 4965 H 467.623 5.54058 2.30521 0
M  V30 4966 H 468.693 4.70739 1.16332 0
M  V30 4967 N 470.036 -0.519951 1.48776 0
M  V30 4968 C 471.284 -1.2727 1.56993 0
M  V30 4969 C 471.605 -1.9339 0.25004 0
M  V30 4970 O 470.875 -1.81822 -0.729216 0
M  V30 4971 H 469.455 -0.472732 0.578389 0
M  V30 4972 H 472.117 -0.604234 1.85297 0
M  V30 4973 H 471.213 -2.04669 2.3562 0
M  V30 4974 N 471.514 -1.37532 -0.769588 0
M  V30 4975 C 472.461 -1.3347 -1.88293 0
M  V30 4976 C 473.431 -0.199891 -1.64893 0
M  V30 4977 O 474.616 -0.389594 -1.8678 0
M  V30 4978 C 471.756 -1.14968 -3.25387 0
M  V30 4979 C 470.869 -2.37698 -3.60727 0
M  V30 4980 C 470.004 -2.12051 -4.8704 0
M  V30 4981 C 469.043 -3.30636 -5.15117 0
M  V30 4982 N 468.18 -3.04527 -6.3262 0
M  V30 4983 H 473.02 -2.28658 -1.911 0
M  V30 4984 H 470.557 -1.13622 -0.934257 0
M  V30 4985 H 472.515 -1.02261 -4.04473 0
M  V30 4986 H 471.145 -0.234263 -3.21949 0
M  V30 4987 H 470.197 -2.61137 -2.76608 0
M  V30 4988 H 471.509 -3.26131 -3.77413 0
M  V30 4989 H 470.663 -1.96388 -5.74035 0
M  V30 4990 H 469.402 -1.20959 -4.72462 0
M  V30 4991 H 468.407 -3.46836 -4.26597 0
M  V30 4992 H 469.632 -4.22582 -5.31603 0
M  V30 4993 H 467.578 -2.16067 -6.19396 0
M  V30 4994 H 467.495 -3.86503 -6.49732 0
M  V30 4995 H 468.763 -2.92485 -7.22546 0
M  V30 4996 N 472.992 0.995999 -1.22138 0
M  V30 4997 C 473.922 2.10387 -1.01289 0
M  V30 4998 C 474.903 1.69975 0.0651454 0
M  V30 4999 O 476.088 1.9396 -0.0964628 0
M  V30 5000 C 473.218 3.42312 -0.586517 0
M  V30 5001 C 472.172 3.96558 -1.61014 0
M  V30 5002 C 471.498 5.24494 -1.0397 0
M  V30 5003 C 472.798 4.27595 -2.99933 0
M  V30 5004 H 474.492 2.28086 -1.93951 0
M  V30 5005 H 472.038 1.09607 -0.933928 0
M  V30 5006 H 473.991 4.19223 -0.427793 0
M  V30 5007 H 472.715 3.24431 0.375761 0
M  V30 5008 H 471.374 3.21776 -1.75658 0
M  V30 5009 H 471.022 5.02953 -0.0688703 0
M  V30 5010 H 470.722 5.61755 -1.72352 0
M  V30 5011 H 472.246 6.04042 -0.892494 0
M  V30 5012 H 473.66 4.95315 -2.8868 0
M  V30 5013 H 472.057 4.76021 -3.6541 0
M  V30 5014 H 473.127 3.35498 -3.50099 0
M  V30 5015 N 474.47 1.03057 1.19235 0
M  V30 5016 C 475.38 0.622922 2.26179 0
M  V30 5017 C 476.396 -0.346113 1.70523 0
M  V30 5018 O 477.572 -0.203572 2.00369 0
M  V30 5019 C 474.637 -0.0182063 3.46695 0
M  V30 5020 C 473.698 0.998546 4.17526 0
M  V30 5021 C 472.931 0.387917 5.32288 0
M  V30 5022 O 473.154 -0.808668 5.64639 0
M  V30 5023 O 472.088 1.1116 5.91546 0
M  V30 5024 H 475.914 1.51363 2.63292 0
M  V30 5025 H 473.499 0.800856 1.26122 0
M  V30 5026 H 475.381 -0.375606 4.19723 0
M  V30 5027 H 474.056 -0.882895 3.11427 0
M  V30 5028 H 472.963 1.40756 3.4661 0
M  V30 5029 H 474.296 1.83366 4.56769 0
M  V30 5030 N 475.948 -1.35272 0.808662 0
M  V30 5031 C 477.173 -2.03477 0.401475 0
M  V30 5032 C 477.598 -1.60537 -0.980279 0
M  V30 5033 O 476.956 -0.78304 -1.63518 0
M  V30 5034 C 477.004 -3.57181 0.495354 0
M  V30 5035 O 476.108 -4.09474 -0.490397 0
M  V30 5036 H 475.449 -0.642561 0.167366 0
M  V30 5037 H 477.979 -1.72824 1.09512 0
M  V30 5038 H 477.989 -4.06356 0.365912 0
M  V30 5039 H 476.664 -3.87784 1.5032 0
M  V30 5040 H 475.241 -3.71516 -0.321023 0
M  V30 5041 N 477.426 -0.562348 -1.47226 0
M  V30 5042 C 478.674 -0.0401371 -2.0206 0
M  V30 5043 C 478.995 1.3165 -1.43852 0
M  V30 5044 O 478.265 1.85976 -0.615599 0
M  V30 5045 H 476.845 -0.0118479 -0.746906 0
M  V30 5046 H 479.507 -0.73352 -1.8057 0
M  V30 5047 H 478.603 0.0441254 -3.12069 0
M  V30 5048 N 478.904 1.54736 -0.299062 0
M  V30 5049 C 480.129 2.04975 0.316254 0
M  V30 5050 C 480.554 1.17501 1.46885 0
M  V30 5051 O 479.912 0.178678 1.80417 0
M  V30 5052 C 479.96 3.52672 0.751997 0
M  V30 5053 O 479.064 3.68226 1.85697 0
M  V30 5054 H 478.405 0.661126 0.0617175 0
M  V30 5055 H 480.935 1.99805 -0.440341 0
M  V30 5056 H 480.945 3.94488 1.04133 0
M  V30 5057 H 479.62 4.158 -0.0911482 0
M  V30 5058 H 478.197 3.38316 1.56834 0
M  V30 5059 N 480.382 0.0267497 1.57577 0
M  V30 5060 C 481.631 -0.651736 1.9088 0
M  V30 5061 C 481.944 -1.73427 0.904576 0
M  V30 5062 O 483.15 -2.46923 1.12877 0
M  V30 5063 C 481.606 -1.21048 3.38933 0
M  V30 5064 C 481.214 -0.161362 4.47709 0
M  V30 5065 C 482.958 -1.86562 3.81307 0
M  V30 5066 C 480.865 -0.731611 5.86857 0
M  V30 5067 H 479.795 -0.247198 0.712326 0
M  V30 5068 H 482.446 0.0916641 1.83271 0
M  V30 5069 H 480.828 -2.00542 3.41466 0
M  V30 5070 H 482.002 0.61094 4.56732 0
M  V30 5071 H 480.317 0.394877 4.14523 0
M  V30 5072 H 482.914 -2.30178 4.8262 0
M  V30 5073 H 483.257 -2.70735 3.16241 0
M  V30 5074 H 483.79 -1.13762 3.81186 0
M  V30 5075 H 480.529 0.0719329 6.55461 0
M  V30 5076 H 480.049 -1.47245 5.81445 0
M  V30 5077 H 481.728 -1.22208 6.35354 0
M  V30 5078 N 481.861 -1.55662 -0.24637 0
M  V30 5079 C 483.101 -1.79283 -0.981685 0
M  V30 5080 C 483.465 -0.596356 -1.82504 0
M  V30 5081 O 484.666 -0.711342 -2.59217 0
M  V30 5082 C 482.937 -3.07648 -1.819 0
M  V30 5083 S 484.496 -3.52491 -2.61334 0
M  V30 5084 H 481.314 -0.629676 -0.330196 0
M  V30 5085 H 483.916 -1.93901 -0.249498 0
M  V30 5086 H 482.62 -3.92794 -1.18915 0
M  V30 5087 H 482.151 -2.95768 -2.59393 0
M  V30 5088 H 484.166 -3.13866 -3.84321 0
M  V30 5089 N 483.339 0.512053 -1.4905 0
M  V30 5090 C 484.286 1.6148 -1.64902 0
M  V30 5091 C 485.256 1.58687 -0.490673 0
M  V30 5092 O 486.441 1.76842 -0.71636 0
M  V30 5093 C 483.581 2.99676 -1.71139 0
M  V30 5094 C 482.694 3.12568 -2.98203 0
M  V30 5095 C 481.829 4.4143 -2.95487 0
M  V30 5096 C 480.868 4.47916 -4.17179 0
M  V30 5097 N 480.005 5.68191 -4.12437 0
M  V30 5098 H 484.845 1.47271 -2.59066 0
M  V30 5099 H 482.382 0.716713 -1.28459 0
M  V30 5100 H 484.34 3.79761 -1.72736 0
M  V30 5101 H 482.97 3.12614 -0.804508 0
M  V30 5102 H 482.022 2.25618 -3.06269 0
M  V30 5103 H 483.334 3.1322 -3.88194 0
M  V30 5104 H 482.488 5.29825 -2.95585 0
M  V30 5105 H 481.227 4.43326 -2.03256 0
M  V30 5106 H 480.232 3.57925 -4.17337 0
M  V30 5107 H 481.457 4.47744 -5.1059 0
M  V30 5108 H 479.403 5.7095 -3.23036 0
M  V30 5109 H 479.32 5.70413 -4.96151 0
M  V30 5110 H 480.588 6.58823 -4.16621 0
M  V30 5111 N 484.817 1.37938 0.762283 0
M  V30 5112 C 486.065 1.33404 1.51815 0
M  V30 5113 C 486.386 -0.0780975 1.94844 0
M  V30 5114 O 485.656 -1.02405 1.67003 0
M  V30 5115 H 484.236 0.490839 0.563104 0
M  V30 5116 H 486.898 1.72527 0.906669 0
M  V30 5117 H 485.994 1.97926 2.41313 0
M  V30 5118 N 486.295 -0.989507 1.22664 0
M  V30 5119 C 487.227 -2.0824 0.957542 0
M  V30 5120 C 488.24 -1.6267 -0.0651098 0
M  V30 5121 O 489.429 -1.77695 0.169312 0
M  V30 5122 C 486.529 -3.36298 0.419145 0
M  V30 5123 C 485.702 -4.10882 1.49982 0
M  V30 5124 C 484.761 -5.17221 0.967904 0
M  V30 5125 O 483.787 -5.44613 1.65487 0
M  V30 5126 N 484.989 -5.80124 -0.20896 0
M  V30 5127 H 487.754 -2.31904 1.89843 0
M  V30 5128 H 485.315 -1.15552 1.13399 0
M  V30 5129 H 487.307 -4.04671 0.0485451 0
M  V30 5130 H 485.877 -3.09671 -0.426937 0
M  V30 5131 H 485.097 -3.37092 2.04359 0
M  V30 5132 H 486.385 -4.57482 2.22682 0
M  V30 5133 H 485.783 -5.60244 -0.783818 0
M  V30 5134 H 484.34 -6.49715 -0.520913 0
M  V30 5135 N 487.773 -1.03688 -1.18687 0
M  V30 5136 C 488.705 -0.582696 -2.21669 0
M  V30 5137 C 489.718 0.345656 -1.59088 0
M  V30 5138 O 490.907 0.140776 -1.77944 0
M  V30 5139 C 488.007 0.169204 -3.38477 0
M  V30 5140 C 487.18 -0.766079 -4.30639 0
M  V30 5141 C 486.239 -0.0581541 -5.26168 0
M  V30 5142 O 485.265 -0.687346 -5.65035 0
M  V30 5143 N 486.467 1.20981 -5.67753 0
M  V30 5144 H 489.232 -1.46843 -2.61261 0
M  V30 5145 H 486.793 -0.916896 -1.33434 0
M  V30 5146 H 488.785 0.652543 -3.99405 0
M  V30 5147 H 487.355 0.956435 -2.97609 0
M  V30 5148 H 486.575 -1.42935 -3.67373 0
M  V30 5149 H 487.863 -1.40146 -4.89118 0
M  V30 5150 H 487.261 1.74159 -5.38224 0
M  V30 5151 H 485.818 1.6375 -6.30896 0
M  V30 5152 N 489.251 1.34841 -0.815825 0
M  V30 5153 C 490.181 2.32187 -0.247298 0
M  V30 5154 C 491.162 1.5791 0.632344 0
M  V30 5155 O 492.347 1.8593 0.560698 0
M  V30 5156 C 489.477 3.42122 0.597466 0
M  V30 5157 C 488.431 4.27602 -0.184446 0
M  V30 5158 C 487.757 5.28942 0.782609 0
M  V30 5159 C 489.057 5.03502 -1.38865 0
M  V30 5160 H 490.751 2.79985 -1.06061 0
M  V30 5161 H 488.297 1.34611 -0.511461 0
M  V30 5162 H 490.25 4.09232 1.00533 0
M  V30 5163 H 488.974 2.92956 1.44376 0
M  V30 5164 H 487.633 3.62085 -0.573592 0
M  V30 5165 H 487.281 4.7604 1.62466 0
M  V30 5166 H 486.981 5.87008 0.263695 0
M  V30 5167 H 488.505 5.98922 1.18848 0
M  V30 5168 H 489.919 5.63506 -1.05518 0
M  V30 5169 H 488.316 5.71108 -1.8427 0
M  V30 5170 H 489.386 4.33608 -2.17054 0
M  V30 5171 N 490.729 0.570148 1.46925 0
M  V30 5172 C 491.975 0.0510284 2.02736 0
M  V30 5173 C 492.308 -1.3006 1.44215 0
M  V30 5174 O 491.583 -1.84932 0.602521 0
M  V30 5175 C 491.866 -0.028215 3.60089 0
M  V30 5176 C 491.719 1.35142 4.29018 0
M  V30 5177 C 493.038 -0.735181 4.33916 0
M  V30 5178 H 490.157 0.0200178 0.736728 0
M  V30 5179 H 492.799 0.73493 1.75211 0
M  V30 5180 H 490.949 -0.610648 3.83671 0
M  V30 5181 H 492.621 1.97806 4.16738 0
M  V30 5182 H 490.864 1.9226 3.88868 0
M  V30 5183 H 491.535 1.24857 5.37694 0
M  V30 5184 H 494.011 -0.240519 4.15404 0
M  V30 5185 H 492.887 -0.759622 5.43618 0
M  V30 5186 H 493.148 -1.79397 4.04066 0
M  V30 5187 N 492.207 -1.54576 0.307264 0
M  V30 5188 C 493.14 -2.19946 -0.608195 0
M  V30 5189 C 494.118 -1.17096 -1.12815 0
M  V30 5190 O 495.302 -1.45766 -1.19518 0
M  V30 5191 C 492.429 -2.84826 -1.8328 0
M  V30 5192 C 491.475 -4.01256 -1.44554 0
M  V30 5193 S 492.308 -5.33197 -0.49612 0
M  V30 5194 C 493.464 -6.01563 -1.72838 0
M  V30 5195 H 493.697 -2.97253 -0.0528544 0
M  V30 5196 H 491.23 -1.54129 0.0913837 0
M  V30 5197 H 493.188 -3.22832 -2.53554 0
M  V30 5198 H 491.849 -2.07353 -2.35931 0
M  V30 5199 H 491.042 -4.45457 -2.35762 0
M  V30 5200 H 490.644 -3.6484 -0.822671 0
M  V30 5201 H 492.936 -6.22751 -2.6681 0
M  V30 5202 H 493.879 -6.9552 -1.32882 0
M  V30 5203 H 494.287 -5.31279 -1.90795 0
M  V30 5204 N 493.685 -0.035106 -1.57561 0
M  V30 5205 C 494.618 0.979673 -2.06101 0
M  V30 5206 C 495.596 1.31378 -0.958046 0
M  V30 5207 O 496.78 1.42942 -1.22881 0
M  V30 5208 C 493.907 2.29809 -2.48808 0
M  V30 5209 C 492.953 2.11817 -3.70184 0
M  V30 5210 S 493.786 1.41143 -5.16565 0
M  V30 5211 C 494.942 2.74341 -5.62572 0
M  V30 5212 H 495.175 0.566506 -2.91853 0
M  V30 5213 H 492.708 0.176744 -1.53385 0
M  V30 5214 H 494.666 3.056 -2.74078 0
M  V30 5215 H 493.327 2.68257 -1.63392 0
M  V30 5216 H 492.52 3.09299 -3.97933 0
M  V30 5217 H 492.122 1.44168 -3.45097 0
M  V30 5218 H 494.414 3.70562 -5.67177 0
M  V30 5219 H 495.357 2.51249 -6.62027 0
M  V30 5220 H 495.765 2.79863 -4.90242 0
M  V30 5221 N 495.163 1.55791 0.238111 0
M  V30 5222 C 496.574 1.68383 0.806472 0
M  V30 5223 C 496.925 0.634157 1.85669 0
M  V30 5224 O 496.05 -0.217913 2.153 0
M  V30 5225 C 496.645 3.05268 1.46959 0
M  V30 5226 C 495.204 3.1977 1.98555 0
M  V30 5227 C 494.351 2.64279 0.839763 0
M  V30 5228 H 497.302 1.58694 0.0137535 0
M  V30 5229 H 497.323 3.00203 2.33792 0
M  V30 5230 H 496.835 3.81643 0.704993 0
M  V30 5231 H 494.936 2.48234 2.77868 0
M  V30 5232 H 495.049 4.26788 2.17689 0
M  V30 5233 H 493.413 2.22329 1.24265 0
M  V30 5234 H 494.196 3.43187 0.0881032 0
M  V30 5235 N 496.642 -0.504142 1.49319 0
M  V30 5236 C 497.59 -1.62689 1.66238 0
M  V30 5237 C 498.584 -1.6095 0.528349 0
M  V30 5238 O 499.79 -1.65496 0.707887 0
M  V30 5239 H 496.165 -0.539247 0.524134 0
M  V30 5240 H 498.136 -1.45571 2.60484 0
M  V30 5241 C 496.885 -3.00841 1.74328 0
M  V30 5242 H 496.208 -3.02884 2.60963 0
M  V30 5243 H 497.648 -3.78945 1.90202 0
M  V30 5244 C 496.107 -3.33355 0.487416 0
M  V30 5245 O 496.637 -3.99819 -0.388294 0
M  V30 5246 N 494.843 -2.88469 0.351306 0
M  V30 5247 H 494.39 -2.34557 1.06492 0
M  V30 5248 H 494.348 -3.10591 -0.487899 0
M  V30 5249 N 498.12 -1.38341 -0.754957 0
M  V30 5250 C 499.067 -1.3546 -1.86867 0
M  V30 5251 C 500.037 -0.217369 -1.64672 0
M  V30 5252 O 501.222 -0.409383 -1.86356 0
M  V30 5253 C 498.362 -1.18413 -3.24149 0
M  V30 5254 C 497.475 -2.41511 -3.58185 0
M  V30 5255 C 496.61 -2.17205 -4.84763 0
M  V30 5256 C 495.649 -3.36081 -5.11582 0
M  V30 5257 N 494.786 -3.11219 -6.29354 0
M  V30 5258 H 499.626 -2.30672 -1.88664 0
M  V30 5259 H 497.163 -1.14607 -0.922154 0
M  V30 5260 H 499.121 -1.06545 -4.03366 0
M  V30 5261 H 497.751 -0.268397 -3.21682 0
M  V30 5262 H 496.803 -2.64056 -2.73822 0
M  V30 5263 H 498.115 -3.30115 -3.73932 0
M  V30 5264 H 497.269 -2.02465 -5.7192 0
M  V30 5265 H 496.008 -1.25964 -4.71152 0
M  V30 5266 H 495.013 -3.51341 -4.22894 0
M  V30 5267 H 496.238 -4.28196 -5.27091 0
M  V30 5268 H 494.184 -2.22624 -6.17069 0
M  V30 5269 H 494.101 -3.93373 -6.45596 0
M  V30 5270 H 495.369 -3.00132 -7.19403 0
M  V30 5271 N 499.598 0.982988 -1.23187 0
M  V30 5272 C 500.548 2.05962 -0.977942 0
M  V30 5273 C 501.532 1.60725 0.0751148 0
M  V30 5274 O 502.724 1.76471 -0.136683 0
M  V30 5275 C 499.853 3.38564 -0.568276 0
M  V30 5276 C 498.939 3.90407 -1.6566 0
M  V30 5277 N 499.33 4.15359 -2.88635 0
M  V30 5278 C 497.628 4.18915 -1.53058 0
M  V30 5279 C 498.329 4.57642 -3.5908 0
M  V30 5280 N 497.305 4.6192 -2.86584 0
M  V30 5281 H 501.107 2.23208 -1.91195 0
M  V30 5282 H 498.621 1.16555 -1.13087 0
M  V30 5283 H 500.618 4.15276 -0.36764 0
M  V30 5284 H 499.278 3.22712 0.358713 0
M  V30 5285 H 500.289 4.03258 -3.24966 0
M  V30 5286 H 496.966 4.12081 -0.670506 0
M  V30 5287 H 498.356 4.85488 -4.6449 0
M  V30 5288 N 501.076 1.04316 1.18135 0
M  V30 5289 C 502.024 0.630175 2.23901 0
M  V30 5290 C 503.018 -0.344254 1.65865 0
M  V30 5291 O 504.224 -0.211273 1.78756 0
M  V30 5292 H 500.599 0.185578 0.728742 0
M  V30 5293 H 502.57 1.53253 2.56039 0
M  V30 5294 C 501.319 0.011666 3.47698 0
M  V30 5295 H 500.642 0.752526 3.92654 0
M  V30 5296 H 502.082 -0.240046 4.2332 0
M  V30 5297 C 500.541 -1.23913 3.13285 0
M  V30 5298 O 501.071 -2.32959 3.27251 0
M  V30 5299 N 499.277 -1.13338 2.67587 0
M  V30 5300 H 498.824 -0.246006 2.56423 0
M  V30 5301 H 498.782 -1.97116 2.44934 0
M  V30 5302 N 502.554 -1.34406 0.822964 0
M  V30 5303 C 503.8 -1.98578 0.411666 0
M  V30 5304 C 504.133 -1.65093 -1.02264 0
M  V30 5305 O 503.408 -0.92258 -1.71227 0
M  V30 5306 C 503.691 -3.54823 0.614235 0
M  V30 5307 C 503.544 -3.9805 2.09466 0
M  V30 5308 C 504.863 -4.40071 0.050221 0
M  V30 5309 H 501.982 -0.721355 0.151047 0
M  V30 5310 H 504.624 -1.59301 1.03554 0
M  V30 5311 H 502.774 -3.88411 0.0831774 0
M  V30 5312 H 504.446 -3.74795 2.68936 0
M  V30 5313 H 502.689 -3.4836 2.5851 0
M  V30 5314 H 503.36 -5.06819 2.18721 0
M  V30 5315 H 505.836 -4.13037 0.503953 0
M  V30 5316 H 504.712 -5.48452 0.221759 0
M  V30 5317 H 504.973 -4.29576 -1.04482 0
M  V30 5318 N 504.032 -0.577932 -1.46621 0
M  V30 5319 C 504.942 0.160651 -2.34049 0
M  V30 5320 C 505.958 0.890911 -1.49462 0
M  V30 5321 O 507.134 0.855166 -1.82343 0
M  V30 5322 C 504.199 1.16447 -3.26559 0
M  V30 5323 C 503.26 0.4394 -4.27045 0
M  V30 5324 C 502.493 1.3954 -5.15135 0
M  V30 5325 O 502.716 2.63162 -5.06065 0
M  V30 5326 O 501.65 0.908585 -5.95003 0
M  V30 5327 H 505.476 -0.557057 -2.98547 0
M  V30 5328 H 503.061 -0.338369 -1.45518 0
M  V30 5329 H 504.943 1.7434 -3.83645 0
M  V30 5330 H 503.618 1.86373 -2.64663 0
M  V30 5331 H 502.525 -0.181247 -3.73661 0
M  V30 5332 H 503.858 -0.218799 -4.91713 0
M  V30 5333 N 505.51 1.54411 -0.315457 0
M  V30 5334 C 506.756 2.00716 0.289972 0
M  V30 5335 C 507.089 1.2034 1.5242 0
M  V30 5336 O 506.364 0.283579 1.92422 0
M  V30 5337 C 506.647 3.54507 0.632196 0
M  V30 5338 C 506.5 4.45615 -0.61218 0
M  V30 5339 C 507.819 4.15421 1.45305 0
M  V30 5340 H 504.938 0.729637 0.10392 0
M  V30 5341 H 507.58 1.8506 -0.430427 0
M  V30 5342 H 505.73 3.67979 1.24595 0
M  V30 5343 H 507.402 4.44026 -1.25053 0
M  V30 5344 H 505.645 4.15621 -1.24264 0
M  V30 5345 H 506.316 5.51022 -0.328379 0
M  V30 5346 H 508.792 4.05474 0.934331 0
M  V30 5347 H 507.668 5.23157 1.66127 0
M  V30 5348 H 507.929 3.68223 2.44671 0
M  V30 5349 N 506.988 0.0434614 1.5754 0
M  V30 5350 C 507.918 -0.931651 2.14109 0
M  V30 5351 C 508.899 -1.32971 1.06079 0
M  V30 5352 O 510.084 -1.40579 1.33982 0
M  V30 5353 C 507.214 -2.20914 2.67982 0
M  V30 5354 C 506.168 -1.95139 3.80926 0
M  V30 5355 C 505.494 -3.29276 4.21285 0
M  V30 5356 C 506.794 -1.27913 5.06395 0
M  V30 5357 H 508.488 -0.460497 2.95837 0
M  V30 5358 H 506.034 -0.220058 1.42309 0
M  V30 5359 H 507.987 -2.89522 3.06194 0
M  V30 5360 H 506.711 -2.70221 1.83434 0
M  V30 5361 H 505.37 -1.28945 3.43175 0
M  V30 5362 H 505.018 -3.76369 3.33699 0
M  V30 5363 H 504.718 -3.12831 4.97404 0
M  V30 5364 H 506.242 -3.99129 4.62091 0
M  V30 5365 H 507.656 -1.86544 5.42102 0
M  V30 5366 H 506.053 -1.2182 5.87605 0
M  V30 5367 H 507.123 -0.254066 4.84234 0
M  V30 5368 N 508.466 -1.55915 -0.229846 0
M  V30 5369 C 509.714 -1.7819 -0.953565 0
M  V30 5370 C 510.035 -0.610504 -1.85197 0
M  V30 5371 O 509.305 0.372988 -1.92316 0
M  V30 5372 H 507.885 -0.657208 -0.355087 0
M  V30 5373 H 510.547 -1.9337 -0.243693 0
M  V30 5374 H 509.643 -2.70011 -1.56527 0
M  V30 5375 N 509.944 0.496216 -1.49584 0
M  V30 5376 C 511.193 1.24668 -1.58558 0
M  V30 5377 C 511.506 1.9359 -0.279703 0
M  V30 5378 O 512.712 2.70365 -0.248048 0
M  V30 5379 C 511.168 2.26388 -2.79779 0
M  V30 5380 C 510.776 1.63384 -4.17145 0
M  V30 5381 C 512.52 3.02233 -2.98086 0
M  V30 5382 C 510.427 2.63243 -5.29582 0
M  V30 5383 H 509.357 0.468995 -0.590389 0
M  V30 5384 H 512.008 0.519985 -1.75978 0
M  V30 5385 H 510.39 3.02241 -2.55863 0
M  V30 5386 H 511.564 0.93491 -4.51216 0
M  V30 5387 H 509.879 0.999121 -4.04236 0
M  V30 5388 H 512.476 3.76919 -3.79257 0
M  V30 5389 H 512.819 3.60132 -2.08831 0
M  V30 5390 H 513.352 2.33495 -3.22063 0
M  V30 5391 H 510.091 2.10119 -6.20911 0
M  V30 5392 H 509.611 3.31363 -4.99959 0
M  V30 5393 H 511.29 3.25575 -5.59115 0
M  V30 5394 N 511.423 1.38739 0.74761 0
M  V30 5395 C 512.353 1.39173 1.87492 0
M  V30 5396 C 513.334 0.256794 1.6815 0
M  V30 5397 O 514.519 0.460762 1.88655 0
M  V30 5398 C 511.649 1.22197 3.25093 0
M  V30 5399 C 510.603 2.32957 3.59047 0
M  V30 5400 C 509.929 2.01082 4.95449 0
M  V30 5401 C 511.229 3.75237 3.6331 0
M  V30 5402 H 512.923 2.3351 1.87386 0
M  V30 5403 H 510.469 1.12399 0.900134 0
M  V30 5404 H 512.422 1.21124 4.03617 0
M  V30 5405 H 511.146 0.243241 3.25693 0
M  V30 5406 H 509.805 2.33226 2.82845 0
M  V30 5407 H 509.453 1.01678 4.92616 0
M  V30 5408 H 509.153 2.75267 5.19136 0
M  V30 5409 H 510.677 2.01638 5.76346 0
M  V30 5410 H 512.091 3.76966 4.31937 0
M  V30 5411 H 510.488 4.48677 3.98509 0
M  V30 5412 H 511.558 4.07122 2.634 0
M  V30 5413 N 512.901 -0.976442 1.23707 0
M  V30 5414 C 514.126 -1.75875 1.09922 0
M  V30 5415 C 514.551 -1.84911 -0.34489 0
M  V30 5416 O 513.909 -1.31363 -1.24954 0
M  V30 5417 C 513.957 -3.16179 1.73388 0
M  V30 5418 O 513.061 -4.00124 0.99871 0
M  V30 5419 H 512.402 -0.540954 0.385052 0
M  V30 5420 H 514.932 -1.22546 1.6384 0
M  V30 5421 H 514.942 -3.66741 1.78788 0
M  V30 5422 H 513.617 -3.08917 2.78466 0
M  V30 5423 H 512.194 -3.58624 1.02193 0
M  V30 5424 N 514.379 -1.04941 -1.1758 0
M  V30 5425 C 515.656 -0.671918 -1.83697 0
M  V30 5426 C 516.036 0.847929 -1.93322 0
M  V30 5427 O 515.384 1.75287 -1.46583 0
M  V30 5428 C 515.594 -1.35797 -3.21497 0
M  V30 5429 C 516.942 -1.4944 -3.97433 0
M  V30 5430 O 517.966 -1.31678 -3.30967 0
M  V30 5431 O 516.825 -1.78463 -5.1654 0
M  V30 5432 H 513.919 -0.236212 -0.792548 0
M  V30 5433 H 516.465 -1.14884 -1.24899 0
M  V30 5434 H 515.237 -2.39498 -3.09446 0
M  V30 5435 H 514.86 -0.870236 -3.8796 0
M  V30 5436 N 515.857 1.33968 -0.830081 0
M  V30 5437 C 517.134 1.92554 -0.343858 0
M  V30 5438 C 517.514 1.7573 1.16971 0
M  V30 5439 O 516.862 1.14035 1.98011 0
M  V30 5440 C 517.072 3.40147 -0.781073 0
M  V30 5441 C 518.42 4.17299 -0.78402 0
M  V30 5442 O 519.444 3.48762 -0.724112 0
M  V30 5443 O 518.303 5.39631 -0.863739 0
M  V30 5444 H 515.397 0.821469 -0.0954827 0
M  V30 5445 H 517.943 1.42897 -0.915348 0
M  V30 5446 H 516.715 3.46225 -1.82329 0
M  V30 5447 H 516.338 3.97166 -0.18567 0
M  V30 5448 N 517.335 0.585699 1.46312 0
M  V30 5449 C 518.581 0.0725284 2.0267 0
M  V30 5450 C 518.914 -1.28523 1.45586 0
M  V30 5451 O 518.189 -1.84283 0.622101 0
M  V30 5452 C 518.472 0.0099788 3.60099 0
M  V30 5453 C 518.325 1.39685 4.27561 0
M  V30 5454 C 519.644 -0.689117 4.34671 0
M  V30 5455 H 516.763 0.0278307 0.736474 0
M  V30 5456 H 519.405 0.753472 1.74421 0
M  V30 5457 H 517.555 -0.56992 3.84297 0
M  V30 5458 H 519.227 2.02215 4.14617 0
M  V30 5459 H 517.47 1.96374 3.86807 0
M  V30 5460 H 518.141 1.30553 5.36339 0
M  V30 5461 H 520.617 -0.196446 4.15636 0
M  V30 5462 H 519.493 -0.701921 5.44393 0
M  V30 5463 H 519.754 -1.75101 4.05946 0
M  V30 5464 N 518.813 -1.54241 0.323641 0
M  V30 5465 C 519.723 -2.28033 -0.551205 0
M  V30 5466 C 520.739 -1.32388 -1.12913 0
M  V30 5467 O 521.915 -1.65403 -1.14908 0
M  V30 5468 C 518.98 -3.02382 -1.69606 0
M  V30 5469 C 518.041 -4.13612 -1.14993 0
M  V30 5470 C 517.274 -4.84407 -2.24022 0
M  V30 5471 O 517.497 -4.54716 -3.44368 0
M  V30 5472 O 516.431 -5.71312 -1.89436 0
M  V30 5473 H 520.257 -3.03662 0.048066 0
M  V30 5474 H 517.842 -1.49133 0.0893289 0
M  V30 5475 H 519.724 -3.48941 -2.36259 0
M  V30 5476 H 518.399 -2.29628 -2.28151 0
M  V30 5477 H 517.306 -3.71402 -0.448484 0
M  V30 5478 H 518.639 -4.8841 -0.609608 0
M  V30 5479 N 520.291 -0.0518155 -1.57515 0
M  V30 5480 C 521.519 0.631395 -1.9703 0
M  V30 5481 C 521.934 1.64341 -0.92938 0
M  V30 5482 O 521.291 1.82296 0.0863266 0
M  V30 5483 C 521.342 1.31774 -3.36627 0
M  V30 5484 O 521.063 0.346247 -4.3673 0
M  V30 5485 C 522.564 2.09065 -3.90905 0
M  V30 5486 H 519.784 0.172576 -0.648428 0
M  V30 5487 H 522.328 -0.118306 -2.04158 0
M  V30 5488 H 520.483 2.01867 -3.30649 0
M  V30 5489 H 520.897 0.836226 -5.17791 0
M  V30 5490 H 522.371 2.52508 -4.9086 0
M  V30 5491 H 522.848 2.93908 -3.26366 0
M  V30 5492 H 523.454 1.43882 -4.00223 0
M  V30 5493 N 521.769 1.56035 0.221574 0
M  V30 5494 C 523.046 1.69837 0.970301 0
M  V30 5495 C 523.426 0.599065 2.02421 0
M  V30 5496 O 522.774 -0.393929 2.25079 0
M  V30 5497 C 522.984 3.11148 1.58076 0
M  V30 5498 C 524.332 3.70555 2.07302 0
M  V30 5499 O 525.356 3.14109 1.6797 0
M  V30 5500 O 524.215 4.69562 2.79596 0
M  V30 5501 H 521.309 0.691727 0.453257 0
M  V30 5502 H 523.855 1.68353 0.213358 0
M  V30 5503 H 522.627 3.82617 0.819759 0
M  V30 5504 H 522.25 3.16749 2.40324 0
M  V30 5505 N 523.247 -0.488276 1.49845 0
M  V30 5506 C 524.475 -1.26527 1.63702 0
M  V30 5507 C 524.89 -1.8618 0.313447 0
M  V30 5508 O 524.247 -1.68432 -0.702624 0
M  V30 5509 C 524.298 -2.3864 2.71538 0
M  V30 5510 O 524.019 -1.81437 3.98763 0
M  V30 5511 C 525.52 -3.29805 2.96215 0
M  V30 5512 H 522.74 -0.383295 0.55075 0
M  V30 5513 H 525.284 -0.584779 1.95961 0
M  V30 5514 H 523.439 -3.02496 2.42023 0
M  V30 5515 H 523.853 -2.55135 4.58265 0
M  V30 5516 H 525.327 -4.04722 3.75372 0
M  V30 5517 H 525.804 -3.87563 2.06619 0
M  V30 5518 H 526.41 -2.71703 3.27196 0
M  V30 5519 N 524.725 -1.39134 -0.740242 0
M  V30 5520 C 525.971 -1.36273 -1.50192 0
M  V30 5521 C 526.304 0.0430136 -1.94152 0
M  V30 5522 O 525.579 1.00691 -1.66408 0
M  V30 5523 C 525.862 -2.33041 -2.74525 0
M  V30 5524 C 525.715 -3.82535 -2.36617 0
M  V30 5525 C 527.034 -2.27723 -3.76604 0
M  V30 5526 H 524.153 -0.496323 -0.544823 0
M  V30 5527 H 526.795 -1.70085 -0.846815 0
M  V30 5528 H 524.945 -2.04337 -3.30422 0
M  V30 5529 H 526.617 -4.21967 -1.86391 0
M  V30 5530 H 524.86 -3.99565 -1.68909 0
M  V30 5531 H 525.531 -4.45723 -3.2563 0
M  V30 5532 H 528.007 -2.53091 -3.30279 0
M  V30 5533 H 526.883 -2.97519 -4.61274 0
M  V30 5534 H 527.144 -1.28049 -4.2315 0
M  V30 5535 N 526.204 0.969867 -1.24223 0
M  V30 5536 C 527.167 2.04564 -1.03373 0
M  V30 5537 C 528.167 1.60798 0.00819206 0
M  V30 5538 O 529.357 1.72641 -0.232567 0
M  V30 5539 C 526.489 3.36163 -0.566343 0
M  V30 5540 H 527.682 2.24494 -1.98853 0
M  V30 5541 H 525.235 1.1448 -1.06415 0
M  V30 5542 H 525.97 3.21925 0.391751 0
M  V30 5543 H 525.755 3.69273 -1.31834 0
M  V30 5544 H 527.245 4.1526 -0.441435 0
M  V30 5545 N 527.682 1.05563 1.17022 0
M  V30 5546 C 529.093 0.793475 1.69 0
M  V30 5547 C 529.444 -0.683882 1.83895 0
M  V30 5548 O 528.569 -1.53116 1.5292 0
M  V30 5549 C 529.164 1.43376 3.06967 0
M  V30 5550 C 527.723 1.21956 3.56095 0
M  V30 5551 C 526.87 1.51494 2.3226 0
M  V30 5552 H 529.821 1.22008 1.01487 0
M  V30 5553 H 529.842 0.845068 3.70997 0
M  V30 5554 H 529.354 2.50899 2.96093 0
M  V30 5555 H 527.455 0.163749 3.7224 0
M  V30 5556 H 527.568 1.92713 4.38633 0
M  V30 5557 H 525.932 0.935175 2.3691 0
M  V30 5558 H 526.715 2.60159 2.23992 0
M  V30 5559 N 529.16 -1.33526 0.837174 0
M  V30 5560 C 530.408 -1.97446 0.431211 0
M  V30 5561 C 530.729 -1.6665 -1.01255 0
M  V30 5562 O 529.999 -0.964559 -1.70508 0
M  V30 5563 H 528.579 -0.73043 0.156463 0
M  V30 5564 H 531.241 -1.62918 1.06976 0
M  V30 5565 H 530.337 -3.07001 0.561877 0
M  V30 5566 N 530.638 -0.59345 -1.46 0
M  V30 5567 C 531.548 0.135817 -2.34207 0
M  V30 5568 C 532.564 0.875008 -1.50398 0
M  V30 5569 O 533.74 0.835778 -1.83239 0
M  V30 5570 C 530.805 1.12977 -3.27776 0
M  V30 5571 C 529.866 0.394081 -4.27487 0
M  V30 5572 C 529.099 1.34068 -5.16586 0
M  V30 5573 O 529.322 2.5778 -5.08828 0
M  V30 5574 O 528.256 0.845426 -5.95933 0
M  V30 5575 H 532.082 -0.588691 -2.9794 0
M  V30 5576 H 529.667 -0.353784 -1.45151 0
M  V30 5577 H 531.549 1.70261 -3.85473 0
M  V30 5578 H 530.224 1.83556 -2.66625 0
M  V30 5579 H 529.131 -0.220869 -3.73447 0
M  V30 5580 H 530.464 -0.270939 -4.91454 0
M  V30 5581 N 532.116 1.54067 -0.331816 0
M  V30 5582 C 533.064 2.26105 0.54582 0
M  V30 5583 C 534.058 1.27816 1.11173 0
M  V30 5584 O 535.264 1.45565 1.05882 0
M  V30 5585 H 531.639 0.726363 0.194683 0
M  V30 5586 H 533.61 2.98282 -0.083931 0
M  V30 5587 C 532.359 3.03814 1.69092 0
M  V30 5588 H 531.682 3.79269 1.26473 0
M  V30 5589 H 533.122 3.57453 2.28043 0
M  V30 5590 C 531.581 2.12606 2.61343 0
M  V30 5591 O 532.111 1.71437 3.6328 0
M  V30 5592 N 530.317 1.77925 2.29763 0
M  V30 5593 H 529.864 2.11602 1.46909 0
M  V30 5594 H 529.822 1.1718 2.91747 0
M  V30 5595 N 533.594 0.0601682 1.57485 0
M  V30 5596 C 534.524 -0.90889 2.15085 0
M  V30 5597 C 535.505 -1.31838 1.07484 0
M  V30 5598 O 536.69 -1.3915 1.35466 0
M  V30 5599 C 533.82 -2.18059 2.7031 0
M  V30 5600 C 532.774 -1.91088 3.82974 0
M  V30 5601 C 532.1 -3.24789 4.24754 0
M  V30 5602 C 533.4 -1.22535 5.07723 0
M  V30 5603 H 535.094 -0.429093 2.96309 0
M  V30 5604 H 532.64 -0.204952 1.42534 0
M  V30 5605 H 534.593 -2.86258 3.09248 0
M  V30 5606 H 533.317 -2.6826 1.8629 0
M  V30 5607 H 531.976 -1.25297 3.44523 0
M  V30 5608 H 531.624 -3.72809 3.37672 0
M  V30 5609 H 531.324 -3.07538 5.00694 0
M  V30 5610 H 532.848 -3.94205 4.66299 0
M  V30 5611 H 534.262 -1.80783 5.4405 0
M  V30 5612 H 532.659 -1.1558 5.88864 0
M  V30 5613 H 533.729 -0.202692 4.84476 0
M  V30 5614 N 535.072 -1.5615 -0.213296 0
M  V30 5615 C 536.019 -1.93086 -1.26437 0
M  V30 5616 C 536.989 -0.789086 -1.4616 0
M  V30 5617 O 538.174 -1.04569 -1.59593 0
M  V30 5618 C 535.314 -2.26003 -2.608 0
M  V30 5619 C 534.427 -3.53156 -2.48807 0
M  V30 5620 C 533.562 -3.7548 -3.7575 0
M  V30 5621 C 532.601 -4.96119 -3.58514 0
M  V30 5622 N 531.738 -5.14791 -4.77425 0
M  V30 5623 H 536.578 -2.82707 -0.942376 0
M  V30 5624 H 534.115 -1.39919 -0.454001 0
M  V30 5625 H 536.073 -2.431 -3.39055 0
M  V30 5626 H 534.703 -1.39546 -2.91079 0
M  V30 5627 H 533.755 -3.44207 -1.61944 0
M  V30 5628 H 535.067 -4.41565 -2.31996 0
M  V30 5629 H 534.221 -3.92718 -4.62447 0
M  V30 5630 H 532.96 -2.85368 -3.95495 0
M  V30 5631 H 531.965 -4.78823 -2.70201 0
M  V30 5632 H 533.19 -5.87724 -3.40231 0
M  V30 5633 H 531.136 -4.27623 -4.97468 0
M  V30 5634 H 531.053 -5.97347 -4.63371 0
M  V30 5635 H 532.321 -5.36471 -5.65525 0
M  V30 5636 N 536.55 0.480323 -1.50102 0
M  V30 5637 C 537.799 1.22979 -1.59872 0
M  V30 5638 C 538.112 1.93282 -0.30022 0
M  V30 5639 O 539.318 2.70086 -0.276709 0
M  V30 5640 C 537.774 2.23408 -2.82164 0
M  V30 5641 C 537.382 1.5895 -4.18854 0
M  V30 5642 C 539.126 2.99055 -3.01275 0
M  V30 5643 C 537.033 2.57611 -5.32344 0
M  V30 5644 H 535.963 0.462707 -0.59533 0
M  V30 5645 H 538.614 0.501291 -1.7652 0
M  V30 5646 H 536.996 2.99511 -2.59055 0
M  V30 5647 H 538.17 0.887 -4.52182 0
M  V30 5648 H 536.485 0.956191 -4.05273 0
M  V30 5649 H 539.082 3.72876 -3.83233 0
M  V30 5650 H 539.425 3.57897 -2.12639 0
M  V30 5651 H 539.958 2.30066 -3.24522 0
M  V30 5652 H 536.697 2.03521 -6.23105 0
M  V30 5653 H 536.217 3.26041 -5.03445 0
M  V30 5654 H 537.896 3.19627 -5.62537 0
M  V30 5655 N 538.028 1.39524 0.732853 0
M  V30 5656 C 539.444 1.21176 1.03868 0
M  V30 5657 C 539.644 0.0748448 2.01361 0
M  V30 5658 O 538.7 -0.57281 2.45917 0
M  V30 5659 C 540.013 2.54667 1.59892 0
M  V30 5660 C 541.561 2.6153 1.71962 0
M  V30 5661 C 542.036 3.95248 2.31394 0
M  V30 5662 N 543.527 3.96899 2.38801 0
M  V30 5663 C 544.262 4.97138 2.85729 0
M  V30 5664 N 543.758 6.07775 3.32537 0
M  V30 5665 N 545.551 4.84516 2.84957 0
M  V30 5666 H 537.702 2.12225 0.086304 0
M  V30 5667 H 539.965 0.942614 0.100907 0
M  V30 5668 H 539.671 3.38423 0.95721 0
M  V30 5669 H 539.545 2.74538 2.58668 0
M  V30 5670 H 541.932 1.78156 2.35254 0
M  V30 5671 H 542.013 2.45507 0.718327 0
M  V30 5672 H 541.657 4.79054 1.68729 0
M  V30 5673 H 541.587 4.08593 3.32204 0
M  V30 5674 H 544.078 3.16998 2.05719 0
M  V30 5675 H 544.391 6.8017 3.66862 0
M  V30 5676 H 542.736 6.11366 3.30541 0
M  V30 5677 H 545.927 3.97185 2.47713 0
M  V30 5678 H 546.1 5.62783 3.21215 0
M  V30 5679 N 539.506 -0.963266 1.24736 0
M  V30 5680 C 540.436 -2.07628 1.06832 0
M  V30 5681 C 541.417 -1.70088 -0.0200566 0
M  V30 5682 O 542.602 -1.93636 0.147854 0
M  V30 5683 C 539.732 -3.40636 0.677069 0
M  V30 5684 C 538.686 -3.9215 1.71471 0
M  V30 5685 C 538.012 -5.21553 1.1784 0
M  V30 5686 C 539.312 -4.19493 3.11164 0
M  V30 5687 H 541.006 -2.22864 1.9993 0
M  V30 5688 H 538.552 -1.07093 0.96266 0
M  V30 5689 H 540.505 -4.17941 0.538792 0
M  V30 5690 H 539.229 -3.25313 -0.289612 0
M  V30 5691 H 537.888 -3.17005 1.84128 0
M  V30 5692 H 537.536 -5.02593 0.202195 0
M  V30 5693 H 537.236 -5.56988 1.87185 0
M  V30 5694 H 538.76 -6.01463 1.05233 0
M  V30 5695 H 540.174 -4.87487 3.01711 0
M  V30 5696 H 538.571 -4.66165 3.77902 0
M  V30 5697 H 539.641 -3.26097 3.58871 0
M  V30 5698 N 540.985 -1.06182 -1.16461 0
M  V30 5699 C 541.932 -0.671613 -2.20812 0
M  V30 5700 C 542.902 0.331186 -1.62765 0
M  V30 5701 O 544.087 0.22033 -1.89524 0
M  V30 5702 C 541.227 -0.063029 -3.45042 0
M  V30 5703 C 540.34 -1.11587 -4.1734 0
M  V30 5704 C 539.475 -0.473546 -5.29085 0
M  V30 5705 C 538.514 -1.51 -5.93182 0
M  V30 5706 N 537.651 -0.891118 -6.96422 0
M  V30 5707 H 542.491 -1.56589 -2.53542 0
M  V30 5708 H 540.028 -0.782951 -1.24532 0
M  V30 5709 H 541.986 0.307344 -4.16066 0
M  V30 5710 H 540.616 0.794663 -3.12866 0
M  V30 5711 H 539.668 -1.60396 -3.44931 0
M  V30 5712 H 540.98 -1.90221 -4.61104 0
M  V30 5713 H 540.134 -0.0501432 -6.06679 0
M  V30 5714 H 538.873 0.344687 -4.8648 0
M  V30 5715 H 537.878 -1.94331 -5.14311 0
M  V30 5716 H 539.103 -2.33031 -6.37866 0
M  V30 5717 H 537.049 -0.0935753 -6.55933 0
M  V30 5718 H 536.966 -1.61486 -7.38551 0
M  V30 5719 H 538.234 -0.492822 -7.77941 0
M  V30 5720 N 542.463 1.3308 -0.844243 0
M  V30 5721 C 543.711 1.97215 -0.441676 0
M  V30 5722 C 544.032 1.67185 1.0037 0
M  V30 5723 O 543.302 0.973588 1.69994 0
M  V30 5724 H 541.882 0.72959 -0.160335 0
M  V30 5725 H 544.544 1.62348 -1.07838 0
M  V30 5726 H 543.64 3.06698 -0.57815 0
M  V30 5727 N 543.941 0.601185 1.45683 0
M  V30 5728 C 545.19 0.0914953 2.01492 0
M  V30 5729 C 545.503 -1.28331 1.47616 0
M  V30 5730 O 546.709 -1.88537 1.95362 0
M  V30 5731 C 545.165 0.11291 3.59723 0
M  V30 5732 C 544.773 1.48717 4.22596 0
M  V30 5733 C 546.517 -0.341871 4.23121 0
M  V30 5734 C 544.424 1.46531 5.7296 0
M  V30 5735 H 543.354 0.0304365 0.753385 0
M  V30 5736 H 546.005 0.755568 1.67223 0
M  V30 5737 H 544.387 -0.617692 3.91153 0
M  V30 5738 H 545.561 2.23897 4.02749 0
M  V30 5739 H 543.876 1.88351 3.71366 0
M  V30 5740 H 546.473 -0.377304 5.33367 0
M  V30 5741 H 546.816 -1.36325 3.93346 0
M  V30 5742 H 547.349 0.335256 3.96385 0
M  V30 5743 H 544.088 2.46408 6.07423 0
M  V30 5744 H 543.608 0.755997 5.95017 0
M  V30 5745 H 545.287 1.18618 6.36034 0
M  V30 5746 N 545.419 -1.53889 0.339982 0
M  V30 5747 C 546.329 -2.28604 -0.526988 0
M  V30 5748 C 547.345 -1.33578 -1.11503 0
M  V30 5749 O 548.521 -1.66612 -1.13148 0
M  V30 5750 C 545.586 -3.04164 -1.66389 0
M  V30 5751 C 544.647 -4.14809 -1.10599 0
M  V30 5752 C 543.88 -4.86756 -2.18871 0
M  V30 5753 O 544.103 -4.58343 -3.39526 0
M  V30 5754 O 543.037 -5.73289 -1.83366 0
M  V30 5755 H 546.863 -3.03594 0.0802707 0
M  V30 5756 H 544.448 -1.4903 0.105141 0
M  V30 5757 H 546.33 -3.51427 -2.32544 0
M  V30 5758 H 545.005 -2.32035 -2.25703 0
M  V30 5759 H 543.912 -3.71857 -0.409067 0
M  V30 5760 H 545.245 -4.89029 -0.557771 0
M  V30 5761 N 546.897 -0.0685191 -1.57451 0
M  V30 5762 C 547.807 0.914677 -2.16034 0
M  V30 5763 C 548.823 1.32938 -1.12265 0
M  V30 5764 O 549.999 1.40275 -1.44516 0
M  V30 5765 C 547.064 2.16519 -2.70777 0
M  V30 5766 C 546.125 1.80721 -3.89408 0
M  V30 5767 C 545.358 2.9981 -4.41531 0
M  V30 5768 O 545.581 4.13727 -3.92666 0
M  V30 5769 O 544.515 2.79817 -5.32903 0
M  V30 5770 H 548.341 0.446364 -3.00402 0
M  V30 5771 H 545.926 0.154367 -1.486 0
M  V30 5772 H 547.808 2.89856 -3.05878 0
M  V30 5773 H 546.483 2.62454 -1.89471 0
M  V30 5774 H 545.39 1.04646 -3.59166 0
M  V30 5775 H 546.723 1.39571 -4.71997 0
M  V30 5776 N 548.375 1.56261 0.205012 0
M  V30 5777 C 549.285 1.96944 1.27476 0
M  V30 5778 C 550.301 0.875636 1.50362 0
M  V30 5779 O 551.477 1.18058 1.6317 0
M  V30 5780 C 548.542 2.29219 2.60115 0
M  V30 5781 C 547.603 3.52255 2.45387 0
M  V30 5782 C 546.836 3.8298 3.71701 0
M  V30 5783 O 547.059 3.15138 4.75441 0
M  V30 5784 O 545.993 4.76435 3.67823 0
M  V30 5785 H 549.819 2.88144 0.959527 0
M  V30 5786 H 547.404 1.43686 0.409217 0
M  V30 5787 H 549.286 2.51098 3.3842 0
M  V30 5788 H 547.961 1.4119 2.91285 0
M  V30 5789 H 546.868 3.35635 1.65227 0
M  V30 5790 H 548.201 4.40719 2.19152 0
M  V30 5791 N 549.853 -0.472356 1.50355 0
M  V30 5792 C 550.763 -1.59637 1.7191 0
M  V30 5793 C 551.779 -1.63247 0.602195 0
M  V30 5794 O 552.955 -1.81139 0.880369 0
M  V30 5795 C 550.02 -2.9586 1.80742 0
M  V30 5796 C 549.081 -3.02649 3.04471 0
M  V30 5797 C 548.314 -4.32374 3.12872 0
M  V30 5798 O 548.537 -5.22807 2.28099 0
M  V30 5799 O 547.471 -4.44728 4.05587 0
M  V30 5800 H 551.297 -1.44373 2.67189 0
M  V30 5801 H 548.882 -0.651717 1.34436 0
M  V30 5802 H 550.764 -3.7677 1.88739 0
M  V30 5803 H 549.439 -3.11325 0.88647 0
M  V30 5804 H 548.346 -2.20821 3.01975 0
M  V30 5805 H 549.679 -2.92119 3.9614 0
M  V30 5806 N 551.331 -1.39911 -0.725443 0
M  V30 5807 C 552.58 -1.36963 -1.48068 0
M  V30 5808 C 552.893 0.0284478 -1.95579 0
M  V30 5809 O 554.099 0.180535 -2.70899 0
M  V30 5810 C 552.555 -2.40664 -2.67598 0
M  V30 5811 C 552.163 -3.86234 -2.26997 0
M  V30 5812 C 553.907 -2.46807 -3.45379 0
M  V30 5813 C 551.814 -4.81554 -3.43307 0
M  V30 5814 H 550.744 -0.509223 -0.556065 0
M  V30 5815 H 553.395 -1.65602 -0.790454 0
M  V30 5816 H 551.777 -2.05109 -3.38742 0
M  V30 5817 H 552.951 -4.3088 -1.63337 0
M  V30 5818 H 551.266 -3.83475 -1.62284 0
M  V30 5819 H 553.863 -3.15213 -4.31909 0
M  V30 5820 H 554.206 -1.49552 -3.8851 0
M  V30 5821 H 554.739 -2.81303 -2.81271 0
M  V30 5822 H 551.478 -5.80106 -3.05217 0
M  V30 5823 H 550.998 -4.4158 -4.05915 0
M  V30 5824 H 552.677 -5.0091 -4.0951 0
M  V30 5825 N 552.809 0.956637 -1.25245 0
M  V30 5826 C 553.739 2.07058 -1.07931 0
M  V30 5827 C 554.72 1.70096 0.0110361 0
M  V30 5828 O 555.905 1.93555 -0.158121 0
M  V30 5829 C 553.035 3.40272 -0.695124 0
M  V30 5830 C 551.989 3.91235 -1.73549 0
M  V30 5831 C 551.315 5.20921 -1.20604 0
M  V30 5832 C 552.615 4.17837 -3.13385 0
M  V30 5833 H 554.309 2.218 -2.01109 0
M  V30 5834 H 551.855 1.06581 -0.968326 0
M  V30 5835 H 553.808 4.1765 -0.560949 0
M  V30 5836 H 552.532 3.25462 0.272355 0
M  V30 5837 H 551.191 3.16025 -1.85807 0
M  V30 5838 H 550.839 5.02479 -0.228846 0
M  V30 5839 H 550.539 5.55987 -1.90136 0
M  V30 5840 H 552.063 6.00897 -1.08421 0
M  V30 5841 H 553.477 4.8588 -3.04292 0
M  V30 5842 H 551.874 4.64154 -3.80369 0
M  V30 5843 H 552.944 3.2419 -3.60595 0
M  V30 5844 N 554.287 1.06798 1.15896 0
M  V30 5845 C 555.698 0.811355 1.68149 0
M  V30 5846 C 556.049 -0.664339 1.8461 0
M  V30 5847 O 555.174 -1.51485 1.54535 0
M  V30 5848 C 555.769 1.46624 3.05429 0
M  V30 5849 C 554.328 1.25726 3.54781 0
M  V30 5850 C 553.475 1.53949 2.3064 0
M  V30 5851 H 556.426 1.23078 1.00187 0
M  V30 5852 H 556.447 0.88437 3.7008 0
M  V30 5853 H 555.959 2.54025 2.93416 0
M  V30 5854 H 554.06 0.20322 3.72045 0
M  V30 5855 H 554.173 1.97354 4.36564 0
M  V30 5856 H 552.537 0.96025 2.35905 0
M  V30 5857 H 553.32 2.6252 2.2122 0
M  V30 5858 N 555.766 -1.3263 0.851289 0
M  V30 5859 C 557.014 -1.96978 0.452128 0
M  V30 5860 C 557.335 -1.67715 -0.99482 0
M  V30 5861 O 556.605 -0.98259 -1.69476 0
M  V30 5862 H 555.185 -0.72873 0.164202 0
M  V30 5863 H 557.847 -1.61774 1.08698 0
M  V30 5864 H 556.943 -3.06387 0.594407 0
M  V30 5865 N 557.244 -0.608902 -1.45362 0
M  V30 5866 C 558.491 -0.104607 -2.0223 0
M  V30 5867 C 558.819 1.26534 -1.47714 0
M  V30 5868 O 558.074 1.84855 -0.642435 0
M  V30 5869 C 558.373 -0.0167296 -3.57396 0
M  V30 5870 C 558.039 -1.32251 -4.31069 0
M  V30 5871 C 556.701 -1.68019 -4.50914 0
M  V30 5872 C 559.053 -2.18542 -4.73169 0
M  V30 5873 C 556.381 -2.89828 -5.10114 0
M  V30 5874 C 558.733 -3.39602 -5.33717 0
M  V30 5875 C 557.397 -3.7562 -5.51784 0
M  V30 5876 H 556.667 -0.0382785 -0.740011 0
M  V30 5877 H 559.314 -0.790782 -1.7441 0
M  V30 5878 H 557.619 0.752715 -3.84502 0
M  V30 5879 H 559.316 0.389634 -3.99103 0
M  V30 5880 H 555.906 -1.03411 -4.15938 0
M  V30 5881 H 560.09 -1.92208 -4.5757 0
M  V30 5882 H 555.346 -3.17839 -5.22291 0
M  V30 5883 H 559.52 -4.06716 -5.65292 0
M  V30 5884 H 557.147 -4.70093 -5.97425 0
M  V30 5885 N 558.722 1.53707 -0.348139 0
M  V30 5886 C 559.971 2.0017 0.247992 0
M  V30 5887 C 560.284 1.23983 1.51286 0
M  V30 5888 O 561.49 1.60946 2.18652 0
M  V30 5889 C 559.946 3.56515 0.492459 0
M  V30 5890 C 559.554 4.41562 -0.756777 0
M  V30 5891 C 561.298 4.11381 1.0472 0
M  V30 5892 C 559.205 5.89426 -0.482856 0
M  V30 5893 H 558.135 0.747806 0.0964452 0
M  V30 5894 H 560.786 1.77532 -0.464179 0
M  V30 5895 H 559.168 3.75236 1.26545 0
M  V30 5896 H 560.342 4.34615 -1.53122 0
M  V30 5897 H 558.657 3.97711 -1.23348 0
M  V30 5898 H 561.254 5.19468 1.26717 0
M  V30 5899 H 561.597 3.64885 2.00411 0
M  V30 5900 H 562.13 3.96389 0.334801 0
M  V30 5901 H 558.869 6.40164 -1.40962 0
M  V30 5902 H 558.389 5.99264 0.253416 0
M  V30 5903 H 560.068 6.4692 -0.101816 0
M  V30 5904 N 560.2 0.0768682 1.57412 0
M  V30 5905 C 561.13 -0.886026 2.16037 0
M  V30 5906 C 562.111 -1.30691 1.08876 0
M  V30 5907 O 563.296 -1.37705 1.36934 0
M  V30 5908 C 560.426 -2.1518 2.72608 0
M  V30 5909 C 559.38 -1.87015 3.8498 0
M  V30 5910 C 558.706 -3.20266 4.28175 0
M  V30 5911 C 560.006 -1.17143 5.08994 0
M  V30 5912 H 561.7 -0.397642 2.96748 0
M  V30 5913 H 559.246 -0.189823 1.42743 0
M  V30 5914 H 561.199 -2.82962 3.12266 0
M  V30 5915 H 559.923 -2.66269 1.89125 0
M  V30 5916 H 558.582 -1.21636 3.45833 0
M  V30 5917 H 558.23 -3.69207 3.41607 0
M  V30 5918 H 557.93 -3.0221 5.03927 0
M  V30 5919 H 559.454 -3.89237 4.70454 0
M  V30 5920 H 560.868 -1.75003 5.45937 0
M  V30 5921 H 559.265 -1.09328 5.90057 0
M  V30 5922 H 560.335 -0.151295 4.84664 0
M  V30 5923 N 561.678 -1.56367 -0.196722 0
M  V30 5924 C 562.918 -1.82315 -0.92415 0
M  V30 5925 C 563.282 -0.654117 -1.80514 0
M  V30 5926 O 564.483 -0.79345 -2.56823 0
M  V30 5927 C 562.754 -3.13279 -1.72021 0
M  V30 5928 S 564.313 -3.60627 -2.49988 0
M  V30 5929 H 561.131 -0.639862 -0.309997 0
M  V30 5930 H 563.733 -1.94597 -0.187684 0
M  V30 5931 H 562.437 -3.96379 -1.06358 0
M  V30 5932 H 561.968 -3.03871 -2.49852 0
M  V30 5933 H 563.983 -3.25934 -3.74141 0
M  V30 5934 N 563.156 0.464375 -1.50603 0
M  V30 5935 C 564.433 1.22549 -1.5245 0
M  V30 5936 C 564.813 2.09327 -0.273035 0
M  V30 5937 O 564.161 2.16074 0.743242 0
M  V30 5938 C 564.371 2.05074 -2.82393 0
M  V30 5939 C 565.719 2.63036 -3.33313 0
M  V30 5940 O 566.743 2.1531 -2.8376 0
M  V30 5941 O 565.602 3.5001 -4.19709 0
M  V30 5942 H 562.696 0.556471 -0.611775 0
M  V30 5943 H 565.242 0.475648 -1.62898 0
M  V30 5944 H 564.014 1.41169 -3.64948 0
M  V30 5945 H 563.637 2.87179 -2.7498 0
M  V30 5946 N 564.634 1.40294 0.718013 0
M  V30 5947 C 566.045 1.34289 1.29705 0
M  V30 5948 C 566.396 0.0152228 1.96194 0
M  V30 5949 O 565.521 -0.88682 1.97394 0
M  V30 5950 C 566.116 2.43219 2.3586 0
M  V30 5951 C 564.675 2.40682 2.89394 0
M  V30 5952 C 563.822 2.24223 1.63154 0
M  V30 5953 H 566.773 1.50135 0.514312 0
M  V30 5954 H 566.794 2.10986 3.16647 0
M  V30 5955 H 566.306 3.39836 1.87439 0
M  V30 5956 H 564.407 1.47756 3.42051 0
M  V30 5957 H 564.52 3.36177 3.41353 0
M  V30 5958 H 562.884 1.71696 1.88129 0
M  V30 5959 H 563.667 3.22834 1.16761 0
M  V30 5960 N 566.112 -0.949982 1.2575 0
M  V30 5961 C 567.06 -2.06869 1.06339 0
M  V30 5962 C 568.054 -1.69399 -0.00708901 0
M  V30 5963 O 569.26 -1.79383 0.148897 0
M  V30 5964 H 565.635 -0.677197 0.326969 0
M  V30 5965 H 567.606 -2.20396 2.01167 0
M  V30 5966 C 566.355 -3.40503 0.703769 0
M  V30 5967 H 565.678 -3.69807 1.51931 0
M  V30 5968 H 567.118 -4.19623 0.607677 0
M  V30 5969 C 565.577 -3.31685 -0.5905 0
M  V30 5970 O 566.107 -3.67085 -1.63131 0
M  V30 5971 N 564.313 -2.84797 -0.577859 0
M  V30 5972 H 563.86 -2.56186 0.26951 0
M  V30 5973 H 563.818 -2.79279 -1.44398 0
M  V30 5974 N 567.59 -1.07411 -1.15328 0
M  V30 5975 C 568.538 -0.689316 -2.22151 0
M  V30 5976 C 569.532 0.300156 -1.6672 0
M  V30 5977 O 570.738 0.163804 -1.79253 0
M  V30 5978 H 567.113 -0.204834 -0.723566 0
M  V30 5979 H 569.084 -1.59988 -2.51886 0
M  V30 5980 C 567.833 -0.103848 -3.47545 0
M  V30 5981 H 567.156 -0.856367 -3.90521 0
M  V30 5982 H 568.596 0.127725 -4.23808 0
M  V30 5983 C 567.055 1.15563 -3.1646 0
M  V30 5984 O 567.585 2.242 -3.33312 0
M  V30 5985 N 565.791 1.06203 -2.70498 0
M  V30 5986 H 565.338 0.177933 -2.56985 0
M  V30 5987 H 565.296 1.90553 -2.50074 0
M  V30 5988 N 569.068 1.32177 -0.85831 0
M  V30 5989 C 569.998 2.31282 -0.321041 0
M  V30 5990 C 570.979 1.59841 0.581786 0
M  V30 5991 O 572.164 1.87619 0.501262 0
M  V30 5992 C 569.294 3.4385 0.48832 0
M  V30 5993 C 568.248 4.26799 -0.320391 0
M  V30 5994 C 567.574 5.31164 0.613934 0
M  V30 5995 C 568.874 4.98829 -1.54813 0
M  V30 5996 H 570.568 2.76469 -1.14915 0
M  V30 5997 H 568.114 1.32916 -0.554028 0
M  V30 5998 H 570.067 4.12224 0.874626 0
M  V30 5999 H 568.791 2.97401 1.34983 0
M  V30 6000 H 567.45 3.60077 -0.688497 0
M  V30 6001 H 567.098 4.80967 1.47239 0
M  V30 6002 H 566.798 5.8755 0.0768097 0
M  V30 6003 H 568.322 6.024 0.997336 0
M  V30 6004 H 569.736 5.59864 -1.23392 0
M  V30 6005 H 568.133 5.64957 -2.02346 0
M  V30 6006 H 569.203 4.26483 -2.30739 0
M  V30 6007 N 570.547 0.616602 1.45037 0
M  V30 6008 C 571.787 0.118453 2.04056 0
M  V30 6009 C 572.151 -1.23104 1.47341 0
M  V30 6010 O 573.352 -1.82044 1.97771 0
M  V30 6011 C 571.623 0.0892842 3.57288 0
M  V30 6012 S 573.182 -0.346361 4.37431 0
M  V30 6013 H 570 0.0539728 0.708948 0
M  V30 6014 H 572.602 0.816731 1.77623 0
M  V30 6015 H 571.306 1.07481 3.96076 0
M  V30 6016 H 570.837 -0.630703 3.88311 0
M  V30 6017 H 572.852 -1.59389 4.69904 0
M  V30 6018 N 572.025 -1.5352 0.356285 0
M  V30 6019 C 572.975 -2.22204 -0.510815 0
M  V30 6020 C 573.959 -1.21393 -1.05605 0
M  V30 6021 O 575.151 -1.46883 -0.987639 0
M  V30 6022 C 572.28 -3.00786 -1.65478 0
M  V30 6023 C 571.366 -4.08965 -1.12287 0
M  V30 6024 N 571.757 -5.04829 -0.313191 0
M  V30 6025 C 570.055 -4.23505 -1.39856 0
M  V30 6026 C 570.756 -5.81695 -0.0230322 0
M  V30 6027 N 569.732 -5.40074 -0.618144 0
M  V30 6028 H 573.534 -2.93676 0.114711 0
M  V30 6029 H 571.048 -1.61572 0.163811 0
M  V30 6030 H 573.045 -3.48502 -2.28806 0
M  V30 6031 H 571.705 -2.30843 -2.28345 0
M  V30 6032 H 572.716 -5.17879 0.0468202 0
M  V30 6033 H 569.393 -3.64786 -2.0307 0
M  V30 6034 H 570.783 -6.68931 0.630927 0
M  V30 6035 N 573.503 -0.0852151 -1.57369 0
M  V30 6036 C 574.728 0.592872 -1.98746 0
M  V30 6037 C 575.153 1.61538 -0.963689 0
M  V30 6038 O 574.511 1.81168 0.069071 0
M  V30 6039 C 574.559 1.22599 -3.39119 0
M  V30 6040 O 573.663 2.34185 -3.39457 0
M  V30 6041 H 573.004 0.151314 -0.646529 0
M  V30 6042 H 575.534 -0.163703 -2.03944 0
M  V30 6043 H 575.544 1.56965 -3.76598 0
M  V30 6044 H 574.219 0.476831 -4.13158 0
M  V30 6045 H 572.796 2.01512 -3.13763 0
M  V30 6046 N 574.981 1.5647 0.188427 0
M  V30 6047 C 576.229 1.80655 0.905986 0
M  V30 6048 C 576.55 0.659391 1.83513 0
M  V30 6049 O 575.82 -0.321868 1.93238 0
M  V30 6050 H 574.4 0.666391 0.337538 0
M  V30 6051 H 577.062 1.93949 0.192339 0
M  V30 6052 H 576.158 2.74066 1.49313 0
M  V30 6053 N 576.459 -0.456382 1.50847 0
M  V30 6054 C 577.875 -0.791345 1.386 0
M  V30 6055 C 578.075 -1.9633 0.453498 0
M  V30 6056 O 577.131 -2.52308 -0.0984353 0
M  V30 6057 C 578.444 -1.08959 2.80265 0
M  V30 6058 C 579.992 -1.19517 2.89283 0
M  V30 6059 C 580.467 -1.52647 4.31814 0
M  V30 6060 N 581.958 -1.59609 4.34832 0
M  V30 6061 C 582.693 -1.86777 5.42127 0
M  V30 6062 N 582.189 -2.11866 6.59609 0
M  V30 6063 N 583.982 -1.88402 5.29586 0
M  V30 6064 H 576.133 0.315746 2.1004 0
M  V30 6065 H 578.396 0.0787916 0.94472 0
M  V30 6066 H 578.102 -0.301355 3.50407 0
M  V30 6067 H 577.976 -2.02211 3.18419 0
M  V30 6068 H 580.363 -1.97406 2.19351 0
M  V30 6069 H 580.444 -0.242111 2.54652 0
M  V30 6070 H 580.088 -0.752922 5.02288 0
M  V30 6071 H 580.018 -2.49127 4.63943 0
M  V30 6072 H 582.509 -1.42201 3.50125 0
M  V30 6073 H 582.822 -2.31912 7.37182 0
M  V30 6074 H 581.167 -2.09228 6.62758 0
M  V30 6075 H 584.358 -1.68307 4.36795 0
M  V30 6076 H 584.531 -2.09238 6.13289 0
M  V30 6077 N 577.937 -1.40673 -0.710563 0
M  V30 6078 C 579.165 -1.42547 -1.4996 0
M  V30 6079 C 579.58 -0.0265485 -1.88781 0
M  V30 6080 O 578.937 0.950694 -1.55782 0
M  V30 6081 C 578.988 -2.32071 -2.77173 0
M  V30 6082 O 578.709 -3.66518 -2.39992 0
M  V30 6083 C 580.21 -2.42591 -3.71032 0
M  V30 6084 H 577.43 -0.486025 -0.462623 0
M  V30 6085 H 579.974 -1.84783 -0.876102 0
M  V30 6086 H 578.129 -1.93184 -3.35795 0
M  V30 6087 H 578.543 -4.14115 -3.21884 0
M  V30 6088 H 580.017 -3.09429 -4.57119 0
M  V30 6089 H 580.494 -1.4525 -4.14486 0
M  V30 6090 H 581.1 -2.82051 -3.18319 0
M  V30 6091 N 579.415 0.9433 -1.26252 0
M  V30 6092 C 580.662 1.68925 -1.11672 0
M  V30 6093 C 580.99 1.91499 0.340329 0
M  V30 6094 O 580.245 1.49189 1.26653 0
M  V30 6095 C 580.544 3.07073 -1.82868 0
M  V30 6096 C 580.21 3.04262 -3.32769 0
M  V30 6097 C 578.872 3.03203 -3.7366 0
M  V30 6098 C 581.224 2.96729 -4.28487 0
M  V30 6099 C 578.552 2.92373 -5.0866 0
M  V30 6100 C 580.904 2.87442 -5.63525 0
M  V30 6101 C 579.568 2.84724 -6.03729 0
M  V30 6102 H 578.838 0.618141 -0.408635 0
M  V30 6103 H 581.485 1.10124 -1.56668 0
M  V30 6104 H 579.79 3.69486 -1.30335 0
M  V30 6105 H 581.487 3.63635 -1.69029 0
M  V30 6106 H 578.077 3.05865 -3.00241 0
M  V30 6107 H 582.261 2.96658 -3.97879 0
M  V30 6108 H 577.517 2.88645 -5.38975 0
M  V30 6109 H 581.691 2.80576 -6.37377 0
M  V30 6110 H 579.318 2.76089 -7.08293 0
M  V30 6111 N 580.893 1.08022 1.14757 0
M  V30 6112 C 582.17 0.720386 1.81851 0
M  V30 6113 C 582.55 -0.796375 1.95502 0
M  V30 6114 O 581.898 -1.71339 1.51179 0
M  V30 6115 C 582.108 1.44273 3.17783 0
M  V30 6116 C 583.456 1.59925 3.93331 0
M  V30 6117 O 584.48 1.40407 3.2736 0
M  V30 6118 O 583.339 1.92096 5.11626 0
M  V30 6119 H 580.433 0.257142 0.786007 0
M  V30 6120 H 582.979 1.18155 1.21809 0
M  V30 6121 H 581.751 2.47618 3.02987 0
M  V30 6122 H 581.374 0.97279 3.85516 0
M  V30 6123 N 582.371 -1.3172 0.865308 0
M  V30 6124 C 583.334 -2.26918 0.322627 0
M  V30 6125 C 584.334 -1.52031 -0.523751 0
M  V30 6126 O 585.524 -1.70973 -0.333727 0
M  V30 6127 C 582.656 -3.36558 -0.542338 0
M  V30 6128 H 583.849 -2.76432 1.16298 0
M  V30 6129 H 581.402 -1.42573 0.640512 0
M  V30 6130 H 582.137 -2.92329 -1.40407 0
M  V30 6131 H 581.922 -3.92048 0.0636395 0
M  V30 6132 H 583.412 -4.07465 -0.91446 0
M  V30 6133 N 583.85 -0.624285 -1.44708 0
M  V30 6134 C 584.782 0.12305 -2.28869 0
M  V30 6135 C 585.795 0.81557 -1.40898 0
M  V30 6136 O 586.984 0.678162 -1.65116 0
M  V30 6137 C 584.084 1.19612 -3.1709 0
M  V30 6138 C 583.257 0.587452 -4.33437 0
M  V30 6139 C 582.316 1.55358 -5.02743 0
M  V30 6140 O 581.341 1.07338 -5.58988 0
M  V30 6141 N 582.543 2.88798 -5.03563 0
M  V30 6142 H 585.308 -0.599193 -2.93649 0
M  V30 6143 H 582.87 -0.464954 -1.5508 0
M  V30 6144 H 584.861 1.84261 -3.60319 0
M  V30 6145 H 583.432 1.82067 -2.54107 0
M  V30 6146 H 582.652 -0.237509 -3.93484 0
M  V30 6147 H 583.94 0.161326 -5.08544 0
M  V30 6148 H 583.338 3.30399 -4.59188 0
M  V30 6149 H 581.894 3.48826 -5.50603 0
M  V30 6150 N 585.328 1.53329 -0.364422 0
M  V30 6151 C 586.577 2.00421 0.226747 0
M  V30 6152 C 586.89 1.25581 1.49963 0
M  V30 6153 O 588.096 1.63256 2.16933 0
M  V30 6154 C 586.552 3.57017 0.454618 0
M  V30 6155 C 586.16 4.40734 -0.803568 0
M  V30 6156 C 587.904 4.12468 1.00351 0
M  V30 6157 C 585.811 5.8888 -0.545345 0
M  V30 6158 H 584.741 0.748787 0.0885082 0
M  V30 6159 H 587.392 1.7703 -0.482983 0
M  V30 6160 H 585.774 3.76558 1.22558 0
M  V30 6161 H 586.948 4.32967 -1.57723 0
M  V30 6162 H 585.263 3.96381 -1.27559 0
M  V30 6163 H 587.86 5.20783 1.212 0
M  V30 6164 H 588.203 3.6699 1.9653 0
M  V30 6165 H 588.736 3.96721 0.29274 0
M  V30 6166 H 585.475 6.38633 -1.47743 0
M  V30 6167 H 584.995 5.99499 0.189842 0
M  V30 6168 H 586.674 6.46776 -0.170425 0
M  V30 6169 N 586.806 0.0935595 1.57322 0
M  V30 6170 C 588.052 -0.571355 1.94585 0
M  V30 6171 C 588.385 -1.67929 0.975366 0
M  V30 6172 O 587.66 -1.94498 0.00816206 0
M  V30 6173 C 587.943 -1.12797 3.41978 0
M  V30 6174 C 587.796 -0.0251881 4.49793 0
M  V30 6175 C 589.115 -2.02682 3.90651 0
M  V30 6176 H 586.234 -0.206223 0.70756 0
M  V30 6177 H 588.876 0.163956 1.89291 0
M  V30 6178 H 587.026 -1.75461 3.4662 0
M  V30 6179 H 588.698 0.608979 4.57263 0
M  V30 6180 H 586.941 0.641399 4.29032 0
M  V30 6181 H 587.612 -0.455433 5.50118 0
M  V30 6182 H 590.088 -1.49925 3.88152 0
M  V30 6183 H 588.964 -2.38555 4.94351 0
M  V30 6184 H 589.225 -2.94362 3.29854 0
M  V30 6185 N 588.284 -1.56567 -0.180126 0
M  V30 6186 C 589.533 -1.80685 -0.896426 0
M  V30 6187 C 589.846 -0.669335 -1.83791 0
M  V30 6188 O 591.052 -0.795209 -2.59593 0
M  V30 6189 C 589.508 -3.20132 -1.6445 0
M  V30 6190 C 589.116 -4.41727 -0.747088 0
M  V30 6191 C 590.86 -3.53549 -2.34955 0
M  V30 6192 C 588.767 -5.72195 -1.49489 0
M  V30 6193 H 587.697 -0.673758 -0.338477 0
M  V30 6194 H 590.348 -1.8289 -0.149467 0
M  V30 6195 H 588.73 -3.12218 -2.43589 0
M  V30 6196 H 589.904 -4.608 0.00671129 0
M  V30 6197 H 588.219 -4.16122 -0.152134 0
M  V30 6198 H 590.816 -4.48267 -2.91481 0
M  V30 6199 H 591.159 -2.78006 -3.09868 0
M  V30 6200 H 591.692 -3.62976 -1.62768 0
M  V30 6201 H 588.431 -6.50743 -0.788251 0
M  V30 6202 H 587.951 -5.57115 -2.22224 0
M  V30 6203 H 589.63 -6.1384 -2.04472 0
M  V30 6204 N 589.762 0.448376 -1.51087 0
M  V30 6205 C 591.011 1.19561 -1.62444 0
M  V30 6206 C 591.324 1.92602 -0.341151 0
M  V30 6207 O 592.53 2.69439 -0.333936 0
M  V30 6208 C 590.986 2.17373 -2.8684 0
M  V30 6209 C 590.594 1.5003 -4.22131 0
M  V30 6210 C 592.338 2.92597 -3.0755 0
M  V30 6211 C 590.245 2.46262 -5.37689 0
M  V30 6212 H 589.175 0.449975 -0.605011 0
M  V30 6213 H 591.826 0.463735 -1.77544 0
M  V30 6214 H 590.208 2.93948 -2.65349 0
M  V30 6215 H 591.382 0.790886 -4.53962 0
M  V30 6216 H 589.697 0.870011 -4.0721 0
M  V30 6217 H 592.294 3.64663 -3.91056 0
M  V30 6218 H 592.637 3.53306 -2.20183 0
M  V30 6219 H 593.17 2.23131 -3.29329 0
M  V30 6220 H 589.909 1.90258 -6.27281 0
M  V30 6221 H 589.429 3.15289 -5.10248 0
M  V30 6222 H 591.108 3.07623 -5.6919 0
M  V30 6223 N 591.24 1.41047 0.703093 0
M  V30 6224 C 592.15 1.44645 1.84703 0
M  V30 6225 C 593.166 0.337778 1.7069 0
M  V30 6226 O 594.342 0.584327 1.92737 0
M  V30 6227 C 591.407 1.31928 3.20618 0
M  V30 6228 C 590.468 2.53047 3.46794 0
M  V30 6229 C 589.701 2.40927 4.76224 0
M  V30 6230 O 589.924 1.42978 5.5219 0
M  V30 6231 O 588.858 3.30543 5.03016 0
M  V30 6232 H 592.684 2.41139 1.84624 0
M  V30 6233 H 590.269 1.22504 0.855167 0
M  V30 6234 H 592.151 1.27092 4.01778 0
M  V30 6235 H 590.826 0.385469 3.21397 0
M  V30 6236 H 589.733 2.6346 2.65593 0
M  V30 6237 H 591.066 3.45231 3.50822 0
M  V30 6238 N 592.718 -0.936591 1.26751 0
M  V30 6239 C 593.668 -2.0219 1.05371 0
M  V30 6240 C 594.652 -1.60893 -0.0154112 0
M  V30 6241 O 595.844 -1.75843 0.202085 0
M  V30 6242 C 592.973 -3.36222 0.693541 0
M  V30 6243 C 592.059 -3.8399 1.80035 0
M  V30 6244 N 592.45 -4.0436 3.03852 0
M  V30 6245 C 590.748 -4.12945 1.685 0
M  V30 6246 C 591.449 -4.44 3.75818 0
M  V30 6247 N 590.425 -4.50966 3.03531 0
M  V30 6248 H 594.227 -2.15958 1.99347 0
M  V30 6249 H 591.741 -1.12277 1.17335 0
M  V30 6250 H 593.738 -4.13625 0.521513 0
M  V30 6251 H 592.398 -3.23821 -0.238693 0
M  V30 6252 H 593.409 -3.9092 3.39709 0
M  V30 6253 H 590.086 -4.09308 0.822986 0
M  V30 6254 H 591.476 -4.67914 4.82189 0
M  V30 6255 N 594.196 -1.08629 -1.14182 0
M  V30 6256 C 595.143 -0.718299 -2.19338 0
M  V30 6257 C 596.113 0.296587 -1.63431 0
M  V30 6258 O 597.298 0.180079 -1.89948 0
M  V30 6259 C 594.438 -0.136203 -3.44831 0
M  V30 6260 C 593.551 -1.20414 -4.14879 0
M  V30 6261 C 592.686 -0.585666 -5.27962 0
M  V30 6262 C 591.725 -1.63548 -5.89846 0
M  V30 6263 N 590.862 -1.03864 -6.94375 0
M  V30 6264 H 595.702 -1.61932 -2.50164 0
M  V30 6265 H 593.239 -0.80919 -1.22844 0
M  V30 6266 H 595.197 0.219021 -4.16625 0
M  V30 6267 H 593.827 0.728121 -3.14481 0
M  V30 6268 H 592.879 -1.67676 -3.41451 0
M  V30 6269 H 594.191 -1.99959 -4.56966 0
M  V30 6270 H 593.345 -0.178818 -6.06436 0
M  V30 6271 H 592.084 0.24142 -4.87102 0
M  V30 6272 H 591.089 -2.05197 -5.10073 0
M  V30 6273 H 592.314 -2.46509 -6.3278 0
M  V30 6274 H 590.26 -0.232687 -6.55587 0
M  V30 6275 H 590.177 -1.77116 -7.3496 0
M  V30 6276 H 591.445 -0.657724 -7.7672 0
M  V30 6277 N 595.674 1.31259 -0.872281 0
M  V30 6278 C 596.899 2.0133 -0.498099 0
M  V30 6279 C 597.324 1.65031 0.902568 0
M  V30 6280 O 596.682 0.860164 1.59596 0
M  V30 6281 C 596.73 3.54411 -0.665205 0
M  V30 6282 O 595.834 4.11347 0.294473 0
M  V30 6283 H 595.175 0.633844 -0.197832 0
M  V30 6284 H 597.705 1.67402 -1.17633 0
M  V30 6285 H 597.715 4.04147 -0.559373 0
M  V30 6286 H 596.39 3.80171 -1.68651 0
M  V30 6287 H 594.967 3.72624 0.143403 0
M  V30 6288 N 597.152 0.631951 1.44375 0
M  V30 6289 C 598.401 0.134214 2.01253 0
M  V30 6290 C 598.714 -1.25171 1.50305 0
M  V30 6291 O 599.92 -1.8435 1.99317 0
M  V30 6292 C 598.376 0.189187 3.59402 0
M  V30 6293 C 597.984 1.57647 4.19346 0
M  V30 6294 C 599.728 -0.252044 4.23751 0
M  V30 6295 C 597.635 1.58651 5.69722 0
M  V30 6296 H 596.565 0.0464101 0.75257 0
M  V30 6297 H 599.216 0.790868 1.65582 0
M  V30 6298 H 597.598 -0.534584 3.92375 0
M  V30 6299 H 598.772 2.32389 3.97909 0
M  V30 6300 H 597.087 1.96186 3.67288 0
M  V30 6301 H 599.684 -0.264084 5.34047 0
M  V30 6302 H 600.027 -1.27951 3.96149 0
M  V30 6303 H 600.56 0.41926 3.95584 0
M  V30 6304 H 597.299 2.59237 6.0206 0
M  V30 6305 H 596.819 0.882039 5.93279 0
M  V30 6306 H 598.498 1.32082 6.33375 0
M  V30 6307 N 598.631 -1.53133 0.372548 0
M  V30 6308 C 599.88 -2.00539 -0.216115 0
M  V30 6309 C 600.193 -1.26374 -1.49295 0
M  V30 6310 O 601.399 -1.64404 -2.16064 0
M  V30 6311 C 599.855 -3.57253 -0.435678 0
M  V30 6312 C 599.463 -4.40302 0.82693 0
M  V30 6313 C 601.207 -4.12995 -0.981618 0
M  V30 6314 C 599.114 -5.88583 0.576567 0
M  V30 6315 H 598.044 -0.749246 -0.084536 0
M  V30 6316 H 600.695 -1.76771 0.492364 0
M  V30 6317 H 599.077 -3.77202 -1.20559 0
M  V30 6318 H 600.251 -4.32124 1.60017 0
M  V30 6319 H 598.566 -3.95699 1.29659 0
M  V30 6320 H 601.163 -5.21418 -1.18436 0
M  V30 6321 H 601.506 -3.68027 -1.94581 0
M  V30 6322 H 602.039 -3.96871 -0.271696 0
M  V30 6323 H 598.778 -6.37841 1.51128 0
M  V30 6324 H 598.298 -5.99592 -0.158047 0
M  V30 6325 H 599.977 -6.46676 0.204722 0
M  V30 6326 N 600.109 -0.101901 -1.5727 0
M  V30 6327 C 601.349 0.563489 -1.96479 0
M  V30 6328 C 601.713 1.64926 -0.983021 0
M  V30 6329 O 602.914 2.37234 -1.26386 0
M  V30 6330 C 601.185 1.09809 -3.40113 0
M  V30 6331 S 602.744 1.7744 -4.01323 0
M  V30 6332 H 599.562 0.183675 -0.686866 0
M  V30 6333 H 602.164 -0.182922 -1.94642 0
M  V30 6334 H 600.868 0.296447 -4.09328 0
M  V30 6335 H 600.399 1.88018 -3.45562 0
M  V30 6336 H 602.414 3.0591 -3.90683 0
M  V30 6337 N 601.587 1.56661 0.17182 0
M  V30 6338 C 602.998 1.71652 0.734329 0
M  V30 6339 C 603.349 0.712335 1.82812 0
M  V30 6340 O 602.474 -0.126401 2.16031 0
M  V30 6341 C 603.069 3.11226 1.3388 0
M  V30 6342 C 601.628 3.27904 1.84813 0
M  V30 6343 C 600.775 2.67603 0.726917 0
M  V30 6344 H 603.726 1.5861 -0.0535665 0
M  V30 6345 H 603.747 3.09849 2.20849 0
M  V30 6346 H 603.259 3.8429 0.54249 0
M  V30 6347 H 601.36 2.59796 2.6709 0
M  V30 6348 H 601.473 4.35637 1.99392 0
M  V30 6349 H 599.837 2.274 1.14723 0
M  V30 6350 H 600.62 3.43252 -0.0575334 0
M  V30 6351 N 603.065 -0.440357 1.51323 0
M  V30 6352 C 604.313 -1.18769 1.63518 0
M  V30 6353 C 604.634 -1.91793 0.352201 0
M  V30 6354 O 603.904 -1.85432 -0.631811 0
M  V30 6355 H 602.484 -0.441408 0.602634 0
M  V30 6356 H 605.146 -0.505162 1.8824 0
M  V30 6357 H 604.242 -1.91892 2.46138 0
M  V30 6358 N 604.543 -1.41418 -0.695603 0
M  V30 6359 C 605.773 -1.43921 -1.48224 0
M  V30 6360 C 606.181 -0.0428855 -1.89151 0
M  V30 6361 O 605.524 0.948138 -1.5734 0
M  V30 6362 C 605.586 -2.28466 -2.77567 0
M  V30 6363 C 605.25 -3.76629 -2.58844 0
M  V30 6364 C 606.247 -4.6879 -2.24793 0
M  V30 6365 C 603.932 -4.2067 -2.74485 0
M  V30 6366 C 605.926 -6.02981 -2.06622 0
M  V30 6367 C 603.613 -5.54926 -2.55931 0
M  V30 6368 C 604.611 -6.45897 -2.2205 0
M  V30 6369 O 604.299 -7.77675 -2.03657 0
M  V30 6370 H 604.031 -0.492252 -0.463318 0
M  V30 6371 H 606.585 -1.86347 -0.863952 0
M  V30 6372 H 604.815 -1.80853 -3.41802 0
M  V30 6373 H 606.504 -2.2267 -3.39371 0
M  V30 6374 H 607.27 -4.36055 -2.12323 0
M  V30 6375 H 603.149 -3.50167 -2.9984 0
M  V30 6376 H 606.693 -6.73951 -1.80099 0
M  V30 6377 H 602.59 -5.8724 -2.67991 0
M  V30 6378 H 603.358 -7.88819 -2.1842 0
M  V30 6379 N 606.021 0.929856 -1.27246 0
M  V30 6380 C 606.969 2.05151 -1.09616 0
M  V30 6381 C 607.963 1.69388 -0.0198617 0
M  V30 6382 O 609.169 1.79124 -0.177417 0
M  V30 6383 H 605.544 0.671909 -0.337701 0
M  V30 6384 H 607.515 2.17168 -2.04648 0
M  V30 6385 C 606.264 3.3934 -0.757851 0
M  V30 6386 H 605.587 3.67343 -1.57795 0
M  V30 6387 H 607.027 4.18603 -0.674358 0
M  V30 6388 C 605.486 3.32582 0.537658 0
M  V30 6389 O 606.016 3.69633 1.57271 0
M  V30 6390 N 604.222 2.8568 0.532478 0
M  V30 6391 H 603.769 2.55725 -0.310233 0
M  V30 6392 H 603.727 2.81541 1.39936 0
M  V30 6393 N 607.499 1.09233 1.13605 0
M  V30 6394 C 608.462 0.733553 2.17144 0
M  V30 6395 C 609.462 -0.235873 1.59061 0
M  V30 6396 O 610.652 -0.0143167 1.74194 0
M  V30 6397 C 607.784 0.084471 3.40795 0
M  V30 6398 H 608.977 1.65049 2.50397 0
M  V30 6399 H 606.53 0.891264 1.28399 0
M  V30 6400 H 607.265 -0.843795 3.1313 0
M  V30 6401 H 607.05 0.781985 3.84223 0
M  V30 6402 H 608.54 -0.151216 4.17326 0
M  V30 6403 N 608.977 -1.30795 0.87923 0
M  V30 6404 C 610.223 -1.96653 0.495519 0
M  V30 6405 C 610.556 -1.69282 -0.951703 0
M  V30 6406 O 609.831 -0.994374 -1.6716 0
M  V30 6407 C 610.114 -3.51898 0.764174 0
M  V30 6408 C 609.967 -3.88808 2.2616 0
M  V30 6409 C 611.286 -4.39462 0.236825 0
M  V30 6410 H 608.405 -0.7143 0.181507 0
M  V30 6411 H 611.047 -1.54765 1.10217 0
M  V30 6412 H 609.197 -3.87709 0.247841 0
M  V30 6413 H 610.869 -3.63051 2.8459 0
M  V30 6414 H 609.112 -3.37082 2.73053 0
M  V30 6415 H 609.783 -4.97086 2.4002 0
M  V30 6416 H 612.259 -4.10528 0.678683 0
M  V30 6417 H 611.135 -5.47018 0.454176 0
M  V30 6418 H 611.396 -4.33621 -0.861683 0
M  V30 6419 N 610.455 -0.639598 -1.44038 0
M  V30 6420 C 611.385 0.0469443 -2.33453 0
M  V30 6421 C 612.366 0.82609 -1.48694 0
M  V30 6422 O 613.551 0.790285 -1.77393 0
M  V30 6423 C 610.681 1.02338 -3.3188 0
M  V30 6424 C 609.635 0.355284 -4.26523 0
M  V30 6425 C 608.961 1.44221 -5.14883 0
M  V30 6426 C 610.261 -0.743798 -5.16977 0
M  V30 6427 H 611.955 -0.699735 -2.91108 0
M  V30 6428 H 609.501 -0.337946 -1.39978 0
M  V30 6429 H 611.454 1.51247 -3.93322 0
M  V30 6430 H 610.178 1.80105 -2.72451 0
M  V30 6431 H 608.837 -0.113239 -3.66425 0
M  V30 6432 H 608.485 2.21097 -4.51802 0
M  V30 6433 H 608.185 1.00052 -5.79019 0
M  V30 6434 H 609.709 1.93295 -5.79197 0
M  V30 6435 H 611.123 -0.337444 -5.72306 0
M  V30 6436 H 609.52 -1.10914 -5.89761 0
M  V30 6437 H 610.59 -1.60745 -4.57481 0
M  V30 6438 N 611.933 1.52934 -0.380664 0
M  V30 6439 C 612.883 2.22989 0.475399 0
M  V30 6440 C 613.867 1.23058 1.03661 0
M  V30 6441 O 615.059 1.48436 0.964146 0
M  V30 6442 C 612.188 3.0338 1.60671 0
M  V30 6443 C 611.274 4.107 1.05766 0
M  V30 6444 N 611.665 5.05264 0.232837 0
M  V30 6445 C 609.963 4.25676 1.33101 0
M  V30 6446 C 610.664 5.81658 -0.0695134 0
M  V30 6447 N 609.64 5.40989 0.532144 0
M  V30 6448 H 613.442 2.93456 -0.161418 0
M  V30 6449 H 610.956 1.61291 -0.189495 0
M  V30 6450 H 612.953 3.52098 2.23232 0
M  V30 6451 H 611.613 2.34446 2.24644 0
M  V30 6452 H 612.624 5.17739 -0.129204 0
M  V30 6453 H 609.301 3.6797 1.97241 0
M  V30 6454 H 610.691 6.67843 -0.737269 0
M  V30 6455 N 613.412 0.11024 1.57214 0
M  V30 6456 C 614.661 -0.549638 1.94067 0
M  V30 6457 C 614.974 -1.68388 0.995234 0
M  V30 6458 O 616.18 -2.40593 1.25807 0
M  V30 6459 C 614.636 -1.02912 3.44873 0
M  V30 6460 C 614.244 0.0761861 4.47935 0
M  V30 6461 C 615.988 -1.66087 3.9066 0
M  V30 6462 C 613.895 -0.419502 5.8991 0
M  V30 6463 H 612.825 -0.209092 0.724428 0
M  V30 6464 H 615.476 0.188683 1.82527 0
M  V30 6465 H 613.858 -1.82159 3.51616 0
M  V30 6466 H 615.032 0.852185 4.52851 0
M  V30 6467 H 613.347 0.614052 4.11847 0
M  V30 6468 H 615.944 -2.04272 4.94143 0
M  V30 6469 H 616.287 -2.53591 3.30148 0
M  V30 6470 H 616.82 -0.933959 3.86681 0
M  V30 6471 H 613.559 0.419277 6.54158 0
M  V30 6472 H 613.079 -1.16217 5.88433 0
M  V30 6473 H 614.758 -0.883577 6.40938 0
M  V30 6474 N 614.89 -1.56749 -0.16351 0
M  V30 6475 C 615.84 -1.93424 -1.20712 0
M  V30 6476 C 616.824 -0.803469 -1.39403 0
M  V30 6477 O 618.016 -1.06675 -1.41243 0
M  V30 6478 C 615.145 -2.30431 -2.54473 0
M  V30 6479 C 614.231 -3.5004 -2.39443 0
M  V30 6480 N 614.622 -4.67058 -1.9414 0
M  V30 6481 C 612.92 -3.548 -2.70246 0
M  V30 6482 C 613.621 -5.49184 -1.9176 0
M  V30 6483 N 612.597 -4.9044 -2.34457 0
M  V30 6484 H 616.399 -2.8138 -0.848681 0
M  V30 6485 H 613.913 -1.58089 -0.371717 0
M  V30 6486 H 615.91 -2.54903 -3.29894 0
M  V30 6487 H 614.57 -1.43818 -2.91112 0
M  V30 6488 H 615.581 -4.91128 -1.64357 0
M  V30 6489 H 612.258 -2.78685 -3.10871 0
M  V30 6490 H 613.648 -6.5297 -1.58366 0
M  V30 6491 N 616.368 0.432326 -1.51554 0
M  V30 6492 C 617.596 1.20364 -1.68286 0
M  V30 6493 C 618.011 1.84888 -0.38233 0
M  V30 6494 O 617.368 1.70924 0.639627 0
M  V30 6495 C 617.419 2.28398 -2.80208 0
M  V30 6496 O 617.14 1.66512 -4.05223 0
M  V30 6497 C 618.641 3.18584 -3.08251 0
M  V30 6498 H 615.861 0.36259 -0.564596 0
M  V30 6499 H 618.405 0.511647 -1.97996 0
M  V30 6500 H 616.56 2.93305 -2.53083 0
M  V30 6501 H 616.974 2.37951 -4.67418 0
M  V30 6502 H 618.448 3.90511 -3.90135 0
M  V30 6503 H 618.925 3.79628 -2.2086 0
M  V30 6504 H 619.531 2.59372 -3.37055 0
M  V30 6505 N 617.846 1.41785 0.688094 0
M  V30 6506 C 619.086 1.43018 1.46032 0
M  V30 6507 C 619.45 0.0402632 1.91958 0
M  V30 6508 O 620.651 -0.0726425 2.68702 0
M  V30 6509 C 618.922 2.4151 2.63453 0
M  V30 6510 S 620.481 2.61335 3.5249 0
M  V30 6511 H 617.299 0.506546 0.498931 0
M  V30 6512 H 619.901 1.78283 0.80221 0
M  V30 6513 H 618.605 3.41286 2.27929 0
M  V30 6514 H 618.136 2.07624 3.34149 0
M  V30 6515 H 620.151 1.88637 4.58945 0
M  V30 6516 N 619.324 -0.923095 1.27737 0
M  V30 6517 C 620.573 -1.66581 1.13727 0
M  V30 6518 C 620.886 -1.9304 -0.315433 0
M  V30 6519 O 622.092 -2.65309 -0.57651 0
M  V30 6520 C 620.548 -3.00047 1.98745 0
M  V30 6521 C 620.156 -2.8127 3.48699 0
M  V30 6522 C 621.9 -3.77887 1.93395 0
M  V30 6523 C 619.807 -4.1032 4.25901 0
M  V30 6524 H 618.737 -0.624834 0.422017 0
M  V30 6525 H 621.388 -1.02514 1.52194 0
M  V30 6526 H 619.77 -3.65197 1.53125 0
M  V30 6527 H 620.944 -2.24859 4.02213 0
M  V30 6528 H 619.259 -2.16854 3.55476 0
M  V30 6529 H 621.856 -4.73526 2.48348 0
M  V30 6530 H 622.199 -4.06264 0.908605 0
M  V30 6531 H 622.732 -3.19541 2.36935 0
M  V30 6532 H 619.471 -3.8712 5.28978 0
M  V30 6533 H 618.991 -4.66377 3.77163 0
M  V30 6534 H 620.67 -4.78648 4.35321 0
M  V30 6535 N 620.802 -1.09834 -1.13024 0
M  V30 6536 C 621.712 -0.753731 -2.22162 0
M  V30 6537 C 622.728 0.246105 -1.72251 0
M  V30 6538 O 623.904 0.0864051 -2.01215 0
M  V30 6539 C 620.969 -0.183958 -3.46212 0
M  V30 6540 C 620.03 -1.24028 -4.10993 0
M  V30 6541 C 619.263 -0.697597 -5.29121 0
M  V30 6542 O 619.486 0.478092 -5.68393 0
M  V30 6543 O 618.42 -1.4546 -5.84059 0
M  V30 6544 H 622.246 -1.66456 -2.5402 0
M  V30 6545 H 619.831 -0.873026 -1.21238 0
M  V30 6546 H 621.713 0.130257 -4.21199 0
M  V30 6547 H 620.388 0.699823 -3.16045 0
M  V30 6548 H 619.295 -1.60725 -3.37814 0
M  V30 6549 H 620.628 -2.09685 -4.45301 0
M  V30 6550 N 622.28 1.30327 -0.886154 0
M  V30 6551 C 623.19 2.31854 -0.357866 0
M  V30 6552 C 624.206 1.65392 0.540502 0
M  V30 6553 O 625.382 1.96683 0.433339 0
M  V30 6554 C 622.447 3.44171 0.417999 0
M  V30 6555 C 621.508 4.26257 -0.510263 0
M  V30 6556 C 620.741 5.3321 0.228669 0
M  V30 6557 O 620.964 5.51542 1.45458 0
M  V30 6558 O 619.898 6.0042 -0.421832 0
M  V30 6559 H 623.724 2.78995 -1.19982 0
M  V30 6560 H 621.309 1.34518 -0.650028 0
M  V30 6561 H 623.191 4.12588 0.857251 0
M  V30 6562 H 621.866 2.99164 1.23623 0
M  V30 6563 H 620.773 3.60533 -0.99835 0
M  V30 6564 H 622.106 4.74871 -1.29454 0
M  V30 6565 N 623.758 0.647228 1.43697 0
M  V30 6566 C 625.004 0.158422 2.0218 0
M  V30 6567 C 625.337 -1.22233 1.50907 0
M  V30 6568 O 624.612 -1.81478 0.699702 0
M  V30 6569 C 624.895 0.1627 3.59732 0
M  V30 6570 C 624.748 1.57694 4.21251 0
M  V30 6571 C 626.067 -0.504138 4.37203 0
M  V30 6572 H 623.186 0.059042 0.734631 0
M  V30 6573 H 625.828 0.826772 1.71069 0
M  V30 6574 H 623.978 -0.406414 3.86368 0
M  V30 6575 H 625.65 2.19618 4.05667 0
M  V30 6576 H 623.893 2.12603 3.7813 0
M  V30 6577 H 624.564 1.53183 5.3032 0
M  V30 6578 H 627.04 -0.0199841 4.16095 0
M  V30 6579 H 625.916 -0.470394 5.46881 0
M  V30 6580 H 626.177 -1.57726 4.13007 0
M  V30 6581 N 625.236 -1.5273 0.388769 0
M  V30 6582 C 626.146 -2.30165 -0.453993 0
M  V30 6583 C 627.162 -1.37058 -1.07197 0
M  V30 6584 O 628.338 -1.70127 -1.0779 0
M  V30 6585 C 625.403 -3.09303 -1.56628 0
M  V30 6586 C 624.464 -4.18117 -0.973467 0
M  V30 6587 C 623.697 -4.93472 -2.03275 0
M  V30 6588 O 623.92 -4.68913 -3.24772 0
M  V30 6589 O 622.854 -5.78833 -1.65034 0
M  V30 6590 H 626.68 -3.03185 0.176816 0
M  V30 6591 H 624.265 -1.4862 0.152501 0
M  V30 6592 H 626.147 -3.58648 -2.21246 0
M  V30 6593 H 624.822 -2.39098 -2.18206 0
M  V30 6594 H 623.729 -3.7297 -0.290556 0
M  V30 6595 H 625.062 -4.90556 -0.401908 0
M  V30 6596 N 626.714 -0.118576 -1.57153 0
M  V30 6597 C 627.963 0.539339 -1.94355 0
M  V30 6598 C 628.276 1.67858 -1.00415 0
M  V30 6599 O 629.482 2.39922 -1.27081 0
M  V30 6600 C 627.938 1.01082 -3.45414 0
M  V30 6601 C 627.546 -0.0999402 -4.47889 0
M  V30 6602 C 629.29 1.64013 -3.91535 0
M  V30 6603 C 627.197 0.388212 -5.90124 0
M  V30 6604 H 626.127 0.205247 -0.725527 0
M  V30 6605 H 628.778 -0.19836 -1.82425 0
M  V30 6606 H 627.16 1.80292 -3.52577 0
M  V30 6607 H 628.334 -0.876189 -4.52393 0
M  V30 6608 H 626.649 -0.635885 -4.11516 0
M  V30 6609 H 629.246 2.01649 -4.95219 0
M  V30 6610 H 629.589 2.51836 -3.31488 0
M  V30 6611 H 630.122 0.913439 -3.87171 0
M  V30 6612 H 626.861 -0.453963 -6.53926 0
M  V30 6613 H 626.381 1.13095 -5.89041 0
M  V30 6614 H 628.06 0.849574 -6.41398 0
M  V30 6615 N 628.193 1.56834 0.155195 0
M  V30 6616 C 629.421 1.87049 0.884326 0
M  V30 6617 C 629.836 0.705839 1.7511 0
M  V30 6618 O 629.193 -0.324641 1.79589 0
M  V30 6619 C 629.244 3.1644 1.74781 0
M  V30 6620 O 628.965 4.28417 0.915978 0
M  V30 6621 C 630.466 3.60113 2.58522 0
M  V30 6622 H 627.686 0.620196 0.25612 0
M  V30 6623 H 630.23 2.03946 0.150445 0
M  V30 6624 H 628.385 3.01321 2.43484 0
M  V30 6625 H 628.799 5.02353 1.50803 0
M  V30 6626 H 630.273 4.53508 3.14698 0
M  V30 6627 H 630.75 2.85005 3.34169 0
M  V30 6628 H 631.356 3.77898 1.95124 0
M  V30 6629 N 629.671 -0.424282 1.51781 0
M  V30 6630 C 630.634 -1.49848 1.73431 0
M  V30 6631 C 631.634 -1.49016 0.604225 0
M  V30 6632 O 632.824 -1.50808 0.871935 0
M  V30 6633 C 629.956 -2.89332 1.80277 0
M  V30 6634 H 631.149 -1.3195 2.69312 0
M  V30 6635 H 628.702 -0.653809 1.41968 0
M  V30 6636 H 629.437 -3.12618 0.862568 0
M  V30 6637 H 629.222 -2.9134 2.62419 0
M  V30 6638 H 630.712 -3.67233 1.98821 0
M  V30 6639 N 631.149 -1.42148 -0.680565 0
M  V30 6640 C 632.079 -1.4796 -1.80638 0
M  V30 6641 C 633.06 -0.336728 -1.66734 0
M  V30 6642 O 634.245 -0.550247 -1.86242 0
M  V30 6643 C 631.375 -1.37569 -3.18892 0
M  V30 6644 C 630.329 -2.49823 -3.47524 0
M  V30 6645 C 629.655 -2.24491 -4.85291 0
M  V30 6646 C 630.955 -3.92144 -3.44994 0
M  V30 6647 H 632.649 -2.42184 -1.76032 0
M  V30 6648 H 630.195 -1.16566 -0.845481 0
M  V30 6649 H 632.148 -1.40243 -3.97379 0
M  V30 6650 H 630.872 -0.398357 -3.24162 0
M  V30 6651 H 629.531 -2.46455 -2.71395 0
M  V30 6652 H 629.179 -1.25066 -4.87204 0
M  V30 6653 H 628.879 -2.99722 -5.05411 0
M  V30 6654 H 630.403 -2.28906 -5.66069 0
M  V30 6655 H 631.817 -3.97145 -4.13459 0
M  V30 6656 H 630.214 -4.67179 -3.76648 0
M  V30 6657 H 631.284 -4.19225 -2.43676 0
M  V30 6658 N 632.627 0.916307 -1.28225 0
M  V30 6659 C 633.876 1.65975 -1.14608 0
M  V30 6660 C 634.189 1.93204 0.305191 0
M  V30 6661 O 635.395 2.65611 0.562432 0
M  V30 6662 C 633.851 2.98989 -2.00333 0
M  V30 6663 C 633.459 2.79417 -3.50186 0
M  V30 6664 C 635.203 3.76856 -1.95397 0
M  V30 6665 C 633.11 4.08056 -4.28071 0
M  V30 6666 H 632.04 0.622587 -0.425324 0
M  V30 6667 H 634.691 1.01705 -1.52736 0
M  V30 6668 H 633.073 3.6438 -1.5506 0
M  V30 6669 H 634.247 2.22723 -4.034 0
M  V30 6670 H 632.562 2.14966 -3.56621 0
M  V30 6671 H 635.159 4.72203 -2.50856 0
M  V30 6672 H 635.502 4.05776 -0.930137 0
M  V30 6673 H 636.035 3.1828 -2.38626 0
M  V30 6674 H 632.774 3.8431 -5.31024 0
M  V30 6675 H 632.294 4.64371 -3.79631 0
M  V30 6676 H 633.973 4.76333 -4.37854 0
M  V30 6677 N 634.105 1.10431 1.1244 0
M  V30 6678 C 635.345 0.856518 1.85589 0
M  V30 6679 C 635.709 -0.606905 1.82156 0
M  V30 6680 O 636.91 -0.97105 2.50647 0
M  V30 6681 C 635.181 1.38977 3.29272 0
M  V30 6682 S 636.74 1.27739 4.19795 0
M  V30 6683 H 633.558 0.309509 0.640098 0
M  V30 6684 H 636.16 1.40975 1.35449 0
M  V30 6685 H 634.864 2.44887 3.2933 0
M  V30 6686 H 634.395 0.833112 3.84477 0
M  V30 6687 H 636.41 0.235051 4.95643 0
M  V30 6688 N 635.583 -1.29855 0.893053 0
M  V30 6689 C 636.513 -2.3035 0.382249 0
M  V30 6690 C 637.494 -1.61328 -0.539203 0
M  V30 6691 O 638.679 -1.88882 -0.451342 0
M  V30 6692 C 635.809 -3.45024 -0.396983 0
M  V30 6693 C 634.763 -4.258 0.433437 0
M  V30 6694 C 634.089 -5.32605 -0.472889 0
M  V30 6695 C 635.389 -4.94549 1.67984 0
M  V30 6696 H 637.083 -2.73325 1.22205 0
M  V30 6697 H 634.629 -1.314 0.589073 0
M  V30 6698 H 636.582 -4.14398 -0.765024 0
M  V30 6699 H 635.306 -3.00875 -1.2705 0
M  V30 6700 H 633.965 -3.58125 0.783723 0
M  V30 6701 H 633.613 -4.84702 -1.34435 0
M  V30 6702 H 633.313 -5.87547 0.0789958 0
M  V30 6703 H 634.837 -6.04832 -0.837269 0
M  V30 6704 H 636.251 -5.56395 1.38192 0
M  V30 6705 H 634.648 -5.59393 2.17254 0
M  V30 6706 H 635.718 -4.20215 2.41965 0
M  V30 6707 N 637.061 -0.65484 -1.43351 0
M  V30 6708 C 638.307 -0.169142 -2.02093 0
M  V30 6709 C 638.64 1.21431 -1.51553 0
M  V30 6710 O 637.915 1.81105 -0.709317 0
M  V30 6711 C 638.198 -0.181775 -3.59641 0
M  V30 6712 C 638.051 -1.59926 -4.20409 0
M  V30 6713 C 639.37 0.480945 -4.37464 0
M  V30 6714 H 636.489 -0.0629371 -0.734308 0
M  V30 6715 H 639.131 -0.835833 -1.70628 0
M  V30 6716 H 637.281 0.385918 -3.86578 0
M  V30 6717 H 638.953 -2.21766 -4.04497 0
M  V30 6718 H 637.196 -2.14605 -3.76998 0
M  V30 6719 H 637.867 -1.55994 -5.295 0
M  V30 6720 H 640.343 -0.00208273 -4.161 0
M  V30 6721 H 639.219 0.441384 -5.47122 0
M  V30 6722 H 639.48 1.55533 -4.13838 0
M  V30 6723 N 638.539 1.52521 -0.396863 0
M  V30 6724 C 639.816 1.94112 0.240842 0
M  V30 6725 C 640.196 1.33288 1.637 0
M  V30 6726 O 639.544 0.503901 2.22875 0
M  V30 6727 C 639.754 3.48033 0.259567 0
M  V30 6728 C 641.102 4.21822 0.484866 0
M  V30 6729 O 642.126 3.54579 0.339453 0
M  V30 6730 O 640.985 5.41042 0.770412 0
M  V30 6731 H 638.079 0.812973 0.151671 0
M  V30 6732 H 640.625 1.63572 -0.451918 0
M  V30 6733 H 639.397 3.84655 -0.718078 0
M  V30 6734 H 639.02 3.84899 0.996937 0
M  V30 6735 N 640.017 0.126909 1.57088 0
M  V30 6736 C 640.964 -0.82036 2.15728 0
M  V30 6737 C 641.934 -1.25811 1.08447 0
M  V30 6738 O 643.119 -1.33422 1.36393 0
M  V30 6739 C 640.259 -2.06199 2.76724 0
M  V30 6740 C 639.372 -1.67188 3.98337 0
M  V30 6741 C 638.507 -2.86378 4.47393 0
M  V30 6742 C 637.546 -2.43644 5.61519 0
M  V30 6743 N 636.683 -3.55775 6.05284 0
M  V30 6744 H 641.523 -0.313472 2.96347 0
M  V30 6745 H 639.06 -0.14303 1.46403 0
M  V30 6746 H 641.018 -2.78959 3.10222 0
M  V30 6747 H 639.648 -2.54333 1.98782 0
M  V30 6748 H 638.7 -0.842714 3.70948 0
M  V30 6749 H 640.012 -1.31789 4.81075 0
M  V30 6750 H 639.166 -3.67353 4.82842 0
M  V30 6751 H 637.905 -3.25009 3.63621 0
M  V30 6752 H 636.91 -1.61104 5.25667 0
M  V30 6753 H 638.135 -2.06122 6.47063 0
M  V30 6754 H 636.081 -3.94065 5.24451 0
M  V30 6755 H 635.998 -3.24325 6.82898 0
M  V30 6756 H 637.266 -4.37166 6.45373 0
M  V30 6757 N 641.495 -1.56914 -0.146875 0
M  V30 6758 C 642.442 -1.98275 -1.18134 0
M  V30 6759 C 643.412 -0.850367 -1.42681 0
M  V30 6760 O 644.597 -1.11244 -1.55014 0
M  V30 6761 C 641.737 -2.36861 -2.5098 0
M  V30 6762 C 640.85 -3.63391 -2.33605 0
M  V30 6763 C 639.985 -3.91079 -3.59486 0
M  V30 6764 C 639.024 -5.10879 -3.37149 0
M  V30 6765 N 638.161 -5.34577 -4.55161 0
M  V30 6766 H 643.001 -2.8645 -0.821622 0
M  V30 6767 H 640.538 -1.41718 -0.394248 0
M  V30 6768 H 642.496 -2.57262 -3.28439 0
M  V30 6769 H 641.126 -1.51766 -2.84898 0
M  V30 6770 H 640.178 -3.50766 -1.47199 0
M  V30 6771 H 641.49 -4.51007 -2.13059 0
M  V30 6772 H 640.644 -4.11979 -4.45374 0
M  V30 6773 H 639.383 -3.01885 -3.83036 0
M  V30 6774 H 638.388 -4.89853 -2.49649 0
M  V30 6775 H 639.613 -6.01626 -3.14997 0
M  V30 6776 H 637.559 -4.48337 -4.78884 0
M  V30 6777 H 637.476 -6.16463 -4.37618 0
M  V30 6778 H 638.744 -5.59975 -5.42263 0
M  V30 6779 N 642.974 0.416227 -1.52004 0
M  V30 6780 C 644.199 1.19029 -1.69843 0
M  V30 6781 C 644.624 1.83708 -0.404103 0
M  V30 6782 O 643.982 1.69711 0.637787 0
M  V30 6783 C 644.03 2.23439 -2.83032 0
M  V30 6784 O 643.134 3.29419 -2.48106 0
M  V30 6785 H 642.475 0.347785 -0.565634 0
M  V30 6786 H 645.005 0.488871 -1.98674 0
M  V30 6787 H 645.015 2.67884 -3.07737 0
M  V30 6788 H 643.69 1.75745 -3.76944 0
M  V30 6789 H 642.267 2.90303 -2.34048 0
M  V30 6790 N 644.452 1.42507 0.673017 0
M  V30 6791 C 645.7 1.42789 1.43023 0
M  V30 6792 C 646.021 0.0459738 1.94946 0
M  V30 6793 O 645.291 -0.915765 1.73178 0
M  V30 6794 H 643.871 0.525657 0.530748 0
M  V30 6795 H 646.533 1.77944 0.795113 0
M  V30 6796 H 645.629 2.12872 2.28237 0
M  V30 6797 N 645.93 -0.909495 1.28709 0
M  V30 6798 C 646.84 -2.04558 1.14861 0
M  V30 6799 C 647.856 -1.73842 0.0741621 0
M  V30 6800 O 649.032 -1.99383 0.2843 0
M  V30 6801 C 646.097 -3.36957 0.816148 0
M  V30 6802 C 645.158 -3.81255 1.97341 0
M  V30 6803 C 644.391 -5.07335 1.65671 0
M  V30 6804 O 644.614 -5.67514 0.573053 0
M  V30 6805 O 643.548 -5.47449 2.50167 0
M  V30 6806 H 647.374 -2.19161 2.10243 0
M  V30 6807 H 644.959 -1.03159 1.08068 0
M  V30 6808 H 646.841 -4.16436 0.644873 0
M  V30 6809 H 645.516 -3.2352 -0.107983 0
M  V30 6810 H 644.423 -3.02584 2.19986 0
M  V30 6811 H 645.756 -3.99261 2.87839 0
M  V30 6812 N 647.408 -1.11026 -1.11852 0
M  V30 6813 C 648.355 -0.764662 -2.17765 0
M  V30 6814 C 649.325 0.261854 -1.64023 0
M  V30 6815 O 650.51 0.139748 -1.90288 0
M  V30 6816 C 647.65 -0.209317 -3.44465 0
M  V30 6817 C 646.763 -1.29187 -4.12231 0
M  V30 6818 C 645.898 -0.697523 -5.266 0
M  V30 6819 C 644.937 -1.76023 -5.86244 0
M  V30 6820 N 644.074 -1.18569 -6.92016 0
M  V30 6821 H 648.914 -1.67202 -2.46673 0
M  V30 6822 H 646.451 -0.835065 -1.21099 0
M  V30 6823 H 648.409 0.130599 -4.16996 0
M  V30 6824 H 647.039 0.661251 -3.15955 0
M  V30 6825 H 646.091 -1.74881 -3.37818 0
M  V30 6826 H 647.403 -2.09607 -4.52622 0
M  V30 6827 H 646.557 -0.307412 -6.05921 0
M  V30 6828 H 645.296 0.138044 -4.87505 0
M  V30 6829 H 644.301 -2.1597 -5.05606 0
M  V30 6830 H 645.526 -2.59875 -6.27409 0
M  V30 6831 H 643.472 -0.371695 -6.54946 0
M  V30 6832 H 643.389 -1.92666 -7.31038 0
M  V30 6833 H 644.657 -0.82233 -7.7515 0
M  V30 6834 N 648.886 1.2938 -0.899927 0
M  V30 6835 C 650.111 2.00228 -0.540692 0
M  V30 6836 C 650.536 1.66909 0.867359 0
M  V30 6837 O 649.894 0.893824 1.57735 0
M  V30 6838 C 649.942 3.52921 -0.740232 0
M  V30 6839 O 649.046 4.11879 0.207154 0
M  V30 6840 H 648.387 0.629505 -0.211233 0
M  V30 6841 H 650.917 1.6487 -1.21158 0
M  V30 6842 H 650.927 4.0287 -0.644973 0
M  V30 6843 H 649.602 3.76508 -1.76677 0
M  V30 6844 H 648.179 3.72845 0.0643315 0
M  V30 6845 N 650.364 0.662433 1.43002 0
M  V30 6846 C 651.311 -0.0235324 2.30788 0
M  V30 6847 C 652.281 -0.805342 1.4527 0
M  V30 6848 O 653.466 -0.78009 1.74124 0
M  V30 6849 C 650.606 -0.977545 3.30965 0
M  V30 6850 C 649.719 -0.190865 4.31578 0
M  V30 6851 C 648.854 -1.13951 5.18834 0
M  V30 6852 C 647.893 -0.343796 6.11134 0
M  V30 6853 N 647.03 -1.2445 6.90982 0
M  V30 6854 H 651.87 0.730921 2.88897 0
M  V30 6855 H 649.407 0.372197 1.42313 0
M  V30 6856 H 651.365 -1.54437 3.87563 0
M  V30 6857 H 649.995 -1.69877 2.74484 0
M  V30 6858 H 649.047 0.492388 3.772 0
M  V30 6859 H 650.359 0.427464 4.96965 0
M  V30 6860 H 649.513 -1.77666 5.80103 0
M  V30 6861 H 648.252 -1.79174 4.53595 0
M  V30 6862 H 647.257 0.30665 5.48944 0
M  V30 6863 H 648.482 0.304161 6.78419 0
M  V30 6864 H 646.428 -1.88336 6.28383 0
M  V30 6865 H 646.345 -0.680959 7.52927 0
M  V30 6866 H 647.613 -1.86952 7.56749 0
M  V30 6867 N 651.842 -1.52309 0.404946 0
M  V30 6868 C 653.07 -2.06185 -0.171818 0
M  V30 6869 C 653.485 -1.27536 -1.39212 0
M  V30 6870 O 652.842 -0.326112 -1.79563 0
M  V30 6871 C 652.893 -3.57647 -0.526417 0
M  V30 6872 O 652.614 -4.3332 0.645417 0
M  V30 6873 C 654.115 -4.27925 -1.15736 0
M  V30 6874 H 651.335 -0.670632 -0.0222328 0
M  V30 6875 H 653.879 -1.96259 0.574692 0
M  V30 6876 H 652.034 -3.67595 -1.22282 0
M  V30 6877 H 652.448 -5.23328 0.35042 0
M  V30 6878 H 653.922 -5.35093 -1.35572 0
M  V30 6879 H 654.399 -3.84134 -2.12926 0
M  V30 6880 H 655.005 -4.22335 -0.501281 0
M  V30 6881 N 653.32 -0.135238 -1.57019 0
M  V30 6882 C 654.736 0.221262 -1.58059 0
M  V30 6883 C 654.936 1.65538 -1.14889 0
M  V30 6884 O 653.992 2.37985 -0.843751 0
M  V30 6885 C 655.305 -0.0268114 -3.00688 0
M  V30 6886 C 656.853 0.0378206 -3.12977 0
M  V30 6887 C 657.328 -0.182769 -4.57635 0
M  V30 6888 N 658.819 -0.129292 -4.6302 0
M  V30 6889 C 659.554 -0.274648 -5.72742 0
M  V30 6890 N 659.05 -0.477075 -6.91155 0
M  V30 6891 N 660.843 -0.213077 -5.61696 0
M  V30 6892 H 652.994 -1.07177 -1.83376 0
M  V30 6893 H 655.257 -0.423338 -0.848227 0
M  V30 6894 H 654.963 -1.01889 -3.36618 0
M  V30 6895 H 654.837 0.697863 -3.70688 0
M  V30 6896 H 657.224 1.02043 -2.76896 0
M  V30 6897 H 657.305 -0.718996 -2.45487 0
M  V30 6898 H 656.949 -1.16243 -4.94419 0
M  V30 6899 H 656.879 0.59423 -5.23237 0
M  V30 6900 H 659.37 0.0229896 -3.77893 0
M  V30 6901 H 659.683 -0.578413 -7.70632 0
M  V30 6902 H 658.028 -0.513252 -6.93102 0
M  V30 6903 H 661.219 -0.0557796 -4.68067 0
M  V30 6904 H 661.392 -0.329796 -6.4716 0
M  V30 6905 N 654.798 1.5699 0.138552 0
M  V30 6906 C 656.209 1.73171 0.697754 0
M  V30 6907 C 656.56 0.750952 1.8126 0
M  V30 6908 O 655.685 -0.080549 2.1625 0
M  V30 6909 C 656.28 3.13996 1.27248 0
M  V30 6910 C 654.839 3.3175 1.77816 0
M  V30 6911 C 653.986 2.69084 0.669991 0
M  V30 6912 H 656.937 1.5846 -0.0871979 0
M  V30 6913 H 656.958 3.14463 2.14227 0
M  V30 6914 H 656.47 3.85354 0.460855 0
M  V30 6915 H 654.571 2.65403 2.61519 0
M  V30 6916 H 654.684 4.39768 1.90107 0
M  V30 6917 H 653.048 2.29782 1.09874 0
M  V30 6918 H 653.831 3.43053 -0.130329 0
M  V30 6919 N 656.276 -0.40816 1.52223 0
M  V30 6920 C 657.692 -0.74685 1.41047 0
M  V30 6921 C 657.892 -1.94788 0.51573 0
M  V30 6922 O 656.948 -2.52494 -0.0181156 0
M  V30 6923 C 658.261 -0.999878 2.83589 0
M  V30 6924 C 659.809 -1.10253 2.92939 0
M  V30 6925 C 660.284 -1.38832 4.36451 0
M  V30 6926 N 661.775 -1.45694 4.3969 0
M  V30 6927 C 662.51 -1.69435 5.47795 0
M  V30 6928 N 662.006 -1.90774 6.66016 0
M  V30 6929 N 663.799 -1.71458 5.35312 0
M  V30 6930 H 655.95 0.382409 2.08929 0
M  V30 6931 H 658.213 0.108807 0.941735 0
M  V30 6932 H 657.919 -0.189723 3.51188 0
M  V30 6933 H 657.793 -1.91978 3.24691 0
M  V30 6934 H 660.18 -1.90328 2.2552 0
M  V30 6935 H 660.261 -0.160973 2.55293 0
M  V30 6936 H 659.905 -0.592741 5.04429 0
M  V30 6937 H 659.835 -2.34241 4.71634 0
M  V30 6938 H 662.326 -1.3099 3.54472 0
M  V30 6939 H 662.639 -2.08342 7.44186 0
M  V30 6940 H 660.984 -1.88037 6.69079 0
M  V30 6941 H 664.175 -1.54326 4.41929 0
M  V30 6942 H 664.348 -1.89621 6.19635 0
M  V30 6943 N 657.755 -1.42862 -0.66545 0
M  V30 6944 C 659.002 -1.4383 -1.42546 0
M  V30 6945 C 659.33 -0.0581114 -1.94413 0
M  V30 6946 O 658.585 0.935002 -1.71919 0
M  V30 6947 C 658.884 -2.4175 -2.63233 0
M  V30 6948 C 658.55 -3.87915 -2.29854 0
M  V30 6949 C 657.212 -4.27726 -2.20463 0
M  V30 6950 C 659.564 -4.80074 -2.02924 0
M  V30 6951 C 656.892 -5.57666 -1.82279 0
M  V30 6952 C 659.244 -6.10366 -1.66242 0
M  V30 6953 C 657.908 -6.49167 -1.55367 0
M  V30 6954 H 657.178 -0.52631 -0.521612 0
M  V30 6955 H 659.825 -1.75863 -0.757914 0
M  V30 6956 H 658.13 -2.03077 -3.35063 0
M  V30 6957 H 659.827 -2.39759 -3.21429 0
M  V30 6958 H 656.417 -3.564 -2.3807 0
M  V30 6959 H 660.601 -4.50097 -2.09108 0
M  V30 6960 H 655.857 -5.8658 -1.72436 0
M  V30 6961 H 660.031 -6.81258 -1.44432 0
M  V30 6962 H 657.658 -7.49761 -1.2555 0
M  V30 6963 N 659.233 0.902656 -1.29189 0
M  V30 6964 C 660.479 1.65532 -1.17163 0
M  V30 6965 C 660.812 1.92216 0.276879 0
M  V30 6966 O 660.087 1.53048 1.20027 0
M  V30 6967 C 660.37 3.00629 -1.98228 0
M  V30 6968 C 660.223 2.81029 -3.51202 0
M  V30 6969 C 661.542 4.01321 -1.80635 0
M  V30 6970 H 658.661 0.60071 -0.426985 0
M  V30 6971 H 661.303 1.04578 -1.5863 0
M  V30 6972 H 659.453 3.52656 -1.62991 0
M  V30 6973 H 661.125 2.35927 -3.96404 0
M  V30 6974 H 659.368 2.1587 -3.76275 0
M  V30 6975 H 660.039 3.77014 -4.03192 0
M  V30 6976 H 662.515 3.58394 -2.11406 0
M  V30 6977 H 661.391 4.93792 -2.3971 0
M  V30 6978 H 661.652 4.35505 -0.760754 0
M  V30 6979 N 660.711 1.11618 1.11262 0
M  V30 6980 C 661.658 0.7762 2.17356 0
M  V30 6981 C 662.628 -0.253152 1.6416 0
M  V30 6982 O 663.813 -0.129655 1.90359 0
M  V30 6983 C 660.953 0.227581 3.44349 0
M  V30 6984 C 660.066 1.31372 4.1154 0
M  V30 6985 C 659.201 0.72544 5.26223 0
M  V30 6986 C 658.24 1.7913 5.85302 0
M  V30 6987 N 657.377 1.22237 6.91377 0
M  V30 6988 H 662.217 1.68508 2.45783 0
M  V30 6989 H 659.754 0.841475 1.20655 0
M  V30 6990 H 661.712 -0.108483 4.17059 0
M  V30 6991 H 660.342 -0.644486 3.16301 0
M  V30 6992 H 659.394 1.7667 3.36885 0
M  V30 6993 H 660.706 2.12005 4.51504 0
M  V30 6994 H 659.86 0.339541 6.05749 0
M  V30 6995 H 658.599 -0.112188 4.87571 0
M  V30 6996 H 657.604 2.18648 5.04453 0
M  V30 6997 H 658.829 2.63199 6.26022 0
M  V30 6998 H 656.775 0.406423 6.5474 0
M  V30 6999 H 656.692 1.9654 7.30006 0
M  V30 7000 H 657.96 0.863426 7.74703 0
M  V30 7001 N 662.189 -1.289 0.906776 0
M  V30 7002 C 663.121 -2.26556 0.347159 0
M  V30 7003 C 664.134 -1.54589 -0.51049 0
M  V30 7004 O 665.323 -1.75489 -0.326501 0
M  V30 7005 C 662.423 -3.3484 -0.523024 0
M  V30 7006 C 661.596 -4.36296 0.310515 0
M  V30 7007 C 660.655 -5.23879 -0.493634 0
M  V30 7008 O 659.681 -5.69127 0.0913569 0
M  V30 7009 N 660.883 -5.51946 -1.7982 0
M  V30 7010 H 663.648 -2.75212 1.18652 0
M  V30 7011 H 661.209 -1.42309 0.771996 0
M  V30 7012 H 663.201 -3.90366 -1.06756 0
M  V30 7013 H 661.771 -2.85946 -1.26309 0
M  V30 7014 H 660.991 -3.80331 1.03644 0
M  V30 7015 H 662.279 -5.01113 0.881106 0
M  V30 7016 H 661.677 -5.17006 -2.2961 0
M  V30 7017 H 660.234 -6.10258 -2.28971 0
M  V30 7018 N 663.667 -0.670007 -1.42649 0
M  V30 7019 C 664.944 -0.119451 -1.95235 0
M  V30 7020 C 665.324 1.36461 -1.61064 0
M  V30 7021 O 664.672 2.09843 -0.904329 0
M  V30 7022 C 664.882 -0.383498 -3.46887 0
M  V30 7023 C 666.23 -0.297431 -4.23557 0
M  V30 7024 O 667.254 -0.31698 -3.54787 0
M  V30 7025 O 666.113 -0.235507 -5.45992 0
M  V30 7026 H 663.207 -8.85474e-05 -0.827 0
M  V30 7027 H 665.753 -0.744406 -1.52501 0
M  V30 7028 H 664.525 -1.41174 -3.64946 0
M  V30 7029 H 664.148 0.273702 -3.96657 0
M  V30 7030 N 665.145 1.52092 -0.413018 0
M  V30 7031 C 666.077 2.24819 0.445994 0
M  V30 7032 C 667.09 1.27925 1.00692 0
M  V30 7033 O 668.279 1.53845 0.905204 0
M  V30 7034 C 665.379 2.96951 1.6332 0
M  V30 7035 C 664.552 4.20746 1.19548 0
M  V30 7036 C 663.611 4.75668 2.25003 0
M  V30 7037 O 662.637 5.38148 1.85434 0
M  V30 7038 N 663.839 4.57579 3.57214 0
M  V30 7039 H 666.604 2.99176 -0.177209 0
M  V30 7040 H 664.165 1.60102 -0.240601 0
M  V30 7041 H 666.157 3.30586 2.33441 0
M  V30 7042 H 664.727 2.25756 2.16225 0
M  V30 7043 H 663.947 3.92881 0.32224 0
M  V30 7044 H 665.235 5.01132 0.880033 0
M  V30 7045 H 664.633 4.07758 3.92109 0
M  V30 7046 H 663.19 4.95642 4.23299 0
M  V30 7047 N 666.623 0.143563 1.56945 0
M  V30 7048 C 667.869 -0.50916 1.96304 0
M  V30 7049 C 668.202 -1.64741 1.0283 0
M  V30 7050 O 667.477 -1.94374 0.0700361 0
M  V30 7051 C 667.76 -1.0186 3.45393 0
M  V30 7052 C 667.613 0.117923 4.49645 0
M  V30 7053 C 668.932 -1.90151 3.96901 0
M  V30 7054 H 666.051 -0.183608 0.713763 0
M  V30 7055 H 668.693 0.224095 1.88674 0
M  V30 7056 H 666.843 -1.64345 3.52027 0
M  V30 7057 H 668.515 0.754145 4.55094 0
M  V30 7058 H 666.758 0.777568 4.26774 0
M  V30 7059 H 667.429 -0.280187 5.51288 0
M  V30 7060 H 669.905 -1.375 3.92725 0
M  V30 7061 H 668.781 -2.22707 5.0169 0
M  V30 7062 H 669.042 -2.83718 3.39052 0
M  V30 7063 N 668.101 -1.57061 -0.130224 0
M  V30 7064 C 669.341 -1.86071 -0.845993 0
M  V30 7065 C 669.705 -0.73009 -1.77577 0
M  V30 7066 O 670.906 -0.901663 -2.53226 0
M  V30 7067 C 669.177 -3.20293 -1.58579 0
M  V30 7068 S 670.736 -3.70905 -2.34467 0
M  V30 7069 H 667.554 -0.652434 -0.282579 0
M  V30 7070 H 670.156 -1.95218 -0.10498 0
M  V30 7071 H 668.86 -4.00533 -0.894509 0
M  V30 7072 H 668.391 -3.14195 -2.36739 0
M  V30 7073 H 670.406 -3.41509 -3.59981 0
M  V30 7074 N 669.579 0.400081 -1.52437 0
M  V30 7075 C 670.828 1.14332 -1.66166 0
M  V30 7076 C 671.141 1.91419 -0.402253 0
M  V30 7077 O 672.347 2.6824 -0.419487 0
M  V30 7078 C 670.803 2.08137 -2.9361 0
M  V30 7079 C 670.411 1.36524 -4.26691 0
M  V30 7080 C 672.155 2.82664 -3.16703 0
M  V30 7081 C 670.062 2.29031 -5.45251 0
M  V30 7082 H 668.992 0.430499 -0.61902 0
M  V30 7083 H 671.643 0.407017 -1.78929 0
M  V30 7084 H 670.025 2.85358 -2.74567 0
M  V30 7085 H 671.199 0.646061 -4.56249 0
M  V30 7086 H 669.514 0.74002 -4.09771 0
M  V30 7087 H 672.111 3.52037 -4.0246 0
M  V30 7088 H 672.454 3.46122 -2.31312 0
M  V30 7089 H 672.987 2.12541 -3.36261 0
M  V30 7090 H 669.726 1.70206 -6.33017 0
M  V30 7091 H 669.246 2.98896 -5.2002 0
M  V30 7092 H 670.925 2.89359 -5.78689 0
M  V30 7093 N 671.057 1.43213 0.657864 0
M  V30 7094 C 672.02 1.47687 1.75275 0
M  V30 7095 C 673.02 0.362179 1.56668 0
M  V30 7096 O 674.21 0.623734 1.62651 0
M  V30 7097 C 671.342 1.32497 3.14098 0
M  V30 7098 H 672.535 2.4519 1.7269 0
M  V30 7099 H 670.088 1.2991 0.869087 0
M  V30 7100 H 670.823 0.359831 3.22298 0
M  V30 7101 H 670.608 2.13299 3.29008 0
M  V30 7102 H 672.098 1.38549 3.93946 0
M  V30 7103 N 672.536 -0.895792 1.29666 0
M  V30 7104 C 673.952 -1.17726 1.07763 0
M  V30 7105 C 674.152 -2.00794 -0.168576 0
M  V30 7106 O 673.208 -2.37213 -0.865244 0
M  V30 7107 C 674.521 -1.89441 2.33522 0
M  V30 7108 C 676.069 -2.02251 2.3888 0
M  V30 7109 C 676.544 -2.77378 3.64452 0
M  V30 7110 N 678.035 -2.8493 3.65198 0
M  V30 7111 C 678.77 -3.43606 4.59045 0
M  V30 7112 N 678.266 -4.03417 5.63228 0
M  V30 7113 N 680.059 -3.41317 4.46608 0
M  V30 7114 H 672.21 -0.341652 2.09634 0
M  V30 7115 H 674.473 -0.213865 0.923561 0
M  V30 7116 H 674.179 -1.35842 3.24407 0
M  V30 7117 H 674.053 -2.89893 2.41334 0
M  V30 7118 H 676.44 -2.55025 1.4848 0
M  V30 7119 H 676.521 -1.0092 2.3505 0
M  V30 7120 H 676.165 -2.25279 4.55205 0
M  V30 7121 H 676.095 -3.79062 3.65541 0
M  V30 7122 H 678.586 -2.42453 2.89871 0
M  V30 7123 H 678.899 -4.46224 6.30955 0
M  V30 7124 H 677.244 -4.01868 5.67033 0
M  V30 7125 H 680.435 -2.93812 3.64407 0
M  V30 7126 H 680.608 -3.86751 5.1993 0
M  V30 7127 N 674.014 -1.12206 -1.10668 0
M  V30 7128 C 674.944 -0.810086 -2.18997 0
M  V30 7129 C 675.925 0.225065 -1.68604 0
M  V30 7130 O 677.11 0.086783 -1.94006 0
M  V30 7131 C 674.24 -0.261262 -3.46316 0
M  V30 7132 C 673.194 -1.2292 -4.09969 0
M  V30 7133 C 672.52 -0.540713 -5.31959 0
M  V30 7134 C 673.82 -2.58295 -4.53962 0
M  V30 7135 H 675.514 -1.7159 -2.45352 0
M  V30 7136 H 673.06 -0.82646 -1.17922 0
M  V30 7137 H 675.013 -0.0307522 -4.21389 0
M  V30 7138 H 673.737 0.679879 -3.19445 0
M  V30 7139 H 672.396 -1.44548 -3.369 0
M  V30 7140 H 672.044 0.405492 -5.01363 0
M  V30 7141 H 671.744 -1.18637 -5.75499 0
M  V30 7142 H 673.268 -0.319184 -6.09765 0
M  V30 7143 H 674.682 -2.40709 -5.20319 0
M  V30 7144 H 673.079 -3.18916 -5.08343 0
M  V30 7145 H 674.149 -3.16918 -3.67002 0
M  V30 7146 N 675.492 1.28418 -0.913599 0
M  V30 7147 C 676.908 1.47411 -0.611728 0
M  V30 7148 C 677.108 1.83018 0.843008 0
M  V30 7149 O 676.164 1.93505 1.6221 0
M  V30 7150 C 677.477 2.57703 -1.5495 0
M  V30 7151 C 679.025 2.71572 -1.5562 0
M  V30 7152 C 679.5 3.85008 -2.48058 0
M  V30 7153 N 680.991 3.92361 -2.46184 0
M  V30 7154 C 681.726 4.79516 -3.14407 0
M  V30 7155 N 681.222 5.71262 -3.91958 0
M  V30 7156 N 683.015 4.73125 -3.03495 0
M  V30 7157 H 675.166 1.03585 -1.85429 0
M  V30 7158 H 677.429 0.515907 -0.795326 0
M  V30 7159 H 677.135 2.38298 -2.58663 0
M  V30 7160 H 677.009 3.54801 -1.28048 0
M  V30 7161 H 679.396 2.90366 -0.526441 0
M  V30 7162 H 679.477 1.75006 -1.86565 0
M  V30 7163 H 679.121 3.66969 -3.51136 0
M  V30 7164 H 679.051 4.80971 -2.14416 0
M  V30 7165 H 681.542 3.26749 -1.89851 0
M  V30 7166 H 681.855 6.34593 -4.41034 0
M  V30 7167 H 680.2 5.71103 -3.96063 0
M  V30 7168 H 683.391 4.00442 -2.42413 0
M  V30 7169 H 683.564 5.40834 -3.56935 0
M  V30 7170 N 676.97 0.677563 1.42291 0
M  V30 7171 C 678.198 0.209459 2.05837 0
M  V30 7172 C 678.613 -1.13444 1.50917 0
M  V30 7173 O 677.97 -1.70529 0.65008 0
M  V30 7174 C 678.021 0.138819 3.61233 0
M  V30 7175 O 677.742 1.42962 4.14118 0
M  V30 7176 C 679.243 -0.352449 4.41897 0
M  V30 7177 H 676.463 0.101209 0.663323 0
M  V30 7178 H 679.007 0.925077 1.8238 0
M  V30 7179 H 677.162 -0.527505 3.83792 0
M  V30 7180 H 677.576 1.3048 5.08011 0
M  V30 7181 H 679.05 -0.350778 5.50884 0
M  V30 7182 H 679.527 -1.3882 4.16684 0
M  V30 7183 H 680.133 0.282236 4.24362 0
M  V30 7184 N 678.448 -1.51871 0.421078 0
M  V30 7185 C 679.411 -2.25914 -0.386712 0
M  V30 7186 C 680.411 -1.28733 -0.963555 0
M  V30 7187 O 681.601 -1.52579 -0.840556 0
M  V30 7188 C 678.733 -3.03853 -1.54551 0
M  V30 7189 H 679.926 -2.98754 0.261978 0
M  V30 7190 H 677.479 -1.5533 0.173862 0
M  V30 7191 H 678.214 -2.35392 -2.23072 0
M  V30 7192 H 677.999 -3.75215 -1.13824 0
M  V30 7193 H 679.489 -3.59984 -2.11663 0
M  V30 7194 N 679.926 -0.151884 -1.56866 0
M  V30 7195 C 681.174 0.497021 -1.95893 0
M  V30 7196 C 681.495 1.65078 -1.03799 0
M  V30 7197 O 680.765 1.95642 -0.10049 0
M  V30 7198 H 679.345 0.186603 -0.723318 0
M  V30 7199 H 682.007 -0.228525 -1.93556 0
M  V30 7200 H 681.103 0.869933 -2.99731 0
M  V30 7201 N 681.404 1.57128 0.121893 0
M  V30 7202 C 682.632 1.88883 0.844451 0
M  V30 7203 C 683.047 0.742824 1.73573 0
M  V30 7204 O 682.404 -0.286475 1.80238 0
M  V30 7205 C 682.455 3.20076 1.68029 0
M  V30 7206 O 682.176 4.30264 0.824898 0
M  V30 7207 C 683.677 3.65515 2.50826 0
M  V30 7208 H 680.897 0.62549 0.242907 0
M  V30 7209 H 683.441 2.04219 0.107151 0
M  V30 7210 H 681.596 3.06418 2.37038 0
M  V30 7211 H 682.01 5.05439 1.40113 0
M  V30 7212 H 683.484 4.60081 3.05008 0
M  V30 7213 H 683.961 2.92029 3.28048 0
M  V30 7214 H 684.567 3.81952 1.87064 0
M  V30 7215 N 682.882 -0.391992 1.52647 0
M  V30 7216 C 684.131 -1.13449 1.6677 0
M  V30 7217 C 684.444 -1.91203 0.412399 0
M  V30 7218 O 685.65 -2.68013 0.433707 0
M  V30 7219 C 684.106 -2.06577 2.9471 0
M  V30 7220 C 683.714 -1.3426 4.27409 0
M  V30 7221 C 685.458 -2.80981 3.18198 0
M  V30 7222 C 683.365 -2.26136 5.46458 0
M  V30 7223 H 682.295 -0.427211 0.621295 0
M  V30 7224 H 684.946 -0.397522 1.79142 0
M  V30 7225 H 683.328 -2.83898 2.76076 0
M  V30 7226 H 684.502 -0.621856 4.56585 0
M  V30 7227 H 682.817 -0.718279 4.10158 0
M  V30 7228 H 685.414 -3.49898 4.04321 0
M  V30 7229 H 685.757 -3.44891 2.33144 0
M  V30 7230 H 686.29 -2.10754 3.37383 0
M  V30 7231 H 683.029 -1.66846 6.33911 0
M  V30 7232 H 682.549 -2.96134 5.21598 0
M  V30 7233 H 684.228 -2.86286 5.80215 0
M  V30 7234 N 684.36 -1.4356 -0.65026 0
M  V30 7235 C 685.6 -1.46839 -1.42188 0
M  V30 7236 C 685.964 -0.0911433 -1.91784 0
M  V30 7237 O 687.165 0.00137545 -2.688 0
M  V30 7238 C 685.436 -2.48411 -2.56957 0
M  V30 7239 S 686.995 -2.70589 -3.45438 0
M  V30 7240 H 683.813 -0.519596 -0.485325 0
M  V30 7241 H 686.415 -1.80347 -0.75466 0
M  V30 7242 H 685.119 -3.47209 -2.18801 0
M  V30 7243 H 684.65 -2.16411 -3.28527 0
M  V30 7244 H 686.665 -2.00738 -4.53782 0
M  V30 7245 N 685.838 0.888903 -1.30139 0
M  V30 7246 C 686.768 2.01046 -1.18755 0
M  V30 7247 C 687.749 1.69916 -0.0791438 0
M  V30 7248 O 688.934 1.92445 -0.260498 0
M  V30 7249 C 686.064 3.36109 -0.874518 0
M  V30 7250 C 685.018 3.81486 -1.94043 0
M  V30 7251 C 684.344 5.13796 -1.48047 0
M  V30 7252 C 685.644 4.00637 -3.35093 0
M  V30 7253 H 687.338 2.10828 -2.12584 0
M  V30 7254 H 684.884 1.01298 -1.02346 0
M  V30 7255 H 686.837 4.14089 -0.781548 0
M  V30 7256 H 685.561 3.26449 0.0994519 0
M  V30 7257 H 684.22 3.05731 -2.02297 0
M  V30 7258 H 683.868 5.0056 -0.494878 0
M  V30 7259 H 683.568 5.45127 -2.19341 0
M  V30 7260 H 685.092 5.94305 -1.40121 0
M  V30 7261 H 686.506 4.69067 -3.2962 0
M  V30 7262 H 684.903 4.43339 -4.04438 0
M  V30 7263 H 685.973 3.0462 -3.77273 0
M  V30 7264 N 687.317 1.12792 1.10072 0
M  V30 7265 C 688.227 0.812369 2.20086 0
M  V30 7266 C 689.243 -0.200349 1.72843 0
M  V30 7267 O 690.419 -0.0330262 2.01373 0
M  V30 7268 C 687.484 0.275685 3.45602 0
M  V30 7269 C 686.545 1.34881 4.07561 0
M  V30 7270 C 685.778 0.837639 5.27086 0
M  V30 7271 O 686.001 -0.327224 5.69461 0
M  V30 7272 O 684.935 1.60894 5.79997 0
M  V30 7273 H 688.761 1.73133 2.49517 0
M  V30 7274 H 686.346 0.904863 1.18881 0
M  V30 7275 H 688.228 -0.0185375 4.21396 0
M  V30 7276 H 686.903 -0.615783 3.17789 0
M  V30 7277 H 685.81 1.69625 3.33434 0
M  V30 7278 H 687.143 2.21418 4.39585 0
M  V30 7279 N 688.795 -1.27931 0.920396 0
M  V30 7280 C 690.023 -1.98805 0.573087 0
M  V30 7281 C 690.438 -1.68724 -0.847201 0
M  V30 7282 O 689.795 -0.943699 -1.56207 0
M  V30 7283 C 689.846 -3.52971 0.780633 0
M  V30 7284 O 689.567 -3.81994 2.14504 0
M  V30 7285 C 691.068 -4.411 0.44105 0
M  V30 7286 H 688.288 -0.634651 0.21785 0
M  V30 7287 H 690.832 -1.62965 1.23542 0
M  V30 7288 H 688.987 -3.87048 0.165204 0
M  V30 7289 H 689.401 -4.76609 2.18962 0
M  V30 7290 H 690.875 -5.48312 0.637006 0
M  V30 7291 H 691.352 -4.34758 -0.62306 0
M  V30 7292 H 691.958 -4.12532 1.0343 0
M  V30 7293 N 690.273 -0.685099 -1.4193 0
M  V30 7294 C 691.52 -0.211658 -2.01391 0
M  V30 7295 C 691.848 1.18526 -1.54214 0
M  V30 7296 O 691.103 1.81189 -0.739519 0
M  V30 7297 C 691.402 -0.206154 -3.56805 0
M  V30 7298 C 691.068 -1.54915 -4.23453 0
M  V30 7299 C 689.73 -1.91684 -4.41373 0
M  V30 7300 C 692.082 -2.43317 -4.60919 0
M  V30 7301 C 689.41 -3.16461 -4.94034 0
M  V30 7302 C 691.762 -3.67415 -5.14965 0
M  V30 7303 C 690.426 -4.04341 -5.31098 0
M  V30 7304 H 689.696 -0.0774511 -0.736941 0
M  V30 7305 H 692.343 -0.882121 -1.69973 0
M  V30 7306 H 690.648 0.547841 -3.87951 0
M  V30 7307 H 692.345 0.17753 -4.00607 0
M  V30 7308 H 688.935 -1.25314 -4.09871 0
M  V30 7309 H 693.119 -2.16192 -4.46738 0
M  V30 7310 H 688.375 -3.45078 -5.04709 0
M  V30 7311 H 692.549 -4.3611 -5.42938 0
M  V30 7312 H 690.176 -5.01101 -5.71666 0
M  V30 7313 N 691.751 1.51645 -0.429126 0
M  V30 7314 C 692.698 2.27542 0.386446 0
M  V30 7315 C 693.668 1.30786 1.02393 0
M  V30 7316 O 694.853 1.59678 1.0444 0
M  V30 7317 C 691.993 3.11457 1.48623 0
M  V30 7318 C 691.106 4.23196 0.867691 0
M  V30 7319 C 690.241 4.94435 1.94183 0
M  V30 7320 C 689.28 5.98108 1.30129 0
M  V30 7321 N 688.417 6.62786 2.31644 0
M  V30 7322 H 693.257 2.968 -0.267155 0
M  V30 7323 H 690.794 1.46397 -0.143591 0
M  V30 7324 H 692.752 3.58429 2.13506 0
M  V30 7325 H 691.382 2.44329 2.10957 0
M  V30 7326 H 690.434 3.80248 0.107373 0
M  V30 7327 H 691.746 4.97499 0.35997 0
M  V30 7328 H 690.9 5.44914 2.66747 0
M  V30 7329 H 689.639 4.19744 2.48326 0
M  V30 7330 H 688.644 5.4693 0.561082 0
M  V30 7331 H 689.869 6.74751 0.767303 0
M  V30 7332 H 687.815 5.90913 2.84883 0
M  V30 7333 H 687.732 7.32828 1.85741 0
M  V30 7334 H 689 7.17897 3.03717 0
M  V30 7335 N 693.229 0.160201 1.56784 0
M  V30 7336 C 694.506 -0.533355 1.88188 0
M  V30 7337 C 694.886 -1.82072 1.06831 0
M  V30 7338 O 694.234 -2.27946 0.158959 0
M  V30 7339 C 694.444 -0.786034 3.40033 0
M  V30 7340 C 695.792 -1.12097 4.09536 0
M  V30 7341 O 696.816 -0.874949 3.45287 0
M  V30 7342 O 695.675 -1.58457 5.23023 0
M  V30 7343 H 692.769 -0.273589 0.780434 0
M  V30 7344 H 695.315 0.197803 1.68543 0
M  V30 7345 H 694.087 0.124515 3.91102 0
M  V30 7346 H 693.71 -1.57091 3.65251 0
M  V30 7347 N 694.707 -1.5719 -0.113559 0
M  V30 7348 C 695.954 -1.85138 -0.820382 0
M  V30 7349 C 696.282 -0.74608 -1.79622 0
M  V30 7350 O 695.537 0.262077 -1.93937 0
M  V30 7351 C 695.836 -3.19593 -1.59984 0
M  V30 7352 C 695.502 -4.44315 -0.767809 0
M  V30 7353 C 694.164 -4.78179 -0.538379 0
M  V30 7354 C 696.516 -5.2086 -0.188203 0
M  V30 7355 C 693.844 -5.86028 0.28082 0
M  V30 7356 C 696.196 -6.29572 0.618217 0
M  V30 7357 C 694.86 -6.61964 0.857912 0
M  V30 7358 H 694.13 -0.677467 -0.300199 0
M  V30 7359 H 696.777 -1.91322 -0.0825443 0
M  V30 7360 H 695.082 -3.0901 -2.40874 0
M  V30 7361 H 696.779 -3.3844 -2.1508 0
M  V30 7362 H 693.369 -4.17786 -0.956724 0
M  V30 7363 H 697.553 -4.95045 -0.352658 0
M  V30 7364 H 692.809 -6.09547 0.475693 0
M  V30 7365 H 696.983 -6.88064 1.0743 0
M  V30 7366 H 694.61 -7.45365 1.49451 0
M  V30 7367 N 696.185 0.383891 -1.52853 0
M  V30 7368 C 697.596 0.961591 -1.60032 0
M  V30 7369 C 697.947 1.90819 -0.456333 0
M  V30 7370 O 697.072 2.12288 0.419873 0
M  V30 7371 C 697.667 1.75078 -2.90057 0
M  V30 7372 C 696.226 2.2781 -2.99632 0
M  V30 7373 C 695.373 1.08512 -2.55187 0
M  V30 7374 H 698.324 0.163269 -1.57858 0
M  V30 7375 H 698.345 2.61046 -2.7683 0
M  V30 7376 H 697.857 1.06157 -3.73299 0
M  V30 7377 H 695.958 3.00028 -2.20939 0
M  V30 7378 H 696.071 2.56947 -4.0437 0
M  V30 7379 H 694.435 1.44667 -2.09627 0
M  V30 7380 H 695.218 0.41118 -3.40829 0
M  V30 7381 N 697.663 1.43903 0.642637 0
M  V30 7382 C 698.595 1.45857 1.768 0
M  V30 7383 C 699.608 0.353358 1.58919 0
M  V30 7384 O 700.797 0.618426 1.67445 0
M  V30 7385 C 697.897 1.26583 3.14372 0
M  V30 7386 C 697.07 2.50139 3.58817 0
M  V30 7387 C 696.129 2.25933 4.75227 0
M  V30 7388 O 695.155 2.99351 4.84125 0
M  V30 7389 N 696.357 1.28263 5.66153 0
M  V30 7390 H 699.122 2.42869 1.75598 0
M  V30 7391 H 696.683 1.39194 0.826832 0
M  V30 7392 H 698.675 1.08255 3.89953 0
M  V30 7393 H 697.245 0.37978 3.10284 0
M  V30 7394 H 696.465 2.83821 2.73568 0
M  V30 7395 H 697.753 3.32344 3.8526 0
M  V30 7396 H 697.151 0.676041 5.61646 0
M  V30 7397 H 695.708 1.15916 6.4141 0
M  V30 7398 N 699.141 -0.881989 1.30609 0
M  V30 7399 C 700.074 -1.99066 1.11571 0
M  V30 7400 C 701.052 -1.62584 0.022516 0
M  V30 7401 O 702.236 -1.87671 0.176644 0
M  V30 7402 C 699.363 -3.3134 0.702237 0
M  V30 7403 C 698.409 -3.86807 1.79673 0
M  V30 7404 S 699.242 -4.13735 3.39976 0
M  V30 7405 C 700.398 -5.49024 3.00538 0
M  V30 7406 H 700.631 -2.1491 2.05429 0
M  V30 7407 H 698.164 -1.03074 1.14957 0
M  V30 7408 H 700.122 -4.07796 0.470415 0
M  V30 7409 H 698.783 -3.13349 -0.217034 0
M  V30 7410 H 697.976 -4.82397 1.45977 0
M  V30 7411 H 697.578 -3.17102 1.98298 0
M  V30 7412 H 699.87 -6.30208 2.48684 0
M  V30 7413 H 700.813 -5.8766 3.95046 0
M  V30 7414 H 701.221 -5.11726 2.3832 0
M  V30 7415 N 700.619 -1.13374 -1.09472 0
M  V30 7416 C 701.867 -0.893422 -1.8128 0
M  V30 7417 C 702.188 0.582029 -1.86111 0
M  V30 7418 O 701.458 1.42305 -1.34633 0
M  V30 7419 H 700.038 -0.327543 -0.67136 0
M  V30 7420 H 702.7 -1.43018 -1.32408 0
M  V30 7421 H 701.796 -1.28374 -2.84476 0
M  V30 7422 N 702.098 1.27442 -0.927168 0
M  V30 7423 C 703.514 1.46754 -0.627329 0
M  V30 7424 C 703.714 1.83902 0.823549 0
M  V30 7425 O 702.77 1.95215 1.60148 0
M  V30 7426 C 704.083 2.56045 -1.57674 0
M  V30 7427 C 705.631 2.69906 -1.58491 0
M  V30 7428 C 706.106 3.82355 -2.52128 0
M  V30 7429 N 707.597 3.89728 -2.50332 0
M  V30 7430 C 708.332 4.76155 -3.19475 0
M  V30 7431 N 707.828 5.67073 -3.97995 0
M  V30 7432 N 709.621 4.6988 -3.08496 0
M  V30 7433 H 701.772 1.01613 -1.86517 0
M  V30 7434 H 704.035 0.507443 -0.800753 0
M  V30 7435 H 703.741 2.35542 -2.61176 0
M  V30 7436 H 703.615 3.53423 -1.31804 0
M  V30 7437 H 706.002 2.89792 -0.557208 0
M  V30 7438 H 706.083 1.73018 -1.8841 0
M  V30 7439 H 705.727 3.63224 -3.55008 0
M  V30 7440 H 705.657 4.7867 -2.19505 0
M  V30 7441 H 708.148 3.24717 -1.93306 0
M  V30 7442 H 708.461 6.2988 -4.4774 0
M  V30 7443 H 706.806 5.6687 -4.02098 0
M  V30 7444 H 709.997 3.97848 -2.46646 0
M  V30 7445 H 710.17 5.37017 -3.62652 0
M  V30 7446 N 703.576 0.692616 1.41565 0
M  V30 7447 C 704.823 0.222335 2.01276 0
M  V30 7448 C 705.151 -1.17706 1.5484 0
M  V30 7449 O 704.406 -1.80795 0.749118 0
M  V30 7450 C 704.705 0.225073 3.56691 0
M  V30 7451 C 704.371 1.57158 4.22625 0
M  V30 7452 C 703.033 1.94022 4.40351 0
M  V30 7453 C 705.385 2.45758 4.59622 0
M  V30 7454 C 702.713 3.19076 4.92349 0
M  V30 7455 C 705.065 3.70141 5.13009 0
M  V30 7456 C 703.729 4.07152 5.28946 0
M  V30 7457 H 702.999 0.0813581 0.73652 0
M  V30 7458 H 705.646 0.891123 1.69503 0
M  V30 7459 H 703.951 -0.527259 3.88236 0
M  V30 7460 H 705.648 -0.156283 4.00695 0
M  V30 7461 H 702.238 1.27486 4.09201 0
M  V30 7462 H 706.422 2.18558 4.45585 0
M  V30 7463 H 701.678 3.4775 5.02872 0
M  V30 7464 H 705.852 4.38983 5.40617 0
M  V30 7465 H 703.479 5.04125 5.69001 0
M  V30 7466 N 705.054 -1.51416 0.437162 0
M  V30 7467 C 706.282 -2.06503 -0.128045 0
M  V30 7468 C 706.697 -1.30461 -1.36475 0
M  V30 7469 O 706.054 -0.364127 -1.78831 0
M  V30 7470 C 706.105 -3.58683 -0.450437 0
M  V30 7471 O 705.826 -4.31853 0.737186 0
M  V30 7472 C 707.327 -4.30284 -1.06633 0
M  V30 7473 H 704.547 -0.670952 -0.00800269 0
M  V30 7474 H 707.091 -1.94996 0.616193 0
M  V30 7475 H 705.246 -3.70106 -1.14457 0
M  V30 7476 H 705.66 -5.22467 0.461347 0
M  V30 7477 H 707.134 -5.37848 -1.24191 0
M  V30 7478 H 707.611 -3.88564 -2.0473 0
M  V30 7479 H 708.217 -4.23304 -0.411585 0
M  V30 7480 N 706.532 -0.168513 -1.56696 0
M  V30 7481 C 707.462 0.758563 -2.20835 0
M  V30 7482 C 708.443 1.24121 -1.1631 0
M  V30 7483 O 709.628 1.29487 -1.4473 0
M  V30 7484 C 706.758 1.9892 -2.8469 0
M  V30 7485 C 705.712 1.64252 -3.95228 0
M  V30 7486 C 705.038 2.94757 -4.46119 0
M  V30 7487 C 706.338 0.872675 -5.14958 0
M  V30 7488 H 708.032 0.223953 -2.98561 0
M  V30 7489 H 705.578 0.106277 -1.43607 0
M  V30 7490 H 707.531 2.64275 -3.28233 0
M  V30 7491 H 706.255 2.5479 -2.04327 0
M  V30 7492 H 704.914 1.01266 -3.52336 0
M  V30 7493 H 704.562 3.48662 -3.62552 0
M  V30 7494 H 704.262 2.72316 -5.2069 0
M  V30 7495 H 705.786 3.61147 -4.92347 0
M  V30 7496 H 707.2 1.42875 -5.55211 0
M  V30 7497 H 705.597 0.747402 -5.95428 0
M  V30 7498 H 706.667 -0.131535 -4.84722 0
M  V30 7499 N 708.01 1.57248 0.105221 0
M  V30 7500 C 709.426 1.52853 0.459153 0
M  V30 7501 C 709.626 0.883674 1.8109 0
M  V30 7502 O 708.682 0.471864 2.48052 0
M  V30 7503 C 709.995 2.97596 0.43096 0
M  V30 7504 C 711.543 3.08758 0.513536 0
M  V30 7505 C 712.018 4.55089 0.515593 0
M  V30 7506 N 713.509 4.59597 0.576639 0
M  V30 7507 C 714.244 5.70253 0.599904 0
M  V30 7508 N 713.74 6.90368 0.579985 0
M  V30 7509 N 715.533 5.58399 0.643953 0
M  V30 7510 H 707.684 1.97547 -0.780306 0
M  V30 7511 H 709.947 0.902758 -0.289363 0
M  V30 7512 H 709.653 3.48201 -0.494903 0
M  V30 7513 H 709.527 3.55756 1.2537 0
M  V30 7514 H 711.914 2.58148 1.42982 0
M  V30 7515 H 711.995 2.53568 -0.337148 0
M  V30 7516 H 711.639 5.06348 -0.396701 0
M  V30 7517 H 711.569 5.08105 1.38335 0
M  V30 7518 H 714.06 3.73144 0.597639 0
M  V30 7519 H 714.373 7.70462 0.600741 0
M  V30 7520 H 712.718 6.92843 0.547191 0
M  V30 7521 H 715.909 4.63467 0.656975 0
M  V30 7522 H 716.082 6.44644 0.658616 0
M  V30 7523 N 709.488 -0.375779 1.53054 0
M  V30 7524 C 710.765 -1.13453 1.59336 0
M  V30 7525 C 711.145 -2.07379 0.394614 0
M  V30 7526 O 710.493 -2.2004 -0.616 0
M  V30 7527 C 710.703 -1.8826 2.93869 0
M  V30 7528 C 712.051 -2.43155 3.48081 0
M  V30 7529 O 713.075 -1.984 2.95831 0
M  V30 7530 O 711.934 -3.24944 4.39401 0
M  V30 7531 H 709.028 -0.519856 0.643179 0
M  V30 7532 H 711.574 -0.379865 1.65394 0
M  V30 7533 H 710.346 -1.19652 3.72558 0
M  V30 7534 H 709.969 -2.70658 2.91256 0
M  V30 7535 N 710.966 -1.44241 -0.634997 0
M  V30 7536 C 711.876 -1.53293 -1.77591 0
M  V30 7537 C 712.892 -0.418831 -1.68884 0
M  V30 7538 O 714.068 -0.675619 -1.8973 0
M  V30 7539 C 711.133 -1.47075 -3.13958 0
M  V30 7540 C 710.194 -2.69304 -3.34326 0
M  V30 7541 C 709.427 -2.63374 -4.64187 0
M  V30 7542 O 709.65 -1.69161 -5.44739 0
M  V30 7543 O 708.584 -3.54166 -4.86673 0
M  V30 7544 H 712.41 -2.49673 -1.72908 0
M  V30 7545 H 709.995 -1.26445 -0.795745 0
M  V30 7546 H 711.877 -1.46117 -3.95257 0
M  V30 7547 H 710.552 -0.538373 -3.19192 0
M  V30 7548 H 709.459 -2.75831 -2.52721 0
M  V30 7549 H 710.792 -3.61576 -3.33951 0
M  V30 7550 N 712.444 0.87505 -1.31075 0
M  V30 7551 C 713.692 1.62447 -1.20231 0
M  V30 7552 C 714.013 1.93506 0.240888 0
M  V30 7553 O 713.283 1.57847 1.16022 0
M  V30 7554 H 711.863 0.602207 -0.441991 0
M  V30 7555 H 714.525 1.04788 -1.64334 0
M  V30 7556 H 713.621 2.57031 -1.77036 0
M  V30 7557 N 713.922 1.13953 1.08869 0
M  V30 7558 C 714.869 0.82213 2.15661 0
M  V30 7559 C 715.839 -0.218274 1.6466 0
M  V30 7560 O 717.024 -0.0892475 1.90591 0
M  V30 7561 C 714.164 0.300572 3.43789 0
M  V30 7562 C 713.277 1.40071 4.08661 0
M  V30 7563 C 712.412 0.836897 5.24566 0
M  V30 7564 C 711.451 1.91504 5.81371 0
M  V30 7565 N 710.588 1.36875 6.88629 0
M  V30 7566 H 715.428 1.73683 2.42153 0
M  V30 7567 H 712.965 0.866879 1.18843 0
M  V30 7568 H 714.923 -0.0199943 4.17195 0
M  V30 7569 H 713.553 -0.577248 3.17597 0
M  V30 7570 H 712.605 1.83776 3.33062 0
M  V30 7571 H 713.917 2.21534 4.46905 0
M  V30 7572 H 713.071 0.467953 6.04893 0
M  V30 7573 H 711.81 -0.00874207 4.87699 0
M  V30 7574 H 710.815 2.29299 4.99702 0
M  V30 7575 H 712.04 2.76419 6.20298 0
M  V30 7576 H 709.986 0.545211 6.5373 0
M  V30 7577 H 709.903 2.1198 7.25672 0
M  V30 7578 H 711.171 1.02756 7.72698 0
M  V30 7579 N 715.4 -1.26948 0.933913 0
M  V30 7580 C 716.628 -1.98186 0.59414 0
M  V30 7581 C 717.043 -1.69614 -0.829257 0
M  V30 7582 O 716.4 -0.960213 -1.55197 0
M  V30 7583 C 716.451 -3.52123 0.818026 0
M  V30 7584 O 716.172 -3.79698 2.18543 0
M  V30 7585 C 717.673 -4.40608 0.48781 0
M  V30 7586 H 714.893 -0.632305 0.224569 0
M  V30 7587 H 717.437 -1.61646 1.25263 0
M  V30 7588 H 715.592 -3.86851 0.206246 0
M  V30 7589 H 716.006 -4.7426 2.24005 0
M  V30 7590 H 717.48 -5.47606 0.695126 0
M  V30 7591 H 717.957 -4.35394 -0.576913 0
M  V30 7592 H 718.563 -4.11411 1.078 0
M  V30 7593 N 716.879 -0.700114 -1.41195 0
M  V30 7594 C 718.128 -0.230082 -2.00383 0
M  V30 7595 C 718.441 1.17857 -1.56106 0
M  V30 7596 O 719.647 1.74631 -2.07885 0
M  V30 7597 C 718.103 -0.360447 -3.5809 0
M  V30 7598 C 717.711 -1.77475 -4.11347 0
M  V30 7599 C 719.455 0.0495799 -4.24471 0
M  V30 7600 C 717.362 -1.85653 -5.61504 0
M  V30 7601 H 716.292 -0.0822633 -0.749499 0
M  V30 7602 H 718.943 -0.868969 -1.6162 0
M  V30 7603 H 717.325 0.346768 -3.94479 0
M  V30 7604 H 718.499 -2.51109 -3.86369 0
M  V30 7605 H 716.814 -2.13486 -3.57509 0
M  V30 7606 H 719.411 0.00898219 -5.34699 0
M  V30 7607 H 719.754 1.08904 -4.01803 0
M  V30 7608 H 720.287 -0.607521 -3.93134 0
M  V30 7609 H 717.026 -2.87667 -5.89006 0
M  V30 7610 H 716.546 -1.1641 -5.88395 0
M  V30 7611 H 718.225 -1.62151 -6.26351 0
M  V30 7612 N 718.357 1.51182 -0.445186 0
M  V30 7613 C 719.32 2.26501 0.350722 0
M  V30 7614 C 720.32 1.3025 0.942952 0
M  V30 7615 O 721.51 1.53897 0.816175 0
M  V30 7616 C 718.642 3.06274 1.49697 0
M  V30 7617 H 719.835 2.98299 -0.309474 0
M  V30 7618 H 717.388 1.55034 -0.198551 0
M  V30 7619 H 718.123 2.38911 2.19299 0
M  V30 7620 H 717.908 3.76979 1.0784 0
M  V30 7621 H 719.398 3.63306 2.05909 0
M  V30 7622 N 719.835 0.176821 1.56605 0
M  V30 7623 C 721.084 -0.466833 1.96223 0
M  V30 7624 C 721.397 -1.64015 1.06576 0
M  V30 7625 O 722.603 -2.3504 1.35898 0
M  V30 7626 C 721.059 -0.881921 3.48927 0
M  V30 7627 C 720.667 0.266102 4.47209 0
M  V30 7628 C 722.411 -1.49368 3.97353 0
M  V30 7629 C 720.318 -0.168923 5.91159 0
M  V30 7630 H 719.248 -0.178178 0.732645 0
M  V30 7631 H 721.899 0.265929 1.81563 0
M  V30 7632 H 720.281 -1.67082 3.59026 0
M  V30 7633 H 721.455 1.04349 4.4883 0
M  V30 7634 H 719.77 0.788178 4.08872 0
M  V30 7635 H 722.367 -1.8313 5.02362 0
M  V30 7636 H 722.71 -2.3936 3.40606 0
M  V30 7637 H 723.243 -0.769114 3.90294 0
M  V30 7638 H 719.982 0.696351 6.51791 0
M  V30 7639 H 719.502 -0.911552 5.92833 0
M  V30 7640 H 721.181 -0.610938 6.44109 0
M  V30 7641 N 721.313 -1.57302 -0.09688 0
M  V30 7642 C 722.561 -1.8563 -0.799117 0
M  V30 7643 C 722.882 -0.765263 -1.79356 0
M  V30 7644 O 722.152 0.208657 -1.94786 0
M  V30 7645 H 720.732 -0.684937 -0.298111 0
M  V30 7646 H 723.394 -1.9474 -0.0789341 0
M  V30 7647 H 722.49 -2.82305 -1.3308 0
M  V30 7648 N 722.791 0.367657 -1.53252 0
M  V30 7649 C 723.738 1.45028 -1.79543 0
M  V30 7650 C 724.708 1.53288 -0.63969 0
M  V30 7651 O 725.893 1.69209 -0.881653 0
M  V30 7652 C 723.033 2.82 -1.98923 0
M  V30 7653 C 722.146 2.82722 -3.26638 0
M  V30 7654 C 721.281 4.11257 -3.36216 0
M  V30 7655 C 720.32 4.06113 -4.57972 0
M  V30 7656 N 719.457 5.26293 -4.64715 0
M  V30 7657 H 724.297 1.21908 -2.71923 0
M  V30 7658 H 721.834 0.591011 -1.34705 0
M  V30 7659 H 723.792 3.61568 -2.08146 0
M  V30 7660 H 722.422 3.03523 -1.09881 0
M  V30 7661 H 721.474 1.95399 -3.26379 0
M  V30 7662 H 722.786 2.74794 -4.16281 0
M  V30 7663 H 721.94 4.99239 -3.44739 0
M  V30 7664 H 720.679 4.21935 -2.44586 0
M  V30 7665 H 719.684 3.16517 -4.49552 0
M  V30 7666 H 720.909 3.97039 -5.50942 0
M  V30 7667 H 718.855 5.37561 -3.75985 0
M  V30 7668 H 718.772 5.20526 -5.4826 0
M  V30 7669 H 720.04 6.16113 -4.77519 0
M  V30 7670 N 724.269 1.44576 0.627338 0
M  V30 7671 C 725.515 1.47777 1.38888 0
M  V30 7672 C 725.848 0.111406 1.9388 0
M  V30 7673 O 725.123 -0.87149 1.73883 0
M  V30 7674 C 725.406 2.54119 2.55138 0
M  V30 7675 C 725.259 4.00128 2.0547 0
M  V30 7676 C 726.578 2.56929 3.57317 0
M  V30 7677 H 723.697 0.538048 0.50366 0
M  V30 7678 H 726.339 1.76277 0.708978 0
M  V30 7679 H 724.489 2.29948 3.13139 0
M  V30 7680 H 726.161 4.35444 1.5227 0
M  V30 7681 H 724.404 4.11724 1.36623 0
M  V30 7682 H 725.075 4.7019 2.89181 0
M  V30 7683 H 727.551 2.78536 3.09122 0
M  V30 7684 H 726.427 3.33234 4.36173 0
M  V30 7685 H 726.688 1.6127 4.11636 0
M  V30 7686 N 725.747 -0.868086 1.31537 0
M  V30 7687 C 726.677 -1.99131 1.21939 0
M  V30 7688 C 727.658 -1.69768 0.106166 0
M  V30 7689 O 728.843 -1.92006 0.291081 0
M  V30 7690 C 725.973 -3.34676 0.927879 0
M  V30 7691 C 724.927 -3.7835 2.00088 0
M  V30 7692 C 724.253 -5.11375 1.56203 0
M  V30 7693 C 725.553 -3.95256 3.41424 0
M  V30 7694 H 727.247 -2.07419 2.15911 0
M  V30 7695 H 724.793 -0.996569 1.03945 0
M  V30 7696 H 726.746 -4.12793 0.847327 0
M  V30 7697 H 725.47 -3.26565 -0.0475042 0
M  V30 7698 H 724.129 -3.02474 2.07135 0
M  V30 7699 H 723.777 -4.99709 0.57445 0
M  V30 7700 H 723.477 -5.41568 2.27985 0
M  V30 7701 H 725.001 -5.92001 1.49558 0
M  V30 7702 H 726.415 -4.63764 3.3704 0
M  V30 7703 H 724.812 -4.36849 4.1144 0
M  V30 7704 H 725.882 -2.98579 3.82072 0
M  V30 7705 N 727.225 -1.14528 -1.08264 0
M  V30 7706 C 728.172 -0.833556 -2.15222 0
M  V30 7707 C 729.142 0.209539 -1.64773 0
M  V30 7708 O 730.327 0.0791388 -1.90636 0
M  V30 7709 C 727.467 -0.318799 -3.43624 0
M  V30 7710 C 726.58 -1.42237 -4.07913 0
M  V30 7711 C 725.715 -0.864704 -5.24115 0
M  V30 7712 C 724.754 -1.94585 -5.80347 0
M  V30 7713 N 723.891 -1.40525 -6.87893 0
M  V30 7714 H 728.731 -1.74965 -2.41228 0
M  V30 7715 H 726.268 -0.873169 -1.18381 0
M  V30 7716 H 728.226 -0.00213088 -4.172 0
M  V30 7717 H 726.856 0.560397 -3.17898 0
M  V30 7718 H 725.908 -1.8554 -3.32083 0
M  V30 7719 H 727.22 -2.23901 -4.45724 0
M  V30 7720 H 726.374 -0.500025 -6.04636 0
M  V30 7721 H 725.113 -0.0171219 -4.87697 0
M  V30 7722 H 724.118 -2.31946 -4.98479 0
M  V30 7723 H 725.343 -2.79704 -6.18823 0
M  V30 7724 H 723.289 -0.579873 -6.53432 0
M  V30 7725 H 723.206 -2.15825 -7.24538 0
M  V30 7726 H 724.474 -1.06852 -7.72142 0
M  V30 7727 N 728.703 1.26451 -0.940633 0
M  V30 7728 C 729.633 2.28773 -0.467479 0
M  V30 7729 C 730.614 1.63218 0.478955 0
M  V30 7730 O 731.799 1.90427 0.380929 0
M  V30 7731 C 728.929 3.46259 0.268656 0
M  V30 7732 C 727.883 4.23898 -0.591171 0
M  V30 7733 C 727.209 5.33993 0.274891 0
M  V30 7734 C 728.509 4.87974 -1.86223 0
M  V30 7735 H 730.203 2.68601 -1.32265 0
M  V30 7736 H 727.749 1.29123 -0.637436 0
M  V30 7737 H 729.702 4.16951 0.610696 0
M  V30 7738 H 728.426 3.05383 1.15796 0
M  V30 7739 H 727.085 3.54969 -0.916098 0
M  V30 7740 H 726.733 4.89358 1.16353 0
M  V30 7741 H 726.433 5.86849 -0.297006 0
M  V30 7742 H 727.957 6.07523 0.612213 0
M  V30 7743 H 729.371 5.50883 -1.58747 0
M  V30 7744 H 727.768 5.50945 -2.37866 0
M  V30 7745 H 728.838 4.10945 -2.57394 0
M  V30 7746 N 730.181 0.707592 1.40822 0
M  V30 7747 C 731.427 0.244031 2.01326 0
M  V30 7748 C 731.76 -1.15722 1.55955 0
M  V30 7749 O 731.035 -1.78347 0.776044 0
M  V30 7750 C 731.318 0.315128 3.58718 0
M  V30 7751 C 731.171 1.75419 4.14184 0
M  V30 7752 C 732.49 -0.318251 4.38948 0
M  V30 7753 H 729.609 0.0901471 0.731466 0
M  V30 7754 H 732.251 0.898584 1.67408 0
M  V30 7755 H 730.401 -0.242176 3.87744 0
M  V30 7756 H 732.073 2.36626 3.95987 0
M  V30 7757 H 730.316 2.28449 3.68773 0
M  V30 7758 H 730.987 1.75538 5.23345 0
M  V30 7759 H 733.463 0.156514 4.15806 0
M  V30 7760 H 732.339 -0.238019 5.48384 0
M  V30 7761 H 732.6 -1.40067 4.19325 0
M  V30 7762 N 731.66 -1.50943 0.453197 0
M  V30 7763 C 733.071 -1.86699 -0.00619892 0
M  V30 7764 C 733.422 -1.3693 -1.40515 0
M  V30 7765 O 732.547 -0.726715 -2.03833 0
M  V30 7766 C 733.142 -3.38795 -0.018025 0
M  V30 7767 C 731.701 -3.74028 -0.421885 0
M  V30 7768 C 730.848 -2.74752 0.375087 0
M  V30 7769 H 733.799 -1.43942 0.668317 0
M  V30 7770 H 733.82 -3.71468 -0.824125 0
M  V30 7771 H 733.332 -3.74988 1.00028 0
M  V30 7772 H 731.433 -3.43431 -1.44521 0
M  V30 7773 H 731.546 -4.78908 -0.135664 0
M  V30 7774 H 729.91 -2.5414 -0.168794 0
M  V30 7775 H 730.693 -3.13787 1.39256 0
M  V30 7776 N 733.138 -0.185124 -1.56509 0
M  V30 7777 C 734.048 0.751908 -2.22224 0
M  V30 7778 C 735.064 1.24244 -1.21817 0
M  V30 7779 O 736.24 1.29169 -1.54523 0
M  V30 7780 C 733.305 1.95837 -2.86092 0
M  V30 7781 C 732.366 1.51337 -4.01741 0
M  V30 7782 C 731.599 2.66233 -4.62554 0
M  V30 7783 O 731.822 3.8346 -4.22273 0
M  V30 7784 O 730.756 2.39517 -5.52191 0
M  V30 7785 H 734.582 0.222304 -3.02885 0
M  V30 7786 H 732.167 0.0437141 -1.49336 0
M  V30 7787 H 734.049 2.66368 -3.26536 0
M  V30 7788 H 732.724 2.47677 -2.08417 0
M  V30 7789 H 731.631 0.777155 -3.65939 0
M  V30 7790 H 732.964 1.04175 -4.81049 0
M  V30 7791 N 734.616 1.57351 0.0885366 0
M  V30 7792 C 735.563 2.02523 1.10693 0
M  V30 7793 C 736.533 0.902736 1.39427 0
M  V30 7794 O 737.718 1.16921 1.50779 0
M  V30 7795 C 734.858 2.46013 2.42016 0
M  V30 7796 C 733.971 3.7181 2.19957 0
M  V30 7797 C 733.106 4.04152 3.44724 0
M  V30 7798 C 732.145 5.2304 3.17956 0
M  V30 7799 N 731.282 5.51102 4.35007 0
M  V30 7800 H 736.122 2.89302 0.714742 0
M  V30 7801 H 733.659 1.43084 0.341378 0
M  V30 7802 H 735.617 2.69274 3.18665 0
M  V30 7803 H 734.247 1.62235 2.79069 0
M  V30 7804 H 733.299 3.55987 1.34079 0
M  V30 7805 H 734.611 4.58604 1.96173 0
M  V30 7806 H 733.765 4.28225 4.29777 0
M  V30 7807 H 732.504 3.15893 3.71568 0
M  V30 7808 H 731.509 4.98781 2.31296 0
M  V30 7809 H 732.734 6.12902 2.92451 0
M  V30 7810 H 730.68 4.65802 4.61914 0
M  V30 7811 H 730.597 6.3228 4.14437 0
M  V30 7812 H 731.865 5.79714 5.21106 0
M  V30 7813 N 736.094 -0.359525 1.53444 0
M  V30 7814 C 737.371 -1.11756 1.6053 0
M  V30 7815 C 737.751 -2.06949 0.416587 0
M  V30 7816 O 737.099 -2.20681 -0.592628 0
M  V30 7817 C 737.309 -1.85133 2.95849 0
M  V30 7818 C 738.657 -2.3945 3.50641 0
M  V30 7819 O 739.681 -1.95251 2.97918 0
M  V30 7820 O 738.54 -3.20266 4.42823 0
M  V30 7821 H 735.634 -0.513005 0.648656 0
M  V30 7822 H 738.18 -0.362301 1.65787 0
M  V30 7823 H 736.952 -1.15694 3.73806 0
M  V30 7824 H 736.575 -2.67554 2.9411 0
M  V30 7825 O 737.611 -1.53385 -0.505502 0
M  V30 7826 H 738.302 -1.55093 -1.16042 0
M  V30 END ATOM
M  V30 BEGIN BOND
M  V30 END BOND
M  V30 END CTAB
M  END
$$$$
