drugbank_target|P57078 Receptor-interacting serine/threonine-protein kinase 4 (DB12010)
 OpenBabel12092121183D

  0  0  0     0  0            999 V3000
M  V30 BEGIN CTAB
M  V30 COUNTS 12923 13056 0 0 0
M  V30 BEGIN ATOM
M  V30 1 H -0.908 1.98254 -0.117106 0
M  V30 2 N 0 1.576 0 0
M  V30 3 C 0.933 2.03868 1.02534 0
M  V30 4 C 1.911 0.928543 1.3348 0
M  V30 5 O 3.095 1.19667 1.45644 0
M  V30 6 C 0.222 2.43627 2.35294 0
M  V30 7 C -0.732 3.65373 2.2001 0
M  V30 8 S 0.101 5.13292 1.52614 0
M  V30 9 C 1.257 5.56322 2.86805 0
M  V30 10 H 1.49 2.90518 0.631377 0
M  V30 11 H -0.977 1.52953 0.210867 0
M  V30 12 H 0.981 2.67203 3.11629 0
M  V30 13 H -0.358 1.57376 2.7183 0
M  V30 14 H -1.165 3.90944 3.18086 0
M  V30 15 H -1.563 3.418 1.51819 0
M  V30 16 H 0.729 5.58782 3.83104 0
M  V30 17 H 1.672 6.56266 2.65933 0
M  V30 18 H 2.08 4.83886 2.90714 0
M  V30 19 N 1.4781 -0.272755 1.55222 0
M  V30 20 C 2.3881 -1.35918 1.91216 0
M  V30 21 C 3.4041 -1.54026 0.809436 0
M  V30 22 O 4.5801 -1.68148 1.10852 0
M  V30 23 C 1.6451 -2.69834 2.17693 0
M  V30 24 C 0.7061 -2.6047 3.41253 0
M  V30 25 C -0.0609 -3.88 3.66458 0
M  V30 26 O 0.1621 -4.88693 2.94169 0
M  V30 27 O -0.9039 -3.88189 4.59992 0
M  V30 28 H 2.9221 -1.0839 2.83699 0
M  V30 29 H 0.5071 -0.471301 1.41771 0
M  V30 30 H 2.3891 -3.49017 2.36147 0
M  V30 31 H 1.0641 -2.97148 1.28392 0
M  V30 32 H -0.0289 -1.79663 3.28134 0
M  V30 33 H 1.3041 -2.38106 4.30774 0
M  V30 34 N 2.9562 -1.48159 -0.537278 0
M  V30 35 C 4.2042 -1.55497 -1.29094 0
M  V30 36 C 4.5252 -0.227454 -1.93669 0
M  V30 37 O 3.7952 0.750386 -1.80959 0
M  V30 38 H 2.3752 -0.572832 -0.47945 0
M  V30 39 H 5.0372 -1.84579 -0.625818 0
M  V30 40 H 4.1332 -2.33216 -2.07405 0
M  V30 41 N 4.4343 0.785586 -1.36625 0
M  V30 42 C 5.7113 1.53198 -1.21613 0
M  V30 43 C 6.0913 2.10187 0.196113 0
M  V30 44 O 5.4393 1.94318 1.20219 0
M  V30 45 C 5.6493 2.62388 -2.30116 0
M  V30 46 C 6.9973 3.30167 -2.66974 0
M  V30 47 O 8.0213 2.72674 -2.29188 0
M  V30 48 O 6.8803 4.34077 -3.32023 0
M  V30 49 H 3.9743 0.677865 -0.473738 0
M  V30 50 H 6.5203 0.823739 -1.48367 0
M  V30 51 H 5.2923 2.18299 -3.24748 0
M  V30 52 H 4.9153 3.40827 -2.0475 0
M  V30 53 N 5.9124 1.20967 1.01018 0
M  V30 54 C 7.1604 1.02172 1.74371 0
M  V30 55 C 7.4814 -0.446414 1.89821 0
M  V30 56 O 6.7514 -1.32234 1.44537 0
M  V30 57 H 5.3314 0.375066 0.646014 0
M  V30 58 H 7.9934 1.52187 1.21758 0
M  V30 59 H 7.0894 1.48538 2.74487 0
M  V30 60 N 7.3905 -1.2043 1.01659 0
M  V30 61 C 8.6385 -1.89423 0.704522 0
M  V30 62 C 8.9595 -1.79231 -0.768197 0
M  V30 63 O 8.2295 -1.1947 -1.55254 0
M  V30 64 H 6.8095 -0.701178 0.257602 0
M  V30 65 H 9.4715 -1.4626 1.28818 0
M  V30 66 H 8.5675 -2.96052 0.987916 0
M  V30 67 N 8.8686 -0.792821 -1.36206 0
M  V30 68 C 10.0966 -0.378825 -2.03402 0
M  V30 69 C 10.5116 1.00586 -1.59774 0
M  V30 70 O 9.8686 1.64574 -0.788764 0
M  V30 71 C 9.9196 -0.43683 -3.58851 0
M  V30 72 O 9.6406 -1.76691 -4.00889 0
M  V30 73 C 11.1416 -0.0138943 -4.43298 0
M  V30 74 H 8.3616 -0.155673 -0.652692 0
M  V30 75 H 10.9056 -1.07261 -1.74113 0
M  V30 76 H 9.0606 0.208575 -3.86838 0
M  V30 77 H 9.4746 -1.72011 -4.95492 0
M  V30 78 H 10.9486 -0.105615 -5.51899 0
M  V30 79 H 11.4256 1.03915 -4.2673 0
M  V30 80 H 12.0316 -0.63192 -4.20579 0
M  V30 81 N 10.3467 1.47872 -0.545128 0
M  V30 82 C 11.7577 1.86384 -0.108581 0
M  V30 83 C 12.1087 1.45309 1.31832 0
M  V30 84 O 11.2337 0.850641 1.9898 0
M  V30 85 C 11.8287 3.38265 -0.190274 0
M  V30 86 C 10.3877 3.75914 0.191164 0
M  V30 87 C 9.5347 2.71926 -0.543273 0
M  V30 88 H 12.4857 1.39561 -0.755537 0
M  V30 89 H 12.5067 3.75831 0.594217 0
M  V30 90 H 12.0187 3.6813 -1.2289 0
M  V30 91 H 10.1197 3.51665 1.23136 0
M  V30 92 H 10.2327 4.78836 -0.158987 0
M  V30 93 H 8.5967 2.54697 0.0122495 0
M  V30 94 H 9.3797 3.04634 -1.58282 0
M  V30 95 N 11.8248 0.280983 1.55075 0
M  V30 96 C 13.0708 -0.327573 2.00745 0
M  V30 97 C 13.4258 -1.53045 1.16598 0
M  V30 98 O 12.7188 -1.90221 0.229451 0
M  V30 99 C 12.9128 -0.754656 3.49342 0
M  V30 100 C 12.7418 0.40529 4.4787 0
M  V30 101 C 11.5118 0.890947 4.97383 0
M  V30 102 C 13.7098 1.24371 4.99035 0
M  V30 103 N 11.6918 2.01975 5.79724 0
M  V30 104 C 13.0628 2.22031 5.7888 0
M  V30 105 C 15.1178 1.27638 4.81262 0
M  V30 106 C 13.8208 3.22709 6.42846 0
M  V30 107 C 15.8468 2.27164 5.46031 0
M  V30 108 C 15.2088 3.23556 6.25692 0
M  V30 109 H 11.3078 -0.0848774 0.77738 0
M  V30 110 H 13.8918 0.406342 1.90413 0
M  V30 111 H 12.0628 -1.45778 3.60005 0
M  V30 112 H 13.7948 -1.34105 3.81835 0
M  V30 113 H 10.5498 0.469262 4.71269 0
M  V30 114 H 10.9738 2.58794 6.25584 0
M  V30 115 H 15.6158 0.544936 4.19274 0
M  V30 116 H 13.3338 3.96784 7.0398 0
M  V30 117 H 16.9198 2.30441 5.34217 0
M  V30 118 H 15.7998 3.99309 6.74924 0
M  V30 119 N 13.3029 -1.57598 0.00835791 0
M  V30 120 C 14.2659 -2.07884 -0.965242 0
M  V30 121 C 15.2659 -0.989825 -1.26725 0
M  V30 122 O 16.4559 -1.25218 -1.21104 0
M  V30 123 C 13.5879 -2.52731 -2.28779 0
M  V30 124 H 14.7809 -2.95178 -0.530112 0
M  V30 125 H 12.3339 -1.54458 -0.239283 0
M  V30 126 H 13.0689 -1.68705 -2.76964 0
M  V30 127 H 12.8539 -3.32272 -2.08177 0
M  V30 128 H 14.3439 -2.91933 -2.98605 0
M  V30 129 N 14.781 0.264519 -1.55364 0
M  V30 130 C 15.711 1.33121 -1.91836 0
M  V30 131 C 16.692 1.51101 -0.781192 0
M  V30 132 O 17.877 1.64003 -1.04003 0
M  V30 133 C 15.007 2.68921 -2.19769 0
M  V30 134 C 13.961 2.65661 -3.35571 0
M  V30 135 C 13.287 4.05093 -3.49004 0
M  V30 136 C 14.587 2.24187 -4.71739 0
M  V30 137 H 16.281 1.02844 -2.81182 0
M  V30 138 H 13.827 0.493286 -1.35287 0
M  V30 139 H 15.78 3.43663 -2.43872 0
M  V30 140 H 14.504 3.00799 -1.27231 0
M  V30 141 H 13.163 1.93377 -3.1145 0
M  V30 142 H 12.811 4.34206 -2.53917 0
M  V30 143 H 12.511 4.03804 -4.26868 0
M  V30 144 H 14.035 4.81561 -3.75408 0
M  V30 145 H 15.449 2.88654 -4.9533 0
M  V30 146 H 13.846 2.34044 -5.52579 0
M  V30 147 H 14.916 1.19327 -4.69988 0
M  V30 148 N 16.2591 1.48442 0.529413 0
M  V30 149 C 17.2221 1.62524 1.61612 0
M  V30 150 C 18.2221 0.498509 1.52877 0
M  V30 151 O 19.4121 0.76431 1.56537 0
M  V30 152 C 16.5441 1.59597 3.01233 0
M  V30 153 H 17.7371 2.59423 1.50465 0
M  V30 154 H 15.2901 1.37047 0.751514 0
M  V30 155 H 16.0251 0.641781 3.17886 0
M  V30 156 H 15.8101 2.41397 3.08982 0
M  V30 157 H 17.3001 1.72646 3.80241 0
M  V30 158 N 17.7372 -0.778329 1.37039 0
M  V30 159 C 18.6672 -1.90546 1.34962 0
M  V30 160 C 19.6482 -1.68681 0.219274 0
M  V30 161 O 20.8332 -1.89634 0.418624 0
M  V30 162 C 17.9632 -3.27734 1.14925 0
M  V30 163 C 16.9172 -3.64147 2.24902 0
M  V30 164 C 16.2432 -4.99806 1.89996 0
M  V30 165 C 17.5432 -3.71579 3.67051 0
M  V30 166 H 19.2372 -1.92541 2.29277 0
M  V30 167 H 16.7832 -0.924948 1.10366 0
M  V30 168 H 18.7362 -4.06215 1.12104 0
M  V30 169 H 17.4602 -3.26154 0.170631 0
M  V30 170 H 16.1192 -2.8797 2.26868 0
M  V30 171 H 15.7672 -4.94759 0.906796 0
M  V30 172 H 15.4672 -5.25139 2.63634 0
M  V30 173 H 16.9912 -5.80694 1.88749 0
M  V30 174 H 18.4052 -4.40227 3.67251 0
M  V30 175 H 16.8022 -4.08405 4.39688 0
M  V30 176 H 17.8722 -2.72404 4.01154 0
M  V30 177 N 19.2153 -1.21501 -1.00376 0
M  V30 178 C 20.1453 -0.999478 -2.11028 0
M  V30 179 C 21.1263 0.0759671 -1.6993 0
M  V30 180 O 22.3113 -0.0841106 -1.94018 0
M  V30 181 C 19.4413 -0.564709 -3.42678 0
M  V30 182 C 18.3953 -1.58486 -3.97576 0
M  V30 183 C 17.7213 -1.00628 -5.25146 0
M  V30 184 C 19.0213 -2.97204 -4.29496 0
M  V30 185 H 20.7153 -1.92495 -2.29317 0
M  V30 186 H 18.2613 -0.92693 -1.102 0
M  V30 187 H 20.2143 -0.401091 -4.19487 0
M  V30 188 H 18.9383 0.396411 -3.24185 0
M  V30 189 H 17.5973 -1.73606 -3.22888 0
M  V30 190 H 17.2453 -0.0368439 -5.02987 0
M  V30 191 H 16.9453 -1.68771 -5.62841 0
M  V30 192 H 18.4693 -0.854015 -6.04598 0
M  V30 193 H 19.8833 -2.8552 -4.97143 0
M  V30 194 H 18.2803 -3.62372 -4.78338 0
M  V30 195 H 19.3503 -3.47956 -3.3772 0
M  V30 196 N 20.6934 1.19889 -1.02296 0
M  V30 197 C 22.1094 1.41462 -0.738954 0
M  V30 198 C 22.3094 1.89721 0.678846 0
M  V30 199 O 21.3654 2.07016 1.4457 0
M  V30 200 C 22.6784 2.43083 -1.77005 0
M  V30 201 C 24.2264 2.5684 -1.78892 0
M  V30 202 C 24.7014 3.61709 -2.80945 0
M  V30 203 N 26.1924 3.69199 -2.79725 0
M  V30 204 C 26.9274 4.50019 -3.55345 0
M  V30 205 N 26.4234 5.34592 -4.40662 0
M  V30 206 N 28.2164 4.44612 -3.43914 0
M  V30 207 H 20.3674 0.868827 -1.93817 0
M  V30 208 H 22.6304 0.44399 -0.837602 0
M  V30 209 H 22.3364 2.14636 -2.78612 0
M  V30 210 H 22.2104 3.4217 -1.58744 0
M  V30 211 H 24.5974 2.84614 -0.779674 0
M  V30 212 H 24.6784 1.57927 -2.01228 0
M  V30 213 H 24.3224 3.34678 -3.82038 0
M  V30 214 H 24.2524 4.60259 -2.5587 0
M  V30 215 H 26.7434 3.08794 -2.17842 0
M  V30 216 H 27.0564 5.93363 -4.95116 0
M  V30 217 H 25.4014 5.34073 -4.44737 0
M  V30 218 H 28.5924 3.7758 -2.76679 0
M  V30 219 H 28.7654 5.0736 -4.031 0
M  V30 220 N 22.1715 0.800033 1.35784 0
M  V30 221 C 23.3995 0.389606 2.03199 0
M  V30 222 C 23.8145 -0.997375 1.60306 0
M  V30 223 O 23.1715 -1.64154 0.797481 0
M  V30 224 C 23.2225 0.455855 3.58614 0
M  V30 225 O 22.9435 1.78815 3.99946 0
M  V30 226 C 24.4445 0.0374032 4.43284 0
M  V30 227 H 21.6645 0.159132 0.651857 0
M  V30 228 H 24.2085 1.08183 1.73541 0
M  V30 229 H 22.3635 -0.188057 3.86943 0
M  V30 230 H 22.7775 1.74636 4.94573 0
M  V30 231 H 24.2515 0.134882 5.51835 0
M  V30 232 H 24.7285 -1.01651 4.27275 0
M  V30 233 H 25.3345 0.654215 4.20238 0
M  V30 234 N 23.6496 -1.47581 0.552962 0
M  V30 235 C 24.8966 -2.02482 0.0273243 0
M  V30 236 C 25.2246 -1.42776 -1.32081 0
M  V30 237 O 24.4796 -0.571393 -1.87173 0
M  V30 238 C 24.7786 -3.57199 -0.119728 0
M  V30 239 C 24.4446 -4.35804 1.15697 0
M  V30 240 C 23.1066 -4.57 1.50681 0
M  V30 241 C 25.4586 -4.81167 2.00319 0
M  V30 242 C 22.7866 -5.20807 2.70142 0
M  V30 243 C 25.1386 -5.46293 3.18978 0
M  V30 244 C 23.8026 -5.65722 3.54281 0
M  V30 245 H 23.0726 -0.740933 0.00999866 0
M  V30 246 H 25.7196 -1.77302 0.72362 0
M  V30 247 H 24.0246 -3.81348 -0.89896 0
M  V30 248 H 25.7216 -3.97324 -0.541718 0
M  V30 249 H 22.3116 -4.19582 0.874561 0
M  V30 250 H 26.4956 -4.64574 1.74599 0
M  V30 251 H 21.7516 -5.34045 2.97668 0
M  V30 252 H 25.9256 -5.80407 3.84838 0
M  V30 253 H 23.5526 -6.14936 4.46942 0
M  V30 254 N 25.1277 -0.289203 -1.54924 0
M  V30 255 C 26.4047 0.376032 -1.91951 0
M  V30 256 C 26.7847 1.72622 -1.21511 0
M  V30 257 O 26.1327 2.25853 -0.346767 0
M  V30 258 C 26.3427 0.502378 -3.45365 0
M  V30 259 C 27.6907 0.778741 -4.17398 0
M  V30 260 O 28.7147 0.586647 -3.51336 0
M  V30 261 O 27.5737 1.14698 -5.34328 0
M  V30 262 H 24.6677 0.208167 -0.800372 0
M  V30 263 H 27.2137 -0.336394 -1.66332 0
M  V30 264 H 25.9857 -0.447255 -3.88736 0
M  V30 265 H 25.6087 1.26373 -3.76982 0
M  V30 266 N 26.6058 1.57591 -0.0167156 0
M  V30 267 C 27.5688 2.08393 0.954204 0
M  V30 268 C 28.5688 0.996531 1.26198 0
M  V30 269 O 29.7588 1.25858 1.20438 0
M  V30 270 C 26.8908 2.5394 2.27436 0
M  V30 271 H 28.0838 2.95455 0.514451 0
M  V30 272 H 25.6368 1.54582 0.231089 0
M  V30 273 H 26.3718 1.70171 2.76066 0
M  V30 274 H 26.1568 3.33371 2.06412 0
M  V30 275 H 27.6468 2.93512 2.97053 0
M  V30 276 N 28.0839 -0.256276 1.55502 0
M  V30 277 C 29.3319 -0.983672 1.76545 0
M  V30 278 C 29.6529 -1.86206 0.578982 0
M  V30 279 O 28.9229 -1.91656 -0.405577 0
M  V30 280 H 27.5029 -0.366191 0.651086 0
M  V30 281 H 30.1649 -0.276479 1.92929 0
M  V30 282 H 29.2609 -1.61087 2.67315 0
M  V30 283 N 29.562 -1.4872 -0.521534 0
M  V30 284 C 30.472 -1.66569 -1.65203 0
M  V30 285 C 31.488 -0.548197 -1.65139 0
M  V30 286 O 32.664 -0.820339 -1.83936 0
M  V30 287 C 29.729 -1.70917 -3.01642 0
M  V30 288 C 28.79 -2.94356 -3.12495 0
M  V30 289 C 28.023 -2.98487 -4.42426 0
M  V30 290 O 28.246 -2.10786 -5.30024 0
M  V30 291 O 27.18 -3.90746 -4.57822 0
M  V30 292 H 31.006 -2.62298 -1.5308 0
M  V30 293 H 28.591 -1.3222 -0.695565 0
M  V30 294 H 30.473 -1.7625 -3.82771 0
M  V30 295 H 29.148 -0.783633 -3.14071 0
M  V30 296 H 28.055 -2.94552 -2.3063 0
M  V30 297 H 29.388 -3.86322 -3.04986 0
M  V30 298 N 31.0401 0.771051 -1.3745 0
M  V30 299 C 32.2871 1.52963 -1.32697 0
M  V30 300 C 32.6151 1.94299 0.0883274 0
M  V30 301 O 31.8701 1.64397 1.0617 0
M  V30 302 C 32.1691 2.80676 -2.2126 0
M  V30 303 C 31.8351 2.58389 -3.69521 0
M  V30 304 C 30.4971 2.52019 -4.09927 0
M  V30 305 C 32.8491 2.38469 -4.63446 0
M  V30 306 C 30.1771 2.23721 -5.42371 0
M  V30 307 C 32.5291 2.11694 -5.96128 0
M  V30 308 C 31.1931 2.03769 -6.35637 0
M  V30 309 H 30.4631 0.559732 -0.485573 0
M  V30 310 H 33.1101 0.888083 -1.69662 0
M  V30 311 H 31.4151 3.49392 -1.77291 0
M  V30 312 H 33.1121 3.38557 -2.14895 0
M  V30 313 H 29.7021 2.6421 -3.37478 0
M  V30 314 H 33.8861 2.4238 -4.33089 0
M  V30 315 H 29.1421 2.16081 -5.71943 0
M  V30 316 H 33.3161 1.9528 -6.6846 0
M  V30 317 H 30.9431 1.81606 -7.38189 0
M  V30 318 N 32.5182 1.22032 0.997298 0
M  V30 319 C 33.7462 1.06841 1.7718 0
M  V30 320 C 34.1612 -0.381325 1.84909 0
M  V30 321 O 33.5182 -1.26437 1.31605 0
M  V30 322 C 33.5692 1.66814 3.20711 0
M  V30 323 O 33.2902 3.06116 3.13408 0
M  V30 324 C 34.7912 1.56838 4.14628 0
M  V30 325 H 32.0112 0.374782 0.556578 0
M  V30 326 H 34.5552 1.61532 1.2541 0
M  V30 327 H 32.7102 1.16196 3.69564 0
M  V30 328 H 33.1242 3.34926 4.0364 0
M  V30 329 H 34.5982 2.03532 5.13107 0
M  V30 330 H 35.0752 0.524155 4.36061 0
M  V30 331 H 35.6812 2.06741 3.7167 0
M  V30 332 N 33.9963 -1.19345 1.0293 0
M  V30 333 C 35.2443 -1.88665 0.724574 0
M  V30 334 C 35.5653 -1.80036 -0.749144 0
M  V30 335 O 34.8353 -1.2111 -1.53978 0
M  V30 336 H 33.4153 -0.698406 0.265025 0
M  V30 337 H 36.0773 -1.44885 1.30362 0
M  V30 338 H 35.1733 -2.94987 1.01926 0
M  V30 339 N 35.4744 -0.807222 -1.35358 0
M  V30 340 C 36.7204 -0.397594 -1.99476 0
M  V30 341 C 37.0754 1.02405 -1.62883 0
M  V30 342 O 36.3684 1.70077 -0.882282 0
M  V30 343 C 36.5624 -0.519036 -3.53611 0
M  V30 344 C 36.3914 -1.95094 -4.05177 0
M  V30 345 C 35.1614 -2.57945 -4.34503 0
M  V30 346 C 37.3594 -2.91558 -4.23673 0
M  V30 347 N 35.3414 -3.92539 -4.72003 0
M  V30 348 C 36.7124 -4.11024 -4.64176 0
M  V30 349 C 38.7674 -2.88381 -4.05883 0
M  V30 350 C 37.4704 -5.27745 -4.88751 0
M  V30 351 C 39.4964 -4.04306 -4.31614 0
M  V30 352 C 38.8584 -5.22519 -4.72391 0
M  V30 353 H 34.9574 -0.193274 -0.75774 0
M  V30 354 H 37.5414 -1.0486 -1.6405 0
M  V30 355 H 35.7124 0.101979 -3.88266 0
M  V30 356 H 37.4444 -0.0839321 -4.04613 0
M  V30 357 H 34.1994 -2.09295 -4.24844 0
M  V30 358 H 34.6234 -4.61836 -4.95011 0
M  V30 359 H 39.2654 -1.98137 -3.73499 0
M  V30 360 H 36.9834 -6.1856 -5.20008 0
M  V30 361 H 40.5694 -4.03229 -4.19402 0
M  V30 362 H 39.4494 -6.1073 -4.91913 0
M  V30 363 N 36.9525 1.47285 -0.560781 0
M  V30 364 C 37.8625 2.33846 0.187954 0
M  V30 365 C 38.8785 1.48412 0.908293 0
M  V30 366 O 40.0545 1.81332 0.876388 0
M  V30 367 C 37.1195 3.25178 1.2025 0
M  V30 368 C 36.1805 4.26504 0.489208 0
M  V30 369 C 35.4135 5.13472 1.45542 0
M  V30 370 O 35.6365 5.02959 2.6905 0
M  V30 371 O 34.5705 5.93902 0.977963 0
M  V30 372 H 38.3965 2.99177 -0.522177 0
M  V30 373 H 35.9815 1.45903 -0.321364 0
M  V30 374 H 37.8635 3.81584 1.78805 0
M  V30 375 H 36.5385 2.6247 1.89449 0
M  V30 376 H 35.4455 3.73847 -0.137627 0
M  V30 377 H 36.7785 4.91935 -0.161399 0
M  V30 378 N 38.4306 0.297415 1.54768 0
M  V30 379 C 39.3776 -0.580276 2.23386 0
M  V30 380 C 40.3476 -1.13238 1.21517 0
M  V30 381 O 41.5326 -1.17757 1.50126 0
M  V30 382 C 38.6726 -1.74801 2.97555 0
M  V30 383 C 37.7856 -1.22764 4.1419 0
M  V30 384 C 36.9206 -2.35895 4.75949 0
M  V30 385 C 35.9596 -1.80974 5.84735 0
M  V30 386 N 35.0966 -2.87664 6.40464 0
M  V30 387 H 39.9366 0.0114833 2.97998 0
M  V30 388 H 37.4736 0.0174361 1.4709 0
M  V30 389 H 39.4316 -2.43475 3.38786 0
M  V30 390 H 38.0616 -2.31145 2.25326 0
M  V30 391 H 37.1136 -0.433271 3.77924 0
M  V30 392 H 38.4256 -0.785551 4.92575 0
M  V30 393 H 37.5796 -3.12523 5.20014 0
M  V30 394 H 36.3186 -2.83429 3.96887 0
M  V30 395 H 35.3236 -1.02834 5.40097 0
M  V30 396 H 36.5486 -1.34348 6.65678 0
M  V30 397 H 34.4946 -3.34538 5.64287 0
M  V30 398 H 34.4116 -2.4794 7.14186 0
M  V30 399 H 35.6796 -3.642 6.89187 0
M  V30 400 N 39.9087 -1.5758 0.0250728 0
M  V30 401 C 41.1547 -1.91917 -0.655413 0
M  V30 402 C 41.4877 -0.901433 -1.72011 0
M  V30 403 O 40.7627 0.0764069 -1.9435 0
M  V30 404 C 41.0457 -3.36751 -1.27558 0
M  V30 405 C 40.8987 -4.49258 -0.220719 0
M  V30 406 C 42.2177 -3.81469 -2.19475 0
M  V30 407 H 39.3367 -0.697925 -0.23679 0
M  V30 408 H 41.9787 -1.89825 0.0815036 0
M  V30 409 H 40.1287 -3.38664 -1.90365 0
M  V30 410 H 41.8007 -4.59478 0.409601 0
M  V30 411 H 40.0437 -4.31415 0.454264 0
M  V30 412 H 40.7147 -5.47618 -0.694175 0
M  V30 413 H 43.1907 -3.81266 -1.66659 0
M  V30 414 H 42.0667 -4.83512 -2.59822 0
M  V30 415 H 42.3277 -3.16744 -3.08424 0
M  V30 416 N 41.3868 0.248026 -1.55636 0
M  V30 417 C 42.6348 0.974295 -1.77065 0
M  V30 418 C 42.9558 1.85897 -0.588849 0
M  V30 419 O 42.2258 1.91868 0.395407 0
M  V30 420 H 40.8058 0.362733 -0.653019 0
M  V30 421 H 43.4678 0.266244 -1.93073 0
M  V30 422 H 42.5638 1.59667 -2.68166 0
M  V30 423 N 42.8649 1.48995 0.513639 0
M  V30 424 C 44.0899 1.61792 1.29762 0
M  V30 425 C 44.5149 0.284475 1.85936 0
M  V30 426 O 43.8729 -0.746185 1.65232 0
M  V30 427 C 43.9209 2.67993 2.41272 0
M  V30 428 O 43.0249 2.26287 3.44772 0
M  V30 429 H 42.3659 0.541963 0.38363 0
M  V30 430 H 44.8959 1.95097 0.616307 0
M  V30 431 H 44.9059 2.89772 2.87221 0
M  V30 432 H 43.5809 3.64791 1.9975 0
M  V30 433 H 42.1579 2.14788 3.04829 0
M  V30 434 N 44.343 -0.763751 1.37857 0
M  V30 435 C 45.591 -1.51957 1.33243 0
M  V30 436 C 45.912 -1.94835 -0.0801709 0
M  V30 437 O 45.182 -1.66894 -1.02582 0
M  V30 438 H 43.762 -0.563626 0.49024 0
M  V30 439 H 46.424 -0.908504 1.7243 0
M  V30 440 H 45.52 -2.41523 1.97669 0
M  V30 441 N 45.8211 -1.22559 -0.990812 0
M  V30 442 C 47.0691 -1.04933 -1.72724 0
M  V30 443 C 47.3901 0.416158 -1.90508 0
M  V30 444 O 46.6601 1.29918 -1.46622 0
M  V30 445 H 45.2401 -0.385296 -0.639965 0
M  V30 446 H 47.9021 -1.54105 -1.19322 0
M  V30 447 H 46.9981 -1.52886 -2.72089 0
M  V30 448 N 47.2992 1.18797 -1.03562 0
M  V30 449 C 48.5462 1.8865 -0.736023 0
M  V30 450 C 48.8742 1.80041 0.735889 0
M  V30 451 O 48.1292 1.19179 1.55225 0
M  V30 452 C 48.4282 3.38692 -1.14117 0
M  V30 453 C 48.0942 3.67504 -2.6125 0
M  V30 454 C 46.7562 3.75078 -3.01447 0
M  V30 455 C 49.1082 3.80293 -3.56408 0
M  V30 456 C 46.4362 3.92915 -4.35701 0
M  V30 457 C 48.7882 3.99645 -4.90374 0
M  V30 458 C 47.4522 4.05453 -5.30249 0
M  V30 459 H 46.7222 0.690321 -0.26933 0
M  V30 460 H 49.3692 1.40641 -1.29971 0
M  V30 461 H 47.6742 3.88645 -0.496202 0
M  V30 462 H 49.3712 3.91072 -0.886789 0
M  V30 463 H 45.9612 3.62223 -2.29113 0
M  V30 464 H 50.1452 3.73779 -3.26501 0
M  V30 465 H 45.4012 3.95653 -4.66121 0
M  V30 466 H 49.5752 4.08482 -5.64017 0
M  V30 467 H 47.2022 4.19027 -6.34288 0
M  V30 468 N 48.7773 0.814389 1.34928 0
M  V30 469 C 50.0253 0.397636 1.9815 0
M  V30 470 C 50.3463 -1.04069 1.64908 0
M  V30 471 O 49.6163 -1.72121 0.93548 0
M  V30 472 H 48.1963 0.144043 0.732981 0
M  V30 473 H 50.8583 1.04195 1.6471 0
M  V30 474 H 49.9543 0.509688 3.0791 0
M  V30 475 N 50.2554 -1.46986 0.568584 0
M  V30 476 C 51.1874 -2.28233 -0.210337 0
M  V30 477 C 52.2004 -1.37682 -0.868767 0
M  V30 478 O 53.3894 -1.62406 -0.740705 0
M  V30 479 C 50.4894 -3.12293 -1.3163 0
M  V30 480 C 49.6624 -4.30878 -0.7525 0
M  V30 481 C 48.7214 -4.96445 -1.74439 0
M  V30 482 O 47.7474 -5.54482 -1.286 0
M  V30 483 N 48.9494 -4.92171 -3.07812 0
M  V30 484 H 51.7144 -2.95723 0.486648 0
M  V30 485 H 49.2754 -1.56742 0.405409 0
M  V30 486 H 51.2674 -3.53022 -1.97883 0
M  V30 487 H 49.8374 -2.46971 -1.91636 0
M  V30 488 H 49.0574 -3.94104 0.0871128 0
M  V30 489 H 50.3454 -5.07558 -0.35536 0
M  V30 490 H 49.7434 -4.46239 -3.47688 0
M  V30 491 H 48.3004 -5.36884 -3.69592 0
M  V30 492 N 51.7335 -0.305618 -1.54608 0
M  V30 493 C 52.9795 0.302746 -2.00528 0
M  V30 494 C 53.3125 1.53184 -1.19367 0
M  V30 495 O 52.5875 1.92598 -0.271321 0
M  V30 496 C 52.8705 0.654756 -3.54097 0
M  V30 497 C 52.7235 -0.583793 -4.45995 0
M  V30 498 C 54.0425 1.47947 -4.14487 0
M  V30 499 H 51.1615 0.108564 -0.72896 0
M  V30 500 H 53.8035 -0.418634 -1.85331 0
M  V30 501 H 51.9535 1.26935 -3.67178 0
M  V30 502 H 53.6255 -1.22224 -4.44814 0
M  V30 503 H 51.8685 -1.21615 -4.16404 0
M  V30 504 H 52.5395 -0.293287 -5.5122 0
M  V30 505 H 55.0155 0.96013 -4.04871 0
M  V30 506 H 53.8915 1.69454 -5.22088 0
M  V30 507 H 54.1525 2.47011 -3.66658 0
M  V30 508 N 53.2116 1.57565 -0.0334293 0
M  V30 509 C 54.4416 1.95996 0.653398 0
M  V30 510 C 54.8496 0.908749 1.65947 0
M  V30 511 O 54.1926 -0.117471 1.83324 0
M  V30 512 C 54.2546 3.30589 1.41249 0
M  V30 513 C 53.9186 4.53503 0.564263 0
M  V30 514 C 54.9156 5.19647 -0.16225 0
M  V30 515 C 52.6006 4.99801 0.500398 0
M  V30 516 C 54.5946 6.30412 -0.941255 0
M  V30 517 C 52.2816 6.10448 -0.282308 0
M  V30 518 C 53.2796 6.75612 -1.00184 0
M  V30 519 O 52.9676 7.84134 -1.77171 0
M  V30 520 H 52.6996 0.65027 0.184728 0
M  V30 521 H 55.2536 2.05199 -0.0907841 0
M  V30 522 H 53.4836 3.17888 2.20191 0
M  V30 523 H 55.1726 3.53892 1.98784 0
M  V30 524 H 55.9386 4.84846 -0.12227 0
M  V30 525 H 51.8176 4.48883 1.05002 0
M  V30 526 H 55.3616 6.81208 -1.50339 0
M  V30 527 H 51.2586 6.44686 -0.323989 0
M  V30 528 H 52.0266 8.00822 -1.69194 0
M  V30 529 N 54.6897 -0.239769 1.55765 0
M  V30 530 C 55.6367 -1.29696 1.90913 0
M  V30 531 C 56.6067 -1.47478 0.764164 0
M  V30 532 O 57.7917 -1.61345 1.01845 0
M  V30 533 C 54.9317 -2.64598 2.21544 0
M  V30 534 C 54.0447 -2.54765 3.48882 0
M  V30 535 C 53.1797 -3.82069 3.69049 0
M  V30 536 C 52.2187 -3.66883 4.89963 0
M  V30 537 N 51.3557 -4.86094 5.06614 0
M  V30 538 H 56.1957 -0.990224 2.81067 0
M  V30 539 H 53.7327 -0.477684 1.39128 0
M  V30 540 H 55.6907 -3.43132 2.3731 0
M  V30 541 H 54.3207 -2.93405 1.34585 0
M  V30 542 H 53.3727 -1.67763 3.41409 0
M  V30 543 H 54.6847 -2.39457 4.37563 0
M  V30 544 H 53.8387 -4.69046 3.84812 0
M  V30 545 H 52.5777 -4.00282 2.78614 0
M  V30 546 H 51.5827 -2.78289 4.74168 0
M  V30 547 H 52.8077 -3.50157 5.81865 0
M  V30 548 H 50.7537 -5.04655 4.19117 0
M  V30 549 H 50.6707 -4.73443 5.89396 0
M  V30 550 H 51.9387 -5.74549 5.26795 0
M  V30 551 N 56.1678 -1.49265 -0.50573 0
M  V30 552 C 57.4138 -1.58748 -1.26202 0
M  V30 553 C 57.7468 -0.271227 -1.92297 0
M  V30 554 O 57.0218 0.724831 -1.80489 0
M  V30 555 C 57.3048 -2.74332 -2.33268 0
M  V30 556 C 57.1578 -4.15737 -1.71705 0
M  V30 557 C 58.4768 -2.85576 -3.34865 0
M  V30 558 H 55.5958 -0.577826 -0.457478 0
M  V30 559 H 58.2378 -1.81532 -0.560897 0
M  V30 560 H 56.3878 -2.55036 -2.93068 0
M  V30 561 H 58.0598 -4.46537 -1.15769 0
M  V30 562 H 56.3028 -4.21605 -1.02135 0
M  V30 563 H 56.9738 -4.92477 -2.49341 0
M  V30 564 H 59.4498 -3.03127 -2.8505 0
M  V30 565 H 58.3258 -3.68135 -4.07146 0
M  V30 566 H 58.5868 -1.94732 -3.96903 0
M  V30 567 N 57.6459 0.756429 -1.3826 0
M  V30 568 C 59.0619 1.0591 -1.19395 0
M  V30 569 C 59.2619 2.01459 -0.0406567 0
M  V30 570 O 58.3179 2.44909 0.614467 0
M  V30 571 C 59.6309 1.64191 -2.51916 0
M  V30 572 C 61.1789 1.76376 -2.58574 0
M  V30 573 C 61.6539 2.38069 -3.91264 0
M  V30 574 N 63.1449 2.45503 -3.92788 0
M  V30 575 C 63.8799 2.94126 -4.92217 0
M  V30 576 N 63.3759 3.42805 -6.02043 0
M  V30 577 N 65.1689 2.9314 -4.7961 0
M  V30 578 H 57.3199 0.122313 -2.12048 0
M  V30 579 H 59.5829 0.116892 -0.940766 0
M  V30 580 H 59.2889 1.01451 -3.3675 0
M  V30 581 H 59.1629 2.6329 -2.70108 0
M  V30 582 H 61.5499 2.38244 -1.74137 0
M  V30 583 H 61.6309 0.759894 -2.44252 0
M  V30 584 H 61.2749 1.76835 -4.76121 0
M  V30 585 H 61.2049 3.39091 -4.02895 0
M  V30 586 H 63.6959 2.1107 -3.13461 0
M  V30 587 H 64.0089 3.78354 -6.73846 0
M  V30 588 H 62.3539 3.4087 -6.05667 0
M  V30 589 H 65.5449 2.54419 -3.92923 0
M  V30 590 H 65.7179 3.30721 -5.5725 0
M  V30 591 N 59.124 1.23083 0.984299 0
M  V30 592 C 60.074 0.975749 2.06066 0
M  V30 593 C 61.058 -0.0768251 1.60716 0
M  V30 594 O 62.25 0.134805 1.76486 0
M  V30 595 C 59.379 0.564673 3.38624 0
M  V30 596 C 58.465 1.65244 3.90583 0
M  V30 597 N 58.856 2.88193 4.15666 0
M  V30 598 C 57.154 1.52612 4.19077 0
M  V30 599 C 57.855 3.58593 4.58024 0
M  V30 600 N 56.831 2.86093 4.62225 0
M  V30 601 H 60.633 1.90957 2.23411 0
M  V30 602 H 58.147 1.12963 1.16675 0
M  V30 603 H 60.144 0.36322 4.15315 0
M  V30 604 H 58.804 -0.362147 3.22674 0
M  V30 605 H 59.815 3.24537 4.03604 0
M  V30 606 H 56.492 0.666121 4.12152 0
M  V30 607 H 57.882 4.63974 4.85982 0
M  V30 608 N 60.6021 -1.18246 1.0419 0
M  V30 609 C 61.8481 -1.88536 0.747122 0
M  V30 610 C 62.1811 -1.80223 -0.723409 0
M  V30 611 O 61.4561 -1.20337 -1.52804 0
M  V30 612 C 61.7391 -3.38968 1.21544 0
M  V30 613 C 61.5921 -3.56084 2.74816 0
M  V30 614 C 62.9111 -4.32648 0.806482 0
M  V30 615 H 60.0301 -0.684619 0.272883 0
M  V30 616 H 62.6721 -1.39113 1.29413 0
M  V30 617 H 60.8221 -3.8119 0.750081 0
M  V30 618 H 62.4941 -3.22946 3.29399 0
M  V30 619 H 60.7371 -2.98699 3.14582 0
M  V30 620 H 61.4081 -4.61639 3.02644 0
M  V30 621 H 63.8841 -3.98211 1.20695 0
M  V30 622 H 62.7601 -5.36462 1.1619 0
M  V30 623 H 63.0211 -4.41146 -0.29029 0
M  V30 624 N 62.0802 -0.821533 -1.34494 0
M  V30 625 C 63.0302 -0.214793 -2.26986 0
M  V30 626 C 64.0142 0.620125 -1.4847 0
M  V30 627 O 65.2062 0.474933 -1.70509 0
M  V30 628 C 62.3352 0.623566 -3.37589 0
M  V30 629 C 61.4212 -0.221904 -4.23519 0
M  V30 630 N 61.8122 -1.29223 -4.89014 0
M  V30 631 C 60.1102 -0.00600922 -4.46 0
M  V30 632 C 60.8112 -1.80965 -5.52835 0
M  V30 633 N 59.7872 -1.11376 -5.32068 0
M  V30 634 H 63.5892 -1.03354 -2.75128 0
M  V30 635 H 61.1032 -0.6642 -1.48196 0
M  V30 636 H 63.1002 1.0744 -4.02818 0
M  V30 637 H 61.7602 1.44049 -2.90998 0
M  V30 638 H 62.7712 -1.67502 -4.90065 0
M  V30 639 H 59.4482 0.77886 -4.10171 0
M  V30 640 H 60.8382 -2.70502 -6.15043 0
M  V30 641 N 63.5583 1.46682 -0.576371 0
M  V30 642 C 64.8043 2.03287 -0.0679305 0
M  V30 643 C 65.1593 1.44063 1.27529 0
M  V30 644 O 64.4523 0.593973 1.82161 0
M  V30 645 C 64.6463 3.57345 0.062886 0
M  V30 646 C 64.4753 4.31509 -1.26611 0
M  V30 647 C 63.2453 4.70664 -1.83856 0
M  V30 648 C 65.4433 4.65444 -2.18783 0
M  V30 649 N 63.4253 5.29552 -3.10561 0
M  V30 650 C 64.7963 5.24835 -3.30072 0
M  V30 651 C 66.8513 4.47375 -2.18542 0
M  V30 652 C 65.5543 5.68063 -4.41244 0
M  V30 653 C 67.5803 4.91614 -3.28739 0
M  V30 654 C 66.9423 5.51071 -4.38748 0
M  V30 655 H 63.0413 0.779083 -0.0674836 0
M  V30 656 H 65.6253 1.78918 -0.767877 0
M  V30 657 H 63.7963 3.8144 0.731988 0
M  V30 658 H 65.5283 4.00592 0.575134 0
M  V30 659 H 62.2833 4.53224 -1.37424 0
M  V30 660 H 62.7073 5.63523 -3.75195 0
M  V30 661 H 67.3493 4.00747 -1.34765 0
M  V30 662 H 65.0673 6.13672 -5.25768 0
M  V30 663 H 68.6533 4.79389 -3.29662 0
M  V30 664 H 67.5333 5.84678 -5.22611 0
M  V30 665 N 65.0364 0.313813 1.54444 0
M  V30 666 C 65.9834 -0.55655 2.23989 0
M  V30 667 C 66.9534 -1.11943 1.22711 0
M  V30 668 O 68.1384 -1.16158 1.51367 0
M  V30 669 C 65.2784 -1.71635 2.99392 0
M  V30 670 C 64.3914 -1.18364 4.15468 0
M  V30 671 C 63.5264 -2.30834 4.78424 0
M  V30 672 C 62.5654 -1.74762 5.86622 0
M  V30 673 N 61.7024 -2.80855 6.43479 0
M  V30 674 H 66.5424 0.0430893 2.97969 0
M  V30 675 H 64.0794 0.0330359 1.47063 0
M  V30 676 H 66.0374 -2.39868 3.41349 0
M  V30 677 H 64.6674 -2.28742 2.27765 0
M  V30 678 H 63.7194 -0.393163 3.78363 0
M  V30 679 H 65.0314 -0.733262 4.93381 0
M  V30 680 H 64.1854 -3.0699 5.23299 0
M  V30 681 H 62.9244 -2.79204 3.99871 0
M  V30 682 H 61.9294 -0.970995 5.41158 0
M  V30 683 H 63.1544 -1.2728 6.67066 0
M  V30 684 H 61.1004 -3.28535 5.67804 0
M  V30 685 H 61.0174 -2.40351 7.16776 0
M  V30 686 H 62.2854 -3.5687 6.93011 0
M  V30 687 N 66.5145 -1.57545 0.0417849 0
M  V30 688 C 67.7425 -1.96624 -0.643928 0
M  V30 689 C 68.1575 -0.918897 -1.64929 0
M  V30 690 O 67.5145 0.0979323 -1.82237 0
M  V30 691 C 67.5655 -3.35781 -1.33914 0
M  V30 692 O 67.2865 -4.365 -0.374048 0
M  V30 693 C 68.7875 -3.89566 -2.1155 0
M  V30 694 H 66.0075 -0.647316 -0.176702 0
M  V30 695 H 68.5515 -2.04229 0.105304 0
M  V30 696 H 66.7065 -3.29357 -2.03968 0
M  V30 697 H 67.1205 -5.17248 -0.869179 0
M  V30 698 H 68.5945 -4.89242 -2.55628 0
M  V30 699 H 69.0715 -3.24488 -2.9598 0
M  V30 700 H 69.6775 -3.99298 -1.46427 0
M  V30 701 N 67.9926 0.231505 -1.5589 0
M  V30 702 C 69.2386 0.954429 -1.79617 0
M  V30 703 C 69.5936 1.82367 -0.613199 0
M  V30 704 O 68.8866 1.87524 0.393094 0
M  V30 705 C 69.0806 1.83577 -3.0665 0
M  V30 706 C 68.9096 1.05334 -4.3719 0
M  V30 707 C 67.6796 0.75225 -4.99669 0
M  V30 708 C 69.8776 0.423444 -5.12554 0
M  V30 709 N 67.8596 -0.052627 -6.13877 0
M  V30 710 C 69.2306 -0.245287 -6.19515 0
M  V30 711 C 71.2856 0.335466 -4.96769 0
M  V30 712 C 69.9886 -0.993566 -7.12405 0
M  V30 713 C 72.0146 -0.399321 -5.9005 0
M  V30 714 C 71.3766 -1.05663 -6.9643 0
M  V30 715 H 67.4756 0.329846 -0.709031 0
M  V30 716 H 70.0596 0.226172 -1.93382 0
M  V30 717 H 68.2306 2.53592 -2.94186 0
M  V30 718 H 69.9626 2.49541 -3.18608 0
M  V30 719 H 66.7176 1.06783 -4.61405 0
M  V30 720 H 67.1416 -0.443609 -6.75545 0
M  V30 721 H 71.7836 0.829311 -4.14587 0
M  V30 722 H 69.5016 -1.49896 -7.94076 0
M  V30 723 H 73.0876 -0.468265 -5.79913 0
M  V30 724 H 71.9676 -1.61612 -7.67366 0
M  V30 725 N 69.4707 1.49531 0.497807 0
M  V30 726 C 70.4007 1.6935 1.60757 0
M  V30 727 C 71.3817 0.542218 1.61227 0
M  V30 728 O 72.5667 0.778417 1.77917 0
M  V30 729 C 69.6967 1.76298 2.99226 0
M  V30 730 C 68.6507 2.91248 3.13622 0
M  V30 731 C 67.9767 2.83312 4.53474 0
M  V30 732 C 69.2767 4.3214 2.93346 0
M  V30 733 H 70.9707 2.62263 1.44425 0
M  V30 734 H 68.5167 1.26208 0.693367 0
M  V30 735 H 70.4697 1.88749 3.76765 0
M  V30 736 H 69.1937 0.799871 3.16654 0
M  V30 737 H 67.8527 2.78404 2.38509 0
M  V30 738 H 67.5007 1.84902 4.67782 0
M  V30 739 H 67.2007 3.60465 4.64046 0
M  V30 740 H 68.7247 2.97775 5.33069 0
M  V30 741 H 70.1387 4.45649 3.60652 0
M  V30 742 H 68.5357 5.1054 3.15387 0
M  V30 743 H 69.6057 4.46363 1.89441 0
M  V30 744 N 70.9488 -0.749086 1.3866 0
M  V30 745 C 71.9118 -1.84457 1.36045 0
M  V30 746 C 72.9118 -1.58682 0.260122 0
M  V30 747 O 74.1018 -1.66343 0.517261 0
M  V30 748 C 71.2338 -3.22008 1.11911 0
M  V30 749 H 72.4268 -1.88182 2.33512 0
M  V30 750 H 69.9798 -0.951266 1.24019 0
M  V30 751 H 70.7148 -3.2395 0.150686 0
M  V30 752 H 70.4998 -3.42111 1.91579 0
M  V30 753 H 71.9898 -4.0208 1.12788 0
M  V30 754 N 72.4269 -1.23603 -0.977757 0
M  V30 755 C 73.6759 -1.06377 -1.71368 0
M  V30 756 C 73.9889 0.399062 -1.91486 0
M  V30 757 O 75.1949 0.691312 -2.62551 0
M  V30 758 C 73.6509 -1.85512 -3.08404 0
M  V30 759 C 73.2589 -3.36141 -2.96164 0
M  V30 760 C 75.0029 -1.76783 -3.85938 0
M  V30 761 C 72.9099 -4.07659 -4.28449 0
M  V30 762 H 71.8399 -0.394452 -0.642591 0
M  V30 763 H 74.4909 -1.47594 -1.09034 0
M  V30 764 H 72.8729 -1.37103 -3.71509 0
M  V30 765 H 74.0469 -3.92056 -2.42133 0
M  V30 766 H 72.3619 -3.45712 -2.32104 0
M  V30 767 H 74.9589 -2.27526 -4.83876 0
M  V30 768 H 75.3019 -0.731116 -4.0983 0
M  V30 769 H 75.8349 -2.22818 -3.2954 0
M  V30 770 H 72.5739 -5.11648 -4.09752 0
M  V30 771 H 72.0939 -3.5653 -4.82334 0
M  V30 772 H 73.7729 -4.141 -4.97122 0
M  V30 773 N 73.905 1.17692 -1.04816 0
M  V30 774 C 74.852 2.21581 -0.645797 0
M  V30 775 C 75.822 1.62367 0.350159 0
M  V30 776 O 77.007 1.89254 0.242433 0
M  V30 777 C 74.147 3.45092 -0.0227568 0
M  V30 778 C 73.26 4.18613 -1.06709 0
M  V30 779 C 72.395 5.29602 -0.411767 0
M  V30 780 C 71.434 5.94904 -1.44067 0
M  V30 781 N 70.571 6.97414 -0.809781 0
M  V30 782 H 75.411 2.55353 -1.5362 0
M  V30 783 H 72.948 1.25438 -0.768364 0
M  V30 784 H 74.906 4.15679 0.35588 0
M  V30 785 H 73.536 3.11917 0.831122 0
M  V30 786 H 72.588 3.46779 -1.5636 0
M  V30 787 H 73.9 4.63293 -1.84827 0
M  V30 788 H 73.054 6.06696 0.0206623 0
M  V30 789 H 71.793 4.86045 0.401438 0
M  V30 790 H 70.798 5.16544 -1.88316 0
M  V30 791 H 72.023 6.40542 -2.25571 0
M  V30 792 H 69.969 6.55998 -0.0170186 0
M  V30 793 H 69.886 7.40386 -1.52856 0
M  V30 794 H 71.154 7.78463 -0.401999 0
M  V30 795 N 75.3831 0.828654 1.34056 0
M  V30 796 C 76.6231 0.425394 1.99924 0
M  V30 797 C 76.9871 -0.994294 1.64249 0
M  V30 798 O 78.1881 -1.50074 2.23005 0
M  V30 799 C 76.4591 0.628071 3.51838 0
M  V30 800 S 78.0181 0.318511 4.37642 0
M  V30 801 H 74.8361 0.160465 0.692656 0
M  V30 802 H 77.4381 1.07572 1.63244 0
M  V30 803 H 76.1421 1.66089 3.7529 0
M  V30 804 H 75.6731 -0.0367799 3.93383 0
M  V30 805 H 77.6881 -0.865632 4.88591 0
M  V30 806 N 76.8612 -1.46375 0.584142 0
M  V30 807 C 78.0862 -2.07268 0.0740405 0
M  V30 808 C 78.5112 -1.42979 -1.22223 0
M  V30 809 O 77.8692 -0.514092 -1.73859 0
M  V30 810 C 77.9172 -3.60518 -0.0767769 0
M  V30 811 O 77.0212 -3.96533 -1.13292 0
M  V30 812 H 76.3622 -0.660961 0.0634524 0
M  V30 813 H 78.8922 -1.87991 0.807492 0
M  V30 814 H 78.9022 -4.07021 -0.282489 0
M  V30 815 H 77.5772 -4.06702 0.86986 0
M  V30 816 H 76.1542 -3.61738 -0.905553 0
M  V30 817 N 78.3393 -0.321999 -1.54275 0
M  V30 818 C 79.7503 0.166384 -1.85957 0
M  V30 819 C 80.1013 1.51747 -1.24367 0
M  V30 820 O 79.2263 2.09317 -0.549124 0
M  V30 821 C 79.8213 0.308681 -3.37391 0
M  V30 822 C 78.3803 0.741286 -3.69028 0
M  V30 823 C 77.5273 -0.137937 -2.76957 0
M  V30 824 H 80.4783 -0.542335 -1.49146 0
M  V30 825 H 80.4993 1.13984 -3.63026 0
M  V30 826 H 80.0113 -0.674809 -3.82188 0
M  V30 827 H 78.1123 1.73458 -3.29762 0
M  V30 828 H 78.2253 0.546118 -4.75977 0
M  V30 829 H 76.5893 0.386251 -2.51754 0
M  V30 830 H 77.3723 -1.11816 -3.2458 0
M  V30 831 N 79.8174 1.5752 -0.0501392 0
M  V30 832 C 81.0424 1.97376 0.636997 0
M  V30 833 C 81.4674 0.927466 1.63645 0
M  V30 834 O 80.8254 -0.10941 1.8097 0
M  V30 835 C 80.8734 3.36304 1.30123 0
M  V30 836 O 79.9774 3.34156 2.41689 0
M  V30 837 H 79.3184 0.642998 0.165679 0
M  V30 838 H 81.8484 2.04258 -0.118233 0
M  V30 839 H 81.8584 3.73008 1.65315 0
M  V30 840 H 80.5334 4.11993 0.568746 0
M  V30 841 H 79.1104 3.09196 2.08451 0
M  V30 842 N 81.2955 -0.223234 1.56011 0
M  V30 843 C 82.2255 -1.27988 1.95298 0
M  V30 844 C 83.2065 -1.48976 0.820979 0
M  V30 845 O 84.3915 -1.61188 1.08315 0
M  V30 846 C 81.5215 -2.63 2.26822 0
M  V30 847 C 80.4755 -2.56671 3.42497 0
M  V30 848 C 79.8015 -3.95697 3.59622 0
M  V30 849 C 81.1015 -2.11601 4.77517 0
M  V30 850 H 82.7955 -0.953525 2.8381 0
M  V30 851 H 80.3415 -0.457244 1.36548 0
M  V30 852 H 82.2945 -3.37077 2.52898 0
M  V30 853 H 81.0185 -2.9732 1.35161 0
M  V30 854 H 79.6775 -1.85051 3.16467 0
M  V30 855 H 79.3255 -4.27322 2.6534 0
M  V30 856 H 79.0255 -3.92345 4.37424 0
M  V30 857 H 80.5495 -4.71438 3.88044 0
M  V30 858 H 81.9635 -2.7542 5.02809 0
M  V30 859 H 80.3605 -2.19311 5.5859 0
M  V30 860 H 81.4305 -1.06824 4.72987 0
M  V30 861 N 82.7736 -1.49793 -0.48987 0
M  V30 862 C 83.7236 -1.63673 -1.5873 0
M  V30 863 C 84.7076 -0.491956 -1.53195 0
M  V30 864 O 85.8996 -0.745461 -1.60536 0
M  V30 865 C 83.0286 -1.71689 -2.97284 0
M  V30 866 C 82.1146 -2.91781 -3.07774 0
M  V30 867 N 82.5056 -4.15714 -2.88124 0
M  V30 868 C 80.8036 -2.89949 -3.38889 0
M  V30 869 C 81.5046 -4.965 -3.03088 0
M  V30 870 N 80.4806 -4.30083 -3.3246 0
M  V30 871 H 84.2826 -2.57204 -1.42208 0
M  V30 872 H 81.7966 -1.46719 -0.69623 0
M  V30 873 H 83.7936 -1.79732 -3.76168 0
M  V30 874 H 82.4536 -0.793024 -3.14867 0
M  V30 875 H 83.4646 -4.45515 -2.64077 0
M  V30 876 H 80.1416 -2.06987 -3.62578 0
M  V30 877 H 81.5316 -6.04991 -2.92294 0
M  V30 878 N 84.2517 0.741722 -1.39055 0
M  V30 879 C 85.4977 1.50336 -1.36113 0
M  V30 880 C 85.8307 1.94148 0.0450796 0
M  V30 881 O 85.1057 1.66301 1.00868 0
M  V30 882 C 85.3887 2.74773 -2.32749 0
M  V30 883 C 85.2417 2.37023 -3.82283 0
M  V30 884 C 86.5607 3.76846 -2.27322 0
M  V30 885 H 83.6797 0.545351 -0.495743 0
M  V30 886 H 86.3217 0.848624 -1.69995 0
M  V30 887 H 84.4717 3.30639 -2.03986 0
M  V30 888 H 86.1437 1.8684 -4.21768 0
M  V30 889 H 84.3867 1.69334 -3.99385 0
M  V30 890 H 85.0577 3.26104 -4.45376 0
M  V30 891 H 87.5337 3.30548 -2.5274 0
M  V30 892 H 86.4097 4.6159 -2.97028 0
M  V30 893 H 86.6707 4.23286 -1.27599 0
M  V30 894 N 85.7298 1.2412 0.971189 0
M  V30 895 C 87.0068 0.986867 1.6888 0
M  V30 896 C 87.3868 -0.491857 2.0529 0
M  V30 897 O 86.7348 -1.46531 1.75331 0
M  V30 898 C 86.9448 1.9063 2.92338 0
M  V30 899 C 88.2928 2.17515 3.64654 0
M  V30 900 O 89.3168 1.88254 3.02388 0
M  V30 901 O 88.1758 2.6719 4.7673 0
M  V30 902 H 85.2698 0.372944 0.738134 0
M  V30 903 H 87.8158 1.35203 1.02559 0
M  V30 904 H 86.5878 2.90552 2.62097 0
M  V30 905 H 86.2108 1.54408 3.66393 0
M  V30 906 N 87.2079 -1.17134 1.05439 0
M  V30 907 C 88.4849 -1.83411 0.679699 0
M  V30 908 C 88.8649 -1.9368 -0.839726 0
M  V30 909 O 88.2129 -1.47325 -1.74664 0
M  V30 910 C 88.4229 -3.20918 1.37159 0
M  V30 911 C 89.7709 -3.96796 1.51123 0
M  V30 912 O 90.7949 -3.30406 1.3308 0
M  V30 913 O 89.6539 -5.15778 1.80651 0
M  V30 914 H 86.7479 -0.79154 0.239569 0
M  V30 915 H 89.2939 -1.24411 1.15413 0
M  V30 916 H 88.0659 -3.08428 2.40807 0
M  V30 917 H 87.6889 -3.87587 0.886674 0
M  V30 918 N 88.686 -0.835752 -1.33615 0
M  V30 919 C 90.102 -0.523139 -1.50783 0
M  V30 920 C 90.302 0.950171 -1.77691 0
M  V30 921 O 89.358 1.73411 -1.83534 0
M  V30 922 C 90.671 -1.39378 -2.66448 0
M  V30 923 C 92.219 -1.39223 -2.80332 0
M  V30 924 C 92.694 -2.24765 -3.99055 0
M  V30 925 N 94.185 -2.22458 -4.06284 0
M  V30 926 C 94.92 -2.85386 -4.97336 0
M  V30 927 N 94.416 -3.57354 -5.93523 0
M  V30 928 N 96.209 -2.74872 -4.90308 0
M  V30 929 H 88.36 -1.78952 -1.14411 0
M  V30 930 H 90.623 -0.763297 -0.562212 0
M  V30 931 H 90.329 -2.44061 -2.53234 0
M  V30 932 H 90.203 -1.0676 -3.61776 0
M  V30 933 H 92.59 -0.353136 -2.92979 0
M  V30 934 H 92.671 -1.75846 -1.85773 0
M  V30 935 H 92.315 -3.28732 -3.87167 0
M  V30 936 H 92.245 -1.85485 -4.92852 0
M  V30 937 H 94.736 -1.70119 -3.37443 0
M  V30 938 H 95.049 -4.02584 -6.59656 0
M  V30 939 H 93.394 -3.61461 -5.93608 0
M  V30 940 H 96.585 -2.18213 -4.14126 0
M  V30 941 H 96.758 -3.24199 -5.61069 0
M  V30 942 N 90.1641 1.46063 -0.591896 0
M  V30 943 C 91.0741 2.34192 0.13831 0
M  V30 944 C 92.0901 1.50305 0.876608 0
M  V30 945 O 93.2661 1.8315 0.837728 0
M  V30 946 C 90.3311 3.27656 1.13326 0
M  V30 947 C 89.3921 4.27445 0.39863 0
M  V30 948 C 88.6251 5.16443 1.34618 0
M  V30 949 O 88.8481 5.08553 2.58321 0
M  V30 950 O 87.7821 5.95843 0.851768 0
M  V30 951 H 91.6081 2.98002 -0.58552 0
M  V30 952 H 89.1931 1.45188 -0.352239 0
M  V30 953 H 91.0751 3.85291 1.70671 0
M  V30 954 H 89.7501 2.6643 1.83839 0
M  V30 955 H 88.6571 3.73471 -0.216895 0
M  V30 956 H 89.9901 4.91482 -0.265709 0
M  V30 957 N 91.6422 0.330177 1.54103 0
M  V30 958 C 93.0582 -0.0222371 1.59585 0
M  V30 959 C 93.2582 -1.49902 1.34654 0
M  V30 960 O 92.3142 -2.25592 1.13421 0
M  V30 961 C 93.6272 0.401932 2.98002 0
M  V30 962 C 95.1752 0.353145 3.11001 0
M  V30 963 C 95.6502 0.752576 4.51775 0
M  V30 964 N 97.1412 0.706239 4.57784 0
M  V30 965 C 97.8762 0.987417 5.64834 0
M  V30 966 N 97.3722 1.33607 6.79795 0
M  V30 967 N 99.1652 0.91254 5.54643 0
M  V30 968 H 91.3162 1.29228 1.68564 0
M  V30 969 H 93.5792 0.525906 0.78875 0
M  V30 970 H 93.2852 1.4311 3.21267 0
M  V30 971 H 93.1592 -0.229699 3.765 0
M  V30 972 H 95.5462 -0.666822 2.87467 0
M  V30 973 H 95.6272 1.0198 2.34593 0
M  V30 974 H 95.2712 1.77049 4.76042 0
M  V30 975 H 95.2012 0.0635409 5.26562 0
M  V30 976 H 97.6922 0.44889 3.75224 0
M  V30 977 H 98.0052 1.53582 7.57385 0
M  V30 978 H 96.3502 1.37439 6.81275 0
M  V30 979 H 99.5412 0.639601 4.6371 0
M  V30 980 H 99.7142 1.13503 6.37982 0
M  V30 981 N 93.1203 -1.57491 0.0584922 0
M  V30 982 C 94.0533 -2.07533 -0.948969 0
M  V30 983 C 95.0313 -0.977444 -1.29942 0
M  V30 984 O 96.2153 -1.2499 -1.41102 0
M  V30 985 C 93.3423 -2.52192 -2.2609 0
M  V30 986 C 92.3883 -3.73287 -2.06298 0
M  V30 987 S 93.2213 -5.18603 -1.33459 0
M  V30 988 C 94.3773 -5.66583 -2.65959 0
M  V30 989 H 94.6103 -2.92662 -0.523118 0
M  V30 990 H 92.1433 -1.53631 -0.153954 0
M  V30 991 H 94.1013 -2.78585 -3.01498 0
M  V30 992 H 92.7623 -1.67356 -2.65802 0
M  V30 993 H 91.9553 -4.0248 -3.03357 0
M  V30 994 H 91.5573 -3.47199 -1.39029 0
M  V30 995 H 93.8493 -5.72616 -3.62101 0
M  V30 996 H 94.7923 -6.65684 -2.41393 0
M  V30 997 H 95.2003 -4.94342 -2.72554 0
M  V30 998 N 94.5984 0.214957 -1.56127 0
M  V30 999 C 95.5084 1.28727 -1.96129 0
M  V30 1000 C 96.5244 1.50916 -0.866044 0
M  V30 1001 O 97.7004 1.63918 -1.17016 0
M  V30 1002 C 94.7654 2.61569 -2.27558 0
M  V30 1003 C 93.8264 2.47625 -3.50685 0
M  V30 1004 C 93.0594 3.74132 -3.80606 0
M  V30 1005 O 93.2824 4.77438 -3.12104 0
M  V30 1006 O 92.2164 3.70849 -4.74083 0
M  V30 1007 H 96.0424 0.977855 -2.87527 0
M  V30 1008 H 93.6274 0.418358 -1.43423 0
M  V30 1009 H 95.5094 3.40012 -2.48938 0
M  V30 1010 H 94.1844 2.92178 -1.39332 0
M  V30 1011 H 93.0914 1.67361 -3.34576 0
M  V30 1012 H 94.4244 2.21954 -4.39315 0
M  V30 1013 N 96.0765 1.50051 0.48192 0
M  V30 1014 C 97.0065 1.71046 1.58951 0
M  V30 1015 C 97.9875 0.559288 1.60642 0
M  V30 1016 O 99.1725 0.797243 1.77081 0
M  V30 1017 C 96.3025 1.79462 2.97339 0
M  V30 1018 C 95.2565 2.94558 3.10515 0
M  V30 1019 C 94.5825 2.88105 4.50444 0
M  V30 1020 C 95.8825 4.35227 2.88747 0
M  V30 1021 H 97.5765 2.6378 1.41635 0
M  V30 1022 H 95.1225 1.26936 0.679942 0
M  V30 1023 H 97.0755 1.92734 3.74742 0
M  V30 1024 H 95.7995 0.833412 3.15788 0
M  V30 1025 H 94.4585 2.80918 2.35543 0
M  V30 1026 H 94.1065 1.89853 4.65795 0
M  V30 1027 H 93.8065 3.65366 4.60197 0
M  V30 1028 H 95.3305 3.03412 5.29881 0
M  V30 1029 H 96.7445 4.49449 3.55905 0
M  V30 1030 H 95.1415 5.13856 3.09955 0
M  V30 1031 H 96.2115 4.48347 1.84696 0
M  V30 1032 N 97.5546 -0.734337 1.39446 0
M  V30 1033 C 98.4846 -1.86155 1.40955 0
M  V30 1034 C 99.4656 -1.67898 0.272827 0
M  V30 1035 O 100.651 -1.88207 0.478743 0
M  V30 1036 C 97.7806 -3.23912 1.25294 0
M  V30 1037 C 96.7346 -3.56808 2.36373 0
M  V30 1038 C 96.0606 -4.93508 2.058 0
M  V30 1039 C 97.3606 -3.59713 3.78687 0
M  V30 1040 H 99.0546 -1.8515 2.35287 0
M  V30 1041 H 96.6006 -0.889367 1.13253 0
M  V30 1042 H 98.5536 -4.02443 1.2497 0
M  V30 1043 H 97.2776 -3.25446 0.274308 0
M  V30 1044 H 95.9366 -2.80606 2.35914 0
M  V30 1045 H 95.5846 -4.91623 1.06374 0
M  V30 1046 H 95.2846 -5.16486 2.80208 0
M  V30 1047 H 96.8086 -5.74396 2.07128 0
M  V30 1048 H 98.2226 -4.2832 3.81071 0
M  V30 1049 H 96.6196 -3.94209 4.52459 0
M  V30 1050 H 97.6896 -2.59504 4.09617 0
M  V30 1051 N 99.0327 -1.24633 -0.964593 0
M  V30 1052 C 99.9427 -1.05859 -2.09359 0
M  V30 1053 C 100.959 0.00148855 -1.74 0
M  V30 1054 O 102.135 -0.197346 -2.00431 0
M  V30 1055 C 99.1997 -0.668879 -3.40187 0
M  V30 1056 C 98.2607 -1.80578 -3.89474 0
M  V30 1057 C 97.4937 -1.43457 -5.14058 0
M  V30 1058 O 97.7167 -0.325775 -5.69469 0
M  V30 1059 O 96.6507 -2.2613 -5.57807 0
M  V30 1060 H 100.477 -2.00516 -2.28094 0
M  V30 1061 H 98.0617 -1.03481 -1.0776 0
M  V30 1062 H 99.9437 -0.463211 -4.18846 0
M  V30 1063 H 98.6187 0.248536 -3.22744 0
M  V30 1064 H 97.5257 -2.06623 -3.11862 0
M  V30 1065 H 98.8587 -2.70208 -4.11398 0
M  V30 1066 N 100.511 1.16574 -1.06058 0
M  V30 1067 C 101.421 2.2452 -0.680282 0
M  V30 1068 C 102.437 1.71348 0.302604 0
M  V30 1069 O 103.613 2.00822 0.152513 0
M  V30 1070 C 100.678 3.46629 -0.0700315 0
M  V30 1071 C 99.7388 4.14849 -1.10448 0
M  V30 1072 C 98.9718 5.31129 -0.523256 0
M  V30 1073 O 99.1948 5.66514 0.664709 0
M  V30 1074 O 98.1288 5.88526 -1.26179 0
M  V30 1075 H 101.955 2.59355 -1.58015 0
M  V30 1076 H 99.5398 1.24043 -0.832694 0
M  V30 1077 H 101.422 4.20543 0.268667 0
M  V30 1078 H 100.097 3.13573 0.803353 0
M  V30 1079 H 99.0038 3.42916 -1.49532 0
M  V30 1080 H 100.337 4.51954 -1.94931 0
M  V30 1081 N 101.989 0.842826 1.3317 0
M  V30 1082 C 102.952 0.284065 2.27433 0
M  V30 1083 C 103.952 -0.54948 1.5112 0
M  V30 1084 O 105.142 -0.362699 1.70382 0
M  V30 1085 C 102.274 -0.599384 3.35589 0
M  V30 1086 H 103.467 1.11589 2.78366 0
M  V30 1087 H 101.02 0.616221 1.4364 0
M  V30 1088 H 101.755 -1.45349 2.89904 0
M  V30 1089 H 101.54 -0.00291266 3.921 0
M  V30 1090 H 103.03 -0.983488 4.05854 0
M  V30 1091 N 103.467 -1.45747 0.599634 0
M  V30 1092 C 104.414 -2.30467 -0.123849 0
M  V30 1093 C 105.384 -1.41632 -0.86774 0
M  V30 1094 O 106.569 -1.70568 -0.855056 0
M  V30 1095 C 103.709 -3.26402 -1.12051 0
M  V30 1096 C 102.822 -4.3034 -0.37832 0
M  V30 1097 C 101.957 -5.13389 -1.364 0
M  V30 1098 C 100.996 -6.09061 -0.609171 0
M  V30 1099 N 100.133 -6.84918 -1.54374 0
M  V30 1100 H 104.973 -2.91802 0.604627 0
M  V30 1101 H 102.51 -1.43797 0.309972 0
M  V30 1102 H 104.468 -3.80482 -1.7114 0
M  V30 1103 H 103.098 -2.66839 -1.8165 0
M  V30 1104 H 102.15 -3.78984 0.327929 0
M  V30 1105 H 103.462 -4.98354 0.210997 0
M  V30 1106 H 102.616 -5.7183 -2.02719 0
M  V30 1107 H 101.355 -4.45376 -1.98725 0
M  V30 1108 H 100.36 -5.49758 0.0676979 0
M  V30 1109 H 101.585 -6.79099 0.00891991 0
M  V30 1110 H 99.531 -6.19601 -2.15478 0
M  V30 1111 H 99.448 -7.49254 -1.00766 0
M  V30 1112 H 100.716 -7.47906 -2.19676 0
M  V30 1113 N 104.945 -0.338344 -1.53925 0
M  V30 1114 C 105.892 0.520845 -2.24846 0
M  V30 1115 C 106.862 1.09976 -1.24477 0
M  V30 1116 O 108.047 1.13735 -1.53196 0
M  V30 1117 C 105.187 1.6685 -3.02084 0
M  V30 1118 C 104.3 1.11739 -4.17299 0
M  V30 1119 C 103.435 2.23193 -4.82036 0
M  V30 1120 C 102.474 1.65407 -5.89328 0
M  V30 1121 N 101.611 2.70582 -6.47866 0
M  V30 1122 H 106.451 -0.0904881 -2.97863 0
M  V30 1123 H 103.988 -0.0564282 -1.46992 0
M  V30 1124 H 105.946 2.34407 -3.45122 0
M  V30 1125 H 104.576 2.2509 -2.31375 0
M  V30 1126 H 103.628 0.332919 -3.7894 0
M  V30 1127 H 104.94 0.654677 -4.94485 0
M  V30 1128 H 104.094 2.98626 -5.28117 0
M  V30 1129 H 102.833 2.72807 -4.04262 0
M  V30 1130 H 101.838 0.884779 -5.42634 0
M  V30 1131 H 103.063 1.16652 -6.69006 0
M  V30 1132 H 101.009 3.1946 -5.72959 0
M  V30 1133 H 100.926 2.28917 -7.20509 0
M  V30 1134 H 102.194 3.45799 -6.98601 0
M  V30 1135 N 106.423 1.57458 -0.0668435 0
M  V30 1136 C 107.356 2.08033 0.93795 0
M  V30 1137 C 108.334 0.984321 1.29421 0
M  V30 1138 O 109.518 1.25736 1.40437 0
M  V30 1139 C 106.645 2.53388 2.24749 0
M  V30 1140 C 105.691 3.74376 2.04315 0
M  V30 1141 S 106.524 5.19303 1.30706 0
M  V30 1142 C 107.68 5.67986 2.62951 0
M  V30 1143 H 107.913 2.92935 0.50759 0
M  V30 1144 H 105.446 1.5371 0.145804 0
M  V30 1145 H 107.404 2.8018 3.00016 0
M  V30 1146 H 106.065 1.68763 2.64911 0
M  V30 1147 H 105.258 4.04083 3.01218 0
M  V30 1148 H 104.86 3.47931 1.37186 0
M  V30 1149 H 107.152 5.74528 3.5906 0
M  V30 1150 H 108.095 6.66955 2.3786 0
M  V30 1151 H 108.503 4.95781 2.69929 0
M  V30 1152 N 107.901 -0.206675 1.56239 0
M  V30 1153 C 108.811 -1.27686 1.96808 0
M  V30 1154 C 109.827 -1.50455 0.874035 0
M  V30 1155 O 111.003 -1.63295 1.17884 0
M  V30 1156 C 108.068 -2.60358 2.28942 0
M  V30 1157 C 107.129 -2.45762 3.51994 0
M  V30 1158 C 106.362 -3.72108 3.82585 0
M  V30 1159 O 106.585 -4.75776 3.14631 0
M  V30 1160 O 105.519 -3.6833 4.76043 0
M  V30 1161 H 109.345 -0.962593 2.88041 0
M  V30 1162 H 106.93 -0.410746 1.43643 0
M  V30 1163 H 108.812 -3.38687 2.50737 0
M  V30 1164 H 107.487 -2.91435 1.4088 0
M  V30 1165 H 106.394 -1.65584 3.35459 0
M  V30 1166 H 107.727 -2.19621 4.40486 0
M  V30 1167 N 109.379 -1.50304 -0.473955 0
M  V30 1168 C 110.312 -1.63595 -1.59097 0
M  V30 1169 C 111.29 -0.484142 -1.55225 0
M  V30 1170 O 112.474 -0.703271 -1.7489 0
M  V30 1171 C 109.601 -1.61589 -2.97669 0
M  V30 1172 C 108.647 -2.82295 -3.19705 0
M  V30 1173 S 109.48 -4.43635 -2.99913 0
M  V30 1174 C 110.636 -4.44317 -4.40832 0
M  V30 1175 H 110.869 -2.58082 -1.47583 0
M  V30 1176 H 108.402 -1.39531 -0.661087 0
M  V30 1177 H 110.36 -1.61116 -3.7756 0
M  V30 1178 H 109.021 -0.683421 -3.06575 0
M  V30 1179 H 108.214 -2.77188 -4.20931 0
M  V30 1180 H 107.816 -2.8032 -2.47582 0
M  V30 1181 H 110.108 -4.17703 -5.33414 0
M  V30 1182 H 111.051 -5.45911 -4.50984 0
M  V30 1183 H 111.459 -3.74059 -4.22777 0
M  V30 1184 N 110.857 0.726932 -1.39834 0
M  V30 1185 C 111.82 1.82269 -1.38962 0
M  V30 1186 C 112.82 1.58248 -0.285334 0
M  V30 1187 O 114.01 1.65499 -0.54366 0
M  V30 1188 C 111.142 3.20186 -1.17019 0
M  V30 1189 H 112.335 1.84443 -2.36476 0
M  V30 1190 H 109.888 0.931416 -1.25516 0
M  V30 1191 H 110.623 3.23669 -0.202204 0
M  V30 1192 H 110.408 3.3902 -1.96998 0
M  V30 1193 H 111.898 4.00235 -1.1917 0
M  V30 1194 N 112.336 1.25143 0.95797 0
M  V30 1195 C 113.283 1.05235 2.05412 0
M  V30 1196 C 114.253 -0.0374561 1.66058 0
M  V30 1197 O 115.438 0.119073 1.90428 0
M  V30 1198 C 112.578 0.673589 3.38462 0
M  V30 1199 C 111.691 1.8379 3.90954 0
M  V30 1200 C 110.826 1.40381 5.12315 0
M  V30 1201 C 109.865 2.53746 5.57027 0
M  V30 1202 N 109.002 2.11136 6.69601 0
M  V30 1203 H 113.842 1.99048 2.21774 0
M  V30 1204 H 111.379 0.991277 1.08683 0
M  V30 1205 H 113.337 0.434964 4.14926 0
M  V30 1206 H 111.967 -0.227554 3.21997 0
M  V30 1207 H 111.019 2.18992 3.11041 0
M  V30 1208 H 112.331 2.68937 4.20089 0
M  V30 1209 H 111.485 1.12464 5.96185 0
M  V30 1210 H 110.224 0.523015 4.84887 0
M  V30 1211 H 109.229 2.82412 4.71724 0
M  V30 1212 H 110.454 3.42398 5.86464 0
M  V30 1213 H 108.4 1.25468 6.4389 0
M  V30 1214 H 108.317 2.89832 6.98236 0
M  V30 1215 H 109.585 1.86385 7.56889 0
M  V30 1216 N 113.814 -1.1601 1.06675 0
M  V30 1217 C 115.061 -1.86633 0.785781 0
M  V30 1218 C 115.389 -1.81929 -0.687896 0
M  V30 1219 O 114.644 -1.23253 -1.52011 0
M  V30 1220 C 114.943 -3.35547 1.23057 0
M  V30 1221 C 114.609 -3.60448 2.70902 0
M  V30 1222 C 113.271 -3.66954 3.11285 0
M  V30 1223 C 115.623 -3.7071 3.66365 0
M  V30 1224 C 112.951 -3.81225 4.45965 0
M  V30 1225 C 115.303 -3.86503 5.00797 0
M  V30 1226 C 113.967 -3.91252 5.40813 0
M  V30 1227 H 113.237 -0.682937 0.287538 0
M  V30 1228 H 115.884 -1.37146 1.33654 0
M  V30 1229 H 114.189 -3.87193 0.59907 0
M  V30 1230 H 115.886 -3.88583 0.990163 0
M  V30 1231 H 112.476 -3.56021 2.38636 0
M  V30 1232 H 116.66 -3.64991 3.36296 0
M  V30 1233 H 111.916 -3.83155 4.76447 0
M  V30 1234 H 116.09 -3.93385 5.74649 0
M  V30 1235 H 113.717 -4.02062 6.45174 0
M  V30 1236 N 115.292 -0.849877 -1.32721 0
M  V30 1237 C 116.708 -0.539102 -1.50219 0
M  V30 1238 C 116.908 0.931271 -1.78689 0
M  V30 1239 O 115.964 1.71455 -1.85363 0
M  V30 1240 C 117.277 -1.42196 -2.64954 0
M  V30 1241 C 118.825 -1.42189 -2.78839 0
M  V30 1242 C 119.3 -2.28985 -3.96648 0
M  V30 1243 N 120.791 -2.26754 -4.03902 0
M  V30 1244 C 121.526 -2.90644 -4.94281 0
M  V30 1245 N 121.022 -3.63629 -5.897 0
M  V30 1246 N 122.815 -2.80057 -4.87365 0
M  V30 1247 H 114.966 -1.80156 -1.12506 0
M  V30 1248 H 117.229 -0.769217 -0.554085 0
M  V30 1249 H 116.935 -2.46733 -2.50631 0
M  V30 1250 H 116.809 -1.10591 -3.60624 0
M  V30 1251 H 119.196 -0.38419 -2.92588 0
M  V30 1252 H 119.277 -1.77807 -1.83898 0
M  V30 1253 H 118.921 -3.32819 -3.83658 0
M  V30 1254 H 118.851 -1.90702 -4.90857 0
M  V30 1255 H 121.342 -1.73688 -3.3562 0
M  V30 1256 H 121.655 -4.09558 -6.55349 0
M  V30 1257 H 120 -3.67737 -5.89741 0
M  V30 1258 H 123.191 -2.22593 -4.11789 0
M  V30 1259 H 123.364 -3.30132 -5.57599 0
M  V30 1260 N 116.77 1.45427 -0.607355 0
M  V30 1261 C 118 2.06314 -0.108656 0
M  V30 1262 C 118.408 1.45269 1.21217 0
M  V30 1263 O 117.751 0.561115 1.74921 0
M  V30 1264 C 117.813 3.59345 0.105618 0
M  V30 1265 C 117.477 4.42723 -1.13337 0
M  V30 1266 C 118.474 4.77715 -2.05145 0
M  V30 1267 C 116.159 4.83478 -1.36213 0
M  V30 1268 C 118.153 5.52317 -3.18158 0
M  V30 1269 C 115.84 5.57835 -2.49527 0
M  V30 1270 C 116.838 5.92171 -3.40327 0
M  V30 1271 O 116.526 6.65019 -4.51669 0
M  V30 1272 H 116.258 0.672782 -0.0658842 0
M  V30 1273 H 118.812 1.87664 -0.834945 0
M  V30 1274 H 117.042 3.76394 0.886796 0
M  V30 1275 H 118.731 4.02076 0.555886 0
M  V30 1276 H 119.497 4.46787 -1.88697 0
M  V30 1277 H 115.376 4.56188 -0.664362 0
M  V30 1278 H 118.92 5.79036 -3.89054 0
M  V30 1279 H 114.817 5.88177 -2.65928 0
M  V30 1280 H 115.585 6.83469 -4.50348 0
M  V30 1281 N 118.248 0.346503 1.53744 0
M  V30 1282 C 119.497 -0.250122 2.00143 0
M  V30 1283 C 119.81 -1.51418 1.23822 0
M  V30 1284 O 121.016 -2.18823 1.60713 0
M  V30 1285 C 119.472 -0.496252 3.56462 0
M  V30 1286 C 119.08 0.752077 4.41642 0
M  V30 1287 C 120.824 -1.05157 4.11269 0
M  V30 1288 C 118.731 0.476583 5.89477 0
M  V30 1289 H 117.661 -0.0972409 0.747703 0
M  V30 1290 H 120.312 0.46229 1.77581 0
M  V30 1291 H 118.694 -1.26944 3.75102 0
M  V30 1292 H 119.868 1.5266 4.34778 0
M  V30 1293 H 118.183 1.22925 3.97842 0
M  V30 1294 H 120.78 -1.27269 5.19333 0
M  V30 1295 H 121.123 -2.00799 3.64672 0
M  V30 1296 H 121.656 -0.339019 3.96353 0
M  V30 1297 H 118.395 1.4028 6.40314 0
M  V30 1298 H 117.915 -0.259794 5.99237 0
M  V30 1299 H 119.594 0.0949315 6.4693 0
M  V30 1300 N 119.726 -1.57421 0.075193 0
M  V30 1301 C 120.656 -2.15942 -0.888324 0
M  V30 1302 C 121.637 -1.08737 -1.30806 0
M  V30 1303 O 122.822 -1.36787 -1.37851 0
M  V30 1304 C 119.952 -2.72379 -2.1547 0
M  V30 1305 C 118.906 -3.8478 -1.87425 0
M  V30 1306 C 118.232 -4.27834 -3.20721 0
M  V30 1307 C 119.532 -5.08869 -1.17684 0
M  V30 1308 H 121.226 -2.96705 -0.400799 0
M  V30 1309 H 118.772 -1.42723 -0.191342 0
M  V30 1310 H 120.725 -3.11965 -2.83295 0
M  V30 1311 H 119.449 -1.88841 -2.6647 0
M  V30 1312 H 118.108 -3.45703 -1.22004 0
M  V30 1313 H 117.756 -3.41214 -3.6957 0
M  V30 1314 H 117.456 -5.03605 -3.02746 0
M  V30 1315 H 118.98 -4.70039 -3.89738 0
M  V30 1316 H 120.394 -5.4575 -1.75584 0
M  V30 1317 H 118.791 -5.8994 -1.09956 0
M  V30 1318 H 119.861 -4.84648 -0.156453 0
M  V30 1319 N 121.204 0.198386 -1.56346 0
M  V30 1320 C 122.615 0.763358 -1.70381 0
M  V30 1321 C 122.966 1.83995 -0.681203 0
M  V30 1322 O 122.091 2.15785 0.16305 0
M  V30 1323 C 122.686 1.39143 -3.08909 0
M  V30 1324 C 121.245 1.90352 -3.2472 0
M  V30 1325 C 120.392 0.772233 -2.6633 0
M  V30 1326 H 123.343 -0.0266377 -1.58678 0
M  V30 1327 H 123.364 2.26076 -3.06055 0
M  V30 1328 H 122.876 0.607638 -3.83314 0
M  V30 1329 H 120.977 2.71461 -2.55225 0
M  V30 1330 H 121.09 2.06757 -4.3219 0
M  V30 1331 H 119.454 1.18566 -2.2542 0
M  V30 1332 H 120.237 0.00073556 -3.433 0
M  V30 1333 N 122.682 1.50554 0.465978 0
M  V30 1334 C 123.928 1.62038 1.21949 0
M  V30 1335 C 124.261 0.322116 1.9151 0
M  V30 1336 O 123.536 -0.676723 1.82348 0
M  V30 1337 C 123.819 2.80421 2.25912 0
M  V30 1338 C 123.672 4.20144 1.60622 0
M  V30 1339 C 124.991 2.94354 3.27176 0
M  V30 1340 H 122.11 0.589752 0.441998 0
M  V30 1341 H 124.752 1.82956 0.51257 0
M  V30 1342 H 122.902 2.62717 2.86203 0
M  V30 1343 H 124.574 4.49449 1.03889 0
M  V30 1344 H 122.817 4.24165 0.909211 0
M  V30 1345 H 123.488 4.98914 2.36196 0
M  V30 1346 H 125.964 3.10578 2.76913 0
M  V30 1347 H 124.84 3.788 3.97242 0
M  V30 1348 H 125.101 2.05186 3.916 0
M  V30 1349 N 124.16 -0.719506 1.40217 0
M  V30 1350 C 125.39 -1.50646 1.41384 0
M  V30 1351 C 125.798 -1.89197 0.0107743 0
M  V30 1352 O 125.141 -1.55709 -0.974708 0
M  V30 1353 C 125.203 -2.81405 2.23722 0
M  V30 1354 C 124.867 -2.65199 3.72181 0
M  V30 1355 C 125.864 -2.32717 4.64907 0
M  V30 1356 C 123.549 -2.81586 4.1595 0
M  V30 1357 C 125.543 -2.16827 5.99387 0
M  V30 1358 C 123.23 -2.65313 5.50502 0
M  V30 1359 C 124.228 -2.32981 6.42035 0
M  V30 1360 O 123.916 -2.16827 7.74107 0
M  V30 1361 H 123.648 -0.471606 0.484318 0
M  V30 1362 H 126.202 -0.895456 1.84853 0
M  V30 1363 H 124.432 -3.44823 1.75026 0
M  V30 1364 H 126.121 -3.43102 2.16878 0
M  V30 1365 H 126.887 -2.19694 4.32388 0
M  V30 1366 H 122.766 -3.0574 3.45027 0
M  V30 1367 H 126.31 -1.91513 6.70797 0
M  V30 1368 H 122.207 -2.7792 5.82607 0
M  V30 1369 H 122.975 -2.31778 7.84998 0
M  V30 1370 N 125.638 -1.25649 -0.95132 0
M  V30 1371 C 126.886 -1.10375 -1.69298 0
M  V30 1372 C 127.207 0.355339 -1.91735 0
M  V30 1373 O 126.477 1.25188 -1.50681 0
M  V30 1374 H 125.057 -0.405461 -0.627384 0
M  V30 1375 H 127.719 -1.57823 -1.14358 0
M  V30 1376 H 126.815 -1.61465 -2.67087 0
M  V30 1377 N 127.117 1.15442 -1.07289 0
M  V30 1378 C 128.366 1.85557 -0.790669 0
M  V30 1379 C 128.679 1.83186 0.685739 0
M  V30 1380 O 129.885 2.48977 1.0827 0
M  V30 1381 C 128.341 3.33038 -1.36433 0
M  V30 1382 C 127.949 3.43856 -2.8717 0
M  V30 1383 C 129.693 4.0834 -1.1601 0
M  V30 1384 C 127.6 4.85482 -3.3773 0
M  V30 1385 H 126.53 0.695122 -0.292098 0
M  V30 1386 H 129.181 1.30219 -1.29287 0
M  V30 1387 H 127.563 3.88043 -0.789864 0
M  V30 1388 H 128.737 2.98961 -3.50655 0
M  V30 1389 H 127.052 2.81998 -3.06376 0
M  V30 1390 H 129.649 5.12859 -1.51262 0
M  V30 1391 H 129.992 4.16182 -0.0991007 0
M  V30 1392 H 130.525 3.59603 -1.70089 0
M  V30 1393 H 127.264 4.82823 -4.43353 0
M  V30 1394 H 126.784 5.30961 -2.78999 0
M  V30 1395 H 128.463 5.54335 -3.33648 0
M  V30 1396 N 128.595 0.856903 1.32268 0
M  V30 1397 C 129.835 0.467705 1.98977 0
M  V30 1398 C 130.199 -0.959231 1.66321 0
M  V30 1399 O 131.4 -1.4531 2.26138 0
M  V30 1400 C 129.671 0.70256 3.50427 0
M  V30 1401 S 131.23 0.411269 4.36868 0
M  V30 1402 H 128.048 0.175121 0.689096 0
M  V30 1403 H 130.65 1.1101 1.60925 0
M  V30 1404 H 129.354 1.74012 3.71683 0
M  V30 1405 H 128.885 0.0466707 3.93372 0
M  V30 1406 H 130.9 -0.761799 4.90317 0
M  V30 1407 N 130.073 -1.45103 0.615059 0
M  V30 1408 C 131.489 -1.57137 0.279322 0
M  V30 1409 C 131.689 -1.60523 -1.21797 0
M  V30 1410 O 130.745 -1.53956 -2.00134 0
M  V30 1411 C 132.058 -2.85062 0.957083 0
M  V30 1412 C 133.606 -2.98749 0.933706 0
M  V30 1413 C 134.081 -4.29455 1.59162 0
M  V30 1414 N 135.572 -4.36231 1.55746 0
M  V30 1415 C 136.307 -5.36051 2.0356 0
M  V30 1416 N 135.803 -6.42367 2.59494 0
M  V30 1417 N 137.596 -5.27456 1.94284 0
M  V30 1418 H 129.747 -1.41148 1.58717 0
M  V30 1419 H 132.01 -0.675331 0.665306 0
M  V30 1420 H 131.716 -2.88488 2.01166 0
M  V30 1421 H 131.59 -3.7407 0.48494 0
M  V30 1422 H 133.977 -2.94886 -0.112347 0
M  V30 1423 H 134.058 -2.11132 1.44419 0
M  V30 1424 H 133.702 -4.34077 2.63704 0
M  V30 1425 H 133.632 -5.15901 1.0561 0
M  V30 1426 H 136.123 -3.60011 1.14893 0
M  V30 1427 H 136.436 -7.14793 2.93752 0
M  V30 1428 H 134.781 -6.43097 2.63537 0
M  V30 1429 H 137.972 -4.43308 1.5032 0
M  V30 1430 H 138.145 -6.05099 2.3186 0
M  V30 1431 N 131.551 -0.354651 -1.53558 0
M  V30 1432 C 132.461 0.50515 -2.29097 0
M  V30 1433 C 133.477 1.10223 -1.34636 0
M  V30 1434 O 134.653 1.11553 -1.67684 0
M  V30 1435 C 131.718 1.63479 -3.05738 0
M  V30 1436 C 130.779 1.06636 -4.15845 0
M  V30 1437 C 130.012 2.14217 -4.88822 0
M  V30 1438 O 130.235 3.35137 -4.61562 0
M  V30 1439 O 129.169 1.77887 -5.75013 0
M  V30 1440 H 132.995 -0.109237 -3.03503 0
M  V30 1441 H 130.58 -0.119357 -1.48922 0
M  V30 1442 H 132.462 2.2918 -3.5363 0
M  V30 1443 H 131.137 2.23478 -2.34178 0
M  V30 1444 H 130.044 0.373565 -3.7223 0
M  V30 1445 H 131.377 0.511081 -4.89539 0
M  V30 1446 N 133.029 1.57378 -0.0835403 0
M  V30 1447 C 134.44 1.81261 0.447358 0
M  V30 1448 C 134.791 0.998331 1.68902 0
M  V30 1449 O 133.916 0.224282 2.15235 0
M  V30 1450 C 134.511 3.28767 0.818386 0
M  V30 1451 C 133.07 3.53455 1.29409 0
M  V30 1452 C 132.217 2.75831 0.285024 0
M  V30 1453 H 135.168 1.5566 -0.309115 0
M  V30 1454 H 135.189 3.41459 1.67887 0
M  V30 1455 H 134.701 3.88006 -0.0855019 0
M  V30 1456 H 132.802 2.99534 2.21608 0
M  V30 1457 H 132.915 4.62128 1.2639 0
M  V30 1458 H 131.279 2.42947 0.764767 0
M  V30 1459 H 132.062 3.37813 -0.611341 0
M  V30 1460 N 134.507 -0.190092 1.56449 0
M  V30 1461 C 135.753 -0.911052 1.81184 0
M  V30 1462 C 136.086 -1.82699 0.658396 0
M  V30 1463 O 135.361 -1.91491 -0.340775 0
M  V30 1464 C 135.644 -1.72297 3.16205 0
M  V30 1465 C 135.497 -0.831419 4.42049 0
M  V30 1466 C 136.816 -2.69454 3.47969 0
M  V30 1467 H 133.935 -0.32977 0.659106 0
M  V30 1468 H 136.577 -0.178169 1.89163 0
M  V30 1469 H 134.727 -2.34778 3.09534 0
M  V30 1470 H 136.399 -0.220929 4.60771 0
M  V30 1471 H 134.642 -0.138406 4.33579 0
M  V30 1472 H 135.313 -1.43461 5.33032 0
M  V30 1473 H 137.789 -2.17104 3.54972 0
M  V30 1474 H 136.665 -3.23342 4.43555 0
M  V30 1475 H 136.926 -3.48744 2.71717 0
M  V30 1476 N 135.985 -1.50799 -0.457987 0
M  V30 1477 C 137.233 -1.62121 -1.2067 0
M  V30 1478 C 137.554 -0.329793 -1.92191 0
M  V30 1479 O 136.824 0.653409 -1.84682 0
M  V30 1480 H 135.404 -0.597441 -0.448411 0
M  V30 1481 H 138.066 -1.87637 -0.527096 0
M  V30 1482 H 137.162 -2.43882 -1.94751 0
M  V30 1483 N 137.463 0.71206 -1.40597 0
M  V30 1484 C 138.393 1.83889 -1.43899 0
M  V30 1485 C 139.374 1.67442 -0.299504 0
M  V30 1486 O 140.559 1.87421 -0.508624 0
M  V30 1487 C 137.689 3.21877 -1.30431 0
M  V30 1488 C 136.643 3.53002 -2.42019 0
M  V30 1489 C 135.969 4.90172 -2.13626 0
M  V30 1490 C 137.269 3.53643 -3.84362 0
M  V30 1491 H 138.963 1.81383 -2.38203 0
M  V30 1492 H 136.509 0.871237 -1.14654 0
M  V30 1493 H 138.462 4.00404 -1.31357 0
M  V30 1494 H 137.186 3.24968 -0.326049 0
M  V30 1495 H 135.845 2.76818 -2.40349 0
M  V30 1496 H 135.493 4.89869 -1.14182 0
M  V30 1497 H 135.193 5.11962 -2.88389 0
M  V30 1498 H 136.717 5.71028 -2.1624 0
M  V30 1499 H 138.131 4.22203 -3.87837 0
M  V30 1500 H 136.528 3.86961 -4.58673 0
M  V30 1501 H 137.598 2.52954 -4.13693 0
M  V30 1502 N 138.941 1.26152 0.944643 0
M  V30 1503 C 140.187 1.11657 1.69294 0
M  V30 1504 C 140.52 -0.339926 1.91202 0
M  V30 1505 O 139.795 -1.24994 1.49019 0
M  V30 1506 C 140.078 1.88236 3.06984 0
M  V30 1507 C 139.931 3.41772 2.92424 0
M  V30 1508 C 141.25 1.67343 4.07043 0
M  V30 1509 H 138.369 0.407004 0.614424 0
M  V30 1510 H 141.011 1.55106 1.09737 0
M  V30 1511 H 139.161 1.51308 3.57824 0
M  V30 1512 H 140.833 3.88433 2.48832 0
M  V30 1513 H 139.076 3.68974 2.28124 0
M  V30 1514 H 139.747 3.90579 3.90067 0
M  V30 1515 H 142.223 1.99509 3.65151 0
M  V30 1516 H 141.099 2.23346 5.01406 0
M  V30 1517 H 141.36 0.617158 4.37771 0
M  V30 1518 N 140.419 -1.14872 1.07899 0
M  V30 1519 C 141.352 -2.18794 0.64841 0
M  V30 1520 C 142.33 -1.59065 -0.337189 0
M  V30 1521 O 143.514 -1.86936 -0.242284 0
M  V30 1522 C 140.641 -3.38667 -0.0470417 0
M  V30 1523 C 139.687 -4.16942 0.897884 0
M  V30 1524 S 140.52 -4.78615 2.40183 0
M  V30 1525 C 141.676 -6.0185 1.71834 0
M  V30 1526 H 141.909 -2.5498 1.52881 0
M  V30 1527 H 139.442 -1.25922 0.893484 0
M  V30 1528 H 141.4 -4.08113 -0.442027 0
M  V30 1529 H 140.061 -3.00814 -0.903861 0
M  V30 1530 H 139.254 -5.02726 0.358096 0
M  V30 1531 H 138.856 -3.53073 1.23352 0
M  V30 1532 H 141.148 -6.69574 1.03328 0
M  V30 1533 H 142.091 -6.60408 2.55473 0
M  V30 1534 H 142.499 -5.5173 1.19392 0
M  V30 1535 N 141.898 -0.863906 -1.31812 0
M  V30 1536 C 142.808 -0.318461 -2.32428 0
M  V30 1537 C 143.824 0.568496 -1.64451 0
M  V30 1538 O 145 0.46666 -1.95919 0
M  V30 1539 C 142.065 0.476355 -3.43412 0
M  V30 1540 C 141.126 -0.43784 -4.27061 0
M  V30 1541 C 140.359 0.319138 -5.32745 0
M  V30 1542 O 140.582 1.54799 -5.48993 0
M  V30 1543 O 139.516 -0.319861 -6.01049 0
M  V30 1544 H 143.342 -1.15229 -2.80991 0
M  V30 1545 H 140.927 -0.627103 -1.35602 0
M  V30 1546 H 142.809 0.927156 -4.11074 0
M  V30 1547 H 141.484 1.28683 -2.97022 0
M  V30 1548 H 140.391 -0.937013 -3.62175 0
M  V30 1549 H 141.724 -1.21375 -4.77 0
M  V30 1550 N 143.376 1.44774 -0.622745 0
M  V30 1551 C 144.606 2.06187 -0.130532 0
M  V30 1552 C 145.014 1.46547 1.19669 0
M  V30 1553 O 144.357 0.579636 1.74316 0
M  V30 1554 C 144.419 3.59437 0.0674983 0
M  V30 1555 C 144.083 4.41496 -1.18026 0
M  V30 1556 C 145.08 4.75512 -2.102 0
M  V30 1557 C 142.765 4.82007 -1.41333 0
M  V30 1558 C 144.759 5.48912 -3.23998 0
M  V30 1559 C 142.446 5.55157 -2.55429 0
M  V30 1560 C 143.444 5.88528 -3.46589 0
M  V30 1561 O 143.132 6.60191 -4.58697 0
M  V30 1562 H 142.864 0.672045 -0.0730162 0
M  V30 1563 H 145.418 1.86768 -0.854802 0
M  V30 1564 H 143.648 3.77314 0.846825 0
M  V30 1565 H 145.337 4.02642 0.513209 0
M  V30 1566 H 146.103 4.4476 -1.93425 0
M  V30 1567 H 141.982 4.55457 -0.712709 0
M  V30 1568 H 145.526 5.74877 -3.95174 0
M  V30 1569 H 141.423 5.85324 -2.72151 0
M  V30 1570 H 142.191 6.78654 -4.57571 0
M  V30 1571 N 144.854 0.36279 1.53368 0
M  V30 1572 C 145.787 -0.528507 2.21996 0
M  V30 1573 C 146.765 -1.0852 1.21087 0
M  V30 1574 O 147.949 -1.14186 1.4998 0
M  V30 1575 C 145.076 -1.72893 2.91249 0
M  V30 1576 C 144.122 -1.29994 4.06207 0
M  V30 1577 S 144.955 -0.303575 5.34639 0
M  V30 1578 C 146.111 -1.51039 6.07403 0
M  V30 1579 H 146.344 0.0543423 2.9725 0
M  V30 1580 H 143.877 0.146889 1.537 0
M  V30 1581 H 145.835 -2.41751 3.31763 0
M  V30 1582 H 144.496 -2.28303 2.15724 0
M  V30 1583 H 143.689 -2.19549 4.53667 0
M  V30 1584 H 143.291 -0.690608 3.67569 0
M  V30 1585 H 145.583 -2.44186 6.31965 0
M  V30 1586 H 146.526 -1.07721 6.99858 0
M  V30 1587 H 146.934 -1.71518 5.37812 0
M  V30 1588 N 146.332 -1.57332 0.0918853 0
M  V30 1589 C 147.242 -2.17368 -0.882505 0
M  V30 1590 C 148.258 -1.14226 -1.31257 0
M  V30 1591 O 149.434 -1.46582 -1.38115 0
M  V30 1592 C 146.499 -2.73962 -2.12476 0
M  V30 1593 C 145.56 -3.92048 -1.7492 0
M  V30 1594 C 144.793 -4.45933 -2.93223 0
M  V30 1595 O 145.016 -3.98764 -4.07852 0
M  V30 1596 O 143.95 -5.36999 -2.71875 0
M  V30 1597 H 147.776 -3.01031 -0.40172 0
M  V30 1598 H 145.361 -1.48813 -0.132291 0
M  V30 1599 H 147.243 -3.10147 -2.85283 0
M  V30 1600 H 145.918 -1.93347 -2.59613 0
M  V30 1601 H 144.825 -3.6068 -0.993025 0
M  V30 1602 H 146.158 -4.74017 -1.32548 0
M  V30 1603 N 147.81 0.181792 -1.56548 0
M  V30 1604 C 149.038 0.915947 -1.85521 0
M  V30 1605 C 149.453 1.76282 -0.676016 0
M  V30 1606 O 148.81 1.79012 0.355077 0
M  V30 1607 C 148.861 1.80126 -3.13427 0
M  V30 1608 O 148.582 0.988562 -4.26801 0
M  V30 1609 C 150.083 2.64597 -3.55673 0
M  V30 1610 H 147.303 0.26661 -0.61576 0
M  V30 1611 H 149.847 0.185039 -2.03661 0
M  V30 1612 H 148.002 2.48563 -2.97145 0
M  V30 1613 H 148.416 1.59308 -4.99721 0
M  V30 1614 H 149.89 3.2235 -4.48101 0
M  V30 1615 H 150.367 3.38958 -2.79292 0
M  V30 1616 H 150.973 2.0151 -3.74532 0
M  V30 1617 N 149.288 1.51039 0.449983 0
M  V30 1618 C 150.536 1.62759 1.19808 0
M  V30 1619 C 150.857 0.339981 1.92013 0
M  V30 1620 O 150.127 -0.643606 1.85026 0
M  V30 1621 H 148.707 0.599811 0.445237 0
M  V30 1622 H 151.369 1.87914 0.517138 0
M  V30 1623 H 150.465 2.44911 1.93455 0
M  V30 1624 N 150.766 -0.704594 1.40972 0
M  V30 1625 C 151.991 -1.49858 1.43378 0
M  V30 1626 C 152.416 -1.88061 0.038184 0
M  V30 1627 O 151.774 -1.5402 -0.956425 0
M  V30 1628 C 151.822 -2.74333 2.34038 0
M  V30 1629 O 150.926 -3.7147 1.7912 0
M  V30 1630 H 150.267 -0.45139 0.486974 0
M  V30 1631 H 152.797 -0.866832 1.8533 0
M  V30 1632 H 152.807 -3.22741 2.49604 0
M  V30 1633 H 151.482 -2.45863 3.35446 0
M  V30 1634 H 150.059 -3.30363 1.72958 0
M  V30 1635 N 152.244 -1.26651 -0.937939 0
M  V30 1636 C 153.174 -1.10993 -2.05433 0
M  V30 1637 C 154.155 -0.0142161 -1.70094 0
M  V30 1638 O 155.34 -0.186837 -1.93299 0
M  V30 1639 C 152.47 -0.745561 -3.39203 0
M  V30 1640 C 151.424 -1.79337 -3.88616 0
M  V30 1641 C 150.75 -1.28324 -5.19073 0
M  V30 1642 C 152.05 -3.19553 -4.13138 0
M  V30 1643 H 153.744 -2.0438 -2.1879 0
M  V30 1644 H 151.29 -0.984041 -1.05131 0
M  V30 1645 H 153.243 -0.622888 -4.16771 0
M  V30 1646 H 151.967 0.22401 -3.25831 0
M  V30 1647 H 150.626 -1.90477 -3.13231 0
M  V30 1648 H 150.274 -0.303414 -5.02084 0
M  V30 1649 H 149.974 -1.98369 -5.53103 0
M  V30 1650 H 151.498 -1.1733 -5.99221 0
M  V30 1651 H 152.912 -3.11471 -4.81309 0
M  V30 1652 H 151.309 -3.87218 -4.58457 0
M  V30 1653 H 152.379 -3.65368 -3.18801 0
M  V30 1654 N 153.722 1.14298 -1.08507 0
M  V30 1655 C 154.632 2.23027 -0.727753 0
M  V30 1656 C 155.648 1.71952 0.26619 0
M  V30 1657 O 156.824 2.011 0.109882 0
M  V30 1658 C 153.889 3.46403 -0.143541 0
M  V30 1659 C 152.95 4.12413 -1.19223 0
M  V30 1660 C 152.183 5.29899 -0.635798 0
M  V30 1661 O 152.406 5.67796 0.544393 0
M  V30 1662 O 151.34 5.85717 -1.38634 0
M  V30 1663 H 155.166 2.55945 -1.63481 0
M  V30 1664 H 152.751 1.22248 -0.858817 0
M  V30 1665 H 154.633 4.21018 0.179404 0
M  V30 1666 H 153.308 3.15206 0.736659 0
M  V30 1667 H 152.215 3.39667 -1.56772 0
M  V30 1668 H 153.548 4.47718 -2.04474 0
M  V30 1669 N 155.201 0.870884 1.31352 0
M  V30 1670 C 156.148 0.325425 2.28494 0
M  V30 1671 C 157.118 -0.576615 1.5577 0
M  V30 1672 O 158.303 -0.508059 1.83911 0
M  V30 1673 C 155.443 -0.466283 3.41935 0
M  V30 1674 C 154.556 0.463378 4.29508 0
M  V30 1675 C 153.691 -0.342544 5.30094 0
M  V30 1676 C 152.73 0.583486 6.09313 0
M  V30 1677 N 151.867 -0.186244 7.01853 0
M  V30 1678 H 156.707 1.15901 2.74538 0
M  V30 1679 H 154.244 0.58294 1.35056 0
M  V30 1680 H 156.202 -0.941085 4.06447 0
M  V30 1681 H 154.832 -1.26456 2.97 0
M  V30 1682 H 153.884 1.05663 3.65431 0
M  V30 1683 H 155.196 1.1734 4.84802 0
M  V30 1684 H 154.35 -0.879816 6.00287 0
M  V30 1685 H 153.089 -1.08585 4.75458 0
M  V30 1686 H 152.094 1.13251 5.3801 0
M  V30 1687 H 153.319 1.32566 6.66035 0
M  V30 1688 H 151.265 -0.912348 6.49625 0
M  V30 1689 H 151.182 0.464422 7.54572 0
M  V30 1690 H 152.45 -0.704716 7.76308 0
M  V30 1691 N 156.679 -1.44442 0.630414 0
M  V30 1692 C 157.609 -2.33418 -0.0618083 0
M  V30 1693 C 158.59 -1.48165 -0.835541 0
M  V30 1694 O 159.775 -1.76886 -0.801564 0
M  V30 1695 C 156.905 -3.31222 -1.04449 0
M  V30 1696 C 155.859 -4.26288 -0.382436 0
M  V30 1697 C 155.185 -5.13954 -1.47497 0
M  V30 1698 C 156.485 -5.1744 0.710865 0
M  V30 1699 H 158.179 -2.91548 0.681184 0
M  V30 1700 H 155.725 -1.40191 0.329026 0
M  V30 1701 H 157.678 -3.92351 -1.53748 0
M  V30 1702 H 156.402 -2.71299 -1.81836 0
M  V30 1703 H 155.061 -3.6649 0.0899054 0
M  V30 1704 H 154.709 -4.50385 -2.2397 0
M  V30 1705 H 154.409 -5.7837 -1.03737 0
M  V30 1706 H 155.933 -5.77955 -1.96979 0
M  V30 1707 H 157.347 -5.72509 0.300996 0
M  V30 1708 H 155.744 -5.90455 1.07156 0
M  V30 1709 H 156.814 -4.58496 1.57829 0
M  V30 1710 N 158.157 -0.370918 -1.53173 0
M  V30 1711 C 159.087 0.464847 -2.28826 0
M  V30 1712 C 160.068 1.07936 -1.31468 0
M  V30 1713 O 161.253 1.0956 -1.60344 0
M  V30 1714 C 158.383 1.60196 -3.08147 0
M  V30 1715 C 157.337 1.11443 -4.13237 0
M  V30 1716 C 156.663 2.3422 -4.80672 0
M  V30 1717 C 157.963 0.195384 -5.21934 0
M  V30 1718 H 159.657 -0.166329 -2.98938 0
M  V30 1719 H 157.203 -0.0814359 -1.4377 0
M  V30 1720 H 159.156 2.19332 -3.59822 0
M  V30 1721 H 157.88 2.26045 -2.35735 0
M  V30 1722 H 156.539 0.545727 -3.62515 0
M  V30 1723 H 156.187 2.98537 -4.04827 0
M  V30 1724 H 155.887 2.02269 -5.51689 0
M  V30 1725 H 157.411 2.94032 -5.35143 0
M  V30 1726 H 158.825 0.694375 -5.69079 0
M  V30 1727 H 157.222 -0.0335027 -6.00091 0
M  V30 1728 H 158.292 -0.760961 -4.78892 0
M  V30 1729 N 159.635 1.57281 -0.100228 0
M  V30 1730 C 160.598 2.13158 0.842398 0
M  V30 1731 C 161.598 1.06202 1.20738 0
M  V30 1732 O 162.788 1.32066 1.13597 0
M  V30 1733 C 159.92 2.65639 2.13655 0
M  V30 1734 H 161.113 2.97766 0.357114 0
M  V30 1735 H 158.666 1.5559 0.148823 0
M  V30 1736 H 159.401 1.84566 2.66657 0
M  V30 1737 H 159.186 3.43844 1.88451 0
M  V30 1738 H 160.676 3.08846 2.81077 0
M  V30 1739 N 161.113 -0.173488 1.56642 0
M  V30 1740 C 162.338 -0.910149 1.86363 0
M  V30 1741 C 162.763 -1.75132 0.686318 0
M  V30 1742 O 162.121 -1.77595 -0.364643 0
M  V30 1743 C 162.169 -1.76447 3.14482 0
M  V30 1744 O 161.273 -2.86584 2.96553 0
M  V30 1745 H 160.614 -0.255086 0.613047 0
M  V30 1746 H 163.144 -0.172283 2.03873 0
M  V30 1747 H 163.154 -2.16483 3.45831 0
M  V30 1748 H 161.829 -1.14658 3.99783 0
M  V30 1749 H 160.406 -2.50146 2.76553 0
M  V30 1750 N 162.591 -1.51276 -0.441967 0
M  V30 1751 C 163.501 -1.75092 -1.56141 0
M  V30 1752 C 164.517 -0.634963 -1.62001 0
M  V30 1753 O 165.693 -0.916686 -1.79329 0
M  V30 1754 C 162.758 -1.86666 -2.92158 0
M  V30 1755 C 161.819 -3.10506 -2.96453 0
M  V30 1756 C 161.052 -3.21519 -4.25982 0
M  V30 1757 O 161.275 -2.38586 -5.18105 0
M  V30 1758 O 160.209 -4.14465 -4.36466 0
M  V30 1759 H 164.035 -2.70044 -1.38961 0
M  V30 1760 H 161.62 -1.35722 -0.624499 0
M  V30 1761 H 163.502 -1.96292 -3.72891 0
M  V30 1762 H 162.177 -0.949014 -3.09476 0
M  V30 1763 H 161.084 -3.06363 -2.14692 0
M  V30 1764 H 162.417 -4.01945 -2.84079 0
M  V30 1765 N 164.069 0.697108 -1.41344 0
M  V30 1766 C 165.48 1.27697 -1.36199 0
M  V30 1767 C 165.831 1.9615 -0.0443463 0
M  V30 1768 O 164.956 1.98689 0.857419 0
M  V30 1769 C 165.551 2.32223 -2.46694 0
M  V30 1770 C 164.11 2.8579 -2.44952 0
M  V30 1771 C 163.257 1.59807 -2.26621 0
M  V30 1772 H 166.208 0.491968 -1.50882 0
M  V30 1773 H 166.229 3.1348 -2.15664 0
M  V30 1774 H 165.741 1.82373 -3.42581 0
M  V30 1775 H 163.842 3.3982 -1.52817 0
M  V30 1776 H 163.955 3.36325 -3.41207 0
M  V30 1777 H 162.319 1.8556 -1.7447 0
M  V30 1778 H 163.102 1.11956 -3.24532 0
M  V30 1779 N 165.547 1.27147 0.931209 0
M  V30 1780 C 166.477 1.12081 2.04842 0
M  V30 1781 C 167.458 0.0232364 1.70084 0
M  V30 1782 O 168.643 0.197085 1.93197 0
M  V30 1783 C 165.773 0.76354 3.38803 0
M  V30 1784 C 164.727 1.81396 3.87659 0
M  V30 1785 C 164.053 1.31075 5.18385 0
M  V30 1786 C 165.353 3.21739 4.11438 0
M  V30 1787 H 167.047 2.05537 2.17703 0
M  V30 1788 H 164.593 0.989603 1.04608 0
M  V30 1789 H 166.546 0.644982 4.16435 0
M  V30 1790 H 165.27 -0.206727 3.25945 0
M  V30 1791 H 163.929 1.92136 3.12217 0
M  V30 1792 H 163.577 0.330037 5.01916 0
M  V30 1793 H 163.277 2.013 5.52044 0
M  V30 1794 H 164.801 1.20506 5.98591 0
M  V30 1795 H 166.215 3.14019 4.79651 0
M  V30 1796 H 164.612 3.89644 4.56397 0
M  V30 1797 H 165.682 3.67054 3.16859 0
M  V30 1798 N 167.025 -1.13721 1.09112 0
M  V30 1799 C 168.436 -1.6648 0.845068 0
M  V30 1800 C 168.787 -1.85911 -0.62701 0
M  V30 1801 O 167.912 -1.57556 -1.48341 0
M  V30 1802 C 168.507 -3.02413 1.52748 0
M  V30 1803 C 167.066 -3.52176 1.32849 0
M  V30 1804 C 166.213 -2.27492 1.58564 0
M  V30 1805 H 169.164 -0.976872 1.25072 0
M  V30 1806 H 169.185 -3.68223 0.958752 0
M  V30 1807 H 168.697 -2.88238 2.59885 0
M  V30 1808 H 166.798 -3.7156 0.278137 0
M  V30 1809 H 166.911 -4.32499 2.0611 0
M  V30 1810 H 165.275 -2.33923 1.00758 0
M  V30 1811 H 166.058 -2.15886 2.66924 0
M  V30 1812 N 168.503 -0.877838 -1.30888 0
M  V30 1813 C 169.749 -0.502773 -1.97088 0
M  V30 1814 C 170.104 0.936274 -1.68082 0
M  V30 1815 O 169.397 1.65162 -0.971196 0
M  V30 1816 C 169.591 -0.705748 -3.50363 0
M  V30 1817 C 169.42 -2.16297 -3.94266 0
M  V30 1818 C 168.19 -2.80614 -4.20219 0
M  V30 1819 C 170.388 -3.13606 -4.07622 0
M  V30 1820 N 168.37 -4.17007 -4.50532 0
M  V30 1821 C 169.741 -4.35051 -4.41736 0
M  V30 1822 C 171.796 -3.09491 -3.90026 0
M  V30 1823 C 170.499 -5.52911 -4.60089 0
M  V30 1824 C 172.525 -4.26616 -4.09576 0
M  V30 1825 C 171.887 -5.46825 -4.44029 0
M  V30 1826 H 167.986 -0.233168 -0.746429 0
M  V30 1827 H 170.57 -1.13408 -1.58261 0
M  V30 1828 H 168.741 -0.103976 -3.88261 0
M  V30 1829 H 170.473 -0.298291 -4.03599 0
M  V30 1830 H 167.228 -2.3152 -4.13153 0
M  V30 1831 H 167.652 -4.87426 -4.69834 0
M  V30 1832 H 172.294 -2.17657 -3.62471 0
M  V30 1833 H 170.012 -6.45255 -4.86489 0
M  V30 1834 H 173.598 -4.24894 -3.97438 0
M  V30 1835 H 172.478 -6.35947 -4.58848 0
M  V30 1836 N 169.982 1.44106 -0.638065 0
M  V30 1837 C 171.259 1.95453 -0.0759321 0
M  V30 1838 C 171.639 1.57984 1.40015 0
M  V30 1839 O 170.987 0.857361 2.11806 0
M  V30 1840 C 171.197 3.47655 -0.306132 0
M  V30 1841 C 172.545 4.24114 -0.203008 0
M  V30 1842 O 173.569 3.55405 -0.237871 0
M  V30 1843 O 172.428 5.46381 -0.113827 0
M  V30 1844 H 169.522 0.826797 0.0183332 0
M  V30 1845 H 172.068 1.54122 -0.710251 0
M  V30 1846 H 170.84 3.68 -1.3301 0
M  V30 1847 H 170.463 3.95949 0.361991 0
M  V30 1848 N 171.46 0.379036 1.52974 0
M  V30 1849 C 172.39 -0.452706 2.29069 0
M  V30 1850 C 173.371 -1.07237 1.32039 0
M  V30 1851 O 174.556 -1.08708 1.60923 0
M  V30 1852 C 171.686 -1.5856 3.08992 0
M  V30 1853 C 170.64 -1.0925 4.13822 0
M  V30 1854 C 169.966 -2.31668 4.81907 0
M  V30 1855 C 171.266 -0.167702 5.22031 0
M  V30 1856 H 172.96 0.182181 2.98845 0
M  V30 1857 H 170.506 0.0890592 1.43724 0
M  V30 1858 H 172.459 -2.1742 3.6098 0
M  V30 1859 H 171.183 -2.24792 2.36931 0
M  V30 1860 H 169.842 -0.526494 3.628 0
M  V30 1861 H 169.49 -2.96386 4.06404 0
M  V30 1862 H 169.19 -1.9934 5.52754 0
M  V30 1863 H 170.714 -2.91189 5.36695 0
M  V30 1864 H 172.128 -0.664186 5.6944 0
M  V30 1865 H 170.525 0.0653265 6.00064 0
M  V30 1866 H 171.595 0.786347 4.78482 0
M  V30 1867 N 172.938 -1.57226 0.108567 0
M  V30 1868 C 174.354 -1.5766 -0.248058 0
M  V30 1869 C 174.554 -1.12063 -1.67464 0
M  V30 1870 O 173.61 -0.803236 -2.39383 0
M  V30 1871 C 174.923 -3.0069 -0.0242287 0
M  V30 1872 C 176.471 -3.12868 -0.0909372 0
M  V30 1873 C 176.946 -4.57879 0.105067 0
M  V30 1874 N 178.437 -4.63172 0.0506846 0
M  V30 1875 C 179.172 -5.73126 0.177396 0
M  V30 1876 N 178.668 -6.91866 0.359696 0
M  V30 1877 N 180.461 -5.61977 0.117709 0
M  V30 1878 H 172.612 -1.85169 1.04049 0
M  V30 1879 H 174.875 -0.85529 0.40888 0
M  V30 1880 H 174.581 -3.38299 0.961604 0
M  V30 1881 H 174.455 -3.6945 -0.76068 0
M  V30 1882 H 176.842 -2.75124 -1.06729 0
M  V30 1883 H 176.923 -2.46672 0.677225 0
M  V30 1884 H 176.567 -4.96321 1.07834 0
M  V30 1885 H 176.497 -5.22153 -0.682954 0
M  V30 1886 H 178.988 -3.778 -0.0871266 0
M  V30 1887 H 179.301 -7.71503 0.447529 0
M  V30 1888 H 177.646 -6.93874 0.395536 0
M  V30 1889 H 180.837 -4.68094 -0.0236741 0
M  V30 1890 H 181.01 -6.47627 0.219905 0
M  V30 1891 N 174.416 0.165178 -1.56732 0
M  V30 1892 C 175.663 0.880807 -1.8234 0
M  V30 1893 C 175.991 1.81977 -0.686621 0
M  V30 1894 O 175.246 1.92971 0.325697 0
M  V30 1895 C 175.545 1.70405 -3.1416 0
M  V30 1896 C 175.211 0.913475 -4.4155 0
M  V30 1897 C 173.873 0.695303 -4.7615 0
M  V30 1898 C 176.225 0.359349 -5.1996 0
M  V30 1899 C 173.553 -0.0879947 -5.86634 0
M  V30 1900 C 175.905 -0.410893 -6.31264 0
M  V30 1901 C 174.569 -0.639808 -6.64427 0
M  V30 1902 H 173.839 0.32231 -0.667231 0
M  V30 1903 H 176.486 0.145402 -1.90947 0
M  V30 1904 H 174.791 2.50903 -3.00923 0
M  V30 1905 H 176.488 2.26091 -3.31186 0
M  V30 1906 H 173.078 1.09357 -4.14414 0
M  V30 1907 H 177.262 0.515228 -4.93618 0
M  V30 1908 H 172.518 -0.27503 -6.10781 0
M  V30 1909 H 176.692 -0.847494 -6.91224 0
M  V30 1910 H 174.319 -1.24864 -7.49875 0
M  V30 1911 N 175.894 1.51508 0.433938 0
M  V30 1912 C 177.31 1.39759 0.770682 0
M  V30 1913 C 177.51 0.482594 1.95636 0
M  V30 1914 O 176.566 -0.0609691 2.52426 0
M  V30 1915 C 177.879 2.81851 1.04787 0
M  V30 1916 C 179.427 2.91025 1.1521 0
M  V30 1917 C 179.902 4.34032 1.46219 0
M  V30 1918 N 181.393 4.37154 1.53136 0
M  V30 1919 C 182.128 5.4484 1.78709 0
M  V30 1920 N 181.624 6.62682 2.02051 0
M  V30 1921 N 183.417 5.32324 1.80519 0
M  V30 1922 H 175.568 2.09548 -0.346892 0
M  V30 1923 H 177.831 0.943446 -0.0928074 0
M  V30 1924 H 177.537 3.50815 0.249304 0
M  V30 1925 H 177.411 3.21386 1.97461 0
M  V30 1926 H 179.798 2.22257 1.94128 0
M  V30 1927 H 179.879 2.54983 0.204281 0
M  V30 1928 H 179.523 5.03351 0.678274 0
M  V30 1929 H 179.453 4.6759 2.42212 0
M  V30 1930 H 181.944 3.52197 1.36987 0
M  V30 1931 H 182.257 7.40543 2.20943 0
M  V30 1932 H 180.602 6.65791 1.99366 0
M  V30 1933 H 183.793 4.39246 1.61805 0
M  V30 1934 H 183.966 6.16328 2.00111 0
M  V30 1935 N 177.372 -0.689602 1.41712 0
M  V30 1936 C 178.621 -1.44534 1.40686 0
M  V30 1937 C 178.934 -1.95588 0.0213352 0
M  V30 1938 O 180.14 -2.71271 -0.111534 0
M  V30 1939 C 178.596 -2.61387 2.47396 0
M  V30 1940 C 178.204 -2.17094 3.91885 0
M  V30 1941 C 179.948 -3.38986 2.55517 0
M  V30 1942 C 177.855 -3.3094 4.90135 0
M  V30 1943 H 176.785 -0.542925 0.52321 0
M  V30 1944 H 179.436 -0.748054 1.6756 0
M  V30 1945 H 177.818 -3.33412 2.13664 0
M  V30 1946 H 178.992 -1.52318 4.34897 0
M  V30 1947 H 177.307 -1.52473 3.8748 0
M  V30 1948 H 179.904 -4.23747 3.26102 0
M  V30 1949 H 180.247 -3.84578 1.59391 0
M  V30 1950 H 180.78 -2.74021 2.8837 0
M  V30 1951 H 177.519 -2.90355 5.87685 0
M  V30 1952 H 177.039 -3.94546 4.51767 0
M  V30 1953 H 178.718 -3.9663 5.11169 0
M  V30 1954 N 178.85 -1.27639 -0.924453 0
M  V30 1955 C 180.099 -1.13549 -1.66702 0
M  V30 1956 C 180.412 0.317487 -1.93006 0
M  V30 1957 O 181.618 0.579333 -2.65247 0
M  V30 1958 C 180.074 -1.98426 -3.00259 0
M  V30 1959 C 179.682 -3.484 -2.81641 0
M  V30 1960 C 181.426 -1.92993 -3.78092 0
M  V30 1961 C 179.333 -4.25464 -4.10773 0
M  V30 1962 H 178.263 -0.421351 -0.625283 0
M  V30 1963 H 180.914 -1.52085 -1.02676 0
M  V30 1964 H 179.296 -1.52736 -3.6536 0
M  V30 1965 H 180.47 -4.01973 -2.25287 0
M  V30 1966 H 178.785 -3.55245 -2.17232 0
M  V30 1967 H 181.382 -2.47844 -4.7379 0
M  V30 1968 H 181.725 -0.904281 -4.0636 0
M  V30 1969 H 182.258 -2.36595 -3.19793 0
M  V30 1970 H 178.997 -5.28566 -3.87683 0
M  V30 1971 H 178.517 -3.76667 -4.66779 0
M  V30 1972 H 180.196 -4.34812 -4.79111 0
M  V30 1973 N 180.328 1.1314 -1.09713 0
M  V30 1974 C 181.278 2.16709 -0.708593 0
M  V30 1975 C 182.262 1.58471 0.278523 0
M  V30 1976 O 183.454 1.76779 0.088427 0
M  V30 1977 C 180.583 3.43039 -0.133923 0
M  V30 1978 C 179.669 4.08277 -1.14763 0
M  V30 1979 N 180.06 4.48637 -2.33577 0
M  V30 1980 C 178.358 4.34954 -0.986446 0
M  V30 1981 C 179.059 4.9952 -2.98085 0
M  V30 1982 N 178.035 4.94561 -2.25632 0
M  V30 1983 H 181.837 2.45672 -1.61315 0
M  V30 1984 H 179.351 1.29967 -0.973775 0
M  V30 1985 H 181.348 4.16583 0.162465 0
M  V30 1986 H 180.008 3.15549 0.765447 0
M  V30 1987 H 181.019 4.41246 -2.7115 0
M  V30 1988 H 177.696 4.17258 -0.142008 0
M  V30 1989 H 179.086 5.40521 -3.99108 0
M  V30 1990 N 181.806 0.884767 1.30421 0
M  V30 1991 C 182.716 0.355398 2.31892 0
M  V30 1992 C 183.732 -0.542261 1.65335 0
M  V30 1993 O 184.908 -0.435432 1.96637 0
M  V30 1994 C 181.973 -0.421661 3.44126 0
M  V30 1995 C 181.034 0.505727 4.26311 0
M  V30 1996 C 180.267 -0.234343 5.33185 0
M  V30 1997 O 180.49 -1.46045 5.51386 0
M  V30 1998 O 179.424 0.415443 6.00465 0
M  V30 1999 H 183.25 1.19685 2.79122 0
M  V30 2000 H 180.835 0.648596 1.34587 0
M  V30 2001 H 182.717 -0.861641 4.12497 0
M  V30 2002 H 181.392 -1.23942 2.99032 0
M  V30 2003 H 180.299 0.994513 3.60639 0
M  V30 2004 H 181.632 1.28948 4.75009 0
M  V30 2005 N 183.284 -1.43765 0.645699 0
M  V30 2006 C 184.512 -2.06253 0.163556 0
M  V30 2007 C 184.927 -1.48352 -1.16778 0
M  V30 2008 O 184.284 -0.611932 -1.71935 0
M  V30 2009 C 184.335 -3.61453 0.0583186 0
M  V30 2010 O 184.056 -4.172 1.33702 0
M  V30 2011 C 185.557 -4.41002 -0.450795 0
M  V30 2012 H 182.777 -0.665413 0.0864077 0
M  V30 2013 H 185.321 -1.84396 0.884222 0
M  V30 2014 H 183.476 -3.82522 -0.612865 0
M  V30 2015 H 183.89 -5.10791 1.19131 0
M  V30 2016 H 185.364 -5.49966 -0.473403 0
M  V30 2017 H 185.841 -4.13488 -1.48068 0
M  V30 2018 H 186.447 -4.24886 0.187637 0
M  V30 2019 N 184.763 -0.387143 -1.52771 0
M  V30 2020 C 185.726 0.436939 -2.24997 0
M  V30 2021 C 186.726 0.991991 -1.26555 0
M  V30 2022 O 187.916 0.874335 -1.50669 0
M  V30 2023 C 185.048 1.61281 -3.00335 0
M  V30 2024 H 186.241 -0.195365 -2.99263 0
M  V30 2025 H 183.794 -0.139218 -1.55679 0
M  V30 2026 H 184.529 2.2826 -2.30364 0
M  V30 2027 H 184.314 1.22154 -3.72587 0
M  V30 2028 H 185.804 2.19629 -3.5518 0
M  V30 2029 N 186.241 1.57166 -0.116904 0
M  V30 2030 C 187.487 1.95412 0.542405 0
M  V30 2031 C 187.82 1.00019 1.66463 0
M  V30 2032 O 187.095 0.0370346 1.94465 0
M  V30 2033 C 187.378 3.43615 1.07708 0
M  V30 2034 C 187.231 4.49781 -0.0415868 0
M  V30 2035 C 188.55 3.93616 1.96861 0
M  V30 2036 H 185.669 0.710543 0.195696 0
M  V30 2037 H 188.311 1.89027 -0.192038 0
M  V30 2038 H 186.461 3.49187 1.70296 0
M  V30 2039 H 188.133 4.56308 -0.676793 0
M  V30 2040 H 186.376 4.28033 -0.705019 0
M  V30 2041 H 187.047 5.50733 0.373717 0
M  V30 2042 H 189.523 3.90335 1.44146 0
M  V30 2043 H 188.399 4.97838 2.3119 0
M  V30 2044 H 188.66 3.34188 2.89432 0
M  V30 2045 N 187.719 -0.156864 1.56817 0
M  V30 2046 C 188.967 -0.869404 1.82444 0
M  V30 2047 C 189.288 -1.82147 0.69623 0
M  V30 2048 O 188.558 -1.93847 -0.28287 0
M  V30 2049 H 187.138 -0.324043 0.673056 0
M  V30 2050 H 189.8 -0.153224 1.94297 0
M  V30 2051 H 188.896 -1.43761 2.77019 0
M  V30 2052 N 189.197 -1.51736 -0.425897 0
M  V30 2053 C 190.13 -1.68574 -1.53812 0
M  V30 2054 C 191.108 -0.53328 -1.53606 0
M  V30 2055 O 192.292 -0.758555 -1.72564 0
M  V30 2056 C 189.419 -1.70977 -2.92377 0
M  V30 2057 C 188.465 -2.92324 -3.10563 0
M  V30 2058 S 189.298 -4.52952 -2.85648 0
M  V30 2059 C 190.454 -4.58117 -4.26474 0
M  V30 2060 H 190.687 -2.62647 -1.39298 0
M  V30 2061 H 188.22 -1.41564 -0.616361 0
M  V30 2062 H 190.178 -1.73047 -3.72243 0
M  V30 2063 H 188.839 -0.78061 -3.04245 0
M  V30 2064 H 188.032 -2.90439 -4.11899 0
M  V30 2065 H 187.634 -2.88055 -2.38538 0
M  V30 2066 H 189.926 -4.34462 -5.19855 0
M  V30 2067 H 190.869 -5.59983 -4.33388 0
M  V30 2068 H 191.277 -3.8732 -4.10662 0
M  V30 2069 N 190.675 0.682077 -1.42076 0
M  V30 2070 C 191.623 1.81707 -1.45208 0
M  V30 2071 C 192.617 1.66183 -0.328591 0
M  V30 2072 O 193.823 1.7288 -0.501264 0
M  V30 2073 H 190.198 0.599014 -0.454628 0
M  V30 2074 H 192.169 1.76183 -2.40836 0
M  V30 2075 C 190.918 3.19816 -1.36428 0
M  V30 2076 H 190.241 3.32385 -2.22171 0
M  V30 2077 H 191.681 3.99272 -1.42681 0
M  V30 2078 C 190.14 3.36809 -0.078191 0
M  V30 2079 O 190.67 3.92124 0.87188 0
M  V30 2080 N 188.876 2.906 0.00229266 0
M  V30 2081 H 188.423 2.45772 -0.771616 0
M  V30 2082 H 188.381 3.02347 0.862179 0
M  V30 2083 N 192.153 1.28127 0.917671 0
M  V30 2084 C 193.4 1.15052 1.66641 0
M  V30 2085 C 193.728 -0.301677 1.92146 0
M  V30 2086 O 192.983 -1.23622 1.51711 0
M  V30 2087 C 193.282 1.89018 3.03327 0
M  V30 2088 C 192.948 3.38832 2.97496 0
M  V30 2089 C 191.61 3.79693 2.95613 0
M  V30 2090 C 193.962 4.34378 2.88036 0
M  V30 2091 C 191.29 5.14447 2.82066 0
M  V30 2092 C 193.642 5.69201 2.7603 0
M  V30 2093 C 192.306 6.09343 2.72502 0
M  V30 2094 H 191.576 0.421006 0.609783 0
M  V30 2095 H 194.223 1.58855 1.06945 0
M  V30 2096 H 192.528 1.37752 3.66785 0
M  V30 2097 H 194.225 1.76321 3.60156 0
M  V30 2098 H 190.815 3.06342 2.99754 0
M  V30 2099 H 194.999 4.03775 2.88581 0
M  V30 2100 H 190.255 5.44681 2.77728 0
M  V30 2101 H 194.429 6.42901 2.67678 0
M  V30 2102 H 192.056 7.13712 2.61762 0
M  V30 2103 N 193.631 -1.12557 1.10312 0
M  V30 2104 C 194.561 -2.20341 0.772798 0
M  V30 2105 C 195.542 -1.68198 -0.25365 0
M  V30 2106 O 196.727 -1.93831 -0.119699 0
M  V30 2107 C 193.857 -3.46709 0.202443 0
M  V30 2108 C 192.811 -4.11996 1.15943 0
M  V30 2109 C 192.137 -5.328 0.450345 0
M  V30 2110 C 193.437 -4.5828 2.50552 0
M  V30 2111 H 195.131 -2.48229 1.674 0
M  V30 2112 H 192.677 -1.19308 0.806326 0
M  V30 2113 H 194.63 -4.2138 -0.0407752 0
M  V30 2114 H 193.354 -3.18245 -0.734001 0
M  V30 2115 H 192.013 -3.39305 1.38808 0
M  V30 2116 H 191.661 -5.00602 -0.490531 0
M  V30 2117 H 191.361 -5.7743 1.08851 0
M  V30 2118 H 192.885 -6.10219 0.215642 0
M  V30 2119 H 194.299 -5.2433 2.31843 0
M  V30 2120 H 192.696 -5.13683 3.10242 0
M  V30 2121 H 193.766 -3.72329 3.10643 0
M  V30 2122 N 195.109 -0.891671 -1.2995 0
M  V30 2123 C 196.059 -0.334811 -2.25528 0
M  V30 2124 C 197.043 0.540553 -1.51548 0
M  V30 2125 O 198.235 0.383882 -1.72787 0
M  V30 2126 C 195.364 0.44374 -3.4042 0
M  V30 2127 C 194.45 -0.44609 -4.21747 0
M  V30 2128 N 194.841 -1.54963 -4.81477 0
M  V30 2129 C 193.139 -0.242415 -4.45341 0
M  V30 2130 C 193.84 -2.10015 -5.42465 0
M  V30 2131 N 192.816 -1.39423 -5.25416 0
M  V30 2132 H 196.618 -1.17792 -2.69262 0
M  V30 2133 H 194.132 -0.741822 -1.44467 0
M  V30 2134 H 196.129 0.859362 -4.07947 0
M  V30 2135 H 194.789 1.28421 -2.98225 0
M  V30 2136 H 195.8 -1.93244 -4.80497 0
M  V30 2137 H 192.477 0.560342 -4.13723 0
M  V30 2138 H 193.867 -3.02724 -5.9984 0
M  V30 2139 N 196.587 1.43421 -0.653314 0
M  V30 2140 C 197.827 2.03689 -0.170346 0
M  V30 2141 C 198.191 1.50427 1.19314 0
M  V30 2142 O 199.392 2.0234 1.76952 0
M  V30 2143 C 197.663 3.56946 -0.180183 0
M  V30 2144 S 199.222 4.38171 0.234925 0
M  V30 2145 H 196.04 0.707345 -0.0719976 0
M  V30 2146 H 198.642 1.75486 -0.86167 0
M  V30 2147 H 197.346 3.93212 -1.17526 0
M  V30 2148 H 196.877 3.89791 0.531675 0
M  V30 2149 H 198.892 4.73808 1.47378 0
M  V30 2150 N 198.065 0.39524 1.52563 0
M  V30 2151 C 198.998 -0.4813 2.23067 0
M  V30 2152 C 199.976 -1.05927 1.23362 0
M  V30 2153 O 201.16 -1.10979 1.52368 0
M  V30 2154 C 198.287 -1.66676 2.9485 0
M  V30 2155 C 197.333 -1.21348 4.08873 0
M  V30 2156 S 198.166 -0.190102 5.35162 0
M  V30 2157 C 199.322 -1.38121 6.1047 0
M  V30 2158 H 199.555 0.117381 2.97068 0
M  V30 2159 H 197.088 0.179458 1.53354 0
M  V30 2160 H 199.046 -2.3466 3.36816 0
M  V30 2161 H 197.707 -2.23676 2.20518 0
M  V30 2162 H 196.9 -2.09877 4.58222 0
M  V30 2163 H 196.502 -0.612486 3.68951 0
M  V30 2164 H 198.794 -2.30726 6.37002 0
M  V30 2165 H 199.737 -0.928521 7.01986 0
M  V30 2166 H 200.145 -1.60071 5.41329 0
M  V30 2167 N 199.544 -1.57102 0.125237 0
M  V30 2168 C 200.507 -2.14471 -0.80838 0
M  V30 2169 C 201.507 -1.0811 -1.19033 0
M  V30 2170 O 202.697 -1.33856 -1.11482 0
M  V30 2171 C 199.829 -2.69005 -2.09402 0
M  V30 2172 H 201.022 -2.98297 -0.309696 0
M  V30 2173 H 198.575 -1.55807 -0.124051 0
M  V30 2174 H 199.31 -1.88785 -2.63687 0
M  V30 2175 H 199.095 -3.46799 -1.82957 0
M  V30 2176 H 200.585 -3.13278 -2.76128 0
M  V30 2177 N 201.022 0.148545 -1.56898 0
M  V30 2178 C 202.433 0.708766 -1.72723 0
M  V30 2179 C 202.784 1.81734 -0.739395 0
M  V30 2180 O 201.909 2.16194 0.0943169 0
M  V30 2181 C 202.504 1.29245 -3.13179 0
M  V30 2182 C 201.063 1.79925 -3.30611 0
M  V30 2183 C 200.21 0.687111 -2.68652 0
M  V30 2184 H 203.161 -0.0771063 -1.58513 0
M  V30 2185 H 203.182 2.16224 -3.13093 0
M  V30 2186 H 202.694 0.485382 -3.85053 0
M  V30 2187 H 200.795 2.63203 -2.63732 0
M  V30 2188 H 200.908 1.92903 -4.38549 0
M  V30 2189 H 199.272 1.11335 -2.29078 0
M  V30 2190 H 200.055 -0.108483 -3.43129 0
M  V30 2191 N 202.5 1.5196 0.417844 0
M  V30 2192 C 203.911 1.57851 0.997 0
M  V30 2193 C 204.262 0.413714 1.91789 0
M  V30 2194 O 203.387 -0.467057 2.113 0
M  V30 2195 C 203.982 2.86085 1.81496 0
M  V30 2196 C 202.541 2.94483 2.34428 0
M  V30 2197 C 201.688 2.52707 1.14169 0
M  V30 2198 H 204.639 1.57455 0.198392 0
M  V30 2199 H 204.66 2.70947 2.67148 0
M  V30 2200 H 204.172 3.70842 1.14446 0
M  V30 2201 H 202.273 2.142 3.04875 0
M  V30 2202 H 202.386 3.98546 2.65891 0
M  V30 2203 H 200.75 2.06353 1.49301 0
M  V30 2204 H 201.533 3.39828 0.486999 0
M  V30 2205 N 203.978 -0.674533 1.42435 0
M  V30 2206 C 204.908 -1.80009 1.48724 0
M  V30 2207 C 205.889 -1.6659 0.343793 0
M  V30 2208 O 207.074 -1.86007 0.558137 0
M  V30 2209 C 204.204 -3.18306 1.38919 0
M  V30 2210 C 203.158 -3.46461 2.51294 0
M  V30 2211 C 202.484 -4.84335 2.26547 0
M  V30 2212 C 203.784 -3.43328 3.93603 0
M  V30 2213 H 205.478 -1.75004 2.42928 0
M  V30 2214 H 203.024 -0.840533 1.16923 0
M  V30 2215 H 204.977 -3.9678 1.41927 0
M  V30 2216 H 203.701 -3.2399 0.412094 0
M  V30 2217 H 202.36 -2.70348 2.47604 0
M  V30 2218 H 202.008 -4.86669 1.2713 0
M  V30 2219 H 201.708 -5.04136 3.01861 0
M  V30 2220 H 203.232 -5.65094 2.31304 0
M  V30 2221 H 204.646 -4.11772 3.98894 0
M  V30 2222 H 203.043 -3.74664 4.68771 0
M  V30 2223 H 204.113 -2.41897 4.20255 0
M  V30 2224 N 205.456 -1.28612 -0.910864 0
M  V30 2225 C 206.386 -1.15326 -2.03032 0
M  V30 2226 C 207.367 -0.0502924 -1.70026 0
M  V30 2227 O 208.552 -0.227797 -1.92859 0
M  V30 2228 C 205.682 -0.817343 -3.37545 0
M  V30 2229 C 204.636 -1.8754 -3.84724 0
M  V30 2230 C 203.962 -1.39305 -5.16235 0
M  V30 2231 C 205.262 -3.28244 -4.06267 0
M  V30 2232 H 206.956 -2.08975 -2.14406 0
M  V30 2233 H 204.502 -1.00612 -1.03021 0
M  V30 2234 H 206.455 -0.711151 -4.15356 0
M  V30 2235 H 205.179 0.154846 -3.26233 0
M  V30 2236 H 203.838 -1.97079 -3.09121 0
M  V30 2237 H 203.486 -0.409846 -5.01328 0
M  V30 2238 H 203.186 -2.10057 -5.48771 0
M  V30 2239 H 204.71 -1.30014 -5.96598 0
M  V30 2240 H 206.124 -3.21611 -4.74594 0
M  V30 2241 H 204.521 -3.96855 -4.5014 0
M  V30 2242 H 205.591 -3.72048 -3.10979 0
M  V30 2243 N 206.934 1.1197 -1.10907 0
M  V30 2244 C 207.884 2.15946 -0.731538 0
M  V30 2245 C 208.868 1.58758 0.261699 0
M  V30 2246 O 210.06 1.76863 0.0696722 0
M  V30 2247 C 207.189 3.42877 -0.170299 0
M  V30 2248 C 206.275 4.07037 -1.19087 0
M  V30 2249 N 206.666 4.46135 -2.38322 0
M  V30 2250 C 204.964 4.33884 -1.03252 0
M  V30 2251 C 205.665 4.96331 -3.03366 0
M  V30 2252 N 204.641 4.9214 -2.30865 0
M  V30 2253 H 208.443 2.43947 -1.63912 0
M  V30 2254 H 205.957 1.28927 -0.987505 0
M  V30 2255 H 207.954 4.16732 0.118271 0
M  V30 2256 H 206.614 3.16343 0.731935 0
M  V30 2257 H 207.625 4.38345 -2.75815 0
M  V30 2258 H 204.302 4.17084 -0.186256 0
M  V30 2259 H 205.692 5.36257 -4.04818 0
M  V30 2260 N 208.412 0.89855 1.29475 0
M  V30 2261 C 209.342 0.39201 2.30186 0
M  V30 2262 C 210.323 -0.532359 1.61555 0
M  V30 2263 O 211.508 -0.443331 1.89072 0
M  V30 2264 C 208.638 -0.382353 3.45189 0
M  V30 2265 C 207.592 0.451483 4.25612 0
M  V30 2266 C 206.918 -0.450307 5.328 0
M  V30 2267 C 208.218 1.70079 4.93832 0
M  V30 2268 H 209.912 1.23362 2.72804 0
M  V30 2269 H 207.458 0.594638 1.31149 0
M  V30 2270 H 209.411 -0.747451 4.14718 0
M  V30 2271 H 208.135 -1.25774 3.01411 0
M  V30 2272 H 206.794 0.798897 3.57789 0
M  V30 2273 H 206.442 -1.32379 4.85268 0
M  V30 2274 H 206.142 0.103902 5.87508 0
M  V30 2275 H 207.666 -0.811623 6.05182 0
M  V30 2276 H 209.08 1.40549 5.55805 0
M  V30 2277 H 207.477 2.19623 5.58467 0
M  V30 2278 H 208.547 2.43744 4.19186 0
M  V30 2279 N 209.89 -1.43072 0.660911 0
M  V30 2280 C 211.167 -1.95307 0.107017 0
M  V30 2281 C 211.547 -1.60192 -1.37484 0
M  V30 2282 O 210.895 -0.890949 -2.10415 0
M  V30 2283 C 211.105 -3.47124 0.361402 0
M  V30 2284 C 212.453 -4.23738 0.270455 0
M  V30 2285 O 213.477 -3.54981 0.294382 0
M  V30 2286 O 212.336 -5.46131 0.200737 0
M  V30 2287 H 209.43 -0.826984 -0.00517729 0
M  V30 2288 H 211.976 -1.52972 0.734681 0
M  V30 2289 H 210.748 -3.65837 1.38848 0
M  V30 2290 H 210.371 -3.96475 -0.298953 0
M  V30 2291 N 211.368 -0.403325 -1.52352 0
M  V30 2292 C 212.298 0.416205 -2.29761 0
M  V30 2293 C 213.279 1.05123 -1.33728 0
M  V30 2294 O 214.464 1.06134 -1.62632 0
M  V30 2295 C 211.594 1.53624 -3.11475 0
M  V30 2296 C 210.548 1.02653 -4.15507 0
M  V30 2297 C 209.874 2.23971 -4.85532 0
M  V30 2298 C 211.174 0.08463 -5.22231 0
M  V30 2299 H 212.868 -0.229701 -2.98518 0
M  V30 2300 H 210.414 -0.111913 -1.43564 0
M  V30 2301 H 212.367 2.1165 -3.64393 0
M  V30 2302 H 211.091 2.20994 -2.40477 0
M  V30 2303 H 209.75 0.46871 -3.63591 0
M  V30 2304 H 209.398 2.89883 -4.11068 0
M  V30 2305 H 209.098 1.90521 -5.55856 0
M  V30 2306 H 210.622 2.82614 -5.41259 0
M  V30 2307 H 212.036 0.573509 -5.70424 0
M  V30 2308 H 210.433 -0.160783 -5.99885 0
M  V30 2309 H 211.503 -0.86237 -4.7717 0
M  V30 2310 N 212.846 1.57033 -0.133567 0
M  V30 2311 C 213.793 2.16074 0.811208 0
M  V30 2312 C 214.763 1.08979 1.2535 0
M  V30 2313 O 215.948 1.36958 1.32843 0
M  V30 2314 C 213.088 2.77595 2.05024 0
M  V30 2315 C 212.201 3.99042 1.65498 0
M  V30 2316 C 211.336 4.48603 2.84479 0
M  V30 2317 C 210.375 5.62547 2.41262 0
M  V30 2318 N 209.512 6.06787 3.53206 0
M  V30 2319 H 214.352 2.96477 0.300906 0
M  V30 2320 H 211.889 1.46462 0.136822 0
M  V30 2321 H 213.847 3.11402 2.77642 0
M  V30 2322 H 212.477 1.99859 2.53488 0
M  V30 2323 H 211.529 3.71302 0.826981 0
M  V30 2324 H 212.841 4.81629 1.29748 0
M  V30 2325 H 211.995 4.84395 3.65303 0
M  V30 2326 H 210.734 3.64995 3.23465 0
M  V30 2327 H 209.739 5.26345 1.58874 0
M  V30 2328 H 210.964 6.47931 2.03377 0
M  V30 2329 H 208.91 5.26117 3.91838 0
M  V30 2330 H 208.827 6.84266 3.21427 0
M  V30 2331 H 210.095 6.4722 4.34427 0
M  V30 2332 N 214.325 -0.140222 1.56975 0
M  V30 2333 C 215.736 -0.699596 1.73097 0
M  V30 2334 C 216.087 -1.8134 0.749022 0
M  V30 2335 O 215.212 -2.16241 -0.0828503 0
M  V30 2336 C 215.807 -1.27582 3.1386 0
M  V30 2337 C 214.366 -1.78169 3.31561 0
M  V30 2338 C 213.513 -0.672855 2.69013 0
M  V30 2339 H 216.464 0.0855115 1.58469 0
M  V30 2340 H 216.485 -2.14561 3.14235 0
M  V30 2341 H 215.997 -0.464955 3.85305 0
M  V30 2342 H 214.098 -2.61801 2.65124 0
M  V30 2343 H 214.211 -1.90574 4.39566 0
M  V30 2344 H 212.575 -1.10118 2.29665 0
M  V30 2345 H 213.358 0.126679 3.43066 0
M  V30 2346 N 215.803 -1.52179 -0.40978 0
M  V30 2347 C 216.766 -1.74853 -1.48186 0
M  V30 2348 C 217.766 -0.618417 -1.48433 0
M  V30 2349 O 218.956 -0.886286 -1.49969 0
M  V30 2350 C 216.088 -1.8303 -2.87598 0
M  V30 2351 H 217.281 -2.70559 -1.29374 0
M  V30 2352 H 214.834 -1.42586 -0.640233 0
M  V30 2353 H 215.569 -0.89236 -3.11781 0
M  V30 2354 H 215.354 -2.65187 -2.88822 0
M  V30 2355 H 216.844 -2.02316 -3.65319 0
M  V30 2356 N 217.281 0.66697 -1.42791 0
M  V30 2357 C 218.229 1.80157 -1.47127 0
M  V30 2358 C 219.223 1.65825 -0.346199 0
M  V30 2359 O 220.429 1.72338 -0.519572 0
M  V30 2360 H 216.804 0.594158 -0.460956 0
M  V30 2361 H 218.775 1.73619 -2.42692 0
M  V30 2362 C 217.524 3.18351 -1.39813 0
M  V30 2363 H 216.847 3.3001 -2.25684 0
M  V30 2364 H 218.287 3.97736 -1.46908 0
M  V30 2365 C 216.746 3.36707 -0.11391 0
M  V30 2366 O 217.276 3.93027 0.830241 0
M  V30 2367 N 215.482 2.90586 -0.0285295 0
M  V30 2368 H 215.029 2.4494 -0.79764 0
M  V30 2369 H 214.987 3.03245 0.830063 0
M  V30 2370 N 218.759 1.29093 0.90403 0
M  V30 2371 C 220.008 1.16187 1.64874 0
M  V30 2372 C 220.321 -0.286742 1.93487 0
M  V30 2373 O 221.527 -0.537062 2.66135 0
M  V30 2374 C 219.983 2.03177 2.97064 0
M  V30 2375 C 219.591 3.52836 2.76062 0
M  V30 2376 C 221.335 1.98984 3.74974 0
M  V30 2377 C 219.242 4.31945 4.03952 0
M  V30 2378 H 218.172 0.431246 0.618501 0
M  V30 2379 H 220.823 1.53699 1.00243 0
M  V30 2380 H 219.205 1.5853 3.62883 0
M  V30 2381 H 220.379 4.05507 2.18863 0
M  V30 2382 H 218.694 3.58656 2.11553 0
M  V30 2383 H 221.291 2.55351 4.69787 0
M  V30 2384 H 221.634 0.968815 4.0487 0
M  V30 2385 H 222.167 2.41652 3.15989 0
M  V30 2386 H 218.906 5.34667 3.79225 0
M  V30 2387 H 218.426 3.84045 4.60727 0
M  V30 2388 H 220.105 4.42379 4.72133 0
M  V30 2389 N 220.237 -1.11381 1.11499 0
M  V30 2390 C 221.167 -2.19509 0.796125 0
M  V30 2391 C 222.148 -1.68458 -0.235796 0
M  V30 2392 O 223.333 -1.93947 -0.0991344 0
M  V30 2393 C 220.463 -3.46475 0.239205 0
M  V30 2394 C 219.417 -4.10744 1.20307 0
M  V30 2395 C 218.743 -5.32293 0.50683 0
M  V30 2396 C 220.043 -4.55597 2.55399 0
M  V30 2397 H 221.737 -2.46439 1.70024 0
M  V30 2398 H 219.283 -1.18446 0.818935 0
M  V30 2399 H 221.236 -4.214 0.00392006 0
M  V30 2400 H 219.96 -3.19006 -0.700206 0
M  V30 2401 H 218.619 -3.37813 1.42399 0
M  V30 2402 H 218.267 -5.01095 -0.437408 0
M  V30 2403 H 217.967 -5.76243 1.1497 0
M  V30 2404 H 219.491 -6.09956 0.280351 0
M  V30 2405 H 220.905 -5.21841 2.37391 0
M  V30 2406 H 219.302 -5.10363 3.15673 0
M  V30 2407 H 220.372 -3.69013 3.14575 0
M  V30 2408 N 221.715 -0.905404 -1.28997 0
M  V30 2409 C 222.645 -0.404212 -2.29975 0
M  V30 2410 C 223.626 0.523784 -1.61835 0
M  V30 2411 O 224.811 0.433298 -1.89304 0
M  V30 2412 C 221.941 0.364042 -3.45387 0
M  V30 2413 C 220.895 -0.474048 -4.25367 0
M  V30 2414 C 220.221 0.422045 -5.33032 0
M  V30 2415 C 221.521 -1.72696 -4.92923 0
M  V30 2416 H 223.215 -1.24807 -2.72146 0
M  V30 2417 H 220.761 -0.601585 -1.30832 0
M  V30 2418 H 222.714 0.725447 -4.15109 0
M  V30 2419 H 221.438 1.24174 -3.02074 0
M  V30 2420 H 220.097 -0.81786 -3.57361 0
M  V30 2421 H 219.745 1.29804 -4.85963 0
M  V30 2422 H 219.445 -0.135057 -5.87445 0
M  V30 2423 H 220.969 0.779517 -6.05604 0
M  V30 2424 H 222.383 -1.43495 -5.55051 0
M  V30 2425 H 220.78 -2.22582 -5.57295 0
M  V30 2426 H 221.85 -2.45964 -4.17887 0
M  V30 2427 N 223.193 1.4272 -0.668489 0
M  V30 2428 C 224.47 1.95248 -0.117373 0
M  V30 2429 C 224.85 1.60919 1.36632 0
M  V30 2430 O 224.198 0.902095 2.09939 0
M  V30 2431 C 224.408 3.46927 -0.379806 0
M  V30 2432 C 225.756 4.23588 -0.292923 0
M  V30 2433 O 226.78 3.5482 -0.313204 0
M  V30 2434 O 225.639 5.46017 -0.229697 0
M  V30 2435 H 222.733 0.827 0.00079152 0
M  V30 2436 H 225.279 1.52581 -0.742783 0
M  V30 2437 H 224.051 3.65096 -1.40786 0
M  V30 2438 H 223.674 3.96627 0.277923 0
M  V30 2439 N 224.671 0.411399 1.52136 0
M  V30 2440 C 225.634 -0.401089 2.25663 0
M  V30 2441 C 226.634 -0.971732 1.28117 0
M  V30 2442 O 227.824 -0.850254 1.52041 0
M  V30 2443 C 224.956 -1.56483 3.02863 0
M  V30 2444 H 226.149 0.24295 2.98914 0
M  V30 2445 H 223.702 0.163968 1.55438 0
M  V30 2446 H 224.437 -2.24567 2.33967 0
M  V30 2447 H 224.222 -1.16211 3.74483 0
M  V30 2448 H 225.712 -2.13951 3.58629 0
M  V30 2449 N 226.149 -1.5696 0.141893 0
M  V30 2450 C 227.099 -2.13074 -0.811383 0
M  V30 2451 C 228.083 -1.05726 -1.21288 0
M  V30 2452 O 229.275 -1.31914 -1.18015 0
M  V30 2453 C 226.404 -2.75186 -2.0525 0
M  V30 2454 C 225.49 -3.8965 -1.67432 0
M  V30 2455 N 225.881 -4.95733 -1.0041 0
M  V30 2456 C 224.179 -4.00262 -1.96739 0
M  V30 2457 C 224.88 -5.75858 -0.822345 0
M  V30 2458 N 223.856 -5.26452 -1.3546 0
M  V30 2459 H 227.658 -2.92465 -0.290031 0
M  V30 2460 H 225.172 -1.6229 -0.0598218 0
M  V30 2461 H 227.169 -3.13745 -2.74535 0
M  V30 2462 H 225.829 -1.97266 -2.57907 0
M  V30 2463 H 226.84 -5.13607 -0.665441 0
M  V30 2464 H 223.517 -3.33412 -2.51282 0
M  V30 2465 H 224.907 -6.71254 -0.294496 0
M  V30 2466 N 227.627 0.131896 -1.57047 0
M  V30 2467 C 228.857 0.855219 -1.88068 0
M  V30 2468 C 229.265 1.74557 -0.729817 0
M  V30 2469 O 228.608 1.81083 0.308962 0
M  V30 2470 C 228.67 1.75119 -3.13964 0
M  V30 2471 C 228.334 1.03646 -4.45091 0
M  V30 2472 C 229.331 0.383276 -5.18485 0
M  V30 2473 C 227.016 1.02148 -4.91804 0
M  V30 2474 C 229.01 -0.275347 -6.36805 0
M  V30 2475 C 226.697 0.359047 -6.10044 0
M  V30 2476 C 227.695 -0.288222 -6.82392 0
M  V30 2477 O 227.383 -0.94011 -7.98384 0
M  V30 2478 H 227.115 0.251864 -0.627328 0
M  V30 2479 H 229.669 0.124782 -2.05021 0
M  V30 2480 H 227.899 2.52295 -2.9306 0
M  V30 2481 H 229.588 2.3478 -3.31109 0
M  V30 2482 H 230.354 0.386562 -4.83457 0
M  V30 2483 H 226.233 1.5147 -4.35405 0
M  V30 2484 H 229.777 -0.781148 -6.93213 0
M  V30 2485 H 225.674 0.35348 -6.44531 0
M  V30 2486 H 226.442 -0.84329 -8.14144 0
M  V30 2487 N 229.106 1.52395 0.401703 0
M  V30 2488 C 230.056 1.72649 1.48917 0
M  V30 2489 C 231.04 0.580436 1.50066 0
M  V30 2490 O 232.232 0.83779 1.55917 0
M  V30 2491 C 229.361 1.88729 2.86769 0
M  V30 2492 C 228.447 3.09228 2.90239 0
M  V30 2493 N 228.838 4.31805 2.63396 0
M  V30 2494 C 227.136 3.09214 3.21408 0
M  V30 2495 C 227.837 5.13326 2.73625 0
M  V30 2496 N 226.813 4.48735 3.06819 0
M  V30 2497 H 230.615 2.65058 1.26971 0
M  V30 2498 H 228.129 1.50528 0.609504 0
M  V30 2499 H 230.126 2.01358 3.65049 0
M  V30 2500 H 228.786 0.975252 3.09708 0
M  V30 2501 H 229.797 4.60154 2.37653 0
M  V30 2502 H 226.474 2.27774 3.49893 0
M  V30 2503 H 227.864 6.21003 2.56524 0
M  V30 2504 N 230.584 -0.659388 1.43143 0
M  V30 2505 C 231.83 -1.42145 1.44647 0
M  V30 2506 C 232.163 -1.9408 0.0681907 0
M  V30 2507 O 231.438 -1.71899 -0.910007 0
M  V30 2508 C 231.721 -2.60735 2.48373 0
M  V30 2509 C 231.574 -2.14332 3.95451 0
M  V30 2510 C 232.893 -3.62951 2.48906 0
M  V30 2511 H 230.012 -0.51552 0.526696 0
M  V30 2512 H 232.654 -0.748069 1.74654 0
M  V30 2513 H 230.804 -3.18184 2.22916 0
M  V30 2514 H 232.476 -1.61932 4.31944 0
M  V30 2515 H 230.719 -1.4576 4.08578 0
M  V30 2516 H 231.39 -2.99583 4.63631 0
M  V30 2517 H 233.866 -3.1525 2.71582 0
M  V30 2518 H 232.742 -4.43487 3.23435 0
M  V30 2519 H 233.003 -4.15126 1.52061 0
M  V30 2520 N 232.062 -1.29571 -0.897171 0
M  V30 2521 C 233.009 -1.14916 -2.00158 0
M  V30 2522 C 233.979 -0.0418149 -1.66047 0
M  V30 2523 O 235.164 -0.209793 -1.89643 0
M  V30 2524 C 232.304 -0.834307 -3.34863 0
M  V30 2525 C 231.417 -2.02234 -3.8174 0
M  V30 2526 C 230.552 -1.64664 -5.05034 0
M  V30 2527 C 229.591 -2.80033 -5.44286 0
M  V30 2528 N 228.728 -2.42843 -6.58765 0
M  V30 2529 H 233.568 -2.09403 -2.12025 0
M  V30 2530 H 231.105 -1.042 -1.0383 0
M  V30 2531 H 233.063 -0.632436 -4.12379 0
M  V30 2532 H 231.693 0.0736656 -3.22716 0
M  V30 2533 H 230.745 -2.33583 -3.00238 0
M  V30 2534 H 232.057 -2.88673 -4.06779 0
M  V30 2535 H 231.211 -1.4078 -5.9014 0
M  V30 2536 H 229.95 -0.753766 -4.8184 0
M  V30 2537 H 228.955 -3.04596 -4.57713 0
M  V30 2538 H 230.18 -3.69989 -5.6946 0
M  V30 2539 H 228.126 -1.56046 -6.3717 0
M  V30 2540 H 228.043 -3.22815 -6.83613 0
M  V30 2541 H 229.311 -2.22285 -7.47134 0
M  V30 2542 N 233.54 1.10788 -1.12088 0
M  V30 2543 C 234.789 1.82036 -0.868659 0
M  V30 2544 C 235.102 1.85929 0.607426 0
M  V30 2545 O 236.308 2.53346 0.97613 0
M  V30 2546 C 234.764 3.26951 -1.50435 0
M  V30 2547 C 234.372 3.31367 -3.01496 0
M  V30 2548 C 236.116 4.03053 -1.33225 0
M  V30 2549 C 234.023 4.7072 -3.58017 0
M  V30 2550 H 232.953 0.682108 -0.321318 0
M  V30 2551 H 235.604 1.24618 -1.34694 0
M  V30 2552 H 233.986 3.84343 -0.953735 0
M  V30 2553 H 235.16 2.83819 -3.6302 0
M  V30 2554 H 233.475 2.6875 -3.18061 0
M  V30 2555 H 236.072 5.05981 -1.72878 0
M  V30 2556 H 236.415 4.15387 -0.275529 0
M  V30 2557 H 236.948 3.52066 -1.85188 0
M  V30 2558 H 233.687 4.63585 -4.63432 0
M  V30 2559 H 233.207 5.1865 -3.01268 0
M  V30 2560 H 234.886 5.39685 -3.56859 0
M  V30 2561 N 235.018 0.912232 1.28515 0
M  V30 2562 C 236.243 0.559774 1.99703 0
M  V30 2563 C 236.668 -0.851393 1.67729 0
M  V30 2564 O 236.026 -1.56875 0.908834 0
M  V30 2565 C 236.074 0.773874 3.52198 0
M  V30 2566 O 235.178 -0.167842 4.12058 0
M  V30 2567 H 234.519 0.21723 0.627461 0
M  V30 2568 H 237.049 1.22725 1.63706 0
M  V30 2569 H 237.059 0.683386 4.02236 0
M  V30 2570 H 235.734 1.80261 3.74805 0
M  V30 2571 H 234.311 -0.0287509 3.72889 0
M  V30 2572 N 236.496 -1.42363 0.676048 0
M  V30 2573 C 237.773 -1.95183 0.127726 0
M  V30 2574 C 238.153 -1.61641 -1.35777 0
M  V30 2575 O 237.501 -0.913216 -2.09458 0
M  V30 2576 C 237.711 -3.46721 0.398199 0
M  V30 2577 C 239.059 -4.23427 0.315383 0
M  V30 2578 O 240.083 -3.54649 0.332016 0
M  V30 2579 O 238.942 -5.45888 0.25865 0
M  V30 2580 H 236.036 -0.826992 0.00359427 0
M  V30 2581 H 238.582 -1.52184 0.750864 0
M  V30 2582 H 237.354 -3.64344 1.4272 0
M  V30 2583 H 236.977 -3.96769 -0.256885 0
M  V30 2584 N 237.974 -0.419461 -1.51915 0
M  V30 2585 C 239.221 0.152939 -2.01922 0
M  V30 2586 C 239.549 1.4426 -1.30458 0
M  V30 2587 O 238.804 1.91514 -0.402593 0
M  V30 2588 C 239.103 0.437067 -3.54717 0
M  V30 2589 C 238.769 -0.764632 -4.44369 0
M  V30 2590 C 237.431 -1.09423 -4.68594 0
M  V30 2591 C 239.783 -1.56713 -4.97082 0
M  V30 2592 C 237.111 -2.22732 -5.42777 0
M  V30 2593 C 239.463 -2.69107 -5.72507 0
M  V30 2594 C 238.127 -3.02541 -5.95 0
M  V30 2595 H 237.397 0.0559644 -0.738884 0
M  V30 2596 H 240.044 -0.562998 -1.83037 0
M  V30 2597 H 238.349 1.23469 -3.71837 0
M  V30 2598 H 240.046 0.893083 -3.90928 0
M  V30 2599 H 236.636 -0.497775 -4.257 0
M  V30 2600 H 240.82 -1.32571 -4.78266 0
M  V30 2601 H 236.076 -2.48971 -5.58411 0
M  V30 2602 H 240.25 -3.31671 -6.12346 0
M  V30 2603 H 237.877 -3.90457 -6.52264 0
M  V30 2604 N 239.452 1.56882 -0.150215 0
M  V30 2605 C 240.7 1.9584 0.499105 0
M  V30 2606 C 241.021 1.03623 1.65188 0
M  V30 2607 O 240.291 0.0984084 1.95653 0
M  V30 2608 H 238.871 0.723119 0.187373 0
M  V30 2609 H 241.533 1.9358 -0.226466 0
M  V30 2610 H 240.629 2.99638 0.873122 0
M  V30 2611 N 240.93 -0.123565 1.57115 0
M  V30 2612 C 241.86 -1.15309 2.03042 0
M  V30 2613 C 242.841 -1.43454 0.914061 0
M  V30 2614 O 244.026 -1.53973 1.18347 0
M  V30 2615 C 241.156 -2.48043 2.43089 0
M  V30 2616 C 240.11 -2.3437 3.58127 0
M  V30 2617 C 239.436 -3.72026 3.84059 0
M  V30 2618 C 240.736 -1.80804 4.90007 0
M  V30 2619 H 242.43 -0.771102 2.893 0
M  V30 2620 H 239.976 -0.369479 1.39179 0
M  V30 2621 H 241.929 -3.20311 2.73823 0
M  V30 2622 H 240.653 -2.88122 1.53796 0
M  V30 2623 H 239.312 -1.64551 3.27595 0
M  V30 2624 H 238.96 -4.09582 2.91979 0
M  V30 2625 H 238.66 -3.63732 4.6149 0
M  V30 2626 H 240.184 -4.45806 4.1724 0
M  V30 2627 H 241.598 -2.42886 5.19307 0
M  V30 2628 H 239.995 -1.83343 5.71407 0
M  V30 2629 H 241.065 -0.76528 4.78823 0
M  V30 2630 N 242.408 -1.52605 -0.393616 0
M  V30 2631 C 243.371 -1.76415 -1.46323 0
M  V30 2632 C 244.371 -0.634126 -1.47768 0
M  V30 2633 O 245.561 -0.902142 -1.4902 0
M  V30 2634 C 242.693 -1.8607 -2.85641 0
M  V30 2635 H 243.886 -2.71916 -1.26498 0
M  V30 2636 H 241.439 -1.43257 -0.625073 0
M  V30 2637 H 242.174 -0.925378 -3.10817 0
M  V30 2638 H 241.959 -2.68235 -2.85993 0
M  V30 2639 H 243.449 -2.06179 -3.63153 0
M  V30 2640 N 243.887 0.651787 -1.4349 0
M  V30 2641 C 244.834 1.76462 -1.4876 0
M  V30 2642 C 245.804 1.62641 -0.337189 0
M  V30 2643 O 246.989 1.82864 -0.544544 0
M  V30 2644 C 244.129 3.14623 -1.41796 0
M  V30 2645 C 243.242 3.39568 -2.67053 0
M  V30 2646 C 242.377 4.67585 -2.52068 0
M  V30 2647 C 241.416 4.85639 -3.72587 0
M  V30 2648 N 240.553 6.04915 -3.56402 0
M  V30 2649 H 245.393 1.71293 -2.43849 0
M  V30 2650 H 242.93 0.835889 -1.21043 0
M  V30 2651 H 244.888 3.94496 -1.35753 0
M  V30 2652 H 243.518 3.18859 -0.50288 0
M  V30 2653 H 242.57 2.53783 -2.8337 0
M  V30 2654 H 243.882 3.48795 -3.56572 0
M  V30 2655 H 243.036 5.55586 -2.4374 0
M  V30 2656 H 241.775 4.60681 -1.60075 0
M  V30 2657 H 240.78 3.96073 -3.81321 0
M  V30 2658 H 242.005 4.94372 -4.65589 0
M  V30 2659 H 239.951 5.9914 -2.67146 0
M  V30 2660 H 239.868 6.15106 -4.39524 0
M  V30 2661 H 241.136 6.95533 -3.51929 0
M  V30 2662 N 245.365 1.30045 0.890287 0
M  V30 2663 C 246.605 1.19839 1.65584 0
M  V30 2664 C 246.969 -0.244175 1.90441 0
M  V30 2665 O 248.17 -0.469378 2.6467 0
M  V30 2666 C 246.441 1.99876 2.96284 0
M  V30 2667 S 248 2.06309 3.87275 0
M  V30 2668 H 244.818 0.427157 0.568382 0
M  V30 2669 H 247.42 1.64453 1.05715 0
M  V30 2670 H 246.124 3.03809 2.75913 0
M  V30 2671 H 245.655 1.55903 3.61189 0
M  V30 2672 H 247.67 1.18661 4.81803 0
M  V30 2673 N 246.843 -1.10192 1.12674 0
M  V30 2674 C 247.791 -2.18694 0.792196 0
M  V30 2675 C 248.785 -1.67938 -0.222058 0
M  V30 2676 O 249.991 -1.79822 -0.0800074 0
M  V30 2677 H 246.366 -0.713223 0.238364 0
M  V30 2678 H 248.337 -2.44149 1.71564 0
M  V30 2679 C 247.086 -3.46682 0.265859 0
M  V30 2680 H 246.409 -3.86101 1.03761 0
M  V30 2681 H 247.849 -4.23942 0.0701128 0
M  V30 2682 C 246.308 -3.21506 -1.00675 0
M  V30 2683 O 246.838 -3.43408 -2.08408 0
M  V30 2684 N 245.044 -2.75158 -0.934692 0
M  V30 2685 H 244.591 -2.57535 -0.0578604 0
M  V30 2686 H 244.549 -2.58691 -1.7868 0
M  V30 2687 N 248.321 -0.919034 -1.28029 0
M  V30 2688 C 249.569 -0.553838 -1.94363 0
M  V30 2689 C 249.89 0.906357 -1.72656 0
M  V30 2690 O 249.16 1.64143 -1.0693 0
M  V30 2691 H 247.74 -0.201834 -0.719216 0
M  V30 2692 H 250.402 -1.16954 -1.55909 0
M  V30 2693 H 249.498 -0.752758 -3.02886 0
M  V30 2694 N 249.799 1.42003 -0.683588 0
M  V30 2695 C 250.729 2.33487 -0.024866 0
M  V30 2696 C 251.71 1.51163 0.779975 0
M  V30 2697 O 252.895 1.79739 0.735362 0
M  V30 2698 C 250.025 3.3487 0.920836 0
M  V30 2699 C 248.979 4.27414 0.223958 0
M  V30 2700 C 248.305 5.19074 1.2832 0
M  V30 2701 C 249.605 5.14445 -0.90242 0
M  V30 2702 H 251.299 2.88819 -0.788921 0
M  V30 2703 H 248.845 1.38873 -0.38083 0
M  V30 2704 H 250.798 3.97787 1.39081 0
M  V30 2705 H 249.522 2.77861 1.71642 0
M  V30 2706 H 248.181 3.65904 -0.225864 0
M  V30 2707 H 247.829 4.58387 2.071 0
M  V30 2708 H 247.529 5.81822 0.821995 0
M  V30 2709 H 249.053 5.84867 1.75392 0
M  V30 2710 H 250.467 5.70998 -0.513272 0
M  V30 2711 H 248.864 5.86072 -1.28997 0
M  V30 2712 H 249.934 4.52322 -1.74737 0
M  V30 2713 N 251.277 0.427512 1.51691 0
M  V30 2714 C 252.502 -0.143601 2.06902 0
M  V30 2715 C 252.927 -1.36536 1.29382 0
M  V30 2716 O 252.285 -1.78289 0.329043 0
M  V30 2717 C 252.333 -0.454207 3.57728 0
M  V30 2718 O 251.437 -1.54228 3.82475 0
M  V30 2719 H 250.778 -0.00617128 0.663971 0
M  V30 2720 H 253.308 0.606014 1.95419 0
M  V30 2721 H 253.318 -0.707525 4.01818 0
M  V30 2722 H 251.993 0.438812 4.13579 0
M  V30 2723 H 250.57 -1.2797 3.50254 0
M  V30 2724 N 252.755 -1.56801 0.158532 0
M  V30 2725 C 253.705 -2.13923 -0.788738 0
M  V30 2726 C 254.689 -1.07006 -1.2016 0
M  V30 2727 O 255.881 -1.33159 -1.1661 0
M  V30 2728 C 253.01 -2.77348 -2.02319 0
M  V30 2729 C 252.096 -3.91404 -1.6329 0
M  V30 2730 N 252.487 -4.9677 -0.951463 0
M  V30 2731 C 250.785 -4.02326 -1.92482 0
M  V30 2732 C 251.486 -5.76698 -0.761221 0
M  V30 2733 N 250.462 -5.27859 -1.29869 0
M  V30 2734 H 254.264 -2.92757 -0.258995 0
M  V30 2735 H 251.778 -1.62344 -0.0426055 0
M  V30 2736 H 253.775 -3.16639 -2.71192 0
M  V30 2737 H 252.435 -1.99991 -2.558 0
M  V30 2738 H 253.446 -5.14284 -0.610928 0
M  V30 2739 H 250.123 -3.36059 -2.47732 0
M  V30 2740 H 251.513 -6.71529 -0.223284 0
M  V30 2741 N 254.233 0.115231 -1.57178 0
M  V30 2742 C 255.458 0.840354 -1.89612 0
M  V30 2743 C 255.883 1.72464 -0.750845 0
M  V30 2744 O 255.241 1.78826 0.298478 0
M  V30 2745 C 255.289 1.64654 -3.20814 0
M  V30 2746 O 254.393 2.7538 -3.06985 0
M  V30 2747 H 253.734 0.232158 -0.622092 0
M  V30 2748 H 256.264 0.0964977 -2.04372 0
M  V30 2749 H 256.274 2.03499 -3.53627 0
M  V30 2750 H 254.949 0.997416 -4.03763 0
M  V30 2751 H 253.526 2.3971 -2.85646 0
M  V30 2752 N 255.711 1.52812 0.385517 0
M  V30 2753 C 256.661 1.74219 1.47078 0
M  V30 2754 C 257.645 0.59632 1.49442 0
M  V30 2755 O 258.837 0.85428 1.5502 0
M  V30 2756 C 255.966 1.9176 2.84751 0
M  V30 2757 C 255.052 3.12289 2.86943 0
M  V30 2758 N 255.443 4.34575 2.58802 0
M  V30 2759 C 253.741 3.12605 3.1811 0
M  V30 2760 C 254.442 5.162 2.68166 0
M  V30 2761 N 253.418 4.51964 3.02043 0
M  V30 2762 H 257.22 2.6639 1.24152 0
M  V30 2763 H 254.734 1.51166 0.593504 0
M  V30 2764 H 256.731 2.05218 3.62893 0
M  V30 2765 H 255.391 1.00805 3.08656 0
M  V30 2766 H 256.402 4.62649 2.32759 0
M  V30 2767 H 253.079 2.31472 3.47458 0
M  V30 2768 H 254.469 6.23689 2.49923 0
M  V30 2769 N 257.189 -0.644168 1.43834 0
M  V30 2770 C 258.466 -1.40188 1.36406 0
M  V30 2771 C 258.846 -2.11094 0.0163124 0
M  V30 2772 O 258.194 -2.05426 -1.00062 0
M  V30 2773 C 258.404 -2.3791 2.55343 0
M  V30 2774 C 259.752 -3.01637 2.98832 0
M  V30 2775 O 260.776 -2.48237 2.55455 0
M  V30 2776 O 259.635 -3.98477 3.74003 0
M  V30 2777 H 256.729 -0.626773 0.539523 0
M  V30 2778 H 259.275 -0.670317 1.559 0
M  V30 2779 H 258.047 -1.84525 3.4506 0
M  V30 2780 H 257.67 -3.18503 2.37995 0
M  V30 2781 N 258.668 -1.30515 -0.883378 0
M  V30 2782 C 259.598 -1.19607 -2.00541 0
M  V30 2783 C 260.579 -0.086346 -1.69881 0
M  V30 2784 O 261.764 -0.268654 -1.92333 0
M  V30 2785 C 258.894 -0.888758 -3.35736 0
M  V30 2786 C 257.848 -1.95659 -3.8066 0
M  V30 2787 C 257.174 -1.50224 -5.13164 0
M  V30 2788 C 258.474 -3.36788 -3.99213 0
M  V30 2789 H 260.168 -2.13476 -2.09925 0
M  V30 2790 H 257.714 -1.02775 -1.00863 0
M  V30 2791 H 259.667 -0.799094 -4.13754 0
M  V30 2792 H 258.391 0.0856125 -3.26488 0
M  V30 2793 H 257.05 -2.03591 -3.04871 0
M  V30 2794 H 256.698 -0.516092 -5.00345 0
M  V30 2795 H 256.398 -2.2165 -5.44192 0
M  V30 2796 H 257.922 -1.42639 -5.93706 0
M  V30 2797 H 259.336 -3.31605 -4.67665 0
M  V30 2798 H 257.733 -4.06314 -4.41621 0
M  V30 2799 H 258.803 -3.78561 -3.03017 0
M  V30 2800 N 260.146 1.09593 -1.13257 0
M  V30 2801 C 261.371 1.8604 -0.916732 0
M  V30 2802 C 261.796 1.80504 0.529146 0
M  V30 2803 O 261.154 1.18127 1.37534 0
M  V30 2804 C 261.202 3.32017 -1.40703 0
M  V30 2805 O 260.306 4.08141 -0.591153 0
M  V30 2806 H 259.647 0.576943 -0.328683 0
M  V30 2807 H 262.177 1.38405 -1.50682 0
M  V30 2808 H 262.187 3.82865 -1.4099 0
M  V30 2809 H 260.862 3.35361 -2.45979 0
M  V30 2810 H 259.439 3.67084 -0.656005 0
M  V30 2811 N 261.624 0.925811 1.2754 0
M  V30 2812 C 262.557 0.367836 2.25216 0
M  V30 2813 C 263.535 -0.534738 1.53556 0
M  V30 2814 O 264.719 -0.475672 1.824 0
M  V30 2815 C 261.846 -0.47298 3.35381 0
M  V30 2816 C 260.892 0.365898 4.24928 0
M  V30 2817 S 261.725 1.78025 5.05042 0
M  V30 2818 C 262.881 0.947068 6.18693 0
M  V30 2819 H 263.114 1.19568 2.72196 0
M  V30 2820 H 260.647 0.727867 1.36167 0
M  V30 2821 H 262.605 -0.952242 3.99303 0
M  V30 2822 H 261.266 -1.27533 2.87044 0
M  V30 2823 H 260.459 -0.277582 5.03235 0
M  V30 2824 H 260.061 0.779261 3.65792 0
M  V30 2825 H 262.353 0.182201 6.77255 0
M  V30 2826 H 263.296 1.70309 6.87314 0
M  V30 2827 H 263.704 0.489913 5.6237 0
M  V30 2828 N 263.102 -1.41638 0.69111 0
M  V30 2829 C 264.379 -1.95036 0.148421 0
M  V30 2830 C 264.759 -1.63072 -1.34055 0
M  V30 2831 O 264.107 -0.93538 -2.08478 0
M  V30 2832 C 264.317 -3.46279 0.434951 0
M  V30 2833 C 265.665 -4.23069 0.360275 0
M  V30 2834 O 266.689 -3.54277 0.369613 0
M  V30 2835 O 265.548 -5.45583 0.316534 0
M  V30 2836 H 262.642 -0.826908 0.0123654 0
M  V30 2837 H 265.188 -1.5138 0.766963 0
M  V30 2838 H 263.96 -3.6281 1.46576 0
M  V30 2839 H 263.583 -3.97019 -0.214787 0
M  V30 2840 N 264.58 -0.43555 -1.51462 0
M  V30 2841 C 265.828 0.131254 -2.01673 0
M  V30 2842 C 266.149 1.43368 -1.32177 0
M  V30 2843 O 265.419 1.90524 -0.455769 0
M  V30 2844 H 263.999 0.0514954 -0.745223 0
M  V30 2845 H 266.661 -0.577847 -1.86137 0
M  V30 2846 H 265.757 0.308446 -3.10572 0
M  V30 2847 N 266.058 1.56714 -0.166846 0
M  V30 2848 C 266.988 2.20754 0.760913 0
M  V30 2849 C 267.969 1.16178 1.24244 0
M  V30 2850 O 269.154 1.44592 1.29641 0
M  V30 2851 C 266.284 2.84478 1.99223 0
M  V30 2852 C 265.238 3.95053 1.64672 0
M  V30 2853 C 264.564 4.45805 2.95232 0
M  V30 2854 C 265.864 5.14865 0.878155 0
M  V30 2855 H 267.558 2.98537 0.22713 0
M  V30 2856 H 265.104 1.43596 0.107805 0
M  V30 2857 H 267.057 3.27951 2.64624 0
M  V30 2858 H 265.781 2.04056 2.55007 0
M  V30 2859 H 264.44 3.52228 1.01641 0
M  V30 2860 H 264.088 3.62181 3.49047 0
M  V30 2861 H 263.788 5.204 2.7287 0
M  V30 2862 H 265.312 4.91962 3.6167 0
M  V30 2863 H 266.726 5.55059 1.43466 0
M  V30 2864 H 265.123 5.95348 0.753738 0
M  V30 2865 H 266.193 4.84735 -0.126377 0
M  V30 2866 N 267.536 -0.106894 1.57237 0
M  V30 2867 C 268.783 -0.812526 1.85484 0
M  V30 2868 C 269.111 -1.79304 0.753687 0
M  V30 2869 O 268.366 -1.94047 -0.253853 0
M  V30 2870 C 268.665 -1.58628 3.20268 0
M  V30 2871 C 268.331 -0.748967 4.44636 0
M  V30 2872 C 266.993 -0.518104 4.78403 0
M  V30 2873 C 269.345 -0.166122 5.20935 0
M  V30 2874 C 266.673 0.305659 5.85903 0
M  V30 2875 C 269.025 0.644899 6.29304 0
M  V30 2876 C 267.689 0.885965 6.61594 0
M  V30 2877 H 266.959 -0.297324 0.678734 0
M  V30 2878 H 269.606 -0.0744332 1.91355 0
M  V30 2879 H 267.911 -2.39562 3.10028 0
M  V30 2880 H 269.608 -2.13643 3.39349 0
M  V30 2881 H 266.198 -0.939006 4.18187 0
M  V30 2882 H 270.382 -0.33167 4.95191 0
M  V30 2883 H 265.638 0.501528 6.0934 0
M  V30 2884 H 269.812 1.10345 6.87602 0
M  V30 2885 H 267.439 1.52609 7.44725 0
M  V30 2886 N 269.014 -1.53014 -0.377408 0
M  V30 2887 C 270.262 -1.6829 -1.11906 0
M  V30 2888 C 270.583 -0.431206 -1.90173 0
M  V30 2889 O 269.853 0.554595 -1.87886 0
M  V30 2890 H 268.433 -0.620371 -0.416112 0
M  V30 2891 H 271.095 -1.90167 -0.426893 0
M  V30 2892 H 270.191 -2.53862 -1.8155 0
M  V30 2893 N 270.492 0.636531 -1.44174 0
M  V30 2894 C 271.72 1.42353 -1.50144 0
M  V30 2895 C 272.135 1.88389 -0.124575 0
M  V30 2896 O 271.492 1.6051 0.868489 0
M  V30 2897 C 271.543 2.64744 -2.46156 0
M  V30 2898 O 271.264 2.20629 -3.7849 0
M  V30 2899 C 272.765 3.57929 -2.61537 0
M  V30 2900 H 269.985 0.436752 -0.5094 0
M  V30 2901 H 272.529 0.778933 -1.89084 0
M  V30 2902 H 270.684 3.25307 -2.10366 0
M  V30 2903 H 271.098 2.99938 -4.30276 0
M  V30 2904 H 272.572 4.40428 -3.32757 0
M  V30 2905 H 273.049 4.06382 -1.66585 0
M  V30 2906 H 273.655 3.03238 -2.98206 0
M  V30 2907 N 271.97 1.30982 0.876444 0
M  V30 2908 C 273.219 1.19658 1.62373 0
M  V30 2909 C 273.532 -0.245636 1.94052 0
M  V30 2910 O 274.738 -0.48049 2.67214 0
M  V30 2911 C 273.194 2.09433 2.92687 0
M  V30 2912 C 272.802 3.58613 2.68516 0
M  V30 2913 C 274.546 2.06893 3.70669 0
M  V30 2914 C 272.453 4.40416 3.94699 0
M  V30 2915 H 271.383 0.444268 0.609214 0
M  V30 2916 H 274.034 1.55791 0.969605 0
M  V30 2917 H 272.416 1.66191 3.59439 0
M  V30 2918 H 273.59 4.10058 2.10212 0
M  V30 2919 H 271.905 3.63063 2.03898 0
M  V30 2920 H 274.502 2.65258 4.64265 0
M  V30 2921 H 274.845 1.05448 4.02724 0
M  V30 2922 H 275.378 2.48301 3.10792 0
M  V30 2923 H 272.117 5.42591 3.67798 0
M  V30 2924 H 271.637 3.93731 4.52477 0
M  V30 2925 H 273.316 4.52294 4.62644 0
M  V30 2926 N 273.449 -1.08991 1.13837 0
M  V30 2927 C 274.412 -2.13925 0.822715 0
M  V30 2928 C 275.412 -1.599 -0.1699 0
M  V30 2929 O 276.602 -1.74104 0.0577251 0
M  V30 2930 C 273.734 -3.40155 0.225318 0
M  V30 2931 H 274.927 -2.43358 1.75262 0
M  V30 2932 H 272.48 -1.24603 0.943594 0
M  V30 2933 H 273.215 -3.16352 -0.713594 0
M  V30 2934 H 273 -3.80661 0.940193 0
M  V30 2935 H 274.49 -4.17594 0.0214784 0
M  V30 2936 N 274.927 -0.932562 -1.27047 0
M  V30 2937 C 276.157 -0.591173 -1.97961 0
M  V30 2938 C 276.565 0.836219 -1.69717 0
M  V30 2939 O 275.908 1.56801 -0.957036 0
M  V30 2940 C 275.97 -0.743082 -3.51736 0
M  V30 2941 C 275.634 -2.1435 -4.03613 0
M  V30 2942 C 276.631 -3.11815 -4.16014 0
M  V30 2943 C 274.316 -2.46175 -4.37839 0
M  V30 2944 C 276.31 -4.39211 -4.61923 0
M  V30 2945 C 273.997 -3.73806 -4.83438 0
M  V30 2946 C 274.995 -4.70137 -4.95439 0
M  V30 2947 O 274.683 -5.95496 -5.40037 0
M  V30 2948 H 274.415 -0.222375 -0.638377 0
M  V30 2949 H 276.969 -1.25317 -1.62742 0
M  V30 2950 H 275.199 -0.0239739 -3.86693 0
M  V30 2951 H 276.888 -0.40603 -4.03864 0
M  V30 2952 H 277.654 -2.88549 -3.89826 0
M  V30 2953 H 273.533 -1.71936 -4.27737 0
M  V30 2954 H 277.077 -5.14404 -4.71205 0
M  V30 2955 H 272.974 -3.96888 -5.09068 0
M  V30 2956 H 273.742 -5.98554 -5.58279 0
M  V30 2957 N 276.405 1.4127 -0.698611 0
M  V30 2958 C 277.335 2.33447 -0.049629 0
M  V30 2959 C 278.316 1.51982 0.763898 0
M  V30 2960 O 279.501 1.80509 0.716257 0
M  V30 2961 C 276.631 3.35828 0.885267 0
M  V30 2962 C 275.585 4.27627 0.178613 0
M  V30 2963 C 274.911 5.20406 1.22807 0
M  V30 2964 C 276.211 5.13459 -0.956933 0
M  V30 2965 H 277.905 2.87966 -0.81951 0
M  V30 2966 H 275.451 1.38461 -0.395538 0
M  V30 2967 H 277.404 3.9924 1.34854 0
M  V30 2968 H 276.128 2.79666 1.68685 0
M  V30 2969 H 274.787 3.65643 -0.26466 0
M  V30 2970 H 274.435 4.60558 2.02226 0
M  V30 2971 H 274.135 5.82661 0.760239 0
M  V30 2972 H 275.659 5.86695 1.69179 0
M  V30 2973 H 277.073 5.70421 -0.573805 0
M  V30 2974 H 275.47 5.8467 -1.35205 0
M  V30 2975 H 276.54 4.50443 -1.79524 0
M  V30 2976 N 277.883 0.443576 1.51229 0
M  V30 2977 C 279.294 -0.0180867 1.86691 0
M  V30 2978 C 279.645 -1.41384 1.36033 0
M  V30 2979 O 278.77 -2.04291 0.713722 0
M  V30 2980 C 279.365 -0.039597 3.38777 0
M  V30 2981 C 277.924 -0.445692 3.73752 0
M  V30 2982 C 277.071 0.357584 2.74985 0
M  V30 2983 H 280.022 0.659138 1.44364 0
M  V30 2984 H 280.043 -0.847761 3.70936 0
M  V30 2985 H 279.555 0.976382 3.75617 0
M  V30 2986 H 277.656 -1.46704 3.42503 0
M  V30 2987 H 277.769 -0.166155 4.78812 0
M  V30 2988 H 276.133 -0.184973 2.54027 0
M  V30 2989 H 276.916 1.37256 3.14668 0
M  V30 2990 N 279.361 -1.56624 0.175154 0
M  V30 2991 C 280.772 -1.83561 -0.340916 0
M  V30 2992 C 281.123 -1.09511 -1.62794 0
M  V30 2993 O 280.248 -0.349389 -2.13561 0
M  V30 2994 C 280.843 -3.32979 -0.625313 0
M  V30 2995 C 279.402 -3.60399 -1.08581 0
M  V30 2996 C 278.549 -2.77024 -0.123722 0
M  V30 2997 H 281.5 -1.53593 0.399344 0
M  V30 2998 H 281.521 -3.50666 -1.47694 0
M  V30 2999 H 281.033 -3.86847 0.311575 0
M  V30 3000 H 279.134 -3.11945 -2.03767 0
M  V30 3001 H 279.247 -4.68711 -0.992317 0
M  V30 3002 H 277.611 -2.46993 -0.621821 0
M  V30 3003 H 278.394 -3.33674 0.807256 0
M  V30 3004 N 280.839 0.0985539 -1.57292 0
M  V30 3005 C 281.749 1.13824 -2.05137 0
M  V30 3006 C 282.765 1.44076 -0.975604 0
M  V30 3007 O 283.941 1.54786 -1.28853 0
M  V30 3008 C 281.006 2.43969 -2.46333 0
M  V30 3009 C 280.067 2.2093 -3.68087 0
M  V30 3010 C 279.3 3.44869 -4.0731 0
M  V30 3011 O 279.523 4.52972 -3.46659 0
M  V30 3012 O 278.457 3.34661 -5.00285 0
M  V30 3013 H 282.283 0.761881 -2.93988 0
M  V30 3014 H 279.868 0.310818 -1.46131 0
M  V30 3015 H 281.75 3.20609 -2.73473 0
M  V30 3016 H 280.425 2.81038 -1.60621 0
M  V30 3017 H 279.332 1.42081 -3.46069 0
M  V30 3018 H 280.665 1.88755 -4.54568 0
M  V30 3019 N 282.317 1.53212 0.369288 0
M  V30 3020 C 283.733 1.42902 0.710712 0
M  V30 3021 C 283.933 0.565135 1.93413 0
M  V30 3022 O 282.989 0.0461484 2.52458 0
M  V30 3023 C 284.302 2.86042 0.927382 0
M  V30 3024 C 285.85 2.9565 1.02762 0
M  V30 3025 C 286.325 4.39843 1.27679 0
M  V30 3026 N 287.816 4.43256 1.34457 0
M  V30 3027 C 288.551 5.51929 1.55439 0
M  V30 3028 N 288.047 6.70655 1.73762 0
M  V30 3029 N 289.84 5.39502 1.57779 0
M  V30 3030 H 281.991 2.07888 -0.435457 0
M  V30 3031 H 284.254 0.938661 -0.132739 0
M  V30 3032 H 283.96 3.51557 0.100287 0
M  V30 3033 H 283.834 3.29472 1.83653 0
M  V30 3034 H 286.221 2.30291 1.84527 0
M  V30 3035 H 286.302 2.5562 0.0959504 0
M  V30 3036 H 285.946 5.05774 0.464175 0
M  V30 3037 H 285.876 4.77443 2.22162 0
M  V30 3038 H 288.367 3.5769 1.21926 0
M  V30 3039 H 288.68 7.49248 1.89335 0
M  V30 3040 H 287.025 6.73648 1.70948 0
M  V30 3041 H 290.216 4.45713 1.43029 0
M  V30 3042 H 290.389 6.2426 1.7379 0
M  V30 3043 N 283.795 -0.628877 1.44509 0
M  V30 3044 C 285.044 -1.38437 1.4669 0
M  V30 3045 C 285.357 -1.95322 0.104272 0
M  V30 3046 O 286.563 -2.715 0.00362163 0
M  V30 3047 C 285.019 -2.50659 2.5826 0
M  V30 3048 C 284.627 -2.00277 4.0074 0
M  V30 3049 C 286.371 -3.27844 2.69664 0
M  V30 3050 C 284.278 -3.09854 5.0373 0
M  V30 3051 H 283.208 -0.520245 0.545766 0
M  V30 3052 H 285.859 -0.676313 1.70582 0
M  V30 3053 H 284.241 -3.2405 2.27612 0
M  V30 3054 H 285.415 -1.33736 4.40966 0
M  V30 3055 H 283.73 -1.35901 3.93599 0
M  V30 3056 H 286.327 -4.09534 3.43781 0
M  V30 3057 H 286.67 -3.77471 1.75559 0
M  V30 3058 H 287.203 -2.61543 2.99733 0
M  V30 3059 H 283.942 -2.65168 5.99472 0
M  V30 3060 H 283.462 -3.7503 4.68095 0
M  V30 3061 H 285.141 -3.74592 5.27532 0
M  V30 3062 N 285.273 -1.31445 -0.869486 0
M  V30 3063 C 286.689 -1.10113 -1.15531 0
M  V30 3064 C 286.889 0.128087 -2.01092 0
M  V30 3065 O 285.945 0.817276 -2.38908 0
M  V30 3066 C 287.258 -2.37291 -1.84698 0
M  V30 3067 C 288.806 -2.42906 -1.97397 0
M  V30 3068 C 289.281 -3.69967 -2.69979 0
M  V30 3069 N 290.772 -3.70864 -2.77514 0
M  V30 3070 C 291.507 -4.65875 -3.34287 0
M  V30 3071 N 291.003 -5.71242 -3.91988 0
M  V30 3072 N 292.796 -4.53394 -3.3225 0
M  V30 3073 H 284.947 -2.1028 -0.299347 0
M  V30 3074 H 287.21 -0.927683 -0.195214 0
M  V30 3075 H 286.916 -3.27078 -1.29278 0
M  V30 3076 H 286.79 -2.47125 -2.84972 0
M  V30 3077 H 289.177 -1.53588 -2.51982 0
M  V30 3078 H 289.258 -2.37036 -0.961643 0
M  V30 3079 H 288.902 -4.59652 -2.16062 0
M  V30 3080 H 288.832 -3.73103 -3.7162 0
M  V30 3081 H 291.323 -2.94697 -2.36563 0
M  V30 3082 H 291.636 -6.39817 -4.33421 0
M  V30 3083 H 289.981 -5.75015 -3.90362 0
M  V30 3084 H 293.172 -3.70252 -2.8641 0
M  V30 3085 H 293.345 -5.27617 -3.76197 0
M  V30 3086 N 286.751 1.08385 -1.14413 0
M  V30 3087 C 287.661 2.18856 -0.844951 0
M  V30 3088 C 288.677 1.73121 0.174668 0
M  V30 3089 O 289.853 2.014 0.00312857 0
M  V30 3090 C 286.918 3.45155 -0.32696 0
M  V30 3091 C 285.979 4.05513 -1.40916 0
M  V30 3092 C 285.212 5.25784 -0.915793 0
M  V30 3093 O 285.435 5.69884 0.242651 0
M  V30 3094 O 284.369 5.77545 -1.69487 0
M  V30 3095 H 288.195 2.46919 -1.76818 0
M  V30 3096 H 285.78 1.17524 -0.922411 0
M  V30 3097 H 287.662 4.21377 -0.0440211 0
M  V30 3098 H 286.337 3.18668 0.568539 0
M  V30 3099 H 285.244 3.30879 -1.74556 0
M  V30 3100 H 286.577 4.3625 -2.27919 0
M  V30 3101 N 288.23 0.939286 1.26551 0
M  V30 3102 C 289.177 0.446088 2.26448 0
M  V30 3103 C 290.147 -0.493234 1.58608 0
M  V30 3104 O 291.332 -0.409857 1.86346 0
M  V30 3105 C 288.472 -0.284375 3.43926 0
M  V30 3106 C 287.585 0.690399 4.26448 0
M  V30 3107 C 286.72 -0.0610712 5.31165 0
M  V30 3108 C 285.759 0.905649 6.05363 0
M  V30 3109 N 284.896 0.186055 7.01853 0
M  V30 3110 H 289.736 1.30291 2.68008 0
M  V30 3111 H 287.273 0.65371 1.31776 0
M  V30 3112 H 289.231 -0.724313 4.10864 0
M  V30 3113 H 287.861 -1.10535 3.03285 0
M  V30 3114 H 286.913 1.24885 3.59316 0
M  V30 3115 H 288.225 1.42873 4.779 0
M  V30 3116 H 287.379 -0.56038 6.04106 0
M  V30 3117 H 286.118 -0.832297 4.80546 0
M  V30 3118 H 285.123 1.4161 5.3125 0
M  V30 3119 H 286.348 1.67685 6.58072 0
M  V30 3120 H 284.294 -0.566714 6.53548 0
M  V30 3121 H 284.211 0.863752 7.51049 0
M  V30 3122 H 285.479 -0.292221 7.78952 0
M  V30 3123 N 289.708 -1.40897 0.706093 0
M  V30 3124 C 290.933 -2.05895 0.249435 0
M  V30 3125 C 291.358 -1.52823 -1.09666 0
M  V30 3126 O 290.716 -0.659589 -1.68876 0
M  V30 3127 C 290.764 -3.59872 0.22904 0
M  V30 3128 O 289.868 -4.04708 -0.792784 0
M  V30 3129 H 289.209 -0.653206 0.119241 0
M  V30 3130 H 291.739 -1.80471 0.96391 0
M  V30 3131 H 291.749 -4.07951 0.0634791 0
M  V30 3132 H 290.424 -3.97866 1.21141 0
M  V30 3133 H 289.001 -3.68111 -0.59572 0
M  V30 3134 N 291.186 -0.45159 -1.50991 0
M  V30 3135 C 292.602 -0.104647 -1.59257 0
M  V30 3136 C 292.802 1.38728 -1.4614 0
M  V30 3137 O 291.858 2.15866 -1.30989 0
M  V30 3138 C 293.171 -0.637468 -2.93865 0
M  V30 3139 C 294.719 -0.599166 -3.07212 0
M  V30 3140 C 295.194 -1.1092 -4.44366 0
M  V30 3141 N 296.685 -1.06778 -4.50725 0
M  V30 3142 C 297.42 -1.43314 -5.55201 0
M  V30 3143 N 296.916 -1.87204 -6.67028 0
M  V30 3144 N 298.709 -1.3504 -5.45638 0
M  V30 3145 H 290.86 -1.42214 -1.57762 0
M  V30 3146 H 293.123 -0.586921 -0.744465 0
M  V30 3147 H 292.829 -1.68187 -3.08879 0
M  V30 3148 H 292.703 -0.0702139 -3.77135 0
M  V30 3149 H 295.09 0.436277 -2.91857 0
M  V30 3150 H 295.171 -1.20299 -2.25747 0
M  V30 3151 H 294.815 -2.14318 -4.60467 0
M  V30 3152 H 294.745 -0.481773 -5.24392 0
M  V30 3153 H 297.236 -0.745643 -3.70471 0
M  V30 3154 H 297.549 -2.13282 -7.42786 0
M  V30 3155 H 295.894 -1.91142 -6.68199 0
M  V30 3156 H 299.085 -1.00607 -4.57161 0
M  V30 3157 H 299.258 -1.63841 -6.26945 0
M  V30 3158 N 292.664 1.56529 -0.183458 0
M  V30 3159 C 293.594 2.21549 0.737456 0
M  V30 3160 C 294.575 1.17489 1.23005 0
M  V30 3161 O 295.76 1.45959 1.281 0
M  V30 3162 C 292.89 2.86575 1.96194 0
M  V30 3163 C 291.844 3.96778 1.60473 0
M  V30 3164 C 291.17 4.48911 2.90487 0
M  V30 3165 C 292.47 5.15767 0.823497 0
M  V30 3166 H 294.164 2.98761 0.195453 0
M  V30 3167 H 291.71 1.43702 0.0925686 0
M  V30 3168 H 293.663 3.30739 2.61131 0
M  V30 3169 H 292.387 2.06749 2.52828 0
M  V30 3170 H 291.046 3.53286 0.978997 0
M  V30 3171 H 290.694 3.65862 3.45186 0
M  V30 3172 H 290.394 5.23265 2.67335 0
M  V30 3173 H 291.918 4.95771 3.56432 0
M  V30 3174 H 293.332 5.56549 1.37571 0
M  V30 3175 H 291.729 5.96114 0.690551 0
M  V30 3176 H 292.799 4.84574 -0.177782 0
M  V30 3177 N 294.142 -0.090211 1.57342 0
M  V30 3178 C 295.389 -0.792807 1.86335 0
M  V30 3179 C 295.717 -1.78494 0.772662 0
M  V30 3180 O 294.972 -1.94305 -0.233258 0
M  V30 3181 C 295.271 -1.55222 3.21933 0
M  V30 3182 C 294.937 -0.701765 4.45406 0
M  V30 3183 C 293.599 -0.467334 4.78925 0
M  V30 3184 C 295.951 -0.11086 5.21082 0
M  V30 3185 C 293.279 0.367785 5.85546 0
M  V30 3186 C 295.631 0.711609 6.28585 0
M  V30 3187 C 294.295 0.956086 6.60617 0
M  V30 3188 H 293.565 -0.290109 0.681849 0
M  V30 3189 H 296.212 -0.0541332 1.91423 0
M  V30 3190 H 294.517 -2.3626 3.12551 0
M  V30 3191 H 296.214 -2.10032 3.41595 0
M  V30 3192 H 292.804 -0.894598 4.1916 0
M  V30 3193 H 296.988 -0.279129 4.95514 0
M  V30 3194 H 292.244 0.566128 6.08773 0
M  V30 3195 H 296.418 1.17632 6.86393 0
M  V30 3196 H 294.045 1.60499 7.43064 0
M  V30 3197 N 295.62 -1.53406 -0.361157 0
M  V30 3198 C 296.897 -1.60411 -1.11927 0
M  V30 3199 C 297.277 -0.414385 -2.06993 0
M  V30 3200 O 296.625 0.594976 -2.20618 0
M  V30 3201 C 296.835 -2.95652 -1.85448 0
M  V30 3202 C 298.183 -3.50386 -2.39823 0
M  V30 3203 O 299.207 -2.97711 -1.95568 0
M  V30 3204 O 298.066 -4.42482 -3.20737 0
M  V30 3205 H 295.16 -0.64811 -0.513695 0
M  V30 3206 H 297.706 -1.65749 -0.364065 0
M  V30 3207 H 296.478 -3.73682 -1.16091 0
M  V30 3208 H 296.101 -2.93825 -2.67866 0
M  V30 3209 N 297.098 0.621204 -1.44841 0
M  V30 3210 C 298.326 1.40752 -1.51646 0
M  V30 3211 C 298.741 1.88246 -0.144549 0
M  V30 3212 O 298.098 1.61422 0.851416 0
M  V30 3213 C 298.149 2.62119 -2.4895 0
M  V30 3214 O 297.87 2.16602 -3.80808 0
M  V30 3215 C 299.371 3.55135 -2.65319 0
M  V30 3216 H 296.591 0.431325 -0.514004 0
M  V30 3217 H 299.135 0.758835 -1.899 0
M  V30 3218 H 297.29 3.23058 -2.13805 0
M  V30 3219 H 297.704 2.95358 -4.33433 0
M  V30 3220 H 299.178 4.36874 -3.37409 0
M  V30 3221 H 299.655 4.04592 -1.70886 0
M  V30 3222 H 300.261 3.00058 -3.01405 0
M  V30 3223 N 298.576 1.31904 0.862503 0
M  V30 3224 C 299.523 1.20182 1.9704 0
M  V30 3225 C 300.493 0.0858247 1.65878 0
M  V30 3226 O 301.678 0.26 1.8902 0
M  V30 3227 C 298.818 0.922797 3.32533 0
M  V30 3228 C 297.931 2.12284 3.76244 0
M  V30 3229 C 297.066 1.77996 5.00491 0
M  V30 3230 C 296.105 2.94366 5.36671 0
M  V30 3231 N 295.242 2.60223 6.52095 0
M  V30 3232 H 300.082 2.14951 2.06398 0
M  V30 3233 H 297.619 1.06917 1.01031 0
M  V30 3234 H 299.577 0.741548 4.10557 0
M  V30 3235 H 298.207 0.0119227 3.22798 0
M  V30 3236 H 297.259 2.41461 2.9394 0
M  V30 3237 H 298.571 2.99357 3.98982 0
M  V30 3238 H 297.725 1.56377 5.862 0
M  V30 3239 H 296.464 0.881252 4.79672 0
M  V30 3240 H 295.469 3.16625 4.49476 0
M  V30 3241 H 296.694 3.84957 5.59451 0
M  V30 3242 H 294.64 1.72884 6.32809 0
M  V30 3243 H 294.557 3.40827 6.74814 0
M  V30 3244 H 295.825 2.42016 7.40978 0
M  V30 3245 N 300.054 -1.07777 1.14986 0
M  V30 3246 C 301.004 -2.13082 0.811181 0
M  V30 3247 C 301.988 -1.59619 -0.202597 0
M  V30 3248 O 303.18 -1.77 -0.00398275 0
M  V30 3249 C 300.309 -3.42009 0.297439 0
M  V30 3250 C 299.395 -4.02337 1.34112 0
M  V30 3251 N 299.786 -4.36982 2.54716 0
M  V30 3252 C 298.084 -4.29752 1.19285 0
M  V30 3253 C 298.785 -4.84729 3.21578 0
M  V30 3254 N 297.761 -4.83233 2.48972 0
M  V30 3255 H 301.563 -2.37696 1.72853 0
M  V30 3256 H 299.077 -1.25173 1.03468 0
M  V30 3257 H 301.074 -4.16884 0.0364777 0
M  V30 3258 H 299.734 -3.18841 -0.614022 0
M  V30 3259 H 300.745 -4.27807 2.91894 0
M  V30 3260 H 297.422 -4.16106 0.340926 0
M  V30 3261 H 298.812 -5.20863 4.24442 0
M  V30 3262 N 301.532 -0.945985 -1.26051 0
M  V30 3263 C 302.809 -0.513816 -1.88731 0
M  V30 3264 C 303.189 1.00872 -1.8544 0
M  V30 3265 O 302.537 1.8708 -1.312 0
M  V30 3266 C 302.747 -1.08062 -3.31849 0
M  V30 3267 C 304.095 -1.1522 -4.08668 0
M  V30 3268 O 305.119 -1.03155 -3.40936 0
M  V30 3269 O 303.978 -1.34044 -5.29806 0
M  V30 3270 H 301.072 -0.168193 -0.809716 0
M  V30 3271 H 303.618 -1.03886 -1.34186 0
M  V30 3272 H 302.39 -2.1241 -3.2863 0
M  V30 3273 H 302.013 -0.538307 -3.93939 0
M  V30 3274 N 303.011 1.40521 -0.713556 0
M  V30 3275 C 304.257 2.01221 -0.252564 0
M  V30 3276 C 304.59 1.56444 1.1506 0
M  V30 3277 O 303.865 0.783597 1.78017 0
M  V30 3278 C 304.148 3.58582 -0.330332 0
M  V30 3279 C 304.001 4.13437 -1.77173 0
M  V30 3280 C 305.32 4.39079 0.299641 0
M  V30 3281 H 302.439 0.731077 -0.0932471 0
M  V30 3282 H 305.081 1.67026 -0.905673 0
M  V30 3283 H 303.231 3.87844 0.225737 0
M  V30 3284 H 304.903 3.9498 -2.38303 0
M  V30 3285 H 303.146 3.67801 -2.3001 0
M  V30 3286 H 303.817 5.22597 -1.77755 0
M  V30 3287 H 306.293 4.15735 -0.174139 0
M  V30 3288 H 305.169 5.4848 0.214771 0
M  V30 3289 H 305.43 4.19915 1.38288 0
M  V30 3290 N 304.489 0.459591 1.5075 0
M  V30 3291 C 305.719 -0.0972338 2.06371 0
M  V30 3292 C 306.127 -1.35074 1.32483 0
M  V30 3293 O 305.47 -1.79637 0.384226 0
M  V30 3294 C 305.532 -0.462759 3.56509 0
M  V30 3295 C 305.196 0.687084 4.51805 0
M  V30 3296 C 306.193 1.56578 4.95761 0
M  V30 3297 C 303.878 0.874144 4.94635 0
M  V30 3298 C 305.872 2.61604 5.81242 0
M  V30 3299 C 303.559 1.92765 5.79901 0
M  V30 3300 C 304.557 2.79697 6.23104 0
M  V30 3301 O 304.245 3.83235 7.06673 0
M  V30 3302 H 303.977 -0.00140687 0.675999 0
M  V30 3303 H 306.531 0.644011 1.95043 0
M  V30 3304 H 304.761 -1.25703 3.65699 0
M  V30 3305 H 306.45 -0.953323 3.94546 0
M  V30 3306 H 307.216 1.4329 4.6335 0
M  V30 3307 H 303.095 0.207006 4.60535 0
M  V30 3308 H 306.639 3.29489 6.14884 0
M  V30 3309 H 302.536 2.06064 6.11725 0
M  V30 3310 H 303.304 3.80084 7.24899 0
M  V30 3311 N 305.967 -1.56429 0.191757 0
M  V30 3312 C 307.192 -2.02309 -0.456706 0
M  V30 3313 C 307.617 -1.07103 -1.5463 0
M  V30 3314 O 306.975 -0.0539677 -1.8122 0
M  V30 3315 C 307.023 -3.46654 -0.993159 0
M  V30 3316 O 306.127 -3.54559 -2.10622 0
M  V30 3317 H 305.468 -0.655303 -0.107114 0
M  V30 3318 H 307.998 -2.02364 0.301653 0
M  V30 3319 H 308.008 -3.86377 -1.31061 0
M  V30 3320 H 306.683 -4.1544 -0.195504 0
M  V30 3321 H 305.26 -3.26708 -1.79767 0
M  V30 3322 N 307.445 0.0818655 -1.57387 0
M  V30 3323 C 308.692 0.782914 -1.86753 0
M  V30 3324 C 309.02 1.78082 -0.782118 0
M  V30 3325 O 308.275 1.94426 0.22295 0
M  V30 3326 C 308.574 1.53513 -3.22752 0
M  V30 3327 C 308.24 0.678134 -4.45771 0
M  V30 3328 C 306.902 0.441929 -4.79166 0
M  V30 3329 C 309.254 0.0832243 -5.21134 0
M  V30 3330 C 306.582 -0.398833 -5.85343 0
M  V30 3331 C 308.934 -0.744935 -6.28199 0
M  V30 3332 C 307.598 -0.991107 -6.60101 0
M  V30 3333 H 306.868 0.286489 -0.683378 0
M  V30 3334 H 309.515 0.0439808 -1.91449 0
M  V30 3335 H 307.82 2.34599 -3.138 0
M  V30 3336 H 309.517 2.08218 -3.42705 0
M  V30 3337 H 306.107 0.872357 -4.19628 0
M  V30 3338 H 310.291 0.252847 -4.95655 0
M  V30 3339 H 305.547 -0.598405 -6.08465 0
M  V30 3340 H 309.721 -1.21271 -6.8576 0
M  V30 3341 H 307.348 -1.64437 -7.42202 0
M  V30 3342 N 308.923 1.53595 0.353017 0
M  V30 3343 C 309.886 1.80232 1.41594 0
M  V30 3344 C 310.886 0.673081 1.46035 0
M  V30 3345 O 312.076 0.941335 1.46576 0
M  V30 3346 C 309.208 1.93578 2.80607 0
M  V30 3347 H 310.401 2.75174 1.19244 0
M  V30 3348 H 307.954 1.44864 0.586872 0
M  V30 3349 H 308.689 1.00746 3.08254 0
M  V30 3350 H 308.474 2.75724 2.78781 0
M  V30 3351 H 309.964 2.15735 3.57558 0
M  V30 3352 N 310.401 -0.613514 1.45168 0
M  V30 3353 C 311.65 -1.36874 1.4815 0
M  V30 3354 C 311.963 -1.952 0.124982 0
M  V30 3355 O 313.169 -2.71481 0.0324176 0
M  V30 3356 C 311.625 -2.47905 2.60904 0
M  V30 3357 C 311.233 -1.96016 4.02842 0
M  V30 3358 C 312.977 -3.24965 2.73126 0
M  V30 3359 C 310.884 -3.04494 5.06988 0
M  V30 3360 H 309.814 -0.514428 0.551253 0
M  V30 3361 H 312.465 -0.658182 1.7129 0
M  V30 3362 H 310.847 -3.21618 2.31037 0
M  V30 3363 H 312.021 -1.29051 4.4236 0
M  V30 3364 H 310.336 -1.31719 3.95018 0
M  V30 3365 H 312.933 -4.05865 3.48106 0
M  V30 3366 H 313.276 -3.75588 1.79553 0
M  V30 3367 H 313.809 -2.5835 3.0249 0
M  V30 3368 H 310.548 -2.58795 6.0225 0
M  V30 3369 H 310.068 -3.70044 4.72046 0
M  V30 3370 H 311.747 -3.68976 5.31475 0
M  V30 3371 N 311.879 -1.3236 -0.855495 0
M  V30 3372 C 313.125 -1.23054 -1.612 0
M  V30 3373 C 313.458 0.207404 -1.93089 0
M  V30 3374 O 312.733 1.14432 -1.57275 0
M  V30 3375 C 313.016 -2.08937 -2.93287 0
M  V30 3376 C 312.869 -3.61105 -2.68185 0
M  V30 3377 C 314.188 -1.94986 -3.94549 0
M  V30 3378 H 311.307 -0.448364 -0.584926 0
M  V30 3379 H 313.949 -1.62297 -0.987917 0
M  V30 3380 H 312.099 -1.75599 -3.46551 0
M  V30 3381 H 313.771 -4.04652 -2.21483 0
M  V30 3382 H 312.014 -3.83813 -2.02164 0
M  V30 3383 H 312.685 -4.16522 -3.62234 0
M  V30 3384 H 315.161 -2.24189 -3.5054 0
M  V30 3385 H 314.037 -2.57356 -4.84829 0
M  V30 3386 H 314.298 -0.917263 -4.3248 0
M  V30 3387 N 313.357 1.07166 -1.15556 0
M  V30 3388 C 314.606 1.79181 -0.926132 0
M  V30 3389 C 314.919 1.87768 0.547967 0
M  V30 3390 O 316.125 2.56323 0.895036 0
M  V30 3391 C 314.581 3.22 -1.60761 0
M  V30 3392 C 314.189 3.21607 -3.11886 0
M  V30 3393 C 315.933 3.9861 -1.4598 0
M  V30 3394 C 313.84 4.59092 -3.72812 0
M  V30 3395 H 312.77 0.67154 -0.342856 0
M  V30 3396 H 315.421 1.2027 -1.3859 0
M  V30 3397 H 313.803 3.81115 -1.07553 0
M  V30 3398 H 314.977 2.72127 -3.71865 0
M  V30 3399 H 313.292 2.58495 -3.2645 0
M  V30 3400 H 315.889 5.00225 -1.88888 0
M  V30 3401 H 316.232 4.143 -0.407541 0
M  V30 3402 H 316.765 3.45996 -1.96295 0
M  V30 3403 H 313.504 4.48606 -4.77946 0
M  V30 3404 H 313.024 5.08803 -3.17616 0
M  V30 3405 H 314.703 5.28059 -3.73848 0
M  V30 3406 N 314.835 0.952656 1.25548 0
M  V30 3407 C 316.081 0.616826 1.93822 0
M  V30 3408 C 316.436 -0.836684 1.73255 0
M  V30 3409 O 315.729 -1.59218 1.06584 0
M  V30 3410 C 315.923 0.908818 3.45652 0
M  V30 3411 C 315.752 2.38916 3.80984 0
M  V30 3412 C 314.522 3.04637 4.03143 0
M  V30 3413 C 316.72 3.36838 3.88645 0
M  V30 3414 N 314.702 4.42565 4.25453 0
M  V30 3415 C 316.073 4.60065 4.1562 0
M  V30 3416 C 318.128 3.31704 3.71318 0
M  V30 3417 C 316.831 5.78795 4.2707 0
M  V30 3418 C 318.857 4.4977 3.84006 0
M  V30 3419 C 318.219 5.71783 4.11392 0
M  V30 3420 H 314.318 0.27629 0.731565 0
M  V30 3421 H 316.902 1.22443 1.5138 0
M  V30 3422 H 315.073 0.330166 3.86994 0
M  V30 3423 H 316.805 0.533093 4.01174 0
M  V30 3424 H 313.56 2.55215 3.98952 0
M  V30 3425 H 313.984 5.1399 4.40617 0
M  V30 3426 H 318.626 2.3842 3.49164 0
M  V30 3427 H 316.344 6.72521 4.48041 0
M  V30 3428 H 319.93 4.47342 3.71989 0
M  V30 3429 H 318.81 6.61617 4.2099 0
M  V30 3430 N 316.313 -1.40141 0.720998 0
M  V30 3431 C 317.561 -2.0039 0.262323 0
M  V30 3432 C 317.882 -1.57469 -1.15015 0
M  V30 3433 O 317.152 -0.816582 -1.78069 0
M  V30 3434 H 315.732 -0.741063 0.093996 0
M  V30 3435 H 318.394 -1.71398 0.927835 0
M  V30 3436 H 317.49 -3.10658 0.299671 0
M  V30 3437 N 317.792 -0.46758 -1.50504 0
M  V30 3438 C 319.038 0.0887532 -2.02606 0
M  V30 3439 C 319.371 1.39686 -1.34913 0
M  V30 3440 O 318.646 1.88644 -0.473694 0
M  V30 3441 C 318.929 0.276206 -3.59039 0
M  V30 3442 C 318.782 -1.05267 -4.37309 0
M  V30 3443 C 320.101 1.03235 -4.27821 0
M  V30 3444 H 317.22 0.0307814 -0.736357 0
M  V30 3445 H 319.862 -0.612485 -1.79857 0
M  V30 3446 H 318.012 0.8735 -3.78553 0
M  V30 3447 H 319.684 -1.68628 -4.29374 0
M  V30 3448 H 317.927 -1.65015 -4.01189 0
M  V30 3449 H 318.598 -0.875197 -5.45018 0
M  V30 3450 H 321.074 0.526111 -4.12761 0
M  V30 3451 H 319.95 1.1323 -5.37094 0
M  V30 3452 H 320.211 2.06806 -3.90748 0
M  V30 3453 N 319.27 1.56325 -0.20005 0
M  V30 3454 C 320.2 2.22318 0.713916 0
M  V30 3455 C 321.181 1.18788 1.21752 0
M  V30 3456 O 322.366 1.47309 1.26545 0
M  V30 3457 C 319.496 2.88639 1.93144 0
M  V30 3458 C 318.45 3.98457 1.56255 0
M  V30 3459 C 317.776 4.51967 2.85709 0
M  V30 3460 C 319.076 5.16612 0.768747 0
M  V30 3461 H 320.77 2.98952 0.163755 0
M  V30 3462 H 318.316 1.43792 0.0773219 0
M  V30 3463 H 320.269 3.33491 2.57608 0
M  V30 3464 H 318.993 2.09419 2.50621 0
M  V30 3465 H 317.652 3.54305 0.941471 0
M  V30 3466 H 317.3 3.69503 3.41287 0
M  V30 3467 H 317 5.26071 2.6177 0
M  V30 3468 H 318.524 4.99523 3.51154 0
M  V30 3469 H 319.938 5.57977 1.3166 0
M  V30 3470 H 318.335 5.96812 0.627286 0
M  V30 3471 H 319.405 4.84358 -0.229168 0
M  V30 3472 N 320.748 -0.0735177 1.57428 0
M  V30 3473 C 321.976 -0.785969 1.9139 0
M  V30 3474 C 322.391 -1.71207 0.795847 0
M  V30 3475 O 321.748 -1.81033 -0.230915 0
M  V30 3476 C 321.799 -1.58107 3.25091 0
M  V30 3477 O 321.52 -0.6922 4.32597 0
M  V30 3478 C 323.021 -2.39467 3.73055 0
M  V30 3479 H 320.241 -0.223558 0.632663 0
M  V30 3480 H 322.785 -0.044302 2.04452 0
M  V30 3481 H 320.94 -2.27503 3.13562 0
M  V30 3482 H 321.354 -1.24504 5.09508 0
M  V30 3483 H 322.828 -2.90716 4.69242 0
M  V30 3484 H 323.305 -3.18913 3.01979 0
M  V30 3485 H 323.911 -1.7523 3.87523 0
M  V30 3486 N 322.226 -1.5378 -0.344866 0
M  V30 3487 C 323.158 -1.77988 -1.44406 0
M  V30 3488 C 324.171 -0.661138 -1.48771 0
M  V30 3489 O 325.36 -0.937842 -1.51877 0
M  V30 3490 C 322.46 -1.86345 -2.8307 0
M  V30 3491 C 321.633 -3.16256 -3.0216 0
M  V30 3492 C 320.692 -3.15588 -4.21059 0
M  V30 3493 O 319.718 -3.89314 -4.15239 0
M  V30 3494 N 320.92 -2.37864 -5.29529 0
M  V30 3495 H 323.685 -2.72839 -1.24012 0
M  V30 3496 H 321.246 -1.52814 -0.534737 0
M  V30 3497 H 323.238 -1.83351 -3.60783 0
M  V30 3498 H 321.808 -0.986858 -2.96614 0
M  V30 3499 H 321.028 -3.32385 -2.11929 0
M  V30 3500 H 322.316 -4.0207 -3.11797 0
M  V30 3501 H 321.714 -1.77514 -5.37127 0
M  V30 3502 H 320.271 -2.40668 -6.05741 0
M  V30 3503 N 323.704 0.605807 -1.45491 0
M  V30 3504 C 324.651 1.7164 -1.54299 0
M  V30 3505 C 325.621 1.61486 -0.388761 0
M  V30 3506 O 326.806 1.81039 -0.602445 0
M  V30 3507 C 323.946 3.09953 -1.51734 0
M  V30 3508 C 323.059 3.309 -2.77721 0
M  V30 3509 C 322.194 4.59329 -2.66816 0
M  V30 3510 C 321.233 4.7354 -3.87848 0
M  V30 3511 N 320.37 5.9327 -3.75467 0
M  V30 3512 H 325.21 1.63449 -2.49176 0
M  V30 3513 H 322.747 0.796957 -1.23641 0
M  V30 3514 H 324.705 3.89977 -1.48235 0
M  V30 3515 H 323.335 3.17098 -0.604068 0
M  V30 3516 H 322.387 2.44639 -2.913 0
M  V30 3517 H 323.699 3.37274 -3.67488 0
M  V30 3518 H 322.853 5.4755 -2.61292 0
M  V30 3519 H 321.592 4.55355 -1.74651 0
M  V30 3520 H 320.597 3.83741 -3.93729 0
M  V30 3521 H 321.822 4.79309 -4.81082 0
M  V30 3522 H 319.768 5.90338 -2.86072 0
M  V30 3523 H 319.685 6.00811 -4.5887 0
M  V30 3524 H 320.953 6.83984 -3.73879 0
M  V30 3525 N 325.182 1.32811 0.848464 0
M  V30 3526 C 326.129 1.22265 1.95755 0
M  V30 3527 C 327.099 0.103413 1.65778 0
M  V30 3528 O 328.284 0.280033 1.88734 0
M  V30 3529 C 325.424 0.958014 3.31536 0
M  V30 3530 C 324.537 2.16262 3.73971 0
M  V30 3531 C 323.672 1.83295 4.98575 0
M  V30 3532 C 322.711 3.00041 5.33518 0
M  V30 3533 N 321.848 2.67125 6.49299 0
M  V30 3534 H 326.688 2.17128 2.04107 0
M  V30 3535 H 324.225 1.07982 0.998913 0
M  V30 3536 H 326.183 0.785052 4.09747 0
M  V30 3537 H 324.813 0.046159 3.22767 0
M  V30 3538 H 323.865 2.44565 2.91362 0
M  V30 3539 H 325.177 3.03572 3.95785 0
M  V30 3540 H 324.331 1.62586 5.84509 0
M  V30 3541 H 323.07 0.932078 4.7871 0
M  V30 3542 H 322.075 3.21374 4.46093 0
M  V30 3543 H 323.3 3.90869 5.55336 0
M  V30 3544 H 321.246 1.79586 6.3094 0
M  V30 3545 H 321.163 3.47965 6.71161 0
M  V30 3546 H 322.431 2.49861 7.3837 0
M  V30 3547 N 326.66 -1.06551 1.16123 0
M  V30 3548 C 328.071 -1.60768 0.949232 0
M  V30 3549 C 328.422 -1.89523 -0.507508 0
M  V30 3550 O 327.547 -1.66671 -1.38021 0
M  V30 3551 C 328.142 -2.92086 1.71671 0
M  V30 3552 C 326.701 -3.43015 1.54977 0
M  V30 3553 C 325.848 -2.16947 1.72711 0
M  V30 3554 H 328.799 -0.895354 1.31031 0
M  V30 3555 H 328.82 -3.6138 1.19099 0
M  V30 3556 H 328.332 -2.71127 2.7769 0
M  V30 3557 H 326.433 -3.69039 0.513873 0
M  V30 3558 H 326.546 -4.18516 2.33198 0
M  V30 3559 H 324.91 -2.27041 1.15431 0
M  V30 3560 H 325.693 -1.98473 2.80113 0
M  V30 3561 N 328.138 -0.959301 -1.25041 0
M  V30 3562 C 329.385 -0.616611 -1.92884 0
M  V30 3563 C 329.713 0.847036 -1.75087 0
M  V30 3564 O 328.968 1.62374 -1.09239 0
M  V30 3565 C 329.267 -0.927136 -3.45165 0
M  V30 3566 C 328.933 -2.37757 -3.83122 0
M  V30 3567 C 327.595 -2.77402 -3.93194 0
M  V30 3568 C 329.947 -3.31929 -4.01836 0
M  V30 3569 C 327.275 -4.10277 -4.19392 0
M  V30 3570 C 329.627 -4.64423 -4.29528 0
M  V30 3571 C 328.291 -5.03857 -4.37818 0
M  V30 3572 H 327.561 -0.225634 -0.705812 0
M  V30 3573 H 330.208 -1.20921 -1.48493 0
M  V30 3574 H 328.513 -0.252195 -3.90987 0
M  V30 3575 H 330.21 -0.6405 -3.95852 0
M  V30 3576 H 326.8 -2.06013 -3.75841 0
M  V30 3577 H 330.984 -3.02488 -3.93465 0
M  V30 3578 H 326.24 -4.40467 -4.24027 0
M  V30 3579 H 330.414 -5.37369 -4.42953 0
M  V30 3580 H 328.041 -6.06843 -4.57871 0
M  V30 3581 N 329.616 1.39756 -0.72842 0
M  V30 3582 C 330.579 2.29012 -0.0927297 0
M  V30 3583 C 331.579 1.45992 0.674025 0
M  V30 3584 O 332.769 1.66749 0.50402 0
M  V30 3585 C 329.901 3.29396 0.878137 0
M  V30 3586 H 331.094 2.86729 -0.879011 0
M  V30 3587 H 328.647 1.48293 -0.493847 0
M  V30 3588 H 329.382 2.76722 1.69101 0
M  V30 3589 H 329.167 3.907 0.331051 0
M  V30 3590 H 330.657 3.96199 1.3197 0
M  V30 3591 N 331.094 0.475555 1.50254 0
M  V30 3592 C 332.371 -0.139685 1.95101 0
M  V30 3593 C 332.751 -1.56555 1.41611 0
M  V30 3594 O 332.099 -2.19956 0.618993 0
M  V30 3595 C 332.309 -0.0784298 3.48912 0
M  V30 3596 C 333.657 -0.265095 4.23772 0
M  V30 3597 O 334.681 -0.154808 3.55863 0
M  V30 3598 O 333.54 -0.488327 5.44314 0
M  V30 3599 H 330.634 -0.109236 0.819754 0
M  V30 3600 H 333.18 0.536276 1.61004 0
M  V30 3601 H 331.952 0.916918 3.80405 0
M  V30 3602 H 331.575 -0.795655 3.89558 0
M  V30 3603 N 332.573 -1.56217 0.208337 0
M  V30 3604 C 333.483 -2.23316 -0.718836 0
M  V30 3605 C 334.499 -1.23648 -1.22422 0
M  V30 3606 O 335.675 -1.56423 -1.26861 0
M  V30 3607 C 332.74 -2.88968 -1.91568 0
M  V30 3608 C 331.801 -4.03943 -1.45357 0
M  V30 3609 C 331.034 -4.66455 -2.59337 0
M  V30 3610 O 331.257 -4.27919 -3.77149 0
M  V30 3611 O 330.191 -5.55686 -2.31293 0
M  V30 3612 H 334.017 -3.03182 -0.177315 0
M  V30 3613 H 331.602 -1.49384 -0.0215402 0
M  V30 3614 H 333.484 -3.30455 -2.61491 0
M  V30 3615 H 332.159 -2.12071 -2.44556 0
M  V30 3616 H 331.066 -3.67052 -0.722746 0
M  V30 3617 H 332.399 -4.82543 -0.970219 0
M  V30 3618 N 334.051 0.0651679 -1.57465 0
M  V30 3619 C 334.998 1.07675 -2.04144 0
M  V30 3620 C 335.968 1.38071 -0.923335 0
M  V30 3621 O 337.153 1.49026 -1.19146 0
M  V30 3622 C 334.293 2.38337 -2.49579 0
M  V30 3623 C 333.406 2.14413 -3.75035 0
M  V30 3624 C 332.541 3.38686 -4.09225 0
M  V30 3625 C 331.58 3.10156 -5.27702 0
M  V30 3626 N 330.717 4.26778 -5.57499 0
M  V30 3627 H 335.557 0.671716 -2.90331 0
M  V30 3628 H 333.094 0.3201 -1.43575 0
M  V30 3629 H 335.052 3.14632 -2.73975 0
M  V30 3630 H 333.682 2.7663 -1.6636 0
M  V30 3631 H 332.734 1.2878 -3.57939 0
M  V30 3632 H 334.046 1.89344 -4.61466 0
M  V30 3633 H 333.2 4.23373 -4.34558 0
M  V30 3634 H 331.939 3.66837 -3.21374 0
M  V30 3635 H 330.944 2.23866 -5.02159 0
M  V30 3636 H 332.169 2.8332 -6.17176 0
M  V30 3637 H 330.115 4.54948 -4.72608 0
M  V30 3638 H 330.032 4.05005 -6.38362 0
M  V30 3639 H 331.3 5.12443 -5.87386 0
M  V30 3640 N 335.529 1.53961 0.336706 0
M  V30 3641 C 336.477 1.83136 1.43401 0
M  V30 3642 C 337.471 0.702313 1.54156 0
M  V30 3643 O 338.677 0.885765 1.56698 0
M  V30 3644 H 335.052 0.580309 0.478273 0
M  V30 3645 H 337.023 2.74925 1.16012 0
M  V30 3646 C 335.772 2.06385 2.79822 0
M  V30 3647 H 335.095 2.92718 2.72316 0
M  V30 3648 H 336.535 2.30761 3.55704 0
M  V30 3649 C 334.994 0.851414 3.25964 0
M  V30 3650 O 335.524 0.0541904 4.01663 0
M  V30 3651 N 333.73 0.66672 2.82848 0
M  V30 3652 H 333.277 1.31665 2.21409 0
M  V30 3653 H 333.235 -0.143032 3.14074 0
M  V30 3654 N 337.007 -0.598083 1.45811 0
M  V30 3655 C 338.256 -1.35295 1.49594 0
M  V30 3656 C 338.569 -1.95057 0.145679 0
M  V30 3657 O 339.775 -2.71431 0.0612099 0
M  V30 3658 C 338.231 -2.45124 2.63519 0
M  V30 3659 C 337.839 -1.91732 4.04899 0
M  V30 3660 C 339.583 -3.2205 2.76558 0
M  V30 3661 C 337.49 -2.991 5.1019 0
M  V30 3662 H 336.42 -0.508552 0.556679 0
M  V30 3663 H 339.071 -0.639977 1.71978 0
M  V30 3664 H 337.453 -3.19149 2.34435 0
M  V30 3665 H 338.627 -1.24352 4.43704 0
M  V30 3666 H 336.942 -1.27522 3.96393 0
M  V30 3667 H 339.539 -4.0215 3.52391 0
M  V30 3668 H 339.882 -3.73663 1.83526 0
M  V30 3669 H 340.415 -2.55127 3.05213 0
M  V30 3670 H 337.154 -2.52393 6.04961 0
M  V30 3671 H 336.674 -3.65017 4.75944 0
M  V30 3672 H 338.353 -3.63318 5.35359 0
M  V30 3673 N 338.485 -1.33259 -0.841409 0
M  V30 3674 C 339.415 -1.25926 -1.96634 0
M  V30 3675 C 340.396 -0.140349 -1.6952 0
M  V30 3676 O 341.581 -0.329707 -1.91381 0
M  V30 3677 C 338.711 -0.99512 -3.32738 0
M  V30 3678 C 337.665 -2.0767 -3.74242 0
M  V30 3679 C 336.991 -1.66474 -5.08125 0
M  V30 3680 C 338.291 -3.49318 -3.88297 0
M  V30 3681 H 339.985 -2.20046 -2.03027 0
M  V30 3682 H 337.531 -1.05931 -0.975425 0
M  V30 3683 H 339.484 -0.930323 -4.11002 0
M  V30 3684 H 338.208 -0.0183004 -3.26595 0
M  V30 3685 H 336.867 -2.13187 -2.98239 0
M  V30 3686 H 336.515 -0.675012 -4.9845 0
M  V30 3687 H 336.215 -2.3885 -5.36865 0
M  V30 3688 H 337.739 -1.61455 -5.88867 0
M  V30 3689 H 339.153 -3.46316 -4.56879 0
M  V30 3690 H 337.55 -4.20158 -4.28471 0
M  V30 3691 H 338.62 -3.8801 -2.9082 0
M  V30 3692 N 339.963 1.05934 -1.16686 0
M  V30 3693 C 340.913 2.11764 -0.844978 0
M  V30 3694 C 341.897 1.59922 0.177178 0
M  V30 3695 O 343.089 1.76983 -0.0241768 0
M  V30 3696 C 340.218 3.41493 -0.351812 0
M  V30 3697 C 339.304 4.00152 -1.40496 0
M  V30 3698 N 339.695 4.32874 -2.61636 0
M  V30 3699 C 337.993 4.278 -1.26106 0
M  V30 3700 C 338.694 4.79552 -3.29249 0
M  V30 3701 N 337.67 4.79211 -2.56628 0
M  V30 3702 H 341.472 2.34916 -1.76612 0
M  V30 3703 H 338.986 1.23511 -1.05446 0
M  V30 3704 H 340.983 4.16773 -0.102796 0
M  V30 3705 H 339.643 3.19778 0.56322 0
M  V30 3706 H 340.654 4.23109 -2.98663 0
M  V30 3707 H 337.331 4.15511 -0.407081 0
M  V30 3708 H 338.721 5.14045 -4.32675 0
M  V30 3709 N 341.441 0.965919 1.2453 0
M  V30 3710 C 342.69 0.622437 1.91856 0
M  V30 3711 C 343.003 -0.846006 1.76358 0
M  V30 3712 O 344.209 -1.29993 2.38357 0
M  V30 3713 C 342.665 1.0626 3.43856 0
M  V30 3714 C 342.273 2.55437 3.68043 0
M  V30 3715 C 344.017 0.792183 4.17043 0
M  V30 3716 C 341.924 2.93196 5.13605 0
M  V30 3717 H 340.854 0.229092 0.718354 0
M  V30 3718 H 343.505 1.17189 1.41206 0
M  V30 3719 H 341.887 0.441476 3.93531 0
M  V30 3720 H 343.061 3.22665 3.28974 0
M  V30 3721 H 341.376 2.8007 3.08139 0
M  V30 3722 H 343.973 1.05031 5.24283 0
M  V30 3723 H 344.316 -0.271584 4.15413 0
M  V30 3724 H 344.849 1.37419 3.73311 0
M  V30 3725 H 341.588 3.98636 5.20355 0
M  V30 3726 H 341.108 2.30651 5.53679 0
M  V30 3727 H 342.787 2.83004 5.81823 0
M  V30 3728 N 342.919 -1.39368 0.735821 0
M  V30 3729 C 343.852 -2.28155 0.0451175 0
M  V30 3730 C 344.83 -1.44433 -0.746852 0
M  V30 3731 O 346.014 -1.73823 -0.729237 0
M  V30 3732 C 343.141 -3.253 -0.943266 0
M  V30 3733 C 342.187 -4.25826 -0.239685 0
M  V30 3734 S 343.02 -5.25166 1.04693 0
M  V30 3735 C 344.176 -6.2587 0.0611639 0
M  V30 3736 H 344.409 -2.86388 0.79807 0
M  V30 3737 H 341.942 -1.45104 0.527653 0
M  V30 3738 H 343.9 -3.81789 -1.50824 0
M  V30 3739 H 342.561 -2.66085 -1.66906 0
M  V30 3740 H 341.754 -4.94229 -0.987596 0
M  V30 3741 H 341.356 -3.73141 0.253274 0
M  V30 3742 H 343.648 -6.73007 -0.778941 0
M  V30 3743 H 344.591 -7.04508 0.712362 0
M  V30 3744 H 344.999 -5.63639 -0.311602 0
M  V30 3745 N 344.397 -0.483516 -1.5 0
M  V30 3746 C 345.643 0.0672592 -2.02688 0
M  V30 3747 C 345.976 1.38247 -1.36387 0
M  V30 3748 O 345.251 1.88131 -0.493675 0
M  V30 3749 C 345.534 0.238109 -3.59312 0
M  V30 3750 C 345.387 -1.099 -4.36168 0
M  V30 3751 C 346.706 0.986916 -4.28892 0
M  V30 3752 H 343.825 0.0229696 -0.736642 0
M  V30 3753 H 346.467 -0.631527 -1.79197 0
M  V30 3754 H 344.617 0.8333 -3.79458 0
M  V30 3755 H 346.289 -1.73172 -4.27562 0
M  V30 3756 H 344.532 -1.69261 -3.99416 0
M  V30 3757 H 345.203 -0.932954 -5.44059 0
M  V30 3758 H 347.679 0.482302 -4.13295 0
M  V30 3759 H 346.555 1.07527 -5.38265 0
M  V30 3760 H 346.816 2.0265 -3.92919 0
M  V30 3761 N 345.875 1.56104 -0.216619 0
M  V30 3762 C 346.822 2.2007 0.695531 0
M  V30 3763 C 347.792 1.15471 1.19397 0
M  V30 3764 O 348.977 1.43807 1.25396 0
M  V30 3765 C 346.117 2.88073 1.90021 0
M  V30 3766 C 345.23 4.07253 1.44113 0
M  V30 3767 C 344.365 4.63052 2.603 0
M  V30 3768 C 343.404 5.74545 2.11103 0
M  V30 3769 N 342.541 6.24656 3.20545 0
M  V30 3770 H 347.381 2.97655 0.143327 0
M  V30 3771 H 344.918 1.46982 0.0589934 0
M  V30 3772 H 346.876 3.25681 2.60745 0
M  V30 3773 H 345.506 2.13015 2.42538 0
M  V30 3774 H 344.558 3.75164 0.628999 0
M  V30 3775 H 345.87 4.8783 1.04036 0
M  V30 3776 H 345.024 5.03078 3.39113 0
M  V30 3777 H 343.763 3.81628 3.03663 0
M  V30 3778 H 342.768 5.34027 1.3075 0
M  V30 3779 H 343.993 6.57801 1.68746 0
M  V30 3780 H 341.939 5.46148 3.63399 0
M  V30 3781 H 341.856 7.00343 2.84704 0
M  V30 3782 H 343.124 6.69338 3.99508 0
M  V30 3783 N 347.353 -0.0568162 1.57498 0
M  V30 3784 C 348.599 -0.75422 1.88253 0
M  V30 3785 C 348.932 -1.76461 0.810865 0
M  V30 3786 O 348.207 -1.93691 -0.177259 0
M  V30 3787 C 348.49 -1.44878 3.2967 0
M  V30 3788 C 348.343 -0.453789 4.47505 0
M  V30 3789 C 349.662 -2.38994 3.69554 0
M  V30 3790 H 346.781 -0.272724 0.684683 0
M  V30 3791 H 349.423 -0.0172113 1.89992 0
M  V30 3792 H 347.573 -2.077 3.28318 0
M  V30 3793 H 349.245 0.170371 4.60985 0
M  V30 3794 H 347.488 0.229552 4.33192 0
M  V30 3795 H 348.159 -0.977699 5.43273 0
M  V30 3796 H 350.635 -1.86239 3.72095 0
M  V30 3797 H 349.511 -2.84587 4.69363 0
M  V30 3798 H 349.772 -3.24461 3.00296 0
M  V30 3799 N 348.832 -1.54138 -0.328536 0
M  V30 3800 C 350.078 -1.7236 -1.06865 0
M  V30 3801 C 350.411 -0.493231 -1.87832 0
M  V30 3802 O 349.686 0.5098 -1.877 0
M  V30 3803 C 349.969 -2.99621 -1.99747 0
M  V30 3804 C 349.822 -4.32899 -1.22143 0
M  V30 3805 C 351.141 -3.22615 -2.99345 0
M  V30 3806 H 348.26 -0.627151 -0.387105 0
M  V30 3807 H 350.902 -1.86827 -0.345767 0
M  V30 3808 H 349.052 -2.87418 -2.61387 0
M  V30 3809 H 350.724 -4.56978 -0.630017 0
M  V30 3810 H 348.967 -4.30628 -0.523628 0
M  V30 3811 H 349.638 -5.18154 -1.90318 0
M  V30 3812 H 352.114 -3.34248 -2.47826 0
M  V30 3813 H 350.99 -4.13027 -3.61524 0
M  V30 3814 H 351.251 -2.3961 -3.71536 0
M  V30 3815 N 350.31 0.590341 -1.46126 0
M  V30 3816 C 351.257 1.69994 -1.56111 0
M  V30 3817 C 352.227 1.61065 -0.405867 0
M  V30 3818 O 353.412 1.8039 -0.621613 0
M  V30 3819 C 350.552 3.08326 -1.55013 0
M  V30 3820 C 349.665 3.27936 -2.81215 0
M  V30 3821 C 348.8 4.56473 -2.71673 0
M  V30 3822 C 347.839 4.694 -3.92849 0
M  V30 3823 N 346.976 5.89254 -3.81738 0
M  V30 3824 H 351.816 1.60797 -2.50895 0
M  V30 3825 H 349.353 0.783799 -1.24479 0
M  V30 3826 H 351.311 3.88383 -1.52362 0
M  V30 3827 H 349.941 3.16439 -0.637667 0
M  V30 3828 H 348.993 2.41536 -2.93879 0
M  V30 3829 H 350.305 3.33357 -3.71045 0
M  V30 3830 H 349.459 5.44748 -2.67085 0
M  V30 3831 H 348.198 4.53477 -1.7947 0
M  V30 3832 H 347.203 3.79544 -3.97777 0
M  V30 3833 H 348.428 4.7418 -4.86138 0
M  V30 3834 H 346.374 5.87271 -2.92317 0
M  V30 3835 H 346.291 5.95911 -4.65217 0
M  V30 3836 H 347.559 6.79981 -3.81112 0
M  V30 3837 N 351.788 1.33704 0.83433 0
M  V30 3838 C 353.036 1.25169 1.58673 0
M  V30 3839 C 353.357 -0.18127 1.94156 0
M  V30 3840 O 352.627 -1.11113 1.6134 0
M  V30 3841 H 351.207 0.4603 0.58833 0
M  V30 3842 H 353.869 1.67478 0.996847 0
M  V30 3843 H 352.965 1.84856 2.51465 0
M  V30 3844 N 353.266 -1.05314 1.17247 0
M  V30 3845 C 354.216 -2.11313 0.856196 0
M  V30 3846 C 355.2 -1.60013 -0.168694 0
M  V30 3847 O 356.392 -1.76968 0.0335624 0
M  V30 3848 C 353.521 -3.41301 0.369917 0
M  V30 3849 C 352.607 -3.99401 1.42616 0
M  V30 3850 N 352.998 -4.31481 2.63928 0
M  V30 3851 C 351.296 -4.27126 1.28373 0
M  V30 3852 C 351.997 -4.77799 3.31787 0
M  V30 3853 N 350.973 -4.77843 2.59166 0
M  V30 3854 H 354.775 -2.33976 1.77856 0
M  V30 3855 H 352.289 -1.2295 1.06099 0
M  V30 3856 H 354.286 -4.16713 0.124897 0
M  V30 3857 H 352.946 -3.20072 -0.546253 0
M  V30 3858 H 353.957 -4.21519 3.00902 0
M  V30 3859 H 350.634 -4.15289 0.429111 0
M  V30 3860 H 352.024 -5.11743 4.35395 0
M  V30 3861 N 354.744 -0.972509 -1.24016 0
M  V30 3862 C 356.16 -0.679827 -1.44397 0
M  V30 3863 C 356.36 0.756716 -1.86751 0
M  V30 3864 O 355.416 1.53007 -2.00861 0
M  V30 3865 C 356.729 -1.66803 -2.50195 0
M  V30 3866 C 358.277 -1.68119 -2.64017 0
M  V30 3867 C 358.752 -2.65748 -3.73017 0
M  V30 3868 N 360.243 -2.64219 -3.8045 0
M  V30 3869 C 360.978 -3.36433 -4.64328 0
M  V30 3870 N 360.474 -4.1818 -5.52356 0
M  V30 3871 N 362.267 -3.25235 -4.58453 0
M  V30 3872 H 354.418 -1.90059 -0.948228 0
M  V30 3873 H 356.681 -0.818527 -0.478245 0
M  V30 3874 H 356.387 -2.69498 -2.25973 0
M  V30 3875 H 356.261 -1.4446 -3.48441 0
M  V30 3876 H 358.648 -0.661319 -2.87594 0
M  V30 3877 H 358.729 -1.94525 -1.66113 0
M  V30 3878 H 358.373 -3.67872 -3.50189 0
M  V30 3879 H 358.303 -2.36619 -4.70446 0
M  V30 3880 H 360.794 -2.04887 -3.17537 0
M  V30 3881 H 361.107 -4.70157 -6.13329 0
M  V30 3882 H 359.452 -4.22273 -5.52006 0
M  V30 3883 H 362.643 -2.60829 -3.88698 0
M  V30 3884 H 362.816 -3.81776 -5.23594 0
M  V30 3885 N 356.222 1.38976 -0.743202 0
M  V30 3886 C 357.633 1.83123 -0.363732 0
M  V30 3887 C 357.984 1.6205 1.10609 0
M  V30 3888 O 357.109 1.11606 1.854 0
M  V30 3889 C 357.704 3.32439 -0.653408 0
M  V30 3890 C 356.263 3.74974 -0.327338 0
M  V30 3891 C 355.41 2.61878 -0.911875 0
M  V30 3892 H 358.361 1.27852 -0.940191 0
M  V30 3893 H 358.382 3.80432 0.0720031 0
M  V30 3894 H 357.894 3.47745 -1.72323 0
M  V30 3895 H 355.995 3.65252 0.736314 0
M  V30 3896 H 356.108 4.72106 -0.815631 0
M  V30 3897 H 354.472 2.52448 -0.337944 0
M  V30 3898 H 355.255 2.79987 -1.98651 0
M  V30 3899 N 357.7 0.491464 1.49741 0
M  V30 3900 C 358.61 -0.296835 2.32715 0
M  V30 3901 C 359.626 -0.976536 1.44013 0
M  V30 3902 O 360.802 -0.960023 1.77047 0
M  V30 3903 C 357.867 -1.35288 3.19215 0
M  V30 3904 C 356.928 -0.687632 4.23757 0
M  V30 3905 C 356.161 -1.69336 5.06123 0
M  V30 3906 O 356.384 -2.92219 4.89861 0
M  V30 3907 O 355.318 -1.25394 5.88693 0
M  V30 3908 H 359.144 0.382048 3.01287 0
M  V30 3909 H 356.729 0.252953 1.47243 0
M  V30 3910 H 358.611 -1.96411 3.72828 0
M  V30 3911 H 357.286 -2.01487 2.53347 0
M  V30 3912 H 356.193 -0.0369159 3.74082 0
M  V30 3913 H 357.526 -0.0682566 4.92153 0
M  V30 3914 N 359.178 -1.55987 0.224894 0
M  V30 3915 C 360.108 -2.23426 -0.678457 0
M  V30 3916 C 361.089 -1.20709 -1.19847 0
M  V30 3917 O 362.274 -1.49304 -1.24186 0
M  V30 3918 C 359.404 -2.91676 -1.88527 0
M  V30 3919 C 358.358 -4.00893 -1.49896 0
M  V30 3920 C 357.684 -4.56455 -2.78483 0
M  V30 3921 C 358.984 -5.17769 -0.686461 0
M  V30 3922 H 360.678 -2.99175 -0.116173 0
M  V30 3923 H 358.224 -1.43897 -0.054436 0
M  V30 3924 H 360.177 -3.37547 -2.5227 0
M  V30 3925 H 358.901 -2.1338 -2.47258 0
M  V30 3926 H 357.56 -3.55758 -0.884985 0
M  V30 3927 H 357.208 -3.74886 -3.35365 0
M  V30 3928 H 356.908 -5.30169 -2.53368 0
M  V30 3929 H 358.432 -5.05047 -3.43162 0
M  V30 3930 H 359.846 -5.60001 -1.22767 0
M  V30 3931 H 358.243 -5.97735 -0.532259 0
M  V30 3932 H 359.313 -4.83932 0.306196 0
M  V30 3933 N 360.656 0.0484629 -1.57525 0
M  V30 3934 C 362.067 0.597486 -1.76881 0
M  V30 3935 C 362.418 1.76664 -0.853475 0
M  V30 3936 O 361.543 2.16357 -0.0433656 0
M  V30 3937 C 362.138 1.09066 -3.20765 0
M  V30 3938 C 360.697 1.58535 -3.41385 0
M  V30 3939 C 359.844 0.514868 -2.72478 0
M  V30 3940 H 362.795 -0.177758 -1.57701 0
M  V30 3941 H 362.816 1.95875 -3.2621 0
M  V30 3942 H 362.328 0.239521 -3.8736 0
M  V30 3943 H 360.429 2.45898 -2.79937 0
M  V30 3944 H 360.542 1.64622 -4.49929 0
M  V30 3945 H 358.906 0.965407 -2.35695 0
M  V30 3946 H 359.689 -0.32648 -3.41744 0
M  V30 3947 N 362.134 1.5431 0.320358 0
M  V30 3948 C 363.545 1.63872 0.894594 0
M  V30 3949 C 363.896 0.534847 1.88769 0
M  V30 3950 O 363.021 -0.331732 2.13842 0
M  V30 3951 C 363.616 2.97049 1.62934 0
M  V30 3952 C 362.175 3.08796 2.15226 0
M  V30 3953 C 361.322 2.59456 0.978671 0
M  V30 3954 H 364.273 1.58398 0.0978544 0
M  V30 3955 H 364.294 2.87388 2.49376 0
M  V30 3956 H 363.806 3.7737 0.906302 0
M  V30 3957 H 361.907 2.33156 2.90636 0
M  V30 3958 H 362.02 4.14649 2.40006 0
M  V30 3959 H 360.384 2.1543 1.35875 0
M  V30 3960 H 361.167 3.42237 0.269895 0
M  V30 3961 N 363.613 -0.582584 1.46437 0
M  V30 3962 C 364.859 -1.34278 1.51978 0
M  V30 3963 C 365.192 -1.93446 0.170973 0
M  V30 3964 O 364.467 -1.76481 -0.817608 0
M  V30 3965 C 364.75 -2.47203 2.61845 0
M  V30 3966 C 364.603 -1.93069 4.06257 0
M  V30 3967 C 365.922 -3.49247 2.67795 0
M  V30 3968 H 363.041 -0.486876 0.553282 0
M  V30 3969 H 365.683 -0.654437 1.78374 0
M  V30 3970 H 363.833 -3.0592 2.39469 0
M  V30 3971 H 365.505 -1.38808 4.3992 0
M  V30 3972 H 363.748 -1.23898 4.1573 0
M  V30 3973 H 364.419 -2.74586 4.7886 0
M  V30 3974 H 366.895 -3.00411 2.8791 0
M  V30 3975 H 365.771 -4.25719 3.46489 0
M  V30 3976 H 366.032 -4.06482 1.73852 0
M  V30 3977 N 365.091 -1.34144 -0.827227 0
M  V30 3978 C 366.331 -1.27603 -1.59677 0
M  V30 3979 C 366.695 0.153035 -1.91389 0
M  V30 3980 O 367.896 0.342566 -2.66608 0
M  V30 3981 C 366.167 -2.13784 -2.86411 0
M  V30 3982 S 367.726 -2.24552 -3.76991 0
M  V30 3983 H 364.544 -0.453789 -0.547354 0
M  V30 3984 H 367.146 -1.69309 -0.977479 0
M  V30 3985 H 365.85 -3.16627 -2.61104 0
M  V30 3986 H 365.381 -1.72959 -3.5334 0
M  V30 3987 H 367.396 -1.41514 -4.75593 0
M  V30 3988 N 366.569 1.04691 -1.17803 0
M  V30 3989 C 367.985 1.29963 -0.926379 0
M  V30 3990 C 368.185 1.97251 0.411635 0
M  V30 3991 O 367.241 2.24922 1.14744 0
M  V30 3992 C 368.554 2.16447 -2.08737 0
M  V30 3993 C 370.102 2.29814 -2.12496 0
M  V30 3994 C 370.577 3.19661 -3.27995 0
M  V30 3995 N 372.068 3.27247 -3.27816 0
M  V30 3996 C 372.803 3.96906 -4.13827 0
M  V30 3997 N 372.299 4.6895 -5.09959 0
M  V30 3998 N 374.092 3.93122 -4.01761 0
M  V30 3999 H 366.243 0.594182 -2.0392 0
M  V30 4000 H 368.506 0.324649 -0.890678 0
M  V30 4001 H 368.212 1.74304 -3.05469 0
M  V30 4002 H 368.086 3.17103 -2.04268 0
M  V30 4003 H 370.473 2.71196 -1.16347 0
M  V30 4004 H 370.554 1.2877 -2.21025 0
M  V30 4005 H 370.198 2.78991 -4.24413 0
M  V30 4006 H 370.128 4.20722 -3.16703 0
M  V30 4007 H 372.619 2.75921 -2.58217 0
M  V30 4008 H 372.932 5.19679 -5.71974 0
M  V30 4009 H 371.277 4.67875 -5.13924 0
M  V30 4010 H 374.468 3.35967 -3.2595 0
M  V30 4011 H 374.641 4.47139 -4.6901 0
M  V30 4012 N 368.047 0.979072 1.23499 0
M  V30 4013 C 369.01 0.523244 2.23147 0
M  V30 4014 C 370.01 -0.386406 1.56088 0
M  V30 4015 O 371.2 -0.180283 1.73265 0
M  V30 4016 C 368.332 -0.240739 3.40049 0
M  V30 4017 H 369.525 1.40432 2.64989 0
M  V30 4018 H 367.078 0.764824 1.36309 0
M  V30 4019 H 367.813 -1.13841 3.03662 0
M  V30 4020 H 367.598 0.412207 3.89927 0
M  V30 4021 H 369.088 -0.548297 4.13985 0
M  V30 4022 N 369.525 -1.3858 0.750561 0
M  V30 4023 C 370.941 -1.53759 0.427824 0
M  V30 4024 C 371.141 -1.71401 -1.05943 0
M  V30 4025 O 370.197 -1.72331 -1.84549 0
M  V30 4026 C 371.51 -2.74642 1.22443 0
M  V30 4027 C 373.058 -2.88489 1.2142 0
M  V30 4028 C 373.533 -4.12329 1.9937 0
M  V30 4029 N 375.024 -4.194 1.96616 0
M  V30 4030 C 375.759 -5.14209 2.53727 0
M  V30 4031 N 375.255 -6.14709 3.19539 0
M  V30 4032 N 377.048 -5.06537 2.43673 0
M  V30 4033 H 369.199 -1.25377 1.71447 0
M  V30 4034 H 371.462 -0.608844 0.726645 0
M  V30 4035 H 371.168 -2.68 2.27747 0
M  V30 4036 H 371.042 -3.67745 0.839273 0
M  V30 4037 H 373.429 -2.94614 0.169232 0
M  V30 4038 H 373.51 -1.96406 1.63885 0
M  V30 4039 H 373.154 -4.06966 3.03877 0
M  V30 4040 H 373.084 -5.03486 1.54302 0
M  V30 4041 H 375.575 -3.47421 1.48684 0
M  V30 4042 H 375.888 -6.8354 3.60545 0
M  V30 4043 H 374.233 -6.1505 3.23633 0
M  V30 4044 H 377.424 -4.26962 1.91889 0
M  V30 4045 H 377.597 -5.80245 2.88479 0
M  V30 4046 N 371.003 -0.499398 -1.49478 0
M  V30 4047 C 372.414 -0.051215 -1.8663 0
M  V30 4048 C 372.765 1.36238 -1.41186 0
M  V30 4049 O 371.89 2.01502 -0.789051 0
M  V30 4050 C 372.485 -0.0861651 -3.3869 0
M  V30 4051 C 371.044 0.30667 -3.75149 0
M  V30 4052 C 370.191 -0.459397 -2.73468 0
M  V30 4053 H 373.142 -0.712264 -1.41818 0
M  V30 4054 H 373.163 0.709507 -3.73826 0
M  V30 4055 H 372.675 -1.11512 -3.71735 0
M  V30 4056 H 370.776 1.33892 -3.47712 0
M  V30 4057 H 370.889 -0.0116669 -4.79099 0
M  V30 4058 H 369.253 0.0905645 -2.54539 0
M  V30 4059 H 370.036 -1.4884 -3.09357 0
M  V30 4060 N 372.481 1.55866 -0.233164 0
M  V30 4061 C 373.897 1.59133 0.121988 0
M  V30 4062 C 374.097 1.25016 1.58029 0
M  V30 4063 O 373.153 0.990922 2.32243 0
M  V30 4064 C 374.466 2.99932 -0.214792 0
M  V30 4065 C 376.014 3.12601 -0.157971 0
M  V30 4066 C 376.489 4.55597 -0.46859 0
M  V30 4067 N 377.98 4.61305 -0.418585 0
M  V30 4068 C 378.715 5.69903 -0.63227 0
M  V30 4069 N 378.211 6.86819 -0.90835 0
M  V30 4070 N 380.004 5.59264 -0.563913 0
M  V30 4071 H 372.155 1.76315 -1.18434 0
M  V30 4072 H 374.418 0.820093 -0.475553 0
M  V30 4073 H 374.124 3.29588 -1.22739 0
M  V30 4074 H 373.998 3.74327 0.464691 0
M  V30 4075 H 376.385 2.82735 0.845283 0
M  V30 4076 H 376.466 2.40511 -0.871102 0
M  V30 4077 H 376.11 4.86182 -1.46934 0
M  V30 4078 H 376.04 5.25928 0.265865 0
M  V30 4079 H 378.531 3.77297 -0.213368 0
M  V30 4080 H 378.844 7.65507 -1.05919 0
M  V30 4081 H 377.189 6.88536 -0.945673 0
M  V30 4082 H 380.38 4.66802 -0.348372 0
M  V30 4083 H 380.553 6.43831 -0.733847 0
M  V30 4084 N 373.959 -0.0401083 1.57549 0
M  V30 4085 C 374.922 -1.02871 2.04817 0
M  V30 4086 C 375.922 -1.29708 0.950388 0
M  V30 4087 O 377.112 -1.24897 1.21435 0
M  V30 4088 C 374.244 -2.36443 2.45576 0
M  V30 4089 H 375.437 -0.620631 2.93408 0
M  V30 4090 H 372.99 -0.286667 1.53649 0
M  V30 4091 H 373.725 -2.82021 1.60108 0
M  V30 4092 H 373.51 -2.18296 3.25713 0
M  V30 4093 H 375 -3.07441 2.82612 0
M  V30 4094 N 375.437 -1.54477 -0.31217 0
M  V30 4095 C 376.677 -1.74958 -1.05684 0
M  V30 4096 C 377.041 -0.518414 -1.84869 0
M  V30 4097 O 378.242 -0.600759 -2.62001 0
M  V30 4098 C 376.513 -2.99656 -1.94785 0
M  V30 4099 S 378.072 -3.4109 -2.76049 0
M  V30 4100 H 374.89 -0.615104 -0.356606 0
M  V30 4101 H 377.492 -1.92669 -0.331514 0
M  V30 4102 H 376.196 -3.87397 -1.35468 0
M  V30 4103 H 375.727 -2.845 -2.71704 0
M  V30 4104 H 377.742 -2.97283 -3.97287 0
M  V30 4105 N 376.915 0.57481 -1.46744 0
M  V30 4106 C 378.14 1.36341 -1.56288 0
M  V30 4107 C 378.565 1.86954 -0.207347 0
M  V30 4108 O 377.923 1.62006 0.813871 0
M  V30 4109 C 377.971 2.52147 -2.57787 0
M  V30 4110 O 377.075 3.53834 -2.11838 0
M  V30 4111 H 376.416 0.405713 -0.525636 0
M  V30 4112 H 378.946 0.696453 -1.92382 0
M  V30 4113 H 378.956 2.98958 -2.77648 0
M  V30 4114 H 377.631 2.14663 -3.5622 0
M  V30 4115 H 376.208 3.1345 -2.01999 0
M  V30 4116 N 378.394 1.34581 0.820102 0
M  V30 4117 C 379.344 1.22943 1.92013 0
M  V30 4118 C 380.328 0.127802 1.60392 0
M  V30 4119 O 381.52 0.357737 1.73347 0
M  V30 4120 C 378.649 0.989938 3.28717 0
M  V30 4121 C 377.735 2.13486 3.66449 0
M  V30 4122 N 378.126 3.38625 3.75722 0
M  V30 4123 C 376.424 2.04573 3.96315 0
M  V30 4124 C 377.125 4.13832 4.08801 0
M  V30 4125 N 376.101 3.42451 4.22171 0
M  V30 4126 H 379.903 2.17771 1.97365 0
M  V30 4127 H 377.417 1.2686 1.01392 0
M  V30 4128 H 379.414 0.887462 4.07345 0
M  V30 4129 H 378.074 0.0503691 3.24661 0
M  V30 4130 H 379.085 3.73143 3.59144 0
M  V30 4131 H 375.762 1.1839 4.00362 0
M  V30 4132 H 377.152 5.21909 4.23156 0
M  V30 4133 N 379.872 -1.04064 1.18357 0
M  V30 4134 C 380.802 -2.14001 0.934113 0
M  V30 4135 C 381.783 -1.69616 -0.128186 0
M  V30 4136 O 382.968 -1.94185 0.0244093 0
M  V30 4137 C 380.098 -3.44253 0.459066 0
M  V30 4138 C 379.052 -4.02261 1.46185 0
M  V30 4139 C 378.378 -5.27992 0.844322 0
M  V30 4140 C 379.678 -4.38432 2.83856 0
M  V30 4141 H 381.372 -2.35127 1.85352 0
M  V30 4142 H 378.918 -1.12998 0.892604 0
M  V30 4143 H 380.871 -4.20522 0.271907 0
M  V30 4144 H 379.595 -3.22813 -0.495912 0
M  V30 4145 H 378.254 -3.28074 1.63595 0
M  V30 4146 H 377.902 -5.02862 -0.117845 0
M  V30 4147 H 377.602 -5.67765 1.51384 0
M  V30 4148 H 379.126 -6.06938 0.667693 0
M  V30 4149 H 380.54 -5.05688 2.70098 0
M  V30 4150 H 378.937 -4.89254 3.47491 0
M  V30 4151 H 380.007 -3.4826 3.37406 0
M  V30 4152 N 381.35 -0.985608 -1.22978 0
M  V30 4153 C 382.599 -0.652881 -1.90841 0
M  V30 4154 C 382.912 0.817842 -1.77681 0
M  V30 4155 O 384.118 1.26185 -2.40395 0
M  V30 4156 C 382.574 -1.11717 -3.42122 0
M  V30 4157 C 382.182 -2.6126 -3.63933 0
M  V30 4158 C 383.926 -0.85843 -4.1573 0
M  V30 4159 C 381.833 -3.0133 -5.08876 0
M  V30 4160 H 380.763 -0.240491 -0.714619 0
M  V30 4161 H 383.414 -1.1942 -1.39324 0
M  V30 4162 H 381.796 -0.504027 -3.92779 0
M  V30 4163 H 382.97 -3.27858 -3.23799 0
M  V30 4164 H 381.285 -2.84937 -3.03644 0
M  V30 4165 H 383.882 -1.13359 -5.22546 0
M  V30 4166 H 384.225 0.205461 -4.15793 0
M  V30 4167 H 384.758 -1.43341 -3.71077 0
M  V30 4168 H 381.497 -4.06864 -5.13947 0
M  V30 4169 H 381.017 -2.3943 -5.49939 0
M  V30 4170 H 382.696 -2.92224 -5.77247 0
M  V30 4171 N 382.828 1.3818 -0.7579 0
M  V30 4172 C 384.244 1.5353 -0.435972 0
M  V30 4173 C 384.444 1.71961 1.05032 0
M  V30 4174 O 383.5 1.73307 1.83633 0
M  V30 4175 C 384.813 2.73989 -1.23898 0
M  V30 4176 C 386.361 2.87841 -1.22949 0
M  V30 4177 C 386.836 4.11266 -2.01554 0
M  V30 4178 N 388.327 4.18352 -1.98837 0
M  V30 4179 C 389.062 5.12856 -2.5645 0
M  V30 4180 N 388.558 6.13005 -3.22794 0
M  V30 4181 N 390.351 5.05238 -2.46356 0
M  V30 4182 H 382.502 1.24467 -1.7211 0
M  V30 4183 H 384.765 0.604982 -0.729864 0
M  V30 4184 H 384.471 2.66789 -2.29165 0
M  V30 4185 H 384.345 3.67294 -0.858764 0
M  V30 4186 H 386.732 2.9452 -0.184854 0
M  V30 4187 H 386.813 1.95534 -1.64924 0
M  V30 4188 H 386.457 4.05349 -3.06031 0
M  V30 4189 H 386.387 5.02661 -1.5697 0
M  V30 4190 H 388.878 3.46628 -1.50524 0
M  V30 4191 H 389.191 6.81619 -3.64165 0
M  V30 4192 H 387.536 6.13325 -3.2689 0
M  V30 4193 H 390.727 4.25938 -1.9415 0
M  V30 4194 H 390.9 5.78707 -2.91552 0
M  V30 4195 N 384.306 0.507319 1.49211 0
M  V30 4196 C 385.236 -0.256939 2.32082 0
M  V30 4197 C 386.217 -0.956609 1.40652 0
M  V30 4198 O 387.402 -0.946788 1.69557 0
M  V30 4199 C 384.532 -1.31802 3.21318 0
M  V30 4200 C 383.486 -0.737855 4.21592 0
M  V30 4201 C 382.812 -1.89992 4.99807 0
M  V30 4202 C 384.112 0.275325 5.21574 0
M  V30 4203 H 385.806 0.434798 2.96226 0
M  V30 4204 H 383.352 0.210546 1.42452 0
M  V30 4205 H 385.305 -1.86045 3.78107 0
M  V30 4206 H 384.029 -2.03903 2.5513 0
M  V30 4207 H 382.688 -0.217126 3.65956 0
M  V30 4208 H 382.336 -2.60877 4.30061 0
M  V30 4209 H 382.036 -1.51777 5.6766 0
M  V30 4210 H 383.56 -2.44657 5.59442 0
M  V30 4211 H 384.974 -0.179193 5.7302 0
M  V30 4212 H 383.371 0.573649 5.97352 0
M  V30 4213 H 384.441 1.18903 4.70096 0
M  V30 4214 N 385.784 -1.5574 0.241426 0
M  V30 4215 C 386.717 -2.17168 -0.700935 0
M  V30 4216 C 387.695 -1.12206 -1.1768 0
M  V30 4217 O 388.879 -1.40565 -1.25593 0
M  V30 4218 C 386.006 -2.76796 -1.95196 0
M  V30 4219 C 385.052 -3.94764 -1.61442 0
M  V30 4220 S 385.885 -5.30613 -0.72182 0
M  V30 4221 C 387.041 -5.93691 -1.98197 0
M  V30 4222 H 387.274 -2.96761 -0.178882 0
M  V30 4223 H 384.807 -1.54378 0.0259299 0
M  V30 4224 H 386.765 -3.11787 -2.67019 0
M  V30 4225 H 385.426 -1.9716 -2.44514 0
M  V30 4226 H 384.619 -4.35057 -2.54443 0
M  V30 4227 H 384.221 -3.61022 -0.976672 0
M  V30 4228 H 386.513 -6.10874 -2.92983 0
M  V30 4229 H 387.456 -6.89258 -1.62262 0
M  V30 4230 H 387.864 -5.22709 -2.13156 0
M  V30 4231 N 387.262 0.0317525 -1.57568 0
M  V30 4232 C 388.194 1.06073 -2.03178 0
M  V30 4233 C 389.207 1.32627 -0.944132 0
M  V30 4234 O 390.396 1.30162 -1.22148 0
M  V30 4235 C 387.496 2.40297 -2.38978 0
M  V30 4236 C 386.669 2.33137 -3.70089 0
M  V30 4237 C 385.728 3.49787 -3.9311 0
M  V30 4238 O 384.754 3.29403 -4.64201 0
M  V30 4239 N 385.956 4.71562 -3.38541 0
M  V30 4240 H 388.721 0.672006 -2.92069 0
M  V30 4241 H 386.282 0.219745 -1.60402 0
M  V30 4242 H 388.274 3.1705 -2.51518 0
M  V30 4243 H 386.844 2.71024 -1.55771 0
M  V30 4244 H 386.064 1.415 -3.67928 0
M  V30 4245 H 387.352 2.25493 -4.56104 0
M  V30 4246 H 386.75 4.91024 -2.80912 0
M  V30 4247 H 385.307 5.45689 -3.56464 0
M  V30 4248 N 388.74 1.54641 0.303973 0
M  V30 4249 C 390.156 1.45788 0.649463 0
M  V30 4250 C 390.356 0.64666 1.90842 0
M  V30 4251 O 389.412 0.153183 2.52035 0
M  V30 4252 C 390.725 2.89718 0.805227 0
M  V30 4253 C 392.273 2.99742 0.901305 0
M  V30 4254 C 392.748 4.44863 1.08909 0
M  V30 4255 N 394.239 4.48559 1.15536 0
M  V30 4256 C 394.974 5.58026 1.3189 0
M  V30 4257 N 394.47 6.77422 1.45161 0
M  V30 4258 N 396.263 5.45708 1.34755 0
M  V30 4259 H 388.414 2.05854 -0.523237 0
M  V30 4260 H 390.677 0.932186 -0.172431 0
M  V30 4261 H 390.383 3.51666 -0.0489108 0
M  V30 4262 H 390.257 3.36964 1.69513 0
M  V30 4263 H 392.644 2.3791 1.74593 0
M  V30 4264 H 392.725 2.55797 -0.0125531 0
M  V30 4265 H 392.369 5.07288 0.249241 0
M  V30 4266 H 392.299 4.86436 2.01713 0
M  V30 4267 H 394.79 3.6254 1.06646 0
M  V30 4268 H 395.103 7.56604 1.57387 0
M  V30 4269 H 393.448 6.80292 1.42223 0
M  V30 4270 H 396.639 4.51378 1.23996 0
M  V30 4271 H 396.812 6.3107 1.47157 0
M  V30 4272 N 390.218 -0.567019 1.47046 0
M  V30 4273 C 391.458 -1.3355 1.54738 0
M  V30 4274 C 391.822 -1.90947 0.200772 0
M  V30 4275 O 393.023 -2.68367 0.152489 0
M  V30 4276 C 391.294 -2.42317 2.62712 0
M  V30 4277 S 392.853 -3.29383 2.89918 0
M  V30 4278 H 389.671 -0.454788 0.546525 0
M  V30 4279 H 392.273 -0.650191 1.84371 0
M  V30 4280 H 390.977 -1.98568 3.59164 0
M  V30 4281 H 390.508 -3.15601 2.34861 0
M  V30 4282 H 392.523 -4.41548 2.26384 0
M  V30 4283 N 391.696 -1.35014 -0.812953 0
M  V30 4284 C 392.942 -1.29129 -1.57154 0
M  V30 4285 C 393.297 0.134922 -1.91926 0
M  V30 4286 O 392.59 1.08373 -1.58006 0
M  V30 4287 C 392.784 -2.12524 -2.87347 0
M  V30 4288 C 392.613 -3.6311 -2.65294 0
M  V30 4289 C 391.383 -4.32363 -2.61516 0
M  V30 4290 C 393.581 -4.56897 -2.36114 0
M  V30 4291 N 391.563 -5.68735 -2.31113 0
M  V30 4292 C 392.934 -5.81345 -2.15494 0
M  V30 4293 C 394.989 -4.45706 -2.21925 0
M  V30 4294 C 393.692 -6.95862 -1.82122 0
M  V30 4295 C 395.718 -5.60066 -1.89948 0
M  V30 4296 C 395.08 -6.83539 -1.7016 0
M  V30 4297 H 391.179 -0.527764 -0.577052 0
M  V30 4298 H 393.763 -1.6983 -0.952146 0
M  V30 4299 H 391.934 -1.74104 -3.47192 0
M  V30 4300 H 393.666 -1.98207 -3.5284 0
M  V30 4301 H 390.421 -3.84907 -2.75941 0
M  V30 4302 H 390.845 -6.40694 -2.18724 0
M  V30 4303 H 395.487 -3.50855 -2.35925 0
M  V30 4304 H 393.205 -7.90685 -1.6686 0
M  V30 4305 H 396.791 -5.53357 -1.79687 0
M  V30 4306 H 395.671 -7.70531 -1.45777 0
M  V30 4307 N 393.175 1.03435 -1.18907 0
M  V30 4308 C 394.107 2.1165 -0.879595 0
M  V30 4309 C 395.12 1.62316 0.125439 0
M  V30 4310 O 396.309 1.78201 -0.103245 0
M  V30 4311 C 393.409 3.37622 -0.294042 0
M  V30 4312 C 392.582 4.16166 -1.34629 0
M  V30 4313 C 391.641 5.20457 -0.775274 0
M  V30 4314 O 390.667 5.50379 -1.4516 0
M  V30 4315 N 391.869 5.78949 0.424126 0
M  V30 4316 H 394.634 2.38791 -1.81105 0
M  V30 4317 H 392.195 1.19681 -1.09032 0
M  V30 4318 H 394.187 4.04572 0.101679 0
M  V30 4319 H 392.757 3.07873 0.541575 0
M  V30 4320 H 391.977 3.44444 -1.91707 0
M  V30 4321 H 393.265 4.65432 -2.05549 0
M  V30 4322 H 392.663 5.56948 0.991209 0
M  V30 4323 H 391.22 6.47334 0.761691 0
M  V30 4324 N 394.653 0.992116 1.22453 0
M  V30 4325 C 395.901 0.666215 1.90804 0
M  V30 4326 C 396.222 -0.804152 1.77647 0
M  V30 4327 O 395.492 -1.57629 1.16318 0
M  V30 4328 H 394.072 0.243423 0.706225 0
M  V30 4329 H 396.734 1.25845 1.48825 0
M  V30 4330 H 395.83 0.928069 2.97982 0
M  V30 4331 N 396.131 -1.37776 0.765217 0
M  V30 4332 C 397.408 -1.93975 0.251596 0
M  V30 4333 C 397.788 -1.69949 -1.25222 0
M  V30 4334 O 397.136 -1.04457 -2.03226 0
M  V30 4335 C 397.346 -3.43487 0.617895 0
M  V30 4336 C 398.694 -4.20564 0.584029 0
M  V30 4337 O 399.718 -3.5182 0.556888 0
M  V30 4338 O 398.577 -5.43138 0.605291 0
M  V30 4339 H 395.671 -0.82509 0.0561806 0
M  V30 4340 H 398.217 -1.47101 0.846128 0
M  V30 4341 H 396.989 -3.5453 1.65602 0
M  V30 4342 H 396.612 -3.976 -0.00403411 0
M  V30 4343 N 397.609 -0.515225 -1.4894 0
M  V30 4344 C 399.02 -0.0710067 -1.86565 0
M  V30 4345 C 399.371 1.34733 -1.42623 0
M  V30 4346 O 398.496 2.00653 -0.810379 0
M  V30 4347 C 399.091 -0.122083 -3.3858 0
M  V30 4348 C 397.65 0.266863 -3.75453 0
M  V30 4349 C 396.797 -0.488376 -2.72966 0
M  V30 4350 H 399.748 -0.727266 -1.41055 0
M  V30 4351 H 399.769 0.669818 -3.74558 0
M  V30 4352 H 399.281 -1.15448 -3.70531 0
M  V30 4353 H 397.382 1.30196 -3.49113 0
M  V30 4354 H 397.495 -0.0624811 -4.79059 0
M  V30 4355 H 395.859 0.0635622 -2.54621 0
M  V30 4356 H 396.642 -1.52113 -3.07761 0
M  V30 4357 N 399.087 1.5561 -0.249682 0
M  V30 4358 C 400.503 1.59254 0.105103 0
M  V30 4359 C 400.703 1.26685 1.56694 0
M  V30 4360 O 399.759 1.0155 2.31179 0
M  V30 4361 C 401.072 2.99687 -0.246592 0
M  V30 4362 C 402.62 3.12416 -0.191118 0
M  V30 4363 C 403.095 4.55074 -0.516885 0
M  V30 4364 N 404.586 4.60835 -0.467489 0
M  V30 4365 C 405.321 5.69201 -0.69268 0
M  V30 4366 N 404.817 6.85817 -0.981146 0
M  V30 4367 N 406.61 5.58635 -0.623198 0
M  V30 4368 H 398.761 1.75049 -1.20298 0
M  V30 4369 H 401.024 0.815003 -0.484225 0
M  V30 4370 H 400.73 3.28267 -1.26228 0
M  V30 4371 H 400.604 3.74798 0.424962 0
M  V30 4372 H 402.991 2.83615 0.815247 0
M  V30 4373 H 403.072 2.39573 -0.896563 0
M  V30 4374 H 402.716 4.84596 -1.52082 0
M  V30 4375 H 402.646 5.26181 0.210068 0
M  V30 4376 H 405.137 3.7705 -0.253373 0
M  V30 4377 H 405.45 7.64341 -1.14032 0
M  V30 4378 H 403.795 6.87494 -1.01865 0
M  V30 4379 H 406.986 4.66406 -0.397863 0
M  V30 4380 H 407.159 6.43017 -0.802093 0
M  V30 4381 N 400.565 -0.0233959 1.57583 0
M  V30 4382 C 401.811 -0.714119 1.89811 0
M  V30 4383 C 402.144 -1.74702 0.848113 0
M  V30 4384 O 401.419 -1.94023 -0.136135 0
M  V30 4385 C 401.702 -1.37853 3.32669 0
M  V30 4386 C 401.555 -0.358764 4.48367 0
M  V30 4387 C 402.874 -2.31101 3.7454 0
M  V30 4388 H 399.993 -0.25814 0.690314 0
M  V30 4389 H 402.635 0.0230927 1.89986 0
M  V30 4390 H 400.785 -2.00689 3.3265 0
M  V30 4391 H 402.457 0.268115 4.6052 0
M  V30 4392 H 400.7 0.321387 4.32608 0
M  V30 4393 H 401.371 -0.862242 5.45224 0
M  V30 4394 H 403.847 -1.78304 3.75961 0
M  V30 4395 H 402.723 -2.74567 4.75294 0
M  V30 4396 H 402.984 -3.18018 3.0711 0
M  V30 4397 N 402.043 -1.548 -0.295768 0
M  V30 4398 C 403.459 -1.4613 -0.641722 0
M  V30 4399 C 403.659 -0.656771 -1.90496 0
M  V30 4400 O 402.715 -0.166547 -2.5195 0
M  V30 4401 C 404.028 -2.90141 -0.789852 0
M  V30 4402 C 405.576 -3.00216 -0.885396 0
M  V30 4403 C 406.051 -4.45434 -1.06548 0
M  V30 4404 N 407.542 -4.49166 -1.13156 0
M  V30 4405 C 408.277 -5.58717 -1.28929 0
M  V30 4406 N 407.773 -6.78182 -1.41567 0
M  V30 4407 N 409.566 -5.46415 -1.31859 0
M  V30 4408 H 401.717 -2.05574 0.534147 0
M  V30 4409 H 403.98 -0.931259 0.177372 0
M  V30 4410 H 403.686 -3.51635 0.0675598 0
M  V30 4411 H 403.56 -3.37859 -1.67724 0
M  V30 4412 H 405.947 -2.38833 -1.73329 0
M  V30 4413 H 406.028 -2.55787 0.0261185 0
M  V30 4414 H 405.672 -5.07413 -0.222335 0
M  V30 4415 H 405.602 -4.87499 -1.9913 0
M  V30 4416 H 408.093 -3.631 -1.04721 0
M  V30 4417 H 408.406 -7.57428 -1.53372 0
M  V30 4418 H 406.751 -6.81037 -1.38613 0
M  V30 4419 H 409.942 -4.5203 -1.21601 0
M  V30 4420 H 410.115 -6.31841 -1.43808 0
M  V30 4421 N 403.521 0.559213 -1.47345 0
M  V30 4422 C 404.932 1.14134 -1.47751 0
M  V30 4423 C 405.283 1.94834 -0.231103 0
M  V30 4424 O 404.408 2.05957 0.664137 0
M  V30 4425 C 405.003 2.07653 -2.67705 0
M  V30 4426 C 403.562 2.61141 -2.71076 0
M  V30 4427 C 402.709 1.3748 -2.40821 0
M  V30 4428 H 405.66 0.345917 -1.54884 0
M  V30 4429 H 405.681 2.91497 -2.44561 0
M  V30 4430 H 405.193 1.4889 -3.58404 0
M  V30 4431 H 403.294 3.23707 -1.84511 0
M  V30 4432 H 403.407 3.02272 -3.7171 0
M  V30 4433 H 401.771 1.68086 -1.91362 0
M  V30 4434 H 402.554 0.805135 -3.33725 0
M  V30 4435 N 404.999 1.35443 0.805782 0
M  V30 4436 C 406.227 1.31878 1.59423 0
M  V30 4437 C 406.642 -0.103562 1.88516 0
M  V30 4438 O 405.999 -1.05575 1.48863 0
M  V30 4439 C 406.05 2.12426 2.92502 0
M  V30 4440 O 405.771 3.49115 2.6467 0
M  V30 4441 C 407.272 2.16455 3.86862 0
M  V30 4442 H 404.492 0.453002 0.495005 0
M  V30 4443 H 407.036 1.78309 1.00131 0
M  V30 4444 H 405.191 1.69593 3.48306 0
M  V30 4445 H 405.605 3.90957 3.49647 0
M  V30 4446 H 407.079 2.77204 4.77349 0
M  V30 4447 H 407.556 1.16352 4.23508 0
M  V30 4448 H 408.162 2.59453 3.36993 0
M  V30 4449 N 406.477 -1.02803 1.19454 0
M  V30 4450 C 407.724 -1.76217 0.997693 0
M  V30 4451 C 408.052 -1.887 -0.47144 0
M  V30 4452 O 407.307 -1.4011 -1.3663 0
M  V30 4453 C 407.606 -3.18941 1.6128 0
M  V30 4454 C 407.272 -3.26463 3.11019 0
M  V30 4455 C 405.934 -3.28223 3.51885 0
M  V30 4456 C 408.286 -3.25542 4.07028 0
M  V30 4457 C 405.614 -3.26719 4.8731 0
M  V30 4458 C 407.966 -3.25579 5.42385 0
M  V30 4459 C 406.63 -3.25637 5.82681 0
M  V30 4460 H 405.9 -0.644823 0.365082 0
M  V30 4461 H 408.547 -1.20655 1.4871 0
M  V30 4462 H 406.852 -3.77587 1.04572 0
M  V30 4463 H 408.549 -3.74415 1.43577 0
M  V30 4464 H 405.139 -3.25822 2.78457 0
M  V30 4465 H 409.323 -3.23362 3.76498 0
M  V30 4466 H 404.579 -3.25089 5.1781 0
M  V30 4467 H 408.753 -3.23817 6.16535 0
M  V30 4468 H 406.38 -3.24226 6.87591 0
M  V30 4469 N 407.956 -0.998596 -1.21925 0
M  V30 4470 C 408.888 -0.511879 -2.23411 0
M  V30 4471 C 409.901 0.396094 -1.57908 0
M  V30 4472 O 411.09 0.197316 -1.77406 0
M  V30 4473 C 408.19 0.276802 -3.37768 0
M  V30 4474 C 407.363 -0.628687 -4.32858 0
M  V30 4475 C 406.422 0.109272 -5.26087 0
M  V30 4476 O 405.448 -0.507237 -5.66935 0
M  V30 4477 N 406.65 1.38983 -5.63617 0
M  V30 4478 H 409.415 -1.38457 -2.658 0
M  V30 4479 H 406.976 -0.873981 -1.36283 0
M  V30 4480 H 408.968 0.77928 -3.97126 0
M  V30 4481 H 407.538 1.05063 -2.94415 0
M  V30 4482 H 406.758 -1.31175 -3.71735 0
M  V30 4483 H 408.046 -1.24514 -4.93329 0
M  V30 4484 H 407.444 1.91194 -5.32411 0
M  V30 4485 H 406.001 1.83739 -6.25367 0
M  V30 4486 N 409.434 1.37368 -0.772513 0
M  V30 4487 C 410.682 1.99279 -0.336516 0
M  V30 4488 C 411.003 1.6163 1.09091 0
M  V30 4489 O 410.273 0.882109 1.74916 0
M  V30 4490 H 408.853 0.737063 -0.121435 0
M  V30 4491 H 411.515 1.67836 -0.990809 0
M  V30 4492 H 410.611 3.09332 -0.414763 0
M  V30 4493 N 410.912 0.523116 1.48665 0
M  V30 4494 C 411.86 -0.256859 2.31177 0
M  V30 4495 C 412.854 -0.94199 1.40794 0
M  V30 4496 O 414.06 -0.867157 1.57735 0
M  V30 4497 H 410.435 -0.1017 0.745091 0
M  V30 4498 H 412.406 0.458739 2.94853 0
M  V30 4499 C 411.155 -1.29503 3.22683 0
M  V30 4500 H 410.478 -0.777248 3.92172 0
M  V30 4501 H 411.918 -1.81233 3.83315 0
M  V30 4502 C 410.377 -2.32501 2.43813 0
M  V30 4503 O 410.907 -3.3881 2.15803 0
M  V30 4504 N 409.113 -2.05538 2.05432 0
M  V30 4505 H 408.66 -1.19104 2.28412 0
M  V30 4506 H 408.618 -2.74676 1.52973 0
M  V30 4507 N 412.39 -1.55475 0.257931 0
M  V30 4508 C 413.638 -1.98813 -0.363009 0
M  V30 4509 C 413.959 -1.14757 -1.57657 0
M  V30 4510 O 413.229 -0.232956 -1.9451 0
M  V30 4511 H 411.809 -0.734308 -0.137113 0
M  V30 4512 H 414.471 -1.9156 0.359281 0
M  V30 4513 H 413.567 -3.04941 -0.664634 0
M  V30 4514 N 413.868 0.0150385 -1.57593 0
M  V30 4515 C 414.798 1.01047 -2.10503 0
M  V30 4516 C 415.779 1.36816 -1.01071 0
M  V30 4517 O 416.964 1.45455 -1.28672 0
M  V30 4518 C 414.094 2.30708 -2.59598 0
M  V30 4519 C 413.048 2.09142 -3.73421 0
M  V30 4520 C 412.374 3.44685 -4.08774 0
M  V30 4521 C 413.674 1.46619 -5.01298 0
M  V30 4522 H 415.368 0.569978 -2.93925 0
M  V30 4523 H 412.914 0.272724 -1.41394 0
M  V30 4524 H 414.867 3.00687 -2.95238 0
M  V30 4525 H 413.591 2.76843 -1.73279 0
M  V30 4526 H 412.25 1.41592 -3.38153 0
M  V30 4527 H 411.898 3.88495 -3.195 0
M  V30 4528 H 411.598 3.31077 -4.8545 0
M  V30 4529 H 413.122 4.16004 -4.4696 0
M  V30 4530 H 414.536 2.06535 -5.34805 0
M  V30 4531 H 412.933 1.43544 -5.82679 0
M  V30 4532 H 414.003 0.433611 -4.82957 0
M  V30 4533 N 415.346 1.54954 0.287554 0
M  V30 4534 C 416.294 1.87606 1.37502 0
M  V30 4535 C 417.288 0.751001 1.51843 0
M  V30 4536 O 418.494 0.935169 1.53801 0
M  V30 4537 H 414.869 0.595231 0.459569 0
M  V30 4538 H 416.84 2.78477 1.07206 0
M  V30 4539 C 415.589 2.15183 2.73115 0
M  V30 4540 H 414.912 3.01234 2.62866 0
M  V30 4541 H 416.352 2.4196 3.48183 0
M  V30 4542 C 414.811 0.954686 3.2309 0
M  V30 4543 O 415.341 0.181949 4.01288 0
M  V30 4544 N 413.547 0.756368 2.80584 0
M  V30 4545 H 413.094 1.38643 2.17108 0
M  V30 4546 H 413.052 -0.0430391 3.14371 0
M  V30 4547 N 416.824 -0.551391 1.4764 0
M  V30 4548 C 418.072 -1.30572 1.54258 0
M  V30 4549 C 418.393 -1.93877 0.208963 0
M  V30 4550 O 417.663 -1.80234 -0.767619 0
M  V30 4551 H 416.243 -0.484894 0.568231 0
M  V30 4552 H 418.905 -0.643402 1.83974 0
M  V30 4553 H 418.001 -2.09621 2.31226 0
M  V30 4554 N 418.302 -1.35869 -0.798587 0
M  V30 4555 C 419.212 -1.31578 -1.94228 0
M  V30 4556 C 420.228 -0.21939 -1.72611 0
M  V30 4557 O 421.404 -0.450167 -1.96305 0
M  V30 4558 C 418.469 -1.09528 -3.28944 0
M  V30 4559 C 417.53 -2.28556 -3.63402 0
M  V30 4560 C 416.763 -2.07549 -4.9169 0
M  V30 4561 O 416.986 -1.046 -5.60727 0
M  V30 4562 O 415.92 -2.95106 -5.24591 0
M  V30 4563 H 419.746 -2.27847 -2.00796 0
M  V30 4564 H 417.331 -1.16322 -0.937526 0
M  V30 4565 H 419.213 -0.991127 -4.09579 0
M  V30 4566 H 417.888 -0.16315 -3.23289 0
M  V30 4567 H 416.795 -2.44538 -2.83112 0
M  V30 4568 H 418.128 -3.20244 -3.73771 0
M  V30 4569 N 419.78 1.02168 -1.19998 0
M  V30 4570 C 420.71 2.12488 -0.96804 0
M  V30 4571 C 421.691 1.69799 0.101185 0
M  V30 4572 O 422.876 1.94121 -0.0552993 0
M  V30 4573 C 420.006 3.43479 -0.513776 0
M  V30 4574 C 418.96 3.99884 -1.52566 0
M  V30 4575 C 418.286 5.26582 -0.928214 0
M  V30 4576 C 419.586 4.33861 -2.90795 0
M  V30 4577 H 421.28 2.32149 -1.89069 0
M  V30 4578 H 418.826 1.11564 -0.910468 0
M  V30 4579 H 420.779 4.20036 -0.338774 0
M  V30 4580 H 419.503 3.23561 0.444493 0
M  V30 4581 H 418.162 3.25429 -1.68794 0
M  V30 4582 H 417.81 5.02986 0.0378289 0
M  V30 4583 H 417.51 5.65284 -1.60397 0
M  V30 4584 H 419.034 6.05799 -0.764167 0
M  V30 4585 H 420.448 5.01327 -2.78109 0
M  V30 4586 H 418.845 4.83664 -3.55231 0
M  V30 4587 H 419.915 3.42848 -3.42904 0
M  V30 4588 N 421.258 1.00505 1.21394 0
M  V30 4589 C 422.507 0.683159 1.89778 0
M  V30 4590 C 422.82 -0.789471 1.7896 0
M  V30 4591 O 424.026 -1.22344 2.42372 0
M  V30 4592 C 422.482 1.17146 3.40301 0
M  V30 4593 C 422.09 2.67017 3.5973 0
M  V30 4594 C 423.834 0.924461 4.14311 0
M  V30 4595 C 421.741 3.09387 5.04017 0
M  V30 4596 H 420.671 0.25183 0.710702 0
M  V30 4597 H 423.322 1.21622 1.37406 0
M  V30 4598 H 421.704 0.566451 3.91928 0
M  V30 4599 H 422.878 3.32968 3.18542 0
M  V30 4600 H 421.193 2.89732 2.99073 0
M  V30 4601 H 423.79 1.21658 5.20676 0
M  V30 4602 H 424.133 -0.139286 4.16067 0
M  V30 4603 H 424.666 1.49226 3.6875 0
M  V30 4604 H 421.405 4.14989 5.07409 0
M  V30 4605 H 420.925 2.48149 5.46061 0
M  V30 4606 H 422.604 3.01371 5.72525 0
M  V30 4607 N 422.737 -1.36956 0.779787 0
M  V30 4608 C 424.153 -1.52817 0.460342 0
M  V30 4609 C 424.353 -1.7361 -1.02283 0
M  V30 4610 O 423.409 -1.76207 -1.80852 0
M  V30 4611 C 424.722 -2.71983 1.28241 0
M  V30 4612 C 426.27 -2.85849 1.27512 0
M  V30 4613 C 426.745 -4.08008 2.08072 0
M  V30 4614 N 428.236 -4.15135 2.05467 0
M  V30 4615 C 428.971 -5.08711 2.64577 0
M  V30 4616 N 428.467 -6.07792 3.32506 0
M  V30 4617 N 430.26 -5.01254 2.54363 0
M  V30 4618 H 422.411 -1.21713 1.74068 0
M  V30 4619 H 424.674 -0.593294 0.739396 0
M  V30 4620 H 424.38 -2.63109 2.33381 0
M  V30 4621 H 424.254 -3.65882 0.917088 0
M  V30 4622 H 426.641 -2.94189 0.231686 0
M  V30 4623 H 426.722 -1.92886 1.68014 0
M  V30 4624 H 426.366 -4.00429 3.12441 0
M  V30 4625 H 426.296 -5.001 1.64947 0
M  V30 4626 H 428.787 -3.44189 1.5602 0
M  V30 4627 H 429.1 -6.75739 3.74963 0
M  V30 4628 H 427.445 -6.08047 3.36606 0
M  V30 4629 H 430.636 -4.22795 2.00902 0
M  V30 4630 H 430.809 -5.73995 3.00722 0
M  V30 4631 N 424.215 -0.530993 -1.48385 0
M  V30 4632 C 425.147 0.268353 -2.27624 0
M  V30 4633 C 426.16 0.903525 -1.35426 0
M  V30 4634 O 427.349 0.781796 -1.60469 0
M  V30 4635 C 424.449 1.39535 -3.08842 0
M  V30 4636 C 423.622 0.861913 -4.28824 0
M  V30 4637 C 422.681 1.87016 -4.91845 0
M  V30 4638 O 421.707 1.4267 -5.5103 0
M  V30 4639 N 422.909 3.20238 -4.84178 0
M  V30 4640 H 425.674 -0.41123 -2.96865 0
M  V30 4641 H 423.235 -0.365387 -1.57723 0
M  V30 4642 H 425.227 2.06803 -3.47871 0
M  V30 4643 H 423.797 1.97859 -2.42014 0
M  V30 4644 H 423.017 0.0132126 -3.94198 0
M  V30 4645 H 424.305 0.484415 -5.06489 0
M  V30 4646 H 423.703 3.58932 -4.37246 0
M  V30 4647 H 422.26 3.83136 -5.27305 0
M  V30 4648 N 425.693 1.55336 -0.266172 0
M  V30 4649 C 426.939 1.99692 0.353681 0
M  V30 4650 C 427.272 1.1543 1.56172 0
M  V30 4651 O 426.547 0.222218 1.93226 0
M  V30 4652 C 426.83 3.52316 0.74466 0
M  V30 4653 C 426.683 4.47337 -0.470101 0
M  V30 4654 C 428.002 4.10588 1.58447 0
M  V30 4655 H 425.121 0.725961 0.12708 0
M  V30 4656 H 427.763 1.86336 -0.371333 0
M  V30 4657 H 425.913 3.63829 1.36239 0
M  V30 4658 H 427.585 4.4778 -1.10864 0
M  V30 4659 H 425.828 4.19364 -1.10978 0
M  V30 4660 H 426.499 5.51788 -0.15291 0
M  V30 4661 H 428.975 4.02297 1.06286 0
M  V30 4662 H 427.851 5.17607 1.82686 0
M  V30 4663 H 428.112 3.60253 2.56262 0
M  V30 4664 N 427.171 -0.0066808 1.57599 0
M  V30 4665 C 428.101 -0.999296 2.11036 0
M  V30 4666 C 429.082 -1.36278 1.01795 0
M  V30 4667 O 430.267 -1.4477 1.29442 0
M  V30 4668 C 427.397 -2.29328 2.60818 0
M  V30 4669 C 426.351 -2.07159 3.74525 0
M  V30 4670 C 425.677 -3.42512 4.10596 0
M  V30 4671 C 426.977 -1.43959 5.02069 0
M  V30 4672 H 428.671 -0.554382 2.94223 0
M  V30 4673 H 426.217 -0.265221 1.41536 0
M  V30 4674 H 428.17 -2.99117 2.96828 0
M  V30 4675 H 426.894 -2.7592 1.74745 0
M  V30 4676 H 425.553 -1.39797 3.38899 0
M  V30 4677 H 425.201 -3.86795 3.21556 0
M  V30 4678 H 424.901 -3.28498 4.87199 0
M  V30 4679 H 426.425 -4.13628 4.4916 0
M  V30 4680 H 427.839 -2.03696 5.35893 0
M  V30 4681 H 426.236 -1.40452 5.83432 0
M  V30 4682 H 427.306 -0.407992 4.83181 0
M  V30 4683 N 428.649 -1.55105 -0.279332 0
M  V30 4684 C 429.612 -1.86783 -1.32834 0
M  V30 4685 C 430.612 -0.74199 -1.42657 0
M  V30 4686 O 431.802 -1.0102 -1.41918 0
M  V30 4687 C 428.934 -2.06746 -2.71052 0
M  V30 4688 H 430.127 -2.8055 -1.05979 0
M  V30 4689 H 427.68 -1.47499 -0.517087 0
M  V30 4690 H 428.415 -1.15339 -3.03097 0
M  V30 4691 H 428.2 -2.88711 -2.65309 0
M  V30 4692 H 429.69 -2.32549 -3.46858 0
M  V30 4693 N 430.127 0.543554 -1.4793 0
M  V30 4694 C 431.09 1.63156 -1.60975 0
M  V30 4695 C 432.09 1.53346 -0.483899 0
M  V30 4696 O 433.28 1.5726 -0.749339 0
M  V30 4697 C 430.412 3.02743 -1.56716 0
M  V30 4698 H 431.605 1.52934 -2.57975 0
M  V30 4699 H 429.158 0.764557 -1.36324 0
M  V30 4700 H 429.893 3.18484 -0.611418 0
M  V30 4701 H 429.678 3.11272 -2.38438 0
M  V30 4702 H 431.168 3.81871 -1.6901 0
M  V30 4703 N 431.605 1.3629 0.791371 0
M  V30 4704 C 432.535 1.33137 1.91825 0
M  V30 4705 C 433.516 0.203168 1.68882 0
M  V30 4706 O 434.701 0.400509 1.90025 0
M  V30 4707 C 431.831 1.11793 3.28816 0
M  V30 4708 C 430.785 2.21417 3.66277 0
M  V30 4709 C 430.111 1.85218 5.01596 0
M  V30 4710 C 431.411 3.63489 3.75064 0
M  V30 4711 H 433.105 2.2743 1.9472 0
M  V30 4712 H 430.651 1.09479 0.935437 0
M  V30 4713 H 432.604 1.08222 4.07266 0
M  V30 4714 H 431.328 0.139501 3.26302 0
M  V30 4715 H 429.987 2.2411 2.90121 0
M  V30 4716 H 429.635 0.859544 4.95602 0
M  V30 4717 H 429.335 2.58611 5.27631 0
M  V30 4718 H 430.859 1.832 5.82469 0
M  V30 4719 H 432.273 3.63034 4.43711 0
M  V30 4720 H 430.67 4.35771 4.12582 0
M  V30 4721 H 431.74 3.98536 2.76219 0
M  V30 4722 N 433.083 -1.0153 1.20538 0
M  V30 4723 C 434.013 -2.11972 0.979295 0
M  V30 4724 C 434.994 -1.6985 -0.0921787 0
M  V30 4725 O 436.179 -1.94089 0.0655932 0
M  V30 4726 C 433.309 -3.43201 0.531984 0
M  V30 4727 C 432.263 -3.9907 1.54685 0
M  V30 4728 C 431.589 -5.26082 0.956127 0
M  V30 4729 C 432.889 -4.32313 2.93092 0
M  V30 4730 H 434.583 -2.31143 1.90298 0
M  V30 4731 H 432.129 -1.11079 0.916372 0
M  V30 4732 H 434.082 -4.1985 0.361044 0
M  V30 4733 H 432.806 -3.23792 -0.427327 0
M  V30 4734 H 431.465 -3.2453 1.70517 0
M  V30 4735 H 431.113 -5.02999 -0.0111538 0
M  V30 4736 H 430.813 -5.64426 1.63393 0
M  V30 4737 H 432.337 -6.05386 0.796284 0
M  V30 4738 H 433.751 -4.99845 2.80763 0
M  V30 4739 H 432.148 -4.81774 3.57791 0
M  V30 4740 H 433.218 -3.41025 3.44717 0
M  V30 4741 N 434.561 -1.01147 -1.20859 0
M  V30 4742 C 435.972 -0.730205 -1.71828 0
M  V30 4743 C 436.323 0.751662 -1.8123 0
M  V30 4744 O 435.448 1.58686 -1.47132 0
M  V30 4745 C 436.043 -1.31885 -3.12077 0
M  V30 4746 C 434.602 -1.08656 -3.60376 0
M  V30 4747 C 433.749 -1.42769 -2.37723 0
M  V30 4748 H 436.7 -1.18158 -1.05945 0
M  V30 4749 H 436.721 -0.706793 -3.73878 0
M  V30 4750 H 436.233 -2.39737 -3.05201 0
M  V30 4751 H 434.334 -0.0254814 -3.72591 0
M  V30 4752 H 434.447 -1.76301 -4.45483 0
M  V30 4753 H 432.811 -0.846603 -2.40218 0
M  V30 4754 H 433.594 -2.51666 -2.33493 0
M  V30 4755 N 436.039 1.36541 -0.78704 0
M  V30 4756 C 437.285 1.99599 -0.358872 0
M  V30 4757 C 437.618 1.62323 1.06606 0
M  V30 4758 O 436.893 0.876858 1.73613 0
M  V30 4759 C 437.176 3.56327 -0.519944 0
M  V30 4760 C 437.029 4.03464 -1.98839 0
M  V30 4761 C 438.348 4.4005 0.0664737 0
M  V30 4762 H 435.467 0.725107 -0.131869 0
M  V30 4763 H 438.109 1.6199 -0.992936 0
M  V30 4764 H 436.259 3.88495 0.0198321 0
M  V30 4765 H 437.931 3.81793 -2.58905 0
M  V30 4766 H 436.174 3.55092 -2.49183 0
M  V30 4767 H 436.845 5.12439 -2.05207 0
M  V30 4768 H 439.321 4.14228 -0.394267 0
M  V30 4769 H 438.197 5.48847 -0.0762682 0
M  V30 4770 H 438.458 4.26655 1.15835 0
M  V30 4771 N 437.518 0.538854 1.48102 0
M  V30 4772 C 438.746 0.0123136 2.06896 0
M  V30 4773 C 439.161 -1.27312 1.39417 0
M  V30 4774 O 438.518 -1.75949 0.484582 0
M  V30 4775 C 438.569 -0.206118 3.60912 0
M  V30 4776 O 438.29 1.0284 4.25859 0
M  V30 4777 C 439.791 -0.772033 4.36526 0
M  V30 4778 H 437.011 0.0375239 0.66995 0
M  V30 4779 H 439.555 0.747032 1.90367 0
M  V30 4780 H 437.71 -0.89091 3.77017 0
M  V30 4781 H 438.124 0.814654 5.18135 0
M  V30 4782 H 439.598 -0.874251 5.45033 0
M  V30 4783 H 440.075 -1.77904 4.01555 0
M  V30 4784 H 440.681 -0.123526 4.25121 0
M  V30 4785 N 438.996 -1.55193 0.274407 0
M  V30 4786 C 440.244 -1.99187 -0.341902 0
M  V30 4787 C 440.565 -1.16422 -1.56431 0
M  V30 4788 O 439.835 -0.253573 -1.94252 0
M  V30 4789 H 438.415 -0.735721 -0.129317 0
M  V30 4790 H 441.077 -1.91168 0.379578 0
M  V30 4791 H 440.173 -3.05629 -0.632253 0
M  V30 4792 N 440.474 -0.00167713 -1.576 0
M  V30 4793 C 441.89 0.354422 -1.55615 0
M  V30 4794 C 442.09 1.74679 -1.00447 0
M  V30 4795 O 441.146 2.4428 -0.639022 0
M  V30 4796 C 442.459 0.22812 -2.99833 0
M  V30 4797 C 444.007 0.302934 -3.11531 0
M  V30 4798 C 444.482 0.205737 -4.57538 0
M  V30 4799 N 445.973 0.263584 -4.62449 0
M  V30 4800 C 446.708 0.211742 -5.73009 0
M  V30 4801 N 446.204 0.110399 -6.92712 0
M  V30 4802 N 447.997 0.263729 -5.61481 0
M  V30 4803 H 440.148 -0.912498 -1.918 0
M  V30 4804 H 442.411 -0.349928 -0.881053 0
M  V30 4805 H 442.117 -0.729934 -3.44042 0
M  V30 4806 H 441.991 1.00951 -3.6344 0
M  V30 4807 H 444.378 1.25143 -2.67251 0
M  V30 4808 H 444.459 -0.508357 -2.50698 0
M  V30 4809 H 444.103 -0.739225 -5.02492 0
M  V30 4810 H 444.033 1.03554 -5.16318 0
M  V30 4811 H 446.524 0.343173 -3.76339 0
M  V30 4812 H 446.837 0.0767828 -7.72762 0
M  V30 4813 H 445.182 0.0760025 -6.94958 0
M  V30 4814 H 448.373 0.34111 -4.66855 0
M  V30 4815 H 448.546 0.219862 -6.47627 0
M  V30 4816 N 441.952 1.55251 0.271103 0
M  V30 4817 C 443.198 1.7713 0.999832 0
M  V30 4818 C 443.553 0.56659 1.83868 0
M  V30 4819 O 442.846 -0.44069 1.86463 0
M  V30 4820 C 443.04 3.01879 1.91321 0
M  V30 4821 C 442.869 4.34368 1.16426 0
M  V30 4822 C 441.639 4.97593 0.879169 0
M  V30 4823 C 443.837 5.1131 0.553749 0
M  V30 4824 N 441.819 6.13813 0.103618 0
M  V30 4825 C 443.19 6.19938 -0.0875442 0
M  V30 4826 C 445.245 4.95754 0.461782 0
M  V30 4827 C 443.948 7.14703 -0.811942 0
M  V30 4828 C 445.974 5.90875 -0.249027 0
M  V30 4829 C 445.336 6.98893 -0.879051 0
M  V30 4830 H 441.435 0.700407 0.347784 0
M  V30 4831 H 444.019 1.92744 0.275314 0
M  V30 4832 H 442.19 2.87637 2.60997 0
M  V30 4833 H 443.922 3.12154 2.57569 0
M  V30 4834 H 440.677 4.58538 1.18491 0
M  V30 4835 H 441.101 6.76455 -0.271543 0
M  V30 4836 H 445.743 4.12342 0.934552 0
M  V30 4837 H 443.461 7.97634 -1.29639 0
M  V30 4838 H 447.047 5.80916 -0.320529 0
M  V30 4839 H 445.927 7.71231 -1.42031 0
M  V30 4840 N 443.43 -0.535701 1.48216 0
M  V30 4841 C 444.846 -0.863701 1.3421 0
M  V30 4842 C 445.046 -1.98458 0.34879 0
M  V30 4843 O 444.102 -2.51432 -0.23204 0
M  V30 4844 C 445.415 -1.23662 2.74095 0
M  V30 4845 C 446.963 -1.34683 2.82541 0
M  V30 4846 C 447.438 -1.75322 4.23115 0
M  V30 4847 N 448.929 -1.82434 4.2576 0
M  V30 4848 C 449.664 -2.15252 5.31464 0
M  V30 4849 N 449.16 -2.46533 6.47452 0
M  V30 4850 N 450.953 -2.16209 5.18855 0
M  V30 4851 H 443.104 0.203965 2.11418 0
M  V30 4852 H 445.367 0.0286033 0.947568 0
M  V30 4853 H 445.073 -0.486674 3.48316 0
M  V30 4854 H 444.947 -2.18805 3.07253 0
M  V30 4855 H 447.334 -2.08756 2.08579 0
M  V30 4856 H 447.415 -0.376756 2.5301 0
M  V30 4857 H 447.059 -1.01812 4.97591 0
M  V30 4858 H 446.989 -2.7337 4.50085 0
M  V30 4859 H 449.48 -1.6056 3.42095 0
M  V30 4860 H 449.793 -2.70662 7.23852 0
M  V30 4861 H 448.138 -2.44065 6.50736 0
M  V30 4862 H 451.329 -1.91224 4.2726 0
M  V30 4863 H 451.502 -2.41453 6.01335 0
M  V30 4864 N 444.908 -1.36708 -0.784132 0
M  V30 4865 C 446.133 -1.34565 -1.5782 0
M  V30 4866 C 446.558 0.0695257 -1.87971 0
M  V30 4867 O 445.916 1.04302 -1.48293 0
M  V30 4868 C 445.964 -2.17952 -2.87279 0
M  V30 4869 O 445.068 -1.57563 -3.81114 0
M  V30 4870 H 444.409 -0.460337 -0.478524 0
M  V30 4871 H 446.939 -1.80064 -0.971495 0
M  V30 4872 H 446.949 -2.30721 -3.365 0
M  V30 4873 H 445.624 -3.20823 -2.64661 0
M  V30 4874 H 444.201 -1.53764 -3.39722 0
M  V30 4875 N 446.386 1.0089 -1.21074 0
M  V30 4876 C 447.797 1.56056 -1.02486 0
M  V30 4877 C 448.148 1.91728 0.416506 0
M  V30 4878 O 447.273 1.73066 1.29912 0
M  V30 4879 C 447.868 2.83563 -1.85411 0
M  V30 4880 C 446.427 3.3523 -1.71166 0
M  V30 4881 C 445.574 2.0846 -1.82865 0
M  V30 4882 H 448.525 0.831818 -1.35154 0
M  V30 4883 H 448.546 3.55286 -1.36205 0
M  V30 4884 H 448.058 2.57569 -2.9031 0
M  V30 4885 H 446.159 3.66167 -0.689361 0
M  V30 4886 H 446.272 4.06913 -2.52901 0
M  V30 4887 H 444.636 2.21275 -1.26132 0
M  V30 4888 H 445.419 1.84883 -2.89263 0
M  V30 4889 N 447.864 1.01787 1.20321 0
M  V30 4890 C 449.112 0.706538 1.89347 0
M  V30 4891 C 449.433 -0.766289 1.79313 0
M  V30 4892 O 448.703 -1.55126 1.19635 0
M  V30 4893 H 447.283 0.258348 0.700903 0
M  V30 4894 H 449.945 1.28974 1.46122 0
M  V30 4895 H 449.041 0.991066 2.95946 0
M  V30 4896 N 449.342 -1.36122 0.79427 0
M  V30 4897 C 450.252 -2.33769 0.197296 0
M  V30 4898 C 451.268 -1.61276 -0.653153 0
M  V30 4899 O 452.444 -1.9323 -0.5678 0
M  V30 4900 C 449.509 -3.40474 -0.654098 0
M  V30 4901 C 448.57 -4.28759 0.215411 0
M  V30 4902 C 447.803 -5.30368 -0.595443 0
M  V30 4903 O 448.026 -5.40211 -1.83107 0
M  V30 4904 O 446.96 -6.019 0.00721351 0
M  V30 4905 H 450.786 -2.86597 1.00478 0
M  V30 4906 H 448.371 -1.38676 0.555818 0
M  V30 4907 H 450.253 -4.05703 -1.13944 0
M  V30 4908 H 448.928 -2.89937 -1.43938 0
M  V30 4909 H 447.835 -3.66554 0.747615 0
M  V30 4910 H 449.168 -4.82661 0.964332 0
M  V30 4911 N 450.82 -0.546701 -1.47814 0
M  V30 4912 C 452.068 -0.0187037 -2.02091 0
M  V30 4913 C 452.389 1.33168 -1.42447 0
M  V30 4914 O 451.659 1.86619 -0.595839 0
M  V30 4915 H 450.239 -0.00392531 -0.74699 0
M  V30 4916 H 452.901 -0.714327 -1.81338 0
M  V30 4917 H 451.997 0.0772219 -3.12004 0
M  V30 4918 N 452.299 1.55045 -0.282633 0
M  V30 4919 C 453.546 1.9976 0.33199 0
M  V30 4920 C 453.874 1.17105 1.55295 0
M  V30 4921 O 453.129 0.230599 1.94337 0
M  V30 4922 C 453.428 3.49422 0.750938 0
M  V30 4923 C 453.094 4.4941 -0.366228 0
M  V30 4924 C 451.756 4.76471 -0.672964 0
M  V30 4925 C 454.108 5.09054 -1.11864 0
M  V30 4926 C 451.436 5.60442 -1.73556 0
M  V30 4927 C 453.788 5.9418 -2.17102 0
M  V30 4928 C 452.452 6.19558 -2.48402 0
M  V30 4929 H 451.722 0.730974 0.121484 0
M  V30 4930 H 454.369 1.8732 -0.39791 0
M  V30 4931 H 452.674 3.59377 1.56063 0
M  V30 4932 H 454.371 3.81432 1.23736 0
M  V30 4933 H 450.961 4.2844 -0.117041 0
M  V30 4934 H 455.145 4.88165 -0.894925 0
M  V30 4935 H 450.401 5.78349 -1.983 0
M  V30 4936 H 454.575 6.39427 -2.75873 0
M  V30 4937 H 452.202 6.84417 -3.30874 0
M  V30 4938 N 453.777 0.010035 1.57597 0
M  V30 4939 C 455.193 -0.346164 1.55801 0
M  V30 4940 C 455.393 -1.74144 1.01371 0
M  V30 4941 O 454.449 -2.43938 0.651968 0
M  V30 4942 C 455.762 -0.212216 2.9995 0
M  V30 4943 C 457.31 -0.286409 3.11687 0
M  V30 4944 C 457.785 -0.18147 4.5764 0
M  V30 4945 N 459.276 -0.239056 4.62583 0
M  V30 4946 C 460.011 -0.181351 5.73113 0
M  V30 4947 N 459.507 -0.073661 6.92761 0
M  V30 4948 N 461.3 -0.233949 5.61613 0
M  V30 4949 H 453.451 0.922657 1.91313 0
M  V30 4950 H 455.714 0.354595 0.879185 0
M  V30 4951 H 455.42 0.748169 3.4365 0
M  V30 4952 H 455.294 -0.990224 3.6397 0
M  V30 4953 H 457.681 -1.23724 2.67911 0
M  V30 4954 H 457.762 0.521645 2.50425 0
M  V30 4955 H 457.406 0.765863 5.02093 0
M  V30 4956 H 457.336 -1.00814 5.1686 0
M  V30 4957 H 459.827 -0.32321 3.76515 0
M  V30 4958 H 460.14 -0.0358003 7.72792 0
M  V30 4959 H 458.485 -0.0391461 6.94989 0
M  V30 4960 H 461.676 -0.316347 4.6703 0
M  V30 4961 H 461.849 -0.185514 6.47734 0
M  V30 4962 N 455.255 -1.55392 -0.262866 0
M  V30 4963 C 456.185 -1.91978 -1.32917 0
M  V30 4964 C 457.166 -0.7828 -1.51017 0
M  V30 4965 O 458.351 -1.04178 -1.63892 0
M  V30 4966 C 455.481 -2.20055 -2.68687 0
M  V30 4967 C 454.435 -3.35854 -2.65304 0
M  V30 4968 C 453.761 -3.49435 -4.04721 0
M  V30 4969 C 455.061 -4.71977 -2.23685 0
M  V30 4970 H 456.755 -2.81292 -1.02544 0
M  V30 4971 H 454.301 -1.3534 -0.491846 0
M  V30 4972 H 456.254 -2.44237 -3.43404 0
M  V30 4973 H 454.978 -1.27551 -3.00663 0
M  V30 4974 H 453.637 -3.11655 -1.93045 0
M  V30 4975 H 453.285 -2.54379 -4.33936 0
M  V30 4976 H 452.985 -4.27297 -4.0335 0
M  V30 4977 H 454.509 -3.7592 -4.81161 0
M  V30 4978 H 455.923 -4.95637 -2.88127 0
M  V30 4979 H 454.32 -5.52828 -2.33456 0
M  V30 4980 H 455.39 -4.70115 -1.18827 0
M  V30 4981 N 456.733 0.527833 -1.48498 0
M  V30 4982 C 457.643 1.65907 -1.65867 0
M  V30 4983 C 458.659 1.6537 -0.541192 0
M  V30 4984 O 459.835 1.84282 -0.812534 0
M  V30 4985 C 456.9 3.02364 -1.69637 0
M  V30 4986 C 455.961 3.1374 -2.93028 0
M  V30 4987 C 455.194 4.43688 -2.96609 0
M  V30 4988 O 455.417 5.30913 -2.08538 0
M  V30 4989 O 454.351 4.59475 -3.88802 0
M  V30 4990 H 458.177 1.5419 -2.61647 0
M  V30 4991 H 455.762 0.701163 -1.31924 0
M  V30 4992 H 457.644 3.83515 -1.74625 0
M  V30 4993 H 456.319 3.14401 -0.770312 0
M  V30 4994 H 455.226 2.31877 -2.93571 0
M  V30 4995 H 456.559 3.06621 -3.85026 0
M  V30 4996 N 458.211 1.37122 0.776871 0
M  V30 4997 C 459.436 1.354 1.57104 0
M  V30 4998 C 459.861 -0.0595562 1.88006 0
M  V30 4999 O 459.219 -1.03514 1.48844 0
M  V30 5000 C 459.267 2.19472 2.8612 0
M  V30 5001 O 458.371 1.59582 3.80273 0
M  V30 5002 H 457.712 0.462869 0.476076 0
M  V30 5003 H 460.242 1.80577 0.961932 0
M  V30 5004 H 460.252 2.32502 3.35271 0
M  V30 5005 H 458.927 3.22222 2.62956 0
M  V30 5006 H 457.504 1.55564 3.38902 0
M  V30 5007 N 459.689 -1.00246 1.21608 0
M  V30 5008 C 460.599 -2.12515 0.993709 0
M  V30 5009 C 461.615 -1.73913 -0.0549939 0
M  V30 5010 O 462.791 -2.00943 0.135619 0
M  V30 5011 C 459.856 -3.42083 0.563953 0
M  V30 5012 C 458.917 -3.94843 1.68516 0
M  V30 5013 C 458.15 -5.18226 1.27582 0
M  V30 5014 O 458.373 -5.70201 0.150506 0
M  V30 5015 O 457.307 -5.64497 2.0887 0
M  V30 5016 H 461.133 -2.34152 1.93407 0
M  V30 5017 H 458.718 -1.10891 1.00118 0
M  V30 5018 H 460.6 -4.20073 0.334194 0
M  V30 5019 H 459.275 -3.21828 -0.347665 0
M  V30 5020 H 458.182 -3.18068 1.96935 0
M  V30 5021 H 459.515 -4.19512 2.5743 0
M  V30 5022 N 461.167 -1.02423 -1.1978 0
M  V30 5023 C 462.413 -0.719051 -1.89625 0
M  V30 5024 C 462.746 0.750083 -1.7913 0
M  V30 5025 O 462.021 1.54574 -1.18056 0
M  V30 5026 C 462.304 -1.16499 -3.40735 0
M  V30 5027 C 462.157 -2.695 -3.60125 0
M  V30 5028 C 463.476 -0.742166 -4.33797 0
M  V30 5029 H 460.595 -0.26269 -0.688595 0
M  V30 5030 H 463.237 -1.27333 -1.41018 0
M  V30 5031 H 461.387 -0.69341 -3.82262 0
M  V30 5032 H 463.059 -3.24569 -3.278 0
M  V30 5033 H 461.302 -3.10113 -3.03336 0
M  V30 5034 H 461.973 -2.95757 -4.66081 0
M  V30 5035 H 464.449 -1.1477 -3.99959 0
M  V30 5036 H 463.325 -1.08213 -5.38127 0
M  V30 5037 H 463.586 0.355747 -4.40666 0
M  V30 5038 N 462.645 1.35699 -0.801477 0
M  V30 5039 C 463.894 1.98165 -0.375979 0
M  V30 5040 C 464.207 1.64306 1.06127 0
M  V30 5041 O 465.413 2.20097 1.58964 0
M  V30 5042 C 463.869 3.54497 -0.621305 0
M  V30 5043 C 463.477 3.9727 -2.07076 0
M  V30 5044 C 465.221 4.23697 -0.26091 0
M  V30 5045 C 463.128 5.46427 -2.26211 0
M  V30 5046 H 462.058 0.741478 -0.136844 0
M  V30 5047 H 464.709 1.54834 -0.984814 0
M  V30 5048 H 463.091 3.95958 0.0574112 0
M  V30 5049 H 464.265 3.66974 -2.78687 0
M  V30 5050 H 462.58 3.40943 -2.39054 0
M  V30 5051 H 465.177 5.33334 -0.381994 0
M  V30 5052 H 465.52 4.0869 0.792344 0
M  V30 5053 H 466.053 3.87639 -0.893339 0
M  V30 5054 H 462.792 5.66396 -3.29963 0
M  V30 5055 H 462.312 5.78309 -1.59119 0
M  V30 5056 H 463.991 6.12819 -2.07513 0
M  V30 5057 N 464.123 0.554532 1.47522 0
M  V30 5058 C 465.372 0.0273458 2.01681 0
M  V30 5059 C 465.685 -1.32962 1.43459 0
M  V30 5060 O 466.891 -1.94657 1.89265 0
M  V30 5061 C 465.347 -0.00159057 3.599 0
M  V30 5062 C 464.955 1.35197 4.27113 0
M  V30 5063 C 466.699 -0.476311 4.21819 0
M  V30 5064 C 464.606 1.28229 5.77331 0
M  V30 5065 H 463.536 0.00645269 0.753972 0
M  V30 5066 H 466.187 0.701985 1.69542 0
M  V30 5067 H 464.569 -0.741821 3.8899 0
M  V30 5068 H 465.743 2.1097 4.09668 0
M  V30 5069 H 464.058 1.76441 3.77171 0
M  V30 5070 H 466.655 -0.5468 5.31897 0
M  V30 5071 H 466.998 -1.4877 3.8881 0
M  V30 5072 H 467.531 0.20898 3.97251 0
M  V30 5073 H 464.27 2.26959 6.14955 0
M  V30 5074 H 463.79 0.566314 5.97121 0
M  V30 5075 H 465.469 0.983226 6.39485 0
M  V30 5076 N 465.601 -1.54893 0.290851 0
M  V30 5077 C 467.017 -1.59476 -0.0628432 0
M  V30 5078 C 467.217 -1.30795 -1.5328 0
M  V30 5079 O 466.273 -1.07644 -2.28406 0
M  V30 5080 C 467.586 -2.98928 0.325962 0
M  V30 5081 C 469.134 -3.11799 0.273882 0
M  V30 5082 C 469.609 -4.53544 0.637359 0
M  V30 5083 N 471.1 -4.59433 0.589507 0
M  V30 5084 C 471.835 -5.67164 0.84335 0
M  V30 5085 N 471.331 -6.82975 1.16263 0
M  V30 5086 N 473.124 -5.56786 0.771091 0
M  V30 5087 H 465.275 -1.71798 1.24896 0
M  V30 5088 H 467.538 -0.801879 0.505663 0
M  V30 5089 H 467.244 -3.24805 1.34887 0
M  V30 5090 H 467.118 -3.75793 -0.325441 0
M  V30 5091 H 469.505 -2.85677 -0.739765 0
M  V30 5092 H 469.586 -2.37112 0.959766 0
M  V30 5093 H 469.23 -4.80394 1.64877 0
M  V30 5094 H 469.16 -5.26553 -0.0704866 0
M  V30 5095 H 471.651 -3.76245 0.353252 0
M  V30 5096 H 471.964 -7.61048 1.34257 0
M  V30 5097 H 470.309 -6.84552 1.20057 0
M  V30 5098 H 473.5 -4.65187 0.521383 0
M  V30 5099 H 473.673 -6.40664 0.972295 0
M  V30 5100 N 467.08 -0.0183926 -1.57589 0
M  V30 5101 C 468.326 0.663543 -1.91638 0
M  V30 5102 C 468.659 1.72392 -0.894134 0
M  V30 5103 O 467.934 1.94316 0.0846449 0
M  V30 5104 C 468.217 1.28984 -3.36207 0
M  V30 5105 C 468.07 0.239761 -4.49161 0
M  V30 5106 C 469.389 2.2109 -3.80536 0
M  V30 5107 H 466.508 0.239746 -0.696915 0
M  V30 5108 H 469.15 -0.073456 -1.89858 0
M  V30 5109 H 467.3 1.91799 -3.37854 0
M  V30 5110 H 468.972 -0.390119 -4.59647 0
M  V30 5111 H 467.215 -0.435972 -4.31604 0
M  V30 5112 H 467.886 0.717383 -5.47319 0
M  V30 5113 H 470.362 1.68273 -3.80557 0
M  V30 5114 H 469.238 2.61869 -4.82406 0
M  V30 5115 H 469.499 3.09764 -3.15434 0
M  V30 5116 N 468.558 1.5553 0.254621 0
M  V30 5117 C 469.786 1.81046 1.00149 0
M  V30 5118 C 470.201 0.593047 1.79244 0
M  V30 5119 O 469.558 -0.438196 1.77161 0
M  V30 5120 C 469.609 3.04684 1.94551 0
M  V30 5121 O 469.33 4.21725 1.18658 0
M  V30 5122 C 470.831 3.42943 2.80901 0
M  V30 5123 H 468.051 0.602653 0.295044 0
M  V30 5124 H 470.595 2.02576 0.279842 0
M  V30 5125 H 468.75 2.85226 2.62154 0
M  V30 5126 H 469.164 4.91746 1.82445 0
M  V30 5127 H 470.638 4.32576 3.42902 0
M  V30 5128 H 471.115 2.63176 3.51617 0
M  V30 5129 H 471.721 3.64724 2.18762 0
M  V30 5130 N 470.036 -0.519951 1.48776 0
M  V30 5131 C 471.276 -1.2856 1.58908 0
M  V30 5132 C 471.64 -1.90212 0.261418 0
M  V30 5133 O 472.841 -2.67746 0.237791 0
M  V30 5134 C 471.112 -2.33836 2.70288 0
M  V30 5135 S 472.671 -3.19992 3.0025 0
M  V30 5136 H 469.489 -0.43717 0.560717 0
M  V30 5137 H 472.091 -0.591205 1.86346 0
M  V30 5138 H 470.795 -1.87041 3.653 0
M  V30 5139 H 470.326 -3.07969 2.44783 0
M  V30 5140 H 472.341 -4.34122 2.40317 0
M  V30 5141 N 471.514 -1.37532 -0.769588 0
M  V30 5142 C 472.925 -1.29382 -1.346 0
M  V30 5143 C 473.276 0.0576039 -1.96115 0
M  V30 5144 O 472.401 0.95947 -1.93967 0
M  V30 5145 C 472.996 -2.34298 -2.44724 0
M  V30 5146 C 471.555 -2.29776 -2.98128 0
M  V30 5147 C 470.702 -2.18013 -1.71364 0
M  V30 5148 H 473.653 -1.48123 -0.56968 0
M  V30 5149 H 473.674 -1.99089 -3.24259 0
M  V30 5150 H 473.186 -3.32645 -1.99922 0
M  V30 5151 H 471.287 -1.34959 -3.47299 0
M  V30 5152 H 471.4 -3.23276 -3.53595 0
M  V30 5153 H 469.764 -1.64595 -1.94372 0
M  V30 5154 H 470.547 -3.18278 -1.28662 0
M  V30 5155 N 472.992 0.995999 -1.22138 0
M  V30 5156 C 473.922 2.10387 -1.01289 0
M  V30 5157 C 474.903 1.69975 0.0651454 0
M  V30 5158 O 476.088 1.9396 -0.0964628 0
M  V30 5159 C 473.218 3.42312 -0.586517 0
M  V30 5160 C 472.172 3.96558 -1.61014 0
M  V30 5161 C 471.498 5.24494 -1.0397 0
M  V30 5162 C 472.798 4.27595 -2.99933 0
M  V30 5163 H 474.492 2.28086 -1.93951 0
M  V30 5164 H 472.038 1.09607 -0.933928 0
M  V30 5165 H 473.991 4.19223 -0.427793 0
M  V30 5166 H 472.715 3.24431 0.375761 0
M  V30 5167 H 471.374 3.21776 -1.75658 0
M  V30 5168 H 471.022 5.02953 -0.0688703 0
M  V30 5169 H 470.722 5.61755 -1.72352 0
M  V30 5170 H 472.246 6.04042 -0.892494 0
M  V30 5171 H 473.66 4.95315 -2.8868 0
M  V30 5172 H 472.057 4.76021 -3.6541 0
M  V30 5173 H 473.127 3.35498 -3.50099 0
M  V30 5174 N 474.47 1.03057 1.19235 0
M  V30 5175 C 475.695 0.74757 1.93458 0
M  V30 5176 C 476.12 -0.687648 1.7508 0
M  V30 5177 O 475.478 -1.47499 1.05422 0
M  V30 5178 C 475.526 1.10604 3.43219 0
M  V30 5179 O 474.63 0.225671 4.11782 0
M  V30 5180 H 473.971 0.276047 0.603899 0
M  V30 5181 H 476.501 1.3777 1.51263 0
M  V30 5182 H 476.511 1.06366 3.93891 0
M  V30 5183 H 475.186 2.15165 3.55917 0
M  V30 5184 H 473.763 0.326795 3.71465 0
M  V30 5185 N 475.948 -1.35272 0.808662 0
M  V30 5186 C 477.173 -2.03477 0.401475 0
M  V30 5187 C 477.598 -1.60537 -0.980279 0
M  V30 5188 O 476.956 -0.78304 -1.63518 0
M  V30 5189 C 477.004 -3.57181 0.495354 0
M  V30 5190 O 476.108 -4.09474 -0.490397 0
M  V30 5191 H 475.449 -0.642561 0.167366 0
M  V30 5192 H 477.979 -1.72824 1.09512 0
M  V30 5193 H 477.989 -4.06356 0.365912 0
M  V30 5194 H 476.664 -3.87784 1.5032 0
M  V30 5195 H 475.241 -3.71516 -0.321023 0
M  V30 5196 N 477.426 -0.562348 -1.47226 0
M  V30 5197 C 478.837 -0.130325 -1.86245 0
M  V30 5198 C 479.188 1.30128 -1.46838 0
M  V30 5199 O 478.313 1.97974 -0.873805 0
M  V30 5200 C 478.908 -0.229738 -3.3802 0
M  V30 5201 C 477.467 0.14728 -3.76112 0
M  V30 5202 C 476.614 -0.574971 -2.71274 0
M  V30 5203 H 479.565 -0.771773 -1.3867 0
M  V30 5204 H 479.586 0.550316 -3.76499 0
M  V30 5205 H 479.098 -1.27178 -3.66671 0
M  V30 5206 H 477.199 1.19023 -3.53078 0
M  V30 5207 H 477.312 -0.214858 -4.78618 0
M  V30 5208 H 475.676 -0.0174756 -2.54694 0
M  V30 5209 H 476.459 -1.61827 -3.02766 0
M  V30 5210 N 478.904 1.54736 -0.299062 0
M  V30 5211 C 479.836 2.20891 0.61153 0
M  V30 5212 C 480.849 1.20104 1.09904 0
M  V30 5213 O 482.038 1.46707 1.01683 0
M  V30 5214 C 479.138 2.84018 1.84897 0
M  V30 5215 C 478.311 4.10719 1.50428 0
M  V30 5216 C 477.37 4.57667 2.59667 0
M  V30 5217 O 476.396 5.2291 2.24842 0
M  V30 5218 N 477.598 4.29821 3.90172 0
M  V30 5219 H 480.363 2.99666 0.0452001 0
M  V30 5220 H 477.924 1.61446 -0.121178 0
M  V30 5221 H 479.916 3.1236 2.5732 0
M  V30 5222 H 478.486 2.09095 2.32375 0
M  V30 5223 H 477.706 3.89408 0.612781 0
M  V30 5224 H 478.994 4.93223 1.24934 0
M  V30 5225 H 478.392 3.77549 4.21276 0
M  V30 5226 H 476.949 4.62877 4.58899 0
M  V30 5227 N 480.382 0.0267497 1.57577 0
M  V30 5228 C 481.292 -0.971633 2.13533 0
M  V30 5229 C 482.308 -1.35868 1.08701 0
M  V30 5230 O 483.484 -1.44058 1.40746 0
M  V30 5231 C 480.549 -2.23622 2.64941 0
M  V30 5232 C 479.61 -1.90982 3.8448 0
M  V30 5233 C 478.843 -3.11411 4.33427 0
M  V30 5234 O 479.066 -4.23992 3.81558 0
M  V30 5235 O 478 -2.93848 5.25297 0
M  V30 5236 H 481.826 -0.525853 2.99113 0
M  V30 5237 H 479.411 -0.193712 1.48139 0
M  V30 5238 H 481.293 -2.97864 2.98086 0
M  V30 5239 H 479.968 -2.67386 1.82446 0
M  V30 5240 H 478.875 -1.14132 3.56265 0
M  V30 5241 H 480.208 -1.52036 4.6813 0
M  V30 5242 N 481.861 -1.55662 -0.24637 0
M  V30 5243 C 483.11 -1.7672 -0.972254 0
M  V30 5244 C 483.423 -0.59078 -1.86465 0
M  V30 5245 O 484.629 -0.684391 -2.62732 0
M  V30 5246 C 483.085 -3.12869 -1.7788 0
M  V30 5247 C 482.693 -4.38161 -0.933768 0
M  V30 5248 C 484.437 -3.43265 -2.49738 0
M  V30 5249 C 482.344 -5.6534 -1.73623 0
M  V30 5250 H 481.274 -0.658795 -0.366749 0
M  V30 5251 H 483.925 -1.82092 -0.226902 0
M  V30 5252 H 482.307 -3.01606 -2.56612 0
M  V30 5253 H 483.481 -4.60413 -0.188736 0
M  V30 5254 H 481.796 -4.15102 -0.328488 0
M  V30 5255 H 484.393 -4.35501 -3.10231 0
M  V30 5256 H 484.736 -2.64614 -3.2138 0
M  V30 5257 H 485.269 -3.55746 -1.78016 0
M  V30 5258 H 482.008 -6.46814 -1.06354 0
M  V30 5259 H 481.528 -5.47188 -2.45653 0
M  V30 5260 H 483.207 -6.04616 -2.30323 0
M  V30 5261 N 483.339 0.512053 -1.4905 0
M  V30 5262 C 484.567 1.29116 -1.61669 0
M  V30 5263 C 484.982 1.86655 -0.283787 0
M  V30 5264 O 484.339 1.67293 0.729331 0
M  V30 5265 C 484.39 2.4293 -2.67707 0
M  V30 5266 O 484.111 1.87758 -3.95826 0
M  V30 5267 C 485.612 3.34476 -2.90931 0
M  V30 5268 H 482.832 0.392009 -0.544583 0
M  V30 5269 H 485.376 0.615881 -1.95006 0
M  V30 5270 H 483.531 3.06308 -2.37179 0
M  V30 5271 H 483.945 2.62393 -4.54148 0
M  V30 5272 H 485.419 4.10642 -3.68886 0
M  V30 5273 H 485.896 3.90801 -2.00427 0
M  V30 5274 H 486.502 2.76874 -3.22832 0
M  V30 5275 N 484.817 1.37938 0.762283 0
M  V30 5276 C 486.042 1.37059 1.55659 0
M  V30 5277 C 486.467 -0.0396123 1.88058 0
M  V30 5278 O 485.825 -1.01929 1.49934 0
M  V30 5279 C 485.873 2.22494 2.83776 0
M  V30 5280 O 484.977 1.63607 3.78559 0
M  V30 5281 H 484.318 0.467892 0.47114 0
M  V30 5282 H 486.848 1.81587 0.942725 0
M  V30 5283 H 486.858 2.36045 3.32786 0
M  V30 5284 H 485.533 3.24993 2.59524 0
M  V30 5285 H 484.11 1.5915 3.37233 0
M  V30 5286 N 486.295 -0.989507 1.22664 0
M  V30 5287 C 487.205 -2.11449 1.01619 0
M  V30 5288 C 488.221 -1.73962 -0.036545 0
M  V30 5289 O 489.397 -2.00788 0.156924 0
M  V30 5290 C 486.462 -3.41465 0.600204 0
M  V30 5291 C 485.523 -3.93033 1.72695 0
M  V30 5292 C 484.756 -5.16844 1.33071 0
M  V30 5293 O 484.979 -5.7001 0.210975 0
M  V30 5294 O 483.913 -5.6225 2.14845 0
M  V30 5295 H 487.739 -2.32088 1.9588 0
M  V30 5296 H 485.324 -1.09823 1.01289 0
M  V30 5297 H 487.206 -4.19695 0.37873 0
M  V30 5298 H 485.881 -3.22178 -0.313511 0
M  V30 5299 H 484.788 -3.15961 2.00298 0
M  V30 5300 H 486.121 -4.16758 2.61865 0
M  V30 5301 N 487.773 -1.03688 -1.18687 0
M  V30 5302 C 489.001 -0.757918 -1.92518 0
M  V30 5303 C 489.416 0.684398 -1.75959 0
M  V30 5304 O 488.773 1.46617 -1.08673 0
M  V30 5305 C 488.824 -1.10985 -3.44042 0
M  V30 5306 O 488.545 -2.49554 -3.60076 0
M  V30 5307 C 490.046 -0.854844 -4.3498 0
M  V30 5308 H 487.266 -0.276699 -0.611293 0
M  V30 5309 H 489.81 -1.38352 -1.50595 0
M  V30 5310 H 487.965 -0.529279 -3.83767 0
M  V30 5311 H 488.379 -2.6291 -4.53849 0
M  V30 5312 H 489.853 -1.15098 -5.39867 0
M  V30 5313 H 490.33 0.210507 -4.38695 0
M  V30 5314 H 490.936 -1.41853 -4.00946 0
M  V30 5315 N 489.251 1.34841 -0.815825 0
M  V30 5316 C 490.161 2.33425 -0.234462 0
M  V30 5317 C 491.177 1.62295 0.627413 0
M  V30 5318 O 492.353 1.94109 0.536987 0
M  V30 5319 C 489.418 3.41471 0.599849 0
M  V30 5320 C 488.479 4.28362 -0.283596 0
M  V30 5321 C 487.712 5.31248 0.51099 0
M  V30 5322 O 487.935 5.43056 1.7449 0
M  V30 5323 O 486.869 6.01812 -0.10297 0
M  V30 5324 H 490.695 2.84962 -1.05024 0
M  V30 5325 H 488.28 1.37774 -0.577809 0
M  V30 5326 H 490.162 4.07464 1.07475 0
M  V30 5327 H 488.837 2.9219 1.39308 0
M  V30 5328 H 487.744 3.65318 -0.805836 0
M  V30 5329 H 489.077 4.81066 -1.041 0
M  V30 5330 N 490.729 0.570148 1.46925 0
M  V30 5331 C 492.006 -0.0153259 1.95594 0
M  V30 5332 C 492.386 -1.47232 1.51281 0
M  V30 5333 O 491.734 -2.15574 0.757624 0
M  V30 5334 C 491.944 0.143624 3.48704 0
M  V30 5335 C 493.292 0.00494484 4.246 0
M  V30 5336 O 494.316 0.0718214 3.56128 0
M  V30 5337 O 493.175 -0.141175 5.46318 0
M  V30 5338 H 490.269 -0.0568819 0.825041 0
M  V30 5339 H 492.815 0.637583 1.57267 0
M  V30 5340 H 491.587 1.15699 3.73804 0
M  V30 5341 H 491.21 -0.5463 3.93829 0
M  V30 5342 N 492.207 -1.54576 0.307264 0
M  V30 5343 C 493.137 -2.26708 -0.55907 0
M  V30 5344 C 494.118 -1.26893 -1.1328 0
M  V30 5345 O 495.303 -1.55677 -1.16097 0
M  V30 5346 C 492.433 -3.01259 -1.72801 0
M  V30 5347 C 491.387 -4.08275 -1.28435 0
M  V30 5348 C 490.713 -4.70575 -2.53895 0
M  V30 5349 C 492.013 -5.2068 -0.411038 0
M  V30 5350 H 493.707 -2.9937 0.042576 0
M  V30 5351 H 491.253 -1.43983 0.0219173 0
M  V30 5352 H 493.206 -3.50444 -2.34023 0
M  V30 5353 H 491.93 -2.26187 -2.356 0
M  V30 5354 H 490.589 -3.59949 -0.695161 0
M  V30 5355 H 490.237 -3.92136 -3.15021 0
M  V30 5356 H 489.937 -5.42854 -2.24908 0
M  V30 5357 H 491.461 -5.22527 -3.15908 0
M  V30 5358 H 492.875 -5.65721 -0.929097 0
M  V30 5359 H 491.272 -5.99716 -0.214664 0
M  V30 5360 H 492.342 -4.81629 0.562287 0
M  V30 5361 N 493.685 -0.035106 -1.57561 0
M  V30 5362 C 494.925 0.646316 -1.93913 0
M  V30 5363 C 495.289 1.68947 -0.912185 0
M  V30 5364 O 496.49 2.42381 -1.1621 0
M  V30 5365 C 494.761 1.24136 -3.35149 0
M  V30 5366 S 496.32 1.94302 -3.93436 0
M  V30 5367 H 493.138 0.212642 -0.678457 0
M  V30 5368 H 495.74 -0.100203 -1.95243 0
M  V30 5369 H 494.444 0.46979 -4.07702 0
M  V30 5370 H 493.975 2.02505 -3.37276 0
M  V30 5371 H 495.99 3.22205 -3.77357 0
M  V30 5372 N 495.163 1.55791 0.238111 0
M  V30 5373 C 496.073 1.94196 1.31625 0
M  V30 5374 C 497.089 0.843545 1.52185 0
M  V30 5375 O 498.265 1.1457 1.65637 0
M  V30 5376 C 495.33 2.2365 2.64918 0
M  V30 5377 C 494.391 3.46971 2.52804 0
M  V30 5378 C 493.624 3.7501 3.79741 0
M  V30 5379 O 493.847 3.04982 4.82019 0
M  V30 5380 O 492.781 4.68525 3.77846 0
M  V30 5381 H 496.607 2.86044 1.02043 0
M  V30 5382 H 494.192 1.42786 0.439603 0
M  V30 5383 H 496.074 2.43863 3.4367 0
M  V30 5384 H 494.749 1.34979 2.94215 0
M  V30 5385 H 493.656 3.32055 1.72309 0
M  V30 5386 H 494.989 4.35971 2.28451 0
M  V30 5387 N 496.642 -0.504142 1.49319 0
M  V30 5388 C 497.589 -1.60603 1.65756 0
M  V30 5389 C 498.559 -1.58425 0.499082 0
M  V30 5390 O 499.744 -1.76459 0.725728 0
M  V30 5391 C 496.884 -2.98764 1.72726 0
M  V30 5392 C 495.997 -3.10982 2.99857 0
M  V30 5393 C 495.132 -4.39857 2.97824 0
M  V30 5394 C 494.171 -4.45697 4.19548 0
M  V30 5395 N 493.308 -5.65995 4.15444 0
M  V30 5396 H 498.148 -1.45895 2.59843 0
M  V30 5397 H 495.685 -0.709891 1.28837 0
M  V30 5398 H 497.643 -3.78839 1.74747 0
M  V30 5399 H 496.273 -3.12183 0.821075 0
M  V30 5400 H 495.325 -2.23991 3.07461 0
M  V30 5401 H 496.637 -3.11157 3.89849 0
M  V30 5402 H 495.791 -5.2825 2.98391 0
M  V30 5403 H 494.53 -4.42242 2.05604 0
M  V30 5404 H 493.535 -3.55707 4.19229 0
M  V30 5405 H 494.76 -4.4503 5.12957 0
M  V30 5406 H 492.706 -5.69229 3.26059 0
M  V30 5407 H 492.623 -5.67773 4.99169 0
M  V30 5408 H 493.891 -6.56604 4.20109 0
M  V30 5409 N 498.12 -1.38341 -0.754957 0
M  V30 5410 C 499.531 -1.30803 -1.3322 0
M  V30 5411 C 499.882 0.0368 -1.96165 0
M  V30 5412 O 499.007 0.938844 -1.94974 0
M  V30 5413 C 499.602 -2.3688 -2.42225 0
M  V30 5414 C 498.161 -2.32925 -2.95674 0
M  V30 5415 C 497.308 -2.19819 -1.69042 0
M  V30 5416 H 500.259 -1.48719 -0.553937 0
M  V30 5417 H 500.28 -2.02517 -3.22129 0
M  V30 5418 H 499.792 -3.34747 -1.96383 0
M  V30 5419 H 497.893 -1.38635 -3.45848 0
M  V30 5420 H 498.006 -3.27008 -3.50146 0
M  V30 5421 H 496.37 -1.66648 -1.92615 0
M  V30 5422 H 497.153 -3.19625 -1.25279 0
M  V30 5423 N 499.598 0.982988 -1.23187 0
M  V30 5424 C 500.875 1.69814 -0.970707 0
M  V30 5425 C 501.255 2.04811 0.511424 0
M  V30 5426 O 500.603 1.73924 1.48198 0
M  V30 5427 C 500.813 2.94143 -1.87831 0
M  V30 5428 C 502.161 3.66712 -2.14026 0
M  V30 5429 O 503.185 3.04171 -1.8536 0
M  V30 5430 O 502.044 4.79258 -2.62629 0
M  V30 5431 H 499.138 0.741659 -0.365884 0
M  V30 5432 H 501.684 1.03844 -1.34218 0
M  V30 5433 H 500.456 2.64858 -2.88038 0
M  V30 5434 H 500.079 3.6785 -1.50905 0
M  V30 5435 N 501.076 1.04316 1.18135 0
M  V30 5436 C 502.353 0.662166 1.84051 0
M  V30 5437 C 502.733 -0.858169 1.9287 0
M  V30 5438 O 502.081 -1.76062 1.45652 0
M  V30 5439 C 502.291 1.3409 3.22212 0
M  V30 5440 C 503.639 1.4733 3.9822 0
M  V30 5441 O 504.663 1.29921 3.31661 0
M  V30 5442 O 503.522 1.75722 5.17479 0
M  V30 5443 H 500.616 0.232005 0.79379 0
M  V30 5444 H 503.162 1.1422 1.25506 0
M  V30 5445 H 501.934 2.37853 3.10711 0
M  V30 5446 H 501.557 0.849649 3.88416 0
M  V30 5447 N 502.554 -1.34406 0.822964 0
M  V30 5448 C 503.464 -2.33298 0.246838 0
M  V30 5449 C 504.48 -1.62625 -0.618797 0
M  V30 5450 O 505.656 -1.94391 -0.526685 0
M  V30 5451 C 502.721 -3.41785 -0.581731 0
M  V30 5452 C 501.782 -4.28206 0.306309 0
M  V30 5453 C 501.015 -5.31512 -0.48281 0
M  V30 5454 O 501.238 -5.43973 -1.71607 0
M  V30 5455 O 500.172 -6.01749 0.134884 0
M  V30 5456 H 503.998 -2.84401 1.06534 0
M  V30 5457 H 501.583 -1.37466 0.585108 0
M  V30 5458 H 503.465 -4.08028 -1.05313 0
M  V30 5459 H 502.14 -2.92925 -1.37756 0
M  V30 5460 H 501.047 -3.64885 0.825199 0
M  V30 5461 H 502.38 -4.80507 1.06649 0
M  V30 5462 N 504.032 -0.577932 -1.46621 0
M  V30 5463 C 505.278 -0.0617793 -2.02706 0
M  V30 5464 C 505.611 1.29294 -1.44903 0
M  V30 5465 O 504.886 1.8461 -0.61232 0
M  V30 5466 C 505.169 0.00911824 -3.60099 0
M  V30 5467 C 505.022 -1.37416 -4.28295 0
M  V30 5468 C 506.341 0.712159 -4.343 0
M  V30 5469 H 503.46 -0.0239246 -0.736612 0
M  V30 5470 H 506.102 -0.744211 -1.74818 0
M  V30 5471 H 504.252 0.590292 -3.83989 0
M  V30 5472 H 505.924 -2.00013 -4.15683 0
M  V30 5473 H 504.167 -1.94319 -3.87843 0
M  V30 5474 H 504.838 -1.27707 -5.37024 0
M  V30 5475 H 507.314 0.218486 -4.15526 0
M  V30 5476 H 506.19 0.730782 -5.44014 0
M  V30 5477 H 506.451 1.77251 -4.05012 0
M  V30 5478 N 505.51 1.54411 -0.315457 0
M  V30 5479 C 506.457 2.24048 0.554166 0
M  V30 5480 C 507.427 1.2283 1.11812 0
M  V30 5481 O 508.612 1.51491 1.15997 0
M  V30 5482 C 505.752 2.99574 1.71316 0
M  V30 5483 C 504.865 4.15594 1.17922 0
M  V30 5484 C 504 4.78669 2.30324 0
M  V30 5485 C 503.039 5.86807 1.74137 0
M  V30 5486 N 502.176 6.43777 2.8017 0
M  V30 5487 H 507.016 2.97964 -0.0462602 0
M  V30 5488 H 504.553 1.47059 -0.0346009 0
M  V30 5489 H 506.511 3.41604 2.39505 0
M  V30 5490 H 505.141 2.28008 2.285 0
M  V30 5491 H 504.193 3.78404 0.389136 0
M  V30 5492 H 505.505 4.93459 0.728012 0
M  V30 5493 H 504.659 5.23626 3.06433 0
M  V30 5494 H 503.398 4.00168 2.78778 0
M  V30 5495 H 502.403 5.41261 0.965236 0
M  V30 5496 H 503.628 6.67201 1.2657 0
M  V30 5497 H 501.574 5.68153 3.2793 0
M  V30 5498 H 501.491 7.17031 2.39588 0
M  V30 5499 H 502.759 6.9339 3.56132 0
M  V30 5500 N 506.988 0.0434614 1.5754 0
M  V30 5501 C 507.898 -0.94893 2.14552 0
M  V30 5502 C 508.914 -1.34707 1.10136 0
M  V30 5503 O 510.09 -1.42557 1.42266 0
M  V30 5504 C 507.155 -2.208 2.67298 0
M  V30 5505 C 506.216 -1.86893 3.86484 0
M  V30 5506 C 505.449 -3.06797 4.36705 0
M  V30 5507 O 505.672 -4.19921 3.86034 0
M  V30 5508 O 504.606 -2.8826 5.28384 0
M  V30 5509 H 508.432 -0.494099 2.99654 0
M  V30 5510 H 506.017 -0.177989 1.48336 0
M  V30 5511 H 507.899 -2.94686 3.01228 0
M  V30 5512 H 506.574 -2.65436 1.85272 0
M  V30 5513 H 505.481 -1.10347 3.57455 0
M  V30 5514 H 506.814 -1.47062 4.69716 0
M  V30 5515 N 508.466 -1.55915 -0.229846 0
M  V30 5516 C 509.694 -1.82617 -0.972562 0
M  V30 5517 C 510.109 -0.621488 -1.78278 0
M  V30 5518 O 509.466 0.409956 -1.77836 0
M  V30 5519 C 509.517 -3.0774 -1.89679 0
M  V30 5520 O 509.238 -4.23559 -1.11934 0
M  V30 5521 C 510.739 -3.47368 -2.75409 0
M  V30 5522 H 507.959 -0.60727 -0.285419 0
M  V30 5523 H 510.503 -2.02996 -0.247579 0
M  V30 5524 H 508.658 -2.89361 -2.57583 0
M  V30 5525 H 509.072 -4.94586 -1.74599 0
M  V30 5526 H 510.546 -4.37977 -3.35977 0
M  V30 5527 H 511.023 -2.68737 -3.47386 0
M  V30 5528 H 511.629 -3.68158 -2.12931 0
M  V30 5529 N 509.944 0.496216 -1.49584 0
M  V30 5530 C 510.907 1.57952 -1.66084 0
M  V30 5531 C 511.907 1.51729 -0.53244 0
M  V30 5532 O 513.097 1.54796 -0.79899 0
M  V30 5533 C 510.229 2.97604 -1.66268 0
M  V30 5534 H 511.422 1.44649 -2.6271 0
M  V30 5535 H 508.975 0.7208 -1.38687 0
M  V30 5536 H 509.71 3.16378 -0.712432 0
M  V30 5537 H 509.495 3.03528 -2.4822 0
M  V30 5538 H 510.985 3.76301 -1.81073 0
M  V30 5539 N 511.423 1.38739 0.74761 0
M  V30 5540 C 512.373 1.32948 1.85226 0
M  V30 5541 C 513.357 0.212642 1.59489 0
M  V30 5542 O 514.549 0.449121 1.71207 0
M  V30 5543 C 511.678 1.16279 3.23008 0
M  V30 5544 C 510.764 2.32611 3.54617 0
M  V30 5545 N 511.155 3.58065 3.57244 0
M  V30 5546 C 509.453 2.25293 3.84914 0
M  V30 5547 C 510.154 4.34919 3.8629 0
M  V30 5548 N 509.13 3.64348 4.03425 0
M  V30 5549 H 512.932 2.27927 1.85544 0
M  V30 5550 H 510.446 1.32056 0.945253 0
M  V30 5551 H 512.443 1.10214 4.02068 0
M  V30 5552 H 511.103 0.222394 3.23937 0
M  V30 5553 H 512.114 3.91656 3.3886 0
M  V30 5554 H 508.791 1.39446 3.93524 0
M  V30 5555 H 510.181 5.43605 3.94896 0
M  V30 5556 N 512.901 -0.976442 1.23707 0
M  V30 5557 C 514.178 -1.69296 0.979699 0
M  V30 5558 C 514.558 -2.0508 -0.500555 0
M  V30 5559 O 513.906 -1.74708 -1.47273 0
M  V30 5560 C 514.116 -2.93143 1.89389 0
M  V30 5561 C 515.464 -3.65572 2.15968 0
M  V30 5562 O 516.488 -3.03184 1.86971 0
M  V30 5563 O 515.347 -4.77859 2.65167 0
M  V30 5564 H 512.441 -0.739708 0.369812 0
M  V30 5565 H 514.987 -1.03131 1.34767 0
M  V30 5566 H 513.759 -2.63327 2.89439 0
M  V30 5567 H 513.382 -3.67044 1.52854 0
M  V30 5568 N 514.379 -1.04941 -1.1758 0
M  V30 5569 C 515.309 -0.669172 -2.23706 0
M  V30 5570 C 516.29 0.331835 -1.66832 0
M  V30 5571 O 517.475 0.209988 -1.93061 0
M  V30 5572 C 514.605 -0.0404889 -3.47276 0
M  V30 5573 C 513.559 -0.965983 -4.16957 0
M  V30 5574 C 512.885 -0.201312 -5.34321 0
M  V30 5575 C 514.185 -2.28902 -4.69469 0
M  V30 5576 H 515.879 -1.55639 -2.55767 0
M  V30 5577 H 513.425 -0.749793 -1.22939 0
M  V30 5578 H 515.378 0.237298 -4.20731 0
M  V30 5579 H 514.102 0.881658 -3.14475 0
M  V30 5580 H 512.761 -1.22829 -3.45411 0
M  V30 5581 H 512.409 0.723519 -4.97769 0
M  V30 5582 H 512.109 -0.817968 -5.81879 0
M  V30 5583 H 513.633 0.0692499 -6.10561 0
M  V30 5584 H 515.047 -2.07132 -5.34574 0
M  V30 5585 H 513.444 -2.85942 -5.27596 0
M  V30 5586 H 514.514 -2.92937 -3.86414 0
M  V30 5587 N 515.857 1.33968 -0.830081 0
M  V30 5588 C 517.134 1.92554 -0.343858 0
M  V30 5589 C 517.514 1.7573 1.16971 0
M  V30 5590 O 516.862 1.14035 1.98011 0
M  V30 5591 C 517.072 3.40147 -0.781073 0
M  V30 5592 C 518.42 4.17299 -0.78402 0
M  V30 5593 O 519.444 3.48762 -0.724112 0
M  V30 5594 O 518.303 5.39631 -0.863739 0
M  V30 5595 H 515.397 0.821469 -0.0954827 0
M  V30 5596 H 517.943 1.42897 -0.915348 0
M  V30 5597 H 516.715 3.46225 -1.82329 0
M  V30 5598 H 516.338 3.97166 -0.18567 0
M  V30 5599 N 517.335 0.585699 1.46312 0
M  V30 5600 C 518.581 0.0725284 2.0267 0
M  V30 5601 C 518.914 -1.28523 1.45586 0
M  V30 5602 O 518.189 -1.84283 0.622101 0
M  V30 5603 C 518.472 0.0099788 3.60099 0
M  V30 5604 C 518.325 1.39685 4.27561 0
M  V30 5605 C 519.644 -0.689117 4.34671 0
M  V30 5606 H 516.763 0.0278307 0.736474 0
M  V30 5607 H 519.405 0.753472 1.74421 0
M  V30 5608 H 517.555 -0.56992 3.84297 0
M  V30 5609 H 519.227 2.02215 4.14617 0
M  V30 5610 H 517.47 1.96374 3.86807 0
M  V30 5611 H 518.141 1.30553 5.36339 0
M  V30 5612 H 520.617 -0.196446 4.15636 0
M  V30 5613 H 519.493 -0.701921 5.44393 0
M  V30 5614 H 519.754 -1.75101 4.05946 0
M  V30 5615 N 518.813 -1.54241 0.323641 0
M  V30 5616 C 519.76 -2.24339 -0.542277 0
M  V30 5617 C 520.73 -1.23421 -1.11159 0
M  V30 5618 O 521.915 -1.52104 -1.15192 0
M  V30 5619 C 519.055 -3.00479 -1.69725 0
M  V30 5620 C 518.168 -4.16214 -1.15716 0
M  V30 5621 C 517.303 -4.79884 -2.27783 0
M  V30 5622 C 516.342 -5.87722 -1.71023 0
M  V30 5623 N 515.479 -6.45254 -2.76752 0
M  V30 5624 H 520.319 -2.97935 0.0620613 0
M  V30 5625 H 517.856 -1.47039 0.0423993 0
M  V30 5626 H 519.814 -3.42869 -2.3769 0
M  V30 5627 H 518.444 -2.29217 -2.27288 0
M  V30 5628 H 517.496 -3.78605 -0.369063 0
M  V30 5629 H 518.808 -4.93838 -0.701832 0
M  V30 5630 H 517.962 -5.25243 -3.03651 0
M  V30 5631 H 516.701 -4.01641 -2.76652 0
M  V30 5632 H 515.706 -5.41765 -0.936518 0
M  V30 5633 H 516.931 -6.67863 -1.2303 0
M  V30 5634 H 514.877 -5.69884 -3.24912 0
M  V30 5635 H 514.794 -7.18292 -2.35782 0
M  V30 5636 H 516.062 -6.95269 -3.5245 0
M  V30 5637 N 520.291 -0.0518155 -1.57515 0
M  V30 5638 C 521.516 0.634896 -1.97443 0
M  V30 5639 C 521.941 1.63546 -0.929207 0
M  V30 5640 O 521.299 1.80981 0.107484 0
M  V30 5641 C 521.347 1.29765 -3.36442 0
M  V30 5642 O 520.451 2.41333 -3.34413 0
M  V30 5643 H 519.792 0.164994 -0.643174 0
M  V30 5644 H 522.322 -0.120407 -2.04245 0
M  V30 5645 H 522.332 1.64918 -3.73184 0
M  V30 5646 H 521.007 0.564361 -4.12053 0
M  V30 5647 H 519.584 2.08122 -3.09418 0
M  V30 5648 N 521.769 1.56035 0.221574 0
M  V30 5649 C 523.18 1.69229 0.788567 0
M  V30 5650 C 523.531 0.653814 1.84986 0
M  V30 5651 O 522.656 -0.195065 2.15519 0
M  V30 5652 C 523.251 3.06809 1.43713 0
M  V30 5653 C 521.81 3.21858 1.95152 0
M  V30 5654 C 520.957 2.65155 0.811685 0
M  V30 5655 H 523.908 1.587 -0.00307894 0
M  V30 5656 H 523.929 3.02666 2.30594 0
M  V30 5657 H 523.441 3.82369 0.664475 0
M  V30 5658 H 521.542 2.51167 2.7522 0
M  V30 5659 H 521.655 4.29073 2.1315 0
M  V30 5660 H 520.019 2.23635 1.21899 0
M  V30 5661 H 520.802 3.43261 0.0516987 0
M  V30 5662 N 523.247 -0.488276 1.49845 0
M  V30 5663 C 524.658 -1.06955 1.53028 0
M  V30 5664 C 525.009 -1.9351 0.323797 0
M  V30 5665 O 524.134 -2.08891 -0.565116 0
M  V30 5666 C 524.729 -1.94643 2.77307 0
M  V30 5667 C 523.288 -2.4791 2.83227 0
M  V30 5668 C 522.435 -1.25833 2.47106 0
M  V30 5669 H 525.386 -0.271626 1.56358 0
M  V30 5670 H 525.407 -2.79496 2.5819 0
M  V30 5671 H 524.919 -1.31621 3.65099 0
M  V30 5672 H 523.02 -3.14535 1.99745 0
M  V30 5673 H 523.133 -2.84193 3.85709 0
M  V30 5674 H 521.497 -1.58764 1.99163 0
M  V30 5675 H 522.28 -0.644993 3.37186 0
M  V30 5676 N 524.725 -1.39134 -0.740242 0
M  V30 5677 C 525.635 -1.39697 -1.88473 0
M  V30 5678 C 526.651 -0.292403 -1.71526 0
M  V30 5679 O 527.827 -0.533021 -1.94219 0
M  V30 5680 C 524.892 -1.23382 -3.24003 0
M  V30 5681 C 523.953 -2.43763 -3.53381 0
M  V30 5682 C 523.186 -2.28216 -4.82445 0
M  V30 5683 O 523.409 -1.28288 -5.55786 0
M  V30 5684 O 522.343 -3.1709 -5.11603 0
M  V30 5685 H 526.169 -2.36159 -1.90952 0
M  V30 5686 H 523.754 -1.20194 -0.887346 0
M  V30 5687 H 525.636 -1.16395 -4.05006 0
M  V30 5688 H 524.311 -0.300121 -3.22306 0
M  V30 5689 H 523.218 -2.56325 -2.72485 0
M  V30 5690 H 524.551 -3.35808 -3.59852 0
M  V30 5691 N 526.204 0.969867 -1.24223 0
M  V30 5692 C 527.615 1.52717 -1.07399 0
M  V30 5693 C 527.966 1.92956 0.355298 0
M  V30 5694 O 527.091 1.77112 1.2434 0
M  V30 5695 C 527.686 2.77521 -1.94339 0
M  V30 5696 C 526.245 3.29615 -1.81744 0
M  V30 5697 C 525.392 2.02537 -1.89405 0
M  V30 5698 H 528.343 0.788399 -1.37732 0
M  V30 5699 H 528.364 3.50773 -1.47439 0
M  V30 5700 H 527.876 2.48203 -2.98357 0
M  V30 5701 H 525.977 3.63789 -0.805505 0
M  V30 5702 H 526.09 3.98661 -2.65718 0
M  V30 5703 H 524.454 2.17151 -1.33108 0
M  V30 5704 H 525.237 1.75587 -2.94999 0
M  V30 5705 N 527.682 1.05563 1.17022 0
M  V30 5706 C 529.098 0.777684 1.39371 0
M  V30 5707 C 529.298 -0.626269 1.91521 0
M  V30 5708 O 528.354 -1.38806 2.10924 0
M  V30 5709 C 529.667 1.83642 2.3811 0
M  V30 5710 C 531.215 1.85907 2.51809 0
M  V30 5711 C 531.69 2.90813 3.53824 0
M  V30 5712 N 533.181 2.898 3.61345 0
M  V30 5713 C 533.916 3.6762 4.40049 0
M  V30 5714 N 533.412 4.55237 5.22237 0
M  V30 5715 N 535.205 3.56044 4.34959 0
M  V30 5716 H 527.356 1.9614 0.815047 0
M  V30 5717 H 529.619 0.849527 0.420722 0
M  V30 5718 H 529.325 2.84425 2.06871 0
M  V30 5719 H 529.199 1.6812 3.37662 0
M  V30 5720 H 531.586 0.857865 2.82356 0
M  V30 5721 H 531.667 2.05506 1.52318 0
M  V30 5722 H 531.311 3.91122 3.24015 0
M  V30 5723 H 531.241 2.68465 4.53028 0
M  V30 5724 H 533.732 2.26274 3.02669 0
M  V30 5725 H 534.045 5.11291 5.79484 0
M  V30 5726 H 532.39 4.59296 5.21605 0
M  V30 5727 H 535.581 2.86986 3.69806 0
M  V30 5728 H 535.754 4.16938 4.96051 0
M  V30 5729 N 529.16 -1.33526 0.837174 0
M  V30 5730 C 530.385 -2.0258 0.444545 0
M  V30 5731 C 530.81 -1.6258 -0.946006 0
M  V30 5732 O 530.168 -0.817548 -1.6182 0
M  V30 5733 C 530.216 -3.5605 0.571006 0
M  V30 5734 O 529.32 -4.10422 -0.403431 0
M  V30 5735 H 528.661 -0.638866 0.180958 0
M  V30 5736 H 531.191 -1.70462 1.13154 0
M  V30 5737 H 531.201 -4.05488 0.452024 0
M  V30 5738 H 529.876 -3.84509 1.58512 0
M  V30 5739 H 528.453 -3.72113 -0.242147 0
M  V30 5740 N 530.638 -0.59345 -1.46 0
M  V30 5741 C 531.548 0.135817 -2.34207 0
M  V30 5742 C 532.564 0.875008 -1.50398 0
M  V30 5743 O 533.74 0.835778 -1.83239 0
M  V30 5744 C 530.805 1.12977 -3.27776 0
M  V30 5745 C 529.866 0.394081 -4.27487 0
M  V30 5746 C 529.099 1.34068 -5.16586 0
M  V30 5747 O 529.322 2.5778 -5.08828 0
M  V30 5748 O 528.256 0.845426 -5.95933 0
M  V30 5749 H 532.082 -0.588691 -2.9794 0
M  V30 5750 H 529.667 -0.353784 -1.45151 0
M  V30 5751 H 531.549 1.70261 -3.85473 0
M  V30 5752 H 530.224 1.83556 -2.66625 0
M  V30 5753 H 529.131 -0.220869 -3.73447 0
M  V30 5754 H 530.464 -0.270939 -4.91454 0
M  V30 5755 N 532.116 1.54067 -0.331816 0
M  V30 5756 C 533.362 2.01012 0.268667 0
M  V30 5757 C 533.695 1.2195 1.51136 0
M  V30 5758 O 532.97 0.303972 1.9211 0
M  V30 5759 C 533.253 3.55158 0.59456 0
M  V30 5760 C 533.106 4.4494 -0.659409 0
M  V30 5761 C 534.425 4.16939 1.4089 0
M  V30 5762 H 531.544 0.730698 0.0961756 0
M  V30 5763 H 534.186 1.84593 -0.450031 0
M  V30 5764 H 532.336 3.6928 1.20685 0
M  V30 5765 H 534.008 4.42675 -1.29756 0
M  V30 5766 H 532.251 4.1428 -1.28665 0
M  V30 5767 H 532.922 5.50643 -0.386804 0
M  V30 5768 H 535.398 4.06443 0.891272 0
M  V30 5769 H 534.274 5.24889 1.60569 0
M  V30 5770 H 534.535 3.70798 2.40752 0
M  V30 5771 N 533.594 0.0601682 1.57485 0
M  V30 5772 C 534.84 -0.612501 1.93329 0
M  V30 5773 C 535.173 -1.6996 0.939526 0
M  V30 5774 O 534.448 -1.94472 -0.0330957 0
M  V30 5775 C 534.731 -1.20025 3.39508 0
M  V30 5776 C 534.584 -0.12059 4.49638 0
M  V30 5777 C 535.903 -2.10923 3.86264 0
M  V30 5778 H 533.022 -0.221185 0.703027 0
M  V30 5779 H 535.664 0.123768 1.89596 0
M  V30 5780 H 533.814 -1.82774 3.42821 0
M  V30 5781 H 535.486 0.51185 4.58452 0
M  V30 5782 H 533.729 0.550251 4.30296 0
M  V30 5783 H 534.4 -0.572019 5.49028 0
M  V30 5784 H 536.876 -1.58124 3.84884 0
M  V30 5785 H 535.752 -2.48987 4.8918 0
M  V30 5786 H 536.013 -3.01292 3.23536 0
M  V30 5787 N 535.072 -1.5615 -0.213296 0
M  V30 5788 C 536.483 -1.69645 -0.779582 0
M  V30 5789 C 536.834 -0.663615 -1.84636 0
M  V30 5790 O 535.959 0.183633 -2.15619 0
M  V30 5791 C 536.554 -3.07567 -1.42084 0
M  V30 5792 C 535.113 -3.22889 -1.93442 0
M  V30 5793 C 534.26 -2.65581 -0.797612 0
M  V30 5794 H 537.211 -1.58696 0.0114951 0
M  V30 5795 H 537.232 -3.03884 -2.28986 0
M  V30 5796 H 536.744 -3.82716 -0.644187 0
M  V30 5797 H 534.845 -2.52623 -2.73884 0
M  V30 5798 H 534.958 -4.30197 -2.10872 0
M  V30 5799 H 533.322 -2.24278 -1.20712 0
M  V30 5800 H 534.105 -3.43284 -0.033494 0
M  V30 5801 N 536.55 0.480323 -1.50102 0
M  V30 5802 C 537.513 1.56181 -1.6775 0
M  V30 5803 C 538.513 1.51156 -0.548503 0
M  V30 5804 O 539.703 1.5394 -0.815363 0
M  V30 5805 C 536.835 2.95823 -1.69415 0
M  V30 5806 H 538.028 1.41855 -2.6423 0
M  V30 5807 H 535.581 0.70605 -1.39444 0
M  V30 5808 H 536.316 3.15604 -0.745948 0
M  V30 5809 H 536.101 3.00878 -2.51425 0
M  V30 5810 H 537.591 3.74359 -1.85054 0
M  V30 5811 N 538.028 1.39524 0.732853 0
M  V30 5812 C 539.444 1.21176 1.03868 0
M  V30 5813 C 539.644 0.0748448 2.01361 0
M  V30 5814 O 538.7 -0.57281 2.45917 0
M  V30 5815 C 540.013 2.54667 1.59892 0
M  V30 5816 C 541.561 2.6153 1.71962 0
M  V30 5817 C 542.036 3.95248 2.31394 0
M  V30 5818 N 543.527 3.96899 2.38801 0
M  V30 5819 C 544.262 4.97138 2.85729 0
M  V30 5820 N 543.758 6.07775 3.32537 0
M  V30 5821 N 545.551 4.84516 2.84957 0
M  V30 5822 H 537.702 2.12225 0.086304 0
M  V30 5823 H 539.965 0.942614 0.100907 0
M  V30 5824 H 539.671 3.38423 0.95721 0
M  V30 5825 H 539.545 2.74538 2.58668 0
M  V30 5826 H 541.932 1.78156 2.35254 0
M  V30 5827 H 542.013 2.45507 0.718327 0
M  V30 5828 H 541.657 4.79054 1.68729 0
M  V30 5829 H 541.587 4.08593 3.32204 0
M  V30 5830 H 544.078 3.16998 2.05719 0
M  V30 5831 H 544.391 6.8017 3.66862 0
M  V30 5832 H 542.736 6.11366 3.30541 0
M  V30 5833 H 545.927 3.97185 2.47713 0
M  V30 5834 H 546.1 5.62783 3.21215 0
M  V30 5835 N 539.506 -0.963266 1.24736 0
M  V30 5836 C 540.436 -2.07628 1.06832 0
M  V30 5837 C 541.417 -1.70088 -0.0200566 0
M  V30 5838 O 542.602 -1.93636 0.147854 0
M  V30 5839 C 539.732 -3.40636 0.677069 0
M  V30 5840 C 538.686 -3.9215 1.71471 0
M  V30 5841 C 538.012 -5.21553 1.1784 0
M  V30 5842 C 539.312 -4.19493 3.11164 0
M  V30 5843 H 541.006 -2.22864 1.9993 0
M  V30 5844 H 538.552 -1.07093 0.96266 0
M  V30 5845 H 540.505 -4.17941 0.538792 0
M  V30 5846 H 539.229 -3.25313 -0.289612 0
M  V30 5847 H 537.888 -3.17005 1.84128 0
M  V30 5848 H 537.536 -5.02593 0.202195 0
M  V30 5849 H 537.236 -5.56988 1.87185 0
M  V30 5850 H 538.76 -6.01463 1.05233 0
M  V30 5851 H 540.174 -4.87487 3.01711 0
M  V30 5852 H 538.571 -4.66165 3.77902 0
M  V30 5853 H 539.641 -3.26097 3.58871 0
M  V30 5854 N 540.985 -1.06182 -1.16461 0
M  V30 5855 C 541.932 -0.671613 -2.20812 0
M  V30 5856 C 542.902 0.331186 -1.62765 0
M  V30 5857 O 544.087 0.22033 -1.89524 0
M  V30 5858 C 541.227 -0.063029 -3.45042 0
M  V30 5859 C 540.34 -1.11587 -4.1734 0
M  V30 5860 C 539.475 -0.473546 -5.29085 0
M  V30 5861 C 538.514 -1.51 -5.93182 0
M  V30 5862 N 537.651 -0.891118 -6.96422 0
M  V30 5863 H 542.491 -1.56589 -2.53542 0
M  V30 5864 H 540.028 -0.782951 -1.24532 0
M  V30 5865 H 541.986 0.307344 -4.16066 0
M  V30 5866 H 540.616 0.794663 -3.12866 0
M  V30 5867 H 539.668 -1.60396 -3.44931 0
M  V30 5868 H 540.98 -1.90221 -4.61104 0
M  V30 5869 H 540.134 -0.0501432 -6.06679 0
M  V30 5870 H 538.873 0.344687 -4.8648 0
M  V30 5871 H 537.878 -1.94331 -5.14311 0
M  V30 5872 H 539.103 -2.33031 -6.37866 0
M  V30 5873 H 537.049 -0.0935753 -6.55933 0
M  V30 5874 H 536.966 -1.61486 -7.38551 0
M  V30 5875 H 538.234 -0.492822 -7.77941 0
M  V30 5876 N 542.463 1.3308 -0.844243 0
M  V30 5877 C 543.879 1.50447 -0.532729 0
M  V30 5878 C 544.079 1.78292 0.938837 0
M  V30 5879 O 543.135 1.84635 1.72239 0
M  V30 5880 C 544.448 2.65555 -1.41072 0
M  V30 5881 C 545.996 2.7944 -1.41005 0
M  V30 5882 C 546.471 3.97616 -2.27301 0
M  V30 5883 N 547.962 4.0486 -2.2504 0
M  V30 5884 C 548.697 4.95508 -2.88547 0
M  V30 5885 N 548.193 5.91236 -3.61126 0
M  V30 5886 N 549.986 4.88548 -2.77989 0
M  V30 5887 H 542.137 1.13269 -1.79677 0
M  V30 5888 H 544.4 0.55734 -0.766861 0
M  V30 5889 H 544.106 2.51675 -2.45668 0
M  V30 5890 H 543.98 3.61089 -1.09061 0
M  V30 5891 H 546.367 2.92749 -0.371784 0
M  V30 5892 H 546.448 1.8465 -1.77026 0
M  V30 5893 H 546.092 3.85066 -3.3119 0
M  V30 5894 H 546.022 4.91661 -1.88619 0
M  V30 5895 H 548.513 3.36353 -1.72264 0
M  V30 5896 H 548.826 6.57079 -4.06776 0
M  V30 5897 H 547.171 5.91295 -3.65234 0
M  V30 5898 H 550.362 4.12729 -2.20846 0
M  V30 5899 H 550.535 5.58994 -3.27765 0
M  V30 5900 N 543.941 0.601185 1.45683 0
M  V30 5901 C 544.904 -0.111398 2.28929 0
M  V30 5902 C 545.904 -0.801246 1.39416 0
M  V30 5903 O 547.094 -0.650383 1.61603 0
M  V30 5904 C 544.226 -1.16773 3.20276 0
M  V30 5905 H 545.419 0.620412 2.93413 0
M  V30 5906 H 542.972 0.359946 1.52099 0
M  V30 5907 H 543.707 -1.93051 2.60579 0
M  V30 5908 H 543.492 -0.677358 3.86205 0
M  V30 5909 H 544.982 -1.66698 3.82886 0
M  V30 5910 N 545.419 -1.53889 0.339982 0
M  V30 5911 C 546.644 -2.05741 -0.261798 0
M  V30 5912 C 547.069 -1.21354 -1.43718 0
M  V30 5913 O 546.427 -0.22645 -1.7988 0
M  V30 5914 C 546.475 -3.54542 -0.658228 0
M  V30 5915 O 545.579 -3.7302 -1.75869 0
M  V30 5916 H 544.92 -0.662529 -0.0441672 0
M  V30 5917 H 547.45 -1.98568 0.493161 0
M  V30 5918 H 547.46 -3.9711 -0.936368 0
M  V30 5919 H 546.135 -4.15412 0.201358 0
M  V30 5920 H 544.712 -3.42355 -1.47809 0
M  V30 5921 N 546.897 -0.0685191 -1.57451 0
M  V30 5922 C 547.86 0.885173 -2.11417 0
M  V30 5923 C 548.86 1.22853 -1.03748 0
M  V30 5924 O 550.05 1.16235 -1.2975 0
M  V30 5925 C 547.182 2.18964 -2.61281 0
M  V30 5926 H 548.375 0.417034 -2.96986 0
M  V30 5927 H 545.928 0.18014 -1.55258 0
M  V30 5928 H 546.663 2.70321 -1.79156 0
M  V30 5929 H 546.448 1.9534 -3.39977 0
M  V30 5930 H 547.938 2.87242 -3.0312 0
M  V30 5931 N 548.375 1.56261 0.205012 0
M  V30 5932 C 549.786 1.70056 0.770574 0
M  V30 5933 C 550.137 0.673398 1.84282 0
M  V30 5934 O 549.262 -0.172196 2.15714 0
M  V30 5935 C 549.857 3.08316 1.40451 0
M  V30 5936 C 548.416 3.2391 1.91727 0
M  V30 5937 C 547.563 2.66001 0.783516 0
M  V30 5938 H 550.514 1.58688 -0.019911 0
M  V30 5939 H 550.535 3.05094 2.27371 0
M  V30 5940 H 550.047 3.83053 0.623882 0
M  V30 5941 H 548.148 2.54072 2.7254 0
M  V30 5942 H 548.261 4.3131 2.08588 0
M  V30 5943 H 546.625 2.24915 1.19521 0
M  V30 5944 H 547.408 3.43297 0.0152883 0
M  V30 5945 N 549.853 -0.472356 1.50355 0
M  V30 5946 C 551.081 -1.24784 1.65035 0
M  V30 5947 C 551.496 -1.85837 0.333176 0
M  V30 5948 O 550.853 -1.69168 -0.68472 0
M  V30 5949 C 550.904 -2.35747 2.74054 0
M  V30 5950 O 550.625 -1.77197 4.00665 0
M  V30 5951 C 552.126 -3.26645 2.99696 0
M  V30 5952 H 549.346 -0.377432 0.554785 0
M  V30 5953 H 551.89 -0.563962 1.9657 0
M  V30 5954 H 550.045 -2.99912 2.45217 0
M  V30 5955 H 550.459 -2.5026 4.60945 0
M  V30 5956 H 551.933 -4.00718 3.79644 0
M  V30 5957 H 552.41 -3.8535 2.10718 0
M  V30 5958 H 553.016 -2.68218 3.3006 0
M  V30 5959 N 551.331 -1.39911 -0.725443 0
M  V30 5960 C 552.578 -1.37654 -1.48518 0
M  V30 5961 C 552.906 0.0243982 -1.94485 0
M  V30 5962 O 552.161 1.00708 -1.67799 0
M  V30 5963 C 552.46 -2.30368 -2.7325 0
M  V30 5964 C 552.126 -3.77817 -2.461 0
M  V30 5965 C 550.788 -4.17991 -2.38405 0
M  V30 5966 C 553.14 -4.71036 -2.23103 0
M  V30 5967 C 550.468 -5.49433 -2.05768 0
M  V30 5968 C 552.82 -6.02766 -1.9198 0
M  V30 5969 C 551.484 -6.41993 -1.82761 0
M  V30 5970 H 550.754 -0.503713 -0.543465 0
M  V30 5971 H 553.401 -1.7249 -0.831822 0
M  V30 5972 H 551.706 -1.88683 -3.43375 0
M  V30 5973 H 553.403 -2.2591 -3.31309 0
M  V30 5974 H 549.993 -3.45982 -2.52972 0
M  V30 5975 H 554.177 -4.40823 -2.2801 0
M  V30 5976 H 549.433 -5.78738 -1.9716 0
M  V30 5977 H 553.607 -6.74519 -1.73197 0
M  V30 5978 H 551.234 -7.43761 -1.57237 0
M  V30 5979 N 552.809 0.956637 -1.25245 0
M  V30 5980 C 554.086 1.67716 -1.00651 0
M  V30 5981 C 554.466 2.0585 0.467866 0
M  V30 5982 O 553.814 1.77029 1.44475 0
M  V30 5983 C 554.024 2.90093 -1.94028 0
M  V30 5984 C 555.372 3.6209 -2.21756 0
M  V30 5985 O 556.396 3.00171 -1.9177 0
M  V30 5986 O 555.255 4.7358 -2.72735 0
M  V30 5987 H 552.349 0.733731 -0.381533 0
M  V30 5988 H 554.895 1.00974 -1.3639 0
M  V30 5989 H 553.667 2.58689 -2.93591 0
M  V30 5990 H 553.29 3.64566 -1.58674 0
M  V30 5991 N 554.287 1.06798 1.15896 0
M  V30 5992 C 555.235 0.677525 2.22514 0
M  V30 5993 C 556.229 -0.308994 1.66558 0
M  V30 5994 O 557.435 -0.173308 1.79164 0
M  V30 5995 H 553.81 0.200994 0.724642 0
M  V30 5996 H 555.781 1.5865 2.52731 0
M  V30 5997 C 554.53 0.0854153 3.47595 0
M  V30 5998 H 553.853 0.835645 3.90969 0
M  V30 5999 H 555.293 -0.150199 4.23734 0
M  V30 6000 C 553.752 -1.1724 3.15843 0
M  V30 6001 O 554.282 -2.25965 3.32119 0
M  V30 6002 N 552.488 -1.07636 2.69931 0
M  V30 6003 H 552.035 -0.191559 2.56887 0
M  V30 6004 H 551.993 -1.91876 2.4906 0
M  V30 6005 N 555.766 -1.3263 0.851289 0
M  V30 6006 C 557.043 -1.91982 0.374448 0
M  V30 6007 C 557.423 -1.77568 -1.14161 0
M  V30 6008 O 556.771 -1.1717 -1.96172 0
M  V30 6009 C 556.981 -3.38862 0.835088 0
M  V30 6010 C 558.329 -4.15999 0.850309 0
M  V30 6011 O 559.353 -3.47566 0.779505 0
M  V30 6012 O 558.212 -5.38189 0.949481 0
M  V30 6013 H 555.306 -0.819846 0.10854 0
M  V30 6014 H 557.852 -1.41422 0.937966 0
M  V30 6015 H 556.624 -3.43281 1.87814 0
M  V30 6016 H 556.247 -3.96821 0.248833 0
M  V30 6017 N 557.244 -0.608902 -1.45362 0
M  V30 6018 C 558.474 -0.110852 -2.06302 0
M  V30 6019 C 558.882 1.21062 -1.45398 0
M  V30 6020 O 558.225 1.74861 -0.562976 0
M  V30 6021 C 558.287 0.101793 -3.59356 0
M  V30 6022 C 557.951 -1.13808 -4.42602 0
M  V30 6023 C 558.948 -2.05653 -4.77496 0
M  V30 6024 C 556.633 -1.36727 -4.83333 0
M  V30 6025 C 558.627 -3.18745 -5.51978 0
M  V30 6026 C 556.314 -2.5012 -5.57569 0
M  V30 6027 C 557.312 -3.40957 -5.91809 0
M  V30 6028 O 557 -4.52376 -6.64538 0
M  V30 6029 H 556.732 -0.0666001 -0.672711 0
M  V30 6030 H 559.286 -0.836942 -1.87575 0
M  V30 6031 H 557.516 0.88279 -3.76489 0
M  V30 6032 H 559.205 0.551607 -4.02134 0
M  V30 6033 H 559.971 -1.89172 -4.46586 0
M  V30 6034 H 555.85 -0.669216 -4.56117 0
M  V30 6035 H 559.394 -3.8967 -5.78622 0
M  V30 6036 H 555.291 -2.66553 -5.87894 0
M  V30 6037 H 556.059 -4.51075 -6.82989 0
M  V30 6038 N 558.722 1.53707 -0.348139 0
M  V30 6039 C 559.947 2.05877 0.250883 0
M  V30 6040 C 560.372 1.22115 1.43072 0
M  V30 6041 O 559.73 0.235986 1.79758 0
M  V30 6042 C 559.778 3.54886 0.639416 0
M  V30 6043 O 558.882 3.73948 1.73888 0
M  V30 6044 H 558.223 0.662754 0.040653 0
M  V30 6045 H 560.753 1.98303 -0.503685 0
M  V30 6046 H 560.763 3.97601 0.915295 0
M  V30 6047 H 559.438 4.153 -0.223386 0
M  V30 6048 H 558.015 3.43134 1.45991 0
M  V30 6049 N 560.2 0.0768682 1.57412 0
M  V30 6050 C 561.13 -0.886026 2.16037 0
M  V30 6051 C 562.111 -1.30691 1.08876 0
M  V30 6052 O 563.296 -1.37705 1.36934 0
M  V30 6053 C 560.426 -2.1518 2.72608 0
M  V30 6054 C 559.38 -1.87015 3.8498 0
M  V30 6055 C 558.706 -3.20266 4.28175 0
M  V30 6056 C 560.006 -1.17143 5.08994 0
M  V30 6057 H 561.7 -0.397642 2.96748 0
M  V30 6058 H 559.246 -0.189823 1.42743 0
M  V30 6059 H 561.199 -2.82962 3.12266 0
M  V30 6060 H 559.923 -2.66269 1.89125 0
M  V30 6061 H 558.582 -1.21636 3.45833 0
M  V30 6062 H 558.23 -3.69207 3.41607 0
M  V30 6063 H 557.93 -3.0221 5.03927 0
M  V30 6064 H 559.454 -3.89237 4.70454 0
M  V30 6065 H 560.868 -1.75003 5.45937 0
M  V30 6066 H 559.265 -1.09328 5.90057 0
M  V30 6067 H 560.335 -0.151295 4.84664 0
M  V30 6068 N 561.678 -1.56367 -0.196722 0
M  V30 6069 C 562.903 -1.84991 -0.937714 0
M  V30 6070 C 563.328 -0.660244 -1.76132 0
M  V30 6071 O 562.686 0.390967 -1.77034 0
M  V30 6072 C 562.734 -3.11828 -1.81096 0
M  V30 6073 O 561.838 -2.92266 -2.90955 0
M  V30 6074 H 561.179 -0.609193 -0.264159 0
M  V30 6075 H 563.709 -2.03595 -0.202529 0
M  V30 6076 H 563.719 -3.42579 -2.21594 0
M  V30 6077 H 562.394 -3.98037 -1.2058 0
M  V30 6078 H 560.971 -2.72809 -2.54224 0
M  V30 6079 N 563.156 0.464375 -1.50603 0
M  V30 6080 C 564.066 1.58723 -1.72754 0
M  V30 6081 C 565.082 1.62925 -0.610844 0
M  V30 6082 O 566.258 1.8067 -0.889963 0
M  V30 6083 C 563.323 2.94897 -1.82309 0
M  V30 6084 C 562.384 3.0103 -3.06071 0
M  V30 6085 C 561.617 4.30708 -3.1516 0
M  V30 6086 O 561.84 5.2159 -2.30868 0
M  V30 6087 O 560.774 4.42571 -4.0794 0
M  V30 6088 H 564.6 1.42954 -2.67951 0
M  V30 6089 H 562.185 0.644579 -1.3478 0
M  V30 6090 H 564.067 3.75764 -1.90735 0
M  V30 6091 H 562.742 3.10851 -0.902967 0
M  V30 6092 H 561.649 2.19217 -3.03142 0
M  V30 6093 H 562.982 2.90014 -3.97684 0
M  V30 6094 N 564.634 1.40294 0.718013 0
M  V30 6095 C 565.564 1.43118 1.84498 0
M  V30 6096 C 566.545 0.292403 1.67568 0
M  V30 6097 O 567.73 0.500675 1.87635 0
M  V30 6098 C 564.86 1.29065 3.22427 0
M  V30 6099 C 563.814 2.40521 3.54025 0
M  V30 6100 C 563.14 2.11546 4.91073 0
M  V30 6101 C 564.44 3.82859 3.55269 0
M  V30 6102 H 566.134 2.37432 1.82391 0
M  V30 6103 H 563.68 1.14283 0.87609 0
M  V30 6104 H 565.633 1.29658 4.00957 0
M  V30 6105 H 564.357 0.312271 3.25104 0
M  V30 6106 H 563.016 2.39173 2.77834 0
M  V30 6107 H 562.664 1.12104 4.90348 0
M  V30 6108 H 562.364 2.86216 5.1318 0
M  V30 6109 H 563.888 2.13817 5.71939 0
M  V30 6110 H 565.302 3.86044 4.23843 0
M  V30 6111 H 563.699 4.57029 3.88902 0
M  V30 6112 H 564.769 4.12617 2.54706 0
M  V30 6113 N 566.112 -0.949982 1.2575 0
M  V30 6114 C 567.042 -2.06483 1.09028 0
M  V30 6115 C 568.023 -1.701 -0.00201532 0
M  V30 6116 O 569.208 -1.93469 0.168383 0
M  V30 6117 C 566.338 -3.39899 0.71316 0
M  V30 6118 C 565.292 -3.90309 1.75621 0
M  V30 6119 C 564.618 -5.20274 1.23365 0
M  V30 6120 C 565.918 -4.16169 3.15596 0
M  V30 6121 H 567.612 -2.20731 2.02283 0
M  V30 6122 H 565.158 -1.06066 0.973964 0
M  V30 6123 H 567.111 -4.17346 0.58309 0
M  V30 6124 H 565.835 -3.25602 -0.255091 0
M  V30 6125 H 564.494 -3.15035 1.8748 0
M  V30 6126 H 564.142 -5.02351 0.255491 0
M  V30 6127 H 563.842 -5.54971 1.93082 0
M  V30 6128 H 565.366 -6.00314 1.11607 0
M  V30 6129 H 566.78 -4.84259 3.06864 0
M  V30 6130 H 565.177 -4.62131 3.82825 0
M  V30 6131 H 566.247 -3.22273 3.6231 0
M  V30 6132 N 567.59 -1.07411 -1.15328 0
M  V30 6133 C 568.815 -0.818856 -1.90551 0
M  V30 6134 C 569.24 0.622194 -1.77512 0
M  V30 6135 O 568.598 1.43484 -1.10824 0
M  V30 6136 C 568.646 -1.23267 -3.38877 0
M  V30 6137 O 567.75 -0.378345 -4.10661 0
M  V30 6138 H 567.091 -0.29827 -0.593238 0
M  V30 6139 H 569.621 -1.43289 -1.46046 0
M  V30 6140 H 569.631 -1.20912 -3.89672 0
M  V30 6141 H 568.306 -2.28226 -3.47686 0
M  V30 6142 H 566.883 -0.464437 -3.69996 0
M  V30 6143 N 569.068 1.32177 -0.85831 0
M  V30 6144 C 570 2.27688 -0.262835 0
M  V30 6145 C 571.013 1.52588 0.567513 0
M  V30 6146 O 572.202 1.74156 0.391407 0
M  V30 6147 C 569.302 3.32668 0.646937 0
M  V30 6148 C 568.475 4.37148 -0.148372 0
M  V30 6149 C 567.534 5.21686 0.687728 0
M  V30 6150 O 566.56 5.69074 0.119934 0
M  V30 6151 N 567.762 5.44892 2.00182 0
M  V30 6152 H 570.527 2.79426 -1.08356 0
M  V30 6153 H 568.088 1.45076 -0.718647 0
M  V30 6154 H 570.08 3.86134 1.2117 0
M  V30 6155 H 568.65 2.81061 1.36834 0
M  V30 6156 H 567.87 3.83915 -0.894572 0
M  V30 6157 H 569.158 5.04038 -0.694514 0
M  V30 6158 H 568.556 5.08128 2.4864 0
M  V30 6159 H 567.113 6.0134 2.51463 0
M  V30 6160 N 570.547 0.616602 1.45037 0
M  V30 6161 C 571.477 -0.0840787 2.33349 0
M  V30 6162 C 572.458 -0.849641 1.4736 0
M  V30 6163 O 573.643 -0.818407 1.76113 0
M  V30 6164 C 570.773 -1.07604 3.3021 0
M  V30 6165 C 569.727 -0.423096 4.25904 0
M  V30 6166 C 569.053 -1.52394 5.12523 0
M  V30 6167 C 570.353 0.661457 5.18095 0
M  V30 6168 H 572.047 0.653333 2.92185 0
M  V30 6169 H 569.593 0.315634 1.40498 0
M  V30 6170 H 571.546 -1.57485 3.90866 0
M  V30 6171 H 570.27 -1.84416 2.69552 0
M  V30 6172 H 568.929 0.05493 3.66559 0
M  V30 6173 H 568.577 -2.28257 4.48227 0
M  V30 6174 H 568.277 -1.09251 5.77354 0
M  V30 6175 H 569.801 -2.02485 5.76049 0
M  V30 6176 H 571.215 0.246353 5.7277 0
M  V30 6177 H 569.612 1.01517 5.91451 0
M  V30 6178 H 570.682 1.53446 4.59981 0
M  V30 6179 N 572.025 -1.5352 0.356285 0
M  V30 6180 C 573.302 -1.93405 -0.292223 0
M  V30 6181 C 573.682 -1.28901 -1.67176 0
M  V30 6182 O 573.03 -0.444632 -2.24132 0
M  V30 6183 C 573.24 -3.47223 -0.35175 0
M  V30 6184 C 574.588 -4.20389 -0.596534 0
M  V30 6185 O 575.612 -3.53554 -0.433344 0
M  V30 6186 O 574.471 -5.3881 -0.913589 0
M  V30 6187 H 571.565 -0.808666 -0.173172 0
M  V30 6188 H 574.111 -1.64713 0.408391 0
M  V30 6189 H 572.883 -3.86423 0.615841 0
M  V30 6190 H 572.506 -3.8212 -1.09864 0
M  V30 6191 N 573.503 -0.0852151 -1.57369 0
M  V30 6192 C 574.728 0.592872 -1.98746 0
M  V30 6193 C 575.153 1.61538 -0.963689 0
M  V30 6194 O 574.511 1.81168 0.069071 0
M  V30 6195 C 574.559 1.22599 -3.39119 0
M  V30 6196 O 573.663 2.34185 -3.39457 0
M  V30 6197 H 573.004 0.151314 -0.646529 0
M  V30 6198 H 575.534 -0.163703 -2.03944 0
M  V30 6199 H 575.544 1.56965 -3.76598 0
M  V30 6200 H 574.219 0.476831 -4.13158 0
M  V30 6201 H 572.796 2.01512 -3.13763 0
M  V30 6202 N 574.981 1.5647 0.188427 0
M  V30 6203 C 576.229 1.80655 0.905986 0
M  V30 6204 C 576.55 0.659391 1.83513 0
M  V30 6205 O 575.82 -0.321868 1.93238 0
M  V30 6206 H 574.4 0.666391 0.337538 0
M  V30 6207 H 577.062 1.93949 0.192339 0
M  V30 6208 H 576.158 2.74066 1.49313 0
M  V30 6209 N 576.459 -0.456382 1.50847 0
M  V30 6210 C 577.705 -1.20914 1.62811 0
M  V30 6211 C 578.038 -1.91301 0.334304 0
M  V30 6212 O 577.313 -1.82775 -0.665098 0
M  V30 6213 C 577.596 -2.24122 2.81853 0
M  V30 6214 C 577.449 -1.57944 4.21158 0
M  V30 6215 C 578.768 -3.25295 2.96431 0
M  V30 6216 H 575.887 -0.438233 0.592554 0
M  V30 6217 H 578.529 -0.50091 1.83278 0
M  V30 6218 H 576.679 -2.84524 2.64534 0
M  V30 6219 H 578.351 -1.01025 4.50102 0
M  V30 6220 H 576.594 -0.882185 4.24735 0
M  V30 6221 H 577.265 -2.33014 5.00408 0
M  V30 6222 H 579.741 -2.7493 3.12335 0
M  V30 6223 H 578.617 -3.94822 3.81322 0
M  V30 6224 H 578.878 -3.90286 2.07676 0
M  V30 6225 N 577.937 -1.40673 -0.710563 0
M  V30 6226 C 579.162 -1.42741 -1.50465 0
M  V30 6227 C 579.587 -0.0302116 -1.88076 0
M  V30 6228 O 578.945 0.962945 -1.53613 0
M  V30 6229 C 578.993 -2.32873 -2.75322 0
M  V30 6230 O 578.097 -1.77544 -3.72226 0
M  V30 6231 H 577.438 -0.485056 -0.45345 0
M  V30 6232 H 579.968 -1.84961 -0.874681 0
M  V30 6233 H 579.978 -2.48233 -3.23797 0
M  V30 6234 H 578.653 -3.34401 -2.47283 0
M  V30 6235 H 577.23 -1.71556 -3.31093 0
M  V30 6236 N 579.415 0.9433 -1.26252 0
M  V30 6237 C 580.347 2.04542 -1.03417 0
M  V30 6238 C 581.36 1.62799 0.0046911 0
M  V30 6239 O 582.549 1.76944 -0.235146 0
M  V30 6240 C 579.649 3.34511 -0.543671 0
M  V30 6241 C 578.822 4.05033 -1.65128 0
M  V30 6242 C 577.881 5.13273 -1.1592 0
M  V30 6243 O 576.907 5.38095 -1.85586 0
M  V30 6244 N 578.109 5.805 -0.00649279 0
M  V30 6245 H 580.874 2.24699 -1.98319 0
M  V30 6246 H 578.435 1.11264 -1.1761 0
M  V30 6247 H 580.427 4.04212 -0.198703 0
M  V30 6248 H 578.997 3.11042 0.311711 0
M  V30 6249 H 578.217 3.29275 -2.16729 0
M  V30 6250 H 579.505 4.48903 -2.39508 0
M  V30 6251 H 578.903 5.62767 0.575347 0
M  V30 6252 H 577.46 6.51201 0.279416 0
M  V30 6253 N 580.893 1.08022 1.14757 0
M  V30 6254 C 581.856 0.71048 2.1791 0
M  V30 6255 C 582.856 -0.252731 1.58801 0
M  V30 6256 O 584.046 -0.0327915 1.74169 0
M  V30 6257 C 581.178 0.0483203 3.40866 0
M  V30 6258 H 582.371 1.62384 2.52134 0
M  V30 6259 H 579.924 0.877595 1.29337 0
M  V30 6260 H 580.659 -0.876959 3.12218 0
M  V30 6261 H 580.444 0.741189 3.85031 0
M  V30 6262 H 581.934 -0.195471 4.17142 0
M  V30 6263 N 582.371 -1.3172 0.865308 0
M  V30 6264 C 583.617 -1.97168 0.474633 0
M  V30 6265 C 583.95 -1.68263 -0.969604 0
M  V30 6266 O 583.225 -0.976588 -1.68205 0
M  V30 6267 C 583.508 -3.52689 0.726808 0
M  V30 6268 C 583.361 -3.91185 2.22024 0
M  V30 6269 C 584.68 -4.39689 0.190201 0
M  V30 6270 H 581.799 -0.716185 0.17392 0
M  V30 6271 H 584.441 -1.55925 1.08569 0
M  V30 6272 H 582.591 -3.8795 0.206705 0
M  V30 6273 H 584.263 -3.66049 2.80724 0
M  V30 6274 H 582.506 -3.3996 2.69462 0
M  V30 6275 H 583.177 -4.99604 2.34735 0
M  V30 6276 H 585.653 -4.11225 0.635103 0
M  V30 6277 H 584.529 -5.47469 0.396132 0
M  V30 6278 H 584.79 -4.32683 -0.907625 0
M  V30 6279 N 583.85 -0.624285 -1.44708 0
M  V30 6280 C 584.76 0.0861083 -2.34442 0
M  V30 6281 C 585.776 0.84291 -1.5222 0
M  V30 6282 O 586.952 0.796723 -1.84971 0
M  V30 6283 C 584.017 1.05999 -3.30099 0
M  V30 6284 C 583.077 0.303316 -4.28227 0
M  V30 6285 C 582.311 1.23081 -5.19314 0
M  V30 6286 O 582.534 2.46929 -5.14181 0
M  V30 6287 O 581.468 0.71883 -5.97592 0
M  V30 6288 H 585.293 -0.651756 -2.96624 0
M  V30 6289 H 582.879 -0.384493 -1.44368 0
M  V30 6290 H 584.76 1.62046 -3.88997 0
M  V30 6291 H 583.436 1.77859 -2.70459 0
M  V30 6292 H 582.343 -0.300033 -3.72895 0
M  V30 6293 H 583.676 -0.375123 -4.90768 0
M  V30 6294 N 585.328 1.53329 -0.364422 0
M  V30 6295 C 586.576 2.00842 0.225189 0
M  V30 6296 C 586.897 1.25345 1.49378 0
M  V30 6297 O 586.167 0.366396 1.92443 0
M  V30 6298 H 584.747 0.742009 0.0862027 0
M  V30 6299 H 587.409 1.8863 -0.490389 0
M  V30 6300 H 586.505 3.08795 0.452987 0
M  V30 6301 N 586.806 0.0935595 1.57322 0
M  V30 6302 C 588.217 -0.435807 1.81542 0
M  V30 6303 C 588.568 -1.68263 1.00907 0
M  V30 6304 O 587.693 -2.15087 0.237983 0
M  V30 6305 C 588.288 -0.797436 3.29282 0
M  V30 6306 C 586.847 -1.27155 3.54272 0
M  V30 6307 C 585.994 -0.267455 2.76007 0
M  V30 6308 H 588.945 0.31902 1.5546 0
M  V30 6309 H 588.966 -1.6571 3.42521 0
M  V30 6310 H 588.478 0.110206 3.87943 0
M  V30 6311 H 586.579 -2.19696 3.00939 0
M  V30 6312 H 586.692 -1.23445 4.62923 0
M  V30 6313 H 585.056 -0.749282 2.43429 0
M  V30 6314 H 585.839 0.632839 3.37417 0
M  V30 6315 N 588.284 -1.56567 -0.180126 0
M  V30 6316 C 589.194 -1.98947 -1.24327 0
M  V30 6317 C 590.21 -0.899446 -1.4895 0
M  V30 6318 O 591.386 -1.20639 -1.61271 0
M  V30 6319 C 588.451 -2.33328 -2.56435 0
M  V30 6320 C 587.512 -3.56114 -2.39752 0
M  V30 6321 C 586.745 -3.88845 -3.65561 0
M  V30 6322 O 586.968 -3.22662 -4.70368 0
M  V30 6323 O 585.902 -4.82226 -3.60197 0
M  V30 6324 H 589.728 -2.89634 -0.913565 0
M  V30 6325 H 587.313 -1.44319 -0.386306 0
M  V30 6326 H 589.195 -2.5645 -3.34382 0
M  V30 6327 H 587.87 -1.45806 -2.89002 0
M  V30 6328 H 586.777 -3.38221 -1.59866 0
M  V30 6329 H 588.11 -4.4415 -2.12113 0
M  V30 6330 N 589.762 0.448376 -1.51087 0
M  V30 6331 C 590.672 1.56882 -1.74428 0
M  V30 6332 C 591.688 1.62268 -0.62809 0
M  V30 6333 O 592.864 1.79716 -0.909075 0
M  V30 6334 C 589.929 2.92947 -1.85426 0
M  V30 6335 C 588.99 2.97766 -3.09247 0
M  V30 6336 C 588.223 4.27341 -3.19711 0
M  V30 6337 O 588.446 5.19112 -2.36387 0
M  V30 6338 O 587.38 4.38219 -4.12611 0
M  V30 6339 H 591.206 1.40104 -2.69452 0
M  V30 6340 H 588.791 0.630247 -1.35456 0
M  V30 6341 H 590.673 3.73719 -1.94709 0
M  V30 6342 H 589.348 3.09876 -0.935887 0
M  V30 6343 H 588.255 2.15989 -3.0545 0
M  V30 6344 H 589.588 2.8578 -4.00738 0
M  V30 6345 N 591.24 1.41047 0.703093 0
M  V30 6346 C 592.17 1.45067 1.82969 0
M  V30 6347 C 593.151 0.31016 1.67248 0
M  V30 6348 O 594.336 0.520548 1.87093 0
M  V30 6349 C 591.466 1.32478 3.2104 0
M  V30 6350 C 590.42 2.44262 3.51454 0
M  V30 6351 C 589.746 2.16742 4.88801 0
M  V30 6352 C 591.046 3.86606 3.51189 0
M  V30 6353 H 592.74 2.39353 1.79863 0
M  V30 6354 H 590.286 1.15206 0.863919 0
M  V30 6355 H 592.239 1.33904 3.99559 0
M  V30 6356 H 590.963 0.346735 3.24754 0
M  V30 6357 H 589.622 2.42107 2.75282 0
M  V30 6358 H 589.27 1.17299 4.89132 0
M  V30 6359 H 588.97 2.91643 5.10116 0
M  V30 6360 H 590.494 2.19872 5.69639 0
M  V30 6361 H 591.908 3.90517 4.19725 0
M  V30 6362 H 590.305 4.61128 3.84033 0
M  V30 6363 H 591.375 4.15296 2.50315 0
M  V30 6364 N 592.718 -0.936591 1.26751 0
M  V30 6365 C 593.943 -1.72288 1.15462 0
M  V30 6366 C 594.368 -1.85915 -0.285887 0
M  V30 6367 O 593.726 -1.35272 -1.20711 0
M  V30 6368 C 593.774 -3.10503 1.83359 0
M  V30 6369 O 592.878 -3.96745 1.1255 0
M  V30 6370 H 592.219 -0.52843 0.402067 0
M  V30 6371 H 594.749 -1.17271 1.67656 0
M  V30 6372 H 594.759 -3.60867 1.90365 0
M  V30 6373 H 593.434 -2.99901 2.88153 0
M  V30 6374 H 592.011 -3.55191 1.13551 0
M  V30 6375 N 594.196 -1.08629 -1.14182 0
M  V30 6376 C 595.612 -0.814363 -1.3726 0
M  V30 6377 C 595.812 0.575271 -1.93114 0
M  V30 6378 O 594.868 1.33165 -2.1453 0
M  V30 6379 C 596.181 -1.8989 -2.33157 0
M  V30 6380 C 597.729 -1.92518 -2.46791 0
M  V30 6381 C 598.204 -3.00092 -3.45989 0
M  V30 6382 N 599.695 -2.99279 -3.53534 0
M  V30 6383 C 600.43 -3.79158 -4.30147 0
M  V30 6384 N 599.926 -4.68923 -5.09983 0
M  V30 6385 N 601.719 -3.67451 -4.25366 0
M  V30 6386 H 593.87 -1.98232 -0.762758 0
M  V30 6387 H 596.133 -0.860383 -0.398051 0
M  V30 6388 H 595.839 -2.89809 -1.99257 0
M  V30 6389 H 595.713 -1.77013 -3.33086 0
M  V30 6390 H 598.1 -0.932425 -2.79982 0
M  V30 6391 H 598.181 -2.09473 -1.46816 0
M  V30 6392 H 597.825 -3.99575 -3.13532 0
M  V30 6393 H 597.755 -2.80382 -4.45751 0
M  V30 6394 H 600.246 -2.3422 -2.96563 0
M  V30 6395 H 600.559 -5.26475 -5.65724 0
M  V30 6396 H 598.904 -4.72964 -5.09244 0
M  V30 6397 H 602.095 -2.9669 -3.62067 0
M  V30 6398 H 602.268 -4.29944 -4.84822 0
M  V30 6399 N 595.674 1.31259 -0.872281 0
M  V30 6400 C 596.899 2.0133 -0.498099 0
M  V30 6401 C 597.324 1.65031 0.902568 0
M  V30 6402 O 596.682 0.860164 1.59596 0
M  V30 6403 C 596.73 3.54411 -0.665205 0
M  V30 6404 O 595.834 4.11347 0.294473 0
M  V30 6405 H 595.175 0.633844 -0.197832 0
M  V30 6406 H 597.705 1.67402 -1.17633 0
M  V30 6407 H 597.715 4.04147 -0.559373 0
M  V30 6408 H 596.39 3.80171 -1.68651 0
M  V30 6409 H 594.967 3.72624 0.143403 0
M  V30 6410 N 597.152 0.631951 1.44375 0
M  V30 6411 C 598.377 0.142146 2.06912 0
M  V30 6412 C 598.802 -1.17456 1.4692 0
M  V30 6413 O 598.16 -1.72074 0.570975 0
M  V30 6414 C 598.208 0.0417952 3.60576 0
M  V30 6415 O 597.312 -1.00194 4.00044 0
M  V30 6416 H 596.653 0.0851491 0.658518 0
M  V30 6417 H 599.183 0.868863 1.85235 0
M  V30 6418 H 599.193 -0.148517 4.0773 0
M  V30 6419 H 597.868 1.0031 4.03622 0
M  V30 6420 H 596.445 -0.786131 3.64519 0
M  V30 6421 N 598.631 -1.53133 0.372548 0
M  V30 6422 C 599.856 -2.0625 -0.218098 0
M  V30 6423 C 600.281 -1.24375 -1.41111 0
M  V30 6424 O 599.639 -0.264554 -1.79359 0
M  V30 6425 C 599.687 -3.55858 -0.582876 0
M  V30 6426 O 598.791 -3.76667 -1.67917 0
M  V30 6427 H 598.132 -0.663317 -0.030104 0
M  V30 6428 H 600.662 -1.97477 0.535169 0
M  V30 6429 H 600.672 -3.99007 -0.851925 0
M  V30 6430 H 599.347 -4.14892 0.289428 0
M  V30 6431 H 597.924 -3.45413 -1.40513 0
M  V30 6432 N 600.109 -0.101901 -1.5727 0
M  V30 6433 C 601.019 0.868647 -2.17926 0
M  V30 6434 C 602.035 1.30527 -1.1506 0
M  V30 6435 O 603.211 1.37178 -1.47459 0
M  V30 6436 C 600.276 2.10727 -2.75309 0
M  V30 6437 C 599.337 1.7242 -3.93154 0
M  V30 6438 C 598.57 2.90377 -4.47791 0
M  V30 6439 O 598.793 4.05305 -4.01353 0
M  V30 6440 O 597.727 2.6845 -5.38719 0
M  V30 6441 H 601.553 0.382544 -3.01281 0
M  V30 6442 H 599.138 0.122812 -1.48894 0
M  V30 6443 H 601.02 2.83303 -3.11958 0
M  V30 6444 H 599.695 2.58376 -1.94996 0
M  V30 6445 H 598.602 0.970039 -3.61305 0
M  V30 6446 H 599.935 1.29528 -4.74851 0
M  V30 6447 N 601.587 1.56661 0.17182 0
M  V30 6448 C 602.812 1.86459 0.908165 0
M  V30 6449 C 603.237 0.688181 1.75059 0
M  V30 6450 O 602.595 -0.362753 1.77634 0
M  V30 6451 C 602.643 3.14669 1.76112 0
M  V30 6452 O 601.747 2.96858 2.86268 0
M  V30 6453 H 601.088 0.613318 0.254434 0
M  V30 6454 H 603.618 2.03892 0.170113 0
M  V30 6455 H 603.628 3.46061 2.16115 0
M  V30 6456 H 602.303 3.99905 1.14233 0
M  V30 6457 H 600.88 2.76819 2.49852 0
M  V30 6458 N 603.065 -0.440357 1.51323 0
M  V30 6459 C 604.012 -1.53429 1.72419 0
M  V30 6460 C 604.982 -1.56165 0.565826 0
M  V30 6461 O 606.167 -1.73222 0.799917 0
M  V30 6462 C 603.307 -2.91169 1.85242 0
M  V30 6463 C 602.42 -2.97985 3.12777 0
M  V30 6464 C 601.555 -4.26829 3.16212 0
M  V30 6465 C 600.594 -4.27501 4.38074 0
M  V30 6466 N 599.731 -5.47866 4.39076 0
M  V30 6467 H 604.571 -1.34743 2.65797 0
M  V30 6468 H 602.108 -0.654608 1.31732 0
M  V30 6469 H 604.066 -3.71087 1.90658 0
M  V30 6470 H 602.696 -3.0842 0.952744 0
M  V30 6471 H 601.748 -2.10749 3.16685 0
M  V30 6472 H 603.06 -2.94342 4.02696 0
M  V30 6473 H 602.214 -5.15118 3.20527 0
M  V30 6474 H 600.953 -4.33124 2.24176 0
M  V30 6475 H 599.958 -3.37606 4.33938 0
M  V30 6476 H 601.183 -4.22873 5.31371 0
M  V30 6477 H 599.129 -5.54887 3.49909 0
M  V30 6478 H 599.046 -5.46091 5.22801 0
M  V30 6479 H 600.314 -6.38195 4.4758 0
M  V30 6480 N 604.543 -1.41418 -0.695603 0
M  V30 6481 C 605.473 -1.46035 -1.82197 0
M  V30 6482 C 606.454 -0.319025 -1.67082 0
M  V30 6483 O 607.639 -0.530462 -1.86815 0
M  V30 6484 C 604.769 -1.34179 -3.20333 0
M  V30 6485 C 603.723 -2.46123 -3.50154 0
M  V30 6486 C 603.049 -2.19332 -4.87645 0
M  V30 6487 C 604.349 -3.88463 -3.49133 0
M  V30 6488 H 606.043 -2.40303 -1.78591 0
M  V30 6489 H 603.589 -1.15663 -0.857797 0
M  V30 6490 H 605.542 -1.36021 -3.98844 0
M  V30 6491 H 604.266 -0.363952 -3.24566 0
M  V30 6492 H 602.925 -2.43563 -2.73994 0
M  V30 6493 H 602.573 -1.19891 -4.88503 0
M  V30 6494 H 602.273 -2.94344 -5.08562 0
M  V30 6495 H 603.797 -2.22889 -5.68465 0
M  V30 6496 H 605.211 -3.92738 -4.17648 0
M  V30 6497 H 603.608 -4.63158 -3.81582 0
M  V30 6498 H 604.678 -4.16617 -2.48109 0
M  V30 6499 N 606.021 0.929856 -1.27246 0
M  V30 6500 C 607.432 1.49223 -1.12203 0
M  V30 6501 C 607.783 1.93989 0.293731 0
M  V30 6502 O 606.908 1.80978 1.18642 0
M  V30 6503 C 607.503 2.71198 -2.0307 0
M  V30 6504 C 606.062 3.23666 -1.92139 0
M  V30 6505 C 605.209 1.96409 -1.95752 0
M  V30 6506 H 608.16 0.744181 -1.4017 0
M  V30 6507 H 608.181 3.45905 -1.58524 0
M  V30 6508 H 607.693 2.38585 -3.06102 0
M  V30 6509 H 605.794 3.61042 -0.920834 0
M  V30 6510 H 605.907 3.90006 -2.78267 0
M  V30 6511 H 604.271 2.12806 -1.39949 0
M  V30 6512 H 605.054 1.66113 -3.00436 0
M  V30 6513 N 607.499 1.09233 1.13605 0
M  V30 6514 C 608.724 0.849067 1.89224 0
M  V30 6515 C 609.149 -0.593875 1.78479 0
M  V30 6516 O 608.507 -1.41703 1.13092 0
M  V30 6517 C 608.555 1.28642 3.36873 0
M  V30 6518 O 607.659 0.44363 4.10007 0
M  V30 6519 H 607 0.30767 0.588417 0
M  V30 6520 H 609.53 1.45595 1.43748 0
M  V30 6521 H 609.54 1.27096 3.87699 0
M  V30 6522 H 608.215 2.33729 3.44011 0
M  V30 6523 H 606.792 0.523241 3.69211 0
M  V30 6524 N 608.977 -1.30795 0.87923 0
M  V30 6525 C 610.202 -2.01063 0.508769 0
M  V30 6526 C 610.627 -1.65508 -0.893803 0
M  V30 6527 O 609.985 -0.868616 -1.59138 0
M  V30 6528 C 610.033 -3.54054 0.683991 0
M  V30 6529 O 609.137 -4.11498 -0.272654 0
M  V30 6530 H 608.478 -0.632786 0.201191 0
M  V30 6531 H 611.008 -1.66776 1.18519 0
M  V30 6532 H 611.018 -4.03845 0.580798 0
M  V30 6533 H 609.693 -3.79271 1.70665 0
M  V30 6534 H 608.27 -3.72695 -0.12364 0
M  V30 6535 N 610.455 -0.639598 -1.44038 0
M  V30 6536 C 611.703 -0.147188 -2.01563 0
M  V30 6537 C 612.024 1.2384 -1.50628 0
M  V30 6538 O 611.294 1.82452 -0.713316 0
M  V30 6539 H 609.874 -0.0514231 -0.745228 0
M  V30 6540 H 612.536 -0.828205 -1.76428 0
M  V30 6541 H 611.632 -0.121358 -3.11864 0
M  V30 6542 N 611.933 1.52934 -0.380664 0
M  V30 6543 C 613.158 2.06363 0.207157 0
M  V30 6544 C 613.583 1.25122 1.4045 0
M  V30 6545 O 612.941 0.274062 1.79217 0
M  V30 6546 C 612.989 3.56162 0.563996 0
M  V30 6547 O 612.093 3.77552 1.65917 0
M  V30 6548 H 611.434 0.663468 0.0265859 0
M  V30 6549 H 613.964 1.9719 -0.545635 0
M  V30 6550 H 613.974 3.99453 0.830752 0
M  V30 6551 H 612.649 4.14732 -0.311427 0
M  V30 6552 H 611.226 3.46154 1.3868 0
M  V30 6553 N 613.412 0.11024 1.57214 0
M  V30 6554 C 614.66 -0.548783 1.94506 0
M  V30 6555 C 614.981 -1.67772 0.99386 0
M  V30 6556 O 614.251 -1.9584 0.0485841 0
M  V30 6557 H 612.831 -0.205715 0.718116 0
M  V30 6558 H 615.493 0.177127 1.94093 0
M  V30 6559 H 614.589 -0.949096 2.97319 0
M  V30 6560 N 614.89 -1.56749 -0.16351 0
M  V30 6561 C 615.837 -1.97011 -1.2023 0
M  V30 6562 C 616.807 -0.835186 -1.43575 0
M  V30 6563 O 617.992 -1.09594 -1.56185 0
M  V30 6564 C 615.132 -2.34186 -2.53478 0
M  V30 6565 C 614.245 -3.60893 -2.37446 0
M  V30 6566 C 613.38 -3.87245 -3.63614 0
M  V30 6567 C 612.419 -5.07274 -3.42548 0
M  V30 6568 N 611.556 -5.29719 -4.60806 0
M  V30 6569 H 616.396 -2.85562 -0.851958 0
M  V30 6570 H 613.933 -1.41292 -0.409257 0
M  V30 6571 H 615.891 -2.53764 -3.31149 0
M  V30 6572 H 614.521 -1.48736 -2.86492 0
M  V30 6573 H 613.573 -3.49185 -1.50911 0
M  V30 6574 H 614.885 -4.48722 -2.1783 0
M  V30 6575 H 614.039 -4.07232 -4.49719 0
M  V30 6576 H 612.778 -2.97806 -3.86216 0
M  V30 6577 H 611.783 -4.87177 -2.5483 0
M  V30 6578 H 613.008 -5.98251 -3.2136 0
M  V30 6579 H 610.954 -4.43233 -4.83612 0
M  V30 6580 H 610.871 -6.11786 -4.44132 0
M  V30 6581 H 612.139 -5.54192 -5.48171 0
M  V30 6582 N 616.368 0.432326 -1.51554 0
M  V30 6583 C 617.784 0.769195 -1.39841 0
M  V30 6584 C 617.984 1.95584 -0.484675 0
M  V30 6585 O 617.04 2.52433 0.0582829 0
M  V30 6586 C 618.353 1.04487 -2.81963 0
M  V30 6587 C 619.901 1.149 -2.91148 0
M  V30 6588 C 620.376 1.45758 -4.34187 0
M  V30 6589 N 621.867 1.52671 -4.37317 0
M  V30 6590 C 622.602 1.78129 -5.4503 0
M  V30 6591 N 622.098 2.01345 -6.62897 0
M  V30 6592 N 623.891 1.79953 -5.32516 0
M  V30 6593 H 616.042 -0.349122 -2.09511 0
M  V30 6594 H 618.305 -0.0938113 -0.943347 0
M  V30 6595 H 618.011 0.24557 -3.50842 0
M  V30 6596 H 617.885 1.97119 -3.21596 0
M  V30 6597 H 620.272 1.93891 -2.22464 0
M  V30 6598 H 620.353 0.201568 -2.55005 0
M  V30 6599 H 619.997 0.672917 -5.03423 0
M  V30 6600 H 619.927 2.41715 -4.67848 0
M  V30 6601 H 622.418 1.36612 -3.52343 0
M  V30 6602 H 622.731 2.20155 -7.40778 0
M  V30 6603 H 621.076 1.98657 -6.66003 0
M  V30 6604 H 624.267 1.61337 -4.39418 0
M  V30 6605 H 624.44 1.99455 -6.1654 0
M  V30 6606 N 617.846 1.41785 0.688094 0
M  V30 6607 C 618.776 1.47 1.8142 0
M  V30 6608 C 619.757 0.327881 1.6691 0
M  V30 6609 O 620.942 0.540362 1.86531 0
M  V30 6610 C 618.072 1.35876 3.19617 0
M  V30 6611 C 617.026 2.47976 3.48844 0
M  V30 6612 C 616.352 2.21915 4.86475 0
M  V30 6613 C 617.652 3.90309 3.47068 0
M  V30 6614 H 619.346 2.41247 1.77314 0
M  V30 6615 H 616.892 1.16116 0.851651 0
M  V30 6616 H 618.845 1.38134 3.98117 0
M  V30 6617 H 617.569 0.38116 3.24368 0
M  V30 6618 H 616.228 2.45013 2.72698 0
M  V30 6619 H 615.876 1.2248 4.8786 0
M  V30 6620 H 615.576 2.97037 5.06994 0
M  V30 6621 H 617.1 2.25901 5.67275 0
M  V30 6622 H 618.514 3.94947 4.1556 0
M  V30 6623 H 616.911 4.65175 3.7912 0
M  V30 6624 H 617.981 4.17927 2.45896 0
M  V30 6625 N 619.324 -0.923095 1.27737 0
M  V30 6626 C 620.549 -1.71054 1.17283 0
M  V30 6627 C 620.974 -1.86208 -0.266153 0
M  V30 6628 O 620.332 -1.36545 -1.1927 0
M  V30 6629 C 620.38 -3.0854 1.86642 0
M  V30 6630 O 619.484 -3.95528 1.16752 0
M  V30 6631 H 618.825 -0.524136 0.407649 0
M  V30 6632 H 621.355 -1.15487 1.6889 0
M  V30 6633 H 621.365 -3.58828 1.94182 0
M  V30 6634 H 620.04 -2.96828 2.91317 0
M  V30 6635 H 618.617 -3.53967 1.17312 0
M  V30 6636 N 620.802 -1.09834 -1.13024 0
M  V30 6637 C 622.05 -0.835297 -1.8403 0
M  V30 6638 C 622.371 0.640944 -1.84165 0
M  V30 6639 O 621.641 1.46517 -1.30037 0
M  V30 6640 H 620.221 -0.306018 -0.681441 0
M  V30 6641 H 622.883 -1.38734 -1.36891 0
M  V30 6642 H 621.979 -1.19258 -2.88416 0
M  V30 6643 N 622.28 1.30327 -0.886154 0
M  V30 6644 C 623.526 1.96388 -0.505941 0
M  V30 6645 C 623.859 1.69784 0.942712 0
M  V30 6646 O 623.134 1.00322 1.6663 0
M  V30 6647 C 623.417 3.51488 -0.782826 0
M  V30 6648 C 623.27 3.87603 -2.28219 0
M  V30 6649 C 624.589 4.39331 -0.260128 0
M  V30 6650 H 621.708 0.713327 -0.185292 0
M  V30 6651 H 624.35 1.54178 -1.11036 0
M  V30 6652 H 622.5 3.87572 -0.268399 0
M  V30 6653 H 624.172 3.61537 -2.86512 0
M  V30 6654 H 622.415 3.3563 -2.74837 0
M  V30 6655 H 623.086 4.95806 -2.42653 0
M  V30 6656 H 625.562 4.10162 -0.700444 0
M  V30 6657 H 624.438 5.46769 -0.483179 0
M  V30 6658 H 624.699 4.34072 0.838674 0
M  V30 6659 N 623.758 0.647228 1.43697 0
M  V30 6660 C 624.983 0.164083 2.0675 0
M  V30 6661 C 625.408 -1.15892 1.48158 0
M  V30 6662 O 624.766 -1.71459 0.589194 0
M  V30 6663 C 624.814 0.0800368 3.60511 0
M  V30 6664 O 623.918 -0.959453 4.01084 0
M  V30 6665 H 623.259 0.0921288 0.657578 0
M  V30 6666 H 625.789 0.88846 1.84303 0
M  V30 6667 H 625.799 -0.105263 4.07864 0
M  V30 6668 H 624.474 1.04586 4.02535 0
M  V30 6669 H 623.051 -0.747425 3.65333 0
M  V30 6670 N 625.236 -1.5273 0.388769 0
M  V30 6671 C 626.461 -2.0647 -0.19621 0
M  V30 6672 C 626.886 -1.25865 -1.39784 0
M  V30 6673 O 626.244 -0.283562 -1.79069 0
M  V30 6674 C 626.292 -3.56456 -0.5451 0
M  V30 6675 O 625.396 -3.78426 -1.63912 0
M  V30 6676 H 624.737 -0.663599 -0.023067 0
M  V30 6677 H 627.267 -1.96898 0.556084 0
M  V30 6678 H 627.277 -3.99888 -0.809557 0
M  V30 6679 H 625.952 -4.14561 0.333417 0
M  V30 6680 H 624.529 -3.46884 -1.36842 0
M  V30 6681 N 626.714 -0.118576 -1.57153 0
M  V30 6682 C 627.96 0.540326 -1.95469 0
M  V30 6683 C 628.293 1.66356 -1.00196 0
M  V30 6684 O 627.568 1.94461 -0.039104 0
M  V30 6685 C 627.851 1.07342 -3.43729 0
M  V30 6686 C 627.704 -0.0463732 -4.49776 0
M  V30 6687 C 629.023 1.96442 -3.93826 0
M  V30 6688 H 626.142 0.19494 -0.710751 0
M  V30 6689 H 628.784 -0.19405 -1.89006 0
M  V30 6690 H 626.934 1.69925 -3.49368 0
M  V30 6691 H 628.606 -0.681648 -4.56236 0
M  V30 6692 H 626.849 -0.709574 -4.27957 0
M  V30 6693 H 627.52 0.367856 -5.50773 0
M  V30 6694 H 629.996 1.43731 -3.90488 0
M  V30 6695 H 628.872 2.3066 -4.98084 0
M  V30 6696 H 629.133 2.89077 -3.34495 0
M  V30 6697 N 628.193 1.56834 0.155195 0
M  V30 6698 C 629.47 1.73799 0.897395 0
M  V30 6699 C 629.85 0.684379 1.99698 0
M  V30 6700 O 629.198 -0.298111 2.26547 0
M  V30 6701 C 629.408 3.17572 1.44737 0
M  V30 6702 C 630.756 3.79014 1.91399 0
M  V30 6703 O 631.78 3.20951 1.54496 0
M  V30 6704 O 630.639 4.80998 2.59429 0
M  V30 6705 H 627.733 0.710329 0.423511 0
M  V30 6706 H 630.279 1.69107 0.141761 0
M  V30 6707 H 629.051 3.85749 0.656741 0
M  V30 6708 H 628.674 3.26657 2.26674 0
M  V30 6709 N 629.671 -0.424282 1.51781 0
M  V30 6710 C 630.896 -1.19928 1.6921 0
M  V30 6711 C 631.321 -1.8392 0.394355 0
M  V30 6712 O 630.679 -1.69371 -0.646778 0
M  V30 6713 C 630.727 -2.24937 2.81843 0
M  V30 6714 O 629.831 -3.3073 2.46356 0
M  V30 6715 H 629.172 -0.35078 0.563781 0
M  V30 6716 H 631.702 -0.499401 1.98412 0
M  V30 6717 H 631.712 -2.69512 3.06312 0
M  V30 6718 H 630.387 -1.77742 3.76006 0
M  V30 6719 H 628.964 -2.9154 2.32505 0
M  V30 6720 N 631.149 -1.42148 -0.680565 0
M  V30 6721 C 632.112 -1.4488 -1.77602 0
M  V30 6722 C 633.112 -0.337209 -1.57224 0
M  V30 6723 O 634.302 -0.597778 -1.63622 0
M  V30 6724 C 631.434 -1.27483 -3.16166 0
M  V30 6725 H 632.627 -2.42412 -1.76568 0
M  V30 6726 H 630.18 -1.28511 -0.889645 0
M  V30 6727 H 630.915 -0.30851 -3.22829 0
M  V30 6728 H 630.7 -2.08037 -3.3236 0
M  V30 6729 H 632.19 -1.32265 -3.96101 0
M  V30 6730 N 632.627 0.916307 -1.28225 0
M  V30 6731 C 633.874 1.66518 -1.1523 0
M  V30 6732 C 634.202 1.92178 0.299632 0
M  V30 6733 O 633.457 1.51842 1.2346 0
M  V30 6734 C 633.756 3.03125 -1.8934 0
M  V30 6735 C 633.422 2.97135 -3.39148 0
M  V30 6736 C 632.084 2.95208 -3.80007 0
M  V30 6737 C 634.436 2.87574 -4.34685 0
M  V30 6738 C 631.764 2.81518 -5.14747 0
M  V30 6739 C 634.116 2.75424 -5.69495 0
M  V30 6740 C 632.78 2.71854 -6.09632 0
M  V30 6741 H 632.05 0.609334 -0.421655 0
M  V30 6742 H 634.697 1.06776 -1.58969 0
M  V30 6743 H 633.002 3.66639 -1.38143 0
M  V30 6744 H 634.699 3.59968 -1.76704 0
M  V30 6745 H 631.289 2.99428 -3.06661 0
M  V30 6746 H 635.473 2.88152 -4.04082 0
M  V30 6747 H 630.729 2.77148 -5.44976 0
M  V30 6748 H 634.903 2.66993 -6.43185 0
M  V30 6749 H 632.53 2.61003 -7.1399 0
M  V30 6750 N 634.105 1.10431 1.1244 0
M  V30 6751 C 635.33 0.869089 1.88313 0
M  V30 6752 C 635.755 -0.574912 1.79099 0
M  V30 6753 O 635.113 -1.40496 1.14589 0
M  V30 6754 C 635.161 1.32208 3.3549 0
M  V30 6755 O 634.265 0.487092 4.09513 0
M  V30 6756 H 633.606 0.313894 0.585121 0
M  V30 6757 H 636.136 1.47111 1.42195 0
M  V30 6758 H 636.146 1.31201 3.86329 0
M  V30 6759 H 634.821 2.37364 3.41513 0
M  V30 6760 H 633.398 0.562372 3.68635 0
M  V30 6761 N 635.583 -1.29855 0.893053 0
M  V30 6762 C 636.808 -2.00512 0.530066 0
M  V30 6763 C 637.233 -1.66446 -0.876199 0
M  V30 6764 O 636.591 -0.885446 -1.58207 0
M  V30 6765 C 636.639 -3.53308 0.721505 0
M  V30 6766 O 635.743 -4.11764 -0.228994 0
M  V30 6767 H 635.084 -0.630617 0.207891 0
M  V30 6768 H 637.614 -1.6551 1.20282 0
M  V30 6769 H 637.624 -4.03206 0.623599 0
M  V30 6770 H 636.299 -3.77439 1.74678 0
M  V30 6771 H 634.876 -3.72805 -0.0841034 0
M  V30 6772 N 637.061 -0.65484 -1.43351 0
M  V30 6773 C 638.477 -0.32255 -1.56307 0
M  V30 6774 C 638.677 1.17324 -1.63821 0
M  V30 6775 O 637.733 1.95813 -1.59417 0
M  V30 6776 C 639.046 -1.03533 -2.82314 0
M  V30 6777 C 640.594 -1.01574 -2.9606 0
M  V30 6778 C 641.069 -1.70945 -4.24902 0
M  V30 6779 N 642.56 -1.67716 -4.3177 0
M  V30 6780 C 643.295 -2.18265 -5.30234 0
M  V30 6781 N 642.791 -2.7711 -6.34966 0
M  V30 6782 N 644.584 -2.08756 -5.21898 0
M  V30 6783 H 636.735 -1.62549 -1.36717 0
M  V30 6784 H 638.998 -0.683676 -0.656727 0
M  V30 6785 H 638.704 -2.09045 -2.8283 0
M  V30 6786 H 638.578 -0.587913 -3.7259 0
M  V30 6787 H 640.965 0.0309834 -2.95084 0
M  V30 6788 H 641.046 -1.50186 -2.07069 0
M  V30 6789 H 640.69 -2.75574 -4.26639 0
M  V30 6790 H 640.62 -1.19797 -5.12793 0
M  V30 6791 H 643.111 -1.24777 -3.56706 0
M  V30 6792 H 643.424 -3.13353 -7.06421 0
M  V30 6793 H 641.769 -2.81171 -6.35585 0
M  V30 6794 H 644.96 -1.62488 -4.38994 0
M  V30 6795 H 645.133 -2.48459 -5.98475 0
M  V30 6796 N 638.539 1.52521 -0.396863 0
M  V30 6797 C 639.787 2.01274 0.182536 0
M  V30 6798 C 640.108 1.28485 1.46685 0
M  V30 6799 O 639.378 0.407134 1.91623 0
M  V30 6800 H 637.958 0.743671 0.0704442 0
M  V30 6801 H 640.62 1.87547 -0.530289 0
M  V30 6802 H 639.716 3.09687 0.387385 0
M  V30 6803 N 640.017 0.126909 1.57088 0
M  V30 6804 C 641.242 -0.53997 2.00248 0
M  V30 6805 C 641.667 -1.58927 1.00618 0
M  V30 6806 O 641.025 -1.81288 -0.0210131 0
M  V30 6807 C 641.073 -1.13565 3.4225 0
M  V30 6808 O 640.177 -2.25103 3.45547 0
M  V30 6809 H 639.518 -0.13412 0.650314 0
M  V30 6810 H 642.048 0.217718 2.03438 0
M  V30 6811 H 642.058 -1.46925 3.80627 0
M  V30 6812 H 640.733 -0.367122 4.14277 0
M  V30 6813 H 639.31 -1.93123 3.18995 0
M  V30 6814 N 641.495 -1.56914 -0.146875 0
M  V30 6815 C 642.425 -2.01308 -1.1831 0
M  V30 6816 C 643.406 -0.892664 -1.44795 0
M  V30 6817 O 644.591 -1.16048 -1.55713 0
M  V30 6818 C 641.721 -2.3938 -2.51624 0
M  V30 6819 C 640.675 -3.54608 -2.3966 0
M  V30 6820 C 640.001 -3.78493 -3.77686 0
M  V30 6821 C 641.301 -4.87269 -1.88058 0
M  V30 6822 H 642.995 -2.88123 -0.813964 0
M  V30 6823 H 640.541 -1.38615 -0.3901 0
M  V30 6824 H 642.494 -2.69037 -3.24341 0
M  V30 6825 H 641.218 -1.49502 -2.90373 0
M  V30 6826 H 639.877 -3.25116 -1.69396 0
M  V30 6827 H 639.525 -2.85866 -4.13871 0
M  V30 6828 H 639.225 -4.56039 -3.70543 0
M  V30 6829 H 640.749 -4.10576 -4.51951 0
M  V30 6830 H 642.163 -5.15644 -2.50568 0
M  V30 6831 H 640.56 -5.68622 -1.91805 0
M  V30 6832 H 641.63 -4.77634 -0.836277 0
M  V30 6833 N 642.974 0.416227 -1.52004 0
M  V30 6834 C 644.199 1.19029 -1.69843 0
M  V30 6835 C 644.624 1.83708 -0.404103 0
M  V30 6836 O 643.982 1.69711 0.637787 0
M  V30 6837 C 644.03 2.23439 -2.83032 0
M  V30 6838 O 643.134 3.29419 -2.48106 0
M  V30 6839 H 642.475 0.347785 -0.565634 0
M  V30 6840 H 645.005 0.488871 -1.98674 0
M  V30 6841 H 645.015 2.67884 -3.07737 0
M  V30 6842 H 643.69 1.75745 -3.76944 0
M  V30 6843 H 642.267 2.90303 -2.34048 0
M  V30 6844 N 644.452 1.42507 0.673017 0
M  V30 6845 C 645.382 1.48916 1.79851 0
M  V30 6846 C 646.363 0.345566 1.66553 0
M  V30 6847 O 647.548 0.560116 1.85947 0
M  V30 6848 C 644.678 1.39258 3.18158 0
M  V30 6849 C 643.632 2.51662 3.46194 0
M  V30 6850 C 642.958 2.27062 4.84094 0
M  V30 6851 C 644.258 3.93968 3.42909 0
M  V30 6852 H 645.952 2.43114 1.74745 0
M  V30 6853 H 643.498 1.17013 0.839288 0
M  V30 6854 H 645.451 1.42349 3.96629 0
M  V30 6855 H 644.175 0.415542 3.23946 0
M  V30 6856 H 642.834 2.47891 2.70084 0
M  V30 6857 H 642.482 1.27648 4.86534 0
M  V30 6858 H 642.182 3.02398 5.03815 0
M  V30 6859 H 643.706 2.31905 5.64847 0
M  V30 6860 H 645.12 3.99332 4.11347 0
M  V30 6861 H 643.517 4.6917 3.74165 0
M  V30 6862 H 644.587 4.20512 2.41449 0
M  V30 6863 N 645.93 -0.909495 1.28709 0
M  V30 6864 C 647.155 -1.69801 1.1909 0
M  V30 6865 C 647.58 -1.86479 -0.246388 0
M  V30 6866 O 646.938 -1.37802 -1.17815 0
M  V30 6867 C 646.986 -3.06543 1.89904 0
M  V30 6868 O 646.09 -3.94268 1.2094 0
M  V30 6869 H 645.431 -0.519783 0.413185 0
M  V30 6870 H 647.961 -1.13689 1.70106 0
M  V30 6871 H 647.971 -3.56748 1.97977 0
M  V30 6872 H 646.646 -2.93722 2.94449 0
M  V30 6873 H 645.223 -3.52702 1.2106 0
M  V30 6874 N 647.408 -1.11026 -1.11852 0
M  V30 6875 C 648.655 -0.85646 -1.83497 0
M  V30 6876 C 648.983 0.617938 -1.84423 0
M  V30 6877 O 648.238 1.47194 -1.28966 0
M  V30 6878 C 648.537 -1.35777 -3.30604 0
M  V30 6879 C 648.203 -2.84465 -3.49843 0
M  V30 6880 C 646.865 -3.25068 -3.54802 0
M  V30 6881 C 649.217 -3.80251 -3.56453 0
M  V30 6882 C 646.545 -4.60194 -3.63921 0
M  V30 6883 C 648.897 -5.15188 -3.67102 0
M  V30 6884 C 647.561 -5.55356 -3.70319 0
M  V30 6885 H 646.831 -0.313401 -0.671462 0
M  V30 6886 H 649.478 -1.38792 -1.31943 0
M  V30 6887 H 647.783 -0.746455 -3.84624 0
M  V30 6888 H 649.48 -1.13779 -3.8452 0
M  V30 6889 H 646.07 -2.52054 -3.46651 0
M  V30 6890 H 650.254 -3.49986 -3.51886 0
M  V30 6891 H 645.51 -4.90728 -3.64686 0
M  V30 6892 H 649.684 -5.89248 -3.71159 0
M  V30 6893 H 647.311 -6.60054 -3.77138 0
M  V30 6894 N 648.886 1.2938 -0.899927 0
M  V30 6895 C 649.796 2.31462 -0.382437 0
M  V30 6896 C 650.812 1.65956 0.522929 0
M  V30 6897 O 651.988 1.97131 0.412454 0
M  V30 6898 C 649.053 3.44595 0.381472 0
M  V30 6899 C 648.114 4.25692 -0.555444 0
M  V30 6900 C 647.347 5.33422 0.172102 0
M  V30 6901 O 647.57 5.53053 1.396 0
M  V30 6902 O 646.504 5.99939 -0.485491 0
M  V30 6903 H 650.33 2.77706 -1.22934 0
M  V30 6904 H 647.915 1.33821 -0.664259 0
M  V30 6905 H 649.797 4.13474 0.813442 0
M  V30 6906 H 648.472 3.00458 1.20443 0
M  V30 6907 H 647.379 3.59453 -1.03653 0
M  V30 6908 H 648.712 4.73471 -1.34483 0
M  V30 6909 N 650.364 0.662433 1.43002 0
M  V30 6910 C 651.78 0.330835 1.56133 0
M  V30 6911 C 651.98 -1.16454 1.64441 0
M  V30 6912 O 651.036 -1.94964 1.60453 0
M  V30 6913 C 652.349 1.05029 2.81761 0
M  V30 6914 C 653.897 1.03142 2.95518 0
M  V30 6915 C 654.372 1.73196 4.2399 0
M  V30 6916 N 655.863 1.70004 4.30875 0
M  V30 6917 C 656.598 2.21074 5.29069 0
M  V30 6918 N 656.094 2.80473 6.33488 0
M  V30 6919 N 657.887 2.1152 5.20784 0
M  V30 6920 H 650.038 1.63272 1.35853 0
M  V30 6921 H 652.301 0.687149 0.653092 0
M  V30 6922 H 652.007 2.10542 2.81718 0
M  V30 6923 H 651.881 0.607664 3.72273 0
M  V30 6924 H 654.268 -0.0153339 2.95096 0
M  V30 6925 H 654.349 1.51282 2.0627 0
M  V30 6926 H 653.993 2.77833 4.25172 0
M  V30 6927 H 653.923 1.22515 5.1215 0
M  V30 6928 H 656.414 1.26667 3.56039 0
M  V30 6929 H 656.727 3.17094 7.04749 0
M  V30 6930 H 655.072 2.84538 6.34085 0
M  V30 6931 H 658.263 1.64814 4.38126 0
M  V30 6932 H 658.436 2.51629 5.97149 0
M  V30 6933 N 651.842 -1.52309 0.404946 0
M  V30 6934 C 652.752 -2.30634 -0.429555 0
M  V30 6935 C 653.768 -1.38187 -1.05737 0
M  V30 6936 O 654.944 -1.71261 -1.05979 0
M  V30 6937 C 652.009 -3.10947 -1.53339 0
M  V30 6938 C 651.07 -4.19126 -0.929065 0
M  V30 6939 C 650.303 -4.95601 -1.9803 0
M  V30 6940 O 650.526 -4.72331 -3.1978 0
M  V30 6941 O 649.46 -5.80551 -1.58886 0
M  V30 6942 H 653.286 -3.0298 0.208963 0
M  V30 6943 H 650.871 -1.4845 0.168255 0
M  V30 6944 H 652.753 -3.60974 -2.1743 0
M  V30 6945 H 651.428 -2.41399 -2.15658 0
M  V30 6946 H 650.335 -3.73257 -0.250982 0
M  V30 6947 H 651.668 -4.90955 -0.349855 0
M  V30 6948 N 653.32 -0.135238 -1.57019 0
M  V30 6949 C 654.731 0.387521 -1.82634 0
M  V30 6950 C 655.082 1.65528 -1.05332 0
M  V30 6951 O 654.207 2.14381 -0.294926 0
M  V30 6952 C 654.802 0.709852 -3.3128 0
M  V30 6953 C 653.361 1.17718 -3.57518 0
M  V30 6954 C 652.508 0.194183 -2.76619 0
M  V30 6955 H 655.459 -0.360126 -1.5456 0
M  V30 6956 H 655.48 1.5657 -3.46794 0
M  V30 6957 H 654.992 -0.213024 -3.87515 0
M  V30 6958 H 653.093 2.1164 -3.06658 0
M  V30 6959 H 653.206 1.11128 -4.66034 0
M  V30 6960 H 651.57 0.684478 -2.4533 0
M  V30 6961 H 652.353 -0.722076 -3.3562 0
M  V30 6962 N 654.798 1.5699 0.138552 0
M  V30 6963 C 656.023 1.88344 0.86841 0
M  V30 6964 C 656.448 0.725159 1.7356 0
M  V30 6965 O 655.806 -0.324992 1.78363 0
M  V30 6966 C 655.854 3.18334 1.69398 0
M  V30 6967 O 654.958 3.02863 2.79907 0
M  V30 6968 H 654.299 0.618577 0.241367 0
M  V30 6969 H 656.829 2.04207 0.126826 0
M  V30 6970 H 656.839 3.50567 2.08726 0
M  V30 6971 H 655.514 4.02238 1.05725 0
M  V30 6972 H 654.091 2.82056 2.43924 0
M  V30 6973 N 656.276 -0.40816 1.52223 0
M  V30 6974 C 657.504 -1.17672 1.70179 0
M  V30 6975 C 657.919 -1.84257 0.411696 0
M  V30 6976 O 657.276 -1.7192 -0.612354 0
M  V30 6977 C 657.327 -2.23911 2.83806 0
M  V30 6978 O 657.048 -1.60044 4.0782 0
M  V30 6979 C 658.549 -3.1364 3.13281 0
M  V30 6980 H 655.769 -0.353562 0.570293 0
M  V30 6981 H 658.313 -0.480083 1.98785 0
M  V30 6982 H 656.468 -2.89242 2.57717 0
M  V30 6983 H 656.882 -2.30484 4.71145 0
M  V30 6984 H 658.356 -3.84255 3.96298 0
M  V30 6985 H 658.833 -3.76066 2.26872 0
M  V30 6986 H 659.439 -2.53977 3.41139 0
M  V30 6987 N 657.755 -1.42862 -0.66545 0
M  V30 6988 C 658.98 -1.47456 -1.45848 0
M  V30 6989 C 659.405 -0.0900312 -1.87884 0
M  V30 6990 O 658.763 0.913587 -1.56599 0
M  V30 6991 C 658.811 -2.41514 -2.67774 0
M  V30 6992 O 657.915 -1.89296 -3.66389 0
M  V30 6993 H 657.256 -0.499236 -0.437789 0
M  V30 6994 H 659.786 -1.8765 -0.815394 0
M  V30 6995 H 659.796 -2.58409 -3.15735 0
M  V30 6996 H 658.471 -3.42099 -2.36519 0
M  V30 6997 H 657.048 -1.82003 -3.25468 0
M  V30 6998 N 659.233 0.902656 -1.29189 0
M  V30 6999 C 660.51 1.63296 -1.07674 0
M  V30 7000 C 660.89 2.07649 0.380137 0
M  V30 7001 O 660.238 1.82997 1.36837 0
M  V30 7002 C 660.448 2.81603 -2.06158 0
M  V30 7003 C 661.796 3.52359 -2.36914 0
M  V30 7004 O 662.82 2.91767 -2.04329 0
M  V30 7005 O 661.679 4.61586 -2.92576 0
M  V30 7006 H 658.773 0.716889 -0.41231 0
M  V30 7007 H 661.319 0.950984 -1.4055 0
M  V30 7008 H 660.091 2.46004 -3.04299 0
M  V30 7009 H 659.714 3.57508 -1.73993 0
M  V30 7010 N 660.711 1.11618 1.11262 0
M  V30 7011 C 661.641 0.79846 2.19424 0
M  V30 7012 C 662.622 -0.234003 1.68483 0
M  V30 7013 O 663.807 -0.0970704 1.93957 0
M  V30 7014 C 660.937 0.242892 3.4645 0
M  V30 7015 C 659.891 1.20744 4.10615 0
M  V30 7016 C 659.217 0.512494 5.32238 0
M  V30 7017 C 660.517 2.55884 4.55325 0
M  V30 7018 H 662.211 1.70286 2.46258 0
M  V30 7019 H 659.757 0.820195 1.18359 0
M  V30 7020 H 661.71 0.00840447 4.21399 0
M  V30 7021 H 660.434 -0.696811 3.1908 0
M  V30 7022 H 659.093 1.42759 3.37662 0
M  V30 7023 H 658.741 -0.432075 5.01141 0
M  V30 7024 H 658.441 1.15583 5.7612 0
M  V30 7025 H 659.965 0.286842 6.09926 0
M  V30 7026 H 661.379 2.37946 5.21588 0
M  V30 7027 H 659.776 3.16216 5.10027 0
M  V30 7028 H 660.846 3.14968 3.68678 0
M  V30 7029 N 662.189 -1.289 0.906776 0
M  V30 7030 C 663.437 -1.94883 0.535266 0
M  V30 7031 C 663.758 -1.71784 -0.922791 0
M  V30 7032 O 663.028 -1.05359 -1.65156 0
M  V30 7033 H 661.608 -0.721109 0.194962 0
M  V30 7034 H 664.27 -1.57018 1.15461 0
M  V30 7035 H 663.366 -3.03591 0.723821 0
M  V30 7036 N 663.667 -0.670007 -1.42649 0
M  V30 7037 C 664.895 -0.19854 -2.05945 0
M  V30 7038 C 665.31 1.14243 -1.50313 0
M  V30 7039 O 664.667 1.70872 -0.641027 0
M  V30 7040 C 664.718 -0.11966 -3.61302 0
M  V30 7041 O 664.439 -1.40764 -4.1487 0
M  V30 7042 C 665.94 0.375878 -4.41704 0
M  V30 7043 H 663.16 -0.0976894 -0.663851 0
M  V30 7044 H 665.704 -0.915392 -1.82868 0
M  V30 7045 H 663.859 0.547851 -3.83507 0
M  V30 7046 H 664.273 -1.27784 -5.08696 0
M  V30 7047 H 665.747 0.379988 -5.50691 0
M  V30 7048 H 666.224 1.41028 -4.15942 0
M  V30 7049 H 666.83 -0.259727 -4.24506 0
M  V30 7050 N 665.145 1.52092 -0.413018 0
M  V30 7051 C 666.373 2.06274 0.160881 0
M  V30 7052 C 666.788 1.28273 1.38533 0
M  V30 7053 O 666.145 0.33563 1.79387 0
M  V30 7054 C 666.196 3.57921 0.507443 0
M  V30 7055 O 665.917 4.32971 -0.668388 0
M  V30 7056 C 667.418 4.28533 1.13465 0
M  V30 7057 H 664.638 0.67074 0.0186759 0
M  V30 7058 H 667.182 1.95951 -0.585092 0
M  V30 7059 H 665.337 3.68238 1.20331 0
M  V30 7060 H 665.751 5.23135 -0.378169 0
M  V30 7061 H 667.225 5.35804 1.32732 0
M  V30 7062 H 667.702 3.85258 2.10886 0
M  V30 7063 H 668.308 4.22595 0.478876 0
M  V30 7064 N 666.623 0.143563 1.56945 0
M  V30 7065 C 667.9 -0.553285 1.87612 0
M  V30 7066 C 668.28 -1.83195 1.04894 0
M  V30 7067 O 667.628 -2.28102 0.134773 0
M  V30 7068 C 667.838 -0.822055 3.3918 0
M  V30 7069 C 669.186 -1.16435 4.08324 0
M  V30 7070 O 670.21 -0.911522 3.4434 0
M  V30 7071 O 669.069 -1.63996 5.21313 0
M  V30 7072 H 666.163 -0.281851 0.777489 0
M  V30 7073 H 668.709 0.179916 1.68744 0
M  V30 7074 H 667.481 0.0830265 3.91212 0
M  V30 7075 H 667.104 -1.60956 3.63564 0
M  V30 7076 N 668.101 -1.57061 -0.130224 0
M  V30 7077 C 669.347 -1.8453 -0.841216 0
M  V30 7078 C 669.68 -0.727666 -1.80052 0
M  V30 7079 O 668.955 0.267419 -1.92653 0
M  V30 7080 C 669.238 -3.22553 -1.60099 0
M  V30 7081 C 669.091 -4.44901 -0.662048 0
M  V30 7082 C 670.41 -3.58003 -2.55973 0
M  V30 7083 H 667.529 -0.671215 -0.304366 0
M  V30 7084 H 670.171 -1.89705 -0.105821 0
M  V30 7085 H 668.321 -3.18272 -2.22789 0
M  V30 7086 H 669.993 -4.61278 -0.0448559 0
M  V30 7087 H 668.236 -4.33791 0.0272253 0
M  V30 7088 H 668.907 -5.3812 -1.23006 0
M  V30 7089 H 671.383 -3.63002 -2.03393 0
M  V30 7090 H 670.259 -4.55576 -3.06172 0
M  V30 7091 H 670.52 -2.84833 -3.38116 0
M  V30 7092 N 669.579 0.400081 -1.52437 0
M  V30 7093 C 670.511 1.50729 -1.72666 0
M  V30 7094 C 671.524 1.51058 -0.607075 0
M  V30 7095 O 672.713 1.5516 -0.88248 0
M  V30 7096 C 669.813 2.89604 -1.76019 0
M  V30 7097 C 668.986 3.13365 -3.05157 0
M  V30 7098 C 668.045 4.32163 -3.00203 0
M  V30 7099 O 667.071 4.29004 -3.74092 0
M  V30 7100 N 668.273 5.3776 -2.18619 0
M  V30 7101 H 671.038 1.33767 -2.68191 0
M  V30 7102 H 668.599 0.58948 -1.50787 0
M  V30 7103 H 670.591 3.67159 -1.70225 0
M  V30 7104 H 669.161 2.99979 -0.879284 0
M  V30 7105 H 668.381 2.23774 -3.24529 0
M  V30 7106 H 669.669 3.26089 -3.90568 0
M  V30 7107 H 669.067 5.43177 -1.58035 0
M  V30 7108 H 667.624 6.14023 -2.18674 0
M  V30 7109 N 671.057 1.43213 0.657864 0
M  V30 7110 C 672.004 1.48011 1.77092 0
M  V30 7111 C 672.974 0.330291 1.62783 0
M  V30 7112 O 674.159 0.536787 1.83094 0
M  V30 7113 C 671.299 1.40461 3.15222 0
M  V30 7114 C 670.412 2.65612 3.40697 0
M  V30 7115 C 669.547 2.50083 4.68649 0
M  V30 7116 C 668.586 3.70525 4.87214 0
M  V30 7117 N 667.723 3.53835 6.0642 0
M  V30 7118 H 672.563 2.43121 1.72326 0
M  V30 7119 H 670.1 1.20687 0.841013 0
M  V30 7120 H 672.058 1.34079 3.95068 0
M  V30 7121 H 670.688 0.489359 3.19069 0
M  V30 7122 H 669.74 2.82292 2.54982 0
M  V30 7123 H 671.052 3.5509 3.50303 0
M  V30 7124 H 670.206 2.41383 5.56614 0
M  V30 7125 H 668.945 1.58121 4.61356 0
M  V30 7126 H 667.95 3.79639 3.97686 0
M  V30 7127 H 669.175 4.63489 4.96341 0
M  V30 7128 H 667.121 2.64604 6.00267 0
M  V30 7129 H 667.038 4.36912 6.16963 0
M  V30 7130 H 668.306 3.48978 6.97019 0
M  V30 7131 N 672.536 -0.895792 1.29666 0
M  V30 7132 C 673.483 -2.00035 1.15129 0
M  V30 7133 C 674.453 -1.66043 0.0435819 0
M  V30 7134 O 675.638 -1.89621 0.211811 0
M  V30 7135 C 672.778 -3.34774 0.83787 0
M  V30 7136 C 671.891 -3.81525 2.0264 0
M  V30 7137 C 671.026 -5.04858 1.65201 0
M  V30 7138 C 670.065 -5.43988 2.80612 0
M  V30 7139 N 669.202 -6.58507 2.43544 0
M  V30 7140 H 674.042 -2.11802 2.09628 0
M  V30 7141 H 671.579 -1.03719 1.04311 0
M  V30 7142 H 673.537 -4.12311 0.636824 0
M  V30 7143 H 672.167 -3.22724 -0.0702314 0
M  V30 7144 H 671.219 -2.9999 2.33903 0
M  V30 7145 H 672.531 -4.06472 2.89106 0
M  V30 7146 H 671.685 -5.8999 1.41408 0
M  V30 7147 H 670.424 -4.81759 0.758893 0
M  V30 7148 H 669.429 -4.57388 3.05083 0
M  V30 7149 H 670.654 -5.69066 3.70595 0
M  V30 7150 H 668.6 -6.37004 1.56724 0
M  V30 7151 H 668.517 -6.83269 3.23542 0
M  V30 7152 H 669.785 -7.46897 2.2308 0
M  V30 7153 N 674.014 -1.12206 -1.10668 0
M  V30 7154 C 674.961 -0.787716 -2.16942 0
M  V30 7155 C 675.931 0.244442 -1.64291 0
M  V30 7156 O 677.116 0.119558 -1.90425 0
M  V30 7157 C 674.256 -0.24584 -3.44223 0
M  V30 7158 C 673.369 -1.33552 -4.10838 0
M  V30 7159 C 672.504 -0.753337 -5.25831 0
M  V30 7160 C 671.543 -1.82231 -5.84344 0
M  V30 7161 N 670.68 -1.25902 -6.90719 0
M  V30 7162 H 675.52 -1.69809 -2.44885 0
M  V30 7163 H 673.057 -0.847862 -1.20207 0
M  V30 7164 H 675.015 0.0863639 -4.17111 0
M  V30 7165 H 673.645 0.627702 -3.16638 0
M  V30 7166 H 672.697 -1.78454 -3.35944 0
M  V30 7167 H 674.009 -2.14396 -4.50373 0
M  V30 7168 H 673.163 -0.37166 -6.05561 0
M  V30 7169 H 671.902 0.0863297 -4.87624 0
M  V30 7170 H 670.907 -2.2132 -5.03287 0
M  V30 7171 H 672.132 -2.66515 -6.24617 0
M  V30 7172 H 670.078 -0.44114 -6.54515 0
M  V30 7173 H 669.995 -2.00408 -7.28953 0
M  V30 7174 H 671.263 -0.904498 -7.74235 0
M  V30 7175 N 675.492 1.28418 -0.913599 0
M  V30 7176 C 676.422 2.29713 -0.418847 0
M  V30 7177 C 677.403 1.62165 0.513469 0
M  V30 7178 O 678.588 1.89576 0.421235 0
M  V30 7179 C 675.718 3.45612 0.342042 0
M  V30 7180 C 674.672 4.25056 -0.501123 0
M  V30 7181 C 673.998 5.3329 0.388097 0
M  V30 7182 C 675.298 4.91814 -1.75831 0
M  V30 7183 H 676.992 2.71346 -1.26538 0
M  V30 7184 H 674.538 1.30446 -0.609903 0
M  V30 7185 H 676.491 4.15562 0.699 0
M  V30 7186 H 675.215 3.02858 1.22248 0
M  V30 7187 H 673.874 3.56833 -0.840598 0
M  V30 7188 H 673.522 4.8678 1.26707 0
M  V30 7189 H 673.222 5.87347 -0.172459 0
M  V30 7190 H 674.746 6.06088 0.74094 0
M  V30 7191 H 676.16 5.54126 -1.47026 0
M  V30 7192 H 674.557 5.55866 -2.26126 0
M  V30 7193 H 675.627 4.16313 -2.4862 0
M  V30 7194 N 676.97 0.677563 1.42291 0
M  V30 7195 C 678.216 0.201272 2.01799 0
M  V30 7196 C 678.549 -1.19004 1.53465 0
M  V30 7197 O 677.824 -1.79953 0.738039 0
M  V30 7198 C 678.107 0.238968 3.59306 0
M  V30 7199 C 677.96 1.66594 4.17812 0
M  V30 7200 C 679.279 -0.411287 4.38174 0
M  V30 7201 H 676.398 0.0746114 0.733214 0
M  V30 7202 H 679.04 0.862872 1.69276 0
M  V30 7203 H 677.19 -0.324368 3.87144 0
M  V30 7204 H 678.862 2.28173 4.00917 0
M  V30 7205 H 677.105 2.20576 3.73536 0
M  V30 7206 H 677.776 1.64398 5.26951 0
M  V30 7207 H 680.252 0.0682804 4.16044 0
M  V30 7208 H 679.128 -0.354286 5.47755 0
M  V30 7209 H 679.389 -1.4893 4.1626 0
M  V30 7210 N 678.448 -1.51871 0.421078 0
M  V30 7211 C 679.725 -1.9447 -0.20993 0
M  V30 7212 C 680.105 -1.35875 -1.61558 0
M  V30 7213 O 679.453 -0.539294 -2.22045 0
M  V30 7214 C 679.663 -3.48402 -0.204165 0
M  V30 7215 C 681.011 -4.2254 -0.417696 0
M  V30 7216 O 682.035 -3.55074 -0.282999 0
M  V30 7217 O 680.894 -5.422 -0.684239 0
M  V30 7218 H 677.988 -0.815283 -0.138718 0
M  V30 7219 H 680.534 -1.62832 0.477884 0
M  V30 7220 H 679.306 -3.83464 0.779183 0
M  V30 7221 H 678.929 -3.86436 -0.935576 0
M  V30 7222 N 679.926 -0.151884 -1.56866 0
M  V30 7223 C 680.889 0.771861 -2.15812 0
M  V30 7224 C 681.889 1.17181 -1.10115 0
M  V30 7225 O 683.079 1.09194 -1.35729 0
M  V30 7226 C 680.211 2.04806 -2.7252 0
M  V30 7227 H 681.404 0.259021 -2.98779 0
M  V30 7228 H 678.957 0.097588 -1.55995 0
M  V30 7229 H 679.692 2.60445 -1.93233 0
M  V30 7230 H 679.477 1.77044 -3.49854 0
M  V30 7231 H 680.967 2.70771 -3.1792 0
M  V30 7232 N 681.404 1.57128 0.121893 0
M  V30 7233 C 682.653 1.83888 0.828748 0
M  V30 7234 C 682.966 0.737087 1.81181 0
M  V30 7235 O 684.172 0.891007 2.56463 0
M  V30 7236 C 682.628 3.26014 1.52455 0
M  V30 7237 C 682.236 4.44195 0.58263 0
M  V30 7238 C 683.98 3.62025 2.21671 0
M  V30 7239 C 681.887 5.77349 1.28149 0
M  V30 7240 H 680.817 0.685856 0.313238 0
M  V30 7241 H 683.468 1.83319 0.0814851 0
M  V30 7242 H 681.85 3.21044 2.31834 0
M  V30 7243 H 683.024 4.60457 -0.177729 0
M  V30 7244 H 681.339 4.164 -0.00241228 0
M  V30 7245 H 683.936 4.58776 2.74643 0
M  V30 7246 H 684.279 2.89315 2.99337 0
M  V30 7247 H 684.812 3.68767 1.49184 0
M  V30 7248 H 681.551 6.53221 0.546189 0
M  V30 7249 H 681.071 5.64978 2.01394 0
M  V30 7250 H 682.75 6.21006 1.81549 0
M  V30 7251 N 682.882 -0.391992 1.52647 0
M  V30 7252 C 684.128 -1.139 1.67793 0
M  V30 7253 C 684.461 -1.89711 0.41514 0
M  V30 7254 O 683.736 -1.85431 -0.586979 0
M  V30 7255 C 684.019 -2.11966 2.91105 0
M  V30 7256 C 683.872 -1.39939 4.27478 0
M  V30 7257 C 685.191 -3.1243 3.09961 0
M  V30 7258 H 682.31 -0.412707 0.610608 0
M  V30 7259 H 684.952 -0.422725 1.85238 0
M  V30 7260 H 683.102 -2.73048 2.76364 0
M  V30 7261 H 684.774 -0.818439 4.53982 0
M  V30 7262 H 683.017 -0.701246 4.28095 0
M  V30 7263 H 683.688 -2.1158 5.09841 0
M  V30 7264 H 686.164 -2.61435 3.23714 0
M  V30 7265 H 685.04 -3.78294 3.97725 0
M  V30 7266 H 685.301 -3.81127 2.24042 0
M  V30 7267 N 684.36 -1.4356 -0.65026 0
M  V30 7268 C 685.585 -1.48995 -1.44275 0
M  V30 7269 C 686.01 -0.109954 -1.87778 0
M  V30 7270 O 685.368 0.896926 -1.57559 0
M  V30 7271 C 685.416 -2.44341 -2.65198 0
M  V30 7272 O 684.52 -1.93172 -3.6436 0
M  V30 7273 H 683.861 -0.503852 -0.432469 0
M  V30 7274 H 686.391 -1.88504 -0.795446 0
M  V30 7275 H 686.401 -2.61743 -3.12977 0
M  V30 7276 H 685.076 -3.44588 -2.32877 0
M  V30 7277 H 683.653 -1.85445 -3.23519 0
M  V30 7278 N 685.838 0.888903 -1.30139 0
M  V30 7279 C 687.086 1.63713 -1.18501 0
M  V30 7280 C 687.407 1.9324 0.261399 0
M  V30 7281 O 686.677 1.56608 1.17689 0
M  V30 7282 H 685.257 0.606861 -0.435579 0
M  V30 7283 H 687.919 1.06525 -1.63213 0
M  V30 7284 H 687.015 2.58894 -1.743 0
M  V30 7285 N 687.317 1.12792 1.10072 0
M  V30 7286 C 688.594 0.796867 1.78632 0
M  V30 7287 C 688.974 -0.712739 1.98704 0
M  V30 7288 O 688.322 -1.64773 1.5831 0
M  V30 7289 C 688.532 1.57622 3.11378 0
M  V30 7290 C 689.88 1.76463 3.86194 0
M  V30 7291 O 690.904 1.54165 3.2111 0
M  V30 7292 O 689.763 2.13623 5.03018 0
M  V30 7293 H 686.857 0.290248 0.774394 0
M  V30 7294 H 689.403 1.23215 1.16688 0
M  V30 7295 H 688.175 2.60246 2.92212 0
M  V30 7296 H 687.798 1.13543 3.81043 0
M  V30 7297 N 688.795 -1.27931 0.920396 0
M  V30 7298 C 690.023 -1.98805 0.573087 0
M  V30 7299 C 690.438 -1.68724 -0.847201 0
M  V30 7300 O 689.795 -0.943699 -1.56207 0
M  V30 7301 C 689.846 -3.52971 0.780633 0
M  V30 7302 O 689.567 -3.81994 2.14504 0
M  V30 7303 C 691.068 -4.411 0.44105 0
M  V30 7304 H 688.288 -0.634651 0.21785 0
M  V30 7305 H 690.832 -1.62965 1.23542 0
M  V30 7306 H 688.987 -3.87048 0.165204 0
M  V30 7307 H 689.401 -4.76609 2.18962 0
M  V30 7308 H 690.875 -5.48312 0.637006 0
M  V30 7309 H 691.352 -4.34758 -0.62306 0
M  V30 7310 H 691.958 -4.12532 1.0343 0
M  V30 7311 N 690.273 -0.685099 -1.4193 0
M  V30 7312 C 691.498 -0.218842 -2.06242 0
M  V30 7313 C 691.923 1.11923 -1.51178 0
M  V30 7314 O 691.281 1.69837 -0.634446 0
M  V30 7315 C 691.329 -0.175592 -3.60172 0
M  V30 7316 O 690.433 0.852776 -4.03487 0
M  V30 7317 H 689.774 -0.109531 -0.654904 0
M  V30 7318 H 692.304 -0.937013 -1.81882 0
M  V30 7319 H 692.314 -0.00291151 -4.08 0
M  V30 7320 H 690.989 -1.15222 -3.99621 0
M  V30 7321 H 689.566 0.650301 -3.67186 0
M  V30 7322 N 691.751 1.51645 -0.429126 0
M  V30 7323 C 692.698 2.27542 0.386446 0
M  V30 7324 C 693.668 1.30786 1.02393 0
M  V30 7325 O 694.853 1.59678 1.0444 0
M  V30 7326 C 691.993 3.11457 1.48623 0
M  V30 7327 C 691.106 4.23196 0.867691 0
M  V30 7328 C 690.241 4.94435 1.94183 0
M  V30 7329 C 689.28 5.98108 1.30129 0
M  V30 7330 N 688.417 6.62786 2.31644 0
M  V30 7331 H 693.257 2.968 -0.267155 0
M  V30 7332 H 690.794 1.46397 -0.143591 0
M  V30 7333 H 692.752 3.58429 2.13506 0
M  V30 7334 H 691.382 2.44329 2.10957 0
M  V30 7335 H 690.434 3.80248 0.107373 0
M  V30 7336 H 691.746 4.97499 0.35997 0
M  V30 7337 H 690.9 5.44914 2.66747 0
M  V30 7338 H 689.639 4.19744 2.48326 0
M  V30 7339 H 688.644 5.4693 0.561082 0
M  V30 7340 H 689.869 6.74751 0.767303 0
M  V30 7341 H 687.815 5.90913 2.84883 0
M  V30 7342 H 687.732 7.32828 1.85741 0
M  V30 7343 H 689 7.17897 3.03717 0
M  V30 7344 N 693.229 0.160201 1.56784 0
M  V30 7345 C 694.159 -0.770264 2.2043 0
M  V30 7346 C 695.14 -1.24736 1.15651 0
M  V30 7347 O 696.325 -1.30253 1.44041 0
M  V30 7348 C 693.455 -2.00427 2.83631 0
M  V30 7349 C 692.409 -1.66345 3.94352 0
M  V30 7350 C 691.735 -2.97119 4.4455 0
M  V30 7351 C 693.035 -0.899972 5.14488 0
M  V30 7352 H 694.729 -0.239783 2.98438 0
M  V30 7353 H 692.275 -0.113891 1.43549 0
M  V30 7354 H 694.228 -2.66012 3.26827 0
M  V30 7355 H 692.952 -2.5587 2.02973 0
M  V30 7356 H 691.611 -1.03133 3.51794 0
M  V30 7357 H 691.259 -3.5058 3.60698 0
M  V30 7358 H 690.959 -2.75073 5.19238 0
M  V30 7359 H 692.483 -3.63753 4.90425 0
M  V30 7360 H 693.897 -1.45818 5.54446 0
M  V30 7361 H 692.294 -0.778968 5.95023 0
M  V30 7362 H 693.364 0.105827 4.84785 0
M  V30 7363 N 694.707 -1.5719 -0.113559 0
M  V30 7364 C 695.64 -1.9595 -1.16957 0
M  V30 7365 C 696.618 -0.829951 -1.39823 0
M  V30 7366 O 697.802 -1.08861 -1.53888 0
M  V30 7367 C 694.929 -2.2604 -2.52237 0
M  V30 7368 C 693.975 -3.48571 -2.45765 0
M  V30 7369 S 694.808 -5.00962 -1.89203 0
M  V30 7370 C 695.964 -5.3421 -3.26145 0
M  V30 7371 H 696.197 -2.85214 -0.839069 0
M  V30 7372 H 693.73 -1.51036 -0.320529 0
M  V30 7373 H 695.688 -2.44054 -3.30073 0
M  V30 7374 H 694.349 -1.3738 -2.82463 0
M  V30 7375 H 693.542 -3.67008 -3.45429 0
M  V30 7376 H 693.144 -3.29972 -1.76053 0
M  V30 7377 H 695.436 -5.29725 -4.22371 0
M  V30 7378 H 696.379 -6.35398 -3.12529 0
M  V30 7379 H 696.787 -4.61681 -3.24825 0
M  V30 7380 N 696.185 0.383891 -1.52853 0
M  V30 7381 C 697.132 1.46924 -1.77995 0
M  V30 7382 C 698.102 1.53958 -0.623396 0
M  V30 7383 O 699.287 1.70134 -0.863657 0
M  V30 7384 C 696.427 2.84093 -1.95921 0
M  V30 7385 C 695.54 2.86171 -3.23621 0
M  V30 7386 C 694.675 4.14799 -3.31836 0
M  V30 7387 C 693.714 4.10948 -4.53639 0
M  V30 7388 N 692.851 5.31192 -4.59107 0
M  V30 7389 H 697.691 1.24786 -2.70615 0
M  V30 7390 H 695.228 0.605265 -1.34071 0
M  V30 7391 H 697.186 3.63755 -2.04299 0
M  V30 7392 H 695.816 3.04671 -1.06656 0
M  V30 7393 H 694.868 1.9885 -3.24288 0
M  V30 7394 H 696.18 2.79194 -4.13343 0
M  V30 7395 H 695.334 5.02867 -3.39425 0
M  V30 7396 H 694.073 4.24505 -2.40097 0
M  V30 7397 H 693.078 3.21268 -4.46169 0
M  V30 7398 H 694.303 4.0286 -5.467 0
M  V30 7399 H 692.249 5.41518 -3.70262 0
M  V30 7400 H 692.166 5.26311 -5.42708 0
M  V30 7401 H 693.434 6.21143 -4.70958 0
M  V30 7402 N 697.663 1.43903 0.642637 0
M  V30 7403 C 698.912 1.45362 1.39831 0
M  V30 7404 C 699.225 0.0856289 1.95412 0
M  V30 7405 O 700.431 -0.0222856 2.71491 0
M  V30 7406 C 698.887 2.55857 2.53111 0
M  V30 7407 C 698.495 3.98811 2.04092 0
M  V30 7408 C 700.239 2.66524 3.30402 0
M  V30 7409 C 698.146 5.00751 3.14647 0
M  V30 7410 H 697.076 0.540777 0.52543 0
M  V30 7411 H 699.727 1.69929 0.692559 0
M  V30 7412 H 698.109 2.2451 3.26207 0
M  V30 7413 H 699.283 4.3967 1.37938 0
M  V30 7414 H 697.598 3.92284 1.39651 0
M  V30 7415 H 700.195 3.39858 4.12796 0
M  V30 7416 H 700.538 1.71949 3.79129 0
M  V30 7417 H 701.071 2.97224 2.64392 0
M  V30 7418 H 697.81 5.96914 2.70876 0
M  V30 7419 H 697.33 4.64495 3.79479 0
M  V30 7420 H 699.009 5.23933 3.79609 0
M  V30 7421 N 699.141 -0.881989 1.30609 0
M  V30 7422 C 700.071 -2.00413 1.1982 0
M  V30 7423 C 701.052 -1.69871 0.0881538 0
M  V30 7424 O 702.237 -1.92304 0.2707 0
M  V30 7425 C 699.367 -3.35641 0.89233 0
M  V30 7426 C 698.321 -3.80451 1.96064 0
M  V30 7427 C 697.647 -5.13003 1.5077 0
M  V30 7428 C 698.947 -3.98855 3.37213 0
M  V30 7429 H 700.641 -2.09698 2.13699 0
M  V30 7430 H 698.187 -1.00754 1.02882 0
M  V30 7431 H 700.14 -4.13669 0.803497 0
M  V30 7432 H 698.864 -3.26497 -0.0821381 0
M  V30 7433 H 697.523 -3.04654 2.03916 0
M  V30 7434 H 697.171 -5.0029 0.521417 0
M  V30 7435 H 696.871 -5.43956 2.22229 0
M  V30 7436 H 698.395 -5.93554 1.43271 0
M  V30 7437 H 699.809 -4.67312 3.32103 0
M  V30 7438 H 698.206 -4.41188 4.06784 0
M  V30 7439 H 699.276 -3.02614 3.78883 0
M  V30 7440 N 700.619 -1.13374 -1.09472 0
M  V30 7441 C 701.551 -0.768466 -2.15933 0
M  V30 7442 C 702.564 0.209585 -1.61445 0
M  V30 7443 O 703.753 -0.010539 -1.78497 0
M  V30 7444 C 700.853 -0.118266 -3.38694 0
M  V30 7445 C 700.026 -1.12829 -4.22597 0
M  V30 7446 C 699.085 -0.503875 -5.23782 0
M  V30 7447 O 698.111 -1.16374 -5.57177 0
M  V30 7448 N 699.313 0.724288 -5.75964 0
M  V30 7449 H 702.078 -1.68457 -2.47876 0
M  V30 7450 H 699.639 -1.02668 -1.25183 0
M  V30 7451 H 701.631 0.311698 -4.03498 0
M  V30 7452 H 700.201 0.700769 -3.04644 0
M  V30 7453 H 699.421 -1.73556 -3.53938 0
M  V30 7454 H 700.709 -1.81095 -4.75481 0
M  V30 7455 H 700.107 1.27918 -5.51048 0
M  V30 7456 H 698.664 1.09692 -6.42504 0
M  V30 7457 N 702.098 1.27442 -0.927168 0
M  V30 7458 C 703.509 1.76385 -0.611979 0
M  V30 7459 C 703.86 1.75715 0.872853 0
M  V30 7460 O 702.985 1.3603 1.683 0
M  V30 7461 C 703.58 3.20303 -1.10414 0
M  V30 7462 C 702.139 3.66916 -0.839628 0
M  V30 7463 C 701.286 2.46859 -1.26317 0
M  V30 7464 H 704.237 1.13716 -1.107 0
M  V30 7465 H 704.258 3.77811 -0.451578 0
M  V30 7466 H 703.77 3.20759 -2.18484 0
M  V30 7467 H 701.871 3.71906 0.227292 0
M  V30 7468 H 701.984 4.56415 -1.45679 0
M  V30 7469 H 700.348 2.45407 -0.681723 0
M  V30 7470 H 701.131 2.50025 -2.3525 0
M  V30 7471 N 703.576 0.692616 1.41565 0
M  V30 7472 C 704.508 -0.0137132 2.29196 0
M  V30 7473 C 705.521 -0.747417 1.44629 0
M  V30 7474 O 706.71 -0.598611 1.68163 0
M  V30 7475 C 703.81 -1.04347 3.22436 0
M  V30 7476 C 702.983 -0.379985 4.35746 0
M  V30 7477 C 702.042 -1.31195 5.09583 0
M  V30 7478 O 701.068 -0.805455 5.63472 0
M  V30 7479 N 702.27 -2.64443 5.16769 0
M  V30 7480 H 705.035 0.738614 2.90456 0
M  V30 7481 H 702.596 0.538415 1.52685 0
M  V30 7482 H 704.588 -1.6686 3.687 0
M  V30 7483 H 703.158 -1.69736 2.62504 0
M  V30 7484 H 702.378 0.424975 3.91903 0
M  V30 7485 H 703.666 0.0814904 5.08735 0
M  V30 7486 H 703.064 -3.08114 4.74428 0
M  V30 7487 H 701.621 -3.22159 5.66619 0
M  V30 7488 N 705.054 -1.51416 0.437162 0
M  V30 7489 C 706.331 -1.94682 -0.189292 0
M  V30 7490 C 706.711 -1.37581 -1.60108 0
M  V30 7491 O 706.059 -0.562815 -2.2146 0
M  V30 7492 C 706.269 -3.48599 -0.167201 0
M  V30 7493 C 707.617 -4.2296 -0.372856 0
M  V30 7494 O 708.641 -3.55354 -0.245323 0
M  V30 7495 O 707.5 -5.42895 -0.626693 0
M  V30 7496 H 704.594 -0.816708 -0.130063 0
M  V30 7497 H 707.14 -1.62316 0.495128 0
M  V30 7498 H 705.912 -3.82616 0.81981 0
M  V30 7499 H 705.535 -3.87406 -0.894537 0
M  V30 7500 N 706.532 -0.168513 -1.56696 0
M  V30 7501 C 707.778 0.477865 -1.9709 0
M  V30 7502 C 708.111 1.63084 -1.05438 0
M  V30 7503 O 707.386 1.94238 -0.10095 0
M  V30 7504 C 707.669 0.963521 -3.4697 0
M  V30 7505 C 707.522 -0.189443 -4.49401 0
M  V30 7506 C 708.841 1.83813 -3.99876 0
M  V30 7507 H 705.96 0.172229 -0.716593 0
M  V30 7508 H 708.602 -0.254083 -1.88293 0
M  V30 7509 H 706.752 1.58724 -3.54597 0
M  V30 7510 H 708.424 -0.826451 -4.53836 0
M  V30 7511 H 706.667 -0.845366 -4.25483 0
M  V30 7512 H 707.338 0.192446 -5.51664 0
M  V30 7513 H 709.814 1.31235 -3.94863 0
M  V30 7514 H 708.69 2.14697 -5.0517 0
M  V30 7515 H 708.951 2.78289 -3.43523 0
M  V30 7516 N 708.01 1.57248 0.105221 0
M  V30 7517 C 709.287 1.76566 0.841647 0
M  V30 7518 C 709.667 0.747566 1.9742 0
M  V30 7519 O 709.015 -0.225886 2.27381 0
M  V30 7520 C 709.225 3.22016 1.3456 0
M  V30 7521 C 710.573 3.84911 1.79244 0
M  V30 7522 O 711.597 3.25703 1.44207 0
M  V30 7523 O 710.456 4.89008 2.43995 0
M  V30 7524 H 707.55 0.723443 0.400698 0
M  V30 7525 H 710.096 1.69472 0.0878893 0
M  V30 7526 H 708.868 3.87644 0.533685 0
M  V30 7527 H 708.491 3.33703 2.16167 0
M  V30 7528 N 709.488 -0.375779 1.53054 0
M  V30 7529 C 710.418 -1.46598 1.81745 0
M  V30 7530 C 711.399 -1.56337 0.670286 0
M  V30 7531 O 712.584 -1.71071 0.919158 0
M  V30 7532 C 709.714 -2.84058 1.99821 0
M  V30 7533 C 708.668 -2.8915 3.15557 0
M  V30 7534 C 707.994 -4.29187 3.18908 0
M  V30 7535 C 709.294 -2.57595 4.54359 0
M  V30 7536 H 710.988 -1.22837 2.73041 0
M  V30 7537 H 708.534 -0.589485 1.31381 0
M  V30 7538 H 710.487 -3.60342 2.18475 0
M  V30 7539 H 709.211 -3.09184 1.05226 0
M  V30 7540 H 707.87 -2.15316 2.96706 0
M  V30 7541 H 707.518 -4.51374 2.2197 0
M  V30 7542 H 707.218 -4.33512 3.96662 0
M  V30 7543 H 708.742 -5.07359 3.39734 0
M  V30 7544 H 710.156 -3.23595 4.73243 0
M  V30 7545 H 708.553 -2.73252 5.34279 0
M  V30 7546 H 709.623 -1.52882 4.60169 0
M  V30 7547 N 710.966 -1.44241 -0.634997 0
M  V30 7548 C 711.929 -1.50457 -1.72903 0
M  V30 7549 C 712.929 -0.387058 -1.56072 0
M  V30 7550 O 714.119 -0.649531 -1.61638 0
M  V30 7551 C 711.251 -1.37477 -3.1195 0
M  V30 7552 H 712.444 -2.47907 -1.68767 0
M  V30 7553 H 709.997 -1.31276 -0.84831 0
M  V30 7554 H 710.732 -0.41106 -3.21684 0
M  V30 7555 H 710.517 -2.18506 -3.25573 0
M  V30 7556 H 712.007 -1.44799 -3.91692 0
M  V30 7557 N 712.444 0.87505 -1.31075 0
M  V30 7558 C 713.374 1.99775 -1.20881 0
M  V30 7559 C 714.355 1.69822 -0.0971612 0
M  V30 7560 O 715.54 1.92158 -0.280895 0
M  V30 7561 C 712.67 3.35163 -0.910118 0
M  V30 7562 C 711.624 3.79406 -1.98078 0
M  V30 7563 C 710.95 5.12197 -1.53488 0
M  V30 7564 C 712.25 3.97061 -3.39323 0
M  V30 7565 H 713.944 2.08562 -2.14808 0
M  V30 7566 H 711.49 1.00207 -1.03415 0
M  V30 7567 H 713.443 4.13237 -0.825423 0
M  V30 7568 H 712.167 3.26536 0.064822 0
M  V30 7569 H 710.826 3.03568 -2.05528 0
M  V30 7570 H 710.474 5.00007 -0.547941 0
M  V30 7571 H 710.174 5.4277 -2.2511 0
M  V30 7572 H 711.698 5.92785 -1.46417 0
M  V30 7573 H 713.112 4.65545 -3.34576 0
M  V30 7574 H 711.509 4.39025 -4.09118 0
M  V30 7575 H 712.579 3.00601 -3.80483 0
M  V30 7576 N 713.922 1.13953 1.08869 0
M  V30 7577 C 715.199 0.815768 1.77777 0
M  V30 7578 C 715.579 -0.691624 1.99449 0
M  V30 7579 O 714.927 -1.63085 1.60049 0
M  V30 7580 C 715.137 1.60916 3.09689 0
M  V30 7581 C 716.485 1.80549 3.84301 0
M  V30 7582 O 717.509 1.57562 3.19457 0
M  V30 7583 O 716.368 2.18946 5.00724 0
M  V30 7584 H 713.462 0.298445 0.771271 0
M  V30 7585 H 716.008 1.24446 1.15374 0
M  V30 7586 H 714.78 2.6333 2.89435 0
M  V30 7587 H 714.403 1.17578 3.79817 0
M  V30 7588 N 715.4 -1.26948 0.933913 0
M  V30 7589 C 716.625 -1.98724 0.593589 0
M  V30 7590 C 717.05 -1.6915 -0.822801 0
M  V30 7591 O 716.408 -0.93533 -1.5531 0
M  V30 7592 C 716.456 -3.50834 0.833542 0
M  V30 7593 O 715.56 -4.12284 -0.0978788 0
M  V30 7594 H 714.901 -0.623683 0.227849 0
M  V30 7595 H 717.431 -1.61599 1.25486 0
M  V30 7596 H 717.441 -4.01018 0.75156 0
M  V30 7597 H 716.116 -3.71691 1.86597 0
M  V30 7598 H 714.693 -3.72884 0.0345443 0
M  V30 7599 N 716.879 -0.700114 -1.41195 0
M  V30 7600 C 718.127 -0.232546 -2.00758 0
M  V30 7601 C 718.448 1.1734 -1.55745 0
M  V30 7602 O 717.718 1.79262 -0.790058 0
M  V30 7603 H 716.298 -0.0829845 -0.742376 0
M  V30 7604 H 718.96 -0.902289 -1.72756 0
M  V30 7605 H 718.056 -0.253521 -3.11069 0
M  V30 7606 N 718.357 1.51182 -0.445186 0
M  V30 7607 C 719.32 2.26501 0.350722 0
M  V30 7608 C 720.32 1.3025 0.942952 0
M  V30 7609 O 721.51 1.53897 0.816175 0
M  V30 7610 C 718.642 3.06274 1.49697 0
M  V30 7611 H 719.835 2.98299 -0.309474 0
M  V30 7612 H 717.388 1.55034 -0.198551 0
M  V30 7613 H 718.123 2.38911 2.19299 0
M  V30 7614 H 717.908 3.76979 1.0784 0
M  V30 7615 H 719.398 3.63306 2.05909 0
M  V30 7616 N 719.835 0.176821 1.56605 0
M  V30 7617 C 721.06 -0.47599 2.01864 0
M  V30 7618 C 721.485 -1.55645 1.05623 0
M  V30 7619 O 720.843 -1.81263 0.0366729 0
M  V30 7620 C 720.891 -1.02619 3.4569 0
M  V30 7621 O 719.995 -2.13996 3.52533 0
M  V30 7622 H 719.336 -0.113363 0.654251 0
M  V30 7623 H 721.866 0.28233 2.02643 0
M  V30 7624 H 721.876 -1.34742 3.85109 0
M  V30 7625 H 720.551 -0.235138 4.15235 0
M  V30 7626 H 719.128 -1.82876 3.24978 0
M  V30 7627 N 721.313 -1.57302 -0.09688 0
M  V30 7628 C 722.243 -2.0497 -1.11846 0
M  V30 7629 C 723.224 -0.938278 -1.41882 0
M  V30 7630 O 724.409 -1.20943 -1.51942 0
M  V30 7631 C 721.539 -2.47264 -2.43881 0
M  V30 7632 C 720.493 -3.62053 -2.28257 0
M  V30 7633 C 719.819 -3.90318 -3.65453 0
M  V30 7634 C 721.119 -4.93005 -1.72461 0
M  V30 7635 H 722.813 -2.90567 -0.721888 0
M  V30 7636 H 720.359 -1.39786 -0.345803 0
M  V30 7637 H 722.312 -2.7922 -3.15617 0
M  V30 7638 H 721.036 -1.58664 -2.8547 0
M  V30 7639 H 719.695 -3.30341 -1.58967 0
M  V30 7640 H 719.343 -2.98889 -4.04567 0
M  V30 7641 H 719.043 -4.67597 -3.55846 0
M  V30 7642 H 720.567 -4.24747 -4.3866 0
M  V30 7643 H 721.981 -5.23354 -2.34036 0
M  V30 7644 H 720.378 -5.74436 -1.73618 0
M  V30 7645 H 721.448 -4.80053 -0.683898 0
M  V30 7646 N 722.791 0.367657 -1.53252 0
M  V30 7647 C 723.721 1.45632 -1.8252 0
M  V30 7648 C 724.702 1.55979 -0.678568 0
M  V30 7649 O 725.887 1.70581 -0.928217 0
M  V30 7650 C 723.017 2.82994 -2.01325 0
M  V30 7651 C 721.971 2.87473 -3.17086 0
M  V30 7652 C 721.297 4.2749 -3.21179 0
M  V30 7653 C 722.597 2.55182 -4.55719 0
M  V30 7654 H 724.291 1.21387 -2.73689 0
M  V30 7655 H 721.837 0.58251 -1.31692 0
M  V30 7656 H 723.79 3.59179 -2.20383 0
M  V30 7657 H 722.514 3.08622 -1.06864 0
M  V30 7658 H 721.173 2.13739 -2.97844 0
M  V30 7659 H 720.821 4.5019 -2.24361 0
M  V30 7660 H 720.521 4.31403 -3.98955 0
M  V30 7661 H 722.045 5.0555 -3.42419 0
M  V30 7662 H 723.459 3.21081 -4.74953 0
M  V30 7663 H 721.856 2.70414 -5.3572 0
M  V30 7664 H 722.926 1.5044 -4.60973 0
M  V30 7665 N 724.269 1.44576 0.627338 0
M  V30 7666 C 725.219 1.48168 1.73293 0
M  V30 7667 C 726.203 0.347045 1.57113 0
M  V30 7668 O 727.395 0.592605 1.66785 0
M  V30 7669 C 724.524 1.43236 3.11991 0
M  V30 7670 C 723.61 2.61828 3.33627 0
M  V30 7671 N 724.001 3.87053 3.25612 0
M  V30 7672 C 722.299 2.57104 3.64436 0
M  V30 7673 C 723 4.66093 3.48041 0
M  V30 7674 N 721.976 3.97228 3.71095 0
M  V30 7675 H 725.778 2.42832 1.6556 0
M  V30 7676 H 723.292 1.39592 0.829934 0
M  V30 7677 H 725.289 1.43893 3.91281 0
M  V30 7678 H 723.949 0.496133 3.20887 0
M  V30 7679 H 724.96 4.18966 3.04447 0
M  V30 7680 H 721.637 1.72295 3.8029 0
M  V30 7681 H 723.027 5.75117 3.47404 0
M  V30 7682 N 725.747 -0.868086 1.31537 0
M  V30 7683 C 726.677 -1.99131 1.21939 0
M  V30 7684 C 727.658 -1.69768 0.106166 0
M  V30 7685 O 728.843 -1.92006 0.291081 0
M  V30 7686 C 725.973 -3.34676 0.927879 0
M  V30 7687 C 724.927 -3.7835 2.00088 0
M  V30 7688 C 724.253 -5.11375 1.56203 0
M  V30 7689 C 725.553 -3.95256 3.41424 0
M  V30 7690 H 727.247 -2.07419 2.15911 0
M  V30 7691 H 724.793 -0.996569 1.03945 0
M  V30 7692 H 726.746 -4.12793 0.847327 0
M  V30 7693 H 725.47 -3.26565 -0.0475042 0
M  V30 7694 H 724.129 -3.02474 2.07135 0
M  V30 7695 H 723.777 -4.99709 0.57445 0
M  V30 7696 H 723.477 -5.41568 2.27985 0
M  V30 7697 H 725.001 -5.92001 1.49558 0
M  V30 7698 H 726.415 -4.63764 3.3704 0
M  V30 7699 H 724.812 -4.36849 4.1144 0
M  V30 7700 H 725.882 -2.98579 3.82072 0
M  V30 7701 N 727.225 -1.14528 -1.08264 0
M  V30 7702 C 728.188 -0.83632 -2.13397 0
M  V30 7703 C 729.188 0.159715 -1.60005 0
M  V30 7704 O 730.378 -0.0688098 -1.74064 0
M  V30 7705 C 727.51 -0.246973 -3.40004 0
M  V30 7706 H 728.703 -1.76808 -2.42237 0
M  V30 7707 H 726.256 -0.951509 -1.24 0
M  V30 7708 H 726.991 0.693436 -3.168 0
M  V30 7709 H 726.776 -0.964412 -3.80055 0
M  V30 7710 H 728.266 -0.0480679 -4.17572 0
M  V30 7711 N 728.703 1.26451 -0.940633 0
M  V30 7712 C 729.949 1.94065 -0.58878 0
M  V30 7713 C 730.282 1.7363 0.869853 0
M  V30 7714 O 729.557 1.073 1.62225 0
M  V30 7715 C 729.84 3.47852 -0.931199 0
M  V30 7716 C 729.693 3.77575 -2.44453 0
M  V30 7717 C 731.012 4.37832 -0.446229 0
M  V30 7718 H 728.131 0.704827 -0.21538 0
M  V30 7719 H 730.773 1.4933 -1.17475 0
M  V30 7720 H 728.923 3.86085 -0.432539 0
M  V30 7721 H 730.595 3.49059 -3.01588 0
M  V30 7722 H 728.838 3.23671 -2.88825 0
M  V30 7723 H 729.509 4.85068 -2.63464 0
M  V30 7724 H 731.985 4.06822 -0.873778 0
M  V30 7725 H 730.861 5.44228 -0.714648 0
M  V30 7726 H 731.122 4.37239 0.653815 0
M  V30 7727 N 730.181 0.707592 1.40822 0
M  V30 7728 C 731.091 0.0507246 2.34545 0
M  V30 7729 C 732.107 -0.752727 1.56876 0
M  V30 7730 O 733.283 -0.687524 1.89302 0
M  V30 7731 C 730.348 -0.865731 3.35717 0
M  V30 7732 C 729.409 -0.0531313 4.29267 0
M  V30 7733 C 728.642 -0.925939 5.25606 0
M  V30 7734 O 728.865 -2.16531 5.27703 0
M  V30 7735 O 727.799 -0.369194 6.00767 0
M  V30 7736 H 731.625 0.823587 2.9232 0
M  V30 7737 H 729.21 0.46801 1.4188 0
M  V30 7738 H 731.092 -1.39091 3.97783 0
M  V30 7739 H 729.767 -1.61788 2.80368 0
M  V30 7740 H 728.674 0.516931 3.70511 0
M  V30 7741 H 730.007 0.660617 4.87747 0
M  V30 7742 N 731.66 -1.50943 0.453197 0
M  V30 7743 C 732.623 -2.26684 -0.338705 0
M  V30 7744 C 733.623 -1.30748 -0.936032 0
M  V30 7745 O 734.813 -1.54327 -0.808002 0
M  V30 7746 C 731.945 -3.07063 -1.48071 0
M  V30 7747 H 733.138 -2.98131 0.325289 0
M  V30 7748 H 730.691 -1.54926 0.206771 0
M  V30 7749 H 731.426 -2.4007 -2.18029 0
M  V30 7750 H 731.211 -3.77545 -1.0584 0
M  V30 7751 H 732.701 -3.64393 -2.0398 0
M  V30 7752 N 733.138 -0.185124 -1.56509 0
M  V30 7753 C 734.386 0.455357 -1.96903 0
M  V30 7754 C 734.707 1.62839 -1.07277 0
M  V30 7755 O 733.977 1.95385 -0.141966 0
M  V30 7756 H 732.557 0.171218 -0.727113 0
M  V30 7757 H 735.219 -0.26953 -1.93027 0
M  V30 7758 H 734.315 0.80616 -3.01509 0
M  V30 7759 N 734.616 1.57351 0.0885366 0
M  V30 7760 C 735.548 1.99221 1.13329 0
M  V30 7761 C 736.561 0.895705 1.35945 0
M  V30 7762 O 737.75 1.17376 1.34481 0
M  V30 7763 C 734.85 2.3016 2.48756 0
M  V30 7764 C 734.023 3.61444 2.46327 0
M  V30 7765 C 733.082 3.80244 3.63732 0
M  V30 7766 O 732.108 4.52024 3.45924 0
M  V30 7767 N 733.31 3.2132 4.8346 0
M  V30 7768 H 736.075 2.89456 0.776862 0
M  V30 7769 H 733.636 1.59505 0.277428 0
M  V30 7770 H 735.628 2.39925 3.25911 0
M  V30 7771 H 734.198 1.459 2.76464 0
M  V30 7772 H 733.418 3.62588 1.54673 0
M  V30 7773 H 734.706 4.47678 2.41789 0
M  V30 7774 H 734.104 2.63028 5.00832 0
M  V30 7775 H 732.661 3.3656 5.58185 0
M  V30 7776 N 736.094 -0.359525 1.53444 0
M  V30 7777 C 737.004 -1.46445 1.83278 0
M  V30 7778 C 738.02 -1.5833 0.721629 0
M  V30 7779 O 739.196 -1.7411 1.01231 0
M  V30 7780 C 736.261 -2.81638 2.02191 0
M  V30 7781 C 735.322 -2.7923 3.26082 0
M  V30 7782 C 734.555 -4.07974 3.44082 0
M  V30 7783 O 734.778 -5.04447 2.66251 0
M  V30 7784 O 733.712 -4.13417 4.37458 0
M  V30 7785 H 737.538 -1.24156 2.77162 0
M  V30 7786 H 735.123 -0.550201 1.389 0
M  V30 7787 H 737.005 -3.61732 2.16167 0
M  V30 7788 H 735.68 -3.03892 1.11496 0
M  V30 7789 H 734.587 -1.97813 3.17523 0
M  V30 7790 H 735.92 -2.6193 4.16718 0
M  V30 7791 N 737.572 -1.44907 -0.619662 0
M  V30 7792 C 738.482 -1.55168 -1.75955 0
M  V30 7793 C 739.498 -0.43672 -1.6843 0
M  V30 7794 O 740.674 -0.695704 -1.89002 0
M  V30 7795 C 737.739 -1.50397 -3.12381 0
M  V30 7796 C 736.8 -2.72835 -3.31451 0
M  V30 7797 C 736.033 -2.68283 -4.61368 0
M  V30 7798 O 736.256 -1.74929 -5.42914 0
M  V30 7799 O 735.19 -3.59308 -4.82889 0
M  V30 7800 H 739.016 -2.51493 -1.7025 0
M  V30 7801 H 736.601 -1.27282 -0.782289 0
M  V30 7802 H 738.483 -1.50301 -3.93685 0
M  V30 7803 H 737.158 -0.572197 -3.18603 0
M  V30 7804 H 736.065 -2.78496 -2.49781 0
M  V30 7805 H 737.398 -3.65098 -3.30098 0
M  V30 7806 N 739.05 0.861098 -1.31996 0
M  V30 7807 C 740.29 1.62873 -1.23498 0
M  V30 7808 C 740.654 1.90938 0.201692 0
M  V30 7809 O 741.855 2.6565 0.410305 0
M  V30 7810 C 740.126 2.91759 -2.06426 0
M  V30 7811 S 741.685 3.82583 -2.14885 0
M  V30 7812 H 738.503 0.558726 -0.439712 0
M  V30 7813 H 741.105 1.02025 -1.66767 0
M  V30 7814 H 739.809 2.69077 -3.0988 0
M  V30 7815 H 739.34 3.57627 -1.6391 0
M  V30 7816 H 741.355 4.7904 -1.29364 0
M  V30 7817 N 740.528 1.15101 1.07655 0
M  V30 7818 C 741.491 0.847625 2.12951 0
M  V30 7819 C 742.491 -0.151227 1.60087 0
M  V30 7820 O 743.681 0.0780399 1.74025 0
M  V30 7821 C 740.813 0.265 3.39868 0
M  V30 7822 H 742.006 1.7809 2.41296 0
M  V30 7823 H 739.559 0.958072 1.23494 0
M  V30 7824 H 740.294 -0.676625 3.17163 0
M  V30 7825 H 740.079 0.984554 3.79538 0
M  V30 7826 H 741.569 0.0702121 4.17541 0
M  V30 7827 N 742.006 -1.2595 0.947325 0
M  V30 7828 C 742.953 -2.26159 0.460497 0
M  V30 7829 C 743.923 -1.58919 -0.483125 0
M  V30 7830 O 745.108 -1.86603 -0.397983 0
M  V30 7831 C 742.248 -3.441 -0.26247 0
M  V30 7832 C 741.361 -4.25999 0.717539 0
M  V30 7833 C 740.496 -5.31193 -0.0272486 0
M  V30 7834 C 739.535 -6.04774 0.944177 0
M  V30 7835 N 738.672 -7.01721 0.230741 0
M  V30 7836 H 743.512 -2.67173 1.31995 0
M  V30 7837 H 741.049 -1.31358 0.662088 0
M  V30 7838 H 743.007 -4.11317 -0.698137 0
M  V30 7839 H 741.637 -3.03983 -1.08602 0
M  V30 7840 H 740.689 -3.58513 1.27171 0
M  V30 7841 H 742.001 -4.76981 1.45913 0
M  V30 7842 H 741.155 -6.04451 -0.521903 0
M  V30 7843 H 739.894 -4.81066 -0.801682 0
M  V30 7844 H 738.899 -5.30338 1.4499 0
M  V30 7845 H 740.124 -6.56991 1.71872 0
M  V30 7846 H 738.07 -6.53895 -0.525088 0
M  V30 7847 H 737.987 -7.50484 0.911556 0
M  V30 7848 H 739.255 -7.79122 -0.242616 0
M  V30 7849 N 743.484 -0.715051 -1.40445 0
M  V30 7850 C 744.73 -0.263528 -2.01686 0
M  V30 7851 C 745.085 1.13052 -1.55683 0
M  V30 7852 O 744.378 1.75588 -0.766762 0
M  V30 7853 C 744.572 -0.281791 -3.56287 0
M  V30 7854 C 744.401 -1.67607 -4.17298 0
M  V30 7855 C 743.171 -2.2836 -4.50755 0
M  V30 7856 C 745.369 -2.62621 -4.42193 0
M  V30 7857 N 743.351 -3.6015 -4.97157 0
M  V30 7858 C 744.722 -3.79116 -4.90582 0
M  V30 7859 C 746.777 -2.60639 -4.24231 0
M  V30 7860 C 745.48 -4.93937 -5.22895 0
M  V30 7861 C 747.506 -3.74587 -4.57644 0
M  V30 7862 C 746.868 -4.89815 -5.06222 0
M  V30 7863 H 742.967 -0.142252 -0.768953 0
M  V30 7864 H 745.551 -0.936732 -1.70685 0
M  V30 7865 H 743.722 0.360975 -3.86719 0
M  V30 7866 H 745.454 0.186393 -4.04271 0
M  V30 7867 H 742.209 -1.80463 -4.3787 0
M  V30 7868 H 742.633 -4.27757 -5.24741 0
M  V30 7869 H 747.275 -1.72759 -3.85894 0
M  V30 7870 H 744.993 -5.82462 -5.60146 0
M  V30 7871 H 748.579 -3.74328 -4.45387 0
M  V30 7872 H 747.459 -5.76525 -5.3159 0
M  V30 7873 N 744.962 1.50701 -0.461195 0
M  V30 7874 C 745.892 2.31182 0.328184 0
M  V30 7875 C 746.873 1.37644 0.999408 0
M  V30 7876 O 748.058 1.66565 0.99848 0
M  V30 7877 C 745.188 3.17113 1.41621 0
M  V30 7878 C 744.142 4.19124 0.867148 0
M  V30 7879 C 743.468 4.93728 2.05272 0
M  V30 7880 C 744.768 5.22174 -0.114808 0
M  V30 7881 H 746.462 2.97423 -0.343501 0
M  V30 7882 H 744.008 1.43033 -0.166641 0
M  V30 7883 H 745.961 3.72208 1.97584 0
M  V30 7884 H 744.685 2.48739 2.11652 0
M  V30 7885 H 743.344 3.65116 0.329557 0
M  V30 7886 H 742.992 4.21835 2.73978 0
M  V30 7887 H 742.692 5.62724 1.69161 0
M  V30 7888 H 744.216 5.51654 2.61744 0
M  V30 7889 H 745.63 5.72198 0.355316 0
M  V30 7890 H 744.027 5.98833 -0.389689 0
M  V30 7891 H 745.097 4.7353 -1.04391 0
M  V30 7892 N 746.441 0.193421 1.56409 0
M  V30 7893 C 747.371 -0.723334 2.22014 0
M  V30 7894 C 748.352 -1.22254 1.1827 0
M  V30 7895 O 749.537 -1.27168 1.46771 0
M  V30 7896 C 746.667 -1.94366 2.87818 0
M  V30 7897 C 745.621 -1.57943 3.97791 0
M  V30 7898 C 744.947 -2.87623 4.50752 0
M  V30 7899 C 746.247 -0.790639 5.16281 0
M  V30 7900 H 747.941 -0.176426 2.9888 0
M  V30 7901 H 745.487 -0.0834166 1.43758 0
M  V30 7902 H 747.44 -2.5902 3.32396 0
M  V30 7903 H 746.164 -2.51507 2.08355 0
M  V30 7904 H 744.823 -0.956482 3.53903 0
M  V30 7905 H 744.471 -3.4285 3.68053 0
M  V30 7906 H 744.171 -2.63998 5.24956 0
M  V30 7907 H 745.695 -3.53268 4.9803 0
M  V30 7908 H 747.109 -1.34024 5.57414 0
M  V30 7909 H 745.506 -0.65258 5.96541 0
M  V30 7910 H 746.576 0.208633 4.84451 0
M  V30 7911 N 747.919 -1.57396 -0.0801906 0
M  V30 7912 C 748.849 -2.06145 -1.09665 0
M  V30 7913 C 749.83 -0.953273 -1.40878 0
M  V30 7914 O 751.015 -1.22548 -1.50651 0
M  V30 7915 C 748.145 -2.49836 -2.41245 0
M  V30 7916 C 747.099 -3.64454 -2.24405 0
M  V30 7917 C 746.425 -3.94172 -3.61293 0
M  V30 7918 C 747.725 -4.94807 -1.67223 0
M  V30 7919 H 749.419 -2.91316 -0.691028 0
M  V30 7920 H 746.965 -1.40145 -0.330957 0
M  V30 7921 H 748.918 -2.82552 -3.12638 0
M  V30 7922 H 747.642 -1.61683 -2.83771 0
M  V30 7923 H 746.301 -3.32008 -1.55454 0
M  V30 7924 H 745.949 -3.03163 -4.01374 0
M  V30 7925 H 745.649 -4.71345 -3.50867 0
M  V30 7926 H 747.173 -4.29376 -4.3413 0
M  V30 7927 H 748.587 -5.25807 -2.28472 0
M  V30 7928 H 746.984 -5.76245 -1.67515 0
M  V30 7929 H 748.054 -4.80751 -0.632944 0
M  V30 7930 N 749.397 0.351382 -1.53633 0
M  V30 7931 C 750.345 1.45142 -1.8176 0
M  V30 7932 C 751.339 1.54819 -0.687571 0
M  V30 7933 O 752.545 1.57536 -0.870772 0
M  V30 7934 H 748.92 0.483789 -0.575719 0
M  V30 7935 H 750.891 1.1863 -2.73806 0
M  V30 7936 C 749.64 2.81779 -2.03706 0
M  V30 7937 H 748.963 2.75097 -2.90107 0
M  V30 7938 H 750.403 3.5789 -2.27356 0
M  V30 7939 C 748.862 3.26762 -0.820271 0
M  V30 7940 O 749.392 4.01697 -0.0158603 0
M  V30 7941 N 747.598 2.83472 -0.639699 0
M  V30 7942 H 747.145 2.22655 -1.29547 0
M  V30 7943 H 747.103 3.13924 0.172995 0
M  V30 7944 N 750.875 1.45233 0.611969 0
M  V30 7945 C 751.823 1.53898 1.74408 0
M  V30 7946 C 752.817 0.409254 1.64382 0
M  V30 7947 O 754.023 0.584988 1.70229 0
M  V30 7948 H 750.398 0.483303 0.576127 0
M  V30 7949 H 752.369 2.49143 1.64227 0
M  V30 7950 C 751.118 1.51865 3.12782 0
M  V30 7951 H 750.441 2.38118 3.21154 0
M  V30 7952 H 751.881 1.61986 3.91838 0
M  V30 7953 C 750.34 0.242374 3.36027 0
M  V30 7954 O 750.87 -0.679587 3.9591 0
M  V30 7955 N 749.076 0.139448 2.90265 0
M  V30 7956 H 748.623 0.890571 2.41716 0
M  V30 7957 H 748.581 -0.713686 3.06193 0
M  V30 7958 N 752.353 -0.854086 1.3245 0
M  V30 7959 C 753.316 -1.94427 1.21371 0
M  V30 7960 C 754.316 -1.60219 0.136613 0
M  V30 7961 O 755.506 -1.69846 0.387057 0
M  V30 7962 C 752.638 -3.29698 0.866701 0
M  V30 7963 H 753.831 -2.05679 2.18257 0
M  V30 7964 H 751.384 -1.04434 1.1629 0
M  V30 7965 H 752.119 -3.24145 -0.100319 0
M  V30 7966 H 751.904 -3.55903 1.64545 0
M  V30 7967 H 753.394 -4.09599 0.813515 0
M  V30 7968 N 753.831 -1.1567 -1.07043 0
M  V30 7969 C 754.779 -0.852204 -2.16426 0
M  V30 7970 C 755.773 0.175661 -1.68487 0
M  V30 7971 O 756.979 0.0303874 -1.79974 0
M  V30 7972 H 753.354 -0.257942 -0.706378 0
M  V30 7973 H 755.325 -1.78231 -2.39324 0
M  V30 7974 C 754.074 -0.361362 -3.45817 0
M  V30 7975 H 753.397 -1.14369 -3.83092 0
M  V30 7976 H 754.837 -0.186997 -4.23587 0
M  V30 7977 C 753.296 0.917703 -3.2416 0
M  V30 7978 O 753.826 1.98858 -3.49025 0
M  V30 7979 N 752.032 0.858456 -2.77631 0
M  V30 7980 H 751.579 -0.0131821 -2.57597 0
M  V30 7981 H 751.537 1.71478 -2.6352 0
M  V30 7982 N 755.309 1.25446 -0.953992 0
M  V30 7983 C 756.72 1.75047 -0.649255 0
M  V30 7984 C 757.071 1.77527 0.835385 0
M  V30 7985 O 756.196 1.39569 1.65377 0
M  V30 7986 C 756.791 3.17889 -1.17183 0
M  V30 7987 C 755.35 3.65052 -0.917267 0
M  V30 7988 C 754.497 2.44124 -1.31525 0
M  V30 7989 H 757.448 1.11342 -1.13087 0
M  V30 7990 H 757.469 3.76768 -0.531616 0
M  V30 7991 H 756.981 3.16052 -2.25239 0
M  V30 7992 H 755.082 3.72305 0.148354 0
M  V30 7993 H 755.195 4.53222 -1.55328 0
M  V30 7994 H 753.559 2.43906 -0.733624 0
M  V30 7995 H 754.342 2.44979 -2.405 0
M  V30 7996 N 756.787 0.722489 1.40064 0
M  V30 7997 C 757.735 0.063329 2.32514 0
M  V30 7998 C 758.729 -0.73953 1.52405 0
M  V30 7999 O 759.935 -0.642122 1.68157 0
M  V30 8000 H 756.31 0.00167692 0.751998 0
M  V30 8001 H 758.281 0.859656 2.85749 0
M  V30 8002 C 757.03 -0.839219 3.3742 0
M  V30 8003 H 756.353 -0.230836 3.99133 0
M  V30 8004 H 757.793 -1.26827 4.04587 0
M  V30 8005 C 756.252 -1.96783 2.73456 0
M  V30 8006 O 756.782 -3.05933 2.60323 0
M  V30 8007 N 754.988 -1.75351 2.31734 0
M  V30 8008 H 754.535 -0.865787 2.42615 0
M  V30 8009 H 754.493 -2.51043 1.89275 0
M  V30 8010 N 758.265 -1.50454 0.469181 0
M  V30 8011 C 759.195 -2.31353 -0.31592 0
M  V30 8012 C 760.176 -1.38172 -0.992094 0
M  V30 8013 O 761.361 -1.67093 -0.989633 0
M  V30 8014 C 758.491 -3.1786 -1.39937 0
M  V30 8015 C 757.445 -4.19578 -0.844909 0
M  V30 8016 C 756.771 -4.9481 -2.0265 0
M  V30 8017 C 758.071 -5.22106 0.142499 0
M  V30 8018 H 759.765 -2.97237 0.359269 0
M  V30 8019 H 757.311 -1.42942 0.174224 0
M  V30 8020 H 759.264 -3.7325 -1.95607 0
M  V30 8021 H 757.988 -2.49858 -2.1033 0
M  V30 8022 H 756.647 -3.65285 -0.310189 0
M  V30 8023 H 756.295 -4.23282 -2.71737 0
M  V30 8024 H 755.995 -5.63613 -1.66174 0
M  V30 8025 H 757.519 -5.53035 -2.58815 0
M  V30 8026 H 758.933 -5.72378 -0.324966 0
M  V30 8027 H 757.33 -5.98618 0.421441 0
M  V30 8028 H 758.4 -4.7297 1.06901 0
M  V30 8029 N 759.743 -0.201713 -1.56304 0
M  V30 8030 C 760.968 0.443815 -2.02596 0
M  V30 8031 C 761.393 1.53945 -1.08086 0
M  V30 8032 O 760.751 1.81182 -0.0655056 0
M  V30 8033 C 760.799 0.971066 -3.47279 0
M  V30 8034 O 759.903 2.0836 -3.55893 0
M  V30 8035 H 759.244 0.10294 -0.655972 0
M  V30 8036 H 761.774 -0.314533 -2.02168 0
M  V30 8037 H 761.784 1.28598 -3.87204 0
M  V30 8038 H 760.459 0.169048 -4.15556 0
M  V30 8039 H 759.036 1.77683 -3.27846 0
M  V30 8040 N 761.222 1.57436 0.0718424 0
M  V30 8041 C 762.17 2.04725 1.10411 0
M  V30 8042 C 763.164 0.952579 1.4008 0
M  V30 8043 O 764.37 1.13769 1.39487 0
M  V30 8044 H 760.745 0.652749 0.373393 0
M  V30 8045 H 762.716 2.90569 0.679126 0
M  V30 8046 C 761.465 2.5068 2.40946 0
M  V30 8047 H 760.788 3.34505 2.18967 0
M  V30 8048 H 762.228 2.87521 3.11621 0
M  V30 8049 C 760.687 1.38971 3.06902 0
M  V30 8050 O 761.217 0.731786 3.94978 0
M  V30 8051 N 759.423 1.13485 2.67525 0
M  V30 8052 H 758.97 1.67168 1.95991 0
M  V30 8053 H 758.928 0.389467 3.11978 0
M  V30 8054 N 762.7 -0.34323 1.53817 0
M  V30 8055 C 764.116 -0.686355 1.44088 0
M  V30 8056 C 764.316 -1.92426 0.597882 0
M  V30 8057 O 763.372 -2.52343 0.0889918 0
M  V30 8058 C 764.685 -0.878698 2.87575 0
M  V30 8059 C 766.233 -0.977296 2.97352 0
M  V30 8060 C 766.708 -1.20195 4.41947 0
M  V30 8061 N 768.199 -1.26915 4.45474 0
M  V30 8062 C 768.934 -1.46049 5.54488 0
M  V30 8063 N 768.43 -1.62354 6.73508 0
M  V30 8064 N 770.223 -1.48599 5.42102 0
M  V30 8065 H 762.374 0.470679 2.07119 0
M  V30 8066 H 764.637 0.148652 0.936273 0
M  V30 8067 H 764.343 -0.040602 3.51677 0
M  V30 8068 H 764.217 -1.78034 3.32541 0
M  V30 8069 H 766.604 -1.80591 2.3339 0
M  V30 8070 H 766.685 -0.0525498 2.55746 0
M  V30 8071 H 766.329 -0.378262 5.06489 0
M  V30 8072 H 766.259 -2.14027 4.81145 0
M  V30 8073 H 768.75 -1.15837 3.59708 0
M  V30 8074 H 769.063 -1.76591 7.52353 0
M  V30 8075 H 767.408 -1.5949 6.76453 0
M  V30 8076 H 770.599 -1.35443 4.48077 0
M  V30 8077 H 770.772 -1.6317 6.2712 0
M  V30 8078 N 764.178 -1.45556 -0.604258 0
M  V30 8079 C 765.594 -1.30035 -0.925368 0
M  V30 8080 C 765.794 -0.255833 -1.99869 0
M  V30 8081 O 764.85 0.349076 -2.50075 0
M  V30 8082 C 766.163 -2.68028 -1.36314 0
M  V30 8083 C 767.711 -2.75951 -1.47717 0
M  V30 8084 C 768.186 -4.14476 -1.94868 0
M  V30 8085 N 769.677 -4.16787 -2.02097 0
M  V30 8086 C 770.412 -5.20845 -2.39809 0
M  V30 8087 N 769.908 -6.35246 -2.76467 0
M  V30 8088 N 771.701 -5.08204 -2.40177 0
M  V30 8089 H 763.852 -2.1214 0.10512 0
M  V30 8090 H 766.115 -0.947871 -0.0156303 0
M  V30 8091 H 765.821 -3.45667 -0.648628 0
M  V30 8092 H 765.695 -2.96711 -2.329 0
M  V30 8093 H 768.082 -1.98613 -2.18258 0
M  V30 8094 H 768.163 -2.50977 -0.494371 0
M  V30 8095 H 767.807 -4.923 -1.24912 0
M  V30 8096 H 767.737 -4.36843 -2.94068 0
M  V30 8097 H 770.228 -3.34233 -1.76343 0
M  V30 8098 H 770.541 -7.10438 -3.04134 0
M  V30 8099 H 768.886 -6.38642 -2.74155 0
M  V30 8100 H 772.077 -4.17874 -2.10947 0
M  V30 8101 H 772.25 -5.89417 -2.69242 0
M  V30 8102 N 765.656 0.84705 -1.32902 0
M  V30 8103 C 766.904 1.5986 -1.2365 0
M  V30 8104 C 767.225 1.93974 0.199789 0
M  V30 8105 O 766.495 1.60273 1.12648 0
M  V30 8106 H 765.075 0.592696 -0.454665 0
M  V30 8107 H 767.737 1.01278 -1.66519 0
M  V30 8108 H 766.833 2.53218 -1.82448 0
M  V30 8109 N 767.134 1.16236 1.06428 0
M  V30 8110 C 768.359 0.967688 1.83441 0
M  V30 8111 C 768.784 -0.479167 1.81894 0
M  V30 8112 O 768.142 -1.34224 1.21875 0
M  V30 8113 C 768.19 1.49806 3.2801 0
M  V30 8114 O 767.294 0.703481 4.06356 0
M  V30 8115 H 766.635 0.344468 0.56766 0
M  V30 8116 H 769.165 1.54442 1.34197 0
M  V30 8117 H 769.175 1.51495 3.78831 0
M  V30 8118 H 767.85 2.55133 3.2845 0
M  V30 8119 H 766.427 0.756986 3.65136 0
M  V30 8120 N 768.612 -1.24939 0.960631 0
M  V30 8121 C 769.84 -1.96881 0.636045 0
M  V30 8122 C 770.255 -1.71334 -0.793093 0
M  V30 8123 O 769.612 -0.992917 -1.53125 0
M  V30 8124 C 769.663 -3.50309 0.892533 0
M  V30 8125 O 769.384 -3.74977 2.26548 0
M  V30 8126 C 770.885 -4.39474 0.581159 0
M  V30 8127 H 768.105 -0.627399 0.237931 0
M  V30 8128 H 770.649 -1.58952 1.28664 0
M  V30 8129 H 768.804 -3.86326 0.288257 0
M  V30 8130 H 769.218 -4.69401 2.34014 0
M  V30 8131 H 770.692 -5.46008 0.811125 0
M  V30 8132 H 771.169 -4.3652 -0.48443 0
M  V30 8133 H 771.775 -4.09032 1.16502 0
M  V30 8134 N 770.09 -0.729906 -1.39679 0
M  V30 8135 C 771.501 -0.346241 -1.83461 0
M  V30 8136 C 771.852 1.1215 -1.60987 0
M  V30 8137 O 770.977 1.86456 -1.09832 0
M  V30 8138 C 771.572 -0.621656 -3.33048 0
M  V30 8139 C 770.131 -0.291543 -3.75269 0
M  V30 8140 C 769.278 -0.886844 -2.62736 0
M  V30 8141 H 772.229 -0.927949 -1.28743 0
M  V30 8142 H 772.25 0.108301 -3.80346 0
M  V30 8143 H 771.762 -1.68996 -3.49373 0
M  V30 8144 H 769.863 0.771133 -3.64533 0
M  V30 8145 H 769.976 -0.770544 -4.72863 0
M  V30 8146 H 768.34 -0.313839 -2.52759 0
M  V30 8147 H 769.123 -1.95971 -2.81869 0
M  V30 8148 N 771.568 1.50203 -0.477153 0
M  V30 8149 C 772.498 2.31517 0.303646 0
M  V30 8150 C 773.479 1.38696 0.984753 0
M  V30 8151 O 774.664 1.67615 0.980758 0
M  V30 8152 C 771.794 3.18598 1.38249 0
M  V30 8153 C 770.748 4.2002 0.822645 0
M  V30 8154 C 770.074 4.95878 2.00024 0
M  V30 8155 C 771.374 5.22023 -0.170185 0
M  V30 8156 H 773.068 2.97042 -0.375027 0
M  V30 8157 H 770.614 1.42848 -0.181802 0
M  V30 8158 H 772.567 3.74282 1.93625 0
M  V30 8159 H 771.291 2.5097 2.09002 0
M  V30 8160 H 769.95 3.65445 0.290813 0
M  V30 8161 H 769.598 4.24717 2.69489 0
M  V30 8162 H 769.298 5.64487 1.63183 0
M  V30 8163 H 770.822 5.54399 2.55878 0
M  V30 8164 H 772.236 5.72543 0.294606 0
M  V30 8165 H 770.633 5.98386 -0.453181 0
M  V30 8166 H 771.703 4.72396 -1.09408 0
M  V30 8167 N 773.046 0.209999 1.56195 0
M  V30 8168 C 773.996 -0.717978 2.164 0
M  V30 8169 C 774.98 -1.16577 1.10899 0
M  V30 8170 O 776.172 -1.12169 1.3692 0
M  V30 8171 C 773.301 -1.93091 2.8385 0
M  V30 8172 C 772.387 -1.50333 3.96561 0
M  V30 8173 N 772.778 -0.787621 4.9963 0
M  V30 8174 C 771.076 -1.79151 4.08437 0
M  V30 8175 C 771.777 -0.571204 5.78889 0
M  V30 8176 N 770.753 -1.12444 5.31843 0
M  V30 8177 H 774.555 -0.162603 2.9345 0
M  V30 8178 H 772.069 0.0107928 1.62396 0
M  V30 8179 H 774.066 -2.60635 3.25384 0
M  V30 8180 H 772.726 -2.49087 2.08293 0
M  V30 8181 H 773.737 -0.441513 5.16015 0
M  V30 8182 H 770.414 -2.36549 3.44022 0
M  V30 8183 H 771.804 -0.00237941 6.719 0
M  V30 8184 N 774.524 -1.57472 -0.0634922 0
M  V30 8185 C 775.457 -1.99571 -1.10664 0
M  V30 8186 C 776.435 -0.874015 -1.37112 0
M  V30 8187 O 777.619 -1.13702 -1.50347 0
M  V30 8188 C 774.746 -2.3395 -2.44918 0
M  V30 8189 C 773.792 -3.56213 -2.34551 0
M  V30 8190 S 774.625 -5.06727 -1.73169 0
M  V30 8191 C 775.781 -5.44316 -3.08984 0
M  V30 8192 H 776.014 -2.87739 -0.747905 0
M  V30 8193 H 773.547 -1.5198 -0.272316 0
M  V30 8194 H 775.505 -2.54431 -3.22141 0
M  V30 8195 H 774.166 -1.46297 -2.7795 0
M  V30 8196 H 773.359 -3.77812 -3.33578 0
M  V30 8197 H 772.961 -3.35406 -1.65466 0
M  V30 8198 H 775.253 -5.42894 -4.05305 0
M  V30 8199 H 776.196 -6.4502 -2.92156 0
M  V30 8200 H 776.604 -4.71781 -3.09972 0
M  V30 8201 N 776.003 0.335068 -1.53997 0
M  V30 8202 C 776.966 1.39481 -1.81872 0
M  V30 8203 C 777.966 1.4524 -0.690078 0
M  V30 8204 O 779.156 1.45467 -0.958377 0
M  V30 8205 C 776.288 2.78329 -1.9684 0
M  V30 8206 H 777.481 1.16024 -2.76547 0
M  V30 8207 H 775.034 0.569926 -1.45539 0
M  V30 8208 H 775.769 3.07058 -1.04337 0
M  V30 8209 H 775.554 2.75544 -2.78958 0
M  V30 8210 H 777.044 3.55016 -2.19894 0
M  V30 8211 N 777.481 1.45874 0.596531 0
M  V30 8212 C 778.727 1.5069 1.35722 0
M  V30 8213 C 779.06 0.152506 1.936 0
M  V30 8214 O 778.335 -0.834411 1.75692 0
M  V30 8215 C 778.618 2.59474 2.4969 0
M  V30 8216 C 778.471 4.04396 1.96937 0
M  V30 8217 C 779.79 2.64451 3.51787 0
M  V30 8218 H 776.909 0.548611 0.492133 0
M  V30 8219 H 779.551 1.77741 0.671428 0
M  V30 8220 H 777.701 2.36539 3.08191 0
M  V30 8221 H 779.373 4.38576 1.43 0
M  V30 8222 H 777.616 4.14529 1.27859 0
M  V30 8223 H 778.287 4.76218 2.79143 0
M  V30 8224 H 780.763 2.85031 3.03145 0
M  V30 8225 H 779.639 3.42411 4.29006 0
M  V30 8226 H 779.9 1.69965 4.08123 0
M  V30 8227 N 778.959 -0.83999 1.33349 0
M  V30 8228 C 779.869 -1.98182 1.25543 0
M  V30 8229 C 780.885 -1.73204 0.166208 0
M  V30 8230 O 782.061 -1.97596 0.389589 0
M  V30 8231 C 779.126 -3.32157 0.993614 0
M  V30 8232 C 778.187 -3.70258 2.17273 0
M  V30 8233 C 777.42 -4.9784 1.92331 0
M  V30 8234 O 777.643 -5.63679 0.873074 0
M  V30 8235 O 776.577 -5.33418 2.78835 0
M  V30 8236 H 780.403 -2.07708 2.21565 0
M  V30 8237 H 777.988 -0.972852 1.13384 0
M  V30 8238 H 779.87 -4.12433 0.864711 0
M  V30 8239 H 778.545 -3.23637 0.0636596 0
M  V30 8240 H 777.452 -2.90497 2.35716 0
M  V30 8241 H 778.785 -3.83442 3.08598 0
M  V30 8242 N 780.437 -1.16799 -1.0581 0
M  V30 8243 C 781.853 -0.913935 -1.30841 0
M  V30 8244 C 782.053 0.430439 -1.96849 0
M  V30 8245 O 781.109 1.16885 -2.23817 0
M  V30 8246 C 782.422 -2.06662 -2.18429 0
M  V30 8247 C 783.97 -2.10294 -2.31831 0
M  V30 8248 C 784.445 -3.2493 -3.22776 0
M  V30 8249 N 785.936 -3.24678 -3.30361 0
M  V30 8250 C 786.671 -4.10021 -4.00837 0
M  V30 8251 N 786.167 -5.05461 -4.73795 0
M  V30 8252 N 787.96 -3.97991 -3.96937 0
M  V30 8253 H 780.111 -2.03343 -0.613613 0
M  V30 8254 H 782.374 -0.88754 -0.333133 0
M  V30 8255 H 782.08 -3.03791 -1.77211 0
M  V30 8256 H 781.954 -2.01233 -3.19038 0
M  V30 8257 H 784.341 -1.13754 -2.72294 0
M  V30 8258 H 784.422 -2.19786 -1.30873 0
M  V30 8259 H 784.066 -4.21731 -2.83028 0
M  V30 8260 H 783.996 -3.12674 -4.23725 0
M  V30 8261 H 786.487 -2.55573 -2.78372 0
M  V30 8262 H 786.8 -5.66989 -5.25113 0
M  V30 8263 H 785.145 -5.09436 -4.72758 0
M  V30 8264 H 788.336 -3.2273 -3.39062 0
M  V30 8265 H 788.509 -4.64722 -4.51594 0
M  V30 8266 N 781.915 1.24427 -0.967243 0
M  V30 8267 C 783.331 1.44684 -0.6737 0
M  V30 8268 C 783.531 1.86429 0.764625 0
M  V30 8269 O 782.587 2.00211 1.53857 0
M  V30 8270 C 783.9 2.509 -1.6574 0
M  V30 8271 C 785.448 2.64728 -1.66998 0
M  V30 8272 C 785.923 3.7414 -2.64165 0
M  V30 8273 N 787.414 3.81567 -2.62604 0
M  V30 8274 C 788.149 4.6575 -3.34462 0
M  V30 8275 N 787.645 5.54124 -4.15835 0
M  V30 8276 N 789.438 4.59827 -3.23288 0
M  V30 8277 H 781.589 0.956276 -1.89655 0
M  V30 8278 H 783.852 0.48171 -0.816492 0
M  V30 8279 H 783.558 2.27113 -2.68538 0
M  V30 8280 H 783.432 3.4905 -1.42981 0
M  V30 8281 H 785.819 2.87872 -0.649121 0
M  V30 8282 H 785.9 1.66936 -1.93819 0
M  V30 8283 H 785.544 3.51745 -3.66384 0
M  V30 8284 H 785.474 4.71444 -2.34623 0
M  V30 8285 H 787.965 3.18403 -2.03539 0
M  V30 8286 H 788.278 6.15316 -4.67553 0
M  V30 8287 H 786.623 5.53791 -4.19929 0
M  V30 8288 H 789.814 3.898 -2.59179 0
M  V30 8289 H 789.987 5.25208 -3.79553 0
M  V30 8290 N 783.393 0.737304 1.3929 0
M  V30 8291 C 784.639 0.286681 2.00763 0
M  V30 8292 C 784.972 -1.12388 1.58375 0
M  V30 8293 O 784.247 -1.76661 0.813699 0
M  V30 8294 C 784.53 0.391147 3.57969 0
M  V30 8295 C 784.383 1.84165 4.1037 0
M  V30 8296 C 785.702 -0.225072 4.39524 0
M  V30 8297 H 782.821 0.105642 0.729389 0
M  V30 8298 H 785.463 0.933892 1.65464 0
M  V30 8299 H 783.613 -0.159875 3.88171 0
M  V30 8300 H 785.285 2.44972 3.90879 0
M  V30 8301 H 783.528 2.3622 3.63844 0
M  V30 8302 H 784.199 1.866 5.19504 0
M  V30 8303 H 786.675 0.244677 4.1538 0
M  V30 8304 H 785.551 -0.121646 5.48765 0
M  V30 8305 H 785.812 -1.31141 4.22202 0
M  V30 8306 N 784.871 -1.49948 0.485112 0
M  V30 8307 C 786.287 -1.58984 0.140096 0
M  V30 8308 C 786.487 -1.49194 -1.35438 0
M  V30 8309 O 785.543 -1.35765 -2.12894 0
M  V30 8310 C 786.856 -2.92372 0.702769 0
M  V30 8311 C 788.404 -3.05801 0.66745 0
M  V30 8312 C 788.879 -4.41785 1.20791 0
M  V30 8313 N 790.37 -4.48234 1.16792 0
M  V30 8314 C 791.105 -5.51871 1.55646 0
M  V30 8315 N 790.601 -6.62692 2.02016 0
M  V30 8316 N 792.394 -5.42494 1.47161 0
M  V30 8317 H 784.545 -1.54555 1.45693 0
M  V30 8318 H 786.808 -0.731206 0.603359 0
M  V30 8319 H 786.514 -3.05056 1.75025 0
M  V30 8320 H 786.388 -3.76885 0.154205 0
M  V30 8321 H 788.775 -2.92757 -0.371157 0
M  V30 8322 H 788.856 -2.23011 1.25298 0
M  V30 8323 H 788.5 -4.55579 2.24522 0
M  V30 8324 H 788.43 -5.23188 0.598464 0
M  V30 8325 H 790.921 -3.68718 0.827982 0
M  V30 8326 H 791.234 -7.3785 2.29775 0
M  V30 8327 H 789.579 -6.63775 2.05979 0
M  V30 8328 H 792.77 -4.54806 1.10765 0
M  V30 8329 H 792.943 -6.2314 1.77766 0
M  V30 8330 N 786.349 -0.21828 -1.56081 0
M  V30 8331 C 787.597 0.413488 -1.97825 0
M  V30 8332 C 787.918 1.60527 -1.10707 0
M  V30 8333 O 787.188 1.9504 -0.183378 0
M  V30 8334 H 785.768 0.155757 -0.730581 0
M  V30 8335 H 788.43 -0.310413 -1.92412 0
M  V30 8336 H 787.526 0.742024 -3.03151 0
M  V30 8337 N 787.827 1.57504 0.0551401 0
M  V30 8338 C 789.073 1.88334 0.752216 0
M  V30 8339 C 789.406 0.812742 1.76375 0
M  V30 8340 O 788.681 -0.175198 1.93709 0
M  V30 8341 C 788.964 3.29824 1.44528 0
M  V30 8342 C 788.817 4.47553 0.449026 0
M  V30 8343 C 790.136 3.69808 2.38601 0
M  V30 8344 H 787.255 0.684973 0.271995 0
M  V30 8345 H 789.897 1.89994 0.0151895 0
M  V30 8346 H 788.047 3.28539 2.07351 0
M  V30 8347 H 789.719 4.60967 -0.175277 0
M  V30 8348 H 787.962 4.33168 -0.234162 0
M  V30 8349 H 788.633 5.43376 0.971917 0
M  V30 8350 H 791.109 3.72293 1.85842 0
M  V30 8351 H 789.985 4.69665 2.84088 0
M  V30 8352 H 790.246 3.00641 3.24141 0
M  V30 8353 N 789.305 -0.326896 1.54172 0
M  V30 8354 C 790.551 -1.06681 1.72473 0
M  V30 8355 C 790.884 -1.87779 0.49523 0
M  V30 8356 O 790.159 -1.87754 -0.507803 0
M  V30 8357 C 790.442 -1.99429 2.99834 0
M  V30 8358 C 790.295 -1.21682 4.33028 0
M  V30 8359 C 791.614 -2.99002 3.22933 0
M  V30 8360 H 788.733 -0.386438 0.627563 0
M  V30 8361 H 791.375 -0.343779 1.86864 0
M  V30 8362 H 789.525 -2.61081 2.87696 0
M  V30 8363 H 791.197 -0.625153 4.57044 0
M  V30 8364 H 789.44 -0.519045 4.30684 0
M  V30 8365 H 790.111 -1.89766 5.18356 0
M  V30 8366 H 792.587 -2.4747 3.34511 0
M  V30 8367 H 791.463 -3.61085 4.13412 0
M  V30 8368 H 791.724 -3.71281 2.40006 0
M  V30 8369 N 790.784 -1.46188 -0.588786 0
M  V30 8370 C 791.694 -1.58865 -1.72624 0
M  V30 8371 C 792.71 -0.472348 -1.67466 0
M  V30 8372 O 793.886 -0.735638 -1.87484 0
M  V30 8373 C 790.951 -1.56989 -3.0912 0
M  V30 8374 C 790.012 -2.79804 -3.25589 0
M  V30 8375 C 789.245 -2.78009 -4.55573 0
M  V30 8376 O 789.468 -1.86406 -5.39082 0
M  V30 8377 O 788.402 -3.6947 -4.75159 0
M  V30 8378 H 792.228 -2.55047 -1.64878 0
M  V30 8379 H 789.813 -1.28912 -0.755115 0
M  V30 8380 H 791.695 -1.58618 -3.90408 0
M  V30 8381 H 790.37 -0.639648 -3.17317 0
M  V30 8382 H 789.277 -2.83732 -2.43818 0
M  V30 8383 H 790.61 -3.72017 -3.22279 0
M  V30 8384 N 792.262 0.832906 -1.33792 0
M  V30 8385 C 793.192 1.95828 -1.27176 0
M  V30 8386 C 794.173 1.69427 -0.15114 0
M  V30 8387 O 795.358 1.91167 -0.341886 0
M  V30 8388 C 792.488 3.32098 -1.01629 0
M  V30 8389 C 791.442 3.72912 -2.10049 0
M  V30 8390 C 790.768 5.07054 -1.69706 0
M  V30 8391 C 792.068 3.86064 -3.51783 0
M  V30 8392 H 793.762 2.01622 -2.21334 0
M  V30 8393 H 791.308 0.96866 -1.0655 0
M  V30 8394 H 793.261 4.10402 -0.956474 0
M  V30 8395 H 791.985 3.26577 -0.0390956 0
M  V30 8396 H 790.644 2.96876 -2.15082 0
M  V30 8397 H 790.292 4.9801 -0.706737 0
M  V30 8398 H 789.992 5.35333 -2.42264 0
M  V30 8399 H 791.516 5.87827 -1.65202 0
M  V30 8400 H 792.93 4.54665 -3.49218 0
M  V30 8401 H 791.327 4.25787 -4.22878 0
M  V30 8402 H 792.397 2.88344 -3.89854 0
M  V30 8403 N 793.74 1.17359 1.05189 0
M  V30 8404 C 794.67 0.91365 2.14883 0
M  V30 8405 C 795.651 -0.144365 1.69486 0
M  V30 8406 O 796.836 0.00587861 1.94199 0
M  V30 8407 C 793.966 0.426196 3.44675 0
M  V30 8408 C 792.92 1.4234 4.03638 0
M  V30 8409 C 792.246 0.793902 5.28773 0
M  V30 8410 C 793.546 2.7966 4.41121 0
M  V30 8411 H 795.24 1.831 2.36885 0
M  V30 8412 H 792.786 0.881781 1.13845 0
M  V30 8413 H 794.739 0.231767 4.20762 0
M  V30 8414 H 793.463 -0.526693 3.22325 0
M  V30 8415 H 792.122 1.60457 3.2962 0
M  V30 8416 H 791.77 -0.165824 5.02727 0
M  V30 8417 H 791.47 1.45959 5.69183 0
M  V30 8418 H 792.994 0.609747 6.07548 0
M  V30 8419 H 794.408 2.6526 5.08242 0
M  V30 8420 H 792.805 3.42807 4.92548 0
M  V30 8421 H 793.875 3.34068 3.51464 0
M  V30 8422 N 795.218 -1.23913 0.973828 0
M  V30 8423 C 796.148 -2.27453 0.527969 0
M  V30 8424 C 797.129 -1.6443 -0.435513 0
M  V30 8425 O 798.314 -1.9137 -0.330306 0
M  V30 8426 C 795.444 -3.4685 -0.176757 0
M  V30 8427 C 794.398 -4.22181 0.703352 0
M  V30 8428 C 793.724 -5.34534 -0.133215 0
M  V30 8429 C 795.024 -4.82865 1.99096 0
M  V30 8430 H 796.718 -2.65 1.3934 0
M  V30 8431 H 794.264 -1.27388 0.671446 0
M  V30 8432 H 796.217 -4.18424 -0.499934 0
M  V30 8433 H 794.941 -3.08346 -1.07659 0
M  V30 8434 H 793.6 -3.52416 1.00989 0
M  V30 8435 H 793.248 -4.92271 -1.03338 0
M  V30 8436 H 792.948 -5.85855 0.452494 0
M  V30 8437 H 794.472 -6.08933 -0.450924 0
M  V30 8438 H 795.886 -5.46481 1.73297 0
M  V30 8439 H 794.283 -5.44444 2.52389 0
M  V30 8440 H 795.353 -4.03977 2.68199 0
M  V30 8441 N 796.696 -0.74468 -1.38897 0
M  V30 8442 C 797.659 -0.11945 -2.28889 0
M  V30 8443 C 798.659 0.656942 -1.46768 0
M  V30 8444 O 799.849 0.484525 -1.67326 0
M  V30 8445 C 796.981 0.839635 -3.30398 0
M  V30 8446 H 798.174 -0.912414 -2.85683 0
M  V30 8447 H 795.727 -0.511119 -1.47707 0
M  V30 8448 H 796.462 1.6586 -2.78677 0
M  V30 8449 H 796.247 0.285432 -3.9106 0
M  V30 8450 H 797.737 1.27337 -3.97712 0
M  V30 8451 N 798.174 1.49689 -0.493057 0
M  V30 8452 C 799.59 1.58907 -0.148526 0
M  V30 8453 C 799.79 1.4991 1.34645 0
M  V30 8454 O 798.846 1.36893 2.12171 0
M  V30 8455 C 800.159 2.91996 -0.718265 0
M  V30 8456 C 801.707 3.05443 -0.683658 0
M  V30 8457 C 802.182 4.41138 -1.23132 0
M  V30 8458 N 803.673 4.47608 -1.19167 0
M  V30 8459 C 804.408 5.51038 -1.5857 0
M  V30 8460 N 803.904 6.61612 -2.05528 0
M  V30 8461 N 805.697 5.41706 -1.50036 0
M  V30 8462 H 797.848 1.5378 -1.46511 0
M  V30 8463 H 800.111 0.727996 -0.607228 0
M  V30 8464 H 799.817 3.04123 -1.7664 0
M  V30 8465 H 799.691 3.76798 -0.17419 0
M  V30 8466 H 802.078 2.92949 0.355626 0
M  V30 8467 H 802.159 2.22344 -1.26479 0
M  V30 8468 H 801.803 4.54382 -2.26935 0
M  V30 8469 H 801.733 5.22864 -0.626201 0
M  V30 8470 H 804.224 3.68274 -0.847524 0
M  V30 8471 H 804.537 7.36622 -2.33685 0
M  V30 8472 H 802.882 6.62674 -2.09497 0
M  V30 8473 H 806.073 4.54212 -1.13176 0
M  V30 8474 H 806.246 6.22188 -1.81068 0
M  V30 8475 N 799.652 0.226554 1.55963 0
M  V30 8476 C 800.599 -0.681504 2.20509 0
M  V30 8477 C 801.569 -1.1866 1.16229 0
M  V30 8478 O 802.754 -1.24478 1.44602 0
M  V30 8479 C 799.894 -1.88183 2.89277 0
M  V30 8480 C 799.007 -1.41517 4.08163 0
M  V30 8481 C 798.142 -2.57346 4.647 0
M  V30 8482 C 797.181 -2.07441 5.75877 0
M  V30 8483 N 796.318 -3.16561 6.26685 0
M  V30 8484 H 801.158 -0.124372 2.9774 0
M  V30 8485 H 798.695 -0.0496333 1.47016 0
M  V30 8486 H 800.653 -2.58666 3.27335 0
M  V30 8487 H 799.283 -2.41177 2.14555 0
M  V30 8488 H 798.335 -0.605099 3.75557 0
M  V30 8489 H 799.647 -1.00928 4.88482 0
M  V30 8490 H 798.801 -3.35903 5.05227 0
M  V30 8491 H 797.54 -3.01227 3.83554 0
M  V30 8492 H 796.545 -1.27347 5.34848 0
M  V30 8493 H 797.77 -1.64554 6.58862 0
M  V30 8494 H 795.716 -3.59914 5.48451 0
M  V30 8495 H 795.633 -2.80239 7.02141 0
M  V30 8496 H 796.901 -3.95238 6.71868 0
M  V30 8497 N 801.13 -1.57531 -0.0467866 0
M  V30 8498 C 802.379 -1.87632 -0.740069 0
M  V30 8499 C 802.692 -0.822691 -1.77457 0
M  V30 8500 O 803.898 -1.01235 -2.5192 0
M  V30 8501 C 802.354 -3.32917 -1.36727 0
M  V30 8502 C 801.962 -4.46469 -0.370035 0
M  V30 8503 C 803.706 -3.72189 -2.04146 0
M  V30 8504 C 801.613 -5.82806 -1.00457 0
M  V30 8505 H 800.543 -0.70002 -0.280158 0
M  V30 8506 H 803.194 -1.83499 0.00607151 0
M  V30 8507 H 801.576 -3.31739 -2.16252 0
M  V30 8508 H 802.75 -4.59085 0.397217 0
M  V30 8509 H 801.065 -4.15914 0.201079 0
M  V30 8510 H 803.662 -4.71357 -2.52441 0
M  V30 8511 H 804.005 -3.03268 -2.85192 0
M  V30 8512 H 804.538 -3.75465 -1.3142 0
M  V30 8513 H 801.277 -6.55083 -0.233907 0
M  V30 8514 H 800.797 -5.73944 -1.74209 0
M  V30 8515 H 802.476 -6.28961 -1.51713 0
M  V30 8516 N 802.608 0.318715 -1.54344 0
M  V30 8517 C 803.833 1.07987 -1.77069 0
M  V30 8518 C 804.258 1.80766 -0.520117 0
M  V30 8519 O 803.616 1.73424 0.528566 0
M  V30 8520 C 803.664 2.04987 -2.96669 0
M  V30 8521 O 802.768 3.12974 -2.68554 0
M  V30 8522 H 802.109 0.311109 -0.586606 0
M  V30 8523 H 804.639 0.361533 -2.0138 0
M  V30 8524 H 804.649 2.47771 -3.2415 0
M  V30 8525 H 803.324 1.51417 -3.87357 0
M  V30 8526 H 801.901 2.74831 -2.52037 0
M  V30 8527 N 804.086 1.46499 0.581025 0
M  V30 8528 C 805.332 1.52121 1.34116 0
M  V30 8529 C 805.665 0.173031 1.93428 0
M  V30 8530 O 804.94 -0.815729 1.76568 0
M  V30 8531 C 805.223 2.62108 2.46924 0
M  V30 8532 C 805.076 4.06462 1.92636 0
M  V30 8533 C 806.395 2.68167 3.48962 0
M  V30 8534 H 803.514 0.5538 0.486287 0
M  V30 8535 H 806.156 1.78443 0.652538 0
M  V30 8536 H 804.306 2.39794 3.05665 0
M  V30 8537 H 805.978 4.40068 1.3834 0
M  V30 8538 H 804.221 4.15862 1.23455 0
M  V30 8539 H 804.892 4.79152 2.74076 0
M  V30 8540 H 807.368 2.8823 3.00104 0
M  V30 8541 H 806.244 3.46942 4.2535 0
M  V30 8542 H 806.505 1.74284 4.06297 0
M  V30 8543 N 805.565 -0.825799 1.34232 0
M  V30 8544 C 806.513 -1.95792 1.25572 0
M  V30 8545 C 807.507 -1.68695 0.154404 0
M  V30 8546 O 808.713 -1.77147 0.319196 0
M  V30 8547 H 805.088 -0.642949 0.390027 0
M  V30 8548 H 807.059 -2.00219 2.21258 0
M  V30 8549 C 805.808 -3.32245 1.02511 0
M  V30 8550 H 805.131 -3.53642 1.86487 0
M  V30 8551 H 806.571 -4.1192 1.00487 0
M  V30 8552 C 805.03 -3.35803 -0.27167 0
M  V30 8553 O 805.56 -3.80962 -1.274 0
M  V30 8554 N 803.766 -2.89008 -0.303778 0
M  V30 8555 H 803.313 -2.52451 0.512464 0
M  V30 8556 H 803.271 -2.9177 -1.17121 0
M  V30 8557 N 807.043 -1.17915 -1.04565 0
M  V30 8558 C 808.006 -0.903787 -2.10628 0
M  V30 8559 C 809.006 0.10873 -1.60432 0
M  V30 8560 O 810.196 -0.124152 -1.73757 0
M  V30 8561 C 807.328 -0.355017 -3.39046 0
M  V30 8562 H 808.521 -1.84425 -2.3649 0
M  V30 8563 H 806.074 -0.990477 -1.2091 0
M  V30 8564 H 806.809 0.592297 -3.18845 0
M  V30 8565 H 806.594 -1.08484 -3.76794 0
M  V30 8566 H 808.084 -0.180891 -4.17208 0
M  V30 8567 N 808.521 1.23394 -0.980386 0
M  V30 8568 C 809.468 2.24859 -0.520298 0
M  V30 8569 C 810.438 1.60144 0.440821 0
M  V30 8570 O 811.623 1.87593 0.348369 0
M  V30 8571 C 808.763 3.44675 0.171145 0
M  V30 8572 C 807.876 4.23947 -0.830233 0
M  V30 8573 C 807.011 5.31079 -0.113597 0
M  V30 8574 C 806.05 6.02058 -1.10419 0
M  V30 8575 N 805.187 7.00862 -0.416709 0
M  V30 8576 H 810.027 2.63579 -1.39032 0
M  V30 8577 H 807.564 1.29556 -0.696682 0
M  V30 8578 H 809.522 4.13024 0.588838 0
M  V30 8579 H 808.152 3.06755 1.00504 0
M  V30 8580 H 807.204 3.55016 -1.36631 0
M  V30 8581 H 808.516 4.72945 -1.58508 0
M  V30 8582 H 807.67 6.05622 0.36146 0
M  V30 8583 H 806.409 4.83022 0.673854 0
M  V30 8584 H 805.414 5.26307 -1.59 0
M  V30 8585 H 806.639 6.52203 -1.8923 0
M  V30 8586 H 804.585 6.55057 0.351535 0
M  V30 8587 H 804.502 7.47804 -1.11021 0
M  V30 8588 H 805.77 7.79492 0.0359606 0
M  V30 8589 N 809.999 0.752036 1.385 0
M  V30 8590 C 811.276 0.233075 1.94206 0
M  V30 8591 C 811.656 -1.26838 1.68746 0
M  V30 8592 O 811.004 -2.04214 1.02513 0
M  V30 8593 C 811.214 0.58509 3.44061 0
M  V30 8594 C 812.562 0.543871 4.21102 0
M  V30 8595 O 813.586 0.523291 3.52335 0
M  V30 8596 O 812.445 0.553436 5.4369 0
M  V30 8597 H 809.539 0.0483049 0.825588 0
M  V30 8598 H 812.085 0.832053 1.47902 0
M  V30 8599 H 810.857 1.62212 3.56094 0
M  V30 8600 H 810.48 -0.0419738 3.97578 0
M  V30 8601 N 811.477 -1.49425 0.500989 0
M  V30 8602 C 812.387 -2.32899 -0.282011 0
M  V30 8603 C 813.403 -1.44632 -0.967346 0
M  V30 8604 O 814.579 -1.77654 -0.94873 0
M  V30 8605 C 811.644 -3.20069 -1.33253 0
M  V30 8606 C 810.705 -4.24186 -0.660636 0
M  V30 8607 C 809.938 -5.07191 -1.6611 0
M  V30 8608 O 810.161 -4.91712 -2.89094 0
M  V30 8609 O 809.095 -5.8948 -1.21643 0
M  V30 8610 H 812.921 -3.01038 0.401224 0
M  V30 8611 H 810.506 -1.47079 0.262323 0
M  V30 8612 H 812.388 -3.74071 -1.94033 0
M  V30 8613 H 811.063 -2.54625 -1.9987 0
M  V30 8614 H 809.97 -3.74098 -0.0130959 0
M  V30 8615 H 811.303 -4.92186 -0.0369179 0
M  V30 8616 N 812.955 -0.234822 -1.55841 0
M  V30 8617 C 814.232 0.442961 -1.90518 0
M  V30 8618 C 814.612 1.76768 -1.15397 0
M  V30 8619 O 813.96 2.26928 -0.267534 0
M  V30 8620 C 814.17 0.622905 -3.43396 0
M  V30 8621 C 815.518 0.9243 -4.14417 0
M  V30 8622 O 816.542 0.709211 -3.49068 0
M  V30 8623 O 815.401 1.33323 -5.29988 0
M  V30 8624 H 812.495 0.236042 -0.792599 0
M  V30 8625 H 815.041 -0.277992 -1.67408 0
M  V30 8626 H 813.813 -0.310973 -3.90062 0
M  V30 8627 H 813.436 1.39485 -3.7233 0
M  V30 8628 N 814.433 1.57553 0.0384317 0
M  V30 8629 C 815.365 2.02726 1.06934 0
M  V30 8630 C 816.378 0.938502 1.33026 0
M  V30 8631 O 817.567 1.21595 1.30678 0
M  V30 8632 C 814.667 2.37958 2.41308 0
M  V30 8633 C 813.84 3.69098 2.34703 0
M  V30 8634 C 812.899 3.91623 3.51451 0
M  V30 8635 O 811.925 4.628 3.31368 0
M  V30 8636 N 813.127 3.36538 4.72993 0
M  V30 8637 H 815.892 2.91781 0.684381 0
M  V30 8638 H 813.453 1.60307 0.226542 0
M  V30 8639 H 815.445 2.50172 3.18113 0
M  V30 8640 H 814.015 1.54621 2.71682 0
M  V30 8641 H 813.235 3.67325 1.43059 0
M  V30 8642 H 814.523 4.55144 2.27424 0
M  V30 8643 H 813.921 2.78828 4.92211 0
M  V30 8644 H 812.478 3.54148 5.47195 0
M  V30 8645 N 815.911 -0.310526 1.54511 0
M  V30 8646 C 817.157 -1.04459 1.74528 0
M  V30 8647 C 817.512 -1.85251 0.519613 0
M  V30 8648 O 816.805 -1.85281 -0.488001 0
M  V30 8649 C 816.999 -1.98942 2.96912 0
M  V30 8650 C 816.828 -1.27442 4.31264 0
M  V30 8651 C 815.598 -1.00552 4.95194 0
M  V30 8652 C 817.796 -0.683695 5.09735 0
M  V30 8653 N 815.778 -0.259797 6.1335 0
M  V30 8654 C 817.149 -0.0702549 6.1996 0
M  V30 8655 C 819.204 -0.587799 4.94418 0
M  V30 8656 C 817.907 0.629791 7.16538 0
M  V30 8657 C 819.933 0.0985719 5.91318 0
M  V30 8658 C 819.295 0.700902 7.00904 0
M  V30 8659 H 815.394 -0.365496 0.69133 0
M  V30 8660 H 817.978 -0.324277 1.91981 0
M  V30 8661 H 816.149 -2.68233 2.80902 0
M  V30 8662 H 817.881 -2.6543 3.05498 0
M  V30 8663 H 814.636 -1.30123 4.55374 0
M  V30 8664 H 815.06 0.099301 6.76927 0
M  V30 8665 H 819.702 -1.03919 4.0983 0
M  V30 8666 H 817.42 1.09298 8.00674 0
M  V30 8667 H 821.006 0.172585 5.81544 0
M  V30 8668 H 819.886 1.22357 7.74596 0
M  V30 8669 N 817.389 -1.46805 -0.573248 0
M  V30 8670 C 818.617 -1.56191 -1.3569 0
M  V30 8671 C 819.032 -0.206362 -1.87669 0
M  V30 8672 O 818.389 0.797883 -1.64134 0
M  V30 8673 C 818.44 -2.57433 -2.53792 0
M  V30 8674 O 818.161 -3.87724 -2.03965 0
M  V30 8675 C 819.662 -2.76851 -3.4622 0
M  V30 8676 H 816.882 -0.527907 -0.414192 0
M  V30 8677 H 819.426 -1.92292 -0.695989 0
M  V30 8678 H 817.581 -2.24311 -3.15854 0
M  V30 8679 H 817.995 -4.42909 -2.80948 0
M  V30 8680 H 819.469 -3.5159 -4.25545 0
M  V30 8681 H 819.946 -1.84095 -3.98755 0
M  V30 8682 H 820.552 -3.11107 -2.89987 0
M  V30 8683 N 818.867 0.818669 -1.34668 0
M  V30 8684 C 819.83 1.9114 -1.26483 0
M  V30 8685 C 820.83 1.598 -0.179044 0
M  V30 8686 O 822.02 1.6876 -0.431952 0
M  V30 8687 C 819.152 3.27285 -0.95381 0
M  V30 8688 H 820.345 1.9982 -2.23634 0
M  V30 8689 H 817.898 1.01314 -1.19018 0
M  V30 8690 H 818.633 3.24297 0.0143428 0
M  V30 8691 H 818.418 3.51416 -1.73924 0
M  V30 8692 H 819.908 4.07299 -0.921827 0
M  V30 8693 N 820.346 1.18468 1.03938 0
M  V30 8694 C 821.276 0.936389 2.13902 0
M  V30 8695 C 822.257 -0.126381 1.6963 0
M  V30 8696 O 823.442 0.0264757 1.94182 0
M  V30 8697 C 820.572 0.462729 3.44204 0
M  V30 8698 C 819.526 1.46613 4.02105 0
M  V30 8699 C 818.852 0.84994 5.27902 0
M  V30 8700 C 820.152 2.84323 4.3813 0
M  V30 8701 H 821.846 1.85602 2.3493 0
M  V30 8702 H 819.392 0.893806 1.12903 0
M  V30 8703 H 821.345 0.276382 4.20493 0
M  V30 8704 H 820.069 -0.492477 3.22866 0
M  V30 8705 H 818.728 1.63944 3.27899 0
M  V30 8706 H 818.376 -0.112493 5.02874 0
M  V30 8707 H 818.076 1.51988 5.67603 0
M  V30 8708 H 819.6 0.674152 6.06867 0
M  V30 8709 H 821.014 2.70636 5.054 0
M  V30 8710 H 819.411 3.48012 4.88884 0
M  V30 8711 H 820.481 3.37776 3.47901 0
M  V30 8712 N 821.824 -1.22873 0.986916 0
M  V30 8713 C 822.774 -2.2237 0.503547 0
M  V30 8714 C 823.758 -1.55186 -0.424998 0
M  V30 8715 O 824.95 -1.75186 -0.252791 0
M  V30 8716 C 822.079 -3.42794 -0.186355 0
M  V30 8717 C 821.165 -4.17196 0.762143 0
M  V30 8718 N 821.556 -4.68453 1.9075 0
M  V30 8719 C 819.854 -4.42255 0.576797 0
M  V30 8720 C 820.555 -5.25126 2.50235 0
M  V30 8721 N 819.531 -5.13437 1.7856 0
M  V30 8722 H 823.333 -2.59636 1.37718 0
M  V30 8723 H 820.847 -1.38476 0.848415 0
M  V30 8724 H 822.844 -4.13256 -0.549993 0
M  V30 8725 H 821.504 -3.07042 -1.05619 0
M  V30 8726 H 822.515 -4.64595 2.28848 0
M  V30 8727 H 819.192 -4.16766 -0.247474 0
M  V30 8728 H 820.582 -5.75363 3.46997 0
M  V30 8729 N 823.302 -0.75937 -1.38099 0
M  V30 8730 C 824.549 -0.318113 -1.99986 0
M  V30 8731 C 824.877 1.10184 -1.6028 0
M  V30 8732 O 824.132 1.77015 -0.834524 0
M  V30 8733 C 824.431 -0.394999 -3.55211 0
M  V30 8734 C 824.097 -1.77143 -4.14646 0
M  V30 8735 C 822.759 -2.14811 -4.30592 0
M  V30 8736 C 825.111 -2.67407 -4.47373 0
M  V30 8737 C 822.439 -3.42203 -4.76565 0
M  V30 8738 C 824.791 -3.94196 -4.94765 0
M  V30 8739 C 823.455 -4.31925 -5.08918 0
M  V30 8740 H 822.725 -0.116406 -0.7318 0
M  V30 8741 H 825.372 -0.97098 -1.65058 0
M  V30 8742 H 823.677 0.341426 -3.9031 0
M  V30 8743 H 825.374 -0.0350722 -4.00985 0
M  V30 8744 H 821.964 -1.46864 -4.02652 0
M  V30 8745 H 826.148 -2.39569 -4.3465 0
M  V30 8746 H 821.404 -3.71346 -4.85708 0
M  V30 8747 H 825.578 -4.64276 -5.19057 0
M  V30 8748 H 823.205 -5.30699 -5.443 0
M  V30 8749 N 824.78 1.49157 -0.508906 0
M  V30 8750 C 825.743 2.27784 0.25434 0
M  V30 8751 C 826.743 1.34132 0.88686 0
M  V30 8752 O 827.933 1.5722 0.750168 0
M  V30 8753 C 825.065 3.12347 1.36573 0
M  V30 8754 H 826.258 2.96718 -0.435714 0
M  V30 8755 H 823.811 1.54052 -0.264128 0
M  V30 8756 H 824.546 2.47997 2.08969 0
M  V30 8757 H 824.331 3.81213 0.917543 0
M  V30 8758 H 825.821 3.71712 1.90315 0
M  V30 8759 N 826.258 0.243083 1.55714 0
M  V30 8760 C 827.221 -0.644723 2.19945 0
M  V30 8761 C 828.221 -1.10562 1.16759 0
M  V30 8762 O 829.411 -1.01095 1.41865 0
M  V30 8763 C 826.543 -1.88569 2.83997 0
M  V30 8764 H 827.736 -0.0843839 2.99781 0
M  V30 8765 H 825.289 -0.00647246 1.56299 0
M  V30 8766 H 826.024 -2.48736 2.08089 0
M  V30 8767 H 825.809 -1.56345 3.59581 0
M  V30 8768 H 827.299 -2.51774 3.33166 0
M  V30 8769 N 827.736 -1.57571 -0.0300757 0
M  V30 8770 C 828.668 -2.0329 -1.05857 0
M  V30 8771 C 829.681 -0.945543 -1.32527 0
M  V30 8772 O 830.87 -1.22287 -1.30032 0
M  V30 8773 C 827.97 -2.39234 -2.40042 0
M  V30 8774 C 827.143 -3.70337 -2.32743 0
M  V30 8775 C 826.202 -3.93482 -3.49369 0
M  V30 8776 O 825.228 -4.64551 -3.28909 0
M  V30 8777 N 826.43 -3.39042 -4.71201 0
M  V30 8778 H 829.195 -2.9214 -0.668897 0
M  V30 8779 H 826.756 -1.60425 -0.218038 0
M  V30 8780 H 828.748 -2.51856 -3.16782 0
M  V30 8781 H 827.318 -1.5606 -2.70858 0
M  V30 8782 H 826.538 -3.68079 -1.41109 0
M  V30 8783 H 827.826 -4.56343 -2.25007 0
M  V30 8784 H 827.224 -2.81434 -4.90725 0
M  V30 8785 H 825.781 -3.57045 -5.45309 0
M  V30 8786 N 829.214 0.302327 -1.54673 0
M  V30 8787 C 830.162 1.39286 -1.86285 0
M  V30 8788 C 831.156 1.52553 -0.736478 0
M  V30 8789 O 832.362 1.54686 -0.92045 0
M  V30 8790 H 828.737 0.465228 -0.590819 0
M  V30 8791 H 830.708 1.09859 -2.77441 0
M  V30 8792 C 829.457 2.75155 -2.12567 0
M  V30 8793 H 828.78 2.65728 -2.98712 0
M  V30 8794 H 830.22 3.50476 -2.38627 0
M  V30 8795 C 828.679 3.23987 -0.923813 0
M  V30 8796 O 829.209 4.01443 -0.143649 0
M  V30 8797 N 827.415 2.81293 -0.72956 0
M  V30 8798 H 826.962 2.18421 -1.36565 0
M  V30 8799 H 826.92 3.14315 0.0730351 0
M  V30 8800 N 830.692 1.47107 0.565454 0
M  V30 8801 C 831.94 1.53005 1.32038 0
M  V30 8802 C 832.261 0.190453 1.94068 0
M  V30 8803 O 831.531 -0.784783 1.79494 0
M  V30 8804 H 830.111 0.563578 0.490294 0
M  V30 8805 H 832.773 1.83351 0.660928 0
M  V30 8806 H 831.869 2.29215 2.11818 0
M  V30 8807 N 832.17 -0.811516 1.35101 0
M  V30 8808 C 833.447 -1.55491 1.18667 0
M  V30 8809 C 833.827 -2.09775 -0.236189 0
M  V30 8810 O 833.175 -1.91989 -1.23905 0
M  V30 8811 C 833.385 -2.66732 2.25067 0
M  V30 8812 C 834.733 -3.35201 2.60625 0
M  V30 8813 O 835.757 -2.76998 2.23943 0
M  V30 8814 O 834.616 -4.40334 3.23679 0
M  V30 8815 H 831.71 -0.686783 0.460716 0
M  V30 8816 H 834.256 -0.851903 1.46768 0
M  V30 8817 H 833.028 -2.24457 3.20523 0
M  V30 8818 H 832.651 -3.44673 1.98208 0
M  V30 8819 N 833.648 -1.19017 -1.03309 0
M  V30 8820 C 834.558 -0.939303 -2.14975 0
M  V30 8821 C 835.574 0.0992359 -1.73717 0
M  V30 8822 O 836.75 -0.0844362 -2.01223 0
M  V30 8823 C 833.815 -0.476712 -3.43407 0
M  V30 8824 C 832.876 -1.58413 -3.99003 0
M  V30 8825 C 832.109 -1.14352 -5.21305 0
M  V30 8826 O 832.332 -0.00534408 -5.704 0
M  V30 8827 O 831.266 -1.94436 -5.6963 0
M  V30 8828 H 835.092 -1.87386 -2.38998 0
M  V30 8829 H 832.677 -0.972635 -1.13403 0
M  V30 8830 H 834.559 -0.22718 -4.20787 0
M  V30 8831 H 833.234 0.429455 -3.20839 0
M  V30 8832 H 832.141 -1.88777 -3.22977 0
M  V30 8833 H 833.474 -2.4667 -4.25928 0
M  V30 8834 N 835.127 1.22348 -0.993418 0
M  V30 8835 C 836.352 1.95666 -0.687727 0
M  V30 8836 C 836.777 1.72883 0.741161 0
M  V30 8837 O 836.135 1.00837 1.50671 0
M  V30 8838 C 836.183 3.46457 -0.99998 0
M  V30 8839 O 835.287 4.12281 -0.0989386 0
M  V30 8840 H 834.628 0.612102 -0.257346 0
M  V30 8841 H 837.158 1.55428 -1.33054 0
M  V30 8842 H 837.168 3.96976 -0.942035 0
M  V30 8843 H 835.843 3.62365 -2.04118 0
M  V30 8844 H 834.42 3.72295 -0.212413 0
M  V30 8845 N 836.605 0.766683 1.37694 0
M  V30 8846 C 837.83 0.338715 2.04615 0
M  V30 8847 C 838.255 -1.02918 1.57447 0
M  V30 8848 O 837.613 -1.65849 0.732386 0
M  V30 8849 C 837.661 0.385284 3.58536 0
M  V30 8850 O 836.765 -0.616081 4.07772 0
M  V30 8851 H 836.106 0.147527 0.647404 0
M  V30 8852 H 838.636 1.04146 1.7611 0
M  V30 8853 H 838.646 0.240782 4.07289 0
M  V30 8854 H 837.321 1.38325 3.92223 0
M  V30 8855 H 835.898 -0.435115 3.70353 0
M  V30 8856 N 838.083 -1.48885 0.516809 0
M  V30 8857 C 839.311 -2.06892 -0.0184017 0
M  V30 8858 C 839.726 -1.37511 -1.29368 0
M  V30 8859 O 839.083 -0.458409 -1.76649 0
M  V30 8860 C 839.134 -3.60566 -0.259673 0
M  V30 8861 O 838.855 -4.27338 0.965065 0
M  V30 8862 C 840.356 -4.35331 -0.836751 0
M  V30 8863 H 837.576 -0.670433 0.0275743 0
M  V30 8864 H 840.12 -1.91455 0.718689 0
M  V30 8865 H 838.275 -3.75653 -0.94678 0
M  V30 8866 H 838.689 -5.19287 0.737647 0
M  V30 8867 H 840.163 -5.43675 -0.955065 0
M  V30 8868 H 840.64 -3.9887 -1.83845 0
M  V30 8869 H 841.246 -4.2489 -0.186622 0
M  V30 8870 N 839.561 -0.251338 -1.55583 0
M  V30 8871 C 840.977 0.103409 -1.59265 0
M  V30 8872 C 841.177 1.56559 -1.26852 0
M  V30 8873 O 840.233 2.31071 -1.01796 0
M  V30 8874 C 841.546 -0.249781 -2.99661 0
M  V30 8875 C 843.094 -0.194442 -3.12395 0
M  V30 8876 C 843.569 -0.521728 -4.55019 0
M  V30 8877 N 845.06 -0.472393 -4.60785 0
M  V30 8878 C 845.795 -0.698737 -5.69127 0
M  V30 8879 N 845.291 -0.988443 -6.85713 0
M  V30 8880 N 847.084 -0.629143 -5.58568 0
M  V30 8881 H 839.235 -1.20484 -1.74921 0
M  V30 8882 H 841.498 -0.485092 -0.814488 0
M  V30 8883 H 841.204 -1.26577 -3.28133 0
M  V30 8884 H 841.078 0.420973 -3.74844 0
M  V30 8885 H 843.465 0.812229 -2.83702 0
M  V30 8886 H 843.546 -0.899111 -2.39478 0
M  V30 8887 H 843.19 -1.52597 -4.84434 0
M  V30 8888 H 843.12 0.204468 -5.26203 0
M  V30 8889 H 845.611 -0.257386 -3.77022 0
M  V30 8890 H 845.924 -1.14846 -7.64219 0
M  V30 8891 H 844.269 -1.02596 -6.87386 0
M  V30 8892 H 847.46 -0.402826 -4.66364 0
M  V30 8893 H 847.633 -0.808935 -6.42931 0
M  V30 8894 N 841.039 1.57585 0.0217189 0
M  V30 8895 C 841.969 2.10073 1.01939 0
M  V30 8896 C 842.95 1.0049 1.37243 0
M  V30 8897 O 844.135 1.28055 1.45999 0
M  V30 8898 C 841.265 2.58618 2.31806 0
M  V30 8899 C 840.219 3.72531 2.10724 0
M  V30 8900 C 839.545 4.07309 3.46415 0
M  V30 8901 C 840.845 5.00672 1.48743 0
M  V30 8902 H 842.539 2.9368 0.582432 0
M  V30 8903 H 840.085 1.41277 0.278715 0
M  V30 8904 H 842.038 2.9396 3.01936 0
M  V30 8905 H 840.762 1.72104 2.77575 0
M  V30 8906 H 839.421 3.37549 1.43025 0
M  V30 8907 H 839.069 3.17851 3.89846 0
M  V30 8908 H 838.769 4.84042 3.33132 0
M  V30 8909 H 840.293 4.45192 4.17895 0
M  V30 8910 H 841.707 5.33925 2.088 0
M  V30 8911 H 840.104 5.82065 1.46013 0
M  V30 8912 H 841.174 4.82769 0.45408 0
M  V30 8913 N 842.517 -0.29412 1.54831 0
M  V30 8914 C 843.447 -1.36757 1.89261 0
M  V30 8915 C 844.428 -1.52564 0.752214 0
M  V30 8916 O 845.613 -1.65958 1.00855 0
M  V30 8917 C 842.743 -2.73066 2.14597 0
M  V30 8918 C 841.697 -2.72017 3.3044 0
M  V30 8919 C 841.023 -4.11679 3.4121 0
M  V30 8920 C 842.323 -2.33149 4.67375 0
M  V30 8921 H 844.017 -1.08191 2.79169 0
M  V30 8922 H 841.563 -0.519014 1.34321 0
M  V30 8923 H 843.516 -3.48255 2.37269 0
M  V30 8924 H 842.24 -3.03172 1.21467 0
M  V30 8925 H 840.899 -1.99285 3.07703 0
M  V30 8926 H 840.547 -4.38973 2.45584 0
M  V30 8927 H 840.247 -4.11877 4.19084 0
M  V30 8928 H 841.771 -4.88637 3.6615 0
M  V30 8929 H 843.185 -2.98054 4.89731 0
M  V30 8930 H 841.582 -2.44546 5.48012 0
M  V30 8931 H 842.652 -1.28275 4.67626 0
M  V30 8932 N 843.995 -1.47404 -0.557645 0
M  V30 8933 C 844.925 -1.62736 -1.67449 0
M  V30 8934 C 845.906 -0.476824 -1.6328 0
M  V30 8935 O 847.091 -0.706108 -1.80908 0
M  V30 8936 C 844.221 -1.641 -3.06086 0
M  V30 8937 C 843.175 -2.78377 -3.25101 0
M  V30 8938 C 842.501 -2.64812 -4.6452 0
M  V30 8939 C 843.801 -4.19971 -3.10518 0
M  V30 8940 H 845.495 -2.56232 -1.54873 0
M  V30 8941 H 843.041 -1.23312 -0.743649 0
M  V30 8942 H 844.994 -1.73417 -3.84063 0
M  V30 8943 H 843.718 -0.671652 -3.19619 0
M  V30 8944 H 842.377 -2.6857 -2.49531 0
M  V30 8945 H 842.025 -1.65906 -4.74852 0
M  V30 8946 H 841.725 -3.41477 -4.78191 0
M  V30 8947 H 843.249 -2.76057 -5.44633 0
M  V30 8948 H 844.663 -4.30757 -3.78313 0
M  V30 8949 H 843.06 -4.97419 -3.35699 0
M  V30 8950 H 844.13 -4.38369 -2.0727 0
M  V30 8951 N 845.473 0.80434 -1.35529 0
M  V30 8952 C 846.383 1.94784 -1.30753 0
M  V30 8953 C 847.399 1.72703 -0.212071 0
M  V30 8954 O 848.575 1.96494 -0.441841 0
M  V30 8955 C 845.64 3.29406 -1.08133 0
M  V30 8956 C 844.701 3.64367 -2.27013 0
M  V30 8957 C 843.934 4.92566 -2.05463 0
M  V30 8958 O 844.157 5.61166 -1.02222 0
M  V30 8959 O 843.091 5.25838 -2.92879 0
M  V30 8960 H 846.917 2.01761 -2.26994 0
M  V30 8961 H 844.502 0.942448 -1.15924 0
M  V30 8962 H 846.384 4.09995 -0.973756 0
M  V30 8963 H 845.059 3.23355 -0.149444 0
M  V30 8964 H 843.966 2.84146 -2.43335 0
M  V30 8965 H 845.299 3.75125 -3.18656 0
M  V30 8966 N 846.951 1.19563 1.02676 0
M  V30 8967 C 847.898 0.935291 2.11 0
M  V30 8968 C 848.868 -0.130685 1.65585 0
M  V30 8969 O 850.053 0.0119062 1.90796 0
M  V30 8970 C 847.193 0.482384 3.41712 0
M  V30 8971 C 846.306 1.61537 4.00662 0
M  V30 8972 C 845.441 1.11378 5.19392 0
M  V30 8973 C 844.48 2.22052 5.70403 0
M  V30 8974 N 843.617 1.73185 6.80405 0
M  V30 8975 H 848.457 1.86275 2.32606 0
M  V30 8976 H 845.994 0.928656 1.14081 0
M  V30 8977 H 847.952 0.20118 4.16715 0
M  V30 8978 H 846.582 -0.408086 3.2021 0
M  V30 8979 H 845.634 2.01173 3.22852 0
M  V30 8980 H 846.946 2.44912 4.34534 0
M  V30 8981 H 846.1 0.787935 6.01562 0
M  V30 8982 H 844.839 0.249789 4.8706 0
M  V30 8983 H 843.844 2.55465 4.86845 0
M  V30 8984 H 845.069 3.08911 6.04774 0
M  V30 8985 H 843.015 0.890973 6.49921 0
M  V30 8986 H 842.932 2.50148 7.13416 0
M  V30 8987 H 844.2 1.4357 7.66164 0
M  V30 8988 N 848.429 -1.21819 0.999893 0
M  V30 8989 C 849.377 -2.26027 0.549047 0
M  V30 8990 C 850.371 -1.64516 -0.403826 0
M  V30 8991 O 851.577 -1.77878 -0.275578 0
M  V30 8992 H 847.952 -0.734958 0.159185 0
M  V30 8993 H 849.923 -2.61398 1.43923 0
M  V30 8994 C 848.672 -3.47514 -0.11369 0
M  V30 8995 H 847.995 -3.95112 0.610482 0
M  V30 8996 H 849.435 -4.22179 -0.3925 0
M  V30 8997 C 847.894 -3.08614 -1.35126 0
M  V30 8998 O 848.424 -3.1864 -2.44605 0
M  V30 8999 N 846.63 -2.63327 -1.22911 0
M  V30 9000 H 846.177 -2.55369 -0.338288 0
M  V30 9001 H 846.135 -2.37668 -2.05818 0
M  V30 9002 N 849.908 -0.773975 -1.37286 0
M  V30 9003 C 850.871 -0.167974 -2.28584 0
M  V30 9004 C 851.871 0.625662 -1.48129 0
M  V30 9005 O 853.061 0.448924 -1.68316 0
M  V30 9006 C 850.193 0.769364 -3.32105 0
M  V30 9007 H 851.386 -0.972806 -2.83684 0
M  V30 9008 H 848.939 -0.542335 -1.46589 0
M  V30 9009 H 849.674 1.59912 -2.82132 0
M  V30 9010 H 849.459 0.202419 -3.91577 0
M  V30 9011 H 850.949 1.18872 -4.00324 0
M  V30 9012 N 851.386 1.48609 -0.524698 0
M  V30 9013 C 852.611 2.07398 0.00952139 0
M  V30 9014 C 853.036 1.37939 1.27884 0
M  V30 9015 O 852.394 0.443633 1.75788 0
M  V30 9016 C 852.442 3.59916 0.221956 0
M  V30 9017 O 851.546 3.91647 1.29175 0
M  V30 9018 H 850.887 0.662981 -0.0367729 0
M  V30 9019 H 853.417 1.91092 -0.7311 0
M  V30 9020 H 853.427 4.05552 0.446236 0
M  V30 9021 H 852.102 4.09876 -0.705306 0
M  V30 9022 H 850.679 3.57796 1.05055 0
M  V30 9023 N 852.864 0.259585 1.55447 0
M  V30 9024 C 854.11 -0.362143 1.9954 0
M  V30 9025 C 854.443 -1.5666 1.14767 0
M  V30 9026 O 853.718 -1.93319 0.214025 0
M  V30 9027 C 854.001 -0.759588 3.51998 0
M  V30 9028 C 853.854 0.451134 4.47532 0
M  V30 9029 C 855.173 -1.60186 4.09913 0
M  V30 9030 H 852.292 -0.130157 0.725416 0
M  V30 9031 H 854.934 0.363431 1.86492 0
M  V30 9032 H 853.084 -1.3778 3.63248 0
M  V30 9033 H 854.756 1.08965 4.48246 0
M  V30 9034 H 852.999 1.092 4.19831 0
M  V30 9035 H 853.67 0.129518 5.51848 0
M  V30 9036 H 856.146 -1.0799 4.01842 0
M  V30 9037 H 855.022 -1.84879 5.16828 0
M  V30 9038 H 855.283 -2.57787 3.59163 0
M  V30 9039 N 854.342 -1.57594 -0.0133615 0
M  V30 9040 C 855.29 -2.08682 -1.02736 0
M  V30 9041 C 856.284 -1.00391 -1.36448 0
M  V30 9042 O 857.49 -1.18868 -1.35168 0
M  V30 9043 H 853.865 -0.666158 -0.34891 0
M  V30 9044 H 855.836 -2.9289 -0.570815 0
M  V30 9045 C 854.585 -2.5945 -2.31476 0
M  V30 9046 H 853.908 -3.42401 -2.06401 0
M  V30 9047 H 855.348 -2.98888 -3.00735 0
M  V30 9048 C 853.807 -1.50266 -3.01533 0
M  V30 9049 O 854.337 -0.877875 -3.9199 0
M  V30 9050 N 852.543 -1.23336 -2.63129 0
M  V30 9051 H 852.09 -1.74327 -1.89652 0
M  V30 9052 H 852.048 -0.504987 -3.10318 0
M  V30 9053 N 855.82 0.285905 -1.54985 0
M  V30 9054 C 856.73 1.37534 -1.90057 0
M  V30 9055 C 857.746 1.54707 -0.796348 0
M  V30 9056 O 858.922 1.69082 -1.09423 0
M  V30 9057 C 855.987 2.7167 -2.15398 0
M  V30 9058 C 855.048 2.63354 -3.39033 0
M  V30 9059 C 854.281 3.91093 -3.63155 0
M  V30 9060 O 854.504 4.91169 -2.90015 0
M  V30 9061 O 853.438 3.92075 -4.56685 0
M  V30 9062 H 857.264 1.10791 -2.8277 0
M  V30 9063 H 854.849 0.483303 -1.41367 0
M  V30 9064 H 856.731 3.51006 -2.33179 0
M  V30 9065 H 855.406 2.98226 -1.25868 0
M  V30 9066 H 854.313 1.82438 -3.26599 0
M  V30 9067 H 855.646 2.41749 -4.2874 0
M  V30 9068 N 857.298 1.47698 0.54982 0
M  V30 9069 C 858.544 1.54931 1.30859 0
M  V30 9070 C 858.877 0.214021 1.93017 0
M  V30 9071 O 858.152 -0.778093 1.78258 0
M  V30 9072 C 858.435 2.67286 2.41309 0
M  V30 9073 C 858.288 4.10457 1.83971 0
M  V30 9074 C 859.607 2.75509 3.43195 0
M  V30 9075 H 856.726 0.56399 0.474431 0
M  V30 9076 H 859.368 1.79787 0.614541 0
M  V30 9077 H 857.518 2.46224 3.0051 0
M  V30 9078 H 859.19 4.42903 1.28974 0
M  V30 9079 H 857.433 4.18387 1.14606 0
M  V30 9080 H 858.104 4.84857 2.63851 0
M  V30 9081 H 860.58 2.94531 2.93923 0
M  V30 9082 H 859.456 3.55886 4.17895 0
M  V30 9083 H 859.717 1.82863 4.02509 0
M  V30 9084 N 858.776 -0.797141 1.35954 0
M  V30 9085 C 860.053 -1.54224 1.2031 0
M  V30 9086 C 860.433 -2.10013 -0.213926 0
M  V30 9087 O 859.781 -1.93292 -1.21862 0
M  V30 9088 C 859.991 -2.6433 2.27883 0
M  V30 9089 C 861.339 -3.32418 2.64165 0
M  V30 9090 O 862.363 -2.74607 2.26868 0
M  V30 9091 O 861.222 -4.36876 3.28331 0
M  V30 9092 H 858.316 -0.681857 0.467974 0
M  V30 9093 H 860.862 -0.836288 1.47663 0
M  V30 9094 H 859.634 -2.21044 3.22885 0
M  V30 9095 H 859.257 -3.42551 2.01853 0
M  V30 9096 N 860.254 -1.20106 -1.0204 0
M  V30 9097 C 861.501 -1.00889 -1.75578 0
M  V30 9098 C 861.829 0.459415 -1.88996 0
M  V30 9099 O 861.084 1.35735 -1.40977 0
M  V30 9100 C 861.383 -1.63308 -3.17908 0
M  V30 9101 C 861.049 -3.13091 -3.24476 0
M  V30 9102 C 859.711 -3.53968 -3.25976 0
M  V30 9103 C 862.063 -4.09093 -3.22944 0
M  V30 9104 C 859.391 -4.89381 -3.2361 0
M  V30 9105 C 861.743 -5.44447 -3.22119 0
M  V30 9106 C 860.407 -5.84742 -3.2192 0
M  V30 9107 H 859.677 -0.36918 -0.642485 0
M  V30 9108 H 862.324 -1.49475 -1.19706 0
M  V30 9109 H 860.629 -1.06974 -3.76914 0
M  V30 9110 H 862.326 -1.45958 -3.73493 0
M  V30 9111 H 858.916 -2.80526 -3.24042 0
M  V30 9112 H 863.1 -3.78549 -3.20958 0
M  V30 9113 H 858.356 -5.1987 -3.21785 0
M  V30 9114 H 862.53 -6.18584 -3.19885 0
M  V30 9115 H 860.157 -6.89642 -3.19841 0
M  V30 9116 N 861.732 1.21287 -1.00634 0
M  V30 9117 C 862.642 2.27388 -0.577226 0
M  V30 9118 C 863.658 1.69791 0.380399 0
M  V30 9119 O 864.834 1.99918 0.2439 0
M  V30 9120 C 861.899 3.46588 0.0880532 0
M  V30 9121 C 860.96 4.19453 -0.914222 0
M  V30 9122 C 860.193 5.32962 -0.280596 0
M  V30 9123 O 860.416 5.62895 0.922265 0
M  V30 9124 O 859.35 5.93666 -0.992196 0
M  V30 9125 H 863.176 2.66289 -1.46028 0
M  V30 9126 H 860.761 1.2771 -0.775283 0
M  V30 9127 H 862.643 4.18881 0.460094 0
M  V30 9128 H 861.318 3.09585 0.945461 0
M  V30 9129 H 860.225 3.49376 -1.33744 0
M  V30 9130 H 861.558 4.6037 -1.74126 0
M  V30 9131 N 863.21 0.781244 1.36873 0
M  V30 9132 C 864.458 0.349198 1.9906 0
M  V30 9133 C 864.779 -1.0806 1.62321 0
M  V30 9134 O 864.049 -1.74351 0.893229 0
M  V30 9135 H 862.629 0.126126 0.736275 0
M  V30 9136 H 865.291 1.00148 1.67202 0
M  V30 9137 H 864.387 0.434451 3.09061 0
M  V30 9138 N 864.689 -1.48329 0.532571 0
M  V30 9139 C 866.105 -1.58458 0.190605 0
M  V30 9140 C 866.305 -1.53427 -1.30623 0
M  V30 9141 O 865.361 -1.4247 -2.08467 0
M  V30 9142 C 866.674 -2.89989 0.79543 0
M  V30 9143 C 868.222 -3.03523 0.7644 0
M  V30 9144 C 868.697 -4.37718 1.34785 0
M  V30 9145 N 870.188 -4.44292 1.30993 0
M  V30 9146 C 870.923 -5.4664 1.73124 0
M  V30 9147 N 870.419 -6.5593 2.22997 0
M  V30 9148 N 872.212 -5.37538 1.64346 0
M  V30 9149 H 864.363 -1.49842 1.50537 0
M  V30 9150 H 866.626 -0.71164 0.626316 0
M  V30 9151 H 866.332 -2.99333 1.84642 0
M  V30 9152 H 866.206 -3.76203 0.27403 0
M  V30 9153 H 868.593 -2.93789 -0.277831 0
M  V30 9154 H 868.674 -2.18912 1.3233 0
M  V30 9155 H 868.318 -4.48206 2.38902 0
M  V30 9156 H 868.248 -5.21019 0.764609 0
M  V30 9157 H 870.739 -3.65897 0.944868 0
M  V30 9158 H 871.052 -7.30167 2.53133 0
M  V30 9159 H 869.397 -6.56886 2.26992 0
M  V30 9160 H 872.588 -4.51052 1.25178 0
M  V30 9161 H 872.761 -6.17169 1.97501 0
M  V30 9162 N 866.167 -0.267825 -1.55308 0
M  V30 9163 C 867.395 0.354587 -2.03839 0
M  V30 9164 C 867.81 1.50007 -1.14644 0
M  V30 9165 O 867.167 1.81752 -0.165055 0
M  V30 9166 C 867.218 0.84254 -3.51544 0
M  V30 9167 O 866.939 -0.257318 -4.37344 0
M  V30 9168 C 868.44 1.53351 -4.15931 0
M  V30 9169 H 865.66 0.0818131 -0.665994 0
M  V30 9170 H 868.204 -0.397795 -2.00594 0
M  V30 9171 H 866.359 1.54503 -3.55257 0
M  V30 9172 H 866.773 0.116593 -5.2437 0
M  V30 9173 H 868.247 1.82643 -5.20908 0
M  V30 9174 H 868.724 2.4626 -3.63666 0
M  V30 9175 H 869.33 0.87506 -4.162 0
M  V30 9176 N 867.645 1.57599 0.00500368 0
M  V30 9177 C 869.056 1.78462 0.54848 0
M  V30 9178 C 869.407 0.901869 1.74243 0
M  V30 9179 O 868.532 0.103014 2.16155 0
M  V30 9180 C 869.127 3.2365 1.00179 0
M  V30 9181 C 867.686 3.45627 1.49061 0
M  V30 9182 C 866.833 2.73794 0.439531 0
M  V30 9183 H 869.784 1.57151 -0.22118 0
M  V30 9184 H 869.805 3.31488 1.86805 0
M  V30 9185 H 869.317 3.87873 0.132607 0
M  V30 9186 H 867.418 2.86612 2.38085 0
M  V30 9187 H 867.531 4.54298 1.52152 0
M  V30 9188 H 865.895 2.38267 0.900043 0
M  V30 9189 H 866.678 3.40714 -0.420599 0
M  V30 9190 N 869.123 -0.277682 1.55134 0
M  V30 9191 C 870.056 -1.3685 1.82612 0
M  V30 9192 C 871.034 -1.47752 0.678833 0
M  V30 9193 O 872.218 -1.6445 0.921329 0
M  V30 9194 C 869.345 -2.74539 1.98359 0
M  V30 9195 C 868.391 -2.80945 3.20893 0
M  V30 9196 S 869.224 -2.40666 4.78373 0
M  V30 9197 C 870.38 -3.80338 4.97085 0
M  V30 9198 H 870.613 -1.13338 2.74849 0
M  V30 9199 H 868.146 -0.477063 1.46845 0
M  V30 9200 H 870.104 -3.53834 2.08115 0
M  V30 9201 H 868.765 -2.95306 1.07019 0
M  V30 9202 H 867.958 -3.81992 3.28783 0
M  V30 9203 H 867.56 -2.09667 3.09703 0
M  V30 9204 H 869.852 -4.75565 4.8254 0
M  V30 9205 H 870.795 -3.77403 5.99143 0
M  V30 9206 H 871.203 -3.71424 4.25094 0
M  V30 9207 N 870.601 -1.47988 -0.541979 0
M  V30 9208 C 871.551 -1.58019 -1.64359 0
M  V30 9209 C 872.535 -0.438056 -1.54822 0
M  V30 9210 O 873.727 -0.688837 -1.63046 0
M  V30 9211 C 870.856 -1.61182 -3.03109 0
M  V30 9212 C 869.942 -2.80834 -3.17794 0
M  V30 9213 N 870.333 -4.05379 -3.02492 0
M  V30 9214 C 868.631 -2.77914 -3.48826 0
M  V30 9215 C 869.332 -4.85592 -3.20274 0
M  V30 9216 N 868.308 -4.18188 -3.47304 0
M  V30 9217 H 872.11 -2.52071 -1.5112 0
M  V30 9218 H 869.624 -1.44193 -0.747137 0
M  V30 9219 H 871.621 -1.66461 -3.82226 0
M  V30 9220 H 870.281 -0.682375 -3.17449 0
M  V30 9221 H 871.292 -4.36003 -2.79503 0
M  V30 9222 H 867.969 -1.94174 -3.69598 0
M  V30 9223 H 869.359 -5.94394 -3.13282 0
M  V30 9224 N 872.079 0.78992 -1.36375 0
M  V30 9225 C 873.325 1.55007 -1.3077 0
M  V30 9226 C 873.658 1.93871 0.112979 0
M  V30 9227 O 872.933 1.6267 1.06625 0
M  V30 9228 C 873.216 2.82748 -2.22993 0
M  V30 9229 C 873.069 2.50253 -3.73756 0
M  V30 9230 C 874.388 3.84569 -2.13998 0
M  V30 9231 H 871.507 0.562362 -0.476359 0
M  V30 9232 H 874.149 0.907582 -1.66922 0
M  V30 9233 H 872.299 3.37573 -1.92292 0
M  V30 9234 H 873.971 2.01482 -4.14973 0
M  V30 9235 H 872.214 1.83203 -3.93216 0
M  V30 9236 H 872.885 3.41487 -4.33694 0
M  V30 9237 H 875.361 3.39188 -2.4102 0
M  V30 9238 H 874.237 4.717 -2.80697 0
M  V30 9239 H 874.498 4.27491 -1.12711 0
M  V30 9240 N 873.557 1.20646 1.01402 0
M  V30 9241 C 874.52 0.959314 2.08158 0
M  V30 9242 C 875.52 -0.0661558 1.60664 0
M  V30 9243 O 876.71 0.170177 1.73367 0
M  V30 9244 C 873.842 0.444785 3.37986 0
M  V30 9245 H 875.035 1.90631 2.31517 0
M  V30 9246 H 872.588 1.02219 1.18241 0
M  V30 9247 H 873.323 -0.507553 3.20304 0
M  V30 9248 H 873.108 1.18435 3.73785 0
M  V30 9249 H 874.598 0.291443 4.16582 0
M  V30 9250 N 875.035 -1.20752 1.01276 0
M  V30 9251 C 876.275 -1.91733 0.708372 0
M  V30 9252 C 876.639 -1.76836 -0.747855 0
M  V30 9253 O 877.84 -2.42262 -1.16458 0
M  V30 9254 C 876.111 -3.39155 1.12732 0
M  V30 9255 S 877.67 -4.28518 0.944325 0
M  V30 9256 H 874.488 -0.662394 0.25837 0
M  V30 9257 H 877.09 -1.46085 1.29921 0
M  V30 9258 H 875.794 -3.47516 2.18313 0
M  V30 9259 H 875.325 -3.89826 0.5291 0
M  V30 9260 H 877.34 -4.9596 -0.154278 0
M  V30 9261 N 876.513 -0.788492 -1.36457 0
M  V30 9262 C 877.445 -0.144208 -2.28746 0
M  V30 9263 C 878.458 0.646009 -1.49434 0
M  V30 9264 O 879.647 0.481344 -1.71888 0
M  V30 9265 C 876.747 0.818869 -3.28858 0
M  V30 9266 C 875.92 0.0789055 -4.37329 0
M  V30 9267 C 874.979 0.957791 -5.1741 0
M  V30 9268 O 874.005 0.415378 -5.67682 0
M  V30 9269 N 875.207 2.28216 -5.33758 0
M  V30 9270 H 877.972 -0.936949 -2.84678 0
M  V30 9271 H 875.533 -0.642317 -1.48613 0
M  V30 9272 H 877.525 1.41065 -3.79319 0
M  V30 9273 H 876.095 1.51249 -2.73573 0
M  V30 9274 H 875.315 -0.693939 -3.88044 0
M  V30 9275 H 876.603 -0.431753 -5.06965 0
M  V30 9276 H 876.001 2.747 -4.94527 0
M  V30 9277 H 874.558 2.8236 -5.87466 0
M  V30 9278 N 877.991 1.48044 -0.54043 0
M  V30 9279 C 878.941 2.26768 0.236657 0
M  V30 9280 C 879.925 1.33341 0.900505 0
M  V30 9281 O 881.117 1.57809 0.801584 0
M  V30 9282 C 878.246 3.18685 1.27651 0
M  V30 9283 C 877.332 4.19589 0.616923 0
M  V30 9284 N 877.723 5.04889 -0.303377 0
M  V30 9285 C 876.021 4.37375 0.872879 0
M  V30 9286 C 876.722 5.77654 -0.684905 0
M  V30 9287 N 875.698 5.43583 -0.0435728 0
M  V30 9288 H 879.5 2.90098 -0.471183 0
M  V30 9289 H 877.014 1.58378 -0.359183 0
M  V30 9290 H 879.011 3.73752 1.84702 0
M  V30 9291 H 877.671 2.56911 1.98562 0
M  V30 9292 H 878.682 5.13461 -0.676591 0
M  V30 9293 H 875.359 3.86784 1.57177 0
M  V30 9294 H 876.749 6.56285 -1.44015 0
M  V30 9295 N 879.47 0.276058 1.55163 0
M  V30 9296 C 880.718 -0.339782 1.99223 0
M  V30 9297 C 881.039 -1.56307 1.16589 0
M  V30 9298 O 880.309 -1.94225 0.25564 0
M  V30 9299 H 878.889 -0.128534 0.735859 0
M  V30 9300 H 881.551 0.381612 1.91128 0
M  V30 9301 H 880.647 -0.629 3.05696 0
M  V30 9302 N 880.948 -1.576 0.00335426 0
M  V30 9303 C 881.88 -2.0549 -1.01521 0
M  V30 9304 C 882.893 -0.973441 -1.30491 0
M  V30 9305 O 884.082 -1.25017 -1.27409 0
M  V30 9306 C 881.182 -2.44272 -2.34914 0
M  V30 9307 C 880.355 -3.75191 -2.24835 0
M  V30 9308 C 879.414 -4.00804 -3.40944 0
M  V30 9309 O 878.44 -4.71423 -3.18981 0
M  V30 9310 N 879.642 -3.48961 -4.63904 0
M  V30 9311 H 882.407 -2.93493 -0.60678 0
M  V30 9312 H 879.968 -1.60851 -0.18396 0
M  V30 9313 H 881.96 -2.58518 -3.11369 0
M  V30 9314 H 880.53 -1.6177 -2.67487 0
M  V30 9315 H 879.75 -3.70989 -1.3327 0
M  V30 9316 H 881.038 -4.61013 -2.15277 0
M  V30 9317 H 880.436 -2.9178 -4.84645 0
M  V30 9318 H 878.993 -3.68531 -5.37613 0
M  V30 9319 N 882.426 0.269451 -1.5528 0
M  V30 9320 C 883.336 1.35511 -1.91505 0
M  V30 9321 C 884.352 1.53854 -0.812712 0
M  V30 9322 O 885.528 1.67912 -1.1121 0
M  V30 9323 C 882.593 2.6937 -2.18267 0
M  V30 9324 C 881.654 2.59743 -3.41807 0
M  V30 9325 C 880.887 3.87219 -3.67283 0
M  V30 9326 O 881.11 4.88066 -2.95208 0
M  V30 9327 O 880.044 3.87209 -4.60818 0
M  V30 9328 H 883.87 1.07785 -2.8393 0
M  V30 9329 H 881.455 0.468282 -1.41871 0
M  V30 9330 H 883.337 3.48513 -2.36889 0
M  V30 9331 H 882.012 2.96874 -1.29024 0
M  V30 9332 H 880.919 1.78964 -3.28516 0
M  V30 9333 H 882.252 2.37188 -4.3128 0
M  V30 9334 N 883.904 1.48273 0.534124 0
M  V30 9335 C 884.852 1.62926 1.66005 0
M  V30 9336 C 885.846 0.495814 1.61982 0
M  V30 9337 O 887.052 0.6744 1.66889 0
M  V30 9338 H 883.427 0.513163 0.549698 0
M  V30 9339 H 885.398 2.57498 1.50789 0
M  V30 9340 C 884.147 1.68231 3.04292 0
M  V30 9341 H 883.47 2.54807 3.0808 0
M  V30 9342 H 884.91 1.82528 3.827 0
M  V30 9343 C 883.369 0.420154 3.3427 0
M  V30 9344 O 883.899 -0.468769 3.98955 0
M  V30 9345 N 882.105 0.293115 2.89118 0
M  V30 9346 H 881.652 1.01745 2.36655 0
M  V30 9347 H 881.61 -0.550376 3.09545 0
M  V30 9348 N 885.382 -0.782676 1.36792 0
M  V30 9349 C 886.631 -1.53605 1.30723 0
M  V30 9350 C 886.944 -1.95294 -0.109296 0
M  V30 9351 O 888.15 -2.69921 -0.292398 0
M  V30 9352 C 886.606 -2.77321 2.29393 0
M  V30 9353 C 886.214 -2.42774 3.76517 0
M  V30 9354 C 887.958 -3.55289 2.32314 0
M  V30 9355 C 885.865 -3.62926 4.66947 0
M  V30 9356 H 884.795 -0.576646 0.485794 0
M  V30 9357 H 887.446 -0.858255 1.62192 0
M  V30 9358 H 885.828 -3.46934 1.90927 0
M  V30 9359 H 887.002 -1.81014 4.23758 0
M  V30 9360 H 885.317 -1.78002 3.76436 0
M  V30 9361 H 887.914 -4.44573 2.97083 0
M  V30 9362 H 888.257 -3.94361 1.3336 0
M  V30 9363 H 888.79 -2.92662 2.69432 0
M  V30 9364 H 885.529 -3.28944 5.66989 0
M  V30 9365 H 885.049 -4.23828 4.24418 0
M  V30 9366 H 886.728 -4.29873 4.83548 0
M  V30 9367 N 886.86 -1.21182 -1.00761 0
M  V30 9368 C 888.106 -1.02898 -1.74756 0
M  V30 9369 C 888.439 0.436774 -1.89225 0
M  V30 9370 O 887.714 1.32415 -1.42466 0
M  V30 9371 C 887.997 -1.72372 -3.16164 0
M  V30 9372 C 887.85 -3.2645 -3.09435 0
M  V30 9373 C 889.169 -1.46415 -4.15031 0
M  V30 9374 H 886.288 -0.375214 -0.634337 0
M  V30 9375 H 888.93 -1.49321 -1.17487 0
M  V30 9376 H 887.08 -1.32906 -3.65059 0
M  V30 9377 H 888.752 -3.75269 -2.68274 0
M  V30 9378 H 886.995 -3.56889 -2.46603 0
M  V30 9379 H 887.666 -3.70226 -4.09435 0
M  V30 9380 H 890.142 -1.80671 -3.7483 0
M  V30 9381 H 889.018 -1.97544 -5.12121 0
M  V30 9382 H 889.279 -0.39361 -4.40344 0
M  V30 9383 N 888.338 1.20213 -1.01915 0
M  V30 9384 C 889.754 1.41696 -0.734459 0
M  V30 9385 C 889.954 1.89504 0.684867 0
M  V30 9386 O 889.01 2.06556 1.45227 0
M  V30 9387 C 890.323 2.43644 -1.76233 0
M  V30 9388 C 891.871 2.57406 -1.78076 0
M  V30 9389 C 892.346 3.626 -2.79796 0
M  V30 9390 N 893.837 3.70086 -2.78551 0
M  V30 9391 C 894.572 4.51145 -3.53915 0
M  V30 9392 N 894.068 5.35988 -4.38963 0
M  V30 9393 N 895.861 4.45702 -3.425 0
M  V30 9394 H 888.012 0.874976 -1.93541 0
M  V30 9395 H 890.275 0.446647 -0.836188 0
M  V30 9396 H 889.981 2.15519 -2.77929 0
M  V30 9397 H 889.855 3.42672 -1.57657 0
M  V30 9398 H 892.242 2.8486 -0.770634 0
M  V30 9399 H 892.323 1.58565 -2.00725 0
M  V30 9400 H 891.967 3.35889 -3.80973 0
M  V30 9401 H 891.897 4.61069 -2.54407 0
M  V30 9402 H 894.388 3.09484 -2.1686 0
M  V30 9403 H 894.701 5.94932 -4.9323 0
M  V30 9404 H 893.046 5.35482 -4.4304 0
M  V30 9405 H 896.237 3.78456 -2.75478 0
M  V30 9406 H 896.41 5.08637 -4.01487 0
M  V30 9407 N 889.816 0.795718 1.36037 0
M  V30 9408 C 891.065 0.367575 1.98322 0
M  V30 9409 C 891.378 -1.06823 1.63854 0
M  V30 9410 O 892.584 -1.59895 2.19421 0
M  V30 9411 C 891.04 0.606272 3.54757 0
M  V30 9412 C 890.648 2.0539 3.98144 0
M  V30 9413 C 892.392 0.242947 4.23804 0
M  V30 9414 C 890.299 2.23893 5.47381 0
M  V30 9415 H 889.229 0.133699 0.742052 0
M  V30 9416 H 891.88 0.978242 1.5525 0
M  V30 9417 H 890.262 -0.0741957 3.9593 0
M  V30 9418 H 891.436 2.77129 3.68152 0
M  V30 9419 H 889.751 2.37607 3.41953 0
M  V30 9420 H 892.348 0.359382 5.33491 0
M  V30 9421 H 892.691 -0.809661 4.08351 0
M  V30 9422 H 893.224 0.876899 3.88015 0
M  V30 9423 H 889.963 3.27559 5.6779 0
M  V30 9424 H 889.483 1.56666 5.78978 0
M  V30 9425 H 891.162 2.04914 6.13693 0
M  V30 9426 N 891.294 -1.47756 0.548274 0
M  V30 9427 C 892.224 -2.32702 -0.19284 0
M  V30 9428 C 893.205 -1.43237 -0.917457 0
M  V30 9429 O 894.39 -1.72103 -0.89967 0
M  V30 9430 C 891.52 -3.24831 -1.22891 0
M  V30 9431 C 890.474 -4.23466 -0.621312 0
M  V30 9432 C 889.8 -5.04856 -1.76137 0
M  V30 9433 C 891.1 -5.20616 0.419055 0
M  V30 9434 H 892.794 -2.94914 0.516323 0
M  V30 9435 H 890.34 -1.41818 0.24975 0
M  V30 9436 H 892.293 -3.83094 -1.75547 0
M  V30 9437 H 891.017 -2.60656 -1.9679 0
M  V30 9438 H 889.676 -3.66416 -0.116123 0
M  V30 9439 H 889.324 -4.37091 -2.48918 0
M  V30 9440 H 889.024 -5.71629 -1.36065 0
M  V30 9441 H 890.548 -5.65976 -2.29136 0
M  V30 9442 H 891.962 -5.73296 -0.0211034 0
M  V30 9443 H 890.359 -5.95543 0.738163 0
M  V30 9444 H 891.429 -4.66638 1.31822 0
M  V30 9445 N 892.772 -0.284283 -1.55015 0
M  V30 9446 C 893.702 0.592663 -2.25853 0
M  V30 9447 C 894.683 1.15151 -1.25197 0
M  V30 9448 O 895.868 1.18395 -1.53936 0
M  V30 9449 C 892.998 1.77254 -2.98661 0
M  V30 9450 C 891.952 1.34482 -4.06323 0
M  V30 9451 C 891.278 2.60853 -4.66754 0
M  V30 9452 C 892.578 0.488288 -5.20013 0
M  V30 9453 H 894.272 0.00187041 -2.994 0
M  V30 9454 H 891.818 -0.000540402 -1.44 0
M  V30 9455 H 893.771 2.39199 -3.46932 0
M  V30 9456 H 892.495 2.38931 -2.22664 0
M  V30 9457 H 891.154 0.748519 -3.58877 0
M  V30 9458 H 890.802 3.20808 -3.87416 0
M  V30 9459 H 890.502 2.32942 -5.39455 0
M  V30 9460 H 892.026 3.23631 -5.1778 0
M  V30 9461 H 893.44 1.01298 -5.6428 0
M  V30 9462 H 891.837 0.303669 -5.99331 0
M  V30 9463 H 892.907 -0.490727 -4.8241 0
M  V30 9464 N 894.251 1.57596 -0.0117121 0
M  V30 9465 C 895.667 1.55837 0.344506 0
M  V30 9466 C 895.867 1.01557 1.74036 0
M  V30 9467 O 894.923 0.654563 2.43868 0
M  V30 9468 C 896.236 2.99973 0.209023 0
M  V30 9469 C 897.784 3.11717 0.283092 0
M  V30 9470 C 898.259 4.57659 0.176599 0
M  V30 9471 N 899.75 4.62608 0.234133 0
M  V30 9472 C 900.485 5.73132 0.175252 0
M  V30 9473 N 899.981 6.92768 0.0662888 0
M  V30 9474 N 901.774 5.61638 0.227972 0
M  V30 9475 H 893.925 1.91215 -0.924692 0
M  V30 9476 H 896.188 0.878807 -0.355531 0
M  V30 9477 H 895.894 3.4357 -0.751826 0
M  V30 9478 H 895.768 3.64075 0.98635 0
M  V30 9479 H 898.155 2.68043 1.23439 0
M  V30 9480 H 898.236 2.50369 -0.52431 0
M  V30 9481 H 897.88 5.02011 -0.771205 0
M  V30 9482 H 897.81 5.16967 1.00264 0
M  V30 9483 H 900.301 3.76549 0.319203 0
M  V30 9484 H 900.614 7.72795 0.0275765 0
M  V30 9485 H 898.959 6.94993 0.0317502 0
M  V30 9486 H 902.15 4.67063 0.311377 0
M  V30 9487 H 902.323 6.47754 0.178621 0
M  V30 9488 N 895.729 -0.261212 1.5542 0
M  V30 9489 C 897.145 -0.609012 1.47524 0
M  V30 9490 C 897.345 -1.88986 0.699042 0
M  V30 9491 O 896.401 -2.51517 0.222628 0
M  V30 9492 C 897.714 -0.725025 2.91828 0
M  V30 9493 C 899.262 -0.818302 3.02114 0
M  V30 9494 C 899.737 -0.965996 4.47697 0
M  V30 9495 N 901.228 -1.03123 4.51575 0
M  V30 9496 C 901.963 -1.16451 5.6145 0
M  V30 9497 N 901.459 -1.26425 6.81167 0
M  V30 9498 N 903.252 -1.19655 5.49217 0
M  V30 9499 H 895.403 0.579807 2.04333 0
M  V30 9500 H 897.666 0.198072 0.927077 0
M  V30 9501 H 897.372 0.145871 3.51397 0
M  V30 9502 H 897.246 -1.60156 3.41511 0
M  V30 9503 H 899.633 -1.67966 2.42634 0
M  V30 9504 H 899.714 0.0830895 2.55665 0
M  V30 9505 H 899.358 -0.109251 5.07782 0
M  V30 9506 H 899.288 -1.88221 4.91813 0
M  V30 9507 H 901.779 -0.966072 3.65343 0
M  V30 9508 H 902.092 -1.36462 7.60656 0
M  V30 9509 H 900.437 -1.23408 6.83956 0
M  V30 9510 H 903.628 -1.11501 4.54626 0
M  V30 9511 H 903.801 -1.29698 6.34888 0
M  V30 9512 N 897.207 -1.48554 -0.526253 0
M  V30 9513 C 898.455 -1.56452 -1.27935 0
M  V30 9514 C 898.776 -0.24184 -1.93495 0
M  V30 9515 O 898.046 0.736917 -1.81511 0
M  V30 9516 H 896.626 -0.576379 -0.47518 0
M  V30 9517 H 899.288 -1.85039 -0.612083 0
M  V30 9518 H 898.384 -2.34751 -2.05666 0
M  V30 9519 N 898.685 0.775411 -1.37205 0
M  V30 9520 C 899.931 1.53611 -1.32407 0
M  V30 9521 C 900.264 1.9398 0.0924103 0
M  V30 9522 O 899.539 1.63791 1.04893 0
M  V30 9523 C 899.822 2.80367 -2.25979 0
M  V30 9524 C 899.675 2.46275 -3.76389 0
M  V30 9525 C 900.994 3.82277 -2.18064 0
M  V30 9526 H 898.113 0.557278 -0.482297 0
M  V30 9527 H 900.755 0.889826 -1.67875 0
M  V30 9528 H 898.905 3.35515 -1.95862 0
M  V30 9529 H 900.577 1.9707 -4.17087 0
M  V30 9530 H 898.82 1.79023 -3.95137 0
M  V30 9531 H 899.491 3.36868 -4.37291 0
M  V30 9532 H 901.967 3.36613 -2.44604 0
M  V30 9533 H 900.843 4.68696 -2.85684 0
M  V30 9534 H 901.104 4.26272 -1.17239 0
M  V30 9535 N 900.163 1.21714 1.00117 0
M  V30 9536 C 901.44 0.945391 1.71236 0
M  V30 9537 C 901.82 -0.541772 2.0403 0
M  V30 9538 O 901.168 -1.50763 1.71705 0
M  V30 9539 C 901.378 1.83444 2.96899 0
M  V30 9540 C 902.726 2.08558 3.69849 0
M  V30 9541 O 903.75 1.80824 3.06889 0
M  V30 9542 O 902.609 2.55485 4.83104 0
M  V30 9543 H 899.703 0.354834 0.747009 0
M  V30 9544 H 902.249 1.32661 1.05825 0
M  V30 9545 H 901.021 2.84075 2.69105 0
M  V30 9546 H 900.644 1.45428 3.70049 0
M  V30 9547 N 901.641 -1.19671 1.02551 0
M  V30 9548 C 902.887 -1.89548 0.721069 0
M  V30 9549 C 903.22 -1.79209 -0.748176 0
M  V30 9550 O 902.495 -1.1822 -1.54448 0
M  V30 9551 C 902.778 -3.4061 1.16861 0
M  V30 9552 C 902.631 -3.59838 2.69883 0
M  V30 9553 C 903.95 -4.33718 0.746782 0
M  V30 9554 H 901.069 -0.688315 0.263422 0
M  V30 9555 H 903.711 -1.40883 1.27483 0
M  V30 9556 H 901.861 -3.82188 0.697477 0
M  V30 9557 H 903.533 -3.27454 3.24917 0
M  V30 9558 H 901.776 -3.03005 3.10435 0
M  V30 9559 H 902.447 -4.65766 2.96253 0
M  V30 9560 H 904.923 -3.99837 1.15195 0
M  V30 9561 H 903.799 -5.38012 1.08786 0
M  V30 9562 H 904.06 -4.40704 -0.351057 0
M  V30 9563 N 903.119 -0.802921 -1.35613 0
M  V30 9564 C 904.344 -0.392846 -2.03645 0
M  V30 9565 C 904.769 0.987075 -1.6012 0
M  V30 9566 O 904.127 1.63849 -0.776101 0
M  V30 9567 C 904.175 -0.480208 -3.57388 0
M  V30 9568 O 903.279 0.507751 -4.09262 0
M  V30 9569 H 902.62 -0.16464 -0.643265 0
M  V30 9570 H 905.15 -1.08779 -1.73287 0
M  V30 9571 H 905.16 -0.348683 -4.06507 0
M  V30 9572 H 903.835 -1.48675 -3.88418 0
M  V30 9573 H 902.412 0.336769 -3.71376 0
M  V30 9574 N 904.597 1.47463 -0.556102 0
M  V30 9575 C 905.527 2.32801 0.180497 0
M  V30 9576 C 906.508 1.43721 0.909848 0
M  V30 9577 O 907.693 1.72578 0.89053 0
M  V30 9578 C 904.823 3.25478 1.21167 0
M  V30 9579 C 903.777 4.2379 0.598846 0
M  V30 9580 C 903.103 5.05783 1.73457 0
M  V30 9581 C 904.403 5.20387 -0.446659 0
M  V30 9582 H 906.097 2.94636 -0.531956 0
M  V30 9583 H 903.643 1.41683 -0.257267 0
M  V30 9584 H 905.596 3.8402 1.73513 0
M  V30 9585 H 904.32 2.61695 1.95405 0
M  V30 9586 H 902.979 3.66472 0.0966897 0
M  V30 9587 H 902.627 4.38405 2.46596 0
M  V30 9588 H 902.327 5.72343 1.33031 0
M  V30 9589 H 903.851 5.67183 2.26131 0
M  V30 9590 H 905.265 5.73299 -0.00930019 0
M  V30 9591 H 903.662 5.95143 -0.769735 0
M  V30 9592 H 904.732 4.65932 -1.34295 0
M  V30 9593 N 906.075 0.2925 1.54862 0
M  V30 9594 C 907.007 -0.620889 2.2063 0
M  V30 9595 C 908.02 -1.10412 1.19637 0
M  V30 9596 O 909.209 -1.02304 1.46274 0
M  V30 9597 C 906.309 -1.861 2.83232 0
M  V30 9598 C 905.482 -1.52168 4.10078 0
M  V30 9599 C 904.541 -2.61605 4.56562 0
M  V30 9600 O 903.567 -2.27056 5.21952 0
M  V30 9601 N 904.769 -3.9199 4.28163 0
M  V30 9602 H 907.534 -0.0579028 2.99644 0
M  V30 9603 H 905.095 0.114333 1.61496 0
M  V30 9604 H 907.087 -2.58642 3.11266 0
M  V30 9605 H 905.657 -2.33259 2.08108 0
M  V30 9606 H 904.877 -0.629283 3.89145 0
M  V30 9607 H 906.165 -1.27023 4.92689 0
M  V30 9608 H 905.563 -4.22872 3.7576 0
M  V30 9609 H 904.12 -4.60857 4.60928 0
M  V30 9610 N 907.553 -1.57587 0.0200696 0
M  V30 9611 C 908.801 -1.91046 -0.65922 0
M  V30 9612 C 909.122 -0.896197 -1.73186 0
M  V30 9613 O 908.392 0.0635952 -1.95797 0
M  V30 9614 H 906.972 -0.705163 -0.246483 0
M  V30 9615 H 909.634 -1.94789 0.0657368 0
M  V30 9616 H 908.73 -2.91399 -1.11773 0
M  V30 9617 N 909.032 0.252966 -1.55557 0
M  V30 9618 C 909.979 1.3131 -1.89806 0
M  V30 9619 C 910.949 1.48121 -0.751633 0
M  V30 9620 O 912.134 1.62202 -1.00474 0
M  V30 9621 C 909.274 2.66467 -2.19293 0
M  V30 9622 C 908.387 2.57714 -3.46709 0
M  V30 9623 C 907.522 3.85184 -3.65796 0
M  V30 9624 C 906.561 3.71023 -4.86835 0
M  V30 9625 N 905.698 4.90371 -5.02474 0
M  V30 9626 H 910.538 1.01402 -2.80217 0
M  V30 9627 H 908.075 0.489462 -1.38718 0
M  V30 9628 H 910.033 3.45132 -2.34392 0
M  V30 9629 H 908.663 2.94536 -1.32093 0
M  V30 9630 H 907.715 1.70651 -3.39974 0
M  V30 9631 H 909.027 2.43158 -4.35517 0
M  V30 9632 H 908.181 4.72292 -3.80822 0
M  V30 9633 H 906.92 4.0263 -2.7521 0
M  V30 9634 H 905.925 2.82299 -4.71792 0
M  V30 9635 H 907.15 3.55078 -5.78875 0
M  V30 9636 H 905.096 5.0819 -4.14824 0
M  V30 9637 H 905.013 4.78423 -5.85361 0
M  V30 9638 H 906.281 5.78995 -5.21905 0
M  V30 9639 N 910.51 1.48831 0.518367 0
M  V30 9640 C 911.787 1.47933 1.27966 0
M  V30 9641 C 912.167 0.197393 2.10175 0
M  V30 9642 O 911.515 -0.820656 2.13255 0
M  V30 9643 C 911.725 2.74816 2.15121 0
M  V30 9644 C 913.073 3.23613 2.74881 0
M  V30 9645 O 914.097 2.75814 2.254 0
M  V30 9646 O 912.956 4.06818 3.64913 0
M  V30 9647 H 910.05 0.591316 0.578164 0
M  V30 9648 H 912.596 1.61077 0.534065 0
M  V30 9649 H 911.368 3.59621 1.54234 0
M  V30 9650 H 910.991 2.64449 2.96905 0
M  V30 9651 N 911.988 -0.768124 1.37614 0
M  V30 9652 C 912.951 -1.86314 1.3349 0
M  V30 9653 C 913.951 -1.59025 0.23823 0
M  V30 9654 O 915.141 -1.6704 0.494288 0
M  V30 9655 C 912.273 -3.23519 1.07462 0
M  V30 9656 H 913.466 -1.91382 2.30896 0
M  V30 9657 H 911.019 -0.968267 1.22696 0
M  V30 9658 H 911.754 -3.24127 0.106028 0
M  V30 9659 H 911.539 -3.44719 1.86846 0
M  V30 9660 H 913.029 -4.03597 1.07236 0
M  V30 9661 N 913.466 -1.22244 -0.994698 0
M  V30 9662 C 914.712 -1.05752 -1.73747 0
M  V30 9663 C 915.067 0.403416 -1.88123 0
M  V30 9664 O 914.36 1.29511 -1.412 0
M  V30 9665 C 914.554 -1.70014 -3.14372 0
M  V30 9666 C 914.383 -3.22205 -3.1371 0
M  V30 9667 C 913.153 -3.91301 -3.19705 0
M  V30 9668 C 915.351 -4.19163 -2.98005 0
M  V30 9669 N 913.333 -5.30594 -3.08778 0
M  V30 9670 C 914.704 -5.45274 -2.95087 0
M  V30 9671 C 916.759 -4.10078 -2.82383 0
M  V30 9672 C 915.462 -6.63345 -2.78146 0
M  V30 9673 C 917.488 -5.27797 -2.66803 0
M  V30 9674 C 916.85 -6.52826 -2.6457 0
M  V30 9675 H 912.949 -0.441393 -0.64552 0
M  V30 9676 H 915.533 -1.54757 -1.18146 0
M  V30 9677 H 913.704 -1.23562 -3.68221 0
M  V30 9678 H 915.436 -1.46631 -3.77202 0
M  V30 9679 H 912.191 -3.42289 -3.27315 0
M  V30 9680 H 912.615 -6.0358 -3.06628 0
M  V30 9681 H 917.257 -3.14201 -2.82909 0
M  V30 9682 H 914.975 -7.59373 -2.76367 0
M  V30 9683 H 918.561 -5.22598 -2.557 0
M  V30 9684 H 917.441 -7.42383 -2.5266 0
M  V30 9685 N 914.944 1.19125 -1.03184 0
M  V30 9686 C 915.874 2.24675 -0.635889 0
M  V30 9687 C 916.855 1.66321 0.356565 0
M  V30 9688 O 918.04 1.92728 0.238625 0
M  V30 9689 C 915.17 3.47298 0.011069 0
M  V30 9690 C 914.124 4.18345 -0.903979 0
M  V30 9691 C 913.45 5.34561 -0.12197 0
M  V30 9692 C 914.75 4.72816 -2.21907 0
M  V30 9693 H 916.444 2.5805 -1.51825 0
M  V30 9694 H 913.99 1.24039 -0.73146 0
M  V30 9695 H 915.943 4.20333 0.299729 0
M  V30 9696 H 914.667 3.13131 0.928245 0
M  V30 9697 H 913.326 3.47196 -1.17688 0
M  V30 9698 H 912.974 4.9664 0.797334 0
M  V30 9699 H 912.674 5.83029 -0.731498 0
M  V30 9700 H 914.198 6.10391 0.159881 0
M  V30 9701 H 915.612 5.3759 -1.99173 0
M  V30 9702 H 914.009 5.31782 -2.78078 0
M  V30 9703 H 915.079 3.9072 -2.87168 0
M  V30 9704 N 916.422 0.810101 1.35185 0
M  V30 9705 C 917.833 0.452616 1.81131 0
M  V30 9706 C 918.184 -1.02573 1.67252 0
M  V30 9707 O 917.309 -1.79735 1.20516 0
M  V30 9708 C 917.904 0.814775 3.28857 0
M  V30 9709 C 916.463 0.509839 3.72931 0
M  V30 9710 C 915.61 1.03852 2.57119 0
M  V30 9711 H 918.561 1.00143 1.23114 0
M  V30 9712 H 918.582 0.113635 3.8033 0
M  V30 9713 H 918.094 1.89078 3.38926 0
M  V30 9714 H 916.195 -0.557289 3.68409 0
M  V30 9715 H 916.308 1.04493 4.67566 0
M  V30 9716 H 914.672 0.460671 2.50499 0
M  V30 9717 H 915.455 2.12071 2.69964 0
M  V30 9718 N 917.9 -1.47166 0.563914 0
M  V30 9719 C 918.83 -2.32894 -0.168148 0
M  V30 9720 C 919.811 -1.44202 -0.902214 0
M  V30 9721 O 920.996 -1.73048 -0.881365 0
M  V30 9722 C 918.126 -3.26116 -1.19439 0
M  V30 9723 C 917.08 -4.24101 -0.576363 0
M  V30 9724 C 916.406 -5.06696 -1.70772 0
M  V30 9725 C 917.706 -5.20142 0.47425 0
M  V30 9726 H 919.4 -2.9435 0.547573 0
M  V30 9727 H 916.946 -1.41545 0.264778 0
M  V30 9728 H 918.899 -3.84935 -1.71474 0
M  V30 9729 H 917.623 -2.62728 -1.94014 0
M  V30 9730 H 916.282 -3.66519 -0.0772534 0
M  V30 9731 H 915.93 -4.39707 -2.44268 0
M  V30 9732 H 915.63 -5.7304 -1.29994 0
M  V30 9733 H 917.154 -5.68375 -2.2312 0
M  V30 9734 H 918.568 -5.73286 0.0397035 0
M  V30 9735 H 916.965 -5.94726 0.801287 0
M  V30 9736 H 918.035 -4.65214 1.36764 0
M  V30 9737 N 919.378 -0.300708 -1.54705 0
M  V30 9738 C 920.328 0.590589 -2.20218 0
M  V30 9739 C 921.312 1.09913 -1.17507 0
M  V30 9740 O 922.504 1.03995 -1.43227 0
M  V30 9741 C 919.633 1.76214 -2.94625 0
M  V30 9742 C 918.719 1.26957 -4.04651 0
M  V30 9743 N 919.11 0.494982 -5.03372 0
M  V30 9744 C 917.408 1.55033 -4.18188 0
M  V30 9745 C 918.109 0.232724 -5.81234 0
M  V30 9746 N 917.085 0.812443 -5.37494 0
M  V30 9747 H 920.887 -0.00876354 -2.93899 0
M  V30 9748 H 918.401 -0.105456 -1.62057 0
M  V30 9749 H 920.398 2.41221 -3.40027 0
M  V30 9750 H 919.058 2.36519 -2.22461 0
M  V30 9751 H 920.069 0.13991 -5.17711 0
M  V30 9752 H 916.746 2.16089 -3.57228 0
M  V30 9753 H 918.136 -0.389362 -6.70771 0
M  V30 9754 N 920.856 1.57574 -0.0284266 0
M  V30 9755 C 922.086 1.95787 0.659617 0
M  V30 9756 C 922.494 0.903475 1.66235 0
M  V30 9757 O 921.837 -0.12329 1.83286 0
M  V30 9758 C 921.899 3.30139 1.42298 0
M  V30 9759 C 921.563 4.53322 0.578658 0
M  V30 9760 C 922.56 5.19696 -0.145751 0
M  V30 9761 C 920.245 4.9964 0.516264 0
M  V30 9762 C 922.239 6.30708 -0.921235 0
M  V30 9763 C 919.926 6.10534 -0.262925 0
M  V30 9764 C 920.924 6.75927 -0.980382 0
M  V30 9765 O 920.612 7.84692 -1.7468 0
M  V30 9766 H 920.344 0.649681 0.186792 0
M  V30 9767 H 922.898 2.05227 -0.0842687 0
M  V30 9768 H 921.128 3.17188 2.21199 0
M  V30 9769 H 922.817 3.53259 1.99906 0
M  V30 9770 H 923.583 4.84882 -0.106876 0
M  V30 9771 H 919.462 4.48547 1.06427 0
M  V30 9772 H 923.006 6.81682 -1.48176 0
M  V30 9773 H 918.903 6.44786 -0.303519 0
M  V30 9774 H 919.671 8.01355 -1.6665 0
M  V30 9775 N 922.334 -0.244713 1.55689 0
M  V30 9776 C 923.297 -1.2864 1.89695 0
M  V30 9777 C 924.297 -1.40969 0.773583 0
M  V30 9778 O 925.487 -1.39632 1.04156 0
M  V30 9779 C 922.619 -2.66379 2.12732 0
M  V30 9780 H 923.812 -0.997033 2.82841 0
M  V30 9781 H 921.365 -0.484103 1.48614 0
M  V30 9782 H 922.1 -3.00452 1.22062 0
M  V30 9783 H 921.885 -2.58812 2.94549 0
M  V30 9784 H 923.375 -3.41592 2.40218 0
M  V30 9785 N 923.813 -1.49104 -0.510467 0
M  V30 9786 C 924.776 -1.64569 -1.59529 0
M  V30 9787 C 925.776 -0.517937 -1.5223 0
M  V30 9788 O 926.966 -0.784183 -1.55551 0
M  V30 9789 C 924.098 -1.6342 -2.99177 0
M  V30 9790 H 925.291 -2.61318 -1.4715 0
M  V30 9791 H 922.844 -1.37993 -0.734001 0
M  V30 9792 H 923.579 -0.68221 -3.17043 0
M  V30 9793 H 923.364 -2.45312 -3.05883 0
M  V30 9794 H 924.854 -1.77474 -3.78011 0
M  V30 9795 N 925.291 0.760815 -1.38019 0
M  V30 9796 C 926.537 1.52109 -1.35034 0
M  V30 9797 C 926.892 1.92302 0.0615509 0
M  V30 9798 O 926.185 1.62028 1.02261 0
M  V30 9799 C 926.379 2.79024 -2.23339 0
M  V30 9800 C 926.208 2.51238 -3.72974 0
M  V30 9801 C 924.978 2.44818 -4.42032 0
M  V30 9802 C 927.176 2.18499 -4.65578 0
M  V30 9803 N 925.158 2.09232 -5.77144 0
M  V30 9804 C 926.529 1.93143 -5.89148 0
M  V30 9805 C 928.584 2.04747 -4.53854 0
M  V30 9806 C 927.287 1.55423 -7.02308 0
M  V30 9807 C 929.313 1.68428 -5.66909 0
M  V30 9808 C 928.675 1.43939 -6.89537 0
M  V30 9809 H 924.774 0.556482 -0.54941 0
M  V30 9810 H 927.358 0.886614 -1.73341 0
M  V30 9811 H 925.529 3.40292 -1.87232 0
M  V30 9812 H 927.261 3.45016 -2.11533 0
M  V30 9813 H 924.016 2.61045 -3.95161 0
M  V30 9814 H 924.44 1.94104 -6.48577 0
M  V30 9815 H 929.082 2.22358 -3.59607 0
M  V30 9816 H 926.8 1.36551 -7.96479 0
M  V30 9817 H 930.386 1.5843 -5.59814 0
M  V30 9818 H 929.266 1.16253 -7.75535 0
M  V30 9819 N 926.769 1.22769 0.988202 0
M  V30 9820 C 927.701 0.959757 2.08138 0
M  V30 9821 C 928.714 -0.0633787 1.62677 0
M  V30 9822 O 929.903 0.171203 1.77677 0
M  V30 9823 C 927.003 0.422724 3.36253 0
M  V30 9824 C 926.176 1.50419 4.10722 0
M  V30 9825 C 925.235 0.973407 5.17118 0
M  V30 9826 O 924.261 1.66066 5.44436 0
M  V30 9827 N 925.463 -0.202787 5.80146 0
M  V30 9828 H 928.228 1.9009 2.31702 0
M  V30 9829 H 925.789 1.13522 1.15431 0
M  V30 9830 H 927.781 0.0528514 4.04665 0
M  V30 9831 H 926.351 -0.423642 3.09716 0
M  V30 9832 H 925.571 2.04718 3.36874 0
M  V30 9833 H 926.859 2.23169 4.57245 0
M  V30 9834 H 926.257 -0.777856 5.60327 0
M  V30 9835 H 924.814 -0.513998 6.4977 0
M  V30 9836 N 928.247 -1.18576 1.03814 0
M  V30 9837 C 929.495 -1.88121 0.738574 0
M  V30 9838 C 929.816 -1.80587 -0.735744 0
M  V30 9839 O 929.086 -1.22251 -1.53074 0
M  V30 9840 H 927.666 -0.696417 0.270208 0
M  V30 9841 H 930.328 -1.43912 1.31435 0
M  V30 9842 H 929.424 -2.94222 1.04115 0
M  V30 9843 N 929.725 -0.817259 -1.34754 0
M  V30 9844 C 930.675 -0.207585 -2.27053 0
M  V30 9845 C 931.659 0.624836 -1.48272 0
M  V30 9846 O 932.851 0.480344 -1.70358 0
M  V30 9847 C 929.98 0.634281 -3.3739 0
M  V30 9848 C 929.066 -0.208456 -4.23587 0
M  V30 9849 N 929.457 -1.2767 -4.89422 0
M  V30 9850 C 927.755 0.00815096 -4.45999 0
M  V30 9851 C 928.456 -1.79209 -5.53407 0
M  V30 9852 N 927.432 -1.09686 -5.32419 0
M  V30 9853 H 931.234 -1.0248 -2.75454 0
M  V30 9854 H 928.748 -0.659492 -1.48406 0
M  V30 9855 H 930.745 1.08718 -4.02475 0
M  V30 9856 H 929.405 1.44972 -2.90539 0
M  V30 9857 H 930.416 -1.65945 -4.90594 0
M  V30 9858 H 927.093 0.791879 -4.09921 0
M  V30 9859 H 928.483 -2.68548 -6.15899 0
M  V30 9860 N 931.203 1.46865 -0.571711 0
M  V30 9861 C 932.133 2.3298 0.155795 0
M  V30 9862 C 933.114 1.44678 0.894553 0
M  V30 9863 O 934.299 1.73513 0.872176 0
M  V30 9864 C 931.429 3.26745 1.17708 0
M  V30 9865 C 930.383 4.24401 0.553863 0
M  V30 9866 C 929.709 5.07595 1.68083 0
M  V30 9867 C 931.009 5.19884 -0.501827 0
M  V30 9868 H 932.703 2.94056 -0.563176 0
M  V30 9869 H 930.249 1.41402 -0.27228 0
M  V30 9870 H 932.202 3.85838 1.6943 0
M  V30 9871 H 930.926 2.63753 1.92618 0
M  V30 9872 H 929.585 3.66554 0.057815 0
M  V30 9873 H 929.233 4.40996 2.41933 0
M  V30 9874 H 928.933 5.73722 1.26953 0
M  V30 9875 H 930.457 5.6955 2.20103 0
M  V30 9876 H 931.871 5.73257 -0.0701057 0
M  V30 9877 H 930.268 5.94293 -0.832815 0
M  V30 9878 H 931.338 4.64482 -1.39229 0
M  V30 9879 N 932.681 0.308908 1.54543 0
M  V30 9880 C 934.092 -0.182144 1.85809 0
M  V30 9881 C 934.443 -1.52796 1.23076 0
M  V30 9882 O 933.568 -2.09775 0.531358 0
M  V30 9883 C 934.163 -0.337275 3.37117 0
M  V30 9884 C 932.722 -0.772545 3.68387 0
M  V30 9885 C 931.869 0.114451 2.77064 0
M  V30 9886 H 934.82 0.529671 1.496 0
M  V30 9887 H 934.841 -1.17058 3.62046 0
M  V30 9888 H 934.353 0.642382 3.82747 0
M  V30 9889 H 932.454 -1.76247 3.2828 0
M  V30 9890 H 932.567 -0.586453 4.75497 0
M  V30 9891 H 930.931 -0.407581 2.51418 0
M  V30 9892 H 931.714 1.09061 3.25516 0
M  V30 9893 N 934.159 -1.57557 0.0367827 0
M  V30 9894 C 935.408 -1.91291 -0.639569 0
M  V30 9895 C 935.721 -0.915601 -1.72847 0
M  V30 9896 O 936.927 -1.14447 -2.46199 0
M  V30 9897 C 935.383 -3.39697 -1.18888 0
M  V30 9898 C 934.991 -4.47803 -0.132851 0
M  V30 9899 C 936.735 -3.82487 -1.8413 0
M  V30 9900 C 934.642 -5.87311 -0.694229 0
M  V30 9901 H 933.572 -0.713886 -0.242658 0
M  V30 9902 H 936.223 -1.83209 0.103332 0
M  V30 9903 H 934.605 -3.42736 -1.98363 0
M  V30 9904 H 935.779 -4.56334 0.640009 0
M  V30 9905 H 934.094 -4.14264 0.421264 0
M  V30 9906 H 936.691 -4.84076 -2.27101 0
M  V30 9907 H 937.034 -3.17959 -2.68716 0
M  V30 9908 H 937.567 -3.81903 -1.11332 0
M  V30 9909 H 934.306 -6.55401 0.113667 0
M  V30 9910 H 933.826 -5.82371 -1.4354 0
M  V30 9911 H 935.505 -6.36119 -1.1816 0
M  V30 9912 N 935.637 0.236453 -1.55816 0
M  V30 9913 C 936.883 0.964439 -1.784 0
M  V30 9914 C 937.216 1.84573 -0.603868 0
M  V30 9915 O 936.491 1.90395 0.397473 0
M  V30 9916 C 936.774 1.81608 -3.10951 0
M  V30 9917 C 936.627 0.962283 -4.39386 0
M  V30 9918 C 937.946 2.79665 -3.39817 0
M  V30 9919 H 935.065 0.349192 -0.649026 0
M  V30 9920 H 937.707 0.234247 -1.8855 0
M  V30 9921 H 935.857 2.43864 -3.02428 0
M  V30 9922 H 937.529 0.35762 -4.59912 0
M  V30 9923 H 935.772 0.267062 -4.32977 0
M  V30 9924 H 936.443 1.59222 -5.28538 0
M  V30 9925 H 938.919 2.27546 -3.4837 0
M  V30 9926 H 937.795 3.36367 -4.33761 0
M  V30 9927 H 938.056 3.56657 -2.61244 0
M  V30 9928 N 937.115 1.49373 0.502552 0
M  V30 9929 C 938.062 1.65927 1.60427 0
M  V30 9930 C 939.032 0.500768 1.58371 0
M  V30 9931 O 940.217 0.727606 1.76382 0
M  V30 9932 C 937.357 1.73043 2.9858 0
M  V30 9933 C 936.47 3.00187 3.10663 0
M  V30 9934 C 935.605 2.98292 4.3954 0
M  V30 9935 C 934.644 4.20022 4.4525 0
M  V30 9936 N 933.781 4.16046 5.65553 0
M  V30 9937 H 938.621 2.59998 1.45619 0
M  V30 9938 H 936.158 1.28912 0.708519 0
M  V30 9939 H 938.116 1.7515 3.78653 0
M  V30 9940 H 936.746 0.824397 3.12095 0
M  V30 9941 H 935.798 3.07699 2.23663 0
M  V30 9942 H 937.11 3.9018 3.10742 0
M  V30 9943 H 936.264 2.98953 5.27932 0
M  V30 9944 H 935.003 2.06075 4.42023 0
M  V30 9945 H 934.008 4.19607 3.5526 0
M  V30 9946 H 935.233 5.13431 4.44484 0
M  V30 9947 H 933.179 3.26665 5.68881 0
M  V30 9948 H 933.096 4.99773 5.67242 0
M  V30 9949 H 934.364 4.20807 6.56156 0
M  V30 9950 N 938.594 -0.753485 1.38421 0
M  V30 9951 C 939.524 -1.8808 1.38377 0
M  V30 9952 C 940.505 -1.68258 0.249664 0
M  V30 9953 O 941.69 -1.88848 0.45276 0
M  V30 9954 C 938.82 -3.25608 1.20818 0
M  V30 9955 C 937.774 -3.60032 2.31433 0
M  V30 9956 C 937.1 -4.96297 1.9898 0
M  V30 9957 C 938.4 -3.64898 3.73694 0
M  V30 9958 H 940.094 -1.88375 2.32713 0
M  V30 9959 H 937.64 -0.90489 1.12017 0
M  V30 9960 H 939.593 -4.04127 1.19412 0
M  V30 9961 H 938.317 -3.25793 0.229433 0
M  V30 9962 H 936.976 -2.83831 2.32025 0
M  V30 9963 H 936.624 -4.93043 0.995889 0
M  V30 9964 H 936.324 -5.20298 2.73063 0
M  V30 9965 H 937.848 -5.77196 1.99193 0
M  V30 9966 H 939.262 -4.33531 3.75132 0
M  V30 9967 H 937.659 -4.00407 4.46983 0
M  V30 9968 H 938.729 -2.65124 4.06002 0
M  V30 9969 N 940.072 -1.23292 -0.981677 0
M  V30 9970 C 941.002 -1.03738 -2.09191 0
M  V30 9971 C 941.983 0.0453041 -1.7004 0
M  V30 9972 O 943.168 -0.119092 -1.93834 0
M  V30 9973 C 940.298 -0.626426 -3.41604 0
M  V30 9974 C 939.252 -1.65631 -3.94652 0
M  V30 9975 C 938.578 -1.10084 -5.23245 0
M  V30 9976 C 939.878 -3.04903 -4.24066 0
M  V30 9977 H 941.572 -1.966 -2.25807 0
M  V30 9978 H 939.118 -0.946656 -1.0851 0
M  V30 9979 H 941.071 -0.476689 -4.18695 0
M  V30 9980 H 939.795 0.337873 -3.24848 0
M  V30 9981 H 938.454 -1.79402 -3.19704 0
M  V30 9982 H 938.102 -0.127562 -5.02838 0
M  V30 9983 H 937.802 -1.78896 -5.59705 0
M  V30 9984 H 939.326 -0.962928 -6.02959 0
M  V30 9985 H 940.74 -2.94441 -4.91912 0
M  V30 9986 H 939.137 -3.70941 -4.71724 0
M  V30 9987 H 940.207 -3.53991 -3.31389 0
M  V30 9988 N 941.55 1.18024 -1.04442 0
M  V30 9989 C 942.513 2.19992 -0.643136 0
M  V30 9990 C 943.513 1.57949 0.301444 0
M  V30 9991 O 944.703 1.73986 0.0863341 0
M  V30 9992 C 941.835 3.40853 0.0565208 0
M  V30 9993 H 943.028 2.57008 -1.54554 0
M  V30 9994 H 940.581 1.31974 -0.837408 0
M  V30 9995 H 941.316 3.09373 0.972553 0
M  V30 9996 H 941.101 3.87128 -0.622439 0
M  V30 9997 H 942.591 4.16344 0.323652 0
M  V30 9998 N 943.028 0.824394 1.34319 0
M  V30 9999 C 943.975 0.245282 2.29493 0
M  V30 10000 C 944.945 -0.630762 1.53657 0
M  V30 10001 O 946.13 -0.572094 1.82021 0
M  V30 10002 C 943.27 -0.585631 3.40095 0
M  V30 10003 C 942.383 0.312821 4.30866 0
M  V30 10004 C 941.518 -0.527801 5.28571 0
M  V30 10005 C 940.557 0.369946 6.10981 0
M  V30 10006 N 939.694 -0.43169 7.00772 0
M  V30 10007 H 944.534 1.06225 2.78425 0
M  V30 10008 H 942.071 0.53533 1.37013 0
M  V30 10009 H 944.029 -1.08271 4.02906 0
M  V30 10010 H 942.659 -1.3677 2.92393 0
M  V30 10011 H 941.711 0.928129 3.68904 0
M  V30 10012 H 943.023 1.00306 4.8861 0
M  V30 10013 H 942.177 -1.0893 5.96841 0
M  V30 10014 H 940.916 -1.25154 4.71368 0
M  V30 10015 H 939.921 0.943577 5.41643 0
M  V30 10016 H 941.146 1.09182 6.70266 0
M  V30 10017 H 939.092 -1.13908 6.46035 0
M  V30 10018 H 939.009 0.200133 7.55735 0
M  V30 10019 H 940.277 -0.975894 7.73367 0
M  V30 10020 N 944.506 -1.46559 0.579492 0
M  V30 10021 C 945.438 -2.28383 -0.19337 0
M  V30 10022 C 946.451 -1.38324 -0.858511 0
M  V30 10023 O 947.64 -1.62952 -0.728615 0
M  V30 10024 C 944.74 -3.13262 -1.29306 0
M  V30 10025 C 943.913 -4.31426 -0.720459 0
M  V30 10026 C 942.972 -4.97728 -1.70744 0
M  V30 10027 O 941.998 -5.55423 -1.24476 0
M  V30 10028 N 943.2 -4.94445 -3.04146 0
M  V30 10029 H 945.965 -2.95353 0.508611 0
M  V30 10030 H 943.526 -1.56436 0.417046 0
M  V30 10031 H 945.518 -3.54483 -1.95254 0
M  V30 10032 H 944.088 -2.48388 -1.89795 0
M  V30 10033 H 943.308 -3.94028 0.116398 0
M  V30 10034 H 944.596 -5.07808 -0.31763 0
M  V30 10035 H 943.994 -4.4881 -3.44363 0
M  V30 10036 H 942.551 -5.39616 -3.65592 0
M  V30 10037 N 945.984 -0.3171 -1.54377 0
M  V30 10038 C 947.395 0.172287 -1.85903 0
M  V30 10039 C 947.746 1.52141 -1.23885 0
M  V30 10040 O 946.871 2.0949 -0.542476 0
M  V30 10041 C 947.466 0.319392 -3.37291 0
M  V30 10042 C 946.025 0.752998 -3.68791 0
M  V30 10043 C 945.172 -0.129143 -2.76999 0
M  V30 10044 H 948.123 -0.537597 -1.49317 0
M  V30 10045 H 948.144 1.15137 -3.62662 0
M  V30 10046 H 947.656 -0.662671 -3.82401 0
M  V30 10047 H 945.757 1.74504 -3.2921 0
M  V30 10048 H 945.87 0.561228 -4.75801 0
M  V30 10049 H 944.234 0.394242 -2.5163 0
M  V30 10050 H 945.017 -1.10785 -3.24933 0
M  V30 10051 N 947.462 1.57535 -0.0451378 0
M  V30 10052 C 948.71 1.92071 0.628743 0
M  V30 10053 C 949.031 0.923635 1.71738 0
M  V30 10054 O 948.301 -0.0324376 1.95873 0
M  V30 10055 H 946.881 0.708995 0.235233 0
M  V30 10056 H 949.543 1.9466 -0.0967177 0
M  V30 10057 H 948.639 2.9314 1.07123 0
M  V30 10058 N 948.94 -0.228186 1.55939 0
M  V30 10059 C 950.186 -0.954964 1.78909 0
M  V30 10060 C 950.519 -1.8425 0.613648 0
M  V30 10061 O 949.794 -1.90604 -0.38737 0
M  V30 10062 C 950.077 -1.79957 3.1191 0
M  V30 10063 C 949.93 -0.938968 4.3989 0
M  V30 10064 C 951.249 -2.77859 3.41295 0
M  V30 10065 H 948.368 -0.345745 0.650868 0
M  V30 10066 H 951.01 -0.224244 1.88672 0
M  V30 10067 H 949.16 -2.42256 3.03717 0
M  V30 10068 H 950.832 -0.333225 4.60095 0
M  V30 10069 H 949.075 -0.244096 4.33113 0
M  V30 10070 H 949.746 -1.56416 5.29375 0
M  V30 10071 H 952.222 -2.25695 3.49572 0
M  V30 10072 H 951.098 -3.34062 4.35538 0
M  V30 10073 H 951.359 -3.55266 2.63132 0
M  V30 10074 N 950.418 -1.49637 -0.494624 0
M  V30 10075 C 951.643 -1.63431 -1.27691 0
M  V30 10076 C 952.068 -0.30813 -1.85559 0
M  V30 10077 O 951.426 0.725083 -1.66169 0
M  V30 10078 C 951.474 -2.71043 -2.3784 0
M  V30 10079 O 950.578 -2.3066 -3.41862 0
M  V30 10080 H 949.919 -0.546804 -0.376698 0
M  V30 10081 H 952.449 -1.95866 -0.591413 0
M  V30 10082 H 952.459 -2.93406 -2.83508 0
M  V30 10083 H 951.134 -3.67306 -1.95088 0
M  V30 10084 H 949.711 -2.18652 -3.02069 0
M  V30 10085 N 951.896 0.746133 -1.38819 0
M  V30 10086 C 953.142 1.50768 -1.35635 0
M  V30 10087 C 953.475 1.94132 0.0512435 0
M  V30 10088 O 952.75 1.65979 1.01396 0
M  V30 10089 C 953.033 2.7551 -2.31875 0
M  V30 10090 C 952.886 2.38236 -3.81528 0
M  V30 10091 C 954.205 3.77566 -2.26124 0
M  V30 10092 H 951.324 0.546922 -0.494009 0
M  V30 10093 H 953.966 0.854017 -1.69725 0
M  V30 10094 H 952.116 3.31285 -2.02935 0
M  V30 10095 H 953.788 1.88178 -4.21173 0
M  V30 10096 H 952.031 1.70601 -3.98846 0
M  V30 10097 H 952.702 3.27517 -4.44339 0
M  V30 10098 H 955.178 3.31349 -2.51689 0
M  V30 10099 H 954.054 4.62531 -2.95561 0
M  V30 10100 H 954.315 4.23689 -1.26254 0
M  V30 10101 N 953.375 1.23811 0.975125 0
M  V30 10102 C 954.323 1.02149 2.0897 0
M  V30 10103 C 955.317 -0.0412172 1.6935 0
M  V30 10104 O 956.523 0.112726 1.79647 0
M  V30 10105 H 952.898 0.313259 0.683647 0
M  V30 10106 H 954.869 1.96686 2.24404 0
M  V30 10107 C 953.618 0.635023 3.41852 0
M  V30 10108 H 952.941 1.44449 3.72793 0
M  V30 10109 H 954.381 0.52301 4.20762 0
M  V30 10110 C 952.84 -0.657207 3.30428 0
M  V30 10111 O 953.37 -1.70494 3.63723 0
M  V30 10112 N 951.576 -0.635122 2.83575 0
M  V30 10113 H 951.123 0.21784 2.56677 0
M  V30 10114 H 951.081 -1.49995 2.76313 0
M  V30 10115 N 954.853 -1.17469 1.05066 0
M  V30 10116 C 955.816 -2.19648 0.654793 0
M  V30 10117 C 956.816 -1.58107 -0.293063 0
M  V30 10118 O 958.006 -1.74029 -0.077106 0
M  V30 10119 C 955.138 -3.40878 -0.0384437 0
M  V30 10120 H 956.331 -2.56184 1.55915 0
M  V30 10121 H 953.884 -1.31528 0.844396 0
M  V30 10122 H 954.619 -3.09885 -0.956133 0
M  V30 10123 H 954.404 -3.86792 0.642961 0
M  V30 10124 H 955.894 -4.1651 -0.301568 0
M  V30 10125 N 956.331 -0.831506 -1.3388 0
M  V30 10126 C 957.263 -0.216908 -2.28171 0
M  V30 10127 C 958.276 0.598141 -1.51414 0
M  V30 10128 O 959.465 0.426416 -1.73332 0
M  V30 10129 C 956.565 0.713831 -3.31297 0
M  V30 10130 C 955.738 -0.0602673 -4.37358 0
M  V30 10131 C 954.797 0.792696 -5.20195 0
M  V30 10132 O 953.823 0.234564 -5.68716 0
M  V30 10133 N 955.025 2.11119 -5.40748 0
M  V30 10134 H 957.79 -1.02704 -2.81553 0
M  V30 10135 H 955.351 -0.689272 -1.46495 0
M  V30 10136 H 957.343 1.28925 -3.83615 0
M  V30 10137 H 955.913 1.42469 -2.78247 0
M  V30 10138 H 955.133 -0.817041 -3.8564 0
M  V30 10139 H 956.421 -0.592822 -5.05335 0
M  V30 10140 H 955.819 2.58828 -5.03016 0
M  V30 10141 H 954.376 2.63527 -5.96151 0
M  V30 10142 N 957.809 1.4625 -0.587256 0
M  V30 10143 C 959.037 2.06744 -0.08033 0
M  V30 10144 C 959.452 1.43527 1.2266 0
M  V30 10145 O 958.809 0.542168 1.74261 0
M  V30 10146 C 958.86 3.61394 0.0873469 0
M  V30 10147 O 958.581 4.22247 -1.16785 0
M  V30 10148 C 960.082 4.38828 0.628095 0
M  V30 10149 H 957.302 0.668354 -0.0595301 0
M  V30 10150 H 959.846 1.87808 -0.809217 0
M  V30 10151 H 958.001 3.79742 0.766473 0
M  V30 10152 H 958.415 5.15176 -0.984565 0
M  V30 10153 H 959.889 5.47613 0.694583 0
M  V30 10154 H 960.366 4.07188 1.64606 0
M  V30 10155 H 960.972 4.25297 -0.0163115 0
M  V30 10156 N 959.287 0.325282 1.54207 0
M  V30 10157 C 960.217 -0.532574 2.27345 0
M  V30 10158 C 961.198 -1.11791 1.28206 0
M  V30 10159 O 962.383 -1.14272 1.57021 0
M  V30 10160 C 959.513 -1.69274 3.03255 0
M  V30 10161 C 958.467 -1.23662 4.09746 0
M  V30 10162 C 957.793 -2.48386 4.73506 0
M  V30 10163 C 959.093 -0.350244 5.21124 0
M  V30 10164 H 960.787 0.0775108 2.993 0
M  V30 10165 H 958.333 0.0387193 1.43948 0
M  V30 10166 H 960.286 -2.29917 3.53152 0
M  V30 10167 H 959.01 -2.32944 2.28921 0
M  V30 10168 H 957.669 -0.653106 3.60735 0
M  V30 10169 H 957.317 -3.10424 3.95786 0
M  V30 10170 H 957.017 -2.18558 5.45441 0
M  V30 10171 H 958.541 -3.09789 5.26178 0
M  V30 10172 H 959.955 -0.863011 5.66767 0
M  V30 10173 H 958.352 -0.14466 5.99926 0
M  V30 10174 H 959.422 0.618457 4.8094 0
M  V30 10175 N 960.765 -1.57509 0.0534917 0
M  V30 10176 C 962.042 -1.84137 -0.659767 0
M  V30 10177 C 962.422 -0.942362 -1.88899 0
M  V30 10178 O 961.77 -0.00398566 -2.285 0
M  V30 10179 C 961.98 -3.33919 -1.01486 0
M  V30 10180 C 963.328 -4.00989 -1.39616 0
M  V30 10181 O 964.352 -3.38557 -1.10713 0
M  V30 10182 O 963.211 -5.11071 -1.93567 0
M  V30 10183 H 960.305 -0.760081 -0.325893 0
M  V30 10184 H 962.851 -1.69497 0.0830315 0
M  V30 10185 H 961.623 -3.91046 -0.141041 0
M  V30 10186 H 961.246 -3.53755 -1.81503 0
M  V30 10187 N 962.243 0.219913 -1.56058 0
M  V30 10188 C 963.491 0.942199 -1.78793 0
M  V30 10189 C 963.812 1.84804 -0.622284 0
M  V30 10190 O 963.082 1.9255 0.360735 0
M  V30 10191 H 961.662 0.350895 -0.659455 0
M  V30 10192 H 964.324 0.231376 -1.93522 0
M  V30 10193 H 963.42 1.54804 -2.71002 0
M  V30 10194 N 963.721 1.49897 0.486681 0
M  V30 10195 C 965.137 1.36977 0.819109 0
M  V30 10196 C 965.337 0.41385 1.97204 0
M  V30 10197 O 964.393 -0.149249 2.52059 0
M  V30 10198 C 965.706 2.78013 1.14584 0
M  V30 10199 C 967.254 2.86816 1.25321 0
M  V30 10200 C 967.729 4.28651 1.61316 0
M  V30 10201 N 969.22 4.31528 1.68337 0
M  V30 10202 C 969.955 5.38254 1.97662 0
M  V30 10203 N 969.451 6.55207 2.25113 0
M  V30 10204 N 971.244 5.25683 1.99033 0
M  V30 10205 H 963.395 2.10634 -0.273364 0
M  V30 10206 H 965.658 0.946116 -0.0597418 0
M  V30 10207 H 965.364 3.49728 0.371892 0
M  V30 10208 H 965.238 3.1428 2.08585 0
M  V30 10209 H 967.625 2.15329 2.01785 0
M  V30 10210 H 967.706 2.54112 0.293368 0
M  V30 10211 H 967.35 5.00669 0.853968 0
M  V30 10212 H 967.28 4.5883 2.58424 0
M  V30 10213 H 969.771 3.47189 1.49226 0
M  V30 10214 H 970.084 7.32359 2.46717 0
M  V30 10215 H 968.429 6.58408 2.22538 0
M  V30 10216 H 971.62 4.33316 1.77074 0
M  V30 10217 H 971.793 6.08949 2.21552 0
M  V30 10218 N 965.199 -0.738761 1.39212 0
M  V30 10219 C 966.427 -1.52801 1.39497 0
M  V30 10220 C 966.842 -1.88797 -0.0114917 0
M  V30 10221 O 966.199 -1.53835 -0.981887 0
M  V30 10222 C 966.25 -2.81793 2.2644 0
M  V30 10223 O 965.971 -2.47328 3.61608 0
M  V30 10224 C 967.472 -3.75844 2.35067 0
M  V30 10225 H 964.692 -0.472322 0.476606 0
M  V30 10226 H 967.236 -0.913153 1.8298 0
M  V30 10227 H 965.391 -3.3962 1.8638 0
M  V30 10228 H 965.805 -3.30162 4.07545 0
M  V30 10229 H 967.279 -4.6326 3.00157 0
M  V30 10230 H 967.756 -4.17329 1.3687 0
M  V30 10231 H 968.362 -3.23937 2.75581 0
M  V30 10232 N 966.677 -1.24326 -0.968545 0
M  V30 10233 C 968.088 -1.07561 -1.52603 0
M  V30 10234 C 968.439 0.353245 -1.92994 0
M  V30 10235 O 967.564 1.24151 -1.77244 0
M  V30 10236 C 968.159 -1.94634 -2.77314 0
M  V30 10237 C 966.718 -1.82095 -3.29421 0
M  V30 10238 C 965.865 -1.8962 -2.02335 0
M  V30 10239 H 968.816 -1.37815 -0.786932 0
M  V30 10240 H 968.837 -1.47812 -3.50616 0
M  V30 10241 H 968.349 -2.98621 -2.47885 0
M  V30 10242 H 966.45 -0.809376 -3.63703 0
M  V30 10243 H 966.563 -2.66142 -3.98378 0
M  V30 10244 H 964.927 -1.33339 -2.17009 0
M  V30 10245 H 965.71 -2.95185 -1.75273 0
M  V30 10246 N 968.156 1.1691 -1.05688 0
M  V30 10247 C 969.086 2.23275 -0.683402 0
M  V30 10248 C 970.067 1.6704 0.321206 0
M  V30 10249 O 971.252 1.93191 0.197691 0
M  V30 10250 C 968.382 3.47244 -0.0626006 0
M  V30 10251 C 967.336 4.16333 -0.992513 0
M  V30 10252 C 966.662 5.34182 -0.23533 0
M  V30 10253 C 967.962 4.68002 -2.31886 0
M  V30 10254 H 969.656 2.54771 -1.57264 0
M  V30 10255 H 967.202 1.2246 -0.757606 0
M  V30 10256 H 969.155 4.20874 0.210503 0
M  V30 10257 H 967.879 3.1503 0.861616 0
M  V30 10258 H 966.538 3.44622 -1.25026 0
M  V30 10259 H 966.186 4.9822 0.69181 0
M  V30 10260 H 965.886 5.81346 -0.855002 0
M  V30 10261 H 967.41 6.10592 0.0303717 0
M  V30 10262 H 968.824 5.33244 -2.10531 0
M  V30 10263 H 967.221 5.25764 -2.89296 0
M  V30 10264 H 968.291 3.84541 -2.95391 0
M  V30 10265 N 969.634 0.838594 1.33437 0
M  V30 10266 C 970.584 0.243681 2.26694 0
M  V30 10267 C 971.568 -0.601168 1.49247 0
M  V30 10268 O 972.76 -0.453181 1.711 0
M  V30 10269 C 969.889 -0.580525 3.38356 0
M  V30 10270 C 968.975 0.275819 4.23202 0
M  V30 10271 N 969.366 1.3544 4.87329 0
M  V30 10272 C 967.664 0.0628047 4.45956 0
M  V30 10273 C 968.365 1.87991 5.50486 0
M  V30 10274 N 967.341 1.18143 5.30607 0
M  V30 10275 H 971.143 1.06849 2.73789 0
M  V30 10276 H 968.657 0.683019 1.47338 0
M  V30 10277 H 970.654 -1.02301 4.04153 0
M  V30 10278 H 969.314 -1.40331 2.92809 0
M  V30 10279 H 970.325 1.73729 4.87892 0
M  V30 10280 H 967.002 -0.726563 4.11129 0
M  V30 10281 H 968.392 2.78312 6.11549 0
M  V30 10282 N 971.112 -1.45937 0.595003 0
M  V30 10283 C 972.042 -2.33198 -0.11871 0
M  V30 10284 C 973.023 -1.46083 -0.871423 0
M  V30 10285 O 974.208 -1.74879 -0.844461 0
M  V30 10286 C 971.338 -3.28576 -1.12495 0
M  V30 10287 C 970.292 -4.25229 -0.486275 0
M  V30 10288 C 969.618 -5.10204 -1.59986 0
M  V30 10289 C 970.918 -5.19019 0.584473 0
M  V30 10290 H 972.612 -2.93122 0.609886 0
M  V30 10291 H 970.158 -1.40951 0.294742 0
M  V30 10292 H 972.111 -3.88485 -1.6327 0
M  V30 10293 H 970.835 -2.66784 -1.88398 0
M  V30 10294 H 969.494 -3.666 0.000507962 0
M  V30 10295 H 969.142 -4.44789 -2.34886 0
M  V30 10296 H 968.842 -5.75669 -1.1781 0
M  V30 10297 H 970.366 -5.7298 -2.11014 0
M  V30 10298 H 971.78 -5.73073 0.161297 0
M  V30 10299 H 970.177 -5.92893 0.927256 0
M  V30 10300 H 971.247 -4.62208 1.46601 0
M  V30 10301 N 972.59 -0.333456 -1.54032 0
M  V30 10302 C 973.553 0.515392 -2.2333 0
M  V30 10303 C 974.553 1.03566 -1.23007 0
M  V30 10304 O 975.743 0.926514 -1.47517 0
M  V30 10305 C 972.875 1.7169 -2.94508 0
M  V30 10306 H 974.068 -0.0905407 -2.99763 0
M  V30 10307 H 971.621 -0.0846651 -1.56071 0
M  V30 10308 H 972.356 2.3618 -2.22237 0
M  V30 10309 H 972.141 1.35115 -3.68085 0
M  V30 10310 H 973.631 2.31922 -3.47278 0
M  V30 10311 N 974.068 1.57479 -0.061844 0
M  V30 10312 C 975.031 2.1104 0.894127 0
M  V30 10313 C 976.031 1.03227 1.23292 0
M  V30 10314 O 977.221 1.29256 1.16784 0
M  V30 10315 C 974.353 2.6035 2.20069 0
M  V30 10316 H 975.546 2.96807 0.429619 0
M  V30 10317 H 973.099 1.55181 0.18672 0
M  V30 10318 H 973.834 1.78008 2.71079 0
M  V30 10319 H 973.619 3.39146 1.9678 0
M  V30 10320 H 975.109 3.019 2.88525 0
M  V30 10321 N 975.546 -0.211634 1.56173 0
M  V30 10322 C 976.478 -1.286 1.89723 0
M  V30 10323 C 977.491 -1.42549 0.786361 0
M  V30 10324 O 978.68 -1.4327 1.06471 0
M  V30 10325 C 975.78 -2.66036 2.09948 0
M  V30 10326 C 974.953 -2.73908 3.41018 0
M  V30 10327 C 974.012 -3.92425 3.50555 0
M  V30 10328 O 973.038 -3.803 4.2351 0
M  V30 10329 N 974.24 -5.07165 2.82426 0
M  V30 10330 H 977.005 -1.00142 2.82474 0
M  V30 10331 H 974.566 -0.401633 1.56839 0
M  V30 10332 H 976.558 -3.43719 2.13634 0
M  V30 10333 H 975.128 -2.87052 1.23774 0
M  V30 10334 H 974.348 -1.82625 3.49345 0
M  V30 10335 H 975.636 -2.76145 4.27342 0
M  V30 10336 H 975.034 -5.19913 2.2295 0
M  V30 10337 H 973.591 -5.82855 2.9176 0
M  V30 10338 N 977.024 -1.50153 -0.478725 0
M  V30 10339 C 978.44 -1.3741 -0.811833 0
M  V30 10340 C 978.64 -0.424303 -1.96982 0
M  V30 10341 O 977.696 0.13588 -2.52134 0
M  V30 10342 C 979.009 -2.78616 -1.13108 0
M  V30 10343 C 980.557 -2.87477 -1.23798 0
M  V30 10344 C 981.032 -4.295 -1.5904 0
M  V30 10345 N 982.523 -4.32415 -1.66047 0
M  V30 10346 C 983.258 -5.39295 -1.94805 0
M  V30 10347 N 982.754 -6.56392 -2.21635 0
M  V30 10348 N 984.547 -5.26731 -1.96243 0
M  V30 10349 H 976.698 -2.10486 0.284531 0
M  V30 10350 H 978.961 -0.945786 0.0647585 0
M  V30 10351 H 978.667 -3.49921 -0.35334 0
M  V30 10352 H 978.541 -3.15382 -2.06915 0
M  V30 10353 H 980.928 -2.16396 -2.00641 0
M  V30 10354 H 981.009 -2.54264 -0.279888 0
M  V30 10355 H 980.653 -5.01115 -0.827404 0
M  V30 10356 H 980.583 -4.60194 -2.55987 0
M  V30 10357 H 983.074 -3.47975 -1.47383 0
M  V30 10358 H 983.387 -7.33658 -2.4283 0
M  V30 10359 H 981.732 -6.59579 -2.19043 0
M  V30 10360 H 984.923 -4.34249 -1.74773 0
M  V30 10361 H 985.096 -6.10115 -2.1832 0
M  V30 10362 N 978.502 0.731368 -1.39602 0
M  V30 10363 C 979.75 1.48805 -1.36753 0
M  V30 10364 C 980.071 1.94969 0.034676 0
M  V30 10365 O 979.341 1.69243 0.986591 0
M  V30 10366 H 977.921 0.55203 -0.503261 0
M  V30 10367 H 980.583 0.868013 -1.74504 0
M  V30 10368 H 979.679 2.36844 -2.03252 0
M  V30 10369 N 979.98 1.24838 0.961938 0
M  V30 10370 C 980.93 1.01276 2.04272 0
M  V30 10371 C 981.914 -0.0478239 1.60829 0
M  V30 10372 O 983.106 0.166616 1.76214 0
M  V30 10373 C 980.235 0.625659 3.37551 0
M  V30 10374 C 979.321 1.72262 3.87539 0
M  V30 10375 N 979.712 2.95644 4.104 0
M  V30 10376 C 978.01 1.60146 4.16256 0
M  V30 10377 C 978.711 3.66796 4.51482 0
M  V30 10378 N 977.687 2.94383 4.56989 0
M  V30 10379 H 981.489 1.94956 2.19931 0
M  V30 10380 H 979.003 1.15049 1.14619 0
M  V30 10381 H 981 0.438072 4.14592 0
M  V30 10382 H 979.66 -0.303887 3.23275 0
M  V30 10383 H 980.671 3.31764 3.97685 0
M  V30 10384 H 977.348 0.740353 4.10883 0
M  V30 10385 H 978.738 4.72664 4.77534 0
M  V30 10386 N 981.458 -1.16348 1.06306 0
M  V30 10387 C 982.688 -1.90505 0.799453 0
M  V30 10388 C 983.096 -1.77686 -0.649955 0
M  V30 10389 O 982.439 -1.11921 -1.45669 0
M  V30 10390 C 982.501 -3.41775 1.11492 0
M  V30 10391 C 982.165 -3.7838 2.56277 0
M  V30 10392 C 983.162 -3.80288 3.54509 0
M  V30 10393 C 980.847 -4.09007 2.9158 0
M  V30 10394 C 982.841 -4.12312 4.86084 0
M  V30 10395 C 980.528 -4.40697 4.23354 0
M  V30 10396 C 981.526 -4.4233 5.20416 0
M  V30 10397 O 981.214 -4.73267 6.49826 0
M  V30 10398 H 980.946 -0.61094 0.289359 0
M  V30 10399 H 983.5 -1.48409 1.41999 0
M  V30 10400 H 981.73 -3.84219 0.437306 0
M  V30 10401 H 983.419 -3.97207 0.835533 0
M  V30 10402 H 984.185 -3.56738 3.28577 0
M  V30 10403 H 980.064 -4.06901 2.16686 0
M  V30 10404 H 983.608 -4.13501 5.61838 0
M  V30 10405 H 979.505 -4.63713 4.49044 0
M  V30 10406 H 980.273 -4.91078 6.54817 0
M  V30 10407 N 982.937 -0.845659 -1.3299 0
M  V30 10408 C 984.353 -0.53433 -1.5039 0
M  V30 10409 C 984.553 0.936939 -1.78392 0
M  V30 10410 O 983.609 1.72043 -1.84818 0
M  V30 10411 C 984.922 -1.41354 -2.65404 0
M  V30 10412 C 986.47 -1.41303 -2.79289 0
M  V30 10413 C 986.945 -2.27724 -3.97373 0
M  V30 10414 N 988.436 -2.25471 -4.0462 0
M  V30 10415 C 989.171 -2.89074 -4.95201 0
M  V30 10416 N 988.667 -3.61755 -5.90851 0
M  V30 10417 N 990.46 -2.78508 -4.88251 0
M  V30 10418 H 982.611 -1.79798 -1.13078 0
M  V30 10419 H 984.874 -0.767454 -0.556524 0
M  V30 10420 H 984.58 -2.45936 -2.51413 0
M  V30 10421 H 984.454 -1.09445 -3.60973 0
M  V30 10422 H 986.841 -0.374899 -2.92709 0
M  V30 10423 H 986.922 -1.77222 -1.84461 0
M  V30 10424 H 986.566 -3.316 -3.84713 0
M  V30 10425 H 986.496 -1.89142 -4.9146 0
M  V30 10426 H 988.987 -1.72622 -3.3617 0
M  V30 10427 H 989.3 -4.07475 -6.56646 0
M  V30 10428 H 987.645 -3.65863 -5.90906 0
M  V30 10429 H 990.836 -2.21285 -4.12493 0
M  V30 10430 H 991.009 -3.2836 -5.58645 0
M  V30 10431 N 984.415 1.45619 -0.602734 0
M  V30 10432 C 985.661 2.02572 -0.0961759 0
M  V30 10433 C 985.994 1.47076 1.26815 0
M  V30 10434 O 985.269 0.643566 1.83544 0
M  V30 10435 C 985.552 3.60062 -0.0520032 0
M  V30 10436 C 985.405 4.25901 -1.44665 0
M  V30 10437 C 986.724 4.35446 0.638342 0
M  V30 10438 H 983.843 0.736099 -0.0364238 0
M  V30 10439 H 986.485 1.7353 -0.773776 0
M  V30 10440 H 984.635 3.84936 0.525032 0
M  V30 10441 H 986.307 4.12228 -2.0704 0
M  V30 10442 H 984.55 3.84489 -2.00874 0
M  V30 10443 H 985.221 5.34779 -1.36803 0
M  V30 10444 H 987.697 4.15837 0.147926 0
M  V30 10445 H 986.573 5.45176 0.63834 0
M  V30 10446 H 986.834 4.07962 1.70351 0
M  V30 10447 N 985.893 0.34162 1.53853 0
M  V30 10448 C 986.856 -0.503541 2.236 0
M  V30 10449 C 987.856 -1.02912 1.23554 0
M  V30 10450 O 989.046 -0.918678 1.48007 0
M  V30 10451 C 986.178 -1.70126 2.95415 0
M  V30 10452 H 987.371 0.106437 2.99711 0
M  V30 10453 H 984.924 0.0929408 1.56023 0
M  V30 10454 H 985.659 -2.34999 2.23486 0
M  V30 10455 H 985.444 -1.33161 3.68796 0
M  V30 10456 H 986.934 -2.30077 3.48503 0
M  V30 10457 N 987.371 -1.57444 0.0701946 0
M  V30 10458 C 988.787 -1.57009 -0.286431 0
M  V30 10459 C 988.987 -1.07946 -1.70147 0
M  V30 10460 O 988.043 -0.744622 -2.41271 0
M  V30 10461 C 989.356 -3.00542 -0.0975466 0
M  V30 10462 C 990.904 -3.12553 -0.167205 0
M  V30 10463 C 991.379 -4.58 -0.00662047 0
M  V30 10464 N 992.87 -4.63158 -0.0622778 0
M  V30 10465 C 993.605 -5.73388 0.0375831 0
M  V30 10466 N 993.101 -6.92537 0.190873 0
M  V30 10467 N 994.894 -5.62097 -0.0193672 0
M  V30 10468 H 987.045 -1.87651 0.995023 0
M  V30 10469 H 989.308 -0.865006 0.387902 0
M  V30 10470 H 989.014 -3.40543 0.878822 0
M  V30 10471 H 988.888 -3.67485 -0.850547 0
M  V30 10472 H 991.275 -2.72439 -1.13406 0
M  V30 10473 H 991.356 -2.48251 0.616871 0
M  V30 10474 H 991 -4.98803 0.956992 0
M  V30 10475 H 990.93 -5.20332 -0.810081 0
M  V30 10476 H 993.421 -3.77475 -0.179229 0
M  V30 10477 H 993.734 -7.72365 0.25926 0
M  V30 10478 H 992.079 -6.94632 0.226214 0
M  V30 10479 H 995.27 -4.67897 -0.137815 0
M  V30 10480 H 995.443 -6.4797 0.0619121 0
M  V30 10481 N 988.849 0.203349 -1.56283 0
M  V30 10482 C 990.098 0.92315 -1.79334 0
M  V30 10483 C 990.411 1.84765 -0.641977 0
M  V30 10484 O 991.617 2.60745 -0.756584 0
M  V30 10485 C 990.073 1.69184 -3.17655 0
M  V30 10486 C 989.681 0.812581 -4.40569 0
M  V30 10487 C 991.425 2.40177 -3.50022 0
M  V30 10488 C 989.332 1.57967 -5.69913 0
M  V30 10489 H 988.262 0.348442 -0.668659 0
M  V30 10490 H 990.913 0.1766 -1.82648 0
M  V30 10491 H 989.295 2.48197 -3.08568 0
M  V30 10492 H 990.469 0.0616956 -4.60759 0
M  V30 10493 H 988.784 0.21389 -4.1585 0
M  V30 10494 H 991.381 2.98103 -4.4389 0
M  V30 10495 H 991.724 3.13961 -2.73376 0
M  V30 10496 H 992.257 1.68138 -3.6052 0
M  V30 10497 H 988.996 0.884767 -6.49501 0
M  V30 10498 H 988.516 2.3047 -5.53754 0
M  V30 10499 H 990.195 2.13562 -6.10737 0
M  V30 10500 N 990.327 1.50405 0.470755 0
M  V30 10501 C 991.257 1.72222 1.57676 0
M  V30 10502 C 992.238 0.57121 1.60222 0
M  V30 10503 O 993.423 0.810381 1.76484 0
M  V30 10504 C 990.553 1.81666 2.95998 0
M  V30 10505 C 989.507 2.96857 3.08318 0
M  V30 10506 C 988.833 2.91445 4.4829 0
M  V30 10507 C 990.133 4.37361 2.85504 0
M  V30 10508 H 991.827 2.64825 1.39671 0
M  V30 10509 H 989.373 1.27438 0.67049 0
M  V30 10510 H 991.326 1.95514 3.73299 0
M  V30 10511 H 990.05 0.856856 3.1516 0
M  V30 10512 H 988.709 2.82661 2.33449 0
M  V30 10513 H 988.357 1.93309 4.64371 0
M  V30 10514 H 988.057 3.68776 4.57469 0
M  V30 10515 H 989.581 3.07341 5.27611 0
M  V30 10516 H 990.995 4.52081 3.52555 0
M  V30 10517 H 989.392 5.16145 3.06127 0
M  V30 10518 H 990.462 4.49708 1.81359 0
M  V30 10519 N 991.805 -0.723954 1.39988 0
M  V30 10520 C 993.054 -1.47922 1.3712 0
M  V30 10521 C 993.367 -1.95582 -0.0263665 0
M  V30 10522 O 994.573 -2.70918 -0.177652 0
M  V30 10523 C 993.029 -2.67342 2.40949 0
M  V30 10524 C 992.637 -2.26586 3.86475 0
M  V30 10525 C 994.381 -3.45116 2.47174 0
M  V30 10526 C 992.288 -3.42794 4.81919 0
M  V30 10527 H 991.218 -0.555522 0.509815 0
M  V30 10528 H 993.869 -0.788692 1.65686 0
M  V30 10529 H 992.251 -3.38524 2.0547 0
M  V30 10530 H 993.425 -1.62878 4.31054 0
M  V30 10531 H 991.74 -1.61876 3.83647 0
M  V30 10532 H 994.337 -4.31573 3.15672 0
M  V30 10533 H 994.68 -3.8835 1.49966 0
M  V30 10534 H 995.213 -2.80971 2.81602 0
M  V30 10535 H 991.952 -3.046 5.8043 0
M  V30 10536 H 991.472 -4.05445 4.42012 0
M  V30 10537 H 993.151 -4.08977 5.01345 0
M  V30 10538 N 993.283 -1.25346 -0.955304 0
M  V30 10539 C 994.56 -1.00829 -1.67609 0
M  V30 10540 C 994.94 0.465675 -2.059 0
M  V30 10541 O 994.288 1.44287 -1.77182 0
M  V30 10542 C 994.498 -1.94337 -2.89886 0
M  V30 10543 C 995.846 -2.22142 -3.61854 0
M  V30 10544 O 996.87 -1.9209 -2.99967 0
M  V30 10545 O 995.729 -2.73239 -4.73289 0
M  V30 10546 H 992.823 -0.382314 -0.733325 0
M  V30 10547 H 995.369 -1.36498 -1.00829 0
M  V30 10548 H 994.141 -2.93867 -2.58376 0
M  V30 10549 H 993.764 -1.59062 -3.64397 0
M  V30 10550 N 994.761 1.15782 -1.06922 0
M  V30 10551 C 995.691 2.22538 -0.707045 0
M  V30 10552 C 996.672 1.67371 0.303471 0
M  V30 10553 O 997.857 1.9339 0.177189 0
M  V30 10554 C 994.987 3.47158 -0.0994269 0
M  V30 10555 C 993.941 4.15257 -1.03661 0
M  V30 10556 C 993.267 5.33902 -0.291974 0
M  V30 10557 C 994.567 4.65516 -2.36837 0
M  V30 10558 H 996.261 2.53089 -1.59958 0
M  V30 10559 H 993.807 1.21649 -0.770552 0
M  V30 10560 H 995.76 4.21073 0.165852 0
M  V30 10561 H 994.484 3.15926 0.828155 0
M  V30 10562 H 993.143 3.43276 -1.28674 0
M  V30 10563 H 992.791 4.98926 0.638928 0
M  V30 10564 H 992.491 5.80407 -0.916613 0
M  V30 10565 H 994.015 6.1059 -0.0343915 0
M  V30 10566 H 995.429 5.30981 -2.16175 0
M  V30 10567 H 993.826 5.22666 -2.94856 0
M  V30 10568 H 994.896 3.81387 -2.99453 0
M  V30 10569 N 996.239 0.8527 1.3254 0
M  V30 10570 C 997.479 0.461385 1.99125 0
M  V30 10571 C 997.843 -0.964507 1.66016 0
M  V30 10572 O 999.044 -1.46027 2.25676 0
M  V30 10573 C 997.315 0.69143 3.50648 0
M  V30 10574 S 998.874 0.397397 4.36997 0
M  V30 10575 H 995.692 0.172933 0.689649 0
M  V30 10576 H 998.294 1.10499 1.61277 0
M  V30 10577 H 996.998 1.72831 3.72233 0
M  V30 10578 H 996.529 0.0341812 3.93385 0
M  V30 10579 H 998.544 -0.777363 4.90073 0
M  V30 10580 N 997.718 -1.45297 0.610449 0
M  V30 10581 C 998.943 -2.07101 0.111414 0
M  V30 10582 C 999.368 -1.45161 -1.19625 0
M  V30 10583 O 998.726 -0.545368 -1.72903 0
M  V30 10584 C 998.774 -3.60598 -0.0117372 0
M  V30 10585 O 997.878 -3.98512 -1.06122 0
M  V30 10586 H 997.219 -0.659709 0.075364 0
M  V30 10587 H 999.749 -1.86504 0.841269 0
M  V30 10588 H 999.759 -4.07464 -0.209028 0
M  V30 10589 H 998.434 -4.05067 0.943076 0
M  V30 10590 H 997.011 -3.63312 -0.840158 0
M  V30 10591 N 999.196 -0.349774 -1.5367 0
M  V30 10592 C 1000.47 0.300419 -1.93279 0
M  V30 10593 C 1000.85 1.67721 -1.28191 0
M  V30 10594 O 1000.2 2.24319 -0.435127 0
M  V30 10595 C 1000.41 0.366466 -3.47071 0
M  V30 10596 C 1001.76 0.614349 -4.20132 0
M  V30 10597 O 1002.78 0.448327 -3.53367 0
M  V30 10598 O 1001.64 0.936421 -5.38417 0
M  V30 10599 H 998.736 0.176599 -0.807924 0
M  V30 10600 H 1001.28 -0.401405 -1.64884 0
M  V30 10601 H 1000.05 -0.599455 -3.86681 0
M  V30 10602 H 999.677 1.11482 -3.81651 0
M  V30 10603 N 1000.67 1.57404 -0.0785433 0
M  V30 10604 C 1001.92 1.94031 0.589896 0
M  V30 10605 C 1002.25 0.959297 1.68852 0
M  V30 10606 O 1001.53 -0.0103978 1.94497 0
M  V30 10607 C 1001.81 3.40886 1.16055 0
M  V30 10608 C 1001.66 4.49748 0.0681072 0
M  V30 10609 C 1002.98 3.88699 2.06401 0
M  V30 10610 H 1000.1 0.70556 0.212965 0
M  V30 10611 H 1002.74 1.89439 -0.145886 0
M  V30 10612 H 1000.89 3.4493 1.78761 0
M  V30 10613 H 1002.57 4.57823 -0.565318 0
M  V30 10614 H 1000.81 4.29625 -0.600431 0
M  V30 10615 H 1001.48 5.49658 0.507906 0
M  V30 10616 H 1003.96 3.86703 1.53622 0
M  V30 10617 H 1002.83 4.92052 2.43261 0
M  V30 10618 H 1003.09 3.2703 2.97496 0
M  V30 10619 N 1002.15 -0.195058 1.56388 0
M  V30 10620 C 1003.1 -1.26122 1.95438 0
M  V30 10621 C 1004.09 -1.47117 0.839818 0
M  V30 10622 O 1005.3 -1.47978 1.02482 0
M  V30 10623 H 1001.67 -0.423422 0.621464 0
M  V30 10624 H 1003.65 -0.904854 2.8435 0
M  V30 10625 C 1002.39 -2.59858 2.31017 0
M  V30 10626 H 1001.72 -2.44519 3.16308 0
M  V30 10627 H 1003.16 -3.33205 2.62203 0
M  V30 10628 C 1001.62 -3.16853 1.14481 0
M  V30 10629 O 1002.15 -3.995 0.419853 0
M  V30 10630 N 1000.35 -2.75599 0.921604 0
M  V30 10631 H 999.9 -2.08495 1.51287 0
M  V30 10632 H 999.858 -3.14072 0.143663 0
M  V30 10633 N 1003.63 -1.50653 -0.462772 0
M  V30 10634 C 1004.88 -1.62297 -1.21603 0
M  V30 10635 C 1005.21 -0.326191 -1.91441 0
M  V30 10636 O 1004.48 0.67284 -1.82491 0
M  V30 10637 C 1004.77 -2.80901 -2.25315 0
M  V30 10638 C 1004.62 -4.20484 -1.59728 0
M  V30 10639 C 1005.94 -2.95049 -3.26549 0
M  V30 10640 H 1003.06 -0.590691 -0.440741 0
M  V30 10641 H 1005.7 -1.83064 -0.508675 0
M  V30 10642 H 1003.85 -2.63325 -2.85643 0
M  V30 10643 H 1005.52 -4.49669 -1.02932 0
M  V30 10644 H 1003.76 -4.24357 -0.900181 0
M  V30 10645 H 1004.44 -4.99416 -2.35133 0
M  V30 10646 H 1006.91 -3.11166 -2.76251 0
M  V30 10647 H 1005.79 -3.79645 -3.96435 0
M  V30 10648 H 1006.05 -2.06019 -3.91163 0
M  V30 10649 N 1005.11 0.71652 -1.4037 0
M  V30 10650 C 1006.35 1.48883 -1.40047 0
M  V30 10651 C 1006.71 1.92 -0.00158027 0
M  V30 10652 O 1007.91 2.68501 0.126765 0
M  V30 10653 C 1006.18 2.68265 -2.36154 0
M  V30 10654 S 1007.74 3.57684 -2.5418 0
M  V30 10655 H 1004.56 0.509035 -0.496391 0
M  V30 10656 H 1007.16 0.837967 -1.76631 0
M  V30 10657 H 1005.87 2.34759 -3.36625 0
M  V30 10658 H 1005.4 3.38264 -2.0085 0
M  V30 10659 H 1007.41 4.62653 -1.79352 0
M  V30 10660 N 1006.59 1.25851 0.948643 0
M  V30 10661 C 1007.81 1.13813 1.73382 0
M  V30 10662 C 1008.24 -0.303615 1.85633 0
M  V30 10663 O 1007.59 -1.21997 1.34114 0
M  V30 10664 C 1007.64 1.80388 3.12238 0
M  V30 10665 O 1006.75 1.08759 3.978 0
M  V30 10666 H 1006.09 0.397006 0.532243 0
M  V30 10667 H 1008.62 1.66529 1.18866 0
M  V30 10668 H 1008.63 1.86913 3.62667 0
M  V30 10669 H 1007.3 2.85278 3.02637 0
M  V30 10670 H 1005.88 1.10157 3.56258 0
M  V30 10671 N 1008.06 -1.15214 1.07534 0
M  V30 10672 C 1008.99 -2.2216 0.718837 0
M  V30 10673 C 1009.98 -1.6753 -0.29459 0
M  V30 10674 O 1011.16 -1.93481 -0.166931 0
M  V30 10675 C 1008.29 -3.471 0.117836 0
M  V30 10676 C 1007.24 -4.14701 1.05862 0
M  V30 10677 C 1006.57 -5.3374 0.320284 0
M  V30 10678 C 1007.87 -4.64254 2.39302 0
M  V30 10679 H 1009.56 -2.52237 1.61297 0
M  V30 10680 H 1007.11 -1.21239 0.776992 0
M  V30 10681 H 1009.06 -4.21156 -0.143519 0
M  V30 10682 H 1007.79 -3.16361 -0.811389 0
M  V30 10683 H 1006.45 -3.42589 1.30493 0
M  V30 10684 H 1006.09 -4.99257 -0.61246 0
M  V30 10685 H 1005.79 -5.79912 0.947381 0
M  V30 10686 H 1007.32 -6.10563 0.0667721 0
M  V30 10687 H 1008.73 -5.29827 2.18988 0
M  V30 10688 H 1007.13 -5.21095 2.97623 0
M  V30 10689 H 1008.2 -3.79793 3.01472 0
M  V30 10690 N 1009.54 -0.859717 -1.32086 0
M  V30 10691 C 1010.47 -0.323502 -2.31248 0
M  V30 10692 C 1011.45 0.580085 -1.59903 0
M  V30 10693 O 1012.64 0.499265 -1.87673 0
M  V30 10694 C 1009.77 0.484661 -3.43902 0
M  V30 10695 C 1008.72 -0.324933 -4.26765 0
M  V30 10696 C 1008.05 0.608281 -5.31229 0
M  V30 10697 C 1009.35 -1.55344 -4.98664 0
M  V30 10698 H 1011.04 -1.15209 -2.76346 0
M  V30 10699 H 1008.59 -0.555442 -1.32856 0
M  V30 10700 H 1010.54 0.870238 -4.12316 0
M  V30 10701 H 1009.27 1.34666 -2.97544 0
M  V30 10702 H 1007.92 -0.692328 -3.60003 0
M  V30 10703 H 1007.57 1.46727 -4.81124 0
M  V30 10704 H 1007.27 0.0705571 -5.87558 0
M  V30 10705 H 1008.8 0.990925 -6.02506 0
M  V30 10706 H 1010.21 -1.23987 -5.59732 0
M  V30 10707 H 1008.61 -2.02947 -5.64741 0
M  V30 10708 H 1009.68 -2.31192 -4.26237 0
M  V30 10709 N 1011.02 1.44971 -0.618145 0
M  V30 10710 C 1011.98 2.29044 0.0846739 0
M  V30 10711 C 1012.98 1.40341 0.784921 0
M  V30 10712 O 1014.17 1.62351 0.631479 0
M  V30 10713 C 1011.31 3.21617 1.13027 0
M  V30 10714 H 1012.5 2.92668 -0.654612 0
M  V30 10715 H 1010.05 1.51668 -0.377672 0
M  V30 10716 H 1010.79 2.62815 1.89997 0
M  V30 10717 H 1010.57 3.86969 0.63224 0
M  V30 10718 H 1012.06 3.84805 1.62218 0
M  V30 10719 N 1012.5 0.357919 1.53482 0
M  V30 10720 C 1013.43 -0.526753 2.23065 0
M  V30 10721 C 1014.44 -1.05239 1.24212 0
M  V30 10722 O 1015.63 -0.960078 1.50482 0
M  V30 10723 C 1012.73 -1.73919 2.9087 0
M  V30 10724 C 1011.91 -1.34638 4.16163 0
M  V30 10725 C 1010.96 -2.42005 4.67247 0
M  V30 10726 O 1009.99 -2.04714 5.31113 0
M  V30 10727 N 1011.19 -3.73478 4.44404 0
M  V30 10728 H 1013.96 0.0692386 2.9962 0
M  V30 10729 H 1011.52 0.182726 1.60866 0
M  V30 10730 H 1013.51 -2.45207 3.21956 0
M  V30 10731 H 1012.08 -2.24223 2.17814 0
M  V30 10732 H 1011.3 -0.463667 3.91464 0
M  V30 10733 H 1012.59 -1.06012 4.97633 0
M  V30 10734 H 1011.99 -4.06555 3.93357 0
M  V30 10735 H 1010.54 -4.40893 4.80059 0
M  V30 10736 N 1013.98 -1.5736 0.0868897 0
M  V30 10737 C 1015.2 -1.98388 -0.587349 0
M  V30 10738 C 1015.62 -0.965757 -1.6223 0
M  V30 10739 O 1014.98 0.0456981 -1.82443 0
M  V30 10740 C 1015.03 -3.39479 -1.24242 0
M  V30 10741 O 1014.75 -4.37393 -0.248878 0
M  V30 10742 C 1016.25 -3.95465 -2.00305 0
M  V30 10743 H 1013.47 -0.652111 -0.15809 0
M  V30 10744 H 1016.01 -2.03843 0.163754 0
M  V30 10745 H 1014.17 -3.35063 -1.94451 0
M  V30 10746 H 1014.58 -5.19525 -0.720678 0
M  V30 10747 H 1016.06 -4.96363 -2.41511 0
M  V30 10748 H 1016.53 -3.32832 -2.86565 0
M  V30 10749 H 1017.14 -4.03328 -1.34931 0
M  V30 10750 N 1015.45 0.186762 -1.56489 0
M  V30 10751 C 1016.87 0.750675 -1.70944 0
M  V30 10752 C 1017.22 1.83483 -0.694858 0
M  V30 10753 O 1016.34 2.159 0.147009 0
M  V30 10754 C 1016.94 1.36843 -3.09934 0
M  V30 10755 C 1015.5 1.87934 -3.26125 0
M  V30 10756 C 1014.64 0.75242 -2.66897 0
M  V30 10757 H 1017.59 -0.0384292 -1.58653 0
M  V30 10758 H 1017.61 2.23795 -3.07727 0
M  V30 10759 H 1017.13 0.579135 -3.83755 0
M  V30 10760 H 1015.23 2.69556 -2.57235 0
M  V30 10761 H 1015.34 2.0354 -4.33715 0
M  V30 10762 H 1013.7 1.16888 -2.26295 0
M  V30 10763 H 1014.49 -0.0247769 -3.43291 0
M  V30 10764 N 1016.93 1.50896 0.454776 0
M  V30 10765 C 1017.86 1.73885 1.5584 0
M  V30 10766 C 1018.84 0.588172 1.59607 0
M  V30 10767 O 1020.03 0.829054 1.75614 0
M  V30 10768 C 1017.16 1.84796 2.94054 0
M  V30 10769 C 1016.11 3.00111 3.05152 0
M  V30 10770 C 1015.44 2.96183 4.45174 0
M  V30 10771 C 1016.74 4.40365 2.80849 0
M  V30 10772 H 1018.43 2.66292 1.36854 0
M  V30 10773 H 1015.98 1.28142 0.656936 0
M  V30 10774 H 1017.93 1.99462 3.71204 0
M  V30 10775 H 1016.66 0.890235 3.14233 0
M  V30 10776 H 1015.31 2.85121 2.30438 0
M  V30 10777 H 1014.96 1.98224 4.62295 0
M  V30 10778 H 1014.66 3.73608 4.53532 0
M  V30 10779 H 1016.19 3.1292 5.24322 0
M  V30 10780 H 1017.6 4.55795 3.47741 0
M  V30 10781 H 1016 5.19363 3.00636 0
M  V30 10782 H 1017.07 4.51606 1.76579 0
M  V30 10783 N 1018.41 -0.709066 1.40748 0
M  V30 10784 C 1019.36 -1.8149 1.38005 0
M  V30 10785 C 1020.34 -1.58842 0.256544 0
M  V30 10786 O 1021.54 -1.69904 0.496164 0
M  V30 10787 C 1018.67 -3.19678 1.25143 0
M  V30 10788 C 1017.75 -3.48067 2.42301 0
M  V30 10789 N 1018.14 -3.47234 3.6778 0
M  V30 10790 C 1016.44 -3.78555 2.35822 0
M  V30 10791 C 1017.14 -3.74149 4.45407 0
M  V30 10792 N 1016.12 -3.93224 3.75335 0
M  V30 10793 H 1019.92 -1.79188 2.32957 0
M  V30 10794 H 1017.43 -0.908477 1.34612 0
M  V30 10795 H 1019.43 -3.98875 1.2126 0
M  V30 10796 H 1018.09 -3.23201 0.311642 0
M  V30 10797 H 1019.1 -3.2793 4.00852 0
M  V30 10798 H 1015.78 -3.89529 1.50245 0
M  V30 10799 H 1017.17 -3.79755 5.54289 0
M  V30 10800 N 1019.89 -1.26353 -0.941956 0
M  V30 10801 C 1021.14 -1.12017 -1.69056 0
M  V30 10802 C 1021.47 0.335856 -1.91274 0
M  V30 10803 O 1020.74 1.24677 -1.49285 0
M  V30 10804 C 1021.03 -1.88889 -3.06583 0
M  V30 10805 C 1020.88 -3.42394 -2.91696 0
M  V30 10806 C 1022.2 -1.68209 -4.06686 0
M  V30 10807 H 1019.32 -0.408311 -0.613556 0
M  V30 10808 H 1021.96 -1.55339 -1.09407 0
M  V30 10809 H 1020.11 -1.5207 -3.57501 0
M  V30 10810 H 1021.78 -3.88962 -2.48005 0
M  V30 10811 H 1020.02 -3.69459 -2.27338 0
M  V30 10812 H 1020.7 -3.91408 -3.89235 0
M  V30 10813 H 1023.17 -2.00286 -3.64726 0
M  V30 10814 H 1022.05 -2.24412 -5.00929 0
M  V30 10815 H 1022.31 -0.626474 -4.37639 0
M  V30 10816 N 1021.37 1.14642 -1.08144 0
M  V30 10817 C 1022.33 2.17834 -0.712799 0
M  V30 10818 C 1023.33 1.58828 0.251041 0
M  V30 10819 O 1024.52 1.74173 0.0309381 0
M  V30 10820 C 1021.65 3.4086 -0.0519477 0
M  V30 10821 H 1022.85 2.51961 -1.62653 0
M  V30 10822 H 1020.4 1.29243 -0.878971 0
M  V30 10823 H 1021.13 3.12311 0.873636 0
M  V30 10824 H 1020.92 3.84952 -0.745286 0
M  V30 10825 H 1022.41 4.17163 0.191031 0
M  V30 10826 N 1022.85 0.866709 1.31628 0
M  V30 10827 C 1023.81 0.325041 2.26883 0
M  V30 10828 C 1024.81 -0.522133 1.52087 0
M  V30 10829 O 1026 -0.331908 1.71009 0
M  V30 10830 C 1023.13 -0.538756 3.36616 0
M  V30 10831 H 1024.32 1.16592 2.76308 0
M  V30 10832 H 1021.88 0.642029 1.42505 0
M  V30 10833 H 1022.61 -1.40096 2.92478 0
M  V30 10834 H 1022.4 0.0678115 3.92041 0
M  V30 10835 H 1023.89 -0.910123 4.07562 0
M  V30 10836 N 1024.32 -1.44642 0.625825 0
M  V30 10837 C 1025.23 -2.34451 -0.0836134 0
M  V30 10838 C 1026.25 -1.5231 -0.841289 0
M  V30 10839 O 1027.43 -1.85056 -0.794754 0
M  V30 10840 C 1024.49 -3.30211 -1.05648 0
M  V30 10841 C 1023.55 -4.28259 -0.298759 0
M  V30 10842 C 1022.78 -5.19444 -1.22528 0
M  V30 10843 O 1023.01 -5.14444 -2.46382 0
M  V30 10844 O 1021.94 -5.97668 -0.71247 0
M  V30 10845 H 1025.77 -2.96555 0.654912 0
M  V30 10846 H 1023.35 -1.44327 0.386029 0
M  V30 10847 H 1025.23 -3.8917 -1.61632 0
M  V30 10848 H 1023.91 -2.70648 -1.77571 0
M  V30 10849 H 1022.82 -3.72863 0.304001 0
M  V30 10850 H 1024.15 -4.90728 0.380345 0
M  V30 10851 N 1025.8 -0.366053 -1.5329 0
M  V30 10852 C 1027.03 0.224236 -2.05681 0
M  V30 10853 C 1027.44 1.42412 -1.23952 0
M  V30 10854 O 1026.8 1.80334 -0.280309 0
M  V30 10855 C 1026.85 0.617266 -3.56191 0
M  V30 10856 O 1026.57 -0.534931 -4.34822 0
M  V30 10857 C 1028.07 1.26589 -4.24841 0
M  V30 10858 H 1025.29 0.0392928 -0.669849 0
M  V30 10859 H 1027.84 -0.52456 -1.97658 0
M  V30 10860 H 1025.99 1.31598 -3.64364 0
M  V30 10861 H 1026.41 -0.217123 -5.2405 0
M  V30 10862 H 1027.88 1.49146 -5.31469 0
M  V30 10863 H 1028.36 2.22633 -3.78591 0
M  V30 10864 H 1028.96 0.6086 -4.20923 0
M  V30 10865 N 1027.28 1.57312 -0.0952337 0
M  V30 10866 C 1028.53 1.93974 0.567319 0
M  V30 10867 C 1028.85 0.977805 1.68713 0
M  V30 10868 O 1028.12 0.0298944 1.95877 0
M  V30 10869 H 1026.7 0.71612 0.212558 0
M  V30 10870 H 1029.36 1.94254 -0.158598 0
M  V30 10871 H 1028.46 2.964 0.977423 0
M  V30 10872 N 1028.76 -0.17846 1.56586 0
M  V30 10873 C 1029.71 -1.22552 1.92263 0
M  V30 10874 C 1030.69 -1.40163 0.790131 0
M  V30 10875 O 1031.88 -1.42254 1.05322 0
M  V30 10876 C 1029.01 -2.5666 2.27993 0
M  V30 10877 C 1028.1 -2.42772 3.47739 0
M  V30 10878 N 1028.49 -1.98588 4.65185 0
M  V30 10879 C 1026.79 -2.73619 3.52205 0
M  V30 10880 C 1027.49 -1.96991 5.47329 0
M  V30 10881 N 1026.46 -2.39126 4.8818 0
M  V30 10882 H 1030.27 -0.875493 2.80557 0
M  V30 10883 H 1027.78 -0.386785 1.57727 0
M  V30 10884 H 1029.78 -3.32312 2.51743 0
M  V30 10885 H 1028.44 -2.92472 1.41034 0
M  V30 10886 H 1029.45 -1.69036 4.89538 0
M  V30 10887 H 1026.13 -3.13516 2.75706 0
M  V30 10888 H 1027.52 -1.64589 6.51429 0
M  V30 10889 N 1030.24 -1.51135 -0.446768 0
M  V30 10890 C 1031.46 -1.67129 -1.21965 0
M  V30 10891 C 1031.88 -0.36467 -1.85245 0
M  V30 10892 O 1031.24 0.655908 -1.70306 0
M  V30 10893 C 1031.29 -2.78016 -2.31061 0
M  V30 10894 O 1031.01 -4.03615 -1.70371 0
M  V30 10895 C 1032.51 -3.05197 -3.21511 0
M  V30 10896 H 1029.73 -0.561111 -0.367961 0
M  V30 10897 H 1032.27 -1.97499 -0.530517 0
M  V30 10898 H 1030.43 -2.50272 -2.95707 0
M  V30 10899 H 1030.84 -4.65126 -2.424 0
M  V30 10900 H 1032.32 -3.8639 -3.94216 0
M  V30 10901 H 1032.79 -2.17228 -3.81718 0
M  V30 10902 H 1033.4 -3.34565 -2.62577 0
M  V30 10903 N 1031.71 0.701592 -1.41122 0
M  V30 10904 C 1032.94 1.49553 -1.43696 0
M  V30 10905 C 1033.36 1.88053 -0.0421865 0
M  V30 10906 O 1032.72 1.54223 0.953144 0
M  V30 10907 C 1032.77 2.73834 -2.34622 0
M  V30 10908 O 1031.87 3.71088 -1.7991 0
M  V30 10909 H 1031.21 0.450352 -0.487933 0
M  V30 10910 H 1033.74 0.862886 -1.85514 0
M  V30 10911 H 1033.75 3.22209 -2.5029 0
M  V30 10912 H 1032.43 2.45149 -3.35969 0
M  V30 10913 H 1031.01 3.29994 -1.73661 0
M  V30 10914 N 1033.19 1.2685 0.935242 0
M  V30 10915 C 1034.42 1.15538 1.71635 0
M  V30 10916 C 1034.83 -0.288698 1.8658 0
M  V30 10917 O 1034.19 -1.19721 1.37743 0
M  V30 10918 C 1034.24 1.8259 3.11999 0
M  V30 10919 O 1033.96 3.21355 2.97763 0
M  V30 10920 C 1035.46 1.77307 4.06297 0
M  V30 10921 H 1032.68 0.402055 0.537208 0
M  V30 10922 H 1035.23 1.67582 1.17203 0
M  V30 10923 H 1033.38 1.3447 3.63313 0
M  V30 10924 H 1033.8 3.54626 3.86446 0
M  V30 10925 H 1035.27 2.28851 5.02326 0
M  V30 10926 H 1035.75 0.740823 4.32907 0
M  V30 10927 H 1036.35 2.25007 3.60904 0
M  V30 10928 N 1034.67 -1.14067 1.0875 0
M  V30 10929 C 1035.63 -2.17453 0.724341 0
M  V30 10930 C 1036.63 -1.58959 -0.242614 0
M  V30 10931 O 1037.82 -1.74186 -0.0217008 0
M  V30 10932 C 1034.96 -3.40828 0.0700236 0
M  V30 10933 H 1036.15 -2.51094 1.63987 0
M  V30 10934 H 1033.7 -1.28775 0.885813 0
M  V30 10935 H 1034.44 -3.1277 -0.857061 0
M  V30 10936 H 1034.22 -3.84551 0.76569 0
M  V30 10937 H 1035.71 -4.17258 -0.168905 0
M  V30 10938 N 1036.15 -0.873678 -1.31166 0
M  V30 10939 C 1037.56 -0.566109 -1.49223 0
M  V30 10940 C 1037.76 0.898889 -1.80339 0
M  V30 10941 O 1036.82 1.68084 -1.88425 0
M  V30 10942 C 1038.13 -1.46952 -2.62346 0
M  V30 10943 C 1039.68 -1.47195 -2.76229 0
M  V30 10944 C 1040.16 -2.36102 -3.92454 0
M  V30 10945 N 1041.65 -2.34003 -3.99746 0
M  V30 10946 C 1042.38 -2.99513 -4.88958 0
M  V30 10947 N 1041.88 -3.74206 -5.83045 0
M  V30 10948 N 1043.67 -2.88802 -4.82234 0
M  V30 10949 H 1035.82 -1.82156 -1.09239 0
M  V30 10950 H 1038.09 -0.779086 -0.54012 0
M  V30 10951 H 1037.79 -2.51213 -2.4614 0
M  V30 10952 H 1037.67 -1.17077 -3.5857 0
M  V30 10953 H 1040.05 -0.436902 -2.91848 0
M  V30 10954 H 1040.13 -1.81095 -1.80661 0
M  V30 10955 H 1039.78 -3.39685 -3.77593 0
M  V30 10956 H 1039.71 -1.99524 -4.87337 0
M  V30 10957 H 1042.2 -1.79713 -3.32433 0
M  V30 10958 H 1042.51 -4.21312 -6.47855 0
M  V30 10959 H 1040.86 -3.78314 -5.83012 0
M  V30 10960 H 1044.05 -2.29984 -4.07707 0
M  V30 10961 H 1044.22 -3.40136 -5.51554 0
M  V30 10962 N 1037.63 1.44308 -0.633487 0
M  V30 10963 C 1038.56 2.33431 0.0568402 0
M  V30 10964 C 1039.54 1.48342 0.832386 0
M  V30 10965 O 1040.72 1.77056 0.797798 0
M  V30 10966 C 1037.85 3.31443 1.03743 0
M  V30 10967 C 1036.81 4.26368 0.373362 0
M  V30 10968 C 1036.13 5.14267 1.46403 0
M  V30 10969 C 1037.43 5.17287 -0.721876 0
M  V30 10970 H 1039.13 2.91402 -0.687388 0
M  V30 10971 H 1036.67 1.4012 -0.332009 0
M  V30 10972 H 1038.63 3.92677 1.52913 0
M  V30 10973 H 1037.35 2.71686 1.81258 0
M  V30 10974 H 1036.01 3.6647 -0.0977053 0
M  V30 10975 H 1035.66 4.50861 2.23011 0
M  V30 10976 H 1035.36 5.7859 1.02506 0
M  V30 10977 H 1036.88 5.78373 1.95748 0
M  V30 10978 H 1038.29 5.72444 -0.313181 0
M  V30 10979 H 1036.69 5.90226 -1.08413 0
M  V30 10980 H 1037.76 4.58159 -1.58804 0
M  V30 10981 N 1039.1 0.374177 1.53094 0
M  V30 10982 C 1040.03 -0.459976 2.28925 0
M  V30 10983 C 1041.02 -1.07656 1.31698 0
M  V30 10984 O 1042.2 -1.09219 1.60577 0
M  V30 10985 C 1039.33 -1.5954 3.08487 0
M  V30 10986 C 1038.28 -1.10563 4.13473 0
M  V30 10987 C 1037.61 -2.33196 4.81169 0
M  V30 10988 C 1038.91 -0.184275 5.21975 0
M  V30 10989 H 1040.6 0.172692 2.98902 0
M  V30 10990 H 1038.15 0.0844956 1.43752 0
M  V30 10991 H 1040.1 -2.18565 3.60288 0
M  V30 10992 H 1038.83 -2.25543 2.36216 0
M  V30 10993 H 1037.49 -0.53801 3.62631 0
M  V30 10994 H 1037.13 -2.97675 4.05461 0
M  V30 10995 H 1036.83 -2.01094 5.52119 0
M  V30 10996 H 1038.36 -2.92892 5.35767 0
M  V30 10997 H 1039.77 -0.682262 5.69226 0
M  V30 10998 H 1038.17 0.0462746 6.00082 0
M  V30 10999 H 1039.24 0.771152 4.78729 0
M  V30 11000 N 1040.58 -1.57259 0.103575 0
M  V30 11001 C 1041.51 -2.17509 -0.84923 0
M  V30 11002 C 1042.49 -1.11079 -1.28824 0
M  V30 11003 O 1043.68 -1.39252 -1.35361 0
M  V30 11004 C 1040.81 -2.76221 -2.10522 0
M  V30 11005 C 1039.76 -3.88098 -1.80454 0
M  V30 11006 C 1039.09 -4.33549 -3.12952 0
M  V30 11007 C 1040.39 -5.10909 -1.08486 0
M  V30 11008 H 1042.08 -2.9738 -0.347217 0
M  V30 11009 H 1039.63 -1.43045 -0.165568 0
M  V30 11010 H 1041.58 -3.17024 -2.77621 0
M  V30 11011 H 1040.31 -1.93617 -2.63021 0
M  V30 11012 H 1038.96 -3.47847 -1.15749 0
M  V30 11013 H 1038.61 -3.47825 -3.63355 0
M  V30 11014 H 1038.31 -5.08984 -2.93614 0
M  V30 11015 H 1039.84 -4.76992 -3.81196 0
M  V30 11016 H 1041.25 -5.48828 -1.65711 0
M  V30 11017 H 1039.65 -5.91828 -0.992973 0
M  V30 11018 H 1040.72 -4.84851 -0.0690108 0
M  V30 11019 N 1042.06 0.170153 -1.56679 0
M  V30 11020 C 1043.01 1.21531 -1.9291 0
M  V30 11021 C 1043.99 1.39742 -0.797553 0
M  V30 11022 O 1045.19 1.41693 -1.06075 0
M  V30 11023 C 1042.32 2.55447 -2.29351 0
M  V30 11024 C 1041.4 2.40925 -3.49022 0
M  V30 11025 N 1041.79 1.96118 -4.66231 0
M  V30 11026 C 1040.09 2.71747 -3.53652 0
M  V30 11027 C 1040.79 1.94086 -5.48366 0
M  V30 11028 N 1039.77 2.36533 -4.89441 0
M  V30 11029 H 1043.57 0.860602 -2.81018 0
M  V30 11030 H 1041.08 0.378415 -1.5793 0
M  V30 11031 H 1043.08 3.30972 -2.53502 0
M  V30 11032 H 1041.74 2.9172 -1.42583 0
M  V30 11033 H 1042.75 1.66438 -4.90427 0
M  V30 11034 H 1039.43 3.1205 -2.77365 0
M  V30 11035 H 1040.82 1.61132 -6.52293 0
M  V30 11036 N 1043.54 1.5137 0.438746 0
M  V30 11037 C 1044.95 1.39514 0.775116 0
M  V30 11038 C 1045.15 0.47638 1.95788 0
M  V30 11039 O 1044.21 -0.0689832 2.52406 0
M  V30 11040 C 1045.52 2.81517 1.05681 0
M  V30 11041 C 1047.07 2.90658 1.16133 0
M  V30 11042 C 1047.55 4.33566 1.47597 0
M  V30 11043 N 1049.04 4.36665 1.54524 0
M  V30 11044 C 1049.77 5.4427 1.80438 0
M  V30 11045 N 1049.27 6.62037 2.04154 0
M  V30 11046 N 1051.06 5.31749 1.82208 0
M  V30 11047 H 1043.21 2.09657 -0.340237 0
M  V30 11048 H 1045.48 0.943736 -0.0898115 0
M  V30 11049 H 1045.18 3.50734 0.260441 0
M  V30 11050 H 1045.06 3.20757 1.98481 0
M  V30 11051 H 1047.44 2.2164 1.94833 0
M  V30 11052 H 1047.52 2.54917 0.212376 0
M  V30 11053 H 1047.17 5.03133 0.694251 0
M  V30 11054 H 1047.1 4.66819 2.43696 0
M  V30 11055 H 1049.59 3.51761 1.38105 0
M  V30 11056 H 1049.9 7.39838 2.23293 0
M  V30 11057 H 1048.25 6.65155 2.01479 0
M  V30 11058 H 1051.44 4.3873 1.63198 0
M  V30 11059 H 1051.61 6.15689 2.02067 0
M  V30 11060 N 1045.02 -0.694098 1.41492 0
M  V30 11061 C 1046.26 -1.45127 1.4065 0
M  V30 11062 C 1046.59 -1.94993 0.0170289 0
M  V30 11063 O 1045.86 -1.71799 -0.941372 0
M  V30 11064 H 1044.44 -0.538493 0.51772 0
M  V30 11065 H 1047.1 -0.821441 1.76744 0
M  V30 11066 H 1046.19 -2.31372 2.0946 0
M  V30 11067 N 1046.49 -1.27344 -0.928501 0
M  V30 11068 C 1047.46 -1.10043 -2.01055 0
M  V30 11069 C 1048.46 -0.0446793 -1.60738 0
M  V30 11070 O 1049.65 -0.289202 -1.71783 0
M  V30 11071 C 1046.78 -0.676559 -3.34119 0
M  V30 11072 H 1047.97 -2.06126 -2.17835 0
M  V30 11073 H 1045.53 -1.10121 -1.10919 0
M  V30 11074 H 1046.26 0.285697 -3.23039 0
M  V30 11075 H 1046.05 -1.43903 -3.64739 0
M  V30 11076 H 1047.54 -0.577725 -4.13584 0
M  V30 11077 N 1047.97 1.13488 -1.09353 0
M  V30 11078 C 1049.22 1.84383 -0.827488 0
M  V30 11079 C 1049.54 1.83892 0.648745 0
M  V30 11080 O 1048.81 1.29415 1.47066 0
M  V30 11081 H 1047.39 0.682732 -0.303127 0
M  V30 11082 H 1050.05 1.37477 -1.38152 0
M  V30 11083 H 1049.15 2.88919 -1.18035 0
M  V30 11084 N 1049.45 0.880621 1.30701 0
M  V30 11085 C 1050.4 0.342397 2.28246 0
M  V30 11086 C 1051.37 -0.565023 1.56194 0
M  V30 11087 O 1052.55 -0.494377 1.84284 0
M  V30 11088 C 1049.69 -0.440859 3.42272 0
M  V30 11089 C 1048.81 0.495284 4.29151 0
M  V30 11090 C 1047.94 -0.303141 5.30334 0
M  V30 11091 C 1046.98 0.628751 6.08862 0
M  V30 11092 N 1046.12 -0.13408 7.01972 0
M  V30 11093 H 1050.96 1.17938 2.73669 0
M  V30 11094 H 1048.49 0.59296 1.34619 0
M  V30 11095 H 1050.45 -0.910854 4.07135 0
M  V30 11096 H 1049.08 -1.24245 2.97931 0
M  V30 11097 H 1048.13 1.08376 3.64635 0
M  V30 11098 H 1049.45 1.2094 4.83916 0
M  V30 11099 H 1048.6 -0.835181 6.00924 0
M  V30 11100 H 1047.34 -1.05049 4.76252 0
M  V30 11101 H 1046.34 1.17246 5.37153 0
M  V30 11102 H 1047.57 1.37512 6.65032 0
M  V30 11103 H 1045.52 -0.864046 6.50285 0
M  V30 11104 H 1045.43 0.520486 7.54206 0
M  V30 11105 H 1046.7 -0.647005 7.7681 0
M  V30 11106 N 1050.93 -1.4397 0.641131 0
M  V30 11107 C 1051.84 -2.34526 -0.058742 0
M  V30 11108 C 1052.86 -1.53194 -0.825088 0
M  V30 11109 O 1054.03 -1.85888 -0.775081 0
M  V30 11110 C 1051.1 -3.31313 -1.02139 0
M  V30 11111 C 1050.16 -4.28552 -0.253319 0
M  V30 11112 C 1049.39 -5.20715 -1.17012 0
M  V30 11113 O 1049.61 -5.17028 -2.40911 0
M  V30 11114 O 1048.55 -5.9839 -0.649039 0
M  V30 11115 H 1052.37 -2.95843 0.686329 0
M  V30 11116 H 1049.96 -1.43909 0.401316 0
M  V30 11117 H 1051.84 -3.90862 -1.57496 0
M  V30 11118 H 1050.52 -2.72516 -1.7469 0
M  V30 11119 H 1049.42 -3.72519 0.343531 0
M  V30 11120 H 1050.76 -4.90297 0.432372 0
M  V30 11121 N 1052.41 -0.382291 -1.52893 0
M  V30 11122 C 1053.37 0.44408 -2.24857 0
M  V30 11123 C 1054.37 0.996004 -1.26239 0
M  V30 11124 O 1055.56 0.879114 -1.5039 0
M  V30 11125 C 1052.69 1.62234 -2.99822 0
M  V30 11126 H 1053.89 -0.185862 -2.99324 0
M  V30 11127 H 1051.44 -0.134275 -1.55722 0
M  V30 11128 H 1052.17 2.28991 -2.29638 0
M  V30 11129 H 1051.96 1.23336 -3.72197 0
M  V30 11130 H 1053.45 2.20756 -3.54481 0
M  V30 11131 N 1053.89 1.57202 -0.111913 0
M  V30 11132 C 1054.82 2.10634 0.877983 0
M  V30 11133 C 1055.8 1.02098 1.26549 0
M  V30 11134 O 1056.98 1.29707 1.36779 0
M  V30 11135 C 1054.11 2.59721 2.174 0
M  V30 11136 C 1053.15 3.80074 1.93509 0
M  V30 11137 S 1053.99 5.22834 1.1578 0
M  V30 11138 C 1055.14 5.75284 2.46576 0
M  V30 11139 H 1055.38 2.94268 0.423483 0
M  V30 11140 H 1052.91 1.54065 0.101721 0
M  V30 11141 H 1054.87 2.88657 2.91868 0
M  V30 11142 H 1053.53 1.76281 2.59969 0
M  V30 11143 H 1052.72 4.12545 2.89522 0
M  V30 11144 H 1052.32 3.51718 1.27164 0
M  V30 11145 H 1054.61 5.84576 3.42457 0
M  V30 11146 H 1055.56 6.73493 2.1866 0
M  V30 11147 H 1055.97 5.03308 2.55619 0
M  V30 11148 N 1055.36 -0.161842 1.56767 0
M  V30 11149 C 1056.59 -0.892247 1.86672 0
M  V30 11150 C 1057.01 -1.75407 0.69841 0
M  V30 11151 O 1056.36 -1.7945 -0.332251 0
M  V30 11152 C 1056.41 -1.7612 3.15696 0
M  V30 11153 O 1056.14 -0.934131 4.28025 0
M  V30 11154 C 1057.64 -2.60046 3.59014 0
M  V30 11155 H 1054.86 -0.258747 0.619105 0
M  V30 11156 H 1057.4 -0.159089 2.0388 0
M  V30 11157 H 1055.56 -2.44759 3.00286 0
M  V30 11158 H 1055.97 -1.52931 5.01709 0
M  V30 11159 H 1057.44 -3.16618 4.5217 0
M  V30 11160 H 1057.92 -3.35374 2.83586 0
M  V30 11161 H 1058.53 -1.96724 3.77067 0
M  V30 11162 N 1056.84 -1.516 -0.430713 0
M  V30 11163 C 1058.07 -1.687 -1.20644 0
M  V30 11164 C 1058.49 -0.386555 -1.84085 0
M  V30 11165 O 1057.85 0.653952 -1.69095 0
M  V30 11166 C 1057.9 -2.80887 -2.2613 0
M  V30 11167 O 1057 -2.44952 -3.31772 0
M  V30 11168 H 1056.34 -0.562289 -0.353167 0
M  V30 11169 H 1058.87 -1.98198 -0.507807 0
M  V30 11170 H 1058.88 -3.05167 -2.70809 0
M  V30 11171 H 1057.56 -3.75249 -1.79334 0
M  V30 11172 H 1056.13 -2.31267 -2.92523 0
M  V30 11173 N 1058.32 0.686584 -1.41858 0
M  V30 11174 C 1059.6 1.44176 -1.32185 0
M  V30 11175 C 1059.98 2.11049 0.046362 0
M  V30 11176 O 1059.32 2.02365 1.06117 0
M  V30 11177 C 1059.53 2.45385 -2.48168 0
M  V30 11178 C 1060.88 3.10375 -2.89746 0
M  V30 11179 O 1061.91 2.55711 -2.47973 0
M  V30 11180 O 1060.77 4.09404 -3.62009 0
M  V30 11181 H 1057.86 0.642513 -0.520678 0
M  V30 11182 H 1060.41 0.716303 -1.53841 0
M  V30 11183 H 1059.18 1.94687 -3.3943 0
M  V30 11184 H 1058.8 3.25428 -2.28435 0
M  V30 11185 N 1059.8 1.27835 0.921735 0
M  V30 11186 C 1061.05 1.14296 1.66676 0
M  V30 11187 C 1061.37 -0.310493 1.92512 0
M  V30 11188 O 1060.64 -1.21637 1.53562 0
M  V30 11189 H 1059.22 0.419994 0.617749 0
M  V30 11190 H 1061.88 1.60449 1.10644 0
M  V30 11191 H 1060.97 1.67654 2.63246 0
M  V30 11192 N 1061.28 -1.12907 1.09954 0
M  V30 11193 C 1062.51 -1.87866 0.859656 0
M  V30 11194 C 1062.91 -1.79664 -0.593096 0
M  V30 11195 O 1062.26 -1.16499 -1.42034 0
M  V30 11196 C 1062.32 -3.38055 1.22308 0
M  V30 11197 C 1061.98 -3.70035 2.68185 0
M  V30 11198 C 1062.98 -3.68817 3.66428 0
M  V30 11199 C 1060.66 -3.99523 3.04444 0
M  V30 11200 C 1062.66 -3.96639 4.98955 0
M  V30 11201 C 1060.35 -4.27006 4.37161 0
M  V30 11202 C 1061.34 -4.25549 5.34225 0
M  V30 11203 O 1061.03 -4.52354 6.64553 0
M  V30 11204 H 1060.76 -0.601425 0.308649 0
M  V30 11205 H 1063.32 -1.43817 1.46649 0
M  V30 11206 H 1061.55 -3.82634 0.559322 0
M  V30 11207 H 1063.24 -3.94348 0.961479 0
M  V30 11208 H 1064 -3.46104 3.3976 0
M  V30 11209 H 1059.88 -3.99801 2.29521 0
M  V30 11210 H 1063.43 -3.95418 5.74709 0
M  V30 11211 H 1059.32 -4.49192 4.6357 0
M  V30 11212 H 1060.09 -4.69997 6.70108 0
M  V30 11213 N 1062.75 -0.88754 -1.30232 0
M  V30 11214 C 1063.98 -0.522306 -2.00199 0
M  V30 11215 C 1064.4 0.889866 -1.66514 0
M  V30 11216 O 1063.75 1.58558 -0.903639 0
M  V30 11217 C 1063.8 -0.690551 -3.54843 0
M  V30 11218 O 1063.53 -2.04713 -3.8733 0
M  V30 11219 C 1065.03 -0.328649 -4.4208 0
M  V30 11220 H 1062.25 -0.201628 -0.63999 0
M  V30 11221 H 1064.79 -1.19355 -1.66056 0
M  V30 11222 H 1062.95 -0.0666493 -3.87343 0
M  V30 11223 H 1063.36 -2.06762 -4.82027 0
M  V30 11224 H 1064.83 -0.497257 -5.49756 0
M  V30 11225 H 1065.31 0.733502 -4.33032 0
M  V30 11226 H 1065.92 -0.928982 -4.1503 0
M  V30 11227 N 1064.23 1.43628 -0.648757 0
M  V30 11228 C 1065.2 2.29172 0.0360713 0
M  V30 11229 C 1066.2 1.41974 0.754976 0
M  V30 11230 O 1067.39 1.63654 0.5969 0
M  V30 11231 C 1064.52 3.23942 1.0618 0
M  V30 11232 H 1065.71 2.91214 -0.716544 0
M  V30 11233 H 1063.26 1.50833 -0.409759 0
M  V30 11234 H 1064 2.66786 1.8438 0
M  V30 11235 H 1063.78 3.88223 0.550016 0
M  V30 11236 H 1065.27 3.8816 1.54019 0
M  V30 11237 N 1065.71 0.390394 1.52688 0
M  V30 11238 C 1066.64 -0.43567 2.294 0
M  V30 11239 C 1067.62 -1.06253 1.32832 0
M  V30 11240 O 1068.81 -1.07509 1.61726 0
M  V30 11241 C 1065.94 -1.56259 3.10162 0
M  V30 11242 C 1064.89 -1.06172 4.14622 0
M  V30 11243 C 1064.22 -2.2808 4.83615 0
M  V30 11244 C 1065.52 -0.128902 5.22141 0
M  V30 11245 H 1067.21 0.204384 2.98702 0
M  V30 11246 H 1064.76 0.0997377 1.43654 0
M  V30 11247 H 1066.71 -2.14732 3.62585 0
M  V30 11248 H 1065.43 -2.23025 2.38595 0
M  V30 11249 H 1064.09 -0.499518 3.63181 0
M  V30 11250 H 1063.74 -2.93358 4.08595 0
M  V30 11251 H 1063.44 -1.95227 5.5422 0
M  V30 11252 H 1064.96 -2.87193 5.38844 0
M  V30 11253 H 1066.38 -0.621849 5.69917 0
M  V30 11254 H 1064.78 0.109919 5.99999 0
M  V30 11255 H 1065.85 0.821884 4.77884 0
M  V30 11256 N 1067.19 -1.57141 0.120249 0
M  V30 11257 C 1068.14 -2.11936 -0.84067 0
M  V30 11258 C 1069.12 -1.04044 -1.22734 0
M  V30 11259 O 1070.31 -1.30275 -1.19822 0
M  V30 11260 C 1067.44 -2.72332 -2.09023 0
M  V30 11261 C 1066.53 -3.87306 -1.72786 0
M  V30 11262 N 1066.92 -4.94302 -1.07232 0
M  V30 11263 C 1065.22 -3.97513 -2.02236 0
M  V30 11264 C 1065.92 -5.7467 -0.901626 0
M  V30 11265 N 1064.9 -5.24535 -1.42702 0
M  V30 11266 H 1068.7 -2.92038 -0.330308 0
M  V30 11267 H 1066.21 -1.62192 -0.0821814 0
M  V30 11268 H 1068.21 -3.09932 -2.78833 0
M  V30 11269 H 1066.87 -1.93693 -2.60601 0
M  V30 11270 H 1067.88 -5.12641 -0.736158 0
M  V30 11271 H 1064.56 -3.29917 -2.55853 0
M  V30 11272 H 1065.95 -6.70785 -0.386974 0
M  V30 11273 N 1068.67 0.153526 -1.5685 0
M  V30 11274 C 1069.6 1.19162 -2.00805 0
M  V30 11275 C 1070.58 1.45172 -0.886518 0
M  V30 11276 O 1071.76 1.56203 -1.15387 0
M  V30 11277 C 1068.89 2.52637 -2.38311 0
M  V30 11278 C 1067.85 2.41161 -3.53589 0
M  V30 11279 C 1067.17 3.79287 -3.76889 0
M  V30 11280 C 1068.47 1.90122 -4.86468 0
M  V30 11281 H 1070.17 0.82617 -2.87776 0
M  V30 11282 H 1067.71 0.395972 -1.38449 0
M  V30 11283 H 1069.67 3.25478 -2.6766 0
M  V30 11284 H 1068.39 2.91005 -1.4827 0
M  V30 11285 H 1067.05 1.70772 -3.24395 0
M  V30 11286 H 1066.7 4.15079 -2.84109 0
M  V30 11287 H 1066.4 3.72472 -4.54465 0
M  V30 11288 H 1067.92 4.53687 -4.08657 0
M  V30 11289 H 1069.33 2.52752 -5.14577 0
M  V30 11290 H 1067.73 1.94214 -5.67804 0
M  V30 11291 H 1068.8 0.856517 -4.77275 0
M  V30 11292 N 1070.14 1.51827 0.422667 0
M  V30 11293 C 1071.11 1.7359 1.49663 0
M  V30 11294 C 1072.11 0.605811 1.48952 0
M  V30 11295 O 1073.3 0.87354 1.50715 0
M  V30 11296 C 1070.43 1.80585 2.8914 0
M  V30 11297 H 1071.62 2.69453 1.31664 0
M  V30 11298 H 1069.18 1.42038 0.652298 0
M  V30 11299 H 1069.91 0.865895 3.12526 0
M  V30 11300 H 1069.7 2.62729 2.9106 0
M  V30 11301 H 1071.19 1.99212 3.67021 0
M  V30 11302 N 1071.62 -0.679052 1.4222 0
M  V30 11303 C 1072.59 -1.77448 1.45069 0
M  V30 11304 C 1073.59 -1.57189 0.338882 0
M  V30 11305 O 1074.78 -1.63559 0.599519 0
M  V30 11306 C 1071.91 -3.1603 1.27819 0
M  V30 11307 H 1073.1 -1.7631 2.426 0
M  V30 11308 H 1070.65 -0.888277 1.28605 0
M  V30 11309 H 1071.39 -3.22796 0.311946 0
M  V30 11310 H 1071.17 -3.32138 2.08391 0
M  V30 11311 H 1072.66 -3.9596 1.32686 0
M  V30 11312 N 1073.1 -1.28322 -0.914942 0
M  V30 11313 C 1074.52 -1.06003 -1.19313 0
M  V30 11314 C 1074.72 0.198366 -2.00521 0
M  V30 11315 O 1073.77 0.900364 -2.35902 0
M  V30 11316 C 1075.09 -2.30684 -1.92887 0
M  V30 11317 C 1076.63 -2.35851 -2.05775 0
M  V30 11318 C 1077.11 -3.60295 -2.82757 0
M  V30 11319 N 1078.6 -3.60928 -2.9032 0
M  V30 11320 C 1079.33 -4.53894 -3.50383 0
M  V30 11321 N 1078.83 -5.57178 -4.11734 0
M  V30 11322 N 1080.62 -4.41492 -3.4791 0
M  V30 11323 H 1072.77 -2.09104 -0.372735 0
M  V30 11324 H 1075.04 -0.920285 -0.227552 0
M  V30 11325 H 1074.74 -3.22355 -1.40643 0
M  V30 11326 H 1074.62 -2.37003 -2.93444 0
M  V30 11327 H 1077 -1.44678 -2.57201 0
M  V30 11328 H 1077.09 -2.33526 -1.04399 0
M  V30 11329 H 1076.73 -4.51811 -2.32011 0
M  V30 11330 H 1076.66 -3.59873 -3.84446 0
M  V30 11331 H 1079.15 -2.8624 -2.46729 0
M  V30 11332 H 1079.46 -6.24261 -4.55541 0
M  V30 11333 H 1077.81 -5.61005 -4.10242 0
M  V30 11334 H 1081 -3.60005 -2.99189 0
M  V30 11335 H 1081.17 -5.14132 -3.94427 0
M  V30 11336 N 1074.58 1.12322 -1.10551 0
M  V30 11337 C 1075.53 2.20166 -0.750317 0
M  V30 11338 C 1076.52 1.67484 0.254066 0
M  V30 11339 O 1077.73 1.79637 0.114309 0
M  V30 11340 H 1074.1 0.717642 -0.22471 0
M  V30 11341 H 1076.07 2.47378 -1.66873 0
M  V30 11342 C 1074.82 3.47126 -0.199651 0
M  V30 11343 H 1074.14 3.88011 -0.963735 0
M  V30 11344 H 1075.58 4.23999 0.0108033 0
M  V30 11345 C 1074.04 3.19526 1.06792 0
M  V30 11346 O 1074.57 3.39368 2.14923 0
M  V30 11347 N 1072.78 2.73324 0.987032 0
M  V30 11348 H 1072.33 2.57378 0.106997 0
M  V30 11349 H 1072.28 2.55234 1.83584 0
M  V30 11350 N 1076.06 0.894434 1.2976 0
M  V30 11351 C 1077.3 0.516646 1.95385 0
M  V30 11352 C 1077.63 -0.939141 1.70895 0
M  V30 11353 O 1076.9 -1.66153 1.03778 0
M  V30 11354 H 1075.48 0.188072 0.722937 0
M  V30 11355 H 1078.14 1.13958 1.58113 0
M  V30 11356 H 1077.23 0.694819 3.04267 0
M  V30 11357 N 1077.53 -1.43282 0.656365 0
M  V30 11358 C 1078.48 -2.27932 -0.0557069 0
M  V30 11359 C 1079.47 -1.40075 -0.791698 0
M  V30 11360 O 1080.66 -1.6368 -0.673646 0
M  V30 11361 C 1077.79 -3.27821 -1.01923 0
M  V30 11362 C 1076.88 -4.23164 -0.281545 0
M  V30 11363 N 1077.27 -5.00882 0.703629 0
M  V30 11364 C 1075.56 -4.42928 -0.522558 0
M  V30 11365 C 1076.27 -5.70384 1.14177 0
M  V30 11366 N 1075.24 -5.41517 0.475394 0
M  V30 11367 H 1079.04 -2.85437 0.70022 0
M  V30 11368 H 1076.56 -1.55023 0.483902 0
M  V30 11369 H 1078.55 -3.87248 -1.54418 0
M  V30 11370 H 1077.21 -2.71878 -1.77518 0
M  V30 11371 H 1078.23 -5.06461 1.08247 0
M  V30 11372 H 1074.9 -3.98051 -1.25944 0
M  V30 11373 H 1076.29 -6.42765 1.95711 0
M  V30 11374 N 1079.01 -0.398486 -1.52479 0
M  V30 11375 C 1079.94 0.423498 -2.29627 0
M  V30 11376 C 1080.92 1.05547 -1.33394 0
M  V30 11377 O 1082.11 1.0665 -1.62294 0
M  V30 11378 C 1079.24 1.54612 -3.10986 0
M  V30 11379 C 1078.19 1.03971 -4.15179 0
M  V30 11380 C 1077.52 2.25512 -4.84818 0
M  V30 11381 C 1078.82 0.10121 -5.22202 0
M  V30 11382 H 1080.51 -0.220222 -2.98589 0
M  V30 11383 H 1078.06 -0.107355 -1.43599 0
M  V30 11384 H 1080.01 2.12806 -3.63719 0
M  V30 11385 H 1078.74 2.21756 -2.39774 0
M  V30 11386 H 1077.4 0.480251 -3.63441 0
M  V30 11387 H 1077.04 2.91187 -4.10145 0
M  V30 11388 H 1076.74 1.92285 -5.55248 0
M  V30 11389 H 1078.27 2.84331 -5.40359 0
M  V30 11390 H 1079.68 0.591617 -5.70239 0
M  V30 11391 H 1078.08 -0.141737 -5.99933 0
M  V30 11392 H 1079.15 -0.847216 -4.77441 0
M  V30 11393 N 1080.49 1.57075 -0.12858 0
M  V30 11394 C 1081.45 2.14643 0.803813 0
M  V30 11395 C 1082.45 1.08363 1.18803 0
M  V30 11396 O 1083.64 1.34093 1.11197 0
M  V30 11397 C 1080.78 2.6945 2.08829 0
M  V30 11398 H 1081.97 2.98362 0.303347 0
M  V30 11399 H 1079.52 1.55833 0.120735 0
M  V30 11400 H 1080.26 1.89345 2.63285 0
M  V30 11401 H 1080.04 3.47187 1.82218 0
M  V30 11402 H 1081.53 3.13865 2.7546 0
M  V30 11403 N 1081.97 -0.145205 1.5693 0
M  V30 11404 C 1083.2 -0.872398 1.87608 0
M  V30 11405 C 1083.61 -1.74657 0.716975 0
M  V30 11406 O 1082.97 -1.79792 -0.3132 0
M  V30 11407 C 1083.02 -1.72762 3.17546 0
M  V30 11408 O 1082.74 -0.888681 4.28992 0
M  V30 11409 C 1084.24 -2.56224 3.61751 0
M  V30 11410 H 1081.46 -0.252166 0.621815 0
M  V30 11411 H 1084.01 -0.137456 2.04038 0
M  V30 11412 H 1082.16 -2.41561 3.02865 0
M  V30 11413 H 1082.58 -1.47601 5.03303 0
M  V30 11414 H 1084.05 -3.11804 4.55502 0
M  V30 11415 H 1084.53 -3.32347 2.87127 0
M  V30 11416 H 1085.13 -1.92714 3.79133 0
M  V30 11417 N 1083.45 -1.52049 -0.414609 0
M  V30 11418 C 1084.69 -1.66084 -1.16379 0
M  V30 11419 C 1085.03 -0.386932 -1.90306 0
M  V30 11420 O 1084.3 0.614441 -1.8454 0
M  V30 11421 C 1084.58 -2.87927 -2.16264 0
M  V30 11422 C 1084.44 -4.25353 -1.46269 0
M  V30 11423 C 1085.76 -3.05289 -3.16996 0
M  V30 11424 H 1082.88 -0.604414 -0.421726 0
M  V30 11425 H 1085.52 -1.8459 -0.450177 0
M  V30 11426 H 1083.67 -2.7228 -2.77121 0
M  V30 11427 H 1085.34 -4.52717 -0.885743 0
M  V30 11428 H 1083.58 -4.27006 -0.76472 0
M  V30 11429 H 1084.25 -5.06644 -2.19126 0
M  V30 11430 H 1086.73 -3.19798 -2.66212 0
M  V30 11431 H 1085.61 -3.92065 -3.84156 0
M  V30 11432 H 1085.87 -2.1836 -3.84411 0
M  V30 11433 N 1084.93 0.6715 -1.42579 0
M  V30 11434 C 1085.87 1.78496 -1.46314 0
M  V30 11435 C 1086.84 1.63091 -0.314743 0
M  V30 11436 O 1088.03 1.83597 -0.519292 0
M  V30 11437 C 1085.17 3.16548 -1.37447 0
M  V30 11438 C 1084.28 3.43216 -2.62348 0
M  V30 11439 C 1083.42 4.71014 -2.456 0
M  V30 11440 C 1082.45 4.90728 -3.65859 0
M  V30 11441 N 1081.59 6.09769 -3.48032 0
M  V30 11442 H 1086.43 1.74638 -2.41466 0
M  V30 11443 H 1083.97 0.852491 -1.19879 0
M  V30 11444 H 1085.93 3.96329 -1.30303 0
M  V30 11445 H 1084.56 3.19522 -0.458891 0
M  V30 11446 H 1083.61 2.57664 -2.79846 0
M  V30 11447 H 1084.92 3.53675 -3.51732 0
M  V30 11448 H 1084.07 5.58892 -2.3606 0
M  V30 11449 H 1082.81 4.62843 -1.53712 0
M  V30 11450 H 1081.82 4.01291 -3.75827 0
M  V30 11451 H 1083.04 5.00741 -4.58732 0
M  V30 11452 H 1080.99 6.02765 -2.58864 0
M  V30 11453 H 1080.91 6.21104 -4.31005 0
M  V30 11454 H 1082.17 7.00317 -3.42311 0
M  V30 11455 N 1086.4 1.28806 0.908124 0
M  V30 11456 C 1087.33 1.15758 2.02787 0
M  V30 11457 C 1088.31 0.053911 1.70015 0
M  V30 11458 O 1089.5 0.231901 1.9281 0
M  V30 11459 C 1086.63 0.824526 3.37371 0
M  V30 11460 C 1085.58 1.88359 3.84324 0
M  V30 11461 C 1084.91 1.40404 5.15937 0
M  V30 11462 C 1086.21 3.29108 4.05568 0
M  V30 11463 H 1087.9 2.09431 2.13961 0
M  V30 11464 H 1085.45 1.00831 1.02806 0
M  V30 11465 H 1087.4 0.71999 4.15204 0
M  V30 11466 H 1086.13 -0.147902 3.26265 0
M  V30 11467 H 1084.79 1.97736 3.087 0
M  V30 11468 H 1084.43 0.420515 5.01239 0
M  V30 11469 H 1084.13 2.11224 5.48323 0
M  V30 11470 H 1085.66 1.31283 5.9632 0
M  V30 11471 H 1087.07 3.2262 4.73909 0
M  V30 11472 H 1085.47 3.97812 4.49294 0
M  V30 11473 H 1086.54 3.72709 3.10187 0
M  V30 11474 N 1087.88 -1.11734 1.11145 0
M  V30 11475 C 1088.81 -2.1976 0.789152 0
M  V30 11476 C 1089.79 -1.68382 -0.241143 0
M  V30 11477 O 1090.98 -1.93914 -0.105292 0
M  V30 11478 C 1088.11 -3.46549 0.228204 0
M  V30 11479 C 1087.06 -4.11123 1.19002 0
M  V30 11480 C 1086.39 -5.32451 0.489928 0
M  V30 11481 C 1087.69 -4.56406 2.53951 0
M  V30 11482 H 1089.38 -2.46978 1.69241 0
M  V30 11483 H 1086.93 -1.18705 0.81517 0
M  V30 11484 H 1088.88 -4.21399 -0.00945908 0
M  V30 11485 H 1087.6 -3.18782 -0.71033 0
M  V30 11486 H 1086.26 -3.38264 1.41326 0
M  V30 11487 H 1085.91 -5.00953 -0.453315 0
M  V30 11488 H 1085.61 -5.76605 1.1314 0
M  V30 11489 H 1087.14 -6.10042 0.260984 0
M  V30 11490 H 1088.55 -5.22592 2.35733 0
M  V30 11491 H 1086.95 -5.11363 3.14051 0
M  V30 11492 H 1088.02 -3.7001 3.13402 0
M  V30 11493 N 1089.36 -0.901303 -1.29284 0
M  V30 11494 C 1090.61 -0.528826 -1.95784 0
M  V30 11495 C 1090.94 0.922833 -1.70873 0
M  V30 11496 O 1090.21 1.65448 -1.0226 0
M  V30 11497 C 1090.5 -0.823793 -3.50551 0
M  V30 11498 C 1090.35 -2.32727 -3.84913 0
M  V30 11499 C 1091.67 -0.311382 -4.38997 0
M  V30 11500 H 1088.79 -0.193604 -0.711116 0
M  V30 11501 H 1091.43 -1.12828 -1.52872 0
M  V30 11502 H 1089.58 -0.313612 -3.87232 0
M  V30 11503 H 1091.25 -2.90712 -3.58168 0
M  V30 11504 H 1089.49 -2.78735 -3.32399 0
M  V30 11505 H 1090.17 -2.48423 -4.9294 0
M  V30 11506 H 1092.64 -0.748265 -4.09317 0
M  V30 11507 H 1091.52 -0.546957 -5.46168 0
M  V30 11508 H 1091.78 0.787959 -4.35021 0
M  V30 11509 N 1090.84 1.42931 -0.663954 0
M  V30 11510 C 1091.75 2.3459 0.0214234 0
M  V30 11511 C 1092.76 1.54487 0.800611 0
M  V30 11512 O 1093.94 1.87098 0.74541 0
M  V30 11513 C 1091 3.32896 0.968556 0
M  V30 11514 C 1090.07 4.28901 0.185108 0
M  V30 11515 C 1089.3 5.2251 1.08713 0
M  V30 11516 O 1089.52 5.20795 2.32655 0
M  V30 11517 O 1088.46 5.99347 0.553758 0
M  V30 11518 H 1092.28 2.94714 -0.733308 0
M  V30 11519 H 1089.87 1.43252 -0.424159 0
M  V30 11520 H 1091.75 3.93318 1.51257 0
M  V30 11521 H 1090.42 2.75261 1.70333 0
M  V30 11522 H 1089.33 3.71926 -0.402752 0
M  V30 11523 H 1090.66 4.89547 -0.510319 0
M  V30 11524 N 1092.32 0.406567 1.52266 0
M  V30 11525 C 1093.23 -0.4271 2.30679 0
M  V30 11526 C 1094.24 -1.0559 1.383 0
M  V30 11527 O 1095.42 -1.05797 1.71374 0
M  V30 11528 C 1092.48 -1.53008 3.1111 0
M  V30 11529 C 1091.54 -0.924604 4.19225 0
M  V30 11530 C 1090.78 -1.97502 4.95811 0
M  V30 11531 O 1091 -3.19277 4.72671 0
M  V30 11532 O 1089.93 -1.58268 5.80719 0
M  V30 11533 H 1093.76 0.212187 3.02958 0
M  V30 11534 H 1091.34 0.169835 1.48432 0
M  V30 11535 H 1093.23 -2.17046 3.61205 0
M  V30 11536 H 1091.9 -2.15401 2.41628 0
M  V30 11537 H 1090.81 -0.247009 3.73284 0
M  V30 11538 H 1092.14 -0.34463 4.90992 0
M  V30 11539 N 1093.79 -1.57004 0.136909 0
M  V30 11540 C 1094.74 -2.16246 -0.806607 0
M  V30 11541 C 1095.71 -1.09246 -1.25118 0
M  V30 11542 O 1096.9 -1.3724 -1.32551 0
M  V30 11543 C 1094.04 -2.78031 -2.04433 0
M  V30 11544 C 1093.15 -3.99393 -1.64649 0
M  V30 11545 C 1092.28 -4.49208 -2.83524 0
M  V30 11546 C 1091.32 -5.63059 -2.40064 0
M  V30 11547 N 1090.46 -6.07537 -3.51913 0
M  V30 11548 H 1095.3 -2.9654 -0.294596 0
M  V30 11549 H 1092.84 -1.46491 -0.133705 0
M  V30 11550 H 1094.8 -3.11992 -2.76978 0
M  V30 11551 H 1093.43 -2.00398 -2.53062 0
M  V30 11552 H 1092.48 -3.71477 -0.819077 0
M  V30 11553 H 1093.79 -4.81904 -1.28723 0
M  V30 11554 H 1092.94 -4.85171 -3.64271 0
M  V30 11555 H 1091.68 -3.65683 -3.22688 0
M  V30 11556 H 1090.69 -5.26682 -1.57754 0
M  V30 11557 H 1091.91 -6.48362 -2.01997 0
M  V30 11558 H 1089.86 -5.2695 -3.90717 0
M  V30 11559 H 1089.78 -6.84949 -3.1997 0
M  V30 11560 H 1091.04 -6.48143 -4.33048 0
M  V30 11561 N 1095.27 0.136881 -1.57004 0
M  V30 11562 C 1096.24 1.15267 -1.98106 0
M  V30 11563 C 1097.24 1.35305 -0.868856 0
M  V30 11564 O 1098.43 1.32126 -1.13527 0
M  V30 11565 C 1095.56 2.51092 -2.30577 0
M  V30 11566 H 1096.75 0.799821 -2.89038 0
M  V30 11567 H 1094.3 0.380576 -1.51596 0
M  V30 11568 H 1095.04 2.9133 -1.42469 0
M  V30 11569 H 1094.82 2.37906 -3.11678 0
M  V30 11570 H 1096.31 3.24232 -2.63179 0
M  V30 11571 N 1096.75 1.52266 0.40654 0
M  V30 11572 C 1098.03 1.57018 1.1664 0
M  V30 11573 C 1098.41 0.352752 2.08132 0
M  V30 11574 O 1097.76 -0.660208 2.18754 0
M  V30 11575 C 1097.97 2.90016 1.94143 0
M  V30 11576 C 1099.31 3.43112 2.50119 0
M  V30 11577 O 1100.34 2.91773 2.0432 0
M  V30 11578 O 1099.2 4.32765 3.33731 0
M  V30 11579 H 1096.29 0.632574 0.532709 0
M  V30 11580 H 1098.84 1.64595 0.413111 0
M  V30 11581 H 1097.61 3.70071 1.27134 0
M  V30 11582 H 1097.23 2.85744 2.76471 0
M  V30 11583 N 1098.23 -0.663929 1.42933 0
M  V30 11584 C 1099.47 -1.42603 1.44195 0
M  V30 11585 C 1099.81 -1.94101 0.0620284 0
M  V30 11586 O 1099.08 -1.71609 -0.91546 0
M  V30 11587 C 1099.37 -2.61522 2.47544 0
M  V30 11588 C 1099.22 -2.15587 3.94769 0
M  V30 11589 C 1100.54 -3.6374 2.47753 0
M  V30 11590 H 1097.66 -0.517189 0.525056 0
M  V30 11591 H 1100.3 -0.75361 1.74415 0
M  V30 11592 H 1098.45 -3.1889 2.21904 0
M  V30 11593 H 1100.12 -1.63303 4.31428 0
M  V30 11594 H 1098.36 -1.47057 4.08114 0
M  V30 11595 H 1099.03 -3.01053 4.62678 0
M  V30 11596 H 1101.51 -3.16111 2.70579 0
M  V30 11597 H 1100.39 -4.44512 3.22025 0
M  V30 11598 H 1100.65 -4.15607 1.50742 0
M  V30 11599 N 1099.71 -1.29285 -0.901281 0
M  V30 11600 C 1100.64 -1.16832 -2.0217 0
M  V30 11601 C 1101.62 -0.0629265 -1.69984 0
M  V30 11602 O 1102.8 -0.242123 -1.92685 0
M  V30 11603 C 1099.93 -0.842406 -3.36929 0
M  V30 11604 C 1098.89 -1.90394 -3.8332 0
M  V30 11605 C 1098.21 -1.43138 -5.15185 0
M  V30 11606 C 1099.51 -3.31254 -4.03817 0
M  V30 11607 H 1101.21 -2.10562 -2.12847 0
M  V30 11608 H 1098.75 -1.01375 -1.0227 0
M  V30 11609 H 1100.71 -0.741999 -4.14816 0
M  V30 11610 H 1099.43 0.130598 -3.26339 0
M  V30 11611 H 1098.09 -1.99371 -3.07647 0
M  V30 11612 H 1097.74 -0.447091 -5.01009 0
M  V30 11613 H 1097.44 -2.14129 -5.47195 0
M  V30 11614 H 1098.96 -1.34444 -5.95615 0
M  V30 11615 H 1100.37 -3.25129 -4.72191 0
M  V30 11616 H 1098.77 -4.00189 -4.47178 0
M  V30 11617 H 1099.84 -3.74349 -3.08206 0
M  V30 11618 N 1101.18 1.11143 -1.11736 0
M  V30 11619 C 1102.15 2.15456 -0.78174 0
M  V30 11620 C 1103.15 1.59547 0.200383 0
M  V30 11621 O 1104.34 1.74183 -0.0244893 0
M  V30 11622 C 1101.47 3.40523 -0.160364 0
M  V30 11623 H 1102.66 2.46658 -1.70586 0
M  V30 11624 H 1100.22 1.26381 -0.919644 0
M  V30 11625 H 1100.95 3.14932 0.773835 0
M  V30 11626 H 1100.74 3.82386 -0.867378 0
M  V30 11627 H 1102.23 4.17559 0.0582175 0
M  V30 11628 N 1102.66 0.908147 1.28804 0
M  V30 11629 C 1104.08 0.605474 1.47669 0
M  V30 11630 C 1104.28 -0.850759 1.82659 0
M  V30 11631 O 1103.33 -1.63029 1.92816 0
M  V30 11632 C 1104.65 1.53856 2.58358 0
M  V30 11633 C 1106.2 1.54467 2.7223 0
M  V30 11634 C 1106.67 2.46424 3.86056 0
M  V30 11635 N 1108.16 2.44519 3.93402 0
M  V30 11636 C 1108.9 3.12371 4.80845 0
M  V30 11637 N 1108.39 3.89533 5.72919 0
M  V30 11638 N 1110.19 3.01486 4.74407 0
M  V30 11639 H 1102.34 1.84988 1.04371 0
M  V30 11640 H 1104.6 0.793132 0.519274 0
M  V30 11641 H 1104.31 2.57651 2.39393 0
M  V30 11642 H 1104.18 1.26543 3.5534 0
M  V30 11643 H 1106.57 0.514127 2.90587 0
M  V30 11644 H 1106.65 1.85821 1.75796 0
M  V30 11645 H 1106.29 3.49577 3.68454 0
M  V30 11646 H 1106.22 2.12375 4.81876 0
M  V30 11647 H 1108.71 1.88464 3.27551 0
M  V30 11648 H 1109.03 4.3834 6.36457 0
M  V30 11649 H 1107.37 3.93639 5.72777 0
M  V30 11650 H 1110.56 2.40713 4.01466 0
M  V30 11651 H 1110.73 3.5464 5.42342 0
M  V30 11652 N 1104.14 -1.42577 0.671525 0
M  V30 11653 C 1105.39 -2.01185 0.192051 0
M  V30 11654 C 1105.71 -1.53349 -1.20454 0
M  V30 11655 O 1104.98 -0.753781 -1.80817 0
M  V30 11656 H 1103.56 -0.743898 0.0680106 0
M  V30 11657 H 1106.22 -1.74539 0.8673 0
M  V30 11658 H 1105.32 -3.11516 0.190796 0
M  V30 11659 N 1105.62 -0.414636 -1.52048 0
M  V30 11660 C 1107.03 0.0537107 -1.86623 0
M  V30 11661 C 1107.38 1.43955 -1.3331 0
M  V30 11662 O 1106.51 2.05616 -0.674606 0
M  V30 11663 C 1107.1 0.104241 -3.3864 0
M  V30 11664 C 1105.66 0.516936 -3.72833 0
M  V30 11665 C 1104.81 -0.305042 -2.75617 0
M  V30 11666 H 1107.76 -0.631469 -1.45596 0
M  V30 11667 H 1107.78 0.918395 -3.6925 0
M  V30 11668 H 1107.29 -0.904523 -3.77412 0
M  V30 11669 H 1105.39 1.53214 -3.39641 0
M  V30 11670 H 1105.5 0.2575 -4.78408 0
M  V30 11671 H 1103.87 0.233416 -2.53628 0
M  V30 11672 H 1104.65 -1.31226 -3.1723 0
M  V30 11673 N 1107.1 1.56929 -0.145233 0
M  V30 11674 C 1108.03 2.19685 0.791263 0
M  V30 11675 C 1109.01 1.14455 1.25833 0
M  V30 11676 O 1110.19 1.42791 1.31622 0
M  V30 11677 C 1107.32 2.81705 2.03124 0
M  V30 11678 C 1106.28 3.92746 1.70101 0
M  V30 11679 C 1105.6 4.41694 3.01347 0
M  V30 11680 C 1106.9 5.13606 0.949025 0
M  V30 11681 H 1108.6 2.98196 0.26825 0
M  V30 11682 H 1106.14 1.43434 0.127584 0
M  V30 11683 H 1108.1 3.24273 2.69119 0
M  V30 11684 H 1106.82 2.00523 2.57795 0
M  V30 11685 H 1105.48 3.50794 1.06486 0
M  V30 11686 H 1105.13 3.57336 3.54006 0
M  V30 11687 H 1104.83 5.1659 2.80016 0
M  V30 11688 H 1106.35 4.86931 3.68416 0
M  V30 11689 H 1107.76 5.53029 1.51102 0
M  V30 11690 H 1106.16 5.94252 0.835711 0
M  V30 11691 H 1107.23 4.84863 -0.0595631 0
M  V30 11692 N 1108.58 -0.128553 1.57075 0
M  V30 11693 C 1109.52 -1.17719 2.00611 0
M  V30 11694 C 1110.52 -1.43423 0.90146 0
M  V30 11695 O 1111.72 -1.43498 1.08666 0
M  V30 11696 H 1108.1 -0.396683 0.638864 0
M  V30 11697 H 1110.07 -0.783437 2.87932 0
M  V30 11698 C 1108.82 -2.49826 2.41831 0
M  V30 11699 H 1108.14 -2.30883 3.26394 0
M  V30 11700 H 1109.58 -3.21784 2.761 0
M  V30 11701 C 1108.04 -3.11712 1.27816 0
M  V30 11702 O 1108.57 -3.9736 0.588917 0
M  V30 11703 N 1106.78 -2.71442 1.03767 0
M  V30 11704 H 1106.32 -2.01891 1.59994 0
M  V30 11705 H 1106.28 -3.1318 0.276743 0
M  V30 11706 N 1110.05 -1.5248 -0.398459 0
M  V30 11707 C 1110.99 -1.72826 -1.50545 0
M  V30 11708 C 1112 -0.608683 -1.50993 0
M  V30 11709 O 1113.19 -0.88413 -1.55066 0
M  V30 11710 C 1110.29 -1.76327 -2.89417 0
M  V30 11711 C 1109.46 -3.05491 -3.1304 0
M  V30 11712 C 1108.52 -3.00663 -4.31843 0
M  V30 11713 O 1107.55 -3.74548 -4.28605 0
M  V30 11714 N 1108.75 -2.19191 -5.37527 0
M  V30 11715 H 1111.51 -2.68333 -1.33482 0
M  V30 11716 H 1109.07 -1.5085 -0.587875 0
M  V30 11717 H 1111.07 -1.70616 -3.66977 0
M  V30 11718 H 1109.64 -0.882476 -2.99885 0
M  V30 11719 H 1108.86 -3.24767 -2.23428 0
M  V30 11720 H 1110.14 -3.90915 -3.25673 0
M  V30 11721 H 1109.54 -1.58613 -5.43009 0
M  V30 11722 H 1108.1 -2.19328 -6.1379 0
M  V30 11723 N 1111.53 0.65634 -1.43283 0
M  V30 11724 C 1112.76 1.44408 -1.48168 0
M  V30 11725 C 1113.17 1.88542 -0.0986016 0
M  V30 11726 O 1112.53 1.59298 0.890527 0
M  V30 11727 C 1112.58 2.68111 -2.42484 0
M  V30 11728 O 1112.3 2.25824 -3.75413 0
M  V30 11729 C 1113.8 3.61499 -2.56579 0
M  V30 11730 H 1111.02 0.443731 -0.503333 0
M  V30 11731 H 1113.57 0.804917 -1.87993 0
M  V30 11732 H 1111.72 3.28175 -2.05863 0
M  V30 11733 H 1112.14 3.05839 -4.26102 0
M  V30 11734 H 1113.61 4.44972 -3.26655 0
M  V30 11735 H 1114.09 4.08639 -1.60969 0
M  V30 11736 H 1114.69 3.07319 -2.93998 0
M  V30 11737 N 1113.01 1.29761 0.894412 0
M  V30 11738 C 1113.97 1.15335 1.98067 0
M  V30 11739 C 1114.97 0.0872804 1.60563 0
M  V30 11740 O 1116.16 0.334645 1.70955 0
M  V30 11741 C 1113.29 0.764907 3.32208 0
M  V30 11742 H 1114.49 2.11829 2.12293 0
M  V30 11743 H 1112.04 1.13023 1.0796 0
M  V30 11744 H 1112.78 -0.199948 3.23683 0
M  V30 11745 H 1112.56 1.53523 3.60795 0
M  V30 11746 H 1114.05 0.687176 4.11907 0
M  V30 11747 N 1114.49 -1.10549 1.12324 0
M  V30 11748 C 1115.42 -2.18911 0.812416 0
M  V30 11749 C 1116.4 -1.68628 -0.22327 0
M  V30 11750 O 1117.58 -1.94015 -0.0847184 0
M  V30 11751 C 1114.71 -3.46288 0.264947 0
M  V30 11752 C 1113.67 -4.09838 1.23356 0
M  V30 11753 C 1112.99 -5.31901 0.546374 0
M  V30 11754 C 1114.29 -4.53686 2.58778 0
M  V30 11755 H 1115.99 -2.45169 1.71851 0
M  V30 11756 H 1113.53 -1.17834 0.827715 0
M  V30 11757 H 1115.49 -4.21385 0.0352364 0
M  V30 11758 H 1114.21 -3.19517 -0.676479 0
M  V30 11759 H 1112.87 -3.36746 1.44906 0
M  V30 11760 H 1112.52 -5.01406 -0.400157 0
M  V30 11761 H 1112.22 -5.75372 1.19249 0
M  V30 11762 H 1113.74 -6.09731 0.325673 0
M  V30 11763 H 1115.16 -5.20063 2.41263 0
M  V30 11764 H 1113.55 -5.08003 3.19457 0
M  V30 11765 H 1114.62 -3.66665 3.17309 0
M  V30 11766 N 1115.97 -0.914965 -1.28321 0
M  V30 11767 C 1116.92 -0.375436 -2.24888 0
M  V30 11768 C 1117.9 0.51313 -1.52498 0
M  V30 11769 O 1119.09 0.352654 -1.73451 0
M  V30 11770 C 1116.22 0.382266 -3.41165 0
M  V30 11771 C 1115.31 -0.522089 -4.20874 0
M  V30 11772 N 1115.7 -1.63623 -4.78603 0
M  V30 11773 C 1114 -0.322703 -4.44831 0
M  V30 11774 C 1114.7 -2.19766 -5.38589 0
M  V30 11775 N 1113.67 -1.48878 -5.22816 0
M  V30 11776 H 1117.47 -1.2263 -2.67094 0
M  V30 11777 H 1114.99 -0.767759 -1.43106 0
M  V30 11778 H 1116.99 0.785641 -4.0943 0
M  V30 11779 H 1115.65 1.23021 -3.00493 0
M  V30 11780 H 1116.66 -2.01879 -4.76933 0
M  V30 11781 H 1113.33 0.485627 -4.14666 0
M  V30 11782 H 1114.72 -3.13494 -5.94282 0
M  V30 11783 N 1117.44 1.42219 -0.679077 0
M  V30 11784 C 1118.37 2.33493 -0.0174528 0
M  V30 11785 C 1119.35 1.50915 0.78477 0
M  V30 11786 O 1120.54 1.79504 0.741065 0
M  V30 11787 C 1117.67 3.34576 0.931463 0
M  V30 11788 C 1116.62 4.2734 0.237527 0
M  V30 11789 C 1115.95 5.18664 1.29967 0
M  V30 11790 C 1117.25 5.14729 -0.886082 0
M  V30 11791 H 1118.94 2.89068 -0.779748 0
M  V30 11792 H 1116.49 1.38993 -0.376419 0
M  V30 11793 H 1118.44 3.97343 1.40343 0
M  V30 11794 H 1117.17 2.77315 1.72523 0
M  V30 11795 H 1115.83 3.65973 -0.214245 0
M  V30 11796 H 1115.47 4.57727 2.08554 0
M  V30 11797 H 1115.17 5.81558 0.840463 0
M  V30 11798 H 1116.7 5.84308 1.77249 0
M  V30 11799 H 1118.11 5.71158 -0.495141 0
M  V30 11800 H 1116.51 5.86478 -1.27135 0
M  V30 11801 H 1117.58 4.52874 -1.733 0
M  V30 11802 N 1118.92 0.422693 1.51826 0
M  V30 11803 C 1119.88 -0.384307 2.25955 0
M  V30 11804 C 1120.88 -0.962184 1.28836 0
M  V30 11805 O 1122.07 -0.838931 1.52668 0
M  V30 11806 C 1119.21 -1.54228 3.04018 0
M  V30 11807 H 1120.4 0.265157 2.98726 0
M  V30 11808 H 1117.95 0.175515 1.55311 0
M  V30 11809 H 1118.69 -2.22822 2.35629 0
M  V30 11810 H 1118.47 -1.13425 3.75336 0
M  V30 11811 H 1119.96 -2.1128 3.60209 0
M  V30 11812 N 1120.4 -1.5685 0.153553 0
M  V30 11813 C 1121.36 -2.15894 -0.769564 0
M  V30 11814 C 1122.36 -1.10239 -1.17064 0
M  V30 11815 O 1123.55 -1.35845 -1.09049 0
M  V30 11816 C 1120.68 -2.72738 -2.04516 0
M  V30 11817 H 1121.88 -2.98807 -0.255842 0
M  V30 11818 H 1119.43 -1.56005 -0.0959279 0
M  V30 11819 H 1120.17 -1.9351 -2.60239 0
M  V30 11820 H 1119.95 -3.50042 -1.76672 0
M  V30 11821 H 1121.44 -3.18208 -2.70432 0
M  V30 11822 N 1121.88 0.120221 -1.57141 0
M  V30 11823 C 1122.84 1.13159 -1.99318 0
M  V30 11824 C 1123.84 1.34376 -0.883158 0
M  V30 11825 O 1125.03 1.30914 -1.14922 0
M  V30 11826 C 1122.16 2.48632 -2.33227 0
M  V30 11827 H 1123.36 0.769119 -2.8987 0
M  V30 11828 H 1120.91 0.364475 -1.51991 0
M  V30 11829 H 1121.64 2.89802 -1.45551 0
M  V30 11830 H 1121.43 2.34587 -3.14184 0
M  V30 11831 H 1122.92 3.21423 -2.66603 0
M  V30 11832 N 1123.36 1.52689 0.390367 0
M  V30 11833 C 1124.31 1.73751 1.4763 0
M  V30 11834 C 1125.29 0.591572 1.4963 0
M  V30 11835 O 1126.48 0.849354 1.5529 0
M  V30 11836 C 1123.61 1.90855 2.85358 0
M  V30 11837 C 1122.7 3.11377 2.87933 0
M  V30 11838 N 1123.09 4.33751 2.6018 0
M  V30 11839 C 1121.39 3.11594 3.19101 0
M  V30 11840 C 1122.09 5.15346 2.69803 0
M  V30 11841 N 1121.06 4.51002 3.03476 0
M  V30 11842 H 1124.87 2.65994 1.24997 0
M  V30 11843 H 1122.38 1.50977 0.598301 0
M  V30 11844 H 1124.38 2.04065 3.63542 0
M  V30 11845 H 1123.04 0.998241 3.08974 0
M  V30 11846 H 1124.05 4.61907 2.34227 0
M  V30 11847 H 1120.72 2.30368 3.48191 0
M  V30 11848 H 1122.11 6.22892 2.51902 0
M  V30 11849 N 1124.83 -0.648732 1.43629 0
M  V30 11850 C 1126.08 -1.40579 1.45196 0
M  V30 11851 C 1126.4 -1.9484 0.0790556 0
M  V30 11852 O 1125.67 -1.74707 -0.886239 0
M  V30 11853 H 1124.25 -0.52175 0.53459 0
M  V30 11854 H 1126.92 -0.764796 1.79268 0
M  V30 11855 H 1126.01 -2.24591 2.16715 0
M  V30 11856 N 1126.31 -1.30234 -0.887518 0
M  V30 11857 C 1127.26 -1.13013 -1.9802 0
M  V30 11858 C 1128.25 -0.0460253 -1.60834 0
M  V30 11859 O 1129.44 -0.26907 -1.74943 0
M  V30 11860 C 1126.57 -0.821397 -3.33329 0
M  V30 11861 C 1125.65 -1.94564 -3.76837 0
M  V30 11862 N 1126.04 -3.19068 -3.92465 0
M  V30 11863 C 1124.34 -1.84142 -4.06211 0
M  V30 11864 C 1125.04 -3.92495 -4.29328 0
M  V30 11865 N 1124.02 -3.20526 -4.39049 0
M  V30 11866 H 1127.82 -2.07446 -2.0819 0
M  V30 11867 H 1125.34 -1.21536 -1.07716 0
M  V30 11868 H 1127.33 -0.679046 -4.11333 0
M  V30 11869 H 1125.99 0.114891 -3.24497 0
M  V30 11870 H 1127 -3.54386 -3.77665 0
M  V30 11871 H 1123.68 -0.97865 -4.05868 0
M  V30 11872 H 1125.07 -4.99701 -4.49164 0
M  V30 11873 N 1127.79 1.09952 -1.12909 0
M  V30 11874 C 1129.02 1.8633 -0.910821 0
M  V30 11875 C 1129.44 1.80335 0.534874 0
M  V30 11876 O 1128.8 1.1769 1.37908 0
M  V30 11877 C 1128.85 3.32462 -1.39648 0
M  V30 11878 O 1127.95 4.08327 -0.578192 0
M  V30 11879 H 1127.29 0.577984 -0.32685 0
M  V30 11880 H 1129.82 1.38883 -1.50242 0
M  V30 11881 H 1129.83 3.83311 -1.39774 0
M  V30 11882 H 1128.51 3.36141 -2.44913 0
M  V30 11883 H 1127.08 3.67291 -0.644347 0
M  V30 11884 N 1129.27 0.921757 1.27833 0
M  V30 11885 C 1130.18 0.421668 2.30779 0
M  V30 11886 C 1131.19 -0.494686 1.6682 0
M  V30 11887 O 1132.37 -0.378935 1.97803 0
M  V30 11888 C 1129.44 -0.322928 3.45193 0
M  V30 11889 C 1128.5 0.627618 4.24687 0
M  V30 11890 C 1127.73 -0.0815385 5.33638 0
M  V30 11891 O 1127.95 -1.30193 5.55343 0
M  V30 11892 O 1126.89 0.58725 5.99028 0
M  V30 11893 H 1130.71 1.2763 2.7558 0
M  V30 11894 H 1128.3 0.686877 1.32674 0
M  V30 11895 H 1130.18 -0.743145 4.14796 0
M  V30 11896 H 1128.85 -1.15326 3.02459 0
M  V30 11897 H 1127.76 1.09739 3.57642 0
M  V30 11898 H 1129.09 1.425 4.71121 0
M  V30 11899 N 1130.75 -1.41857 0.686609 0
M  V30 11900 C 1131.99 -2.01666 0.214118 0
M  V30 11901 C 1132.33 -1.5422 -1.18025 0
M  V30 11902 O 1131.6 -0.749482 -1.7948 0
M  V30 11903 C 1131.88 -3.59147 0.261841 0
M  V30 11904 C 1131.74 -4.16742 1.69251 0
M  V30 11905 C 1133.06 -4.38427 -0.383378 0
M  V30 11906 H 1130.17 -0.732724 0.0792785 0
M  V30 11907 H 1132.82 -1.68724 0.873633 0
M  V30 11908 H 1130.97 -3.87342 -0.29971 0
M  V30 11909 H 1132.64 -3.99456 2.30722 0
M  V30 11910 H 1130.88 -3.72124 2.2295 0
M  V30 11911 H 1131.55 -5.25894 1.6775 0
M  V30 11912 H 1134.03 -4.15992 0.0947701 0
M  V30 11913 H 1132.9 -5.4797 -0.319401 0
M  V30 11914 H 1133.17 -4.172 -1.46276 0
M  V30 11915 N 1132.22 -0.430739 -1.51599 0
M  V30 11916 C 1133.47 0.138133 -2.02329 0
M  V30 11917 C 1133.8 1.42934 -1.31466 0
M  V30 11918 O 1133.08 1.89743 -0.427551 0
M  V30 11919 C 1133.36 0.363677 -3.58259 0
M  V30 11920 C 1133.21 -0.94572 -4.39746 0
M  V30 11921 C 1134.53 1.13637 -4.25176 0
M  V30 11922 H 1131.65 0.0487287 -0.735387 0
M  V30 11923 H 1134.29 -0.568444 -1.81297 0
M  V30 11924 H 1132.44 0.965552 -3.7631 0
M  V30 11925 H 1134.12 -1.58107 -4.33359 0
M  V30 11926 H 1132.36 -1.55183 -4.05094 0
M  V30 11927 H 1133.03 -0.742031 -5.4699 0
M  V30 11928 H 1135.51 0.626608 -4.11355 0
M  V30 11929 H 1134.38 1.26294 -5.34173 0
M  V30 11930 H 1134.64 2.16273 -3.85588 0
M  V30 11931 N 1133.7 1.56767 -0.161869 0
M  V30 11932 C 1134.61 2.21083 0.784814 0
M  V30 11933 C 1135.63 1.19959 1.26039 0
M  V30 11934 O 1136.8 1.52588 1.31449 0
M  V30 11935 C 1133.87 2.83153 2.00063 0
M  V30 11936 C 1132.93 3.9945 1.57285 0
M  V30 11937 C 1132.16 4.5855 2.7307 0
M  V30 11938 O 1132.39 4.16534 3.89686 0
M  V30 11939 O 1131.32 5.48575 2.47688 0
M  V30 11940 H 1135.15 3.02522 0.267243 0
M  V30 11941 H 1132.73 1.49255 0.0658783 0
M  V30 11942 H 1134.61 3.22546 2.71186 0
M  V30 11943 H 1133.29 2.04718 2.50744 0
M  V30 11944 H 1132.2 3.64745 0.831393 0
M  V30 11945 H 1133.53 4.7945 1.11304 0
M  V30 11946 N 1135.18 -0.111886 1.57202 0
M  V30 11947 C 1136.09 -1.1556 2.04165 0
M  V30 11948 C 1137.11 -1.44898 0.963354 0
M  V30 11949 O 1138.28 -1.55873 1.27536 0
M  V30 11950 C 1135.35 -2.46048 2.44256 0
M  V30 11951 C 1134.41 -2.24043 3.66201 0
M  V30 11952 C 1133.64 -3.4831 4.04371 0
M  V30 11953 O 1133.86 -4.55895 3.42806 0
M  V30 11954 O 1132.8 -3.38891 4.9743 0
M  V30 11955 H 1136.62 -0.786778 2.93332 0
M  V30 11956 H 1134.21 -0.323196 1.45862 0
M  V30 11957 H 1136.09 -3.22916 2.70745 0
M  V30 11958 H 1134.77 -2.8239 1.58233 0
M  V30 11959 H 1133.67 -1.4501 3.44852 0
M  V30 11960 H 1135.01 -1.92602 4.52952 0
M  V30 11961 N 1136.66 -1.52894 -0.382264 0
M  V30 11962 C 1137.59 -1.81122 -1.47367 0
M  V30 11963 C 1138.57 -0.663653 -1.56619 0
M  V30 11964 O 1139.75 -0.911898 -1.71459 0
M  V30 11965 C 1136.88 -1.98615 -2.84902 0
M  V30 11966 C 1135.84 -3.14328 -2.90485 0
M  V30 11967 C 1135.16 -3.17086 -4.30535 0
M  V30 11968 C 1136.46 -4.53263 -2.59519 0
M  V30 11969 H 1138.16 -2.72518 -1.23993 0
M  V30 11970 H 1135.7 -1.3113 -0.595049 0
M  V30 11971 H 1137.66 -2.16946 -3.61265 0
M  V30 11972 H 1136.38 -1.03915 -3.09628 0
M  V30 11973 H 1135.04 -2.95791 -2.16572 0
M  V30 11974 H 1134.69 -2.20055 -4.52311 0
M  V30 11975 H 1134.39 -3.94821 -4.3519 0
M  V30 11976 H 1135.91 -3.3758 -5.08795 0
M  V30 11977 H 1137.33 -4.71867 -3.25598 0
M  V30 11978 H 1135.72 -5.33115 -2.75514 0
M  V30 11979 H 1136.79 -4.59516 -1.54831 0
M  V30 11980 N 1138.14 0.641106 -1.43971 0
M  V30 11981 C 1139.38 1.40291 -1.46445 0
M  V30 11982 C 1139.72 1.93978 -0.0929004 0
M  V30 11983 O 1138.99 1.73043 0.888043 0
M  V30 11984 C 1139.27 2.57551 -2.51673 0
M  V30 11985 C 1139.13 2.09279 -3.98149 0
M  V30 11986 C 1140.45 3.59752 -2.53508 0
M  V30 11987 H 1137.57 0.508771 -0.533218 0
M  V30 11988 H 1140.21 0.725767 -1.75592 0
M  V30 11989 H 1138.36 3.15319 -2.2695 0
M  V30 11990 H 1140.03 1.56418 -4.33971 0
M  V30 11991 H 1138.27 1.40545 -4.10402 0
M  V30 11992 H 1138.94 2.93655 -4.67409 0
M  V30 11993 H 1141.42 3.11766 -2.75574 0
M  V30 11994 H 1140.3 4.39332 -3.29057 0
M  V30 11995 H 1140.56 4.13156 -1.57335 0
M  V30 11996 N 1139.62 1.30703 0.880598 0
M  V30 11997 C 1140.84 1.22843 1.67106 0
M  V30 11998 C 1141.27 -0.204788 1.86982 0
M  V30 11999 O 1140.62 -1.14716 1.40392 0
M  V30 12000 C 1140.67 1.96685 3.02237 0
M  V30 12001 O 1139.78 1.29693 3.91476 0
M  V30 12002 H 1139.12 0.424661 0.51045 0
M  V30 12003 H 1141.65 1.72596 1.09871 0
M  V30 12004 H 1141.66 2.05874 3.52249 0
M  V30 12005 H 1140.33 3.00919 2.8709 0
M  V30 12006 H 1138.91 1.28886 3.49918 0
M  V30 12007 N 1141.09 -1.09351 1.1349 0
M  V30 12008 C 1142.06 -2.14185 0.815919 0
M  V30 12009 C 1143.06 -1.59845 -0.174976 0
M  V30 12010 O 1144.25 -1.74122 0.0521971 0
M  V30 12011 C 1141.38 -3.40224 0.214517 0
M  V30 12012 H 1142.57 -2.43913 1.74489 0
M  V30 12013 H 1140.12 -1.24902 0.939634 0
M  V30 12014 H 1140.86 -3.16123 -0.723634 0
M  V30 12015 H 1140.64 -3.80958 0.928102 0
M  V30 12016 H 1142.13 -4.17599 0.00821999 0
M  V30 12017 N 1142.57 -0.928524 -1.27343 0
M  V30 12018 C 1143.85 -0.487758 -1.89421 0
M  V30 12019 C 1144.23 1.03418 -1.84032 0
M  V30 12020 O 1143.58 1.8887 -1.2861 0
M  V30 12021 C 1143.79 -1.03478 -3.33307 0
M  V30 12022 C 1145.13 -1.09577 -4.10217 0
M  V30 12023 O 1146.16 -0.984463 -3.42326 0
M  V30 12024 O 1145.02 -1.2673 -5.31603 0
M  V30 12025 H 1142.11 -0.157018 -0.811957 0
M  V30 12026 H 1144.66 -1.02027 -1.35605 0
M  V30 12027 H 1143.43 -2.07861 -3.31526 0
M  V30 12028 H 1143.05 -0.483967 -3.94644 0
M  V30 12029 N 1144.05 1.41491 -0.694123 0
M  V30 12030 C 1145.3 2.0155 -0.224809 0
M  V30 12031 C 1145.63 1.54844 1.17205 0
M  V30 12032 O 1144.9 0.75899 1.7908 0
M  V30 12033 C 1145.19 3.59003 -0.280884 0
M  V30 12034 C 1145.04 4.15839 -1.71458 0
M  V30 12035 C 1146.36 4.38624 0.360122 0
M  V30 12036 H 1143.48 0.732293 -0.0831632 0
M  V30 12037 H 1146.12 1.68258 -0.882569 0
M  V30 12038 H 1144.27 3.87496 0.279164 0
M  V30 12039 H 1145.94 3.98227 -2.32837 0
M  V30 12040 H 1144.18 3.70936 -2.2492 0
M  V30 12041 H 1144.86 5.24997 -1.70536 0
M  V30 12042 H 1147.33 4.15936 -0.11683 0
M  V30 12043 H 1146.21 5.48132 0.290337 0
M  V30 12044 H 1146.47 4.1797 1.44062 0
M  V30 12045 N 1145.53 0.438773 1.51369 0
M  V30 12046 C 1146.78 -0.128723 2.01289 0
M  V30 12047 C 1147.09 -1.43659 1.32745 0
M  V30 12048 O 1148.3 -2.08712 1.73642 0
M  V30 12049 C 1146.75 -0.279945 3.5881 0
M  V30 12050 C 1146.36 1.01758 4.3629 0
M  V30 12051 C 1148.1 -0.801133 4.16872 0
M  V30 12052 C 1146.01 0.831918 5.85519 0
M  V30 12053 H 1144.94 -0.0518814 0.752213 0
M  V30 12054 H 1147.59 0.568753 1.74463 0
M  V30 12055 H 1145.97 -1.04046 3.82087 0
M  V30 12056 H 1147.15 1.78653 4.24758 0
M  V30 12057 H 1145.46 1.46741 3.89687 0
M  V30 12058 H 1148.06 -0.956548 5.26074 0
M  V30 12059 H 1148.4 -1.78396 3.76139 0
M  V30 12060 H 1148.94 -0.0988934 3.97677 0
M  V30 12061 H 1145.67 1.78716 6.30667 0
M  V30 12062 H 1145.19 0.102785 5.99712 0
M  V30 12063 H 1146.87 0.485681 6.45174 0
M  V30 12064 N 1147.01 -1.56678 0.170181 0
M  V30 12065 C 1148.28 -1.88524 -0.521362 0
M  V30 12066 C 1148.66 -1.07989 -1.81388 0
M  V30 12067 O 1148.01 -0.17347 -2.27841 0
M  V30 12068 C 1148.22 -3.40527 -0.764367 0
M  V30 12069 C 1149.57 -4.10241 -1.09487 0
M  V30 12070 O 1150.59 -3.45837 -0.852945 0
M  V30 12071 O 1149.45 -5.24022 -1.55124 0
M  V30 12072 H 1146.55 -0.782161 -0.268614 0
M  V30 12073 H 1149.09 -1.68414 0.208531 0
M  V30 12074 H 1147.86 -3.91015 0.149416 0
M  V30 12075 H 1147.49 -3.66244 -1.54762 0
M  V30 12076 N 1148.48 0.103547 -1.57259 0
M  V30 12077 C 1149.41 1.12714 -2.04494 0
M  V30 12078 C 1150.39 1.42278 -0.932255 0
M  V30 12079 O 1151.58 1.52453 -1.20298 0
M  V30 12080 C 1148.71 2.44927 -2.46228 0
M  V30 12081 C 1147.66 2.2979 -3.61082 0
M  V30 12082 C 1146.99 3.67105 -3.88765 0
M  V30 12083 C 1148.29 1.7455 -4.9227 0
M  V30 12084 H 1149.98 0.734198 -2.90258 0
M  V30 12085 H 1147.53 0.351725 -1.39638 0
M  V30 12086 H 1149.48 3.16798 -2.77879 0
M  V30 12087 H 1148.21 2.8614 -1.57453 0
M  V30 12088 H 1146.87 1.60366 -3.29664 0
M  V30 12089 H 1146.51 4.05831 -2.97171 0
M  V30 12090 H 1146.21 3.57825 -4.66084 0
M  V30 12091 H 1147.74 4.40456 -4.22884 0
M  V30 12092 H 1149.15 2.36253 -5.22358 0
M  V30 12093 H 1147.55 1.76051 -5.73695 0
M  V30 12094 H 1148.62 0.704242 -4.79759 0
M  V30 12095 N 1149.96 1.53094 0.37415 0
M  V30 12096 C 1151.21 1.68861 1.11769 0
M  V30 12097 C 1151.54 0.436032 1.89549 0
M  V30 12098 O 1150.79 -0.581879 1.86849 0
M  V30 12099 C 1151.09 2.88432 2.11049 0
M  V30 12100 C 1150.76 4.25284 1.49814 0
M  V30 12101 C 1149.42 4.62501 1.32841 0
M  V30 12102 C 1151.77 5.10425 1.05433 0
M  V30 12103 C 1149.1 5.82502 0.700567 0
M  V30 12104 C 1151.45 6.31064 0.440525 0
M  V30 12105 C 1150.11 6.67 0.258216 0
M  V30 12106 H 1149.38 0.617906 0.40899 0
M  V30 12107 H 1152.03 1.87265 0.4005 0
M  V30 12108 H 1150.34 2.64505 2.8904 0
M  V30 12109 H 1152.03 2.97825 2.68517 0
M  V30 12110 H 1148.62 3.95976 1.64016 0
M  V30 12111 H 1152.81 4.82229 1.17342 0
M  V30 12112 H 1148.06 6.08942 0.547652 0
M  V30 12113 H 1152.24 6.96344 0.0883962 0
M  V30 12114 H 1149.86 7.59851 -0.230354 0
M  V30 12115 N 1151.44 -0.633461 1.44309 0
M  V30 12116 C 1152.72 -1.3917 1.37444 0
M  V30 12117 C 1153.1 -2.11076 0.0319994 0
M  V30 12118 O 1152.44 -2.06164 -0.98533 0
M  V30 12119 C 1152.65 -2.36005 2.57104 0
M  V30 12120 C 1154 -2.99407 3.01065 0
M  V30 12121 O 1155.03 -2.46331 2.57292 0
M  V30 12122 O 1153.89 -3.95686 3.76954 0
M  V30 12123 H 1150.98 -0.622746 0.544166 0
M  V30 12124 H 1153.53 -0.658712 1.56394 0
M  V30 12125 H 1152.3 -1.81955 3.46422 0
M  V30 12126 H 1151.92 -3.16725 2.40356 0
M  V30 12127 N 1152.92 -1.31168 -0.873655 0
M  V30 12128 C 1153.83 -1.20458 -2.01313 0
M  V30 12129 C 1154.84 -0.122074 -1.73571 0
M  V30 12130 O 1156.02 -0.339176 -1.98523 0
M  V30 12131 C 1153.09 -0.90876 -3.34578 0
M  V30 12132 C 1152.15 -2.07779 -3.75668 0
M  V30 12133 C 1151.38 -1.79599 -5.02573 0
M  V30 12134 O 1151.6 -0.729338 -5.65718 0
M  V30 12135 O 1150.54 -2.65169 -5.40341 0
M  V30 12136 H 1154.36 -2.16207 -2.13279 0
M  V30 12137 H 1151.95 -1.10871 -1.00139 0
M  V30 12138 H 1153.83 -0.759469 -4.145 0
M  V30 12139 H 1152.5 0.0187249 -3.23695 0
M  V30 12140 H 1151.41 -2.28247 -2.96402 0
M  V30 12141 H 1152.74 -2.9874 -3.91172 0
M  V30 12142 N 1154.4 1.08748 -1.14068 0
M  V30 12143 C 1155.33 2.1544 -0.782199 0
M  V30 12144 C 1156.34 1.61575 0.199301 0
M  V30 12145 O 1157.53 1.78487 -0.0219044 0
M  V30 12146 C 1154.63 3.38611 -0.13983 0
M  V30 12147 C 1153.8 4.2187 -1.15518 0
M  V30 12148 C 1152.86 5.23451 -0.537216 0
M  V30 12149 O 1151.89 5.56424 -1.1992 0
M  V30 12150 N 1153.09 5.76413 0.6876 0
M  V30 12151 H 1155.86 2.46798 -1.70032 0
M  V30 12152 H 1153.42 1.24527 -1.03463 0
M  V30 12153 H 1155.41 4.03688 0.285999 0
M  V30 12154 H 1153.98 3.05084 0.681357 0
M  V30 12155 H 1153.2 3.52825 -1.75806 0
M  V30 12156 H 1154.49 4.74318 -1.84119 0
M  V30 12157 H 1153.88 5.51851 1.24406 0
M  V30 12158 H 1152.44 6.43189 1.05599 0
M  V30 12159 N 1155.87 0.935264 1.26849 0
M  V30 12160 C 1157.12 0.578545 1.93642 0
M  V30 12161 C 1157.44 -0.884296 1.73796 0
M  V30 12162 O 1156.71 -1.62768 1.09011 0
M  V30 12163 H 1155.29 0.210976 0.716588 0
M  V30 12164 H 1157.96 1.1893 1.54407 0
M  V30 12165 H 1157.05 0.791268 3.01903 0
M  V30 12166 N 1157.35 -1.41121 0.701616 0
M  V30 12167 C 1158.28 -2.33436 0.0545974 0
M  V30 12168 C 1159.26 -1.52144 -0.760662 0
M  V30 12169 O 1160.45 -1.80661 -0.712414 0
M  V30 12170 C 1157.58 -3.36015 -0.878117 0
M  V30 12171 C 1156.53 -4.27664 -0.169511 0
M  V30 12172 C 1155.86 -5.20666 -1.21699 0
M  V30 12173 C 1157.16 -5.13254 0.967859 0
M  V30 12174 H 1158.85 -2.87791 0.825637 0
M  V30 12175 H 1156.4 -1.38377 0.398484 0
M  V30 12176 H 1158.35 -3.99526 -1.34004 0
M  V30 12177 H 1157.08 -2.80024 -1.68089 0
M  V30 12178 H 1155.73 -3.65586 0.272441 0
M  V30 12179 H 1155.38 -4.60987 -2.01246 0
M  V30 12180 H 1155.08 -5.82822 -0.747836 0
M  V30 12181 H 1156.61 -5.87053 -1.6793 0
M  V30 12182 H 1158.02 -5.70298 0.585944 0
M  V30 12183 H 1156.42 -5.84381 1.3645 0
M  V30 12184 H 1157.49 -4.5006 1.80483 0
M  V30 12185 N 1158.83 -0.446794 -1.51134 0
M  V30 12186 C 1160.06 0.117242 -2.07068 0
M  V30 12187 C 1160.48 1.34877 -1.3111 0
M  V30 12188 O 1159.84 1.77856 -0.35172 0
M  V30 12189 C 1159.89 0.408616 -3.58277 0
M  V30 12190 O 1158.99 1.49345 -3.84408 0
M  V30 12191 H 1158.33 -0.00228458 -0.663996 0
M  V30 12192 H 1160.86 -0.63085 -1.94632 0
M  V30 12193 H 1160.87 0.656298 -4.02687 0
M  V30 12194 H 1159.55 -0.491444 -4.12986 0
M  V30 12195 H 1158.12 1.23499 -3.51856 0
M  V30 12196 N 1160.31 1.56586 -0.178487 0
M  V30 12197 C 1161.27 2.17091 0.73512 0
M  V30 12198 C 1162.27 1.12088 1.15295 0
M  V30 12199 O 1163.46 1.37563 1.06874 0
M  V30 12200 C 1160.59 2.75957 2.00151 0
M  V30 12201 H 1161.79 2.99176 0.208272 0
M  V30 12202 H 1159.34 1.56138 0.0710967 0
M  V30 12203 H 1160.07 1.97626 2.57127 0
M  V30 12204 H 1159.86 3.52809 1.7108 0
M  V30 12205 H 1161.35 3.2247 2.65335 0
M  V30 12206 N 1161.79 -0.095206 1.57312 0
M  V30 12207 C 1162.72 -1.11627 2.05089 0
M  V30 12208 C 1163.7 -1.41782 0.939787 0
M  V30 12209 O 1164.88 -1.51813 1.21105 0
M  V30 12210 C 1162.01 -2.43618 2.47523 0
M  V30 12211 C 1160.97 -2.27872 3.62296 0
M  V30 12212 C 1160.29 -3.65038 3.90706 0
M  V30 12213 C 1161.59 -1.71936 4.93189 0
M  V30 12214 H 1163.29 -0.718795 2.90644 0
M  V30 12215 H 1160.83 -0.344315 1.39823 0
M  V30 12216 H 1162.79 -3.1532 2.79556 0
M  V30 12217 H 1161.51 -2.85301 1.58968 0
M  V30 12218 H 1160.17 -1.58615 3.3051 0
M  V30 12219 H 1159.82 -4.04249 2.99319 0
M  V30 12220 H 1159.52 -3.55349 4.67976 0
M  V30 12221 H 1161.04 -4.38208 4.25213 0
M  V30 12222 H 1162.45 -2.33479 5.23603 0
M  V30 12223 H 1160.85 -1.73006 5.74621 0
M  V30 12224 H 1161.92 -0.678789 4.80125 0
M  V30 12225 N 1163.26 -1.53291 -0.366026 0
M  V30 12226 C 1164.21 -1.76077 -1.44847 0
M  V30 12227 C 1165.2 -0.615302 -1.4867 0
M  V30 12228 O 1166.39 -0.873952 -1.53919 0
M  V30 12229 C 1163.52 -1.95371 -2.82286 0
M  V30 12230 C 1162.61 -3.15918 -2.82943 0
M  V30 12231 N 1163 -4.37835 -2.53247 0
M  V30 12232 C 1161.29 -3.16631 -3.14103 0
M  V30 12233 C 1162 -5.19573 -2.6157 0
M  V30 12234 N 1160.97 -4.55773 -2.96263 0
M  V30 12235 H 1164.77 -2.67949 -1.2075 0
M  V30 12236 H 1162.29 -1.5191 -0.574206 0
M  V30 12237 H 1164.28 -2.09823 -3.6025 0
M  V30 12238 H 1162.94 -1.04727 -3.07347 0
M  V30 12239 H 1163.96 -4.65575 -2.26848 0
M  V30 12240 H 1160.63 -2.35878 -3.44482 0
M  V30 12241 H 1162.02 -6.26821 -2.41961 0
M  V30 12242 N 1164.74 0.6258 -1.44643 0
M  V30 12243 C 1165.67 1.74858 -1.54748 0
M  V30 12244 C 1166.65 1.65327 -0.400138 0
M  V30 12245 O 1167.84 1.84005 -0.620948 0
M  V30 12246 C 1164.97 3.13408 -1.49643 0
M  V30 12247 C 1163.92 3.37733 -2.62908 0
M  V30 12248 C 1163.25 4.76367 -2.42855 0
M  V30 12249 C 1164.55 3.29771 -4.05029 0
M  V30 12250 H 1166.24 1.66658 -2.48728 0
M  V30 12251 H 1163.79 0.800363 -1.19709 0
M  V30 12252 H 1165.74 3.91735 -1.55312 0
M  V30 12253 H 1164.47 3.22404 -0.521824 0
M  V30 12254 H 1163.12 2.61788 -2.56637 0
M  V30 12255 H 1162.77 4.82074 -1.43575 0
M  V30 12256 H 1162.47 4.936 -3.18799 0
M  V30 12257 H 1164 5.56917 -2.50351 0
M  V30 12258 H 1165.41 3.97996 -4.12641 0
M  V30 12259 H 1163.81 3.58538 -4.81218 0
M  V30 12260 H 1164.88 2.27493 -4.28223 0
M  V30 12261 N 1166.22 1.31629 0.866686 0
M  V30 12262 C 1167.18 1.1951 1.95576 0
M  V30 12263 C 1168.18 0.121319 1.60342 0
M  V30 12264 O 1169.37 0.370832 1.70207 0
M  V30 12265 C 1166.51 0.835201 3.30511 0
M  V30 12266 H 1167.7 2.16285 2.07752 0
M  V30 12267 H 1165.25 1.15288 1.05539 0
M  V30 12268 H 1165.99 -0.131245 3.24034 0
M  V30 12269 H 1165.77 1.61142 3.57457 0
M  V30 12270 H 1167.26 0.774393 4.10357 0
M  V30 12271 N 1167.7 -1.08142 1.14644 0
M  V30 12272 C 1168.66 -2.13308 0.83859 0
M  V30 12273 C 1169.66 -1.60022 -0.158012 0
M  V30 12274 O 1170.85 -1.74057 0.0706621 0
M  V30 12275 C 1167.98 -3.39978 0.250591 0
M  V30 12276 H 1169.18 -2.42049 1.77066 0
M  V30 12277 H 1166.73 -1.23899 0.952828 0
M  V30 12278 H 1167.47 -3.16873 -0.690064 0
M  V30 12279 H 1167.25 -3.79952 0.968456 0
M  V30 12280 H 1168.74 -4.17567 0.0525115 0
M  V30 12281 N 1169.18 -0.941978 -1.26351 0
M  V30 12282 C 1170.11 -0.409504 -2.25512 0
M  V30 12283 C 1171.12 0.467665 -1.55938 0
M  V30 12284 O 1172.31 0.277982 -1.76322 0
M  V30 12285 C 1169.41 0.430487 -3.36155 0
M  V30 12286 C 1168.58 -0.430714 -4.35274 0
M  V30 12287 C 1167.64 0.348976 -5.25042 0
M  V30 12288 O 1166.67 -0.24827 -5.68658 0
M  V30 12289 N 1167.87 1.64531 -5.56695 0
M  V30 12290 H 1170.64 -1.26196 -2.71836 0
M  V30 12291 H 1168.2 -0.810947 -1.40126 0
M  V30 12292 H 1170.19 0.959501 -3.93161 0
M  V30 12293 H 1168.76 1.18375 -2.8932 0
M  V30 12294 H 1167.98 -1.14093 -3.77328 0
M  V30 12295 H 1169.27 -1.01896 -4.98492 0
M  V30 12296 H 1168.67 2.15266 -5.23142 0
M  V30 12297 H 1167.22 2.12055 -6.16341 0
M  V30 12298 N 1170.66 1.40747 -0.709091 0
M  V30 12299 C 1171.9 2.00606 -0.245324 0
M  V30 12300 C 1172.22 1.56489 1.16346 0
M  V30 12301 O 1171.49 0.801456 1.78755 0
M  V30 12302 H 1170.07 0.741833 -0.0877098 0
M  V30 12303 H 1172.74 1.72178 -0.913271 0
M  V30 12304 H 1171.83 3.10901 -0.273322 0
M  V30 12305 N 1172.13 0.454803 1.50895 0
M  V30 12306 C 1173.55 0.108037 1.59234 0
M  V30 12307 C 1173.75 -1.38416 1.46435 0
M  V30 12308 O 1172.81 -2.15586 1.31449 0
M  V30 12309 C 1174.12 0.643721 2.93729 0
M  V30 12310 C 1175.67 0.605703 3.07083 0
M  V30 12311 C 1176.14 1.11865 4.44128 0
M  V30 12312 N 1177.63 1.07738 4.50496 0
M  V30 12313 C 1178.37 1.44495 5.54895 0
M  V30 12314 N 1177.86 1.88624 6.66628 0
M  V30 12315 N 1179.66 1.36201 5.45349 0
M  V30 12316 H 1171.81 1.4255 1.57459 0
M  V30 12317 H 1174.07 0.588504 0.743214 0
M  V30 12318 H 1173.78 1.68844 3.0852 0
M  V30 12319 H 1173.65 0.0782404 3.77119 0
M  V30 12320 H 1176.04 -0.430065 2.91949 0
M  V30 12321 H 1176.12 1.2078 2.2549 0
M  V30 12322 H 1175.76 2.15297 4.6001 0
M  V30 12323 H 1175.69 0.492933 5.24288 0
M  V30 12324 H 1178.18 0.753526 3.70311 0
M  V30 12325 H 1178.5 2.14863 7.4233 0
M  V30 12326 H 1176.84 1.92564 6.6779 0
M  V30 12327 H 1180.03 1.01579 4.56946 0
M  V30 12328 H 1180.21 1.65175 6.26595 0
M  V30 12329 N 1173.61 -1.56489 0.186789 0
M  V30 12330 C 1174.56 -2.15311 -0.750024 0
M  V30 12331 C 1175.55 -1.09156 -1.18211 0
M  V30 12332 O 1176.74 -1.3524 -1.14189 0
M  V30 12333 C 1173.87 -2.80952 -1.97284 0
M  V30 12334 C 1172.95 -3.94286 -1.56204 0
M  V30 12335 N 1173.34 -4.98406 -0.861705 0
M  V30 12336 C 1171.64 -4.05733 -1.85194 0
M  V30 12337 C 1172.34 -5.77977 -0.657078 0
M  V30 12338 N 1171.32 -5.30116 -1.20326 0
M  V30 12339 H 1175.12 -2.93176 -0.206148 0
M  V30 12340 H 1172.63 -1.62395 -0.0133163 0
M  V30 12341 H 1174.63 -3.21479 -2.65437 0
M  V30 12342 H 1173.29 -2.04572 -2.52152 0
M  V30 12343 H 1174.3 -5.15302 -0.518067 0
M  V30 12344 H 1170.98 -3.40472 -2.4163 0
M  V30 12345 H 1172.37 -6.71822 -0.102123 0
M  V30 12346 N 1175.09 0.086862 -1.5736 0
M  V30 12347 C 1176.05 1.08906 -2.01673 0
M  V30 12348 C 1177.05 1.32473 -0.911463 0
M  V30 12349 O 1178.24 1.28447 -1.17673 0
M  V30 12350 C 1175.37 2.43629 -2.38449 0
M  V30 12351 H 1176.57 0.707461 -2.91436 0
M  V30 12352 H 1174.12 0.332154 -1.5273 0
M  V30 12353 H 1174.86 2.8665 -1.51665 0
M  V30 12354 H 1174.64 2.2787 -3.19089 0
M  V30 12355 H 1176.13 3.15695 -2.73361 0
M  V30 12356 N 1176.57 1.53483 0.357892 0
M  V30 12357 C 1177.5 1.76757 1.4591 0
M  V30 12358 C 1178.51 0.648502 1.49326 0
M  V30 12359 O 1179.7 0.924932 1.52667 0
M  V30 12360 C 1176.8 1.83938 2.8464 0
M  V30 12361 C 1175.97 3.13683 3.04831 0
M  V30 12362 C 1175.03 3.12007 4.23719 0
M  V30 12363 O 1174.06 3.8578 4.18524 0
M  V30 12364 N 1175.26 2.33366 5.31527 0
M  V30 12365 H 1178.03 2.71778 1.2632 0
M  V30 12366 H 1175.59 1.52355 0.547673 0
M  V30 12367 H 1177.58 1.80285 3.62325 0
M  V30 12368 H 1176.15 0.961675 2.9744 0
M  V30 12369 H 1175.37 3.30576 2.14739 0
M  V30 12370 H 1176.66 3.99412 3.15194 0
M  V30 12371 H 1176.06 1.72954 5.38613 0
M  V30 12372 H 1174.61 2.35524 6.07759 0
M  V30 12373 N 1178.05 -0.61812 1.44973 0
M  V30 12374 C 1179.27 -1.40429 1.51945 0
M  V30 12375 C 1179.69 -1.88215 0.148556 0
M  V30 12376 O 1179.05 -1.61603 -0.847978 0
M  V30 12377 C 1179.1 -2.61588 2.49507 0
M  V30 12378 O 1178.82 -2.15791 3.81269 0
M  V30 12379 C 1180.32 -3.5457 2.66074 0
M  V30 12380 H 1177.54 -0.43023 0.514921 0
M  V30 12381 H 1180.08 -0.754791 1.90061 0
M  V30 12382 H 1178.24 -3.22602 2.14492 0
M  V30 12383 H 1178.65 -2.94434 4.34061 0
M  V30 12384 H 1180.13 -4.36155 3.38338 0
M  V30 12385 H 1180.6 -4.04227 1.71746 0
M  V30 12386 H 1181.21 -2.99416 3.02043 0
M  V30 12387 N 1179.52 -1.32087 -0.859693 0
M  V30 12388 C 1180.77 -1.22542 -1.6159 0
M  V30 12389 C 1181.1 0.213533 -1.93022 0
M  V30 12390 O 1180.38 1.14931 -1.56911 0
M  V30 12391 C 1180.66 -2.08004 -2.93949 0
M  V30 12392 C 1180.51 -3.60252 -2.6933 0
M  V30 12393 C 1181.83 -1.93732 -3.95166 0
M  V30 12394 H 1178.95 -0.446504 -0.586347 0
M  V30 12395 H 1181.59 -1.61982 -0.993064 0
M  V30 12396 H 1179.74 -1.74498 -3.47106 0
M  V30 12397 H 1181.42 -4.03947 -2.22766 0
M  V30 12398 H 1179.66 -3.83169 -2.03382 0
M  V30 12399 H 1180.33 -4.1537 -3.63555 0
M  V30 12400 H 1182.81 -2.23075 -3.5125 0
M  V30 12401 H 1181.68 -2.55815 -4.85644 0
M  V30 12402 H 1181.94 -0.903528 -4.32769 0
M  V30 12403 N 1181 1.07532 -1.15215 0
M  V30 12404 C 1181.91 2.18222 -0.861192 0
M  V30 12405 C 1182.93 1.73246 0.161798 0
M  V30 12406 O 1184.1 2.01397 -0.0118386 0
M  V30 12407 C 1181.17 3.44902 -0.352601 0
M  V30 12408 C 1180.23 4.04455 -1.43926 0
M  V30 12409 C 1179.46 5.25089 -0.954841 0
M  V30 12410 O 1179.69 5.70048 0.200294 0
M  V30 12411 O 1178.62 5.76269 -1.73774 0
M  V30 12412 H 1182.45 2.45599 -1.78648 0
M  V30 12413 H 1180.03 1.16835 -0.93112 0
M  V30 12414 H 1181.91 4.21333 -0.0753347 0
M  V30 12415 H 1180.59 3.19082 0.544841 0
M  V30 12416 H 1179.49 3.29573 -1.7701 0
M  V30 12417 H 1180.83 4.34544 -2.31155 0
M  V30 12418 N 1182.48 0.948665 1.2585 0
M  V30 12419 C 1183.71 0.617229 1.97479 0
M  V30 12420 C 1184.12 -0.809406 1.7057 0
M  V30 12421 O 1183.48 -1.54066 0.97826 0
M  V30 12422 C 1183.53 0.859065 3.51144 0
M  V30 12423 O 1183.25 2.2296 3.77121 0
M  V30 12424 C 1184.75 0.539197 4.40009 0
M  V30 12425 H 1181.97 0.231933 0.629641 0
M  V30 12426 H 1184.52 1.27141 1.60173 0
M  V30 12427 H 1182.67 0.25138 3.86584 0
M  V30 12428 H 1183.09 2.29524 4.71613 0
M  V30 12429 H 1184.56 0.758986 5.46757 0
M  V30 12430 H 1185.04 -0.526062 4.36038 0
M  V30 12431 H 1185.64 1.12594 4.10125 0
M  V30 12432 N 1183.96 -1.40369 0.716545 0
M  V30 12433 C 1184.89 -2.33365 0.0793533 0
M  V30 12434 C 1185.87 -1.52943 -0.744482 0
M  V30 12435 O 1187.05 -1.81406 -0.693212 0
M  V30 12436 C 1184.18 -3.36928 -0.842429 0
M  V30 12437 C 1183.14 -4.2782 -0.124142 0
M  V30 12438 C 1182.46 -5.21928 -1.1617 0
M  V30 12439 C 1183.76 -5.12199 1.02224 0
M  V30 12440 H 1185.46 -2.86899 0.856115 0
M  V30 12441 H 1183 -1.37946 0.413138 0
M  V30 12442 H 1184.96 -4.00925 -1.29759 0
M  V30 12443 H 1183.68 -2.81791 -1.6511 0
M  V30 12444 H 1182.34 -3.65277 0.311201 0
M  V30 12445 H 1181.99 -4.63096 -1.96345 0
M  V30 12446 H 1181.69 -5.83582 -0.685978 0
M  V30 12447 H 1183.21 -5.88802 -1.61694 0
M  V30 12448 H 1184.63 -5.69644 0.646399 0
M  V30 12449 H 1183.02 -5.82901 1.4264 0
M  V30 12450 H 1184.09 -4.4812 1.85246 0
M  V30 12451 N 1185.44 -0.462799 -1.50652 0
M  V30 12452 C 1186.37 0.325724 -2.31217 0
M  V30 12453 C 1187.35 0.997942 -1.3775 0
M  V30 12454 O 1188.53 0.996707 -1.66671 0
M  V30 12455 C 1185.66 1.41283 -3.17264 0
M  V30 12456 C 1184.62 0.862687 -4.19216 0
M  V30 12457 C 1183.94 2.04746 -4.93946 0
M  V30 12458 C 1185.24 -0.120365 -5.22161 0
M  V30 12459 H 1186.94 -0.346666 -2.97386 0
M  V30 12460 H 1184.48 -0.168163 -1.43015 0
M  V30 12461 H 1186.44 1.97188 -3.72418 0
M  V30 12462 H 1185.16 2.11387 -2.48964 0
M  V30 12463 H 1183.82 0.325671 -3.65151 0
M  V30 12464 H 1183.47 2.73529 -4.22127 0
M  V30 12465 H 1183.17 1.68562 -5.62904 0
M  V30 12466 H 1184.69 2.61157 -5.51932 0
M  V30 12467 H 1186.1 0.349226 -5.72235 0
M  V30 12468 H 1184.5 -0.396061 -5.98792 0
M  V30 12469 H 1185.57 -1.04895 -4.73418 0
M  V30 12470 N 1186.91 1.56388 -0.195085 0
M  V30 12471 C 1188.33 1.58788 0.160758 0
M  V30 12472 C 1188.53 1.21125 1.61031 0
M  V30 12473 O 1187.59 0.933994 2.34591 0
M  V30 12474 C 1188.9 3.00366 -0.141588 0
M  V30 12475 C 1190.45 3.12893 -0.0816947 0
M  V30 12476 C 1190.92 4.56604 -0.35735 0
M  V30 12477 N 1192.41 4.62188 -0.305968 0
M  V30 12478 C 1193.15 5.71276 -0.493108 0
M  V30 12479 N 1192.64 6.8883 -0.740595 0
M  V30 12480 N 1194.44 5.60473 -0.427365 0
M  V30 12481 H 1186.59 1.79151 -1.14099 0
M  V30 12482 H 1188.85 0.831446 -0.455413 0
M  V30 12483 H 1188.56 3.32483 -1.14666 0
M  V30 12484 H 1188.43 3.73082 0.555834 0
M  V30 12485 H 1190.82 2.80589 0.913978 0
M  V30 12486 H 1190.9 2.42564 -0.812193 0
M  V30 12487 H 1190.54 4.8962 -1.35034 0
M  V30 12488 H 1190.47 5.25124 0.394036 0
M  V30 12489 H 1192.96 3.77705 -0.121298 0
M  V30 12490 H 1193.28 7.67862 -0.872201 0
M  V30 12491 H 1191.62 6.90637 -0.777488 0
M  V30 12492 H 1194.81 4.67513 -0.234436 0
M  V30 12493 H 1194.99 6.45429 -0.576627 0
M  V30 12494 N 1188.39 -0.0785156 1.57404 0
M  V30 12495 C 1189.34 -1.10077 1.99668 0
M  V30 12496 C 1190.33 -1.34855 0.87767 0
M  V30 12497 O 1191.52 -1.35268 1.14156 0
M  V30 12498 C 1188.65 -2.41641 2.43854 0
M  V30 12499 C 1187.73 -2.20166 3.62475 0
M  V30 12500 N 1188.12 -1.68602 4.76872 0
M  V30 12501 C 1186.42 -2.50666 3.68894 0
M  V30 12502 C 1187.12 -1.61785 5.58749 0
M  V30 12503 N 1186.1 -2.07595 5.02399 0
M  V30 12504 H 1189.9 -0.695297 2.85557 0
M  V30 12505 H 1187.42 -0.285694 1.59867 0
M  V30 12506 H 1189.41 -3.15629 2.72367 0
M  V30 12507 H 1188.07 -2.8291 1.59348 0
M  V30 12508 H 1189.08 -1.37561 4.99297 0
M  V30 12509 H 1185.76 -2.95348 2.95087 0
M  V30 12510 H 1187.15 -1.22828 6.60578 0
M  V30 12511 N 1189.87 -1.5367 -0.349747 0
M  V30 12512 C 1191.12 -1.70281 -1.08853 0
M  V30 12513 C 1191.44 -0.465438 -1.89364 0
M  V30 12514 O 1190.71 0.520615 -1.88856 0
M  V30 12515 H 1189.29 -0.627775 -0.404854 0
M  V30 12516 H 1191.95 -1.90906 -0.392523 0
M  V30 12517 H 1191.05 -2.57096 -1.76941 0
M  V30 12518 N 1191.35 0.610423 -1.45298 0
M  V30 12519 C 1192.31 1.70324 -1.5337 0
M  V30 12520 C 1193.31 1.55393 -0.413492 0
M  V30 12521 O 1194.5 1.60512 -0.676872 0
M  V30 12522 C 1191.63 3.09572 -1.42752 0
M  V30 12523 H 1192.83 1.64535 -2.50736 0
M  V30 12524 H 1190.38 0.825906 -1.32697 0
M  V30 12525 H 1191.11 3.2094 -0.465601 0
M  V30 12526 H 1190.9 3.21817 -2.24 0
M  V30 12527 H 1192.39 3.89178 -1.51427 0
M  V30 12528 N 1192.83 1.32541 0.852676 0
M  V30 12529 C 1193.78 1.18224 1.94954 0
M  V30 12530 C 1194.76 0.0886514 1.60656 0
M  V30 12531 O 1195.95 0.315359 1.74168 0
M  V30 12532 C 1193.08 0.909484 3.31034 0
M  V30 12533 C 1192.17 2.04486 3.71546 0
M  V30 12534 N 1192.56 3.29362 3.83868 0
M  V30 12535 C 1190.86 1.94848 4.01186 0
M  V30 12536 C 1191.56 4.0374 4.18771 0
M  V30 12537 N 1190.53 3.32054 4.30396 0
M  V30 12538 H 1194.34 2.12893 2.02617 0
M  V30 12539 H 1191.85 1.24349 1.04456 0
M  V30 12540 H 1193.85 0.787865 4.09388 0
M  V30 12541 H 1192.51 -0.0288163 3.24687 0
M  V30 12542 H 1193.52 3.64274 3.68137 0
M  V30 12543 H 1190.19 1.08591 4.0313 0
M  V30 12544 H 1191.58 5.11434 4.35757 0
M  V30 12545 N 1194.3 -1.0692 1.15784 0
M  V30 12546 C 1195.55 -1.78983 0.929944 0
M  V30 12547 C 1195.87 -1.87884 -0.543969 0
M  V30 12548 O 1197.07 -2.56513 -0.889578 0
M  V30 12549 C 1195.53 -3.21657 1.61446 0
M  V30 12550 C 1195.14 -3.20943 3.12569 0
M  V30 12551 C 1196.88 -3.98299 1.46828 0
M  V30 12552 C 1194.79 -4.58298 3.73788 0
M  V30 12553 H 1193.72 -0.670809 0.344284 0
M  V30 12554 H 1196.37 -1.19975 1.38846 0
M  V30 12555 H 1194.75 -3.80885 1.08364 0
M  V30 12556 H 1195.92 -2.71334 3.72444 0
M  V30 12557 H 1194.24 -2.57799 3.26999 0
M  V30 12558 H 1196.84 -4.99822 1.89952 0
M  V30 12559 H 1197.18 -4.14213 0.416358 0
M  V30 12560 H 1197.71 -3.45577 1.97031 0
M  V30 12561 H 1194.45 -4.47588 4.789 0
M  V30 12562 H 1193.97 -5.08126 3.18698 0
M  V30 12563 H 1195.65 -5.27262 3.74972 0
M  V30 12564 N 1195.78 -0.955326 -1.25345 0
M  V30 12565 C 1196.73 -0.467205 -2.2786 0
M  V30 12566 C 1197.72 0.462873 -1.62954 0
M  V30 12567 O 1198.93 0.339526 -1.76769 0
M  V30 12568 H 1195.31 -0.132586 -0.74022 0
M  V30 12569 H 1197.28 -1.34406 -2.66416 0
M  V30 12570 C 1196.03 0.238898 -3.46878 0
M  V30 12571 H 1195.35 -0.467644 -3.97056 0
M  V30 12572 H 1196.79 0.544444 -4.2049 0
M  V30 12573 C 1195.25 1.46164 -3.03542 0
M  V30 12574 O 1195.78 2.55933 -3.09615 0
M  V30 12575 N 1193.98 1.32324 -2.58725 0
M  V30 12576 H 1193.53 0.430131 -2.53984 0
M  V30 12577 H 1193.49 2.14253 -2.30094 0
M  V30 12578 N 1197.26 1.39987 -0.723979 0
M  V30 12579 C 1198.19 2.3332 -0.0917282 0
M  V30 12580 C 1199.17 1.53335 0.736361 0
M  V30 12581 O 1200.36 1.81771 0.683582 0
M  V30 12582 C 1197.49 3.3737 0.824549 0
M  V30 12583 C 1196.44 4.2788 0.101452 0
M  V30 12584 C 1195.77 5.22536 1.13401 0
M  V30 12585 C 1197.07 5.11649 -1.04939 0
M  V30 12586 H 1198.76 2.86441 -0.871318 0
M  V30 12587 H 1196.31 1.37725 -0.420448 0
M  V30 12588 H 1198.26 4.01607 1.27631 0
M  V30 12589 H 1196.98 2.82663 1.63613 0
M  V30 12590 H 1195.64 3.65107 -0.330569 0
M  V30 12591 H 1195.29 4.64131 1.93886 0
M  V30 12592 H 1194.99 5.83938 0.65502 0
M  V30 12593 H 1196.52 5.89651 1.58569 0
M  V30 12594 H 1197.93 5.69293 -0.6766 0
M  V30 12595 H 1196.33 5.82137 -1.45729 0
M  V30 12596 H 1197.4 4.47132 -1.8762 0
M  V30 12597 N 1198.74 0.470782 1.50404 0
M  V30 12598 C 1199.67 -0.359838 2.26358 0
M  V30 12599 C 1200.68 -0.95735 1.31676 0
M  V30 12600 O 1201.87 -0.84581 1.57189 0
M  V30 12601 C 1198.97 -1.51864 3.02969 0
M  V30 12602 C 1198.15 -1.03397 4.25003 0
M  V30 12603 C 1197.21 -2.06679 4.83911 0
M  V30 12604 O 1196.23 -1.64754 5.44835 0
M  V30 12605 N 1197.43 -3.39484 4.70883 0
M  V30 12606 H 1200.2 0.291299 2.98281 0
M  V30 12607 H 1197.76 0.301549 1.59067 0
M  V30 12608 H 1199.75 -2.2065 3.39258 0
M  V30 12609 H 1198.32 -2.07448 2.33846 0
M  V30 12610 H 1197.54 -0.172012 3.93825 0
M  V30 12611 H 1198.83 -0.68807 5.04126 0
M  V30 12612 H 1198.23 -3.76256 4.22431 0
M  V30 12613 H 1196.78 -4.04068 5.11441 0
M  V30 12614 N 1200.22 -1.56282 0.203376 0
M  V30 12615 C 1201.44 -2.02643 -0.441658 0
M  V30 12616 C 1201.87 -1.0825 -1.5383 0
M  V30 12617 O 1201.23 -0.0674337 -1.81175 0
M  V30 12618 C 1201.27 -3.47382 -0.967369 0
M  V30 12619 O 1200.38 -3.56115 -2.07981 0
M  V30 12620 H 1199.72 -0.656081 -0.102242 0
M  V30 12621 H 1202.25 -2.02134 0.316684 0
M  V30 12622 H 1202.26 -3.8734 -1.28186 0
M  V30 12623 H 1200.93 -4.15574 -0.164625 0
M  V30 12624 H 1199.51 -3.28035 -1.77334 0
M  V30 12625 N 1201.7 0.070167 -1.57444 0
M  V30 12626 C 1202.63 1.08351 -2.06839 0
M  V30 12627 C 1203.61 1.40269 -0.962224 0
M  V30 12628 O 1204.79 1.49867 -1.23505 0
M  V30 12629 C 1201.92 2.39649 -2.51368 0
M  V30 12630 C 1200.88 2.22079 -3.65875 0
M  V30 12631 C 1200.2 3.58776 -3.96464 0
M  V30 12632 C 1201.5 1.64069 -4.95862 0
M  V30 12633 H 1203.2 0.672465 -2.9175 0
M  V30 12634 H 1200.74 0.322027 -1.40353 0
M  V30 12635 H 1202.69 3.10833 -2.84537 0
M  V30 12636 H 1201.42 2.82736 -1.63487 0
M  V30 12637 H 1200.08 1.53337 -3.32992 0
M  V30 12638 H 1199.73 3.99436 -3.05712 0
M  V30 12639 H 1199.43 3.47859 -4.7357 0
M  V30 12640 H 1200.95 4.31387 -4.32131 0
M  V30 12641 H 1202.36 2.2512 -5.27251 0
M  V30 12642 H 1200.76 1.63843 -5.773 0
M  V30 12643 H 1201.83 0.60232 -4.81145 0
M  V30 12644 N 1203.17 1.53854 0.341593 0
M  V30 12645 C 1204.12 1.81979 1.41959 0
M  V30 12646 C 1205.09 0.665616 1.5218 0
M  V30 12647 O 1206.28 0.910246 1.67688 0
M  V30 12648 C 1203.42 2.03681 2.78583 0
M  V30 12649 C 1202.53 3.31389 2.77137 0
M  V30 12650 C 1201.66 3.43148 4.05491 0
M  V30 12651 C 1200.7 4.64799 3.98282 0
M  V30 12652 N 1199.84 4.73581 5.18329 0
M  V30 12653 H 1204.68 2.73953 1.17275 0
M  V30 12654 H 1202.22 1.35689 0.568062 0
M  V30 12655 H 1204.17 2.14253 3.57983 0
M  V30 12656 H 1202.8 1.15017 3.01614 0
M  V30 12657 H 1201.86 3.29649 1.89832 0
M  V30 12658 H 1203.17 4.20885 2.67689 0
M  V30 12659 H 1202.32 3.53163 4.93316 0
M  V30 12660 H 1201.06 2.51712 4.17723 0
M  V30 12661 H 1200.07 4.54859 3.08842 0
M  V30 12662 H 1201.29 5.57601 3.87631 0
M  V30 12663 H 1199.24 3.85055 5.31102 0
M  V30 12664 H 1199.15 5.57016 5.11145 0
M  V30 12665 H 1200.42 4.87908 6.0792 0
M  V30 12666 N 1204.65 -0.602709 1.4562 0
M  V30 12667 C 1205.9 -1.36158 1.49891 0
M  V30 12668 C 1206.23 -1.93977 0.142581 0
M  V30 12669 O 1205.48 -1.75822 -0.859374 0
M  V30 12670 C 1205.78 -2.52474 2.52966 0
M  V30 12671 C 1205.45 -2.12772 3.97541 0
M  V30 12672 C 1204.11 -2.01658 4.36907 0
M  V30 12673 C 1206.46 -1.8186 4.88443 0
M  V30 12674 C 1203.79 -1.57862 5.65063 0
M  V30 12675 C 1206.14 -1.39548 6.17016 0
M  V30 12676 C 1204.8 -1.26997 6.55308 0
M  V30 12677 H 1204.07 -0.498236 0.54849 0
M  V30 12678 H 1206.72 -0.680738 1.78992 0
M  V30 12679 H 1205.03 -3.25917 2.17452 0
M  V30 12680 H 1206.72 -3.10701 2.53507 0
M  V30 12681 H 1203.31 -2.22349 3.66413 0
M  V30 12682 H 1207.5 -1.89341 4.58763 0
M  V30 12683 H 1202.75 -1.46771 5.93522 0
M  V30 12684 H 1206.93 -1.14677 6.86893 0
M  V30 12685 H 1204.55 -0.928346 7.5451 0
M  V30 12686 N 1206.13 -1.32992 -0.845635 0
M  V30 12687 C 1207.06 -1.18513 -1.96182 0
M  V30 12688 C 1208.07 -0.11781 -1.62373 0
M  V30 12689 O 1209.26 -0.36761 -1.74674 0
M  V30 12690 C 1206.36 -0.793812 -3.29472 0
M  V30 12691 C 1205.54 -1.95134 -3.91461 0
M  V30 12692 C 1204.6 -1.54209 -5.03096 0
M  V30 12693 O 1203.62 -2.25545 -5.22607 0
M  V30 12694 N 1204.82 -0.443235 -5.78805 0
M  V30 12695 H 1207.59 -2.14663 -2.09141 0
M  V30 12696 H 1205.15 -1.25648 -1.02099 0
M  V30 12697 H 1207.14 -0.502263 -4.01571 0
M  V30 12698 H 1205.71 0.0768031 -3.12506 0
M  V30 12699 H 1204.93 -2.40889 -3.12035 0
M  V30 12700 H 1206.22 -2.72604 -4.2961 0
M  V30 12701 H 1205.62 0.150298 -5.655 0
M  V30 12702 H 1204.17 -0.211331 -6.51457 0
M  V30 12703 N 1207.61 1.06304 -1.1635 0
M  V30 12704 C 1208.86 1.78747 -0.943074 0
M  V30 12705 C 1209.18 1.87646 0.530483 0
M  V30 12706 O 1208.45 1.38506 1.38538 0
M  V30 12707 H 1207.03 0.662072 -0.345932 0
M  V30 12708 H 1209.69 1.28413 -1.46615 0
M  V30 12709 H 1208.78 2.80828 -1.3617 0
M  V30 12710 N 1209.09 0.96196 1.24836 0
M  V30 12711 C 1210.33 0.619489 1.92371 0
M  V30 12712 C 1210.65 -0.847233 1.75633 0
M  V30 12713 O 1209.92 -1.60419 1.12439 0
M  V30 12714 H 1208.5 0.226129 0.711951 0
M  V30 12715 H 1211.17 1.22179 1.5185 0
M  V30 12716 H 1210.26 0.855128 3.00157 0
M  V30 12717 N 1210.56 -1.39601 0.731392 0
M  V30 12718 C 1211.51 -2.27907 0.0651931 0
M  V30 12719 C 1212.5 -1.44075 -0.716334 0
M  V30 12720 O 1213.69 -1.6702 -0.585936 0
M  V30 12721 C 1210.82 -3.32763 -0.844023 0
M  V30 12722 C 1209.9 -4.24062 -0.0568388 0
M  V30 12723 N 1210.3 -4.96448 0.968146 0
M  V30 12724 C 1208.59 -4.45075 -0.287037 0
M  V30 12725 C 1209.29 -5.6353 1.44252 0
M  V30 12726 N 1208.27 -5.38236 0.761772 0
M  V30 12727 H 1212.07 -2.81324 0.850539 0
M  V30 12728 H 1209.59 -1.5224 0.565396 0
M  V30 12729 H 1211.58 -3.94888 -1.33674 0
M  V30 12730 H 1210.24 -2.80905 -1.62857 0
M  V30 12731 H 1211.25 -5.00011 1.34942 0
M  V30 12732 H 1207.93 -4.04167 -1.04667 0
M  V30 12733 H 1209.32 -6.31487 2.29508 0
M  V30 12734 N 1212.04 -0.478751 -1.50152 0
M  V30 12735 C 1213.29 0.0734397 -2.01967 0
M  V30 12736 C 1213.61 1.39523 -1.36229 0
M  V30 12737 O 1212.88 1.89141 -0.510149 0
M  V30 12738 H 1211.46 0.0301305 -0.746392 0
M  V30 12739 H 1214.12 -0.630921 -1.84406 0
M  V30 12740 H 1213.22 0.21937 -3.11328 0
M  V30 12741 N 1213.52 1.56172 -0.211661 0
M  V30 12742 C 1214.93 1.84307 0.297982 0
M  V30 12743 C 1215.28 1.1328 1.60194 0
M  V30 12744 O 1214.41 0.399137 2.12687 0
M  V30 12745 C 1215 3.34348 0.547428 0
M  V30 12746 C 1213.56 3.62835 1.0014 0
M  V30 12747 C 1212.71 2.77237 0.0590326 0
M  V30 12748 H 1215.66 1.5262 -0.435083 0
M  V30 12749 H 1215.68 3.54018 1.39469 0
M  V30 12750 H 1215.19 3.86015 -0.401778 0
M  V30 12751 H 1213.29 3.16616 1.96431 0
M  V30 12752 H 1213.41 4.70899 0.882653 0
M  V30 12753 H 1211.77 2.48377 0.564005 0
M  V30 12754 H 1212.55 3.31699 -0.884913 0
M  V30 12755 N 1215 -0.0618163 1.57479 0
M  V30 12756 C 1215.96 -1.05684 2.0338 0
M  V30 12757 C 1216.96 -1.31006 0.932423 0
M  V30 12758 O 1218.15 -1.26559 1.19702 0
M  V30 12759 C 1215.28 -2.39805 2.42294 0
M  V30 12760 H 1216.48 -0.661006 2.92525 0
M  V30 12761 H 1214.03 -0.307814 1.53239 0
M  V30 12762 H 1214.76 -2.84201 1.56207 0
M  V30 12763 H 1214.55 -2.22764 3.22674 0
M  V30 12764 H 1216.04 -3.11307 2.78349 0
M  V30 12765 N 1216.48 -1.54033 -0.333429 0
M  V30 12766 C 1217.44 -1.82021 -1.39288 0
M  V30 12767 C 1218.44 -0.691623 -1.45166 0
M  V30 12768 O 1219.63 -0.959925 -1.45365 0
M  V30 12769 C 1216.76 -1.97136 -2.78119 0
M  V30 12770 H 1217.95 -2.76671 -1.1573 0
M  V30 12771 H 1215.51 -1.45599 -0.568376 0
M  V30 12772 H 1216.24 -1.04663 -3.06946 0
M  V30 12773 H 1216.03 -2.79251 -2.75247 0
M  V30 12774 H 1217.52 -2.20271 -3.54782 0
M  V30 12775 N 1217.95 0.594978 -1.45938 0
M  V30 12776 C 1219.18 1.37994 -1.5416 0
M  V30 12777 C 1219.6 1.87954 -0.17848 0
M  V30 12778 O 1218.95 1.62932 0.822161 0
M  V30 12779 C 1219.01 2.57586 -2.53637 0
M  V30 12780 O 1218.73 2.09698 -3.84653 0
M  V30 12781 C 1220.23 3.50292 -2.71681 0
M  V30 12782 H 1217.45 0.421983 -0.5217 0
M  V30 12783 H 1219.99 0.724459 -1.91238 0
M  V30 12784 H 1218.15 3.19149 -2.19597 0
M  V30 12785 H 1218.56 2.87492 -4.3869 0
M  V30 12786 H 1220.03 4.30717 -3.45234 0
M  V30 12787 H 1220.51 4.01444 -1.78156 0
M  V30 12788 H 1221.12 2.94573 -3.06768 0
M  V30 12789 N 1219.43 1.33438 0.838571 0
M  V30 12790 C 1220.36 1.26344 1.96365 0
M  V30 12791 C 1221.34 0.143956 1.6949 0
M  V30 12792 O 1222.53 0.333779 1.9131 0
M  V30 12793 C 1219.66 1.0022 3.32526 0
M  V30 12794 C 1218.61 2.08466 3.73799 0
M  V30 12795 C 1217.94 1.67555 5.07769 0
M  V30 12796 C 1219.24 3.50144 3.87552 0
M  V30 12797 H 1220.93 2.20478 2.02558 0
M  V30 12798 H 1218.48 1.06139 0.973168 0
M  V30 12799 H 1220.43 0.939068 4.10803 0
M  V30 12800 H 1219.16 0.0252514 3.2659 0
M  V30 12801 H 1217.81 2.13822 2.97785 0
M  V30 12802 H 1217.46 0.685619 4.98305 0
M  V30 12803 H 1217.16 2.39993 5.36356 0
M  V30 12804 H 1218.69 1.62708 5.88522 0
M  V30 12805 H 1220.1 3.47287 4.56141 0
M  V30 12806 H 1218.5 4.21069 4.27575 0
M  V30 12807 H 1219.57 3.88628 2.89994 0
M  V30 12808 N 1220.91 -1.05686 1.16912 0
M  V30 12809 C 1221.84 -2.15268 0.904532 0
M  V30 12810 C 1222.82 -1.69424 -0.151548 0
M  V30 12811 O 1224.01 -1.942 -0.00235371 0
M  V30 12812 C 1221.14 -3.44853 0.411581 0
M  V30 12813 C 1220.09 -4.04237 1.40628 0
M  V30 12814 C 1219.42 -5.29105 0.771479 0
M  V30 12815 C 1220.72 -4.42303 2.77787 0
M  V30 12816 H 1222.41 -2.37659 1.82094 0
M  V30 12817 H 1219.96 -1.14217 0.876947 0
M  V30 12818 H 1221.91 -4.20857 0.213929 0
M  V30 12819 H 1220.63 -3.22099 -0.540352 0
M  V30 12820 H 1219.29 -3.30297 1.59058 0
M  V30 12821 H 1218.94 -5.02652 -0.187133 0
M  V30 12822 H 1218.64 -5.69797 1.43545 0
M  V30 12823 H 1220.16 -6.07801 0.583988 0
M  V30 12824 H 1221.58 -5.09362 2.63103 0
M  V30 12825 H 1219.98 -4.93997 3.40716 0
M  V30 12826 H 1221.05 -3.52877 3.32575 0
M  V30 12827 N 1222.39 -0.968567 -1.24324 0
M  V30 12828 C 1223.8 -0.675239 -1.44612 0
M  V30 12829 C 1224 0.762641 -1.8651 0
M  V30 12830 O 1223.06 1.53644 -2.00374 0
M  V30 12831 C 1224.37 -1.66007 -2.50723 0
M  V30 12832 C 1225.92 -1.6728 -2.6455 0
M  V30 12833 C 1226.4 -2.64563 -3.73859 0
M  V30 12834 N 1227.89 -2.6301 -3.81287 0
M  V30 12835 C 1228.62 -3.34957 -4.65394 0
M  V30 12836 N 1228.12 -4.16424 -5.53681 0
M  V30 12837 N 1229.91 -3.23778 -4.59483 0
M  V30 12838 H 1222.06 -1.89757 -0.954257 0
M  V30 12839 H 1224.33 -0.817004 -0.480841 0
M  V30 12840 H 1224.03 -2.68779 -2.26827 0
M  V30 12841 H 1223.91 -1.43353 -3.48898 0
M  V30 12842 H 1226.29 -0.652184 -2.87803 0
M  V30 12843 H 1226.37 -1.93997 -1.6673 0
M  V30 12844 H 1226.02 -3.66759 -3.51355 0
M  V30 12845 H 1225.95 -2.35124 -4.71194 0
M  V30 12846 H 1228.44 -2.03877 -3.18186 0
M  V30 12847 H 1228.75 -4.68207 -6.14818 0
M  V30 12848 H 1227.1 -4.20518 -5.53344 0
M  V30 12849 H 1230.29 -2.59594 -3.89524 0
M  V30 12850 H 1230.46 -3.80112 -5.24804 0
M  V30 12851 N 1223.87 1.39211 -0.738786 0
M  V30 12852 C 1225.28 1.54116 -0.414773 0
M  V30 12853 C 1225.48 1.70497 1.07392 0
M  V30 12854 O 1224.54 1.7076 1.86003 0
M  V30 12855 C 1225.85 2.7567 -1.2011 0
M  V30 12856 C 1227.4 2.89508 -1.1897 0
M  V30 12857 C 1227.87 4.14005 -1.95868 0
M  V30 12858 N 1229.37 4.21052 -1.93053 0
M  V30 12859 C 1230.1 5.16341 -2.49358 0
M  V30 12860 N 1229.6 6.17396 -3.14316 0
M  V30 12861 N 1231.39 5.08585 -2.3937 0
M  V30 12862 H 1223.54 1.26827 -1.70378 0
M  V30 12863 H 1225.8 0.614983 -0.721457 0
M  V30 12864 H 1225.51 2.69922 -2.25467 0
M  V30 12865 H 1225.38 3.68443 -0.808065 0
M  V30 12866 H 1227.77 2.94747 -0.144248 0
M  V30 12867 H 1227.85 1.97788 -1.62214 0
M  V30 12868 H 1227.5 4.09527 -3.00416 0
M  V30 12869 H 1227.43 5.04776 -1.50028 0
M  V30 12870 H 1229.92 3.48669 -1.45733 0
M  V30 12871 H 1230.23 6.86572 -3.54737 0
M  V30 12872 H 1228.57 6.17772 -3.18407 0
M  V30 12873 H 1231.77 4.28573 -1.88262 0
M  V30 12874 H 1231.94 5.8267 -2.83549 0
M  V30 12875 N 1225.34 0.486708 1.49896 0
M  V30 12876 C 1226.57 -0.0622999 2.07306 0
M  V30 12877 C 1226.99 -1.31353 1.3464 0
M  V30 12878 O 1226.35 -1.76861 0.398752 0
M  V30 12879 C 1226.4 -0.313481 3.59235 0
M  V30 12880 O 1225.5 -1.39101 3.88233 0
M  V30 12881 H 1224.85 0.0198885 0.663702 0
M  V30 12882 H 1227.38 0.682232 1.92891 0
M  V30 12883 H 1227.39 -0.549302 4.04285 0
M  V30 12884 H 1226.06 0.600767 4.11538 0
M  V30 12885 H 1224.64 -1.14127 3.55006 0
M  V30 12886 N 1226.82 -1.56058 0.219941 0
M  V30 12887 C 1227.77 -2.20218 -0.690846 0
M  V30 12888 C 1228.74 -1.15725 -1.19151 0
M  V30 12889 O 1229.93 -1.44073 -1.2509 0
M  V30 12890 C 1227.07 -2.88477 -1.89408 0
M  V30 12891 C 1226.18 -4.07559 -1.43246 0
M  V30 12892 C 1225.31 -4.63605 -2.59314 0
M  V30 12893 C 1224.35 -5.74993 -2.0988 0
M  V30 12894 N 1223.49 -6.25337 -3.19214 0
M  V30 12895 H 1228.33 -2.97685 -0.136992 0
M  V30 12896 H 1225.87 -1.46994 -0.055865 0
M  V30 12897 H 1227.82 -3.26235 -2.60051 0
M  V30 12898 H 1226.45 -2.1353 -2.42084 0
M  V30 12899 H 1225.51 -3.75297 -0.621013 0
M  V30 12900 H 1226.82 -4.8805 -1.02997 0
M  V30 12901 H 1225.97 -5.03798 -3.38041 0
M  V30 12902 H 1224.71 -3.82274 -3.0285 0
M  V30 12903 H 1223.72 -5.34304 -1.29613 0
M  V30 12904 H 1224.94 -6.58158 -1.67345 0
M  V30 12905 H 1222.89 -5.4692 -3.62236 0
M  V30 12906 H 1222.8 -7.00947 -2.83213 0
M  V30 12907 H 1224.07 -6.70187 -3.98083 0
M  V30 12908 N 1228.3 0.053464 -1.57509 0
M  V30 12909 C 1229.53 0.761533 -1.92375 0
M  V30 12910 C 1229.94 1.70179 -0.817585 0
M  V30 12911 O 1229.3 1.81313 0.207843 0
M  V30 12912 C 1229.35 1.53954 -3.27078 0
M  V30 12913 O 1229.07 0.637054 -4.33443 0
M  V30 12914 C 1230.57 2.34697 -3.76075 0
M  V30 12915 H 1227.79 0.215483 -0.635459 0
M  V30 12916 H 1230.34 0.0182624 -2.04492 0
M  V30 12917 H 1228.49 2.23492 -3.16434 0
M  V30 12918 H 1228.91 1.18006 -5.11053 0
M  V30 12919 H 1230.38 2.84716 -4.72906 0
M  V30 12920 H 1230.86 3.15041 -3.06016 0
M  V30 12921 H 1231.46 1.70281 -3.89724 0
M  V30 12922 O 1229.82 1.60297 0.196756 0
M  V30 12923 H 1230.51 1.74741 0.835779 0
M  V30 END ATOM
M  V30 BEGIN BOND
M  V30 END BOND
M  V30 END CTAB
M  END
$$$$
