drugbank_target|Q8IKK7 Glyceraldehyde-3-phosphate dehydrogenase (DB11638)
 OpenBabel12092121093D

  0  0  0     0  0            999 V3000
M  V30 BEGIN CTAB
M  V30 COUNTS 5180 5232 0 0 0
M  V30 BEGIN ATOM
M  V30 1 H -0.908 1.98254 -0.117106 0
M  V30 2 N 0 1.576 0 0
M  V30 3 C 0.933 2.03868 1.02534 0
M  V30 4 C 1.911 0.928543 1.3348 0
M  V30 5 O 3.095 1.19667 1.45644 0
M  V30 6 C 0.222 2.43627 2.35294 0
M  V30 7 C -0.732 3.65373 2.2001 0
M  V30 8 S 0.101 5.13292 1.52614 0
M  V30 9 C 1.257 5.56322 2.86805 0
M  V30 10 H 1.49 2.90518 0.631377 0
M  V30 11 H -0.977 1.52953 0.210867 0
M  V30 12 H 0.981 2.67203 3.11629 0
M  V30 13 H -0.358 1.57376 2.7183 0
M  V30 14 H -1.165 3.90944 3.18086 0
M  V30 15 H -1.563 3.418 1.51819 0
M  V30 16 H 0.729 5.58782 3.83104 0
M  V30 17 H 1.672 6.56266 2.65933 0
M  V30 18 H 2.08 4.83886 2.90714 0
M  V30 19 N 1.4781 -0.272755 1.55222 0
M  V30 20 C 2.4411 -1.32041 1.87344 0
M  V30 21 C 3.4411 -1.42342 0.74803 0
M  V30 22 O 4.6311 -1.41488 1.0162 0
M  V30 23 C 1.7631 -2.70173 2.07893 0
M  V30 24 H 2.9561 -1.04789 2.80997 0
M  V30 25 H 0.5091 -0.51083 1.47717 0
M  V30 26 H 1.2441 -3.02605 1.16622 0
M  V30 27 H 1.0291 -2.64082 2.89833 0
M  V30 28 H 2.5191 -3.45869 2.34017 0
M  V30 29 N 2.9562 -1.48159 -0.537278 0
M  V30 30 C 4.2022 -1.56035 -1.29541 0
M  V30 31 C 4.5352 -0.230377 -1.92829 0
M  V30 32 O 3.8102 0.762952 -1.78911 0
M  V30 33 C 4.0932 -2.69323 -2.39034 0
M  V30 34 C 3.9462 -4.12002 -1.80485 0
M  V30 35 C 5.2652 -2.78408 -3.40847 0
M  V30 36 H 2.3842 -0.567992 -0.469632 0
M  V30 37 H 5.0262 -1.80302 -0.599277 0
M  V30 38 H 3.1762 -2.48763 -2.98412 0
M  V30 39 H 4.8482 -4.43981 -1.25215 0
M  V30 40 H 3.0912 -4.19344 -1.11055 0
M  V30 41 H 3.7622 -4.87077 -2.59731 0
M  V30 42 H 6.2382 -2.97012 -2.91416 0
M  V30 43 H 5.1142 -3.59416 -4.14863 0
M  V30 44 H 5.3752 -1.86269 -4.00944 0
M  V30 45 N 4.4343 0.785586 -1.36625 0
M  V30 46 C 5.6623 1.57448 -1.3423 0
M  V30 47 C 6.0773 1.88649 0.0755653 0
M  V30 48 O 5.4343 1.50414 1.03354 0
M  V30 49 C 5.4853 2.89316 -2.16745 0
M  V30 50 O 5.2063 2.59459 -3.53005 0
M  V30 51 C 6.7073 3.83606 -2.22174 0
M  V30 52 H 3.9273 0.488226 -0.4603 0
M  V30 53 H 6.4713 0.974733 -1.79775 0
M  V30 54 H 4.6263 3.4575 -1.74745 0
M  V30 55 H 5.0403 3.43804 -3.96105 0
M  V30 56 H 6.5143 4.73181 -2.8426 0
M  V30 57 H 6.9913 4.21734 -1.22627 0
M  V30 58 H 7.5973 3.33104 -2.64427 0
M  V30 59 N 5.9124 1.20967 1.01018 0
M  V30 60 C 6.8594 0.964281 2.09691 0
M  V30 61 C 7.8294 -0.107853 1.65749 0
M  V30 62 O 9.0144 0.0381987 1.90762 0
M  V30 63 C 6.1544 0.52943 3.41015 0
M  V30 64 C 5.2674 1.67043 3.98398 0
M  V30 65 C 4.4024 1.18525 5.17808 0
M  V30 66 C 3.4414 2.29892 5.67288 0
M  V30 67 N 2.5784 1.82546 6.77954 0
M  V30 68 H 7.4184 1.89463 2.30017 0
M  V30 69 H 4.9554 0.944289 1.1279 0
M  V30 70 H 6.9134 0.258588 4.16398 0
M  V30 71 H 5.5434 -0.363919 3.20742 0
M  V30 72 H 4.5954 2.05603 3.20049 0
M  V30 73 H 5.9074 2.50877 4.31117 0
M  V30 74 H 5.0614 0.870762 6.00419 0
M  V30 75 H 3.8004 0.316887 4.86669 0
M  V30 76 H 2.8054 2.6215 4.83278 0
M  V30 77 H 4.0304 3.17216 6.00459 0
M  V30 78 H 1.9764 0.980454 6.48632 0
M  V30 79 H 1.8934 2.59956 7.09901 0
M  V30 80 H 3.1614 1.54115 7.64113 0
M  V30 81 N 7.3905 -1.2043 1.01659 0
M  V30 82 C 8.3205 -2.25466 0.607226 0
M  V30 83 C 9.3015 -1.65853 -0.377716 0
M  V30 84 O 10.4865 -1.92409 -0.263149 0
M  V30 85 C 7.6165 -3.47256 -0.0552949 0
M  V30 86 C 6.5705 -4.19462 0.850632 0
M  V30 87 C 5.8965 -5.34673 0.0538859 0
M  V30 88 C 7.1965 -4.75603 2.15868 0
M  V30 89 H 8.8905 -2.59962 1.48526 0
M  V30 90 H 6.4365 -1.2496 0.715605 0
M  V30 91 H 8.3895 -4.19917 -0.353233 0
M  V30 92 H 7.1135 -3.11924 -0.968045 0
M  V30 93 H 5.7725 -3.48667 1.13257 0
M  V30 94 H 5.4205 -4.95585 -0.860514 0
M  V30 95 H 5.1205 -5.83913 0.657192 0
M  V30 96 H 6.6445 -6.10138 -0.237598 0
M  V30 97 H 8.0585 -5.40083 1.92311 0
M  V30 98 H 6.4555 -5.3528 2.71284 0
M  V30 99 H 7.5255 -3.94346 2.82169 0
M  V30 100 N 8.8686 -0.792821 -1.36206 0
M  V30 101 C 10.1166 -0.366062 -1.98757 0
M  V30 102 C 10.4376 1.0668 -1.63231 0
M  V30 103 O 9.7076 1.73587 -0.907978 0
M  V30 104 H 8.2876 -0.132364 -0.735179 0
M  V30 105 H 10.9496 -1.01562 -1.66347 0
M  V30 106 H 10.0456 -0.460638 -3.08682 0
M  V30 107 N 10.3467 1.47872 -0.545128 0
M  V30 108 C 11.5957 2.01695 -0.0145033 0
M  V30 109 C 11.9087 1.42609 1.33873 0
M  V30 110 O 13.1147 1.88021 1.95858 0
M  V30 111 C 11.5707 3.59892 0.0245068 0
M  V30 112 C 11.1787 4.27966 -1.32475 0
M  V30 113 C 12.9227 4.21507 0.50316 0
M  V30 114 C 10.8297 5.78136 -1.2455 0
M  V30 115 H 9.7597 0.753998 -0.00165172 0
M  V30 116 H 12.4107 1.69985 -0.691175 0
M  V30 117 H 10.7927 3.88509 0.766575 0
M  V30 118 H 11.9667 4.11003 -2.08357 0
M  V30 119 H 10.2817 3.78286 -1.74036 0
M  V30 120 H 12.8787 5.31538 0.580656 0
M  V30 121 H 13.2217 3.87855 1.51243 0
M  V30 122 H 13.7547 3.97376 -0.183681 0
M  V30 123 H 10.4937 6.16388 -2.23039 0
M  V30 124 H 10.0137 5.97469 -0.528282 0
M  V30 125 H 11.6927 6.40099 -0.942488 0
M  V30 126 N 11.8248 0.280983 1.55075 0
M  V30 127 C 12.7728 -0.619864 2.24188 0
M  V30 128 C 13.7668 -1.15315 1.24092 0
M  V30 129 O 14.9728 -1.1061 1.42005 0
M  V30 130 H 11.3478 -0.218459 0.719569 0
M  V30 131 H 13.3188 -0.0141831 2.98397 0
M  V30 132 C 12.0678 -1.7899 2.98091 0
M  V30 133 H 11.3908 -1.38874 3.74905 0
M  V30 134 H 12.8308 -2.39672 3.49762 0
M  V30 135 C 11.2898 -2.68192 2.03899 0
M  V30 136 O 11.8198 -3.6872 1.594 0
M  V30 137 N 10.0258 -2.35488 1.70275 0
M  V30 138 H 9.5728 -1.53787 2.06658 0
M  V30 139 H 9.5308 -2.95442 1.07524 0
M  V30 140 N 13.3029 -1.57598 0.00835791 0
M  V30 141 C 14.5509 -1.90551 -0.6734 0
M  V30 142 C 14.8719 -0.883301 -1.73847 0
M  V30 143 O 14.1419 0.0781442 -1.95744 0
M  V30 144 H 12.7219 -0.703312 -0.251717 0
M  V30 145 H 15.3839 -1.94833 0.0512592 0
M  V30 146 H 14.4799 -2.9056 -1.13935 0
M  V30 147 N 14.781 0.264519 -1.55364 0
M  V30 148 C 16.028 0.994986 -1.7637 0
M  V30 149 C 16.356 1.85976 -0.5695 0
M  V30 150 O 15.611 1.90509 0.44776 0
M  V30 151 C 15.91 1.9004 -3.02687 0
M  V30 152 C 15.576 1.19243 -4.34847 0
M  V30 153 C 14.238 0.996709 -4.70764 0
M  V30 154 C 16.59 0.689296 -5.16622 0
M  V30 155 C 13.918 0.285261 -5.86006 0
M  V30 156 C 16.27 -0.00860079 -6.32599 0
M  V30 157 C 14.934 -0.215963 -6.67151 0
M  V30 158 H 14.204 0.364091 -0.645383 0
M  V30 159 H 16.851 0.266543 -1.89636 0
M  V30 160 H 15.156 2.69533 -2.84357 0
M  V30 161 H 16.853 2.46695 -3.16137 0
M  V30 162 H 13.443 1.3549 -4.06621 0
M  V30 163 H 17.627 0.828108 -4.89342 0
M  V30 164 H 12.883 0.113961 -6.11294 0
M  V30 165 H 17.057 -0.406186 -6.95214 0
M  V30 166 H 14.684 -0.769217 -7.56298 0
M  V30 167 N 16.2591 1.48442 0.529413 0
M  V30 168 C 17.5071 1.56179 1.28267 0
M  V30 169 C 17.8281 0.237721 1.93546 0
M  V30 170 O 17.0981 -0.740779 1.81354 0
M  V30 171 H 15.6781 0.575367 0.476405 0
M  V30 172 H 18.3401 1.84909 0.61602 0
M  V30 173 H 17.4361 2.34312 2.06165 0
M  V30 174 N 17.7372 -0.778329 1.37039 0
M  V30 175 C 19.1532 -1.07796 1.17695 0
M  V30 176 C 19.3532 -2.01498 0.00860115 0
M  V30 177 O 18.4092 -2.43901 -0.653352 0
M  V30 178 C 19.7222 -1.68178 2.49272 0
M  V30 179 C 21.2702 -1.80467 2.55735 0
M  V30 180 C 21.7452 -2.44263 3.87427 0
M  V30 181 N 23.2362 -2.51721 3.88833 0
M  V30 182 C 23.9712 -3.01919 4.87476 0
M  V30 183 N 23.4672 -3.5234 5.96513 0
M  V30 184 N 25.2602 -3.00733 4.74885 0
M  V30 185 H 17.4112 -0.156032 2.11826 0
M  V30 186 H 19.6742 -0.131844 0.938787 0
M  V30 187 H 19.3802 -1.06796 3.35093 0
M  V30 188 H 19.2542 -2.67554 2.65885 0
M  V30 189 H 21.6412 -2.40984 1.70325 0
M  V30 190 H 21.7222 -0.798656 2.43013 0
M  V30 191 H 21.3662 -1.84388 4.73248 0
M  V30 192 H 21.2962 -3.45458 3.9745 0
M  V30 193 H 23.7872 -2.1603 3.10063 0
M  V30 194 H 24.1002 -3.89027 6.67741 0
M  V30 195 H 22.4452 -3.50462 6.00168 0
M  V30 196 H 25.6362 -2.60638 3.88826 0
M  V30 197 H 25.8092 -3.39545 5.51918 0
M  V30 198 N 19.2153 -1.21501 -1.00376 0
M  V30 199 C 20.4643 -1.02718 -1.73586 0
M  V30 200 C 20.7773 0.439589 -1.90596 0
M  V30 201 O 21.9833 0.746848 -2.61026 0
M  V30 202 C 20.4393 -1.78929 -3.1227 0
M  V30 203 C 20.0473 -3.29783 -3.03228 0
M  V30 204 C 21.7913 -1.68557 -3.89601 0
M  V30 205 C 19.6983 -3.98479 -4.36999 0
M  V30 206 H 18.6283 -0.380733 -0.650814 0
M  V30 207 H 21.2793 -1.45248 -1.1214 0
M  V30 208 H 19.6613 -1.29192 -3.74333 0
M  V30 209 H 20.8353 -3.86832 -2.50395 0
M  V30 210 H 19.1503 -3.40711 -2.39385 0
M  V30 211 H 21.7473 -2.17211 -4.88593 0
M  V30 212 H 22.0903 -0.644021 -4.11288 0
M  V30 213 H 22.6233 -2.15778 -3.34193 0
M  V30 214 H 19.3623 -5.02841 -4.20513 0
M  V30 215 H 18.8823 -3.46219 -4.89788 0
M  V30 216 H 20.5613 -4.03462 -5.05794 0
M  V30 217 N 20.6934 1.19889 -1.02296 0
M  V30 218 C 21.9414 1.89046 -0.714558 0
M  V30 219 C 22.2624 1.79636 0.758681 0
M  V30 220 O 21.5324 1.20292 1.54618 0
M  V30 221 H 20.1124 0.699802 -0.261317 0
M  V30 222 H 22.7744 1.45574 -1.29592 0
M  V30 223 H 21.8704 2.95524 -1.0036 0
M  V30 224 N 22.1715 0.800033 1.35784 0
M  V30 225 C 23.5875 0.482977 1.52117 0
M  V30 226 C 23.7875 -0.996948 1.75109 0
M  V30 227 O 22.8435 -1.78216 1.78872 0
M  V30 228 C 24.1565 1.32264 2.70049 0
M  V30 229 C 25.7045 1.31742 2.83924 0
M  V30 230 C 26.1795 2.14106 4.04874 0
M  V30 231 N 27.6705 2.11607 4.12039 0
M  V30 232 C 28.4055 2.72099 5.04727 0
M  V30 233 N 27.9015 3.41492 6.02789 0
M  V30 234 N 29.6945 2.61776 4.97423 0
M  V30 235 H 21.8455 1.75856 1.19115 0
M  V30 236 H 24.1085 0.748122 0.582252 0
M  V30 237 H 23.8145 2.37261 2.59616 0
M  V30 238 H 23.6885 0.971303 3.6448 0
M  V30 239 H 26.0755 0.275333 2.93813 0
M  V30 240 H 26.1565 1.70859 1.9037 0
M  V30 241 H 25.8005 3.18351 3.95746 0
M  V30 242 H 25.7305 1.72353 4.97596 0
M  V30 243 H 28.2215 1.61112 3.41835 0
M  V30 244 H 28.5345 3.84953 6.70098 0
M  V30 245 H 26.8795 3.45596 6.02983 0
M  V30 246 H 30.0705 2.07157 4.19766 0
M  V30 247 H 30.2435 3.0921 5.69468 0
M  V30 248 N 23.6496 -1.47581 0.552962 0
M  V30 249 C 24.5796 -2.32762 -0.185451 0
M  V30 250 C 25.5606 -1.43527 -0.912905 0
M  V30 251 O 26.7456 -1.72388 -0.894201 0
M  V30 252 C 23.8756 -3.25219 -1.21859 0
M  V30 253 C 22.8296 -4.23661 -0.607864 0
M  V30 254 C 22.1556 -5.05413 -1.74533 0
M  V30 255 C 23.4556 -5.20481 0.435582 0
M  V30 256 H 25.1496 -2.94749 0.525684 0
M  V30 257 H 22.6956 -1.41738 0.254251 0
M  V30 258 H 24.6486 -3.8365 -1.7433 0
M  V30 259 H 23.3726 -2.61279 -1.95961 0
M  V30 260 H 22.0316 -3.66451 -0.104489 0
M  V30 261 H 21.6796 -4.3788 -2.47529 0
M  V30 262 H 21.3796 -5.72059 -1.34249 0
M  V30 263 H 22.9036 -5.66701 -2.27338 0
M  V30 264 H 24.3176 -5.733 -0.00290157 0
M  V30 265 H 22.7146 -5.95305 0.757067 0
M  V30 266 H 23.7846 -4.66217 1.33303 0
M  V30 267 N 25.1277 -0.289203 -1.54924 0
M  V30 268 C 26.3737 0.323998 -2.00195 0
M  V30 269 C 26.7067 1.54441 -1.17735 0
M  V30 270 O 25.9817 1.92875 -0.250878 0
M  V30 271 C 26.2647 0.692276 -3.53383 0
M  V30 272 C 26.1177 -0.536457 -4.46589 0
M  V30 273 C 27.4367 1.52335 -4.12895 0
M  V30 274 H 24.5557 0.116289 -0.727768 0
M  V30 275 H 27.1977 -0.398954 -1.85764 0
M  V30 276 H 25.3477 1.30822 -3.65811 0
M  V30 277 H 27.0197 -1.17499 -4.46085 0
M  V30 278 H 25.2627 -1.17192 -4.1767 0
M  V30 279 H 25.9337 -0.234806 -5.515 0
M  V30 280 H 28.4097 1.00302 -4.0383 0
M  V30 281 H 27.2857 1.74982 -5.20262 0
M  V30 282 H 27.5467 2.50886 -3.64018 0
M  V30 283 N 26.6058 1.57591 -0.0167156 0
M  V30 284 C 27.8528 1.91283 0.664597 0
M  V30 285 C 28.1808 0.891949 1.72842 0
M  V30 286 O 27.4358 -0.100931 1.9544 0
M  V30 287 C 27.7348 3.3172 1.33029 0
M  V30 288 C 27.4008 4.4914 0.398047 0
M  V30 289 C 26.0628 4.80992 0.141421 0
M  V30 290 C 28.4148 5.20634 -0.242825 0
M  V30 291 C 25.7428 5.81703 -0.764092 0
M  V30 292 C 28.0948 6.22311 -1.13632 0
M  V30 293 C 26.7588 6.52611 -1.40196 0
M  V30 294 H 26.0288 0.699956 0.243193 0
M  V30 295 H 28.6758 1.9135 -0.0758267 0
M  V30 296 H 26.9808 3.27856 2.14517 0
M  V30 297 H 28.6778 3.55055 1.86379 0
M  V30 298 H 25.2678 4.24262 0.608238 0
M  V30 299 H 29.4518 4.96267 -0.0576019 0
M  V30 300 H 24.7078 6.03532 -0.977732 0
M  V30 301 H 28.8818 6.76834 -1.63917 0
M  V30 302 H 26.5088 7.30467 -2.10529 0
M  V30 303 N 28.0839 -0.256276 1.55502 0
M  V30 304 C 29.4999 -0.604325 1.47716 0
M  V30 305 C 29.6999 -1.88763 0.705039 0
M  V30 306 O 28.7559 -2.51445 0.230613 0
M  V30 307 C 30.0689 -0.715756 2.92057 0
M  V30 308 C 31.6169 -0.808706 3.02372 0
M  V30 309 C 32.0919 -0.951777 4.48001 0
M  V30 310 N 33.5829 -1.01688 4.519 0
M  V30 311 C 34.3179 -1.14668 5.61817 0
M  V30 312 N 33.8139 -1.24261 6.81565 0
M  V30 313 N 35.6069 -1.1791 5.49594 0
M  V30 314 H 27.7579 0.586291 2.04148 0
M  V30 315 H 30.0209 0.201015 0.926443 0
M  V30 316 H 29.7269 0.157027 3.51349 0
M  V30 317 H 29.6009 -1.59071 3.42018 0
M  V30 318 H 31.9879 -1.67195 2.43166 0
M  V30 319 H 32.0689 0.0912063 2.55637 0
M  V30 320 H 31.7129 -0.0931291 5.07815 0
M  V30 321 H 31.6429 -1.86659 4.92408 0
M  V30 322 H 34.1339 -0.954468 3.65648 0
M  V30 323 H 34.4469 -1.34046 7.61086 0
M  V30 324 H 32.7919 -1.21236 6.84344 0
M  V30 325 H 35.9829 -1.10057 4.54978 0
M  V30 326 H 36.1559 -1.27681 6.35296 0
M  V30 327 N 29.562 -1.4872 -0.521534 0
M  V30 328 C 30.525 -1.63379 -1.60748 0
M  V30 329 C 31.525 -0.50661 -1.52611 0
M  V30 330 O 32.715 -0.772601 -1.5613 0
M  V30 331 C 29.847 -1.61192 -3.00383 0
M  V30 332 H 31.04 -2.60217 -1.49087 0
M  V30 333 H 28.593 -1.37444 -0.744235 0
M  V30 334 H 29.328 -0.65863 -3.17541 0
M  V30 335 H 29.113 -2.43032 -3.07698 0
M  V30 336 H 30.603 -1.7466 -3.7932 0
M  V30 337 N 31.0401 0.771051 -1.3745 0
M  V30 338 C 32.0031 1.86598 -1.33093 0
M  V30 339 C 33.0031 1.59076 -0.234845 0
M  V30 340 O 34.1931 1.67145 -0.490732 0
M  V30 341 C 31.3251 3.23747 -1.06773 0
M  V30 342 H 32.5181 1.91873 -2.30488 0
M  V30 343 H 30.0711 0.970876 -1.2249 0
M  V30 344 H 30.8061 3.24148 -0.099129 0
M  V30 345 H 30.5911 3.45115 -1.86112 0
M  V30 346 H 32.0811 4.03824 -1.06377 0
M  V30 347 N 32.5182 1.22032 0.997298 0
M  V30 348 C 33.7652 1.04222 1.73621 0
M  V30 349 C 34.0932 -0.423264 1.89839 0
M  V30 350 O 33.3482 -1.3302 1.43542 0
M  V30 351 C 33.6472 1.69345 3.14733 0
M  V30 352 C 33.3132 3.19226 3.18442 0
M  V30 353 C 31.9752 3.60124 3.19161 0
M  V30 354 C 34.3272 4.15181 3.15078 0
M  V30 355 C 31.6552 4.95467 3.14212 0
M  V30 356 C 34.0072 5.50495 3.1167 0
M  V30 357 C 32.6712 5.90779 3.10703 0
M  V30 358 H 31.9412 0.381374 0.635323 0
M  V30 359 H 34.5882 1.51732 1.16831 0
M  V30 360 H 32.8932 1.14147 3.74803 0
M  V30 361 H 34.5902 1.53059 3.7064 0
M  V30 362 H 31.1802 2.86659 3.18629 0
M  V30 363 H 35.3642 3.84605 3.13676 0
M  V30 364 H 30.6202 5.25916 3.11805 0
M  V30 365 H 34.7942 6.24576 3.08022 0
M  V30 366 H 32.4212 6.9562 3.06622 0
M  V30 367 N 33.9963 -1.19345 1.0293 0
M  V30 368 C 35.2443 -1.88665 0.724574 0
M  V30 369 C 35.5653 -1.80036 -0.749144 0
M  V30 370 O 34.8353 -1.2111 -1.53978 0
M  V30 371 H 33.4153 -0.698406 0.265025 0
M  V30 372 H 36.0773 -1.44885 1.30362 0
M  V30 373 H 35.1733 -2.94987 1.01926 0
M  V30 374 N 35.4744 -0.807222 -1.35358 0
M  V30 375 C 36.8904 -0.491038 -1.51858 0
M  V30 376 C 37.0904 0.987648 -1.75635 0
M  V30 377 O 36.1464 1.77265 -1.79815 0
M  V30 378 C 37.4594 -1.33695 -2.69344 0
M  V30 379 C 39.0074 -1.33246 -2.83222 0
M  V30 380 C 39.4824 -2.1625 -4.03733 0
M  V30 381 N 40.9734 -2.1379 -4.10911 0
M  V30 382 C 41.7084 -2.74772 -5.03277 0
M  V30 383 N 41.2044 -3.44684 -6.0097 0
M  V30 384 N 42.9974 -2.6441 -4.96028 0
M  V30 385 H 35.1484 -1.76485 -1.18181 0
M  V30 386 H 37.4114 -0.751199 -0.578276 0
M  V30 387 H 37.1174 -2.38634 -2.58354 0
M  V30 388 H 36.9914 -0.990618 -3.6396 0
M  V30 389 H 39.3784 -0.290911 -2.93663 0
M  V30 390 H 39.4594 -1.71866 -1.89461 0
M  V30 391 H 39.1034 -3.20445 -3.94052 0
M  V30 392 H 39.0334 -1.74989 -4.96675 0
M  V30 393 H 41.5244 -1.62923 -3.40976 0
M  V30 394 H 41.8374 -3.88501 -6.68047 0
M  V30 395 H 40.1824 -3.48788 -6.01142 0
M  V30 396 H 43.3734 -2.0938 -4.18662 0
M  V30 397 H 43.5464 -3.12225 -5.6782 0
M  V30 398 N 36.9525 1.47285 -0.560781 0
M  V30 399 C 37.8995 2.30058 0.18491 0
M  V30 400 C 38.8695 1.39281 0.904986 0
M  V30 401 O 40.0545 1.68241 0.899979 0
M  V30 402 C 37.1945 3.23317 1.20666 0
M  V30 403 C 36.3075 4.29186 0.492285 0
M  V30 404 C 35.4425 5.09592 1.49964 0
M  V30 405 C 34.4815 6.07232 0.770439 0
M  V30 406 N 33.6185 6.80584 1.72479 0
M  V30 407 H 38.4585 2.93302 -0.527048 0
M  V30 408 H 35.9955 1.44568 -0.271738 0
M  V30 409 H 37.9535 3.75811 1.81168 0
M  V30 410 H 36.5835 2.61929 1.88661 0
M  V30 411 H 35.6355 3.7972 -0.227333 0
M  V30 412 H 36.9475 4.98738 -0.0787929 0
M  V30 413 H 36.1015 5.66254 2.17809 0
M  V30 414 H 34.8405 4.3995 2.10464 0
M  V30 415 H 33.8455 5.49745 0.0780846 0
M  V30 416 H 35.0705 6.78884 0.171134 0
M  V30 417 H 33.0165 6.1367 2.3183 0
M  V30 418 H 32.9335 7.46319 1.20596 0
M  V30 419 H 34.2015 7.41818 2.39428 0
M  V30 420 N 38.4306 0.297415 1.54768 0
M  V30 421 C 39.7076 -0.365847 1.92148 0
M  V30 422 C 40.0876 -1.71975 1.22424 0
M  V30 423 O 39.4356 -2.25666 0.358739 0
M  V30 424 C 39.6456 -0.484056 3.45627 0
M  V30 425 C 40.9936 -0.756594 4.17805 0
M  V30 426 O 42.0176 -0.568007 3.51642 0
M  V30 427 O 40.8766 -1.11863 5.34929 0
M  V30 428 H 37.9706 -0.203919 0.801465 0
M  V30 429 H 40.5166 0.34521 1.66152 0
M  V30 430 H 39.2886 0.467865 3.88493 0
M  V30 431 H 38.9116 -1.24372 3.77647 0
M  V30 432 N 39.9087 -1.5758 0.0250728 0
M  V30 433 C 41.1577 -1.90811 -0.653767 0
M  V30 434 C 41.4707 -0.90273 -1.73523 0
M  V30 435 O 42.6767 -1.12614 -2.47043 0
M  V30 436 C 41.1327 -3.38804 -1.21409 0
M  V30 437 C 40.7407 -4.47692 -0.166126 0
M  V30 438 C 42.4847 -3.81108 -1.86967 0
M  V30 439 C 40.3917 -5.86779 -0.737856 0
M  V30 440 H 39.3217 -0.712063 -0.247956 0
M  V30 441 H 41.9727 -1.83281 0.0897137 0
M  V30 442 H 40.3547 -3.41252 -2.00905 0
M  V30 443 H 41.5287 -4.56797 0.606079 0
M  V30 444 H 39.8437 -4.14565 0.390466 0
M  V30 445 H 42.4407 -4.82375 -2.30692 0
M  V30 446 H 42.7837 -3.15953 -2.71071 0
M  V30 447 H 43.3167 -3.81065 -1.14167 0
M  V30 448 H 40.0557 -6.55468 0.0649577 0
M  V30 449 H 39.5757 -5.81288 -1.47864 0
M  V30 450 H 41.2547 -6.35223 -1.22884 0
M  V30 451 N 41.3868 0.248026 -1.55636 0
M  V30 452 C 42.2968 1.32859 -1.93354 0
M  V30 453 C 43.3128 1.52719 -0.833838 0
M  V30 454 O 44.4888 1.66363 -1.13513 0
M  V30 455 C 41.5538 2.66337 -2.21958 0
M  V30 456 C 40.6148 2.55008 -3.45354 0
M  V30 457 C 39.8478 3.82121 -3.72584 0
M  V30 458 O 40.0708 4.83951 -3.01907 0
M  V30 459 O 39.0048 3.80822 -4.6611 0
M  V30 460 H 42.8308 1.03862 -2.85388 0
M  V30 461 H 40.4158 0.448686 -1.42503 0
M  V30 462 H 42.2978 3.45216 -2.4167 0
M  V30 463 H 40.9728 2.95068 -1.33103 0
M  V30 464 H 39.8798 1.7442 -3.30951 0
M  V30 465 H 41.2128 2.31222 -4.34508 0
M  V30 466 N 42.8649 1.48995 0.513639 0
M  V30 467 C 44.1109 1.58076 1.27042 0
M  V30 468 C 44.4439 0.261026 1.92438 0
M  V30 469 O 43.7189 -0.734393 1.80103 0
M  V30 470 C 44.0019 2.73091 2.34719 0
M  V30 471 C 43.8549 4.14821 1.73907 0
M  V30 472 C 45.1739 2.83796 3.36375 0
M  V30 473 H 42.2929 0.575391 0.460536 0
M  V30 474 H 44.9349 1.81232 0.570516 0
M  V30 475 H 43.0849 2.53479 2.94416 0
M  V30 476 H 44.7569 4.45917 1.18135 0
M  V30 477 H 42.9999 4.21058 1.0437 0
M  V30 478 H 43.6709 4.91147 2.51949 0
M  V30 479 H 46.1469 3.01611 2.86653 0
M  V30 480 H 45.0229 3.65971 4.09093 0
M  V30 481 H 45.2839 1.92624 3.9793 0
M  V30 482 N 44.343 -0.763751 1.37857 0
M  V30 483 C 45.589 -1.52483 1.33704 0
M  V30 484 C 45.922 -1.94051 -0.0759612 0
M  V30 485 O 45.197 -1.64675 -1.03501 0
M  V30 486 C 45.48 -2.78441 2.28348 0
M  V30 487 C 45.333 -2.43075 3.78463 0
M  V30 488 C 46.652 -3.80415 2.21298 0
M  V30 489 H 43.771 -0.553169 0.487005 0
M  V30 490 H 46.413 -0.875562 1.68624 0
M  V30 491 H 44.563 -3.33842 1.987 0
M  V30 492 H 46.235 -1.93527 4.18742 0
M  V30 493 H 44.478 -1.75666 3.96641 0
M  V30 494 H 45.149 -3.33149 4.40132 0
M  V30 495 H 47.625 -3.34527 2.47449 0
M  V30 496 H 46.501 -4.66257 2.89647 0
M  V30 497 H 46.762 -4.25262 1.20849 0
M  V30 498 N 45.8211 -1.22559 -0.990812 0
M  V30 499 C 46.7841 -0.998863 -2.0629 0
M  V30 500 C 47.7841 0.0354834 -1.60761 0
M  V30 501 O 48.9741 -0.203231 -1.7301 0
M  V30 502 C 46.1061 -0.509203 -3.37076 0
M  V30 503 H 47.2991 -1.95014 -2.27837 0
M  V30 504 H 44.8521 -1.04456 -1.16269 0
M  V30 505 H 45.5871 0.446335 -3.21214 0
M  V30 506 H 45.3721 -1.25547 -3.71457 0
M  V30 507 H 46.8621 -0.370888 -4.1595 0
M  V30 508 N 47.2992 1.18797 -1.03562 0
M  V30 509 C 48.5482 1.87978 -0.731235 0
M  V30 510 C 48.8612 1.80911 0.743671 0
M  V30 511 O 50.0672 2.45407 1.16137 0
M  V30 512 C 48.5232 3.3721 -1.25768 0
M  V30 513 C 48.1312 3.52818 -2.76085 0
M  V30 514 C 49.8752 4.11825 -1.0296 0
M  V30 515 C 47.7822 4.9598 -3.22114 0
M  V30 516 H 46.7122 0.704063 -0.269835 0
M  V30 517 H 49.3632 1.34266 -1.25079 0
M  V30 518 H 47.7452 3.90359 -0.666011 0
M  V30 519 H 48.9192 3.09965 -3.40966 0
M  V30 520 H 47.2342 2.91602 -2.97249 0
M  V30 521 H 49.8312 5.17411 -1.34869 0
M  V30 522 H 50.1742 4.16287 0.0333546 0
M  V30 523 H 50.7072 3.64833 -1.58562 0
M  V30 524 H 47.4462 4.96684 -4.27768 0
M  V30 525 H 46.9662 5.39569 -2.61965 0
M  V30 526 H 48.6452 5.6467 -3.15844 0
M  V30 527 N 48.7773 0.814389 1.34928 0
M  V30 528 C 49.7253 0.218424 2.31572 0
M  V30 529 C 50.7193 -0.636128 1.57002 0
M  V30 530 O 51.9253 -0.52842 1.72069 0
M  V30 531 H 48.3003 0.0518799 0.750208 0
M  V30 532 H 50.2713 1.04852 2.79372 0
M  V30 533 C 49.0203 -0.61207 3.4227 0
M  V30 534 H 48.3433 0.0361578 3.99784 0
M  V30 535 H 49.7833 -0.995317 4.12152 0
M  V30 536 C 48.2423 -1.78087 2.85984 0
M  V30 537 O 48.7723 -2.8787 2.80168 0
M  V30 538 N 46.9783 -1.59488 2.42924 0
M  V30 539 H 46.5253 -0.701874 2.47854 0
M  V30 540 H 46.4833 -2.37846 2.05613 0
M  V30 541 N 50.2554 -1.46986 0.568584 0
M  V30 542 C 51.5324 -1.95592 -0.0174074 0
M  V30 543 C 51.9124 -1.51124 -1.47393 0
M  V30 544 O 51.2604 -0.755329 -2.15655 0
M  V30 545 C 51.4704 -3.48719 0.139913 0
M  V30 546 C 52.8184 -4.246 0.000426376 0
M  V30 547 O 53.8424 -3.56135 0.0680316 0
M  V30 548 O 52.7014 -5.46302 -0.146988 0
M  V30 549 H 49.7954 -0.82498 -0.0577599 0
M  V30 550 H 52.3414 -1.57335 0.635909 0
M  V30 551 H 51.1134 -3.73927 1.15301 0
M  V30 552 H 50.7364 -3.93771 -0.550491 0
M  V30 553 N 51.7335 -0.305618 -1.54608 0
M  V30 554 C 53.1445 0.186098 -1.8577 0
M  V30 555 C 53.4955 1.53058 -1.22751 0
M  V30 556 O 52.6205 2.09888 -0.526893 0
M  V30 557 C 53.2155 0.344449 -3.37044 0
M  V30 558 C 51.7745 0.780384 -3.68221 0
M  V30 559 C 50.9215 -0.108554 -2.77087 0
M  V30 560 H 53.8725 -0.526485 -1.49712 0
M  V30 561 H 53.8935 1.17828 -3.61796 0
M  V30 562 H 53.4055 -0.634235 -3.82883 0
M  V30 563 H 51.5065 1.76945 -3.27904 0
M  V30 564 H 51.6195 0.596572 -4.75371 0
M  V30 565 H 49.9835 0.412931 -2.5133 0
M  V30 566 H 50.7665 -1.08368 -3.25747 0
M  V30 567 N 53.2116 1.57565 -0.0334293 0
M  V30 568 C 54.4586 1.91978 0.644272 0
M  V30 569 C 54.7866 0.910231 1.71887 0
M  V30 570 O 54.0416 -0.0801961 1.95536 0
M  V30 571 C 54.3406 3.33112 1.29504 0
M  V30 572 C 54.0066 4.49537 0.350388 0
M  V30 573 C 52.6686 4.81115 0.0903974 0
M  V30 574 C 55.0206 5.20347 -0.298032 0
M  V30 575 C 52.3486 5.8086 -0.825746 0
M  V30 576 C 54.7006 6.2107 -1.20226 0
M  V30 577 C 53.3646 6.51088 -1.4711 0
M  V30 578 H 52.6346 0.702496 0.235756 0
M  V30 579 H 55.2816 1.91259 -0.0961176 0
M  V30 580 H 53.5866 3.30113 2.11028 0
M  V30 581 H 55.2836 3.57011 1.82603 0
M  V30 582 H 51.8736 4.24883 0.563205 0
M  V30 583 H 56.0576 4.96178 -0.110234 0
M  V30 584 H 51.3136 6.02461 -1.04169 0
M  V30 585 H 55.4876 6.75057 -1.71086 0
M  V30 586 H 53.1146 7.28193 -2.18264 0
M  V30 587 N 54.6897 -0.239769 1.55765 0
M  V30 588 C 55.6227 -1.32356 1.85895 0
M  V30 589 C 56.6007 -1.46053 0.714662 0
M  V30 590 O 57.7847 -1.62154 0.961157 0
M  V30 591 C 54.9117 -2.6962 2.04994 0
M  V30 592 C 53.9577 -2.73036 3.27648 0
M  V30 593 S 54.7907 -2.28929 4.84099 0
M  V30 594 C 55.9467 -3.68103 5.06212 0
M  V30 595 H 56.1797 -1.06601 2.77531 0
M  V30 596 H 53.7127 -0.441112 1.47965 0
M  V30 597 H 55.6707 -3.48653 2.16682 0
M  V30 598 H 54.3317 -2.92609 1.14188 0
M  V30 599 H 53.5247 -3.7386 3.38 0
M  V30 600 H 53.1267 -2.02052 3.14723 0
M  V30 601 H 55.4187 -4.63656 4.93993 0
M  V30 602 H 56.3617 -3.6268 6.08168 0
M  V30 603 H 56.7697 -3.60947 4.34025 0
M  V30 604 N 56.1678 -1.49265 -0.50573 0
M  V30 605 C 57.4448 -1.49012 -1.26707 0
M  V30 606 C 57.8248 -0.215205 -2.1 0
M  V30 607 O 57.1728 0.802547 -2.13943 0
M  V30 608 C 57.3828 -2.7663 -2.12783 0
M  V30 609 C 58.7308 -3.25932 -2.72127 0
M  V30 610 O 59.7548 -2.77715 -2.23054 0
M  V30 611 O 58.6138 -4.09897 -3.61451 0
M  V30 612 H 55.7078 -0.596197 -0.57313 0
M  V30 613 H 58.2538 -1.61524 -0.52039 0
M  V30 614 H 57.0258 -3.60916 -1.5118 0
M  V30 615 H 56.6488 -2.66956 -2.94653 0
M  V30 616 N 57.6459 0.756429 -1.3826 0
M  V30 617 C 58.5759 1.88374 -1.37976 0
M  V30 618 C 59.5569 1.68311 -0.246082 0
M  V30 619 O 60.7419 1.88944 -0.44874 0
M  V30 620 C 57.8719 3.25864 -1.20125 0
M  V30 621 C 56.8259 3.60523 -2.30666 0
M  V30 622 C 56.1519 4.9672 -1.97923 0
M  V30 623 C 57.4519 3.65692 -3.72916 0
M  V30 624 H 59.1459 1.88869 -2.32312 0
M  V30 625 H 56.6919 0.907272 -1.11824 0
M  V30 626 H 58.6449 4.0438 -1.18552 0
M  V30 627 H 57.3689 3.25841 -0.222498 0
M  V30 628 H 56.0279 2.84324 -2.3142 0
M  V30 629 H 55.6759 4.93253 -0.985393 0
M  V30 630 H 55.3759 5.20878 -2.71955 0
M  V30 631 H 56.8999 5.77618 -1.97964 0
M  V30 632 H 58.3139 4.34328 -3.74208 0
M  V30 633 H 56.7109 4.01358 -4.4613 0
M  V30 634 H 57.7809 2.65987 -4.05436 0
M  V30 635 N 59.124 1.23083 0.984299 0
M  V30 636 C 60.072 1.00593 2.09723 0
M  V30 637 C 61.066 -0.0538014 1.69315 0
M  V30 638 O 62.272 0.0993719 1.79725 0
M  V30 639 H 58.647 0.30817 0.685956 0
M  V30 640 H 60.618 1.95012 2.2586 0
M  V30 641 C 59.367 0.609601 3.42314 0
M  V30 642 H 58.69 1.41675 3.73856 0
M  V30 643 H 60.13 0.491726 4.21139 0
M  V30 644 C 58.589 -0.681745 3.2993 0
M  V30 645 O 59.119 -1.73192 3.62446 0
M  V30 646 N 57.325 -0.656178 2.83095 0
M  V30 647 H 56.872 0.198759 2.56832 0
M  V30 648 H 56.83 -1.52044 2.75191 0
M  V30 649 N 60.6021 -1.18246 1.0419 0
M  V30 650 C 61.5521 -2.19843 0.604392 0
M  V30 651 C 62.5361 -1.56962 -0.353814 0
M  V30 652 O 63.7281 -1.76156 -0.17267 0
M  V30 653 C 60.8571 -3.43287 -0.0298975 0
M  V30 654 C 59.9431 -4.13288 0.951531 0
M  V30 655 N 60.3341 -4.59271 2.11906 0
M  V30 656 C 58.6321 -4.39165 0.7778 0
M  V30 657 C 59.3331 -5.13173 2.73912 0
M  V30 658 N 58.3091 -5.04763 2.01779 0
M  V30 659 H 62.1111 -2.53089 1.4941 0
M  V30 660 H 59.6251 -1.34465 0.910658 0
M  V30 661 H 61.6221 -4.15334 -0.361037 0
M  V30 662 H 60.2821 -3.11537 -0.915127 0
M  V30 663 H 61.2931 -4.5368 2.49789 0
M  V30 664 H 57.9701 -4.17461 -0.0572331 0
M  V30 665 H 59.3601 -5.58947 3.72864 0
M  V30 666 N 62.0802 -0.821533 -1.34494 0
M  V30 667 C 63.0102 -0.257138 -2.3208 0
M  V30 668 C 63.9912 0.625645 -1.58176 0
M  V30 669 O 65.1762 0.552811 -1.86166 0
M  V30 670 C 62.3062 0.582958 -3.42372 0
M  V30 671 C 61.2602 -0.202571 -4.2752 0
M  V30 672 C 60.5862 0.760179 -5.29269 0
M  V30 673 C 61.8862 -1.40998 -5.02908 0
M  V30 674 H 63.5802 -1.07247 -2.79532 0
M  V30 675 H 61.1262 -0.517163 -1.34393 0
M  V30 676 H 63.0792 0.987972 -4.09655 0
M  V30 677 H 61.8032 1.43133 -2.93565 0
M  V30 678 H 60.4622 -0.588936 -3.61838 0
M  V30 679 H 60.1102 1.60447 -4.76724 0
M  V30 680 H 59.8102 0.238809 -5.87115 0
M  V30 681 H 61.3342 1.16308 -5.9942 0
M  V30 682 H 62.7482 -1.07905 -5.63054 0
M  V30 683 H 61.1452 -1.86689 -5.70322 0
M  V30 684 H 62.2152 -2.1889 -4.32684 0
M  V30 685 N 63.5583 1.46682 -0.576371 0
M  V30 686 C 64.7983 2.04306 -0.0621356 0
M  V30 687 C 65.1623 1.4389 1.2712 0
M  V30 688 O 66.3633 1.92675 1.87429 0
M  V30 689 C 64.6343 3.57399 0.00927922 0
M  V30 690 S 66.1933 4.36309 0.466859 0
M  V30 691 H 63.0113 0.710167 -0.0344016 0
M  V30 692 H 65.6133 1.79807 -0.767437 0
M  V30 693 H 64.3173 3.98889 -0.965178 0
M  V30 694 H 63.8483 3.86424 0.737547 0
M  V30 695 H 65.8633 4.6533 1.72287 0
M  V30 696 N 65.0364 0.313813 1.54444 0
M  V30 697 C 66.2664 -0.293491 2.04505 0
M  V30 698 C 66.6744 -1.47086 1.19005 0
M  V30 699 O 66.0174 -1.82481 0.211257 0
M  V30 700 C 66.0794 -0.800455 3.50475 0
M  V30 701 C 65.7434 0.253322 4.56297 0
M  V30 702 C 66.7404 1.08612 5.08428 0
M  V30 703 C 64.4254 0.398708 5.00715 0
M  V30 704 C 66.4194 2.05013 6.0353 0
M  V30 705 C 64.1064 1.36614 5.95634 0
M  V30 706 C 65.1044 2.19033 6.46926 0
M  V30 707 O 64.7924 3.14134 7.39983 0
M  V30 708 H 64.5244 -0.0658325 0.672787 0
M  V30 709 H 67.0784 0.455177 2.00293 0
M  V30 710 H 65.3084 -1.59987 3.52053 0
M  V30 711 H 66.9974 -1.32504 3.83663 0
M  V30 712 H 67.7634 0.984736 4.74898 0
M  V30 713 H 63.6424 -0.23289 4.60411 0
M  V30 714 H 67.1864 2.69382 6.4349 0
M  V30 715 H 63.0834 1.4682 6.28581 0
M  V30 716 H 63.8514 3.0926 7.57826 0
M  V30 717 N 66.5145 -1.57545 0.0417849 0
M  V30 718 C 67.4445 -2.14009 -0.933929 0
M  V30 719 C 68.4255 -1.05938 -1.33083 0
M  V30 720 O 69.6105 -1.33833 -1.40721 0
M  V30 721 C 66.7405 -2.67747 -2.21199 0
M  V30 722 C 65.6945 -3.80718 -1.95544 0
M  V30 723 C 65.0205 -4.20935 -3.29724 0
M  V30 724 C 66.3205 -5.06258 -1.28452 0
M  V30 725 H 68.0145 -2.95788 -0.463645 0
M  V30 726 H 65.5605 -1.42285 -0.221573 0
M  V30 727 H 67.5135 -3.05886 -2.89848 0
M  V30 728 H 66.2375 -1.83147 -2.70416 0
M  V30 729 H 64.8965 -3.43037 -1.2931 0
M  V30 730 H 64.5445 -3.33298 -3.76724 0
M  V30 731 H 64.2445 -4.9707 -3.13361 0
M  V30 732 H 65.7685 -4.61666 -3.9962 0
M  V30 733 H 67.1825 -5.41903 -1.8712 0
M  V30 734 H 65.5795 -5.87475 -1.22445 0
M  V30 735 H 66.6495 -4.84207 -0.259219 0
M  V30 736 N 67.9926 0.231505 -1.5589 0
M  V30 737 C 68.9226 1.29022 -1.94617 0
M  V30 738 C 69.9036 1.4941 -0.813067 0
M  V30 739 O 71.0886 1.6176 -1.07459 0
M  V30 740 C 68.2186 2.64199 -2.25424 0
M  V30 741 C 67.1726 2.58484 -3.41131 0
M  V30 742 C 66.4986 3.97599 -3.57518 0
M  V30 743 C 67.7986 2.1413 -4.76388 0
M  V30 744 H 69.4926 0.968563 -2.83301 0
M  V30 745 H 67.0386 0.464479 -1.36303 0
M  V30 746 H 68.9916 3.38413 -2.51107 0
M  V30 747 H 67.7156 2.98032 -1.33583 0
M  V30 748 H 66.3746 1.86727 -3.15481 0
M  V30 749 H 66.0226 4.28723 -2.6307 0
M  V30 750 H 65.7226 3.94659 -4.35337 0
M  V30 751 H 67.2466 4.7349 -3.85538 0
M  V30 752 H 68.6606 2.78083 -5.01341 0
M  V30 753 H 67.0576 2.2227 -5.57419 0
M  V30 754 H 68.1276 1.09331 -4.72414 0
M  V30 755 N 69.4707 1.49531 0.497807 0
M  V30 756 C 70.4177 1.66436 1.59899 0
M  V30 757 C 71.3877 0.505793 1.58212 0
M  V30 758 O 72.5727 0.733202 1.7615 0
M  V30 759 C 69.7127 1.7399 2.98029 0
M  V30 760 C 68.8257 3.01172 3.09708 0
M  V30 761 C 67.9607 2.99686 4.38591 0
M  V30 762 C 66.9997 4.21434 4.43914 0
M  V30 763 N 66.1367 4.1784 5.64229 0
M  V30 764 H 70.9767 2.60459 1.44793 0
M  V30 765 H 68.5137 1.29137 0.704423 0
M  V30 766 H 70.4717 1.76352 3.78095 0
M  V30 767 H 69.1017 0.834301 3.11832 0
M  V30 768 H 68.1537 3.08408 2.22685 0
M  V30 769 H 69.4657 3.91165 3.09502 0
M  V30 770 H 68.6197 3.00628 5.2698 0
M  V30 771 H 67.3587 2.07477 4.41367 0
M  V30 772 H 66.3637 4.20733 3.53926 0
M  V30 773 H 67.5887 5.14839 4.42851 0
M  V30 774 H 65.5347 3.28469 5.67841 0
M  V30 775 H 65.4517 5.01571 5.65652 0
M  V30 776 H 66.7197 4.22889 6.54817 0
M  V30 777 N 70.9488 -0.749086 1.3866 0
M  V30 778 C 72.1788 -1.53611 1.38157 0
M  V30 779 C 72.5868 -1.89177 -0.0293595 0
M  V30 780 O 71.9298 -1.53606 -1.00752 0
M  V30 781 C 71.9918 -2.86087 2.17702 0
M  V30 782 C 71.6558 -2.73034 3.66472 0
M  V30 783 C 72.6528 -2.42526 4.59866 0
M  V30 784 C 70.3378 -2.90345 4.09884 0
M  V30 785 C 72.3318 -2.29492 5.94653 0
M  V30 786 C 70.0188 -2.7693 5.4475 0
M  V30 787 C 71.0168 -2.46547 6.36949 0
M  V30 788 O 70.7048 -2.33199 7.69333 0
M  V30 789 H 70.4368 -0.481773 0.474205 0
M  V30 790 H 72.9908 -0.934465 1.82912 0
M  V30 791 H 71.2208 -3.48458 1.67672 0
M  V30 792 H 72.9098 -3.47625 2.09551 0
M  V30 793 H 73.6758 -2.28816 4.27631 0
M  V30 794 H 69.5548 -3.1299 3.38464 0
M  V30 795 H 73.0988 -2.05698 6.66584 0
M  V30 796 H 68.9958 -2.90215 5.76581 0
M  V30 797 H 69.7638 -2.48376 7.79905 0
M  V30 798 N 72.4269 -1.23603 -0.977757 0
M  V30 799 C 73.7039 -0.977897 -1.69401 0
M  V30 800 C 74.0839 0.502738 -2.05026 0
M  V30 801 O 73.4319 1.47459 -1.74551 0
M  V30 802 C 73.6419 -1.89077 -2.93345 0
M  V30 803 C 74.9899 -2.15579 -3.65802 0
M  V30 804 O 76.0139 -1.86648 -3.03383 0
M  V30 805 O 74.8729 -2.64658 -4.78141 0
M  V30 806 H 71.9669 -0.369025 -0.740101 0
M  V30 807 H 74.5129 -1.34657 -1.03274 0
M  V30 808 H 73.2849 -2.89158 -2.63634 0
M  V30 809 H 72.9079 -1.52463 -3.67207 0
M  V30 810 N 73.905 1.17692 -1.04816 0
M  V30 811 C 75.13 1.92327 -0.776207 0
M  V30 812 C 75.555 1.76082 0.661581 0
M  V30 813 O 74.913 1.076 1.45917 0
M  V30 814 C 74.961 3.41539 -1.15687 0
M  V30 815 O 74.065 4.11402 -0.286775 0
M  V30 816 H 73.406 0.599735 -0.284981 0
M  V30 817 H 75.936 1.49201 -1.4 0
M  V30 818 H 75.946 3.92269 -1.12202 0
M  V30 819 H 74.621 3.52684 -2.20425 0
M  V30 820 H 73.198 3.70939 -0.381903 0
M  V30 821 N 75.3831 0.828654 1.34056 0
M  V30 822 C 76.6291 0.42008 1.98402 0
M  V30 823 C 76.9621 -1.01564 1.65525 0
M  V30 824 O 76.2371 -1.70834 0.929831 0
M  V30 825 C 76.5201 0.62927 3.54559 0
M  V30 826 C 76.3731 2.11152 3.97159 0
M  V30 827 C 77.6921 0.0688756 4.40046 0
M  V30 828 H 74.8111 0.154104 0.720709 0
M  V30 829 H 77.4531 1.04228 1.5886 0
M  V30 830 H 75.6031 0.0996418 3.88372 0
M  V30 831 H 77.2751 2.70522 3.73651 0
M  V30 832 H 75.5181 2.59985 3.47261 0
M  V30 833 H 76.1891 2.20868 5.05887 0
M  V30 834 H 78.6651 0.521458 4.1282 0
M  V30 835 H 77.5411 0.245006 5.48353 0
M  V30 836 H 77.8021 -1.0266 4.30015 0
M  V30 837 N 76.8612 -1.46375 0.584142 0
M  V30 838 C 77.8112 -2.27371 -0.169232 0
M  V30 839 C 78.7952 -1.35955 -0.860523 0
M  V30 840 O 79.9872 -1.60119 -0.754382 0
M  V30 841 C 77.1162 -3.22334 -1.18134 0
M  V30 842 C 76.2022 -4.21235 -0.492088 0
M  V30 843 N 76.5932 -5.03766 0.453129 0
M  V30 844 C 74.8912 -4.39773 -0.742652 0
M  V30 845 C 75.5922 -5.75366 0.85609 0
M  V30 846 N 74.5682 -5.43214 0.204926 0
M  V30 847 H 78.3702 -2.88572 0.557097 0
M  V30 848 H 75.8842 -1.57242 0.406042 0
M  V30 849 H 77.8812 -3.79071 -1.73525 0
M  V30 850 H 76.5412 -2.62693 -1.90847 0
M  V30 851 H 77.5522 -5.11227 0.828723 0
M  V30 852 H 74.2292 -3.91279 -1.45625 0
M  V30 853 H 75.6192 -6.5172 1.63434 0
M  V30 854 N 78.3393 -0.321999 -1.54275 0
M  V30 855 C 79.5873 0.280489 -2.00144 0
M  V30 856 C 79.9083 1.52777 -1.21178 0
M  V30 857 O 79.1783 1.9338 -0.313187 0
M  V30 858 H 77.7583 0.106632 -0.73935 0
M  V30 859 H 80.4203 -0.438184 -1.8991 0
M  V30 860 H 79.5163 0.537972 -3.07428 0
M  V30 861 N 79.8174 1.5752 -0.0501392 0
M  V30 862 C 80.7494 2.08413 0.95376 0
M  V30 863 C 81.7624 1.01175 1.27544 0
M  V30 864 O 82.9514 1.28744 1.23641 0
M  V30 865 C 80.0514 2.51138 2.27559 0
M  V30 866 C 79.2244 3.817 2.13598 0
M  V30 867 C 78.2834 4.10749 3.28895 0
M  V30 868 O 77.3094 4.80685 3.04845 0
M  V30 869 N 78.5114 3.62579 4.5334 0
M  V30 870 H 81.2764 2.95165 0.519383 0
M  V30 871 H 78.8374 1.61327 0.136127 0
M  V30 872 H 80.8294 2.67648 3.03557 0
M  V30 873 H 79.3994 1.6964 2.62567 0
M  V30 874 H 78.6194 3.74782 1.22197 0
M  V30 875 H 79.9074 4.67201 2.01496 0
M  V30 876 H 79.3054 3.06039 4.75769 0
M  V30 877 H 77.8624 3.84329 5.26436 0
M  V30 878 N 81.2955 -0.223234 1.56011 0
M  V30 879 C 82.5425 -0.947875 1.78946 0
M  V30 880 C 82.8705 -1.844 0.618608 0
M  V30 881 O 82.1255 -1.91629 -0.397093 0
M  V30 882 C 82.4245 -1.81948 3.0762 0
M  V30 883 C 82.0905 -1.07672 4.37856 0
M  V30 884 C 80.7525 -0.871544 4.73242 0
M  V30 885 C 83.1045 -0.552081 5.18268 0
M  V30 886 C 80.4325 -0.129791 5.86556 0
M  V30 887 C 82.7845 0.17632 6.32354 0
M  V30 888 C 81.4485 0.39277 6.66343 0
M  V30 889 H 80.7185 -0.346852 0.654809 0
M  V30 890 H 83.3655 -0.216171 1.90276 0
M  V30 891 H 81.6705 -2.61899 2.91404 0
M  V30 892 H 83.3675 -2.38227 3.22566 0
M  V30 893 H 79.9575 -1.24662 4.1007 0
M  V30 894 H 84.1415 -0.698076 4.91366 0
M  V30 895 H 79.3975 0.048153 6.11381 0
M  V30 896 H 83.5715 0.590367 6.93893 0
M  V30 897 H 81.1985 0.969466 7.53993 0
M  V30 898 N 82.7736 -1.49793 -0.48987 0
M  V30 899 C 84.1846 -1.52914 -1.07118 0
M  V30 900 C 84.5356 -0.321738 -1.93544 0
M  V30 901 O 83.6606 0.567338 -2.08831 0
M  V30 902 C 84.2556 -2.771 -1.94938 0
M  V30 903 C 82.8146 -2.82963 -2.48212 0
M  V30 904 C 81.9616 -2.46972 -1.26096 0
M  V30 905 H 84.9126 -1.56329 -0.273289 0
M  V30 906 H 84.9336 -2.57892 -2.79771 0
M  V30 907 H 84.4456 -3.64959 -1.32009 0
M  V30 908 H 82.5466 -1.99411 -3.14748 0
M  V30 909 H 82.6596 -3.85406 -2.84603 0
M  V30 910 H 81.0236 -1.98994 -1.58976 0
M  V30 911 H 81.8066 -3.37118 -0.648581 0
M  V30 912 N 84.2517 0.741722 -1.39055 0
M  V30 913 C 85.4917 1.51385 -1.37338 0
M  V30 914 C 85.8557 1.91972 0.0330513 0
M  V30 915 O 87.0567 2.68229 0.175174 0
M  V30 916 C 85.3277 2.72481 -2.31276 0
M  V30 917 S 86.8867 3.62211 -2.47687 0
M  V30 918 H 83.7047 0.517906 -0.487129 0
M  V30 919 H 86.3067 0.86969 -1.7509 0
M  V30 920 H 85.0107 2.40793 -3.32336 0
M  V30 921 H 84.5417 3.41832 -1.94716 0
M  V30 922 H 86.5567 4.65812 -1.70978 0
M  V30 923 N 85.7298 1.2412 0.971189 0
M  V30 924 C 86.6398 1.04747 2.09917 0
M  V30 925 C 87.6558 -0.0107162 1.73997 0
M  V30 926 O 88.8318 0.186714 2.00533 0
M  V30 927 C 85.8968 0.650828 3.40537 0
M  V30 928 C 84.9578 1.7851 3.90426 0
M  V30 929 C 84.1908 1.40729 5.14812 0
M  V30 930 O 84.4138 0.29557 5.69634 0
M  V30 931 O 83.3478 2.23168 5.58999 0
M  V30 932 H 87.1738 1.99304 2.29154 0
M  V30 933 H 84.7588 1.02908 1.08307 0
M  V30 934 H 86.6408 0.440992 4.19086 0
M  V30 935 H 85.3158 -0.265649 3.22608 0
M  V30 936 H 84.2228 2.04966 3.12953 0
M  V30 937 H 85.5558 2.68023 4.12825 0
M  V30 938 N 87.2079 -1.17134 1.05439 0
M  V30 939 C 88.4539 -1.87733 0.767077 0
M  V30 940 C 88.7869 -1.8098 -0.704253 0
M  V30 941 O 88.0619 -1.21951 -1.5152 0
M  V30 942 C 88.3449 -3.37659 1.25133 0
M  V30 943 C 88.1979 -3.53149 2.78578 0
M  V30 944 C 89.5169 -4.31768 0.852324 0
M  V30 945 H 86.6359 -0.681687 0.280129 0
M  V30 946 H 89.2779 -1.37732 1.30881 0
M  V30 947 H 87.4279 -3.80373 0.790469 0
M  V30 948 H 89.0999 -3.19434 3.32806 0
M  V30 949 H 87.3429 -2.95345 3.17732 0
M  V30 950 H 88.0139 -4.58403 3.07523 0
M  V30 951 H 90.4899 -3.96909 1.24911 0
M  V30 952 H 89.3659 -5.35199 1.21873 0
M  V30 953 H 89.6269 -4.41429 -0.243485 0
M  V30 954 N 88.686 -0.835752 -1.33615 0
M  V30 955 C 89.914 -0.443344 -2.02094 0
M  V30 956 C 90.329 0.954522 -1.62894 0
M  V30 957 O 89.686 1.61982 -0.840723 0
M  V30 958 C 89.737 -0.550775 -3.5728 0
M  V30 959 O 89.458 -1.89356 -3.95065 0
M  V30 960 C 90.959 -0.154919 -4.43029 0
M  V30 961 H 88.179 -0.176359 -0.647409 0
M  V30 962 H 90.723 -1.12746 -1.70612 0
M  V30 963 H 88.878 0.0853997 -3.87306 0
M  V30 964 H 89.292 -1.87687 -4.89769 0
M  V30 965 H 90.766 -0.281144 -5.51284 0
M  V30 966 H 91.243 0.902863 -4.2982 0
M  V30 967 H 91.849 -0.765404 -4.18356 0
M  V30 968 N 90.1641 1.46063 -0.591896 0
M  V30 969 C 91.1141 2.27458 0.157172 0
M  V30 970 C 92.0981 1.3641 0.853301 0
M  V30 971 O 93.2901 1.60517 0.74588 0
M  V30 972 C 90.4191 3.22956 1.16423 0
M  V30 973 C 89.5051 4.2149 0.469742 0
M  V30 974 N 89.8961 5.03519 -0.479839 0
M  V30 975 C 88.1941 4.40161 0.719319 0
M  V30 976 C 88.8951 5.74904 -0.886591 0
M  V30 977 N 87.8711 5.43097 -0.233731 0
M  V30 978 H 91.6731 2.88272 -0.572392 0
M  V30 979 H 89.1871 1.57024 -0.414375 0
M  V30 980 H 91.1841 3.79986 1.71513 0
M  V30 981 H 89.8441 2.63701 1.89451 0
M  V30 982 H 90.8551 5.1078 -0.855823 0
M  V30 983 H 87.5321 3.92046 1.43548 0
M  V30 984 H 88.9221 6.50844 -1.66888 0
M  V30 985 N 91.6422 0.330177 1.54103 0
M  V30 986 C 92.6052 -0.520144 2.2322 0
M  V30 987 C 93.6052 -1.03828 1.22786 0
M  V30 988 O 94.7952 -0.929652 1.4732 0
M  V30 989 C 91.9272 -1.72317 2.94142 0
M  V30 990 H 93.1202 0.0841605 2.99782 0
M  V30 991 H 90.6732 0.0813433 1.56088 0
M  V30 992 H 91.4082 -2.36653 2.21734 0
M  V30 993 H 91.1932 -1.35898 3.67796 0
M  V30 994 H 92.6832 -2.3266 3.46784 0
M  V30 995 N 93.1203 -1.57491 0.0584922 0
M  V30 996 C 94.3973 -1.84346 -0.653918 0
M  V30 997 C 94.7773 -0.948355 -1.88599 0
M  V30 998 O 94.1253 -0.0112403 -2.28497 0
M  V30 999 C 94.3353 -3.34239 -1.00425 0
M  V30 1000 C 95.6833 -4.01431 -1.38342 0
M  V30 1001 O 96.7073 -3.38907 -1.09637 0
M  V30 1002 O 95.5663 -5.11683 -1.91943 0
M  V30 1003 H 92.6603 -0.761112 -0.323478 0
M  V30 1004 H 95.2063 -1.6947 0.0884125 0
M  V30 1005 H 93.9783 -3.91089 -0.128625 0
M  V30 1006 H 93.6013 -3.54329 -1.80378 0
M  V30 1007 N 94.5984 0.214957 -1.56127 0
M  V30 1008 C 95.8464 0.936518 -1.79091 0
M  V30 1009 C 96.1674 1.84606 -0.628148 0
M  V30 1010 O 95.4374 1.92664 0.35462 0
M  V30 1011 H 94.0174 0.3488 -0.660566 0
M  V30 1012 H 96.6794 0.22523 -1.93594 0
M  V30 1013 H 95.7754 1.53943 -2.71492 0
M  V30 1014 N 96.0765 1.50051 0.48192 0
M  V30 1015 C 97.3235 1.60498 1.23477 0
M  V30 1016 C 97.6515 0.300331 1.92167 0
M  V30 1017 O 96.9065 -0.713094 1.82246 0
M  V30 1018 C 97.2055 2.72717 2.30998 0
M  V30 1019 C 96.8715 4.13572 1.79636 0
M  V30 1020 C 95.5335 4.519 1.65348 0
M  V30 1021 C 97.8855 5.01649 1.41412 0
M  V30 1022 C 95.2135 5.76057 1.11244 0
M  V30 1023 C 97.5655 6.26343 0.887538 0
M  V30 1024 C 96.2295 6.63483 0.731207 0
M  V30 1025 H 95.4995 0.587303 0.451836 0
M  V30 1026 H 98.1465 1.83948 0.532468 0
M  V30 1027 H 96.4515 2.43312 3.07094 0
M  V30 1028 H 98.1485 2.78006 2.88988 0
M  V30 1029 H 94.7385 3.83329 1.91721 0
M  V30 1030 H 98.9225 4.72679 1.51289 0
M  V30 1031 H 94.1785 6.03516 0.978686 0
M  V30 1032 H 98.3525 6.93958 0.582654 0
M  V30 1033 H 95.9795 7.59568 0.309806 0
M  V30 1034 N 97.5546 -0.734337 1.39446 0
M  V30 1035 C 98.4846 -1.86155 1.40955 0
M  V30 1036 C 99.4656 -1.67898 0.272827 0
M  V30 1037 O 100.651 -1.88207 0.478743 0
M  V30 1038 C 97.7806 -3.23912 1.25294 0
M  V30 1039 C 96.7346 -3.56808 2.36373 0
M  V30 1040 C 96.0606 -4.93508 2.058 0
M  V30 1041 C 97.3606 -3.59713 3.78687 0
M  V30 1042 H 99.0546 -1.8515 2.35287 0
M  V30 1043 H 96.6006 -0.889367 1.13253 0
M  V30 1044 H 98.5536 -4.02443 1.2497 0
M  V30 1045 H 97.2776 -3.25446 0.274308 0
M  V30 1046 H 95.9366 -2.80606 2.35914 0
M  V30 1047 H 95.5846 -4.91623 1.06374 0
M  V30 1048 H 95.2846 -5.16486 2.80208 0
M  V30 1049 H 96.8086 -5.74396 2.07128 0
M  V30 1050 H 98.2226 -4.2832 3.81071 0
M  V30 1051 H 96.6196 -3.94209 4.52459 0
M  V30 1052 H 97.6896 -2.59504 4.09617 0
M  V30 1053 N 99.0327 -1.24633 -0.964593 0
M  V30 1054 C 99.9627 -1.06611 -2.07741 0
M  V30 1055 C 100.944 0.0218666 -1.70086 0
M  V30 1056 O 102.129 -0.145793 -1.93652 0
M  V30 1057 C 99.2587 -0.673444 -3.40708 0
M  V30 1058 C 98.2127 -1.71054 -3.92332 0
M  V30 1059 C 97.5387 -1.17285 -5.21678 0
M  V30 1060 C 98.8387 -3.10718 -4.19824 0
M  V30 1061 H 100.533 -1.99693 -2.23076 0
M  V30 1062 H 98.0787 -0.96152 -1.07195 0
M  V30 1063 H 100.032 -0.534345 -4.17998 0
M  V30 1064 H 98.7557 0.293073 -3.25282 0
M  V30 1065 H 97.4147 -1.83791 -3.17201 0
M  V30 1066 H 97.0627 -0.196847 -5.02615 0
M  V30 1067 H 96.7627 -1.86592 -5.57187 0
M  V30 1068 H 98.2867 -1.04593 -6.01575 0
M  V30 1069 H 99.7007 -3.01192 -4.87808 0
M  V30 1070 H 98.0977 -3.77406 -4.66567 0
M  V30 1071 H 99.1677 -3.58524 -3.26479 0
M  V30 1072 N 100.511 1.16574 -1.06058 0
M  V30 1073 C 101.76 1.86385 -0.770944 0
M  V30 1074 C 102.073 1.82448 0.705129 0
M  V30 1075 O 103.279 2.47815 1.10905 0
M  V30 1076 C 101.735 3.34466 -1.32893 0
M  V30 1077 C 101.343 3.46883 -2.83507 0
M  V30 1078 C 103.087 4.09548 -1.11672 0
M  V30 1079 C 100.994 4.89036 -3.32562 0
M  V30 1080 H 99.9238 0.698181 -0.284709 0
M  V30 1081 H 102.575 1.31583 -1.27899 0
M  V30 1082 H 100.957 3.88859 -0.748662 0
M  V30 1083 H 102.131 3.02663 -3.47465 0
M  V30 1084 H 100.446 2.85232 -3.03368 0
M  V30 1085 H 103.043 5.14434 -1.45814 0
M  V30 1086 H 103.386 4.16264 -0.0549535 0
M  V30 1087 H 103.919 3.61387 -1.66265 0
M  V30 1088 H 100.658 4.87499 -4.38207 0
M  V30 1089 H 100.178 5.3389 -2.73351 0
M  V30 1090 H 101.857 5.57843 -3.2775 0
M  V30 1091 N 101.989 0.842826 1.3317 0
M  V30 1092 C 103.237 0.439577 1.97262 0
M  V30 1093 C 103.558 -1.00548 1.67078 0
M  V30 1094 O 102.828 -1.70098 0.971779 0
M  V30 1095 H 101.408 0.159558 0.72976 0
M  V30 1096 H 104.07 1.07665 1.62463 0
M  V30 1097 H 103.166 0.574886 3.0676 0
M  V30 1098 N 103.467 -1.45747 0.599634 0
M  V30 1099 C 104.377 -2.34262 -0.125888 0
M  V30 1100 C 105.393 -1.50768 -0.868625 0
M  V30 1101 O 106.569 -1.83592 -0.828003 0
M  V30 1102 C 103.634 -3.28252 -1.11587 0
M  V30 1103 C 102.695 -4.27651 -0.375956 0
M  V30 1104 C 101.928 -5.1715 -1.31877 0
M  V30 1105 O 102.151 -5.09916 -2.55621 0
M  V30 1106 O 101.085 -5.96286 -0.820157 0
M  V30 1107 H 104.911 -2.97688 0.601315 0
M  V30 1108 H 102.496 -1.44999 0.359934 0
M  V30 1109 H 104.378 -3.86191 -1.68626 0
M  V30 1110 H 103.053 -2.67401 -1.82424 0
M  V30 1111 H 101.96 -3.7335 0.236698 0
M  V30 1112 H 103.293 -4.91334 0.29177 0
M  V30 1113 N 104.945 -0.338344 -1.53925 0
M  V30 1114 C 105.892 0.520845 -2.24846 0
M  V30 1115 C 106.862 1.09976 -1.24477 0
M  V30 1116 O 108.047 1.13735 -1.53196 0
M  V30 1117 C 105.187 1.6685 -3.02084 0
M  V30 1118 C 104.3 1.11739 -4.17299 0
M  V30 1119 C 103.435 2.23193 -4.82036 0
M  V30 1120 C 102.474 1.65407 -5.89328 0
M  V30 1121 N 101.611 2.70582 -6.47866 0
M  V30 1122 H 106.451 -0.0904881 -2.97863 0
M  V30 1123 H 103.988 -0.0564282 -1.46992 0
M  V30 1124 H 105.946 2.34407 -3.45122 0
M  V30 1125 H 104.576 2.2509 -2.31375 0
M  V30 1126 H 103.628 0.332919 -3.7894 0
M  V30 1127 H 104.94 0.654677 -4.94485 0
M  V30 1128 H 104.094 2.98626 -5.28117 0
M  V30 1129 H 102.833 2.72807 -4.04262 0
M  V30 1130 H 101.838 0.884779 -5.42634 0
M  V30 1131 H 103.063 1.16652 -6.69006 0
M  V30 1132 H 101.009 3.1946 -5.72959 0
M  V30 1133 H 100.926 2.28917 -7.20509 0
M  V30 1134 H 102.194 3.45799 -6.98601 0
M  V30 1135 N 106.423 1.57458 -0.0668435 0
M  V30 1136 C 107.37 2.12439 0.902122 0
M  V30 1137 C 108.34 1.03565 1.2986 0
M  V30 1138 O 109.525 1.312 1.38532 0
M  V30 1139 C 106.665 2.6865 2.16614 0
M  V30 1140 C 105.778 3.91663 1.82274 0
M  V30 1141 C 104.913 4.36134 3.0325 0
M  V30 1142 C 103.952 5.51808 2.64904 0
M  V30 1143 N 103.089 5.9126 3.78624 0
M  V30 1144 H 107.929 2.94934 0.426382 0
M  V30 1145 H 105.466 1.4575 0.198819 0
M  V30 1146 H 107.424 2.99346 2.90599 0
M  V30 1147 H 106.054 1.88928 2.61737 0
M  V30 1148 H 105.106 3.6746 0.983719 0
M  V30 1149 H 106.418 4.75693 1.50059 0
M  V30 1150 H 105.572 4.68465 3.85519 0
M  V30 1151 H 104.311 3.50948 3.38655 0
M  V30 1152 H 103.316 5.19133 1.81055 0
M  V30 1153 H 104.541 6.38722 2.30675 0
M  V30 1154 H 102.487 5.09024 4.138 0
M  V30 1155 H 102.404 6.70018 3.5016 0
M  V30 1156 H 103.672 6.28212 4.61486 0
M  V30 1157 N 107.901 -0.206675 1.56239 0
M  V30 1158 C 109.147 -0.930218 1.80208 0
M  V30 1159 C 109.48 -1.83387 0.638981 0
M  V30 1160 O 108.755 -1.91119 -0.361066 0
M  V30 1161 C 109.038 -1.75641 3.1436 0
M  V30 1162 C 108.891 -0.878257 4.41142 0
M  V30 1163 C 110.21 -2.73129 3.45092 0
M  V30 1164 H 107.329 -0.336742 0.655571 0
M  V30 1165 H 109.971 -0.198222 1.88963 0
M  V30 1166 H 108.121 -2.38048 3.07027 0
M  V30 1167 H 109.793 -0.269787 4.6051 0
M  V30 1168 H 108.036 -0.184385 4.33408 0
M  V30 1169 H 108.707 -1.49106 5.3148 0
M  V30 1170 H 111.183 -2.20856 3.52649 0
M  V30 1171 H 110.059 -3.28028 4.40101 0
M  V30 1172 H 110.32 -3.51606 2.68003 0
M  V30 1173 N 109.379 -1.50304 -0.473955 0
M  V30 1174 C 110.604 -1.65175 -1.25427 0
M  V30 1175 C 111.029 -0.333673 -1.85117 0
M  V30 1176 O 110.387 0.702114 -1.67153 0
M  V30 1177 C 110.435 -2.74295 -2.34082 0
M  V30 1178 O 109.539 -2.35349 -3.38651 0
M  V30 1179 H 108.88 -0.551944 -0.369126 0
M  V30 1180 H 111.41 -1.96662 -0.564364 0
M  V30 1181 H 111.42 -2.97285 -2.79438 0
M  V30 1182 H 110.095 -3.69959 -1.90008 0
M  V30 1183 H 108.672 -2.22794 -2.99027 0
M  V30 1184 N 110.857 0.726932 -1.39834 0
M  V30 1185 C 112.103 1.48884 -1.377 0
M  V30 1186 C 112.436 1.94185 0.0244852 0
M  V30 1187 O 111.711 1.67361 0.990986 0
M  V30 1188 C 111.994 2.72288 -2.3565 0
M  V30 1189 C 111.847 2.32956 -3.84775 0
M  V30 1190 C 113.166 3.74414 -2.31306 0
M  V30 1191 H 110.285 0.540062 -0.5015 0
M  V30 1192 H 112.927 0.830547 -1.70886 0
M  V30 1193 H 111.077 3.28457 -2.07481 0
M  V30 1194 H 112.749 1.82356 -4.23726 0
M  V30 1195 H 110.992 1.65088 -4.01159 0
M  V30 1196 H 111.663 3.21362 -4.4881 0
M  V30 1197 H 114.139 3.27849 -2.56231 0
M  V30 1198 H 113.015 4.58414 -3.01907 0
M  V30 1199 H 113.276 4.21909 -1.32081 0
M  V30 1200 N 112.336 1.25143 0.95797 0
M  V30 1201 C 113.583 1.09692 1.70217 0
M  V30 1202 C 113.911 -0.362654 1.91089 0
M  V30 1203 O 113.166 -1.28386 1.47701 0
M  V30 1204 C 113.465 1.79272 3.09187 0
M  V30 1205 C 113.131 3.29196 3.08125 0
M  V30 1206 C 111.793 3.70096 3.07543 0
M  V30 1207 C 114.145 4.24995 3.0171 0
M  V30 1208 C 111.473 5.05213 2.9829 0
M  V30 1209 C 113.825 5.60132 2.93999 0
M  V30 1210 C 112.489 6.00365 2.9175 0
M  V30 1211 H 111.759 0.401393 0.622868 0
M  V30 1212 H 114.406 1.55372 1.11945 0
M  V30 1213 H 112.711 1.26014 3.70982 0
M  V30 1214 H 114.408 1.64773 3.65583 0
M  V30 1215 H 110.998 2.96651 3.09348 0
M  V30 1216 H 115.182 3.9439 3.01281 0
M  V30 1217 H 110.438 5.35569 2.94916 0
M  V30 1218 H 114.612 6.3406 2.87996 0
M  V30 1219 H 112.239 7.05023 2.84336 0
M  V30 1220 N 113.814 -1.1601 1.06675 0
M  V30 1221 C 114.777 -2.18724 0.685001 0
M  V30 1222 C 115.777 -1.58496 -0.271246 0
M  V30 1223 O 116.967 -1.74119 -0.0531156 0
M  V30 1224 C 114.099 -3.40899 0.00853648 0
M  V30 1225 H 115.292 -2.54011 1.59431 0
M  V30 1226 H 112.845 -1.30352 0.862441 0
M  V30 1227 H 113.58 -3.11173 -0.913337 0
M  V30 1228 H 113.365 -3.8587 0.696204 0
M  V30 1229 H 114.855 -4.16886 -0.24414 0
M  V30 1230 N 115.292 -0.849877 -1.32721 0
M  V30 1231 C 116.202 -0.293791 -2.32753 0
M  V30 1232 C 117.218 0.585906 -1.63839 0
M  V30 1233 O 118.394 0.487413 -1.95413 0
M  V30 1234 C 115.459 0.512752 -3.42887 0
M  V30 1235 C 114.52 -0.39252 -4.27502 0
M  V30 1236 C 113.753 0.375625 -5.32377 0
M  V30 1237 O 113.976 1.60613 -5.4732 0
M  V30 1238 O 112.91 -0.256094 -6.01355 0
M  V30 1239 H 116.736 -1.12242 -2.82197 0
M  V30 1240 H 114.321 -0.612685 -1.36259 0
M  V30 1241 H 116.203 0.970704 -4.10067 0
M  V30 1242 H 114.878 1.31826 -2.95641 0
M  V30 1243 H 113.785 -0.898547 -3.63149 0
M  V30 1244 H 115.118 -1.16309 -4.7826 0
M  V30 1245 N 116.77 1.45427 -0.607355 0
M  V30 1246 C 117.717 2.3053 0.111625 0
M  V30 1247 C 118.687 1.4209 0.860216 0
M  V30 1248 O 119.872 1.71019 0.845998 0
M  V30 1249 C 117.012 3.26992 1.10319 0
M  V30 1250 C 116.125 4.30535 0.355493 0
M  V30 1251 C 115.26 5.14105 1.33676 0
M  V30 1252 C 114.299 6.09376 0.576862 0
M  V30 1253 N 113.436 6.85727 1.5074 0
M  V30 1254 H 118.276 2.91477 -0.620093 0
M  V30 1255 H 115.813 1.43631 -0.317594 0
M  V30 1256 H 117.771 3.81385 1.6912 0
M  V30 1257 H 116.401 2.67799 1.80232 0
M  V30 1258 H 115.453 3.78805 -0.348023 0
M  V30 1259 H 116.765 4.98235 -0.237423 0
M  V30 1260 H 115.919 5.72897 1.99684 0
M  V30 1261 H 114.658 4.46423 1.9636 0
M  V30 1262 H 113.663 5.49715 -0.0968519 0
M  V30 1263 H 114.888 6.79085 -0.0449341 0
M  V30 1264 H 112.834 6.20735 2.12189 0
M  V30 1265 H 112.751 7.49778 0.967913 0
M  V30 1266 H 114.019 7.4906 2.15706 0
M  V30 1267 N 118.248 0.346503 1.53744 0
M  V30 1268 C 119.525 -0.304532 1.93215 0
M  V30 1269 C 119.905 -1.67993 1.27834 0
M  V30 1270 O 119.253 -2.24411 0.430352 0
M  V30 1271 C 119.463 -0.373852 3.46992 0
M  V30 1272 C 120.811 -0.62329 4.2 0
M  V30 1273 O 121.835 -0.455847 3.53271 0
M  V30 1274 O 120.694 -0.947879 5.38217 0
M  V30 1275 H 117.788 -0.178318 0.807547 0
M  V30 1276 H 120.334 0.397895 1.64969 0
M  V30 1277 H 119.106 0.591224 3.86808 0
M  V30 1278 H 118.729 -1.12294 3.81413 0
M  V30 1279 N 119.726 -1.57421 0.075193 0
M  V30 1280 C 121.137 -1.81021 -0.456964 0
M  V30 1281 C 121.488 -0.98936 -1.69429 0
M  V30 1282 O 120.613 -0.212865 -2.15351 0
M  V30 1283 C 121.208 -3.28329 -0.83581 0
M  V30 1284 C 119.767 -3.52764 -1.31281 0
M  V30 1285 C 118.914 -2.75676 -0.299648 0
M  V30 1286 H 121.865 -1.55822 0.300856 0
M  V30 1287 H 121.886 -3.40564 -1.69696 0
M  V30 1288 H 121.398 -3.88046 0.0649238 0
M  V30 1289 H 119.499 -2.98355 -2.23193 0
M  V30 1290 H 119.612 -4.61451 -1.28839 0
M  V30 1291 H 117.976 -2.42538 -0.777641 0
M  V30 1292 H 118.759 -3.38132 0.593417 0
M  V30 1293 N 121.204 0.198386 -1.56346 0
M  V30 1294 C 122.429 0.939682 -1.84891 0
M  V30 1295 C 122.854 1.76202 -0.658369 0
M  V30 1296 O 122.212 1.76993 0.392851 0
M  V30 1297 C 122.26 1.81428 -3.11635 0
M  V30 1298 O 121.364 2.91265 -2.91956 0
M  V30 1299 H 120.705 0.264807 -0.608912 0
M  V30 1300 H 123.235 0.204695 -2.03573 0
M  V30 1301 H 123.245 2.21958 -3.42343 0
M  V30 1302 H 121.92 1.21004 -3.97908 0
M  V30 1303 H 120.497 2.54514 -2.72538 0
M  V30 1304 N 122.682 1.50554 0.465978 0
M  V30 1305 C 123.614 1.65949 1.58093 0
M  V30 1306 C 124.627 0.540827 1.53554 0
M  V30 1307 O 125.816 0.814187 1.5885 0
M  V30 1308 C 122.916 1.63261 2.96983 0
M  V30 1309 C 122.089 2.91245 3.26336 0
M  V30 1310 C 121.148 2.8113 4.44806 0
M  V30 1311 O 120.174 3.55086 4.44862 0
M  V30 1312 N 121.376 1.95032 5.46756 0
M  V30 1313 H 124.141 2.62122 1.45301 0
M  V30 1314 H 121.702 1.48082 0.65448 0
M  V30 1315 H 123.694 1.54101 3.74212 0
M  V30 1316 H 122.264 0.748032 3.03518 0
M  V30 1317 H 121.484 3.14493 2.37672 0
M  V30 1318 H 122.772 3.76022 3.42761 0
M  V30 1319 H 122.17 1.3427 5.49534 0
M  V30 1320 H 120.727 1.91772 6.2295 0
M  V30 1321 N 124.16 -0.719506 1.40217 0
M  V30 1322 C 125.409 -1.47486 1.37589 0
M  V30 1323 C 125.722 -1.9559 -0.0201568 0
M  V30 1324 O 126.928 -2.70973 -0.169049 0
M  V30 1325 C 125.384 -2.66575 2.41796 0
M  V30 1326 C 124.992 -2.25358 3.87192 0
M  V30 1327 C 126.736 -3.4433 2.48269 0
M  V30 1328 C 124.643 -3.41262 4.83005 0
M  V30 1329 H 123.573 -0.553901 0.511576 0
M  V30 1330 H 126.224 -0.783427 1.65936 0
M  V30 1331 H 124.606 -3.3787 2.06543 0
M  V30 1332 H 125.78 -1.61509 4.31569 0
M  V30 1333 H 124.095 -1.60657 3.84159 0
M  V30 1334 H 126.692 -4.30569 3.17041 0
M  V30 1335 H 127.035 -3.87872 1.51198 0
M  V30 1336 H 127.568 -2.80076 2.82493 0
M  V30 1337 H 124.307 -3.02755 5.81394 0
M  V30 1338 H 123.827 -4.0404 4.43297 0
M  V30 1339 H 125.506 -4.07383 5.02641 0
M  V30 1340 N 125.638 -1.25649 -0.95132 0
M  V30 1341 C 127.049 -1.09654 -1.51106 0
M  V30 1342 C 127.4 0.326615 -1.93462 0
M  V30 1343 O 126.525 1.21697 -1.78938 0
M  V30 1344 C 127.12 -1.98437 -2.74605 0
M  V30 1345 C 125.679 -1.86618 -3.2688 0
M  V30 1346 C 124.826 -1.9239 -1.99703 0
M  V30 1347 H 127.777 -1.38887 -0.767865 0
M  V30 1348 H 127.798 -1.5263 -3.48546 0
M  V30 1349 H 127.31 -3.02009 -2.43746 0
M  V30 1350 H 125.411 -0.859421 -3.62553 0
M  V30 1351 H 125.524 -2.71607 -3.94673 0
M  V30 1352 H 123.888 -1.36317 -2.15151 0
M  V30 1353 H 124.671 -2.97573 -1.71188 0
M  V30 1354 N 127.117 1.15442 -1.07289 0
M  V30 1355 C 128.363 1.8672 -0.806679 0
M  V30 1356 C 128.718 1.80723 0.660084 0
M  V30 1357 O 128.011 1.21902 1.47819 0
M  V30 1358 C 128.205 3.3489 -1.24834 0
M  V30 1359 C 128.034 3.55313 -2.7565 0
M  V30 1360 C 126.804 3.7082 -3.4325 0
M  V30 1361 C 129.002 3.53188 -3.73848 0
M  V30 1362 N 126.984 3.7929 -4.82713 0
M  V30 1363 C 128.355 3.67765 -4.99149 0
M  V30 1364 C 130.41 3.36459 -3.67015 0
M  V30 1365 C 129.113 3.6734 -6.18428 0
M  V30 1366 C 131.139 3.37333 -4.85758 0
M  V30 1367 C 130.501 3.52438 -6.09891 0
M  V30 1368 H 126.6 0.700433 -0.347733 0
M  V30 1369 H 129.184 1.38441 -1.36902 0
M  V30 1370 H 127.355 3.81786 -0.713713 0
M  V30 1371 H 129.087 3.93875 -0.929745 0
M  V30 1372 H 125.842 3.71568 -2.93656 0
M  V30 1373 H 126.266 3.8727 -5.55294 0
M  V30 1374 H 130.908 3.237 -2.71989 0
M  V30 1375 H 128.626 3.78878 -7.13777 0
M  V30 1376 H 132.212 3.25617 -4.82146 0
M  V30 1377 H 131.092 3.53047 -7.00234 0
M  V30 1378 N 128.595 0.856903 1.32268 0
M  V30 1379 C 129.843 0.460474 1.96784 0
M  V30 1380 C 130.164 -0.987701 1.68135 0
M  V30 1381 O 129.434 -1.69058 0.989765 0
M  V30 1382 H 128.014 0.167289 0.728027 0
M  V30 1383 H 130.676 1.09383 1.61312 0
M  V30 1384 H 129.772 0.60739 3.06133 0
M  V30 1385 N 130.073 -1.45103 0.615059 0
M  V30 1386 C 131.02 -2.30586 -0.0993978 0
M  V30 1387 C 131.99 -1.42544 -0.852669 0
M  V30 1388 O 133.175 -1.71465 -0.836917 0
M  V30 1389 C 130.315 -3.27572 -1.08583 0
M  V30 1390 C 129.428 -4.30717 -0.332656 0
M  V30 1391 C 128.563 -5.14807 -1.30947 0
M  V30 1392 C 127.602 -6.09673 -0.544538 0
M  V30 1393 N 126.739 -6.86517 -1.47101 0
M  V30 1394 H 131.579 -2.91144 0.635542 0
M  V30 1395 H 129.116 -1.4346 0.325206 0
M  V30 1396 H 131.074 -3.82276 -1.67095 0
M  V30 1397 H 129.704 -2.68751 -1.78809 0
M  V30 1398 H 128.756 -3.78615 0.368107 0
M  V30 1399 H 130.068 -4.98102 0.263842 0
M  V30 1400 H 129.222 -5.73948 -1.96643 0
M  V30 1401 H 127.961 -4.47458 -1.9399 0
M  V30 1402 H 126.966 -5.49656 0.126003 0
M  V30 1403 H 128.191 -6.79052 0.080947 0
M  V30 1404 H 126.137 -6.21851 -2.08895 0
M  V30 1405 H 126.054 -7.50281 -0.928137 0
M  V30 1406 H 127.322 -7.50194 -2.11731 0
M  V30 1407 N 131.551 -0.354651 -1.53558 0
M  V30 1408 C 132.791 0.238651 -2.03002 0
M  V30 1409 C 133.155 1.46878 -1.23656 0
M  V30 1410 O 134.356 2.13699 -1.63053 0
M  V30 1411 C 132.627 0.534175 -3.53386 0
M  V30 1412 S 134.186 1.10271 -4.24719 0
M  V30 1413 H 131.004 0.0702908 -0.707517 0
M  V30 1414 H 133.606 -0.494987 -1.8913 0
M  V30 1415 H 132.31 -0.368765 -4.0874 0
M  V30 1416 H 131.841 1.29718 -3.71398 0
M  V30 1417 H 133.856 2.38772 -4.34974 0
M  V30 1418 N 133.029 1.57378 -0.0835403 0
M  V30 1419 C 133.961 2.10389 0.909338 0
M  V30 1420 C 134.974 1.03858 1.25369 0
M  V30 1421 O 136.163 1.31338 1.20882 0
M  V30 1422 C 133.263 2.55908 2.2218 0
M  V30 1423 C 132.436 3.86145 2.05453 0
M  V30 1424 C 131.495 4.17633 3.20108 0
M  V30 1425 O 130.521 4.87043 2.94581 0
M  V30 1426 N 131.723 3.72113 4.45547 0
M  V30 1427 H 134.488 2.962 0.456657 0
M  V30 1428 H 132.049 1.61579 0.101877 0
M  V30 1429 H 134.041 2.74027 2.97811 0
M  V30 1430 H 132.611 1.75171 2.58909 0
M  V30 1431 H 131.831 3.7729 1.1422 0
M  V30 1432 H 133.119 4.7137 1.91541 0
M  V30 1433 H 132.517 3.16062 4.69171 0
M  V30 1434 H 131.074 3.95409 5.18165 0
M  V30 1435 N 134.507 -0.190092 1.56449 0
M  V30 1436 C 135.753 -0.911052 1.81184 0
M  V30 1437 C 136.086 -1.82699 0.658396 0
M  V30 1438 O 135.361 -1.91491 -0.340775 0
M  V30 1439 C 135.644 -1.72297 3.16205 0
M  V30 1440 C 135.497 -0.831419 4.42049 0
M  V30 1441 C 136.816 -2.69454 3.47969 0
M  V30 1442 H 133.935 -0.32977 0.659106 0
M  V30 1443 H 136.577 -0.178169 1.89163 0
M  V30 1444 H 134.727 -2.34778 3.09534 0
M  V30 1445 H 136.399 -0.220929 4.60771 0
M  V30 1446 H 134.642 -0.138406 4.33579 0
M  V30 1447 H 135.313 -1.43461 5.33032 0
M  V30 1448 H 137.789 -2.17104 3.54972 0
M  V30 1449 H 136.665 -3.23342 4.43555 0
M  V30 1450 H 136.926 -3.48744 2.71717 0
M  V30 1451 N 135.985 -1.50799 -0.457987 0
M  V30 1452 C 137.262 -1.52968 -1.21902 0
M  V30 1453 C 137.642 -0.281906 -2.09209 0
M  V30 1454 O 136.99 0.734076 -2.16388 0
M  V30 1455 C 137.2 -2.8326 -2.03875 0
M  V30 1456 C 138.548 -3.34425 -2.6162 0
M  V30 1457 O 139.572 -2.8467 -2.14106 0
M  V30 1458 O 138.431 -4.21188 -3.48228 0
M  V30 1459 H 135.525 -0.614129 -0.553873 0
M  V30 1460 H 138.071 -1.63098 -0.468739 0
M  V30 1461 H 136.843 -3.65543 -1.39621 0
M  V30 1462 H 136.466 -2.76195 -2.8601 0
M  V30 1463 N 137.463 0.71206 -1.40597 0
M  V30 1464 C 138.709 1.47416 -1.39271 0
M  V30 1465 C 139.042 1.942 0.00388791 0
M  V30 1466 O 138.317 1.68403 0.973179 0
M  V30 1467 C 138.6 2.69774 -2.38525 0
M  V30 1468 C 138.453 2.28861 -3.87224 0
M  V30 1469 C 139.772 3.71939 -2.35264 0
M  V30 1470 H 136.891 0.534713 -0.5072 0
M  V30 1471 H 139.533 0.812375 -1.71757 0
M  V30 1472 H 137.683 3.26238 -2.10953 0
M  V30 1473 H 139.355 1.77852 -4.25636 0
M  V30 1474 H 137.598 1.60824 -4.02887 0
M  V30 1475 H 138.269 3.16584 -4.52193 0
M  V30 1476 H 140.745 3.25113 -2.59694 0
M  V30 1477 H 139.621 4.55186 -3.06753 0
M  V30 1478 H 139.882 4.20484 -1.36549 0
M  V30 1479 N 138.941 1.26152 0.944643 0
M  V30 1480 C 140.187 1.11657 1.69294 0
M  V30 1481 C 140.52 -0.339926 1.91202 0
M  V30 1482 O 139.795 -1.24994 1.49019 0
M  V30 1483 C 140.078 1.88236 3.06984 0
M  V30 1484 C 139.931 3.41772 2.92424 0
M  V30 1485 C 141.25 1.67343 4.07043 0
M  V30 1486 H 138.369 0.407004 0.614424 0
M  V30 1487 H 141.011 1.55106 1.09737 0
M  V30 1488 H 139.161 1.51308 3.57824 0
M  V30 1489 H 140.833 3.88433 2.48832 0
M  V30 1490 H 139.076 3.68974 2.28124 0
M  V30 1491 H 139.747 3.90579 3.90067 0
M  V30 1492 H 142.223 1.99509 3.65151 0
M  V30 1493 H 141.099 2.23346 5.01406 0
M  V30 1494 H 141.36 0.617158 4.37771 0
M  V30 1495 N 140.419 -1.14872 1.07899 0
M  V30 1496 C 141.659 -1.8745 0.814965 0
M  V30 1497 C 142.023 -1.80758 -0.64733 0
M  V30 1498 O 143.224 -2.48422 -1.02664 0
M  V30 1499 C 141.495 -3.32286 1.31607 0
M  V30 1500 S 143.054 -4.22537 1.18357 0
M  V30 1501 H 139.872 -0.646833 0.295174 0
M  V30 1502 H 142.474 -1.38555 1.37923 0
M  V30 1503 H 141.178 -3.34703 2.37491 0
M  V30 1504 H 140.709 -3.86238 0.747261 0
M  V30 1505 H 142.724 -4.96044 0.124586 0
M  V30 1506 N 141.898 -0.863906 -1.31812 0
M  V30 1507 C 142.808 -0.318461 -2.32428 0
M  V30 1508 C 143.824 0.568496 -1.64451 0
M  V30 1509 O 145 0.46666 -1.95919 0
M  V30 1510 C 142.065 0.476355 -3.43412 0
M  V30 1511 C 141.126 -0.43784 -4.27061 0
M  V30 1512 C 140.359 0.319138 -5.32745 0
M  V30 1513 O 140.582 1.54799 -5.48993 0
M  V30 1514 O 139.516 -0.319861 -6.01049 0
M  V30 1515 H 143.342 -1.15229 -2.80991 0
M  V30 1516 H 140.927 -0.627103 -1.35602 0
M  V30 1517 H 142.809 0.927156 -4.11074 0
M  V30 1518 H 141.484 1.28683 -2.97022 0
M  V30 1519 H 140.391 -0.937013 -3.62175 0
M  V30 1520 H 141.724 -1.21375 -4.77 0
M  V30 1521 N 143.376 1.44774 -0.622745 0
M  V30 1522 C 144.601 2.06999 -0.128968 0
M  V30 1523 C 145.026 1.4617 1.1839 0
M  V30 1524 O 144.384 0.560007 1.72434 0
M  V30 1525 C 144.432 3.60595 -0.0188351 0
M  V30 1526 O 143.536 3.99398 1.02739 0
M  V30 1527 H 142.877 0.659047 -0.0809544 0
M  V30 1528 H 145.407 1.85784 -0.85705 0
M  V30 1529 H 145.417 4.07627 0.174476 0
M  V30 1530 H 144.092 4.04252 -0.977384 0
M  V30 1531 H 142.669 3.64011 0.809326 0
M  V30 1532 N 144.854 0.36279 1.53368 0
M  V30 1533 C 146.082 -0.228613 2.05633 0
M  V30 1534 C 146.497 -1.42676 1.23649 0
M  V30 1535 O 145.854 -1.80394 0.27647 0
M  V30 1536 C 145.905 -0.624845 3.56059 0
M  V30 1537 O 145.626 0.525675 4.34935 0
M  V30 1538 C 147.127 -1.27493 4.24571 0
M  V30 1539 H 144.347 -0.0407183 0.669763 0
M  V30 1540 H 146.891 0.520352 1.97769 0
M  V30 1541 H 145.046 -1.32373 3.64083 0
M  V30 1542 H 145.46 0.205969 5.24095 0
M  V30 1543 H 146.934 -1.50277 5.31151 0
M  V30 1544 H 147.411 -2.23439 3.78116 0
M  V30 1545 H 148.017 -0.617558 4.20792 0
M  V30 1546 N 146.332 -1.57332 0.0918853 0
M  V30 1547 C 147.58 -1.93853 -0.571446 0
M  V30 1548 C 147.901 -0.974212 -1.6892 0
M  V30 1549 O 147.171 -0.0257254 -1.95883 0
M  V30 1550 H 145.751 -0.715666 -0.214082 0
M  V30 1551 H 148.413 -1.94287 0.154464 0
M  V30 1552 H 147.509 -2.96191 -0.983729 0
M  V30 1553 N 147.81 0.181792 -1.56548 0
M  V30 1554 C 149.056 0.901431 -1.81665 0
M  V30 1555 C 149.389 1.82347 -0.668075 0
M  V30 1556 O 148.664 1.91669 0.330615 0
M  V30 1557 C 148.947 1.70618 -3.17115 0
M  V30 1558 C 148.8 0.807964 -4.42484 0
M  V30 1559 C 150.119 2.67605 -3.49393 0
M  V30 1560 H 147.238 0.32627 -0.660846 0
M  V30 1561 H 149.88 0.168134 -1.89255 0
M  V30 1562 H 148.03 2.33133 -3.10775 0
M  V30 1563 H 149.702 0.19649 -4.60881 0
M  V30 1564 H 147.945 0.115411 -4.33646 0
M  V30 1565 H 148.616 1.40632 -5.33785 0
M  V30 1566 H 151.092 2.15218 -3.56118 0
M  V30 1567 H 149.968 3.20985 -4.45264 0
M  V30 1568 H 150.229 3.47298 -2.73563 0
M  V30 1569 N 149.288 1.51039 0.449983 0
M  V30 1570 C 150.535 1.63081 1.20045 0
M  V30 1571 C 150.863 0.341024 1.91487 0
M  V30 1572 O 150.118 -0.674276 1.83717 0
M  V30 1573 C 150.417 2.77556 2.25161 0
M  V30 1574 C 150.083 4.17289 1.70823 0
M  V30 1575 C 148.745 4.55305 1.55725 0
M  V30 1576 C 151.097 5.04536 1.3074 0
M  V30 1577 C 148.425 5.78287 0.989999 0
M  V30 1578 C 150.777 6.28085 0.754482 0
M  V30 1579 C 149.441 6.64885 0.590308 0
M  V30 1580 H 148.711 0.596755 0.439277 0
M  V30 1581 H 151.358 1.85037 0.49333 0
M  V30 1582 H 149.663 2.49771 3.01863 0
M  V30 1583 H 151.36 2.84073 2.83026 0
M  V30 1584 H 147.95 3.8731 1.83546 0
M  V30 1585 H 152.134 4.75782 1.41229 0
M  V30 1586 H 147.39 6.05456 0.850451 0
M  V30 1587 H 151.564 6.95038 0.435324 0
M  V30 1588 H 149.191 7.60055 0.14862 0
M  V30 1589 N 150.766 -0.704594 1.40972 0
M  V30 1590 C 151.696 -1.83124 1.44872 0
M  V30 1591 C 152.677 -1.67281 0.30838 0
M  V30 1592 O 153.862 -1.87149 0.518556 0
M  V30 1593 C 150.992 -3.21181 1.32136 0
M  V30 1594 C 149.946 -3.51714 2.43888 0
M  V30 1595 C 149.272 -4.89032 2.16222 0
M  V30 1596 C 150.572 -3.516 3.86232 0
M  V30 1597 H 152.266 -1.80117 2.39161 0
M  V30 1598 H 149.812 -0.865145 1.15114 0
M  V30 1599 H 151.765 -3.99702 1.33479 0
M  V30 1600 H 150.489 -3.24791 0.343279 0
M  V30 1601 H 149.148 -2.75539 2.41813 0
M  V30 1602 H 148.796 -4.89256 1.16778 0
M  V30 1603 H 148.496 -5.10426 2.911 0
M  V30 1604 H 150.02 -5.69873 2.19265 0
M  V30 1605 H 151.434 -4.2014 3.9007 0
M  V30 1606 H 149.831 -3.84523 4.60719 0
M  V30 1607 H 150.901 -2.50757 4.15029 0
M  V30 1608 N 152.244 -1.26651 -0.937939 0
M  V30 1609 C 153.472 -1.15173 -1.7188 0
M  V30 1610 C 153.887 0.292668 -1.86518 0
M  V30 1611 O 153.244 1.20014 -1.37488 0
M  V30 1612 C 153.295 -1.81925 -3.12387 0
M  V30 1613 O 153.016 -3.2072 -2.98446 0
M  V30 1614 C 154.517 -1.76442 -4.06673 0
M  V30 1615 H 151.737 -0.400911 -0.538063 0
M  V30 1616 H 154.281 -1.67332 -1.1756 0
M  V30 1617 H 152.436 -1.33696 -3.63599 0
M  V30 1618 H 152.85 -3.53802 -3.872 0
M  V30 1619 H 154.324 -2.27781 -5.02812 0
M  V30 1620 H 154.801 -0.731608 -4.33064 0
M  V30 1621 H 155.407 -2.24238 -3.61382 0
M  V30 1622 N 153.722 1.14298 -1.08507 0
M  V30 1623 C 154.669 2.19414 -0.715965 0
M  V30 1624 C 155.639 1.63399 0.298326 0
M  V30 1625 O 156.824 1.89929 0.182101 0
M  V30 1626 C 153.964 3.44845 -0.132534 0
M  V30 1627 C 153.077 4.15007 -1.19973 0
M  V30 1628 C 152.212 5.28024 -0.580048 0
M  V30 1629 C 151.251 5.9002 -1.62921 0
M  V30 1630 N 150.388 6.94485 -1.03125 0
M  V30 1631 H 155.228 2.50336 -1.61666 0
M  V30 1632 H 152.765 1.2293 -0.807882 0
M  V30 1633 H 154.723 4.16601 0.223454 0
M  V30 1634 H 153.353 3.14403 0.731467 0
M  V30 1635 H 152.405 3.41629 -1.67313 0
M  V30 1636 H 153.717 4.57178 -1.99473 0
M  V30 1637 H 152.871 6.06455 -0.172364 0
M  V30 1638 H 151.61 4.87076 0.246603 0
M  V30 1639 H 150.615 5.10291 -2.04654 0
M  V30 1640 H 151.84 6.33042 -2.45835 0
M  V30 1641 H 149.786 6.55612 -0.225711 0
M  V30 1642 H 149.703 7.35148 -1.76334 0
M  V30 1643 H 150.971 7.7679 -0.649458 0
M  V30 1644 N 155.201 0.870884 1.31352 0
M  V30 1645 C 156.111 0.330783 2.32256 0
M  V30 1646 C 157.127 -0.559767 1.6475 0
M  V30 1647 O 158.303 -0.456263 1.96164 0
M  V30 1648 C 155.368 -0.458137 3.4366 0
M  V30 1649 C 154.429 0.460482 4.26823 0
M  V30 1650 C 153.662 -0.290881 5.32907 0
M  V30 1651 O 153.885 -1.51885 5.49806 0
M  V30 1652 O 152.819 0.351732 6.00871 0
M  V30 1653 H 156.645 1.16718 2.80376 0
M  V30 1654 H 154.23 0.634285 1.35267 0
M  V30 1655 H 156.112 -0.905343 4.1156 0
M  V30 1656 H 154.787 -1.27106 2.97701 0
M  V30 1657 H 153.694 0.956207 3.61673 0
M  V30 1658 H 155.027 1.23903 4.7635 0
M  V30 1659 N 156.679 -1.44442 0.630414 0
M  V30 1660 C 157.609 -2.33418 -0.0618083 0
M  V30 1661 C 158.59 -1.48165 -0.835541 0
M  V30 1662 O 159.775 -1.76886 -0.801564 0
M  V30 1663 C 156.905 -3.31222 -1.04449 0
M  V30 1664 C 155.859 -4.26288 -0.382436 0
M  V30 1665 C 155.185 -5.13954 -1.47497 0
M  V30 1666 C 156.485 -5.1744 0.710865 0
M  V30 1667 H 158.179 -2.91548 0.681184 0
M  V30 1668 H 155.725 -1.40191 0.329026 0
M  V30 1669 H 157.678 -3.92351 -1.53748 0
M  V30 1670 H 156.402 -2.71299 -1.81836 0
M  V30 1671 H 155.061 -3.6649 0.0899054 0
M  V30 1672 H 154.709 -4.50385 -2.2397 0
M  V30 1673 H 154.409 -5.7837 -1.03737 0
M  V30 1674 H 155.933 -5.77955 -1.96979 0
M  V30 1675 H 157.347 -5.72509 0.300996 0
M  V30 1676 H 155.744 -5.90455 1.07156 0
M  V30 1677 H 156.814 -4.58496 1.57829 0
M  V30 1678 N 158.157 -0.370918 -1.53173 0
M  V30 1679 C 159.12 0.460778 -2.24521 0
M  V30 1680 C 160.12 1.00536 -1.25496 0
M  V30 1681 O 161.31 0.890266 -1.49733 0
M  V30 1682 C 158.442 1.64457 -2.98608 0
M  V30 1683 H 159.635 -0.163613 -2.99453 0
M  V30 1684 H 157.188 -0.122699 -1.55818 0
M  V30 1685 H 157.923 2.30691 -2.2793 0
M  V30 1686 H 157.708 1.26099 -3.7127 0
M  V30 1687 H 159.198 2.23384 -3.5283 0
M  V30 1688 N 159.635 1.57281 -0.100228 0
M  V30 1689 C 160.86 1.99302 0.573881 0
M  V30 1690 C 161.285 0.979059 1.60611 0
M  V30 1691 O 160.643 -0.0517803 1.81226 0
M  V30 1692 C 160.691 3.40274 1.19358 0
M  V30 1693 O 159.795 3.41676 2.30935 0
M  V30 1694 H 159.136 0.647944 0.145138 0
M  V30 1695 H 161.666 2.03779 -0.183156 0
M  V30 1696 H 161.676 3.78078 1.53365 0
M  V30 1697 H 160.351 4.13594 0.437385 0
M  V30 1698 H 158.928 3.15672 1.98509 0
M  V30 1699 N 161.113 -0.173488 1.56642 0
M  V30 1700 C 162.338 -0.910149 1.86363 0
M  V30 1701 C 162.763 -1.75132 0.686318 0
M  V30 1702 O 162.121 -1.77595 -0.364643 0
M  V30 1703 C 162.169 -1.76447 3.14482 0
M  V30 1704 O 161.273 -2.86584 2.96553 0
M  V30 1705 H 160.614 -0.255086 0.613047 0
M  V30 1706 H 163.144 -0.172283 2.03873 0
M  V30 1707 H 163.154 -2.16483 3.45831 0
M  V30 1708 H 161.829 -1.14658 3.99783 0
M  V30 1709 H 160.406 -2.50146 2.76553 0
M  V30 1710 N 162.591 -1.51276 -0.441967 0
M  V30 1711 C 163.541 -1.6864 -1.53442 0
M  V30 1712 C 164.525 -0.540444 -1.51552 0
M  V30 1713 O 165.717 -0.796157 -1.58083 0
M  V30 1714 C 162.846 -1.8106 -2.91672 0
M  V30 1715 C 161.932 -3.01424 -2.98336 0
M  V30 1716 N 162.323 -4.2467 -2.74752 0
M  V30 1717 C 160.621 -3.00584 -3.29493 0
M  V30 1718 C 161.322 -5.05891 -2.87139 0
M  V30 1719 N 160.298 -4.40442 -3.18609 0
M  V30 1720 H 164.1 -2.61598 -1.33954 0
M  V30 1721 H 161.614 -1.4886 -0.6492 0
M  V30 1722 H 163.611 -1.91609 -3.70259 0
M  V30 1723 H 162.271 -0.892795 -3.12185 0
M  V30 1724 H 163.282 -4.53691 -2.49769 0
M  V30 1725 H 159.959 -2.18417 -3.55809 0
M  V30 1726 H 161.349 -6.13983 -2.72899 0
M  V30 1727 N 164.069 0.697108 -1.41344 0
M  V30 1728 C 164.999 1.82353 -1.45841 0
M  V30 1729 C 165.98 1.67115 -0.317247 0
M  V30 1730 O 167.165 1.86871 -0.528474 0
M  V30 1731 C 164.295 3.20476 -1.33838 0
M  V30 1732 C 163.249 3.50415 -2.4575 0
M  V30 1733 C 162.575 4.87878 -2.18813 0
M  V30 1734 C 163.875 3.49546 -3.88091 0
M  V30 1735 H 165.569 1.78846 -2.40113 0
M  V30 1736 H 163.115 0.859028 -1.15571 0
M  V30 1737 H 165.068 3.98988 -1.35596 0
M  V30 1738 H 163.792 3.24604 -0.360498 0
M  V30 1739 H 162.451 2.74253 -2.43271 0
M  V30 1740 H 162.099 4.8863 -1.19371 0
M  V30 1741 H 161.799 5.08875 -2.93803 0
M  V30 1742 H 163.323 5.68702 -2.22284 0
M  V30 1743 H 164.737 4.18066 -3.92293 0
M  V30 1744 H 163.134 3.82075 -4.62751 0
M  V30 1745 H 164.204 2.48552 -4.16353 0
M  V30 1746 N 165.547 1.27147 0.931209 0
M  V30 1747 C 166.494 1.09568 2.03134 0
M  V30 1748 C 167.464 -0.00222433 1.661 0
M  V30 1749 O 168.649 0.159439 1.90133 0
M  V30 1750 C 165.789 0.745231 3.36957 0
M  V30 1751 C 164.902 1.92041 3.86968 0
M  V30 1752 C 164.037 1.51216 5.09222 0
M  V30 1753 C 163.076 2.65504 5.5152 0
M  V30 1754 N 162.213 2.25291 6.64972 0
M  V30 1755 H 167.053 2.03708 2.17502 0
M  V30 1756 H 164.59 1.01411 1.06556 0
M  V30 1757 H 166.548 0.522878 4.1391 0
M  V30 1758 H 165.178 -0.159202 3.22407 0
M  V30 1759 H 164.23 2.25541 3.06326 0
M  V30 1760 H 165.542 2.77787 4.1429 0
M  V30 1761 H 164.696 1.25084 5.93666 0
M  V30 1762 H 163.435 0.625749 4.83669 0
M  V30 1763 H 162.44 2.92354 4.65628 0
M  V30 1764 H 163.665 3.54761 5.7907 0
M  V30 1765 H 161.611 1.39098 6.41083 0
M  V30 1766 H 161.528 3.04577 6.91931 0
M  V30 1767 H 162.796 2.02398 7.52765 0
M  V30 1768 N 167.025 -1.13721 1.09112 0
M  V30 1769 C 168.273 -1.84559 0.823562 0
M  V30 1770 C 168.594 -1.83754 -0.652658 0
M  V30 1771 O 167.864 -1.29102 -1.47342 0
M  V30 1772 H 166.444 -0.683376 0.301673 0
M  V30 1773 H 169.106 -1.37771 1.37859 0
M  V30 1774 H 168.202 -2.8917 1.17419 0
M  V30 1775 N 168.503 -0.877838 -1.30888 0
M  V30 1776 C 169.751 -0.491723 -1.96027 0
M  V30 1777 C 170.072 0.960827 -1.69685 0
M  V30 1778 O 169.342 1.67462 -1.01654 0
M  V30 1779 H 167.922 -0.17885 -0.725273 0
M  V30 1780 H 170.584 -1.11935 -1.59551 0
M  V30 1781 H 169.68 -0.656016 -3.05128 0
M  V30 1782 N 169.982 1.44106 -0.638065 0
M  V30 1783 C 170.945 2.29138 0.0531013 0
M  V30 1784 C 171.945 1.41409 0.765506 0
M  V30 1785 O 173.135 1.63206 0.609046 0
M  V30 1786 C 170.267 3.23144 1.08584 0
M  V30 1787 H 171.46 2.91739 -0.694883 0
M  V30 1788 H 169.013 1.51134 -0.398538 0
M  V30 1789 H 169.748 2.65408 1.86357 0
M  V30 1790 H 169.533 3.87804 0.578852 0
M  V30 1791 H 171.023 3.87004 1.56899 0
M  V30 1792 N 171.46 0.379036 1.52974 0
M  V30 1793 C 172.407 -0.461048 2.26148 0
M  V30 1794 C 173.377 -1.06637 1.27349 0
M  V30 1795 O 174.562 -1.09633 1.56157 0
M  V30 1796 C 171.702 -1.58782 3.06402 0
M  V30 1797 C 170.815 -1.00636 4.20115 0
M  V30 1798 C 169.95 -2.10334 4.87784 0
M  V30 1799 C 168.989 -1.49724 5.93506 0
M  V30 1800 N 168.126 -2.5331 6.54812 0
M  V30 1801 H 172.966 0.169429 2.97518 0
M  V30 1802 H 170.503 0.0953806 1.4679 0
M  V30 1803 H 172.461 -2.25174 3.51215 0
M  V30 1804 H 171.091 -2.18876 2.37261 0
M  V30 1805 H 170.143 -0.232332 3.7969 0
M  V30 1806 H 171.455 -0.523343 4.96047 0
M  V30 1807 H 170.609 -2.84519 5.35849 0
M  V30 1808 H 169.348 -2.61992 4.11353 0
M  V30 1809 H 168.353 -0.740598 5.44789 0
M  V30 1810 H 169.578 -0.988732 6.71864 0
M  V30 1811 H 167.524 -3.04156 5.81227 0
M  V30 1812 H 167.441 -2.09734 7.26325 0
M  V30 1813 H 168.709 -3.27155 7.07524 0
M  V30 1814 N 172.938 -1.57226 0.108567 0
M  V30 1815 C 173.885 -2.14756 -0.845481 0
M  V30 1816 C 174.855 -1.06971 -1.27068 0
M  V30 1817 O 176.04 -1.34827 -1.35005 0
M  V30 1818 C 173.18 -2.74298 -2.09415 0
M  V30 1819 C 172.293 -3.96358 -1.71826 0
M  V30 1820 C 171.428 -4.44021 -2.9158 0
M  V30 1821 C 170.467 -5.58637 -2.50181 0
M  V30 1822 N 169.604 -6.01091 -3.62814 0
M  V30 1823 H 174.444 -2.95961 -0.348035 0
M  V30 1824 H 171.981 -1.46226 -0.160106 0
M  V30 1825 H 173.939 -3.06945 -2.82561 0
M  V30 1826 H 172.569 -1.95801 -2.56636 0
M  V30 1827 H 171.621 -3.69939 -0.885947 0
M  V30 1828 H 172.933 -4.79504 -1.37394 0
M  V30 1829 H 172.087 -4.78522 -3.72963 0
M  V30 1830 H 170.826 -3.59803 -3.29231 0
M  V30 1831 H 169.831 -5.23751 -1.67228 0
M  V30 1832 H 171.056 -6.44613 -2.13659 0
M  V30 1833 H 169.002 -5.19817 -4.00158 0
M  V30 1834 H 168.919 -6.79066 -3.32273 0
M  V30 1835 H 170.187 -6.40227 -4.44668 0
M  V30 1836 N 174.416 0.165178 -1.56732 0
M  V30 1837 C 175.662 0.882112 -1.82611 0
M  V30 1838 C 175.995 1.81628 -0.687378 0
M  V30 1839 O 175.27 1.92009 0.310267 0
M  V30 1840 C 175.553 1.67245 -3.18906 0
M  V30 1841 C 175.406 0.760987 -4.43316 0
M  V30 1842 C 176.725 2.63884 -3.52212 0
M  V30 1843 H 173.844 0.319242 -0.664269 0
M  V30 1844 H 176.486 0.148052 -1.89422 0
M  V30 1845 H 174.636 2.29824 -3.1323 0
M  V30 1846 H 176.308 0.147596 -4.61064 0
M  V30 1847 H 174.551 0.0694102 -4.33744 0
M  V30 1848 H 175.222 1.34962 -5.35247 0
M  V30 1849 H 177.698 2.11429 -3.58381 0
M  V30 1850 H 176.574 3.16245 -4.48643 0
M  V30 1851 H 176.835 3.44377 -2.77231 0
M  V30 1852 N 175.894 1.51508 0.433938 0
M  V30 1853 C 177.143 1.63578 1.18005 0
M  V30 1854 C 177.456 0.359514 1.92268 0
M  V30 1855 O 178.662 0.359632 2.69108 0
M  V30 1856 C 177.118 2.88901 2.14626 0
M  V30 1857 C 176.726 4.23544 1.45995 0
M  V30 1858 C 178.47 3.10328 2.89649 0
M  V30 1859 C 176.377 5.40014 2.4112 0
M  V30 1860 H 175.307 0.609277 0.444182 0
M  V30 1861 H 177.958 1.77978 0.446773 0
M  V30 1862 H 176.34 2.68142 2.91403 0
M  V30 1863 H 177.514 4.54696 0.747532 0
M  V30 1864 H 175.829 4.08021 0.831115 0
M  V30 1865 H 178.426 3.94518 3.60915 0
M  V30 1866 H 178.769 2.23544 3.51189 0
M  V30 1867 H 179.302 3.31443 2.19978 0
M  V30 1868 H 176.041 6.29068 1.84264 0
M  V30 1869 H 175.561 5.13233 3.10406 0
M  V30 1870 H 177.24 5.72099 3.02177 0
M  V30 1871 N 177.372 -0.689602 1.41712 0
M  V30 1872 C 178.305 -1.81403 1.3845 0
M  V30 1873 C 179.283 -1.60653 0.250874 0
M  V30 1874 O 180.467 -1.83323 0.43874 0
M  V30 1875 C 177.594 -3.18176 1.1611 0
M  V30 1876 C 176.64 -3.57705 2.3227 0
M  V30 1877 S 177.473 -3.61827 3.94767 0
M  V30 1878 C 178.629 -5.01318 3.74742 0
M  V30 1879 H 178.862 -1.83893 2.33603 0
M  V30 1880 H 176.395 -0.858878 1.28307 0
M  V30 1881 H 178.353 -3.97132 1.03907 0
M  V30 1882 H 177.014 -3.13288 0.225668 0
M  V30 1883 H 176.207 -4.57082 2.12349 0
M  V30 1884 H 175.809 -2.86073 2.40911 0
M  V30 1885 H 178.101 -5.88986 3.34817 0
M  V30 1886 H 179.044 -5.26283 4.73743 0
M  V30 1887 H 179.452 -4.73138 3.07898 0
M  V30 1888 N 178.85 -1.27639 -0.924453 0
M  V30 1889 C 180.075 -1.17101 -1.71179 0
M  V30 1890 C 180.5 0.268134 -1.86179 0
M  V30 1891 O 179.858 1.19415 -1.36418 0
M  V30 1892 C 179.906 -1.86313 -3.08739 0
M  V30 1893 O 179.01 -1.16331 -3.95652 0
M  V30 1894 H 178.351 -0.407091 -0.524569 0
M  V30 1895 H 180.881 -1.68767 -1.15666 0
M  V30 1896 H 180.891 -1.938 -3.59034 0
M  V30 1897 H 179.566 -2.91001 -2.97138 0
M  V30 1898 H 178.143 -1.16935 -3.54091 0
M  V30 1899 N 180.328 1.1314 -1.09713 0
M  V30 1900 C 181.291 2.16831 -0.742751 0
M  V30 1901 C 182.291 1.59159 0.229129 0
M  V30 1902 O 183.481 1.74199 0.00693237 0
M  V30 1903 C 180.613 3.40756 -0.0989168 0
M  V30 1904 H 181.806 2.49695 -1.66109 0
M  V30 1905 H 179.359 1.2802 -0.896699 0
M  V30 1906 H 180.094 3.13485 0.830514 0
M  V30 1907 H 179.879 3.83888 -0.798265 0
M  V30 1908 H 181.369 4.17386 0.133524 0
M  V30 1909 N 181.806 0.884767 1.30421 0
M  V30 1910 C 183.217 0.553656 1.78302 0
M  V30 1911 C 183.568 -0.930153 1.7275 0
M  V30 1912 O 182.693 -1.72681 1.30423 0
M  V30 1913 C 183.288 0.998234 3.2376 0
M  V30 1914 C 181.847 0.71854 3.69478 0
M  V30 1915 C 180.994 1.18132 2.50879 0
M  V30 1916 H 183.945 1.06901 1.17294 0
M  V30 1917 H 183.966 0.327118 3.79091 0
M  V30 1918 H 183.478 2.0782 3.27769 0
M  V30 1919 H 181.579 -0.349444 3.70958 0
M  V30 1920 H 181.692 1.30595 4.60958 0
M  V30 1921 H 180.056 0.600669 2.47516 0
M  V30 1922 H 180.839 2.26902 2.57624 0
M  V30 1923 N 183.284 -1.43765 0.645699 0
M  V30 1924 C 184.695 -1.85193 0.236719 0
M  V30 1925 C 185.046 -1.54045 -1.21509 0
M  V30 1926 O 184.171 -0.985694 -1.92647 0
M  V30 1927 C 184.766 -3.36151 0.422845 0
M  V30 1928 C 183.325 -3.76338 0.0682492 0
M  V30 1929 C 182.472 -2.67538 0.729306 0
M  V30 1930 H 185.423 -1.34025 0.849883 0
M  V30 1931 H 185.444 -3.79032 -0.333904 0
M  V30 1932 H 184.956 -3.5879 1.47958 0
M  V30 1933 H 183.057 -3.59312 -0.986179 0
M  V30 1934 H 183.17 -4.76603 0.488469 0
M  V30 1935 H 181.534 -2.54176 0.163235 0
M  V30 1936 H 182.317 -2.93006 1.78892 0
M  V30 1937 N 184.763 -0.387143 -1.52771 0
M  V30 1938 C 185.71 0.449048 -2.26389 0
M  V30 1939 C 186.68 1.05961 -1.27912 0
M  V30 1940 O 187.865 1.08804 -1.56737 0
M  V30 1941 C 185.005 1.57155 -3.0724 0
M  V30 1942 C 184.118 0.984066 -4.20643 0
M  V30 1943 C 183.253 2.07745 -4.88892 0
M  V30 1944 C 182.292 1.46574 -5.94292 0
M  V30 1945 N 181.429 2.49834 -6.56146 0
M  V30 1946 H 186.269 -0.185205 -2.97424 0
M  V30 1947 H 183.806 -0.103164 -1.46738 0
M  V30 1948 H 185.764 2.23309 -3.52405 0
M  V30 1949 H 184.394 2.17615 -2.38419 0
M  V30 1950 H 183.446 0.212193 -3.79808 0
M  V30 1951 H 184.758 0.497029 -4.96318 0
M  V30 1952 H 183.912 2.81673 -5.3735 0
M  V30 1953 H 182.651 2.59807 -4.12737 0
M  V30 1954 H 181.656 0.711696 -5.45174 0
M  V30 1955 H 182.881 0.953088 -6.72379 0
M  V30 1956 H 180.827 3.0107 -5.82832 0
M  V30 1957 H 180.744 2.05879 -7.27427 0
M  V30 1958 H 182.012 3.23399 -7.09249 0
M  V30 1959 N 186.241 1.57166 -0.116904 0
M  V30 1960 C 187.518 1.86645 0.585049 0
M  V30 1961 C 187.898 1.0177 1.84949 0
M  V30 1962 O 187.246 0.0960379 2.28298 0
M  V30 1963 C 187.456 3.37736 0.879507 0
M  V30 1964 C 188.804 4.06289 1.23348 0
M  V30 1965 O 189.828 3.42743 0.969836 0
M  V30 1966 O 188.687 5.18455 1.7282 0
M  V30 1967 H 185.781 0.772593 0.295007 0
M  V30 1968 H 188.327 1.69025 -0.151249 0
M  V30 1969 H 187.099 3.91296 -0.0166136 0
M  V30 1970 H 186.722 3.6078 1.67103 0
M  V30 1971 N 187.719 -0.156864 1.56817 0
M  V30 1972 C 188.996 -0.899244 1.73704 0
M  V30 1973 C 189.376 -1.99771 0.682254 0
M  V30 1974 O 188.724 -2.26515 -0.300522 0
M  V30 1975 C 188.934 -1.45075 3.17418 0
M  V30 1976 C 190.282 -1.91802 3.7881 0
M  V30 1977 O 191.306 -1.54838 3.20786 0
M  V30 1978 O 190.165 -2.5994 4.80722 0
M  V30 1979 H 187.259 -0.424267 0.709878 0
M  V30 1980 H 189.805 -0.143561 1.69092 0
M  V30 1981 H 188.577 -0.660846 3.85679 0
M  V30 1982 H 188.2 -2.27021 3.26416 0
M  V30 1983 N 189.197 -1.51736 -0.425897 0
M  V30 1984 C 190.425 -1.68794 -1.1965 0
M  V30 1985 C 190.84 -0.390164 -1.84725 0
M  V30 1986 O 190.197 0.632376 -1.71194 0
M  V30 1987 C 190.248 -2.81174 -2.27208 0
M  V30 1988 O 189.969 -4.05925 -1.64793 0
M  V30 1989 C 191.47 -3.09599 -3.17275 0
M  V30 1990 H 188.69 -0.566128 -0.360194 0
M  V30 1991 H 191.234 -1.98211 -0.503249 0
M  V30 1992 H 189.389 -2.54324 -2.9223 0
M  V30 1993 H 189.803 -4.68423 -2.35967 0
M  V30 1994 H 191.277 -3.91786 -3.88854 0
M  V30 1995 H 191.754 -2.22468 -3.78688 0
M  V30 1996 H 192.36 -3.38151 -2.57941 0
M  V30 1997 N 190.675 0.682077 -1.42076 0
M  V30 1998 C 192.086 1.26246 -1.37546 0
M  V30 1999 C 192.437 1.96092 -0.0651481 0
M  V30 2000 O 191.562 1.99587 0.836297 0
M  V30 2001 C 192.157 2.29594 -2.49143 0
M  V30 2002 C 190.716 2.83175 -2.47969 0
M  V30 2003 C 189.863 1.57395 -2.28303 0
M  V30 2004 H 192.814 0.475937 -1.51395 0
M  V30 2005 H 192.835 3.11175 -2.18976 0
M  V30 2006 H 192.347 1.78729 -3.44496 0
M  V30 2007 H 190.448 3.3818 -1.56413 0
M  V30 2008 H 190.561 3.32687 -3.44755 0
M  V30 2009 H 188.925 1.83699 -1.76428 0
M  V30 2010 H 189.708 1.08507 -3.25701 0
M  V30 2011 N 192.153 1.28127 0.917671 0
M  V30 2012 C 193.402 1.14432 1.66097 0
M  V30 2013 C 193.715 -0.307247 1.93172 0
M  V30 2014 O 194.921 -0.565259 2.65551 0
M  V30 2015 C 193.377 2.00015 2.99202 0
M  V30 2016 C 192.985 3.49889 2.79789 0
M  V30 2017 C 194.729 1.94996 3.77064 0
M  V30 2018 C 192.636 4.27636 4.08511 0
M  V30 2019 H 191.566 0.424662 0.62304 0
M  V30 2020 H 194.217 1.52628 1.01868 0
M  V30 2021 H 192.599 1.54672 3.64544 0
M  V30 2022 H 193.773 4.03162 2.23152 0
M  V30 2023 H 192.088 3.56392 2.15345 0
M  V30 2024 H 194.685 2.50354 4.72469 0
M  V30 2025 H 195.028 0.925819 4.05875 0
M  V30 2026 H 195.561 2.38287 3.18534 0
M  V30 2027 H 192.3 5.30615 3.84874 0
M  V30 2028 H 191.82 3.79137 4.64774 0
M  V30 2029 H 193.499 4.37346 4.76799 0
M  V30 2030 N 193.631 -1.12557 1.10312 0
M  V30 2031 C 194.861 -1.87592 0.865617 0
M  V30 2032 C 195.269 -1.79851 -0.587389 0
M  V30 2033 O 194.612 -1.16949 -1.41664 0
M  V30 2034 C 194.674 -3.37665 1.23381 0
M  V30 2035 C 194.338 -3.69181 2.69359 0
M  V30 2036 C 195.335 -3.67652 3.67597 0
M  V30 2037 C 193.02 -3.98555 3.05711 0
M  V30 2038 C 195.014 -3.95053 5.00212 0
M  V30 2039 C 192.701 -4.25616 4.38514 0
M  V30 2040 C 193.699 -4.23851 5.35574 0
M  V30 2041 O 193.387 -4.50242 6.65986 0
M  V30 2042 H 193.119 -0.600442 0.310557 0
M  V30 2043 H 195.673 -1.4335 1.47105 0
M  V30 2044 H 193.903 -3.82454 0.571467 0
M  V30 2045 H 195.592 -3.94041 0.973994 0
M  V30 2046 H 196.358 -3.45024 3.40857 0
M  V30 2047 H 192.237 -3.99071 2.30789 0
M  V30 2048 H 195.781 -3.93591 5.75962 0
M  V30 2049 H 191.678 -4.47718 4.64994 0
M  V30 2050 H 192.446 -4.67867 6.71597 0
M  V30 2051 N 195.109 -0.891671 -1.2995 0
M  V30 2052 C 196.355 -0.514261 -1.96171 0
M  V30 2053 C 196.688 0.935506 -1.70182 0
M  V30 2054 O 195.963 1.66204 -1.01028 0
M  V30 2055 C 196.246 -0.797719 -3.51153 0
M  V30 2056 C 196.099 -2.2986 -3.86632 0
M  V30 2057 C 197.418 -0.278749 -4.39216 0
M  V30 2058 H 194.537 -0.188314 -0.712535 0
M  V30 2059 H 197.179 -1.11689 -1.53706 0
M  V30 2060 H 195.329 -0.284826 -3.87455 0
M  V30 2061 H 197.001 -2.88042 -3.60319 0
M  V30 2062 H 195.244 -2.76257 -3.34462 0
M  V30 2063 H 195.915 -2.44753 -4.94773 0
M  V30 2064 H 198.391 -0.717825 -4.09862 0
M  V30 2065 H 197.267 -0.506353 -5.46559 0
M  V30 2066 H 197.528 0.820266 -4.34424 0
M  V30 2067 N 196.587 1.43421 -0.653314 0
M  V30 2068 C 197.52 2.2803 0.0879804 0
M  V30 2069 C 198.498 1.39833 0.82979 0
M  V30 2070 O 199.682 1.69275 0.829341 0
M  V30 2071 C 196.809 3.19247 1.13132 0
M  V30 2072 C 195.855 4.23704 0.487546 0
M  V30 2073 S 196.688 5.30377 -0.738961 0
M  V30 2074 C 197.844 6.25162 0.30384 0
M  V30 2075 H 198.077 2.90554 -0.629739 0
M  V30 2076 H 195.61 1.47934 -0.442156 0
M  V30 2077 H 197.568 3.72346 1.72827 0
M  V30 2078 H 196.229 2.55901 1.82136 0
M  V30 2079 H 195.422 4.87631 1.27407 0
M  V30 2080 H 195.024 3.73983 -0.0352915 0
M  V30 2081 H 197.316 6.67321 1.17 0
M  V30 2082 H 198.259 7.07463 -0.300402 0
M  V30 2083 H 198.667 5.60864 0.63969 0
M  V30 2084 N 198.065 0.39524 1.52563 0
M  V30 2085 C 199.313 -0.184678 2.01254 0
M  V30 2086 C 199.634 -1.46822 1.28329 0
M  V30 2087 O 198.904 -1.91666 0.405094 0
M  V30 2088 H 197.484 -0.0712355 0.743596 0
M  V30 2089 H 200.146 0.528293 1.87603 0
M  V30 2090 H 199.242 -0.390681 3.09645 0
M  V30 2091 N 199.544 -1.57102 0.125237 0
M  V30 2092 C 200.793 -1.94582 -0.531095 0
M  V30 2093 C 201.106 -1.01126 -1.6743 0
M  V30 2094 O 202.312 -1.28097 -2.39381 0
M  V30 2095 C 200.768 -3.45839 -0.996164 0
M  V30 2096 C 200.376 -4.47842 0.118926 0
M  V30 2097 C 202.12 -3.92227 -1.62352 0
M  V30 2098 C 200.027 -5.90284 -0.363192 0
M  V30 2099 H 198.957 -0.726391 -0.20217 0
M  V30 2100 H 201.608 -1.82339 0.206092 0
M  V30 2101 H 199.99 -3.53338 -1.78796 0
M  V30 2102 H 201.164 -4.52018 0.895358 0
M  V30 2103 H 199.479 -4.11243 0.653324 0
M  V30 2104 H 202.076 -4.96069 -1.99548 0
M  V30 2105 H 202.419 -3.32552 -2.50429 0
M  V30 2106 H 202.952 -3.87554 -0.897019 0
M  V30 2107 H 199.691 -6.53728 0.481679 0
M  V30 2108 H 199.211 -5.89515 -1.10597 0
M  V30 2109 H 200.89 -6.41752 -0.822377 0
M  V30 2110 N 201.022 0.148545 -1.56898 0
M  V30 2111 C 201.97 1.20265 -1.99096 0
M  V30 2112 C 202.964 1.44559 -0.883123 0
M  V30 2113 O 204.17 1.4487 -1.0683 0
M  V30 2114 H 200.545 0.404786 -0.63376 0
M  V30 2115 H 202.516 0.82004 -2.86911 0
M  V30 2116 C 201.265 2.52886 -2.3863 0
M  V30 2117 H 200.588 2.35021 -3.23427 0
M  V30 2118 H 202.028 3.25274 -2.7198 0
M  V30 2119 C 200.487 3.13315 -1.23837 0
M  V30 2120 O 201.017 3.98077 -0.538268 0
M  V30 2121 N 199.223 2.72742 -1.00301 0
M  V30 2122 H 198.77 2.03912 -1.5741 0
M  V30 2123 H 198.728 3.13507 -0.236838 0
M  V30 2124 N 202.5 1.5196 0.417844 0
M  V30 2125 C 203.45 1.7106 1.5074 0
M  V30 2126 C 204.434 0.564487 1.50673 0
M  V30 2127 O 205.626 0.821206 1.56797 0
M  V30 2128 C 202.755 1.85677 2.88754 0
M  V30 2129 C 201.841 3.06133 2.93502 0
M  V30 2130 N 202.232 4.28987 2.67962 0
M  V30 2131 C 200.53 3.05787 3.24669 0
M  V30 2132 C 201.231 5.10395 2.79055 0
M  V30 2133 N 200.207 4.45455 3.11561 0
M  V30 2134 H 204.009 2.63696 1.29775 0
M  V30 2135 H 201.523 1.49873 0.625436 0
M  V30 2136 H 203.52 1.97475 3.67164 0
M  V30 2137 H 202.18 0.942348 3.10725 0
M  V30 2138 H 203.191 4.57607 2.4252 0
M  V30 2139 H 199.868 2.2405 3.52289 0
M  V30 2140 H 201.258 6.18247 2.63097 0
M  V30 2141 N 203.978 -0.674533 1.42435 0
M  V30 2142 C 204.928 -1.7807 1.4239 0
M  V30 2143 C 205.912 -1.58169 0.295202 0
M  V30 2144 O 207.104 -1.68643 0.537449 0
M  V30 2145 C 204.233 -3.16532 1.32901 0
M  V30 2146 C 203.319 -3.42055 2.50717 0
M  V30 2147 N 203.71 -3.38162 3.76139 0
M  V30 2148 C 202.008 -3.72692 2.44983 0
M  V30 2149 C 202.709 -3.63177 4.54398 0
M  V30 2150 N 201.685 -3.83954 3.84812 0
M  V30 2151 H 205.487 -1.73454 2.37257 0
M  V30 2152 H 203.001 -0.875381 1.36788 0
M  V30 2153 H 204.998 -3.958 1.30951 0
M  V30 2154 H 203.658 -3.22345 0.390363 0
M  V30 2155 H 204.669 -3.18057 4.0873 0
M  V30 2156 H 201.346 -3.85749 1.59699 0
M  V30 2157 H 202.736 -3.66125 5.63384 0
M  V30 2158 N 205.456 -1.28612 -0.910864 0
M  V30 2159 C 206.388 -1.08589 -2.01844 0
M  V30 2160 C 207.401 -0.0367419 -1.62759 0
M  V30 2161 O 208.59 -0.280101 -1.76289 0
M  V30 2162 C 205.69 -0.628626 -3.33019 0
M  V30 2163 C 204.863 -1.75382 -4.00699 0
M  V30 2164 C 203.922 -1.28945 -5.10156 0
M  V30 2165 O 202.948 -1.9922 -5.33198 0
M  V30 2166 N 204.15 -0.154224 -5.80295 0
M  V30 2167 H 206.915 -2.03973 -2.19579 0
M  V30 2168 H 204.476 -1.20403 -1.08234 0
M  V30 2169 H 206.468 -0.301508 -4.03575 0
M  V30 2170 H 205.038 0.232451 -3.11735 0
M  V30 2171 H 204.258 -2.25039 -3.23653 0
M  V30 2172 H 205.546 -2.50854 -4.42662 0
M  V30 2173 H 204.944 0.43194 -5.64049 0
M  V30 2174 H 203.501 0.113599 -6.51701 0
M  V30 2175 N 206.934 1.1197 -1.10907 0
M  V30 2176 C 208.164 1.8713 -0.875553 0
M  V30 2177 C 208.572 1.8016 0.577843 0
M  V30 2178 O 207.915 1.17699 1.41042 0
M  V30 2179 C 207.977 3.37005 -1.2517 0
M  V30 2180 C 207.641 3.67748 -2.71313 0
M  V30 2181 C 208.638 3.65698 -3.69542 0
M  V30 2182 C 206.323 3.96928 -3.07821 0
M  V30 2183 C 208.317 3.92395 -5.023 0
M  V30 2184 C 206.004 4.23284 -4.40765 0
M  V30 2185 C 207.002 4.21005 -5.37814 0
M  V30 2186 O 206.69 4.46704 -6.68364 0
M  V30 2187 H 206.422 0.598786 -0.313737 0
M  V30 2188 H 208.976 1.42568 -1.47863 0
M  V30 2189 H 207.206 3.82146 -0.591741 0
M  V30 2190 H 208.895 3.93519 -0.994877 0
M  V30 2191 H 209.661 3.43211 -3.42682 0
M  V30 2192 H 205.54 3.97841 -2.32902 0
M  V30 2193 H 209.084 3.90531 -5.78041 0
M  V30 2194 H 204.981 4.45246 -4.67361 0
M  V30 2195 H 205.749 4.64299 -6.74069 0
M  V30 2196 N 208.412 0.89855 1.29475 0
M  V30 2197 C 209.689 0.443416 1.90508 0
M  V30 2198 C 210.069 -1.07685 1.81569 0
M  V30 2199 O 209.417 -1.9182 1.24166 0
M  V30 2200 C 209.627 0.956708 3.35631 0
M  V30 2201 C 210.975 0.999728 4.12663 0
M  V30 2202 O 211.999 0.904299 3.4453 0
M  V30 2203 O 210.858 1.14289 5.34416 0
M  V30 2204 H 207.952 0.138025 0.815401 0
M  V30 2205 H 210.498 0.98834 1.37949 0
M  V30 2206 H 209.27 2.00067 3.36287 0
M  V30 2207 H 208.893 0.391728 3.95666 0
M  V30 2208 N 209.89 -1.43072 0.660911 0
M  V30 2209 C 211.118 -2.06067 0.185422 0
M  V30 2210 C 211.533 -1.49582 -1.15198 0
M  V30 2211 O 210.89 -0.630134 -1.71276 0
M  V30 2212 C 210.941 -3.61371 0.0966523 0
M  V30 2213 O 210.662 -4.15758 1.38119 0
M  V30 2214 C 212.163 -4.41455 -0.403996 0
M  V30 2215 H 209.383 -0.664459 0.0934604 0
M  V30 2216 H 211.927 -1.83447 0.90373 0
M  V30 2217 H 210.082 -3.8315 -0.572259 0
M  V30 2218 H 210.496 -5.09499 1.24542 0
M  V30 2219 H 211.97 -5.50437 -0.415045 0
M  V30 2220 H 212.447 -4.15036 -1.43674 0
M  V30 2221 H 213.053 -4.24663 0.232691 0
M  V30 2222 N 211.368 -0.403325 -1.52352 0
M  V30 2223 C 212.315 0.425011 -2.26853 0
M  V30 2224 C 213.285 1.04598 -1.29029 0
M  V30 2225 O 214.47 1.07135 -1.57882 0
M  V30 2226 C 211.61 1.53888 -3.08889 0
M  V30 2227 C 210.723 0.939396 -4.21663 0
M  V30 2228 C 209.858 2.02547 -4.91068 0
M  V30 2229 C 208.897 1.40263 -5.95813 0
M  V30 2230 N 208.034 2.4286 -6.58759 0
M  V30 2231 H 212.874 -0.21674 -2.97211 0
M  V30 2232 H 210.411 -0.118722 -1.4662 0
M  V30 2233 H 212.369 2.19558 -3.54753 0
M  V30 2234 H 210.999 2.15074 -2.40714 0
M  V30 2235 H 210.051 0.171898 -3.80011 0
M  V30 2236 H 211.363 0.44436 -4.96817 0
M  V30 2237 H 210.517 2.75958 -5.40308 0
M  V30 2238 H 209.256 2.55415 -4.15469 0
M  V30 2239 H 208.261 0.653833 -5.45898 0
M  V30 2240 H 209.486 0.881719 -6.73352 0
M  V30 2241 H 207.432 2.94871 -5.85992 0
M  V30 2242 H 207.349 1.98152 -7.2957 0
M  V30 2243 H 208.617 3.15858 -7.12639 0
M  V30 2244 N 212.846 1.57033 -0.133567 0
M  V30 2245 C 213.778 2.13176 0.841944 0
M  V30 2246 C 214.791 1.07794 1.22001 0
M  V30 2247 O 215.98 1.35117 1.16643 0
M  V30 2248 C 213.08 2.62847 2.13926 0
M  V30 2249 C 212.253 3.92486 1.93064 0
M  V30 2250 C 211.312 4.27605 3.0666 0
M  V30 2251 O 210.338 4.96168 2.78937 0
M  V30 2252 N 211.54 3.861 4.33483 0
M  V30 2253 H 214.305 2.97503 0.362192 0
M  V30 2254 H 211.866 1.61821 0.05042 0
M  V30 2255 H 213.858 2.83363 2.88942 0
M  V30 2256 H 212.428 1.83319 2.53205 0
M  V30 2257 H 211.648 3.80732 1.02159 0
M  V30 2258 H 212.936 4.77225 1.76447 0
M  V30 2259 H 212.334 3.30828 4.58878 0
M  V30 2260 H 210.891 4.11694 5.05323 0
M  V30 2261 N 214.325 -0.140222 1.56975 0
M  V30 2262 C 215.255 -1.17456 2.01808 0
M  V30 2263 C 216.236 -1.44415 0.898794 0
M  V30 2264 O 217.421 -1.5522 1.16707 0
M  V30 2265 C 214.551 -2.50607 2.40444 0
M  V30 2266 C 213.505 -2.38155 3.55621 0
M  V30 2267 C 212.831 -3.76078 3.80091 0
M  V30 2268 C 214.131 -1.85991 4.88062 0
M  V30 2269 H 215.825 -0.801743 2.88466 0
M  V30 2270 H 213.371 -0.38422 1.38779 0
M  V30 2271 H 215.324 -3.23197 2.7041 0
M  V30 2272 H 214.048 -2.89737 1.50732 0
M  V30 2273 H 212.707 -1.68016 3.25832 0
M  V30 2274 H 212.355 -4.12656 2.87618 0
M  V30 2275 H 212.055 -3.68606 4.57606 0
M  V30 2276 H 213.579 -4.50206 4.12488 0
M  V30 2277 H 214.993 -2.4838 5.16701 0
M  V30 2278 H 213.39 -1.89393 5.6943 0
M  V30 2279 H 214.46 -0.816023 4.77984 0
M  V30 2280 N 215.803 -1.52179 -0.40978 0
M  V30 2281 C 217.052 -1.65434 -1.15388 0
M  V30 2282 C 217.365 -0.390056 -1.91671 0
M  V30 2283 O 218.571 -0.402399 -2.68501 0
M  V30 2284 C 217.027 -2.92279 -2.10003 0
M  V30 2285 C 216.635 -4.25813 -1.39239 0
M  V30 2286 C 218.379 -3.14897 -2.84675 0
M  V30 2287 C 216.286 -5.43782 -2.32498 0
M  V30 2288 H 215.216 -0.616267 -0.434432 0
M  V30 2289 H 217.867 -1.78666 -0.418401 0
M  V30 2290 H 216.249 -2.72744 -2.871 0
M  V30 2291 H 217.423 -4.55828 -0.675099 0
M  V30 2292 H 215.738 -4.09292 -0.766097 0
M  V30 2293 H 218.335 -4.0021 -3.54593 0
M  V30 2294 H 218.678 -2.29103 -3.47588 0
M  V30 2295 H 219.211 -3.34901 -2.14677 0
M  V30 2296 H 215.95 -6.3192 -1.74233 0
M  V30 2297 H 215.47 -5.18106 -3.02201 0
M  V30 2298 H 217.149 -5.76834 -2.93038 0
M  V30 2299 N 217.281 0.66697 -1.42791 0
M  V30 2300 C 218.527 1.4291 -1.43891 0
M  V30 2301 C 218.86 1.94114 -0.0578972 0
M  V30 2302 O 218.135 1.71414 0.91911 0
M  V30 2303 C 218.418 2.62049 -2.46987 0
M  V30 2304 C 218.271 2.16426 -3.94309 0
M  V30 2305 C 219.59 3.64266 -2.46978 0
M  V30 2306 H 216.709 0.518306 -0.523954 0
M  V30 2307 H 219.351 0.757321 -1.74255 0
M  V30 2308 H 217.501 3.19361 -2.21225 0
M  V30 2309 H 219.173 1.64221 -4.31079 0
M  V30 2310 H 217.416 1.47925 -4.078 0
M  V30 2311 H 218.087 3.02038 -4.62036 0
M  V30 2312 H 220.563 3.16686 -2.69906 0
M  V30 2313 H 219.439 4.45196 -3.21079 0
M  V30 2314 H 219.7 4.15927 -1.49857 0
M  V30 2315 N 218.759 1.29093 0.90403 0
M  V30 2316 C 219.984 1.19809 1.69294 0
M  V30 2317 C 220.409 -0.238481 1.86582 0
M  V30 2318 O 219.767 -1.1723 1.383 0
M  V30 2319 C 219.815 1.91202 3.05736 0
M  V30 2320 O 218.919 1.22611 3.93752 0
M  V30 2321 H 218.26 0.415385 0.518027 0
M  V30 2322 H 220.79 1.70586 1.12967 0
M  V30 2323 H 220.8 1.99487 3.55906 0
M  V30 2324 H 219.475 2.95692 2.92471 0
M  V30 2325 H 218.052 1.22554 3.52186 0
M  V30 2326 N 220.237 -1.11381 1.11499 0
M  V30 2327 C 221.185 -2.19522 0.768956 0
M  V30 2328 C 222.179 -1.67693 -0.239857 0
M  V30 2329 O 223.385 -1.79727 -0.0990755 0
M  V30 2330 H 219.76 -0.715711 0.230786 0
M  V30 2331 H 221.731 -2.45954 1.68964 0
M  V30 2332 C 220.48 -3.46945 0.229073 0
M  V30 2333 H 219.803 -3.8718 0.996596 0
M  V30 2334 H 221.243 -4.23993 0.0251441 0
M  V30 2335 C 219.702 -3.2042 -1.04079 0
M  V30 2336 O 220.232 -3.41178 -2.12038 0
M  V30 2337 N 218.438 -2.74151 -0.963823 0
M  V30 2338 H 217.985 -2.57459 -0.0851722 0
M  V30 2339 H 217.943 -2.56781 -1.81414 0
M  V30 2340 N 221.715 -0.905404 -1.28997 0
M  V30 2341 C 222.678 -0.392253 -2.25819 0
M  V30 2342 C 223.678 0.476753 -1.5357 0
M  V30 2343 O 224.868 0.280994 -1.71919 0
M  V30 2344 C 222 0.438588 -3.38067 0
M  V30 2345 H 223.193 -1.24743 -2.72725 0
M  V30 2346 H 220.746 -0.684051 -1.40536 0
M  V30 2347 H 221.481 1.31352 -2.96508 0
M  V30 2348 H 221.266 -0.184167 -3.91667 0
M  V30 2349 H 222.756 0.78873 -4.10084 0
M  V30 2350 N 223.193 1.4272 -0.668489 0
M  V30 2351 C 224.418 2.06484 -0.194758 0
M  V30 2352 C 224.843 1.49862 1.13679 0
M  V30 2353 O 224.201 0.614582 1.70565 0
M  V30 2354 C 224.249 3.60353 -0.133546 0
M  V30 2355 O 223.353 4.02464 0.899806 0
M  V30 2356 H 222.694 0.656137 -0.10188 0
M  V30 2357 H 225.224 1.82964 -0.915722 0
M  V30 2358 H 225.234 4.07976 0.0447041 0
M  V30 2359 H 223.909 4.00938 -1.1055 0
M  V30 2360 H 222.486 3.66402 0.693109 0
M  V30 2361 N 224.671 0.411399 1.52136 0
M  V30 2362 C 225.911 -0.163143 2.03748 0
M  V30 2363 C 226.275 -1.42187 1.29022 0
M  V30 2364 O 227.476 -2.075 1.70872 0
M  V30 2365 C 225.747 -0.402651 3.55125 0
M  V30 2366 S 227.306 -0.944315 4.28519 0
M  V30 2367 H 224.124 -0.0439833 0.709638 0
M  V30 2368 H 226.726 0.56484 1.87163 0
M  V30 2369 H 225.43 0.520212 4.0709 0
M  V30 2370 H 224.961 -1.15844 3.75957 0
M  V30 2371 H 226.976 -2.22463 4.43536 0
M  V30 2372 N 226.149 -1.5696 0.141893 0
M  V30 2373 C 227.377 -2.00322 -0.517579 0
M  V30 2374 C 227.792 -1.02193 -1.58752 0
M  V30 2375 O 227.149 -0.0181619 -1.82491 0
M  V30 2376 C 227.2 -3.43618 -1.12289 0
M  V30 2377 O 226.921 -4.37995 -0.0956929 0
M  V30 2378 C 228.422 -4.02231 -1.86347 0
M  V30 2379 H 225.642 -0.657243 -0.135177 0
M  V30 2380 H 228.186 -2.03146 0.234973 0
M  V30 2381 H 226.341 -3.41662 -1.82609 0
M  V30 2382 H 226.755 -5.21729 -0.538469 0
M  V30 2383 H 228.229 -5.04509 -2.23997 0
M  V30 2384 H 228.706 -3.42655 -2.74744 0
M  V30 2385 H 229.312 -4.07802 -1.20737 0
M  V30 2386 N 227.627 0.131896 -1.57047 0
M  V30 2387 C 228.855 0.856461 -1.88341 0
M  V30 2388 C 229.27 1.74042 -0.731757 0
M  V30 2389 O 228.627 1.80051 0.297945 0
M  V30 2390 C 228.678 1.70064 -3.18999 0
M  V30 2391 O 228.399 0.852278 -4.2973 0
M  V30 2392 C 229.9 2.53148 -3.63911 0
M  V30 2393 H 227.12 0.246885 -0.62393 0
M  V30 2394 H 229.664 0.120152 -2.04147 0
M  V30 2395 H 227.819 2.38984 -3.04902 0
M  V30 2396 H 228.233 1.43329 -5.04537 0
M  V30 2397 H 229.707 3.07931 -4.58129 0
M  V30 2398 H 230.184 3.29901 -2.89935 0
M  V30 2399 H 230.79 1.89492 -3.80753 0
M  V30 2400 N 229.106 1.52395 0.401703 0
M  V30 2401 C 230.054 1.7689 1.51039 0
M  V30 2402 C 231.048 0.636298 1.56996 0
M  V30 2403 O 232.254 0.818507 1.60314 0
M  V30 2404 H 228.629 0.559502 0.502456 0
M  V30 2405 H 230.6 2.69757 1.27568 0
M  V30 2406 C 229.349 1.94331 2.88324 0
M  V30 2407 H 228.672 2.80905 2.84486 0
M  V30 2408 H 230.112 2.15466 3.65172 0
M  V30 2409 C 228.571 0.712396 3.29282 0
M  V30 2410 O 229.101 -0.116218 4.01532 0
M  V30 2411 N 227.307 0.546154 2.85422 0
M  V30 2412 H 226.854 1.22156 2.26794 0
M  V30 2413 H 226.812 -0.276113 3.13185 0
M  V30 2414 N 230.584 -0.659388 1.43143 0
M  V30 2415 C 231.824 -1.43121 1.45931 0
M  V30 2416 C 232.188 -1.91838 0.0789298 0
M  V30 2417 O 233.389 -2.68794 -0.018491 0
M  V30 2418 C 231.66 -2.58534 2.46769 0
M  V30 2419 S 233.219 -3.47154 2.68384 0
M  V30 2420 H 230.037 -0.488624 0.516496 0
M  V30 2421 H 232.639 -0.766128 1.79863 0
M  V30 2422 H 231.343 -2.21007 3.45809 0
M  V30 2423 H 230.874 -3.29898 2.14315 0
M  V30 2424 H 232.889 -4.55051 1.97845 0
M  V30 2425 N 232.062 -1.29571 -0.897171 0
M  V30 2426 C 232.992 -1.17473 -2.01798 0
M  V30 2427 C 233.973 -0.068323 -1.69963 0
M  V30 2428 O 235.158 -0.248239 -1.92607 0
M  V30 2429 C 232.288 -0.853099 -3.36659 0
M  V30 2430 C 231.242 -1.9161 -3.82713 0
M  V30 2431 C 230.568 -1.44773 -5.14728 0
M  V30 2432 C 231.868 -3.32535 -4.02763 0
M  V30 2433 H 233.562 -2.11237 -2.12177 0
M  V30 2434 H 231.108 -1.01699 -1.01948 0
M  V30 2435 H 233.061 -0.755165 -4.14578 0
M  V30 2436 H 231.785 0.120236 -3.26379 0
M  V30 2437 H 230.444 -2.00346 -3.07013 0
M  V30 2438 H 230.092 -0.462995 -5.00865 0
M  V30 2439 H 229.792 -2.15865 -5.46513 0
M  V30 2440 H 231.316 -1.36334 -5.95185 0
M  V30 2441 H 232.73 -3.26626 -4.71156 0
M  V30 2442 H 231.127 -4.01607 -4.45905 0
M  V30 2443 H 232.197 -3.75326 -3.07016 0
M  V30 2444 N 233.54 1.10788 -1.12088 0
M  V30 2445 C 234.503 2.15207 -0.788577 0
M  V30 2446 C 235.503 1.59609 0.195317 0
M  V30 2447 O 236.693 1.74174 -0.0300193 0
M  V30 2448 C 233.825 3.4047 -0.171174 0
M  V30 2449 H 235.018 2.46116 -1.71368 0
M  V30 2450 H 232.571 1.26089 -0.923652 0
M  V30 2451 H 233.306 3.15176 0.763832 0
M  V30 2452 H 233.091 3.82109 -0.879514 0
M  V30 2453 H 234.581 4.17576 0.04496 0
M  V30 2454 N 235.018 0.912232 1.28515 0
M  V30 2455 C 236.429 0.591352 1.77087 0
M  V30 2456 C 236.78 -0.8933 1.74684 0
M  V30 2457 O 235.905 -1.69876 1.34056 0
M  V30 2458 C 236.5 1.06668 3.2157 0
M  V30 2459 C 235.059 0.79675 3.67871 0
M  V30 2460 C 234.206 1.23427 2.48316 0
M  V30 2461 H 237.157 1.09365 1.15 0
M  V30 2462 H 237.178 0.407455 3.78312 0
M  V30 2463 H 236.69 2.14726 3.23287 0
M  V30 2464 H 234.791 -0.270679 3.71616 0
M  V30 2465 H 234.904 1.40343 4.58084 0
M  V30 2466 H 233.268 0.653036 2.46186 0
M  V30 2467 H 234.051 2.32316 2.52753 0
M  V30 2468 N 236.496 -1.42363 0.676048 0
M  V30 2469 C 237.426 -2.33497 0.0124832 0
M  V30 2470 C 238.407 -1.50748 -0.787981 0
M  V30 2471 O 239.592 -1.79346 -0.744884 0
M  V30 2472 C 236.722 -3.34377 -0.938582 0
M  V30 2473 C 235.676 -4.27289 -0.246622 0
M  V30 2474 C 235.002 -5.18386 -1.31071 0
M  V30 2475 C 236.302 -5.14916 0.875125 0
M  V30 2476 H 237.996 -2.89233 0.773593 0
M  V30 2477 H 235.542 -1.39073 0.37346 0
M  V30 2478 H 237.495 -3.97044 -1.41188 0
M  V30 2479 H 236.219 -2.76947 -1.73113 0
M  V30 2480 H 234.878 -3.66018 0.206456 0
M  V30 2481 H 234.526 -4.57282 -2.09528 0
M  V30 2482 H 234.226 -5.81378 -0.852839 0
M  V30 2483 H 235.75 -5.83929 -1.78492 0
M  V30 2484 H 237.164 -5.71262 0.482983 0
M  V30 2485 H 235.561 -5.86747 1.25887 0
M  V30 2486 H 236.631 -4.53242 1.72335 0
M  V30 2487 N 237.974 -0.419461 -1.51915 0
M  V30 2488 C 238.937 0.389116 -2.25873 0
M  V30 2489 C 239.937 0.964924 -1.28631 0
M  V30 2490 O 241.127 0.842179 -1.52489 0
M  V30 2491 C 238.259 1.54874 -3.03689 0
M  V30 2492 H 239.452 -0.258799 -2.98781 0
M  V30 2493 H 237.005 -0.172209 -1.55348 0
M  V30 2494 H 237.74 2.23323 -2.35154 0
M  V30 2495 H 237.525 1.14223 -3.75094 0
M  V30 2496 H 239.015 2.12046 -3.59759 0
M  V30 2497 N 239.452 1.56882 -0.150215 0
M  V30 2498 C 240.399 2.16922 0.788244 0
M  V30 2499 C 241.369 1.10303 1.24187 0
M  V30 2500 O 242.554 1.38359 1.31383 0
M  V30 2501 C 239.694 2.79754 2.02068 0
M  V30 2502 C 238.807 4.00775 1.61257 0
M  V30 2503 C 237.942 4.51595 2.79705 0
M  V30 2504 C 236.981 5.65074 2.35282 0
M  V30 2505 N 236.118 6.10499 3.4675 0
M  V30 2506 H 240.958 2.96779 0.269444 0
M  V30 2507 H 238.495 1.46599 0.12128 0
M  V30 2508 H 240.453 3.14329 2.74323 0
M  V30 2509 H 239.083 2.02536 2.51354 0
M  V30 2510 H 238.135 3.72158 0.787553 0
M  V30 2511 H 239.447 4.82978 1.24633 0
M  V30 2512 H 238.601 4.88242 3.60145 0
M  V30 2513 H 237.34 3.68406 3.19576 0
M  V30 2514 H 236.345 5.28 1.53283 0
M  V30 2515 H 237.57 6.50052 1.96493 0
M  V30 2516 H 235.516 5.30243 3.86236 0
M  V30 2517 H 235.433 6.87637 3.14152 0
M  V30 2518 H 236.701 6.51791 4.27537 0
M  V30 2519 N 240.93 -0.123565 1.57115 0
M  V30 2520 C 242.176 -0.833386 1.84885 0
M  V30 2521 C 242.509 -1.79742 0.735292 0
M  V30 2522 O 241.784 -1.92764 -0.25925 0
M  V30 2523 C 242.067 -1.5873 3.23228 0
M  V30 2524 C 241.92 -0.643183 4.45178 0
M  V30 2525 C 243.239 -2.54453 3.59085 0
M  V30 2526 H 240.358 -0.301518 0.6725 0
M  V30 2527 H 243 -0.097778 1.89748 0
M  V30 2528 H 241.15 -2.21438 3.19214 0
M  V30 2529 H 242.822 -0.0253015 4.61293 0
M  V30 2530 H 241.065 0.0456139 4.33776 0
M  V30 2531 H 241.736 -1.20724 5.38637 0
M  V30 2532 H 244.212 -2.01853 3.63861 0
M  V30 2533 H 243.088 -3.04238 4.5687 0
M  V30 2534 H 243.349 -3.36906 2.86264 0
M  V30 2535 N 242.408 -1.52605 -0.393616 0
M  V30 2536 C 243.657 -1.66649 -1.13627 0
M  V30 2537 C 243.97 -0.410364 -1.91247 0
M  V30 2538 O 245.176 -0.430854 -2.68059 0
M  V30 2539 C 243.632 -2.9449 -2.06891 0
M  V30 2540 C 243.24 -4.27266 -1.34714 0
M  V30 2541 C 244.984 -3.17899 -2.81319 0
M  V30 2542 C 242.891 -5.46217 -2.26717 0
M  V30 2543 H 241.821 -0.62084 -0.427871 0
M  V30 2544 H 244.472 -1.791 -0.399428 0
M  V30 2545 H 242.854 -2.75774 -2.84191 0
M  V30 2546 H 244.028 -4.56518 -0.626714 0
M  V30 2547 H 242.343 -4.10081 -0.722643 0
M  V30 2548 H 244.94 -4.03949 -3.50328 0
M  V30 2549 H 245.283 -2.32777 -3.45139 0
M  V30 2550 H 245.816 -3.37159 -2.11113 0
M  V30 2551 H 242.555 -6.33733 -1.67521 0
M  V30 2552 H 242.075 -5.21283 -2.96689 0
M  V30 2553 H 243.754 -5.7991 -2.86903 0
M  V30 2554 N 243.887 0.651787 -1.4349 0
M  V30 2555 C 244.835 1.78586 -1.49029 0
M  V30 2556 C 245.829 1.65448 -0.363767 0
M  V30 2557 O 247.035 1.71777 -0.537821 0
M  V30 2558 H 243.41 0.589236 -0.467231 0
M  V30 2559 H 245.381 1.71035 -2.44519 0
M  V30 2560 C 244.13 3.16851 -1.43181 0
M  V30 2561 H 243.453 3.27598 -2.29171 0
M  V30 2562 H 244.893 3.96156 -1.51118 0
M  V30 2563 C 243.352 3.36568 -0.149616 0
M  V30 2564 O 243.882 3.93885 0.788509 0
M  V30 2565 N 242.088 2.90539 -0.0593484 0
M  V30 2566 H 241.635 2.4408 -0.823575 0
M  V30 2567 H 241.593 3.04108 0.797853 0
M  V30 2568 N 245.365 1.30045 0.890287 0
M  V30 2569 C 246.642 1.09227 1.62262 0
M  V30 2570 C 247.022 -0.360305 2.08002 0
M  V30 2571 O 246.37 -1.35084 1.84295 0
M  V30 2572 C 246.58 2.08835 2.79623 0
M  V30 2573 C 247.928 2.40266 3.50082 0
M  V30 2574 O 248.952 2.07104 2.89804 0
M  V30 2575 O 247.811 2.96967 4.58773 0
M  V30 2576 H 244.905 0.419132 0.712922 0
M  V30 2577 H 247.451 1.41451 0.937529 0
M  V30 2578 H 246.223 3.06633 2.43089 0
M  V30 2579 H 245.846 1.77397 3.55832 0
M  V30 2580 N 246.843 -1.10192 1.12674 0
M  V30 2581 C 248.259 -1.34235 0.863317 0
M  V30 2582 C 248.459 -1.95062 -0.505277 0
M  V30 2583 O 247.515 -2.19192 -1.25345 0
M  V30 2584 C 248.828 -2.2616 1.98172 0
M  V30 2585 C 250.376 -2.3969 2.0129 0
M  V30 2586 C 250.851 -3.34946 3.1237 0
M  V30 2587 N 252.342 -3.42515 3.11829 0
M  V30 2588 C 253.077 -4.16199 3.94419 0
M  V30 2589 N 252.573 -4.92747 4.87004 0
M  V30 2590 N 254.366 -4.11843 3.82547 0
M  V30 2591 H 246.517 -0.690798 2.00853 0
M  V30 2592 H 248.78 -0.366774 0.874174 0
M  V30 2593 H 248.486 -1.8868 2.96804 0
M  V30 2594 H 248.36 -3.26488 1.88906 0
M  V30 2595 H 250.747 -2.76438 1.03276 0
M  V30 2596 H 250.828 -1.39169 2.14629 0
M  V30 2597 H 250.472 -2.98923 4.10619 0
M  V30 2598 H 250.402 -4.35353 2.96269 0
M  V30 2599 H 252.893 -2.87926 2.44759 0
M  V30 2600 H 253.206 -5.46376 5.46528 0
M  V30 2601 H 251.551 -4.91862 4.91016 0
M  V30 2602 H 254.742 -3.51136 3.0955 0
M  V30 2603 H 254.915 -4.69007 4.47142 0
M  V30 2604 N 248.321 -0.919034 -1.28029 0
M  V30 2605 C 249.568 -0.554934 -1.94748 0
M  V30 2606 C 249.896 0.90231 -1.72304 0
M  V30 2607 O 249.151 1.65767 -1.04018 0
M  V30 2608 C 249.45 -0.816855 -3.4794 0
M  V30 2609 C 249.116 -2.25448 -3.90492 0
M  V30 2610 C 247.778 -2.64752 -4.01821 0
M  V30 2611 C 250.13 -3.18977 -4.12193 0
M  V30 2612 C 247.458 -3.96727 -4.32232 0
M  V30 2613 C 249.81 -4.50523 -4.44086 0
M  V30 2614 C 248.474 -4.89673 -4.53626 0
M  V30 2615 H 247.744 -0.203065 -0.712633 0
M  V30 2616 H 250.391 -1.16136 -1.52265 0
M  V30 2617 H 248.696 -0.127677 -3.91592 0
M  V30 2618 H 250.393 -0.514238 -3.97689 0
M  V30 2619 H 246.983 -1.93952 -3.82205 0
M  V30 2620 H 251.167 -2.89817 -4.02889 0
M  V30 2621 H 246.423 -4.26754 -4.37825 0
M  V30 2622 H 250.597 -5.23005 -4.59825 0
M  V30 2623 H 248.224 -5.91969 -4.76946 0
M  V30 2624 N 249.799 1.42003 -0.683588 0
M  V30 2625 C 251.047 2.01015 -0.209101 0
M  V30 2626 C 251.368 1.54365 1.19149 0
M  V30 2627 O 250.638 0.769083 1.80172 0
M  V30 2628 H 249.218 0.743294 -0.074315 0
M  V30 2629 H 251.88 1.73798 -0.882066 0
M  V30 2630 H 250.976 3.11343 -0.2172 0
M  V30 2631 N 251.277 0.427512 1.51691 0
M  V30 2632 C 252.526 -0.143679 2.01188 0
M  V30 2633 C 252.839 -1.44642 1.31674 0
M  V30 2634 O 254.045 -2.09997 1.72086 0
M  V30 2635 C 252.501 -0.306602 3.58592 0
M  V30 2636 C 252.109 0.985125 4.37035 0
M  V30 2637 C 253.853 -0.832091 4.16265 0
M  V30 2638 C 251.76 0.788382 5.86122 0
M  V30 2639 H 250.69 -0.0574701 0.751807 0
M  V30 2640 H 253.341 0.555772 1.74881 0
M  V30 2641 H 251.723 -1.06882 3.81303 0
M  V30 2642 H 252.897 1.75492 4.26074 0
M  V30 2643 H 251.212 1.4384 3.90767 0
M  V30 2644 H 253.809 -0.995617 5.25349 0
M  V30 2645 H 254.152 -1.81186 3.74803 0
M  V30 2646 H 254.685 -0.128444 3.97593 0
M  V30 2647 H 251.424 1.74025 6.31978 0
M  V30 2648 H 250.944 0.0582143 5.99772 0
M  V30 2649 H 252.623 0.437722 6.45518 0
M  V30 2650 N 252.755 -1.56801 0.158532 0
M  V30 2651 C 254.001 -1.96781 -0.490405 0
M  V30 2652 C 254.334 -1.04397 -1.63753 0
M  V30 2653 O 253.609 -0.0885805 -1.94298 0
M  V30 2654 C 253.892 -3.4635 -0.985594 0
M  V30 2655 C 253.745 -4.49512 0.160824 0
M  V30 2656 C 255.064 -3.98697 -1.86355 0
M  V30 2657 H 252.183 -0.715482 -0.176788 0
M  V30 2658 H 254.825 -1.88451 0.242088 0
M  V30 2659 H 252.975 -3.53579 -1.60978 0
M  V30 2660 H 254.647 -4.54353 0.797537 0
M  V30 2661 H 252.89 -4.26013 0.818256 0
M  V30 2662 H 253.561 -5.51531 -0.227569 0
M  V30 2663 H 256.037 -3.94019 -1.33746 0
M  V30 2664 H 254.913 -5.03792 -2.17909 0
M  V30 2665 H 255.174 -3.41744 -2.8047 0
M  V30 2666 N 254.233 0.115231 -1.57178 0
M  V30 2667 C 255.143 1.15994 -2.03918 0
M  V30 2668 C 256.159 1.45103 -0.960268 0
M  V30 2669 O 257.335 1.56144 -1.27204 0
M  V30 2670 C 254.4 2.46568 -2.43732 0
M  V30 2671 C 253.461 2.24822 -3.65723 0
M  V30 2672 C 252.694 3.4917 -4.03629 0
M  V30 2673 O 252.917 4.56623 -3.41835 0
M  V30 2674 O 251.851 3.39949 -4.96708 0
M  V30 2675 H 255.677 0.793019 -2.93164 0
M  V30 2676 H 253.262 0.3263 -1.45793 0
M  V30 2677 H 255.144 3.23492 -2.70057 0
M  V30 2678 H 253.819 2.82726 -1.57631 0
M  V30 2679 H 252.726 1.45744 -3.44542 0
M  V30 2680 H 254.059 1.93566 -4.52541 0
M  V30 2681 N 255.711 1.52812 0.385517 0
M  V30 2682 C 256.959 1.67694 1.12797 0
M  V30 2683 C 257.28 0.421115 1.90399 0
M  V30 2684 O 256.55 -0.564551 1.87589 0
M  V30 2685 H 255.13 0.618155 0.419396 0
M  V30 2686 H 257.792 1.89938 0.436972 0
M  V30 2687 H 256.888 2.52896 1.82894 0
M  V30 2688 N 257.189 -0.644168 1.43834 0
M  V30 2689 C 258.119 -1.76814 1.52509 0
M  V30 2690 C 259.1 -1.65823 0.379052 0
M  V30 2691 O 260.285 -1.84781 0.597466 0
M  V30 2692 C 257.415 -3.15288 1.4564 0
M  V30 2693 C 256.369 -3.41053 2.58586 0
M  V30 2694 C 255.695 -4.79421 2.36769 0
M  V30 2695 C 256.995 -3.34902 4.00797 0
M  V30 2696 H 258.689 -1.69812 2.46586 0
M  V30 2697 H 256.235 -0.815542 1.1868 0
M  V30 2698 H 258.188 -3.93681 1.50311 0
M  V30 2699 H 256.912 -3.23043 0.480725 0
M  V30 2700 H 255.571 -2.65035 2.53282 0
M  V30 2701 H 255.219 -4.83863 1.37424 0
M  V30 2702 H 254.919 -4.9762 3.12487 0
M  V30 2703 H 256.443 -5.6006 2.43238 0
M  V30 2704 H 257.857 -4.03218 4.07539 0
M  V30 2705 H 256.254 -3.64637 4.76613 0
M  V30 2706 H 257.324 -2.32928 4.25291 0
M  V30 2707 N 258.668 -1.30515 -0.883378 0
M  V30 2708 C 259.601 -1.11359 -1.99184 0
M  V30 2709 C 260.579 -0.0207858 -1.62587 0
M  V30 2710 O 261.763 -0.174646 -1.87689 0
M  V30 2711 C 258.89 -0.69871 -3.31415 0
M  V30 2712 C 257.936 -1.79261 -3.86998 0
M  V30 2713 S 258.769 -3.39536 -4.14096 0
M  V30 2714 C 259.925 -2.99954 -5.49344 0
M  V30 2715 H 260.158 -2.052 -2.15128 0
M  V30 2716 H 257.691 -1.14847 -1.03196 0
M  V30 2717 H 259.649 -0.466075 -4.07846 0
M  V30 2718 H 258.31 0.220368 -3.13326 0
M  V30 2719 H 257.503 -1.45464 -4.82552 0
M  V30 2720 H 257.105 -1.97961 -3.17313 0
M  V30 2721 H 259.397 -2.48013 -6.30473 0
M  V30 2722 H 260.34 -3.9442 -5.8808 0
M  V30 2723 H 260.748 -2.37775 -5.1198 0
M  V30 2724 N 260.146 1.09593 -1.13257 0
M  V30 2725 C 261.374 1.855 -0.916378 0
M  V30 2726 C 261.789 1.81069 0.534738 0
M  V30 2727 O 261.146 1.20562 1.37007 0
M  V30 2728 C 261.197 3.33546 -1.39388 0
M  V30 2729 O 260.918 3.37927 -2.78813 0
M  V30 2730 C 262.419 4.26299 -1.21588 0
M  V30 2731 H 259.639 0.585991 -0.326887 0
M  V30 2732 H 262.183 1.38488 -1.5047 0
M  V30 2733 H 260.338 3.77992 -0.848597 0
M  V30 2734 H 260.752 4.30254 -2.9997 0
M  V30 2735 H 262.226 5.28341 -1.59876 0
M  V30 2736 H 262.703 4.38918 -0.157376 0
M  V30 2737 H 263.309 3.87668 -1.7491 0
M  V30 2738 N 261.624 0.925811 1.2754 0
M  V30 2739 C 262.852 0.581509 1.9856 0
M  V30 2740 C 263.267 -0.840041 1.69082 0
M  V30 2741 O 262.624 -1.55805 0.950312 0
M  V30 2742 C 262.675 0.795589 3.52637 0
M  V30 2743 O 262.396 2.16121 3.81082 0
M  V30 2744 C 263.897 0.459744 4.4091 0
M  V30 2745 H 261.117 0.220538 0.633722 0
M  V30 2746 H 263.661 1.24232 1.6244 0
M  V30 2747 H 261.816 0.18161 3.86974 0
M  V30 2748 H 262.23 2.2098 4.75676 0
M  V30 2749 H 263.704 0.660244 5.48037 0
M  V30 2750 H 264.181 -0.604625 4.35018 0
M  V30 2751 H 264.787 1.05178 4.12089 0
M  V30 2752 N 263.102 -1.41638 0.69111 0
M  V30 2753 C 264.348 -2.01598 0.220519 0
M  V30 2754 C 264.681 -1.54594 -1.17535 0
M  V30 2755 O 263.956 -0.755177 -1.79241 0
M  V30 2756 C 264.239 -3.59062 0.273243 0
M  V30 2757 C 264.092 -4.16203 1.70573 0
M  V30 2758 C 265.411 -4.38546 -0.369457 0
M  V30 2759 H 262.53 -0.732468 0.0816045 0
M  V30 2760 H 265.172 -1.68445 0.878986 0
M  V30 2761 H 263.322 -3.87435 -0.287411 0
M  V30 2762 H 264.994 -3.98722 2.31989 0
M  V30 2763 H 263.237 -3.71414 2.2413 0
M  V30 2764 H 263.908 -5.25358 1.69419 0
M  V30 2765 H 266.384 -4.1596 0.107977 0
M  V30 2766 H 265.26 -5.48069 -0.302002 0
M  V30 2767 H 265.521 -4.17662 -1.44951 0
M  V30 2768 N 264.58 -0.43555 -1.51462 0
M  V30 2769 C 265.53 0.394701 -2.24558 0
M  V30 2770 C 266.514 0.99157 -1.26715 0
M  V30 2771 O 267.706 0.910007 -1.51815 0
M  V30 2772 C 264.835 1.4963 -3.08975 0
M  V30 2773 C 263.921 0.908912 -4.14246 0
M  V30 2774 N 264.312 0.0505335 -5.05775 0
M  V30 2775 C 262.61 1.17668 -4.30198 0
M  V30 2776 C 263.311 -0.279161 -5.8103 0
M  V30 2777 N 262.287 0.336767 -5.42556 0
M  V30 2778 H 266.089 -0.267106 -2.92684 0
M  V30 2779 H 263.603 -0.247518 -1.60503 0
M  V30 2780 H 265.6 2.10394 -3.59917 0
M  V30 2781 H 264.26 2.16046 -2.42393 0
M  V30 2782 H 265.271 -0.31577 -5.16936 0
M  V30 2783 H 261.948 1.83847 -3.74842 0
M  V30 2784 H 263.338 -0.977553 -6.64751 0
M  V30 2785 N 266.058 1.56714 -0.166846 0
M  V30 2786 C 267.021 2.16539 0.751232 0
M  V30 2787 C 268.021 1.11228 1.16125 0
M  V30 2788 O 269.211 1.36765 1.07894 0
M  V30 2789 C 266.343 2.74462 2.02196 0
M  V30 2790 H 267.536 2.99013 0.230499 0
M  V30 2791 H 265.089 1.56081 0.0826982 0
M  V30 2792 H 265.824 1.95709 2.58589 0
M  V30 2793 H 265.609 3.51527 1.73698 0
M  V30 2794 H 267.099 3.20489 2.67725 0
M  V30 2795 N 267.536 -0.106894 1.57237 0
M  V30 2796 C 268.761 -0.830287 1.90055 0
M  V30 2797 C 269.186 -1.72064 0.75998 0
M  V30 2798 O 268.544 -1.78982 -0.288991 0
M  V30 2799 C 268.592 -1.6295 3.21683 0
M  V30 2800 O 267.696 -2.73748 3.08441 0
M  V30 2801 H 267.037 -0.228855 0.623315 0
M  V30 2802 H 269.567 -0.085658 2.04421 0
M  V30 2803 H 269.577 -2.01621 3.54701 0
M  V30 2804 H 268.252 -0.975989 4.04286 0
M  V30 2805 H 266.829 -2.38192 2.86913 0
M  V30 2806 N 269.014 -1.53014 -0.377408 0
M  V30 2807 C 270.242 -1.72515 -1.14219 0
M  V30 2808 C 270.657 -0.448735 -1.8339 0
M  V30 2809 O 270.014 0.577592 -1.73119 0
M  V30 2810 C 270.065 -2.8826 -2.18148 0
M  V30 2811 O 269.786 -4.10962 -1.51795 0
M  V30 2812 C 271.287 -3.19536 -3.07264 0
M  V30 2813 H 268.507 -0.577301 -0.342001 0
M  V30 2814 H 271.051 -1.99712 -0.439935 0
M  V30 2815 H 269.206 -2.63492 -2.83991 0
M  V30 2816 H 269.62 -4.75693 -2.20945 0
M  V30 2817 H 271.094 -4.03959 -3.76193 0
M  V30 2818 H 271.571 -2.34403 -3.71419 0
M  V30 2819 H 272.177 -3.46186 -2.47053 0
M  V30 2820 N 270.492 0.636531 -1.44174 0
M  V30 2821 C 271.455 1.73063 -1.50273 0
M  V30 2822 C 272.455 1.56113 -0.385397 0
M  V30 2823 O 273.645 1.61707 -0.64781 0
M  V30 2824 C 270.777 3.12096 -1.37145 0
M  V30 2825 H 271.97 1.69031 -2.47727 0
M  V30 2826 H 269.523 0.849706 -1.31186 0
M  V30 2827 H 270.258 3.21728 -0.407636 0
M  V30 2828 H 270.043 3.25805 -2.18159 0
M  V30 2829 H 271.533 3.91846 -1.44382 0
M  V30 2830 N 271.97 1.30982 0.876444 0
M  V30 2831 C 272.918 1.18006 2.00443 0
M  V30 2832 C 273.912 0.0898871 1.69161 0
M  V30 2833 O 275.118 0.251333 1.78237 0
M  V30 2834 H 271.493 0.365196 0.65737 0
M  V30 2835 H 273.464 2.13453 2.0852 0
M  V30 2836 C 272.213 0.897521 3.35916 0
M  V30 2837 H 271.536 1.7285 3.60504 0
M  V30 2838 H 272.976 0.846874 4.15456 0
M  V30 2839 C 271.435 -0.399674 3.34521 0
M  V30 2840 O 271.965 -1.41852 3.7582 0
M  V30 2841 N 270.171 -0.413893 2.87637 0
M  V30 2842 H 269.718 0.41571 2.54224 0
M  V30 2843 H 269.676 -1.28175 2.87086 0
M  V30 2844 N 273.449 -1.08991 1.13837 0
M  V30 2845 C 274.381 -2.15606 0.777612 0
M  V30 2846 C 275.394 -1.61533 -0.202739 0
M  V30 2847 O 276.583 -1.78491 0.0181055 0
M  V30 2848 C 273.683 -3.3864 0.132623 0
M  V30 2849 C 272.856 -4.22115 1.1462 0
M  V30 2850 C 271.915 -5.23564 0.526074 0
M  V30 2851 O 270.941 -5.56678 1.18735 0
M  V30 2852 N 272.143 -5.76266 -0.699866 0
M  V30 2853 H 274.908 -2.47159 1.69506 0
M  V30 2854 H 272.469 -1.24747 1.03198 0
M  V30 2855 H 274.461 -4.03626 -0.29459 0
M  V30 2856 H 273.031 -3.04938 -0.687849 0
M  V30 2857 H 272.251 -3.53199 1.75055 0
M  V30 2858 H 273.539 -4.74709 1.83109 0
M  V30 2859 H 272.937 -5.51585 -1.25581 0
M  V30 2860 H 271.494 -6.42963 -1.06968 0
M  V30 2861 N 274.927 -0.932562 -1.27047 0
M  V30 2862 C 275.857 -0.452902 -2.29066 0
M  V30 2863 C 276.838 0.489338 -1.62909 0
M  V30 2864 O 278.023 0.393046 -1.90181 0
M  V30 2865 C 275.153 0.290698 -3.46081 0
M  V30 2866 C 274.107 -0.564168 -4.24265 0
M  V30 2867 C 273.433 0.308886 -5.33807 0
M  V30 2868 C 274.733 -1.83112 -4.89149 0
M  V30 2869 H 276.427 -1.30552 -2.69437 0
M  V30 2870 H 273.973 -0.629201 -1.29526 0
M  V30 2871 H 275.926 0.637233 -4.16554 0
M  V30 2872 H 274.65 1.17738 -3.0464 0
M  V30 2873 H 273.309 -0.893477 -3.55545 0
M  V30 2874 H 272.957 1.19467 -4.88607 0
M  V30 2875 H 272.657 -0.259633 -5.87026 0
M  V30 2876 H 274.181 0.650884 -6.07121 0
M  V30 2877 H 275.595 -1.55236 -5.51883 0
M  V30 2878 H 273.992 -2.34353 -5.52448 0
M  V30 2879 H 275.062 -2.54772 -4.12576 0
M  V30 2880 N 276.405 1.4127 -0.698611 0
M  V30 2881 C 277.651 2.01478 -0.231207 0
M  V30 2882 C 277.984 1.55215 1.16713 0
M  V30 2883 O 277.259 0.764672 1.78838 0
M  V30 2884 C 277.542 3.58912 -0.292281 0
M  V30 2885 C 277.395 4.15293 -1.72778 0
M  V30 2886 C 278.714 4.38736 0.346194 0
M  V30 2887 H 275.833 0.732025 -0.0854878 0
M  V30 2888 H 278.475 1.67977 -0.887906 0
M  V30 2889 H 276.625 3.87582 0.26686 0
M  V30 2890 H 278.297 3.97486 -2.341 0
M  V30 2891 H 276.54 3.7022 -2.26096 0
M  V30 2892 H 277.211 5.24452 -1.72202 0
M  V30 2893 H 279.687 4.15897 -0.130035 0
M  V30 2894 H 278.563 5.48221 0.272932 0
M  V30 2895 H 278.824 4.18425 1.42734 0
M  V30 2896 N 277.883 0.443576 1.51229 0
M  V30 2897 C 279.129 -0.120975 2.02439 0
M  V30 2898 C 279.462 -1.41815 1.32674 0
M  V30 2899 O 278.737 -1.89373 0.443622 0
M  V30 2900 C 279.02 -0.333291 3.58554 0
M  V30 2901 C 278.873 0.982968 4.38928 0
M  V30 2902 C 280.192 -1.10028 4.26124 0
M  V30 2903 H 277.311 -0.0424923 0.735774 0
M  V30 2904 H 279.953 0.583794 1.80809 0
M  V30 2905 H 278.103 -0.933614 3.77115 0
M  V30 2906 H 279.775 1.61775 4.32003 0
M  V30 2907 H 278.018 1.58611 4.03763 0
M  V30 2908 H 278.689 0.788379 5.46341 0
M  V30 2909 H 281.165 -0.591711 4.11871 0
M  V30 2910 H 280.041 -1.21761 5.35225 0
M  V30 2911 H 280.302 -2.12996 3.87408 0
M  V30 2912 N 279.361 -1.56624 0.175154 0
M  V30 2913 C 280.638 -1.88688 -0.515373 0
M  V30 2914 C 281.018 -1.08564 -1.81044 0
M  V30 2915 O 280.366 -0.180703 -2.27784 0
M  V30 2916 C 280.576 -3.40768 -0.753552 0
M  V30 2917 C 281.924 -4.10587 -1.08184 0
M  V30 2918 O 282.948 -3.46106 -0.841961 0
M  V30 2919 O 281.807 -5.24512 -1.53459 0
M  V30 2920 H 278.901 -0.78301 -0.26613 0
M  V30 2921 H 281.447 -1.68347 0.213877 0
M  V30 2922 H 280.219 -3.90965 0.161829 0
M  V30 2923 H 279.842 -3.66733 -1.53598 0
M  V30 2924 N 280.839 0.0985539 -1.57292 0
M  V30 2925 C 282.087 0.801092 -1.85545 0
M  V30 2926 C 282.408 1.79438 -0.763353 0
M  V30 2927 O 281.678 1.94763 0.21073 0
M  V30 2928 H 280.258 0.29884 -0.684619 0
M  V30 2929 H 282.92 0.0810064 -1.94732 0
M  V30 2930 H 282.016 1.3338 -2.82163 0
M  V30 2931 N 282.317 1.53212 0.369288 0
M  V30 2932 C 283.728 1.60943 0.946276 0
M  V30 2933 C 284.079 0.47452 1.90375 0
M  V30 2934 O 283.204 -0.399597 2.12679 0
M  V30 2935 C 283.799 2.91715 1.72302 0
M  V30 2936 C 282.358 3.01792 2.24941 0
M  V30 2937 C 281.505 2.56211 1.06072 0
M  V30 2938 H 284.456 1.58007 0.148198 0
M  V30 2939 H 284.477 2.79309 2.58393 0
M  V30 2940 H 283.989 3.74295 1.0259 0
M  V30 2941 H 282.09 2.23791 2.97906 0
M  V30 2942 H 282.203 4.06803 2.53077 0
M  V30 2943 H 280.567 2.10998 1.4266 0
M  V30 2944 H 281.35 3.41206 0.378639 0
M  V30 2945 N 283.795 -0.628877 1.44509 0
M  V30 2946 C 285.02 -1.42048 1.5112 0
M  V30 2947 C 285.445 -1.87594 0.137818 0
M  V30 2948 O 284.803 -1.58873 -0.873437 0
M  V30 2949 C 284.851 -2.61541 2.48251 0
M  V30 2950 O 283.955 -3.61453 1.98559 0
M  V30 2951 H 283.296 -0.424942 0.510216 0
M  V30 2952 H 285.826 -0.767374 1.89664 0
M  V30 2953 H 285.836 -3.09057 2.66361 0
M  V30 2954 H 284.511 -2.27736 3.48007 0
M  V30 2955 H 283.088 -3.20731 1.90227 0
M  V30 2956 N 285.273 -1.31445 -0.869486 0
M  V30 2957 C 286.22 -1.19135 -1.97675 0
M  V30 2958 C 287.19 -0.0770266 -1.65921 0
M  V30 2959 O 288.375 -0.249972 -1.89155 0
M  V30 2960 C 285.515 -0.905149 -3.33018 0
M  V30 2961 C 284.628 -2.10285 -3.77365 0
M  V30 2962 C 283.763 -1.75339 -5.01427 0
M  V30 2963 C 282.802 -2.91515 -5.38224 0
M  V30 2964 N 281.939 -2.56762 -6.53466 0
M  V30 2965 H 286.779 -2.13853 -2.07535 0
M  V30 2966 H 284.316 -1.06379 -1.01597 0
M  V30 2967 H 286.274 -0.719765 -4.10944 0
M  V30 2968 H 284.904 0.00519624 -3.228 0
M  V30 2969 H 283.956 -2.39899 -2.95216 0
M  V30 2970 H 285.268 -2.97237 -4.00564 0
M  V30 2971 H 284.422 -1.53266 -5.87022 0
M  V30 2972 H 283.161 -0.855801 -4.80133 0
M  V30 2973 H 282.166 -3.14237 -4.51149 0
M  V30 2974 H 283.391 -3.81985 -5.61484 0
M  V30 2975 H 281.337 -1.69526 -6.33717 0
M  V30 2976 H 281.254 -3.37243 -6.76612 0
M  V30 2977 H 282.522 -2.38083 -7.42251 0
M  V30 2978 N 286.751 1.08385 -1.14413 0
M  V30 2979 C 287.999 1.80419 -0.910679 0
M  V30 2980 C 288.32 1.86658 0.564243 0
M  V30 2981 O 287.59 1.35985 1.41014 0
M  V30 2982 H 286.17 0.668204 -0.333934 0
M  V30 2983 H 288.832 1.31037 -1.44275 0
M  V30 2984 H 287.928 2.83238 -1.31082 0
M  V30 2985 N 288.23 0.939286 1.26551 0
M  V30 2986 C 289.478 0.58469 1.93457 0
M  V30 2987 C 289.799 -0.878774 1.74076 0
M  V30 2988 O 289.069 -1.62421 1.09528 0
M  V30 2989 H 287.649 0.21325 0.715914 0
M  V30 2990 H 290.311 1.1942 1.54029 0
M  V30 2991 H 289.407 0.800849 3.0165 0
M  V30 2992 N 289.708 -1.40897 0.706093 0
M  V30 2993 C 290.655 -2.30751 0.0474474 0
M  V30 2994 C 291.625 -1.47678 -0.76029 0
M  V30 2995 O 292.81 -1.76441 -0.726177 0
M  V30 2996 C 289.95 -3.33815 -0.875309 0
M  V30 2997 C 289.063 -4.31961 -0.0580623 0
M  V30 2998 C 288.198 -5.22093 -0.979425 0
M  V30 2999 C 287.237 -6.11902 -0.155706 0
M  V30 3000 N 286.374 -6.94482 -1.03144 0
M  V30 3001 H 291.214 -2.86513 0.819413 0
M  V30 3002 H 288.751 -1.41102 0.415783 0
M  V30 3003 H 290.709 -3.92129 -1.42446 0
M  V30 3004 H 289.339 -2.79579 -1.61356 0
M  V30 3005 H 288.391 -3.75507 0.608147 0
M  V30 3006 H 289.703 -4.95415 0.580082 0
M  V30 3007 H 288.857 -5.85292 -1.59744 0
M  V30 3008 H 287.596 -4.5889 -1.65141 0
M  V30 3009 H 286.601 -5.47742 0.475309 0
M  V30 3010 H 287.826 -6.77162 0.512635 0
M  V30 3011 H 285.772 -6.33877 -1.68924 0
M  V30 3012 H 285.689 -7.54665 -0.449108 0
M  V30 3013 H 286.957 -7.6214 -1.63593 0
M  V30 3014 N 291.186 -0.45159 -1.50991 0
M  V30 3015 C 292.463 0.170707 -1.94854 0
M  V30 3016 C 292.843 1.58788 -1.39103 0
M  V30 3017 O 292.191 2.20913 -0.583921 0
M  V30 3018 C 292.401 0.133929 -3.48743 0
M  V30 3019 C 293.749 0.33248 -4.23296 0
M  V30 3020 O 294.773 0.211403 -3.55572 0
M  V30 3021 O 293.632 0.57486 -5.43468 0
M  V30 3022 H 290.726 0.122264 -0.817912 0
M  V30 3023 H 293.272 -0.510594 -1.61836 0
M  V30 3024 H 292.044 -0.856283 -3.81816 0
M  V30 3025 H 291.667 0.857529 -3.88242 0
M  V30 3026 N 292.664 1.56529 -0.183458 0
M  V30 3027 C 293.91 1.98304 0.452466 0
M  V30 3028 C 294.265 1.06799 1.60037 0
M  V30 3029 O 293.558 0.110049 1.91284 0
M  V30 3030 C 293.752 3.43939 0.971637 0
M  V30 3031 C 293.581 4.49528 -0.124425 0
M  V30 3032 C 292.351 5.01981 -0.578168 0
M  V30 3033 C 294.549 5.05836 -0.929207 0
M  V30 3034 N 292.531 5.91219 -1.65327 0
M  V30 3035 C 293.902 5.91632 -1.85396 0
M  V30 3036 C 295.957 4.88302 -0.972929 0
M  V30 3037 C 294.66 6.61768 -2.81878 0
M  V30 3038 C 296.686 5.59168 -1.92574 0
M  V30 3039 C 296.048 6.44701 -2.83795 0
M  V30 3040 H 292.147 0.770551 0.133324 0
M  V30 3041 H 294.731 1.92581 -0.286473 0
M  V30 3042 H 292.902 3.50184 1.68006 0
M  V30 3043 H 294.634 3.72702 1.5772 0
M  V30 3044 H 291.389 4.73282 -0.173639 0
M  V30 3045 H 291.813 6.40543 -2.19167 0
M  V30 3046 H 296.455 4.21861 -0.28168 0
M  V30 3047 H 294.173 7.27415 -3.51984 0
M  V30 3048 H 297.759 5.47582 -1.96583 0
M  V30 3049 H 296.639 6.98573 -3.56322 0
M  V30 3050 N 294.142 -0.090211 1.57342 0
M  V30 3051 C 295.558 -0.444547 1.53284 0
M  V30 3052 C 295.758 -1.80238 0.900914 0
M  V30 3053 O 294.814 -2.4759 0.495513 0
M  V30 3054 C 296.127 -0.402543 2.97993 0
M  V30 3055 C 297.675 -0.48405 3.09234 0
M  V30 3056 C 298.15 -0.472144 4.5556 0
M  V30 3057 N 299.641 -0.532757 4.60126 0
M  V30 3058 C 300.376 -0.545462 5.708 0
M  V30 3059 N 299.872 -0.514082 6.9089 0
M  V30 3060 N 301.665 -0.59064 5.58988 0
M  V30 3061 H 293.816 0.799121 1.96794 0
M  V30 3062 H 296.079 0.297965 0.899956 0
M  V30 3063 H 295.785 0.528106 3.47712 0
M  V30 3064 H 295.659 -1.21969 3.56936 0
M  V30 3065 H 298.046 -1.40512 2.595 0
M  V30 3066 H 298.127 0.361328 2.53235 0
M  V30 3067 H 297.771 0.445 5.05947 0
M  V30 3068 H 297.701 -1.3348 5.09402 0
M  V30 3069 H 300.192 -0.562006 3.73698 0
M  V30 3070 H 300.505 -0.527195 7.71 0
M  V30 3071 H 298.85 -0.481054 6.93333 0
M  V30 3072 H 302.041 -0.61272 4.64073 0
M  V30 3073 H 302.214 -0.597073 6.45243 0
M  V30 3074 N 295.62 -1.53406 -0.361157 0
M  V30 3075 C 296.583 -1.79479 -1.42548 0
M  V30 3076 C 297.583 -0.665327 -1.4639 0
M  V30 3077 O 298.773 -0.933549 -1.47073 0
M  V30 3078 C 295.905 -1.92087 -2.8163 0
M  V30 3079 H 297.098 -2.74538 -1.20701 0
M  V30 3080 H 294.651 -1.4455 -0.594546 0
M  V30 3081 H 295.386 -0.991099 -3.08784 0
M  V30 3082 H 295.171 -2.74241 -2.80239 0
M  V30 3083 H 296.661 -2.13836 -3.58697 0
M  V30 3084 N 297.098 0.621204 -1.44841 0
M  V30 3085 C 298.346 1.37783 -1.47852 0
M  V30 3086 C 298.667 1.94653 -0.116224 0
M  V30 3087 O 297.937 1.76367 0.852737 0
M  V30 3088 H 296.517 0.511453 -0.544449 0
M  V30 3089 H 299.179 0.730446 -1.80694 0
M  V30 3090 H 298.275 2.20414 -2.20961 0
M  V30 3091 N 298.576 1.31904 0.862503 0
M  V30 3092 C 299.992 1.10724 1.14945 0
M  V30 3093 C 300.192 -0.117421 2.01158 0
M  V30 3094 O 299.248 -0.804595 2.39338 0
M  V30 3095 C 300.561 2.38267 1.83437 0
M  V30 3096 C 302.109 2.43949 1.96106 0
M  V30 3097 C 302.584 3.71394 2.68013 0
M  V30 3098 N 304.075 3.72331 2.75543 0
M  V30 3099 C 304.81 4.67641 3.31812 0
M  V30 3100 N 304.306 5.73313 3.88953 0
M  V30 3101 N 306.099 4.5515 3.29841 0
M  V30 3102 H 298.25 2.10436 0.288191 0
M  V30 3103 H 300.513 0.928705 0.190292 0
M  V30 3104 H 300.219 3.27759 1.27542 0
M  V30 3105 H 300.093 2.48633 2.83657 0
M  V30 3106 H 302.48 1.54922 2.51164 0
M  V30 3107 H 302.561 2.37543 0.949059 0
M  V30 3108 H 302.205 4.60791 2.13621 0
M  V30 3109 H 302.135 3.75069 3.69636 0
M  V30 3110 H 304.626 2.95947 2.34997 0
M  V30 3111 H 304.939 6.42107 4.30022 0
M  V30 3112 H 303.284 5.77077 3.87308 0
M  V30 3113 H 306.475 3.71766 2.84443 0
M  V30 3114 H 306.648 5.29604 3.73394 0
M  V30 3115 N 300.054 -1.07777 1.14986 0
M  V30 3116 C 301.294 -1.81888 0.932527 0
M  V30 3117 C 301.658 -1.84509 -0.531064 0
M  V30 3118 O 302.859 -2.54448 -0.866577 0
M  V30 3119 C 301.13 -3.23244 1.52473 0
M  V30 3120 S 302.689 -4.14154 1.44989 0
M  V30 3121 H 299.507 -0.626752 0.335712 0
M  V30 3122 H 302.109 -1.29503 1.46455 0
M  V30 3123 H 300.813 -3.18922 2.58296 0
M  V30 3124 H 300.344 -3.80704 0.991381 0
M  V30 3125 H 302.359 -4.94247 0.439799 0
M  V30 3126 N 301.532 -0.945985 -1.26051 0
M  V30 3127 C 302.495 -0.463897 -2.24456 0
M  V30 3128 C 303.495 0.427655 -1.55009 0
M  V30 3129 O 304.685 0.226157 -1.72726 0
M  V30 3130 C 301.817 0.330812 -3.39291 0
M  V30 3131 H 303.01 -1.33357 -2.68619 0
M  V30 3132 H 300.563 -0.728416 -1.38289 0
M  V30 3133 H 301.298 1.21852 -3.00537 0
M  V30 3134 H 301.083 -0.308679 -3.90883 0
M  V30 3135 H 302.573 0.657865 -4.12386 0
M  V30 3136 N 303.011 1.40521 -0.713556 0
M  V30 3137 C 303.941 2.33381 -0.0743864 0
M  V30 3138 C 304.922 1.52784 0.747735 0
M  V30 3139 O 306.107 1.81258 0.697071 0
M  V30 3140 C 303.237 3.36748 0.849598 0
M  V30 3141 C 302.191 4.27793 0.133247 0
M  V30 3142 C 301.517 5.21679 1.17281 0
M  V30 3143 C 302.817 5.12415 -1.01134 0
M  V30 3144 H 304.511 2.87081 -0.850007 0
M  V30 3145 H 302.057 1.38034 -0.410201 0
M  V30 3146 H 304.01 4.00648 1.30612 0
M  V30 3147 H 302.734 2.81439 1.65709 0
M  V30 3148 H 301.393 3.65342 -0.303426 0
M  V30 3149 H 301.041 4.62677 1.9733 0
M  V30 3150 H 300.741 5.83435 0.698397 0
M  V30 3151 H 302.265 5.88456 1.62947 0
M  V30 3152 H 303.679 5.69781 -0.634274 0
M  V30 3153 H 302.076 5.83203 -1.41399 0
M  V30 3154 H 303.146 4.48514 -1.84292 0
M  V30 3155 N 304.489 0.459591 1.5075 0
M  V30 3156 C 305.714 -0.0996819 2.0716 0
M  V30 3157 C 306.139 -1.33761 1.32249 0
M  V30 3158 O 305.497 -1.77551 0.366786 0
M  V30 3159 C 305.545 -0.378226 3.58611 0
M  V30 3160 O 304.649 -1.46081 3.85661 0
M  V30 3161 H 303.99 0.00791392 0.663953 0
M  V30 3162 H 306.52 0.647329 1.9409 0
M  V30 3163 H 306.53 -0.622135 4.03229 0
M  V30 3164 H 305.205 0.526439 4.12555 0
M  V30 3165 H 303.782 -1.20511 3.5289 0
M  V30 3166 N 305.967 -1.56429 0.191757 0
M  V30 3167 C 306.915 -2.20273 -0.747174 0
M  V30 3168 C 307.909 -1.17288 -1.22229 0
M  V30 3169 O 309.115 -1.35441 -1.18557 0
M  V30 3170 H 305.49 -0.705885 -0.259289 0
M  V30 3171 H 307.461 -2.97826 -0.184963 0
M  V30 3172 C 306.21 -2.87356 -1.95759 0
M  V30 3173 H 305.533 -3.66341 -1.60106 0
M  V30 3174 H 306.973 -3.3547 -2.59299 0
M  V30 3175 C 305.432 -1.88213 -2.79423 0
M  V30 3176 O 305.962 -1.38033 -3.7724 0
M  V30 3177 N 304.168 -1.56516 -2.44849 0
M  V30 3178 H 303.715 -1.97516 -1.65364 0
M  V30 3179 H 303.673 -0.904369 -3.01112 0
M  V30 3180 N 307.445 0.0818655 -1.57387 0
M  V30 3181 C 308.694 0.781681 -1.85937 0
M  V30 3182 C 309.007 1.79246 -0.782957 0
M  V30 3183 O 310.213 2.54112 -0.955987 0
M  V30 3184 C 308.669 1.44109 -3.29789 0
M  V30 3185 C 308.277 0.469396 -4.45534 0
M  V30 3186 C 310.021 2.12386 -3.67549 0
M  V30 3187 C 307.928 1.13415 -5.80423 0
M  V30 3188 H 306.858 0.295682 -0.693605 0
M  V30 3189 H 309.509 0.0348051 -1.83467 0
M  V30 3190 H 307.891 2.23588 -3.2684 0
M  V30 3191 H 309.065 -0.294856 -4.59856 0
M  V30 3192 H 307.38 -0.108383 -4.16259 0
M  V30 3193 H 309.977 2.62878 -4.65617 0
M  V30 3194 H 310.32 2.91877 -2.96839 0
M  V30 3195 H 310.853 1.39751 -3.72444 0
M  V30 3196 H 307.592 0.379771 -6.54399 0
M  V30 3197 H 307.112 1.8695 -5.69921 0
M  V30 3198 H 308.791 1.65686 -6.25426 0
M  V30 3199 N 308.923 1.53595 0.353017 0
M  V30 3200 C 310.172 1.69603 1.09168 0
M  V30 3201 C 310.485 0.460925 1.90092 0
M  V30 3202 O 311.691 0.501774 2.66823 0
M  V30 3203 C 310.147 2.99872 1.9901 0
M  V30 3204 C 309.755 4.30687 1.23339 0
M  V30 3205 C 311.499 3.25246 2.72792 0
M  V30 3206 C 309.406 5.52036 2.12156 0
M  V30 3207 H 308.336 0.631966 0.411261 0
M  V30 3208 H 310.987 1.80096 0.351802 0
M  V30 3209 H 309.369 2.83212 2.7678 0
M  V30 3210 H 310.543 4.58019 0.505456 0
M  V30 3211 H 308.858 4.11853 0.613663 0
M  V30 3212 H 311.455 4.13095 3.39495 0
M  V30 3213 H 311.798 2.41846 3.38846 0
M  V30 3214 H 312.331 3.42638 2.021 0
M  V30 3215 H 309.07 6.37951 1.50659 0
M  V30 3216 H 308.59 5.28966 2.82764 0
M  V30 3217 H 310.269 5.87313 2.71427 0
M  V30 3218 N 310.401 -0.613514 1.45168 0
M  V30 3219 C 311.812 -1.19539 1.43413 0
M  V30 3220 C 312.163 -1.95558 0.158632 0
M  V30 3221 O 311.288 -2.0335 -0.740119 0
M  V30 3222 C 311.883 -2.17445 2.59813 0
M  V30 3223 C 310.442 -2.71022 2.61197 0
M  V30 3224 C 309.589 -1.46323 2.35552 0
M  V30 3225 H 312.54 -0.403163 1.53494 0
M  V30 3226 H 312.561 -3.00373 2.33574 0
M  V30 3227 H 312.073 -1.62089 3.52631 0
M  V30 3228 H 310.174 -3.30332 1.7237 0
M  V30 3229 H 310.287 -3.15859 3.60236 0
M  V30 3230 H 308.651 -1.75072 1.84992 0
M  V30 3231 H 309.434 -0.92844 3.30507 0
M  V30 3232 N 311.879 -1.3236 -0.855495 0
M  V30 3233 C 312.842 -1.21164 -1.94556 0
M  V30 3234 C 313.842 -0.134908 -1.60233 0
M  V30 3235 O 315.032 -0.385249 -1.69887 0
M  V30 3236 C 312.164 -0.863192 -3.29791 0
M  V30 3237 H 313.357 -2.18038 -2.05911 0
M  V30 3238 H 310.91 -1.16179 -1.04557 0
M  V30 3239 H 311.645 0.103769 -3.24134 0
M  V30 3240 H 311.43 -1.64166 -3.56078 0
M  V30 3241 H 312.92 -0.809156 -4.09686 0
M  V30 3242 N 313.357 1.07166 -1.15556 0
M  V30 3243 C 314.582 1.84053 -0.955988 0
M  V30 3244 C 315.007 1.81586 0.490739 0
M  V30 3245 O 314.365 1.21018 1.34997 0
M  V30 3246 C 314.413 3.28957 -1.47714 0
M  V30 3247 O 313.517 4.06795 -0.677593 0
M  V30 3248 H 312.858 0.569842 -0.340847 0
M  V30 3249 H 315.388 1.35178 -1.53584 0
M  V30 3250 H 315.398 3.79788 -1.4908 0
M  V30 3251 H 314.073 3.30068 -2.53037 0
M  V30 3252 H 312.65 3.6561 -0.733721 0
M  V30 3253 N 314.835 0.952656 1.25548 0
M  V30 3254 C 316.063 0.623496 1.97282 0
M  V30 3255 C 316.478 -0.803987 1.70826 0
M  V30 3256 O 315.835 -1.53755 0.983147 0
M  V30 3257 C 315.886 0.870209 3.5087 0
M  V30 3258 O 315.607 2.24156 3.76412 0
M  V30 3259 C 317.108 0.553164 4.39835 0
M  V30 3260 H 314.328 0.233931 0.628902 0
M  V30 3261 H 316.872 1.27649 1.59768 0
M  V30 3262 H 315.027 0.263652 3.86502 0
M  V30 3263 H 315.441 2.31021 4.70882 0
M  V30 3264 H 316.915 0.776342 5.46513 0
M  V30 3265 H 317.392 -0.512215 4.36203 0
M  V30 3266 H 317.998 1.13896 4.09766 0
M  V30 3267 N 316.313 -1.40141 0.720998 0
M  V30 3268 C 317.561 -2.0039 0.262323 0
M  V30 3269 C 317.882 -1.57469 -1.15015 0
M  V30 3270 O 317.152 -0.816582 -1.78069 0
M  V30 3271 H 315.732 -0.741063 0.093996 0
M  V30 3272 H 318.394 -1.71398 0.927835 0
M  V30 3273 H 317.49 -3.10658 0.299671 0
M  V30 3274 N 317.792 -0.46758 -1.50504 0
M  V30 3275 C 318.755 0.317059 -2.26996 0
M  V30 3276 C 319.755 0.923513 -1.31635 0
M  V30 3277 O 320.945 0.793239 -1.55091 0
M  V30 3278 C 318.077 1.45134 -3.08462 0
M  V30 3279 H 319.27 -0.353723 -2.97807 0
M  V30 3280 H 316.823 -0.221545 -1.54722 0
M  V30 3281 H 317.558 2.15728 -2.4214 0
M  V30 3282 H 317.343 1.02232 -3.78538 0
M  V30 3283 H 318.833 2.00493 -3.66323 0
M  V30 3284 N 319.27 1.56325 -0.20005 0
M  V30 3285 C 320.233 2.18084 0.705132 0
M  V30 3286 C 321.233 1.13666 1.1374 0
M  V30 3287 O 322.423 1.39023 1.04968 0
M  V30 3288 C 319.555 2.78689 1.96329 0
M  V30 3289 H 320.748 2.99435 0.167023 0
M  V30 3290 H 318.301 1.56221 0.0495725 0
M  V30 3291 H 319.036 2.0115 2.5438 0
M  V30 3292 H 318.821 3.55133 1.66202 0
M  V30 3293 H 320.311 3.26096 2.60866 0
M  V30 3294 N 320.748 -0.0735177 1.57428 0
M  V30 3295 C 321.695 -1.08756 2.0357 0
M  V30 3296 C 322.665 -1.38559 0.916 0
M  V30 3297 O 323.85 -1.49656 1.18354 0
M  V30 3298 C 320.99 -2.39657 2.48311 0
M  V30 3299 C 320.103 -2.16399 3.73892 0
M  V30 3300 C 319.238 -3.40852 4.07423 0
M  V30 3301 C 318.277 -3.1295 5.2605 0
M  V30 3302 N 317.414 -4.29729 5.55228 0
M  V30 3303 H 322.254 -0.687104 2.8997 0
M  V30 3304 H 319.791 -0.327709 1.43403 0
M  V30 3305 H 321.749 -3.16081 2.72303 0
M  V30 3306 H 320.379 -2.77508 1.64891 0
M  V30 3307 H 319.431 -1.30676 3.57251 0
M  V30 3308 H 320.743 -1.91788 4.60455 0
M  V30 3309 H 319.897 -4.25671 4.32306 0
M  V30 3310 H 318.636 -3.68537 3.19425 0
M  V30 3311 H 317.641 -2.26526 5.00965 0
M  V30 3312 H 318.866 -2.86589 6.15665 0
M  V30 3313 H 316.812 -4.57448 4.70188 0
M  V30 3314 H 316.729 -4.08385 6.36206 0
M  V30 3315 H 317.997 -5.1555 5.84661 0
M  V30 3316 N 322.226 -1.5378 -0.344866 0
M  V30 3317 C 323.189 -1.80981 -1.40637 0
M  V30 3318 C 324.189 -0.680816 -1.45676 0
M  V30 3319 O 325.379 -0.949095 -1.46075 0
M  V30 3320 C 322.511 -1.95063 -2.79577 0
M  V30 3321 H 323.704 -2.75803 -1.17783 0
M  V30 3322 H 321.257 -1.45173 -0.579181 0
M  V30 3323 H 321.992 -1.02379 -3.07716 0
M  V30 3324 H 321.777 -2.77198 -2.77315 0
M  V30 3325 H 323.267 -2.17629 -3.56409 0
M  V30 3326 N 323.704 0.605807 -1.45491 0
M  V30 3327 C 324.95 1.36679 -1.49823 0
M  V30 3328 C 325.283 1.93693 -0.140175 0
M  V30 3329 O 324.558 1.75158 0.845581 0
M  V30 3330 C 324.841 2.51337 -2.57879 0
M  V30 3331 C 324.694 1.99508 -4.03134 0
M  V30 3332 C 326.013 3.53463 -2.62205 0
M  V30 3333 H 323.132 0.495617 -0.545466 0
M  V30 3334 H 325.774 0.682732 -1.7731 0
M  V30 3335 H 323.924 3.09691 -2.34571 0
M  V30 3336 H 325.596 1.45789 -4.37656 0
M  V30 3337 H 323.839 1.30496 -4.13707 0
M  V30 3338 H 324.51 2.82169 -4.74431 0
M  V30 3339 H 326.986 3.04953 -2.83095 0
M  V30 3340 H 325.862 4.31178 -3.39672 0
M  V30 3341 H 326.123 4.09197 -1.67363 0
M  V30 3342 N 325.182 1.32811 0.848464 0
M  V30 3343 C 326.43 1.23479 1.59991 0
M  V30 3344 C 326.751 -0.201853 1.93952 0
M  V30 3345 O 326.021 -1.12818 1.60153 0
M  V30 3346 H 324.601 0.454034 0.593179 0
M  V30 3347 H 327.263 1.66412 1.01455 0
M  V30 3348 H 326.359 1.82178 2.53412 0
M  V30 3349 N 326.66 -1.06551 1.16123 0
M  V30 3350 C 327.607 -2.13961 0.865414 0
M  V30 3351 C 328.577 -1.65066 -0.185055 0
M  V30 3352 O 329.762 -1.90732 -0.05083 0
M  V30 3353 C 326.902 -3.43113 0.369776 0
M  V30 3354 C 326.015 -4.05756 1.48276 0
M  V30 3355 C 325.15 -5.22773 0.942414 0
M  V30 3356 C 324.189 -5.77395 2.03179 0
M  V30 3357 N 323.326 -6.85731 1.50721 0
M  V30 3358 H 328.166 -2.38605 1.78527 0
M  V30 3359 H 325.703 -1.17072 0.890646 0
M  V30 3360 H 327.661 -4.17151 0.0640643 0
M  V30 3361 H 326.291 -3.18695 -0.513143 0
M  V30 3362 H 325.343 -3.29292 1.9045 0
M  V30 3363 H 326.655 -4.42351 2.30493 0
M  V30 3364 H 325.809 -6.03827 0.589729 0
M  V30 3365 H 324.548 -4.87618 0.0895191 0
M  V30 3366 H 323.553 -4.94981 2.3932 0
M  V30 3367 H 324.778 -6.14603 2.8886 0
M  V30 3368 H 322.724 -6.52499 0.676811 0
M  V30 3369 H 322.641 -7.21254 2.26557 0
M  V30 3370 H 323.909 -7.7047 1.18303 0
M  V30 3371 N 328.138 -0.959301 -1.25041 0
M  V30 3372 C 329.384 -0.617525 -1.9317 0
M  V30 3373 C 329.717 0.843981 -1.74902 0
M  V30 3374 O 328.992 1.60615 -1.09696 0
M  V30 3375 C 329.275 -0.982736 -3.46431 0
M  V30 3376 C 329.128 -2.50032 -3.73904 0
M  V30 3377 C 330.447 -0.511176 -4.37121 0
M  V30 3378 H 327.566 -0.22582 -0.701552 0
M  V30 3379 H 330.208 -1.19679 -1.4757 0
M  V30 3380 H 328.358 -0.489806 -3.854 0
M  V30 3381 H 330.03 -3.06737 -3.44544 0
M  V30 3382 H 328.273 -2.93598 -3.19348 0
M  V30 3383 H 328.944 -2.70635 -4.81103 0
M  V30 3384 H 331.42 -0.934075 -4.0548 0
M  V30 3385 H 330.296 -0.795361 -5.43107 0
M  V30 3386 H 330.557 0.588834 -4.38161 0
M  V30 3387 N 329.616 1.39756 -0.72842 0
M  V30 3388 C 330.546 2.33289 -0.0991354 0
M  V30 3389 C 331.527 1.53568 0.731489 0
M  V30 3390 O 332.712 1.81987 0.677807 0
M  V30 3391 C 329.842 3.3763 0.813834 0
M  V30 3392 C 328.796 4.2791 0.0878663 0
M  V30 3393 C 328.122 5.22894 1.11741 0
M  V30 3394 C 329.422 5.11314 -1.06563 0
M  V30 3395 H 331.116 2.86163 -0.880408 0
M  V30 3396 H 328.662 1.37591 -0.424819 0
M  V30 3397 H 330.615 4.0201 1.26355 0
M  V30 3398 H 329.339 2.83181 1.62715 0
M  V30 3399 H 327.998 3.65 -0.342159 0
M  V30 3400 H 327.646 4.64744 1.92412 0
M  V30 3401 H 327.346 5.84143 0.636477 0
M  V30 3402 H 328.87 5.90151 1.56697 0
M  V30 3403 H 330.284 5.69076 -0.694671 0
M  V30 3404 H 328.681 5.81671 -1.47577 0
M  V30 3405 H 329.751 4.46534 -1.89038 0
M  V30 3406 N 331.094 0.475555 1.50254 0
M  V30 3407 C 332.505 0.0215174 1.86688 0
M  V30 3408 C 332.856 -1.38467 1.39001 0
M  V30 3409 O 331.981 -2.02732 0.756894 0
M  V30 3410 C 332.576 0.0322715 3.38785 0
M  V30 3411 C 331.135 -0.366314 3.74613 0
M  V30 3412 C 330.282 0.415832 2.74164 0
M  V30 3413 H 333.233 0.689612 1.42934 0
M  V30 3414 H 333.254 -0.76889 3.7265 0
M  V30 3415 H 332.766 1.05584 3.73462 0
M  V30 3416 H 330.867 -1.39406 3.45538 0
M  V30 3417 H 330.98 -0.064555 4.79057 0
M  V30 3418 H 329.344 -0.131048 2.54363 0
M  V30 3419 H 330.127 1.43899 3.11686 0
M  V30 3420 N 332.573 -1.56217 0.208337 0
M  V30 3421 C 333.483 -2.23316 -0.718836 0
M  V30 3422 C 334.499 -1.23648 -1.22422 0
M  V30 3423 O 335.675 -1.56423 -1.26861 0
M  V30 3424 C 332.74 -2.88968 -1.91568 0
M  V30 3425 C 331.801 -4.03943 -1.45357 0
M  V30 3426 C 331.034 -4.66455 -2.59337 0
M  V30 3427 O 331.257 -4.27919 -3.77149 0
M  V30 3428 O 330.191 -5.55686 -2.31293 0
M  V30 3429 H 334.017 -3.03182 -0.177315 0
M  V30 3430 H 331.602 -1.49384 -0.0215402 0
M  V30 3431 H 333.484 -3.30455 -2.61491 0
M  V30 3432 H 332.159 -2.12071 -2.44556 0
M  V30 3433 H 331.066 -3.67052 -0.722746 0
M  V30 3434 H 332.399 -4.82543 -0.970219 0
M  V30 3435 N 334.051 0.0651679 -1.57465 0
M  V30 3436 C 334.981 1.07693 -2.07182 0
M  V30 3437 C 335.962 1.39962 -0.966673 0
M  V30 3438 O 337.147 1.49475 -1.2398 0
M  V30 3439 C 334.277 2.3885 -2.52127 0
M  V30 3440 C 333.231 2.20917 -3.66579 0
M  V30 3441 C 332.557 3.57515 -3.97601 0
M  V30 3442 C 333.857 1.62493 -4.9638 0
M  V30 3443 H 335.551 0.663199 -2.91962 0
M  V30 3444 H 333.097 0.317569 -1.40455 0
M  V30 3445 H 335.05 3.09928 -2.85522 0
M  V30 3446 H 333.774 2.82215 -1.64384 0
M  V30 3447 H 332.433 1.52279 -3.33477 0
M  V30 3448 H 332.081 3.98463 -3.06979 0
M  V30 3449 H 331.781 3.46353 -4.74672 0
M  V30 3450 H 333.305 4.30013 -4.33499 0
M  V30 3451 H 334.719 2.23445 -5.27963 0
M  V30 3452 H 333.116 1.62009 -5.77818 0
M  V30 3453 H 334.186 0.587041 -4.81333 0
M  V30 3454 N 335.529 1.53961 0.336706 0
M  V30 3455 C 336.477 1.83136 1.43401 0
M  V30 3456 C 337.471 0.702313 1.54156 0
M  V30 3457 O 338.677 0.885765 1.56698 0
M  V30 3458 H 335.052 0.580309 0.478273 0
M  V30 3459 H 337.023 2.74925 1.16012 0
M  V30 3460 C 335.772 2.06385 2.79822 0
M  V30 3461 H 335.095 2.92718 2.72316 0
M  V30 3462 H 336.535 2.30761 3.55704 0
M  V30 3463 C 334.994 0.851414 3.25964 0
M  V30 3464 O 335.524 0.0541904 4.01663 0
M  V30 3465 N 333.73 0.66672 2.82848 0
M  V30 3466 H 333.277 1.31665 2.21409 0
M  V30 3467 H 333.235 -0.143032 3.14074 0
M  V30 3468 N 337.007 -0.598083 1.45811 0
M  V30 3469 C 338.255 -1.35413 1.50026 0
M  V30 3470 C 338.576 -1.94444 0.147177 0
M  V30 3471 O 337.846 -1.77701 -0.824571 0
M  V30 3472 H 336.426 -0.502727 0.552517 0
M  V30 3473 H 339.088 -0.701606 1.81834 0
M  V30 3474 H 338.184 -2.16871 2.2444 0
M  V30 3475 N 338.485 -1.33259 -0.841409 0
M  V30 3476 C 339.432 -1.23302 -1.95103 0
M  V30 3477 C 340.402 -0.112204 -1.65721 0
M  V30 3478 O 341.587 -0.290038 -1.88583 0
M  V30 3479 C 338.727 -0.975583 -3.31023 0
M  V30 3480 C 337.84 -2.18243 -3.72819 0
M  V30 3481 C 336.975 -1.85936 -4.97595 0
M  V30 3482 C 336.014 -3.02866 -5.3192 0
M  V30 3483 N 335.151 -2.70565 -6.47873 0
M  V30 3484 H 339.991 -2.18207 -2.02952 0
M  V30 3485 H 337.528 -1.0851 -0.993173 0
M  V30 3486 H 339.486 -0.80677 -4.09325 0
M  V30 3487 H 338.116 -0.0632755 -3.22738 0
M  V30 3488 H 337.168 -2.46107 -2.90061 0
M  V30 3489 H 338.48 -3.05666 -3.94169 0
M  V30 3490 H 337.634 -1.65684 -5.83638 0
M  V30 3491 H 336.373 -0.957452 -4.78209 0
M  V30 3492 H 335.378 -3.23736 -4.44382 0
M  V30 3493 H 336.603 -3.93809 -5.53255 0
M  V30 3494 H 334.549 -1.8293 -6.29978 0
M  V30 3495 H 334.466 -3.51519 -6.69306 0
M  V30 3496 H 335.734 -2.53774 -7.37034 0
M  V30 3497 N 339.963 1.05934 -1.16686 0
M  V30 3498 C 340.893 2.1546 -0.899949 0
M  V30 3499 C 341.874 1.69391 0.155154 0
M  V30 3500 O 343.059 1.94199 0.00648693 0
M  V30 3501 C 340.189 3.44939 -0.404241 0
M  V30 3502 C 339.143 4.04536 -1.39767 0
M  V30 3503 C 338.469 5.29268 -0.760216 0
M  V30 3504 C 339.769 4.42893 -2.76845 0
M  V30 3505 H 341.463 2.38046 -1.81588 0
M  V30 3506 H 339.009 1.14404 -0.874514 0
M  V30 3507 H 340.962 4.20901 -0.204971 0
M  V30 3508 H 339.686 3.21983 0.547206 0
M  V30 3509 H 338.345 3.30635 -1.58355 0
M  V30 3510 H 337.993 5.02611 0.197831 0
M  V30 3511 H 337.693 5.70101 -1.42332 0
M  V30 3512 H 339.217 6.07924 -0.57105 0
M  V30 3513 H 340.631 5.09921 -2.62019 0
M  V30 3514 H 339.028 4.94721 -3.39663 0
M  V30 3515 H 340.098 3.53584 -3.31823 0
M  V30 3516 N 341.441 0.965919 1.2453 0
M  V30 3517 C 342.669 0.644385 1.96609 0
M  V30 3518 C 343.084 -0.785823 1.71669 0
M  V30 3519 O 342.441 -1.52703 0.999399 0
M  V30 3520 C 342.492 0.907375 3.49927 0
M  V30 3521 O 342.213 2.28136 3.74013 0
M  V30 3522 C 343.714 0.599784 4.39224 0
M  V30 3523 H 340.934 0.240588 0.626385 0
M  V30 3524 H 343.478 1.29337 1.58405 0
M  V30 3525 H 341.633 0.304631 3.862 0
M  V30 3526 H 342.047 2.36002 4.68405 0
M  V30 3527 H 343.521 0.834263 5.45659 0
M  V30 3528 H 343.998 -0.465921 4.36722 0
M  V30 3529 H 344.604 1.18235 4.08535 0
M  V30 3530 N 342.919 -1.39368 0.735821 0
M  V30 3531 C 344.167 -2.00101 0.283562 0
M  V30 3532 C 344.488 -1.5868 -1.13338 0
M  V30 3533 O 343.758 -0.835423 -1.77193 0
M  V30 3534 H 342.338 -0.740024 0.101851 0
M  V30 3535 H 345 -1.70404 0.945962 0
M  V30 3536 H 344.096 -3.10323 0.332604 0
M  V30 3537 N 344.397 -0.483516 -1.5 0
M  V30 3538 C 345.643 0.0672592 -2.02688 0
M  V30 3539 C 345.976 1.38247 -1.36387 0
M  V30 3540 O 345.251 1.88131 -0.493675 0
M  V30 3541 C 345.534 0.238109 -3.59312 0
M  V30 3542 C 345.387 -1.099 -4.36168 0
M  V30 3543 C 346.706 0.986916 -4.28892 0
M  V30 3544 H 343.825 0.0229696 -0.736642 0
M  V30 3545 H 346.467 -0.631527 -1.79197 0
M  V30 3546 H 344.617 0.8333 -3.79458 0
M  V30 3547 H 346.289 -1.73172 -4.27562 0
M  V30 3548 H 344.532 -1.69261 -3.99416 0
M  V30 3549 H 345.203 -0.932954 -5.44059 0
M  V30 3550 H 347.679 0.482302 -4.13295 0
M  V30 3551 H 346.555 1.07527 -5.38265 0
M  V30 3552 H 346.816 2.0265 -3.92919 0
M  V30 3553 N 345.875 1.56104 -0.216619 0
M  V30 3554 C 346.838 2.18819 0.681962 0
M  V30 3555 C 347.838 1.14866 1.12528 0
M  V30 3556 O 349.028 1.40128 1.03488 0
M  V30 3557 C 346.16 2.80756 1.93362 0
M  V30 3558 H 347.353 2.99595 0.135254 0
M  V30 3559 H 344.906 1.56265 0.0330003 0
M  V30 3560 H 345.641 2.03837 2.52232 0
M  V30 3561 H 345.426 3.56876 1.62426 0
M  V30 3562 H 346.916 3.28844 2.57393 0
M  V30 3563 N 347.353 -0.0568162 1.57498 0
M  V30 3564 C 348.6 -0.753104 1.87975 0
M  V30 3565 C 348.928 -1.76815 0.81035 0
M  V30 3566 O 348.183 -1.94756 -0.19199 0
M  V30 3567 C 348.482 -1.48359 3.25153 0
M  V30 3568 C 348.148 -0.60713 4.46794 0
M  V30 3569 C 346.81 -0.365642 4.79809 0
M  V30 3570 C 349.162 -0.000305978 5.212 0
M  V30 3571 C 346.49 0.491905 5.84634 0
M  V30 3572 C 348.842 0.844781 6.26934 0
M  V30 3573 C 347.506 1.096 6.58441 0
M  V30 3574 H 346.776 -0.27558 0.687849 0
M  V30 3575 H 349.423 -0.0135173 1.91495 0
M  V30 3576 H 347.728 -2.29577 3.17492 0
M  V30 3577 H 349.425 -2.02739 3.45974 0
M  V30 3578 H 346.015 -0.805487 4.20963 0
M  V30 3579 H 350.199 -0.173961 4.95995 0
M  V30 3580 H 345.455 0.695131 6.07436 0
M  V30 3581 H 349.629 1.32165 6.83744 0
M  V30 3582 H 347.256 1.76224 7.39492 0
M  V30 3583 N 348.832 -1.54138 -0.328536 0
M  V30 3584 C 350.248 -1.44736 -0.672574 0
M  V30 3585 C 350.448 -0.616217 -1.91846 0
M  V30 3586 O 349.504 -0.113067 -2.52247 0
M  V30 3587 C 350.817 -2.884 -0.851217 0
M  V30 3588 C 352.365 -2.98271 -0.948877 0
M  V30 3589 C 352.84 -4.43074 -1.15973 0
M  V30 3590 N 354.331 -4.46665 -1.22658 0
M  V30 3591 C 355.066 -5.55857 -1.40751 0
M  V30 3592 N 354.562 -6.75026 -1.5592 0
M  V30 3593 N 356.355 -5.43495 -1.4342 0
M  V30 3594 H 348.506 -2.06661 0.490421 0
M  V30 3595 H 350.769 -0.934812 0.157579 0
M  V30 3596 H 350.475 -3.51699 -0.00704236 0
M  V30 3597 H 350.349 -3.34225 -1.74853 0
M  V30 3598 H 352.736 -2.35102 -1.78356 0
M  V30 3599 H 352.817 -2.55785 -0.0281435 0
M  V30 3600 H 352.461 -5.06827 -0.329915 0
M  V30 3601 H 352.391 -4.83165 -2.09426 0
M  V30 3602 H 354.882 -3.60797 -1.124 0
M  V30 3603 H 355.195 -7.54004 -1.69404 0
M  V30 3604 H 353.54 -6.77944 -1.53027 0
M  V30 3605 H 356.731 -4.49349 -1.31162 0
M  V30 3606 H 356.904 -6.28649 -1.57178 0
M  V30 3607 N 350.31 0.590341 -1.46126 0
M  V30 3608 C 351.556 1.35082 -1.51264 0
M  V30 3609 C 351.889 1.93534 -0.160711 0
M  V30 3610 O 351.164 1.76045 0.826956 0
M  V30 3611 C 351.447 2.48588 -2.6053 0
M  V30 3612 C 351.3 1.95221 -4.05227 0
M  V30 3613 C 352.619 3.50662 -2.6594 0
M  V30 3614 H 349.738 0.489803 -0.550692 0
M  V30 3615 H 352.38 0.663887 -1.78024 0
M  V30 3616 H 350.53 3.07186 -2.37843 0
M  V30 3617 H 352.202 1.41139 -4.39178 0
M  V30 3618 H 350.445 1.26101 -4.15068 0
M  V30 3619 H 351.116 2.77121 -4.77397 0
M  V30 3620 H 353.592 3.01934 -2.86313 0
M  V30 3621 H 352.468 4.27551 -3.44226 0
M  V30 3622 H 352.729 4.07399 -1.71694 0
M  V30 3623 N 351.788 1.33704 0.83433 0
M  V30 3624 C 353.199 1.22813 1.4062 0
M  V30 3625 C 353.55 -0.151107 1.95617 0
M  V30 3626 O 352.675 -1.05092 1.89168 0
M  V30 3627 C 353.27 2.22355 2.55624 0
M  V30 3628 C 351.829 2.1529 3.08751 0
M  V30 3629 C 350.976 2.09589 1.8157 0
M  V30 3630 H 353.927 1.45236 0.639702 0
M  V30 3631 H 353.948 1.83391 3.33389 0
M  V30 3632 H 353.46 3.22728 2.15566 0
M  V30 3633 H 351.561 1.18235 3.53343 0
M  V30 3634 H 351.674 3.06038 3.68616 0
M  V30 3635 H 350.038 1.55134 2.02004 0
M  V30 3636 H 350.821 3.11777 1.43701 0
M  V30 3637 N 353.266 -1.05314 1.17247 0
M  V30 3638 C 354.515 -1.77685 0.954521 0
M  V30 3639 C 354.828 -1.88616 -0.518025 0
M  V30 3640 O 356.034 -2.57714 -0.854144 0
M  V30 3641 C 354.49 -3.19402 1.65863 0
M  V30 3642 C 354.098 -3.16605 3.16963 0
M  V30 3643 C 355.842 -3.96237 1.52303 0
M  V30 3644 C 353.749 -4.53103 3.80068 0
M  V30 3645 H 352.679 -0.666 0.353496 0
M  V30 3646 H 355.33 -1.1805 1.40486 0
M  V30 3647 H 353.712 -3.79355 1.13602 0
M  V30 3648 H 354.886 -2.66176 3.76148 0
M  V30 3649 H 353.201 -2.53268 3.30521 0
M  V30 3650 H 355.798 -4.97157 1.96822 0
M  V30 3651 H 356.141 -4.136 0.473401 0
M  V30 3652 H 356.674 -3.42829 2.01775 0
M  V30 3653 H 353.413 -4.40946 4.85023 0
M  V30 3654 H 352.933 -5.03686 3.2567 0
M  V30 3655 H 354.612 -5.22045 3.82202 0
M  V30 3656 N 354.744 -0.972509 -1.24016 0
M  V30 3657 C 355.992 -0.635776 -1.91839 0
M  V30 3658 C 356.313 0.832312 -1.76345 0
M  V30 3659 O 355.583 1.5946 -1.13795 0
M  V30 3660 H 354.163 -0.232157 -0.710009 0
M  V30 3661 H 356.825 -1.23462 -1.50809 0
M  V30 3662 H 355.921 -0.880545 -2.99421 0
M  V30 3663 N 356.222 1.38976 -0.743202 0
M  V30 3664 C 357.45 2.04636 -0.30525 0
M  V30 3665 C 357.865 1.56044 1.06281 0
M  V30 3666 O 357.222 0.728921 1.67311 0
M  V30 3667 C 357.273 3.60193 -0.307177 0
M  V30 3668 O 356.994 4.06998 -1.62124 0
M  V30 3669 C 358.495 4.4306 0.145928 0
M  V30 3670 H 355.715 0.65788 -0.132041 0
M  V30 3671 H 358.259 1.77866 -1.00915 0
M  V30 3672 H 356.414 3.85835 0.347898 0
M  V30 3673 H 356.828 5.01371 -1.54036 0
M  V30 3674 H 358.302 5.51921 0.0934183 0
M  V30 3675 H 358.779 4.22706 1.19231 0
M  V30 3676 H 359.385 4.22584 -0.479886 0
M  V30 3677 N 357.7 0.491464 1.49741 0
M  V30 3678 C 358.946 -0.0565092 2.02721 0
M  V30 3679 C 359.279 -1.37522 1.37118 0
M  V30 3680 O 358.554 -1.87866 0.503645 0
M  V30 3681 C 358.837 -0.219051 3.59433 0
M  V30 3682 C 358.69 1.12211 4.35579 0
M  V30 3683 C 360.009 -0.964157 4.29409 0
M  V30 3684 H 357.128 -0.0190627 0.736753 0
M  V30 3685 H 359.77 0.641021 1.7886 0
M  V30 3686 H 357.92 -0.813165 3.79895 0
M  V30 3687 H 359.592 1.75437 4.26637 0
M  V30 3688 H 357.835 1.71377 3.98513 0
M  V30 3689 H 358.506 0.961794 5.43556 0
M  V30 3690 H 360.982 -0.460378 4.13545 0
M  V30 3691 H 359.858 -1.04671 5.38828 0
M  V30 3692 H 360.119 -2.00563 3.93988 0
M  V30 3693 N 359.178 -1.55987 0.224894 0
M  V30 3694 C 360.403 -2.03232 -0.41369 0
M  V30 3695 C 360.828 -1.10359 -1.52323 0
M  V30 3696 O 360.186 -0.092395 -1.81064 0
M  V30 3697 C 360.234 -3.48682 -0.919405 0
M  V30 3698 O 359.338 -3.58947 -2.03054 0
M  V30 3699 H 358.679 -0.657428 -0.0931903 0
M  V30 3700 H 361.209 -2.01679 0.34451 0
M  V30 3701 H 361.219 -3.8907 -1.22835 0
M  V30 3702 H 359.894 -4.15761 -0.107339 0
M  V30 3703 H 358.471 -3.30448 -1.72796 0
M  V30 3704 N 360.656 0.0484629 -1.57525 0
M  V30 3705 C 361.902 0.744226 -1.88651 0
M  V30 3706 C 362.235 1.76029 -0.820212 0
M  V30 3707 O 361.51 1.93782 0.166985 0
M  V30 3708 C 361.793 1.43128 -3.30434 0
M  V30 3709 C 361.646 0.43005 -4.47739 0
M  V30 3710 C 362.965 2.37031 -3.70816 0
M  V30 3711 H 360.084 0.269089 -0.68612 0
M  V30 3712 H 362.726 0.00713532 -1.89999 0
M  V30 3713 H 360.876 2.05956 -3.29415 0
M  V30 3714 H 362.548 -0.194816 -4.60888 0
M  V30 3715 H 360.791 -0.252522 -4.33064 0
M  V30 3716 H 361.462 0.948874 -5.43783 0
M  V30 3717 H 363.938 1.84263 -3.73077 0
M  V30 3718 H 362.814 2.82094 -4.70865 0
M  V30 3719 H 363.075 3.22864 -3.02012 0
M  V30 3720 N 362.134 1.5431 0.320358 0
M  V30 3721 C 363.38 1.72924 1.05949 0
M  V30 3722 C 363.713 0.503185 1.87568 0
M  V30 3723 O 362.988 -0.499839 1.87968 0
M  V30 3724 C 363.271 3.00676 1.98156 0
M  V30 3725 C 363.124 4.3354 1.19845 0
M  V30 3726 C 364.443 3.24198 2.9763 0
M  V30 3727 H 361.562 0.629195 0.383774 0
M  V30 3728 H 364.204 1.87008 0.335854 0
M  V30 3729 H 362.354 2.888 2.59859 0
M  V30 3730 H 364.026 4.57305 0.605773 0
M  V30 3731 H 362.269 4.309 0.500784 0
M  V30 3732 H 362.94 5.19156 1.87567 0
M  V30 3733 H 365.416 3.35557 2.4605 0
M  V30 3734 H 364.292 4.14938 3.59329 0
M  V30 3735 H 364.553 2.41577 3.7026 0
M  V30 3736 N 363.613 -0.582584 1.46437 0
M  V30 3737 C 364.89 -1.34276 1.4223 0
M  V30 3738 C 365.27 -2.10835 0.10583 0
M  V30 3739 O 364.618 -2.09485 -0.912596 0
M  V30 3740 C 364.828 -2.26865 2.65204 0
M  V30 3741 C 366.176 -2.88691 3.11356 0
M  V30 3742 O 367.2 -2.37178 2.65753 0
M  V30 3743 O 366.059 -3.82255 3.90568 0
M  V30 3744 H 363.153 -0.603326 0.565621 0
M  V30 3745 H 365.699 -0.603591 1.58603 0
M  V30 3746 H 364.471 -1.69724 3.52576 0
M  V30 3747 H 364.094 -3.08122 2.5129 0
M  V30 3748 N 365.091 -1.34144 -0.827227 0
M  V30 3749 C 366.021 -1.28005 -1.95287 0
M  V30 3750 C 367.002 -0.158321 -1.69362 0
M  V30 3751 O 368.187 -0.349987 -1.9102 0
M  V30 3752 C 365.317 -1.03036 -3.31664 0
M  V30 3753 C 364.271 -2.11628 -3.72019 0
M  V30 3754 C 363.597 -1.71854 -5.0633 0
M  V30 3755 C 364.897 -3.53417 -3.8457 0
M  V30 3756 H 366.591 -2.22187 -2.00682 0
M  V30 3757 H 364.137 -1.0696 -0.964135 0
M  V30 3758 H 366.09 -0.973863 -4.09993 0
M  V30 3759 H 364.814 -0.0529391 -3.26557 0
M  V30 3760 H 363.473 -2.16339 -2.95961 0
M  V30 3761 H 363.121 -0.727841 -4.97706 0
M  V30 3762 H 362.821 -2.44531 -5.34302 0
M  V30 3763 H 364.345 -1.67692 -5.87122 0
M  V30 3764 H 365.759 -3.51142 -4.5318 0
M  V30 3765 H 364.156 -4.24679 -4.2399 0
M  V30 3766 H 365.226 -3.91072 -2.86689 0
M  V30 3767 N 366.569 1.04691 -1.17803 0
M  V30 3768 C 367.815 1.78045 -0.970969 0
M  V30 3769 C 368.148 1.87686 0.498751 0
M  V30 3770 O 367.423 1.38035 1.37027 0
M  V30 3771 C 367.706 3.2166 -1.61884 0
M  V30 3772 C 367.559 3.20001 -3.161 0
M  V30 3773 C 368.878 4.1962 -1.3269 0
M  V30 3774 H 365.997 0.64633 -0.354155 0
M  V30 3775 H 368.639 1.22333 -1.45378 0
M  V30 3776 H 366.789 3.69232 -1.20831 0
M  V30 3777 H 368.461 2.80467 -3.66246 0
M  V30 3778 H 366.704 2.58203 -3.48588 0
M  V30 3779 H 367.375 4.21386 -3.56564 0
M  V30 3780 H 369.851 3.80567 -1.68249 0
M  V30 3781 H 368.727 5.18339 -1.80599 0
M  V30 3782 H 368.988 4.414 -0.248622 0
M  V30 3783 N 368.047 0.979072 1.23499 0
M  V30 3784 C 369.287 0.655228 1.93613 0
M  V30 3785 C 369.651 -0.796336 1.74707 0
M  V30 3786 O 370.852 -1.23094 2.38959 0
M  V30 3787 C 369.123 1.03337 3.42135 0
M  V30 3788 S 370.682 0.825793 4.3096 0
M  V30 3789 H 367.5 0.240004 0.669267 0
M  V30 3790 H 370.102 1.25843 1.49612 0
M  V30 3791 H 368.806 2.08646 3.53405 0
M  V30 3792 H 368.337 0.421397 3.91137 0
M  V30 3793 H 370.352 -0.290991 4.95346 0
M  V30 3794 N 369.525 -1.3858 0.750561 0
M  V30 3795 C 370.941 -1.53759 0.427824 0
M  V30 3796 C 371.141 -1.71401 -1.05943 0
M  V30 3797 O 370.197 -1.72331 -1.84549 0
M  V30 3798 C 371.51 -2.74642 1.22443 0
M  V30 3799 C 373.058 -2.88489 1.2142 0
M  V30 3800 C 373.533 -4.12329 1.9937 0
M  V30 3801 N 375.024 -4.194 1.96616 0
M  V30 3802 C 375.759 -5.14209 2.53727 0
M  V30 3803 N 375.255 -6.14709 3.19539 0
M  V30 3804 N 377.048 -5.06537 2.43673 0
M  V30 3805 H 369.199 -1.25377 1.71447 0
M  V30 3806 H 371.462 -0.608844 0.726645 0
M  V30 3807 H 371.168 -2.68 2.27747 0
M  V30 3808 H 371.042 -3.67745 0.839273 0
M  V30 3809 H 373.429 -2.94614 0.169232 0
M  V30 3810 H 373.51 -1.96406 1.63885 0
M  V30 3811 H 373.154 -4.06966 3.03877 0
M  V30 3812 H 373.084 -5.03486 1.54302 0
M  V30 3813 H 375.575 -3.47421 1.48684 0
M  V30 3814 H 375.888 -6.8354 3.60545 0
M  V30 3815 H 374.233 -6.1505 3.23633 0
M  V30 3816 H 377.424 -4.26962 1.91889 0
M  V30 3817 H 377.597 -5.80245 2.88479 0
M  V30 3818 N 371.003 -0.499398 -1.49478 0
M  V30 3819 C 371.933 0.269244 -2.31943 0
M  V30 3820 C 372.914 0.964054 -1.40143 0
M  V30 3821 O 374.099 0.955767 -1.69052 0
M  V30 3822 C 371.229 1.33504 -3.20615 0
M  V30 3823 C 370.183 0.760202 -4.21195 0
M  V30 3824 C 369.509 1.9264 -4.98792 0
M  V30 3825 C 370.809 -0.247661 -5.21712 0
M  V30 3826 H 372.503 -0.419082 -2.96452 0
M  V30 3827 H 370.049 -0.202988 -1.42562 0
M  V30 3828 H 372.002 1.88048 -3.77115 0
M  V30 3829 H 370.726 2.05253 -2.54045 0
M  V30 3830 H 369.385 0.23653 -3.65836 0
M  V30 3831 H 369.033 2.63154 -4.28671 0
M  V30 3832 H 368.733 1.54785 -5.66847 0
M  V30 3833 H 370.257 2.4762 -5.58137 0
M  V30 3834 H 371.671 0.209579 -5.72917 0
M  V30 3835 H 370.068 -0.541962 -5.97648 0
M  V30 3836 H 371.138 -1.16409 -4.7072 0
M  V30 3837 N 372.481 1.55866 -0.233164 0
M  V30 3838 C 373.413 2.18099 0.704668 0
M  V30 3839 C 374.426 1.15334 1.14899 0
M  V30 3840 O 375.615 1.42262 1.07814 0
M  V30 3841 C 372.715 2.7592 1.96777 0
M  V30 3842 C 371.888 4.03969 1.67713 0
M  V30 3843 C 370.947 4.46242 2.78845 0
M  V30 3844 O 369.973 5.12903 2.46818 0
M  V30 3845 N 371.175 4.12886 4.08051 0
M  V30 3846 H 373.94 2.99205 0.172258 0
M  V30 3847 H 371.501 1.61815 -0.0525945 0
M  V30 3848 H 373.493 3.01165 2.70337 0
M  V30 3849 H 372.063 1.99051 2.41034 0
M  V30 3850 H 371.283 3.86459 0.777391 0
M  V30 3851 H 372.571 4.8748 1.4574 0
M  V30 3852 H 371.969 3.59342 4.3691 0
M  V30 3853 H 370.526 4.42997 4.78118 0
M  V30 3854 N 373.959 -0.0401083 1.57549 0
M  V30 3855 C 374.906 -1.04413 2.05831 0
M  V30 3856 C 375.876 -1.36585 0.945184 0
M  V30 3857 O 377.061 -1.47112 1.21502 0
M  V30 3858 C 374.201 -2.34336 2.53339 0
M  V30 3859 C 373.314 -2.08419 3.78398 0
M  V30 3860 C 372.449 -3.32133 4.14561 0
M  V30 3861 C 371.488 -3.01721 5.3257 0
M  V30 3862 N 370.625 -4.17855 5.64218 0
M  V30 3863 H 375.465 -0.625442 2.91363 0
M  V30 3864 H 373.002 -0.297218 1.44066 0
M  V30 3865 H 374.96 -3.10234 2.78946 0
M  V30 3866 H 373.59 -2.73948 1.7074 0
M  V30 3867 H 372.642 -1.23069 3.59942 0
M  V30 3868 H 373.954 -1.81978 4.64419 0
M  V30 3869 H 373.108 -4.16406 4.41238 0
M  V30 3870 H 371.847 -3.61678 3.2717 0
M  V30 3871 H 370.852 -2.15849 5.05657 0
M  V30 3872 H 372.077 -2.73466 6.21605 0
M  V30 3873 H 370.023 -4.47372 4.79786 0
M  V30 3874 H 369.94 -3.94798 6.44725 0
M  V30 3875 H 371.208 -5.03033 5.95465 0
M  V30 3876 N 375.437 -1.54477 -0.31217 0
M  V30 3877 C 376.848 -1.64344 -0.885891 0
M  V30 3878 C 377.199 -0.54485 -1.88483 0
M  V30 3879 O 376.324 0.320387 -2.14015 0
M  V30 3880 C 376.919 -2.97908 -1.61357 0
M  V30 3881 C 375.478 -3.09933 -2.13585 0
M  V30 3882 C 374.625 -2.59971 -0.964897 0
M  V30 3883 H 377.576 -1.58448 -0.0894528 0
M  V30 3884 H 377.597 -2.88706 -2.47848 0
M  V30 3885 H 377.109 -3.77845 -0.886277 0
M  V30 3886 H 375.21 -2.34694 -2.89395 0
M  V30 3887 H 375.323 -4.15916 -2.37804 0
M  V30 3888 H 373.687 -2.16147 -1.34731 0
M  V30 3889 H 374.47 -3.42376 -0.251742 0
M  V30 3890 N 376.915 0.57481 -1.46744 0
M  V30 3891 C 377.878 1.66533 -1.57478 0
M  V30 3892 C 378.878 1.54338 -0.451263 0
M  V30 3893 O 380.068 1.58814 -0.715813 0
M  V30 3894 C 377.2 3.05999 -1.50259 0
M  V30 3895 H 378.393 1.58372 -2.54673 0
M  V30 3896 H 375.946 0.793301 -1.34672 0
M  V30 3897 H 376.681 3.19709 -0.543725 0
M  V30 3898 H 376.466 3.16259 -2.31781 0
M  V30 3899 H 377.956 3.8537 -1.60872 0
M  V30 3900 N 378.394 1.34581 0.820102 0
M  V30 3901 C 379.341 1.2639 1.93117 0
M  V30 3902 C 380.311 0.138554 1.65521 0
M  V30 3903 O 381.496 0.320004 1.88097 0
M  V30 3904 C 378.636 1.02812 3.29429 0
M  V30 3905 C 377.749 2.24146 3.693 0
M  V30 3906 C 376.884 1.93829 4.94574 0
M  V30 3907 C 375.923 3.1129 5.27034 0
M  V30 3908 N 375.06 2.80838 6.43486 0
M  V30 3909 H 379.9 2.21408 1.99455 0
M  V30 3910 H 377.437 1.10077 0.975784 0
M  V30 3911 H 379.395 0.871788 4.0799 0
M  V30 3912 H 378.025 0.114612 3.22596 0
M  V30 3913 H 377.077 2.50691 2.86109 0
M  V30 3914 H 378.389 3.11899 3.89257 0
M  V30 3915 H 377.543 1.74948 5.80929 0
M  V30 3916 H 376.282 1.03341 4.76626 0
M  V30 3917 H 375.287 3.30764 4.39175 0
M  V30 3918 H 376.512 4.02561 5.4692 0
M  V30 3919 H 374.458 1.92929 6.26988 0
M  V30 3920 H 374.375 3.62123 6.63629 0
M  V30 3921 H 375.643 2.65467 7.32903 0
M  V30 3922 N 379.872 -1.04064 1.18357 0
M  V30 3923 C 381.102 -1.80654 1.00238 0
M  V30 3924 C 381.51 -1.83713 -0.452362 0
M  V30 3925 O 380.853 -1.27135 -1.32599 0
M  V30 3926 C 380.915 -3.27582 1.48088 0
M  V30 3927 C 380.579 -3.48184 2.96002 0
M  V30 3928 C 381.576 -3.39372 3.93856 0
M  V30 3929 C 379.261 -3.7478 3.34433 0
M  V30 3930 C 381.255 -3.5686 5.28138 0
M  V30 3931 C 378.942 -3.91915 4.68877 0
M  V30 3932 C 379.94 -3.82956 5.65539 0
M  V30 3933 O 379.628 -3.996 6.97549 0
M  V30 3934 H 379.36 -0.575751 0.354241 0
M  V30 3935 H 381.914 -1.32044 1.57333 0
M  V30 3936 H 380.144 -3.77161 0.853588 0
M  V30 3937 H 381.833 -3.8573 1.2636 0
M  V30 3938 H 382.599 -3.18789 3.65511 0
M  V30 3939 H 378.478 -3.80852 2.59756 0
M  V30 3940 H 382.022 -3.49783 6.03571 0
M  V30 3941 H 377.919 -4.11992 4.96923 0
M  V30 3942 H 378.687 -4.1676 7.04452 0
M  V30 3943 N 381.35 -0.985608 -1.22978 0
M  V30 3944 C 382.26 -0.538548 -2.28335 0
M  V30 3945 C 383.276 0.409163 -1.69121 0
M  V30 3946 O 384.452 0.277797 -1.99475 0
M  V30 3947 C 381.517 0.146867 -3.46389 0
M  V30 3948 C 380.578 -0.842896 -4.20944 0
M  V30 3949 C 379.811 -0.190095 -5.33361 0
M  V30 3950 O 380.034 1.01767 -5.61248 0
M  V30 3951 O 378.968 -0.891289 -5.95264 0
M  V30 3952 H 382.794 -1.41487 -2.68729 0
M  V30 3953 H 380.379 -0.753495 -1.29007 0
M  V30 3954 H 382.261 0.531125 -4.1804 0
M  V30 3955 H 380.936 0.997871 -3.07935 0
M  V30 3956 H 379.843 -1.27795 -3.51595 0
M  V30 3957 H 381.176 -1.66287 -4.6326 0
M  V30 3958 N 382.828 1.3818 -0.7579 0
M  V30 3959 C 383.738 2.3421 -0.135247 0
M  V30 3960 C 384.754 1.59487 0.695683 0
M  V30 3961 O 385.93 1.91657 0.618832 0
M  V30 3962 C 382.995 3.3862 0.744139 0
M  V30 3963 C 382.056 4.2918 -0.101658 0
M  V30 3964 C 381.289 5.28603 0.735851 0
M  V30 3965 O 381.512 5.35166 1.97366 0
M  V30 3966 O 380.446 6.01707 0.152372 0
M  V30 3967 H 384.272 2.8916 -0.928436 0
M  V30 3968 H 381.857 1.40101 -0.518855 0
M  V30 3969 H 383.739 4.02539 1.2466 0
M  V30 3970 H 382.414 2.86019 1.51575 0
M  V30 3971 H 381.321 3.68407 -0.650167 0
M  V30 3972 H 382.654 4.85048 -0.836024 0
M  V30 3973 N 384.306 0.507319 1.49211 0
M  V30 3974 C 385.552 -0.0350047 2.0277 0
M  V30 3975 C 385.885 -1.3606 1.38569 0
M  V30 3976 O 385.16 -1.87321 0.523542 0
M  V30 3977 C 385.443 -0.180916 3.59645 0
M  V30 3978 C 385.296 1.16825 4.34364 0
M  V30 3979 C 386.615 -0.918558 4.30407 0
M  V30 3980 H 383.734 -0.0112473 0.736914 0
M  V30 3981 H 386.376 0.659956 1.7817 0
M  V30 3982 H 384.526 -0.772826 3.80736 0
M  V30 3983 H 386.198 1.79952 4.24753 0
M  V30 3984 H 384.441 1.75594 3.96673 0
M  V30 3985 H 385.112 1.01939 5.42506 0
M  V30 3986 H 387.588 -0.41649 4.1401 0
M  V30 3987 H 386.464 -0.989505 5.39907 0
M  V30 3988 H 386.725 -1.96373 3.96093 0
M  V30 3989 N 385.784 -1.5574 0.241426 0
M  V30 3990 C 386.747 -2.19877 -0.647063 0
M  V30 3991 C 387.747 -1.16642 -1.10686 0
M  V30 3992 O 388.937 -1.41757 -1.01245 0
M  V30 3993 C 386.069 -2.83797 -1.88871 0
M  V30 3994 H 387.262 -2.99772 -0.087574 0
M  V30 3995 H 384.815 -1.56298 -0.00813574 0
M  V30 3996 H 385.55 -2.07824 -2.48957 0
M  V30 3997 H 385.335 -3.59414 -1.56728 0
M  V30 3998 H 386.825 -3.32898 -2.52129 0
M  V30 3999 N 387.262 0.0317525 -1.57568 0
M  V30 4000 C 388.192 1.03274 -2.0942 0
M  V30 4001 C 389.173 1.3788 -0.996143 0
M  V30 4002 O 390.358 1.46811 -1.27122 0
M  V30 4003 C 387.488 2.33448 -2.57137 0
M  V30 4004 C 386.442 2.13091 -3.71182 0
M  V30 4005 C 385.768 3.49001 -4.05095 0
M  V30 4006 C 387.068 1.51928 -4.99715 0
M  V30 4007 H 388.762 0.60112 -2.93303 0
M  V30 4008 H 386.308 0.287705 -1.41097 0
M  V30 4009 H 388.261 3.03802 -2.92032 0
M  V30 4010 H 386.985 2.78665 -1.70333 0
M  V30 4011 H 385.644 1.45171 -3.36632 0
M  V30 4012 H 385.292 3.91862 -3.15362 0
M  V30 4013 H 384.992 3.36207 -4.81911 0
M  V30 4014 H 386.516 4.20721 -4.42522 0
M  V30 4015 H 387.93 2.12196 -5.32584 0
M  V30 4016 H 386.327 1.49716 -5.81124 0
M  V30 4017 H 387.397 0.484811 -4.8247 0
M  V30 4018 N 388.74 1.54641 0.303973 0
M  V30 4019 C 389.65 1.88439 1.39743 0
M  V30 4020 C 390.666 0.778239 1.55626 0
M  V30 4021 O 391.842 1.07442 1.70347 0
M  V30 4022 C 388.907 2.12212 2.74166 0
M  V30 4023 C 387.968 3.35936 2.67293 0
M  V30 4024 C 387.201 3.58566 3.95305 0
M  V30 4025 O 387.424 2.84263 4.9452 0
M  V30 4026 O 386.358 4.52078 3.97378 0
M  V30 4027 H 390.184 2.81458 1.14083 0
M  V30 4028 H 387.769 1.40793 0.499768 0
M  V30 4029 H 389.651 2.29067 3.53704 0
M  V30 4030 H 388.326 1.22379 2.99675 0
M  V30 4031 H 387.233 3.24448 1.86237 0
M  V30 4032 H 388.566 4.2589 2.46736 0
M  V30 4033 N 390.218 -0.567019 1.47046 0
M  V30 4034 C 391.467 -1.32091 1.5243 0
M  V30 4035 C 391.78 -1.94704 0.187021 0
M  V30 4036 O 392.986 -2.7124 0.118771 0
M  V30 4037 C 391.442 -2.39479 2.68659 0
M  V30 4038 C 391.05 -1.831 4.08874 0
M  V30 4039 C 392.794 -3.16111 2.83327 0
M  V30 4040 C 390.701 -2.8821 5.16419 0
M  V30 4041 H 389.631 -0.496629 0.56734 0
M  V30 4042 H 392.282 -0.603354 1.73297 0
M  V30 4043 H 390.664 -3.14105 2.41152 0
M  V30 4044 H 391.838 -1.14913 4.46242 0
M  V30 4045 H 390.153 -1.19085 3.99008 0
M  V30 4046 H 392.75 -3.94585 3.60842 0
M  V30 4047 H 393.093 -3.69686 1.91411 0
M  V30 4048 H 393.626 -2.48595 3.10556 0
M  V30 4049 H 390.365 -2.39504 6.10179 0
M  V30 4050 H 389.885 -3.54839 4.8358 0
M  V30 4051 H 391.564 -3.51881 5.42945 0
M  V30 4052 N 391.696 -1.35014 -0.812953 0
M  V30 4053 C 392.643 -1.27412 -1.92444 0
M  V30 4054 C 393.613 -0.14733 -1.65445 0
M  V30 4055 O 394.798 -0.329974 -1.87925 0
M  V30 4056 C 391.938 -1.04558 -3.28879 0
M  V30 4057 C 391.051 -2.26101 -3.68106 0
M  V30 4058 C 390.186 -1.96449 -4.9354 0
M  V30 4059 C 389.225 -3.14081 -5.25376 0
M  V30 4060 N 388.362 -2.84246 -6.41988 0
M  V30 4061 H 393.202 -2.22463 -1.98278 0
M  V30 4062 H 390.739 -1.10593 -0.969933 0
M  V30 4063 H 392.697 -0.893413 -4.07522 0
M  V30 4064 H 391.327 -0.131719 -3.22531 0
M  V30 4065 H 390.379 -2.52204 -2.84775 0
M  V30 4066 H 391.691 -3.13959 -3.87597 0
M  V30 4067 H 390.845 -1.78026 -5.79993 0
M  V30 4068 H 389.584 -1.05867 -4.76071 0
M  V30 4069 H 388.589 -3.33089 -4.37415 0
M  V30 4070 H 389.814 -4.05455 -5.44778 0
M  V30 4071 H 387.76 -1.96252 -6.25956 0
M  V30 4072 H 387.677 -3.65637 -6.61699 0
M  V30 4073 H 388.945 -2.6935 -7.31485 0
M  V30 4074 N 393.175 1.03435 -1.18907 0
M  V30 4075 C 394.122 2.11591 -0.921837 0
M  V30 4076 C 395.092 1.65499 0.141226 0
M  V30 4077 O 396.277 1.908 0.000242829 0
M  V30 4078 C 393.417 3.42012 -0.460616 0
M  V30 4079 C 392.53 4.01682 -1.58982 0
M  V30 4080 C 391.665 5.20091 -1.08069 0
M  V30 4081 C 390.704 5.71805 -2.18416 0
M  V30 4082 N 389.841 6.81494 -1.68849 0
M  V30 4083 H 394.681 2.33787 -1.8479 0
M  V30 4084 H 392.218 1.1467 -0.921373 0
M  V30 4085 H 394.176 4.16834 -0.174642 0
M  V30 4086 H 392.806 3.19944 0.428467 0
M  V30 4087 H 391.858 3.24127 -1.99113 0
M  V30 4088 H 393.17 4.36084 -2.4214 0
M  V30 4089 H 392.324 6.02051 -0.749615 0
M  V30 4090 H 391.063 4.87209 -0.218771 0
M  V30 4091 H 390.068 4.88461 -2.5236 0
M  V30 4092 H 391.293 6.06728 -3.05054 0
M  V30 4093 H 389.239 6.50475 -0.849572 0
M  V30 4094 H 389.156 7.14994 -2.45601 0
M  V30 4095 H 390.424 7.67063 -1.38689 0
M  V30 4096 N 394.653 0.992116 1.22453 0
M  V30 4097 C 395.616 0.546883 2.2258 0
M  V30 4098 C 396.616 -0.369829 1.56489 0
M  V30 4099 O 397.806 -0.161896 1.73446 0
M  V30 4100 C 394.938 -0.204659 3.40285 0
M  V30 4101 H 396.131 1.43234 2.63484 0
M  V30 4102 H 393.684 0.779239 1.3549 0
M  V30 4103 H 394.419 -1.10614 3.04853 0
M  V30 4104 H 394.204 0.45354 3.89468 0
M  V30 4105 H 395.694 -0.504358 4.14543 0
M  V30 4106 N 396.131 -1.37776 0.765217 0
M  V30 4107 C 397.094 -2.28686 0.153416 0
M  V30 4108 C 398.094 -1.47727 -0.635081 0
M  V30 4109 O 399.284 -1.68027 -0.459632 0
M  V30 4110 C 396.416 -3.31608 -0.790495 0
M  V30 4111 H 397.609 -2.84297 0.954723 0
M  V30 4112 H 395.162 -1.46932 0.53299 0
M  V30 4113 H 395.897 -2.81109 -1.61705 0
M  V30 4114 H 395.682 -3.9144 -0.227348 0
M  V30 4115 H 397.172 -3.99559 -1.21419 0
M  V30 4116 N 397.609 -0.515225 -1.4894 0
M  V30 4117 C 398.519 0.259774 -2.33157 0
M  V30 4118 C 399.535 0.953501 -1.45548 0
M  V30 4119 O 400.711 0.931735 -1.78552 0
M  V30 4120 C 397.776 1.30193 -3.21326 0
M  V30 4121 C 396.837 0.620129 -4.24797 0
M  V30 4122 C 396.07 1.61263 -5.08753 0
M  V30 4123 O 396.293 2.84389 -4.94448 0
M  V30 4124 O 395.227 1.16013 -5.90614 0
M  V30 4125 H 399.053 -0.429932 -3.00641 0
M  V30 4126 H 396.638 -0.276346 -1.46822 0
M  V30 4127 H 398.52 1.90455 -3.75905 0
M  V30 4128 H 397.195 1.97431 -2.56521 0
M  V30 4129 H 396.102 -0.0226019 -3.74093 0
M  V30 4130 H 397.435 -0.0100493 -4.92199 0
M  V30 4131 N 399.087 1.5561 -0.249682 0
M  V30 4132 C 400.335 1.98618 0.373548 0
M  V30 4133 C 400.656 1.13919 1.58264 0
M  V30 4134 O 399.926 0.222637 1.94631 0
M  V30 4135 H 398.506 0.733571 0.141006 0
M  V30 4136 H 401.168 1.91748 -0.349117 0
M  V30 4137 H 400.264 3.04584 0.680796 0
M  V30 4138 N 400.565 -0.0233959 1.57583 0
M  V30 4139 C 401.976 -0.56927 1.77809 0
M  V30 4140 C 402.327 -1.75284 0.881472 0
M  V30 4141 O 401.452 -2.1626 0.0777805 0
M  V30 4142 C 402.047 -1.03949 3.22459 0
M  V30 4143 C 400.606 -1.53084 3.43864 0
M  V30 4144 C 399.753 -0.471454 2.73263 0
M  V30 4145 H 402.704 0.202825 1.57399 0
M  V30 4146 H 402.725 -1.90661 3.29285 0
M  V30 4147 H 402.237 -0.177865 3.87692 0
M  V30 4148 H 400.338 -2.41414 2.83814 0
M  V30 4149 H 400.451 -1.57443 4.52491 0
M  V30 4150 H 398.815 -0.927788 2.37201 0
M  V30 4151 H 399.598 0.380808 3.41181 0
M  V30 4152 N 402.043 -1.548 -0.295768 0
M  V30 4153 C 402.973 -1.89115 -1.36959 0
M  V30 4154 C 403.954 -0.75059 -1.52644 0
M  V30 4155 O 405.139 -1.00678 -1.66065 0
M  V30 4156 C 402.269 -2.14307 -2.73295 0
M  V30 4157 C 401.223 -3.30151 -2.72368 0
M  V30 4158 C 400.549 -3.40772 -4.12042 0
M  V30 4159 C 401.849 -4.67126 -2.33646 0
M  V30 4160 H 403.543 -2.79053 -1.08488 0
M  V30 4161 H 401.089 -1.34266 -0.520443 0
M  V30 4162 H 403.042 -2.36898 -3.48507 0
M  V30 4163 H 401.766 -1.21145 -3.03301 0
M  V30 4164 H 400.425 -3.0749 -1.99613 0
M  V30 4165 H 400.073 -2.45117 -4.39234 0
M  V30 4166 H 399.773 -4.18645 -4.12322 0
M  V30 4167 H 401.297 -3.6563 -4.89027 0
M  V30 4168 H 402.711 -4.89414 -2.98575 0
M  V30 4169 H 401.108 -5.47751 -2.45129 0
M  V30 4170 H 402.178 -4.67489 -1.28772 0
M  V30 4171 N 403.521 0.559213 -1.47345 0
M  V30 4172 C 404.468 1.66645 -1.59682 0
M  V30 4173 C 405.438 1.60168 -0.43994 0
M  V30 4174 O 406.623 1.79031 -0.659736 0
M  V30 4175 C 403.763 3.04969 -1.61518 0
M  V30 4176 C 402.876 3.21897 -2.88108 0
M  V30 4177 C 402.011 4.50608 -2.81294 0
M  V30 4178 C 401.05 4.60961 -4.02717 0
M  V30 4179 N 400.187 5.81024 -3.94151 0
M  V30 4180 H 405.027 1.55439 -2.54249 0
M  V30 4181 H 402.564 0.757219 -1.26113 0
M  V30 4182 H 404.522 3.85064 -1.60566 0
M  V30 4183 H 403.152 3.15015 -0.704645 0
M  V30 4184 H 402.204 2.35248 -2.98936 0
M  V30 4185 H 403.516 3.25412 -3.78032 0
M  V30 4186 H 402.67 5.3896 -2.7858 0
M  V30 4187 H 401.409 4.49568 -1.89049 0
M  V30 4188 H 400.414 3.71021 -4.05738 0
M  V30 4189 H 401.639 4.63761 -4.96087 0
M  V30 4190 H 399.585 5.80938 -3.04708 0
M  V30 4191 H 399.502 5.85909 -4.77752 0
M  V30 4192 H 400.77 6.71744 -3.9545 0
M  V30 4193 N 404.999 1.35443 0.805782 0
M  V30 4194 C 406.247 1.28507 1.55982 0
M  V30 4195 C 406.568 -0.140046 1.94496 0
M  V30 4196 O 405.838 -1.07666 1.63661 0
M  V30 4197 H 404.418 0.472676 0.578434 0
M  V30 4198 H 407.08 1.69555 0.961098 0
M  V30 4199 H 406.176 1.90148 2.47488 0
M  V30 4200 N 406.477 -1.02803 1.19454 0
M  V30 4201 C 407.726 -1.7562 0.991996 0
M  V30 4202 C 408.039 -1.89672 -0.477901 0
M  V30 4203 O 409.245 -2.59468 -0.799287 0
M  V30 4204 C 407.701 -3.15812 1.72601 0
M  V30 4205 C 407.309 -3.0981 3.23607 0
M  V30 4206 C 409.053 -3.92918 1.60674 0
M  V30 4207 C 406.96 -4.44939 3.89594 0
M  V30 4208 H 405.89 -0.658352 0.367543 0
M  V30 4209 H 408.541 -1.15044 1.42959 0
M  V30 4210 H 406.923 -3.7686 1.21624 0
M  V30 4211 H 408.097 -2.58138 3.81709 0
M  V30 4212 H 406.412 -2.46201 3.35819 0
M  V30 4213 H 409.009 -4.9287 2.07323 0
M  V30 4214 H 409.352 -4.12502 0.561025 0
M  V30 4215 H 409.885 -3.38472 2.09001 0
M  V30 4216 H 406.624 -4.30559 4.94267 0
M  V30 4217 H 406.144 -4.96664 3.36281 0
M  V30 4218 H 407.823 -5.1382 3.93189 0
M  V30 4219 N 407.956 -0.998596 -1.21925 0
M  V30 4220 C 408.886 -0.573688 -2.26343 0
M  V30 4221 C 409.867 0.402296 -1.65274 0
M  V30 4222 O 411.052 0.291683 -1.91997 0
M  V30 4223 C 408.182 0.106839 -3.47136 0
M  V30 4224 C 407.136 -0.788269 -4.20678 0
M  V30 4225 C 406.462 0.0254927 -5.34694 0
M  V30 4226 C 407.762 -2.08784 -4.78755 0
M  V30 4227 H 409.456 -1.44651 -2.62138 0
M  V30 4228 H 407.002 -0.696975 -1.26009 0
M  V30 4229 H 408.955 0.415531 -4.19346 0
M  V30 4230 H 407.679 1.01424 -3.10452 0
M  V30 4231 H 406.338 -1.08069 -3.50309 0
M  V30 4232 H 405.986 0.933989 -4.94253 0
M  V30 4233 H 405.686 -0.570437 -5.84825 0
M  V30 4234 H 407.21 0.328147 -6.09718 0
M  V30 4235 H 408.624 -1.84272 -5.42878 0
M  V30 4236 H 407.021 -2.63307 -5.39249 0
M  V30 4237 H 408.091 -2.76284 -3.98491 0
M  V30 4238 N 409.434 1.37368 -0.772513 0
M  V30 4239 C 410.682 1.99279 -0.336516 0
M  V30 4240 C 411.003 1.6163 1.09091 0
M  V30 4241 O 410.273 0.882109 1.74916 0
M  V30 4242 H 408.853 0.737063 -0.121435 0
M  V30 4243 H 411.515 1.67836 -0.990809 0
M  V30 4244 H 410.611 3.09332 -0.414763 0
M  V30 4245 N 410.912 0.523116 1.48665 0
M  V30 4246 C 412.142 -0.00961724 2.06598 0
M  V30 4247 C 412.55 -1.29333 1.38093 0
M  V30 4248 O 411.893 -1.77846 0.46007 0
M  V30 4249 C 411.955 -0.311135 3.58151 0
M  V30 4250 C 411.619 0.878092 4.48485 0
M  V30 4251 C 412.616 1.77464 4.88674 0
M  V30 4252 C 410.301 1.08315 4.90483 0
M  V30 4253 C 412.295 2.86021 5.69623 0
M  V30 4254 C 409.982 2.17187 5.71203 0
M  V30 4255 C 410.98 3.05873 6.10681 0
M  V30 4256 O 410.668 4.12862 6.89783 0
M  V30 4257 H 410.4 0.0272658 0.67545 0
M  V30 4258 H 412.954 0.726156 1.92136 0
M  V30 4259 H 411.184 -1.10079 3.70701 0
M  V30 4260 H 412.873 -0.785125 3.98234 0
M  V30 4261 H 413.639 1.62813 4.56855 0
M  V30 4262 H 409.518 0.402149 4.59243 0
M  V30 4263 H 413.062 3.55272 6.00356 0
M  V30 4264 H 408.959 2.31824 6.02435 0
M  V30 4265 H 409.727 4.10487 7.08126 0
M  V30 4266 N 412.39 -1.55475 0.257931 0
M  V30 4267 C 413.618 -2.03609 -0.367559 0
M  V30 4268 C 414.033 -1.13687 -1.50734 0
M  V30 4269 O 413.39 -0.153479 -1.81853 0
M  V30 4270 C 413.441 -3.51001 -0.864908 0
M  V30 4271 O 413.162 -4.37499 0.229465 0
M  V30 4272 C 414.663 -4.14946 -1.55997 0
M  V30 4273 H 411.883 -0.665459 -0.0860521 0
M  V30 4274 H 414.427 -2.00843 0.385014 0
M  V30 4275 H 412.582 -3.54266 -1.56762 0
M  V30 4276 H 412.996 -5.24286 -0.14998 0
M  V30 4277 H 414.47 -5.19735 -1.85956 0
M  V30 4278 H 414.947 -3.6209 -2.4857 0
M  V30 4279 H 415.553 -4.15635 -0.901543 0
M  V30 4280 N 413.868 0.0150385 -1.57593 0
M  V30 4281 C 414.778 1.02791 -2.10882 0
M  V30 4282 C 415.794 1.38702 -1.0506 0
M  V30 4283 O 416.97 1.47739 -1.36877 0
M  V30 4284 C 414.035 2.30568 -2.58919 0
M  V30 4285 C 413.096 2.01108 -3.79281 0
M  V30 4286 C 412.329 3.22794 -4.25018 0
M  V30 4287 O 412.552 4.33959 -3.70183 0
M  V30 4288 O 411.486 3.07672 -5.17322 0
M  V30 4289 H 415.312 0.604973 -2.97613 0
M  V30 4290 H 412.897 0.23292 -1.47573 0
M  V30 4291 H 414.779 3.05662 -2.90084 0
M  V30 4292 H 413.454 2.72129 -1.75293 0
M  V30 4293 H 412.361 1.23537 -3.53114 0
M  V30 4294 H 413.694 1.64394 -4.63935 0
M  V30 4295 N 415.346 1.54954 0.287554 0
M  V30 4296 C 416.623 1.65569 1.04146 0
M  V30 4297 C 417.003 0.512672 2.0478 0
M  V30 4298 O 416.351 -0.489038 2.23205 0
M  V30 4299 C 416.561 3.04163 1.71131 0
M  V30 4300 C 417.909 3.61429 2.22832 0
M  V30 4301 O 418.933 3.06702 1.81141 0
M  V30 4302 O 417.792 4.57281 2.9926 0
M  V30 4303 H 414.886 0.671881 0.482188 0
M  V30 4304 H 417.432 1.67297 0.28457 0
M  V30 4305 H 416.204 3.78796 0.981303 0
M  V30 4306 H 415.827 3.06271 2.53543 0
M  V30 4307 N 416.824 -0.551391 1.4764 0
M  V30 4308 C 417.734 -1.68525 1.63207 0
M  V30 4309 C 418.75 -1.6621 0.514815 0
M  V30 4310 O 419.926 -1.85551 0.783113 0
M  V30 4311 C 416.991 -3.05025 1.64805 0
M  V30 4312 C 416.052 -3.18362 2.88 0
M  V30 4313 C 415.285 -4.4835 2.89513 0
M  V30 4314 O 415.508 -5.34163 2.00065 0
M  V30 4315 O 414.442 -4.65602 3.81443 0
M  V30 4316 H 418.268 -1.58333 2.59161 0
M  V30 4317 H 415.853 -0.722063 1.30792 0
M  V30 4318 H 417.735 -3.86245 1.68502 0
M  V30 4319 H 416.41 -3.15587 0.720197 0
M  V30 4320 H 415.317 -2.36518 2.89845 0
M  V30 4321 H 416.65 -3.12707 3.80099 0
M  V30 4322 N 418.302 -1.35869 -0.798587 0
M  V30 4323 C 419.548 -1.2978 -1.55836 0
M  V30 4324 C 419.881 0.125322 -1.93795 0
M  V30 4325 O 419.156 1.07658 -1.61987 0
M  V30 4326 C 419.439 -2.21188 -2.84162 0
M  V30 4327 C 419.292 -3.72155 -2.52628 0
M  V30 4328 C 420.611 -2.11545 -3.85923 0
M  V30 4329 H 417.73 -0.472769 -0.565383 0
M  V30 4330 H 420.372 -1.66341 -0.918192 0
M  V30 4331 H 418.522 -1.90139 -3.38791 0
M  V30 4332 H 420.194 -4.13682 -2.04121 0
M  V30 4333 H 418.437 -3.92042 -1.85704 0
M  V30 4334 H 419.108 -4.31511 -3.44242 0
M  V30 4335 H 421.584 -2.38855 -3.40716 0
M  V30 4336 H 420.46 -2.77688 -4.73477 0
M  V30 4337 H 420.721 -1.09987 -4.282 0
M  V30 4338 N 419.78 1.02168 -1.19998 0
M  V30 4339 C 421.026 1.75945 -1.00852 0
M  V30 4340 C 421.359 1.88702 0.458828 0
M  V30 4341 O 420.634 1.40911 1.34069 0
M  V30 4342 C 420.917 3.18154 -1.68671 0
M  V30 4343 C 420.77 3.13224 -3.22817 0
M  V30 4344 C 422.089 4.16711 -1.41561 0
M  V30 4345 H 419.208 0.638673 -0.367785 0
M  V30 4346 H 421.85 1.19222 -1.4794 0
M  V30 4347 H 420 3.66586 -1.28636 0
M  V30 4348 H 421.672 2.72635 -3.72112 0
M  V30 4349 H 419.915 2.50751 -3.53986 0
M  V30 4350 H 420.586 4.13728 -3.65422 0
M  V30 4351 H 423.062 3.76913 -1.76284 0
M  V30 4352 H 421.938 5.14391 -1.91553 0
M  V30 4353 H 422.199 4.40774 -0.342193 0
M  V30 4354 N 421.258 1.00505 1.21394 0
M  V30 4355 C 422.483 0.706367 1.95001 0
M  V30 4356 C 422.908 -0.72463 1.73582 0
M  V30 4357 O 422.266 -1.49702 1.0227 0
M  V30 4358 C 422.314 1.03299 3.45487 0
M  V30 4359 O 421.418 0.138275 4.12168 0
M  V30 4360 H 420.759 0.263175 0.609619 0
M  V30 4361 H 423.289 1.34531 1.54151 0
M  V30 4362 H 423.299 0.979872 3.96059 0
M  V30 4363 H 421.974 2.07567 3.60401 0
M  V30 4364 H 420.551 0.247928 3.72075 0
M  V30 4365 N 422.737 -1.36956 0.779787 0
M  V30 4366 C 423.669 -2.28833 0.129639 0
M  V30 4367 C 424.682 -1.4902 -0.655511 0
M  V30 4368 O 425.871 -1.71578 -0.492279 0
M  V30 4369 C 422.971 -3.2833 -0.839792 0
M  V30 4370 C 422.144 -4.3727 -0.10675 0
M  V30 4371 C 421.203 -5.16789 -0.990717 0
M  V30 4372 O 420.229 -5.67406 -0.451516 0
M  V30 4373 N 421.431 -5.32294 -2.3161 0
M  V30 4374 H 424.196 -2.85268 0.918803 0
M  V30 4375 H 421.757 -1.49019 0.632841 0
M  V30 4376 H 423.749 -3.78413 -1.43477 0
M  V30 4377 H 422.319 -2.72605 -1.52988 0
M  V30 4378 H 421.539 -3.88478 0.669216 0
M  V30 4379 H 422.827 -5.07229 0.399464 0
M  V30 4380 H 422.225 -4.92768 -2.77843 0
M  V30 4381 H 420.782 -5.85656 -2.86095 0
M  V30 4382 N 424.215 -0.530993 -1.48385 0
M  V30 4383 C 425.492 0.0671788 -1.95485 0
M  V30 4384 C 425.872 1.51191 -1.47324 0
M  V30 4385 O 425.22 2.17507 -0.700202 0
M  V30 4386 C 425.43 -0.0511206 -3.48963 0
M  V30 4387 C 426.778 0.107632 -4.24464 0
M  V30 4388 O 427.802 0.0226248 -3.56193 0
M  V30 4389 O 426.661 0.285972 -5.45751 0
M  V30 4390 H 423.755 0.0787365 -0.823243 0
M  V30 4391 H 426.301 -0.595662 -1.58902 0
M  V30 4392 H 425.073 -1.05747 -3.7674 0
M  V30 4393 H 424.696 0.650525 -3.92242 0
M  V30 4394 N 425.693 1.55336 -0.266172 0
M  V30 4395 C 426.94 1.99397 0.353158 0
M  V30 4396 C 427.268 1.15451 1.56529 0
M  V30 4397 O 426.523 0.209974 1.9457 0
M  V30 4398 C 426.822 3.48606 0.787957 0
M  V30 4399 C 426.488 4.49773 -0.318541 0
M  V30 4400 C 425.15 4.77158 -0.62239 0
M  V30 4401 C 427.502 5.10212 -1.06459 0
M  V30 4402 C 424.83 5.62251 -1.67602 0
M  V30 4403 C 427.182 5.96449 -2.10788 0
M  V30 4404 C 425.846 6.22158 -2.41817 0
M  V30 4405 H 425.116 0.729644 0.12923 0
M  V30 4406 H 427.763 1.87732 -0.37802 0
M  V30 4407 H 426.068 3.57701 1.59866 0
M  V30 4408 H 427.765 3.80098 1.27775 0
M  V30 4409 H 424.355 4.2854 -0.0715925 0
M  V30 4410 H 428.539 4.89086 -0.843098 0
M  V30 4411 H 423.795 5.80419 -1.92155 0
M  V30 4412 H 427.969 6.42317 -2.69076 0
M  V30 4413 H 425.596 6.87888 -3.23596 0
M  V30 4414 N 427.171 -0.0066808 1.57599 0
M  V30 4415 C 428.417 -0.693947 1.90558 0
M  V30 4416 C 428.75 -1.73792 0.866594 0
M  V30 4417 O 428.025 -1.94156 -0.115548 0
M  V30 4418 C 428.308 -1.34317 3.34112 0
M  V30 4419 C 428.161 -0.311189 4.48722 0
M  V30 4420 C 429.48 -2.27116 3.7697 0
M  V30 4421 H 426.599 -0.250803 0.693013 0
M  V30 4422 H 429.241 0.043242 1.89951 0
M  V30 4423 H 427.391 -1.9715 3.3476 0
M  V30 4424 H 429.063 0.316944 4.6021 0
M  V30 4425 H 427.306 0.367253 4.32243 0
M  V30 4426 H 427.977 -0.804366 5.46108 0
M  V30 4427 H 430.453 -1.74306 3.77831 0
M  V30 4428 H 429.329 -2.69511 4.78179 0
M  V30 4429 H 429.59 -3.14743 3.10466 0
M  V30 4430 N 428.649 -1.55105 -0.279332 0
M  V30 4431 C 429.599 -1.83937 -1.34727 0
M  V30 4432 C 430.583 -0.69785 -1.44979 0
M  V30 4433 O 431.775 -0.95904 -1.48766 0
M  V30 4434 C 428.904 -2.1092 -2.70864 0
M  V30 4435 C 427.99 -3.31314 -2.64748 0
M  V30 4436 N 428.381 -4.51371 -2.2825 0
M  V30 4437 C 426.679 -3.33777 -2.95819 0
M  V30 4438 C 427.38 -5.33447 -2.31969 0
M  V30 4439 N 426.356 -4.71697 -2.7019 0
M  V30 4440 H 430.158 -2.74309 -1.05506 0
M  V30 4441 H 427.672 -1.54896 -0.487959 0
M  V30 4442 H 429.669 -2.2973 -3.47893 0
M  V30 4443 H 428.329 -1.21828 -3.00979 0
M  V30 4444 H 429.34 -4.77584 -2.00335 0
M  V30 4445 H 426.017 -2.54858 -3.30687 0
M  V30 4446 H 427.407 -6.39424 -2.06365 0
M  V30 4447 N 430.127 0.543554 -1.4793 0
M  V30 4448 C 431.404 1.30458 -1.4574 0
M  V30 4449 C 431.784 2.1048 -0.161692 0
M  V30 4450 O 431.132 2.11831 0.856734 0
M  V30 4451 C 431.342 2.19754 -2.71126 0
M  V30 4452 C 432.69 2.80334 -3.18901 0
M  V30 4453 O 433.714 2.30049 -2.71948 0
M  V30 4454 O 432.573 3.71766 -4.00565 0
M  V30 4455 H 429.667 0.588117 -0.581418 0
M  V30 4456 H 432.213 0.561328 -1.60147 0
M  V30 4457 H 430.985 1.60316 -3.56952 0
M  V30 4458 H 430.608 3.01351 -2.59371 0
M  V30 4459 N 431.605 1.3629 0.791371 0
M  V30 4460 C 432.553 1.30514 1.92533 0
M  V30 4461 C 433.547 0.197285 1.68247 0
M  V30 4462 O 434.753 0.364176 1.76278 0
M  V30 4463 H 431.128 0.406263 0.632815 0
M  V30 4464 H 433.099 2.26282 1.94523 0
M  V30 4465 C 431.848 1.10933 3.29529 0
M  V30 4466 H 431.171 1.95427 3.48781 0
M  V30 4467 H 432.611 1.10937 4.0923 0
M  V30 4468 C 431.07 -0.186123 3.36385 0
M  V30 4469 O 431.6 -1.17664 3.84081 0
M  V30 4470 N 429.806 -0.230128 2.89687 0
M  V30 4471 H 429.353 0.576545 2.51065 0
M  V30 4472 H 429.311 -1.09658 2.94657 0
M  V30 4473 N 433.083 -1.0153 1.20538 0
M  V30 4474 C 434.499 -1.27461 0.96051 0
M  V30 4475 C 434.699 -1.98273 -0.359193 0
M  V30 4476 O 433.755 -2.27886 -1.0874 0
M  V30 4477 C 435.068 -2.10837 2.14402 0
M  V30 4478 C 436.616 -2.24099 2.18515 0
M  V30 4479 C 437.091 -3.10852 3.36355 0
M  V30 4480 N 438.582 -3.18441 3.36377 0
M  V30 4481 C 439.317 -3.85795 4.24205 0
M  V30 4482 N 438.813 -4.55264 5.22213 0
M  V30 4483 N 440.606 -3.82331 4.12043 0
M  V30 4484 H 432.757 -0.539907 2.05423 0
M  V30 4485 H 435.02 -0.30092 0.898972 0
M  V30 4486 H 434.726 -1.66144 3.09983 0
M  V30 4487 H 434.6 -3.11576 2.12604 0
M  V30 4488 H 436.987 -2.68016 1.23497 0
M  V30 4489 H 437.068 -1.22865 2.24361 0
M  V30 4490 H 436.712 -2.6764 4.31661 0
M  V30 4491 H 436.642 -4.12177 3.27746 0
M  V30 4492 H 439.133 -2.68978 2.65442 0
M  V30 4493 H 439.446 -5.04331 5.85551 0
M  V30 4494 H 437.791 -4.54085 5.26148 0
M  V30 4495 H 440.982 -3.27207 3.34743 0
M  V30 4496 H 441.155 -4.34547 4.807 0
M  V30 4497 N 434.561 -1.01147 -1.20859 0
M  V30 4498 C 435.786 -0.716698 -1.94623 0
M  V30 4499 C 436.211 0.715415 -1.73964 0
M  V30 4500 O 435.569 1.49157 -1.03062 0
M  V30 4501 C 435.617 -1.0513 -3.44935 0
M  V30 4502 O 434.721 -0.160131 -4.12089 0
M  V30 4503 H 434.062 -0.266404 -0.608214 0
M  V30 4504 H 436.592 -1.35346 -1.53436 0
M  V30 4505 H 436.602 -1.00086 -3.95533 0
M  V30 4506 H 435.277 -2.09475 -3.59295 0
M  V30 4507 H 433.854 -0.267657 -3.71938 0
M  V30 4508 N 436.039 1.36541 -0.78704 0
M  V30 4509 C 437.264 2.0409 -0.369053 0
M  V30 4510 C 437.689 1.58957 1.00569 0
M  V30 4511 O 437.047 0.756926 1.64743 0
M  V30 4512 C 437.095 3.57924 -0.438466 0
M  V30 4513 O 436.199 4.08642 0.555479 0
M  V30 4514 H 435.54 0.645142 -0.157122 0
M  V30 4515 H 438.07 1.74545 -1.06749 0
M  V30 4516 H 438.08 4.06887 -0.301218 0
M  V30 4517 H 436.755 3.90127 -1.44132 0
M  V30 4518 H 435.332 3.70958 0.380088 0
M  V30 4519 N 437.518 0.538854 1.48102 0
M  V30 4520 C 438.767 0.0059532 2.01699 0
M  V30 4521 C 439.08 -1.34476 1.42041 0
M  V30 4522 O 440.286 -1.96653 1.87189 0
M  V30 4523 C 438.742 -0.0397627 3.59878 0
M  V30 4524 C 438.35 1.30659 4.28523 0
M  V30 4525 C 440.094 -0.521024 4.2129 0
M  V30 4526 C 438.001 1.22098 5.78659 0
M  V30 4527 H 436.931 -0.00154456 0.753998 0
M  V30 4528 H 439.582 0.683963 1.70277 0
M  V30 4529 H 437.964 -0.783037 3.88181 0
M  V30 4530 H 439.138 2.06613 4.11883 0
M  V30 4531 H 437.453 1.7243 3.79021 0
M  V30 4532 H 440.05 -0.603184 5.31287 0
M  V30 4533 H 440.393 -1.52885 3.8721 0
M  V30 4534 H 440.926 0.166834 3.9745 0
M  V30 4535 H 437.665 2.20424 6.17328 0
M  V30 4536 H 437.185 0.50295 5.97688 0
M  V30 4537 H 438.864 0.915345 6.40492 0
M  V30 4538 N 438.996 -1.55193 0.274407 0
M  V30 4539 C 440.243 -1.99581 -0.342579 0
M  V30 4540 C 440.571 -1.1628 -1.55914 0
M  V30 4541 O 439.826 -0.22029 -1.94456 0
M  V30 4542 C 440.125 -3.49019 -0.769458 0
M  V30 4543 C 439.791 -4.49598 0.342389 0
M  V30 4544 C 438.453 -4.76821 0.647686 0
M  V30 4545 C 440.805 -5.0964 1.09163 0
M  V30 4546 C 438.133 -5.61354 1.70581 0
M  V30 4547 C 440.485 -5.95323 2.13948 0
M  V30 4548 C 439.149 -6.20867 2.45113 0
M  V30 4549 H 438.419 -0.730319 -0.125358 0
M  V30 4550 H 441.066 -1.87529 0.387971 0
M  V30 4551 H 439.371 -3.58544 -1.57967 0
M  V30 4552 H 441.068 -3.8077 -1.25757 0
M  V30 4553 H 437.658 -4.28496 0.094318 0
M  V30 4554 H 441.842 -4.88632 0.869024 0
M  V30 4555 H 437.098 -5.79392 1.9523 0
M  V30 4556 H 441.272 -6.40881 2.72478 0
M  V30 4557 H 438.899 -6.86162 3.27239 0
M  V30 4558 N 440.474 -0.00167713 -1.576 0
M  V30 4559 C 441.751 0.719951 -1.81868 0
M  V30 4560 C 442.131 1.91895 -0.879747 0
M  V30 4561 O 441.479 2.28389 0.0711423 0
M  V30 4562 C 441.689 1.12409 -3.30402 0
M  V30 4563 C 443.037 1.52724 -3.96182 0
M  V30 4564 O 444.061 1.21784 -3.34734 0
M  V30 4565 O 442.92 2.10265 -5.04431 0
M  V30 4566 H 440.014 0.350707 -0.748955 0
M  V30 4567 H 442.56 -0.0272597 -1.69678 0
M  V30 4568 H 441.332 0.269532 -3.90371 0
M  V30 4569 H 440.955 1.93035 -3.47596 0
M  V30 4570 N 441.952 1.55251 0.271103 0
M  V30 4571 C 442.885 1.83191 1.36075 0
M  V30 4572 C 443.863 0.685091 1.47463 0
M  V30 4573 O 445.047 0.928292 1.64058 0
M  V30 4574 C 442.174 1.99521 2.73696 0
M  V30 4575 C 441.22 3.22081 2.79582 0
M  V30 4576 S 442.053 4.79388 2.38636 0
M  V30 4577 C 443.209 4.98693 3.78228 0
M  V30 4578 H 443.442 2.75327 1.12171 0
M  V30 4579 H 440.975 1.47046 0.470833 0
M  V30 4580 H 442.933 2.09613 3.52948 0
M  V30 4581 H 441.594 1.0827 2.9485 0
M  V30 4582 H 440.787 3.304 3.80594 0
M  V30 4583 H 440.389 3.10589 2.08352 0
M  V30 4584 H 442.681 4.84551 4.73515 0
M  V30 4585 H 443.624 6.00738 3.7486 0
M  V30 4586 H 444.032 4.26665 3.69618 0
M  V30 4587 N 443.43 -0.535701 1.48216 0
M  V30 4588 C 444.377 -1.64083 1.62312 0
M  V30 4589 C 445.347 -1.59448 0.465365 0
M  V30 4590 O 446.532 -1.77959 0.688135 0
M  V30 4591 C 443.672 -3.0236 1.66349 0
M  V30 4592 C 442.785 -3.17273 2.93193 0
M  V30 4593 C 441.92 -4.46075 2.88427 0
M  V30 4594 C 440.959 -4.54496 4.1 0
M  V30 4595 N 440.096 -5.7468 4.03345 0
M  V30 4596 H 444.936 -1.51374 2.5669 0
M  V30 4597 H 442.473 -0.737059 1.27302 0
M  V30 4598 H 444.431 -3.82461 1.66672 0
M  V30 4599 H 443.061 -3.13854 0.754672 0
M  V30 4600 H 442.113 -2.30462 3.02641 0
M  V30 4601 H 443.425 -3.19357 3.83162 0
M  V30 4602 H 442.579 -5.3446 2.87119 0
M  V30 4603 H 441.318 -4.46504 1.96177 0
M  V30 4604 H 440.323 -3.64519 4.11589 0
M  V30 4605 H 441.548 -4.5581 5.03402 0
M  V30 4606 H 439.494 -5.76017 3.13912 0
M  V30 4607 H 439.411 -5.78234 4.87013 0
M  V30 4608 H 440.679 -6.65367 4.06087 0
M  V30 4609 N 444.908 -1.36708 -0.784132 0
M  V30 4610 C 445.871 -1.31307 -1.87859 0
M  V30 4611 C 446.871 -0.219654 -1.59293 0
M  V30 4612 O 448.061 -0.47476 -1.67606 0
M  V30 4613 C 445.193 -1.03679 -3.24751 0
M  V30 4614 H 446.386 -2.28647 -1.94064 0
M  V30 4615 H 443.939 -1.21558 -0.98252 0
M  V30 4616 H 444.674 -0.0681936 -3.24228 0
M  V30 4617 H 444.459 -1.82811 -3.46876 0
M  V30 4618 H 445.949 -1.02518 -4.04821 0
M  V30 4619 N 446.386 1.0089 -1.21074 0
M  V30 4620 C 447.634 1.74262 -1.02358 0
M  V30 4621 C 447.955 1.89869 0.444393 0
M  V30 4622 O 447.225 1.44677 1.32081 0
M  V30 4623 H 445.805 0.645615 -0.375754 0
M  V30 4624 H 448.467 1.21596 -1.52317 0
M  V30 4625 H 447.563 2.74328 -1.4883 0
M  V30 4626 N 447.864 1.01787 1.20321 0
M  V30 4627 C 448.794 0.609625 2.25401 0
M  V30 4628 C 449.775 -0.375951 1.65893 0
M  V30 4629 O 450.96 -0.261101 1.92437 0
M  V30 4630 C 448.09 -0.0515995 3.47262 0
M  V30 4631 C 447.044 0.855095 4.19371 0
M  V30 4632 C 446.37 0.0595757 5.34667 0
M  V30 4633 C 447.67 2.16374 4.75373 0
M  V30 4634 H 449.364 1.48803 2.59804 0
M  V30 4635 H 446.91 0.716934 1.24884 0
M  V30 4636 H 448.863 -0.348764 4.19954 0
M  V30 4637 H 447.587 -0.964726 3.12027 0
M  V30 4638 H 446.246 1.13628 3.48546 0
M  V30 4639 H 445.894 -0.85524 4.95676 0
M  V30 4640 H 445.594 0.663406 5.83843 0
M  V30 4641 H 447.118 -0.231105 6.10162 0
M  V30 4642 H 448.532 1.92885 5.39878 0
M  V30 4643 H 446.929 2.71853 5.34991 0
M  V30 4644 H 447.999 2.82589 3.94045 0
M  V30 4645 N 449.342 -1.36122 0.79427 0
M  V30 4646 C 450.305 -2.28309 0.201889 0
M  V30 4647 C 451.305 -1.49041 -0.603603 0
M  V30 4648 O 452.495 -1.68964 -0.423888 0
M  V30 4649 C 449.627 -3.3321 -0.719978 0
M  V30 4650 H 450.82 -2.82208 1.01481 0
M  V30 4651 H 448.373 -1.45768 0.564037 0
M  V30 4652 H 449.108 -2.84475 -1.55706 0
M  V30 4653 H 448.893 -3.91835 -0.144266 0
M  V30 4654 H 450.383 -4.02044 -1.12916 0
M  V30 4655 N 450.82 -0.546701 -1.47814 0
M  V30 4656 C 451.75 0.195317 -2.32682 0
M  V30 4657 C 452.731 0.918981 -1.43139 0
M  V30 4658 O 453.916 0.901501 -1.72008 0
M  V30 4659 C 451.046 1.23237 -3.247 0
M  V30 4660 C 450 0.625818 -4.234 0
M  V30 4661 C 449.326 1.76674 -5.04669 0
M  V30 4662 C 450.626 -0.413515 -5.2066 0
M  V30 4663 H 452.32 -0.513184 -2.94969 0
M  V30 4664 H 449.866 -0.248241 -1.41844 0
M  V30 4665 H 451.819 1.75955 -3.82907 0
M  V30 4666 H 450.543 1.97067 -2.60446 0
M  V30 4667 H 449.202 0.120023 -3.66403 0
M  V30 4668 H 448.85 2.49383 -4.36826 0
M  V30 4669 H 448.55 1.36673 -5.71484 0
M  V30 4670 H 450.074 2.29738 -5.65732 0
M  V30 4671 H 451.488 0.0272042 -5.73294 0
M  V30 4672 H 449.885 -0.731825 -5.95621 0
M  V30 4673 H 450.955 -1.31325 -4.66778 0
M  V30 4674 N 452.299 1.55045 -0.282633 0
M  V30 4675 C 453.247 2.24254 0.617478 0
M  V30 4676 C 454.241 1.24215 1.15183 0
M  V30 4677 O 455.447 1.42123 1.10459 0
M  V30 4678 H 451.822 0.719801 0.217693 0
M  V30 4679 H 453.793 2.98398 0.0110076 0
M  V30 4680 C 452.542 2.98281 1.78672 0
M  V30 4681 H 451.865 3.75053 1.38475 0
M  V30 4682 H 453.305 3.50017 2.393 0
M  V30 4683 C 451.764 2.04184 2.67975 0
M  V30 4684 O 452.294 1.59792 3.6855 0
M  V30 4685 N 450.5 1.70526 2.35307 0
M  V30 4686 H 450.047 2.06821 1.53567 0
M  V30 4687 H 450.005 1.07839 2.95327 0
M  V30 4688 N 453.777 0.010035 1.57597 0
M  V30 4689 C 455.054 -0.710296 1.82248 0
M  V30 4690 C 455.434 -1.91426 0.889911 0
M  V30 4691 O 454.782 -2.28424 -0.0590292 0
M  V30 4692 C 454.992 -1.10655 3.30993 0
M  V30 4693 C 456.34 -1.50621 3.96987 0
M  V30 4694 O 457.364 -1.20007 3.35375 0
M  V30 4695 O 456.223 -2.07587 5.05539 0
M  V30 4696 H 453.317 -0.34673 0.750804 0
M  V30 4697 H 455.863 0.0362578 1.69661 0
M  V30 4698 H 454.635 -0.248826 3.90508 0
M  V30 4699 H 454.258 -1.91189 3.48615 0
M  V30 4700 N 455.255 -1.55392 -0.262866 0
M  V30 4701 C 456.203 -1.8977 -1.345 0
M  V30 4702 C 457.197 -0.775063 -1.50629 0
M  V30 4703 O 458.403 -0.959519 -1.52293 0
M  V30 4704 H 454.778 -0.602467 -0.450041 0
M  V30 4705 H 456.749 -2.80147 -1.02762 0
M  V30 4706 C 455.498 -2.19501 -2.69657 0
M  V30 4707 H 454.821 -3.05378 -2.5804 0
M  V30 4708 H 456.261 -2.47469 -3.44289 0
M  V30 4709 C 454.72 -1.00597 -3.21531 0
M  V30 4710 O 455.25 -0.245768 -4.00947 0
M  V30 4711 N 453.456 -0.800911 -2.79345 0
M  V30 4712 H 453.003 -1.42079 -2.14875 0
M  V30 4713 H 452.961 -0.00697996 -3.14399 0
M  V30 4714 N 456.733 0.527833 -1.48498 0
M  V30 4715 C 457.98 1.28354 -1.56625 0
M  V30 4716 C 458.308 1.93 -0.241096 0
M  V30 4717 O 457.563 1.79967 0.768798 0
M  V30 4718 C 457.862 2.39275 -2.65485 0
M  V30 4719 C 457.528 1.92268 -4.07853 0
M  V30 4720 C 456.19 1.79166 -4.46602 0
M  V30 4721 C 458.542 1.56771 -4.97064 0
M  V30 4722 C 455.87 1.28905 -5.72364 0
M  V30 4723 C 458.222 1.07972 -6.23318 0
M  V30 4724 C 456.886 0.934887 -6.60921 0
M  V30 4725 H 456.156 0.469682 -0.573131 0
M  V30 4726 H 458.803 0.588781 -1.82224 0
M  V30 4727 H 457.108 3.1443 -2.33754 0
M  V30 4728 H 458.805 2.974 -2.68988 0
M  V30 4729 H 455.395 2.03417 -3.77252 0
M  V30 4730 H 459.579 1.65753 -4.67803 0
M  V30 4731 H 454.835 1.16381 -6.00221 0
M  V30 4732 H 459.009 0.795775 -6.91838 0
M  V30 4733 H 456.636 0.543231 -7.58257 0
M  V30 4734 N 458.211 1.37122 0.776871 0
M  V30 4735 C 459.458 1.32047 1.53524 0
M  V30 4736 C 459.786 -0.0965631 1.9426 0
M  V30 4737 O 459.041 -1.06866 1.63945 0
M  V30 4738 C 459.34 2.20068 2.81611 0
M  V30 4739 C 459.006 3.68423 2.59953 0
M  V30 4740 C 457.668 4.08854 2.53755 0
M  V30 4741 C 460.02 4.62431 2.40431 0
M  V30 4742 C 457.348 5.41417 2.26018 0
M  V30 4743 C 459.7 5.95225 2.14219 0
M  V30 4744 C 458.364 6.34767 2.06462 0
M  V30 4745 H 457.634 0.483196 0.561785 0
M  V30 4746 H 460.281 1.69284 0.895268 0
M  V30 4747 H 458.586 1.75809 3.50141 0
M  V30 4748 H 460.283 2.13458 3.39465 0
M  V30 4749 H 456.873 3.36354 2.65638 0
M  V30 4750 H 461.057 4.32057 2.44213 0
M  V30 4751 H 456.313 5.71022 2.18504 0
M  V30 4752 H 460.487 6.67626 1.98112 0
M  V30 4753 H 458.114 7.37413 1.84733 0
M  V30 4754 N 459.689 -1.00246 1.21608 0
M  V30 4755 C 460.636 -2.09073 0.977613 0
M  V30 4756 C 461.606 -1.65815 -0.097297 0
M  V30 4757 O 462.791 -1.90734 0.0503445 0
M  V30 4758 C 459.931 -3.40671 0.551133 0
M  V30 4759 C 459.044 -3.97326 1.69576 0
M  V30 4760 C 458.179 -5.17043 1.2182 0
M  V30 4761 C 457.218 -5.65813 2.335 0
M  V30 4762 N 456.355 -6.76778 1.86859 0
M  V30 4763 H 461.195 -2.28806 1.90924 0
M  V30 4764 H 458.732 -1.12186 0.951452 0
M  V30 4765 H 460.69 -4.16225 0.285097 0
M  V30 4766 H 459.32 -3.20967 -0.343489 0
M  V30 4767 H 458.372 -3.18734 2.07637 0
M  V30 4768 H 459.684 -4.29511 2.53617 0
M  V30 4769 H 458.838 -5.99852 0.908975 0
M  V30 4770 H 457.577 -4.86458 0.347869 0
M  V30 4771 H 456.582 -4.81599 2.65222 0
M  V30 4772 H 457.807 -5.98427 3.21033 0
M  V30 4773 H 455.753 -6.47994 1.02174 0
M  V30 4774 H 455.67 -7.08231 2.64471 0
M  V30 4775 H 456.938 -7.63116 1.58978 0
M  V30 4776 N 461.167 -1.02423 -1.1978 0
M  V30 4777 C 462.097 -0.62157 -2.25075 0
M  V30 4778 C 463.078 0.367148 -1.6609 0
M  V30 4779 O 464.263 0.250892 -1.92573 0
M  V30 4780 C 461.393 0.0331826 -3.47284 0
M  V30 4781 C 460.347 -0.877323 -4.18912 0
M  V30 4782 C 459.673 -0.0879296 -5.34628 0
M  V30 4783 C 460.973 -2.18892 -4.74219 0
M  V30 4784 H 462.667 -1.50179 -2.59011 0
M  V30 4785 H 460.213 -0.723547 -1.24502 0
M  V30 4786 H 462.166 0.326488 -4.20133 0
M  V30 4787 H 460.89 0.948164 -3.12534 0
M  V30 4788 H 459.549 -1.15475 -3.47938 0
M  V30 4789 H 459.197 0.828941 -4.96123 0
M  V30 4790 H 458.897 -0.694359 -5.83483 0
M  V30 4791 H 460.421 0.198743 -6.10276 0
M  V30 4792 H 461.835 -1.95746 -5.38847 0
M  V30 4793 H 460.232 -2.74686 -5.33542 0
M  V30 4794 H 461.302 -2.84674 -3.92541 0
M  V30 4795 N 462.645 1.35699 -0.801477 0
M  V30 4796 C 463.891 1.99208 -0.380022 0
M  V30 4797 C 464.224 1.63445 1.04878 0
M  V30 4798 O 463.499 0.895223 1.72673 0
M  V30 4799 C 463.782 3.55755 -0.557708 0
M  V30 4800 C 463.635 4.01332 -2.03107 0
M  V30 4801 C 464.954 4.40096 0.0197968 0
M  V30 4802 H 462.073 0.723667 -0.139552 0
M  V30 4803 H 464.715 1.60928 -1.01006 0
M  V30 4804 H 462.865 3.88494 -0.0213741 0
M  V30 4805 H 464.537 3.79026 -2.62939 0
M  V30 4806 H 462.78 3.52429 -2.52936 0
M  V30 4807 H 463.451 5.10234 -2.1063 0
M  V30 4808 H 465.927 4.13786 -0.438179 0
M  V30 4809 H 464.803 5.48735 -0.134477 0
M  V30 4810 H 465.064 4.2786 1.11303 0
M  V30 4811 N 464.123 0.554532 1.47522 0
M  V30 4812 C 465.348 0.0322661 2.07375 0
M  V30 4813 C 465.773 -1.25079 1.40488 0
M  V30 4814 O 465.131 -1.74859 0.47896 0
M  V30 4815 C 465.179 -0.149397 3.6029 0
M  V30 4816 O 464.283 -1.21259 3.9417 0
M  V30 4817 H 463.624 0.0501228 0.662106 0
M  V30 4818 H 466.154 0.769452 1.8958 0
M  V30 4819 H 466.164 -0.364437 4.06369 0
M  V30 4820 H 464.839 0.787743 4.08372 0
M  V30 4821 H 463.416 -0.97825 3.5984 0
M  V30 4822 N 465.601 -1.54893 0.290851 0
M  V30 4823 C 466.847 -2.00949 -0.314784 0
M  V30 4824 C 467.202 -1.1757 -1.52299 0
M  V30 4825 O 466.495 -0.241558 -1.90071 0
M  V30 4826 C 466.689 -3.49815 -0.732397 0
M  V30 4827 C 466.518 -4.47603 0.433799 0
M  V30 4828 C 465.288 -4.96806 0.922599 0
M  V30 4829 C 467.486 -4.98233 1.27546 0
M  V30 4830 N 465.468 -5.78426 2.05662 0
M  V30 4831 C 466.839 -5.77455 2.25712 0
M  V30 4832 C 468.894 -4.80439 1.307 0
M  V30 4833 C 467.597 -6.40778 3.26796 0
M  V30 4834 C 469.623 -5.44574 2.30637 0
M  V30 4835 C 468.985 -6.23619 3.27533 0
M  V30 4836 H 465.084 -0.777905 -0.0799257 0
M  V30 4837 H 467.668 -1.9015 0.418458 0
M  V30 4838 H 465.839 -3.60925 -1.43483 0
M  V30 4839 H 467.571 -3.82681 -1.31671 0
M  V30 4840 H 464.326 -4.70961 0.49926 0
M  V30 4841 H 464.75 -6.23923 2.62772 0
M  V30 4842 H 469.392 -4.18918 0.571622 0
M  V30 4843 H 467.11 -7.01439 4.01258 0
M  V30 4844 H 470.696 -5.32739 2.33838 0
M  V30 4845 H 469.576 -6.72367 4.03599 0
M  V30 4846 N 467.08 -0.0183926 -1.57589 0
M  V30 4847 C 468.31 0.67207 -1.95363 0
M  V30 4848 C 468.718 1.66807 -0.892872 0
M  V30 4849 O 468.061 1.83204 0.134958 0
M  V30 4850 C 468.123 1.44397 -3.29226 0
M  V30 4851 C 467.787 0.607511 -4.52944 0
M  V30 4852 C 468.784 -0.112657 -5.19778 0
M  V30 4853 C 466.469 0.548068 -4.99301 0
M  V30 4854 C 468.463 -0.881057 -6.31281 0
M  V30 4855 C 466.15 -0.224044 -6.10689 0
M  V30 4856 C 467.148 -0.937323 -6.76538 0
M  V30 4857 O 466.836 -1.6968 -7.85789 0
M  V30 4858 H 466.568 0.190925 -0.648478 0
M  V30 4859 H 469.122 -0.0711994 -2.05277 0
M  V30 4860 H 467.352 2.23214 -3.15773 0
M  V30 4861 H 469.041 2.02152 -3.51979 0
M  V30 4862 H 469.807 -0.0759998 -4.8494 0
M  V30 4863 H 465.686 1.09281 -4.4786 0
M  V30 4864 H 469.23 -1.43832 -6.82611 0
M  V30 4865 H 465.127 -0.262457 -6.44966 0
M  V30 4866 H 465.895 -1.61544 -8.024 0
M  V30 4867 N 468.558 1.5553 0.254621 0
M  V30 4868 C 469.835 1.6774 1.00611 0
M  V30 4869 C 470.215 0.555993 2.03647 0
M  V30 4870 O 469.563 -0.441583 2.24193 0
M  V30 4871 C 469.773 3.07725 1.6464 0
M  V30 4872 C 471.121 3.66074 2.15116 0
M  V30 4873 O 472.145 3.10476 1.74595 0
M  V30 4874 O 471.004 4.63526 2.89493 0
M  V30 4875 H 468.098 0.681958 0.467828 0
M  V30 4876 H 470.644 1.67863 0.24902 0
M  V30 4877 H 469.416 3.80792 0.900734 0
M  V30 4878 H 469.039 3.1158 2.46989 0
M  V30 4879 N 470.036 -0.519951 1.48776 0
M  V30 4880 C 470.984 -1.64443 1.64503 0
M  V30 4881 C 471.978 -1.61501 0.511248 0
M  V30 4882 O 473.184 -1.66238 0.690294 0
M  V30 4883 H 469.559 -0.544776 0.518385 0
M  V30 4884 H 471.53 -1.48325 2.58925 0
M  V30 4885 C 470.279 -3.02673 1.71127 0
M  V30 4886 H 469.602 -3.05635 2.57735 0
M  V30 4887 H 471.042 -3.80941 1.86172 0
M  V30 4888 C 469.501 -3.33854 0.452032 0
M  V30 4889 O 470.031 -3.99385 -0.430678 0
M  V30 4890 N 468.237 -2.88825 0.32069 0
M  V30 4891 H 467.784 -2.35674 1.03998 0
M  V30 4892 H 467.742 -3.10056 -0.520814 0
M  V30 4893 N 471.514 -1.37532 -0.769588 0
M  V30 4894 C 472.424 -1.35668 -1.91393 0
M  V30 4895 C 473.44 -0.255954 -1.72107 0
M  V30 4896 O 474.616 -0.491704 -1.95305 0
M  V30 4897 C 471.681 -1.16481 -3.26547 0
M  V30 4898 C 470.742 -2.36212 -3.58472 0
M  V30 4899 C 469.975 -2.17932 -4.87177 0
M  V30 4900 O 470.198 -1.1647 -5.58382 0
M  V30 4901 O 469.132 -3.06167 -5.18214 0
M  V30 4902 H 472.958 -2.32055 -1.95918 0
M  V30 4903 H 470.543 -1.18284 -0.912641 0
M  V30 4904 H 472.425 -1.07778 -4.07384 0
M  V30 4905 H 471.1 -0.231687 -3.2287 0
M  V30 4906 H 470.007 -2.50488 -2.77861 0
M  V30 4907 H 471.34 -3.281 -3.66894 0
M  V30 4908 N 472.992 0.995999 -1.22138 0
M  V30 4909 C 474.238 1.7386 -1.05567 0
M  V30 4910 C 474.593 1.8808 0.405418 0
M  V30 4911 O 473.886 1.41062 1.29661 0
M  V30 4912 C 474.08 3.14553 -1.6968 0
M  V30 4913 C 473.909 3.14053 -3.21871 0
M  V30 4914 C 472.679 3.20121 -3.90961 0
M  V30 4915 C 474.877 2.98451 -4.18845 0
M  V30 4916 N 472.859 3.09342 -5.30265 0
M  V30 4917 C 474.23 2.95667 -5.4496 0
M  V30 4918 C 476.285 2.8282 -4.09777 0
M  V30 4919 C 474.988 2.78852 -6.63049 0
M  V30 4920 C 477.014 2.67364 -5.27513 0
M  V30 4921 C 476.376 2.65264 -6.52544 0
M  V30 4922 H 472.475 0.645989 -0.440706 0
M  V30 4923 H 475.059 1.1831 -1.54631 0
M  V30 4924 H 473.23 3.68353 -1.2317 0
M  V30 4925 H 474.962 3.77358 -1.4623 0
M  V30 4926 H 471.717 3.27679 -3.4194 0
M  V30 4927 H 472.141 3.0727 -6.03253 0
M  V30 4928 H 476.783 2.83243 -3.139 0
M  V30 4929 H 474.501 2.77175 -7.59078 0
M  V30 4930 H 478.087 2.56256 -5.22326 0
M  V30 4931 H 476.967 2.5345 -7.42114 0
M  V30 4932 N 474.47 1.03057 1.19235 0
M  V30 4933 C 475.718 0.726581 1.88587 0
M  V30 4934 C 476.039 -0.747227 1.80115 0
M  V30 4935 O 475.309 -1.53849 1.21274 0
M  V30 4936 H 473.889 0.265768 0.698124 0
M  V30 4937 H 476.551 1.30516 1.44746 0
M  V30 4938 H 475.647 1.0224 2.94879 0
M  V30 4939 N 475.948 -1.35272 0.808662 0
M  V30 4940 C 477.178 -2.02652 0.401953 0
M  V30 4941 C 477.586 -1.6108 -0.992462 0
M  V30 4942 O 476.929 -0.804984 -1.65123 0
M  V30 4943 C 476.991 -3.57174 0.408246 0
M  V30 4944 C 476.655 -4.22019 1.75353 0
M  V30 4945 C 477.652 -4.43552 2.71215 0
M  V30 4946 C 475.337 -4.59093 2.03811 0
M  V30 4947 C 477.331 -5.01264 3.93717 0
M  V30 4948 C 475.018 -5.16519 3.26576 0
M  V30 4949 C 476.016 -5.37546 4.21347 0
M  V30 4950 O 475.704 -5.93761 5.41944 0
M  V30 4951 H 475.436 -0.656495 0.161216 0
M  V30 4952 H 477.99 -1.73829 1.0942 0
M  V30 4953 H 476.22 -3.85197 -0.340608 0
M  V30 4954 H 477.909 -4.05893 0.0235623 0
M  V30 4955 H 478.675 -4.15288 2.50522 0
M  V30 4956 H 474.554 -4.42039 1.30854 0
M  V30 4957 H 478.098 -5.17592 4.67701 0
M  V30 4958 H 473.995 -5.4421 3.47139 0
M  V30 4959 H 474.763 -6.1221 5.43269 0
M  V30 4960 N 477.426 -0.562348 -1.47226 0
M  V30 4961 C 478.651 -0.0432632 -2.07355 0
M  V30 4962 C 479.076 1.24332 -1.41149 0
M  V30 4963 O 478.434 1.74603 -0.488226 0
M  V30 4964 C 478.482 0.130288 -3.60365 0
M  V30 4965 O 477.586 1.19166 -3.94808 0
M  V30 4966 H 476.927 -0.0536334 -0.66183 0
M  V30 4967 H 479.457 -0.779495 -1.89169 0
M  V30 4968 H 479.467 0.342881 -4.06557 0
M  V30 4969 H 478.142 -0.809389 -4.07948 0
M  V30 4970 H 476.719 0.959153 -3.60354 0
M  V30 4971 N 478.904 1.54736 -0.299062 0
M  V30 4972 C 479.852 2.24897 0.593658 0
M  V30 4973 C 480.846 1.25429 1.13859 0
M  V30 4974 O 482.052 1.43286 1.08945 0
M  V30 4975 H 478.427 0.72207 0.210046 0
M  V30 4976 H 480.398 2.98393 -0.0206421 0
M  V30 4977 C 479.147 3.00159 1.75499 0
M  V30 4978 H 478.47 3.76501 1.34489 0
M  V30 4979 H 479.91 3.52535 2.35574 0
M  V30 4980 C 478.369 2.07015 2.65794 0
M  V30 4981 O 478.899 1.63692 3.66835 0
M  V30 4982 N 477.105 1.73012 2.33485 0
M  V30 4983 H 476.652 2.08439 1.51364 0
M  V30 4984 H 476.61 1.10965 2.94167 0
M  V30 4985 N 480.382 0.0267497 1.57577 0
M  V30 4986 C 481.798 -0.32962 1.56159 0
M  V30 4987 C 481.998 -1.73059 1.03213 0
M  V30 4988 O 481.054 -2.43233 0.677804 0
M  V30 4989 C 482.367 -0.18039 3.00158 0
M  V30 4990 C 483.915 -0.253334 3.11973 0
M  V30 4991 C 484.39 -0.132921 4.57807 0
M  V30 4992 N 485.881 -0.189979 4.6281 0
M  V30 4993 C 486.616 -0.120554 5.73273 0
M  V30 4994 N 486.112 -0.000180315 6.928 0
M  V30 4995 N 487.905 -0.174369 5.61829 0
M  V30 4996 H 480.056 0.942896 1.90324 0
M  V30 4997 H 482.319 0.3639 0.875375 0
M  V30 4998 H 482.025 0.784576 3.42837 0
M  V30 4999 H 481.899 -0.951565 3.65 0
M  V30 5000 H 484.286 -1.20876 2.69208 0
M  V30 5001 H 484.367 0.548177 2.49857 0
M  V30 5002 H 484.011 0.819073 5.01252 0
M  V30 5003 H 483.941 -0.953264 5.179 0
M  V30 5004 H 486.432 -0.283257 3.76837 0
M  V30 5005 H 486.745 0.0461666 7.72786 0
M  V30 5006 H 485.09 0.034569 6.94991 0
M  V30 5007 H 488.281 -0.266794 4.67339 0
M  V30 5008 H 488.454 -0.116802 6.47895 0
M  V30 5009 N 481.861 -1.55662 -0.24637 0
M  V30 5010 C 483.107 -1.77782 -0.975779 0
M  V30 5011 C 483.44 -0.592103 -1.84953 0
M  V30 5012 O 482.715 0.409588 -1.90138 0
M  V30 5013 C 482.998 -3.09788 -1.83584 0
M  V30 5014 C 482.851 -4.38764 -0.990241 0
M  V30 5015 C 484.17 -3.38029 -2.81823 0
M  V30 5016 H 481.289 -0.646789 -0.353317 0
M  V30 5017 H 483.931 -1.88398 -0.246248 0
M  V30 5018 H 482.081 -3.00869 -2.45784 0
M  V30 5019 H 483.753 -4.59675 -0.386897 0
M  V30 5020 H 481.996 -4.32798 -0.294626 0
M  V30 5021 H 482.667 -5.27514 -1.62584 0
M  V30 5022 H 485.143 -3.46915 -2.2976 0
M  V30 5023 H 484.019 -4.3161 -3.39122 0
M  V30 5024 H 484.28 -2.58968 -3.58313 0
M  V30 5025 N 483.339 0.512053 -1.4905 0
M  V30 5026 C 484.269 1.62365 -1.67809 0
M  V30 5027 C 485.25 1.61737 -0.526809 0
M  V30 5028 O 486.435 1.78651 -0.761404 0
M  V30 5029 C 483.565 3.00895 -1.73435 0
M  V30 5030 C 482.519 3.16387 -2.88242 0
M  V30 5031 C 481.845 4.56157 -2.78971 0
M  V30 5032 C 483.145 2.97457 -4.29321 0
M  V30 5033 H 484.839 1.46921 -2.60873 0
M  V30 5034 H 482.385 0.705379 -1.2554 0
M  V30 5035 H 484.338 3.78549 -1.85145 0
M  V30 5036 H 483.062 3.17403 -0.769619 0
M  V30 5037 H 481.721 2.41155 -2.76116 0
M  V30 5038 H 481.369 4.69525 -1.8043 0
M  V30 5039 H 481.069 4.67465 -3.5602 0
M  V30 5040 H 482.593 5.35886 -2.92675 0
M  V30 5041 H 484.007 3.64888 -4.42187 0
M  V30 5042 H 482.404 3.20245 -5.07507 0
M  V30 5043 H 483.474 1.93692 -4.44535 0
M  V30 5044 N 484.817 1.37938 0.762283 0
M  V30 5045 C 486.094 1.24196 1.51112 0
M  V30 5046 C 486.474 -0.160409 2.1049 0
M  V30 5047 O 485.822 -1.16904 1.96331 0
M  V30 5048 C 486.032 2.34537 2.58445 0
M  V30 5049 C 487.38 2.7254 3.25588 0
M  V30 5050 O 488.404 2.33783 2.68745 0
M  V30 5051 O 487.263 3.39343 4.28379 0
M  V30 5052 H 484.357 0.485175 0.669727 0
M  V30 5053 H 486.903 1.49743 0.798438 0
M  V30 5054 H 485.675 3.28406 2.12756 0
M  V30 5055 H 485.298 2.10505 3.37303 0
M  V30 5056 N 486.295 -0.989507 1.22664 0
M  V30 5057 C 487.225 -2.09847 1.02404 0
M  V30 5058 C 488.206 -1.70007 -0.0561303 0
M  V30 5059 O 489.391 -1.93906 0.106748 0
M  V30 5060 C 486.521 -3.41996 0.604663 0
M  V30 5061 C 485.475 -3.95699 1.63115 0
M  V30 5062 C 484.801 -5.23936 1.0675 0
M  V30 5063 C 486.101 -4.25999 3.02196 0
M  V30 5064 H 487.795 -2.27054 1.95158 0
M  V30 5065 H 485.341 -1.09111 0.939727 0
M  V30 5066 H 487.294 -4.1899 0.45002 0
M  V30 5067 H 486.018 -3.24626 -0.35855 0
M  V30 5068 H 484.677 -3.2084 1.77362 0
M  V30 5069 H 484.325 -5.02909 0.0955422 0
M  V30 5070 H 484.025 -5.60833 1.75328 0
M  V30 5071 H 485.549 -6.0356 0.924516 0
M  V30 5072 H 486.963 -4.93777 2.91303 0
M  V30 5073 H 485.36 -4.74076 3.67929 0
M  V30 5074 H 486.43 -3.33636 3.51873 0
M  V30 5075 N 487.773 -1.03688 -1.18687 0
M  V30 5076 C 488.736 -0.629115 -2.20397 0
M  V30 5077 C 489.736 0.311495 -1.57754 0
M  V30 5078 O 490.926 0.0974107 -1.73927 0
M  V30 5079 C 488.058 0.0782231 -3.4081 0
M  V30 5080 H 489.251 -1.52915 -2.57987 0
M  V30 5081 H 486.804 -0.828988 -1.32505 0
M  V30 5082 H 487.539 0.992233 -3.08748 0
M  V30 5083 H 487.324 -0.597776 -3.87517 0
M  V30 5084 H 488.814 0.350156 -4.16129 0
M  V30 5085 N 489.251 1.34841 -0.815825 0
M  V30 5086 C 490.497 1.98793 -0.401129 0
M  V30 5087 C 490.83 1.64548 1.03139 0
M  V30 5088 O 490.105 0.913487 1.71714 0
M  V30 5089 C 490.388 3.55143 -0.595409 0
M  V30 5090 C 490.241 3.99155 -2.07352 0
M  V30 5091 C 491.56 4.40092 -0.0268823 0
M  V30 5092 H 488.679 0.722146 -0.14722 0
M  V30 5093 H 491.321 1.59847 -1.02707 0
M  V30 5094 H 489.471 3.8845 -0.0625779 0
M  V30 5095 H 491.143 3.76216 -2.66945 0
M  V30 5096 H 489.386 3.49726 -2.56659 0
M  V30 5097 H 490.057 5.07971 -2.1603 0
M  V30 5098 H 492.533 4.13298 -0.482042 0
M  V30 5099 H 491.409 5.48562 -0.19267 0
M  V30 5100 H 491.67 4.29016 1.06759 0
M  V30 5101 N 490.729 0.570148 1.46925 0
M  V30 5102 C 491.679 -0.190921 2.27199 0
M  V30 5103 C 492.663 -0.873457 1.35128 0
M  V30 5104 O 493.855 -0.769627 1.59392 0
M  V30 5105 C 490.984 -1.21204 3.21192 0
M  V30 5106 C 490.07 -0.532261 4.20747 0
M  V30 5107 N 490.461 0.405038 5.04176 0
M  V30 5108 C 488.759 -0.784582 4.39045 0
M  V30 5109 C 489.46 0.801149 5.76157 0
M  V30 5110 N 488.436 0.153082 5.43384 0
M  V30 5111 H 492.238 0.529535 2.8909 0
M  V30 5112 H 489.752 0.391019 1.57622 0
M  V30 5113 H 491.749 -1.77135 3.77398 0
M  V30 5114 H 490.409 -1.93345 2.6086 0
M  V30 5115 H 491.42 0.779903 5.11994 0
M  V30 5116 H 488.097 -1.49352 3.89872 0
M  V30 5117 H 489.487 1.57208 6.5325 0
M  V30 5118 N 492.207 -1.54576 0.307264 0
M  V30 5119 C 493.456 -1.99442 -0.300976 0
M  V30 5120 C 493.769 -1.19928 -1.5452 0
M  V30 5121 O 494.975 -1.55092 -2.22842 0
M  V30 5122 C 493.431 -3.55084 -0.586809 0
M  V30 5123 C 493.039 -4.43413 0.639438 0
M  V30 5124 C 494.783 -4.0846 -1.1559 0
M  V30 5125 C 492.69 -5.90499 0.326411 0
M  V30 5126 H 491.62 -0.744986 -0.116238 0
M  V30 5127 H 494.271 -1.787 0.416947 0
M  V30 5128 H 492.653 -3.71749 -1.36449 0
M  V30 5129 H 493.827 -4.38522 1.41545 0
M  V30 5130 H 492.142 -4.00842 1.1276 0
M  V30 5131 H 494.739 -5.15926 -1.40445 0
M  V30 5132 H 495.082 -3.59443 -2.10015 0
M  V30 5133 H 495.615 -3.95362 -0.439778 0
M  V30 5134 H 492.354 -6.43676 1.23939 0
M  V30 5135 H 491.874 -5.98382 -0.412212 0
M  V30 5136 H 493.553 -6.46962 -0.0697393 0
M  V30 5137 N 493.685 -0.035106 -1.57561 0
M  V30 5138 C 494.913 0.652258 -1.9635 0
M  V30 5139 C 495.328 1.65317 -0.911897 0
M  V30 5140 O 494.685 1.82194 0.105657 0
M  V30 5141 C 494.736 1.35337 -3.35211 0
M  V30 5142 O 494.457 0.392548 -4.36338 0
M  V30 5143 C 495.958 2.13199 -3.88666 0
M  V30 5144 H 493.178 0.179444 -0.646561 0
M  V30 5145 H 495.722 -0.0966459 -2.04271 0
M  V30 5146 H 493.877 2.05362 -3.28489 0
M  V30 5147 H 494.291 0.891097 -5.16875 0
M  V30 5148 H 495.765 2.577 -4.88154 0
M  V30 5149 H 496.242 2.97353 -3.23231 0
M  V30 5150 H 496.848 1.48118 -3.98674 0
M  V30 5151 N 495.163 1.55791 0.238111 0
M  V30 5152 C 496.111 1.91885 1.31464 0
M  V30 5153 C 497.105 0.798929 1.49377 0
M  V30 5154 O 498.311 0.983626 1.50747 0
M  V30 5155 H 494.686 0.609551 0.440399 0
M  V30 5156 H 496.657 2.81747 0.982925 0
M  V30 5157 C 495.406 2.23763 2.6613 0
M  V30 5158 H 494.729 3.09444 2.53149 0
M  V30 5159 H 496.169 2.52915 3.40309 0
M  V30 5160 C 494.628 1.05699 3.1989 0
M  V30 5161 O 495.158 0.309524 4.00506 0
M  V30 5162 N 493.364 0.845251 2.78036 0
M  V30 5163 H 492.911 1.4548 2.12588 0
M  V30 5164 H 492.869 0.0569973 3.14348 0
M  V30 5165 N 496.642 -0.504142 1.49319 0
M  V30 5166 C 497.59 -1.62689 1.66238 0
M  V30 5167 C 498.584 -1.6095 0.528349 0
M  V30 5168 O 499.79 -1.65496 0.707887 0
M  V30 5169 H 496.165 -0.539247 0.524134 0
M  V30 5170 H 498.136 -1.45571 2.60484 0
M  V30 5171 C 496.885 -3.00841 1.74328 0
M  V30 5172 H 496.208 -3.02884 2.60963 0
M  V30 5173 H 497.648 -3.78945 1.90202 0
M  V30 5174 C 496.107 -3.33355 0.487416 0
M  V30 5175 O 496.637 -3.99819 -0.388294 0
M  V30 5176 N 494.843 -2.88469 0.351306 0
M  V30 5177 H 494.39 -2.34557 1.06492 0
M  V30 5178 H 494.348 -3.10591 -0.487899 0
M  V30 5179 O 498.159 -1.47868 -0.649398 0
M  V30 5180 H 498.85 -1.43327 -1.30297 0
M  V30 END ATOM
M  V30 BEGIN BOND
M  V30 END BOND
M  V30 END CTAB
M  END
$$$$
