drugbank_drug|DB00110 VH region MEDI-493
 OpenBabel12092119123D

  0  0  0     0  0            999 V3000
M  V30 BEGIN CTAB
M  V30 COUNTS 1866 1890 0 0 0
M  V30 BEGIN ATOM
M  V30 1 H -0.908 1.98254 -0.117106 0
M  V30 2 N 0 1.576 0 0
M  V30 3 C 0.932 2.05273 1.01958 0
M  V30 4 C 1.945 0.970662 1.30698 0
M  V30 5 O 3.134 1.24746 1.27674 0
M  V30 6 C 0.234 2.43771 2.35433 0
M  V30 7 C -0.593 3.74711 2.25633 0
M  V30 8 C -1.534 4.00077 3.41796 0
M  V30 9 O -2.508 4.70743 3.19984 0
M  V30 10 N -1.306 3.47973 4.64645 0
M  V30 11 H 1.459 2.93363 0.613025 0
M  V30 12 H -0.98 1.60812 0.187383 0
M  V30 13 H 1.012 2.57855 3.11918 0
M  V30 14 H -0.418 1.612 2.67831 0
M  V30 15 H -1.198 3.70705 1.34059 0
M  V30 16 H 0.09 4.60554 2.16258 0
M  V30 17 H -0.512 2.90748 4.85265 0
M  V30 18 H -1.955 3.67386 5.38396 0
M  V30 19 N 1.4781 -0.272755 1.55222 0
M  V30 20 C 2.7241 -1.00581 1.761 0
M  V30 21 C 3.0571 -1.85932 0.560625 0
M  V30 22 O 2.3321 -1.89416 -0.441801 0
M  V30 23 C 2.6151 -1.88816 3.06628 0
M  V30 24 C 2.4681 -1.06457 4.37021 0
M  V30 25 C 3.7871 -2.8752 3.33197 0
M  V30 26 H 0.9061 -0.364244 0.640699 0
M  V30 27 H 3.5481 -0.278189 1.87952 0
M  V30 28 H 1.6981 -2.50856 2.96654 0
M  V30 29 H 3.3701 -0.464863 4.58952 0
M  V30 30 H 1.6131 -0.368043 4.32236 0
M  V30 31 H 2.2841 -1.71514 5.24678 0
M  V30 32 H 4.7601 -2.35615 3.42965 0
M  V30 33 H 3.6361 -3.46399 4.25792 0
M  V30 34 H 3.8971 -3.62657 2.52849 0
M  V30 35 N 2.9562 -1.48159 -0.537278 0
M  V30 36 C 4.1842 -1.59454 -1.31841 0
M  V30 37 C 4.5992 -0.252065 -1.8711 0
M  V30 38 O 3.9562 0.757621 -1.66031 0
M  V30 39 C 4.0072 -2.63546 -2.47439 0
M  V30 40 O 3.7282 -3.92583 -1.94449 0
M  V30 41 C 5.2292 -2.85212 -3.39366 0
M  V30 42 H 2.4492 -0.53785 -0.401196 0
M  V30 43 H 4.9932 -1.93932 -0.648891 0
M  V30 44 H 3.1482 -2.31946 -3.1029 0
M  V30 45 H 3.5622 -4.49629 -2.70063 0
M  V30 46 H 5.0362 -3.61863 -4.16844 0
M  V30 47 H 5.5132 -1.93765 -3.94147 0
M  V30 48 H 6.1192 -3.18086 -2.82314 0
M  V30 49 N 4.4343 0.785586 -1.36625 0
M  V30 50 C 5.3643 1.91259 -1.33949 0
M  V30 51 C 6.3453 1.68795 -0.210325 0
M  V30 52 O 7.5303 1.89854 -0.408561 0
M  V30 53 C 4.6603 3.28339 -1.13186 0
M  V30 54 C 3.6143 3.65335 -2.22967 0
M  V30 55 C 2.9403 5.00806 -1.87342 0
M  V30 56 C 4.2403 3.7352 -3.65075 0
M  V30 57 H 5.9343 1.93755 -2.28253 0
M  V30 58 H 3.4803 0.930788 -1.09874 0
M  V30 59 H 5.4333 4.06804 -1.09948 0
M  V30 60 H 4.1573 3.2624 -0.153332 0
M  V30 61 H 2.8163 2.89169 -2.25337 0
M  V30 62 H 2.4643 4.95233 -0.880545 0
M  V30 63 H 2.1643 5.26529 -2.60846 0
M  V30 64 H 3.6883 5.81687 -1.85667 0
M  V30 65 H 5.1023 4.42168 -3.64911 0
M  V30 66 H 3.4993 4.10731 -4.37516 0
M  V30 67 H 4.5693 2.74527 -3.99703 0
M  V30 68 N 5.9124 1.20967 1.01018 0
M  V30 69 C 7.3284 0.965905 1.27053 0
M  V30 70 C 7.5284 -0.350785 1.98423 0
M  V30 71 O 6.5844 -1.07773 2.28344 0
M  V30 72 C 7.8974 2.15294 2.09926 0
M  V30 73 C 9.4454 2.19463 2.23171 0
M  V30 74 C 9.9204 3.3767 3.09424 0
M  V30 75 N 11.4114 3.37724 3.17012 0
M  V30 76 C 12.1464 4.25837 3.83993 0
M  V30 77 N 11.6424 5.24138 4.53047 0
M  V30 78 N 13.4354 4.1366 3.80581 0
M  V30 79 H 5.5864 2.0565 0.531194 0
M  V30 80 H 7.8494 0.90024 0.297106 0
M  V30 81 H 7.5554 3.10684 1.64828 0
M  V30 82 H 7.4294 2.13923 3.10672 0
M  V30 83 H 9.8164 1.24632 2.6749 0
M  V30 84 H 9.8974 2.2488 1.21912 0
M  V30 85 H 9.5414 4.32791 2.65808 0
M  V30 86 H 9.4714 3.29491 4.10784 0
M  V30 87 H 11.9624 2.6658 2.6785 0
M  V30 88 H 12.2754 5.87684 5.01844 0
M  V30 89 H 10.6204 5.28068 4.5185 0
M  V30 90 H 13.8114 3.36127 3.25785 0
M  V30 91 H 13.9844 4.82538 4.32505 0
M  V30 92 N 7.3905 -1.2043 1.01659 0
M  V30 93 C 8.3005 -2.2689 0.596484 0
M  V30 94 C 9.3165 -1.70107 -0.36599 0
M  V30 95 O 10.4925 -2.00117 -0.226942 0
M  V30 96 C 7.5575 -3.4665 -0.0586659 0
M  V30 97 C 6.6185 -4.18662 0.949751 0
M  V30 98 C 5.8515 -5.32705 0.32577 0
M  V30 99 O 6.0745 -5.63656 -0.874509 0
M  V30 100 O 5.0085 -5.92803 1.04249 0
M  V30 101 H 8.8345 -2.65041 1.4828 0
M  V30 102 H 6.4195 -1.27048 0.786082 0
M  V30 103 H 8.3015 -4.19256 -0.424564 0
M  V30 104 H 6.9765 -3.10375 -0.91918 0
M  V30 105 H 5.8835 -3.48229 1.36702 0
M  V30 106 H 7.2165 -4.58878 1.78023 0
M  V30 107 N 8.8686 -0.792821 -1.36206 0
M  V30 108 C 10.0936 -0.377701 -2.03932 0
M  V30 109 C 10.5186 0.998947 -1.59382 0
M  V30 110 O 9.8766 1.64421 -0.763903 0
M  V30 111 C 9.9246 -0.453635 -3.57735 0
M  V30 112 O 9.0286 0.538151 -4.08874 0
M  V30 113 H 8.3696 -0.159855 -0.644471 0
M  V30 114 H 10.8996 -1.07488 -1.7409 0
M  V30 115 H 10.9096 -0.318464 -4.06755 0
M  V30 116 H 9.5846 -1.45784 -3.89512 0
M  V30 117 H 8.1616 0.364359 -3.71116 0
M  V30 118 N 10.3467 1.47872 -0.545128 0
M  V30 119 C 11.5947 2.02093 -0.016553 0
M  V30 120 C 11.9157 1.42305 1.3332 0
M  V30 121 O 11.1857 0.593853 1.86682 0
M  V30 122 H 9.7657 0.746993 -0.00313038 0
M  V30 123 H 12.4277 1.81414 -0.712397 0
M  V30 124 H 11.5237 3.11996 0.0805422 0
M  V30 125 N 11.8248 0.280983 1.55075 0
M  V30 126 C 13.2358 -0.215629 1.85451 0
M  V30 127 C 13.5868 -1.54991 1.203 0
M  V30 128 O 12.7118 -2.10699 0.493435 0
M  V30 129 C 13.3068 -0.398026 3.36454 0
M  V30 130 C 11.8658 -0.838866 3.66933 0
M  V30 131 C 11.0128 0.064458 2.77225 0
M  V30 132 H 13.9638 0.502601 1.50531 0
M  V30 133 H 13.9848 -1.23569 3.59876 0
M  V30 134 H 13.4968 0.573241 3.83843 0
M  V30 135 H 11.5978 -1.8214 3.25048 0
M  V30 136 H 11.7108 -0.672123 4.74362 0
M  V30 137 H 10.0748 -0.452863 2.50642 0
M  V30 138 H 10.8578 1.03172 3.2743 0
M  V30 139 N 13.3029 -1.57598 0.00835791 0
M  V30 140 C 14.2659 -2.07884 -0.965242 0
M  V30 141 C 15.2659 -0.989825 -1.26725 0
M  V30 142 O 16.4559 -1.25218 -1.21104 0
M  V30 143 C 13.5879 -2.52731 -2.28779 0
M  V30 144 H 14.7809 -2.95178 -0.530112 0
M  V30 145 H 12.3339 -1.54458 -0.239283 0
M  V30 146 H 13.0689 -1.68705 -2.76964 0
M  V30 147 H 12.8539 -3.32272 -2.08177 0
M  V30 148 H 14.3439 -2.91933 -2.98605 0
M  V30 149 N 14.781 0.264519 -1.55364 0
M  V30 150 C 15.711 1.33121 -1.91836 0
M  V30 151 C 16.692 1.51101 -0.781192 0
M  V30 152 O 17.877 1.64003 -1.04003 0
M  V30 153 C 15.007 2.68921 -2.19769 0
M  V30 154 C 13.961 2.65661 -3.35571 0
M  V30 155 C 13.287 4.05093 -3.49004 0
M  V30 156 C 14.587 2.24187 -4.71739 0
M  V30 157 H 16.281 1.02844 -2.81182 0
M  V30 158 H 13.827 0.493286 -1.35287 0
M  V30 159 H 15.78 3.43663 -2.43872 0
M  V30 160 H 14.504 3.00799 -1.27231 0
M  V30 161 H 13.163 1.93377 -3.1145 0
M  V30 162 H 12.811 4.34206 -2.53917 0
M  V30 163 H 12.511 4.03804 -4.26868 0
M  V30 164 H 14.035 4.81561 -3.75408 0
M  V30 165 H 15.449 2.88654 -4.9533 0
M  V30 166 H 13.846 2.34044 -5.52579 0
M  V30 167 H 14.916 1.19327 -4.69988 0
M  V30 168 N 16.2591 1.48442 0.529413 0
M  V30 169 C 17.5051 1.5672 1.28711 0
M  V30 170 C 17.8381 0.2406 1.92704 0
M  V30 171 O 17.1131 -0.753454 1.79313 0
M  V30 172 C 17.3961 2.70587 2.37603 0
M  V30 173 C 17.2491 4.12953 1.78297 0
M  V30 174 C 18.5681 2.80212 3.39366 0
M  V30 175 H 15.6871 0.570474 0.466613 0
M  V30 176 H 18.3291 1.80617 0.589706 0
M  V30 177 H 16.4791 2.50342 2.97088 0
M  V30 178 H 18.1511 4.44639 1.22858 0
M  V30 179 H 16.3941 4.19927 1.0883 0
M  V30 180 H 17.0651 4.88448 2.57144 0
M  V30 181 H 19.5411 2.98553 2.89836 0
M  V30 182 H 18.4171 3.61611 4.12951 0
M  V30 183 H 18.6781 1.88393 3.99951 0
M  V30 184 N 17.7372 -0.778329 1.37039 0
M  V30 185 C 18.6842 -1.89139 1.32269 0
M  V30 186 C 19.6542 -1.65017 0.189387 0
M  V30 187 O 20.8392 -1.87024 0.377693 0
M  V30 188 C 17.9792 -3.26112 1.12894 0
M  V30 189 C 17.0922 -3.62233 2.35396 0
M  V30 190 C 16.2272 -4.8838 2.08946 0
M  V30 191 C 15.2662 -5.17212 3.2735 0
M  V30 192 N 14.4032 -6.34546 3.00492 0
M  V30 193 H 19.2432 -1.92552 2.27437 0
M  V30 194 H 16.7802 -0.941473 1.13025 0
M  V30 195 H 18.7382 -4.05116 0.996835 0
M  V30 196 H 17.3682 -3.22091 0.213758 0
M  V30 197 H 16.4202 -2.78265 2.5937 0
M  V30 198 H 17.7322 -3.79481 3.23721 0
M  V30 199 H 16.8862 -5.75274 1.92729 0
M  V30 200 H 15.6252 -4.73222 1.17949 0
M  V30 201 H 14.6302 -4.28796 3.44113 0
M  V30 202 H 15.8552 -5.34283 4.19188 0
M  V30 203 H 13.8012 -6.20759 2.12118 0
M  V30 204 H 13.7182 -6.52179 3.82358 0
M  V30 205 H 14.9862 -7.24394 2.87879 0
M  V30 206 N 19.2153 -1.21501 -1.00376 0
M  V30 207 C 20.6263 -1.03146 -1.55621 0
M  V30 208 C 20.9773 0.408375 -1.91903 0
M  V30 209 O 20.1023 1.29177 -1.73616 0
M  V30 210 C 20.6973 -1.86612 -2.82775 0
M  V30 211 C 19.2563 -1.72586 -3.34501 0
M  V30 212 C 18.4033 -1.83747 -2.07683 0
M  V30 213 H 21.3543 -1.35505 -0.826081 0
M  V30 214 H 21.3753 -1.3771 -3.54706 0
M  V30 215 H 20.8873 -2.91399 -2.56336 0
M  V30 216 H 18.9883 -0.704877 -3.65872 0
M  V30 217 H 19.1013 -2.54623 -4.05837 0
M  V30 218 H 17.4653 -1.27069 -2.20739 0
M  V30 219 H 18.2483 -2.90044 -1.83655 0
M  V30 220 N 20.6934 1.19889 -1.02296 0
M  V30 221 C 21.9214 1.9339 -0.735399 0
M  V30 222 C 22.3364 1.75148 0.704887 0
M  V30 223 O 21.6934 1.06954 1.47875 0
M  V30 224 C 21.7444 3.45313 -1.06962 0
M  V30 225 O 21.4654 3.62964 -2.45334 0
M  V30 226 C 22.9664 4.35948 -0.804021 0
M  V30 227 H 20.1864 0.61448 -0.269546 0
M  V30 228 H 22.7304 1.522 -1.36585 0
M  V30 229 H 20.8854 3.84359 -0.484455 0
M  V30 230 H 21.2994 4.56886 -2.57595 0
M  V30 231 H 22.7734 5.41174 -1.0879 0
M  V30 232 H 23.2504 4.3842 0.261691 0
M  V30 233 H 23.8564 4.02574 -1.37164 0
M  V30 234 N 22.1715 0.800033 1.35784 0
M  V30 235 C 23.1035 0.163596 2.28615 0
M  V30 236 C 24.1165 -0.633317 1.49976 0
M  V30 237 O 25.3055 -0.466754 1.72289 0
M  V30 238 C 22.4055 -0.790958 3.29541 0
M  V30 239 C 21.5785 -0.0418255 4.3738 0
M  V30 240 C 20.6375 -0.91389 5.18203 0
M  V30 241 O 19.6635 -0.367234 5.68014 0
M  V30 242 N 20.8655 -2.23682 5.35674 0
M  V30 243 H 23.6305 0.96105 2.83873 0
M  V30 244 H 21.1915 0.654894 1.48063 0
M  V30 245 H 23.1835 -1.37844 3.80501 0
M  V30 246 H 21.7535 -1.48925 2.74846 0
M  V30 247 H 20.9735 0.726813 3.87442 0
M  V30 248 H 22.2615 0.474719 5.06581 0
M  V30 249 H 21.6595 -2.70497 4.96838 0
M  V30 250 H 20.2165 -2.77369 5.89839 0
M  V30 251 N 23.6496 -1.47581 0.552962 0
M  V30 252 C 24.8776 -2.06875 0.0320556 0
M  V30 253 C 25.2926 -1.40625 -1.25976 0
M  V30 254 O 24.6496 -0.501349 -1.75479 0
M  V30 255 C 24.7006 -3.61092 -0.17167 0
M  V30 256 O 24.4216 -4.24858 1.06899 0
M  V30 257 C 25.9226 -4.37242 -0.730344 0
M  V30 258 H 23.1426 -0.669561 0.043915 0
M  V30 259 H 25.6866 -1.89646 0.765163 0
M  V30 260 H 23.8416 -3.7785 -0.854894 0
M  V30 261 H 24.2556 -5.17334 0.864059 0
M  V30 262 H 25.7296 -5.45842 -0.822203 0
M  V30 263 H 26.2066 -4.03235 -1.74064 0
M  V30 264 H 26.8126 -4.25219 -0.0829543 0
M  V30 265 N 25.1277 -0.289203 -1.54924 0
M  V30 266 C 26.0577 0.58549 -2.2604 0
M  V30 267 C 27.0387 1.14753 -1.25562 0
M  V30 268 O 28.2237 1.17906 -1.54311 0
M  V30 269 C 25.3537 1.76305 -2.99222 0
M  V30 270 C 24.3077 1.33191 -4.06748 0
M  V30 271 C 23.6337 2.5937 -4.6758 0
M  V30 272 C 24.9337 0.471775 -5.20165 0
M  V30 273 H 26.6277 -0.00763532 -2.99399 0
M  V30 274 H 24.1737 -0.00511229 -1.43999 0
M  V30 275 H 26.1267 2.38097 -3.47689 0
M  V30 276 H 24.8507 2.38223 -2.23422 0
M  V30 277 H 23.5097 0.737121 -3.59113 0
M  V30 278 H 23.1577 3.19576 -3.88433 0
M  V30 279 H 22.8577 2.31228 -5.40192 0
M  V30 280 H 24.3817 3.21985 -5.18804 0
M  V30 281 H 25.7957 0.995056 -5.64599 0
M  V30 282 H 24.1927 0.284639 -5.99425 0
M  V30 283 H 25.2627 -0.506041 -4.82252 0
M  V30 284 N 26.6058 1.57591 -0.0167156 0
M  V30 285 C 27.8338 1.95575 0.675128 0
M  V30 286 C 28.2488 0.892542 1.6637 0
M  V30 287 O 27.6058 -0.126912 1.82058 0
M  V30 288 C 27.6568 3.33608 1.39239 0
M  V30 289 O 27.3778 4.3585 0.443444 0
M  V30 290 C 28.8788 3.86151 2.17721 0
M  V30 291 H 26.0988 0.644423 0.186978 0
M  V30 292 H 28.6428 2.0437 -0.0728 0
M  V30 293 H 26.7978 3.2607 2.09182 0
M  V30 294 H 27.2118 5.158 0.951358 0
M  V30 295 H 28.6858 4.85114 2.63379 0
M  V30 296 H 29.1628 3.19738 3.01105 0
M  V30 297 H 29.7688 3.96918 1.52761 0
M  V30 298 N 28.0839 -0.256276 1.55502 0
M  V30 299 C 29.0139 -1.32102 1.92539 0
M  V30 300 C 29.9949 -1.50684 0.789194 0
M  V30 301 O 31.1799 -1.63449 1.04872 0
M  V30 302 C 28.3099 -2.67752 2.21192 0
M  V30 303 C 27.2639 -2.63878 3.36975 0
M  V30 304 C 26.5899 -4.03236 3.51147 0
M  V30 305 C 27.8899 -2.21682 4.72921 0
M  V30 306 H 29.5839 -1.01351 2.81724 0
M  V30 307 H 27.1299 -0.486105 1.35547 0
M  V30 308 H 29.0829 -3.42365 2.45691 0
M  V30 309 H 27.8069 -3.0012 1.28824 0
M  V30 310 H 26.4659 -1.91722 3.12471 0
M  V30 311 H 26.1139 -4.32854 2.56216 0
M  V30 312 H 25.8139 -4.01535 4.29003 0
M  V30 313 H 27.3379 -4.79563 3.77957 0
M  V30 314 H 28.7519 -2.86023 4.96854 0
M  V30 315 H 27.1489 -2.3111 5.53812 0
M  V30 316 H 28.2189 -1.16833 4.70615 0
M  V30 317 N 29.562 -1.4872 -0.521534 0
M  V30 318 C 30.79 -1.60843 -1.30142 0
M  V30 319 C 31.205 -0.271897 -1.86832 0
M  V30 320 O 30.562 0.739969 -1.66825 0
M  V30 321 C 30.613 -2.66155 -2.4463 0
M  V30 322 O 30.334 -3.94623 -1.90275 0
M  V30 323 C 31.835 -2.88795 -3.36322 0
M  V30 324 H 29.055 -0.542075 -0.395468 0
M  V30 325 H 31.599 -1.94609 -0.628285 0
M  V30 326 H 29.754 -2.35224 -3.07812 0
M  V30 327 H 30.168 -4.52468 -2.65279 0
M  V30 328 H 31.642 -3.66264 -4.12983 0
M  V30 329 H 32.119 -1.97934 -3.9207 0
M  V30 330 H 32.725 -3.21063 -2.78924 0
M  V30 331 N 31.0401 0.771051 -1.3745 0
M  V30 332 C 32.2801 1.54264 -1.34096 0
M  V30 333 C 32.6441 1.91858 0.0737639 0
M  V30 334 O 33.8451 2.67797 0.23203 0
M  V30 335 C 32.1161 2.77326 -2.25445 0
M  V30 336 S 33.6751 3.67383 -2.39948 0
M  V30 337 H 30.4931 0.528122 -0.476034 0
M  V30 338 H 33.0951 0.906633 -1.73206 0
M  V30 339 H 31.7991 2.47788 -3.27153 0
M  V30 340 H 31.3301 3.45886 -1.87421 0
M  V30 341 H 33.3451 4.69334 -1.61059 0
M  V30 342 N 32.5182 1.22032 0.997298 0
M  V30 343 C 33.7462 1.06841 1.7718 0
M  V30 344 C 34.1612 -0.381325 1.84909 0
M  V30 345 O 33.5182 -1.26437 1.31605 0
M  V30 346 C 33.5692 1.66814 3.20711 0
M  V30 347 O 33.2902 3.06116 3.13408 0
M  V30 348 C 34.7912 1.56838 4.14628 0
M  V30 349 H 32.0112 0.374782 0.556578 0
M  V30 350 H 34.5552 1.61532 1.2541 0
M  V30 351 H 32.7102 1.16196 3.69564 0
M  V30 352 H 33.1242 3.34926 4.0364 0
M  V30 353 H 34.5982 2.03532 5.13107 0
M  V30 354 H 35.0752 0.524155 4.36061 0
M  V30 355 H 35.6812 2.06741 3.7167 0
M  V30 356 N 33.9963 -1.19345 1.0293 0
M  V30 357 C 35.2433 -1.89038 0.726008 0
M  V30 358 C 35.5713 -1.79649 -0.745427 0
M  V30 359 O 34.8263 -1.18354 -1.55855 0
M  V30 360 C 35.1253 -3.39292 1.12319 0
M  V30 361 C 34.7913 -3.68885 2.59297 0
M  V30 362 C 33.4533 -3.76671 2.99453 0
M  V30 363 C 35.8053 -3.82178 3.54386 0
M  V30 364 C 33.1333 -3.9522 4.33611 0
M  V30 365 C 35.4853 -4.0224 4.88248 0
M  V30 366 C 34.1493 -4.08259 5.28092 0
M  V30 367 H 33.4193 -0.691739 0.265665 0
M  V30 368 H 36.0663 -1.41328 1.29223 0
M  V30 369 H 34.3713 -3.88903 0.475584 0
M  V30 370 H 36.0683 -3.91536 0.866037 0
M  V30 371 H 32.6583 -3.63433 2.27189 0
M  V30 372 H 36.8423 -3.75505 3.24514 0
M  V30 373 H 32.0983 -3.98119 4.64016 0
M  V30 374 H 36.2723 -4.11468 5.61843 0
M  V30 375 H 33.8993 -4.22384 6.32057 0
M  V30 376 N 35.4744 -0.807222 -1.35358 0
M  V30 377 C 36.6994 -0.399309 -2.0352 0
M  V30 378 C 37.1244 0.981986 -1.60433 0
M  V30 379 O 36.4824 1.63601 -0.781299 0
M  V30 380 C 36.5304 -0.491552 -3.57234 0
M  V30 381 O 35.6344 0.494754 -4.09421 0
M  V30 382 H 34.9754 -0.166682 -0.642739 0
M  V30 383 H 37.5054 -1.09328 -1.72941 0
M  V30 384 H 37.5154 -0.361588 -4.06395 0
M  V30 385 H 36.1904 -1.49907 -3.87944 0
M  V30 386 H 34.7674 0.324977 -3.71481 0
M  V30 387 N 36.9525 1.47285 -0.560781 0
M  V30 388 C 38.2005 2.02064 -0.0379868 0
M  V30 389 C 38.5215 1.43711 1.31803 0
M  V30 390 O 37.7915 0.61362 1.86042 0
M  V30 391 H 36.3715 0.746918 -0.0110531 0
M  V30 392 H 39.0335 1.80648 -0.731598 0
M  V30 393 H 38.1295 3.12064 0.0474463 0
M  V30 394 N 38.4306 0.297415 1.54768 0
M  V30 395 C 39.6776 -0.312913 2.00068 0
M  V30 396 C 40.0056 -1.54171 1.18582 0
M  V30 397 O 39.2606 -1.94108 0.249133 0
M  V30 398 C 39.5596 -0.717561 3.50123 0
M  V30 399 C 39.2256 0.409095 4.4904 0
M  V30 400 C 37.8876 0.718399 4.75807 0
M  V30 401 C 40.2396 1.16717 5.07963 0
M  V30 402 C 37.5676 1.78896 5.5876 0
M  V30 403 C 39.9196 2.22762 5.92081 0
M  V30 404 C 38.5836 2.54303 6.1716 0
M  V30 405 H 37.8536 -0.114503 0.7321 0
M  V30 406 H 40.5006 0.415767 1.86932 0
M  V30 407 H 38.8056 -1.52627 3.60849 0
M  V30 408 H 40.5026 -1.20091 3.82595 0
M  V30 409 H 37.0926 0.157918 4.28309 0
M  V30 410 H 41.2766 0.941466 4.87289 0
M  V30 411 H 36.5326 2.0381 5.7643 0
M  V30 412 H 40.7066 2.81962 6.36765 0
M  V30 413 H 38.3336 3.3739 6.81229 0
M  V30 414 N 39.9087 -1.5758 0.0250728 0
M  V30 415 C 41.1337 -1.96337 -0.668317 0
M  V30 416 C 41.5587 -0.901314 -1.651 0
M  V30 417 O 40.9167 0.138187 -1.80773 0
M  V30 418 C 40.9647 -3.34191 -1.35457 0
M  V30 419 O 40.0687 -3.30269 -2.46974 0
M  V30 420 H 39.4097 -0.640281 -0.175887 0
M  V30 421 H 41.9397 -2.0442 0.0857224 0
M  V30 422 H 41.9497 -3.70331 -1.71228 0
M  V30 423 H 40.6247 -4.11036 -0.634218 0
M  V30 424 H 39.2017 -3.05841 -2.13344 0
M  V30 425 N 41.3868 0.248026 -1.55636 0
M  V30 426 C 42.3168 1.31079 -1.93237 0
M  V30 427 C 43.2978 1.50264 -0.797174 0
M  V30 428 O 44.4828 1.62891 -1.05737 0
M  V30 429 C 41.6128 2.66575 -2.22609 0
M  V30 430 C 40.5668 2.62087 -3.3837 0
M  V30 431 C 39.8928 4.01369 -3.53281 0
M  V30 432 C 41.1928 2.19171 -4.7409 0
M  V30 433 H 42.8868 0.998556 -2.82257 0
M  V30 434 H 40.4328 0.47891 -1.35803 0
M  V30 435 H 42.3858 3.41057 -2.47503 0
M  V30 436 H 41.1098 2.99432 -1.30414 0
M  V30 437 H 39.7688 1.90063 -3.13483 0
M  V30 438 H 39.4168 4.31489 -2.58508 0
M  V30 439 H 39.1168 3.99254 -4.31127 0
M  V30 440 H 40.6408 4.77552 -3.80495 0
M  V30 441 H 42.0548 2.83384 -4.98363 0
M  V30 442 H 40.4518 2.2817 -5.5503 0
M  V30 443 H 41.5218 1.14336 -4.71227 0
M  V30 444 N 42.8649 1.48995 0.513639 0
M  V30 445 C 44.0899 1.61792 1.29762 0
M  V30 446 C 44.5149 0.284475 1.85936 0
M  V30 447 O 43.8729 -0.746185 1.65232 0
M  V30 448 C 43.9209 2.67993 2.41272 0
M  V30 449 O 43.0249 2.26287 3.44772 0
M  V30 450 H 42.3659 0.541963 0.38363 0
M  V30 451 H 44.8959 1.95097 0.616307 0
M  V30 452 H 44.9059 2.89772 2.87221 0
M  V30 453 H 43.5809 3.64791 1.9975 0
M  V30 454 H 42.1579 2.14788 3.04829 0
M  V30 455 N 44.343 -0.763751 1.37857 0
M  V30 456 C 45.571 -1.55293 1.36718 0
M  V30 457 C 45.986 -1.88745 -0.0455434 0
M  V30 458 O 45.343 -1.52039 -1.00947 0
M  V30 459 C 45.394 -2.85831 2.2132 0
M  V30 460 O 45.115 -2.5381 3.57089 0
M  V30 461 C 46.616 -3.80023 2.28249 0
M  V30 462 H 43.836 -0.480841 0.468009 0
M  V30 463 H 46.38 -0.946009 1.81303 0
M  V30 464 H 44.535 -3.42926 1.80223 0
M  V30 465 H 44.949 -3.37459 4.01524 0
M  V30 466 H 46.423 -4.68599 2.91752 0
M  V30 467 H 46.9 -4.1973 1.2932 0
M  V30 468 H 47.506 -3.28855 2.69693 0
M  V30 469 N 45.8211 -1.22559 -0.990812 0
M  V30 470 C 47.0461 -1.07862 -1.77145 0
M  V30 471 C 47.4711 0.366447 -1.84496 0
M  V30 472 O 46.8291 1.26478 -1.29896 0
M  V30 473 C 46.8771 -1.69686 -3.18181 0
M  V30 474 O 45.9811 -0.951946 -4.01263 0
M  V30 475 H 45.3221 -0.378712 -0.545411 0
M  V30 476 H 47.8521 -1.62399 -1.2445 0
M  V30 477 H 47.8621 -1.74496 -3.68802 0
M  V30 478 H 46.5371 -2.74841 -3.12146 0
M  V30 479 H 45.1141 -0.980011 -3.59792 0
M  V30 480 N 47.2992 1.18797 -1.03562 0
M  V30 481 C 48.5472 1.88278 -0.734569 0
M  V30 482 C 48.8682 1.8043 0.739586 0
M  V30 483 O 48.1382 1.21925 1.53333 0
M  V30 484 H 46.7182 0.696991 -0.268725 0
M  V30 485 H 49.3802 1.44192 -1.31129 0
M  V30 486 H 48.4762 2.94443 -1.03489 0
M  V30 487 N 48.7773 0.814389 1.34928 0
M  V30 488 C 49.7103 0.175641 2.27523 0
M  V30 489 C 50.6883 -0.662953 1.48471 0
M  V30 490 O 51.8723 -0.628545 1.77712 0
M  V30 491 C 48.9993 -0.755516 3.30166 0
M  V30 492 C 48.0453 0.00445305 4.265 0
M  V30 493 S 48.8783 1.34582 5.18313 0
M  V30 494 C 50.0343 0.419315 6.24494 0
M  V30 495 H 50.2673 0.960691 2.8135 0
M  V30 496 H 47.8003 0.609846 1.41846 0
M  V30 497 H 49.7583 -1.28723 3.89796 0
M  V30 498 H 48.4193 -1.51402 2.75202 0
M  V30 499 H 47.6123 -0.703077 4.99072 0
M  V30 500 H 47.2143 0.466447 3.7108 0
M  V30 501 H 49.5063 -0.392432 6.76362 0
M  V30 502 H 50.4493 1.11446 6.99275 0
M  V30 503 H 50.8573 0.0115389 5.64499 0
M  V30 504 N 50.2554 -1.46986 0.568584 0
M  V30 505 C 51.4804 -2.07335 0.0520528 0
M  V30 506 C 51.9054 -1.41675 -1.23733 0
M  V30 507 O 51.2634 -0.495623 -1.74394 0
M  V30 508 C 51.3114 -3.60417 -0.11501 0
M  V30 509 O 50.4154 -3.95309 -1.17492 0
M  V30 510 H 49.7564 -0.661597 0.0564385 0
M  V30 511 H 52.2864 -1.88837 0.787507 0
M  V30 512 H 52.2964 -4.06698 -0.325644 0
M  V30 513 H 50.9714 -4.07601 0.826675 0
M  V30 514 H 49.5484 -3.60757 -0.943869 0
M  V30 515 N 51.7335 -0.305618 -1.54608 0
M  V30 516 C 52.9795 0.302746 -2.00528 0
M  V30 517 C 53.3125 1.53184 -1.19367 0
M  V30 518 O 52.5875 1.92598 -0.271321 0
M  V30 519 C 52.8705 0.654756 -3.54097 0
M  V30 520 C 52.7235 -0.583793 -4.45995 0
M  V30 521 C 54.0425 1.47947 -4.14487 0
M  V30 522 H 51.1615 0.108564 -0.72896 0
M  V30 523 H 53.8035 -0.418634 -1.85331 0
M  V30 524 H 51.9535 1.26935 -3.67178 0
M  V30 525 H 53.6255 -1.22224 -4.44814 0
M  V30 526 H 51.8685 -1.21615 -4.16404 0
M  V30 527 H 52.5395 -0.293287 -5.5122 0
M  V30 528 H 55.0155 0.96013 -4.04871 0
M  V30 529 H 53.8915 1.69454 -5.22088 0
M  V30 530 H 54.1525 2.47011 -3.66658 0
M  V30 531 N 53.2116 1.57565 -0.0334293 0
M  V30 532 C 54.4596 1.91598 0.642999 0
M  V30 533 C 54.7806 0.910847 1.7242 0
M  V30 534 O 54.0506 -0.0469931 1.95844 0
M  V30 535 H 52.6306 0.707228 0.240496 0
M  V30 536 H 55.2926 1.94726 -0.0822488 0
M  V30 537 H 54.3886 2.92336 1.09298 0
M  V30 538 N 54.6897 -0.239769 1.55765 0
M  V30 539 C 55.9357 -0.963942 1.79108 0
M  V30 540 C 56.2907 -1.82689 0.60352 0
M  V30 541 O 55.5837 -1.87313 -0.403033 0
M  V30 542 C 55.7777 -1.852 3.05672 0
M  V30 543 C 55.6067 -1.07651 4.36625 0
M  V30 544 C 54.3767 -0.778738 4.99263 0
M  V30 545 C 56.5747 -0.45062 5.12322 0
M  V30 546 N 54.5567 0.0200708 6.13897 0
M  V30 547 C 55.9277 0.212429 6.19636 0
M  V30 548 C 57.9827 -0.361806 4.96584 0
M  V30 549 C 56.6857 0.955772 7.12922 0
M  V30 550 C 58.7117 0.368023 5.90254 0
M  V30 551 C 58.0737 1.01968 6.96981 0
M  V30 552 H 54.1727 -0.333601 0.707272 0
M  V30 553 H 56.7567 -0.236425 1.93259 0
M  V30 554 H 54.9277 -2.55149 2.92837 0
M  V30 555 H 56.6597 -2.51228 3.1728 0
M  V30 556 H 53.4147 -1.09229 4.60832 0
M  V30 557 H 53.8387 0.407777 6.75771 0
M  V30 558 H 58.4807 -0.851286 4.14141 0
M  V30 559 H 56.1987 1.45683 7.9486 0
M  V30 560 H 59.7847 0.437504 5.80153 0
M  V30 561 H 58.6647 1.5754 7.68213 0
M  V30 562 N 56.1678 -1.49265 -0.50573 0
M  V30 563 C 57.4168 -1.57761 -1.25675 0
M  V30 564 C 57.7298 -0.267371 -1.93764 0
M  V30 565 O 58.9358 -0.230827 -2.70517 0
M  V30 566 C 57.3918 -2.78332 -2.28165 0
M  V30 567 C 56.9998 -4.16096 -1.66037 0
M  V30 568 C 58.7438 -2.96155 -3.04125 0
M  V30 569 C 56.6508 -5.27895 -2.6661 0
M  V30 570 H 55.5808 -0.587391 -0.472745 0
M  V30 571 H 58.2318 -1.75644 -0.53118 0
M  V30 572 H 56.6138 -2.53934 -3.03865 0
M  V30 573 H 57.7878 -4.50612 -0.963622 0
M  V30 574 H 56.1028 -4.03591 -1.02484 0
M  V30 575 H 58.6998 -3.76849 -3.79327 0
M  V30 576 H 59.0428 -2.06534 -3.61455 0
M  V30 577 H 59.5758 -3.2057 -2.35541 0
M  V30 578 H 56.3148 -6.1956 -2.14068 0
M  V30 579 H 55.8348 -4.97839 -3.34539 0
M  V30 580 H 57.5138 -5.57031 -3.29129 0
M  V30 581 N 57.6459 0.756429 -1.3826 0
M  V30 582 C 59.0619 1.0591 -1.19395 0
M  V30 583 C 59.2619 2.01459 -0.0406567 0
M  V30 584 O 58.3179 2.44909 0.614467 0
M  V30 585 C 59.6309 1.64191 -2.51916 0
M  V30 586 C 61.1789 1.76376 -2.58574 0
M  V30 587 C 61.6539 2.38069 -3.91264 0
M  V30 588 N 63.1449 2.45503 -3.92788 0
M  V30 589 C 63.8799 2.94126 -4.92217 0
M  V30 590 N 63.3759 3.42805 -6.02043 0
M  V30 591 N 65.1689 2.9314 -4.7961 0
M  V30 592 H 57.3199 0.122313 -2.12048 0
M  V30 593 H 59.5829 0.116892 -0.940766 0
M  V30 594 H 59.2889 1.01451 -3.3675 0
M  V30 595 H 59.1629 2.6329 -2.70108 0
M  V30 596 H 61.5499 2.38244 -1.74137 0
M  V30 597 H 61.6309 0.759894 -2.44252 0
M  V30 598 H 61.2749 1.76835 -4.76121 0
M  V30 599 H 61.2049 3.39091 -4.02895 0
M  V30 600 H 63.6959 2.1107 -3.13461 0
M  V30 601 H 64.0089 3.78354 -6.73846 0
M  V30 602 H 62.3539 3.4087 -6.05667 0
M  V30 603 H 65.5449 2.54419 -3.92923 0
M  V30 604 H 65.7179 3.30721 -5.5725 0
M  V30 605 N 59.124 1.23083 0.984299 0
M  V30 606 C 60.056 0.96636 2.07832 0
M  V30 607 C 61.069 -0.0582135 1.62696 0
M  V30 608 O 62.258 0.176843 1.77622 0
M  V30 609 C 59.358 0.433397 3.36117 0
M  V30 610 C 58.531 1.51722 4.10243 0
M  V30 611 C 57.59 0.989821 5.16807 0
M  V30 612 O 56.616 1.67794 5.43906 0
M  V30 613 N 57.818 -0.184367 5.80207 0
M  V30 614 H 60.583 1.90824 2.31098 0
M  V30 615 H 58.144 1.13888 1.1507 0
M  V30 616 H 60.136 0.065699 4.04647 0
M  V30 617 H 58.706 -0.413806 3.09849 0
M  V30 618 H 57.926 2.05786 3.36223 0
M  V30 619 H 59.214 2.24619 4.56534 0
M  V30 620 H 58.612 -0.760062 5.60571 0
M  V30 621 H 57.169 -0.493366 6.4993 0
M  V30 622 N 60.6021 -1.18246 1.0419 0
M  V30 623 C 62.0131 -1.69914 0.773698 0
M  V30 624 C 62.3641 -1.83085 -0.705297 0
M  V30 625 O 61.4891 -1.51123 -1.5489 0
M  V30 626 C 62.0841 -3.08619 1.39784 0
M  V30 627 C 60.6431 -3.57494 1.17792 0
M  V30 628 C 59.7901 -2.34013 1.48773 0
M  V30 629 H 62.7411 -1.02904 1.20816 0
M  V30 630 H 62.7621 -3.71958 0.801714 0
M  V30 631 H 62.2741 -2.99001 2.47426 0
M  V30 632 H 60.3751 -3.72406 0.120295 0
M  V30 633 H 60.4881 -4.40852 1.87581 0
M  V30 634 H 58.8521 -2.37986 0.907463 0
M  V30 635 H 59.6351 -2.27013 2.57527 0
M  V30 636 N 62.0802 -0.821533 -1.34494 0
M  V30 637 C 63.4912 -0.467956 -1.8074 0
M  V30 638 C 63.8422 1.01151 -1.68116 0
M  V30 639 O 62.9672 1.78707 -1.22036 0
M  V30 640 C 63.5622 -0.842627 -3.28154 0
M  V30 641 C 62.1212 -0.541439 -3.72485 0
M  V30 642 C 61.2682 -1.06028 -2.56229 0
M  V30 643 H 64.2192 -1.01183 -1.22261 0
M  V30 644 H 64.2402 -0.145876 -3.8022 0
M  V30 645 H 63.7522 -1.91945 -3.37311 0
M  V30 646 H 61.8532 0.526034 -3.68868 0
M  V30 647 H 61.9662 -1.08453 -4.66663 0
M  V30 648 H 60.3302 -0.481892 -2.501 0
M  V30 649 H 61.1132 -2.14352 -2.68157 0
M  V30 650 N 63.5583 1.46682 -0.576371 0
M  V30 651 C 64.8063 2.02013 -0.0594163 0
M  V30 652 C 65.1273 1.45101 1.30271 0
M  V30 653 O 64.3973 0.633317 1.8538 0
M  V30 654 H 62.9773 0.746759 -0.0189745 0
M  V30 655 H 65.6393 1.79862 -0.750717 0
M  V30 656 H 64.7353 3.12097 0.014345 0
M  V30 657 N 65.0364 0.313813 1.54444 0
M  V30 658 C 65.9834 -0.55655 2.23989 0
M  V30 659 C 66.9534 -1.11943 1.22711 0
M  V30 660 O 68.1384 -1.16158 1.51367 0
M  V30 661 C 65.2784 -1.71635 2.99392 0
M  V30 662 C 64.3914 -1.18364 4.15468 0
M  V30 663 C 63.5264 -2.30834 4.78424 0
M  V30 664 C 62.5654 -1.74762 5.86622 0
M  V30 665 N 61.7024 -2.80855 6.43479 0
M  V30 666 H 66.5424 0.0430893 2.97969 0
M  V30 667 H 64.0794 0.0330359 1.47063 0
M  V30 668 H 66.0374 -2.39868 3.41349 0
M  V30 669 H 64.6674 -2.28742 2.27765 0
M  V30 670 H 63.7194 -0.393163 3.78363 0
M  V30 671 H 65.0314 -0.733262 4.93381 0
M  V30 672 H 64.1854 -3.0699 5.23299 0
M  V30 673 H 62.9244 -2.79204 3.99871 0
M  V30 674 H 61.9294 -0.970995 5.41158 0
M  V30 675 H 63.1544 -1.2728 6.67066 0
M  V30 676 H 61.1004 -3.28535 5.67804 0
M  V30 677 H 61.0174 -2.40351 7.16776 0
M  V30 678 H 62.2854 -3.5687 6.93011 0
M  V30 679 N 66.5145 -1.57545 0.0417849 0
M  V30 680 C 67.4775 -2.09885 -0.92093 0
M  V30 681 C 68.4775 -1.01648 -1.24596 0
M  V30 682 O 69.6675 -1.27759 -1.1842 0
M  V30 683 C 66.7995 -2.57527 -2.23367 0
M  V30 684 H 67.9925 -2.96236 -0.467382 0
M  V30 685 H 65.5455 -1.5493 -0.206467 0
M  V30 686 H 66.2805 -1.74542 -2.73323 0
M  V30 687 H 66.0655 -3.36613 -2.01083 0
M  V30 688 H 67.5555 -2.98201 -2.92346 0
M  V30 689 N 67.9926 0.231505 -1.5589 0
M  V30 690 C 68.9226 1.29022 -1.94617 0
M  V30 691 C 69.9036 1.4941 -0.813067 0
M  V30 692 O 71.0886 1.6176 -1.07459 0
M  V30 693 C 68.2186 2.64199 -2.25424 0
M  V30 694 C 67.1726 2.58484 -3.41131 0
M  V30 695 C 66.4986 3.97599 -3.57518 0
M  V30 696 C 67.7986 2.1413 -4.76388 0
M  V30 697 H 69.4926 0.968563 -2.83301 0
M  V30 698 H 67.0386 0.464479 -1.36303 0
M  V30 699 H 68.9916 3.38413 -2.51107 0
M  V30 700 H 67.7156 2.98032 -1.33583 0
M  V30 701 H 66.3746 1.86727 -3.15481 0
M  V30 702 H 66.0226 4.28723 -2.6307 0
M  V30 703 H 65.7226 3.94659 -4.35337 0
M  V30 704 H 67.2466 4.7349 -3.85538 0
M  V30 705 H 68.6606 2.78083 -5.01341 0
M  V30 706 H 67.0576 2.2227 -5.57419 0
M  V30 707 H 68.1276 1.09331 -4.72414 0
M  V30 708 N 69.4707 1.49531 0.497807 0
M  V30 709 C 70.3807 1.69176 1.62532 0
M  V30 710 C 71.3967 0.5744 1.64246 0
M  V30 711 O 72.5727 0.849497 1.82608 0
M  V30 712 C 69.6377 1.75695 2.98885 0
M  V30 713 C 68.6987 2.9929 3.07773 0
M  V30 714 C 67.9317 3.05488 4.37622 0
M  V30 715 O 68.1547 2.19192 5.26603 0
M  V30 716 O 67.0887 3.9798 4.51548 0
M  V30 717 H 70.9147 2.647 1.48887 0
M  V30 718 H 68.4997 1.3331 0.674441 0
M  V30 719 H 70.3817 1.82317 3.79919 0
M  V30 720 H 69.0567 0.8335 3.12785 0
M  V30 721 H 67.9637 2.98183 2.25915 0
M  V30 722 H 69.2967 3.91125 2.98801 0
M  V30 723 N 70.9488 -0.749086 1.3866 0
M  V30 724 C 72.1948 -1.50959 1.36319 0
M  V30 725 C 72.5498 -1.92347 -0.0452451 0
M  V30 726 O 71.8428 -1.6289 -1.00884 0
M  V30 727 C 72.0368 -2.7712 2.25697 0
M  V30 728 C 71.8658 -2.48067 3.7509 0
M  V30 729 C 70.6358 -2.41062 4.44091 0
M  V30 730 C 72.8338 -2.14544 4.67414 0
M  V30 731 N 70.8158 -2.04331 5.78897 0
M  V30 732 C 72.1868 -1.88141 5.90765 0
M  V30 733 C 74.2418 -2.00892 4.55573 0
M  V30 734 C 72.9448 -1.49463 7.036 0
M  V30 735 C 74.9708 -1.63616 5.68317 0
M  V30 736 C 74.3328 -1.38088 6.90732 0
M  V30 737 H 70.4318 -0.551804 0.554108 0
M  V30 738 H 73.0158 -0.871886 1.74087 0
M  V30 739 H 71.1868 -3.38693 1.9011 0
M  V30 740 H 72.9188 -3.4321 2.1445 0
M  V30 741 H 69.6738 -2.57685 3.9736 0
M  V30 742 H 70.0978 -1.88598 6.502 0
M  V30 743 H 74.7398 -2.19301 3.61479 0
M  V30 744 H 72.4578 -1.29794 7.97608 0
M  V30 745 H 76.0438 -1.53678 5.61137 0
M  V30 746 H 74.9238 -1.09674 7.76493 0
M  V30 747 N 72.4269 -1.23603 -0.977757 0
M  V30 748 C 73.3569 -1.04401 -2.0886 0
M  V30 749 C 74.3379 0.0399052 -1.70053 0
M  V30 750 O 75.5229 -0.125246 -1.93796 0
M  V30 751 C 72.6529 -0.637269 -3.41403 0
M  V30 752 C 71.6069 -1.66883 -3.94124 0
M  V30 753 C 70.9329 -1.11745 -5.22893 0
M  V30 754 C 72.2329 -3.06247 -4.23096 0
M  V30 755 H 73.9269 -1.97316 -2.25182 0
M  V30 756 H 71.4729 -0.950096 -1.08209 0
M  V30 757 H 73.4259 -0.48998 -4.18542 0
M  V30 758 H 72.1499 0.327557 -3.24953 0
M  V30 759 H 70.8089 -1.80416 -3.19133 0
M  V30 760 H 70.4569 -0.143527 -5.02795 0
M  V30 761 H 70.1569 -1.80672 -5.59134 0
M  V30 762 H 71.6809 -0.982067 -6.02651 0
M  V30 763 H 73.0949 -2.96001 -4.90975 0
M  V30 764 H 71.4919 -3.72436 -4.70544 0
M  V30 765 H 72.5619 -3.55041 -3.30263 0
M  V30 766 N 73.905 1.17692 -1.04816 0
M  V30 767 C 74.868 2.19787 -0.650117 0
M  V30 768 C 75.868 1.58044 0.296427 0
M  V30 769 O 77.058 1.74012 0.0808097 0
M  V30 770 C 74.19 3.40869 0.0456987 0
M  V30 771 H 75.383 2.56516 -1.5537 0
M  V30 772 H 72.936 1.31708 -0.841594 0
M  V30 773 H 73.671 3.09681 0.962726 0
M  V30 774 H 73.456 3.86928 -0.634727 0
M  V30 775 H 74.946 4.16445 0.310432 0
M  V30 776 N 75.3831 0.828654 1.34056 0
M  V30 777 C 76.6601 0.341809 1.9259 0
M  V30 778 C 77.0401 -1.17158 1.75605 0
M  V30 779 O 76.3881 -1.98132 1.13824 0
M  V30 780 C 76.5981 0.777453 3.4023 0
M  V30 781 C 77.9461 0.779579 4.17382 0
M  V30 782 O 78.9701 0.7204 3.48839 0
M  V30 783 O 77.8291 0.857996 5.39723 0
M  V30 784 H 74.9231 0.0946085 0.821571 0
M  V30 785 H 77.4691 0.913827 1.42994 0
M  V30 786 H 76.2411 1.8196 3.46419 0
M  V30 787 H 75.8641 0.181444 3.97186 0
M  V30 788 N 76.8612 -1.46375 0.584142 0
M  V30 789 C 78.1102 -2.01585 0.0679741 0
M  V30 790 C 78.4232 -1.46109 -1.30045 0
M  V30 791 O 79.6292 -1.93148 -1.90804 0
M  V30 792 C 78.0852 -3.5983 0.0709207 0
M  V30 793 C 77.6932 -4.24303 1.43775 0
M  V30 794 C 79.4372 -4.22693 -0.391228 0
M  V30 795 C 77.3442 -5.74631 1.39834 0
M  V30 796 H 76.2742 -0.753689 0.0216421 0
M  V30 797 H 78.9252 -1.68093 0.736001 0
M  V30 798 H 77.3072 -3.90405 -0.663299 0
M  V30 799 H 78.4812 -4.05335 2.19181 0
M  V30 800 H 76.7962 -3.73539 1.84004 0
M  V30 801 H 79.3932 -5.3289 -0.439524 0
M  V30 802 H 79.7362 -3.91728 -1.40906 0
M  V30 803 H 80.2692 -3.96749 0.288974 0
M  V30 804 H 77.0082 -6.10258 2.39303 0
M  V30 805 H 76.5282 -5.95858 0.686505 0
M  V30 806 H 78.2072 -6.37375 1.11187 0
M  V30 807 N 78.3393 -0.321999 -1.54275 0
M  V30 808 C 79.5853 0.274234 -2.01543 0
M  V30 809 C 79.9403 1.499 -1.20614 0
M  V30 810 O 79.2333 1.89546 -0.279804 0
M  V30 811 C 79.4273 0.661769 -3.5122 0
M  V30 812 C 79.2563 -0.523892 -4.46638 0
M  V30 813 C 78.0263 -1.02251 -4.94846 0
M  V30 814 C 80.2243 -1.37558 -4.95563 0
M  V30 815 N 78.2063 -2.17274 -5.74165 0
M  V30 816 C 79.5773 -2.37301 -5.7279 0
M  V30 817 C 81.6323 -1.40353 -4.77709 0
M  V30 818 C 80.3353 -3.3964 -6.34064 0
M  V30 819 C 82.3613 -2.41562 -5.39817 0
M  V30 820 C 81.7233 -3.40031 -6.16894 0
M  V30 821 H 77.8223 0.0642367 -0.779357 0
M  V30 822 H 80.4063 -0.456683 -1.89268 0
M  V30 823 H 78.5773 1.36182 -3.63743 0
M  V30 824 H 80.3093 1.23934 -3.85256 0
M  V30 825 H 77.0643 -0.594046 -4.6986 0
M  V30 826 H 77.4883 -2.75289 -6.18502 0
M  V30 827 H 82.1303 -0.655907 -4.17681 0
M  V30 828 H 79.8483 -4.15309 -6.93213 0
M  V30 829 H 83.4343 -2.44524 -5.2792 0
M  V30 830 H 82.3143 -4.17063 -6.64099 0
M  V30 831 N 79.8174 1.5752 -0.0501392 0
M  V30 832 C 81.0634 1.93755 0.618901 0
M  V30 833 C 81.4184 0.928514 1.68512 0
M  V30 834 O 80.7114 -0.0524613 1.91528 0
M  V30 835 C 80.9054 3.34467 1.25963 0
M  V30 836 C 80.7344 4.48965 0.257 0
M  V30 837 C 79.5044 5.05075 -0.150656 0
M  V30 838 C 81.7024 5.11891 -0.497166 0
M  V30 839 N 79.6844 6.03104 -1.14626 0
M  V30 840 C 81.0554 6.05216 -1.34588 0
M  V30 841 C 83.1104 4.9479 -0.55559 0
M  V30 842 C 81.8134 6.83277 -2.24778 0
M  V30 843 C 83.8394 5.73477 -1.44492 0
M  V30 844 C 83.2014 6.66433 -2.28136 0
M  V30 845 H 79.3004 0.756479 0.198149 0
M  V30 846 H 81.8844 1.94316 -0.122229 0
M  V30 847 H 80.0554 3.34685 1.97079 0
M  V30 848 H 81.7874 3.57994 1.88739 0
M  V30 849 H 78.5424 4.7305 0.228094 0
M  V30 850 H 78.9664 6.56813 -1.64092 0
M  V30 851 H 83.6084 4.2273 0.0768625 0
M  V30 852 H 81.3264 7.54629 -2.89069 0
M  V30 853 H 84.9124 5.62273 -1.49468 0
M  V30 854 H 83.7924 7.26258 -2.95835 0
M  V30 855 N 81.2955 -0.223234 1.56011 0
M  V30 856 C 82.5725 -0.972108 1.69733 0
M  V30 857 C 82.9525 -2.02485 0.59691 0
M  V30 858 O 82.3005 -2.25037 -0.396324 0
M  V30 859 C 82.5105 -1.58407 3.10979 0
M  V30 860 C 83.8585 -2.07696 3.70334 0
M  V30 861 O 84.8825 -1.68304 3.1393 0
M  V30 862 O 83.7415 -2.80096 4.69264 0
M  V30 863 H 80.8355 -0.453993 0.691245 0
M  V30 864 H 83.3815 -0.215149 1.68331 0
M  V30 865 H 82.1535 -0.823831 3.82529 0
M  V30 866 H 81.7765 -2.40661 3.16493 0
M  V30 867 N 82.7736 -1.49793 -0.48987 0
M  V30 868 C 84.0506 -1.50348 -1.25119 0
M  V30 869 C 84.4306 -0.237466 -2.0976 0
M  V30 870 O 83.7786 0.77981 -2.14782 0
M  V30 871 C 83.9886 -2.78872 -2.09837 0
M  V30 872 C 85.3366 -3.288 -2.68655 0
M  V30 873 O 86.3606 -2.80065 -2.20096 0
M  V30 874 O 85.2196 -4.13707 -3.57083 0
M  V30 875 H 82.3136 -0.602242 -0.566775 0
M  V30 876 H 84.8596 -1.62067 -0.503229 0
M  V30 877 H 83.6316 -3.62499 -1.47343 0
M  V30 878 H 83.2546 -2.70066 -2.91805 0
M  V30 879 N 84.2517 0.741722 -1.39055 0
M  V30 880 C 85.1987 1.85566 -1.37237 0
M  V30 881 C 86.1687 1.64457 -0.233072 0
M  V30 882 O 87.3537 1.85957 -0.427147 0
M  V30 883 C 84.4937 3.23004 -1.215 0
M  V30 884 C 83.6067 3.55864 -2.44918 0
M  V30 885 C 82.7417 4.82669 -2.21821 0
M  V30 886 C 81.7807 5.08351 -3.40948 0
M  V30 887 N 80.9177 6.26356 -3.17211 0
M  V30 888 H 85.7577 1.86455 -2.32462 0
M  V30 889 H 83.2947 0.911176 -1.15482 0
M  V30 890 H 85.2527 4.02331 -1.10389 0
M  V30 891 H 83.8827 3.21411 -0.29908 0
M  V30 892 H 82.9347 2.7129 -2.66657 0
M  V30 893 H 84.2467 3.70765 -3.33668 0
M  V30 894 H 83.4007 5.69962 -2.07914 0
M  V30 895 H 82.1397 4.69929 -1.30454 0
M  V30 896 H 81.1447 4.19522 -3.55361 0
M  V30 897 H 82.3697 5.22981 -4.33207 0
M  V30 898 H 80.3157 6.14917 -2.28502 0
M  V30 899 H 80.2327 6.41813 -3.99515 0
M  V30 900 H 81.5007 7.16506 -3.06984 0
M  V30 901 N 85.7298 1.2412 0.971189 0
M  V30 902 C 86.6768 1.0305 2.06517 0
M  V30 903 C 87.6468 -0.0550666 1.66009 0
M  V30 904 O 88.8318 0.0988688 1.90544 0
M  V30 905 C 85.9718 0.637653 3.39158 0
M  V30 906 C 85.0848 1.79633 3.92882 0
M  V30 907 C 84.2198 1.34939 5.13775 0
M  V30 908 C 83.2588 2.47823 5.59687 0
M  V30 909 N 82.3958 2.04022 6.71803 0
M  V30 910 H 87.2358 1.96685 2.23873 0
M  V30 911 H 84.7728 0.979694 1.09729 0
M  V30 912 H 86.7308 0.390931 4.15364 0
M  V30 913 H 85.3608 -0.261693 3.21737 0
M  V30 914 H 84.4128 2.15681 3.13346 0
M  V30 915 H 85.7248 2.64466 4.22918 0
M  V30 916 H 84.8788 1.06134 5.97345 0
M  V30 917 H 83.6178 0.471557 4.85415 0
M  V30 918 H 82.6228 2.77392 4.74693 0
M  V30 919 H 83.8478 3.36158 5.90063 0
M  V30 920 H 81.7938 1.18632 6.45184 0
M  V30 921 H 81.7108 2.82409 7.01271 0
M  V30 922 H 82.9788 1.78347 7.58823 0
M  V30 923 N 87.2079 -1.17134 1.05439 0
M  V30 924 C 88.4849 -1.83411 0.679699 0
M  V30 925 C 88.8649 -1.9368 -0.839726 0
M  V30 926 O 88.2129 -1.47325 -1.74664 0
M  V30 927 C 88.4229 -3.20918 1.37159 0
M  V30 928 C 89.7709 -3.96796 1.51123 0
M  V30 929 O 90.7949 -3.30406 1.3308 0
M  V30 930 O 89.6539 -5.15778 1.80651 0
M  V30 931 H 86.7479 -0.79154 0.239569 0
M  V30 932 H 89.2939 -1.24411 1.15413 0
M  V30 933 H 88.0659 -3.08428 2.40807 0
M  V30 934 H 87.6889 -3.87587 0.886674 0
M  V30 935 N 88.686 -0.835752 -1.33615 0
M  V30 936 C 89.916 -0.442701 -2.01801 0
M  V30 937 C 90.324 0.959807 -1.63047 0
M  V30 938 O 89.667 1.63468 -0.838088 0
M  V30 939 C 89.729 -0.480125 -3.56279 0
M  V30 940 C 89.393 -1.8382 -4.18401 0
M  V30 941 C 90.39 -2.80097 -4.37998 0
M  V30 942 C 88.075 -2.13019 -4.54894 0
M  V30 943 C 90.069 -4.03736 -4.9323 0
M  V30 944 C 87.756 -3.36916 -5.09834 0
M  V30 945 C 88.754 -4.32091 -5.28948 0
M  V30 946 O 88.442 -5.53797 -5.82721 0
M  V30 947 H 88.174 -0.17441 -0.653114 0
M  V30 948 H 90.728 -1.129 -1.71589 0
M  V30 949 H 88.958 0.262931 -3.85805 0
M  V30 950 H 90.647 -0.105335 -4.05763 0
M  V30 951 H 91.413 -2.58838 -4.10156 0
M  V30 952 H 87.292 -1.39733 -4.39313 0
M  V30 953 H 90.836 -4.78034 -5.08064 0
M  V30 954 H 86.733 -3.58033 -5.37106 0
M  V30 955 H 87.501 -5.55494 -6.0114 0
M  V30 956 N 90.1641 1.46063 -0.591896 0
M  V30 957 C 91.1121 2.32124 0.148739 0
M  V30 958 C 92.1061 1.45035 0.875286 0
M  V30 959 O 93.3121 1.61609 0.792632 0
M  V30 960 H 89.6871 0.749024 0.066832 0
M  V30 961 H 91.6581 2.92392 -0.595783 0
M  V30 962 C 90.4071 3.28373 1.1431 0
M  V30 963 H 89.7301 3.95371 0.59346 0
M  V30 964 H 91.1701 3.91352 1.63155 0
M  V30 965 C 89.6291 2.54393 2.20875 0
M  V30 966 O 90.1591 2.31373 3.28374 0
M  V30 967 N 88.3651 2.14797 1.95731 0
M  V30 968 H 87.9121 2.33719 1.08319 0
M  V30 969 H 87.8701 1.65619 2.67241 0
M  V30 970 N 91.6422 0.330177 1.54103 0
M  V30 971 C 93.0532 -0.15652 1.86043 0
M  V30 972 C 93.4042 -1.51086 1.2517 0
M  V30 973 O 92.5292 -2.09023 0.560217 0
M  V30 974 C 93.1242 -0.290784 3.3755 0
M  V30 975 C 91.6832 -0.721705 3.69416 0
M  V30 976 C 90.8302 0.152622 2.7688 0
M  V30 977 H 93.7812 0.550237 1.48856 0
M  V30 978 H 93.8022 -1.12058 3.63625 0
M  V30 979 H 93.3142 0.695068 3.81825 0
M  V30 980 H 91.4152 -1.71706 3.30678 0
M  V30 981 H 91.5282 -0.520869 4.7626 0
M  V30 982 H 89.8922 -0.372894 2.51956 0
M  V30 983 H 90.6752 1.13536 3.23982 0
M  V30 984 N 93.1203 -1.57491 0.0584922 0
M  V30 985 C 94.3453 -1.97711 -0.62652 0
M  V30 986 C 94.7703 -0.936132 -1.63151 0
M  V30 987 O 94.1283 0.099811 -1.81025 0
M  V30 988 C 94.1763 -3.36989 -1.28338 0
M  V30 989 O 93.2803 -3.35433 -2.39913 0
M  V30 990 H 92.6213 -0.643868 -0.162266 0
M  V30 991 H 95.1513 -2.04193 0.129064 0
M  V30 992 H 95.1613 -3.73879 -1.63335 0
M  V30 993 H 93.8363 -4.12289 -0.546889 0
M  V30 994 H 92.4133 -3.10298 -2.06809 0
M  V30 995 N 94.5984 0.214957 -1.56127 0
M  V30 996 C 95.5284 1.2695 -1.95974 0
M  V30 997 C 96.5094 1.48539 -0.828868 0
M  V30 998 O 97.6944 1.60611 -1.09168 0
M  V30 999 C 94.8244 2.61794 -2.28214 0
M  V30 1000 C 93.7784 2.54851 -3.43853 0
M  V30 1001 C 93.1044 3.93785 -3.61715 0
M  V30 1002 C 94.4044 2.09065 -4.78632 0
M  V30 1003 H 96.0984 0.93846 -2.84312 0
M  V30 1004 H 93.6444 0.449996 -1.36788 0
M  V30 1005 H 95.5974 3.35731 -2.54682 0
M  V30 1006 H 94.3214 2.96599 -1.36736 0
M  V30 1007 H 92.9804 1.8337 -3.17444 0
M  V30 1008 H 92.6284 4.25908 -2.67602 0
M  V30 1009 H 92.3284 3.90019 -4.39498 0
M  V30 1010 H 93.8524 4.69374 -3.90539 0
M  V30 1011 H 95.2664 2.7275 -5.04262 0
M  V30 1012 H 93.6634 2.16346 -5.59745 0
M  V30 1013 H 94.7334 1.04315 -4.73547 0
M  V30 1014 N 96.0765 1.50051 0.48192 0
M  V30 1015 C 97.0235 1.68122 1.58125 0
M  V30 1016 C 97.9935 0.522545 1.57666 0
M  V30 1017 O 99.1785 0.751844 1.75362 0
M  V30 1018 C 96.3185 1.77142 2.96167 0
M  V30 1019 C 95.4315 3.0444 3.06497 0
M  V30 1020 C 94.5665 3.04321 4.35387 0
M  V30 1021 C 93.6055 4.26118 4.3942 0
M  V30 1022 N 92.7425 4.238 5.59766 0
M  V30 1023 H 97.5825 2.6198 1.42022 0
M  V30 1024 H 95.1195 1.29877 0.690687 0
M  V30 1025 H 97.0775 1.80352 3.76203 0
M  V30 1026 H 95.7075 0.867329 3.1093 0
M  V30 1027 H 94.7595 3.10752 2.19402 0
M  V30 1028 H 96.0715 3.94426 3.05336 0
M  V30 1029 H 95.2255 3.062 5.23762 0
M  V30 1030 H 93.9645 2.12147 4.39141 0
M  V30 1031 H 92.9695 4.24463 3.49444 0
M  V30 1032 H 94.1945 5.19507 4.37366 0
M  V30 1033 H 92.1405 3.34474 5.64326 0
M  V30 1034 H 92.0575 5.07542 5.60301 0
M  V30 1035 H 93.3255 4.2981 6.50295 0
M  V30 1036 N 97.5546 -0.734337 1.39446 0
M  V30 1037 C 98.7796 -1.52866 1.40167 0
M  V30 1038 C 99.2046 -1.881 -0.00171513 0
M  V30 1039 O 98.5626 -1.51957 -0.988879 0
M  V30 1040 C 98.6106 -2.79235 2.28167 0
M  V30 1041 O 97.7146 -3.75185 1.71201 0
M  V30 1042 H 97.0556 -0.461618 0.477289 0
M  V30 1043 H 99.5856 -0.905949 1.8345 0
M  V30 1044 H 99.5956 -3.27963 2.42702 0
M  V30 1045 H 98.2706 -2.52923 3.30156 0
M  V30 1046 H 96.8476 -3.33958 1.65912 0
M  V30 1047 N 99.0327 -1.24633 -0.964593 0
M  V30 1048 C 100.449 -1.01239 -1.2338 0
M  V30 1049 C 100.649 0.2769 -1.99588 0
M  V30 1050 O 99.7047 0.992241 -2.32187 0
M  V30 1051 C 101.018 -2.22937 -2.01791 0
M  V30 1052 C 102.566 -2.27594 -2.14872 0
M  V30 1053 C 103.041 -3.48921 -2.96678 0
M  V30 1054 N 104.532 -3.49257 -3.04259 0
M  V30 1055 C 105.267 -4.39795 -3.67924 0
M  V30 1056 N 104.763 -5.40591 -4.33281 0
M  V30 1057 N 106.556 -4.275 -3.64966 0
M  V30 1058 H 98.7067 -2.0748 -0.454502 0
M  V30 1059 H 100.97 -0.910647 -0.26349 0
M  V30 1060 H 100.676 -3.16587 -1.53184 0
M  V30 1061 H 100.55 -2.25306 -3.02518 0
M  V30 1062 H 102.937 -1.34473 -2.6268 0
M  V30 1063 H 103.018 -2.2925 -1.13482 0
M  V30 1064 H 102.662 -4.42359 -2.49562 0
M  V30 1065 H 102.592 -3.4451 -3.98272 0
M  V30 1066 H 105.083 -2.76337 -2.57771 0
M  V30 1067 H 105.396 -6.05904 -4.79687 0
M  V30 1068 H 103.741 -5.44475 -4.3194 0
M  V30 1069 H 106.932 -3.47987 -3.13086 0
M  V30 1070 H 107.105 -4.98258 -4.14298 0
M  V30 1071 N 100.511 1.16574 -1.06058 0
M  V30 1072 C 101.441 2.23057 -0.690488 0
M  V30 1073 C 102.422 1.67141 0.315901 0
M  V30 1074 O 103.607 1.93253 0.191556 0
M  V30 1075 C 100.737 3.47222 -0.073625 0
M  V30 1076 C 99.6908 4.16016 -1.00573 0
M  V30 1077 C 99.0168 5.34104 -0.252289 0
M  V30 1078 C 100.317 4.67264 -2.33371 0
M  V30 1079 H 102.011 2.54271 -1.58072 0
M  V30 1080 H 99.5568 1.22218 -0.76149 0
M  V30 1081 H 101.51 4.20939 0.19714 0
M  V30 1082 H 100.234 3.15302 0.85161 0
M  V30 1083 H 98.8928 3.44223 -1.2612 0
M  V30 1084 H 98.5408 4.98437 0.675988 0
M  V30 1085 H 98.2408 5.81072 -0.873455 0
M  V30 1086 H 99.7648 6.10599 0.0109857 0
M  V30 1087 H 101.179 5.32573 -2.12223 0
M  V30 1088 H 99.5758 5.24843 -2.90963 0
M  V30 1089 H 100.646 3.83602 -2.96611 0
M  V30 1090 N 101.989 0.842826 1.3317 0
M  V30 1091 C 103.217 0.454055 2.01856 0
M  V30 1092 C 103.632 -0.94587 1.63397 0
M  V30 1093 O 102.989 -1.61534 0.849302 0
M  V30 1094 C 103.04 0.569715 3.56982 0
M  V30 1095 O 102.761 1.91448 3.94055 0
M  V30 1096 C 104.262 0.178412 4.42941 0
M  V30 1097 H 101.482 0.17979 0.646465 0
M  V30 1098 H 104.026 1.1365 1.70012 0
M  V30 1099 H 102.181 -0.0648587 3.87346 0
M  V30 1100 H 102.595 1.90282 4.88767 0
M  V30 1101 H 104.069 0.310376 5.51127 0
M  V30 1102 H 104.546 -0.880056 4.30293 0
M  V30 1103 H 105.152 0.787579 4.17944 0
M  V30 1104 N 103.467 -1.45747 0.599634 0
M  V30 1105 C 104.716 -2.01502 0.0893511 0
M  V30 1106 C 105.029 -1.4748 -1.28488 0
M  V30 1107 O 106.235 -1.95161 -1.88745 0
M  V30 1108 C 104.691 -3.59735 0.109082 0
M  V30 1109 C 104.299 -4.22754 1.48267 0
M  V30 1110 C 106.043 -4.23085 -0.346374 0
M  V30 1111 C 103.95 -5.73115 1.45921 0
M  V30 1112 H 102.88 -0.753417 0.0296347 0
M  V30 1113 H 105.531 -1.67303 0.753788 0
M  V30 1114 H 103.913 -3.91087 -0.621854 0
M  V30 1115 H 105.087 -4.02987 2.23468 0
M  V30 1116 H 103.402 -3.71567 1.87955 0
M  V30 1117 H 105.999 -5.33327 -0.38298 0
M  V30 1118 H 106.342 -3.93201 -1.36743 0
M  V30 1119 H 106.875 -3.9642 0.331038 0
M  V30 1120 H 103.614 -6.07685 2.45762 0
M  V30 1121 H 103.134 -5.95097 0.749665 0
M  V30 1122 H 104.813 -6.3616 1.17941 0
M  V30 1123 N 104.945 -0.338344 -1.53925 0
M  V30 1124 C 106.17 0.263987 -2.05713 0
M  V30 1125 C 106.595 1.43847 -1.21201 0
M  V30 1126 O 105.953 1.79904 -0.224535 0
M  V30 1127 C 106.001 0.662 -3.54471 0
M  V30 1128 O 105.105 1.76265 -3.72833 0
M  V30 1129 H 104.446 0.0448722 -0.662482 0
M  V30 1130 H 106.976 -0.491048 -1.9862 0
M  V30 1131 H 106.986 0.940594 -3.9701 0
M  V30 1132 H 105.661 -0.196937 -4.15433 0
M  V30 1133 H 104.238 1.48173 -3.42198 0
M  V30 1134 N 106.423 1.57458 -0.0668435 0
M  V30 1135 C 107.37 2.12439 0.902122 0
M  V30 1136 C 108.34 1.03565 1.2986 0
M  V30 1137 O 109.525 1.312 1.38532 0
M  V30 1138 C 106.665 2.6865 2.16614 0
M  V30 1139 C 105.778 3.91663 1.82274 0
M  V30 1140 C 104.913 4.36134 3.0325 0
M  V30 1141 C 103.952 5.51808 2.64904 0
M  V30 1142 N 103.089 5.9126 3.78624 0
M  V30 1143 H 107.929 2.94934 0.426382 0
M  V30 1144 H 105.466 1.4575 0.198819 0
M  V30 1145 H 107.424 2.99346 2.90599 0
M  V30 1146 H 106.054 1.88928 2.61737 0
M  V30 1147 H 105.106 3.6746 0.983719 0
M  V30 1148 H 106.418 4.75693 1.50059 0
M  V30 1149 H 105.572 4.68465 3.85519 0
M  V30 1150 H 104.311 3.50948 3.38655 0
M  V30 1151 H 103.316 5.19133 1.81055 0
M  V30 1152 H 104.541 6.38722 2.30675 0
M  V30 1153 H 102.487 5.09024 4.138 0
M  V30 1154 H 102.404 6.70018 3.5016 0
M  V30 1155 H 103.672 6.28212 4.61486 0
M  V30 1156 N 107.901 -0.206675 1.56239 0
M  V30 1157 C 109.178 -0.954051 1.70755 0
M  V30 1158 C 109.558 -2.01841 0.618353 0
M  V30 1159 O 108.906 -2.25444 -0.372434 0
M  V30 1160 C 109.116 -1.551 3.12642 0
M  V30 1161 C 110.464 -2.03757 3.72516 0
M  V30 1162 O 111.488 -1.64965 3.15698 0
M  V30 1163 O 110.347 -2.75103 4.72208 0
M  V30 1164 H 107.441 -0.446636 0.696021 0
M  V30 1165 H 109.987 -0.197283 1.68549 0
M  V30 1166 H 108.759 -0.783212 3.83382 0
M  V30 1167 H 108.382 -2.37291 3.19028 0
M  V30 1168 N 109.379 -1.50304 -0.473955 0
M  V30 1169 C 110.607 -1.64902 -1.24959 0
M  V30 1170 C 111.022 -0.331198 -1.85872 0
M  V30 1171 O 110.379 0.68652 -1.69095 0
M  V30 1172 C 110.43 -2.73803 -2.36038 0
M  V30 1173 O 110.151 -4.00477 -1.77624 0
M  V30 1174 C 111.652 -2.99349 -3.26964 0
M  V30 1175 H 108.872 -0.554383 -0.378022 0
M  V30 1176 H 111.416 -1.9651 -0.566054 0
M  V30 1177 H 109.571 -2.44898 -3.00173 0
M  V30 1178 H 109.985 -4.60678 -2.5075 0
M  V30 1179 H 111.459 -3.79217 -4.01121 0
M  V30 1180 H 111.936 -2.10307 -3.85574 0
M  V30 1181 H 112.542 -3.29774 -2.68569 0
M  V30 1182 N 110.857 0.726932 -1.39834 0
M  V30 1183 C 112.082 1.52121 -1.40976 0
M  V30 1184 C 112.507 1.88098 -0.00826029 0
M  V30 1185 O 111.865 1.52479 0.980807 0
M  V30 1186 C 111.913 2.78021 -2.29644 0
M  V30 1187 O 111.017 3.74272 -1.73188 0
M  V30 1188 H 110.358 0.45908 -0.479731 0
M  V30 1189 H 112.888 0.896207 -1.83927 0
M  V30 1190 H 112.898 3.26671 -2.44438 0
M  V30 1191 H 111.573 2.51169 -3.31492 0
M  V30 1192 H 110.15 3.33073 -1.6768 0
M  V30 1193 N 112.336 1.25143 0.95797 0
M  V30 1194 C 113.283 1.05235 2.05412 0
M  V30 1195 C 114.253 -0.0374561 1.66058 0
M  V30 1196 O 115.438 0.119073 1.90428 0
M  V30 1197 C 112.578 0.673589 3.38462 0
M  V30 1198 C 111.691 1.8379 3.90954 0
M  V30 1199 C 110.826 1.40381 5.12315 0
M  V30 1200 C 109.865 2.53746 5.57027 0
M  V30 1201 N 109.002 2.11136 6.69601 0
M  V30 1202 H 113.842 1.99048 2.21774 0
M  V30 1203 H 111.379 0.991277 1.08683 0
M  V30 1204 H 113.337 0.434964 4.14926 0
M  V30 1205 H 111.967 -0.227554 3.21997 0
M  V30 1206 H 111.019 2.18992 3.11041 0
M  V30 1207 H 112.331 2.68937 4.20089 0
M  V30 1208 H 111.485 1.12464 5.96185 0
M  V30 1209 H 110.224 0.523015 4.84887 0
M  V30 1210 H 109.229 2.82412 4.71724 0
M  V30 1211 H 110.454 3.42398 5.86464 0
M  V30 1212 H 108.4 1.25468 6.4389 0
M  V30 1213 H 108.317 2.89832 6.98236 0
M  V30 1214 H 109.585 1.86385 7.56889 0
M  V30 1215 N 113.814 -1.1601 1.06675 0
M  V30 1216 C 114.762 -2.22586 0.675157 0
M  V30 1217 C 115.756 -1.66525 -0.310766 0
M  V30 1218 O 116.962 -1.79145 -0.175215 0
M  V30 1219 H 113.337 -0.724855 0.200223 0
M  V30 1220 H 115.308 -2.52899 1.58381 0
M  V30 1221 C 114.057 -3.47604 0.0817162 0
M  V30 1222 H 113.38 -3.91058 0.831484 0
M  V30 1223 H 114.82 -4.23718 -0.154708 0
M  V30 1224 C 113.279 -3.15718 -1.17576 0
M  V30 1225 O 113.809 -3.31878 -2.26318 0
M  V30 1226 N 112.015 -2.69816 -1.07923 0
M  V30 1227 H 111.562 -2.56866 -0.194293 0
M  V30 1228 H 111.52 -2.48855 -1.92141 0
M  V30 1229 N 115.292 -0.849877 -1.32721 0
M  V30 1230 C 116.224 -0.248332 -2.27851 0
M  V30 1231 C 117.237 0.577218 -1.52224 0
M  V30 1232 O 118.426 0.402489 -1.73903 0
M  V30 1233 C 115.526 0.668107 -3.32249 0
M  V30 1234 C 114.699 -0.120534 -4.37234 0
M  V30 1235 C 113.758 0.720932 -5.21238 0
M  V30 1236 O 112.784 0.156166 -5.68986 0
M  V30 1237 N 113.986 2.03647 -5.43607 0
M  V30 1238 H 116.751 -1.06575 -2.80111 0
M  V30 1239 H 114.312 -0.709395 -1.45531 0
M  V30 1240 H 116.304 1.23627 -3.85355 0
M  V30 1241 H 114.874 1.38621 -2.80184 0
M  V30 1242 H 114.094 -0.870108 -3.84477 0
M  V30 1243 H 115.382 -0.662406 -5.0447 0
M  V30 1244 H 114.78 2.51871 -5.06535 0
M  V30 1245 H 113.337 2.55287 -5.99727 0
M  V30 1246 N 116.77 1.45427 -0.607355 0
M  V30 1247 C 118.016 2.0254 -0.102607 0
M  V30 1248 C 118.349 1.47478 1.26348 0
M  V30 1249 O 117.624 0.64939 1.83339 0
M  V30 1250 C 117.907 3.60044 -0.0634347 0
M  V30 1251 C 117.76 4.2544 -1.46017 0
M  V30 1252 C 119.079 4.35646 0.624514 0
M  V30 1253 H 116.198 0.73598 -0.0387607 0
M  V30 1254 H 118.84 1.73284 -0.779282 0
M  V30 1255 H 116.99 3.85101 0.512808 0
M  V30 1256 H 118.662 4.11569 -2.08347 0
M  V30 1257 H 116.905 3.83849 -2.02094 0
M  V30 1258 H 117.576 5.34342 -1.385 0
M  V30 1259 H 120.052 4.15882 0.134723 0
M  V30 1260 H 118.928 5.45376 0.621028 0
M  V30 1261 H 119.189 4.08501 1.69055 0
M  V30 1262 N 118.248 0.346503 1.53744 0
M  V30 1263 C 119.494 -0.249473 2.0126 0
M  V30 1264 C 119.827 -1.49965 1.23386 0
M  V30 1265 O 119.102 -1.91811 0.32229 0
M  V30 1266 C 119.385 -0.560643 3.55709 0
M  V30 1267 C 119.238 0.701836 4.44291 0
M  V30 1268 C 120.557 -1.36905 4.18264 0
M  V30 1269 H 117.676 -0.0891987 0.731582 0
M  V30 1270 H 120.318 0.467624 1.84156 0
M  V30 1271 H 118.468 -1.17156 3.70414 0
M  V30 1272 H 120.14 1.33974 4.41417 0
M  V30 1273 H 118.383 1.32612 4.13033 0
M  V30 1274 H 119.054 0.43933 5.50249 0
M  V30 1275 H 121.53 -0.852448 4.07275 0
M  V30 1276 H 120.406 -1.55553 5.26398 0
M  V30 1277 H 120.667 -2.37203 3.73078 0
M  V30 1278 N 119.726 -1.57421 0.075193 0
M  V30 1279 C 120.656 -2.15942 -0.888324 0
M  V30 1280 C 121.637 -1.08737 -1.30806 0
M  V30 1281 O 122.822 -1.36787 -1.37851 0
M  V30 1282 C 119.952 -2.72379 -2.1547 0
M  V30 1283 C 118.906 -3.8478 -1.87425 0
M  V30 1284 C 118.232 -4.27834 -3.20721 0
M  V30 1285 C 119.532 -5.08869 -1.17684 0
M  V30 1286 H 121.226 -2.96705 -0.400799 0
M  V30 1287 H 118.772 -1.42723 -0.191342 0
M  V30 1288 H 120.725 -3.11965 -2.83295 0
M  V30 1289 H 119.449 -1.88841 -2.6647 0
M  V30 1290 H 118.108 -3.45703 -1.22004 0
M  V30 1291 H 117.756 -3.41214 -3.6957 0
M  V30 1292 H 117.456 -5.03605 -3.02746 0
M  V30 1293 H 118.98 -4.70039 -3.89738 0
M  V30 1294 H 120.394 -5.4575 -1.75584 0
M  V30 1295 H 118.791 -5.8994 -1.09956 0
M  V30 1296 H 119.861 -4.84648 -0.156453 0
M  V30 1297 N 121.204 0.198386 -1.56346 0
M  V30 1298 C 122.151 1.24589 -1.94284 0
M  V30 1299 C 123.121 1.454 -0.802997 0
M  V30 1300 O 124.306 1.58588 -1.06087 0
M  V30 1301 C 121.446 2.58631 -2.28482 0
M  V30 1302 C 120.559 2.45426 -3.55514 0
M  V30 1303 C 119.694 3.7215 -3.79049 0
M  V30 1304 C 118.733 3.53763 -4.99518 0
M  V30 1305 N 117.87 4.72491 -5.19323 0
M  V30 1306 H 122.71 0.915356 -2.83593 0
M  V30 1307 H 120.247 0.440629 -1.40346 0
M  V30 1308 H 122.205 3.3672 -2.46324 0
M  V30 1309 H 120.835 2.89734 -1.42317 0
M  V30 1310 H 119.887 1.58652 -3.45737 0
M  V30 1311 H 121.199 2.27772 -4.43758 0
M  V30 1312 H 120.353 4.58679 -3.97113 0
M  V30 1313 H 119.092 3.92754 -2.89129 0
M  V30 1314 H 118.097 2.65619 -4.8138 0
M  V30 1315 H 119.322 3.34607 -5.90944 0
M  V30 1316 H 117.268 4.93365 -4.3235 0
M  V30 1317 H 117.185 4.5765 -6.01741 0
M  V30 1318 H 118.453 5.6038 -5.41843 0
M  V30 1319 N 122.682 1.50554 0.465978 0
M  V30 1320 C 123.928 1.62038 1.21949 0
M  V30 1321 C 124.261 0.322116 1.9151 0
M  V30 1322 O 123.536 -0.676723 1.82348 0
M  V30 1323 C 123.819 2.80421 2.25912 0
M  V30 1324 C 123.672 4.20144 1.60622 0
M  V30 1325 C 124.991 2.94354 3.27176 0
M  V30 1326 H 122.11 0.589752 0.441998 0
M  V30 1327 H 124.752 1.82956 0.51257 0
M  V30 1328 H 122.902 2.62717 2.86203 0
M  V30 1329 H 124.574 4.49449 1.03889 0
M  V30 1330 H 122.817 4.24165 0.909211 0
M  V30 1331 H 123.488 4.98914 2.36196 0
M  V30 1332 H 125.964 3.10578 2.76913 0
M  V30 1333 H 124.84 3.788 3.97242 0
M  V30 1334 H 125.101 2.05186 3.916 0
M  V30 1335 N 124.16 -0.719506 1.40217 0
M  V30 1336 C 125.388 -1.50864 1.41589 0
M  V30 1337 C 125.803 -1.88794 0.0145275 0
M  V30 1338 O 125.16 -1.55174 -0.960594 0
M  V30 1339 C 125.211 -2.78646 2.30302 0
M  V30 1340 O 124.932 -2.42321 3.64983 0
M  V30 1341 C 126.433 -3.72569 2.40224 0
M  V30 1342 H 123.653 -0.465709 0.48307 0
M  V30 1343 H 126.197 -0.88785 1.84221 0
M  V30 1344 H 124.352 -3.37019 1.91042 0
M  V30 1345 H 124.766 -3.24514 4.12057 0
M  V30 1346 H 126.24 -4.5908 3.06512 0
M  V30 1347 H 126.717 -4.15403 1.42608 0
M  V30 1348 H 127.323 -3.20109 2.80019 0
M  V30 1349 N 125.638 -1.25649 -0.95132 0
M  V30 1350 C 126.586 -1.06118 -2.06982 0
M  V30 1351 C 127.58 0.00889169 -1.69398 0
M  V30 1352 O 128.786 -0.146988 -1.79399 0
M  V30 1353 H 125.161 -0.326248 -0.677544 0
M  V30 1354 H 127.132 -2.00932 -2.2061 0
M  V30 1355 C 125.881 -0.700145 -3.40578 0
M  V30 1356 H 125.204 -1.51537 -3.69968 0
M  V30 1357 H 126.644 -0.603211 -4.19687 0
M  V30 1358 C 125.103 0.59403 -3.31622 0
M  V30 1359 O 125.633 1.63522 -3.66911 0
M  V30 1360 N 123.839 0.58089 -2.84735 0
M  V30 1361 H 123.386 -0.266783 -2.56215 0
M  V30 1362 H 123.344 1.44695 -2.79125 0
M  V30 1363 N 127.117 1.15442 -1.07289 0
M  V30 1364 C 128.05 2.19135 -0.636798 0
M  V30 1365 C 129.028 1.58884 0.34562 0
M  V30 1366 O 130.212 1.86805 0.252195 0
M  V30 1367 C 127.339 3.38638 0.0650014 0
M  V30 1368 C 126.385 4.17412 -0.87576 0
M  V30 1369 S 127.218 4.79882 -2.37642 0
M  V30 1370 C 128.374 6.02753 -1.6864 0
M  V30 1371 H 128.607 2.55787 -1.51526 0
M  V30 1372 H 126.14 1.26394 -0.886793 0
M  V30 1373 H 128.098 4.07873 0.463664 0
M  V30 1374 H 126.759 3.00331 0.919801 0
M  V30 1375 H 125.952 5.02909 -0.33143 0
M  V30 1376 H 125.554 3.53722 -1.21478 0
M  V30 1377 H 127.846 6.70113 -0.997753 0
M  V30 1378 H 128.789 6.61754 -2.51967 0
M  V30 1379 H 129.197 5.52355 -1.16465 0
M  V30 1380 N 128.595 0.856903 1.32268 0
M  V30 1381 C 129.872 0.382583 1.91822 0
M  V30 1382 C 130.252 -1.13407 1.78051 0
M  V30 1383 O 129.6 -1.95673 1.18001 0
M  V30 1384 C 129.81 0.849446 3.38505 0
M  V30 1385 C 131.158 0.867936 4.15634 0
M  V30 1386 O 132.182 0.794232 3.47232 0
M  V30 1387 O 131.041 0.972286 5.37781 0
M  V30 1388 H 128.135 0.112014 0.819379 0
M  V30 1389 H 130.681 0.943952 1.41024 0
M  V30 1390 H 129.453 1.89267 3.42482 0
M  V30 1391 H 129.076 0.265652 3.96712 0
M  V30 1392 N 130.073 -1.45103 0.615059 0
M  V30 1393 C 131.484 -1.85654 0.197383 0
M  V30 1394 C 131.835 -1.51433 -1.24749 0
M  V30 1395 O 130.96 -0.944608 -1.94695 0
M  V30 1396 C 131.555 -3.36972 0.351448 0
M  V30 1397 C 130.114 -3.76398 -0.011593 0
M  V30 1398 C 129.261 -2.69024 0.672394 0
M  V30 1399 H 132.212 -1.35797 0.821263 0
M  V30 1400 H 132.233 -3.78239 -0.414227 0
M  V30 1401 H 131.745 -3.61847 1.40314 0
M  V30 1402 H 129.846 -3.5714 -1.06217 0
M  V30 1403 H 129.959 -4.77532 0.387265 0
M  V30 1404 H 128.323 -2.54465 0.109284 0
M  V30 1405 H 129.106 -2.96735 1.72636 0
M  V30 1406 N 131.551 -0.354651 -1.53558 0
M  V30 1407 C 132.514 0.484566 -2.24019 0
M  V30 1408 C 133.514 1.01861 -1.24422 0
M  V30 1409 O 134.704 0.906097 -1.4878 0
M  V30 1410 C 131.836 1.67615 -2.96847 0
M  V30 1411 H 133.029 -0.131843 -2.9961 0
M  V30 1412 H 130.582 -0.106165 -1.55939 0
M  V30 1413 H 131.317 2.33095 -2.25471 0
M  V30 1414 H 131.102 1.30029 -3.69912 0
M  V30 1415 H 132.592 2.27114 -3.50441 0
M  V30 1416 N 133.029 1.57378 -0.0835403 0
M  V30 1417 C 134.306 1.85363 0.624507 0
M  V30 1418 C 134.686 0.978239 1.87066 0
M  V30 1419 O 134.034 0.0475908 2.2845 0
M  V30 1420 C 134.244 3.35795 0.950947 0
M  V30 1421 C 135.592 4.03581 1.31939 0
M  V30 1422 O 136.616 3.40609 1.04232 0
M  V30 1423 O 135.475 5.14672 1.83779 0
M  V30 1424 H 132.569 0.766162 0.311329 0
M  V30 1425 H 135.115 1.69307 -0.115362 0
M  V30 1426 H 133.887 3.91244 0.0663899 0
M  V30 1427 H 133.51 3.57154 1.74719 0
M  V30 1428 N 134.507 -0.190092 1.56449 0
M  V30 1429 C 135.735 -0.925772 1.85033 0
M  V30 1430 C 136.15 -1.76638 0.666658 0
M  V30 1431 O 135.507 -1.78822 -0.364565 0
M  V30 1432 C 135.558 -1.81786 3.12468 0
M  V30 1433 O 135.279 -1.01118 4.26271 0
M  V30 1434 C 136.78 -2.6648 3.54265 0
M  V30 1435 H 134 -0.269872 0.614337 0
M  V30 1436 H 136.544 -0.195837 2.0356 0
M  V30 1437 H 134.699 -2.50136 2.95822 0
M  V30 1438 H 135.113 -1.61956 4.98869 0
M  V30 1439 H 136.587 -3.24722 4.46385 0
M  V30 1440 H 137.064 -3.40434 2.77491 0
M  V30 1441 H 137.67 -2.03493 3.73458 0
M  V30 1442 N 135.985 -1.50799 -0.457987 0
M  V30 1443 C 136.948 -1.7005 -1.53674 0
M  V30 1444 C 137.948 -0.570881 -1.50325 0
M  V30 1445 O 139.138 -0.838126 -1.52712 0
M  V30 1446 C 136.27 -1.73788 -2.93276 0
M  V30 1447 H 137.463 -2.66306 -1.37917 0
M  V30 1448 H 135.016 -1.40477 -0.685271 0
M  V30 1449 H 135.751 -0.792717 -3.14462 0
M  V30 1450 H 135.536 -2.55864 -2.97113 0
M  V30 1451 H 137.026 -1.90591 -3.71571 0
M  V30 1452 N 137.463 0.71206 -1.40597 0
M  V30 1453 C 138.691 1.50111 -1.42388 0
M  V30 1454 C 139.106 1.88784 -0.0245395 0
M  V30 1455 O 138.463 1.55681 0.952351 0
M  V30 1456 C 138.514 2.7742 -2.31776 0
M  V30 1457 O 138.235 2.40382 -3.66262 0
M  V30 1458 C 139.736 3.7129 -2.42196 0
M  V30 1459 H 136.956 0.46314 -0.485533 0
M  V30 1460 H 139.5 0.878068 -1.8469 0
M  V30 1461 H 137.655 3.36001 -1.92827 0
M  V30 1462 H 138.069 3.22324 -4.13772 0
M  V30 1463 H 139.543 4.57448 -3.08943 0
M  V30 1464 H 140.02 4.14641 -1.44809 0
M  V30 1465 H 140.626 3.18619 -2.81712 0
M  V30 1466 N 138.941 1.26152 0.944643 0
M  V30 1467 C 140.171 1.14094 1.72239 0
M  V30 1468 C 140.579 -0.306931 1.86694 0
M  V30 1469 O 139.922 -1.22222 1.3714 0
M  V30 1470 C 139.984 1.73316 3.14963 0
M  V30 1471 C 139.648 3.2239 3.23904 0
M  V30 1472 C 140.645 4.19252 3.07447 0
M  V30 1473 C 138.33 3.62788 3.47405 0
M  V30 1474 C 140.324 5.54491 3.14353 0
M  V30 1475 C 138.011 4.98162 3.53947 0
M  V30 1476 C 139.009 5.93823 3.37436 0
M  V30 1477 O 138.697 7.26732 3.43679 0
M  V30 1478 H 138.429 0.398292 0.546205 0
M  V30 1479 H 140.983 1.67201 1.19301 0
M  V30 1480 H 139.213 1.14667 3.69308 0
M  V30 1481 H 140.902 1.56214 3.74636 0
M  V30 1482 H 141.668 3.8938 2.8915 0
M  V30 1483 H 137.547 2.88816 3.59313 0
M  V30 1484 H 141.091 6.29137 3.01384 0
M  V30 1485 H 136.988 5.27695 3.71763 0
M  V30 1486 H 137.756 7.3496 3.60245 0
M  V30 1487 N 140.419 -1.14872 1.07899 0
M  V30 1488 C 141.649 -1.89386 0.825631 0
M  V30 1489 C 142.057 -1.78565 -0.625406 0
M  V30 1490 O 141.4 -1.13918 -1.44113 0
M  V30 1491 C 141.462 -3.40206 1.16191 0
M  V30 1492 C 141.126 -3.74812 2.61467 0
M  V30 1493 C 142.123 -3.75367 3.59716 0
M  V30 1494 C 139.808 -4.0495 2.97189 0
M  V30 1495 C 141.802 -4.05574 4.9172 0
M  V30 1496 C 139.489 -4.34821 4.29388 0
M  V30 1497 C 140.487 -4.35116 5.26463 0
M  V30 1498 O 140.175 -4.64267 6.56286 0
M  V30 1499 H 139.907 -0.606894 0.297751 0
M  V30 1500 H 142.461 -1.46438 1.44031 0
M  V30 1501 H 140.691 -3.8358 0.490214 0
M  V30 1502 H 142.38 -3.96018 0.890193 0
M  V30 1503 H 143.146 -3.52176 3.33462 0
M  V30 1504 H 139.025 -4.03876 2.22273 0
M  V30 1505 H 142.569 -4.05719 5.67484 0
M  V30 1506 H 138.466 -4.5748 4.55392 0
M  V30 1507 H 139.234 -4.82007 6.61522 0
M  V30 1508 N 141.898 -0.863906 -1.31812 0
M  V30 1509 C 143.138 -0.47825 -1.98726 0
M  V30 1510 C 143.502 0.950397 -1.66828 0
M  V30 1511 O 144.703 1.44109 -2.26905 0
M  V30 1512 C 142.974 -0.721134 -3.50049 0
M  V30 1513 S 144.533 -0.434432 -4.36644 0
M  V30 1514 H 141.351 -0.178773 -0.688158 0
M  V30 1515 H 143.953 -1.11862 -1.60334 0
M  V30 1516 H 142.657 -1.75981 -3.70755 0
M  V30 1517 H 142.188 -0.0675315 -3.93342 0
M  V30 1518 H 144.203 0.735786 -4.90714 0
M  V30 1519 N 143.376 1.44774 -0.622745 0
M  V30 1520 C 144.339 2.29069 0.0774015 0
M  V30 1521 C 145.339 1.4059 0.780461 0
M  V30 1522 O 146.529 1.62551 0.626322 0
M  V30 1523 C 143.661 3.21974 1.12006 0
M  V30 1524 H 144.854 2.92459 -0.663901 0
M  V30 1525 H 142.407 1.51548 -0.382486 0
M  V30 1526 H 143.142 2.63417 1.89162 0
M  V30 1527 H 142.927 3.87168 0.619951 0
M  V30 1528 H 144.417 3.85318 1.60995 0
M  V30 1529 N 144.854 0.36279 1.53368 0
M  V30 1530 C 146.27 0.0116182 1.59596 0
M  V30 1531 C 146.47 -1.47012 1.37803 0
M  V30 1532 O 145.526 -2.23136 1.18181 0
M  V30 1533 C 146.839 0.465052 2.97082 0
M  V30 1534 C 148.387 0.419033 3.10182 0
M  V30 1535 C 148.862 0.848235 4.50077 0
M  V30 1536 N 150.353 0.803183 4.56183 0
M  V30 1537 C 151.088 1.107 5.62613 0
M  V30 1538 N 150.584 1.47996 6.76808 0
M  V30 1539 N 152.377 1.02998 5.52583 0
M  V30 1540 H 144.528 1.32775 1.65785 0
M  V30 1541 H 146.791 0.542518 0.777417 0
M  V30 1542 H 146.497 1.49892 3.18159 0
M  V30 1543 H 146.371 -0.149786 3.76902 0
M  V30 1544 H 148.758 -0.605696 2.88817 0
M  V30 1545 H 148.839 1.06933 2.32377 0
M  V30 1546 H 148.483 1.87107 4.7218 0
M  V30 1547 H 148.413 0.175218 5.26308 0
M  V30 1548 H 150.904 0.52838 3.74188 0
M  V30 1549 H 151.217 1.69613 7.53957 0
M  V30 1550 H 149.562 1.51859 6.78206 0
M  V30 1551 H 152.753 0.737817 4.62249 0
M  V30 1552 H 152.926 1.2701 6.35431 0
M  V30 1553 N 146.332 -1.57332 0.0918853 0
M  V30 1554 C 147.557 -1.98995 -0.584442 0
M  V30 1555 C 147.982 -0.970528 -1.61128 0
M  V30 1556 O 147.34 0.0613904 -1.81196 0
M  V30 1557 C 147.388 -3.39636 -1.21161 0
M  V30 1558 O 146.492 -3.40447 -2.32744 0
M  V30 1559 H 145.833 -0.647165 -0.148572 0
M  V30 1560 H 148.363 -2.03873 0.172347 0
M  V30 1561 H 148.373 -3.7726 -1.55367 0
M  V30 1562 H 147.048 -4.13356 -0.459313 0
M  V30 1563 H 145.625 -3.14614 -2.0018 0
M  V30 1564 N 147.81 0.181792 -1.56548 0
M  V30 1565 C 148.743 1.25366 -1.90679 0
M  V30 1566 C 149.721 1.43299 -0.768376 0
M  V30 1567 O 150.905 1.58475 -1.02068 0
M  V30 1568 C 148.032 2.61826 -2.1486 0
M  V30 1569 C 147.078 2.60688 -3.37556 0
M  V30 1570 S 147.911 2.10804 -4.92262 0
M  V30 1571 C 149.067 3.49062 -5.19525 0
M  V30 1572 H 149.3 0.962277 -2.81296 0
M  V30 1573 H 146.833 0.385892 -1.495 0
M  V30 1574 H 148.791 3.40371 -2.29473 0
M  V30 1575 H 147.452 2.88169 -1.24969 0
M  V30 1576 H 146.645 3.61058 -3.51643 0
M  V30 1577 H 146.247 1.90232 -3.22006 0
M  V30 1578 H 148.539 4.45003 -5.10861 0
M  V30 1579 H 149.482 3.39859 -6.2121 0
M  V30 1580 H 149.89 3.4459 -4.47122 0
M  V30 1581 N 149.288 1.51039 0.449983 0
M  V30 1582 C 150.537 1.62317 1.19733 0
M  V30 1583 C 150.85 0.339101 1.92638 0
M  V30 1584 O 152.056 0.331069 2.69474 0
M  V30 1585 C 150.512 2.86608 2.17678 0
M  V30 1586 C 150.12 4.21972 1.50479 0
M  V30 1587 C 151.864 3.07239 2.92924 0
M  V30 1588 C 149.771 5.37426 2.46834 0
M  V30 1589 H 148.701 0.604532 0.450619 0
M  V30 1590 H 151.352 1.77494 0.465625 0
M  V30 1591 H 149.734 2.65037 2.94231 0
M  V30 1592 H 150.908 4.53878 0.795716 0
M  V30 1593 H 149.223 4.07117 0.874344 0
M  V30 1594 H 151.82 3.90668 3.65079 0
M  V30 1595 H 152.163 2.19807 3.5354 0
M  V30 1596 H 152.696 3.29091 2.23481 0
M  V30 1597 H 149.435 6.27079 1.90926 0
M  V30 1598 H 148.955 5.09912 3.15832 0
M  V30 1599 H 150.634 5.68862 3.08228 0
M  V30 1600 N 150.766 -0.704594 1.40972 0
M  V30 1601 C 151.994 -1.49354 1.43182 0
M  V30 1602 C 152.409 -1.88768 0.0345508 0
M  V30 1603 O 151.766 -1.56184 -0.944081 0
M  V30 1604 C 151.817 -2.76187 2.33244 0
M  V30 1605 O 151.538 -2.38436 3.67532 0
M  V30 1606 C 153.039 -3.7 2.44162 0
M  V30 1607 H 150.259 -0.460559 0.487982 0
M  V30 1608 H 152.803 -0.868261 1.85153 0
M  V30 1609 H 150.958 -3.34974 1.94606 0
M  V30 1610 H 151.372 -3.20126 4.15475 0
M  V30 1611 H 152.846 -4.55803 3.11364 0
M  V30 1612 H 153.323 -4.13867 1.47006 0
M  V30 1613 H 153.929 -3.17121 2.83398 0
M  V30 1614 N 152.244 -1.26651 -0.937939 0
M  V30 1615 C 153.192 -1.08308 -2.05845 0
M  V30 1616 C 154.186 -0.0090757 -1.69398 0
M  V30 1617 O 155.392 -0.166007 -1.79233 0
M  V30 1618 H 151.767 -0.333416 -0.674046 0
M  V30 1619 H 153.738 -2.03261 -2.18467 0
M  V30 1620 C 152.487 -0.736229 -3.39816 0
M  V30 1621 H 151.81 -1.55453 -3.6834 0
M  V30 1622 H 153.25 -0.64769 -4.19024 0
M  V30 1623 C 151.709 0.558824 -3.32233 0
M  V30 1624 O 152.239 1.59621 -3.68624 0
M  V30 1625 N 150.445 0.550657 -2.85335 0
M  V30 1626 H 149.992 -0.293943 -2.55917 0
M  V30 1627 H 149.95 1.41726 -2.80644 0
M  V30 1628 N 153.722 1.14298 -1.08507 0
M  V30 1629 C 154.968 1.85854 -0.826438 0
M  V30 1630 C 155.323 1.81413 0.640878 0
M  V30 1631 O 154.616 1.23463 1.46518 0
M  V30 1632 C 154.81 3.33547 -1.28379 0
M  V30 1633 C 154.639 3.52369 -2.79403 0
M  V30 1634 C 153.409 3.67159 -3.47164 0
M  V30 1635 C 155.607 3.49203 -3.77573 0
M  V30 1636 N 153.589 3.74149 -4.86709 0
M  V30 1637 C 154.96 3.6245 -5.03021 0
M  V30 1638 C 157.015 3.32547 -3.70563 0
M  V30 1639 C 155.718 3.60761 -6.2229 0
M  V30 1640 C 157.744 3.32162 -4.89308 0
M  V30 1641 C 157.106 3.45949 -6.13595 0
M  V30 1642 H 153.205 0.696705 -0.355143 0
M  V30 1643 H 155.789 1.36981 -1.38362 0
M  V30 1644 H 153.96 3.81008 -0.754166 0
M  V30 1645 H 155.692 3.92867 -0.971469 0
M  V30 1646 H 152.447 3.68433 -2.9758 0
M  V30 1647 H 152.871 3.81359 -5.5937 0
M  V30 1648 H 157.513 3.20797 -2.75407 0
M  V30 1649 H 155.231 3.71286 -7.17755 0
M  V30 1650 H 158.817 3.20485 -4.85573 0
M  V30 1651 H 157.697 3.456 -7.03939 0
M  V30 1652 N 155.201 0.870884 1.31352 0
M  V30 1653 C 156.431 0.496049 2.00557 0
M  V30 1654 C 156.839 -0.916241 1.65534 0
M  V30 1655 O 156.182 -1.61188 0.881134 0
M  V30 1656 C 156.244 0.574418 3.54881 0
M  V30 1657 C 155.908 1.94849 4.1338 0
M  V30 1658 C 156.905 2.91611 4.30417 0
M  V30 1659 C 154.59 2.25005 4.49086 0
M  V30 1660 C 156.584 4.16672 4.82352 0
M  V30 1661 C 154.271 3.50315 5.00722 0
M  V30 1662 C 155.269 4.45964 5.17306 0
M  V30 1663 O 154.957 5.69052 5.67833 0
M  V30 1664 H 154.689 0.191664 0.64826 0
M  V30 1665 H 157.243 1.17409 1.68536 0
M  V30 1666 H 155.473 -0.160549 3.86367 0
M  V30 1667 H 157.162 0.212879 4.05341 0
M  V30 1668 H 157.928 2.69622 4.03149 0
M  V30 1669 H 153.807 1.51332 4.35453 0
M  V30 1670 H 157.351 4.91336 4.95211 0
M  V30 1671 H 153.248 3.72147 5.27424 0
M  V30 1672 H 154.016 5.71236 5.86201 0
M  V30 1673 N 156.679 -1.44442 0.630414 0
M  V30 1674 C 157.926 -2.02052 0.134617 0
M  V30 1675 C 158.254 -1.49576 -1.24327 0
M  V30 1676 O 157.509 -0.669806 -1.83881 0
M  V30 1677 C 157.808 -3.57332 0.0697835 0
M  V30 1678 C 157.474 -4.29058 1.38635 0
M  V30 1679 C 156.136 -4.4837 1.74694 0
M  V30 1680 C 158.488 -4.69872 2.25543 0
M  V30 1681 C 155.816 -5.05756 2.97369 0
M  V30 1682 C 158.168 -5.28616 3.47487 0
M  V30 1683 C 156.832 -5.46147 3.8377 0
M  V30 1684 H 156.102 -0.739361 0.0492598 0
M  V30 1685 H 158.749 -1.73217 0.816586 0
M  V30 1686 H 157.054 -3.85577 -0.695553 0
M  V30 1687 H 158.751 -3.99637 -0.330344 0
M  V30 1688 H 155.341 -4.14357 1.09574 0
M  V30 1689 H 159.525 -4.54666 1.98979 0
M  V30 1690 H 154.781 -5.17515 3.25558 0
M  V30 1691 H 158.955 -5.59192 4.15063 0
M  V30 1692 H 156.582 -5.9038 4.7891 0
M  V30 1693 N 158.157 -0.370918 -1.53173 0
M  V30 1694 C 159.434 0.273754 -1.93675 0
M  V30 1695 C 159.814 1.65938 -1.3049 0
M  V30 1696 O 159.162 2.23698 -0.465999 0
M  V30 1697 C 159.372 0.318602 -3.47543 0
M  V30 1698 C 160.72 0.556392 -4.20939 0
M  V30 1699 O 161.744 0.399587 -3.53952 0
M  V30 1700 O 160.603 0.862133 -5.39657 0
M  V30 1701 H 157.697 0.165448 -0.810281 0
M  V30 1702 H 160.243 -0.42409 -1.64315 0
M  V30 1703 H 159.015 -0.652687 -3.85818 0
M  V30 1704 H 158.638 1.06212 -3.83151 0
M  V30 1705 N 159.635 1.57281 -0.100228 0
M  V30 1706 C 160.881 1.94826 0.563101 0
M  V30 1707 C 161.214 0.982475 1.67514 0
M  V30 1708 O 160.489 0.0164069 1.94493 0
M  V30 1709 C 160.772 3.42453 1.11346 0
M  V30 1710 C 160.625 4.498 0.00612081 0
M  V30 1711 C 161.944 3.91506 2.01024 0
M  V30 1712 H 159.063 0.708428 0.203221 0
M  V30 1713 H 161.705 1.8922 -0.171979 0
M  V30 1714 H 159.855 3.47361 1.7399 0
M  V30 1715 H 161.527 4.57 -0.628357 0
M  V30 1716 H 159.77 4.28756 -0.659581 0
M  V30 1717 H 160.441 5.50306 0.432109 0
M  V30 1718 H 162.917 3.88784 1.48278 0
M  V30 1719 H 161.793 4.95358 2.36457 0
M  V30 1720 H 162.054 3.31099 2.92961 0
M  V30 1721 N 161.113 -0.173488 1.56642 0
M  V30 1722 C 162.359 -0.887108 1.83035 0
M  V30 1723 C 162.714 -1.79965 0.680461 0
M  V30 1724 O 162.007 -1.88854 -0.323225 0
M  V30 1725 C 162.201 -1.72069 3.13252 0
M  V30 1726 C 162.03 -0.89035 4.40798 0
M  V30 1727 C 160.8 -0.566282 5.02117 0
M  V30 1728 C 162.998 -0.232921 5.13772 0
M  V30 1729 N 160.98 0.280427 6.13259 0
M  V30 1730 C 162.351 0.475046 6.18177 0
M  V30 1731 C 164.406 -0.150863 4.97671 0
M  V30 1732 C 163.109 1.25729 7.08227 0
M  V30 1733 C 165.135 0.618039 5.88162 0
M  V30 1734 C 164.497 1.31438 6.92029 0
M  V30 1735 H 160.596 -0.303303 0.720785 0
M  V30 1736 H 163.18 -0.154244 1.94088 0
M  V30 1737 H 161.351 -2.42499 3.03395 0
M  V30 1738 H 163.083 -2.37545 3.2765 0
M  V30 1739 H 159.838 -0.895852 4.6505 0
M  V30 1740 H 160.262 0.694027 6.73433 0
M  V30 1741 H 164.904 -0.674868 4.17379 0
M  V30 1742 H 162.622 1.79265 7.87966 0
M  V30 1743 H 166.208 0.683173 5.77775 0
M  V30 1744 H 165.088 1.89981 7.6084 0
M  V30 1745 N 162.591 -1.51276 -0.441967 0
M  V30 1746 C 163.839 -1.63392 -1.18943 0
M  V30 1747 C 164.16 -0.350159 -1.9183 0
M  V30 1748 O 163.43 0.633784 -1.85364 0
M  V30 1749 H 162.01 -0.602164 -0.442049 0
M  V30 1750 H 164.672 -1.88186 -0.507165 0
M  V30 1751 H 163.768 -2.45934 -1.92154 0
M  V30 1752 N 164.069 0.697108 -1.41344 0
M  V30 1753 C 165.032 1.79281 -1.42797 0
M  V30 1754 C 166.032 1.57607 -0.318837 0
M  V30 1755 O 167.222 1.64309 -0.578642 0
M  V30 1756 C 164.354 3.17632 -1.23785 0
M  V30 1757 H 165.547 1.79385 -2.40335 0
M  V30 1758 H 163.1 0.904582 -1.27464 0
M  V30 1759 H 163.835 3.23167 -0.270814 0
M  V30 1760 H 163.62 3.34765 -2.04144 0
M  V30 1761 H 165.11 3.97617 -1.27633 0
M  V30 1762 N 165.547 1.27147 0.931209 0
M  V30 1763 C 166.795 1.13055 1.6752 0
M  V30 1764 C 167.116 -0.324791 1.92276 0
M  V30 1765 O 166.386 -1.22775 1.52654 0
M  V30 1766 H 164.966 0.415391 0.620854 0
M  V30 1767 H 167.628 1.59623 1.11833 0
M  V30 1768 H 166.724 1.65694 2.64485 0
M  V30 1769 N 167.025 -1.13721 1.09112 0
M  V30 1770 C 168.253 -1.88773 0.846899 0
M  V30 1771 C 168.668 -1.7896 -0.601572 0
M  V30 1772 O 168.025 -1.15394 -1.41388 0
M  V30 1773 C 168.076 -3.3849 1.26913 0
M  V30 1774 O 167.797 -3.48043 2.66079 0
M  V30 1775 C 169.298 -4.30518 1.05682 0
M  V30 1776 H 166.518 -0.59772 0.304914 0
M  V30 1777 H 169.062 -1.43977 1.45227 0
M  V30 1778 H 167.217 -3.80881 0.707723 0
M  V30 1779 H 167.631 -4.4109 2.83795 0
M  V30 1780 H 169.105 -5.3391 1.40156 0
M  V30 1781 H 169.582 -4.392 -0.00563416 0
M  V30 1782 H 170.188 -3.93893 1.60402 0
M  V30 1783 N 168.503 -0.877838 -1.30888 0
M  V30 1784 C 169.731 -0.507414 -2.00581 0
M  V30 1785 C 170.146 0.902216 -1.65848 0
M  V30 1786 O 169.503 1.59225 -0.891831 0
M  V30 1787 C 169.554 -0.664162 -3.55347 0
M  V30 1788 O 169.275 -2.01829 -3.8884 0
M  V30 1789 C 170.776 -0.295787 -4.42312 0
M  V30 1790 H 167.996 -0.196866 -0.641471 0
M  V30 1791 H 170.54 -1.18117 -1.66939 0
M  V30 1792 H 168.695 -0.0378619 -3.87381 0
M  V30 1793 H 169.109 -2.03174 -4.8355 0
M  V30 1794 H 170.583 -0.456388 -5.5011 0
M  V30 1795 H 171.06 0.765663 -4.32475 0
M  V30 1796 H 171.666 -0.898113 -4.15709 0
M  V30 1797 N 169.982 1.44106 -0.638065 0
M  V30 1798 C 171.228 2.02277 -0.145546 0
M  V30 1799 C 171.561 1.50125 1.23191 0
M  V30 1800 O 170.836 0.688133 1.8192 0
M  V30 1801 C 171.119 3.59829 -0.139791 0
M  V30 1802 C 170.972 4.22247 -1.55008 0
M  V30 1803 C 172.291 4.36873 0.531966 0
M  V30 1804 H 169.41 0.734992 -0.0543632 0
M  V30 1805 H 172.052 1.71592 -0.815863 0
M  V30 1806 H 170.202 3.86102 0.431007 0
M  V30 1807 H 171.874 4.07057 -2.1703 0
M  V30 1808 H 170.117 3.79476 -2.10191 0
M  V30 1809 H 170.788 5.31284 -1.49804 0
M  V30 1810 H 173.264 4.16074 0.0464781 0
M  V30 1811 H 172.14 5.4657 0.505206 0
M  V30 1812 H 172.401 4.11995 1.60352 0
M  V30 1813 N 171.46 0.379036 1.52974 0
M  V30 1814 C 172.688 -0.20679 2.05864 0
M  V30 1815 C 173.103 -1.41356 1.25155 0
M  V30 1816 O 172.46 -1.8009 0.295588 0
M  V30 1817 C 172.511 -0.587045 3.56702 0
M  V30 1818 O 172.232 0.571776 4.34353 0
M  V30 1819 C 173.733 -1.22983 4.25899 0
M  V30 1820 H 170.953 -0.0336123 0.670158 0
M  V30 1821 H 173.497 0.541298 1.97206 0
M  V30 1822 H 171.652 -1.28504 3.65466 0
M  V30 1823 H 172.066 0.261544 5.23847 0
M  V30 1824 H 173.54 -1.44635 5.32715 0
M  V30 1825 H 174.017 -2.19416 3.80465 0
M  V30 1826 H 174.623 -0.572892 4.21424 0
M  V30 1827 N 172.938 -1.57226 0.108567 0
M  V30 1828 C 174.184 -1.95121 -0.552761 0
M  V30 1829 C 174.517 -0.991345 -1.66991 0
M  V30 1830 O 173.792 -0.0267211 -1.94482 0
M  V30 1831 C 174.075 -3.43039 -1.09528 0
M  V30 1832 C 173.928 -4.49797 0.0177332 0
M  V30 1833 C 175.247 -3.92567 -1.98945 0
M  V30 1834 H 172.366 -0.709496 -0.199461 0
M  V30 1835 H 175.008 -1.89126 0.182011 0
M  V30 1836 H 173.158 -3.48279 -1.72146 0
M  V30 1837 H 174.83 -4.56661 0.652584 0
M  V30 1838 H 173.073 -4.284 0.682309 0
M  V30 1839 H 173.744 -5.50528 -0.402919 0
M  V30 1840 H 176.22 -3.89565 -1.46214 0
M  V30 1841 H 175.096 -4.96605 -2.33827 0
M  V30 1842 H 175.357 -3.32648 -2.91201 0
M  V30 1843 N 174.416 0.165178 -1.56732 0
M  V30 1844 C 175.641 0.900253 -1.86843 0
M  V30 1845 C 176.066 1.74766 -0.695596 0
M  V30 1846 O 175.424 1.77786 0.35522 0
M  V30 1847 C 175.472 1.74777 -3.15413 0
M  V30 1848 O 174.576 2.85007 -2.98068 0
M  V30 1849 H 173.917 0.251832 -0.614391 0
M  V30 1850 H 176.447 0.161468 -2.03962 0
M  V30 1851 H 176.457 2.14646 -3.46974 0
M  V30 1852 H 175.132 1.12537 -4.00385 0
M  V30 1853 H 173.709 2.48676 -2.77875 0
M  V30 1854 N 175.894 1.51508 0.433938 0
M  V30 1855 C 177.119 1.68443 1.21003 0
M  V30 1856 C 177.544 0.382636 1.84167 0
M  V30 1857 O 176.902 -0.65755 1.68956 0
M  V30 1858 C 176.95 2.80405 2.26727 0
M  V30 1859 O 176.054 2.44245 3.32292 0
M  V30 1860 H 175.395 0.561536 0.354363 0
M  V30 1861 H 177.925 1.9809 0.512024 0
M  V30 1862 H 177.935 3.0459 2.71457 0
M  V30 1863 H 176.61 3.74867 1.80132 0
M  V30 1864 H 175.187 2.30644 2.93015 0
M  V30 1865 O 177.411 -0.579713 1.50737 0
M  V30 1866 H 178.102 -1.23469 1.49249 0
M  V30 END ATOM
M  V30 BEGIN BOND
M  V30 END BOND
M  V30 END CTAB
M  END
$$$$
