drugbank_target|P11362 Fibroblast growth factor receptor 1 (DB00039; DB00398; DB01109; DB02058; DB05014; DB07525; DB07840; DB08577; DB08896; DB08901; DB09078; DB09079; DB12010; DB12147; DB15102; DB15685; DB15822)
 OpenBabel12092120063D

  0  0  0     0  0            999 V3000
M  V30 BEGIN CTAB
M  V30 COUNTS 12819 12974 0 0 0
M  V30 BEGIN ATOM
M  V30 1 H -0.908 1.98254 -0.117106 0
M  V30 2 N 0 1.576 0 0
M  V30 3 C 0.933 2.03868 1.02534 0
M  V30 4 C 1.911 0.928543 1.3348 0
M  V30 5 O 3.095 1.19667 1.45644 0
M  V30 6 C 0.222 2.43627 2.35294 0
M  V30 7 C -0.732 3.65373 2.2001 0
M  V30 8 S 0.101 5.13292 1.52614 0
M  V30 9 C 1.257 5.56322 2.86805 0
M  V30 10 H 1.49 2.90518 0.631377 0
M  V30 11 H -0.977 1.52953 0.210867 0
M  V30 12 H 0.981 2.67203 3.11629 0
M  V30 13 H -0.358 1.57376 2.7183 0
M  V30 14 H -1.165 3.90944 3.18086 0
M  V30 15 H -1.563 3.418 1.51819 0
M  V30 16 H 0.729 5.58782 3.83104 0
M  V30 17 H 1.672 6.56266 2.65933 0
M  V30 18 H 2.08 4.83886 2.90714 0
M  V30 19 N 1.4781 -0.272755 1.55222 0
M  V30 20 C 2.7241 -1.00172 1.77023 0
M  V30 21 C 3.0791 -1.83928 0.564633 0
M  V30 22 O 2.3721 -1.86416 -0.442674 0
M  V30 23 C 2.5661 -1.91642 3.01675 0
M  V30 24 C 2.3951 -1.16888 4.34243 0
M  V30 25 C 1.1651 -0.884464 4.97499 0
M  V30 26 C 3.3631 -0.55919 5.11251 0
M  V30 27 N 1.3451 -0.11015 6.13801 0
M  V30 28 C 2.7161 0.0809469 6.19947 0
M  V30 29 C 4.7711 -0.467058 4.95705 0
M  V30 30 C 3.4741 0.804335 7.14789 0
M  V30 31 C 5.5001 0.242739 5.90902 0
M  V30 32 C 4.8621 0.871613 6.98987 0
M  V30 33 H 0.9611 -0.348529 0.700037 0
M  V30 34 H 3.5451 -0.277365 1.92714 0
M  V30 35 H 1.7161 -2.61303 2.87359 0
M  V30 36 H 3.4481 -2.57901 3.1188 0
M  V30 37 H 0.2031 -1.18979 4.58411 0
M  V30 38 H 0.6271 0.264344 6.76484 0
M  V30 39 H 5.2691 -0.93894 4.12242 0
M  V30 40 H 2.9871 1.2879 7.97771 0
M  V30 41 H 6.5731 0.314347 5.8095 0
M  V30 42 H 5.4531 1.4121 7.71381 0
M  V30 43 N 2.9562 -1.48159 -0.537278 0
M  V30 44 C 4.1812 -1.59707 -1.32319 0
M  V30 45 C 4.6062 -0.254859 -1.86365 0
M  V30 46 O 3.9642 0.772378 -1.64024 0
M  V30 47 C 4.0122 -2.6412 -2.45505 0
M  V30 48 O 3.1162 -2.20774 -3.48328 0
M  V30 49 H 2.4572 -0.535791 -0.392204 0
M  V30 50 H 4.9872 -1.94092 -0.647268 0
M  V30 51 H 4.9972 -2.85166 -2.91795 0
M  V30 52 H 3.6722 -3.61567 -2.05528 0
M  V30 53 H 2.2492 -2.09911 -3.08207 0
M  V30 54 N 4.4343 0.785586 -1.36625 0
M  V30 55 C 5.6803 1.5452 -1.32269 0
M  V30 56 C 6.0353 1.92159 0.0962266 0
M  V30 57 O 5.3283 1.60158 1.05167 0
M  V30 58 C 5.5223 2.83007 -2.1827 0
M  V30 59 C 5.3513 2.57925 -3.68382 0
M  V30 60 C 4.1213 2.52752 -4.37544 0
M  V30 61 C 6.3193 2.26861 -4.61561 0
M  V30 62 N 4.3013 2.19608 -5.73276 0
M  V30 63 C 5.6723 2.03738 -5.85569 0
M  V30 64 C 7.7273 2.129 -4.50087 0
M  V30 65 C 6.4303 1.68065 -6.9939 0
M  V30 66 C 8.4563 1.78626 -5.63779 0
M  V30 67 C 7.8183 1.56353 -6.86828 0
M  V30 68 H 3.9173 0.566301 -0.539283 0
M  V30 69 H 6.5013 0.917736 -1.71714 0
M  V30 70 H 4.6723 3.43614 -1.81063 0
M  V30 71 H 6.4043 3.48775 -2.05275 0
M  V30 72 H 3.1593 2.6813 -3.90389 0
M  V30 73 H 3.5833 2.05771 -6.44971 0
M  V30 74 H 8.2253 2.28808 -3.55537 0
M  V30 75 H 5.9433 1.50895 -7.93887 0
M  V30 76 H 9.5293 1.68502 -5.56865 0
M  V30 77 H 8.4093 1.30223 -7.73312 0
M  V30 78 N 5.9124 1.20967 1.01018 0
M  V30 79 C 6.8594 0.964281 2.09691 0
M  V30 80 C 7.8294 -0.107853 1.65749 0
M  V30 81 O 9.0144 0.0381987 1.90762 0
M  V30 82 C 6.1544 0.52943 3.41015 0
M  V30 83 C 5.2674 1.67043 3.98398 0
M  V30 84 C 4.4024 1.18525 5.17808 0
M  V30 85 C 3.4414 2.29892 5.67288 0
M  V30 86 N 2.5784 1.82546 6.77954 0
M  V30 87 H 7.4184 1.89463 2.30017 0
M  V30 88 H 4.9554 0.944289 1.1279 0
M  V30 89 H 6.9134 0.258588 4.16398 0
M  V30 90 H 5.5434 -0.363919 3.20742 0
M  V30 91 H 4.5954 2.05603 3.20049 0
M  V30 92 H 5.9074 2.50877 4.31117 0
M  V30 93 H 5.0614 0.870762 6.00419 0
M  V30 94 H 3.8004 0.316887 4.86669 0
M  V30 95 H 2.8054 2.6215 4.83278 0
M  V30 96 H 4.0304 3.17216 6.00459 0
M  V30 97 H 1.9764 0.980454 6.48632 0
M  V30 98 H 1.8934 2.59956 7.09901 0
M  V30 99 H 3.1614 1.54115 7.64113 0
M  V30 100 N 7.3905 -1.2043 1.01659 0
M  V30 101 C 8.6305 -1.91507 0.714456 0
M  V30 102 C 8.9945 -1.77073 -0.742237 0
M  V30 103 O 10.1955 -2.42631 -1.15688 0
M  V30 104 C 8.4665 -3.38795 1.13809 0
M  V30 105 S 10.0255 -4.28216 0.957925 0
M  V30 106 H 6.8435 -0.661571 0.260471 0
M  V30 107 H 9.4455 -1.45671 1.30384 0
M  V30 108 H 8.1495 -3.46822 2.19415 0
M  V30 109 H 7.6805 -3.89656 0.541474 0
M  V30 110 H 9.6955 -4.96007 -0.138531 0
M  V30 111 N 8.8686 -0.792821 -1.36206 0
M  V30 112 C 9.7986 -0.207853 -2.32573 0
M  V30 113 C 10.7796 0.659055 -1.56813 0
M  V30 114 O 11.9646 0.592176 -1.84951 0
M  V30 115 C 9.0946 0.655449 -3.41059 0
M  V30 116 C 8.0486 -0.111842 -4.27854 0
M  V30 117 C 7.3746 0.872274 -5.27537 0
M  V30 118 C 8.6746 -1.30299 -5.05786 0
M  V30 119 H 10.3686 -1.01294 -2.81744 0
M  V30 120 H 7.9146 -0.48854 -1.3546 0
M  V30 121 H 9.8676 1.07464 -4.07467 0
M  V30 122 H 8.5916 1.49328 -2.90463 0
M  V30 123 H 7.2506 -0.512053 -3.63006 0
M  V30 124 H 6.8986 1.70523 -4.73214 0
M  V30 125 H 6.5986 0.363291 -5.86476 0
M  V30 126 H 8.1226 1.28996 -5.96818 0
M  V30 127 H 9.5366 -0.959379 -5.65216 0
M  V30 128 H 7.9336 -1.7455 -5.74154 0
M  V30 129 H 9.0036 -2.09663 -4.37229 0
M  V30 130 N 10.3467 1.47872 -0.545128 0
M  V30 131 C 11.2767 2.32661 0.197793 0
M  V30 132 C 12.2577 1.43041 0.920504 0
M  V30 133 O 13.4427 1.71912 0.90333 0
M  V30 134 C 10.5727 3.24569 1.23582 0
M  V30 135 C 9.5267 4.23333 0.630323 0
M  V30 136 C 8.8527 5.0448 1.77211 0
M  V30 137 C 10.1527 5.20704 -0.407974 0
M  V30 138 H 11.8467 2.95024 -0.510045 0
M  V30 139 H 9.3927 1.4187 -0.246731 0
M  V30 140 H 11.3457 3.8272 1.76362 0
M  V30 141 H 10.0697 2.60236 1.97344 0
M  V30 142 H 8.7287 3.6639 0.123922 0
M  V30 143 H 8.3767 4.36561 2.49847 0
M  V30 144 H 8.0767 5.71339 1.37281 0
M  V30 145 H 9.6007 5.65487 2.3034 0
M  V30 146 H 11.0147 5.7329 0.033305 0
M  V30 147 H 9.4117 5.95699 -0.725486 0
M  V30 148 H 10.4817 4.66917 -1.30828 0
M  V30 149 N 11.8248 0.280983 1.55075 0
M  V30 150 C 13.0718 -0.334115 1.99725 0
M  V30 151 C 13.3998 -1.5542 1.1694 0
M  V30 152 O 12.6548 -1.94361 0.228531 0
M  V30 153 C 12.9538 -0.754656 3.49342 0
M  V30 154 C 12.6198 0.361445 4.49449 0
M  V30 155 C 11.2818 0.667893 4.76542 0
M  V30 156 C 13.6338 1.11322 5.09173 0
M  V30 157 C 10.9618 1.7296 5.60626 0
M  V30 158 C 13.3138 2.1647 5.9441 0
M  V30 159 C 11.9778 2.47742 6.19822 0
M  V30 160 H 11.2478 -0.122261 0.730844 0
M  V30 161 H 13.8948 0.395917 1.87363 0
M  V30 162 H 12.1998 -1.56446 3.5921 0
M  V30 163 H 13.8968 -1.24142 3.813 0
M  V30 164 H 10.4868 0.112481 4.28452 0
M  V30 165 H 14.6708 0.88973 4.8826 0
M  V30 166 H 9.9268 1.97684 5.78559 0
M  V30 167 H 14.1008 2.75193 6.3972 0
M  V30 168 H 11.7278 3.30145 6.84769 0
M  V30 169 N 13.3029 -1.57598 0.00835791 0
M  V30 170 C 14.5489 -1.92046 -0.670055 0
M  V30 171 C 14.9039 -0.88351 -1.70915 0
M  V30 172 O 14.1969 0.103223 -1.91322 0
M  V30 173 C 14.3909 -3.3101 -1.34787 0
M  V30 174 C 14.2199 -4.48126 -0.375945 0
M  V30 175 C 12.9899 -5.05297 0.0166914 0
M  V30 176 C 15.1879 -5.1303 0.361272 0
M  V30 177 N 13.1699 -6.05931 0.985952 0
M  V30 178 C 14.5409 -6.08571 1.18495 0
M  V30 179 C 16.5959 -4.9609 0.42421 0
M  V30 180 C 15.2989 -6.88996 2.06584 0
M  V30 181 C 17.3249 -5.77107 1.29236 0
M  V30 182 C 16.6869 -6.72248 2.10386 0
M  V30 183 H 12.7859 -0.75096 -0.218136 0
M  V30 184 H 15.3699 -1.94572 0.0706669 0
M  V30 185 H 13.5409 -3.29342 -2.05884 0
M  V30 186 H 15.2729 -3.52864 -1.98164 0
M  V30 187 H 12.0279 -4.72279 -0.353435 0
M  V30 188 H 12.4519 -6.60932 1.4662 0
M  V30 189 H 17.0939 -4.22378 -0.188915 0
M  V30 190 H 14.8119 -7.62028 2.6896 0
M  V30 191 H 18.3979 -5.66038 1.34508 0
M  V30 192 H 17.2779 -7.33846 2.76476 0
M  V30 193 N 14.781 0.264519 -1.55364 0
M  V30 194 C 15.744 1.31046 -1.88042 0
M  V30 195 C 16.744 1.41943 -0.755569 0
M  V30 196 O 17.934 1.40947 -1.02369 0
M  V30 197 C 15.066 2.69067 -2.09323 0
M  V30 198 H 16.259 1.03297 -2.81549 0
M  V30 199 H 13.812 0.502989 -1.47986 0
M  V30 200 H 14.547 3.01982 -1.18226 0
M  V30 201 H 14.332 2.62542 -2.91229 0
M  V30 202 H 15.822 3.44623 -2.35848 0
M  V30 203 N 16.2591 1.48442 0.529413 0
M  V30 204 C 17.5051 1.5672 1.28711 0
M  V30 205 C 17.8381 0.2406 1.92704 0
M  V30 206 O 17.1131 -0.753454 1.79313 0
M  V30 207 C 17.3961 2.70587 2.37603 0
M  V30 208 C 17.2491 4.12953 1.78297 0
M  V30 209 C 18.5681 2.80212 3.39366 0
M  V30 210 H 15.6871 0.570474 0.466613 0
M  V30 211 H 18.3291 1.80617 0.589706 0
M  V30 212 H 16.4791 2.50342 2.97088 0
M  V30 213 H 18.1511 4.44639 1.22858 0
M  V30 214 H 16.3941 4.19927 1.0883 0
M  V30 215 H 17.0651 4.88448 2.57144 0
M  V30 216 H 19.5411 2.98553 2.89836 0
M  V30 217 H 18.4171 3.61611 4.12951 0
M  V30 218 H 18.6781 1.88393 3.99951 0
M  V30 219 N 17.7372 -0.778329 1.37039 0
M  V30 220 C 18.6672 -1.90546 1.34962 0
M  V30 221 C 19.6482 -1.68681 0.219274 0
M  V30 222 O 20.8332 -1.89634 0.418624 0
M  V30 223 C 17.9632 -3.27734 1.14925 0
M  V30 224 C 16.9172 -3.64147 2.24902 0
M  V30 225 C 16.2432 -4.99806 1.89996 0
M  V30 226 C 17.5432 -3.71579 3.67051 0
M  V30 227 H 19.2372 -1.92541 2.29277 0
M  V30 228 H 16.7832 -0.924948 1.10366 0
M  V30 229 H 18.7362 -4.06215 1.12104 0
M  V30 230 H 17.4602 -3.26154 0.170631 0
M  V30 231 H 16.1192 -2.8797 2.26868 0
M  V30 232 H 15.7672 -4.94759 0.906796 0
M  V30 233 H 15.4672 -5.25139 2.63634 0
M  V30 234 H 16.9912 -5.80694 1.88749 0
M  V30 235 H 18.4052 -4.40227 3.67251 0
M  V30 236 H 16.8022 -4.08405 4.39688 0
M  V30 237 H 17.8722 -2.72404 4.01154 0
M  V30 238 N 19.2153 -1.21501 -1.00376 0
M  V30 239 C 20.4613 -1.03452 -1.74429 0
M  V30 240 C 20.7943 0.430764 -1.89362 0
M  V30 241 O 20.0693 1.31962 -1.42886 0
M  V30 242 C 20.3523 -1.73375 -3.15615 0
M  V30 243 C 20.2053 -3.27431 -3.08397 0
M  V30 244 C 21.5243 -1.47732 -4.14564 0
M  V30 245 H 18.6433 -0.377226 -0.633143 0
M  V30 246 H 21.2853 -1.49693 -1.17013 0
M  V30 247 H 19.4353 -1.34064 -3.64636 0
M  V30 248 H 21.1073 -3.76119 -2.67081 0
M  V30 249 H 19.3503 -3.5767 -2.45468 0
M  V30 250 H 20.0213 -3.71524 -4.08258 0
M  V30 251 H 22.4973 -1.8186 -3.74254 0
M  V30 252 H 21.3733 -1.99169 -5.11491 0
M  V30 253 H 21.6343 -0.407589 -4.40217 0
M  V30 254 N 20.6934 1.19889 -1.02296 0
M  V30 255 C 21.9214 1.9339 -0.735399 0
M  V30 256 C 22.3364 1.75148 0.704887 0
M  V30 257 O 21.6934 1.06954 1.47875 0
M  V30 258 C 21.7444 3.45313 -1.06962 0
M  V30 259 O 21.4654 3.62964 -2.45334 0
M  V30 260 C 22.9664 4.35948 -0.804021 0
M  V30 261 H 20.1864 0.61448 -0.269546 0
M  V30 262 H 22.7304 1.522 -1.36585 0
M  V30 263 H 20.8854 3.84359 -0.484455 0
M  V30 264 H 21.2994 4.56886 -2.57595 0
M  V30 265 H 22.7734 5.41174 -1.0879 0
M  V30 266 H 23.2504 4.3842 0.261691 0
M  V30 267 H 23.8564 4.02574 -1.37164 0
M  V30 268 N 22.1715 0.800033 1.35784 0
M  V30 269 C 23.1345 0.211565 2.28221 0
M  V30 270 C 24.1345 -0.59728 1.49296 0
M  V30 271 O 25.3245 -0.416721 1.69142 0
M  V30 272 C 22.4565 -0.705846 3.33513 0
M  V30 273 H 23.6495 1.02677 2.81776 0
M  V30 274 H 21.2025 0.570211 1.45528 0
M  V30 275 H 21.9375 -1.54498 2.85133 0
M  V30 276 H 21.7225 -0.127655 3.91892 0
M  V30 277 H 23.2125 -1.11211 4.02519 0
M  V30 278 N 23.6496 -1.47581 0.552962 0
M  V30 279 C 24.8776 -2.06875 0.0320556 0
M  V30 280 C 25.2926 -1.40625 -1.25976 0
M  V30 281 O 24.6496 -0.501349 -1.75479 0
M  V30 282 C 24.7006 -3.61092 -0.17167 0
M  V30 283 O 24.4216 -4.24858 1.06899 0
M  V30 284 C 25.9226 -4.37242 -0.730344 0
M  V30 285 H 23.1426 -0.669561 0.043915 0
M  V30 286 H 25.6866 -1.89646 0.765163 0
M  V30 287 H 23.8416 -3.7785 -0.854894 0
M  V30 288 H 24.2556 -5.17334 0.864059 0
M  V30 289 H 25.7296 -5.45842 -0.822203 0
M  V30 290 H 26.2066 -4.03235 -1.74064 0
M  V30 291 H 26.8126 -4.25219 -0.0829543 0
M  V30 292 N 25.1277 -0.289203 -1.54924 0
M  V30 293 C 26.0577 0.58549 -2.2604 0
M  V30 294 C 27.0387 1.14753 -1.25562 0
M  V30 295 O 28.2237 1.17906 -1.54311 0
M  V30 296 C 25.3537 1.76305 -2.99222 0
M  V30 297 C 24.3077 1.33191 -4.06748 0
M  V30 298 C 23.6337 2.5937 -4.6758 0
M  V30 299 C 24.9337 0.471775 -5.20165 0
M  V30 300 H 26.6277 -0.00763532 -2.99399 0
M  V30 301 H 24.1737 -0.00511229 -1.43999 0
M  V30 302 H 26.1267 2.38097 -3.47689 0
M  V30 303 H 24.8507 2.38223 -2.23422 0
M  V30 304 H 23.5097 0.737121 -3.59113 0
M  V30 305 H 23.1577 3.19576 -3.88433 0
M  V30 306 H 22.8577 2.31228 -5.40192 0
M  V30 307 H 24.3817 3.21985 -5.18804 0
M  V30 308 H 25.7957 0.995056 -5.64599 0
M  V30 309 H 24.1927 0.284639 -5.99425 0
M  V30 310 H 25.2627 -0.506041 -4.82252 0
M  V30 311 N 26.6058 1.57591 -0.0167156 0
M  V30 312 C 27.8458 1.93145 0.668902 0
M  V30 313 C 28.2098 0.892406 1.7 0
M  V30 314 O 29.4108 1.13373 2.43721 0
M  V30 315 C 27.6818 3.33678 1.28039 0
M  V30 316 S 29.2408 3.91142 1.9888 0
M  V30 317 H 26.0588 0.67593 0.220545 0
M  V30 318 H 28.6608 1.95347 -0.0774105 0
M  V30 319 H 27.3648 4.07126 0.517339 0
M  V30 320 H 26.8958 3.3489 2.06427 0
M  V30 321 H 28.9108 3.73571 3.26587 0
M  V30 322 N 28.0839 -0.256276 1.55502 0
M  V30 323 C 29.3119 -1.00342 1.8094 0
M  V30 324 C 29.7269 -1.79307 0.59114 0
M  V30 325 O 29.0839 -1.77114 -0.440081 0
M  V30 326 C 29.1349 -1.94875 3.04476 0
M  V30 327 O 28.8559 -1.19107 4.21598 0
M  V30 328 C 30.3569 -2.81266 3.42644 0
M  V30 329 H 27.5769 -0.295685 0.602338 0
M  V30 330 H 30.1209 -0.281998 2.02546 0
M  V30 331 H 28.2759 -2.62457 2.84947 0
M  V30 332 H 28.6899 -1.82969 4.91551 0
M  V30 333 H 30.1639 -3.43362 4.32211 0
M  V30 334 H 30.6409 -3.51897 2.62802 0
M  V30 335 H 31.2469 -2.1915 3.64491 0
M  V30 336 N 29.562 -1.4872 -0.521534 0
M  V30 337 C 30.525 -1.63379 -1.60748 0
M  V30 338 C 31.525 -0.50661 -1.52611 0
M  V30 339 O 32.715 -0.772601 -1.5613 0
M  V30 340 C 29.847 -1.61192 -3.00383 0
M  V30 341 H 31.04 -2.60217 -1.49087 0
M  V30 342 H 28.593 -1.37444 -0.744235 0
M  V30 343 H 29.328 -0.65863 -3.17541 0
M  V30 344 H 29.113 -2.43032 -3.07698 0
M  V30 345 H 30.603 -1.7466 -3.7932 0
M  V30 346 N 31.0401 0.771051 -1.3745 0
M  V30 347 C 32.4561 1.07171 -1.18265 0
M  V30 348 C 32.6561 2.01491 -0.019287 0
M  V30 349 O 31.7121 2.44244 0.640408 0
M  V30 350 C 33.0251 1.66854 -2.50161 0
M  V30 351 C 34.5731 1.79109 -2.56689 0
M  V30 352 C 35.0481 2.42205 -3.88717 0
M  V30 353 N 36.5391 2.49655 -3.90162 0
M  V30 354 C 37.2741 2.9933 -4.8907 0
M  V30 355 N 36.7701 3.49172 -5.98374 0
M  V30 356 N 38.5631 2.9821 -4.76474 0
M  V30 357 H 30.7141 0.144796 -2.11906 0
M  V30 358 H 32.9771 0.126863 -0.939473 0
M  V30 359 H 32.6831 1.05017 -3.35655 0
M  V30 360 H 32.5571 2.6614 -2.673 0
M  V30 361 H 34.9441 2.40077 -1.71601 0
M  V30 362 H 35.0251 0.785757 -2.43433 0
M  V30 363 H 34.6691 1.81875 -4.74219 0
M  V30 364 H 34.5991 3.43345 -3.99276 0
M  V30 365 H 37.0901 2.14383 -3.11205 0
M  V30 366 H 37.4031 3.8548 -6.69795 0
M  V30 367 H 35.7481 3.47275 -6.02018 0
M  V30 368 H 38.9391 2.58572 -3.90203 0
M  V30 369 H 39.1121 3.36613 -5.53711 0
M  V30 370 N 32.5182 1.22032 0.997298 0
M  V30 371 C 33.9292 1.0397 1.55071 0
M  V30 372 C 34.2802 -0.398192 1.92117 0
M  V30 373 O 33.4052 -1.28254 1.74298 0
M  V30 374 C 34.0002 1.88109 2.81781 0
M  V30 375 C 32.5592 1.74357 3.33581 0
M  V30 376 C 31.7062 1.84846 2.06706 0
M  V30 377 H 34.6572 1.35941 0.818883 0
M  V30 378 H 34.6782 1.39589 3.53971 0
M  V30 379 H 34.1902 2.92754 2.54787 0
M  V30 380 H 32.2912 0.72427 3.65493 0
M  V30 381 H 32.4042 2.56772 4.04481 0
M  V30 382 H 30.7682 1.28238 2.20062 0
M  V30 383 H 31.5512 2.91014 1.82114 0
M  V30 384 N 33.9963 -1.19345 1.0293 0
M  V30 385 C 35.2213 -1.93538 0.745511 0
M  V30 386 C 35.6463 -1.75007 -0.689511 0
M  V30 387 O 35.0043 -1.05265 -1.47611 0
M  V30 388 C 35.0523 -3.43336 1.10239 0
M  V30 389 O 34.1563 -4.11806 0.221289 0
M  V30 390 H 33.4973 -0.604193 0.275404 0
M  V30 391 H 36.0273 -1.5141 1.37609 0
M  V30 392 H 36.0373 -3.94004 1.05947 0
M  V30 393 H 34.7123 -3.56146 2.14786 0
M  V30 394 H 33.2893 -3.715 0.322842 0
M  V30 395 N 35.4744 -0.807222 -1.35358 0
M  V30 396 C 36.8854 -0.44876 -1.81226 0
M  V30 397 C 37.2364 1.02929 -1.67033 0
M  V30 398 O 36.3614 1.79991 -1.20133 0
M  V30 399 C 36.9564 -0.807774 -3.2903 0
M  V30 400 C 35.5154 -0.501901 -3.73039 0
M  V30 401 C 34.6624 -1.03304 -2.57339 0
M  V30 402 H 37.6134 -0.998808 -1.23327 0
M  V30 403 H 37.6344 -0.10554 -3.80354 0
M  V30 404 H 37.1464 -1.88357 -3.39328 0
M  V30 405 H 35.2474 0.565128 -3.68289 0
M  V30 406 H 35.3604 -1.03497 -4.67787 0
M  V30 407 H 33.7244 -0.455339 -2.50597 0
M  V30 408 H 34.5074 -2.11496 -2.70415 0
M  V30 409 N 36.9525 1.47285 -0.560781 0
M  V30 410 C 38.1805 2.06855 -0.0430262 0
M  V30 411 C 38.5955 1.41291 1.25229 0
M  V30 412 O 37.9525 0.510648 1.7521 0
M  V30 413 C 38.0035 3.61178 0.152518 0
M  V30 414 O 37.7245 4.24285 -1.0915 0
M  V30 415 C 39.2255 4.37624 0.707145 0
M  V30 416 H 36.4455 0.669319 -0.0474652 0
M  V30 417 H 38.9895 1.89237 -0.77521 0
M  V30 418 H 37.1445 3.78298 0.834843 0
M  V30 419 H 37.5585 5.16868 -0.891482 0
M  V30 420 H 39.0325 5.46271 0.793244 0
M  V30 421 H 39.5095 4.04152 1.71923 0
M  V30 422 H 40.1155 4.25257 0.0604027 0
M  V30 423 N 38.4306 0.297415 1.54768 0
M  V30 424 C 39.3606 -0.573494 2.26348 0
M  V30 425 C 40.3416 -1.14085 1.26169 0
M  V30 426 O 41.5266 -1.17086 1.54934 0
M  V30 427 C 38.6566 -1.74716 3.00153 0
M  V30 428 C 37.6106 -1.31032 4.07449 0
M  V30 429 C 36.9366 -2.56887 4.68949 0
M  V30 430 C 38.2366 -0.444183 5.20408 0
M  V30 431 H 39.9306 0.0235131 2.99391 0
M  V30 432 H 37.4766 0.0127488 1.43994 0
M  V30 433 H 39.4296 -2.3625 3.48947 0
M  V30 434 H 38.1536 -2.37035 2.24682 0
M  V30 435 H 36.8126 -0.718066 3.59499 0
M  V30 436 H 36.4606 -3.17512 3.90122 0
M  V30 437 H 36.1606 -2.2836 5.41411 0
M  V30 438 H 37.6846 -3.19229 5.20505 0
M  V30 439 H 39.0986 -0.9651 5.65118 0
M  V30 440 H 37.4956 -0.252846 5.99567 0
M  V30 441 H 38.5656 0.531609 4.81977 0
M  V30 442 N 39.9087 -1.5758 0.0250728 0
M  V30 443 C 41.3197 -1.79476 -0.514323 0
M  V30 444 C 41.6707 -0.934956 -1.72491 0
M  V30 445 O 40.7957 -0.144245 -2.15919 0
M  V30 446 C 41.3907 -3.25503 -0.939842 0
M  V30 447 C 39.9497 -3.48408 -1.42438 0
M  V30 448 C 39.0967 -2.74583 -0.387201 0
M  V30 449 H 42.0477 -1.567 0.25113 0
M  V30 450 H 42.0687 -3.34992 -1.80445 0
M  V30 451 H 41.5807 -3.88056 -0.0585628 0
M  V30 452 H 39.6817 -2.91103 -2.32572 0
M  V30 453 H 39.7947 -4.57119 -1.43455 0
M  V30 454 H 38.1587 -2.39942 -0.854409 0
M  V30 455 H 38.9417 -3.39849 0.485543 0
M  V30 456 N 41.3868 0.248026 -1.55636 0
M  V30 457 C 42.2968 1.32859 -1.93354 0
M  V30 458 C 43.3128 1.52719 -0.833838 0
M  V30 459 O 44.4888 1.66363 -1.13513 0
M  V30 460 C 41.5538 2.66337 -2.21958 0
M  V30 461 C 40.6148 2.55008 -3.45354 0
M  V30 462 C 39.8478 3.82121 -3.72584 0
M  V30 463 O 40.0708 4.83951 -3.01907 0
M  V30 464 O 39.0048 3.80822 -4.6611 0
M  V30 465 H 42.8308 1.03862 -2.85388 0
M  V30 466 H 40.4158 0.448686 -1.42503 0
M  V30 467 H 42.2978 3.45216 -2.4167 0
M  V30 468 H 40.9728 2.95068 -1.33103 0
M  V30 469 H 39.8798 1.7442 -3.30951 0
M  V30 470 H 41.2128 2.31222 -4.34508 0
M  V30 471 N 42.8649 1.48995 0.513639 0
M  V30 472 C 43.7969 1.60836 1.63293 0
M  V30 473 C 44.8099 0.491701 1.55197 0
M  V30 474 O 45.9989 0.763238 1.6136 0
M  V30 475 C 43.0989 1.53731 3.02027 0
M  V30 476 C 42.2719 2.80715 3.35437 0
M  V30 477 C 41.3309 2.66837 4.53525 0
M  V30 478 O 40.3569 3.40753 4.55934 0
M  V30 479 N 41.5589 1.77539 5.52684 0
M  V30 480 H 44.3239 2.57366 1.53566 0
M  V30 481 H 41.8849 1.45925 0.701259 0
M  V30 482 H 43.8769 1.42118 3.78926 0
M  V30 483 H 42.4469 0.651092 3.05744 0
M  V30 484 H 41.6669 3.06772 2.47557 0
M  V30 485 H 42.9549 3.64927 3.54551 0
M  V30 486 H 42.3529 1.16719 5.53528 0
M  V30 487 H 40.9099 1.71856 6.28736 0
M  V30 488 N 44.343 -0.763751 1.37857 0
M  V30 489 C 45.306 -1.85889 1.34081 0
M  V30 490 C 46.306 -1.58949 0.243277 0
M  V30 491 O 47.496 -1.66882 0.499589 0
M  V30 492 C 44.628 -3.23176 1.08489 0
M  V30 493 H 45.821 -1.90648 2.31502 0
M  V30 494 H 43.374 -0.964367 1.23003 0
M  V30 495 H 44.109 -3.24091 0.116318 0
M  V30 496 H 43.894 -3.44124 1.8794 0
M  V30 497 H 45.384 -4.03254 1.08517 0
M  V30 498 N 45.8211 -1.22559 -0.990812 0
M  V30 499 C 46.7531 -0.955325 -2.08342 0
M  V30 500 C 47.7661 0.0668408 -1.62663 0
M  V30 501 O 48.9551 -0.167421 -1.77713 0
M  V30 502 C 46.0551 -0.415566 -3.36342 0
M  V30 503 C 45.2281 -1.49544 -4.11042 0
M  V30 504 C 44.2871 -0.962399 -5.17324 0
M  V30 505 O 43.3131 -1.64907 -5.44788 0
M  V30 506 N 44.5151 0.215134 -5.80101 0
M  V30 507 H 47.2801 -1.89596 -2.32106 0
M  V30 508 H 44.8411 -1.13276 -1.15673 0
M  V30 509 H 46.8331 -0.0442386 -4.04676 0
M  V30 510 H 45.4031 0.430232 -3.09625 0
M  V30 511 H 44.6231 -2.04 -3.37309 0
M  V30 512 H 45.9111 -2.22195 -4.57719 0
M  V30 513 H 45.3091 0.789779 -5.6016 0
M  V30 514 H 43.8661 0.527826 -6.49659 0
M  V30 515 N 47.2992 1.18797 -1.03562 0
M  V30 516 C 48.7102 1.70322 -0.764676 0
M  V30 517 C 49.0612 1.82708 0.714996 0
M  V30 518 O 48.1862 1.50299 1.55689 0
M  V30 519 C 48.7812 3.09356 -1.38145 0
M  V30 520 C 47.3402 3.58114 -1.15895 0
M  V30 521 C 46.4872 2.34798 -1.4753 0
M  V30 522 H 49.4382 1.03543 -1.20268 0
M  V30 523 H 49.4592 3.72378 -0.781977 0
M  V30 524 H 48.9712 3.00309 -2.45837 0
M  V30 525 H 47.0722 3.72464 -0.100544 0
M  V30 526 H 47.1852 4.4184 -1.8524 0
M  V30 527 H 45.5492 2.38464 -0.894829 0
M  V30 528 H 46.3322 2.28375 -2.56319 0
M  V30 529 N 48.7773 0.814389 1.34928 0
M  V30 530 C 50.0233 0.408167 1.99263 0
M  V30 531 C 50.3783 -1.0154 1.63424 0
M  V30 532 O 49.6713 -1.69607 0.891289 0
M  V30 533 C 49.8653 0.537781 3.53331 0
M  V30 534 C 49.6943 1.9724 4.04137 0
M  V30 535 C 48.4643 2.60245 4.33129 0
M  V30 536 C 50.6623 2.93801 4.2212 0
M  V30 537 N 48.6443 3.95036 4.69914 0
M  V30 538 C 50.0153 4.1348 4.6199 0
M  V30 539 C 52.0703 2.9053 4.04348 0
M  V30 540 C 50.7733 5.3033 4.85945 0
M  V30 541 C 52.7993 4.06589 4.29464 0
M  V30 542 C 52.1613 5.25017 4.69613 0
M  V30 543 H 48.2603 0.197289 0.756704 0
M  V30 544 H 50.8443 1.05728 1.63492 0
M  V30 545 H 49.0153 -0.0813868 3.88315 0
M  V30 546 H 50.7473 0.105389 4.04563 0
M  V30 547 H 47.5023 2.11545 4.23728 0
M  V30 548 H 47.9263 4.64455 4.92555 0
M  V30 549 H 52.5683 2.00115 3.72443 0
M  V30 550 H 50.2863 6.21309 5.16721 0
M  V30 551 H 53.8723 4.05447 4.17257 0
M  V30 552 H 52.7523 6.1333 4.88667 0
M  V30 553 N 50.2554 -1.46986 0.568584 0
M  V30 554 C 51.5034 -2.02041 0.0487022 0
M  V30 555 C 51.8244 -1.44408 -1.31039 0
M  V30 556 O 51.0944 -0.623477 -1.85714 0
M  V30 557 H 49.6744 -0.746849 0.015014 0
M  V30 558 H 52.3364 -1.80257 0.741168 0
M  V30 559 H 51.4324 -3.12085 -0.0308961 0
M  V30 560 N 51.7335 -0.305618 -1.54608 0
M  V30 561 C 52.6965 0.555591 -2.22364 0
M  V30 562 C 53.6965 1.05768 -1.21119 0
M  V30 563 O 54.8865 0.952972 -1.45822 0
M  V30 564 C 52.0185 1.76974 -2.91364 0
M  V30 565 H 53.2115 -0.0364572 -2.99878 0
M  V30 566 H 50.7645 -0.0565007 -1.56198 0
M  V30 567 H 51.4995 2.40151 -2.17941 0
M  V30 568 H 51.2845 1.41732 -3.65588 0
M  V30 569 H 52.7745 2.38148 -3.43038 0
M  V30 570 N 53.2116 1.57565 -0.0334293 0
M  V30 571 C 54.6226 1.79746 0.504798 0
M  V30 572 C 54.9736 0.944091 1.71992 0
M  V30 573 O 54.0986 0.155694 2.15839 0
M  V30 574 C 54.6936 3.25997 0.922567 0
M  V30 575 C 53.2526 3.49159 1.40588 0
M  V30 576 C 52.3996 2.74785 0.372633 0
M  V30 577 H 55.3506 1.56565 -0.259436 0
M  V30 578 H 55.3716 3.35945 1.78666 0
M  V30 579 H 54.8836 3.88081 0.0379825 0
M  V30 580 H 52.9846 2.92332 2.31025 0
M  V30 581 H 53.0976 4.57873 1.41028 0
M  V30 582 H 51.4616 2.40391 0.841672 0
M  V30 583 H 52.2446 3.39587 -0.503559 0
M  V30 584 N 54.6897 -0.239769 1.55765 0
M  V30 585 C 55.9357 -0.968234 1.78194 0
M  V30 586 C 56.2687 -1.84701 0.599938 0
M  V30 587 O 55.5437 -1.9031 -0.401524 0
M  V30 588 C 55.8267 -1.8227 3.10564 0
M  V30 589 C 55.6797 -0.971633 4.3918 0
M  V30 590 C 56.9987 -2.80388 3.39221 0
M  V30 591 H 54.1177 -0.350572 0.648281 0
M  V30 592 H 56.7597 -0.238259 1.885 0
M  V30 593 H 54.9097 -2.44507 3.01908 0
M  V30 594 H 56.5817 -0.367408 4.59835 0
M  V30 595 H 54.8247 -0.276276 4.32919 0
M  V30 596 H 55.4957 -1.60346 5.28198 0
M  V30 597 H 57.9717 -2.28287 3.47885 0
M  V30 598 H 56.8477 -3.3729 4.33044 0
M  V30 599 H 57.1087 -3.57212 2.60484 0
M  V30 600 N 56.1678 -1.49265 -0.50573 0
M  V30 601 C 57.0778 -1.68312 -1.63427 0
M  V30 602 C 58.0938 -0.565682 -1.64548 0
M  V30 603 O 59.2698 -0.839801 -1.83055 0
M  V30 604 C 56.3348 -1.74107 -2.99813 0
M  V30 605 C 55.3958 -2.97653 -3.09356 0
M  V30 606 C 54.6288 -3.03163 -4.39236 0
M  V30 607 O 54.8518 -2.16396 -5.27758 0
M  V30 608 O 53.7858 -3.9558 -4.53652 0
M  V30 609 H 57.6118 -2.63907 -1.50289 0
M  V30 610 H 55.1968 -1.32951 -0.681502 0
M  V30 611 H 57.0788 -1.803 -3.80881 0
M  V30 612 H 55.7538 -0.816901 -3.13223 0
M  V30 613 H 54.6608 -2.96981 -2.27493 0
M  V30 614 H 55.9938 -3.89535 -3.00871 0
M  V30 615 N 57.6459 0.756429 -1.3826 0
M  V30 616 C 58.8919 1.51772 -1.34511 0
M  V30 617 C 59.2249 1.94089 0.0656691 0
M  V30 618 O 58.4999 1.65221 1.02626 0
M  V30 619 C 58.7829 2.77226 -2.29821 0
M  V30 620 C 58.6359 2.41065 -3.79747 0
M  V30 621 C 59.9549 3.79236 -2.23312 0
M  V30 622 H 57.0739 0.550578 -0.489931 0
M  V30 623 H 59.7159 0.866607 -1.69086 0
M  V30 624 H 57.8659 3.32784 -2.00467 0
M  V30 625 H 59.5379 1.91303 -4.19763 0
M  V30 626 H 57.7809 1.7356 -3.97567 0
M  V30 627 H 58.4519 3.3081 -4.41892 0
M  V30 628 H 60.9279 3.3321 -2.49219 0
M  V30 629 H 59.8039 4.64714 -2.92116 0
M  V30 630 H 60.0649 4.24615 -1.23102 0
M  V30 631 N 59.124 1.23083 0.984299 0
M  V30 632 C 60.034 1.02515 2.11016 0
M  V30 633 C 61.05 -0.0291702 1.73976 0
M  V30 634 O 62.226 0.165434 2.00719 0
M  V30 635 C 59.291 0.614673 3.41208 0
M  V30 636 C 58.352 1.74359 3.92297 0
M  V30 637 C 57.585 1.35261 5.16275 0
M  V30 638 O 57.808 0.235136 5.69915 0
M  V30 639 O 56.742 2.17227 5.61334 0
M  V30 640 H 60.568 1.96862 2.31255 0
M  V30 641 H 58.153 1.01753 1.09392 0
M  V30 642 H 60.035 0.396518 4.1953 0
M  V30 643 H 58.71 -0.299851 3.22308 0
M  V30 644 H 57.617 2.01635 3.1511 0
M  V30 645 H 58.95 2.63629 4.15645 0
M  V30 646 N 60.6021 -1.18246 1.0419 0
M  V30 647 C 61.8271 -1.92736 0.765996 0
M  V30 648 C 62.2521 -1.75728 -0.67091 0
M  V30 649 O 61.6101 -1.06825 -1.46486 0
M  V30 650 C 61.6581 -3.42148 1.13875 0
M  V30 651 O 60.7621 -4.11548 0.264954 0
M  V30 652 H 60.1031 -0.601238 0.281797 0
M  V30 653 H 62.6331 -1.49942 1.39207 0
M  V30 654 H 62.6431 -3.92858 1.1012 0
M  V30 655 H 61.3181 -3.53848 2.18551 0
M  V30 656 H 59.8951 -3.71137 0.362226 0
M  V30 657 N 62.0802 -0.821533 -1.34494 0
M  V30 658 C 63.3272 -0.408946 -1.98328 0
M  V30 659 C 63.6552 1.02764 -1.65136 0
M  V30 660 O 62.9102 1.73026 -0.914349 0
M  V30 661 C 63.2092 -0.556512 -3.53041 0
M  V30 662 C 62.8752 -1.95861 -4.0614 0
M  V30 663 C 61.5372 -2.34217 -4.20352 0
M  V30 664 C 63.8892 -2.87523 -4.34718 0
M  V30 665 C 61.2172 -3.63572 -4.6047 0
M  V30 666 C 63.5692 -4.1634 -4.76281 0
M  V30 667 C 62.2332 -4.54675 -4.88699 0
M  V30 668 H 61.5032 -0.149644 -0.725732 0
M  V30 669 H 64.1502 -1.04521 -1.6046 0
M  V30 670 H 62.4552 0.163148 -3.9146 0
M  V30 671 H 64.1522 -0.217826 -4.00408 0
M  V30 672 H 60.7422 -1.65066 -3.95539 0
M  V30 673 H 64.9262 -2.59133 -4.23277 0
M  V30 674 H 60.1822 -3.93101 -4.68275 0
M  V30 675 H 64.3562 -4.87455 -4.97354 0
M  V30 676 H 61.9832 -5.54959 -5.19542 0
M  V30 677 N 63.5583 1.46682 -0.576371 0
M  V30 678 C 64.4883 2.33028 0.148397 0
M  V30 679 C 65.4693 1.44961 0.889956 0
M  V30 680 O 66.6543 1.73789 0.866662 0
M  V30 681 C 63.7843 3.27117 1.1667 0
M  V30 682 C 62.7383 4.24575 0.540386 0
M  V30 683 C 62.0643 5.08126 1.6647 0
M  V30 684 C 63.3643 5.19722 -0.518331 0
M  V30 685 H 65.0583 2.93875 -0.572509 0
M  V30 686 H 62.6043 1.41315 -0.276768 0
M  V30 687 H 64.5573 3.86374 1.68204 0
M  V30 688 H 63.2813 2.64364 1.9178 0
M  V30 689 H 61.9403 3.66571 0.0461769 0
M  V30 690 H 61.5883 4.41762 2.40531 0
M  V30 691 H 61.2883 5.74122 1.25131 0
M  V30 692 H 62.8123 5.70246 2.18293 0
M  V30 693 H 64.2263 5.73232 -0.0883058 0
M  V30 694 H 62.6233 5.94026 -0.851679 0
M  V30 695 H 63.6933 4.64037 -1.40703 0
M  V30 696 N 65.0364 0.313813 1.54444 0
M  V30 697 C 66.2824 -0.292108 2.00685 0
M  V30 698 C 66.6154 -1.52548 1.20177 0
M  V30 699 O 65.8904 -1.92452 0.281531 0
M  V30 700 C 66.1734 -0.635968 3.5444 0
M  V30 701 C 66.0264 0.607437 4.4568 0
M  V30 702 C 67.3454 -1.45747 4.15266 0
M  V30 703 H 64.4644 -0.104697 0.729526 0
M  V30 704 H 67.1064 0.428457 1.85106 0
M  V30 705 H 65.2564 -1.24986 3.67846 0
M  V30 706 H 66.9284 1.24581 4.44159 0
M  V30 707 H 65.1714 1.23822 4.15753 0
M  V30 708 H 65.8424 0.322515 5.51057 0
M  V30 709 H 68.3184 -0.938645 4.05375 0
M  V30 710 H 67.1944 -1.66683 5.2298 0
M  V30 711 H 67.4554 -2.45063 3.67963 0
M  V30 712 N 66.5145 -1.57545 0.0417849 0
M  V30 713 C 67.4645 -2.07483 -0.945247 0
M  V30 714 C 68.4485 -0.977983 -1.27767 0
M  V30 715 O 69.6405 -1.24142 -1.26166 0
M  V30 716 C 66.7695 -2.61576 -2.22335 0
M  V30 717 C 65.8555 -3.78213 -1.91874 0
M  V30 718 N 66.2465 -4.88344 -1.31733 0
M  V30 719 C 64.5445 -3.8694 -2.21796 0
M  V30 720 C 65.2455 -5.69462 -1.1869 0
M  V30 721 N 64.2215 -5.16771 -1.68666 0
M  V30 722 H 68.0235 -2.90029 -0.475441 0
M  V30 723 H 65.5375 -1.61581 -0.162911 0
M  V30 724 H 67.5345 -2.95651 -2.93932 0
M  V30 725 H 66.1945 -1.80465 -2.69931 0
M  V30 726 H 67.2055 -5.08335 -0.990729 0
M  V30 727 H 63.8825 -3.16757 -2.71977 0
M  V30 728 H 65.2725 -6.68023 -0.720793 0
M  V30 729 N 67.9926 0.231505 -1.5589 0
M  V30 730 C 69.4036 0.799327 -1.68724 0
M  V30 731 C 69.7546 1.85398 -0.642022 0
M  V30 732 O 68.8796 2.1539 0.208784 0
M  V30 733 C 69.4746 1.45664 -3.05888 0
M  V30 734 C 68.0336 1.97197 -3.20609 0
M  V30 735 C 67.1806 0.828552 -2.64632 0
M  V30 736 H 70.1316 0.00702616 -1.58698 0
M  V30 737 H 70.1526 2.32517 -3.01191 0
M  V30 738 H 69.6646 0.688808 -3.81939 0
M  V30 739 H 67.7656 2.76813 -2.4941 0
M  V30 740 H 67.8786 2.15878 -4.27707 0
M  V30 741 H 66.2426 1.23321 -2.22854 0
M  V30 742 H 67.0256 0.0735544 -3.43221 0
M  V30 743 N 69.4707 1.49531 0.497807 0
M  V30 744 C 70.7187 1.58865 1.24926 0
M  V30 745 C 71.0397 0.278721 1.92998 0
M  V30 746 O 70.3097 -0.702144 1.82885 0
M  V30 747 H 68.8897 0.585343 0.464094 0
M  V30 748 H 71.5517 1.86174 0.57666 0
M  V30 749 H 70.6477 2.38633 2.01149 0
M  V30 750 N 70.9488 -0.749086 1.3866 0
M  V30 751 C 72.2258 -1.4992 1.25632 0
M  V30 752 C 72.6058 -2.10633 -0.140317 0
M  V30 753 O 71.9538 -1.97437 -1.15025 0
M  V30 754 C 72.1638 -2.56195 2.36992 0
M  V30 755 C 73.5118 -3.22972 2.75634 0
M  V30 756 O 74.5358 -2.66502 2.36337 0
M  V30 757 O 73.3948 -4.25122 3.43415 0
M  V30 758 H 70.4888 -0.665067 0.491544 0
M  V30 759 H 73.0348 -0.784113 1.50498 0
M  V30 760 H 71.8068 -2.09612 3.30422 0
M  V30 761 H 71.4298 -3.35279 2.13714 0
M  V30 762 N 72.4269 -1.23603 -0.977757 0
M  V30 763 C 73.3569 -1.04401 -2.0886 0
M  V30 764 C 74.3379 0.0399052 -1.70053 0
M  V30 765 O 75.5229 -0.125246 -1.93796 0
M  V30 766 C 72.6529 -0.637269 -3.41403 0
M  V30 767 C 71.6069 -1.66883 -3.94124 0
M  V30 768 C 70.9329 -1.11745 -5.22893 0
M  V30 769 C 72.2329 -3.06247 -4.23096 0
M  V30 770 H 73.9269 -1.97316 -2.25182 0
M  V30 771 H 71.4729 -0.950096 -1.08209 0
M  V30 772 H 73.4259 -0.48998 -4.18542 0
M  V30 773 H 72.1499 0.327557 -3.24953 0
M  V30 774 H 70.8089 -1.80416 -3.19133 0
M  V30 775 H 70.4569 -0.143527 -5.02795 0
M  V30 776 H 70.1569 -1.80672 -5.59134 0
M  V30 777 H 71.6809 -0.982067 -6.02651 0
M  V30 778 H 73.0949 -2.96001 -4.90975 0
M  V30 779 H 71.4919 -3.72436 -4.70544 0
M  V30 780 H 72.5619 -3.55041 -3.30263 0
M  V30 781 N 73.905 1.17692 -1.04816 0
M  V30 782 C 74.835 2.23777 -0.666791 0
M  V30 783 C 75.816 1.66796 0.33361 0
M  V30 784 O 77.001 1.93039 0.212042 0
M  V30 785 C 74.131 3.47281 -0.0367933 0
M  V30 786 C 73.085 4.17059 -0.961546 0
M  V30 787 C 72.411 5.34342 -0.195626 0
M  V30 788 C 73.711 4.69713 -2.28402 0
M  V30 789 H 75.405 2.55933 -1.55367 0
M  V30 790 H 72.951 1.23019 -0.748484 0
M  V30 791 H 74.904 4.20706 0.241775 0
M  V30 792 H 73.628 3.14381 0.885004 0
M  V30 793 H 72.287 3.45541 -1.22462 0
M  V30 794 H 71.935 4.97692 0.728816 0
M  V30 795 H 71.635 5.81966 -0.811775 0
M  V30 796 H 73.159 6.10553 0.0757473 0
M  V30 797 H 74.573 5.34794 -2.06563 0
M  V30 798 H 72.97 5.279 -2.8538 0
M  V30 799 H 74.04 3.86726 -2.92525 0
M  V30 800 N 75.3831 0.828654 1.34056 0
M  V30 801 C 76.3151 0.212052 2.28217 0
M  V30 802 C 77.3281 -0.601362 1.51286 0
M  V30 803 O 78.5171 -0.430104 1.73241 0
M  V30 804 C 75.6171 -0.72088 3.31144 0
M  V30 805 C 74.7901 0.0509587 4.3737 0
M  V30 806 C 73.8491 -0.803766 5.20025 0
M  V30 807 O 72.8751 -0.246667 5.68665 0
M  V30 808 N 74.0771 -2.1227 5.40298 0
M  V30 809 H 76.8421 1.02105 2.81771 0
M  V30 810 H 74.4031 0.686153 1.46641 0
M  V30 811 H 76.3951 -1.29742 3.8334 0
M  V30 812 H 74.9651 -1.43061 2.77943 0
M  V30 813 H 74.1851 0.808831 3.85813 0
M  V30 814 H 75.4731 0.582065 5.0546 0
M  V30 815 H 74.8711 -2.59898 5.02464 0
M  V30 816 H 73.4281 -2.64796 5.95589 0
M  V30 817 N 76.8612 -1.46375 0.584142 0
M  V30 818 C 77.7912 -2.33103 -0.136037 0
M  V30 819 C 78.7722 -1.45431 -0.882255 0
M  V30 820 O 79.9572 -1.74246 -0.857434 0
M  V30 821 C 77.0872 -3.27731 -1.14933 0
M  V30 822 C 76.0412 -4.24855 -0.517862 0
M  V30 823 C 75.3672 -5.09001 -1.63773 0
M  V30 824 C 76.6672 -5.19439 0.545886 0
M  V30 825 H 78.3612 -2.93568 0.588086 0
M  V30 826 H 75.9072 -1.41166 0.284259 0
M  V30 827 H 77.8602 -3.87261 -1.66153 0
M  V30 828 H 76.5842 -2.65377 -1.90375 0
M  V30 829 H 75.2432 -3.6659 -0.0267361 0
M  V30 830 H 74.8912 -4.43031 -2.38185 0
M  V30 831 H 74.5912 -5.74777 -1.22085 0
M  V30 832 H 76.1152 -5.71396 -2.15266 0
M  V30 833 H 77.5292 -5.73177 0.118704 0
M  V30 834 H 75.9262 -5.93566 0.88317 0
M  V30 835 H 76.9962 -4.63285 1.43162 0
M  V30 836 N 78.3393 -0.321999 -1.54275 0
M  V30 837 C 79.7553 0.0306999 -1.5957 0
M  V30 838 C 79.9553 1.50614 -1.33857 0
M  V30 839 O 79.0113 2.2619 -1.12223 0
M  V30 840 C 80.3243 -0.386122 -2.98211 0
M  V30 841 C 81.8723 -0.336647 -3.11184 0
M  V30 842 C 82.3473 -0.728607 -4.52167 0
M  V30 843 N 83.8383 -0.681952 -4.58152 0
M  V30 844 C 84.5733 -0.957449 -5.6535 0
M  V30 845 N 84.0693 -1.3 -6.80494 0
M  V30 846 N 85.8623 -0.883113 -5.55119 0
M  V30 847 H 78.0133 -1.28332 -1.69247 0
M  V30 848 H 80.2763 -0.521716 -0.791528 0
M  V30 849 H 79.9823 -1.41404 -3.22022 0
M  V30 850 H 79.8563 0.249662 -3.76373 0
M  V30 851 H 82.2433 0.682058 -2.8711 0
M  V30 852 H 82.3243 -1.00734 -2.3513 0
M  V30 853 H 81.9683 -1.74522 -4.76974 0
M  V30 854 H 81.8983 -0.0356152 -5.26588 0
M  V30 855 H 84.3893 -0.428985 -3.75457 0
M  V30 856 H 84.7023 -1.49563 -7.58189 0
M  V30 857 H 83.0473 -1.33824 -6.81994 0
M  V30 858 H 86.2383 -0.615001 -4.64042 0
M  V30 859 H 86.4113 -1.10118 -6.38575 0
M  V30 860 N 79.8174 1.5752 -0.0501392 0
M  V30 861 C 81.0574 1.94521 0.627783 0
M  V30 862 C 81.4214 0.928265 1.68069 0
M  V30 863 O 82.6224 1.18517 2.41261 0
M  V30 864 C 80.8934 3.36319 1.20932 0
M  V30 865 S 82.4524 3.95272 1.90539 0
M  V30 866 H 79.2704 0.680456 0.206158 0
M  V30 867 H 81.8724 1.95139 -0.118829 0
M  V30 868 H 80.5764 4.08132 0.430865 0
M  V30 869 H 80.1074 3.39193 1.99277 0
M  V30 870 H 82.1224 3.80415 3.18589 0
M  V30 871 N 81.2955 -0.223234 1.56011 0
M  V30 872 C 82.7115 -0.572856 1.48965 0
M  V30 873 C 82.9115 -1.87225 0.74492 0
M  V30 874 O 81.9675 -2.50899 0.283896 0
M  V30 875 C 83.2805 -0.653646 2.9351 0
M  V30 876 C 84.8285 -0.744386 3.0402 0
M  V30 877 C 85.3035 -0.856535 4.49919 0
M  V30 878 N 86.7945 -0.9208 4.53955 0
M  V30 879 C 87.5295 -1.02726 5.64123 0
M  V30 880 N 87.0255 -1.09777 6.84047 0
M  V30 881 N 88.8185 -1.06226 5.51971 0
M  V30 882 H 80.9695 0.629462 2.02858 0
M  V30 883 H 83.2325 0.220621 0.921971 0
M  V30 884 H 82.9385 0.231518 3.50937 0
M  V30 885 H 82.8125 -1.51781 3.45315 0
M  V30 886 H 85.1995 -1.61999 2.46658 0
M  V30 887 H 85.2805 0.14541 2.55386 0
M  V30 888 H 84.9245 0.0146069 5.07898 0
M  V30 889 H 84.8545 -1.76172 4.96257 0
M  V30 890 H 87.3455 -0.876694 3.6759 0
M  V30 891 H 87.6585 -1.17872 7.63758 0
M  V30 892 H 86.0035 -1.06693 6.86762 0
M  V30 893 H 89.1945 -1.00382 4.5721 0
M  V30 894 H 89.3675 -1.14177 6.37862 0
M  V30 895 N 82.7736 -1.49793 -0.48987 0
M  V30 896 C 83.7036 -1.70201 -1.59856 0
M  V30 897 C 84.6846 -0.55076 -1.60937 0
M  V30 898 O 85.8696 -0.787841 -1.77501 0
M  V30 899 C 82.9996 -1.77882 -2.98287 0
M  V30 900 C 81.9536 -2.92907 -3.12073 0
M  V30 901 C 81.2796 -2.85712 -4.51965 0
M  V30 902 C 82.5796 -4.3369 -2.91051 0
M  V30 903 H 84.2736 -2.63025 -1.43032 0
M  V30 904 H 81.8196 -1.26574 -0.686664 0
M  V30 905 H 83.7726 -1.90744 -3.75759 0
M  V30 906 H 82.4966 -0.816653 -3.16225 0
M  V30 907 H 81.1556 -2.79665 -2.37029 0
M  V30 908 H 80.8036 -1.8738 -4.66795 0
M  V30 909 H 80.5036 -3.62921 -4.62128 0
M  V30 910 H 82.0276 -3.00598 -5.31482 0
M  V30 911 H 83.4416 -4.47555 -3.58284 0
M  V30 912 H 81.8386 -5.12205 -3.12675 0
M  V30 913 H 82.9086 -4.47362 -1.87071 0
M  V30 914 N 84.2517 0.741722 -1.39055 0
M  V30 915 C 85.6677 1.04638 -1.20512 0
M  V30 916 C 85.8677 2.01405 -0.0620218 0
M  V30 917 O 84.9237 2.45547 0.588457 0
M  V30 918 C 86.2367 1.6151 -2.53643 0
M  V30 919 C 87.7847 1.73623 -2.6043 0
M  V30 920 C 88.2597 2.33906 -3.93767 0
M  V30 921 N 89.7507 2.41323 -3.9537 0
M  V30 922 C 90.4857 2.88888 -4.95309 0
M  V30 923 N 89.9817 3.36401 -6.05645 0
M  V30 924 N 91.7747 2.88037 -4.82692 0
M  V30 925 H 83.9257 0.0998155 -2.12165 0
M  V30 926 H 86.1887 0.106907 -0.941953 0
M  V30 927 H 85.8947 0.978739 -3.37807 0
M  V30 928 H 85.7687 2.60411 -2.72885 0
M  V30 929 H 88.1557 2.36384 -1.76655 0
M  V30 930 H 88.2367 0.733945 -2.45045 0
M  V30 931 H 87.8807 1.71776 -4.7797 0
M  V30 932 H 87.8107 3.34799 -4.06469 0
M  V30 933 H 90.3017 2.07734 -3.15682 0
M  V30 934 H 90.6147 3.71186 -6.77821 0
M  V30 935 H 88.9597 3.34427 -6.09248 0
M  V30 936 H 92.1507 2.50237 -3.95599 0
M  V30 937 H 92.3237 3.24792 -5.60726 0
M  V30 938 N 85.7298 1.2412 0.971189 0
M  V30 939 C 87.0068 0.986867 1.6888 0
M  V30 940 C 87.3868 -0.491857 2.0529 0
M  V30 941 O 86.7348 -1.46531 1.75331 0
M  V30 942 C 86.9448 1.9063 2.92338 0
M  V30 943 C 88.2928 2.17515 3.64654 0
M  V30 944 O 89.3168 1.88254 3.02388 0
M  V30 945 O 88.1758 2.6719 4.7673 0
M  V30 946 H 85.2698 0.372944 0.738134 0
M  V30 947 H 87.8158 1.35203 1.02559 0
M  V30 948 H 86.5878 2.90552 2.62097 0
M  V30 949 H 86.2108 1.54408 3.66393 0
M  V30 950 N 87.2079 -1.17134 1.05439 0
M  V30 951 C 88.4849 -1.83411 0.679699 0
M  V30 952 C 88.8649 -1.9368 -0.839726 0
M  V30 953 O 88.2129 -1.47325 -1.74664 0
M  V30 954 C 88.4229 -3.20918 1.37159 0
M  V30 955 C 89.7709 -3.96796 1.51123 0
M  V30 956 O 90.7949 -3.30406 1.3308 0
M  V30 957 O 89.6539 -5.15778 1.80651 0
M  V30 958 H 86.7479 -0.79154 0.239569 0
M  V30 959 H 89.2939 -1.24411 1.15413 0
M  V30 960 H 88.0659 -3.08428 2.40807 0
M  V30 961 H 87.6889 -3.87587 0.886674 0
M  V30 962 N 88.686 -0.835752 -1.33615 0
M  V30 963 C 89.932 -0.430596 -1.98176 0
M  V30 964 C 90.265 1.00684 -1.66061 0
M  V30 965 O 89.54 1.70339 -0.938877 0
M  V30 966 C 89.823 -0.648065 -3.5422 0
M  V30 967 C 89.676 -2.13255 -3.96033 0
M  V30 968 C 90.995 -0.0922113 -4.40003 0
M  V30 969 H 88.114 -0.157924 -0.719881 0
M  V30 970 H 90.756 -1.05069 -1.58305 0
M  V30 971 H 88.906 -0.120237 -3.88314 0
M  V30 972 H 90.578 -2.725 -3.72211 0
M  V30 973 H 88.821 -2.61823 -3.45878 0
M  V30 974 H 89.492 -2.23547 -5.04708 0
M  V30 975 H 91.968 -0.543343 -4.12537 0
M  V30 976 H 90.844 -0.274083 -5.48215 0
M  V30 977 H 91.105 1.00378 -4.30554 0
M  V30 978 N 90.1641 1.46063 -0.591896 0
M  V30 979 C 91.0961 2.28539 0.174001 0
M  V30 980 C 92.1091 1.39047 0.846753 0
M  V30 981 O 93.2981 1.63564 0.714774 0
M  V30 982 C 90.3981 3.14347 1.26645 0
M  V30 983 C 89.5711 4.32021 0.683856 0
M  V30 984 C 88.6301 4.99157 1.66518 0
M  V30 985 O 87.6561 5.56458 1.19763 0
M  V30 986 N 88.8581 4.97005 2.99943 0
M  V30 987 H 91.6231 2.94911 -0.533633 0
M  V30 988 H 89.1841 1.56077 -0.430294 0
M  V30 989 H 91.1761 3.56125 1.92242 0
M  V30 990 H 89.7461 2.49988 1.87682 0
M  V30 991 H 88.9661 3.93915 -0.1498 0
M  V30 992 H 90.2541 5.08059 0.274567 0
M  V30 993 H 89.6521 4.51714 3.40545 0
M  V30 994 H 88.2091 5.42696 3.61004 0
M  V30 995 N 91.6422 0.330177 1.54103 0
M  V30 996 C 92.8672 -0.274893 2.0557 0
M  V30 997 C 93.2922 -1.44487 1.20437 0
M  V30 998 O 92.6502 -1.80021 0.214991 0
M  V30 999 C 92.6982 -0.68079 3.54115 0
M  V30 1000 O 91.8022 -1.7824 3.71893 0
M  V30 1001 H 91.1432 -0.0483849 0.662235 0
M  V30 1002 H 93.6732 0.480508 1.98878 0
M  V30 1003 H 93.6832 -0.961635 3.96505 0
M  V30 1004 H 92.3582 0.174903 4.15532 0
M  V30 1005 H 90.9352 -1.49985 3.41407 0
M  V30 1006 N 93.1203 -1.57491 0.0584922 0
M  V30 1007 C 94.3693 -1.92155 -0.613146 0
M  V30 1008 C 94.6823 -0.939334 -1.71569 0
M  V30 1009 O 95.8883 -1.17829 -2.44599 0
M  V30 1010 C 94.3443 -3.41303 -1.14195 0
M  V30 1011 C 93.9523 -4.47944 -0.0711265 0
M  V30 1012 C 95.6963 -3.84988 -1.78841 0
M  V30 1013 C 93.6033 -5.88212 -0.613225 0
M  V30 1014 H 92.5333 -0.717162 -0.232796 0
M  V30 1015 H 95.1843 -1.83049 0.12857 0
M  V30 1016 H 93.5663 -3.45437 -1.93621 0
M  V30 1017 H 94.7403 -4.55408 0.702836 0
M  V30 1018 H 93.0553 -4.13644 0.478313 0
M  V30 1019 H 95.6523 -4.87159 -2.20408 0
M  V30 1020 H 95.9953 -3.21632 -2.64308 0
M  V30 1021 H 96.5283 -3.83401 -1.06059 0
M  V30 1022 H 93.2673 -6.55183 0.203978 0
M  V30 1023 H 92.7873 -5.84294 -1.35501 0
M  V30 1024 H 94.4663 -6.37687 -1.09383 0
M  V30 1025 N 94.5984 0.214957 -1.56127 0
M  V30 1026 C 95.5464 1.28601 -1.93816 0
M  V30 1027 C 96.5404 1.48175 -0.821016 0
M  V30 1028 O 97.7464 1.49271 -1.0059 0
M  V30 1029 H 94.1214 0.431302 -0.616022 0
M  V30 1030 H 96.0924 0.940991 -2.83175 0
M  V30 1031 C 94.8414 2.62779 -2.27689 0
M  V30 1032 H 94.1644 2.48527 -3.13168 0
M  V30 1033 H 95.6044 3.36517 -2.57939 0
M  V30 1034 C 94.0634 3.18285 -1.10436 0
M  V30 1035 O 94.5934 4.00002 -0.368945 0
M  V30 1036 N 92.7994 2.7675 -0.886433 0
M  V30 1037 H 92.3464 2.10404 -1.48619 0
M  V30 1038 H 92.3044 3.14229 -0.103656 0
M  V30 1039 N 96.0765 1.50051 0.48192 0
M  V30 1040 C 97.3225 1.61706 1.2338 0
M  V30 1041 C 97.6775 0.308488 1.89911 0
M  V30 1042 O 96.9705 -0.692798 1.78636 0
M  V30 1043 C 97.1645 2.72717 2.30998 0
M  V30 1044 C 96.9935 4.14242 1.75024 0
M  V30 1045 C 95.7635 4.80786 1.55476 0
M  V30 1046 C 97.9615 4.98846 1.25128 0
M  V30 1047 N 95.9435 6.06563 0.946311 0
M  V30 1048 C 97.3145 6.15258 0.765382 0
M  V30 1049 C 99.3695 4.84702 1.13881 0
M  V30 1050 C 98.0725 7.19079 0.178113 0
M  V30 1051 C 100.098 5.8869 0.565486 0
M  V30 1052 C 99.4605 7.04343 0.0899105 0
M  V30 1053 H 95.5595 0.645958 0.440753 0
M  V30 1054 H 98.1435 1.8713 0.537624 0
M  V30 1055 H 96.3145 2.49033 2.98055 0
M  V30 1056 H 98.0465 2.73789 2.9803 0
M  V30 1057 H 94.8015 4.37899 1.80392 0
M  V30 1058 H 95.2255 6.73767 0.660812 0
M  V30 1059 H 99.8675 3.95583 1.49244 0
M  V30 1060 H 97.5855 8.07882 -0.187749 0
M  V30 1061 H 101.171 5.79808 0.480974 0
M  V30 1062 H 100.051 7.83433 -0.346782 0
M  V30 1063 N 97.5546 -0.734337 1.39446 0
M  V30 1064 C 98.4846 -1.86155 1.40955 0
M  V30 1065 C 99.4656 -1.67898 0.272827 0
M  V30 1066 O 100.651 -1.88207 0.478743 0
M  V30 1067 C 97.7806 -3.23912 1.25294 0
M  V30 1068 C 96.7346 -3.56808 2.36373 0
M  V30 1069 C 96.0606 -4.93508 2.058 0
M  V30 1070 C 97.3606 -3.59713 3.78687 0
M  V30 1071 H 99.0546 -1.8515 2.35287 0
M  V30 1072 H 96.6006 -0.889367 1.13253 0
M  V30 1073 H 98.5536 -4.02443 1.2497 0
M  V30 1074 H 97.2776 -3.25446 0.274308 0
M  V30 1075 H 95.9366 -2.80606 2.35914 0
M  V30 1076 H 95.5846 -4.91623 1.06374 0
M  V30 1077 H 95.2846 -5.16486 2.80208 0
M  V30 1078 H 96.8086 -5.74396 2.07128 0
M  V30 1079 H 98.2226 -4.2832 3.81071 0
M  V30 1080 H 96.6196 -3.94209 4.52459 0
M  V30 1081 H 97.6896 -2.59504 4.09617 0
M  V30 1082 N 99.0327 -1.24633 -0.964593 0
M  V30 1083 C 100.449 -1.01239 -1.2338 0
M  V30 1084 C 100.649 0.2769 -1.99588 0
M  V30 1085 O 99.7047 0.992241 -2.32187 0
M  V30 1086 C 101.018 -2.22937 -2.01791 0
M  V30 1087 C 102.566 -2.27594 -2.14872 0
M  V30 1088 C 103.041 -3.48921 -2.96678 0
M  V30 1089 N 104.532 -3.49257 -3.04259 0
M  V30 1090 C 105.267 -4.39795 -3.67924 0
M  V30 1091 N 104.763 -5.40591 -4.33281 0
M  V30 1092 N 106.556 -4.275 -3.64966 0
M  V30 1093 H 98.7067 -2.0748 -0.454502 0
M  V30 1094 H 100.97 -0.910647 -0.26349 0
M  V30 1095 H 100.676 -3.16587 -1.53184 0
M  V30 1096 H 100.55 -2.25306 -3.02518 0
M  V30 1097 H 102.937 -1.34473 -2.6268 0
M  V30 1098 H 103.018 -2.2925 -1.13482 0
M  V30 1099 H 102.662 -4.42359 -2.49562 0
M  V30 1100 H 102.592 -3.4451 -3.98272 0
M  V30 1101 H 105.083 -2.76337 -2.57771 0
M  V30 1102 H 105.396 -6.05904 -4.79687 0
M  V30 1103 H 103.741 -5.44475 -4.3194 0
M  V30 1104 H 106.932 -3.47987 -3.13086 0
M  V30 1105 H 107.105 -4.98258 -4.14298 0
M  V30 1106 N 100.511 1.16574 -1.06058 0
M  V30 1107 C 101.788 1.83048 -0.689416 0
M  V30 1108 C 102.168 1.94122 0.829443 0
M  V30 1109 O 101.516 1.48249 1.7388 0
M  V30 1110 C 101.726 3.20186 -1.38859 0
M  V30 1111 C 103.074 3.95989 -1.53226 0
M  V30 1112 O 104.098 3.29696 -1.3483 0
M  V30 1113 O 102.957 5.14813 -1.83384 0
M  V30 1114 H 100.051 0.790258 -0.243764 0
M  V30 1115 H 102.597 1.23797 -1.16071 0
M  V30 1116 H 101.369 3.07146 -2.4244 0
M  V30 1117 H 100.992 3.87112 -0.907216 0
M  V30 1118 N 101.989 0.842826 1.3317 0
M  V30 1119 C 103.237 0.439577 1.97262 0
M  V30 1120 C 103.558 -1.00548 1.67078 0
M  V30 1121 O 102.828 -1.70098 0.971779 0
M  V30 1122 H 101.408 0.159558 0.72976 0
M  V30 1123 H 104.07 1.07665 1.62463 0
M  V30 1124 H 103.166 0.574886 3.0676 0
M  V30 1125 N 103.467 -1.45747 0.599634 0
M  V30 1126 C 104.713 -2.02592 0.0918643 0
M  V30 1127 C 105.046 -1.46806 -1.27128 0
M  V30 1128 O 104.321 -0.639658 -1.83681 0
M  V30 1129 C 104.604 -3.60073 0.0443398 0
M  V30 1130 C 104.457 -4.26208 1.43759 0
M  V30 1131 C 105.776 -4.35309 -0.647608 0
M  V30 1132 H 102.895 -0.736175 0.034857 0
M  V30 1133 H 105.537 -1.73694 0.770081 0
M  V30 1134 H 103.687 -3.84823 -0.533224 0
M  V30 1135 H 105.359 -4.12668 2.06162 0
M  V30 1136 H 103.602 -3.84916 2.00056 0
M  V30 1137 H 104.273 -5.35069 1.35665 0
M  V30 1138 H 106.749 -4.15805 -0.156776 0
M  V30 1139 H 105.625 -5.45038 -0.649942 0
M  V30 1140 H 105.886 -4.07598 -1.71219 0
M  V30 1141 N 104.945 -0.338344 -1.53925 0
M  V30 1142 C 105.877 0.555117 -2.22376 0
M  V30 1143 C 106.89 1.06812 -1.22862 0
M  V30 1144 O 108.079 0.979163 -1.49247 0
M  V30 1145 C 105.179 1.77609 -2.88631 0
M  V30 1146 C 104.352 1.39927 -4.14414 0
M  V30 1147 C 103.411 2.47936 -4.64127 0
M  V30 1148 O 102.437 2.11461 -5.28463 0
M  V30 1149 N 103.639 3.79107 -4.39612 0
M  V30 1150 H 106.404 -0.0310778 -2.99684 0
M  V30 1151 H 103.965 -0.162226 -1.61085 0
M  V30 1152 H 105.957 2.49287 -3.18807 0
M  V30 1153 H 104.527 2.26978 -2.14941 0
M  V30 1154 H 103.747 0.513481 -3.90841 0
M  V30 1155 H 105.035 1.12341 -4.96243 0
M  V30 1156 H 104.433 4.11531 -3.88148 0
M  V30 1157 H 102.99 4.4697 -4.74406 0
M  V30 1158 N 106.423 1.57458 -0.0668435 0
M  V30 1159 C 107.353 2.15468 0.899764 0
M  V30 1160 C 108.334 1.08042 1.31381 0
M  V30 1161 O 109.519 1.36054 1.38574 0
M  V30 1162 C 106.649 2.71232 2.16911 0
M  V30 1163 C 105.603 3.83781 1.89463 0
M  V30 1164 C 104.929 4.26127 3.22986 0
M  V30 1165 C 106.229 5.08238 1.20381 0
M  V30 1166 H 107.923 2.96488 0.416529 0
M  V30 1167 H 105.469 1.4262 0.198908 0
M  V30 1168 H 107.422 3.10458 2.84945 0
M  V30 1169 H 106.146 1.87426 2.67468 0
M  V30 1170 H 104.805 3.45051 1.23836 0
M  V30 1171 H 104.453 3.39249 3.71374 0
M  V30 1172 H 104.153 5.01993 3.05413 0
M  V30 1173 H 105.677 4.67966 3.92225 0
M  V30 1174 H 107.091 5.44811 1.78475 0
M  V30 1175 H 105.488 5.89349 1.13083 0
M  V30 1176 H 106.558 4.84558 0.182153 0
M  V30 1177 N 107.901 -0.206675 1.56239 0
M  V30 1178 C 108.864 -1.23976 1.92776 0
M  V30 1179 C 109.864 -1.39041 0.807729 0
M  V30 1180 O 111.054 -1.37051 1.0753 0
M  V30 1181 C 108.186 -2.61112 2.19165 0
M  V30 1182 H 109.379 -0.927764 2.85189 0
M  V30 1183 H 106.932 -0.447718 1.4975 0
M  V30 1184 H 107.667 -2.97386 1.29352 0
M  V30 1185 H 107.452 -2.51552 3.00772 0
M  V30 1186 H 108.942 -3.35633 2.48476 0
M  V30 1187 N 109.379 -1.50304 -0.473955 0
M  V30 1188 C 110.289 -1.7174 -1.5982 0
M  V30 1189 C 111.305 -0.600457 -1.63311 0
M  V30 1190 O 112.481 -0.878441 -1.81233 0
M  V30 1191 C 109.546 -1.80427 -2.96052 0
M  V30 1192 C 108.607 -3.04148 -3.02972 0
M  V30 1193 C 107.84 -3.12411 -4.32706 0
M  V30 1194 O 108.063 -2.27542 -5.23049 0
M  V30 1195 O 106.997 -4.05113 -4.45159 0
M  V30 1196 H 110.823 -2.67035 -1.44657 0
M  V30 1197 H 108.408 -1.34366 -0.653148 0
M  V30 1198 H 110.29 -1.88338 -3.7697 0
M  V30 1199 H 108.965 -0.883156 -3.11419 0
M  V30 1200 H 107.872 -3.0174 -2.21142 0
M  V30 1201 H 109.205 -3.95829 -2.92541 0
M  V30 1202 N 110.857 0.726932 -1.39834 0
M  V30 1203 C 112.082 1.52121 -1.40976 0
M  V30 1204 C 112.507 1.88098 -0.00826029 0
M  V30 1205 O 111.865 1.52479 0.980807 0
M  V30 1206 C 111.913 2.78021 -2.29644 0
M  V30 1207 O 111.017 3.74272 -1.73188 0
M  V30 1208 H 110.358 0.45908 -0.479731 0
M  V30 1209 H 112.888 0.896207 -1.83927 0
M  V30 1210 H 112.898 3.26671 -2.44438 0
M  V30 1211 H 111.573 2.51169 -3.31492 0
M  V30 1212 H 110.15 3.33073 -1.6768 0
M  V30 1213 N 112.336 1.25143 0.95797 0
M  V30 1214 C 113.284 1.05019 2.07542 0
M  V30 1215 C 114.278 -0.0178751 1.69391 0
M  V30 1216 O 115.484 0.137472 1.79474 0
M  V30 1217 H 111.859 0.32265 0.679265 0
M  V30 1218 H 113.83 1.99759 2.21673 0
M  V30 1219 C 112.579 0.682074 3.40944 0
M  V30 1220 H 111.902 1.49573 3.70767 0
M  V30 1221 H 113.342 0.580945 4.20001 0
M  V30 1222 C 111.801 -0.611608 3.31302 0
M  V30 1223 O 112.331 -1.65465 3.66038 0
M  V30 1224 N 110.537 -0.595982 2.84423 0
M  V30 1225 H 110.084 0.253192 2.56353 0
M  V30 1226 H 110.042 -1.46173 2.78354 0
M  V30 1227 N 113.814 -1.1601 1.06675 0
M  V30 1228 C 115.23 -1.38622 0.790948 0
M  V30 1229 C 115.43 -1.92109 -0.607965 0
M  V30 1230 O 114.486 -2.12239 -1.36787 0
M  V30 1231 C 115.799 -2.36347 1.85905 0
M  V30 1232 C 117.347 -2.50023 1.88301 0
M  V30 1233 C 117.822 -3.51033 2.94176 0
M  V30 1234 N 119.313 -3.58563 2.93235 0
M  V30 1235 C 120.048 -4.36521 3.71803 0
M  V30 1236 N 119.544 -5.17869 4.602 0
M  V30 1237 N 121.337 -4.31541 3.60178 0
M  V30 1238 H 113.488 -0.796294 1.96908 0
M  V30 1239 H 115.751 -0.412597 0.853503 0
M  V30 1240 H 115.457 -2.04147 2.86386 0
M  V30 1241 H 115.331 -3.36042 1.71334 0
M  V30 1242 H 117.718 -2.81524 0.884769 0
M  V30 1243 H 117.799 -1.5035 2.06951 0
M  V30 1244 H 117.443 -3.20268 3.94196 0
M  V30 1245 H 117.373 -4.50445 2.72776 0
M  V30 1246 H 119.864 -3.00496 2.29152 0
M  V30 1247 H 120.177 -5.74578 5.16797 0
M  V30 1248 H 118.522 -5.17199 4.64253 0
M  V30 1249 H 121.713 -3.67051 2.90502 0
M  V30 1250 H 121.886 -4.9205 4.21653 0
M  V30 1251 N 115.292 -0.849877 -1.32721 0
M  V30 1252 C 116.52 -0.464754 -2.01613 0
M  V30 1253 C 116.935 0.937191 -1.63897 0
M  V30 1254 O 116.292 1.61081 -0.857856 0
M  V30 1255 C 116.343 -0.588638 -3.56675 0
M  V30 1256 O 116.064 -1.93535 -3.93034 0
M  V30 1257 C 117.565 -0.2019 -4.4284 0
M  V30 1258 H 114.785 -0.183215 -0.645502 0
M  V30 1259 H 117.329 -1.1455 -1.69407 0
M  V30 1260 H 115.484 0.0443159 -3.87375 0
M  V30 1261 H 115.898 -1.92871 -4.87751 0
M  V30 1262 H 117.372 -0.339599 -5.50954 0
M  V30 1263 H 117.849 0.857224 -4.30753 0
M  V30 1264 H 118.455 -0.809733 -4.17521 0
M  V30 1265 N 116.77 1.45427 -0.607355 0
M  V30 1266 C 118.186 1.57283 -0.270985 0
M  V30 1267 C 118.386 1.59875 1.22647 0
M  V30 1268 O 117.442 1.52893 2.00948 0
M  V30 1269 C 118.755 2.85566 -0.941952 0
M  V30 1270 C 120.303 2.9924 -0.917849 0
M  V30 1271 C 120.778 4.30293 -1.56882 0
M  V30 1272 N 122.269 4.37051 -1.5343 0
M  V30 1273 C 123.004 5.37123 -2.00715 0
M  V30 1274 N 122.5 6.43734 -2.56084 0
M  V30 1275 N 124.293 5.28479 -1.91484 0
M  V30 1276 H 116.444 1.41988 -1.57966 0
M  V30 1277 H 118.707 0.67885 -0.661715 0
M  V30 1278 H 118.413 2.8955 -1.99633 0
M  V30 1279 H 118.287 3.74322 -0.465096 0
M  V30 1280 H 120.674 2.94822 0.127984 0
M  V30 1281 H 120.755 2.11895 -1.43297 0
M  V30 1282 H 120.399 4.35469 -2.61398 0
M  V30 1283 H 120.329 5.16454 -1.02873 0
M  V30 1284 H 122.82 3.60615 -1.12982 0
M  V30 1285 H 123.133 7.16341 -2.89958 0
M  V30 1286 H 121.478 6.44485 -2.60122 0
M  V30 1287 H 124.669 4.44098 -1.47967 0
M  V30 1288 H 124.842 6.0632 -2.28648 0
M  V30 1289 N 118.248 0.346503 1.53744 0
M  V30 1290 C 119.497 -0.250122 2.00143 0
M  V30 1291 C 119.81 -1.51418 1.23822 0
M  V30 1292 O 121.016 -2.18823 1.60713 0
M  V30 1293 C 119.472 -0.496252 3.56462 0
M  V30 1294 C 119.08 0.752077 4.41642 0
M  V30 1295 C 120.824 -1.05157 4.11269 0
M  V30 1296 C 118.731 0.476583 5.89477 0
M  V30 1297 H 117.661 -0.0972409 0.747703 0
M  V30 1298 H 120.312 0.46229 1.77581 0
M  V30 1299 H 118.694 -1.26944 3.75102 0
M  V30 1300 H 119.868 1.5266 4.34778 0
M  V30 1301 H 118.183 1.22925 3.97842 0
M  V30 1302 H 120.78 -1.27269 5.19333 0
M  V30 1303 H 121.123 -2.00799 3.64672 0
M  V30 1304 H 121.656 -0.339019 3.96353 0
M  V30 1305 H 118.395 1.4028 6.40314 0
M  V30 1306 H 117.915 -0.259794 5.99237 0
M  V30 1307 H 119.594 0.0949315 6.4693 0
M  V30 1308 N 119.726 -1.57421 0.075193 0
M  V30 1309 C 120.954 -1.97946 -0.602076 0
M  V30 1310 C 121.369 -0.953674 -1.62943 0
M  V30 1311 O 120.726 0.0592551 -1.82404 0
M  V30 1312 C 120.777 -3.38546 -1.26762 0
M  V30 1313 O 120.498 -4.37195 -0.281376 0
M  V30 1314 C 121.999 -3.93966 -2.03239 0
M  V30 1315 H 119.219 -0.650918 -0.162931 0
M  V30 1316 H 121.763 -2.03959 0.148601 0
M  V30 1317 H 119.918 -3.33609 -1.96936 0
M  V30 1318 H 120.332 -5.18975 -0.759267 0
M  V30 1319 H 121.806 -4.94555 -2.45193 0
M  V30 1320 H 122.283 -3.30693 -2.8903 0
M  V30 1321 H 122.889 -4.02315 -1.37924 0
M  V30 1322 N 121.204 0.198386 -1.56346 0
M  V30 1323 C 122.452 0.91747 -1.80075 0
M  V30 1324 C 122.773 1.83929 -0.647692 0
M  V30 1325 O 122.043 1.93029 0.334166 0
M  V30 1326 H 120.623 0.341774 -0.664228 0
M  V30 1327 H 123.285 0.204684 -1.93822 0
M  V30 1328 H 122.381 1.51055 -2.7311 0
M  V30 1329 N 122.682 1.50554 0.465978 0
M  V30 1330 C 123.592 1.72585 1.58907 0
M  V30 1331 C 124.608 0.60911 1.6299 0
M  V30 1332 O 125.784 0.88804 1.80765 0
M  V30 1333 C 122.849 1.81995 2.95091 0
M  V30 1334 C 121.91 3.05751 3.01355 0
M  V30 1335 C 121.143 3.14702 4.31043 0
M  V30 1336 O 121.366 2.30313 5.21835 0
M  V30 1337 O 120.3 4.07468 4.43005 0
M  V30 1338 H 124.126 2.67799 1.43239 0
M  V30 1339 H 121.711 1.34711 0.646013 0
M  V30 1340 H 123.593 1.90335 3.75966 0
M  V30 1341 H 122.268 0.899659 3.10947 0
M  V30 1342 H 121.175 3.02908 2.19539 0
M  V30 1343 H 122.508 3.97375 2.90437 0
M  V30 1344 N 124.16 -0.719506 1.40217 0
M  V30 1345 C 125.07 -1.86378 1.42479 0
M  V30 1346 C 126.086 -1.71073 0.317834 0
M  V30 1347 O 127.262 -1.93406 0.561794 0
M  V30 1348 C 124.327 -3.22136 1.28178 0
M  V30 1349 C 123.388 -3.49723 2.48982 0
M  V30 1350 C 122.621 -4.79004 2.35353 0
M  V30 1351 O 122.844 -5.53821 1.36524 0
M  V30 1352 O 121.778 -5.06839 3.2465 0
M  V30 1353 H 125.604 -1.87425 2.38968 0
M  V30 1354 H 123.189 -0.869405 1.21498 0
M  V30 1355 H 125.071 -4.03234 1.22395 0
M  V30 1356 H 123.746 -3.21825 0.347934 0
M  V30 1357 H 122.653 -2.6865 2.60342 0
M  V30 1358 H 123.986 -3.54828 3.41113 0
M  V30 1359 N 125.638 -1.25649 -0.95132 0
M  V30 1360 C 126.884 -1.10757 -1.69884 0
M  V30 1361 C 127.217 0.350061 -1.91019 0
M  V30 1362 O 126.492 1.25783 -1.48354 0
M  V30 1363 C 126.775 -1.86606 -3.07978 0
M  V30 1364 C 126.628 -3.40217 -2.94232 0
M  V30 1365 C 127.947 -1.65182 -4.07925 0
M  V30 1366 H 125.066 -0.40374 -0.616574 0
M  V30 1367 H 127.708 -1.54521 -1.10558 0
M  V30 1368 H 125.858 -1.49409 -3.58621 0
M  V30 1369 H 127.53 -3.87108 -2.50889 0
M  V30 1370 H 125.773 -3.67759 -2.30078 0
M  V30 1371 H 126.444 -3.88505 -3.92133 0
M  V30 1372 H 128.92 -1.9757 -3.66204 0
M  V30 1373 H 127.796 -2.20683 -5.02583 0
M  V30 1374 H 128.057 -0.593933 -4.38092 0
M  V30 1375 N 127.117 1.15442 -1.07289 0
M  V30 1376 C 128.027 2.23786 -0.704057 0
M  V30 1377 C 129.043 1.7166 0.284413 0
M  V30 1378 O 130.219 2.00972 0.131205 0
M  V30 1379 C 127.284 3.46535 -0.106792 0
M  V30 1380 C 126.345 4.13654 -1.14842 0
M  V30 1381 C 125.578 5.30544 -0.57956 0
M  V30 1382 O 125.801 5.67187 0.604585 0
M  V30 1383 O 124.735 5.87154 -1.32414 0
M  V30 1384 H 128.561 2.57664 -1.60757 0
M  V30 1385 H 126.146 1.23152 -0.845803 0
M  V30 1386 H 128.028 4.20804 0.224048 0
M  V30 1387 H 126.703 3.14407 0.770049 0
M  V30 1388 H 125.61 3.4131 -1.5316 0
M  V30 1389 H 126.943 4.49861 -1.99714 0
M  V30 1390 N 128.595 0.856903 1.32268 0
M  V30 1391 C 129.841 0.462069 1.97466 0
M  V30 1392 C 130.174 -0.980298 1.67642 0
M  V30 1393 O 129.449 -1.68824 0.965858 0
M  V30 1394 C 129.732 0.704336 3.53145 0
M  V30 1395 C 129.585 2.19529 3.9259 0
M  V30 1396 C 130.904 0.1622 4.39801 0
M  V30 1397 H 128.023 0.169357 0.717278 0
M  V30 1398 H 130.665 1.07574 1.56614 0
M  V30 1399 H 128.815 0.181999 3.88073 0
M  V30 1400 H 130.487 2.78387 3.67829 0
M  V30 1401 H 128.73 2.67292 3.41668 0
M  V30 1402 H 129.401 2.31549 5.01088 0
M  V30 1403 H 131.877 0.608905 4.11621 0
M  V30 1404 H 130.753 0.361265 5.4771 0
M  V30 1405 H 131.014 -0.935158 4.32096 0
M  V30 1406 N 130.073 -1.45103 0.615059 0
M  V30 1407 C 131.005 -2.28786 -0.13762 0
M  V30 1408 C 132.018 -1.40376 -0.824525 0
M  V30 1409 O 133.207 -1.64681 -0.688662 0
M  V30 1410 C 130.307 -3.16322 -1.21628 0
M  V30 1411 C 129.48 -4.33054 -0.615039 0
M  V30 1412 C 128.539 -5.01743 -1.58556 0
M  V30 1413 O 127.565 -5.58293 -1.10895 0
M  V30 1414 N 128.767 -5.01714 -2.91998 0
M  V30 1415 H 131.532 -2.94025 0.580483 0
M  V30 1416 H 129.093 -1.55373 0.45507 0
M  V30 1417 H 131.085 -3.59139 -1.86552 0
M  V30 1418 H 129.655 -2.52943 -1.83681 0
M  V30 1419 H 128.875 -3.93627 0.21245 0
M  V30 1420 H 130.163 -5.08431 -0.193704 0
M  V30 1421 H 129.561 -4.57075 -3.33316 0
M  V30 1422 H 128.118 -5.48371 -3.52325 0
M  V30 1423 N 131.551 -0.354651 -1.53558 0
M  V30 1424 C 132.828 0.294281 -1.93374 0
M  V30 1425 C 133.208 1.67313 -1.28723 0
M  V30 1426 O 132.556 2.24179 -0.442247 0
M  V30 1427 C 132.766 0.355445 -3.47185 0
M  V30 1428 C 134.114 0.601007 -4.20325 0
M  V30 1429 O 135.138 0.437106 -3.53508 0
M  V30 1430 O 133.997 0.919322 -5.38712 0
M  V30 1431 H 131.091 0.174033 -0.808481 0
M  V30 1432 H 133.637 -0.406638 -1.64756 0
M  V30 1433 H 132.409 -0.611729 -3.86489 0
M  V30 1434 H 132.032 1.1027 -3.82003 0
M  V30 1435 N 133.029 1.57378 -0.0835403 0
M  V30 1436 C 134.254 1.98682 0.594987 0
M  V30 1437 C 134.679 0.961969 1.61641 0
M  V30 1438 O 134.037 -0.0709989 1.81161 0
M  V30 1439 C 134.085 3.38988 1.2296 0
M  V30 1440 O 133.189 3.39208 2.34546 0
M  V30 1441 H 132.53 0.646368 0.152002 0
M  V30 1442 H 135.06 2.03961 -0.161533 0
M  V30 1443 H 135.07 3.76431 1.57366 0
M  V30 1444 H 133.745 4.13107 0.481228 0
M  V30 1445 H 132.322 3.13548 2.01846 0
M  V30 1446 N 134.507 -0.190092 1.56449 0
M  V30 1447 C 135.753 -0.911052 1.81184 0
M  V30 1448 C 136.086 -1.82699 0.658396 0
M  V30 1449 O 135.361 -1.91491 -0.340775 0
M  V30 1450 C 135.644 -1.72297 3.16205 0
M  V30 1451 C 135.497 -0.831419 4.42049 0
M  V30 1452 C 136.816 -2.69454 3.47969 0
M  V30 1453 H 133.935 -0.32977 0.659106 0
M  V30 1454 H 136.577 -0.178169 1.89163 0
M  V30 1455 H 134.727 -2.34778 3.09534 0
M  V30 1456 H 136.399 -0.220929 4.60771 0
M  V30 1457 H 134.642 -0.138406 4.33579 0
M  V30 1458 H 135.313 -1.43461 5.33032 0
M  V30 1459 H 137.789 -2.17104 3.54972 0
M  V30 1460 H 136.665 -3.23342 4.43555 0
M  V30 1461 H 136.926 -3.48744 2.71717 0
M  V30 1462 N 135.985 -1.50799 -0.457987 0
M  V30 1463 C 137.396 -1.55152 -1.0385 0
M  V30 1464 C 137.747 -0.362719 -1.92818 0
M  V30 1465 O 136.872 0.522915 -2.09987 0
M  V30 1466 C 137.467 -2.81173 -1.89017 0
M  V30 1467 C 136.026 -2.88164 -2.42154 0
M  V30 1468 C 135.173 -2.49591 -1.20829 0
M  V30 1469 H 138.124 -1.56874 -0.240068 0
M  V30 1470 H 138.145 -2.63769 -2.74238 0
M  V30 1471 H 137.657 -3.67677 -1.24238 0
M  V30 1472 H 135.758 -2.06042 -3.10447 0
M  V30 1473 H 135.871 -3.91356 -2.76364 0
M  V30 1474 H 134.235 -2.02322 -1.54719 0
M  V30 1475 H 135.018 -3.38418 -0.576927 0
M  V30 1476 N 137.463 0.71206 -1.40597 0
M  V30 1477 C 138.426 1.80785 -1.40888 0
M  V30 1478 C 139.426 1.57937 -0.302103 0
M  V30 1479 O 140.616 1.64913 -0.561182 0
M  V30 1480 C 137.748 3.18927 -1.20409 0
M  V30 1481 H 138.941 1.81924 -2.38419 0
M  V30 1482 H 136.494 0.91805 -1.26497 0
M  V30 1483 H 137.229 3.23436 -0.236522 0
M  V30 1484 H 137.014 3.36911 -2.00582 0
M  V30 1485 H 138.504 3.98949 -1.23408 0
M  V30 1486 N 138.941 1.26152 0.944643 0
M  V30 1487 C 140.218 1.02247 1.66748 0
M  V30 1488 C 140.598 -0.448202 2.06287 0
M  V30 1489 O 139.946 -1.42779 1.78399 0
M  V30 1490 C 140.156 1.96788 2.88228 0
M  V30 1491 C 141.504 2.25201 3.59958 0
M  V30 1492 O 142.528 1.94626 2.98327 0
M  V30 1493 O 141.387 2.77242 4.70956 0
M  V30 1494 H 138.481 0.388517 0.730057 0
M  V30 1495 H 141.027 1.37348 0.99668 0
M  V30 1496 H 139.799 2.96047 2.55875 0
M  V30 1497 H 139.422 1.62145 3.63035 0
M  V30 1498 N 140.419 -1.14872 1.07899 0
M  V30 1499 C 141.644 -1.90202 0.826926 0
M  V30 1500 C 142.069 -1.77774 -0.614664 0
M  V30 1501 O 141.427 -1.11431 -1.43013 0
M  V30 1502 C 141.475 -3.38352 1.24702 0
M  V30 1503 O 140.579 -4.10497 0.39575 0
M  V30 1504 H 139.92 -0.591968 0.300782 0
M  V30 1505 H 142.45 -1.45437 1.43907 0
M  V30 1506 H 142.46 -3.89156 1.22563 0
M  V30 1507 H 141.135 -3.46715 2.29698 0
M  V30 1508 H 139.712 -3.69796 0.480117 0
M  V30 1509 N 141.898 -0.863906 -1.31812 0
M  V30 1510 C 143.146 -0.470904 -1.96537 0
M  V30 1511 C 143.467 0.978771 -1.68657 0
M  V30 1512 O 142.737 1.6853 -0.998717 0
M  V30 1513 H 141.317 -0.171148 -0.72713 0
M  V30 1514 H 143.979 -1.10236 -1.60729 0
M  V30 1515 H 143.075 -0.623616 -3.05806 0
M  V30 1516 N 143.376 1.44774 -0.622745 0
M  V30 1517 C 144.306 2.33382 0.0741861 0
M  V30 1518 C 145.287 1.47719 0.843387 0
M  V30 1519 O 146.472 1.76458 0.810934 0
M  V30 1520 C 143.602 3.30663 1.06204 0
M  V30 1521 C 142.556 4.26079 0.405037 0
M  V30 1522 C 141.882 5.13165 1.5022 0
M  V30 1523 C 143.182 5.1781 -0.683414 0
M  V30 1524 H 144.876 2.91905 -0.665713 0
M  V30 1525 H 142.422 1.40363 -0.321587 0
M  V30 1526 H 144.375 3.9153 1.55827 0
M  V30 1527 H 143.099 2.70331 1.83272 0
M  V30 1528 H 141.758 3.66532 -0.0704683 0
M  V30 1529 H 141.406 4.49191 2.26355 0
M  V30 1530 H 141.106 5.77812 1.06803 0
M  V30 1531 H 142.63 5.76902 2.00041 0
M  V30 1532 H 144.044 5.72661 -0.270631 0
M  V30 1533 H 142.441 5.91015 -1.04023 0
M  V30 1534 H 143.511 4.59326 -1.55395 0
M  V30 1535 N 144.854 0.36279 1.53368 0
M  V30 1536 C 146.084 -0.228281 2.05335 0
M  V30 1537 C 146.492 -1.43226 1.23625 0
M  V30 1538 O 145.835 -1.81717 0.269206 0
M  V30 1539 C 145.897 -0.688549 3.52845 0
M  V30 1540 C 145.561 0.398362 4.5526 0
M  V30 1541 C 146.558 1.24732 5.04716 0
M  V30 1542 C 144.243 0.557805 4.99193 0
M  V30 1543 C 146.237 2.2411 5.96702 0
M  V30 1544 C 143.924 1.55495 5.90986 0
M  V30 1545 C 144.922 2.39503 6.39631 0
M  V30 1546 O 144.61 3.37517 7.29615 0
M  V30 1547 H 144.342 -0.044395 0.674541 0
M  V30 1548 H 146.896 0.518668 1.98744 0
M  V30 1549 H 145.126 -1.48706 3.56964 0
M  V30 1550 H 146.815 -1.20231 3.87685 0
M  V30 1551 H 147.581 1.13532 4.71525 0
M  V30 1552 H 143.46 -0.0862959 4.60919 0
M  V30 1553 H 147.004 2.89718 6.34594 0
M  V30 1554 H 142.901 1.66744 6.23592 0
M  V30 1555 H 143.669 3.33213 7.47604 0
M  V30 1556 N 146.332 -1.57332 0.0918853 0
M  V30 1557 C 147.295 -2.12708 -0.85369 0
M  V30 1558 C 148.295 -1.05561 -1.213 0
M  V30 1559 O 149.485 -1.31461 -1.14296 0
M  V30 1560 C 146.617 -2.64503 -2.15061 0
M  V30 1561 H 147.81 -2.97573 -0.3729 0
M  V30 1562 H 145.363 -1.55509 -0.157072 0
M  V30 1563 H 146.098 -1.83149 -2.67632 0
M  V30 1564 H 145.883 -3.4284 -1.90272 0
M  V30 1565 H 147.373 -3.07351 -2.82711 0
M  V30 1566 N 147.81 0.181792 -1.56548 0
M  V30 1567 C 149.05 0.906711 -1.83189 0
M  V30 1568 C 149.414 1.79882 -0.671312 0
M  V30 1569 O 150.615 2.56054 -0.81792 0
M  V30 1570 C 148.886 1.69023 -3.14906 0
M  V30 1571 S 150.445 2.46535 -3.62996 0
M  V30 1572 H 147.263 0.303877 -0.642791 0
M  V30 1573 H 149.865 0.169107 -1.94767 0
M  V30 1574 H 148.569 1.02571 -3.97376 0
M  V30 1575 H 148.1 2.46941 -3.06241 0
M  V30 1576 H 150.115 3.71014 -3.29489 0
M  V30 1577 N 149.288 1.51039 0.449983 0
M  V30 1578 C 150.534 1.63322 1.20223 0
M  V30 1579 C 150.867 0.34241 1.91158 0
M  V30 1580 O 150.142 -0.657344 1.83055 0
M  V30 1581 C 150.425 2.82801 2.22925 0
M  V30 1582 C 150.278 4.21823 1.56157 0
M  V30 1583 C 151.597 2.97807 3.24035 0
M  V30 1584 H 148.716 0.594407 0.435718 0
M  V30 1585 H 151.358 1.83489 0.493136 0
M  V30 1586 H 149.508 2.65738 2.834 0
M  V30 1587 H 151.18 4.50526 0.991162 0
M  V30 1588 H 149.423 4.25105 0.864172 0
M  V30 1589 H 150.094 5.01391 2.30891 0
M  V30 1590 H 152.57 3.13497 2.73603 0
M  V30 1591 H 151.446 3.82992 3.93202 0
M  V30 1592 H 151.707 2.09328 3.89402 0
M  V30 1593 N 150.766 -0.704594 1.40972 0
M  V30 1594 C 151.994 -1.49354 1.43182 0
M  V30 1595 C 152.409 -1.88768 0.0345508 0
M  V30 1596 O 151.766 -1.56184 -0.944081 0
M  V30 1597 C 151.817 -2.76187 2.33244 0
M  V30 1598 O 151.538 -2.38436 3.67532 0
M  V30 1599 C 153.039 -3.7 2.44162 0
M  V30 1600 H 150.259 -0.460559 0.487982 0
M  V30 1601 H 152.803 -0.868261 1.85153 0
M  V30 1602 H 150.958 -3.34974 1.94606 0
M  V30 1603 H 151.372 -3.20126 4.15475 0
M  V30 1604 H 152.846 -4.55803 3.11364 0
M  V30 1605 H 153.323 -4.13867 1.47006 0
M  V30 1606 H 153.929 -3.17121 2.83398 0
M  V30 1607 N 152.244 -1.26651 -0.937939 0
M  V30 1608 C 153.469 -1.15279 -1.72411 0
M  V30 1609 C 153.894 0.287866 -1.85884 0
M  V30 1610 O 153.252 1.20855 -1.35143 0
M  V30 1611 C 153.3 -1.83028 -3.10698 0
M  V30 1612 O 152.404 -1.12128 -3.96864 0
M  V30 1613 H 151.745 -0.401504 -0.528858 0
M  V30 1614 H 154.275 -1.67531 -1.1745 0
M  V30 1615 H 154.285 -1.89981 -3.6107 0
M  V30 1616 H 152.96 -2.87833 -3.00208 0
M  V30 1617 H 151.537 -1.13173 -3.55312 0
M  V30 1618 N 153.722 1.14298 -1.08507 0
M  V30 1619 C 154.947 1.8976 -0.837001 0
M  V30 1620 C 155.372 1.78097 0.605228 0
M  V30 1621 O 154.73 1.12188 1.4242 0
M  V30 1622 C 154.778 3.37685 -1.26495 0
M  V30 1623 O 153.882 4.10281 -0.417514 0
M  V30 1624 H 153.223 0.590365 -0.303917 0
M  V30 1625 H 155.753 1.44672 -1.44676 0
M  V30 1626 H 155.763 3.88501 -1.24625 0
M  V30 1627 H 154.438 3.45492 -2.31534 0
M  V30 1628 H 153.015 3.69536 -0.499722 0
M  V30 1629 N 155.201 0.870884 1.31352 0
M  V30 1630 C 156.612 0.534714 1.78879 0
M  V30 1631 C 156.963 -0.948423 1.71754 0
M  V30 1632 O 156.088 -1.74055 1.28584 0
M  V30 1633 C 156.683 0.963839 3.24801 0
M  V30 1634 C 155.242 0.679311 3.70219 0
M  V30 1635 C 154.389 1.15465 2.52117 0
M  V30 1636 H 157.34 1.05651 1.18421 0
M  V30 1637 H 157.361 0.286892 3.79417 0
M  V30 1638 H 156.873 2.04332 3.29955 0
M  V30 1639 H 154.974 -0.388769 3.70566 0
M  V30 1640 H 155.087 1.25698 4.62317 0
M  V30 1641 H 153.451 0.574383 2.48139 0
M  V30 1642 H 154.234 2.24157 2.60016 0
M  V30 1643 N 156.679 -1.44442 0.630414 0
M  V30 1644 C 157.904 -2.06927 0.139944 0
M  V30 1645 C 158.329 -1.46795 -1.17613 0
M  V30 1646 O 157.687 -0.569144 -1.72135 0
M  V30 1647 C 157.735 -3.6058 0.0379581 0
M  V30 1648 O 156.839 -3.99937 -1.0062 0
M  V30 1649 H 156.18 -0.658608 0.0844483 0
M  V30 1650 H 158.71 -1.85327 0.866891 0
M  V30 1651 H 158.72 -4.07714 -0.152856 0
M  V30 1652 H 157.395 -4.03728 0.998809 0
M  V30 1653 H 155.972 -3.64436 -0.79001 0
M  V30 1654 N 158.157 -0.370918 -1.53173 0
M  V30 1655 C 159.405 0.216673 -2.00935 0
M  V30 1656 C 159.726 1.48845 -1.25977 0
M  V30 1657 O 158.996 1.92286 -0.374551 0
M  V30 1658 H 157.576 0.0830565 -0.742368 0
M  V30 1659 H 160.238 -0.49838 -1.8842 0
M  V30 1660 H 159.334 0.439893 -3.08984 0
M  V30 1661 N 159.635 1.57281 -0.100228 0
M  V30 1662 C 160.86 1.99302 0.573881 0
M  V30 1663 C 161.285 0.979059 1.60611 0
M  V30 1664 O 160.643 -0.0517803 1.81226 0
M  V30 1665 C 160.691 3.40274 1.19358 0
M  V30 1666 O 159.795 3.41676 2.30935 0
M  V30 1667 H 159.136 0.647944 0.145138 0
M  V30 1668 H 161.666 2.03779 -0.183156 0
M  V30 1669 H 161.676 3.78078 1.53365 0
M  V30 1670 H 160.351 4.13594 0.437385 0
M  V30 1671 H 158.928 3.15672 1.98509 0
M  V30 1672 N 161.113 -0.173488 1.56642 0
M  V30 1673 C 162.39 -0.917617 1.7274 0
M  V30 1674 C 162.77 -2.00484 0.661027 0
M  V30 1675 O 162.118 -2.26184 -0.32453 0
M  V30 1676 C 162.328 -1.48433 3.15862 0
M  V30 1677 C 163.676 -1.95809 3.76754 0
M  V30 1678 O 164.7 -1.58231 3.19126 0
M  V30 1679 O 163.559 -2.65024 4.77938 0
M  V30 1680 H 160.653 -0.431772 0.705338 0
M  V30 1681 H 163.199 -0.161487 1.6893 0
M  V30 1682 H 161.971 -0.701715 3.84957 0
M  V30 1683 H 161.594 -2.30471 3.23989 0
M  V30 1684 N 162.591 -1.51276 -0.441967 0
M  V30 1685 C 163.819 -1.67516 -1.21434 0
M  V30 1686 C 164.234 -0.37055 -1.85128 0
M  V30 1687 O 163.591 0.650498 -1.70513 0
M  V30 1688 C 163.642 -2.78748 -2.30177 0
M  V30 1689 O 163.363 -4.04154 -1.69089 0
M  V30 1690 C 164.864 -3.06217 -3.20541 0
M  V30 1691 H 162.084 -0.562276 -0.366178 0
M  V30 1692 H 164.628 -1.97666 -0.524244 0
M  V30 1693 H 162.783 -2.5121 -2.94911 0
M  V30 1694 H 163.197 -4.65894 -2.40922 0
M  V30 1695 H 164.671 -3.8764 -3.92987 0
M  V30 1696 H 165.148 -2.18439 -3.81026 0
M  V30 1697 H 165.754 -3.35397 -2.61513 0
M  V30 1698 N 164.069 0.697108 -1.41344 0
M  V30 1699 C 165.297 1.48593 -1.43972 0
M  V30 1700 C 165.712 1.88747 -0.0445612 0
M  V30 1701 O 165.069 1.56682 0.935785 0
M  V30 1702 C 165.12 2.74946 -2.34706 0
M  V30 1703 O 164.841 2.36484 -3.68791 0
M  V30 1704 C 166.342 3.687 -2.46121 0
M  V30 1705 H 163.562 0.457964 -0.490418 0
M  V30 1706 H 166.106 0.858429 -1.8561 0
M  V30 1707 H 164.261 3.33937 -1.9638 0
M  V30 1708 H 164.675 3.17918 -4.17167 0
M  V30 1709 H 166.149 4.54145 -3.13777 0
M  V30 1710 H 166.626 4.13081 -1.49199 0
M  V30 1711 H 167.232 3.15613 -2.85076 0
M  V30 1712 N 165.547 1.27147 0.931209 0
M  V30 1713 C 166.777 1.15914 1.71019 0
M  V30 1714 C 167.185 -0.287112 1.87009 0
M  V30 1715 O 166.528 -1.20761 1.38429 0
M  V30 1716 C 166.59 1.76647 3.13107 0
M  V30 1717 C 166.254 3.25807 3.20467 0
M  V30 1718 C 167.251 4.22489 3.02983 0
M  V30 1719 C 164.936 3.66452 3.43538 0
M  V30 1720 C 166.93 5.57794 3.08454 0
M  V30 1721 C 164.617 5.01888 3.48643 0
M  V30 1722 C 165.615 5.97369 3.31119 0
M  V30 1723 O 165.303 7.30337 3.35952 0
M  V30 1724 H 165.035 0.404062 0.54195 0
M  V30 1725 H 167.589 1.68457 1.17521 0
M  V30 1726 H 165.819 1.18578 3.68071 0
M  V30 1727 H 167.508 1.60179 3.72958 0
M  V30 1728 H 168.274 3.92425 2.85004 0
M  V30 1729 H 164.153 2.92611 3.5623 0
M  V30 1730 H 167.697 6.32298 2.94694 0
M  V30 1731 H 163.594 5.31609 3.66145 0
M  V30 1732 H 164.362 7.38739 3.5243 0
M  V30 1733 N 167.025 -1.13721 1.09112 0
M  V30 1734 C 168.272 -1.84924 0.825192 0
M  V30 1735 C 168.6 -1.83347 -0.649151 0
M  V30 1736 O 167.855 -1.26449 -1.49362 0
M  V30 1737 C 168.154 -3.32861 1.30146 0
M  V30 1738 C 167.82 -3.54621 2.78486 0
M  V30 1739 C 166.482 -3.60268 3.18999 0
M  V30 1740 C 168.834 -3.62855 3.74146 0
M  V30 1741 C 166.162 -3.71679 4.53951 0
M  V30 1742 C 168.514 -3.75793 5.08883 0
M  V30 1743 C 167.178 -3.79692 5.4899 0
M  V30 1744 H 166.448 -0.676684 0.301959 0
M  V30 1745 H 169.095 -1.3428 1.36533 0
M  V30 1746 H 167.4 -3.85835 0.681064 0
M  V30 1747 H 169.097 -3.86395 1.07236 0
M  V30 1748 H 165.687 -3.50879 2.46134 0
M  V30 1749 H 169.871 -3.57775 3.43963 0
M  V30 1750 H 165.127 -3.72963 4.84467 0
M  V30 1751 H 169.301 -3.81107 5.82864 0
M  V30 1752 H 166.928 -3.88287 6.53558 0
M  V30 1753 N 168.503 -0.877838 -1.30888 0
M  V30 1754 C 169.728 -0.506629 -2.01117 0
M  V30 1755 C 170.153 0.895564 -1.65412 0
M  V30 1756 O 169.511 1.5923 -0.866922 0
M  V30 1757 C 169.559 -0.680223 -3.54126 0
M  V30 1758 O 168.663 0.277033 -4.11468 0
M  V30 1759 H 168.004 -0.200518 -0.633 0
M  V30 1760 H 170.534 -1.18342 -1.66902 0
M  V30 1761 H 170.544 -0.5765 -4.03907 0
M  V30 1762 H 169.219 -1.70261 -3.79452 0
M  V30 1763 H 167.796 0.127606 -3.72682 0
M  V30 1764 N 169.982 1.44106 -0.638065 0
M  V30 1765 C 171.228 2.02277 -0.145546 0
M  V30 1766 C 171.561 1.50125 1.23191 0
M  V30 1767 O 170.836 0.688133 1.8192 0
M  V30 1768 C 171.119 3.59829 -0.139791 0
M  V30 1769 C 170.972 4.22247 -1.55008 0
M  V30 1770 C 172.291 4.36873 0.531966 0
M  V30 1771 H 169.41 0.734992 -0.0543632 0
M  V30 1772 H 172.052 1.71592 -0.815863 0
M  V30 1773 H 170.202 3.86102 0.431007 0
M  V30 1774 H 171.874 4.07057 -2.1703 0
M  V30 1775 H 170.117 3.79476 -2.10191 0
M  V30 1776 H 170.788 5.31284 -1.49804 0
M  V30 1777 H 173.264 4.16074 0.0464781 0
M  V30 1778 H 172.14 5.4657 0.505206 0
M  V30 1779 H 172.401 4.11995 1.60352 0
M  V30 1780 N 171.46 0.379036 1.52974 0
M  V30 1781 C 172.408 -0.476033 2.27677 0
M  V30 1782 C 173.402 -1.0719 1.31174 0
M  V30 1783 O 174.608 -1.01355 1.48752 0
M  V30 1784 H 170.983 -0.172255 0.732006 0
M  V30 1785 H 172.954 0.175615 2.97883 0
M  V30 1786 C 171.703 -1.5967 3.0887 0
M  V30 1787 H 171.026 -1.1475 3.82978 0
M  V30 1788 H 172.466 -2.16943 3.64296 0
M  V30 1789 C 170.925 -2.54682 2.20542 0
M  V30 1790 O 171.455 -3.57836 1.82527 0
M  V30 1791 N 169.661 -2.24183 1.84907 0
M  V30 1792 H 169.208 -1.40333 2.1602 0
M  V30 1793 H 169.166 -2.88006 1.26096 0
M  V30 1794 N 172.938 -1.57226 0.108567 0
M  V30 1795 C 174.184 -1.95121 -0.552761 0
M  V30 1796 C 174.517 -0.991345 -1.66991 0
M  V30 1797 O 173.792 -0.0267211 -1.94482 0
M  V30 1798 C 174.075 -3.43039 -1.09528 0
M  V30 1799 C 173.928 -4.49797 0.0177332 0
M  V30 1800 C 175.247 -3.92567 -1.98945 0
M  V30 1801 H 172.366 -0.709496 -0.199461 0
M  V30 1802 H 175.008 -1.89126 0.182011 0
M  V30 1803 H 173.158 -3.48279 -1.72146 0
M  V30 1804 H 174.83 -4.56661 0.652584 0
M  V30 1805 H 173.073 -4.284 0.682309 0
M  V30 1806 H 173.744 -5.50528 -0.402919 0
M  V30 1807 H 176.22 -3.89565 -1.46214 0
M  V30 1808 H 175.096 -4.96605 -2.33827 0
M  V30 1809 H 175.357 -3.32648 -2.91201 0
M  V30 1810 N 174.416 0.165178 -1.56732 0
M  V30 1811 C 175.641 0.900253 -1.86843 0
M  V30 1812 C 176.066 1.74766 -0.695596 0
M  V30 1813 O 175.424 1.77786 0.35522 0
M  V30 1814 C 175.472 1.74777 -3.15413 0
M  V30 1815 O 174.576 2.85007 -2.98068 0
M  V30 1816 H 173.917 0.251832 -0.614391 0
M  V30 1817 H 176.447 0.161468 -2.03962 0
M  V30 1818 H 176.457 2.14646 -3.46974 0
M  V30 1819 H 175.132 1.12537 -4.00385 0
M  V30 1820 H 173.709 2.48676 -2.77875 0
M  V30 1821 N 175.894 1.51508 0.433938 0
M  V30 1822 C 177.171 1.54888 1.19453 0
M  V30 1823 C 177.551 0.315154 2.08734 0
M  V30 1824 O 176.899 -0.699558 2.17528 0
M  V30 1825 C 177.109 2.86467 1.99342 0
M  V30 1826 C 178.457 3.38545 2.56267 0
M  V30 1827 O 179.481 2.88041 2.0955 0
M  V30 1828 O 178.34 4.26675 3.41483 0
M  V30 1829 H 175.434 0.622863 0.544032 0
M  V30 1830 H 177.98 1.63823 0.442732 0
M  V30 1831 H 176.752 3.67718 1.33788 0
M  V30 1832 H 176.375 2.8071 2.8158 0
M  V30 1833 N 177.372 -0.689602 1.41712 0
M  V30 1834 C 178.335 -1.78521 1.43746 0
M  V30 1835 C 179.335 -1.57436 0.327191 0
M  V30 1836 O 180.525 -1.64 0.587348 0
M  V30 1837 C 177.657 -3.16971 1.25467 0
M  V30 1838 H 178.85 -1.78108 2.41283 0
M  V30 1839 H 176.403 -0.89781 1.27942 0
M  V30 1840 H 177.138 -3.23019 0.287948 0
M  V30 1841 H 176.923 -3.33678 2.05917 0
M  V30 1842 H 178.413 -3.96935 1.2974 0
M  V30 1843 N 178.85 -1.27639 -0.924453 0
M  V30 1844 C 179.78 -1.13166 -2.04244 0
M  V30 1845 C 180.761 -0.032256 -1.70069 0
M  V30 1846 O 181.946 -0.207328 -1.9309 0
M  V30 1847 C 179.076 -0.781496 -3.38393 0
M  V30 1848 C 178.03 -1.83449 -3.86692 0
M  V30 1849 C 177.356 -1.33822 -5.17683 0
M  V30 1850 C 178.656 -3.23917 -4.09726 0
M  V30 1851 H 180.35 -2.06689 -2.1661 0
M  V30 1852 H 177.896 -0.995136 -1.04082 0
M  V30 1853 H 179.849 -0.667057 -4.16087 0
M  V30 1854 H 178.573 0.189439 -3.2605 0
M  V30 1855 H 177.232 -1.93789 -3.11193 0
M  V30 1856 H 176.88 -0.35665 -5.01734 0
M  V30 1857 H 176.58 -2.04224 -5.50968 0
M  V30 1858 H 178.104 -1.23679 -5.97943 0
M  V30 1859 H 179.518 -3.16559 -4.77978 0
M  V30 1860 H 177.915 -3.92059 -4.54324 0
M  V30 1861 H 178.985 -3.68729 -3.14908 0
M  V30 1862 N 180.328 1.1314 -1.09713 0
M  V30 1863 C 181.739 1.66029 -0.853885 0
M  V30 1864 C 182.09 1.86241 0.617142 0
M  V30 1865 O 181.215 1.5834 1.47503 0
M  V30 1866 C 181.81 3.01599 -1.5435 0
M  V30 1867 C 180.369 3.51467 -1.34714 0
M  V30 1868 C 179.516 2.26648 -1.59769 0
M  V30 1869 H 182.467 0.970226 -1.25588 0
M  V30 1870 H 182.488 3.67709 -0.978267 0
M  V30 1871 H 182 2.86856 -2.6141 0
M  V30 1872 H 180.101 3.71408 -0.297838 0
M  V30 1873 H 180.214 4.314 -2.08401 0
M  V30 1874 H 178.578 2.33385 -1.01998 0
M  V30 1875 H 179.361 2.14467 -2.68065 0
M  V30 1876 N 181.806 0.884767 1.30421 0
M  V30 1877 C 183.031 0.517288 2.00845 0
M  V30 1878 C 183.456 -0.886779 1.65885 0
M  V30 1879 O 182.814 -1.58768 0.875354 0
M  V30 1880 C 182.862 0.698994 3.5376 0
M  V30 1881 O 181.966 -0.255208 4.1161 0
M  V30 1882 H 181.307 0.203872 0.631927 0
M  V30 1883 H 183.837 1.19225 1.66272 0
M  V30 1884 H 183.847 0.597912 4.03595 0
M  V30 1885 H 182.522 1.72271 3.78544 0
M  V30 1886 H 181.099 -0.10784 3.72744 0
M  V30 1887 N 183.284 -1.43765 0.645699 0
M  V30 1888 C 184.509 -2.06767 0.161883 0
M  V30 1889 C 184.934 -1.48034 -1.16049 0
M  V30 1890 O 184.292 -0.587369 -1.71522 0
M  V30 1891 C 184.34 -3.60519 0.0762003 0
M  V30 1892 O 183.444 -4.00982 -0.963721 0
M  V30 1893 H 182.785 -0.657675 0.091429 0
M  V30 1894 H 185.315 -1.84397 0.886499 0
M  V30 1895 H 185.325 -4.07853 -0.109604 0
M  V30 1896 H 184 -4.02646 1.04157 0
M  V30 1897 H 182.577 -3.65253 -0.751312 0
M  V30 1898 N 184.763 -0.387143 -1.52771 0
M  V30 1899 C 185.673 0.456442 -2.30117 0
M  V30 1900 C 186.689 1.07342 -1.36944 0
M  V30 1901 O 187.865 1.07971 -1.70013 0
M  V30 1902 C 184.93 1.56957 -3.09136 0
M  V30 1903 C 183.991 0.977916 -4.18014 0
M  V30 1904 C 183.224 2.038 -4.93256 0
M  V30 1905 O 183.447 3.25271 -4.68567 0
M  V30 1906 O 182.381 1.6565 -5.78657 0
M  V30 1907 H 186.207 -0.17359 -3.03203 0
M  V30 1908 H 183.792 -0.150919 -1.48636 0
M  V30 1909 H 185.674 2.21628 -3.58412 0
M  V30 1910 H 184.349 2.18461 -2.38865 0
M  V30 1911 H 183.256 0.294525 -3.72939 0
M  V30 1912 H 184.589 0.407128 -4.90513 0
M  V30 1913 N 186.241 1.57166 -0.116904 0
M  V30 1914 C 187.518 1.86645 0.585049 0
M  V30 1915 C 187.898 1.0177 1.84949 0
M  V30 1916 O 187.246 0.0960379 2.28298 0
M  V30 1917 C 187.456 3.37736 0.879507 0
M  V30 1918 C 188.804 4.06289 1.23348 0
M  V30 1919 O 189.828 3.42743 0.969836 0
M  V30 1920 O 188.687 5.18455 1.7282 0
M  V30 1921 H 185.781 0.772593 0.295007 0
M  V30 1922 H 188.327 1.69025 -0.151249 0
M  V30 1923 H 187.099 3.91296 -0.0166136 0
M  V30 1924 H 186.722 3.6078 1.67103 0
M  V30 1925 N 187.719 -0.156864 1.56817 0
M  V30 1926 C 188.996 -0.899244 1.73704 0
M  V30 1927 C 189.376 -1.99771 0.682254 0
M  V30 1928 O 188.724 -2.26515 -0.300522 0
M  V30 1929 C 188.934 -1.45075 3.17418 0
M  V30 1930 C 190.282 -1.91802 3.7881 0
M  V30 1931 O 191.306 -1.54838 3.20786 0
M  V30 1932 O 190.165 -2.5994 4.80722 0
M  V30 1933 H 187.259 -0.424267 0.709878 0
M  V30 1934 H 189.805 -0.143561 1.69092 0
M  V30 1935 H 188.577 -0.660846 3.85679 0
M  V30 1936 H 188.2 -2.27021 3.26416 0
M  V30 1937 N 189.197 -1.51736 -0.425897 0
M  V30 1938 C 190.474 -1.55519 -1.1863 0
M  V30 1939 C 190.854 -0.326219 -2.08564 0
M  V30 1940 O 190.202 0.688012 -2.17896 0
M  V30 1941 C 190.412 -2.87521 -1.9782 0
M  V30 1942 C 191.76 -3.39899 -2.54468 0
M  V30 1943 O 192.784 -2.89148 -2.08019 0
M  V30 1944 O 191.643 -4.2848 -3.39215 0
M  V30 1945 H 188.737 -0.625739 -0.540721 0
M  V30 1946 H 191.283 -1.64055 -0.434038 0
M  V30 1947 H 190.055 -3.68422 -1.31836 0
M  V30 1948 H 189.678 -2.822 -2.80088 0
M  V30 1949 N 190.675 0.682077 -1.42076 0
M  V30 1950 C 191.952 1.43755 -1.32642 0
M  V30 1951 C 192.332 2.11063 0.0396611 0
M  V30 1952 O 191.68 2.02701 1.05474 0
M  V30 1953 C 191.89 2.44596 -2.48946 0
M  V30 1954 C 193.238 3.09454 -2.9073 0
M  V30 1955 O 194.262 2.54922 -2.48783 0
M  V30 1956 O 193.121 4.08253 -3.63307 0
M  V30 1957 H 190.215 0.640857 -0.522715 0
M  V30 1958 H 192.761 0.711415 -1.54068 0
M  V30 1959 H 191.533 1.93609 -3.40046 0
M  V30 1960 H 191.156 3.24701 -2.29467 0
M  V30 1961 N 192.153 1.28127 0.917671 0
M  V30 1962 C 193.43 1.05761 1.64542 0
M  V30 1963 C 193.81 -0.404344 2.07191 0
M  V30 1964 O 193.158 -1.38963 1.81388 0
M  V30 1965 C 193.368 2.02857 2.83989 0
M  V30 1966 C 194.716 2.32786 3.551 0
M  V30 1967 O 195.74 2.0091 2.94132 0
M  V30 1968 O 194.599 2.87169 4.64969 0
M  V30 1969 H 191.693 0.403916 0.721652 0
M  V30 1970 H 194.239 1.39431 0.967322 0
M  V30 1971 H 193.011 3.01407 2.49538 0
M  V30 1972 H 192.634 1.69809 3.59514 0
M  V30 1973 N 193.631 -1.12557 1.10312 0
M  V30 1974 C 194.908 -1.80363 0.756878 0
M  V30 1975 C 195.288 -1.97067 -0.756824 0
M  V30 1976 O 194.636 -1.54601 -1.68259 0
M  V30 1977 C 194.846 -3.14812 1.50647 0
M  V30 1978 C 196.194 -3.90029 1.67817 0
M  V30 1979 O 197.218 -3.24464 1.46974 0
M  V30 1980 O 196.077 -5.07652 2.02365 0
M  V30 1981 H 193.171 -0.780667 0.272926 0
M  V30 1982 H 195.717 -1.19404 1.20586 0
M  V30 1983 H 194.489 -2.97936 2.53672 0
M  V30 1984 H 194.112 -3.83478 1.05026 0
M  V30 1985 N 195.109 -0.891671 -1.2995 0
M  V30 1986 C 196.386 -0.433307 -1.9074 0
M  V30 1987 C 196.766 1.08646 -1.80995 0
M  V30 1988 O 196.114 1.92476 -1.23147 0
M  V30 1989 C 196.324 -0.938895 -3.36134 0
M  V30 1990 C 197.672 -0.977829 -4.13187 0
M  V30 1991 O 198.696 -0.886015 -3.45005 0
M  V30 1992 O 197.555 -1.11453 -5.35015 0
M  V30 1993 H 194.649 -0.133699 -0.816121 0
M  V30 1994 H 197.195 -0.981011 -1.38471 0
M  V30 1995 H 195.967 -1.98281 -3.37343 0
M  V30 1996 H 195.59 -0.37074 -3.95868 0
M  V30 1997 N 196.587 1.43421 -0.653314 0
M  V30 1998 C 197.812 2.06678 -0.172846 0
M  V30 1999 C 198.237 1.48648 1.15262 0
M  V30 2000 O 197.595 0.596457 1.71208 0
M  V30 2001 C 197.643 3.60474 -0.0953184 0
M  V30 2002 O 196.747 4.01487 0.942442 0
M  V30 2003 H 196.088 0.657181 -0.0949155 0
M  V30 2004 H 198.618 1.83925 -0.896265 0
M  V30 2005 H 198.628 4.07905 0.0879728 0
M  V30 2006 H 197.303 4.02088 -1.06291 0
M  V30 2007 H 195.88 3.65646 0.731932 0
M  V30 2008 N 198.065 0.39524 1.52563 0
M  V30 2009 C 199.29 -0.187456 2.06551 0
M  V30 2010 C 199.715 -1.39249 1.26457 0
M  V30 2011 O 199.073 -1.78947 0.291151 0
M  V30 2012 C 199.121 -0.529985 3.56684 0
M  V30 2013 O 198.225 -1.62307 3.79118 0
M  V30 2014 H 197.566 -0.0202537 0.663691 0
M  V30 2015 H 200.096 0.564426 1.96661 0
M  V30 2016 H 200.106 -0.792598 4.00227 0
M  V30 2017 H 198.781 0.350987 4.14416 0
M  V30 2018 H 197.358 -1.3537 3.47461 0
M  V30 2019 N 199.544 -1.57102 0.125237 0
M  V30 2020 C 200.769 -2.0019 -0.542101 0
M  V30 2021 C 201.194 -1.00449 -1.59034 0
M  V30 2022 O 200.552 0.0229423 -1.81285 0
M  V30 2023 C 200.6 -3.42129 -1.13929 0
M  V30 2024 O 199.704 -3.45307 -2.2547 0
M  V30 2025 H 199.045 -0.650171 -0.134812 0
M  V30 2026 H 201.575 -2.03461 0.215553 0
M  V30 2027 H 201.585 -3.80471 -1.4733 0
M  V30 2028 H 200.26 -4.14237 -0.371531 0
M  V30 2029 H 198.837 -3.1879 -1.93462 0
M  V30 2030 N 201.022 0.148545 -1.56898 0
M  V30 2031 C 201.932 1.20293 -2.01412 0
M  V30 2032 C 202.948 1.47107 -0.929273 0
M  V30 2033 O 204.124 1.58807 -1.23863 0
M  V30 2034 C 201.189 2.51682 -2.38447 0
M  V30 2035 C 200.25 2.32529 -3.60872 0
M  V30 2036 C 199.483 3.57653 -3.96132 0
M  V30 2037 O 199.706 4.63771 -3.32073 0
M  V30 2038 O 198.64 3.50408 -4.89385 0
M  V30 2039 H 202.466 0.855025 -2.91416 0
M  V30 2040 H 200.051 0.357151 -1.45068 0
M  V30 2041 H 201.933 3.29147 -2.63135 0
M  V30 2042 H 200.608 2.86006 -1.51599 0
M  V30 2043 H 199.515 1.53019 -3.41373 0
M  V30 2044 H 200.848 2.03121 -4.48333 0
M  V30 2045 N 202.5 1.5196 0.417844 0
M  V30 2046 C 203.41 1.77554 1.53336 0
M  V30 2047 C 204.426 0.660655 1.6097 0
M  V30 2048 O 205.602 0.945099 1.77848 0
M  V30 2049 C 202.667 1.91291 2.89152 0
M  V30 2050 C 201.728 3.15183 2.91475 0
M  V30 2051 C 200.961 3.28256 4.20813 0
M  V30 2052 O 201.184 2.46798 5.14244 0
M  V30 2053 O 200.118 4.21356 4.29817 0
M  V30 2054 H 203.944 2.7222 1.34647 0
M  V30 2055 H 201.529 1.36698 0.602828 0
M  V30 2056 H 203.411 2.02199 3.69721 0
M  V30 2057 H 202.086 0.998129 3.07927 0
M  V30 2058 H 200.993 3.09739 2.09791 0
M  V30 2059 H 202.326 4.06414 2.77648 0
M  V30 2060 N 203.978 -0.674533 1.42435 0
M  V30 2061 C 204.925 -1.78807 1.45934 0
M  V30 2062 C 205.895 -1.63157 0.311271 0
M  V30 2063 O 207.08 -1.83707 0.515383 0
M  V30 2064 C 204.22 -3.16839 1.36773 0
M  V30 2065 C 203.333 -3.43774 2.61617 0
M  V30 2066 C 202.468 -4.71536 2.44597 0
M  V30 2067 C 201.507 -4.91505 3.64814 0
M  V30 2068 N 200.644 -6.10508 3.46734 0
M  V30 2069 H 205.484 -1.75151 2.41093 0
M  V30 2070 H 203.021 -0.85504 1.19697 0
M  V30 2071 H 204.979 -3.96606 1.29459 0
M  V30 2072 H 203.609 -3.19619 0.452089 0
M  V30 2073 H 202.661 -2.58259 2.79297 0
M  V30 2074 H 203.973 -3.54423 3.50978 0
M  V30 2075 H 203.127 -5.59393 2.3487 0
M  V30 2076 H 201.866 -4.6317 1.52726 0
M  V30 2077 H 200.871 -4.0209 3.74972 0
M  V30 2078 H 202.096 -5.01716 4.57665 0
M  V30 2079 H 200.042 -6.03315 2.5758 0
M  V30 2080 H 199.959 -6.2202 4.29682 0
M  V30 2081 H 201.227 -7.01044 3.40819 0
M  V30 2082 N 205.456 -1.28612 -0.910864 0
M  V30 2083 C 206.366 -1.14643 -2.0468 0
M  V30 2084 C 207.382 -0.0723121 -1.7385 0
M  V30 2085 O 208.558 -0.282178 -1.99413 0
M  V30 2086 C 205.623 -0.812561 -3.37044 0
M  V30 2087 C 204.684 -1.96935 -3.81465 0
M  V30 2088 C 203.917 -1.65131 -5.07511 0
M  V30 2089 O 204.14 -0.567013 -5.67575 0
M  V30 2090 O 203.074 -2.49585 -5.47714 0
M  V30 2091 H 206.9 -2.1001 -2.19384 0
M  V30 2092 H 204.485 -1.07958 -1.03274 0
M  V30 2093 H 206.367 -0.640441 -4.16505 0
M  V30 2094 H 205.042 0.111426 -3.23508 0
M  V30 2095 H 203.949 -2.19664 -3.02818 0
M  V30 2096 H 205.282 -2.87414 -3.99567 0
M  V30 2097 N 206.934 1.1197 -1.10907 0
M  V30 2098 C 208.162 1.87402 -0.876824 0
M  V30 2099 C 208.577 1.79894 0.573025 0
M  V30 2100 O 207.934 1.17629 1.39534 0
M  V30 2101 C 207.985 3.36428 -1.32282 0
M  V30 2102 O 207.706 3.43765 -2.71582 0
M  V30 2103 C 209.207 4.28783 -1.12518 0
M  V30 2104 H 206.427 0.592793 -0.314384 0
M  V30 2105 H 208.971 1.41649 -1.47499 0
M  V30 2106 H 207.126 3.79706 -0.768229 0
M  V30 2107 H 207.54 4.3652 -2.90776 0
M  V30 2108 H 209.014 5.31613 -1.48633 0
M  V30 2109 H 209.491 4.39153 -0.0642394 0
M  V30 2110 H 210.097 3.91291 -1.66648 0
M  V30 2111 N 208.412 0.89855 1.29475 0
M  V30 2112 C 209.689 0.443416 1.90508 0
M  V30 2113 C 210.069 -1.07685 1.81569 0
M  V30 2114 O 209.417 -1.9182 1.24166 0
M  V30 2115 C 209.627 0.956708 3.35631 0
M  V30 2116 C 210.975 0.999728 4.12663 0
M  V30 2117 O 211.999 0.904299 3.4453 0
M  V30 2118 O 210.858 1.14289 5.34416 0
M  V30 2119 H 207.952 0.138025 0.815401 0
M  V30 2120 H 210.498 0.98834 1.37949 0
M  V30 2121 H 209.27 2.00067 3.36287 0
M  V30 2122 H 208.893 0.391728 3.95666 0
M  V30 2123 N 209.89 -1.43072 0.660911 0
M  V30 2124 C 210.838 -2.32569 -0.0378199 0
M  V30 2125 C 211.832 -1.49046 -0.805092 0
M  V30 2126 O 213.038 -1.65206 -0.714624 0
M  V30 2127 H 209.413 -0.75136 -0.031019 0
M  V30 2128 H 211.384 -2.89216 0.734609 0
M  V30 2129 C 210.133 -3.33453 -0.985124 0
M  V30 2130 H 209.456 -3.97752 -0.404147 0
M  V30 2131 H 210.896 -3.98691 -1.44297 0
M  V30 2132 C 209.355 -2.64642 -2.08486 0
M  V30 2133 O 209.885 -2.46776 -3.16961 0
M  V30 2134 N 208.091 -2.23891 -1.8526 0
M  V30 2135 H 207.638 -2.38621 -0.970449 0
M  V30 2136 H 207.596 -1.78181 -2.59034 0
M  V30 2137 N 211.368 -0.403325 -1.52352 0
M  V30 2138 C 212.596 0.174012 -2.06167 0
M  V30 2139 C 213.011 1.39347 -1.27388 0
M  V30 2140 O 212.368 1.79597 -0.324201 0
M  V30 2141 C 212.419 0.530223 -3.5759 0
M  V30 2142 O 212.14 -0.640806 -4.33388 0
M  V30 2143 C 213.641 1.16192 -4.27802 0
M  V30 2144 H 210.861 0.0229464 -0.670608 0
M  V30 2145 H 213.405 -0.572604 -1.9632 0
M  V30 2146 H 211.56 1.22673 -3.67464 0
M  V30 2147 H 211.974 -0.344851 -5.23365 0
M  V30 2148 H 213.448 1.36141 -5.34948 0
M  V30 2149 H 213.925 2.13335 -3.83907 0
M  V30 2150 H 214.531 0.505775 -4.22282 0
M  V30 2151 N 212.846 1.57033 -0.133567 0
M  V30 2152 C 213.793 2.16074 0.811208 0
M  V30 2153 C 214.763 1.08979 1.2535 0
M  V30 2154 O 215.948 1.36958 1.32843 0
M  V30 2155 C 213.088 2.77595 2.05024 0
M  V30 2156 C 212.201 3.99042 1.65498 0
M  V30 2157 C 211.336 4.48603 2.84479 0
M  V30 2158 C 210.375 5.62547 2.41262 0
M  V30 2159 N 209.512 6.06787 3.53206 0
M  V30 2160 H 214.352 2.96477 0.300906 0
M  V30 2161 H 211.889 1.46462 0.136822 0
M  V30 2162 H 213.847 3.11402 2.77642 0
M  V30 2163 H 212.477 1.99859 2.53488 0
M  V30 2164 H 211.529 3.71302 0.826981 0
M  V30 2165 H 212.841 4.81629 1.29748 0
M  V30 2166 H 211.995 4.84395 3.65303 0
M  V30 2167 H 210.734 3.64995 3.23465 0
M  V30 2168 H 209.739 5.26345 1.58874 0
M  V30 2169 H 210.964 6.47931 2.03377 0
M  V30 2170 H 208.91 5.26117 3.91838 0
M  V30 2171 H 208.827 6.84266 3.21427 0
M  V30 2172 H 210.095 6.4722 4.34427 0
M  V30 2173 N 214.325 -0.140222 1.56975 0
M  V30 2174 C 215.736 -0.699596 1.73097 0
M  V30 2175 C 216.087 -1.8134 0.749022 0
M  V30 2176 O 215.212 -2.16241 -0.0828503 0
M  V30 2177 C 215.807 -1.27582 3.1386 0
M  V30 2178 C 214.366 -1.78169 3.31561 0
M  V30 2179 C 213.513 -0.672855 2.69013 0
M  V30 2180 H 216.464 0.0855115 1.58469 0
M  V30 2181 H 216.485 -2.14561 3.14235 0
M  V30 2182 H 215.997 -0.464955 3.85305 0
M  V30 2183 H 214.098 -2.61801 2.65124 0
M  V30 2184 H 214.211 -1.90574 4.39566 0
M  V30 2185 H 212.575 -1.10118 2.29665 0
M  V30 2186 H 213.358 0.126679 3.43066 0
M  V30 2187 N 215.803 -1.52179 -0.40978 0
M  V30 2188 C 216.751 -1.76086 -1.51975 0
M  V30 2189 C 217.745 -0.627964 -1.57331 0
M  V30 2190 O 218.951 -0.809993 -1.60745 0
M  V30 2191 H 215.326 -0.556829 -0.505416 0
M  V30 2192 H 217.297 -2.69077 -1.28996 0
M  V30 2193 C 216.046 -1.92799 -2.8935 0
M  V30 2194 H 215.369 -2.79392 -2.85972 0
M  V30 2195 H 216.809 -2.13527 -3.66309 0
M  V30 2196 C 215.268 -0.694923 -3.29655 0
M  V30 2197 O 215.798 0.13751 -4.01465 0
M  V30 2198 N 214.004 -0.53101 -2.85707 0
M  V30 2199 H 213.551 -1.20952 -2.27439 0
M  V30 2200 H 213.509 0.292718 -3.13034 0
M  V30 2201 N 217.281 0.66697 -1.42791 0
M  V30 2202 C 218.697 0.981027 -1.25889 0
M  V30 2203 C 218.897 2.00793 -0.168695 0
M  V30 2204 O 217.953 2.48321 0.45747 0
M  V30 2205 C 219.266 1.47838 -2.61848 0
M  V30 2206 C 220.814 1.59575 -2.69267 0
M  V30 2207 C 221.289 2.12704 -4.05612 0
M  V30 2208 N 222.78 2.20026 -4.07606 0
M  V30 2209 C 223.515 2.62227 -5.09926 0
M  V30 2210 N 223.011 3.03824 -6.22626 0
M  V30 2211 N 224.804 2.62045 -4.97281 0
M  V30 2212 H 216.955 -0.0127891 -2.12396 0
M  V30 2213 H 219.218 0.0568258 -0.946295 0
M  V30 2214 H 218.924 0.798299 -3.4252 0
M  V30 2215 H 218.798 2.45579 -2.86305 0
M  V30 2216 H 221.185 2.26687 -1.88936 0
M  V30 2217 H 221.266 0.60302 -2.48591 0
M  V30 2218 H 220.91 1.46198 -4.86404 0
M  V30 2219 H 220.84 3.12782 -4.23645 0
M  V30 2220 H 223.331 1.90708 -3.2625 0
M  V30 2221 H 223.644 3.34734 -6.96544 0
M  V30 2222 H 221.989 3.01662 -6.26119 0
M  V30 2223 H 225.18 2.28916 -4.08308 0
M  V30 2224 H 225.353 2.94613 -5.77154 0
M  V30 2225 N 218.759 1.29093 0.90403 0
M  V30 2226 C 219.692 1.08176 2.00931 0
M  V30 2227 C 220.67 -0.005083 1.62599 0
M  V30 2228 O 221.854 0.144765 1.87943 0
M  V30 2229 C 218.981 0.645897 3.32484 0
M  V30 2230 C 218.027 1.73081 3.89801 0
M  V30 2231 S 218.86 3.32905 4.19446 0
M  V30 2232 C 220.016 2.91176 5.54046 0
M  V30 2233 H 220.249 2.01752 2.18365 0
M  V30 2234 H 217.782 1.13191 1.0501 0
M  V30 2235 H 219.74 0.401131 4.08535 0
M  V30 2236 H 218.401 -0.270188 3.12936 0
M  V30 2237 H 217.594 1.37768 4.84805 0
M  V30 2238 H 217.196 1.92888 3.20422 0
M  V30 2239 H 219.488 2.37952 6.34338 0
M  V30 2240 H 220.431 3.85014 5.94281 0
M  V30 2241 H 220.839 2.296 5.15698 0
M  V30 2242 N 220.237 -1.11381 1.11499 0
M  V30 2243 C 221.648 -1.6465 0.880191 0
M  V30 2244 C 221.999 -1.87199 -0.587434 0
M  V30 2245 O 221.124 -1.60667 -1.44966 0
M  V30 2246 C 221.719 -2.99105 1.59128 0
M  V30 2247 C 220.278 -3.49279 1.40289 0
M  V30 2248 C 219.425 -2.24077 1.63354 0
M  V30 2249 H 222.376 -0.950123 1.27116 0
M  V30 2250 H 222.397 -3.66107 1.03664 0
M  V30 2251 H 221.909 -2.82661 2.65941 0
M  V30 2252 H 220.01 -3.70887 0.356888 0
M  V30 2253 H 220.123 -4.2803 2.15238 0
M  V30 2254 H 218.487 -2.31733 1.05698 0
M  V30 2255 H 219.27 -2.10175 2.71443 0
M  V30 2256 N 221.715 -0.905404 -1.28997 0
M  V30 2257 C 222.961 -0.535039 -1.95615 0
M  V30 2258 C 223.294 0.917404 -1.71165 0
M  V30 2259 O 222.569 1.65123 -1.02785 0
M  V30 2260 C 222.852 -0.834918 -3.50287 0
M  V30 2261 C 222.705 -2.33948 -3.84172 0
M  V30 2262 C 224.024 -0.325318 -4.38896 0
M  V30 2263 H 221.143 -0.195861 -0.710498 0
M  V30 2264 H 223.785 -1.13313 -1.52513 0
M  V30 2265 H 221.935 -0.325904 -3.87131 0
M  V30 2266 H 223.607 -2.91847 -3.57243 0
M  V30 2267 H 221.85 -2.79789 -3.31513 0
M  V30 2268 H 222.521 -2.49987 -4.92149 0
M  V30 2269 H 224.997 -0.761256 -4.09077 0
M  V30 2270 H 223.873 -0.564295 -5.45992 0
M  V30 2271 H 224.134 0.774144 -4.35269 0
M  V30 2272 N 223.193 1.4272 -0.668489 0
M  V30 2273 C 224.156 2.292 0.00448567 0
M  V30 2274 C 225.156 1.43001 0.735339 0
M  V30 2275 O 226.346 1.64461 0.57429 0
M  V30 2276 C 223.478 3.25375 1.01705 0
M  V30 2277 H 224.671 2.90199 -0.756608 0
M  V30 2278 H 222.224 1.50254 -0.430506 0
M  V30 2279 H 222.959 2.69301 1.80686 0
M  V30 2280 H 222.744 3.88944 0.496463 0
M  V30 2281 H 224.234 3.90245 1.48655 0
M  V30 2282 N 224.671 0.411399 1.52136 0
M  V30 2283 C 226.082 -0.0576826 1.86611 0
M  V30 2284 C 226.433 -1.44238 1.33003 0
M  V30 2285 O 225.558 -2.05759 0.670228 0
M  V30 2286 C 226.153 -0.111448 3.38617 0
M  V30 2287 C 224.712 -0.52487 3.72723 0
M  V30 2288 C 223.859 0.299176 2.75681 0
M  V30 2289 H 226.81 0.628368 1.4573 0
M  V30 2290 H 226.831 -0.926252 3.69054 0
M  V30 2291 H 226.343 0.896488 3.77604 0
M  V30 2292 H 224.444 -1.53936 3.39315 0
M  V30 2293 H 224.557 -0.267681 4.78352 0
M  V30 2294 H 222.921 -0.238814 2.53578 0
M  V30 2295 H 223.704 1.3055 3.17508 0
M  V30 2296 N 226.149 -1.5696 0.141893 0
M  V30 2297 C 227.379 -2.00031 -0.516828 0
M  V30 2298 C 227.787 -1.02091 -1.59293 0
M  V30 2299 O 227.13 -0.00909657 -1.83698 0
M  V30 2300 C 227.192 -3.39534 -1.1814 0
M  V30 2301 C 226.856 -4.56313 -0.250513 0
M  V30 2302 C 227.853 -5.17295 0.519839 0
M  V30 2303 C 225.538 -5.02061 -0.154907 0
M  V30 2304 C 227.532 -6.2243 1.3733 0
M  V30 2305 C 225.219 -6.07053 0.702161 0
M  V30 2306 C 226.217 -6.67106 1.46487 0
M  V30 2307 O 225.905 -7.70066 2.30767 0
M  V30 2308 H 225.637 -0.661451 -0.139493 0
M  V30 2309 H 228.191 -2.04086 0.231926 0
M  V30 2310 H 226.421 -3.32302 -1.97769 0
M  V30 2311 H 228.11 -3.66745 -1.73933 0
M  V30 2312 H 228.876 -4.82852 0.45598 0
M  V30 2313 H 224.755 -4.5505 -0.7383 0
M  V30 2314 H 228.299 -6.69233 1.96909 0
M  V30 2315 H 224.196 -6.40923 0.76733 0
M  V30 2316 H 224.964 -7.87264 2.23959 0
M  V30 2317 N 227.627 0.131896 -1.57047 0
M  V30 2318 C 228.873 0.838268 -1.85323 0
M  V30 2319 C 229.228 1.78098 -0.727937 0
M  V30 2320 O 228.521 1.89645 0.27304 0
M  V30 2321 C 228.715 1.63703 -3.17704 0
M  V30 2322 C 228.544 0.773167 -4.43004 0
M  V30 2323 C 227.314 0.432956 -5.03442 0
M  V30 2324 C 229.512 0.0966216 -5.14209 0
M  V30 2325 N 227.494 -0.442924 -6.123 0
M  V30 2326 C 228.865 -0.638778 -6.16701 0
M  V30 2327 C 230.92 0.018861 -4.97896 0
M  V30 2328 C 229.623 -1.44462 -7.04644 0
M  V30 2329 C 231.649 -0.773762 -5.86316 0
M  V30 2330 C 231.011 -1.4974 -6.883 0
M  V30 2331 H 227.11 0.284086 -0.728573 0
M  V30 2332 H 229.694 0.102731 -1.94429 0
M  V30 2333 H 227.865 2.3437 -3.09718 0
M  V30 2334 H 229.597 2.28774 -3.33833 0
M  V30 2335 H 226.352 0.772237 -4.67262 0
M  V30 2336 H 226.776 -0.872332 -6.71356 0
M  V30 2337 H 231.418 0.56397 -4.19022 0
M  V30 2338 H 229.136 -2.00093 -7.82936 0
M  V30 2339 H 232.722 -0.83612 -5.75761 0
M  V30 2340 H 231.602 -2.10087 -7.55535 0
M  V30 2341 N 229.106 1.52395 0.401703 0
M  V30 2342 C 230.334 1.70676 1.16949 0
M  V30 2343 C 230.749 0.419503 1.8408 0
M  V30 2344 O 230.106 -0.605061 1.72178 0
M  V30 2345 C 230.157 2.84753 2.22706 0
M  V30 2346 O 229.878 4.08495 1.58314 0
M  V30 2347 C 231.379 3.14608 3.12309 0
M  V30 2348 H 228.599 0.571787 0.351142 0
M  V30 2349 H 231.143 1.98987 0.471652 0
M  V30 2350 H 229.298 2.58941 2.88147 0
M  V30 2351 H 229.712 4.72117 2.28485 0
M  V30 2352 H 231.186 3.97923 3.82572 0
M  V30 2353 H 231.663 2.28464 3.75101 0
M  V30 2354 H 232.269 3.42212 2.52529 0
M  V30 2355 N 230.584 -0.659388 1.43143 0
M  V30 2356 C 231.809 -1.45221 1.48073 0
M  V30 2357 C 232.234 -1.87845 0.097995 0
M  V30 2358 O 231.592 -1.56985 -0.90694 0
M  V30 2359 C 231.64 -2.66748 2.42647 0
M  V30 2360 O 230.744 -3.65583 1.90848 0
M  V30 2361 H 230.085 -0.435669 0.501088 0
M  V30 2362 H 232.615 -0.807432 1.87994 0
M  V30 2363 H 232.625 -3.14637 2.59745 0
M  V30 2364 H 231.3 -2.35067 3.43098 0
M  V30 2365 H 229.877 -3.24693 1.83381 0
M  V30 2366 N 232.062 -1.29571 -0.897171 0
M  V30 2367 C 233.473 -1.15964 -1.46319 0
M  V30 2368 C 233.824 0.244267 -1.94674 0
M  V30 2369 O 232.949 1.13998 -1.83939 0
M  V30 2370 C 233.544 -2.09906 -2.65942 0
M  V30 2371 C 232.103 -2.00314 -3.18671 0
M  V30 2372 C 231.25 -2.00687 -1.91363 0
M  V30 2373 H 234.201 -1.42019 -0.708268 0
M  V30 2374 H 234.222 -1.67276 -3.41759 0
M  V30 2375 H 233.734 -3.12075 -2.30718 0
M  V30 2376 H 231.835 -1.01242 -3.58582 0
M  V30 2377 H 231.948 -2.88102 -3.82798 0
M  V30 2378 H 230.312 -1.45319 -2.09175 0
M  V30 2379 H 231.095 -3.04566 -1.58413 0
M  V30 2380 N 233.54 1.10788 -1.12088 0
M  V30 2381 C 234.45 2.20599 -0.798338 0
M  V30 2382 C 235.466 1.72712 0.21135 0
M  V30 2383 O 236.642 2.01348 0.0458477 0
M  V30 2384 C 233.707 3.45771 -0.253674 0
M  V30 2385 C 232.768 4.08411 -1.32283 0
M  V30 2386 C 232.001 5.27608 -0.80406 0
M  V30 2387 O 232.224 5.69241 0.363478 0
M  V30 2388 O 231.158 5.8101 -1.57198 0
M  V30 2389 H 234.984 2.50614 -1.7154 0
M  V30 2390 H 232.569 1.19454 -0.897275 0
M  V30 2391 H 234.451 4.21376 0.0453691 0
M  V30 2392 H 233.126 3.1739 0.636005 0
M  V30 2393 H 232.033 3.34507 -1.67499 0
M  V30 2394 H 233.366 4.40986 -2.18614 0
M  V30 2395 N 235.018 0.912232 1.28515 0
M  V30 2396 C 235.965 0.397954 2.27343 0
M  V30 2397 C 236.935 -0.526766 1.57526 0
M  V30 2398 O 238.12 -0.449292 1.85435 0
M  V30 2399 C 235.26 -0.357263 3.43246 0
M  V30 2400 C 234.373 0.599788 4.27816 0
M  V30 2401 C 233.508 -0.173725 5.30916 0
M  V30 2402 C 232.547 0.777039 6.07148 0
M  V30 2403 N 231.684 0.0371398 7.0209 0
M  V30 2404 H 236.524 1.24577 2.70711 0
M  V30 2405 H 234.061 0.625612 1.33133 0
M  V30 2406 H 236.019 -0.8113 4.09236 0
M  V30 2407 H 234.649 -1.16943 3.00872 0
M  V30 2408 H 233.701 1.17235 3.61884 0
M  V30 2409 H 235.013 1.32704 4.80823 0
M  V30 2410 H 234.167 -0.688394 6.02782 0
M  V30 2411 H 232.906 -0.934041 4.78672 0
M  V30 2412 H 231.911 1.3031 5.34134 0
M  V30 2413 H 233.136 1.53689 6.61481 0
M  V30 2414 H 231.082 -0.705213 6.52198 0
M  V30 2415 H 230.999 0.704249 7.52713 0
M  V30 2416 H 232.267 -0.457383 7.78157 0
M  V30 2417 N 236.496 -1.42363 0.676048 0
M  V30 2418 C 237.429 -2.28141 -0.0516916 0
M  V30 2419 C 238.407 -1.41135 -0.807439 0
M  V30 2420 O 239.591 -1.70573 -0.802305 0
M  V30 2421 C 236.718 -3.21007 -1.08039 0
M  V30 2422 C 235.764 -4.24426 -0.420076 0
M  V30 2423 S 236.597 -5.29134 0.823246 0
M  V30 2424 C 237.753 -6.25566 -0.204344 0
M  V30 2425 H 237.986 -2.89515 0.675884 0
M  V30 2426 H 235.519 -1.47211 0.465635 0
M  V30 2427 H 237.477 -3.75048 -1.66881 0
M  V30 2428 H 236.138 -2.58766 -1.78042 0
M  V30 2429 H 235.331 -4.89596 -1.19633 0
M  V30 2430 H 234.933 -3.7388 0.0947845 0
M  V30 2431 H 237.225 -6.69098 -1.06369 0
M  V30 2432 H 238.168 -7.06895 0.412915 0
M  V30 2433 H 238.576 -5.61811 -0.55038 0
M  V30 2434 N 237.974 -0.419461 -1.51915 0
M  V30 2435 C 238.884 0.407528 -2.31033 0
M  V30 2436 C 239.9 1.04413 -1.3919 0
M  V30 2437 O 241.076 1.0434 -1.72265 0
M  V30 2438 C 238.141 1.50365 -3.12396 0
M  V30 2439 C 237.202 0.889029 -4.19994 0
M  V30 2440 C 236.435 1.93291 -4.97468 0
M  V30 2441 O 236.658 3.15259 -4.75361 0
M  V30 2442 O 235.592 1.53339 -5.8204 0
M  V30 2443 H 239.418 -0.237865 -3.02767 0
M  V30 2444 H 237.003 -0.182413 -1.48282 0
M  V30 2445 H 238.885 2.13975 -3.63032 0
M  V30 2446 H 237.56 2.13345 -2.43445 0
M  V30 2447 H 236.467 0.215353 -3.7348 0
M  V30 2448 H 237.8 0.302991 -4.91267 0
M  V30 2449 N 239.452 1.56882 -0.150215 0
M  V30 2450 C 240.399 2.16922 0.788244 0
M  V30 2451 C 241.369 1.10303 1.24187 0
M  V30 2452 O 242.554 1.38359 1.31383 0
M  V30 2453 C 239.694 2.79754 2.02068 0
M  V30 2454 C 238.807 4.00775 1.61257 0
M  V30 2455 C 237.942 4.51595 2.79705 0
M  V30 2456 C 236.981 5.65074 2.35282 0
M  V30 2457 N 236.118 6.10499 3.4675 0
M  V30 2458 H 240.958 2.96779 0.269444 0
M  V30 2459 H 238.495 1.46599 0.12128 0
M  V30 2460 H 240.453 3.14329 2.74323 0
M  V30 2461 H 239.083 2.02536 2.51354 0
M  V30 2462 H 238.135 3.72158 0.787553 0
M  V30 2463 H 239.447 4.82978 1.24633 0
M  V30 2464 H 238.601 4.88242 3.60145 0
M  V30 2465 H 237.34 3.68406 3.19576 0
M  V30 2466 H 236.345 5.28 1.53283 0
M  V30 2467 H 237.57 6.50052 1.96493 0
M  V30 2468 H 235.516 5.30243 3.86236 0
M  V30 2469 H 235.433 6.87637 3.14152 0
M  V30 2470 H 236.701 6.51791 4.27537 0
M  V30 2471 N 240.93 -0.123565 1.57115 0
M  V30 2472 C 241.877 -1.15177 2.00007 0
M  V30 2473 C 242.847 -1.41403 0.871454 0
M  V30 2474 O 244.032 -1.53346 1.13533 0
M  V30 2475 C 241.172 -2.47436 2.40561 0
M  V30 2476 C 240.285 -2.28184 3.66819 0
M  V30 2477 C 239.42 -3.53641 3.96373 0
M  V30 2478 C 238.459 -3.29528 5.15827 0
M  V30 2479 N 237.596 -4.47175 5.41275 0
M  V30 2480 H 242.436 -0.779008 2.87638 0
M  V30 2481 H 239.973 -0.373166 1.42288 0
M  V30 2482 H 241.931 -3.24584 2.62109 0
M  V30 2483 H 240.561 -2.82614 1.55978 0
M  V30 2484 H 239.613 -1.41976 3.52912 0
M  V30 2485 H 240.925 -2.0634 4.5412 0
M  V30 2486 H 240.079 -4.39209 4.18545 0
M  V30 2487 H 238.818 -3.78512 3.07538 0
M  V30 2488 H 237.823 -2.42349 4.93505 0
M  V30 2489 H 239.048 -3.06031 6.06236 0
M  V30 2490 H 236.994 -4.72175 4.55397 0
M  V30 2491 H 236.911 -4.28419 6.22891 0
M  V30 2492 H 238.179 -5.3389 5.67963 0
M  V30 2493 N 242.408 -1.52605 -0.393616 0
M  V30 2494 C 243.338 -1.80022 -1.48709 0
M  V30 2495 C 244.319 -0.651995 -1.57108 0
M  V30 2496 O 245.504 -0.89913 -1.72132 0
M  V30 2497 C 242.634 -1.96492 -2.86371 0
M  V30 2498 C 241.588 -3.12161 -2.92813 0
M  V30 2499 C 240.914 -3.13877 -4.3288 0
M  V30 2500 C 242.214 -4.51322 -2.6288 0
M  V30 2501 H 243.908 -2.71589 -1.26015 0
M  V30 2502 H 241.454 -1.30684 -0.604778 0
M  V30 2503 H 243.407 -2.14255 -3.62867 0
M  V30 2504 H 242.131 -1.01611 -3.10391 0
M  V30 2505 H 240.79 -2.94173 -2.18764 0
M  V30 2506 H 240.438 -2.16687 -4.53933 0
M  V30 2507 H 240.138 -3.91576 -4.38112 0
M  V30 2508 H 241.662 -3.33789 -5.1129 0
M  V30 2509 H 243.076 -4.69435 -3.29096 0
M  V30 2510 H 241.473 -5.31053 -2.79468 0
M  V30 2511 H 242.543 -4.58353 -1.58242 0
M  V30 2512 N 243.887 0.651787 -1.4349 0
M  V30 2513 C 244.837 1.75783 -1.45205 0
M  V30 2514 C 245.821 1.57679 -0.320328 0
M  V30 2515 O 247.013 1.67767 -0.564211 0
M  V30 2516 C 244.142 3.14377 -1.3792 0
M  V30 2517 C 243.228 3.38023 -2.56127 0
M  V30 2518 N 243.619 3.32135 -3.81471 0
M  V30 2519 C 241.917 3.68747 -2.50882 0
M  V30 2520 C 242.618 3.55902 -4.60118 0
M  V30 2521 N 241.594 3.77783 -3.90872 0
M  V30 2522 H 245.396 1.69657 -2.39987 0
M  V30 2523 H 242.91 0.853508 -1.38163 0
M  V30 2524 H 244.907 3.93666 -1.37231 0
M  V30 2525 H 243.567 3.21683 -0.441596 0
M  V30 2526 H 244.578 3.11515 -4.13738 0
M  V30 2527 H 241.255 3.8316 -1.65816 0
M  V30 2528 H 242.645 3.57116 -5.69138 0
M  V30 2529 N 245.365 1.30045 0.890287 0
M  V30 2530 C 246.328 1.15963 1.977 0
M  V30 2531 C 247.328 0.0923777 1.60534 0
M  V30 2532 O 248.518 0.340071 1.70848 0
M  V30 2533 C 245.65 0.775451 3.31963 0
M  V30 2534 H 246.843 2.12502 2.11619 0
M  V30 2535 H 244.396 1.13366 1.07601 0
M  V30 2536 H 245.131 -0.189671 3.23745 0
M  V30 2537 H 244.916 1.54668 3.60306 0
M  V30 2538 H 246.406 0.700251 4.11687 0
M  V30 2539 N 246.843 -1.10192 1.12674 0
M  V30 2540 C 248.089 -1.82475 0.884915 0
M  V30 2541 C 248.422 -1.85093 -0.58773 0
M  V30 2542 O 247.697 -1.3134 -1.43457 0
M  V30 2543 C 247.98 -3.29018 1.46353 0
M  V30 2544 C 247.833 -3.34718 3.00473 0
M  V30 2545 C 249.152 -4.25473 1.12519 0
M  V30 2546 H 246.271 -0.662492 0.322915 0
M  V30 2547 H 248.913 -1.2913 1.39375 0
M  V30 2548 H 247.063 -3.74576 1.03077 0
M  V30 2549 H 248.735 -2.97622 3.52447 0
M  V30 2550 H 246.978 -2.74541 3.35872 0
M  V30 2551 H 247.649 -4.37918 3.36053 0
M  V30 2552 H 250.125 -3.88161 1.499 0
M  V30 2553 H 249.001 -5.26365 1.55663 0
M  V30 2554 H 249.262 -4.42084 0.0377407 0
M  V30 2555 N 248.321 -0.919034 -1.28029 0
M  V30 2556 C 249.732 -0.600735 -1.76771 0
M  V30 2557 C 250.083 0.884024 -1.75156 0
M  V30 2558 O 249.208 1.69163 -1.34956 0
M  V30 2559 C 249.803 -1.08372 -3.21 0
M  V30 2560 C 248.362 -0.816248 -3.67443 0
M  V30 2561 C 247.509 -1.24742 -2.47658 0
M  V30 2562 H 250.46 -1.09974 -1.14418 0
M  V30 2563 H 250.481 -0.427512 -3.78091 0
M  V30 2564 H 249.993 -2.16437 -3.22144 0
M  V30 2565 H 248.094 0.250968 -3.71754 0
M  V30 2566 H 248.207 -1.4277 -4.57333 0
M  V30 2567 H 246.571 -0.666083 -2.45836 0
M  V30 2568 H 247.354 -2.33653 -2.51518 0
M  V30 2569 N 249.799 1.42003 -0.683588 0
M  V30 2570 C 250.762 2.29191 -0.0198243 0
M  V30 2571 C 251.762 1.43773 0.72013 0
M  V30 2572 O 252.952 1.65061 0.556815 0
M  V30 2573 C 250.084 3.26435 0.982487 0
M  V30 2574 H 251.277 2.8938 -0.787345 0
M  V30 2575 H 248.83 1.49789 -0.446418 0
M  V30 2576 H 249.565 2.71203 1.77819 0
M  V30 2577 H 249.35 3.89449 0.455182 0
M  V30 2578 H 250.84 3.918 1.44508 0
M  V30 2579 N 251.277 0.427512 1.51691 0
M  V30 2580 C 252.24 -0.377132 2.26076 0
M  V30 2581 C 253.24 -0.958089 1.29141 0
M  V30 2582 O 254.43 -0.83408 1.52934 0
M  V30 2583 C 251.562 -1.53262 3.04506 0
M  V30 2584 H 252.755 0.27464 2.9864 0
M  V30 2585 H 250.308 0.180445 1.55255 0
M  V30 2586 H 251.043 -2.22072 2.36335 0
M  V30 2587 H 250.828 -1.12232 3.75694 0
M  V30 2588 H 252.318 -2.10135 3.60878 0
M  V30 2589 N 252.755 -1.56801 0.158532 0
M  V30 2590 C 253.702 -2.17337 -0.776729 0
M  V30 2591 C 254.672 -1.1096 -1.23601 0
M  V30 2592 O 255.857 -1.39054 -1.30647 0
M  V30 2593 C 252.997 -2.80822 -2.00582 0
M  V30 2594 C 252.11 -4.01624 -1.59129 0
M  V30 2595 C 251.245 -4.53072 -2.77306 0
M  V30 2596 C 250.284 -5.66314 -2.32282 0
M  V30 2597 N 249.421 -6.12329 -3.43508 0
M  V30 2598 H 254.261 -2.96918 -0.253701 0
M  V30 2599 H 251.798 -1.46661 -0.113504 0
M  V30 2600 H 253.756 -3.15779 -2.72652 0
M  V30 2601 H 252.386 -2.03866 -2.50277 0
M  V30 2602 H 251.438 -3.72571 -0.767806 0
M  V30 2603 H 252.75 -4.83633 -1.2207 0
M  V30 2604 H 251.904 -4.90145 -3.57551 0
M  V30 2605 H 250.643 -3.70095 -3.17617 0
M  V30 2606 H 249.648 -5.28806 -1.5048 0
M  V30 2607 H 250.873 -6.51085 -1.93043 0
M  V30 2608 H 248.819 -5.32284 -3.83418 0
M  V30 2609 H 248.736 -6.89293 -3.105 0
M  V30 2610 H 250.004 -6.5405 -4.24075 0
M  V30 2611 N 254.233 0.115231 -1.57178 0
M  V30 2612 C 255.461 0.836437 -1.89239 0
M  V30 2613 C 255.876 1.73256 -0.750175 0
M  V30 2614 O 255.233 1.80357 0.278832 0
M  V30 2615 C 255.284 1.66671 -3.20785 0
M  V30 2616 O 255.005 0.806652 -4.3061 0
M  V30 2617 C 256.506 2.49274 -3.66575 0
M  V30 2618 H 253.726 0.240253 -0.626514 0
M  V30 2619 H 256.27 0.0984932 -2.04263 0
M  V30 2620 H 254.425 2.35737 -3.0742 0
M  V30 2621 H 254.839 1.37969 -5.06028 0
M  V30 2622 H 256.313 3.03055 -4.6137 0
M  V30 2623 H 256.79 3.26807 -2.93417 0
M  V30 2624 H 257.396 1.85443 -3.82741 0
M  V30 2625 N 255.711 1.52812 0.385517 0
M  V30 2626 C 256.957 1.68275 1.13188 0
M  V30 2627 C 257.29 0.423179 1.89533 0
M  V30 2628 O 256.565 -0.579113 1.85679 0
M  V30 2629 C 256.848 2.92001 2.1073 0
M  V30 2630 C 256.701 4.28067 1.38125 0
M  V30 2631 C 258.02 3.11283 3.11113 0
M  V30 2632 H 255.139 0.612352 0.410115 0
M  V30 2633 H 257.781 1.85415 0.414869 0
M  V30 2634 H 255.931 2.77519 2.71874 0
M  V30 2635 H 257.603 4.54324 0.799187 0
M  V30 2636 H 255.846 4.28388 0.683092 0
M  V30 2637 H 256.517 5.10733 2.09417 0
M  V30 2638 H 258.993 3.2482 2.6006 0
M  V30 2639 H 257.869 3.99325 3.76605 0
M  V30 2640 H 258.13 2.25656 3.80173 0
M  V30 2641 N 257.189 -0.644168 1.43834 0
M  V30 2642 C 258.136 -1.75671 1.49694 0
M  V30 2643 C 259.106 -1.6246 0.345809 0
M  V30 2644 O 260.291 -1.82573 0.554234 0
M  V30 2645 C 257.431 -3.13867 1.43463 0
M  V30 2646 C 256.544 -3.38147 2.6885 0
M  V30 2647 C 255.679 -4.66241 2.54544 0
M  V30 2648 C 254.718 -4.83657 3.75157 0
M  V30 2649 N 253.855 -6.03016 3.59605 0
M  V30 2650 H 258.695 -1.69998 2.44754 0
M  V30 2651 H 256.232 -0.829458 1.21484 0
M  V30 2652 H 258.19 -3.9377 1.37843 0
M  V30 2653 H 256.82 -3.18588 0.519783 0
M  V30 2654 H 255.872 -2.52276 2.84712 0
M  V30 2655 H 257.184 -3.46899 3.58417 0
M  V30 2656 H 256.338 -5.54285 2.46683 0
M  V30 2657 H 255.077 -4.59826 1.62516 0
M  V30 2658 H 254.082 -3.94046 3.83416 0
M  V30 2659 H 255.307 -4.91896 4.68204 0
M  V30 2660 H 253.253 -5.97715 2.7032 0
M  V30 2661 H 253.17 -6.12766 4.42779 0
M  V30 2662 H 254.438 -6.93657 3.55613 0
M  V30 2663 N 258.668 -1.30515 -0.883378 0
M  V30 2664 C 259.915 -1.1943 -1.63532 0
M  V30 2665 C 260.243 0.250627 -1.92878 0
M  V30 2666 O 259.498 1.19556 -1.54935 0
M  V30 2667 C 259.797 -1.96994 -2.98209 0
M  V30 2668 C 259.463 -3.466 -2.88408 0
M  V30 2669 C 258.125 -3.87397 -2.85442 0
M  V30 2670 C 260.477 -4.41863 -2.76418 0
M  V30 2671 C 257.805 -5.21745 -2.68327 0
M  V30 2672 C 260.157 -5.7632 -2.60841 0
M  V30 2673 C 258.821 -6.16354 -2.56251 0
M  V30 2674 H 258.091 -0.437025 -0.598406 0
M  V30 2675 H 260.738 -1.61635 -1.02696 0
M  V30 2676 H 259.043 -1.47429 -3.63004 0
M  V30 2677 H 260.74 -1.85808 -3.55354 0
M  V30 2678 H 257.33 -3.14182 -2.91527 0
M  V30 2679 H 261.514 -4.11285 -2.77775 0
M  V30 2680 H 256.77 -5.51853 -2.63189 0
M  V30 2681 H 260.944 -6.49772 -2.50538 0
M  V30 2682 H 258.571 -7.20401 -2.42748 0
M  V30 2683 N 260.146 1.09593 -1.13257 0
M  V30 2684 C 261.093 2.1618 -0.808381 0
M  V30 2685 C 262.063 1.64517 0.228754 0
M  V30 2686 O 263.248 1.9053 0.101381 0
M  V30 2687 C 260.388 3.43973 -0.278675 0
M  V30 2688 C 259.501 4.09545 -1.37466 0
M  V30 2689 C 258.636 5.25088 -0.803479 0
M  V30 2690 C 257.675 5.82579 -1.87799 0
M  V30 2691 N 256.812 6.89486 -1.32488 0
M  V30 2692 H 261.652 2.43254 -1.72138 0
M  V30 2693 H 259.189 1.19392 -0.859294 0
M  V30 2694 H 261.147 4.17174 0.0465583 0
M  V30 2695 H 259.777 3.17223 0.597459 0
M  V30 2696 H 258.829 3.34226 -1.81652 0
M  V30 2697 H 260.141 4.48307 -2.18684 0
M  V30 2698 H 259.295 6.05178 -0.429427 0
M  V30 2699 H 258.034 4.87684 0.0397956 0
M  V30 2700 H 257.039 5.01152 -2.26113 0
M  V30 2701 H 258.264 6.22045 -2.72463 0
M  V30 2702 H 256.21 6.54064 -0.503575 0
M  V30 2703 H 256.127 7.27007 -2.07355 0
M  V30 2704 H 257.395 7.73336 -0.978336 0
M  V30 2705 N 261.624 0.925811 1.2754 0
M  V30 2706 C 262.864 0.572521 1.96218 0
M  V30 2707 C 263.228 -0.869719 1.71172 0
M  V30 2708 O 264.429 -1.33119 2.33523 0
M  V30 2709 C 262.7 0.887325 3.4621 0
M  V30 2710 S 264.259 0.642266 4.34074 0
M  V30 2711 H 261.077 0.211403 0.678845 0
M  V30 2712 H 263.679 1.19384 1.54815 0
M  V30 2713 H 262.383 1.93469 3.61936 0
M  V30 2714 H 261.914 0.255123 3.92572 0
M  V30 2715 H 263.929 -0.500822 4.93666 0
M  V30 2716 N 263.102 -1.41638 0.69111 0
M  V30 2717 C 264.513 -1.84346 0.295517 0
M  V30 2718 C 264.864 -1.57833 -1.16547 0
M  V30 2719 O 263.989 -1.04648 -1.89414 0
M  V30 2720 C 264.584 -3.34636 0.529575 0
M  V30 2721 C 263.143 -3.7593 0.187944 0
M  V30 2722 C 262.29 -2.65082 0.814052 0
M  V30 2723 H 265.241 -1.31253 0.892092 0
M  V30 2724 H 265.262 -3.79903 -0.213148 0
M  V30 2725 H 264.774 -3.53901 1.59297 0
M  V30 2726 H 262.875 -3.62268 -0.871367 0
M  V30 2727 H 262.988 -4.74808 0.63985 0
M  V30 2728 H 261.352 -2.53528 0.244017 0
M  V30 2729 H 262.135 -2.87167 1.88123 0
M  V30 2730 N 264.58 -0.43555 -1.51462 0
M  V30 2731 C 265.805 0.132627 -2.06976 0
M  V30 2732 C 266.23 1.35848 -1.30104 0
M  V30 2733 O 265.588 1.78112 -0.338493 0
M  V30 2734 C 265.636 0.43523 -3.57964 0
M  V30 2735 O 264.74 1.52198 -3.83288 0
M  V30 2736 H 264.081 0.00265 -0.663995 0
M  V30 2737 H 266.611 -0.616369 -1.95095 0
M  V30 2738 H 266.621 0.686206 -4.02188 0
M  V30 2739 H 265.296 -0.460739 -4.1334 0
M  V30 2740 H 263.873 1.2611 -3.50928 0
M  V30 2741 N 266.058 1.56714 -0.166846 0
M  V30 2742 C 267.283 2.01557 0.488833 0
M  V30 2743 C 267.708 1.0463 1.56314 0
M  V30 2744 O 267.066 0.0251304 1.81283 0
M  V30 2745 C 267.114 3.4503 1.04818 0
M  V30 2746 O 266.218 3.51163 2.16236 0
M  V30 2747 H 265.559 0.653516 0.117526 0
M  V30 2748 H 268.089 2.02818 -0.269421 0
M  V30 2749 H 268.099 3.84243 1.37191 0
M  V30 2750 H 266.774 4.15077 0.261572 0
M  V30 2751 H 265.351 3.23807 1.84942 0
M  V30 2752 N 267.536 -0.106894 1.57237 0
M  V30 2753 C 268.784 -0.810921 1.85117 0
M  V30 2754 C 269.105 -1.7984 0.753827 0
M  V30 2755 O 268.375 -1.94649 -0.221056 0
M  V30 2756 H 266.955 -0.302466 0.683025 0
M  V30 2757 H 269.617 -0.0913324 1.94686 0
M  V30 2758 H 268.713 -1.34875 2.81452 0
M  V30 2759 N 269.014 -1.53014 -0.377408 0
M  V30 2760 C 270.242 -1.72515 -1.14219 0
M  V30 2761 C 270.657 -0.448735 -1.8339 0
M  V30 2762 O 270.014 0.577592 -1.73119 0
M  V30 2763 C 270.065 -2.8826 -2.18148 0
M  V30 2764 O 269.786 -4.10962 -1.51795 0
M  V30 2765 C 271.287 -3.19536 -3.07264 0
M  V30 2766 H 268.507 -0.577301 -0.342001 0
M  V30 2767 H 271.051 -1.99712 -0.439935 0
M  V30 2768 H 269.206 -2.63492 -2.83991 0
M  V30 2769 H 269.62 -4.75693 -2.20945 0
M  V30 2770 H 271.094 -4.03959 -3.76193 0
M  V30 2771 H 271.571 -2.34403 -3.71419 0
M  V30 2772 H 272.177 -3.46186 -2.47053 0
M  V30 2773 N 270.492 0.636531 -1.44174 0
M  V30 2774 C 271.903 1.21806 -1.41493 0
M  V30 2775 C 272.254 1.95785 -0.1275 0
M  V30 2776 O 271.379 2.02147 0.772376 0
M  V30 2777 C 271.974 2.21551 -2.56321 0
M  V30 2778 C 270.533 2.75143 -2.56853 0
M  V30 2779 C 269.68 1.50052 -2.33195 0
M  V30 2780 H 272.631 0.427531 -1.52833 0
M  V30 2781 H 272.652 3.0405 -2.28765 0
M  V30 2782 H 272.164 1.67679 -3.50008 0
M  V30 2783 H 270.265 3.33033 -1.67093 0
M  V30 2784 H 270.378 3.2155 -3.55165 0
M  V30 2785 H 268.742 1.77993 -1.82183 0
M  V30 2786 H 269.525 0.980903 -3.28988 0
M  V30 2787 N 271.97 1.30982 0.876444 0
M  V30 2788 C 272.918 1.18006 2.00443 0
M  V30 2789 C 273.912 0.0898871 1.69161 0
M  V30 2790 O 275.118 0.251333 1.78237 0
M  V30 2791 H 271.493 0.365196 0.65737 0
M  V30 2792 H 273.464 2.13453 2.0852 0
M  V30 2793 C 272.213 0.897521 3.35916 0
M  V30 2794 H 271.536 1.7285 3.60504 0
M  V30 2795 H 272.976 0.846874 4.15456 0
M  V30 2796 C 271.435 -0.399674 3.34521 0
M  V30 2797 O 271.965 -1.41852 3.7582 0
M  V30 2798 N 270.171 -0.413893 2.87637 0
M  V30 2799 H 269.718 0.41571 2.54224 0
M  V30 2800 H 269.676 -1.28175 2.87086 0
M  V30 2801 N 273.449 -1.08991 1.13837 0
M  V30 2802 C 274.86 -1.62746 0.914917 0
M  V30 2803 C 275.211 -1.88403 -0.547594 0
M  V30 2804 O 274.336 -1.63706 -1.41525 0
M  V30 2805 C 274.931 -2.95662 1.65437 0
M  V30 2806 C 273.49 -3.46225 1.47666 0
M  V30 2807 C 272.637 -2.20562 1.6807 0
M  V30 2808 H 275.588 -0.922946 1.29102 0
M  V30 2809 H 275.609 -3.63825 1.11407 0
M  V30 2810 H 275.121 -2.76956 2.71877 0
M  V30 2811 H 273.222 -3.70046 0.435478 0
M  V30 2812 H 273.335 -4.23368 2.24268 0
M  V30 2813 H 271.699 -2.29439 1.10589 0
M  V30 2814 H 272.482 -2.0437 2.7584 0
M  V30 2815 N 274.927 -0.932562 -1.27047 0
M  V30 2816 C 276.155 -0.592031 -1.98249 0
M  V30 2817 C 276.57 0.831062 -1.69525 0
M  V30 2818 O 275.927 1.55299 -0.958561 0
M  V30 2819 C 275.978 -0.814279 -3.5221 0
M  V30 2820 O 275.699 -2.18139 -3.7993 0
M  V30 2821 C 277.2 -0.483121 -4.4066 0
M  V30 2822 H 274.42 -0.223896 -0.632544 0
M  V30 2823 H 276.964 -1.25091 -1.61779 0
M  V30 2824 H 275.119 -0.20213 -3.86872 0
M  V30 2825 H 275.533 -2.235 -4.74498 0
M  V30 2826 H 277.007 -0.689298 -5.47679 0
M  V30 2827 H 277.484 0.581546 -4.35333 0
M  V30 2828 H 278.09 -1.07362 -4.11526 0
M  V30 2829 N 276.405 1.4127 -0.698611 0
M  V30 2830 C 277.335 2.33447 -0.049629 0
M  V30 2831 C 278.316 1.51982 0.763898 0
M  V30 2832 O 279.501 1.80509 0.716257 0
M  V30 2833 C 276.631 3.35828 0.885267 0
M  V30 2834 C 275.585 4.27627 0.178613 0
M  V30 2835 C 274.911 5.20406 1.22807 0
M  V30 2836 C 276.211 5.13459 -0.956933 0
M  V30 2837 H 277.905 2.87966 -0.81951 0
M  V30 2838 H 275.451 1.38461 -0.395538 0
M  V30 2839 H 277.404 3.9924 1.34854 0
M  V30 2840 H 276.128 2.79666 1.68685 0
M  V30 2841 H 274.787 3.65643 -0.26466 0
M  V30 2842 H 274.435 4.60558 2.02226 0
M  V30 2843 H 274.135 5.82661 0.760239 0
M  V30 2844 H 275.659 5.86695 1.69179 0
M  V30 2845 H 277.073 5.70421 -0.573805 0
M  V30 2846 H 275.47 5.8467 -1.35205 0
M  V30 2847 H 276.54 4.50443 -1.79524 0
M  V30 2848 N 277.883 0.443576 1.51229 0
M  V30 2849 C 279.299 0.0962001 1.5931 0
M  V30 2850 C 279.499 -1.39501 1.45402 0
M  V30 2851 O 278.555 -2.16557 1.29843 0
M  V30 2852 C 279.868 0.621875 2.94199 0
M  V30 2853 C 281.416 0.582865 3.07525 0
M  V30 2854 C 281.891 1.08562 4.44948 0
M  V30 2855 N 283.382 1.04387 4.51284 0
M  V30 2856 C 284.117 1.40368 5.55954 0
M  V30 2857 N 283.613 1.83664 6.68011 0
M  V30 2858 N 285.406 1.32145 5.46346 0
M  V30 2859 H 277.557 1.41376 1.58514 0
M  V30 2860 H 279.82 0.582965 0.747567 0
M  V30 2861 H 279.526 1.66546 3.09767 0
M  V30 2862 H 279.4 0.0502125 3.77167 0
M  V30 2863 H 281.787 -0.451749 2.91622 0
M  V30 2864 H 281.868 1.191 2.26382 0
M  V30 2865 H 281.512 2.11873 4.61598 0
M  V30 2866 H 281.442 0.453956 5.2464 0
M  V30 2867 H 283.933 0.725986 3.70861 0
M  V30 2868 H 284.246 2.0934 7.43906 0
M  V30 2869 H 282.591 1.87596 6.69203 0
M  V30 2870 H 285.782 0.981808 4.57688 0
M  V30 2871 H 285.955 1.60514 6.27805 0
M  V30 2872 N 279.361 -1.56624 0.175154 0
M  V30 2873 C 280.607 -1.98061 -0.462976 0
M  V30 2874 C 280.962 -1.05949 -1.60601 0
M  V30 2875 O 280.255 -0.0999027 -1.91339 0
M  V30 2876 C 280.449 -3.43419 -0.989864 0
M  V30 2877 C 280.278 -4.49587 0.100583 0
M  V30 2878 C 279.048 -5.02281 0.551539 0
M  V30 2879 C 281.246 -5.06322 0.902369 0
M  V30 2880 N 279.228 -5.92088 1.62189 0
M  V30 2881 C 280.599 -5.92607 1.82256 0
M  V30 2882 C 282.654 -4.88811 0.947019 0
M  V30 2883 C 281.357 -6.63254 2.78364 0
M  V30 2884 C 283.383 -5.60182 1.89606 0
M  V30 2885 C 282.745 -6.46197 2.80372 0
M  V30 2886 H 278.844 -0.769833 -0.137409 0
M  V30 2887 H 281.428 -1.9273 0.276256 0
M  V30 2888 H 279.599 -3.49288 -1.6986 0
M  V30 2889 H 281.331 -3.7186 -1.59694 0
M  V30 2890 H 278.086 -4.73367 0.148537 0
M  V30 2891 H 278.51 -6.41696 2.15767 0
M  V30 2892 H 283.152 -4.22004 0.259304 0
M  V30 2893 H 280.87 -7.29271 3.48122 0
M  V30 2894 H 284.456 -5.48617 1.93676 0
M  V30 2895 H 283.336 -7.00453 3.52612 0
M  V30 2896 N 280.839 0.0985539 -1.57292 0
M  V30 2897 C 281.769 1.12064 -2.04851 0
M  V30 2898 C 282.75 1.41981 -0.936767 0
M  V30 2899 O 283.935 1.52071 -1.20781 0
M  V30 2900 C 281.065 2.44144 -2.47004 0
M  V30 2901 C 280.019 2.28643 -3.6181 0
M  V30 2902 C 279.345 3.65869 -3.89929 0
M  V30 2903 C 280.645 1.72986 -4.92822 0
M  V30 2904 H 282.339 0.724979 -2.9049 0
M  V30 2905 H 279.885 0.34729 -1.39749 0
M  V30 2906 H 281.838 3.15914 -2.78884 0
M  V30 2907 H 280.562 2.85639 -1.5836 0
M  V30 2908 H 279.221 1.59318 -3.30172 0
M  V30 2909 H 278.869 4.04885 -2.98458 0
M  V30 2910 H 278.569 3.56344 -4.67218 0
M  V30 2911 H 280.093 4.39112 -4.2428 0
M  V30 2912 H 281.507 2.34593 -5.23105 0
M  V30 2913 H 279.904 1.74229 -5.74251 0
M  V30 2914 H 280.974 0.689007 -4.7998 0
M  V30 2915 N 282.317 1.53212 0.369288 0
M  V30 2916 C 283.264 1.79388 1.45219 0
M  V30 2917 C 284.234 0.638059 1.53356 0
M  V30 2918 O 285.419 0.879852 1.69302 0
M  V30 2919 C 282.559 1.98623 2.82211 0
M  V30 2920 C 281.672 3.26337 2.8307 0
M  V30 2921 C 280.807 3.35779 4.11614 0
M  V30 2922 C 279.846 4.5754 4.06601 0
M  V30 2923 N 278.983 4.64155 5.26787 0
M  V30 2924 H 283.823 2.71794 1.22198 0
M  V30 2925 H 281.36 1.34642 0.592444 0
M  V30 2926 H 283.318 2.07761 3.61789 0
M  V30 2927 H 281.948 1.09558 3.03639 0
M  V30 2928 H 281 3.26171 1.95747 0
M  V30 2929 H 282.312 4.15988 2.75237 0
M  V30 2930 H 281.466 3.44208 4.99606 0
M  V30 2931 H 280.205 2.44137 4.22195 0
M  V30 2932 H 279.21 4.49215 3.16996 0
M  V30 2933 H 280.435 5.50519 3.97625 0
M  V30 2934 H 278.381 3.75413 5.3796 0
M  V30 2935 H 278.298 5.47706 5.21109 0
M  V30 2936 H 279.566 4.76863 6.16621 0
M  V30 2937 N 283.795 -0.628877 1.44509 0
M  V30 2938 C 284.743 -1.76193 1.51852 0
M  V30 2939 C 285.737 -1.64849 0.390042 0
M  V30 2940 O 286.943 -1.709 0.565082 0
M  V30 2941 H 283.318 -0.581728 0.476547 0
M  V30 2942 H 285.289 -1.67123 2.47209 0
M  V30 2943 C 284.038 -3.14533 1.48204 0
M  V30 2944 H 283.361 -3.23911 2.34354 0
M  V30 2945 H 284.801 -3.93701 1.57402 0
M  V30 2946 C 283.26 -3.36287 0.203142 0
M  V30 2947 O 283.79 -3.9509 -0.725745 0
M  V30 2948 N 281.996 -2.90408 0.105563 0
M  V30 2949 H 281.543 -2.42739 0.862301 0
M  V30 2950 H 281.501 -3.05339 -0.749371 0
M  V30 2951 N 285.273 -1.31445 -0.869486 0
M  V30 2952 C 286.521 -1.20918 -1.61936 0
M  V30 2953 C 286.842 0.232683 -1.93607 0
M  V30 2954 O 286.112 1.15352 -1.58338 0
M  V30 2955 H 284.692 -0.44454 -0.600328 0
M  V30 2956 H 287.354 -1.64776 -1.0409 0
M  V30 2957 H 286.45 -1.78124 -2.56278 0
M  V30 2958 N 286.751 1.08385 -1.14413 0
M  V30 2959 C 287.698 2.15311 -0.831265 0
M  V30 2960 C 288.668 1.64751 0.211292 0
M  V30 2961 O 289.853 1.90627 0.0811674 0
M  V30 2962 C 286.993 3.43658 -0.315143 0
M  V30 2963 C 286.106 4.08064 -1.41802 0
M  V30 2964 C 285.241 5.24207 -0.859126 0
M  V30 2965 C 284.28 5.80554 -1.93967 0
M  V30 2966 N 283.417 6.88042 -1.39793 0
M  V30 2967 H 288.257 2.41415 -1.74708 0
M  V30 2968 H 285.794 1.18474 -0.871909 0
M  V30 2969 H 287.752 4.172 0.00230884 0
M  V30 2970 H 286.382 3.17839 0.56378 0
M  V30 2971 H 285.434 3.3228 -1.85187 0
M  V30 2972 H 286.746 4.45962 -2.23427 0
M  V30 2973 H 285.9 6.04689 -0.49359 0
M  V30 2974 H 284.639 4.87699 -0.011932 0
M  V30 2975 H 283.644 4.98725 -2.31415 0
M  V30 2976 H 284.869 6.19121 -2.79046 0
M  V30 2977 H 282.815 6.53493 -0.572919 0
M  V30 2978 H 282.732 7.24767 -2.15054 0
M  V30 2979 H 284 7.72255 -1.0603 0
M  V30 2980 N 288.23 0.939286 1.26551 0
M  V30 2981 C 289.14 0.453432 2.30176 0
M  V30 2982 C 290.156 -0.471649 1.67486 0
M  V30 2983 O 291.332 -0.35164 1.98306 0
M  V30 2984 C 288.397 -0.275326 3.45605 0
M  V30 2985 C 287.458 0.686084 4.23782 0
M  V30 2986 C 286.691 -0.00798994 5.33699 0
M  V30 2987 O 286.914 -1.22528 5.57085 0
M  V30 2988 O 285.848 0.669746 5.98162 0
M  V30 2989 H 289.674 1.31416 2.73795 0
M  V30 2990 H 287.259 0.705095 1.31715 0
M  V30 2991 H 289.141 -0.685911 4.1578 0
M  V30 2992 H 287.816 -1.11147 3.0402 0
M  V30 2993 H 286.723 1.14658 3.56096 0
M  V30 2994 H 288.056 1.48979 4.69112 0
M  V30 2995 N 289.708 -1.40897 0.706093 0
M  V30 2996 C 290.955 -2.01054 0.241531 0
M  V30 2997 C 291.283 -1.55956 -1.16223 0
M  V30 2998 O 290.538 -0.766336 -1.80072 0
M  V30 2999 C 290.837 -3.5646 0.259099 0
M  V30 3000 C 290.503 -4.21106 1.61184 0
M  V30 3001 C 289.165 -4.38479 1.98216 0
M  V30 3002 C 291.517 -4.57256 2.50132 0
M  V30 3003 C 288.845 -4.89282 3.2376 0
M  V30 3004 C 291.197 -5.09454 3.7502 0
M  V30 3005 C 289.861 -5.25037 4.12181 0
M  V30 3006 H 289.131 -0.73571 0.0883825 0
M  V30 3007 H 291.778 -1.68645 0.907257 0
M  V30 3008 H 290.083 -3.88721 -0.490189 0
M  V30 3009 H 291.78 -4.00826 -0.11804 0
M  V30 3010 H 288.37 -4.07966 1.31384 0
M  V30 3011 H 292.554 -4.43479 2.228 0
M  V30 3012 H 287.81 -4.99531 3.52532 0
M  V30 3013 H 291.984 -5.36404 4.44121 0
M  V30 3014 H 289.611 -5.64164 5.09532 0
M  V30 3015 N 291.186 -0.45159 -1.50991 0
M  V30 3016 C 292.133 0.352625 -2.2809 0
M  V30 3017 C 293.103 1.0044 -1.32291 0
M  V30 3018 O 294.288 1.02058 -1.6121 0
M  V30 3019 C 291.428 1.43983 -3.13629 0
M  V30 3020 C 290.541 0.804772 -4.24438 0
M  V30 3021 C 289.676 1.86822 -4.97263 0
M  V30 3022 C 288.715 1.21236 -5.99973 0
M  V30 3023 N 287.852 2.2178 -6.66152 0
M  V30 3024 H 292.692 -0.311186 -2.96371 0
M  V30 3025 H 290.229 -0.165308 -1.46168 0
M  V30 3026 H 292.187 2.08161 -3.61559 0
M  V30 3027 H 290.817 2.07307 -2.47434 0
M  V30 3028 H 289.869 0.0509129 -3.80366 0
M  V30 3029 H 291.181 0.286076 -4.97979 0
M  V30 3030 H 290.335 2.58628 -5.48813 0
M  V30 3031 H 289.074 2.42068 -4.23385 0
M  V30 3032 H 288.079 0.479828 -5.47702 0
M  V30 3033 H 289.304 0.667051 -6.75816 0
M  V30 3034 H 287.25 2.76079 -5.95077 0
M  V30 3035 H 287.167 1.74841 -7.35504 0
M  V30 3036 H 288.435 2.93026 -7.22327 0
M  V30 3037 N 292.664 1.56529 -0.183458 0
M  V30 3038 C 294.075 1.83739 0.331177 0
M  V30 3039 C 294.426 1.10373 1.62211 0
M  V30 3040 O 293.551 0.36071 2.13373 0
M  V30 3041 C 294.146 3.33306 0.607646 0
M  V30 3042 C 292.705 3.60969 1.06668 0
M  V30 3043 C 291.852 2.77086 0.109029 0
M  V30 3044 H 294.803 1.53379 -0.407484 0
M  V30 3045 H 294.824 3.51444 1.45832 0
M  V30 3046 H 294.336 3.86677 -0.332086 0
M  V30 3047 H 292.437 3.13021 2.0211 0
M  V30 3048 H 292.55 4.69231 0.967447 0
M  V30 3049 H 290.914 2.47319 0.608714 0
M  V30 3050 H 291.697 3.33241 -0.82494 0
M  V30 3051 N 294.142 -0.090211 1.57342 0
M  V30 3052 C 295.419 -0.824761 1.77361 0
M  V30 3053 C 295.799 -1.96698 0.76637 0
M  V30 3054 O 295.147 -2.27586 -0.204179 0
M  V30 3055 C 295.357 -1.31481 3.23286 0
M  V30 3056 C 296.705 -1.75563 3.86604 0
M  V30 3057 O 297.729 -1.41093 3.27065 0
M  V30 3058 O 296.588 -2.39317 4.91314 0
M  V30 3059 H 293.682 -0.393776 0.727234 0
M  V30 3060 H 296.228 -0.0717138 1.69548 0
M  V30 3061 H 295 -0.496671 3.88135 0
M  V30 3062 H 294.623 -2.12973 3.35751 0
M  V30 3063 N 295.62 -1.53406 -0.361157 0
M  V30 3064 C 296.57 -1.76536 -1.44287 0
M  V30 3065 C 297.554 -0.620019 -1.48474 0
M  V30 3066 O 298.746 -0.878834 -1.53641 0
M  V30 3067 C 295.875 -1.96266 -2.81664 0
M  V30 3068 C 294.961 -3.16815 -2.81938 0
M  V30 3069 N 295.352 -4.38637 -2.51855 0
M  V30 3070 C 293.65 -3.17627 -3.13096 0
M  V30 3071 C 294.351 -5.20401 -2.59919 0
M  V30 3072 N 293.327 -4.56712 -2.94814 0
M  V30 3073 H 297.129 -2.68331 -1.19899 0
M  V30 3074 H 294.643 -1.52091 -0.56938 0
M  V30 3075 H 296.64 -2.10966 -3.59582 0
M  V30 3076 H 295.3 -1.05702 -3.07013 0
M  V30 3077 H 296.311 -4.66293 -2.25369 0
M  V30 3078 H 292.988 -2.36971 -3.43731 0
M  V30 3079 H 294.378 -6.27586 -2.39969 0
M  V30 3080 N 297.098 0.621204 -1.44841 0
M  V30 3081 C 298.514 0.94048 -1.28946 0
M  V30 3082 C 298.714 2.00154 -0.23249 0
M  V30 3083 O 297.77 2.49651 0.378237 0
M  V30 3084 C 299.083 1.39433 -2.66419 0
M  V30 3085 C 300.631 1.50927 -2.74208 0
M  V30 3086 C 301.106 1.99692 -4.12174 0
M  V30 3087 N 302.597 2.06947 -4.144 0
M  V30 3088 C 303.332 2.45871 -5.1801 0
M  V30 3089 N 302.828 2.83862 -6.31977 0
M  V30 3090 N 304.621 2.46092 -5.05366 0
M  V30 3091 H 296.772 -0.0803548 -2.12248 0
M  V30 3092 H 299.035 0.0266913 -0.947624 0
M  V30 3093 H 298.741 0.688925 -3.44887 0
M  V30 3094 H 298.615 2.36347 -2.93973 0
M  V30 3095 H 301.002 2.20561 -1.96053 0
M  V30 3096 H 301.083 0.523627 -2.50383 0
M  V30 3097 H 300.727 1.30649 -4.90809 0
M  V30 3098 H 300.657 2.99146 -4.33381 0
M  V30 3099 H 303.148 1.80232 -3.32152 0
M  V30 3100 H 303.461 3.12405 -7.0684 0
M  V30 3101 H 301.806 2.8159 -6.35399 0
M  V30 3102 H 304.997 2.1581 -4.15384 0
M  V30 3103 H 305.17 2.76102 -5.86235 0
M  V30 3104 N 298.576 1.31904 0.862503 0
M  V30 3105 C 299.825 1.21373 1.61094 0
M  V30 3106 C 300.138 -0.22504 1.94301 0
M  V30 3107 O 301.344 -0.452121 2.67709 0
M  V30 3108 C 299.8 2.12525 2.9045 0
M  V30 3109 C 299.408 3.61441 2.64697 0
M  V30 3110 C 301.152 2.10813 3.68454 0
M  V30 3111 C 299.059 4.44578 3.90006 0
M  V30 3112 H 297.989 0.450705 0.604468 0
M  V30 3113 H 300.64 1.56811 0.953027 0
M  V30 3114 H 299.022 1.69994 3.57656 0
M  V30 3115 H 300.196 4.12264 2.05851 0
M  V30 3116 H 298.511 3.65205 2.00036 0
M  V30 3117 H 301.108 2.70167 4.61426 0
M  V30 3118 H 301.451 1.09713 4.01583 0
M  V30 3119 H 301.984 2.51583 3.08141 0
M  V30 3120 H 298.723 5.46461 3.62023 0
M  V30 3121 H 298.243 3.98508 4.48276 0
M  V30 3122 H 299.922 4.57176 4.5782 0
M  V30 3123 N 300.054 -1.07777 1.14986 0
M  V30 3124 C 301.302 -1.79934 0.920235 0
M  V30 3125 C 301.623 -1.86955 -0.554336 0
M  V30 3126 O 300.893 -1.36731 -1.40291 0
M  V30 3127 H 299.473 -0.666424 0.337473 0
M  V30 3128 H 302.135 -1.3027 1.44968 0
M  V30 3129 H 301.231 -2.82539 1.32583 0
M  V30 3130 N 301.532 -0.945985 -1.26051 0
M  V30 3131 C 302.78 -0.594941 -1.93145 0
M  V30 3132 C 303.101 0.86953 -1.7454 0
M  V30 3133 O 302.371 1.61838 -1.10387 0
M  V30 3134 H 300.951 -0.217044 -0.714773 0
M  V30 3135 H 303.613 -1.20235 -1.53393 0
M  V30 3136 H 302.709 -0.816835 -3.01221 0
M  V30 3137 N 303.011 1.40521 -0.713556 0
M  V30 3138 C 304.241 2.0494 -0.261395 0
M  V30 3139 C 304.649 1.53861 1.10107 0
M  V30 3140 O 303.992 0.689321 1.70276 0
M  V30 3141 C 304.054 3.59138 -0.161227 0
M  V30 3142 C 303.718 4.33096 -1.45865 0
M  V30 3143 C 304.715 4.61182 -2.40016 0
M  V30 3144 C 302.4 4.72043 -1.71701 0
M  V30 3145 C 304.394 5.27196 -3.58251 0
M  V30 3146 C 302.081 5.37789 -2.90218 0
M  V30 3147 C 303.079 5.65295 -3.83315 0
M  V30 3148 O 302.767 6.29683 -4.99754 0
M  V30 3149 H 302.499 0.666041 -0.115608 0
M  V30 3150 H 305.053 1.80954 -0.971849 0
M  V30 3151 H 303.283 3.81936 0.605153 0
M  V30 3152 H 304.972 4.05091 0.256105 0
M  V30 3153 H 305.738 4.31559 -2.21318 0
M  V30 3154 H 301.617 4.50003 -1.00092 0
M  V30 3155 H 305.161 5.48582 -4.30934 0
M  V30 3156 H 301.058 5.66831 -3.08825 0
M  V30 3157 H 301.826 6.4818 -4.99805 0
M  V30 3158 N 304.489 0.459591 1.5075 0
M  V30 3159 C 305.436 -0.340524 2.28274 0
M  V30 3160 C 306.406 -0.997371 1.32822 0
M  V30 3161 O 307.591 -1.01202 1.61749 0
M  V30 3162 C 304.731 -1.42317 3.14388 0
M  V30 3163 C 303.844 -0.782251 4.24859 0
M  V30 3164 C 302.979 -1.84182 4.98247 0
M  V30 3165 C 302.018 -1.18053 6.00608 0
M  V30 3166 N 301.155 -2.18244 6.67319 0
M  V30 3167 H 305.995 0.326899 2.96202 0
M  V30 3168 H 303.532 0.173057 1.46078 0
M  V30 3169 H 305.49 -2.06241 3.62658 0
M  V30 3170 H 304.12 -2.05992 2.4853 0
M  V30 3171 H 303.172 -0.0307404 3.80388 0
M  V30 3172 H 304.484 -0.259663 4.98124 0
M  V30 3173 H 303.638 -2.55714 5.50177 0
M  V30 3174 H 302.377 -2.39819 4.24662 0
M  V30 3175 H 301.382 -0.450776 5.47949 0
M  V30 3176 H 302.607 -0.631202 6.7616 0
M  V30 3177 H 300.553 -2.72919 5.96533 0
M  V30 3178 H 300.47 -1.70938 7.36421 0
M  V30 3179 H 301.738 -2.89191 7.23871 0
M  V30 3180 N 305.967 -1.56429 0.191757 0
M  V30 3181 C 307.213 -1.97777 -0.448554 0
M  V30 3182 C 307.546 -1.07847 -1.61501 0
M  V30 3183 O 306.821 -0.129774 -1.94067 0
M  V30 3184 C 307.104 -3.48362 -0.911906 0
M  V30 3185 C 306.957 -4.4907 0.256136 0
M  V30 3186 C 308.276 -4.02561 -1.77857 0
M  V30 3187 H 305.395 -0.719071 -0.161572 0
M  V30 3188 H 308.037 -1.87896 0.282007 0
M  V30 3189 H 306.187 -3.56914 -1.53442 0
M  V30 3190 H 307.859 -4.5256 0.893733 0
M  V30 3191 H 306.102 -4.24181 0.908436 0
M  V30 3192 H 306.773 -5.51889 -0.11053 0
M  V30 3193 H 309.249 -3.96767 -1.25359 0
M  V30 3194 H 308.125 -5.08301 -2.07174 0
M  V30 3195 H 308.386 -3.47616 -2.73158 0
M  V30 3196 N 307.445 0.0818655 -1.57387 0
M  V30 3197 C 308.861 0.436412 -1.53517 0
M  V30 3198 C 309.061 1.79758 -0.910459 0
M  V30 3199 O 308.117 2.47324 -0.508636 0
M  V30 3200 C 309.43 0.386734 -2.98203 0
M  V30 3201 C 310.978 0.467644 -3.09487 0
M  V30 3202 C 311.453 0.447978 -4.55804 0
M  V30 3203 N 312.944 0.508348 -4.60402 0
M  V30 3204 C 313.679 0.515184 -5.71081 0
M  V30 3205 N 313.175 0.477435 -6.91153 0
M  V30 3206 N 314.968 0.560988 -5.59294 0
M  V30 3207 H 307.119 -0.809546 -1.96367 0
M  V30 3208 H 309.382 -0.302733 -0.898363 0
M  V30 3209 H 309.088 -0.546539 -3.47427 0
M  V30 3210 H 308.962 1.20075 -3.57578 0
M  V30 3211 H 311.349 1.39134 -2.60242 0
M  V30 3212 H 311.43 -0.374753 -2.5304 0
M  V30 3213 H 311.074 -0.471826 -5.05704 0
M  V30 3214 H 311.004 1.30777 -5.10103 0
M  V30 3215 H 313.495 0.54218 -3.7399 0
M  V30 3216 H 313.808 0.486299 -7.71268 0
M  V30 3217 H 312.153 0.444278 -6.93579 0
M  V30 3218 H 315.344 0.5881 -4.64391 0
M  V30 3219 H 315.517 0.562846 -6.45551 0
M  V30 3220 N 308.923 1.53595 0.353017 0
M  V30 3221 C 310.153 1.74058 1.11299 0
M  V30 3222 C 310.561 0.475205 1.83135 0
M  V30 3223 O 309.904 -0.562344 1.74881 0
M  V30 3224 C 309.966 2.85994 2.17825 0
M  V30 3225 C 309.63 4.25923 1.65647 0
M  V30 3226 C 310.627 5.07829 1.11383 0
M  V30 3227 C 308.312 4.72377 1.7078 0
M  V30 3228 C 310.306 6.34285 0.629439 0
M  V30 3229 C 307.993 5.98808 1.21953 0
M  V30 3230 C 308.991 6.79594 0.681265 0
M  V30 3231 O 308.679 8.03651 0.200248 0
M  V30 3232 H 308.411 0.585327 0.338183 0
M  V30 3233 H 310.965 2.01186 0.413927 0
M  V30 3234 H 309.195 2.54368 2.91262 0
M  V30 3235 H 310.884 2.94515 2.79313 0
M  V30 3236 H 311.65 4.73107 1.06746 0
M  V30 3237 H 307.529 4.0956 2.11617 0
M  V30 3238 H 311.073 6.97288 0.208636 0
M  V30 3239 H 306.97 6.33026 1.26287 0
M  V30 3240 H 307.738 8.1788 0.318416 0
M  V30 3241 N 310.401 -0.613514 1.45168 0
M  V30 3242 C 311.364 -1.7065 1.53007 0
M  V30 3243 C 312.364 -1.5548 0.410184 0
M  V30 3244 O 313.554 -1.60656 0.673455 0
M  V30 3245 C 310.686 -3.09875 1.42093 0
M  V30 3246 H 311.879 -1.65068 2.50385 0
M  V30 3247 H 309.432 -0.828728 1.32521 0
M  V30 3248 H 310.167 -3.21039 0.458769 0
M  V30 3249 H 309.952 -3.22293 2.23315 0
M  V30 3250 H 311.442 -3.895 1.50598 0
M  V30 3251 N 311.879 -1.3236 -0.855495 0
M  V30 3252 C 313.107 -1.2587 -1.64208 0
M  V30 3253 C 313.522 0.173457 -1.88002 0
M  V30 3254 O 312.879 1.11027 -1.44842 0
M  V30 3255 C 312.93 -2.01424 -3.00184 0
M  V30 3256 O 312.651 -3.39051 -2.77445 0
M  V30 3257 C 314.152 -2.01948 -3.94629 0
M  V30 3258 H 311.372 -0.434318 -0.511477 0
M  V30 3259 H 313.916 -1.74469 -1.0668 0
M  V30 3260 H 312.071 -1.56549 -3.5436 0
M  V30 3261 H 312.485 -3.77711 -3.63916 0
M  V30 3262 H 313.959 -2.59297 -4.87308 0
M  V30 3263 H 314.436 -1.00554 -4.27534 0
M  V30 3264 H 315.042 -2.46767 -3.4639 0
M  V30 3265 N 313.357 1.07166 -1.15556 0
M  V30 3266 C 314.603 1.80222 -0.942961 0
M  V30 3267 C 314.958 1.85121 0.524209 0
M  V30 3268 O 314.251 1.32531 1.38369 0
M  V30 3269 C 314.445 3.24707 -1.49332 0
M  V30 3270 C 314.274 3.33887 -3.01247 0
M  V30 3271 C 313.044 3.44337 -3.69811 0
M  V30 3272 C 315.242 3.24484 -3.99017 0
M  V30 3273 N 313.224 3.42439 -5.09518 0
M  V30 3274 C 314.595 3.29726 -5.25053 0
M  V30 3275 C 316.65 3.08307 -3.90962 0
M  V30 3276 C 315.353 3.20455 -6.43973 0
M  V30 3277 C 317.379 3.00371 -5.09442 0
M  V30 3278 C 316.741 3.06227 -6.34354 0
M  V30 3279 H 312.84 0.672709 -0.398731 0
M  V30 3280 H 315.424 1.27905 -1.46794 0
M  V30 3281 H 313.595 3.7544 -0.994946 0
M  V30 3282 H 315.327 3.85894 -1.21935 0
M  V30 3283 H 312.082 3.48762 -3.20409 0
M  V30 3284 H 312.506 3.45013 -5.8249 0
M  V30 3285 H 317.148 3.02633 -2.95251 0
M  V30 3286 H 314.866 3.24888 -7.39914 0
M  V30 3287 H 318.452 2.88955 -5.04971 0
M  V30 3288 H 317.332 3.00132 -7.24493 0
M  V30 3289 N 314.835 0.952656 1.25548 0
M  V30 3290 C 316.06 0.623025 1.97821 0
M  V30 3291 C 316.485 -0.7976 1.70352 0
M  V30 3292 O 315.843 -1.53905 0.958283 0
M  V30 3293 C 315.891 0.885532 3.49558 0
M  V30 3294 O 314.995 -0.0366641 4.12384 0
M  V30 3295 H 314.336 0.237082 0.620232 0
M  V30 3296 H 316.866 1.27871 1.59719 0
M  V30 3297 H 316.876 0.811009 3.99858 0
M  V30 3298 H 315.551 1.92094 3.6888 0
M  V30 3299 H 314.128 0.0898954 3.72792 0
M  V30 3300 N 316.313 -1.40141 0.720998 0
M  V30 3301 C 317.562 -2.0002 0.259804 0
M  V30 3302 C 317.875 -1.57839 -1.15526 0
M  V30 3303 O 319.081 -2.10455 -1.71525 0
M  V30 3304 C 317.537 -3.57516 0.413566 0
M  V30 3305 C 317.145 -4.08667 1.83562 0
M  V30 3306 C 318.889 -4.24498 0.0134387 0
M  V30 3307 C 316.796 -5.58686 1.93968 0
M  V30 3308 H 315.726 -0.748195 0.0933806 0
M  V30 3309 H 318.377 -1.60313 0.892866 0
M  V30 3310 H 316.759 -3.9495 -0.288169 0
M  V30 3311 H 317.933 -3.82598 2.56817 0
M  V30 3312 H 316.248 -3.543 2.1877 0
M  V30 3313 H 318.845 -5.34654 0.0703954 0
M  V30 3314 H 319.188 -4.03375 -1.02927 0
M  V30 3315 H 319.721 -3.92188 0.665815 0
M  V30 3316 H 316.46 -5.8467 2.96379 0
M  V30 3317 H 315.98 -5.86602 1.25131 0
M  V30 3318 H 317.659 -6.23875 1.71431 0
M  V30 3319 N 317.792 -0.46758 -1.50504 0
M  V30 3320 C 319.041 0.0902868 -2.01498 0
M  V30 3321 C 319.354 1.411 -1.35463 0
M  V30 3322 O 320.56 2.0536 -1.77594 0
M  V30 3323 C 319.016 0.21142 -3.59278 0
M  V30 3324 C 318.624 -1.10065 -4.34269 0
M  V30 3325 C 320.368 0.721433 -4.18325 0
M  V30 3326 C 318.275 -0.943505 -5.83825 0
M  V30 3327 H 317.205 0.037517 -0.753066 0
M  V30 3328 H 319.856 -0.601943 -1.73346 0
M  V30 3329 H 318.238 0.967352 -3.84003 0
M  V30 3330 H 319.412 -1.86726 -4.21272 0
M  V30 3331 H 317.727 -1.5415 -3.86816 0
M  V30 3332 H 320.324 0.85598 -5.27804 0
M  V30 3333 H 320.667 1.71186 -3.79475 0
M  V30 3334 H 321.2 0.0229843 -3.97793 0
M  V30 3335 H 317.939 -1.90719 -6.27141 0
M  V30 3336 H 317.459 -0.217213 -5.99407 0
M  V30 3337 H 319.138 -0.608715 -6.4413 0
M  V30 3338 N 319.27 1.56325 -0.20005 0
M  V30 3339 C 320.203 2.15234 0.758267 0
M  V30 3340 C 321.181 1.09046 1.20614 0
M  V30 3341 O 322.365 1.37186 1.29276 0
M  V30 3342 C 319.492 2.71524 2.02466 0
M  V30 3343 C 318.538 3.90345 1.71852 0
M  V30 3344 S 319.371 5.28513 0.862249 0
M  V30 3345 C 320.527 5.88227 2.13868 0
M  V30 3346 H 320.76 2.96183 0.2575 0
M  V30 3347 H 318.293 1.54393 0.0150099 0
M  V30 3348 H 320.251 3.04598 2.75191 0
M  V30 3349 H 318.912 1.90607 2.49655 0
M  V30 3350 H 318.105 4.28158 2.65888 0
M  V30 3351 H 317.707 3.58306 1.07205 0
M  V30 3352 H 319.999 6.02891 3.09076 0
M  V30 3353 H 320.942 6.84714 1.80479 0
M  V30 3354 H 321.35 5.16874 2.2694 0
M  V30 3355 N 320.748 -0.0735177 1.57428 0
M  V30 3356 C 322.025 -0.805903 1.78226 0
M  V30 3357 C 322.405 -1.95874 0.787189 0
M  V30 3358 O 321.753 -2.2779 -0.180029 0
M  V30 3359 C 321.963 -1.28045 3.24662 0
M  V30 3360 C 323.311 -1.71453 3.88444 0
M  V30 3361 O 324.335 -1.37616 3.28543 0
M  V30 3362 O 323.194 -2.34093 4.93825 0
M  V30 3363 H 320.288 -0.386041 0.73137 0
M  V30 3364 H 322.834 -0.0537269 1.69615 0
M  V30 3365 H 321.606 -0.455476 3.8864 0
M  V30 3366 H 321.229 -2.094 3.37991 0
M  V30 3367 N 322.226 -1.5378 -0.344866 0
M  V30 3368 C 323.451 -1.75211 -1.10977 0
M  V30 3369 C 323.876 -0.48936 -1.81623 0
M  V30 3370 O 323.234 0.557925 -1.72502 0
M  V30 3371 C 323.282 -2.93147 -2.09993 0
M  V30 3372 O 322.386 -2.63203 -3.17487 0
M  V30 3373 H 321.727 -0.581241 -0.321021 0
M  V30 3374 H 324.257 -2.00738 -0.395661 0
M  V30 3375 H 324.267 -3.19898 -2.53237 0
M  V30 3376 H 322.942 -3.84731 -1.5797 0
M  V30 3377 H 321.519 -2.47336 -2.79069 0
M  V30 3378 N 323.704 0.605807 -1.45491 0
M  V30 3379 C 324.95 1.36679 -1.49823 0
M  V30 3380 C 325.283 1.93693 -0.140175 0
M  V30 3381 O 324.558 1.75158 0.845581 0
M  V30 3382 C 324.841 2.51337 -2.57879 0
M  V30 3383 C 324.694 1.99508 -4.03134 0
M  V30 3384 C 326.013 3.53463 -2.62205 0
M  V30 3385 H 323.132 0.495617 -0.545466 0
M  V30 3386 H 325.774 0.682732 -1.7731 0
M  V30 3387 H 323.924 3.09691 -2.34571 0
M  V30 3388 H 325.596 1.45789 -4.37656 0
M  V30 3389 H 323.839 1.30496 -4.13707 0
M  V30 3390 H 324.51 2.82169 -4.74431 0
M  V30 3391 H 326.986 3.04953 -2.83095 0
M  V30 3392 H 325.862 4.31178 -3.39672 0
M  V30 3393 H 326.123 4.09197 -1.67363 0
M  V30 3394 N 325.182 1.32811 0.848464 0
M  V30 3395 C 326.428 1.23907 1.60546 0
M  V30 3396 C 326.761 -0.197161 1.93197 0
M  V30 3397 O 326.036 -1.13596 1.5788 0
M  V30 3398 C 326.319 2.10489 2.92175 0
M  V30 3399 C 326.172 3.62522 2.66266 0
M  V30 3400 C 327.491 1.97075 3.93509 0
M  V30 3401 H 324.61 0.451459 0.58254 0
M  V30 3402 H 327.252 1.62818 0.979296 0
M  V30 3403 H 325.402 1.77434 3.45614 0
M  V30 3404 H 327.074 4.05821 2.19334 0
M  V30 3405 H 325.317 3.84879 2.00126 0
M  V30 3406 H 325.988 4.18437 3.6002 0
M  V30 3407 H 328.464 2.26045 3.49346 0
M  V30 3408 H 327.34 2.59923 4.83457 0
M  V30 3409 H 327.601 0.940186 4.31987 0
M  V30 3410 N 326.66 -1.06551 1.16123 0
M  V30 3411 C 328.071 -1.60768 0.949232 0
M  V30 3412 C 328.422 -1.89523 -0.507508 0
M  V30 3413 O 327.547 -1.66671 -1.38021 0
M  V30 3414 C 328.142 -2.92086 1.71671 0
M  V30 3415 C 326.701 -3.43015 1.54977 0
M  V30 3416 C 325.848 -2.16947 1.72711 0
M  V30 3417 H 328.799 -0.895354 1.31031 0
M  V30 3418 H 328.82 -3.6138 1.19099 0
M  V30 3419 H 328.332 -2.71127 2.7769 0
M  V30 3420 H 326.433 -3.69039 0.513873 0
M  V30 3421 H 326.546 -4.18516 2.33198 0
M  V30 3422 H 324.91 -2.27041 1.15431 0
M  V30 3423 H 325.693 -1.98473 2.80113 0
M  V30 3424 N 328.138 -0.959301 -1.25041 0
M  V30 3425 C 329.363 -0.633507 -1.97488 0
M  V30 3426 C 329.788 0.788555 -1.70773 0
M  V30 3427 O 329.146 1.53394 -0.966431 0
M  V30 3428 C 329.194 -0.904057 -3.49083 0
M  V30 3429 O 328.298 0.0147939 -4.12397 0
M  V30 3430 H 327.639 -0.240368 -0.618966 0
M  V30 3431 H 330.169 -1.28717 -1.59038 0
M  V30 3432 H 330.179 -0.832203 -3.99423 0
M  V30 3433 H 328.854 -1.94048 -3.67856 0
M  V30 3434 H 327.431 -0.109664 -3.72739 0
M  V30 3435 N 329.616 1.39756 -0.72842 0
M  V30 3436 C 330.893 1.94574 -0.200079 0
M  V30 3437 C 331.273 1.66569 1.29684 0
M  V30 3438 O 330.621 0.990326 2.05924 0
M  V30 3439 C 330.831 3.45004 -0.526608 0
M  V30 3440 C 332.179 4.21965 -0.472318 0
M  V30 3441 O 333.203 3.53173 -0.463413 0
M  V30 3442 O 332.062 5.44552 -0.461075 0
M  V30 3443 H 329.156 0.826289 -0.0342851 0
M  V30 3444 H 331.702 1.49293 -0.806829 0
M  V30 3445 H 330.474 3.58796 -1.56144 0
M  V30 3446 H 330.097 3.97449 0.109449 0
M  V30 3447 N 331.094 0.475555 1.50254 0
M  V30 3448 C 332.041 -0.316293 2.28622 0
M  V30 3449 C 333.011 -0.983227 1.33873 0
M  V30 3450 O 334.196 -0.994805 1.62814 0
M  V30 3451 C 331.336 -1.38975 3.1588 0
M  V30 3452 C 330.449 -0.737146 4.25664 0
M  V30 3453 C 329.584 -1.78887 5.00173 0
M  V30 3454 C 328.623 -1.11676 6.01826 0
M  V30 3455 N 327.76 -2.11154 6.69596 0
M  V30 3456 H 332.6 0.358297 2.95838 0
M  V30 3457 H 330.137 0.188541 1.45887 0
M  V30 3458 H 332.095 -2.02383 3.64825 0
M  V30 3459 H 330.725 -2.03344 2.50701 0
M  V30 3460 H 329.777 0.0096065 3.80399 0
M  V30 3461 H 331.089 -0.206816 4.98371 0
M  V30 3462 H 330.243 -2.49865 5.52859 0
M  V30 3463 H 328.982 -2.35302 4.27182 0
M  V30 3464 H 327.987 -0.392633 5.48396 0
M  V30 3465 H 329.212 -0.55945 6.76792 0
M  V30 3466 H 327.158 -2.66577 5.99394 0
M  V30 3467 H 327.075 -1.63118 7.38193 0
M  V30 3468 H 328.343 -2.81497 7.26897 0
M  V30 3469 N 332.573 -1.56217 0.208337 0
M  V30 3470 C 333.821 -1.97558 -0.426076 0
M  V30 3471 C 334.142 -1.09683 -1.61229 0
M  V30 3472 O 333.412 -0.170956 -1.95153 0
M  V30 3473 H 331.992 -0.729575 -0.160405 0
M  V30 3474 H 334.654 -1.92606 0.298155 0
M  V30 3475 H 333.75 -3.02672 -0.761312 0
M  V30 3476 N 334.051 0.0651679 -1.57465 0
M  V30 3477 C 334.999 1.09542 -2.05191 0
M  V30 3478 C 335.993 1.39675 -0.958509 0
M  V30 3479 O 337.199 1.39003 -1.14359 0
M  V30 3480 H 333.574 0.370623 -0.654326 0
M  V30 3481 H 335.545 0.666802 -2.90854 0
M  V30 3482 C 334.294 2.39881 -2.51699 0
M  V30 3483 H 333.617 2.17547 -3.3543 0
M  V30 3484 H 335.057 3.104 -2.88839 0
M  V30 3485 C 333.516 3.0631 -1.40271 0
M  V30 3486 O 334.046 3.94664 -0.748523 0
M  V30 3487 N 332.252 2.67041 -1.14618 0
M  V30 3488 H 331.799 1.95281 -1.67997 0
M  V30 3489 H 331.757 3.1181 -0.402688 0
M  V30 3490 N 335.529 1.53961 0.336706 0
M  V30 3491 C 336.759 1.75229 1.09446 0
M  V30 3492 C 337.167 0.494602 1.82621 0
M  V30 3493 O 336.51 -0.543764 1.75468 0
M  V30 3494 C 336.572 2.88288 2.1478 0
M  V30 3495 C 336.236 4.27656 1.6112 0
M  V30 3496 C 337.233 5.08981 1.0599 0
M  V30 3497 C 334.918 4.74161 1.6576 0
M  V30 3498 C 336.912 6.34916 0.562129 0
M  V30 3499 C 334.599 6.00067 1.15595 0
M  V30 3500 C 335.597 6.80278 0.609147 0
M  V30 3501 O 335.285 8.03818 0.114999 0
M  V30 3502 H 335.017 0.588881 0.331956 0
M  V30 3503 H 337.571 2.01614 0.392566 0
M  V30 3504 H 335.801 2.57443 2.88548 0
M  V30 3505 H 337.49 2.97461 2.76174 0
M  V30 3506 H 338.256 4.74213 1.01722 0
M  V30 3507 H 334.135 4.11781 2.07261 0
M  V30 3508 H 337.679 6.9747 0.134668 0
M  V30 3509 H 333.576 6.3433 1.19566 0
M  V30 3510 H 334.344 8.18172 0.231651 0
M  V30 3511 N 337.007 -0.598083 1.45811 0
M  V30 3512 C 338.235 -1.38322 1.53866 0
M  V30 3513 C 338.65 -1.87992 0.174479 0
M  V30 3514 O 338.007 -1.62756 -0.825627 0
M  V30 3515 C 338.058 -2.58125 2.53089 0
M  V30 3516 O 337.779 -2.10516 3.84206 0
M  V30 3517 C 339.28 -3.50869 2.70935 0
M  V30 3518 H 336.5 -0.423093 0.520801 0
M  V30 3519 H 339.044 -0.728527 1.91083 0
M  V30 3520 H 337.199 -3.19615 2.18917 0
M  V30 3521 H 337.613 -2.88425 4.38077 0
M  V30 3522 H 339.087 -4.31451 3.44317 0
M  V30 3523 H 339.564 -4.01822 1.77301 0
M  V30 3524 H 340.17 -2.95225 3.06141 0
M  V30 3525 N 338.485 -1.33259 -0.841409 0
M  V30 3526 C 339.725 -1.25902 -1.61022 0
M  V30 3527 C 340.089 0.173325 -1.91216 0
M  V30 3528 O 341.29 0.370824 -2.6623 0
M  V30 3529 C 339.561 -2.10735 -2.88662 0
M  V30 3530 S 341.12 -2.20541 -3.79351 0
M  V30 3531 H 337.938 -0.447958 -0.552137 0
M  V30 3532 H 340.54 -1.68263 -0.995382 0
M  V30 3533 H 339.244 -3.1384 -2.64448 0
M  V30 3534 H 338.775 -1.69201 -3.55154 0
M  V30 3535 H 340.79 -1.36462 -4.77067 0
M  V30 3536 N 339.963 1.05934 -1.16686 0
M  V30 3537 C 341.212 1.78188 -0.945085 0
M  V30 3538 C 341.525 1.88338 0.528021 0
M  V30 3539 O 342.731 2.57258 0.867799 0
M  V30 3540 C 341.187 3.20277 -1.64167 0
M  V30 3541 C 340.795 3.18281 -3.15279 0
M  V30 3542 C 342.539 3.97039 -1.502 0
M  V30 3543 C 340.446 4.55112 -3.7766 0
M  V30 3544 H 339.376 0.667866 -0.349959 0
M  V30 3545 H 342.027 1.18794 -1.39858 0
M  V30 3546 H 340.409 3.79952 -1.11589 0
M  V30 3547 H 341.583 2.68167 -3.74731 0
M  V30 3548 H 339.898 2.55018 -3.29173 0
M  V30 3549 H 342.495 4.98194 -1.94183 0
M  V30 3550 H 342.838 4.13845 -0.451461 0
M  V30 3551 H 343.371 3.43894 -1.99954 0
M  V30 3552 H 340.11 4.43512 -4.82677 0
M  V30 3553 H 339.63 5.05406 -3.22994 0
M  V30 3554 H 341.309 5.24064 -3.79428 0
M  V30 3555 N 341.441 0.965919 1.2453 0
M  V30 3556 C 342.687 0.62776 1.92839 0
M  V30 3557 C 343.02 -0.834694 1.75347 0
M  V30 3558 O 342.295 -1.60031 1.10546 0
M  V30 3559 C 342.578 1.00109 3.45905 0
M  V30 3560 C 342.431 2.52011 3.72573 0
M  V30 3561 C 343.75 0.53435 4.36844 0
M  V30 3562 H 340.869 0.229537 0.700344 0
M  V30 3563 H 343.511 1.2046 1.46933 0
M  V30 3564 H 341.661 0.510238 3.85135 0
M  V30 3565 H 343.333 3.08559 3.42912 0
M  V30 3566 H 341.576 2.95287 3.17786 0
M  V30 3567 H 342.247 2.73183 4.79661 0
M  V30 3568 H 344.723 0.955565 4.04979 0
M  V30 3569 H 343.599 0.824152 5.42678 0
M  V30 3570 H 343.86 -0.565589 4.38467 0
M  V30 3571 N 342.919 -1.39368 0.735821 0
M  V30 3572 C 343.829 -2.34395 0.0979693 0
M  V30 3573 C 344.845 -1.58361 -0.720968 0
M  V30 3574 O 346.021 -1.90648 -0.649245 0
M  V30 3575 C 343.086 -3.37393 -0.797916 0
M  V30 3576 C 342.147 -4.29287 0.0333662 0
M  V30 3577 C 341.38 -5.27365 -0.819854 0
M  V30 3578 O 341.603 -5.31959 -2.05855 0
M  V30 3579 O 340.537 -6.01389 -0.248079 0
M  V30 3580 H 344.363 -2.90601 0.882315 0
M  V30 3581 H 341.948 -1.40909 0.4965 0
M  V30 3582 H 343.83 -4.00505 -1.31048 0
M  V30 3583 H 342.505 -2.83571 -1.56106 0
M  V30 3584 H 341.412 -3.69395 0.591475 0
M  V30 3585 H 342.745 -4.86317 0.758752 0
M  V30 3586 N 344.397 -0.483516 -1.5 0
M  V30 3587 C 345.345 0.318061 -2.30415 0
M  V30 3588 C 346.339 0.978988 -1.38247 0
M  V30 3589 O 347.545 0.908673 -1.55381 0
M  V30 3590 H 343.92 0.121419 -0.742133 0
M  V30 3591 H 345.891 -0.380403 -2.95965 0
M  V30 3592 C 344.64 1.38013 -3.19136 0
M  V30 3593 H 343.963 0.880952 -3.89973 0
M  V30 3594 H 345.403 1.91332 -3.78375 0
M  V30 3595 C 343.862 2.38884 -2.37563 0
M  V30 3596 O 344.392 3.44412 -2.06744 0
M  V30 3597 N 342.598 2.10912 -1.99911 0
M  V30 3598 H 342.145 1.25118 -2.25174 0
M  V30 3599 H 342.103 2.78635 -1.45636 0
M  V30 3600 N 345.875 1.56104 -0.216619 0
M  V30 3601 C 346.785 2.23694 0.706982 0
M  V30 3602 C 347.801 1.24295 1.21765 0
M  V30 3603 O 348.977 1.57094 1.2603 0
M  V30 3604 C 346.042 2.8998 1.90033 0
M  V30 3605 C 345.103 4.04708 1.43213 0
M  V30 3606 C 344.336 4.67824 2.56859 0
M  V30 3607 O 344.559 4.29913 3.74874 0
M  V30 3608 O 343.493 5.56905 2.28343 0
M  V30 3609 H 347.319 3.03272 0.161235 0
M  V30 3610 H 344.904 1.49394 0.0136177 0
M  V30 3611 H 346.786 3.31837 2.59735 0
M  V30 3612 H 345.461 2.13365 2.43428 0
M  V30 3613 H 344.368 3.6743 0.70327 0
M  V30 3614 H 345.701 4.83051 0.944615 0
M  V30 3615 N 347.353 -0.0568162 1.57498 0
M  V30 3616 C 348.583 -0.764515 1.91934 0
M  V30 3617 C 348.991 -1.70877 0.81227 0
M  V30 3618 O 348.334 -1.82351 -0.222213 0
M  V30 3619 C 348.396 -1.5994 3.21962 0
M  V30 3620 C 348.06 -0.822925 4.4953 0
M  V30 3621 C 349.057 -0.135464 5.19723 0
M  V30 3622 C 346.742 -0.785666 4.96117 0
M  V30 3623 C 348.736 0.578861 6.34766 0
M  V30 3624 C 346.423 -0.0675784 6.11063 0
M  V30 3625 C 347.421 0.613471 6.80239 0
M  V30 3626 O 347.109 1.31996 7.92989 0
M  V30 3627 H 346.841 -0.221647 0.63863 0
M  V30 3628 H 349.395 -0.0268218 2.05382 0
M  V30 3629 H 347.625 -2.38026 3.04763 0
M  V30 3630 H 349.314 -2.18715 3.41934 0
M  V30 3631 H 350.08 -0.155458 4.84751 0
M  V30 3632 H 345.959 -1.30524 4.42136 0
M  V30 3633 H 349.503 1.111 6.88696 0
M  V30 3634 H 345.4 -0.0455636 6.45484 0
M  V30 3635 H 346.168 1.23077 8.09194 0
M  V30 3636 N 348.832 -1.54138 -0.328536 0
M  V30 3637 C 350.08 -1.71765 -1.06496 0
M  V30 3638 C 350.401 -0.49149 -1.88704 0
M  V30 3639 O 349.671 0.494539 -1.89555 0
M  V30 3640 H 348.251 -0.633295 -0.396164 0
M  V30 3641 H 350.913 -1.91429 -0.366176 0
M  V30 3642 H 350.009 -2.5951 -1.73381 0
M  V30 3643 N 350.31 0.590341 -1.46126 0
M  V30 3644 C 351.535 1.37991 -1.54833 0
M  V30 3645 C 351.96 1.87163 -0.187506 0
M  V30 3646 O 351.318 1.61133 0.831008 0
M  V30 3647 C 351.366 2.54867 -2.55098 0
M  V30 3648 O 350.47 3.56061 -2.08073 0
M  V30 3649 H 349.811 0.411265 -0.521303 0
M  V30 3650 H 352.341 0.716819 -1.91632 0
M  V30 3651 H 352.351 3.01886 -2.74461 0
M  V30 3652 H 351.026 2.18429 -3.53923 0
M  V30 3653 H 349.603 3.15574 -1.98664 0
M  V30 3654 N 351.788 1.33704 0.83433 0
M  V30 3655 C 353.037 1.24763 1.58484 0
M  V30 3656 C 353.35 -0.183775 1.94735 0
M  V30 3657 O 354.556 -0.395234 2.68608 0
M  V30 3658 C 353.012 2.18638 2.85876 0
M  V30 3659 C 352.62 3.66974 2.56971 0
M  V30 3660 C 354.364 2.18581 3.63899 0
M  V30 3661 C 352.271 4.5275 3.80488 0
M  V30 3662 H 351.201 0.463425 0.594772 0
M  V30 3663 H 353.852 1.58797 0.919551 0
M  V30 3664 H 352.234 1.77542 3.5397 0
M  V30 3665 H 353.408 4.16538 1.9706 0
M  V30 3666 H 351.723 3.69366 1.92244 0
M  V30 3667 H 354.32 2.79894 4.55591 0
M  V30 3668 H 354.663 1.18207 3.99165 0
M  V30 3669 H 355.196 2.58062 3.02735 0
M  V30 3670 H 351.935 5.54017 3.5035 0
M  V30 3671 H 351.455 4.07927 4.39722 0
M  V30 3672 H 353.134 4.66784 4.4802 0
M  V30 3673 N 353.266 -1.05314 1.17247 0
M  V30 3674 C 354.214 -2.15137 0.884238 0
M  V30 3675 C 355.208 -1.68729 -0.15063 0
M  V30 3676 O 356.414 -1.8 -0.00366673 0
M  V30 3677 H 352.789 -0.702471 0.2684 0
M  V30 3678 H 354.76 -2.36652 1.81764 0
M  V30 3679 C 353.509 -3.45243 0.412659 0
M  V30 3680 H 352.832 -3.81352 1.20043 0
M  V30 3681 H 354.272 -4.23263 0.249858 0
M  V30 3682 C 352.731 -3.25487 -0.86948 0
M  V30 3683 O 353.261 -3.51938 -1.93655 0
M  V30 3684 N 351.467 -2.78875 -0.817147 0
M  V30 3685 H 351.014 -2.57549 0.0514211 0
M  V30 3686 H 350.972 -2.66036 -1.67547 0
M  V30 3687 N 354.744 -0.972509 -1.24016 0
M  V30 3688 C 355.694 -0.477561 -2.22942 0
M  V30 3689 C 356.678 0.44308 -1.54679 0
M  V30 3690 O 357.87 0.273219 -1.74879 0
M  V30 3691 C 354.999 0.226348 -3.42553 0
M  V30 3692 C 354.085 -0.713403 -4.18057 0
M  V30 3693 N 354.476 -1.8527 -4.70647 0
M  V30 3694 C 352.774 -0.525145 -4.42898 0
M  V30 3695 C 353.475 -2.44089 -5.28011 0
M  V30 3696 N 352.451 -1.72556 -5.15486 0
M  V30 3697 H 356.253 -1.34678 -2.61226 0
M  V30 3698 H 353.767 -0.832196 -1.39457 0
M  V30 3699 H 355.764 0.598184 -4.12586 0
M  V30 3700 H 354.424 1.09195 -3.05788 0
M  V30 3701 H 355.435 -2.2341 -4.67235 0
M  V30 3702 H 352.112 0.296096 -4.16449 0
M  V30 3703 H 353.502 -3.40259 -5.79374 0
M  V30 3704 N 356.222 1.38976 -0.743202 0
M  V30 3705 C 357.45 2.04636 -0.30525 0
M  V30 3706 C 357.865 1.56044 1.06281 0
M  V30 3707 O 357.222 0.728921 1.67311 0
M  V30 3708 C 357.273 3.60193 -0.307177 0
M  V30 3709 O 356.994 4.06998 -1.62124 0
M  V30 3710 C 358.495 4.4306 0.145928 0
M  V30 3711 H 355.715 0.65788 -0.132041 0
M  V30 3712 H 358.259 1.77866 -1.00915 0
M  V30 3713 H 356.414 3.85835 0.347898 0
M  V30 3714 H 356.828 5.01371 -1.54036 0
M  V30 3715 H 358.302 5.51921 0.0934183 0
M  V30 3716 H 358.779 4.22706 1.19231 0
M  V30 3717 H 359.385 4.22584 -0.479886 0
M  V30 3718 N 357.7 0.491464 1.49741 0
M  V30 3719 C 358.93 -0.0534375 2.06531 0
M  V30 3720 C 359.338 -1.32233 1.35318 0
M  V30 3721 O 358.681 -1.78781 0.422243 0
M  V30 3722 C 358.743 -0.387034 3.57411 0
M  V30 3723 C 358.407 0.782764 4.50246 0
M  V30 3724 C 359.404 1.67059 4.92329 0
M  V30 3725 C 357.089 0.978866 4.9267 0
M  V30 3726 C 359.083 2.73874 5.75562 0
M  V30 3727 C 356.77 2.05022 5.75682 0
M  V30 3728 C 357.768 2.92851 6.17031 0
M  V30 3729 O 357.456 3.98138 6.98385 0
M  V30 3730 H 357.188 0.0129324 0.675876 0
M  V30 3731 H 359.742 0.685238 1.93633 0
M  V30 3732 H 357.972 -1.17918 3.68283 0
M  V30 3733 H 359.661 -0.869419 3.96479 0
M  V30 3734 H 360.427 1.53086 4.60206 0
M  V30 3735 H 356.306 0.304646 4.59992 0
M  V30 3736 H 359.85 3.42458 6.07757 0
M  V30 3737 H 355.747 2.18993 6.07217 0
M  V30 3738 H 356.515 3.95374 7.16674 0
M  V30 3739 N 359.178 -1.55987 0.224894 0
M  V30 3740 C 360.11 -2.17722 -0.716224 0
M  V30 3741 C 361.123 -1.14723 -1.15509 0
M  V30 3742 O 362.312 -1.41688 -1.08567 0
M  V30 3743 C 359.412 -2.74873 -1.98238 0
M  V30 3744 C 358.585 -4.03074 -1.69853 0
M  V30 3745 C 357.644 -4.44757 -2.81208 0
M  V30 3746 O 356.67 -5.11587 -2.49534 0
M  V30 3747 N 357.872 -4.10716 -4.10235 0
M  V30 3748 H 360.637 -2.99109 -0.188123 0
M  V30 3749 H 358.198 -1.6184 0.0440123 0
M  V30 3750 H 360.19 -2.99727 -2.7193 0
M  V30 3751 H 358.76 -1.9777 -2.42086 0
M  V30 3752 H 357.98 -3.86041 -0.797875 0
M  V30 3753 H 359.268 -4.86701 -1.48324 0
M  V30 3754 H 358.666 -3.57019 -4.38809 0
M  V30 3755 H 357.223 -4.40455 -4.80461 0
M  V30 3756 N 360.656 0.0484629 -1.57525 0
M  V30 3757 C 361.586 1.0549 -2.08313 0
M  V30 3758 C 362.567 1.38929 -0.981463 0
M  V30 3759 O 363.752 1.48151 -1.25558 0
M  V30 3760 C 360.882 2.36162 -2.54646 0
M  V30 3761 C 359.836 2.17016 -3.68901 0
M  V30 3762 C 359.162 3.53278 -4.01371 0
M  V30 3763 C 360.462 1.57219 -4.98076 0
M  V30 3764 H 362.156 0.632195 -2.92649 0
M  V30 3765 H 359.702 0.302654 -1.40784 0
M  V30 3766 H 361.655 3.06882 -2.88793 0
M  V30 3767 H 360.379 2.80456 -1.67368 0
M  V30 3768 H 359.038 1.48733 -3.35073 0
M  V30 3769 H 358.686 3.95185 -3.11188 0
M  V30 3770 H 358.386 3.41299 -4.78318 0
M  V30 3771 H 359.91 4.25391 -4.38035 0
M  V30 3772 H 361.324 2.17832 -5.30304 0
M  V30 3773 H 359.721 1.55871 -5.79503 0
M  V30 3774 H 360.791 0.535956 -4.81929 0
M  V30 3775 N 362.134 1.5431 0.320358 0
M  V30 3776 C 363.411 1.63322 1.07635 0
M  V30 3777 C 363.791 0.46912 2.05821 0
M  V30 3778 O 363.139 -0.536274 2.22118 0
M  V30 3779 C 363.349 3.00465 1.77544 0
M  V30 3780 C 364.697 3.56621 2.30449 0
M  V30 3781 O 365.721 3.02791 1.87606 0
M  V30 3782 O 364.58 4.5083 3.08892 0
M  V30 3783 H 361.674 0.661502 0.496331 0
M  V30 3784 H 364.22 1.66656 0.319992 0
M  V30 3785 H 362.992 3.76629 1.06143 0
M  V30 3786 H 362.615 3.00824 2.59982 0
M  V30 3787 N 363.613 -0.582584 1.46437 0
M  V30 3788 C 364.859 -1.34278 1.51978 0
M  V30 3789 C 365.192 -1.93446 0.170973 0
M  V30 3790 O 364.467 -1.76481 -0.817608 0
M  V30 3791 C 364.75 -2.47203 2.61845 0
M  V30 3792 C 364.603 -1.93069 4.06257 0
M  V30 3793 C 365.922 -3.49247 2.67795 0
M  V30 3794 H 363.041 -0.486876 0.553282 0
M  V30 3795 H 365.683 -0.654437 1.78374 0
M  V30 3796 H 363.833 -3.0592 2.39469 0
M  V30 3797 H 365.505 -1.38808 4.3992 0
M  V30 3798 H 363.748 -1.23898 4.1573 0
M  V30 3799 H 364.419 -2.74586 4.7886 0
M  V30 3800 H 366.895 -3.00411 2.8791 0
M  V30 3801 H 365.771 -4.25719 3.46489 0
M  V30 3802 H 366.032 -4.06482 1.73852 0
M  V30 3803 N 365.091 -1.34144 -0.827227 0
M  V30 3804 C 366.337 -1.26446 -1.58554 0
M  V30 3805 C 366.67 0.1664 -1.93486 0
M  V30 3806 O 365.945 1.1107 -1.59667 0
M  V30 3807 C 366.228 -2.15111 -2.8879 0
M  V30 3808 C 366.081 -3.66712 -2.60465 0
M  V30 3809 C 367.4 -2.03311 -3.90324 0
M  V30 3810 H 364.519 -0.46067 -0.575284 0
M  V30 3811 H 367.161 -1.64356 -0.953269 0
M  V30 3812 H 365.311 -1.8291 -3.42748 0
M  V30 3813 H 366.983 -4.09259 -2.1285 0
M  V30 3814 H 365.226 -3.88014 -1.93978 0
M  V30 3815 H 365.897 -4.24112 -3.53317 0
M  V30 3816 H 368.373 -2.31574 -3.45706 0
M  V30 3817 H 367.249 -2.67582 -4.79261 0
M  V30 3818 H 367.51 -1.00879 -4.30437 0
M  V30 3819 N 366.569 1.04691 -1.17803 0
M  V30 3820 C 367.479 2.16057 -0.914151 0
M  V30 3821 C 368.495 1.73589 0.119503 0
M  V30 3822 O 369.671 2.01308 -0.0609468 0
M  V30 3823 C 366.736 3.4394 -0.436603 0
M  V30 3824 C 365.797 4.00825 -1.53746 0
M  V30 3825 C 365.03 5.22604 -1.0826 0
M  V30 3826 O 365.253 5.70367 0.0612244 0
M  V30 3827 O 364.187 5.7186 -1.87775 0
M  V30 3828 H 368.013 2.41169 -1.84584 0
M  V30 3829 H 365.598 1.1453 -0.959334 0
M  V30 3830 H 367.48 4.21024 -0.178057 0
M  V30 3831 H 366.155 3.20316 0.466869 0
M  V30 3832 H 365.062 3.25158 -1.84995 0
M  V30 3833 H 366.395 4.28778 -2.41683 0
M  V30 3834 N 368.047 0.979072 1.23499 0
M  V30 3835 C 369.463 0.687475 1.44034 0
M  V30 3836 C 369.663 -0.746801 1.8715 0
M  V30 3837 O 368.719 -1.51939 2.0167 0
M  V30 3838 C 370.032 1.68127 2.49307 0
M  V30 3839 C 371.58 1.69516 2.63122 0
M  V30 3840 C 372.055 2.67723 3.71603 0
M  V30 3841 N 373.546 2.66233 3.79044 0
M  V30 3842 C 374.281 3.38891 4.62537 0
M  V30 3843 N 373.777 4.21103 5.50131 0
M  V30 3844 N 375.57 3.27661 4.56721 0
M  V30 3845 H 367.721 1.90559 0.938135 0
M  V30 3846 H 369.984 0.821051 0.473897 0
M  V30 3847 H 369.69 2.70693 2.2454 0
M  V30 3848 H 369.564 1.46306 3.4767 0
M  V30 3849 H 371.951 0.676561 2.8724 0
M  V30 3850 H 372.032 1.95404 1.65079 0
M  V30 3851 H 371.676 3.69724 3.48233 0
M  V30 3852 H 371.606 2.39111 4.69184 0
M  V30 3853 H 374.097 2.06568 3.16446 0
M  V30 3854 H 374.41 4.73403 6.10827 0
M  V30 3855 H 372.755 4.25195 5.49759 0
M  V30 3856 H 375.946 2.62887 3.87309 0
M  V30 3857 H 376.119 3.84547 5.21562 0
M  V30 3858 N 369.525 -1.3858 0.750561 0
M  V30 3859 C 370.75 -2.04997 0.314812 0
M  V30 3860 C 371.175 -1.56235 -1.04749 0
M  V30 3861 O 370.533 -0.712981 -1.66692 0
M  V30 3862 C 370.581 -3.58961 0.343415 0
M  V30 3863 O 369.685 -4.07025 -0.663628 0
M  V30 3864 H 369.026 -0.649081 0.139962 0
M  V30 3865 H 371.556 -1.77313 1.02084 0
M  V30 3866 H 371.566 -4.07542 0.193233 0
M  V30 3867 H 370.241 -3.93811 1.33738 0
M  V30 3868 H 368.818 -3.6982 -0.478307 0
M  V30 3869 N 371.003 -0.499398 -1.49478 0
M  V30 3870 C 372.414 -0.051215 -1.8663 0
M  V30 3871 C 372.765 1.36238 -1.41186 0
M  V30 3872 O 371.89 2.01502 -0.789051 0
M  V30 3873 C 372.485 -0.0861651 -3.3869 0
M  V30 3874 C 371.044 0.30667 -3.75149 0
M  V30 3875 C 370.191 -0.459397 -2.73468 0
M  V30 3876 H 373.142 -0.712264 -1.41818 0
M  V30 3877 H 373.163 0.709507 -3.73826 0
M  V30 3878 H 372.675 -1.11512 -3.71735 0
M  V30 3879 H 370.776 1.33892 -3.47712 0
M  V30 3880 H 370.889 -0.0116669 -4.79099 0
M  V30 3881 H 369.253 0.0905645 -2.54539 0
M  V30 3882 H 370.036 -1.4884 -3.09357 0
M  V30 3883 N 372.481 1.55866 -0.233164 0
M  V30 3884 C 373.431 2.17442 0.685774 0
M  V30 3885 C 374.415 1.12617 1.14918 0
M  V30 3886 O 375.607 1.3857 1.10124 0
M  V30 3887 C 372.736 2.86685 1.88856 0
M  V30 3888 C 371.822 3.98749 1.4443 0
M  V30 3889 N 372.213 5.00744 0.713364 0
M  V30 3890 C 370.511 4.11052 1.73068 0
M  V30 3891 C 371.212 5.79673 0.485205 0
M  V30 3892 N 370.188 5.33454 1.04536 0
M  V30 3893 H 373.99 2.93659 0.119022 0
M  V30 3894 H 371.504 1.62362 -0.0348995 0
M  V30 3895 H 373.501 3.29218 2.55776 0
M  V30 3896 H 372.161 2.11967 2.45967 0
M  V30 3897 H 373.172 5.16613 0.364861 0
M  V30 3898 H 369.849 3.47495 2.31416 0
M  V30 3899 H 371.239 6.71829 -0.097365 0
M  V30 3900 N 373.959 -0.0401083 1.57549 0
M  V30 3901 C 375.375 -0.395556 1.54621 0
M  V30 3902 C 375.575 -1.77281 0.957799 0
M  V30 3903 O 374.631 -2.45888 0.574031 0
M  V30 3904 C 375.944 -0.307535 2.99123 0
M  V30 3905 C 377.492 -0.385425 3.10618 0
M  V30 3906 C 377.967 -0.326973 4.56831 0
M  V30 3907 N 379.458 -0.386102 4.61588 0
M  V30 3908 C 380.193 -0.363591 5.72246 0
M  V30 3909 N 379.689 -0.29402 6.92176 0
M  V30 3910 N 381.482 -0.412503 5.60584 0
M  V30 3911 H 373.633 0.861325 1.94152 0
M  V30 3912 H 375.896 0.326445 0.890021 0
M  V30 3913 H 375.602 0.638461 3.45856 0
M  V30 3914 H 375.476 -1.10552 3.60636 0
M  V30 3915 H 377.863 -1.32185 2.63839 0
M  V30 3916 H 377.944 0.44171 2.51957 0
M  V30 3917 H 377.588 0.605738 5.04275 0
M  V30 3918 H 377.518 -1.17207 5.13391 0
M  V30 3919 H 380.009 -0.442832 3.75296 0
M  V30 3920 H 380.322 -0.28164 7.72287 0
M  V30 3921 H 378.667 -0.260232 6.94513 0
M  V30 3922 H 381.858 -0.464769 4.65787 0
M  V30 3923 H 382.031 -0.391492 6.46816 0
M  V30 3924 N 375.437 -1.54477 -0.31217 0
M  V30 3925 C 376.848 -1.64344 -0.885891 0
M  V30 3926 C 377.199 -0.54485 -1.88483 0
M  V30 3927 O 376.324 0.320387 -2.14015 0
M  V30 3928 C 376.919 -2.97908 -1.61357 0
M  V30 3929 C 375.478 -3.09933 -2.13585 0
M  V30 3930 C 374.625 -2.59971 -0.964897 0
M  V30 3931 H 377.576 -1.58448 -0.0894528 0
M  V30 3932 H 377.597 -2.88706 -2.47848 0
M  V30 3933 H 377.109 -3.77845 -0.886277 0
M  V30 3934 H 375.21 -2.34694 -2.89395 0
M  V30 3935 H 375.323 -4.15916 -2.37804 0
M  V30 3936 H 373.687 -2.16147 -1.34731 0
M  V30 3937 H 374.47 -3.42376 -0.251742 0
M  V30 3938 N 376.915 0.57481 -1.46744 0
M  V30 3939 C 378.164 1.32898 -1.51727 0
M  V30 3940 C 378.477 1.948 -0.176692 0
M  V30 3941 O 379.683 2.71299 -0.104385 0
M  V30 3942 C 378.139 2.40901 -2.67385 0
M  V30 3943 C 377.747 1.85266 -4.07898 0
M  V30 3944 C 379.491 3.17609 -2.81646 0
M  V30 3945 C 377.398 2.90945 -5.14883 0
M  V30 3946 H 376.328 0.499631 -0.564699 0
M  V30 3947 H 378.979 0.612536 -1.72975 0
M  V30 3948 H 377.361 3.15379 -2.39483 0
M  V30 3949 H 378.535 1.17278 -4.45626 0
M  V30 3950 H 376.85 1.21199 -3.98371 0
M  V30 3951 H 379.447 3.96493 -3.58744 0
M  V30 3952 H 379.79 3.70696 -1.89448 0
M  V30 3953 H 380.323 2.50239 -3.09233 0
M  V30 3954 H 377.062 2.42736 -6.089 0
M  V30 3955 H 376.582 3.57398 -4.81691 0
M  V30 3956 H 378.261 3.54755 -5.41071 0
M  V30 3957 N 378.394 1.34581 0.820102 0
M  V30 3958 C 379.324 1.29038 1.94606 0
M  V30 3959 C 380.305 0.1673 1.69275 0
M  V30 3960 O 381.49 0.360112 1.90832 0
M  V30 3961 C 378.62 1.04793 3.31113 0
M  V30 3962 C 377.574 2.13597 3.70891 0
M  V30 3963 C 376.9 1.74537 5.05412 0
M  V30 3964 C 378.2 3.55451 3.8269 0
M  V30 3965 H 379.894 2.23248 1.99501 0
M  V30 3966 H 377.44 1.0747 0.958449 0
M  V30 3967 H 379.393 0.995592 4.0947 0
M  V30 3968 H 378.117 0.0702565 3.26524 0
M  V30 3969 H 376.776 2.17905 2.9481 0
M  V30 3970 H 376.424 0.754226 4.97313 0
M  V30 3971 H 376.124 2.47361 5.32997 0
M  V30 3972 H 377.648 1.70803 5.86224 0
M  V30 3973 H 379.062 3.5354 4.51312 0
M  V30 3974 H 377.459 4.26922 4.21732 0
M  V30 3975 H 378.529 3.92587 2.84611 0
M  V30 3976 N 379.872 -1.04064 1.18357 0
M  V30 3977 C 380.804 -2.12114 0.868358 0
M  V30 3978 C 381.817 -1.62247 -0.134045 0
M  V30 3979 O 383.006 -1.78253 0.0937933 0
M  V30 3980 C 380.106 -3.37773 0.276132 0
M  V30 3981 C 379.279 -4.16874 1.3242 0
M  V30 3982 C 378.338 -5.20861 0.747662 0
M  V30 3983 O 377.364 -5.51141 1.42239 0
M  V30 3984 N 378.566 -5.78715 -0.454823 0
M  V30 3985 H 381.331 -2.39748 1.79836 0
M  V30 3986 H 378.892 -1.20258 1.08396 0
M  V30 3987 H 380.884 -4.04513 -0.123133 0
M  V30 3988 H 379.454 -3.07581 -0.557895 0
M  V30 3989 H 378.674 -3.45456 1.89878 0
M  V30 3990 H 379.962 -4.66516 2.03078 0
M  V30 3991 H 379.36 -5.56415 -1.02073 0
M  V30 3992 H 377.917 -6.46921 -0.79601 0
M  V30 3993 N 381.35 -0.985608 -1.22978 0
M  V30 3994 C 382.313 -0.535071 -2.22867 0
M  V30 3995 C 383.313 0.378123 -1.56291 0
M  V30 3996 O 384.503 0.171092 -1.73358 0
M  V30 3997 C 381.635 0.222702 -3.40172 0
M  V30 3998 H 382.828 -1.41835 -2.6424 0
M  V30 3999 H 380.381 -0.772042 -1.35901 0
M  V30 4000 H 381.116 1.12229 -3.04262 0
M  V30 4001 H 380.901 -0.43288 -3.89703 0
M  V30 4002 H 382.391 0.526335 -4.1427 0
M  V30 4003 N 382.828 1.3818 -0.7579 0
M  V30 4004 C 384.076 1.99624 -0.315361 0
M  V30 4005 C 384.397 1.60464 1.10799 0
M  V30 4006 O 383.667 0.863507 1.75842 0
M  V30 4007 H 382.247 0.73831 -0.113611 0
M  V30 4008 H 384.909 1.68878 -0.972952 0
M  V30 4009 H 384.005 3.09754 -0.381931 0
M  V30 4010 N 384.306 0.507319 1.49211 0
M  V30 4011 C 385.236 -0.256939 2.32082 0
M  V30 4012 C 386.217 -0.956609 1.40652 0
M  V30 4013 O 387.402 -0.946788 1.69557 0
M  V30 4014 C 384.532 -1.31802 3.21318 0
M  V30 4015 C 383.486 -0.737855 4.21592 0
M  V30 4016 C 382.812 -1.89992 4.99807 0
M  V30 4017 C 384.112 0.275325 5.21574 0
M  V30 4018 H 385.806 0.434798 2.96226 0
M  V30 4019 H 383.352 0.210546 1.42452 0
M  V30 4020 H 385.305 -1.86045 3.78107 0
M  V30 4021 H 384.029 -2.03903 2.5513 0
M  V30 4022 H 382.688 -0.217126 3.65956 0
M  V30 4023 H 382.336 -2.60877 4.30061 0
M  V30 4024 H 382.036 -1.51777 5.6766 0
M  V30 4025 H 383.56 -2.44657 5.59442 0
M  V30 4026 H 384.974 -0.179193 5.7302 0
M  V30 4027 H 383.371 0.573649 5.97352 0
M  V30 4028 H 384.441 1.18903 4.70096 0
M  V30 4029 N 385.784 -1.5574 0.241426 0
M  V30 4030 C 387.195 -1.84842 -0.262755 0
M  V30 4031 C 387.546 -1.16317 -1.58003 0
M  V30 4032 O 386.671 -0.439653 -2.11887 0
M  V30 4033 C 387.266 -3.35332 -0.483523 0
M  V30 4034 C 385.825 -3.6468 -0.931977 0
M  V30 4035 C 384.972 -2.77299 -0.0061151 0
M  V30 4036 H 387.923 -1.51761 0.464129 0
M  V30 4037 H 387.944 -3.56615 -1.32688 0
M  V30 4038 H 387.456 -3.85178 0.47537 0
M  V30 4039 H 385.557 -3.20307 -1.90353 0
M  V30 4040 H 385.67 -4.72498 -0.792628 0
M  V30 4041 H 384.034 -2.49408 -0.516503 0
M  V30 4042 H 384.817 -3.2995 0.948052 0
M  V30 4043 N 387.262 0.0317525 -1.57568 0
M  V30 4044 C 388.225 1.01783 -2.0536 0
M  V30 4045 C 389.225 1.29203 -0.957253 0
M  V30 4046 O 390.415 1.24251 -1.22095 0
M  V30 4047 C 387.547 2.35137 -2.46827 0
M  V30 4048 H 388.74 0.605062 -2.93733 0
M  V30 4049 H 386.293 0.278514 -1.53799 0
M  V30 4050 H 387.028 2.81168 -1.61602 0
M  V30 4051 H 386.813 2.16566 -3.26866 0
M  V30 4052 H 388.303 3.05938 -2.84239 0
M  V30 4053 N 388.74 1.54641 0.303973 0
M  V30 4054 C 389.688 1.86137 1.39484 0
M  V30 4055 C 390.682 0.734854 1.52631 0
M  V30 4056 O 391.888 0.918803 1.54784 0
M  V30 4057 H 388.263 0.590324 0.465856 0
M  V30 4058 H 390.234 2.77324 1.10154 0
M  V30 4059 C 388.983 2.12274 2.75382 0
M  V30 4060 H 388.306 2.98429 2.66046 0
M  V30 4061 H 389.746 2.38254 3.5073 0
M  V30 4062 C 388.205 0.920365 3.24085 0
M  V30 4063 O 388.735 0.139377 4.01458 0
M  V30 4064 N 386.941 0.726566 2.81371 0
M  V30 4065 H 386.488 1.36332 2.18567 0
M  V30 4066 H 386.446 -0.0763799 3.14307 0
M  V30 4067 N 390.218 -0.567019 1.47046 0
M  V30 4068 C 391.165 -1.67489 1.58796 0
M  V30 4069 C 392.135 -1.60399 0.43144 0
M  V30 4070 O 393.32 -1.79378 0.650233 0
M  V30 4071 C 390.46 -3.05821 1.59899 0
M  V30 4072 C 389.573 -3.2342 2.86397 0
M  V30 4073 C 388.708 -4.52093 2.789 0
M  V30 4074 C 387.747 -4.6309 4.00267 0
M  V30 4075 N 386.884 -5.83106 3.91064 0
M  V30 4076 H 391.724 -1.56785 2.53422 0
M  V30 4077 H 389.261 -0.763896 1.2571 0
M  V30 4078 H 391.219 -3.8591 1.58522 0
M  V30 4079 H 389.849 -3.15384 0.687929 0
M  V30 4080 H 388.901 -2.3683 2.97684 0
M  V30 4081 H 390.213 -3.27412 3.76301 0
M  V30 4082 H 389.367 -5.4043 2.75718 0
M  V30 4083 H 388.106 -4.50565 1.86662 0
M  V30 4084 H 387.111 -3.73168 4.03765 0
M  V30 4085 H 388.336 -4.66386 4.93621 0
M  V30 4086 H 386.282 -5.82546 3.01623 0
M  V30 4087 H 386.199 -5.88434 4.74638 0
M  V30 4088 H 387.467 -6.73831 3.91882 0
M  V30 4089 N 391.696 -1.35014 -0.812953 0
M  V30 4090 C 392.924 -1.31031 -1.6012 0
M  V30 4091 C 393.339 0.113558 -1.88458 0
M  V30 4092 O 392.696 1.06363 -1.48301 0
M  V30 4093 C 392.747 -2.10872 -2.93624 0
M  V30 4094 O 392.468 -3.47706 -2.66518 0
M  V30 4095 C 393.969 -2.14401 -3.88004 0
M  V30 4096 H 391.189 -0.45037 -0.497401 0
M  V30 4097 H 393.733 -1.77775 -1.01076 0
M  V30 4098 H 391.888 -1.67744 -3.492 0
M  V30 4099 H 392.302 -3.89097 -3.51715 0
M  V30 4100 H 393.776 -2.74669 -4.78812 0
M  V30 4101 H 394.253 -1.14105 -4.24119 0
M  V30 4102 H 394.859 -2.57662 -3.38364 0
M  V30 4103 N 393.175 1.03435 -1.18907 0
M  V30 4104 C 394.421 1.77005 -0.989798 0
M  V30 4105 C 394.754 1.88205 0.478816 0
M  V30 4106 O 394.029 1.39481 1.35556 0
M  V30 4107 C 394.312 3.19925 -1.65287 0
M  V30 4108 C 394.165 3.1663 -3.19477 0
M  V30 4109 C 395.484 4.18189 -1.37134 0
M  V30 4110 H 392.603 0.642538 -0.360991 0
M  V30 4111 H 395.245 1.20784 -1.46667 0
M  V30 4112 H 393.395 3.67929 -1.24741 0
M  V30 4113 H 395.067 2.76567 -3.692 0
M  V30 4114 H 393.31 2.54491 -3.51307 0
M  V30 4115 H 393.981 4.1758 -3.61013 0
M  V30 4116 H 396.457 3.78761 -1.72276 0
M  V30 4117 H 395.333 5.16394 -1.86087 0
M  V30 4118 H 395.594 4.41112 -0.295424 0
M  V30 4119 N 394.653 0.992116 1.22453 0
M  V30 4120 C 395.616 0.546883 2.2258 0
M  V30 4121 C 396.616 -0.369829 1.56489 0
M  V30 4122 O 397.806 -0.161896 1.73446 0
M  V30 4123 C 394.938 -0.204659 3.40285 0
M  V30 4124 H 396.131 1.43234 2.63484 0
M  V30 4125 H 393.684 0.779239 1.3549 0
M  V30 4126 H 394.419 -1.10614 3.04853 0
M  V30 4127 H 394.204 0.45354 3.89468 0
M  V30 4128 H 395.694 -0.504358 4.14543 0
M  V30 4129 N 396.131 -1.37776 0.765217 0
M  V30 4130 C 397.061 -2.32945 0.160953 0
M  V30 4131 C 398.042 -1.55454 -0.690516 0
M  V30 4132 O 399.227 -1.83721 -0.629318 0
M  V30 4133 C 396.357 -3.39669 -0.724031 0
M  V30 4134 C 395.311 -4.27992 0.0256173 0
M  V30 4135 C 394.637 -5.25673 -0.978383 0
M  V30 4136 C 395.937 -5.08309 1.20082 0
M  V30 4137 H 397.631 -2.83728 0.955969 0
M  V30 4138 H 395.177 -1.36416 0.461149 0
M  V30 4139 H 397.13 -4.05219 -1.15652 0
M  V30 4140 H 395.854 -2.87396 -1.5515 0
M  V30 4141 H 394.513 -3.63964 0.438812 0
M  V30 4142 H 394.161 -4.69682 -1.80022 0
M  V30 4143 H 393.861 -5.85625 -0.481378 0
M  V30 4144 H 395.385 -5.94098 -1.40995 0
M  V30 4145 H 396.799 -5.67034 0.845307 0
M  V30 4146 H 395.196 -5.77554 1.62947 0
M  V30 4147 H 396.266 -4.41365 2.00811 0
M  V30 4148 N 397.609 -0.515225 -1.4894 0
M  V30 4149 C 398.857 0.0241671 -2.02086 0
M  V30 4150 C 399.178 1.3616 -1.3959 0
M  V30 4151 O 398.448 1.87841 -0.556121 0
M  V30 4152 H 397.028 0.0119203 -0.746905 0
M  V30 4153 H 399.69 -0.675702 -1.82812 0
M  V30 4154 H 398.786 0.143385 -3.1177 0
M  V30 4155 N 399.087 1.5561 -0.249682 0
M  V30 4156 C 400.312 2.03865 0.381305 0
M  V30 4157 C 400.737 1.12769 1.50548 0
M  V30 4158 O 400.095 0.121189 1.80895 0
M  V30 4159 C 400.143 3.50101 0.863816 0
M  V30 4160 O 399.247 3.62132 1.97318 0
M  V30 4161 H 398.588 0.658827 0.0827194 0
M  V30 4162 H 401.118 2.01105 -0.376552 0
M  V30 4163 H 401.128 3.90975 1.1663 0
M  V30 4164 H 399.803 4.1588 0.0411816 0
M  V30 4165 H 398.38 3.33155 1.67517 0
M  V30 4166 N 400.565 -0.0233959 1.57583 0
M  V30 4167 C 401.513 -1.04063 2.08023 0
M  V30 4168 C 402.507 -1.37084 0.995204 0
M  V30 4169 O 403.713 -1.35923 1.18004 0
M  V30 4170 H 400.088 -0.353144 0.663922 0
M  V30 4171 H 402.059 -0.589453 2.9252 0
M  V30 4172 C 400.808 -2.33123 2.57971 0
M  V30 4173 H 400.131 -2.08577 3.4108 0
M  V30 4174 H 401.571 -3.02632 2.96967 0
M  V30 4175 C 400.03 -3.02483 1.48342 0
M  V30 4176 O 400.56 -3.92541 0.852898 0
M  V30 4177 N 398.766 -2.63909 1.21658 0
M  V30 4178 H 398.313 -1.90758 1.73116 0
M  V30 4179 H 398.271 -3.10633 0.485218 0
M  V30 4180 N 402.043 -1.548 -0.295768 0
M  V30 4181 C 403.289 -1.74588 -1.03184 0
M  V30 4182 C 403.622 -0.532962 -1.86744 0
M  V30 4183 O 402.897 0.469872 -1.88739 0
M  V30 4184 C 403.18 -3.03791 -1.93347 0
M  V30 4185 C 403.033 -4.35392 -1.12933 0
M  V30 4186 C 404.352 -3.28892 -2.92435 0
M  V30 4187 H 401.471 -0.635221 -0.373715 0
M  V30 4188 H 404.113 -1.87519 -0.30606 0
M  V30 4189 H 402.263 -2.92898 -2.55232 0
M  V30 4190 H 403.935 -4.58211 -0.532943 0
M  V30 4191 H 402.178 -4.31642 -0.432168 0
M  V30 4192 H 402.849 -5.22074 -1.79284 0
M  V30 4193 H 405.325 -3.39429 -2.4068 0
M  V30 4194 H 404.201 -4.20603 -3.52682 0
M  V30 4195 H 404.462 -2.47437 -3.6637 0
M  V30 4196 N 403.521 0.559213 -1.47345 0
M  V30 4197 C 404.431 1.69388 -1.62311 0
M  V30 4198 C 405.447 1.6648 -0.505993 0
M  V30 4199 O 406.623 1.85964 -0.773262 0
M  V30 4200 C 403.688 3.05894 -1.63185 0
M  V30 4201 C 402.749 3.19885 -2.86307 0
M  V30 4202 C 401.982 4.49879 -2.87131 0
M  V30 4203 O 402.205 5.35217 -1.97229 0
M  V30 4204 O 401.139 4.67618 -3.78968 0
M  V30 4205 H 404.965 1.59706 -2.58317 0
M  V30 4206 H 402.55 0.728989 -1.30407 0
M  V30 4207 H 404.432 3.87133 -1.66451 0
M  V30 4208 H 403.107 3.15964 -0.70345 0
M  V30 4209 H 402.014 2.38052 -2.88587 0
M  V30 4210 H 403.347 3.14718 -3.78435 0
M  V30 4211 N 404.999 1.35443 0.805782 0
M  V30 4212 C 406.246 1.28761 1.56291 0
M  V30 4213 C 406.574 -0.137747 1.94012 0
M  V30 4214 O 405.829 -1.1032 1.61642 0
M  V30 4215 C 406.128 2.14045 2.86216 0
M  V30 4216 C 405.794 3.62826 2.67709 0
M  V30 4217 C 404.456 4.0338 2.6237 0
M  V30 4218 C 406.808 4.57227 2.50186 0
M  V30 4219 C 404.136 5.36501 2.37451 0
M  V30 4220 C 406.488 5.90547 2.26797 0
M  V30 4221 C 405.152 6.30245 2.1988 0
M  V30 4222 H 404.422 0.471171 0.571908 0
M  V30 4223 H 407.069 1.67347 0.930974 0
M  V30 4224 H 405.374 1.68342 3.53791 0
M  V30 4225 H 407.071 2.0621 3.43917 0
M  V30 4226 H 403.661 3.30644 2.72713 0
M  V30 4227 H 407.845 4.2678 2.53323 0
M  V30 4228 H 403.101 5.66259 2.30567 0
M  V30 4229 H 407.275 6.63274 2.12228 0
M  V30 4230 H 404.902 7.33328 2.00333 0
M  V30 4231 N 406.477 -1.02803 1.19454 0
M  V30 4232 C 407.41 -2.107 0.876396 0
M  V30 4233 C 408.388 -1.61741 -0.166897 0
M  V30 4234 O 409.572 -1.88451 -0.0430195 0
M  V30 4235 C 406.699 -3.37262 0.311758 0
M  V30 4236 C 405.745 -4.05093 1.33424 0
M  V30 4237 S 406.578 -4.50498 2.89503 0
M  V30 4238 C 407.734 -5.80277 2.34584 0
M  V30 4239 H 407.967 -2.37362 1.79016 0
M  V30 4240 H 405.5 -1.15755 1.02177 0
M  V30 4241 H 407.458 -4.10499 -0.00748752 0
M  V30 4242 H 406.119 -3.08693 -0.58032 0
M  V30 4243 H 405.312 -4.9611 0.888302 0
M  V30 4244 H 404.914 -3.3803 1.60037 0
M  V30 4245 H 407.206 -6.54873 1.73633 0
M  V30 4246 H 408.149 -6.29651 3.23952 0
M  V30 4247 H 408.557 -5.3599 1.77131 0
M  V30 4248 N 407.956 -0.998596 -1.21925 0
M  V30 4249 C 409.196 -0.685948 -1.92546 0
M  V30 4250 C 409.56 0.768441 -1.75952 0
M  V30 4251 O 410.761 1.19277 -2.40887 0
M  V30 4252 C 409.032 -1.08767 -3.40448 0
M  V30 4253 S 410.591 -0.894251 -4.29591 0
M  V30 4254 H 407.409 -0.250622 -0.665364 0
M  V30 4255 H 410.011 -1.28207 -1.47591 0
M  V30 4256 H 408.715 -2.14242 -3.50041 0
M  V30 4257 H 408.246 -0.48357 -3.90417 0
M  V30 4258 H 410.261 0.212149 -4.95746 0
M  V30 4259 N 409.434 1.37368 -0.772513 0
M  V30 4260 C 410.381 2.30262 -0.157488 0
M  V30 4261 C 411.351 1.51137 0.688965 0
M  V30 4262 O 412.536 1.79704 0.641168 0
M  V30 4263 C 409.676 3.37611 0.715045 0
M  V30 4264 C 408.789 4.31746 -0.148098 0
M  V30 4265 C 407.924 5.26171 0.729213 0
M  V30 4266 C 406.963 6.11948 -0.136418 0
M  V30 4267 N 406.1 6.98613 0.698914 0
M  V30 4268 H 410.94 2.82277 -0.955179 0
M  V30 4269 H 408.477 1.38957 -0.482631 0
M  V30 4270 H 410.435 3.98479 1.23575 0
M  V30 4271 H 409.065 2.86959 1.47833 0
M  V30 4272 H 408.117 3.72178 -0.786613 0
M  V30 4273 H 409.429 4.92084 -0.81579 0
M  V30 4274 H 408.583 5.92247 1.31637 0
M  V30 4275 H 407.322 4.66246 1.43059 0
M  V30 4276 H 406.327 5.4485 -0.736102 0
M  V30 4277 H 407.552 6.73945 -0.835134 0
M  V30 4278 H 405.498 6.41215 1.38489 0
M  V30 4279 H 405.415 7.55948 0.0885358 0
M  V30 4280 H 406.683 7.69077 1.27044 0
M  V30 4281 N 410.912 0.523116 1.48665 0
M  V30 4282 C 412.158 -0.0134963 2.02796 0
M  V30 4283 C 412.491 -1.34582 1.40004 0
M  V30 4284 O 411.766 -1.86756 0.543381 0
M  V30 4285 C 412.049 -0.14276 3.59817 0
M  V30 4286 C 411.902 1.21425 4.331 0
M  V30 4287 C 413.221 -0.872856 4.31357 0
M  V30 4288 H 410.34 -0.00343074 0.736992 0
M  V30 4289 H 412.982 0.678816 1.7746 0
M  V30 4290 H 411.132 -0.732401 3.81534 0
M  V30 4291 H 412.804 1.84447 4.2282 0
M  V30 4292 H 411.047 1.79791 3.94788 0
M  V30 4293 H 411.718 1.07687 5.41394 0
M  V30 4294 H 414.194 -0.372555 4.14429 0
M  V30 4295 H 413.07 -0.932185 5.40927 0
M  V30 4296 H 413.331 -1.92161 3.98154 0
M  V30 4297 N 412.39 -1.55475 0.257931 0
M  V30 4298 C 413.62 -2.03314 -0.367026 0
M  V30 4299 C 414.028 -1.13625 -1.51281 0
M  V30 4300 O 413.371 -0.145334 -1.83124 0
M  V30 4301 C 413.433 -3.47362 -0.926284 0
M  V30 4302 C 413.097 -4.56914 0.0886584 0
M  V30 4303 C 414.094 -5.12013 0.902123 0
M  V30 4304 C 411.779 -5.01827 0.217936 0
M  V30 4305 C 413.773 -6.10529 1.83122 0
M  V30 4306 C 411.46 -6.00172 1.15052 0
M  V30 4307 C 412.458 -6.54402 1.95568 0
M  V30 4308 O 412.146 -7.50827 2.87253 0
M  V30 4309 H 411.878 -0.669976 -0.0900443 0
M  V30 4310 H 414.432 -2.01804 0.382673 0
M  V30 4311 H 412.662 -3.46056 -1.72575 0
M  V30 4312 H 414.351 -3.78637 -1.46249 0
M  V30 4313 H 415.117 -4.78139 0.812891 0
M  V30 4314 H 410.996 -4.59272 -0.398721 0
M  V30 4315 H 414.54 -6.52783 2.46008 0
M  V30 4316 H 410.437 -6.33465 1.24064 0
M  V30 4317 H 411.205 -7.68483 2.81739 0
M  V30 4318 N 413.868 0.0150385 -1.57593 0
M  V30 4319 C 415.093 0.718067 -1.94573 0
M  V30 4320 C 415.518 1.6734 -0.859005 0
M  V30 4321 O 414.876 1.80362 0.184147 0
M  V30 4322 C 414.924 1.43918 -3.30636 0
M  V30 4323 O 414.028 2.55299 -3.23876 0
M  V30 4324 H 413.369 0.192125 -0.635597 0
M  V30 4325 H 415.899 -0.0336708 -2.04572 0
M  V30 4326 H 415.909 1.80598 -3.65853 0
M  V30 4327 H 414.584 0.738619 -4.09289 0
M  V30 4328 H 413.161 2.21058 -3.00312 0
M  V30 4329 N 415.346 1.54954 0.287554 0
M  V30 4330 C 416.623 1.65569 1.04146 0
M  V30 4331 C 417.003 0.512672 2.0478 0
M  V30 4332 O 416.351 -0.489038 2.23205 0
M  V30 4333 C 416.561 3.04163 1.71131 0
M  V30 4334 C 417.909 3.61429 2.22832 0
M  V30 4335 O 418.933 3.06702 1.81141 0
M  V30 4336 O 417.792 4.57281 2.9926 0
M  V30 4337 H 414.886 0.671881 0.482188 0
M  V30 4338 H 417.432 1.67297 0.28457 0
M  V30 4339 H 416.204 3.78796 0.981303 0
M  V30 4340 H 415.827 3.06271 2.53543 0
M  V30 4341 N 416.824 -0.551391 1.4764 0
M  V30 4342 C 418.235 -1.13349 1.48354 0
M  V30 4343 C 418.586 -1.94709 0.241432 0
M  V30 4344 O 417.711 -2.06306 -0.653205 0
M  V30 4345 C 418.306 -2.0623 2.68802 0
M  V30 4346 C 416.865 -2.597 2.72457 0
M  V30 4347 C 416.012 -1.36201 2.41546 0
M  V30 4348 H 418.963 -0.337698 1.55065 0
M  V30 4349 H 418.984 -2.90196 2.46103 0
M  V30 4350 H 418.496 -1.46987 3.59188 0
M  V30 4351 H 416.597 -3.22724 1.86225 0
M  V30 4352 H 416.71 -3.00296 3.73308 0
M  V30 4353 H 415.074 -1.67068 1.9225 0
M  V30 4354 H 415.857 -0.787425 3.34147 0
M  V30 4355 N 418.302 -1.35869 -0.798587 0
M  V30 4356 C 419.234 -1.25305 -1.91915 0
M  V30 4357 C 420.247 -0.174548 -1.61862 0
M  V30 4358 O 421.436 -0.428499 -1.73281 0
M  V30 4359 C 418.536 -0.9086 -3.26493 0
M  V30 4360 C 417.709 -2.08711 -3.84394 0
M  V30 4361 C 416.768 -1.71717 -4.97393 0
M  V30 4362 O 415.794 -2.43692 -5.14396 0
M  V30 4363 N 416.996 -0.645473 -5.769 0
M  V30 4364 H 419.761 -2.21849 -2.01502 0
M  V30 4365 H 417.322 -1.29143 -0.976408 0
M  V30 4366 H 419.314 -0.642455 -3.99568 0
M  V30 4367 H 417.884 -0.0325815 -3.12583 0
M  V30 4368 H 417.104 -2.51659 -3.03416 0
M  V30 4369 H 418.392 -2.87468 -4.19809 0
M  V30 4370 H 417.79 -0.047648 -5.6568 0
M  V30 4371 H 416.347 -0.43913 -6.50319 0
M  V30 4372 N 419.78 1.02168 -1.19998 0
M  V30 4373 C 421.191 1.57135 -1.00825 0
M  V30 4374 C 421.542 1.91276 0.436818 0
M  V30 4375 O 420.667 1.71679 1.3174 0
M  V30 4376 C 421.262 2.85514 -1.82393 0
M  V30 4377 C 419.821 3.37027 -1.67601 0
M  V30 4378 C 418.968 2.10388 -1.80644 0
M  V30 4379 H 421.919 0.846106 -1.34264 0
M  V30 4380 H 421.94 3.56711 -1.32429 0
M  V30 4381 H 421.452 2.60634 -2.87561 0
M  V30 4382 H 419.553 3.66878 -0.650485 0
M  V30 4383 H 419.666 4.09572 -2.4857 0
M  V30 4384 H 418.03 2.22601 -1.23778 0
M  V30 4385 H 418.813 1.8794 -2.87286 0
M  V30 4386 N 421.258 1.00505 1.21394 0
M  V30 4387 C 422.208 0.536503 2.21598 0
M  V30 4388 C 423.192 -0.401914 1.55799 0
M  V30 4389 O 424.384 -0.226757 1.75541 0
M  V30 4390 C 421.513 -0.135446 3.43033 0
M  V30 4391 C 420.599 0.823992 4.16018 0
M  V30 4392 N 420.99 1.97683 4.6557 0
M  V30 4393 C 419.288 0.642387 4.4135 0
M  V30 4394 C 419.989 2.58003 5.21354 0
M  V30 4395 N 418.965 1.86162 5.1073 0
M  V30 4396 H 422.767 1.41557 2.57563 0
M  V30 4397 H 420.281 0.868878 1.37202 0
M  V30 4398 H 422.278 -0.488584 4.14027 0
M  V30 4399 H 420.938 -1.01049 3.08576 0
M  V30 4400 H 421.949 2.3572 4.61147 0
M  V30 4401 H 418.626 -0.185578 4.17087 0
M  V30 4402 H 420.016 3.555 5.70149 0
M  V30 4403 N 422.737 -1.36956 0.779787 0
M  V30 4404 C 423.986 -1.98738 0.344405 0
M  V30 4405 C 424.299 -1.62596 -1.08728 0
M  V30 4406 O 425.505 -2.1754 -1.62445 0
M  V30 4407 C 423.961 -3.5544 0.564829 0
M  V30 4408 C 423.569 -4.00514 2.0073 0
M  V30 4409 C 425.313 -4.24059 0.193471 0
M  V30 4410 C 423.22 -5.49957 2.17489 0
M  V30 4411 H 422.15 -0.743561 0.12503 0
M  V30 4412 H 424.801 -1.56381 0.960057 0
M  V30 4413 H 423.183 -3.95817 -0.120397 0
M  V30 4414 H 424.357 -3.71362 2.72814 0
M  V30 4415 H 422.672 -3.44703 2.336 0
M  V30 4416 H 425.269 -5.33874 0.297097 0
M  V30 4417 H 425.612 -4.07378 -0.857263 0
M  V30 4418 H 426.145 -3.89012 0.831556 0
M  V30 4419 H 422.884 -5.71574 3.2091 0
M  V30 4420 H 422.404 -5.80767 1.49899 0
M  V30 4421 H 424.083 -6.16043 1.97738 0
M  V30 4422 N 424.215 -0.530993 -1.48385 0
M  V30 4423 C 425.147 0.268353 -2.27624 0
M  V30 4424 C 426.16 0.903525 -1.35426 0
M  V30 4425 O 427.349 0.781796 -1.60469 0
M  V30 4426 C 424.449 1.39535 -3.08842 0
M  V30 4427 C 423.622 0.861913 -4.28824 0
M  V30 4428 C 422.681 1.87016 -4.91845 0
M  V30 4429 O 421.707 1.4267 -5.5103 0
M  V30 4430 N 422.909 3.20238 -4.84178 0
M  V30 4431 H 425.674 -0.41123 -2.96865 0
M  V30 4432 H 423.235 -0.365387 -1.57723 0
M  V30 4433 H 425.227 2.06803 -3.47871 0
M  V30 4434 H 423.797 1.97859 -2.42014 0
M  V30 4435 H 423.017 0.0132126 -3.94198 0
M  V30 4436 H 424.305 0.484415 -5.06489 0
M  V30 4437 H 423.703 3.58932 -4.37246 0
M  V30 4438 H 422.26 3.83136 -5.27305 0
M  V30 4439 N 425.693 1.55336 -0.266172 0
M  V30 4440 C 426.939 2.00423 0.346714 0
M  V30 4441 C 427.294 1.15132 1.54151 0
M  V30 4442 O 426.587 0.211289 1.90431 0
M  V30 4443 C 426.781 3.48606 0.787957 0
M  V30 4444 C 426.61 4.48236 -0.362535 0
M  V30 4445 C 425.38 4.98211 -0.843445 0
M  V30 4446 C 427.578 5.00199 -1.19603 0
M  V30 4447 N 425.56 5.81625 -1.96434 0
M  V30 4448 C 426.931 5.80973 -2.16497 0
M  V30 4449 C 428.986 4.82458 -1.2304 0
M  V30 4450 C 427.689 6.45896 -3.1656 0
M  V30 4451 C 429.715 5.48174 -2.21944 0
M  V30 4452 C 429.077 6.28751 -3.17571 0
M  V30 4453 H 425.176 0.776535 0.0922914 0
M  V30 4454 H 427.76 1.90792 -0.388154 0
M  V30 4455 H 425.931 3.58597 1.49207 0
M  V30 4456 H 427.663 3.80538 1.37742 0
M  V30 4457 H 424.418 4.71696 -0.424271 0
M  V30 4458 H 424.842 6.28025 -2.52813 0
M  V30 4459 H 429.484 4.19774 -0.504903 0
M  V30 4460 H 427.202 7.07734 -3.90048 0
M  V30 4461 H 430.788 5.36392 -2.25333 0
M  V30 4462 H 429.668 6.78703 -3.92851 0
M  V30 4463 N 427.171 -0.0066808 1.57599 0
M  V30 4464 C 428.101 -0.999296 2.11036 0
M  V30 4465 C 429.082 -1.36278 1.01795 0
M  V30 4466 O 430.267 -1.4477 1.29442 0
M  V30 4467 C 427.397 -2.29328 2.60818 0
M  V30 4468 C 426.351 -2.07159 3.74525 0
M  V30 4469 C 425.677 -3.42512 4.10596 0
M  V30 4470 C 426.977 -1.43959 5.02069 0
M  V30 4471 H 428.671 -0.554382 2.94223 0
M  V30 4472 H 426.217 -0.265221 1.41536 0
M  V30 4473 H 428.17 -2.99117 2.96828 0
M  V30 4474 H 426.894 -2.7592 1.74745 0
M  V30 4475 H 425.553 -1.39797 3.38899 0
M  V30 4476 H 425.201 -3.86795 3.21556 0
M  V30 4477 H 424.901 -3.28498 4.87199 0
M  V30 4478 H 426.425 -4.13628 4.4916 0
M  V30 4479 H 427.839 -2.03696 5.35893 0
M  V30 4480 H 426.236 -1.40452 5.83432 0
M  V30 4481 H 427.306 -0.407992 4.83181 0
M  V30 4482 N 428.649 -1.55105 -0.279332 0
M  V30 4483 C 429.596 -1.8755 -1.34513 0
M  V30 4484 C 430.566 -0.726384 -1.49375 0
M  V30 4485 O 431.751 -0.977063 -1.63884 0
M  V30 4486 C 428.891 -2.14738 -2.70151 0
M  V30 4487 C 428.004 -3.42285 -2.63562 0
M  V30 4488 C 427.139 -3.59206 -3.91337 0
M  V30 4489 C 426.178 -4.80467 -3.79233 0
M  V30 4490 N 425.315 -4.94079 -4.98829 0
M  V30 4491 H 430.155 -2.78456 -1.06143 0
M  V30 4492 H 427.692 -1.37867 -0.512936 0
M  V30 4493 H 429.65 -2.28501 -3.49061 0
M  V30 4494 H 428.28 -1.27075 -2.96735 0
M  V30 4495 H 427.332 -3.37029 -1.76397 0
M  V30 4496 H 428.644 -4.31328 -2.50515 0
M  V30 4497 H 427.798 -3.72751 -4.78687 0
M  V30 4498 H 426.537 -2.68337 -4.07243 0
M  V30 4499 H 425.542 -4.66932 -2.90266 0
M  V30 4500 H 426.767 -5.72765 -3.64852 0
M  V30 4501 H 424.713 -4.06139 -5.15158 0
M  V30 4502 H 424.63 -5.77156 -4.8829 0
M  V30 4503 H 425.898 -5.12003 -5.8777 0
M  V30 4504 N 430.127 0.543554 -1.4793 0
M  V30 4505 C 431.077 1.64527 -1.57844 0
M  V30 4506 C 432.061 1.54869 -0.436408 0
M  V30 4507 O 433.253 1.63119 -0.687101 0
M  V30 4508 C 430.382 3.03281 -1.6086 0
M  V30 4509 C 429.468 3.18093 -2.80495 0
M  V30 4510 N 429.859 3.02923 -4.05057 0
M  V30 4511 C 428.157 3.49121 -2.77543 0
M  V30 4512 C 428.858 3.20791 -4.85251 0
M  V30 4513 N 427.834 3.47749 -4.17818 0
M  V30 4514 H 431.636 1.51388 -2.5191 0
M  V30 4515 H 429.15 0.748671 -1.44113 0
M  V30 4516 H 431.147 3.82403 -1.66054 0
M  V30 4517 H 429.807 3.17521 -0.678996 0
M  V30 4518 H 430.818 2.79966 -4.35705 0
M  V30 4519 H 427.495 3.69804 -1.93781 0
M  V30 4520 H 428.885 3.13915 -5.9406 0
M  V30 4521 N 431.605 1.3629 0.791371 0
M  V30 4522 C 432.854 1.29742 1.54434 0
M  V30 4523 C 433.167 -0.121729 1.95221 0
M  V30 4524 O 434.373 -0.309579 2.69729 0
M  V30 4525 C 432.829 2.27623 2.78776 0
M  V30 4526 C 432.437 3.74963 2.45166 0
M  V30 4527 C 434.181 2.30047 3.56761 0
M  V30 4528 C 432.088 4.64626 3.65891 0
M  V30 4529 H 431.018 0.482113 0.579727 0
M  V30 4530 H 433.669 1.61642 0.868565 0
M  V30 4531 H 432.051 1.88714 3.48142 0
M  V30 4532 H 433.225 4.22596 1.83709 0
M  V30 4533 H 431.54 3.75295 1.80396 0
M  V30 4534 H 434.137 2.94247 4.46456 0
M  V30 4535 H 434.48 1.30846 3.95203 0
M  V30 4536 H 435.013 2.67563 2.94372 0
M  V30 4537 H 431.752 5.64883 3.32547 0
M  V30 4538 H 431.272 4.2171 4.26521 0
M  V30 4539 H 432.951 4.80801 4.32943 0
M  V30 4540 N 433.083 -1.0153 1.20538 0
M  V30 4541 C 433.993 -2.13557 0.971113 0
M  V30 4542 C 435.009 -1.73845 -0.0734366 0
M  V30 4543 O 436.185 -2.01075 0.114299 0
M  V30 4544 C 433.25 -3.42661 0.527639 0
M  V30 4545 C 432.311 -3.96608 1.64319 0
M  V30 4546 C 431.544 -5.1955 1.22078 0
M  V30 4547 O 431.767 -5.70329 0.0900198 0
M  V30 4548 O 430.701 -5.66681 2.02871 0
M  V30 4549 H 434.527 -2.3619 1.90913 0
M  V30 4550 H 432.112 -1.11946 0.989362 0
M  V30 4551 H 433.994 -4.20404 0.289621 0
M  V30 4552 H 432.669 -3.21441 -0.381779 0
M  V30 4553 H 431.576 -3.20139 1.93551 0
M  V30 4554 H 432.909 -4.22219 2.52966 0
M  V30 4555 N 434.561 -1.01147 -1.20859 0
M  V30 4556 C 435.807 -0.698899 -1.90377 0
M  V30 4557 C 436.14 0.76904 -1.78324 0
M  V30 4558 O 435.415 1.55817 -1.16409 0
M  V30 4559 C 435.698 -1.12878 -3.41951 0
M  V30 4560 C 435.551 -2.65665 -3.62963 0
M  V30 4561 C 436.87 -0.696114 -4.3456 0
M  V30 4562 H 433.989 -0.255372 -0.691342 0
M  V30 4563 H 436.631 -1.25831 -1.42361 0
M  V30 4564 H 434.781 -0.652827 -3.82976 0
M  V30 4565 H 436.453 -3.21074 -3.31224 0
M  V30 4566 H 434.696 -3.06878 -3.06608 0
M  V30 4567 H 435.367 -2.90797 -4.69192 0
M  V30 4568 H 437.843 -1.10521 -4.01154 0
M  V30 4569 H 436.719 -1.025 -5.39245 0
M  V30 4570 H 436.98 0.402465 -4.40264 0
M  V30 4571 N 436.039 1.36541 -0.78704 0
M  V30 4572 C 436.987 2.31965 -0.171724 0
M  V30 4573 C 437.981 1.55689 0.667631 0
M  V30 4574 O 439.187 1.70969 0.562981 0
M  V30 4575 H 435.562 0.751101 -0.0367545 0
M  V30 4576 H 437.533 2.81428 -0.992017 0
M  V30 4577 C 436.282 3.40968 0.680904 0
M  V30 4578 H 435.605 3.99775 0.0443961 0
M  V30 4579 H 437.045 4.10063 1.07815 0
M  V30 4580 C 435.504 2.82338 1.83813 0
M  V30 4581 O 436.034 2.74311 2.93456 0
M  V30 4582 N 434.24 2.39661 1.6435 0
M  V30 4583 H 433.787 2.46389 0.751668 0
M  V30 4584 H 433.745 2.00779 2.4194 0
M  V30 4585 N 437.518 0.538854 1.48102 0
M  V30 4586 C 438.766 0.00798599 2.02098 0
M  V30 4587 C 439.087 -1.33922 1.41739 0
M  V30 4588 O 438.357 -1.86932 0.585934 0
M  V30 4589 H 436.937 -3.62179e-05 0.747 0
M  V30 4590 H 439.599 0.7047 1.81714 0
M  V30 4591 H 438.695 -0.0937672 3.11959 0
M  V30 4592 N 438.996 -1.55193 0.274407 0
M  V30 4593 C 440.221 -2.04446 -0.348824 0
M  V30 4594 C 440.646 -1.15149 -1.48735 0
M  V30 4595 O 440.004 -0.149952 -1.80679 0
M  V30 4596 C 440.052 -3.51431 -0.808009 0
M  V30 4597 O 439.156 -3.65225 -1.91531 0
M  V30 4598 H 438.497 -0.66006 -0.0722276 0
M  V30 4599 H 441.027 -2.00481 0.408498 0
M  V30 4600 H 441.037 -3.92781 -1.10395 0
M  V30 4601 H 439.712 -4.15892 0.0249865 0
M  V30 4602 H 438.289 -3.35778 -1.62196 0
M  V30 4603 N 440.474 -0.00167713 -1.576 0
M  V30 4604 C 441.421 0.989195 -2.08527 0
M  V30 4605 C 442.391 1.34031 -0.981065 0
M  V30 4606 O 443.576 1.43839 -1.2536 0
M  V30 4607 C 440.716 2.27537 -2.59463 0
M  V30 4608 C 439.829 1.98314 -3.83791 0
M  V30 4609 C 438.964 3.21025 -4.23222 0
M  V30 4610 C 438.003 2.87495 -5.40382 0
M  V30 4611 N 437.14 4.02749 -5.75098 0
M  V30 4612 H 441.98 0.547973 -2.92919 0
M  V30 4613 H 439.517 0.258917 -1.44803 0
M  V30 4614 H 441.475 3.02729 -2.87073 0
M  V30 4615 H 440.105 2.69325 -1.77943 0
M  V30 4616 H 439.157 1.13482 -3.63078 0
M  V30 4617 H 440.469 1.69601 -4.69081 0
M  V30 4618 H 439.623 4.04561 -4.52123 0
M  V30 4619 H 438.362 3.52877 -3.36644 0
M  V30 4620 H 437.367 2.02367 -5.11202 0
M  V30 4621 H 438.592 2.56889 -6.28637 0
M  V30 4622 H 436.538 4.34494 -4.91478 0
M  V30 4623 H 436.455 3.77566 -6.54966 0
M  V30 4624 H 437.723 4.87068 -6.08592 0
M  V30 4625 N 441.952 1.55251 0.271103 0
M  V30 4626 C 443.201 1.75151 1.00025 0
M  V30 4627 C 443.514 0.561041 1.87381 0
M  V30 4628 O 444.72 0.642506 2.63788 0
M  V30 4629 C 443.176 3.09999 1.82835 0
M  V30 4630 C 442.784 4.3662 1.00336 0
M  V30 4631 C 444.528 3.39249 2.55168 0
M  V30 4632 C 442.435 5.62506 1.82595 0
M  V30 4633 H 441.365 0.652877 0.377183 0
M  V30 4634 H 444.016 1.81708 0.255843 0
M  V30 4635 H 442.398 2.97485 2.61378 0
M  V30 4636 H 443.572 4.60055 0.261959 0
M  V30 4637 H 441.887 4.14527 0.394486 0
M  V30 4638 H 444.484 4.3051 3.1712 0
M  V30 4639 H 444.827 2.59467 3.2555 0
M  V30 4640 H 445.36 3.52869 1.83653 0
M  V30 4641 H 442.099 6.45041 1.16631 0
M  V30 4642 H 441.619 5.43211 2.54327 0
M  V30 4643 H 443.298 6.00875 2.39913 0
M  V30 4644 N 443.43 -0.535701 1.48216 0
M  V30 4645 C 444.678 -1.28928 1.55634 0
M  V30 4646 C 444.999 -1.93645 0.229514 0
M  V30 4647 O 444.269 -1.81038 -0.74846 0
M  V30 4648 H 442.849 -0.47884 0.573342 0
M  V30 4649 H 445.511 -0.623853 1.84646 0
M  V30 4650 H 444.607 -2.07157 2.33436 0
M  V30 4651 N 444.908 -1.36708 -0.784132 0
M  V30 4652 C 446.319 -1.27947 -1.35965 0
M  V30 4653 C 446.67 0.0784013 -1.96043 0
M  V30 4654 O 445.795 0.979989 -1.92938 0
M  V30 4655 C 446.39 -2.31689 -2.47195 0
M  V30 4656 C 444.949 -2.26601 -3.00548 0
M  V30 4657 C 444.096 -2.16184 -1.73666 0
M  V30 4658 H 447.047 -1.4751 -0.585358 0
M  V30 4659 H 447.068 -1.95638 -3.26352 0
M  V30 4660 H 446.58 -3.30506 -2.03439 0
M  V30 4661 H 444.681 -1.31268 -3.48711 0
M  V30 4662 H 444.794 -3.19508 -3.57004 0
M  V30 4663 H 443.158 -1.62524 -1.96107 0
M  V30 4664 H 443.941 -3.16896 -1.32031 0
M  V30 4665 N 446.386 1.0089 -1.21074 0
M  V30 4666 C 447.663 1.71834 -0.934469 0
M  V30 4667 C 448.043 2.0368 0.554753 0
M  V30 4668 O 447.391 1.70742 1.51854 0
M  V30 4669 C 447.601 2.98061 -1.8155 0
M  V30 4670 C 448.949 3.7117 -2.06199 0
M  V30 4671 O 449.973 3.08034 -1.78867 0
M  V30 4672 O 448.832 4.84721 -2.52404 0
M  V30 4673 H 445.926 0.749253 -0.35007 0
M  V30 4674 H 448.472 1.06668 -1.31985 0
M  V30 4675 H 447.244 2.70908 -2.82355 0
M  V30 4676 H 446.867 3.70968 -1.43068 0
M  V30 4677 N 447.864 1.01787 1.20321 0
M  V30 4678 C 448.812 0.58254 2.25187 0
M  V30 4679 C 449.806 -0.379359 1.65098 0
M  V30 4680 O 451.012 -0.249142 1.78267 0
M  V30 4681 H 447.387 0.170078 0.732514 0
M  V30 4682 H 449.358 1.47788 2.59232 0
M  V30 4683 C 448.107 -0.0620885 3.47645 0
M  V30 4684 H 447.43 0.669069 3.94162 0
M  V30 4685 H 448.87 -0.329784 4.22716 0
M  V30 4686 C 447.329 -1.3053 3.10586 0
M  V30 4687 O 447.859 -2.39848 3.22236 0
M  V30 4688 N 446.065 -1.18988 2.65123 0
M  V30 4689 H 445.612 -0.300341 2.55843 0
M  V30 4690 H 445.57 -2.02267 2.40698 0
M  V30 4691 N 449.342 -1.36122 0.79427 0
M  V30 4692 C 450.272 -2.32551 0.210328 0
M  V30 4693 C 451.253 -1.56884 -0.657386 0
M  V30 4694 O 452.438 -1.85014 -0.590207 0
M  V30 4695 C 449.568 -3.41128 -0.651819 0
M  V30 4696 C 448.522 -4.27842 0.116395 0
M  V30 4697 C 447.848 -5.2763 -0.86666 0
M  V30 4698 C 449.148 -5.05647 1.30837 0
M  V30 4699 H 450.842 -2.81636 1.01594 0
M  V30 4700 H 448.388 -1.35407 0.489981 0
M  V30 4701 H 450.341 -4.07581 -1.07031 0
M  V30 4702 H 449.065 -2.90622 -1.49019 0
M  V30 4703 H 447.724 -3.62952 0.515915 0
M  V30 4704 H 447.372 -4.73395 -1.70019 0
M  V30 4705 H 447.072 -5.86514 -0.35705 0
M  V30 4706 H 448.596 -5.96955 -1.28361 0
M  V30 4707 H 450.01 -5.65113 0.965393 0
M  V30 4708 H 448.407 -5.73967 1.75161 0
M  V30 4709 H 449.477 -4.37006 2.10128 0
M  V30 4710 N 450.82 -0.546701 -1.47814 0
M  V30 4711 C 452.231 -0.110564 -1.86372 0
M  V30 4712 C 452.582 1.31678 -1.45449 0
M  V30 4713 O 451.707 1.98889 -0.852758 0
M  V30 4714 C 452.302 -0.193873 -3.38245 0
M  V30 4715 C 450.861 0.187164 -3.75934 0
M  V30 4716 C 450.008 -0.546166 -2.71868 0
M  V30 4717 H 452.959 -0.757022 -1.39481 0
M  V30 4718 H 452.98 0.590218 -3.75895 0
M  V30 4719 H 452.492 -1.23282 -3.67999 0
M  V30 4720 H 450.593 1.22762 -3.51796 0
M  V30 4721 H 450.706 -0.164083 -4.78819 0
M  V30 4722 H 449.07 0.00953904 -2.54698 0
M  V30 4723 H 449.853 -1.58606 -3.04465 0
M  V30 4724 N 452.299 1.55045 -0.282633 0
M  V30 4725 C 453.529 2.03872 0.334635 0
M  V30 4726 C 453.937 1.16018 1.49454 0
M  V30 4727 O 453.28 0.174449 1.8287 0
M  V30 4728 C 453.342 3.48791 0.870905 0
M  V30 4729 C 453.006 4.56715 -0.161338 0
M  V30 4730 C 454.003 5.10513 -0.983466 0
M  V30 4731 C 451.688 5.01417 -0.297745 0
M  V30 4732 C 453.682 6.07538 -1.92811 0
M  V30 4733 C 451.369 5.98265 -1.24586 0
M  V30 4734 C 452.367 6.51208 -2.05954 0
M  V30 4735 O 452.055 7.46162 -2.99162 0
M  V30 4736 H 451.787 0.671324 0.0793742 0
M  V30 4737 H 454.341 2.01169 -0.41473 0
M  V30 4738 H 452.571 3.48758 1.67047 0
M  V30 4739 H 454.26 3.80916 1.40207 0
M  V30 4740 H 455.026 4.76785 -0.888856 0
M  V30 4741 H 450.905 4.59849 0.325604 0
M  V30 4742 H 454.449 6.48787 -2.56363 0
M  V30 4743 H 450.346 6.31412 -1.34126 0
M  V30 4744 H 451.114 7.63903 -2.93929 0
M  V30 4745 N 453.777 0.010035 1.57597 0
M  V30 4746 C 455.023 -0.673697 1.91283 0
M  V30 4747 C 455.356 -1.72863 0.884979 0
M  V30 4748 O 454.631 -1.94268 -0.0949487 0
M  V30 4749 C 454.914 -1.30766 3.35518 0
M  V30 4750 C 454.767 -0.263578 4.49027 0
M  V30 4751 C 456.086 -2.23105 3.79358 0
M  V30 4752 H 453.205 -0.243439 0.695634 0
M  V30 4753 H 455.847 0.0633864 1.89894 0
M  V30 4754 H 453.997 -1.93588 3.36832 0
M  V30 4755 H 455.669 0.365738 4.59848 0
M  V30 4756 H 453.912 0.413077 4.31829 0
M  V30 4757 H 454.583 -0.746398 5.4693 0
M  V30 4758 H 457.059 -1.70289 3.79659 0
M  V30 4759 H 455.935 -2.64424 4.81011 0
M  V30 4760 H 456.196 -3.11433 3.13787 0
M  V30 4761 N 455.255 -1.55392 -0.262866 0
M  V30 4762 C 456.187 -1.85392 -1.34768 0
M  V30 4763 C 457.2 -0.739069 -1.45057 0
M  V30 4764 O 458.389 -1.01703 -1.46693 0
M  V30 4765 C 455.489 -2.01088 -2.72795 0
M  V30 4766 C 454.662 -3.31828 -2.84972 0
M  V30 4767 C 453.721 -3.37464 -4.03738 0
M  V30 4768 O 452.747 -4.10778 -3.94018 0
M  V30 4769 N 453.949 -2.65599 -5.16176 0
M  V30 4770 H 456.714 -2.79029 -1.09375 0
M  V30 4771 H 454.275 -1.55434 -0.452981 0
M  V30 4772 H 456.267 -2.02217 -3.50557 0
M  V30 4773 H 454.837 -1.1427 -2.90966 0
M  V30 4774 H 454.057 -3.43152 -1.94012 0
M  V30 4775 H 455.345 -4.18032 -2.90045 0
M  V30 4776 H 454.743 -2.05736 -5.26962 0
M  V30 4777 H 453.3 -2.72439 -5.92132 0
M  V30 4778 N 456.733 0.527833 -1.48498 0
M  V30 4779 C 457.982 1.28003 -1.55878 0
M  V30 4780 C 458.295 1.9414 -0.238577 0
M  V30 4781 O 459.501 2.7083 -0.190643 0
M  V30 4782 C 457.957 2.32272 -2.74914 0
M  V30 4783 C 457.565 1.72196 -4.13585 0
M  V30 4784 C 459.309 3.08488 -2.91608 0
M  V30 4785 C 457.216 2.74417 -5.23879 0
M  V30 4786 H 456.146 0.481413 -0.580308 0
M  V30 4787 H 458.797 0.557195 -1.74836 0
M  V30 4788 H 457.179 3.07601 -2.49395 0
M  V30 4789 H 458.353 1.03041 -4.49132 0
M  V30 4790 H 456.668 1.08464 -4.02025 0
M  V30 4791 H 459.265 3.84879 -3.71177 0
M  V30 4792 H 459.608 3.64481 -2.01145 0
M  V30 4793 H 460.141 2.40274 -3.17038 0
M  V30 4794 H 456.88 2.23242 -6.16314 0
M  V30 4795 H 456.4 3.41893 -4.92818 0
M  V30 4796 H 458.079 3.37362 -5.52083 0
M  V30 4797 N 458.211 1.37122 0.776871 0
M  V30 4798 C 459.141 1.35164 1.90402 0
M  V30 4799 C 460.122 0.221069 1.68657 0
M  V30 4800 O 461.307 0.420642 1.8959 0
M  V30 4801 C 458.437 1.15274 3.27611 0
M  V30 4802 C 457.391 2.25289 3.63908 0
M  V30 4803 C 456.717 1.90527 4.99603 0
M  V30 4804 C 458.017 3.67446 3.71188 0
M  V30 4805 H 459.711 2.29482 1.92297 0
M  V30 4806 H 457.257 1.10465 0.923773 0
M  V30 4807 H 459.21 1.12536 4.06096 0
M  V30 4808 H 457.934 0.174102 3.26136 0
M  V30 4809 H 456.593 2.27174 2.87728 0
M  V30 4810 H 456.241 0.91206 4.94662 0
M  V30 4811 H 455.941 2.64193 5.24858 0
M  V30 4812 H 457.465 1.89367 5.80493 0
M  V30 4813 H 458.879 3.67719 4.39836 0
M  V30 4814 H 457.276 4.40123 4.07936 0
M  V30 4815 H 458.346 4.01443 2.71977 0
M  V30 4816 N 459.689 -1.00246 1.21608 0
M  V30 4817 C 460.636 -2.09073 0.977613 0
M  V30 4818 C 461.606 -1.65815 -0.097297 0
M  V30 4819 O 462.791 -1.90734 0.0503445 0
M  V30 4820 C 459.931 -3.40671 0.551133 0
M  V30 4821 C 459.044 -3.97326 1.69576 0
M  V30 4822 C 458.179 -5.17043 1.2182 0
M  V30 4823 C 457.218 -5.65813 2.335 0
M  V30 4824 N 456.355 -6.76778 1.86859 0
M  V30 4825 H 461.195 -2.28806 1.90924 0
M  V30 4826 H 458.732 -1.12186 0.951452 0
M  V30 4827 H 460.69 -4.16225 0.285097 0
M  V30 4828 H 459.32 -3.20967 -0.343489 0
M  V30 4829 H 458.372 -3.18734 2.07637 0
M  V30 4830 H 459.684 -4.29511 2.53617 0
M  V30 4831 H 458.838 -5.99852 0.908975 0
M  V30 4832 H 457.577 -4.86458 0.347869 0
M  V30 4833 H 456.582 -4.81599 2.65222 0
M  V30 4834 H 457.807 -5.98427 3.21033 0
M  V30 4835 H 455.753 -6.47994 1.02174 0
M  V30 4836 H 455.67 -7.08231 2.64471 0
M  V30 4837 H 456.938 -7.63116 1.58978 0
M  V30 4838 N 461.167 -1.02423 -1.1978 0
M  V30 4839 C 462.395 -0.737456 -1.93311 0
M  V30 4840 C 462.81 0.703023 -1.75223 0
M  V30 4841 O 462.167 1.47761 -1.07112 0
M  V30 4842 C 462.218 -1.0733 -3.45199 0
M  V30 4843 O 461.939 -2.4572 -3.62702 0
M  V30 4844 C 463.44 -0.80866 -4.35862 0
M  V30 4845 H 460.66 -0.2702 -0.614193 0
M  V30 4846 H 463.204 -1.36747 -1.52054 0
M  V30 4847 H 461.359 -0.488545 -3.84307 0
M  V30 4848 H 461.773 -2.58081 -4.56612 0
M  V30 4849 H 463.247 -1.09365 -5.41057 0
M  V30 4850 H 463.724 0.257025 -4.38447 0
M  V30 4851 H 464.33 -1.37592 -4.02428 0
M  V30 4852 N 462.645 1.35699 -0.801477 0
M  V30 4853 C 463.608 2.28199 -0.213994 0
M  V30 4854 C 464.608 1.49359 0.595691 0
M  V30 4855 O 465.798 1.69186 0.414921 0
M  V30 4856 C 462.93 3.33587 0.702297 0
M  V30 4857 H 464.123 2.81666 -1.02976 0
M  V30 4858 H 461.676 1.45467 -0.571759 0
M  V30 4859 H 462.411 2.85297 1.54195 0
M  V30 4860 H 462.196 3.91906 0.123484 0
M  V30 4861 H 463.686 4.02638 1.10783 0
M  V30 4862 N 464.123 0.554532 1.47522 0
M  V30 4863 C 465.371 0.0294208 2.02079 0
M  V30 4864 C 465.692 -1.32411 1.43151 0
M  V30 4865 O 464.962 -1.863 0.605728 0
M  V30 4866 H 463.542 0.00788672 0.746958 0
M  V30 4867 H 466.204 0.723934 1.80956 0
M  V30 4868 H 465.3 -0.0606745 3.12041 0
M  V30 4869 N 465.601 -1.54893 0.290851 0
M  V30 4870 C 466.847 -2.0023 -0.321867 0
M  V30 4871 C 467.18 -1.179 -1.54316 0
M  V30 4872 O 466.455 -0.25293 -1.92848 0
M  V30 4873 C 466.738 -3.53456 -0.688515 0
M  V30 4874 C 466.591 -4.46532 0.541209 0
M  V30 4875 C 467.91 -4.13057 -1.51895 0
M  V30 4876 H 465.029 -0.727891 -0.115515 0
M  V30 4877 H 467.671 -1.85722 0.400931 0
M  V30 4878 H 465.821 -3.6595 -1.30433 0
M  V30 4879 H 467.493 -4.4596 1.17973 0
M  V30 4880 H 465.736 -4.17545 1.17636 0
M  V30 4881 H 466.407 -5.51475 0.240675 0
M  V30 4882 H 468.883 -4.03937 -0.99872 0
M  V30 4883 H 467.759 -5.20448 -1.74429 0
M  V30 4884 H 468.02 -3.64284 -2.50498 0
M  V30 4885 N 467.08 -0.0183926 -1.57589 0
M  V30 4886 C 468.028 0.985111 -2.10709 0
M  V30 4887 C 469.022 1.34397 -1.0312 0
M  V30 4888 O 470.228 1.32746 -1.21567 0
M  V30 4889 H 466.603 0.335418 -0.673052 0
M  V30 4890 H 468.574 0.511689 -2.9398 0
M  V30 4891 C 467.323 2.26202 -2.64061 0
M  V30 4892 H 466.646 1.9946 -3.4649 0
M  V30 4893 H 468.086 2.94652 -3.04887 0
M  V30 4894 C 466.545 2.98444 -1.5631 0
M  V30 4895 O 467.075 3.90142 -0.956674 0
M  V30 4896 N 465.281 2.6059 -1.28612 0
M  V30 4897 H 464.828 1.86101 -1.78112 0
M  V30 4898 H 464.786 3.09238 -0.567406 0
M  V30 4899 N 468.558 1.5553 0.254621 0
M  V30 4900 C 469.786 1.81046 1.00149 0
M  V30 4901 C 470.201 0.593047 1.79244 0
M  V30 4902 O 469.558 -0.438196 1.77161 0
M  V30 4903 C 469.609 3.04684 1.94551 0
M  V30 4904 O 469.33 4.21725 1.18658 0
M  V30 4905 C 470.831 3.42943 2.80901 0
M  V30 4906 H 468.051 0.602653 0.295044 0
M  V30 4907 H 470.595 2.02576 0.279842 0
M  V30 4908 H 468.75 2.85226 2.62154 0
M  V30 4909 H 469.164 4.91746 1.82445 0
M  V30 4910 H 470.638 4.32576 3.42902 0
M  V30 4911 H 471.115 2.63176 3.51617 0
M  V30 4912 H 471.721 3.64724 2.18762 0
M  V30 4913 N 470.036 -0.519951 1.48776 0
M  V30 4914 C 471.264 -1.29971 1.60982 0
M  V30 4915 C 471.679 -1.86803 0.273885 0
M  V30 4916 O 471.036 -1.66904 -0.738193 0
M  V30 4917 C 471.087 -2.44346 2.66415 0
M  V30 4918 O 470.808 -1.89855 3.94825 0
M  V30 4919 C 472.309 -3.36014 2.89153 0
M  V30 4920 H 469.529 -0.394891 0.542496 0
M  V30 4921 H 472.073 -0.626214 1.94676 0
M  V30 4922 H 470.228 -3.07562 2.35552 0
M  V30 4923 H 470.642 -2.64798 4.5275 0
M  V30 4924 H 472.116 -4.12593 3.66703 0
M  V30 4925 H 472.593 -3.91859 1.98351 0
M  V30 4926 H 473.199 -2.78582 3.21359 0
M  V30 4927 N 471.514 -1.37532 -0.769588 0
M  V30 4928 C 472.791 -1.23392 -1.51768 0
M  V30 4929 C 473.171 0.17157 -2.10402 0
M  V30 4930 O 472.519 1.17943 -1.95708 0
M  V30 4931 C 472.729 -2.33163 -2.59685 0
M  V30 4932 C 474.077 -2.70809 -3.27028 0
M  V30 4933 O 475.101 -2.32355 -2.69981 0
M  V30 4934 O 473.96 -3.37066 -4.30173 0
M  V30 4935 H 471.054 -0.481617 -0.67229 0
M  V30 4936 H 473.6 -1.49318 -0.806368 0
M  V30 4937 H 472.372 -3.27273 -2.14494 0
M  V30 4938 H 471.995 -2.08713 -3.38415 0
M  V30 4939 N 472.992 0.995999 -1.22138 0
M  V30 4940 C 473.939 2.08551 -0.988687 0
M  V30 4941 C 474.909 1.65864 0.0885021 0
M  V30 4942 O 476.094 1.90704 -0.0604589 0
M  V30 4943 C 473.234 3.40374 -0.569191 0
M  V30 4944 C 472.347 3.96421 -1.71681 0
M  V30 4945 C 471.482 5.1639 -1.2456 0
M  V30 4946 C 470.521 5.64567 -2.36497 0
M  V30 4947 N 469.658 6.75777 -1.90445 0
M  V30 4948 H 474.498 2.2779 -1.92135 0
M  V30 4949 H 472.035 1.1168 -0.957388 0
M  V30 4950 H 473.993 4.16068 -0.307166 0
M  V30 4951 H 472.623 3.21145 0.326462 0
M  V30 4952 H 471.675 3.17628 -2.09324 0
M  V30 4953 H 472.987 4.2816 -2.55891 0
M  V30 4954 H 472.141 5.99362 -0.940774 0
M  V30 4955 H 470.88 4.86266 -0.373662 0
M  V30 4956 H 469.885 4.80185 -2.67772 0
M  V30 4957 H 471.11 5.96716 -3.24202 0
M  V30 4958 H 469.056 6.47443 -1.05609 0
M  V30 4959 H 468.973 7.06818 -2.68223 0
M  V30 4960 H 470.241 7.62262 -1.63022 0
M  V30 4961 N 474.47 1.03057 1.19235 0
M  V30 4962 C 475.38 0.622922 2.26179 0
M  V30 4963 C 476.396 -0.346113 1.70523 0
M  V30 4964 O 477.572 -0.203572 2.00369 0
M  V30 4965 C 474.637 -0.0182063 3.46695 0
M  V30 4966 C 473.698 0.998546 4.17526 0
M  V30 4967 C 472.931 0.387917 5.32288 0
M  V30 4968 O 473.154 -0.808668 5.64639 0
M  V30 4969 O 472.088 1.1116 5.91546 0
M  V30 4970 H 475.914 1.51363 2.63292 0
M  V30 4971 H 473.499 0.800856 1.26122 0
M  V30 4972 H 475.381 -0.375606 4.19723 0
M  V30 4973 H 474.056 -0.882895 3.11427 0
M  V30 4974 H 472.963 1.40756 3.4661 0
M  V30 4975 H 474.296 1.83366 4.56769 0
M  V30 4976 N 475.948 -1.35272 0.808662 0
M  V30 4977 C 476.881 -2.27595 0.165994 0
M  V30 4978 C 477.859 -1.48189 -0.669241 0
M  V30 4979 O 479.043 -1.77444 -0.636073 0
M  V30 4980 C 476.17 -3.29843 -0.769505 0
M  V30 4981 C 475.216 -4.26498 -0.0136267 0
M  V30 4982 S 476.049 -5.18878 1.32384 0
M  V30 4983 C 477.205 -6.24666 0.392838 0
M  V30 4984 H 477.438 -2.81755 0.948756 0
M  V30 4985 H 474.971 -1.42103 0.603828 0
M  V30 4986 H 476.929 -3.89247 -1.30374 0
M  V30 4987 H 475.59 -2.74558 -1.52567 0
M  V30 4988 H 474.783 -4.98769 -0.724227 0
M  V30 4989 H 474.385 -3.71274 0.450713 0
M  V30 4990 H 476.677 -6.7619 -0.4211 0
M  V30 4991 H 477.62 -6.99741 1.0848 0
M  V30 4992 H 478.028 -5.64499 -0.0123908 0
M  V30 4993 N 477.426 -0.562348 -1.47226 0
M  V30 4994 C 478.336 0.185466 -2.33866 0
M  V30 4995 C 479.352 0.906713 -1.48508 0
M  V30 4996 O 480.528 0.874458 -1.81425 0
M  V30 4997 C 477.593 1.19904 -3.25306 0
M  V30 4998 C 476.654 0.484669 -4.26555 0
M  V30 4999 C 475.887 1.44996 -5.13626 0
M  V30 5000 O 476.11 2.68515 -5.03245 0
M  V30 5001 O 475.044 0.971642 -5.94006 0
M  V30 5002 H 478.87 -0.525361 -2.99121 0
M  V30 5003 H 476.455 -0.322916 -1.45868 0
M  V30 5004 H 478.337 1.78399 -3.81774 0
M  V30 5005 H 477.012 1.8917 -2.62672 0
M  V30 5006 H 475.919 -0.141605 -3.73832 0
M  V30 5007 H 477.252 -0.166634 -4.91918 0
M  V30 5008 N 478.904 1.54736 -0.299062 0
M  V30 5009 C 480.15 2.00397 0.311244 0
M  V30 5010 C 480.483 1.18716 1.53688 0
M  V30 5011 O 479.758 0.263154 1.92712 0
M  V30 5012 C 480.041 3.53817 0.669761 0
M  V30 5013 C 479.894 4.46239 -0.564882 0
M  V30 5014 C 481.213 4.13856 1.49702 0
M  V30 5015 H 478.332 0.728493 0.111653 0
M  V30 5016 H 480.974 1.85506 -0.410774 0
M  V30 5017 H 479.124 3.66637 1.28491 0
M  V30 5018 H 480.796 4.45328 -1.20337 0
M  V30 5019 H 479.039 4.16916 -1.19849 0
M  V30 5020 H 479.71 5.5134 -0.269918 0
M  V30 5021 H 482.186 4.04461 0.977284 0
M  V30 5022 H 481.062 5.21365 1.71666 0
M  V30 5023 H 481.323 3.65608 2.48563 0
M  V30 5024 N 480.382 0.0267497 1.57577 0
M  V30 5025 C 481.312 -0.954308 2.13108 0
M  V30 5026 C 482.293 -1.34088 1.04663 0
M  V30 5027 O 483.478 -1.41992 1.32484 0
M  V30 5028 C 480.608 -2.23744 2.65624 0
M  V30 5029 C 479.562 -1.99168 3.78835 0
M  V30 5030 C 478.888 -3.33726 4.17769 0
M  V30 5031 C 480.188 -1.33277 5.0501 0
M  V30 5032 H 481.882 -0.491848 2.95332 0
M  V30 5033 H 479.428 -0.23514 1.42067 0
M  V30 5034 H 481.381 -2.92754 3.03106 0
M  V30 5035 H 480.105 -2.72151 1.80558 0
M  V30 5036 H 478.764 -1.32577 3.41788 0
M  V30 5037 H 478.412 -3.79888 3.29688 0
M  V30 5038 H 478.112 -3.18089 4.94058 0
M  V30 5039 H 479.636 -4.04008 4.57832 0
M  V30 5040 H 481.05 -1.92283 5.40093 0
M  V30 5041 H 479.447 -1.28045 5.8628 0
M  V30 5042 H 480.517 -0.305411 4.83937 0
M  V30 5043 N 481.861 -1.55662 -0.24637 0
M  V30 5044 C 482.811 -1.86753 -1.30795 0
M  V30 5045 C 483.795 -0.728445 -1.43466 0
M  V30 5046 O 484.987 -0.99038 -1.46699 0
M  V30 5047 C 482.116 -2.16618 -2.66329 0
M  V30 5048 C 481.202 -3.36855 -2.57661 0
M  V30 5049 N 481.593 -4.56111 -2.18624 0
M  V30 5050 C 479.891 -3.39976 -2.88673 0
M  V30 5051 C 480.592 -5.38247 -2.20601 0
M  V30 5052 N 479.568 -4.77322 -2.60124 0
M  V30 5053 H 483.37 -2.76486 -0.996642 0
M  V30 5054 H 480.884 -1.55896 -0.454994 0
M  V30 5055 H 482.881 -2.37057 -3.42942 0
M  V30 5056 H 481.541 -1.28185 -2.98327 0
M  V30 5057 H 482.552 -4.81726 -1.9016 0
M  V30 5058 H 479.229 -2.61815 -3.25206 0
M  V30 5059 H 480.619 -6.43657 -1.92756 0
M  V30 5060 N 483.339 0.512053 -1.4905 0
M  V30 5061 C 484.269 1.62365 -1.67809 0
M  V30 5062 C 485.25 1.61737 -0.526809 0
M  V30 5063 O 486.435 1.78651 -0.761404 0
M  V30 5064 C 483.565 3.00895 -1.73435 0
M  V30 5065 C 482.519 3.16387 -2.88242 0
M  V30 5066 C 481.845 4.56157 -2.78971 0
M  V30 5067 C 483.145 2.97457 -4.29321 0
M  V30 5068 H 484.839 1.46921 -2.60873 0
M  V30 5069 H 482.385 0.705379 -1.2554 0
M  V30 5070 H 484.338 3.78549 -1.85145 0
M  V30 5071 H 483.062 3.17403 -0.769619 0
M  V30 5072 H 481.721 2.41155 -2.76116 0
M  V30 5073 H 481.369 4.69525 -1.8043 0
M  V30 5074 H 481.069 4.67465 -3.5602 0
M  V30 5075 H 482.593 5.35886 -2.92675 0
M  V30 5076 H 484.007 3.64888 -4.42187 0
M  V30 5077 H 482.404 3.20245 -5.07507 0
M  V30 5078 H 483.474 1.93692 -4.44535 0
M  V30 5079 N 484.817 1.37938 0.762283 0
M  V30 5080 C 486.233 1.18945 1.06415 0
M  V30 5081 C 486.433 0.0321163 2.01474 0
M  V30 5082 O 485.489 -0.624844 2.44647 0
M  V30 5083 C 486.802 2.51218 1.65258 0
M  V30 5084 C 488.35 2.57824 1.7747 0
M  V30 5085 C 488.825 3.90251 2.39725 0
M  V30 5086 N 490.316 3.91744 2.47166 0
M  V30 5087 C 491.051 4.90966 2.96209 0
M  V30 5088 N 490.547 6.00585 3.45354 0
M  V30 5089 N 492.34 4.78363 2.9517 0
M  V30 5090 H 484.491 2.11994 0.131301 0
M  V30 5091 H 486.754 0.940262 0.120879 0
M  V30 5092 H 486.46 3.36317 1.02878 0
M  V30 5093 H 486.334 2.68989 2.64433 0
M  V30 5094 H 488.721 1.73126 2.3898 0
M  V30 5095 H 488.802 2.43928 0.770241 0
M  V30 5096 H 488.446 4.75368 1.78852 0
M  V30 5097 H 488.376 4.01454 3.40796 0
M  V30 5098 H 490.867 3.12563 2.12397 0
M  V30 5099 H 491.18 6.72236 3.81207 0
M  V30 5100 H 489.525 6.04217 3.43434 0
M  V30 5101 H 492.716 3.91841 2.56082 0
M  V30 5102 H 492.889 5.55843 3.33081 0
M  V30 5103 N 486.295 -0.989507 1.22664 0
M  V30 5104 C 487.243 -2.10148 0.997035 0
M  V30 5105 C 488.237 -1.6929 -0.0609783 0
M  V30 5106 O 489.443 -1.79766 0.0917523 0
M  V30 5107 H 485.818 -0.687256 0.305259 0
M  V30 5108 H 487.789 -2.26685 1.94053 0
M  V30 5109 C 486.538 -3.4257 0.595085 0
M  V30 5110 H 485.861 -3.74453 1.40089 0
M  V30 5111 H 487.301 -4.21344 0.473869 0
M  V30 5112 C 485.76 -3.29638 -0.695725 0
M  V30 5113 O 486.29 -3.61709 -1.74727 0
M  V30 5114 N 484.496 -2.82814 -0.668173 0
M  V30 5115 H 484.043 -2.56914 0.18787 0
M  V30 5116 H 484.001 -2.74544 -1.5321 0
M  V30 5117 N 487.773 -1.03688 -1.18687 0
M  V30 5118 C 489.019 -0.739123 -1.88851 0
M  V30 5119 C 489.352 0.731042 -1.79915 0
M  V30 5120 O 488.627 1.53313 -1.19688 0
M  V30 5121 C 488.91 -1.20106 -3.3948 0
M  V30 5122 C 488.763 -2.73304 -3.57246 0
M  V30 5123 C 490.082 -0.788134 -4.32986 0
M  V30 5124 H 487.201 -0.269978 -0.68577 0
M  V30 5125 H 489.843 -1.28822 -1.3966 0
M  V30 5126 H 487.993 -0.733915 -3.81505 0
M  V30 5127 H 489.665 -3.28027 -3.24339 0
M  V30 5128 H 487.908 -3.13313 -3.00029 0
M  V30 5129 H 488.579 -3.00684 -4.62918 0
M  V30 5130 H 491.055 -1.19005 -3.98719 0
M  V30 5131 H 489.931 -1.13915 -5.36949 0
M  V30 5132 H 490.192 0.308988 -4.41019 0
M  V30 5133 N 489.251 1.34841 -0.815825 0
M  V30 5134 C 490.476 2.03261 -0.41226 0
M  V30 5135 C 490.901 1.61055 0.971751 0
M  V30 5136 O 490.259 0.7917 1.63101 0
M  V30 5137 C 490.307 3.56914 -0.514289 0
M  V30 5138 O 489.411 4.09728 0.468675 0
M  V30 5139 H 488.752 0.641664 -0.170771 0
M  V30 5140 H 491.282 1.72241 -1.10427 0
M  V30 5141 H 491.292 4.06156 -0.387457 0
M  V30 5142 H 489.967 3.86982 -1.52375 0
M  V30 5143 H 488.544 3.71681 0.301316 0
M  V30 5144 N 490.729 0.570148 1.46925 0
M  V30 5145 C 491.976 0.0509529 2.02436 0
M  V30 5146 C 492.304 -1.30405 1.44308 0
M  V30 5147 O 491.559 -1.86493 0.593198 0
M  V30 5148 C 491.858 -0.0780336 3.57315 0
M  V30 5149 C 491.524 1.20775 4.34424 0
M  V30 5150 C 490.186 1.56004 4.5521 0
M  V30 5151 C 492.538 2.0592 4.78797 0
M  V30 5152 C 489.866 2.76201 5.17619 0
M  V30 5153 C 492.218 3.25332 5.42533 0
M  V30 5154 C 490.882 3.60859 5.61549 0
M  V30 5155 H 490.152 0.018645 0.740765 0
M  V30 5156 H 492.799 0.744262 1.76445 0
M  V30 5157 H 491.104 -0.854394 3.82371 0
M  V30 5158 H 492.801 -0.495312 3.97929 0
M  V30 5159 H 489.391 0.923469 4.18533 0
M  V30 5160 H 493.575 1.80008 4.62505 0
M  V30 5161 H 488.831 3.0388 5.30535 0
M  V30 5162 H 493.005 3.91586 5.75876 0
M  V30 5163 H 490.632 4.54088 6.09678 0
M  V30 5164 N 492.207 -1.54576 0.307264 0
M  V30 5165 C 493.117 -2.27435 -0.57536 0
M  V30 5166 C 494.133 -1.31183 -1.14311 0
M  V30 5167 O 495.309 -1.64175 -1.16656 0
M  V30 5168 C 492.374 -3.00566 -1.72803 0
M  V30 5169 C 491.435 -4.12369 -1.19373 0
M  V30 5170 C 490.668 -4.82003 -2.29147 0
M  V30 5171 O 490.891 -4.51038 -3.49171 0
M  V30 5172 O 489.825 -5.69271 -1.95485 0
M  V30 5173 H 493.651 -3.03696 0.0158558 0
M  V30 5174 H 491.236 -1.49219 0.0735064 0
M  V30 5175 H 493.118 -3.46416 -2.39946 0
M  V30 5176 H 491.793 -2.27195 -2.30574 0
M  V30 5177 H 490.7 -3.70905 -0.487851 0
M  V30 5178 H 492.033 -4.87736 -0.661376 0
M  V30 5179 N 493.685 -0.035106 -1.57561 0
M  V30 5180 C 494.962 0.681212 -1.83354 0
M  V30 5181 C 495.342 1.89986 -0.920252 0
M  V30 5182 O 494.69 2.28489 0.0226815 0
M  V30 5183 C 494.9 1.05376 -3.32712 0
M  V30 5184 C 496.248 1.44286 -3.99333 0
M  V30 5185 O 497.272 1.14656 -3.37242 0
M  V30 5186 O 496.131 1.99518 -5.08778 0
M  V30 5187 H 493.225 0.334741 -0.756226 0
M  V30 5188 H 495.771 -0.0632448 -1.69582 0
M  V30 5189 H 494.543 0.186668 -3.90854 0
M  V30 5190 H 494.166 1.85619 -3.51613 0
M  V30 5191 N 495.163 1.55791 0.238111 0
M  V30 5192 C 496.126 1.90239 1.27835 0
M  V30 5193 C 497.126 0.779552 1.4064 0
M  V30 5194 O 498.316 1.04747 1.3919 0
M  V30 5195 C 495.448 2.13859 2.65475 0
M  V30 5196 H 496.641 2.83262 0.985034 0
M  V30 5197 H 494.194 1.48818 0.477799 0
M  V30 5198 H 494.929 1.23334 2.99932 0
M  V30 5199 H 494.714 2.95643 2.57561 0
M  V30 5200 H 496.204 2.41664 3.40571 0
M  V30 5201 N 496.642 -0.504142 1.49319 0
M  V30 5202 C 497.89 -1.25598 1.58334 0
M  V30 5203 C 498.211 -1.93114 0.270538 0
M  V30 5204 O 497.481 -1.82585 -0.709891 0
M  V30 5205 H 496.061 -0.466571 0.58337 0
M  V30 5206 H 498.723 -0.584547 1.85928 0
M  V30 5207 H 497.819 -2.02159 2.37778 0
M  V30 5208 N 498.12 -1.38341 -0.754957 0
M  V30 5209 C 499.03 -1.3769 -1.89944 0
M  V30 5210 C 500.046 -0.274194 -1.71826 0
M  V30 5211 O 501.222 -0.512391 -1.94773 0
M  V30 5212 C 498.287 -1.19938 -3.25293 0
M  V30 5213 C 497.348 -2.40001 -3.55946 0
M  V30 5214 C 496.581 -2.23087 -4.84838 0
M  V30 5215 O 496.804 -1.22386 -5.57116 0
M  V30 5216 O 495.738 -3.11646 -5.14937 0
M  V30 5217 H 499.564 -2.3412 -1.93446 0
M  V30 5218 H 497.149 -1.19246 -0.900044 0
M  V30 5219 H 499.031 -1.12093 -4.06218 0
M  V30 5220 H 497.706 -0.265919 -3.22606 0
M  V30 5221 H 496.613 -2.53421 -2.75188 0
M  V30 5222 H 497.946 -3.31973 -3.63394 0
M  V30 5223 N 499.598 0.982988 -1.23187 0
M  V30 5224 C 500.828 1.75666 -1.08743 0
M  V30 5225 C 501.236 1.85662 0.364195 0
M  V30 5226 O 500.579 1.33317 1.26382 0
M  V30 5227 C 500.641 3.20144 -1.63549 0
M  V30 5228 C 500.305 3.33665 -3.12277 0
M  V30 5229 C 501.302 3.20194 -4.096 0
M  V30 5230 C 498.987 3.58397 -3.51933 0
M  V30 5231 C 500.981 3.31256 -5.44563 0
M  V30 5232 C 498.668 3.69098 -4.87042 0
M  V30 5233 C 499.666 3.55537 -5.83166 0
M  V30 5234 O 499.354 3.65864 -7.1582 0
M  V30 5235 H 499.086 0.558194 -0.381307 0
M  V30 5236 H 501.64 1.24387 -1.63454 0
M  V30 5237 H 499.87 3.72659 -1.03256 0
M  V30 5238 H 501.559 3.79262 -1.4462 0
M  V30 5239 H 502.325 3.00987 -3.80305 0
M  V30 5240 H 498.204 3.68025 -2.77631 0
M  V30 5241 H 501.748 3.20588 -6.19572 0
M  V30 5242 H 497.645 3.87814 -5.16014 0
M  V30 5243 H 498.413 3.82675 -7.23534 0
M  V30 5244 N 501.076 1.04316 1.18135 0
M  V30 5245 C 502.304 0.768117 1.92113 0
M  V30 5246 C 502.719 -0.675057 1.76319 0
M  V30 5247 O 502.076 -1.46038 1.09449 0
M  V30 5248 C 502.127 1.12808 3.43448 0
M  V30 5249 O 501.848 2.5146 3.58747 0
M  V30 5250 C 503.349 0.8779 4.3452 0
M  V30 5251 H 500.569 0.279937 0.609817 0
M  V30 5252 H 503.113 1.39149 1.49859 0
M  V30 5253 H 501.268 0.549623 3.83481 0
M  V30 5254 H 501.682 2.65313 4.52448 0
M  V30 5255 H 503.156 1.17959 5.39249 0
M  V30 5256 H 503.633 -0.187239 4.38801 0
M  V30 5257 H 504.239 1.43977 4.00188 0
M  V30 5258 N 502.554 -1.34406 0.822964 0
M  V30 5259 C 503.794 -2.00103 0.416915 0
M  V30 5260 C 504.158 -1.63826 -1.00125 0
M  V30 5261 O 505.359 -2.22367 -1.51018 0
M  V30 5262 C 503.63 -3.52101 0.613151 0
M  V30 5263 S 505.189 -4.37774 0.299956 0
M  V30 5264 H 502.007 -0.69333 0.157527 0
M  V30 5265 H 504.609 -1.63698 1.06879 0
M  V30 5266 H 503.313 -3.75991 1.64496 0
M  V30 5267 H 502.844 -3.93364 -0.0534554 0
M  V30 5268 H 504.859 -4.8822 -0.886336 0
M  V30 5269 N 504.032 -0.577932 -1.46621 0
M  V30 5270 C 504.962 0.145917 -2.33044 0
M  V30 5271 C 505.943 0.888412 -1.45056 0
M  V30 5272 O 507.128 0.864812 -1.73881 0
M  V30 5273 C 504.258 1.16322 -3.27241 0
M  V30 5274 C 503.212 0.535868 -4.24632 0
M  V30 5275 C 502.538 1.65929 -5.08303 0
M  V30 5276 C 503.838 -0.523861 -5.19666 0
M  V30 5277 H 505.532 -0.575636 -2.93814 0
M  V30 5278 H 503.078 -0.278272 -1.41286 0
M  V30 5279 H 505.031 1.67793 -3.86553 0
M  V30 5280 H 503.755 1.91498 -2.64567 0
M  V30 5281 H 502.414 0.0422759 -3.66576 0
M  V30 5282 H 502.062 2.40061 -4.42018 0
M  V30 5283 H 501.762 1.2452 -5.74255 0
M  V30 5284 H 503.286 2.17686 -5.70478 0
M  V30 5285 H 504.7 -0.0944059 -5.73222 0
M  V30 5286 H 503.097 -0.858 -5.93935 0
M  V30 5287 H 504.167 -1.41197 -4.63887 0
M  V30 5288 N 505.51 1.54411 -0.315457 0
M  V30 5289 C 506.473 2.22713 0.54142 0
M  V30 5290 C 507.473 1.2179 1.04995 0
M  V30 5291 O 508.663 1.46426 0.943667 0
M  V30 5292 C 505.795 2.92485 1.75116 0
M  V30 5293 H 506.988 2.99849 -0.0555508 0
M  V30 5294 H 504.541 1.56159 -0.0664453 0
M  V30 5295 H 505.276 2.19466 2.38758 0
M  V30 5296 H 505.061 3.66483 1.39401 0
M  V30 5297 H 506.551 3.44548 2.35959 0
M  V30 5298 N 506.988 0.0434614 1.5754 0
M  V30 5299 C 508.236 -0.630786 1.92004 0
M  V30 5300 C 508.557 -1.71836 0.921807 0
M  V30 5301 O 507.827 -1.9587 -0.034522 0
M  V30 5302 H 506.407 -0.235988 0.708745 0
M  V30 5303 H 509.069 0.0946462 1.9467 0
M  V30 5304 H 508.165 -1.07434 2.93026 0
M  V30 5305 N 508.466 -1.55915 -0.229846 0
M  V30 5306 C 509.414 -1.9258 -1.30444 0
M  V30 5307 C 510.408 -0.806839 -1.48951 0
M  V30 5308 O 511.614 -0.991606 -1.50224 0
M  V30 5309 H 507.989 -0.611878 -0.437161 0
M  V30 5310 H 509.96 -2.82264 -0.96797 0
M  V30 5311 C 508.709 -2.25171 -2.6494 0
M  V30 5312 H 508.032 -3.10782 -2.51504 0
M  V30 5313 H 509.472 -2.54716 -3.38963 0
M  V30 5314 C 507.931 -1.07394 -3.19324 0
M  V30 5315 O 508.461 -0.330759 -4.00336 0
M  V30 5316 N 506.667 -0.859984 -2.77584 0
M  V30 5317 H 506.214 -1.46605 -2.11813 0
M  V30 5318 H 506.172 -0.0736671 -3.14314 0
M  V30 5319 N 509.944 0.496216 -1.49584 0
M  V30 5320 C 511.169 1.27865 -1.63295 0
M  V30 5321 C 511.594 1.85592 -0.306156 0
M  V30 5322 O 510.952 1.66092 0.726851 0
M  V30 5323 C 511 2.38128 -2.7079 0
M  V30 5324 O 510.104 3.42108 -2.30296 0
M  V30 5325 H 509.445 0.377279 -0.546403 0
M  V30 5326 H 511.975 0.593497 -1.95803 0
M  V30 5327 H 511.985 2.8382 -2.93104 0
M  V30 5328 H 510.66 1.95479 -3.67098 0
M  V30 5329 H 509.237 3.02301 -2.18331 0
M  V30 5330 N 511.423 1.38739 0.74761 0
M  V30 5331 C 512.672 1.3459 1.50228 0
M  V30 5332 C 512.985 -0.0595592 1.95509 0
M  V30 5333 O 514.191 -0.22361 2.70578 0
M  V30 5334 C 512.647 2.36377 2.71393 0
M  V30 5335 C 512.255 3.82573 2.33113 0
M  V30 5336 C 513.999 2.41281 3.49262 0
M  V30 5337 C 511.906 4.76032 3.50924 0
M  V30 5338 H 510.836 0.500312 0.564096 0
M  V30 5339 H 513.487 1.64324 0.8167 0
M  V30 5340 H 511.869 1.99694 3.41962 0
M  V30 5341 H 513.043 4.28227 1.70171 0
M  V30 5342 H 511.358 3.80844 1.68365 0
M  V30 5343 H 513.955 3.08301 4.36869 0
M  V30 5344 H 514.298 1.43353 3.9084 0
M  V30 5345 H 514.831 2.76793 2.85711 0
M  V30 5346 H 511.57 5.75177 3.14408 0
M  V30 5347 H 511.09 4.35066 4.12889 0
M  V30 5348 H 512.769 4.94331 4.17427 0
M  V30 5349 N 512.901 -0.976442 1.23707 0
M  V30 5350 C 514.149 -1.71487 1.06942 0
M  V30 5351 C 514.47 -1.9098 -0.393897 0
M  V30 5352 O 513.74 -1.48128 -1.28198 0
M  V30 5353 H 512.32 -0.635425 0.392739 0
M  V30 5354 H 514.982 -1.17515 1.55487 0
M  V30 5355 H 514.078 -2.70286 1.56051 0
M  V30 5356 N 514.379 -1.04941 -1.1758 0
M  V30 5357 C 515.309 -0.669172 -2.23706 0
M  V30 5358 C 516.29 0.331835 -1.66832 0
M  V30 5359 O 517.475 0.209988 -1.93061 0
M  V30 5360 C 514.605 -0.0404889 -3.47276 0
M  V30 5361 C 513.559 -0.965983 -4.16957 0
M  V30 5362 C 512.885 -0.201312 -5.34321 0
M  V30 5363 C 514.185 -2.28902 -4.69469 0
M  V30 5364 H 515.879 -1.55639 -2.55767 0
M  V30 5365 H 513.425 -0.749793 -1.22939 0
M  V30 5366 H 515.378 0.237298 -4.20731 0
M  V30 5367 H 514.102 0.881658 -3.14475 0
M  V30 5368 H 512.761 -1.22829 -3.45411 0
M  V30 5369 H 512.409 0.723519 -4.97769 0
M  V30 5370 H 512.109 -0.817968 -5.81879 0
M  V30 5371 H 513.633 0.0692499 -6.10561 0
M  V30 5372 H 515.047 -2.07132 -5.34574 0
M  V30 5373 H 513.444 -2.85942 -5.27596 0
M  V30 5374 H 514.514 -2.92937 -3.86414 0
M  V30 5375 N 515.857 1.33968 -0.830081 0
M  V30 5376 C 517.082 2.02813 -0.433796 0
M  V30 5377 C 517.507 1.62076 0.954614 0
M  V30 5378 O 516.865 0.808955 1.62252 0
M  V30 5379 C 516.913 3.56348 -0.552115 0
M  V30 5380 O 516.017 4.10202 0.425191 0
M  V30 5381 H 515.358 0.639817 -0.177567 0
M  V30 5382 H 517.888 1.7106 -1.12248 0
M  V30 5383 H 517.898 4.05722 -0.430513 0
M  V30 5384 H 516.573 3.85344 -1.56471 0
M  V30 5385 H 515.15 3.71979 0.261878 0
M  V30 5386 N 517.335 0.585699 1.46312 0
M  V30 5387 C 518.285 -0.166813 2.27389 0
M  V30 5388 C 519.269 -0.859076 1.36047 0
M  V30 5389 O 520.461 -0.752678 1.60199 0
M  V30 5390 C 517.59 -1.17791 3.2246 0
M  V30 5391 C 516.676 -0.487605 4.21288 0
M  V30 5392 N 517.067 0.45849 5.03718 0
M  V30 5393 C 515.365 -0.737971 4.39852 0
M  V30 5394 C 516.066 0.862213 5.75275 0
M  V30 5395 N 515.042 0.210707 5.43191 0
M  V30 5396 H 518.844 0.560167 2.88512 0
M  V30 5397 H 516.358 0.407715 1.57199 0
M  V30 5398 H 518.355 -1.73122 3.79255 0
M  V30 5399 H 517.015 -1.90568 2.62896 0
M  V30 5400 H 518.026 0.834163 5.11138 0
M  V30 5401 H 514.703 -1.45209 3.91434 0
M  V30 5402 H 516.093 1.64128 6.51546 0
M  V30 5403 N 518.813 -1.54241 0.323641 0
M  V30 5404 C 519.763 -2.21071 -0.557833 0
M  V30 5405 C 520.747 -1.19126 -1.08157 0
M  V30 5406 O 521.939 -1.44755 -1.01857 0
M  V30 5407 C 519.068 -2.97208 -1.71821 0
M  V30 5408 C 518.154 -4.06491 -1.20936 0
M  V30 5409 N 518.545 -5.04052 -0.420202 0
M  V30 5410 C 516.843 -4.20443 -1.48808 0
M  V30 5411 C 517.544 -5.81516 -0.146413 0
M  V30 5412 N 516.52 -5.38641 -0.732562 0
M  V30 5413 H 520.322 -2.93853 0.0523921 0
M  V30 5414 H 517.836 -1.61883 0.129502 0
M  V30 5415 H 519.833 -3.4357 -2.36146 0
M  V30 5416 H 518.493 -2.25947 -2.33191 0
M  V30 5417 H 519.504 -5.17862 -0.0630401 0
M  V30 5418 H 516.181 -3.60396 -2.10762 0
M  V30 5419 H 517.571 -6.70119 0.488895 0
M  V30 5420 N 520.291 -0.0518155 -1.57515 0
M  V30 5421 C 521.516 0.634896 -1.97443 0
M  V30 5422 C 521.941 1.63546 -0.929207 0
M  V30 5423 O 521.299 1.80981 0.107484 0
M  V30 5424 C 521.347 1.29765 -3.36442 0
M  V30 5425 O 520.451 2.41333 -3.34413 0
M  V30 5426 H 519.792 0.164994 -0.643174 0
M  V30 5427 H 522.322 -0.120407 -2.04245 0
M  V30 5428 H 522.332 1.64918 -3.73184 0
M  V30 5429 H 521.007 0.564361 -4.12053 0
M  V30 5430 H 519.584 2.08122 -3.09418 0
M  V30 5431 N 521.769 1.56035 0.221574 0
M  V30 5432 C 522.732 1.91584 1.2581 0
M  V30 5433 C 523.732 0.794425 1.39805 0
M  V30 5434 O 524.922 1.06217 1.38071 0
M  V30 5435 C 522.054 2.16663 2.63192 0
M  V30 5436 H 523.247 2.8429 0.954935 0
M  V30 5437 H 520.8 1.49316 0.461988 0
M  V30 5438 H 521.535 1.26508 2.98607 0
M  V30 5439 H 521.32 2.98358 2.5441 0
M  V30 5440 H 522.81 2.45262 3.37988 0
M  V30 5441 N 523.247 -0.488276 1.49845 0
M  V30 5442 C 524.493 -1.24065 1.61182 0
M  V30 5443 C 524.848 -1.9004 0.300435 0
M  V30 5444 O 524.141 -1.78341 -0.700365 0
M  V30 5445 C 524.335 -2.32152 2.71735 0
M  V30 5446 C 524.164 -1.76778 4.13497 0
M  V30 5447 C 522.934 -1.57513 4.80123 0
M  V30 5448 C 525.132 -1.27242 4.98311 0
M  V30 5449 N 523.114 -0.972015 6.06156 0
M  V30 5450 C 524.485 -0.791457 6.14928 0
M  V30 5451 C 526.54 -1.15934 4.84214 0
M  V30 5452 C 525.243 -0.208593 7.18997 0
M  V30 5453 C 527.269 -0.590436 5.88445 0
M  V30 5454 C 526.631 -0.119767 7.04298 0
M  V30 5455 H 522.73 -0.443487 0.644083 0
M  V30 5456 H 525.314 -0.545551 1.86901 0
M  V30 5457 H 523.485 -2.99108 2.47768 0
M  V30 5458 H 525.217 -2.99187 2.72523 0
M  V30 5459 H 521.972 -1.82247 4.37131 0
M  V30 5460 H 522.396 -0.689367 6.73481 0
M  V30 5461 H 527.038 -1.5092 3.94947 0
M  V30 5462 H 524.756 0.153501 8.07954 0
M  V30 5463 H 528.342 -0.505548 5.79599 0
M  V30 5464 H 527.222 0.313568 7.83573 0
M  V30 5465 N 524.725 -1.39134 -0.740242 0
M  V30 5466 C 525.655 -1.40165 -1.86751 0
M  V30 5467 C 526.636 -0.265708 -1.68012 0
M  V30 5468 O 527.821 -0.47076 -1.88408 0
M  V30 5469 C 524.951 -1.2392 -3.2444 0
M  V30 5470 C 523.905 -2.34858 -3.57807 0
M  V30 5471 C 523.231 -2.03707 -4.94376 0
M  V30 5472 C 524.531 -3.77159 -3.61315 0
M  V30 5473 H 526.225 -2.345 -1.86145 0
M  V30 5474 H 523.771 -1.12875 -0.89416 0
M  V30 5475 H 525.724 -1.23263 -4.02969 0
M  V30 5476 H 524.448 -0.26051 -3.25559 0
M  V30 5477 H 523.107 -2.34723 -2.81604 0
M  V30 5478 H 522.755 -1.04289 -4.9207 0
M  V30 5479 H 522.455 -2.78016 -5.17669 0
M  V30 5480 H 523.979 -2.04691 -5.75268 0
M  V30 5481 H 525.393 -3.79252 -4.29931 0
M  V30 5482 H 523.79 -4.50784 -3.96124 0
M  V30 5483 H 524.86 -4.08513 -2.61238 0
M  V30 5484 N 526.204 0.969867 -1.24223 0
M  V30 5485 C 527.432 1.74756 -1.10761 0
M  V30 5486 C 527.847 1.85713 0.340041 0
M  V30 5487 O 527.204 1.34389 1.23474 0
M  V30 5488 C 527.255 3.16915 -1.73917 0
M  V30 5489 O 526.976 3.06511 -3.13021 0
M  V30 5490 C 528.477 4.11032 -1.66036 0
M  V30 5491 H 525.697 0.548092 -0.387087 0
M  V30 5492 H 528.241 1.2178 -1.64286 0
M  V30 5493 H 526.396 3.66884 -1.244 0
M  V30 5494 H 526.81 3.96079 -3.43834 0
M  V30 5495 H 528.284 5.08446 -2.14911 0
M  V30 5496 H 528.761 4.34785 -0.621159 0
M  V30 5497 H 529.367 3.66972 -2.14969 0
M  V30 5498 N 527.682 1.05563 1.17022 0
M  V30 5499 C 528.928 0.769074 1.87652 0
M  V30 5500 C 529.261 -0.702326 1.81055 0
M  V30 5501 O 528.536 -1.5139 1.22112 0
M  V30 5502 C 528.819 1.25492 3.37526 0
M  V30 5503 C 528.672 2.78953 3.52853 0
M  V30 5504 C 529.991 0.856919 4.31677 0
M  V30 5505 H 527.11 0.280854 0.681388 0
M  V30 5506 H 529.752 1.31027 1.37593 0
M  V30 5507 H 527.902 0.794516 3.80289 0
M  V30 5508 H 529.574 3.33146 3.19079 0
M  V30 5509 H 527.817 3.18046 2.95007 0
M  V30 5510 H 528.488 3.08011 4.58076 0
M  V30 5511 H 530.964 1.25334 3.96775 0
M  V30 5512 H 529.84 1.22443 5.35069 0
M  V30 5513 H 530.101 -0.238787 4.41455 0
M  V30 5514 N 529.16 -1.33526 0.837174 0
M  V30 5515 C 530.09 -2.31764 0.284206 0
M  V30 5516 C 531.071 -1.58896 -0.607142 0
M  V30 5517 O 532.256 -1.86798 -0.531047 0
M  V30 5518 C 529.386 -3.43029 -0.542962 0
M  V30 5519 C 528.34 -4.27255 0.252451 0
M  V30 5520 C 527.666 -5.3012 -0.69836 0
M  V30 5521 C 528.966 -5.01229 1.46858 0
M  V30 5522 H 530.66 -2.78262 1.10502 0
M  V30 5523 H 528.206 -1.3378 0.532812 0
M  V30 5524 H 530.159 -4.1078 -0.940096 0
M  V30 5525 H 528.883 -2.95216 -1.39697 0
M  V30 5526 H 527.542 -3.61127 0.631124 0
M  V30 5527 H 527.19 -4.78564 -1.54872 0
M  V30 5528 H 526.89 -5.87353 -0.170274 0
M  V30 5529 H 528.414 -6.00737 -1.09305 0
M  V30 5530 H 529.828 -5.61756 1.14469 0
M  V30 5531 H 528.225 -5.68104 1.93333 0
M  V30 5532 H 529.295 -4.301 2.23924 0
M  V30 5533 N 530.638 -0.59345 -1.46 0
M  V30 5534 C 531.548 0.135817 -2.34207 0
M  V30 5535 C 532.564 0.875008 -1.50398 0
M  V30 5536 O 533.74 0.835778 -1.83239 0
M  V30 5537 C 530.805 1.12977 -3.27776 0
M  V30 5538 C 529.866 0.394081 -4.27487 0
M  V30 5539 C 529.099 1.34068 -5.16586 0
M  V30 5540 O 529.322 2.5778 -5.08828 0
M  V30 5541 O 528.256 0.845426 -5.95933 0
M  V30 5542 H 532.082 -0.588691 -2.9794 0
M  V30 5543 H 529.667 -0.353784 -1.45151 0
M  V30 5544 H 531.549 1.70261 -3.85473 0
M  V30 5545 H 530.224 1.83556 -2.66625 0
M  V30 5546 H 529.131 -0.220869 -3.73447 0
M  V30 5547 H 530.464 -0.270939 -4.91454 0
M  V30 5548 N 532.116 1.54067 -0.331816 0
M  V30 5549 C 533.079 2.23275 0.517768 0
M  V30 5550 C 534.079 1.22897 1.03697 0
M  V30 5551 O 535.269 1.47419 0.928084 0
M  V30 5552 C 532.401 2.94326 1.72004 0
M  V30 5553 H 533.594 2.99773 -0.0873507 0
M  V30 5554 H 531.147 1.56079 -0.0830042 0
M  V30 5555 H 531.882 2.21986 2.36417 0
M  V30 5556 H 531.667 3.67941 1.35507 0
M  V30 5557 H 533.157 3.47031 2.32291 0
M  V30 5558 N 533.594 0.0601682 1.57485 0
M  V30 5559 C 534.524 -0.90889 2.15085 0
M  V30 5560 C 535.505 -1.31838 1.07484 0
M  V30 5561 O 536.69 -1.3915 1.35466 0
M  V30 5562 C 533.82 -2.18059 2.7031 0
M  V30 5563 C 532.774 -1.91088 3.82974 0
M  V30 5564 C 532.1 -3.24789 4.24754 0
M  V30 5565 C 533.4 -1.22535 5.07723 0
M  V30 5566 H 535.094 -0.429093 2.96309 0
M  V30 5567 H 532.64 -0.204952 1.42534 0
M  V30 5568 H 534.593 -2.86258 3.09248 0
M  V30 5569 H 533.317 -2.6826 1.8629 0
M  V30 5570 H 531.976 -1.25297 3.44523 0
M  V30 5571 H 531.624 -3.72809 3.37672 0
M  V30 5572 H 531.324 -3.07538 5.00694 0
M  V30 5573 H 532.848 -3.94205 4.66299 0
M  V30 5574 H 534.262 -1.80783 5.4405 0
M  V30 5575 H 532.659 -1.1558 5.88864 0
M  V30 5576 H 533.729 -0.202692 4.84476 0
M  V30 5577 N 535.072 -1.5615 -0.213296 0
M  V30 5578 C 535.982 -1.96265 -1.28519 0
M  V30 5579 C 536.998 -0.86765 -1.50824 0
M  V30 5580 O 538.174 -1.17191 -1.63793 0
M  V30 5581 C 535.239 -2.27836 -2.61327 0
M  V30 5582 C 534.3 -3.50949 -2.47252 0
M  V30 5583 C 533.533 -3.81004 -3.73727 0
M  V30 5584 O 533.756 -3.12612 -4.77106 0
M  V30 5585 O 532.69 -4.74477 -3.70344 0
M  V30 5586 H 536.516 -2.87631 -0.974795 0
M  V30 5587 H 534.101 -1.43467 -0.416832 0
M  V30 5588 H 535.983 -2.49299 -3.39747 0
M  V30 5589 H 534.658 -1.39643 -2.9203 0
M  V30 5590 H 533.565 -3.34754 -1.67004 0
M  V30 5591 H 534.898 -4.39551 -2.21486 0
M  V30 5592 N 536.55 0.480323 -1.50102 0
M  V30 5593 C 537.46 1.60547 -1.71061 0
M  V30 5594 C 538.476 1.63564 -0.593529 0
M  V30 5595 O 539.652 1.81604 -0.870751 0
M  V30 5596 C 536.717 2.96814 -1.79171 0
M  V30 5597 C 535.778 3.04259 -3.02861 0
M  V30 5598 C 535.011 4.34027 -3.10574 0
M  V30 5599 O 535.234 5.24009 -2.25323 0
M  V30 5600 O 534.168 4.46873 -4.03223 0
M  V30 5601 H 537.994 1.45788 -2.6642 0
M  V30 5602 H 535.579 0.658838 -1.34088 0
M  V30 5603 H 537.461 3.77765 -1.86738 0
M  V30 5604 H 536.136 3.11791 -0.869947 0
M  V30 5605 H 535.043 2.22419 -3.008 0
M  V30 5606 H 536.376 2.94216 -3.94586 0
M  V30 5607 N 538.028 1.39524 0.732853 0
M  V30 5608 C 539.444 1.21176 1.03868 0
M  V30 5609 C 539.644 0.0748448 2.01361 0
M  V30 5610 O 538.7 -0.57281 2.45917 0
M  V30 5611 C 540.013 2.54667 1.59892 0
M  V30 5612 C 541.561 2.6153 1.71962 0
M  V30 5613 C 542.036 3.95248 2.31394 0
M  V30 5614 N 543.527 3.96899 2.38801 0
M  V30 5615 C 544.262 4.97138 2.85729 0
M  V30 5616 N 543.758 6.07775 3.32537 0
M  V30 5617 N 545.551 4.84516 2.84957 0
M  V30 5618 H 537.702 2.12225 0.086304 0
M  V30 5619 H 539.965 0.942614 0.100907 0
M  V30 5620 H 539.671 3.38423 0.95721 0
M  V30 5621 H 539.545 2.74538 2.58668 0
M  V30 5622 H 541.932 1.78156 2.35254 0
M  V30 5623 H 542.013 2.45507 0.718327 0
M  V30 5624 H 541.657 4.79054 1.68729 0
M  V30 5625 H 541.587 4.08593 3.32204 0
M  V30 5626 H 544.078 3.16998 2.05719 0
M  V30 5627 H 544.391 6.8017 3.66862 0
M  V30 5628 H 542.736 6.11366 3.30541 0
M  V30 5629 H 545.927 3.97185 2.47713 0
M  V30 5630 H 546.1 5.62783 3.21215 0
M  V30 5631 N 539.506 -0.963266 1.24736 0
M  V30 5632 C 540.917 -1.52145 1.08207 0
M  V30 5633 C 541.268 -1.93142 -0.345061 0
M  V30 5634 O 540.393 -1.77769 -1.23399 0
M  V30 5635 C 540.988 -2.76486 1.95808 0
M  V30 5636 C 539.547 -3.28646 1.8349 0
M  V30 5637 C 538.694 -2.01529 1.90476 0
M  V30 5638 H 541.645 -0.781083 1.38148 0
M  V30 5639 H 541.666 -3.49986 1.49297 0
M  V30 5640 H 541.178 -2.46617 2.99669 0
M  V30 5641 H 539.279 -3.63357 0.824787 0
M  V30 5642 H 539.392 -3.97246 2.67829 0
M  V30 5643 H 537.756 -2.16442 1.34258 0
M  V30 5644 H 538.539 -1.7402 2.95926 0
M  V30 5645 N 540.985 -1.06182 -1.16461 0
M  V30 5646 C 541.948 -0.675723 -2.19013 0
M  V30 5647 C 542.948 0.277963 -1.58379 0
M  V30 5648 O 544.138 0.0604962 -1.74095 0
M  V30 5649 C 541.27 0.00591459 -3.40899 0
M  V30 5650 H 542.463 -1.58353 -2.54685 0
M  V30 5651 H 540.016 -0.856908 -1.30716 0
M  V30 5652 H 540.751 0.92652 -3.10783 0
M  V30 5653 H 540.536 -0.67984 -3.86161 0
M  V30 5654 H 542.026 0.26181 -4.16778 0
M  V30 5655 N 542.463 1.3308 -0.844243 0
M  V30 5656 C 543.709 1.97898 -0.443206 0
M  V30 5657 C 544.042 1.66699 0.99625 0
M  V30 5658 O 543.317 0.949704 1.69738 0
M  V30 5659 C 543.6 3.53801 -0.670606 0
M  V30 5660 C 543.453 3.94667 -2.15772 0
M  V30 5661 C 544.772 4.39936 -0.120226 0
M  V30 5662 H 541.891 0.718861 -0.162504 0
M  V30 5663 H 544.533 1.57633 -1.06075 0
M  V30 5664 H 542.683 3.88229 -0.14496 0
M  V30 5665 H 544.355 3.70469 -2.74865 0
M  V30 5666 H 542.598 3.44203 -2.6402 0
M  V30 5667 H 543.269 5.03275 -2.26757 0
M  V30 5668 H 545.745 4.12183 -0.5696 0
M  V30 5669 H 544.621 5.4803 -0.308984 0
M  V30 5670 H 544.882 4.31184 0.976347 0
M  V30 5671 N 543.941 0.601185 1.45683 0
M  V30 5672 C 544.874 -0.17013 2.27565 0
M  V30 5673 C 545.852 -0.879661 1.36751 0
M  V30 5674 O 547.036 -0.889827 1.66176 0
M  V30 5675 C 544.163 -1.24568 3.14961 0
M  V30 5676 C 543.209 -0.639978 4.21671 0
M  V30 5677 S 544.042 0.547275 5.32696 0
M  V30 5678 C 545.198 -0.529019 6.2366 0
M  V30 5679 H 545.431 0.524583 2.92635 0
M  V30 5680 H 542.964 0.388537 1.49431 0
M  V30 5681 H 544.922 -1.86138 3.65873 0
M  V30 5682 H 543.583 -1.91243 2.49169 0
M  V30 5683 H 542.776 -1.44903 4.8272 0
M  V30 5684 H 542.378 -0.0995558 3.73867 0
M  V30 5685 H 544.67 -1.40981 6.62669 0
M  V30 5686 H 545.613 0.0451599 7.08086 0
M  V30 5687 H 546.021 -0.84147 5.58193 0
M  V30 5688 N 545.419 -1.53889 0.339982 0
M  V30 5689 C 546.647 -2.05271 -0.259114 0
M  V30 5690 C 547.062 -1.21517 -1.44496 0
M  V30 5691 O 546.419 -0.24966 -1.80784 0
M  V30 5692 C 546.47 -3.55092 -0.677634 0
M  V30 5693 O 546.191 -4.35667 0.461051 0
M  V30 5694 C 547.692 -4.22631 -1.33782 0
M  V30 5695 H 544.912 -0.669085 -0.0506566 0
M  V30 5696 H 547.456 -1.9852 0.490935 0
M  V30 5697 H 545.611 -3.62077 -1.37763 0
M  V30 5698 H 546.025 -5.24343 0.128144 0
M  V30 5699 H 547.499 -5.28861 -1.58145 0
M  V30 5700 H 547.976 -3.74758 -2.29027 0
M  V30 5701 H 548.582 -4.19829 -0.679957 0
M  V30 5702 N 546.897 -0.0685191 -1.57451 0
M  V30 5703 C 548.122 0.613919 -1.98106 0
M  V30 5704 C 548.547 1.62551 -0.946501 0
M  V30 5705 O 547.905 1.81085 0.0882824 0
M  V30 5706 C 547.953 1.26189 -3.378 0
M  V30 5707 O 547.057 2.37773 -3.36954 0
M  V30 5708 H 546.398 0.158163 -0.644888 0
M  V30 5709 H 548.928 -0.142063 -2.04106 0
M  V30 5710 H 548.938 1.60951 -3.74912 0
M  V30 5711 H 547.613 0.520625 -4.12629 0
M  V30 5712 H 546.19 2.04829 -3.11608 0
M  V30 5713 N 548.375 1.56261 0.205012 0
M  V30 5714 C 549.786 1.70056 0.770574 0
M  V30 5715 C 550.137 0.673398 1.84282 0
M  V30 5716 O 549.262 -0.172196 2.15714 0
M  V30 5717 C 549.857 3.08316 1.40451 0
M  V30 5718 C 548.416 3.2391 1.91727 0
M  V30 5719 C 547.563 2.66001 0.783516 0
M  V30 5720 H 550.514 1.58688 -0.019911 0
M  V30 5721 H 550.535 3.05094 2.27371 0
M  V30 5722 H 550.047 3.83053 0.623882 0
M  V30 5723 H 548.148 2.54072 2.7254 0
M  V30 5724 H 548.261 4.3131 2.08588 0
M  V30 5725 H 546.625 2.24915 1.19521 0
M  V30 5726 H 547.408 3.43297 0.0152883 0
M  V30 5727 N 549.853 -0.472356 1.50355 0
M  V30 5728 C 550.783 -1.57859 1.72055 0
M  V30 5729 C 551.764 -1.60283 0.569505 0
M  V30 5730 O 552.949 -1.7657 0.808503 0
M  V30 5731 C 550.079 -2.96191 1.81351 0
M  V30 5732 C 549.033 -3.08633 2.96529 0
M  V30 5733 C 548.359 -4.486 2.90968 0
M  V30 5734 C 549.659 -2.85969 4.37057 0
M  V30 5735 H 551.353 -1.39953 2.64676 0
M  V30 5736 H 548.899 -0.671846 1.27367 0
M  V30 5737 H 550.852 -3.73507 1.95117 0
M  V30 5738 H 549.576 -3.15251 0.853502 0
M  V30 5739 H 548.235 -2.33749 2.82413 0
M  V30 5740 H 547.883 -4.64577 1.92815 0
M  V30 5741 H 547.583 -4.57861 3.68289 0
M  V30 5742 H 549.107 -5.27938 3.0678 0
M  V30 5743 H 550.521 -3.53036 4.51706 0
M  V30 5744 H 548.918 -3.06677 5.15819 0
M  V30 5745 H 549.988 -1.81838 4.49514 0
M  V30 5746 N 551.331 -1.39911 -0.725443 0
M  V30 5747 C 552.561 -1.40744 -1.51244 0
M  V30 5748 C 552.969 -0.00275403 -1.892 0
M  V30 5749 O 552.312 0.981299 -1.55294 0
M  V30 5750 C 552.374 -2.22527 -2.82351 0
M  V30 5751 C 552.038 -3.71053 -2.66774 0
M  V30 5752 C 553.035 -4.63916 -2.34686 0
M  V30 5753 C 550.72 -4.14753 -2.83347 0
M  V30 5754 C 552.714 -5.98463 -2.19366 0
M  V30 5755 C 550.401 -5.49372 -2.67644 0
M  V30 5756 C 551.399 -6.41042 -2.357 0
M  V30 5757 O 551.087 -7.73181 -2.20107 0
M  V30 5758 H 550.819 -0.482314 -0.473655 0
M  V30 5759 H 553.373 -1.84472 -0.903284 0
M  V30 5760 H 551.603 -1.73563 -3.45562 0
M  V30 5761 H 553.292 -2.15421 -3.44018 0
M  V30 5762 H 554.058 -4.31453 -2.21525 0
M  V30 5763 H 549.937 -3.43728 -3.072 0
M  V30 5764 H 553.481 -6.69979 -1.94354 0
M  V30 5765 H 549.378 -5.81424 -2.80387 0
M  V30 5766 H 550.146 -7.84008 -2.35103 0
M  V30 5767 N 552.809 0.956637 -1.25245 0
M  V30 5768 C 553.739 2.07058 -1.07931 0
M  V30 5769 C 554.72 1.70096 0.0110361 0
M  V30 5770 O 555.905 1.93555 -0.158121 0
M  V30 5771 C 553.035 3.40272 -0.695124 0
M  V30 5772 C 551.989 3.91235 -1.73549 0
M  V30 5773 C 551.315 5.20921 -1.20604 0
M  V30 5774 C 552.615 4.17837 -3.13385 0
M  V30 5775 H 554.309 2.218 -2.01109 0
M  V30 5776 H 551.855 1.06581 -0.968326 0
M  V30 5777 H 553.808 4.1765 -0.560949 0
M  V30 5778 H 552.532 3.25462 0.272355 0
M  V30 5779 H 551.191 3.16025 -1.85807 0
M  V30 5780 H 550.839 5.02479 -0.228846 0
M  V30 5781 H 550.539 5.55987 -1.90136 0
M  V30 5782 H 552.063 6.00897 -1.08421 0
M  V30 5783 H 553.477 4.8588 -3.04292 0
M  V30 5784 H 551.874 4.64154 -3.80369 0
M  V30 5785 H 552.944 3.2419 -3.60595 0
M  V30 5786 N 554.287 1.06798 1.15896 0
M  V30 5787 C 555.197 0.694564 2.24083 0
M  V30 5788 C 556.213 -0.291687 1.71538 0
M  V30 5789 O 557.389 -0.139723 2.00915 0
M  V30 5790 C 554.454 0.0921014 3.46578 0
M  V30 5791 C 553.515 1.13087 4.14137 0
M  V30 5792 C 552.748 0.557064 5.30785 0
M  V30 5793 O 552.971 -0.628623 5.66925 0
M  V30 5794 O 551.905 1.29924 5.8771 0
M  V30 5795 H 555.731 1.59663 2.58344 0
M  V30 5796 H 553.316 0.840575 1.2351 0
M  V30 5797 H 555.198 -0.241884 4.20705 0
M  V30 5798 H 553.873 -0.78337 3.14078 0
M  V30 5799 H 552.78 1.51712 3.41957 0
M  V30 5800 H 554.113 1.97805 4.50704 0
M  V30 5801 N 555.766 -1.3263 0.851289 0
M  V30 5802 C 557.015 -1.96633 0.449267 0
M  V30 5803 C 557.328 -1.68131 -0.999562 0
M  V30 5804 O 558.534 -2.25845 -1.50685 0
M  V30 5805 C 556.99 -3.51946 0.752446 0
M  V30 5806 C 556.598 -3.89311 2.21678 0
M  V30 5807 C 558.342 -4.22437 0.417983 0
M  V30 5808 C 556.249 -5.37655 2.46336 0
M  V30 5809 H 555.179 -0.735888 0.164269 0
M  V30 5810 H 557.83 -1.51073 1.0416 0
M  V30 5811 H 556.212 -3.95899 0.0895858 0
M  V30 5812 H 557.386 -3.56378 2.92115 0
M  V30 5813 H 555.701 -3.31836 2.51543 0
M  V30 5814 H 558.298 -5.31549 0.579674 0
M  V30 5815 H 558.641 -4.11349 -0.640115 0
M  V30 5816 H 559.174 -3.84057 1.03659 0
M  V30 5817 H 555.913 -5.5376 3.50757 0
M  V30 5818 H 555.433 -5.72005 1.80473 0
M  V30 5819 H 557.112 -6.04695 2.30115 0
M  V30 5820 N 557.244 -0.608902 -1.45362 0
M  V30 5821 C 558.493 -0.10218 -2.01441 0
M  V30 5822 C 558.806 1.27546 -1.48295 0
M  V30 5823 O 560.012 1.87498 -1.96359 0
M  V30 5824 C 558.468 -0.131985 -3.59658 0
M  V30 5825 C 558.076 -1.50956 -4.21801 0
M  V30 5826 C 559.82 0.319427 -4.23296 0
M  V30 5827 C 557.727 -1.49568 -5.72174 0
M  V30 5828 H 556.657 -0.0344314 -0.753213 0
M  V30 5829 H 559.308 -0.764426 -1.6682 0
M  V30 5830 H 557.69 0.596939 -3.91475 0
M  V30 5831 H 558.864 -2.26029 -4.01556 0
M  V30 5832 H 557.179 -1.90318 -3.70362 0
M  V30 5833 H 559.776 0.349013 -5.3356 0
M  V30 5834 H 560.119 1.34237 -3.94064 0
M  V30 5835 H 560.652 -0.356273 -3.96201 0
M  V30 5836 H 557.391 -2.49626 -6.06108 0
M  V30 5837 H 556.911 -0.787542 -5.94607 0
M  V30 5838 H 558.59 -1.21989 -6.35396 0
M  V30 5839 N 558.722 1.53707 -0.348139 0
M  V30 5840 C 559.971 2.0017 0.247992 0
M  V30 5841 C 560.284 1.23983 1.51286 0
M  V30 5842 O 561.49 1.60946 2.18652 0
M  V30 5843 C 559.946 3.56515 0.492459 0
M  V30 5844 C 559.554 4.41562 -0.756777 0
M  V30 5845 C 561.298 4.11381 1.0472 0
M  V30 5846 C 559.205 5.89426 -0.482856 0
M  V30 5847 H 558.135 0.747806 0.0964452 0
M  V30 5848 H 560.786 1.77532 -0.464179 0
M  V30 5849 H 559.168 3.75236 1.26545 0
M  V30 5850 H 560.342 4.34615 -1.53122 0
M  V30 5851 H 558.657 3.97711 -1.23348 0
M  V30 5852 H 561.254 5.19468 1.26717 0
M  V30 5853 H 561.597 3.64885 2.00411 0
M  V30 5854 H 562.13 3.96389 0.334801 0
M  V30 5855 H 558.869 6.40164 -1.40962 0
M  V30 5856 H 558.389 5.99264 0.253416 0
M  V30 5857 H 560.068 6.4692 -0.101816 0
M  V30 5858 N 560.2 0.0768682 1.57412 0
M  V30 5859 C 561.43 -0.5991 1.97723 0
M  V30 5860 C 561.838 -1.63378 0.954166 0
M  V30 5861 O 561.181 -1.83578 -0.0668706 0
M  V30 5862 C 561.243 -1.32078 3.34358 0
M  V30 5863 C 560.907 -0.438985 4.54887 0
M  V30 5864 C 561.904 0.305492 5.19002 0
M  V30 5865 C 559.589 -0.362378 5.00991 0
M  V30 5866 C 561.583 1.11475 6.27576 0
M  V30 5867 C 559.27 0.450543 6.09437 0
M  V30 5868 C 560.268 1.18777 6.72593 0
M  V30 5869 O 559.956 1.98727 7.7895 0
M  V30 5870 H 559.688 -0.166725 0.655117 0
M  V30 5871 H 562.242 0.147337 2.04871 0
M  V30 5872 H 560.472 -2.1134 3.2384 0
M  V30 5873 H 562.161 -1.88949 3.5924 0
M  V30 5874 H 562.927 0.25593 4.84324 0
M  V30 5875 H 558.806 -0.925832 4.51608 0
M  V30 5876 H 562.35 1.69068 6.76803 0
M  V30 5877 H 558.247 0.501651 6.43548 0
M  V30 5878 H 559.015 1.91214 7.95851 0
M  V30 5879 N 561.678 -1.56367 -0.196722 0
M  V30 5880 C 562.918 -1.82315 -0.92415 0
M  V30 5881 C 563.282 -0.654117 -1.80514 0
M  V30 5882 O 564.483 -0.79345 -2.56823 0
M  V30 5883 C 562.754 -3.13279 -1.72021 0
M  V30 5884 S 564.313 -3.60627 -2.49988 0
M  V30 5885 H 561.131 -0.639862 -0.309997 0
M  V30 5886 H 563.733 -1.94597 -0.187684 0
M  V30 5887 H 562.437 -3.96379 -1.06358 0
M  V30 5888 H 561.968 -3.03871 -2.49852 0
M  V30 5889 H 563.983 -3.25934 -3.74141 0
M  V30 5890 N 563.156 0.464375 -1.50603 0
M  V30 5891 C 564.384 1.23907 -1.65695 0
M  V30 5892 C 564.799 1.85658 -0.343027 0
M  V30 5893 O 564.156 1.69529 0.675739 0
M  V30 5894 C 564.207 2.3429 -2.75301 0
M  V30 5895 O 563.928 1.7507 -4.01599 0
M  V30 5896 C 565.429 3.25051 -3.01424 0
M  V30 5897 H 562.649 0.374485 -0.556778 0
M  V30 5898 H 565.193 0.55353 -1.96866 0
M  V30 5899 H 563.348 2.98607 -2.46804 0
M  V30 5900 H 563.762 2.47812 -4.62266 0
M  V30 5901 H 565.236 3.98699 -3.81763 0
M  V30 5902 H 565.713 3.84227 -2.12758 0
M  V30 5903 H 566.319 2.66463 -3.31477 0
M  V30 5904 N 564.634 1.40294 0.718013 0
M  V30 5905 C 565.882 1.38167 1.47494 0
M  V30 5906 C 566.203 -0.01607 1.94993 0
M  V30 5907 O 565.473 -0.970396 1.70177 0
M  V30 5908 H 564.053 0.508505 0.547203 0
M  V30 5909 H 566.715 1.75324 0.851322 0
M  V30 5910 H 565.811 2.05503 2.34894 0
M  V30 5911 N 566.112 -0.949982 1.2575 0
M  V30 5912 C 567.075 -2.02894 1.06615 0
M  V30 5913 C 568.075 -1.60791 0.0173905 0
M  V30 5914 O 569.265 -1.72249 0.260003 0
M  V30 5915 C 566.397 -3.35219 0.619751 0
M  V30 5916 H 567.59 -2.21302 2.02399 0
M  V30 5917 H 565.143 -1.12772 1.08223 0
M  V30 5918 H 565.878 -3.22508 -0.340486 0
M  V30 5919 H 565.663 -3.67129 1.37692 0
M  V30 5920 H 567.153 -4.14505 0.507443 0
M  V30 5921 N 567.59 -1.07411 -1.15328 0
M  V30 5922 C 568.837 -0.797649 -1.86128 0
M  V30 5923 C 569.165 0.676298 -1.82364 0
M  V30 5924 O 568.42 1.51223 -1.24218 0
M  V30 5925 C 568.719 -1.25191 -3.34757 0
M  V30 5926 C 568.385 -2.73191 -3.58716 0
M  V30 5927 C 567.047 -3.13616 -3.64964 0
M  V30 5928 C 569.399 -3.68718 -3.6837 0
M  V30 5929 C 566.727 -4.48383 -3.78377 0
M  V30 5930 C 569.079 -5.03248 -3.83306 0
M  V30 5931 C 567.743 -5.43293 -3.878 0
M  V30 5932 H 567.013 -0.29188 -0.681092 0
M  V30 5933 H 569.66 -1.34524 -1.36292 0
M  V30 5934 H 567.965 -0.623712 -3.86804 0
M  V30 5935 H 569.662 -1.01489 -3.87945 0
M  V30 5936 H 566.252 -2.40898 -3.54494 0
M  V30 5937 H 570.436 -3.38614 -3.62842 0
M  V30 5938 H 565.692 -4.78877 -3.80114 0
M  V30 5939 H 569.866 -5.77142 -3.89718 0
M  V30 5940 H 567.493 -6.47721 -3.97946 0
M  V30 5941 N 569.068 1.32177 -0.85831 0
M  V30 5942 C 569.998 2.31282 -0.321041 0
M  V30 5943 C 570.979 1.59841 0.581786 0
M  V30 5944 O 572.164 1.87619 0.501262 0
M  V30 5945 C 569.294 3.4385 0.48832 0
M  V30 5946 C 568.248 4.26799 -0.320391 0
M  V30 5947 C 567.574 5.31164 0.613934 0
M  V30 5948 C 568.874 4.98829 -1.54813 0
M  V30 5949 H 570.568 2.76469 -1.14915 0
M  V30 5950 H 568.114 1.32916 -0.554028 0
M  V30 5951 H 570.067 4.12224 0.874626 0
M  V30 5952 H 568.791 2.97401 1.34983 0
M  V30 5953 H 567.45 3.60077 -0.688497 0
M  V30 5954 H 567.098 4.80967 1.47239 0
M  V30 5955 H 566.798 5.8755 0.0768097 0
M  V30 5956 H 568.322 6.024 0.997336 0
M  V30 5957 H 569.736 5.59864 -1.23392 0
M  V30 5958 H 568.133 5.64957 -2.02346 0
M  V30 5959 H 569.203 4.26483 -2.30739 0
M  V30 5960 N 570.547 0.616602 1.45037 0
M  V30 5961 C 571.796 0.112861 2.01384 0
M  V30 5962 C 572.109 -1.26758 1.48969 0
M  V30 5963 O 573.315 -1.86454 1.9735 0
M  V30 5964 C 571.771 0.151057 3.59583 0
M  V30 5965 C 571.379 1.53191 4.20995 0
M  V30 5966 C 573.123 -0.296974 4.2346 0
M  V30 5967 C 571.03 1.526 5.71373 0
M  V30 5968 H 569.96 0.0384254 0.75302 0
M  V30 5969 H 572.611 0.773262 1.66412 0
M  V30 5970 H 570.993 -0.57617 3.91786 0
M  V30 5971 H 572.167 2.28156 4.00352 0
M  V30 5972 H 570.482 1.92279 3.69348 0
M  V30 5973 H 573.079 -0.320712 5.33737 0
M  V30 5974 H 573.422 -1.32145 3.9477 0
M  V30 5975 H 573.955 0.377279 3.96007 0
M  V30 5976 H 570.694 2.52837 6.04776 0
M  V30 5977 H 570.214 0.819064 5.94181 0
M  V30 5978 H 571.893 1.25357 6.3474 0
M  V30 5979 N 572.025 -1.5352 0.356285 0
M  V30 5980 C 573.25 -2.06007 -0.239961 0
M  V30 5981 C 573.675 -1.22872 -1.42422 0
M  V30 5982 O 573.033 -0.245516 -1.7963 0
M  V30 5983 C 573.081 -3.5522 -0.620587 0
M  V30 5984 O 572.185 -3.74864 -1.71902 0
M  V30 5985 H 571.526 -0.662961 -0.0371377 0
M  V30 5986 H 574.056 -1.98033 0.514194 0
M  V30 5987 H 574.066 -3.98081 -0.894197 0
M  V30 5988 H 572.741 -4.15175 0.245407 0
M  V30 5989 H 571.318 -3.43904 -1.44169 0
M  V30 5990 N 573.503 -0.0852151 -1.57369 0
M  V30 5991 C 574.743 0.584297 -1.95871 0
M  V30 5992 C 575.107 1.6596 -0.965473 0
M  V30 5993 O 576.308 2.38561 -1.23862 0
M  V30 5994 C 574.579 1.13411 -3.38929 0
M  V30 5995 S 576.138 1.81687 -3.99419 0
M  V30 5996 H 572.956 0.19095 -0.684879 0
M  V30 5997 H 575.558 -0.162267 -1.94825 0
M  V30 5998 H 574.262 0.339845 -4.0899 0
M  V30 5999 H 573.793 1.91672 -3.43548 0
M  V30 6000 H 575.808 3.10037 -3.87417 0
M  V30 6001 N 574.981 1.5647 0.188427 0
M  V30 6002 C 575.914 1.90146 1.26173 0
M  V30 6003 C 576.892 0.762294 1.43624 0
M  V30 6004 O 578.076 1.01395 1.58907 0
M  V30 6005 C 575.203 2.13748 2.62735 0
M  V30 6006 C 574.249 3.36448 2.62116 0
M  V30 6007 S 575.082 4.91364 2.12889 0
M  V30 6008 C 576.238 5.18041 3.51261 0
M  V30 6009 H 576.471 2.80886 0.974192 0
M  V30 6010 H 574.004 1.49335 0.392226 0
M  V30 6011 H 575.962 2.28028 3.41341 0
M  V30 6012 H 574.623 1.23747 2.88696 0
M  V30 6013 H 573.816 3.50109 3.62546 0
M  V30 6014 H 573.418 3.21196 1.91596 0
M  V30 6015 H 575.71 5.0897 4.47164 0
M  V30 6016 H 576.653 6.19764 3.42489 0
M  V30 6017 H 577.061 4.45657 3.46482 0
M  V30 6018 N 576.459 -0.456382 1.50847 0
M  V30 6019 C 577.705 -1.20914 1.62811 0
M  V30 6020 C 578.038 -1.91301 0.334304 0
M  V30 6021 O 577.313 -1.82775 -0.665098 0
M  V30 6022 C 577.596 -2.24122 2.81853 0
M  V30 6023 C 577.449 -1.57944 4.21158 0
M  V30 6024 C 578.768 -3.25295 2.96431 0
M  V30 6025 H 575.887 -0.438233 0.592554 0
M  V30 6026 H 578.529 -0.50091 1.83278 0
M  V30 6027 H 576.679 -2.84524 2.64534 0
M  V30 6028 H 578.351 -1.01025 4.50102 0
M  V30 6029 H 576.594 -0.882185 4.24735 0
M  V30 6030 H 577.265 -2.33014 5.00408 0
M  V30 6031 H 579.741 -2.7493 3.12335 0
M  V30 6032 H 578.617 -3.94822 3.81322 0
M  V30 6033 H 578.878 -3.90286 2.07676 0
M  V30 6034 N 577.937 -1.40673 -0.710563 0
M  V30 6035 C 579.185 -1.38947 -1.46759 0
M  V30 6036 C 579.506 0.00572879 -1.94999 0
M  V30 6037 O 578.776 0.961358 -1.70689 0
M  V30 6038 H 577.356 -0.5114 -0.544499 0
M  V30 6039 H 580.018 -1.75773 -0.842012 0
M  V30 6040 H 579.114 -2.06745 -2.33801 0
M  V30 6041 N 579.415 0.9433 -1.26252 0
M  V30 6042 C 580.64 1.72898 -1.14547 0
M  V30 6043 C 581.065 1.85761 0.295743 0
M  V30 6044 O 580.423 1.3463 1.21427 0
M  V30 6045 C 580.471 3.11471 -1.8171 0
M  V30 6046 O 579.575 3.97336 -1.10445 0
M  V30 6047 H 578.916 0.530555 -0.399259 0
M  V30 6048 H 581.446 1.18159 -1.67032 0
M  V30 6049 H 581.456 3.61872 -1.88449 0
M  V30 6050 H 580.131 3.01425 -2.86558 0
M  V30 6051 H 578.708 3.55788 -1.11666 0
M  V30 6052 N 580.893 1.08022 1.14757 0
M  V30 6053 C 582.139 0.808705 1.85978 0
M  V30 6054 C 582.472 -0.663764 1.82504 0
M  V30 6055 O 581.747 -1.48765 1.25296 0
M  V30 6056 C 582.03 1.32623 3.34788 0
M  V30 6057 C 581.883 2.86375 3.46856 0
M  V30 6058 C 583.202 0.948291 4.29762 0
M  V30 6059 H 580.321 0.295244 0.675278 0
M  V30 6060 H 582.963 1.33917 1.34783 0
M  V30 6061 H 581.113 0.875002 3.78518 0
M  V30 6062 H 582.785 3.39839 3.11941 0
M  V30 6063 H 581.028 3.24232 2.88194 0
M  V30 6064 H 581.699 3.17658 4.51439 0
M  V30 6065 H 584.175 1.33722 3.94028 0
M  V30 6066 H 583.051 1.33765 5.32352 0
M  V30 6067 H 583.312 -0.145094 4.41862 0
M  V30 6068 N 582.371 -1.3172 0.865308 0
M  V30 6069 C 583.62 -1.96145 0.470098 0
M  V30 6070 C 583.933 -1.69182 -0.981674 0
M  V30 6071 O 585.139 -2.27431 -1.48281 0
M  V30 6072 C 583.595 -3.51129 0.789732 0
M  V30 6073 C 583.203 -3.86938 2.25795 0
M  V30 6074 C 584.947 -4.2197 0.462765 0
M  V30 6075 C 582.854 -5.35012 2.52024 0
M  V30 6076 H 581.784 -0.734105 0.172065 0
M  V30 6077 H 584.435 -1.49959 1.05757 0
M  V30 6078 H 582.817 -3.95781 0.131571 0
M  V30 6079 H 583.991 -3.5326 2.95879 0
M  V30 6080 H 582.306 -3.29149 2.55049 0
M  V30 6081 H 584.903 -5.30904 0.636019 0
M  V30 6082 H 585.246 -4.12005 -0.59645 0
M  V30 6083 H 585.779 -3.82936 1.07727 0
M  V30 6084 H 582.518 -5.50008 3.56611 0
M  V30 6085 H 582.038 -5.70058 1.8653 0
M  V30 6086 H 583.717 -6.0222 2.36515 0
M  V30 6087 N 583.85 -0.624285 -1.44708 0
M  V30 6088 C 585.096 -0.126237 -2.02407 0
M  V30 6089 C 585.428 1.24618 -1.48943 0
M  V30 6090 O 584.704 1.82569 -0.670742 0
M  V30 6091 C 584.986 -0.105449 -3.59946 0
M  V30 6092 C 584.84 -1.50972 -4.23707 0
M  V30 6093 C 586.159 0.573629 -4.36346 0
M  V30 6094 H 583.278 -0.0473472 -0.735478 0
M  V30 6095 H 585.92 -0.799452 -1.72362 0
M  V30 6096 H 584.07 0.46783 -3.85673 0
M  V30 6097 H 585.742 -2.13136 -4.0911 0
M  V30 6098 H 583.985 -2.0656 -3.81465 0
M  V30 6099 H 584.656 -1.44727 -5.32689 0
M  V30 6100 H 587.132 0.0861787 -4.16011 0
M  V30 6101 H 586.008 0.557338 -5.46063 0
M  V30 6102 H 586.269 1.64276 -4.10446 0
M  V30 6103 N 585.328 1.53329 -0.364422 0
M  V30 6104 C 586.558 2.05359 0.226096 0
M  V30 6105 C 586.966 1.23777 1.43094 0
M  V30 6106 O 586.309 0.271139 1.81688 0
M  V30 6107 C 586.371 3.52918 0.684794 0
M  V30 6108 C 586.035 4.55218 -0.403206 0
M  V30 6109 C 587.032 5.04583 -1.2527 0
M  V30 6110 C 584.717 4.99134 -0.563117 0
M  V30 6111 C 586.711 5.96463 -2.24745 0
M  V30 6112 C 584.398 5.9082 -1.56124 0
M  V30 6113 C 585.396 6.39375 -2.40184 0
M  V30 6114 O 585.084 7.29255 -3.38293 0
M  V30 6115 H 584.816 0.674588 0.0436772 0
M  V30 6116 H 587.37 1.98688 -0.520782 0
M  V30 6117 H 585.6 3.57122 1.48326 0
M  V30 6118 H 587.289 3.87812 1.19818 0
M  V30 6119 H 588.055 4.71403 -1.14034 0
M  V30 6120 H 583.934 4.60928 0.0813909 0
M  V30 6121 H 587.478 6.34285 -2.90393 0
M  V30 6122 H 583.375 6.23414 -1.67407 0
M  V30 6123 H 584.143 7.47249 -3.34009 0
M  V30 6124 N 586.806 0.0935595 1.57322 0
M  V30 6125 C 587.753 -0.865935 2.1394 0
M  V30 6126 C 588.723 -1.28083 1.05754 0
M  V30 6127 O 589.908 -1.36285 1.33533 0
M  V30 6128 C 587.048 -2.12023 2.72287 0
M  V30 6129 C 586.161 -1.756 3.94701 0
M  V30 6130 C 585.296 -2.95804 4.41218 0
M  V30 6131 C 584.335 -2.555 5.56225 0
M  V30 6132 N 583.472 -3.68534 5.97601 0
M  V30 6133 H 588.312 -0.376261 2.95615 0
M  V30 6134 H 585.849 -0.174052 1.46067 0
M  V30 6135 H 587.807 -2.85477 3.04235 0
M  V30 6136 H 586.437 -2.58492 1.93343 0
M  V30 6137 H 585.489 -0.921208 3.69077 0
M  V30 6138 H 586.801 -1.41964 4.78171 0
M  V30 6139 H 585.955 -3.77513 4.74941 0
M  V30 6140 H 584.694 -3.32649 3.56645 0
M  V30 6141 H 583.699 -1.72218 5.22131 0
M  V30 6142 H 584.924 -2.19801 6.42545 0
M  V30 6143 H 582.87 -4.051 5.15974 0
M  V30 6144 H 582.787 -3.38737 6.75865 0
M  V30 6145 H 584.055 -4.50757 6.35955 0
M  V30 6146 N 588.284 -1.56567 -0.180126 0
M  V30 6147 C 589.217 -1.90813 -1.25163 0
M  V30 6148 C 590.195 -0.7699 -1.43218 0
M  V30 6149 O 591.379 -1.02236 -1.58367 0
M  V30 6150 C 588.506 -2.15138 -2.61597 0
M  V30 6151 C 587.552 -3.37834 -2.60328 0
M  V30 6152 S 588.385 -4.92486 -2.1028 0
M  V30 6153 C 589.541 -5.19896 -3.48509 0
M  V30 6154 H 589.774 -2.81398 -0.959283 0
M  V30 6155 H 587.307 -1.49541 -0.3843 0
M  V30 6156 H 589.265 -2.29835 -3.40127 0
M  V30 6157 H 587.926 -1.25276 -2.88036 0
M  V30 6158 H 587.119 -3.52027 -3.60684 0
M  V30 6159 H 586.721 -3.22208 -1.8989 0
M  V30 6160 H 589.013 -5.11334 -4.44459 0
M  V30 6161 H 589.956 -6.21571 -3.39198 0
M  V30 6162 H 590.364 -4.47489 -3.44114 0
M  V30 6163 N 589.762 0.448376 -1.51087 0
M  V30 6164 C 590.709 1.54341 -1.71603 0
M  V30 6165 C 591.679 1.56463 -0.557536 0
M  V30 6166 O 592.864 1.73644 -0.79072 0
M  V30 6167 C 590.004 2.92148 -1.83695 0
M  V30 6168 C 589.117 2.99639 -3.11192 0
M  V30 6169 C 588.252 4.285 -3.13944 0
M  V30 6170 C 587.291 4.29819 -4.35801 0
M  V30 6171 N 586.428 5.50186 -4.36164 0
M  V30 6172 H 591.268 1.36151 -2.65079 0
M  V30 6173 H 588.805 0.661585 -1.31383 0
M  V30 6174 H 590.763 3.72093 -1.88687 0
M  V30 6175 H 589.393 3.0892 -0.936374 0
M  V30 6176 H 588.445 2.12425 -3.15562 0
M  V30 6177 H 589.757 2.96474 -4.01129 0
M  V30 6178 H 588.911 5.16811 -3.17791 0
M  V30 6179 H 587.65 4.34307 -2.21876 0
M  V30 6180 H 586.655 3.39902 -4.32142 0
M  V30 6181 H 587.88 4.25685 -5.29121 0
M  V30 6182 H 585.826 5.56735 -3.46961 0
M  V30 6183 H 585.743 5.48856 -5.19897 0
M  V30 6184 H 587.011 6.40559 -4.44189 0
M  V30 6185 N 591.24 1.41047 0.703093 0
M  V30 6186 C 592.465 1.43537 1.49706 0
M  V30 6187 C 592.89 0.0401853 1.88057 0
M  V30 6188 O 592.248 -0.954785 1.54122 0
M  V30 6189 C 592.296 2.3433 2.74084 0
M  V30 6190 O 591.4 1.79515 3.71279 0
M  V30 6191 H 590.741 0.487454 0.450871 0
M  V30 6192 H 593.271 1.85422 0.86486 0
M  V30 6193 H 593.281 2.49947 3.22476 0
M  V30 6194 H 591.956 3.35708 2.45506 0
M  V30 6195 H 590.533 1.7331 3.30179 0
M  V30 6196 N 592.718 -0.936591 1.26751 0
M  V30 6197 C 593.966 -1.67998 1.12343 0
M  V30 6198 C 594.287 -1.92137 -0.332938 0
M  V30 6199 O 593.557 -1.52132 -1.23421 0
M  V30 6200 H 592.137 -0.622609 0.412756 0
M  V30 6201 H 594.799 -1.12509 1.59147 0
M  V30 6202 H 593.895 -2.65185 1.64571 0
M  V30 6203 N 594.196 -1.08629 -1.14182 0
M  V30 6204 C 595.424 -0.838889 -1.8913 0
M  V30 6205 C 595.839 0.609153 -1.78703 0
M  V30 6206 O 595.196 1.41876 -1.14794 0
M  V30 6207 C 595.247 -1.25477 -3.39025 0
M  V30 6208 O 594.968 -2.64601 -3.49167 0
M  V30 6209 C 596.469 -1.03856 -4.30963 0
M  V30 6210 H 593.689 -0.302377 -0.599007 0
M  V30 6211 H 596.233 -1.44615 -1.44592 0
M  V30 6212 H 594.388 -0.691571 -3.81177 0
M  V30 6213 H 594.802 -2.81922 -4.42289 0
M  V30 6214 H 596.276 -1.37892 -5.345 0
M  V30 6215 H 596.753 0.0242522 -4.39193 0
M  V30 6216 H 597.359 -1.58731 -3.94569 0
M  V30 6217 N 595.674 1.31259 -0.872281 0
M  V30 6218 C 596.621 2.28459 -0.327857 0
M  V30 6219 C 597.591 1.55831 0.574957 0
M  V30 6220 O 598.776 1.83965 0.506101 0
M  V30 6221 C 595.916 3.41985 0.462644 0
M  V30 6222 C 595.029 4.29458 -0.467949 0
M  V30 6223 C 594.164 5.30131 0.336903 0
M  V30 6224 C 593.203 6.0925 -0.58997 0
M  V30 6225 N 592.34 7.01872 0.178775 0
M  V30 6226 H 597.18 2.74414 -1.16193 0
M  V30 6227 H 594.717 1.34994 -0.584376 0
M  V30 6228 H 596.675 4.06547 0.936759 0
M  V30 6229 H 595.305 2.97134 1.2614 0
M  V30 6230 H 594.357 3.65318 -1.06052 0
M  V30 6231 H 595.669 4.84677 -1.17856 0
M  V30 6232 H 594.823 6.0038 0.873427 0
M  V30 6233 H 593.562 4.75573 1.08079 0
M  V30 6234 H 592.567 5.37889 -1.13823 0
M  V30 6235 H 593.792 6.65894 -1.33275 0
M  V30 6236 H 591.738 6.49721 0.905435 0
M  V30 6237 H 591.655 7.54522 -0.472452 0
M  V30 6238 H 592.923 7.76382 0.696454 0
M  V30 6239 N 597.152 0.631951 1.44375 0
M  V30 6240 C 598.099 -0.0724807 2.30686 0
M  V30 6241 C 599.069 -0.835975 1.43529 0
M  V30 6242 O 600.254 -0.816849 1.7243 0
M  V30 6243 C 597.394 -1.04753 3.28817 0
M  V30 6244 C 596.507 -0.282367 4.31076 0
M  V30 6245 C 595.642 -1.2493 5.163 0
M  V30 6246 C 594.681 -0.473349 6.10267 0
M  V30 6247 N 593.818 -1.39079 6.88187 0
M  V30 6248 H 598.658 0.669477 2.90383 0
M  V30 6249 H 596.195 0.341927 1.43071 0
M  V30 6250 H 598.153 -1.62623 3.842 0
M  V30 6251 H 596.783 -1.75661 2.70819 0
M  V30 6252 H 595.835 0.412268 3.78159 0
M  V30 6253 H 597.147 0.321955 4.9776 0
M  V30 6254 H 596.301 -1.89931 5.76204 0
M  V30 6255 H 595.04 -1.88755 4.49692 0
M  V30 6256 H 594.045 0.190142 5.49471 0
M  V30 6257 H 595.27 0.16019 6.78911 0
M  V30 6258 H 593.216 -2.01623 6.24247 0
M  V30 6259 H 593.133 -0.840513 7.51313 0
M  V30 6260 H 594.401 -2.02961 7.52613 0
M  V30 6261 N 598.631 -1.53133 0.372548 0
M  V30 6262 C 599.856 -2.0625 -0.218098 0
M  V30 6263 C 600.281 -1.24375 -1.41111 0
M  V30 6264 O 599.639 -0.264554 -1.79359 0
M  V30 6265 C 599.687 -3.55858 -0.582876 0
M  V30 6266 O 598.791 -3.76667 -1.67917 0
M  V30 6267 H 598.132 -0.663317 -0.030104 0
M  V30 6268 H 600.662 -1.97477 0.535169 0
M  V30 6269 H 600.672 -3.99007 -0.851925 0
M  V30 6270 H 599.347 -4.14892 0.289428 0
M  V30 6271 H 597.924 -3.45413 -1.40513 0
M  V30 6272 N 600.109 -0.101901 -1.5727 0
M  V30 6273 C 601.386 0.602832 -1.86079 0
M  V30 6274 C 601.766 1.85912 -1 0
M  V30 6275 O 601.114 2.28379 -0.0742488 0
M  V30 6276 C 601.324 0.911694 -3.36881 0
M  V30 6277 C 602.672 1.2722 -4.05093 0
M  V30 6278 O 603.696 1.0025 -3.41802 0
M  V30 6279 O 602.555 1.7776 -5.16782 0
M  V30 6280 H 599.649 0.302366 -0.769743 0
M  V30 6281 H 602.195 -0.135113 -1.69161 0
M  V30 6282 H 600.967 0.0207256 -3.91295 0
M  V30 6283 H 600.59 1.70538 -3.59169 0
M  V30 6284 N 601.587 1.56661 0.17182 0
M  V30 6285 C 602.834 1.81965 0.888529 0
M  V30 6286 C 603.162 0.6789 1.82267 0
M  V30 6287 O 602.417 -0.333875 1.92831 0
M  V30 6288 C 602.716 3.13435 1.71736 0
M  V30 6289 C 602.382 4.41159 0.932184 0
M  V30 6290 C 601.044 4.75851 0.715481 0
M  V30 6291 C 603.396 5.19803 0.381387 0
M  V30 6292 C 600.724 5.86666 -0.063126 0
M  V30 6293 C 603.076 6.31433 -0.384129 0
M  V30 6294 C 601.74 6.64692 -0.611637 0
M  V30 6295 H 601.01 0.665859 0.325136 0
M  V30 6296 H 603.657 1.90884 0.153495 0
M  V30 6297 H 601.962 2.99857 2.52177 0
M  V30 6298 H 603.659 3.30224 2.27493 0
M  V30 6299 H 600.249 4.13947 1.11112 0
M  V30 6300 H 604.433 4.93396 0.536148 0
M  V30 6301 H 599.689 6.10892 -0.249136 0
M  V30 6302 H 603.863 6.91577 -0.818185 0
M  V30 6303 H 601.49 7.50398 -1.21684 0
M  V30 6304 N 603.065 -0.440357 1.51323 0
M  V30 6305 C 604.015 -1.53263 1.68803 0
M  V30 6306 C 604.999 -1.51494 0.542057 0
M  V30 6307 O 606.191 -1.57999 0.797839 0
M  V30 6308 C 603.32 -2.91479 1.8137 0
M  V30 6309 C 602.406 -2.98015 3.01742 0
M  V30 6310 N 602.797 -2.743 4.24962 0
M  V30 6311 C 601.095 -3.29173 3.00934 0
M  V30 6312 C 601.796 -2.86601 5.06197 0
M  V30 6313 N 600.772 -3.1814 4.40781 0
M  V30 6314 H 604.574 -1.33675 2.61741 0
M  V30 6315 H 602.088 -0.647616 1.48929 0
M  V30 6316 H 604.085 -3.70055 1.92002 0
M  V30 6317 H 602.745 -3.12089 0.896117 0
M  V30 6318 H 603.756 -2.49287 4.53957 0
M  V30 6319 H 600.433 -3.55577 2.18796 0
M  V30 6320 H 601.823 -2.72246 6.14274 0
M  V30 6321 N 604.543 -1.41418 -0.695603 0
M  V30 6322 C 605.768 -1.44329 -1.48942 0
M  V30 6323 C 606.193 -0.0501579 -1.88033 0
M  V30 6324 O 605.551 0.946598 -1.54626 0
M  V30 6325 C 605.599 -2.3578 -2.72837 0
M  V30 6326 O 604.703 -1.81482 -3.70322 0
M  V30 6327 H 604.044 -0.489838 -0.44828 0
M  V30 6328 H 606.574 -1.85878 -0.855014 0
M  V30 6329 H 606.584 -2.51654 -3.21145 0
M  V30 6330 H 605.259 -3.37005 -2.43722 0
M  V30 6331 H 603.836 -1.75058 -3.29255 0
M  V30 6332 N 606.021 0.929856 -1.27246 0
M  V30 6333 C 606.953 2.03434 -1.0558 0
M  V30 6334 C 607.966 1.62795 -0.0125762 0
M  V30 6335 O 609.155 1.76685 -0.2539 0
M  V30 6336 C 606.255 3.33915 -0.57912 0
M  V30 6337 C 605.428 4.03259 -1.69415 0
M  V30 6338 C 604.487 5.12014 -1.21357 0
M  V30 6339 O 603.513 5.36097 -1.91282 0
M  V30 6340 N 604.715 5.8046 -0.0680622 0
M  V30 6341 H 607.48 2.22583 -2.00691 0
M  V30 6342 H 605.041 1.1001 -1.18783 0
M  V30 6343 H 607.033 4.03978 -0.241563 0
M  V30 6344 H 605.603 3.11355 0.278703 0
M  V30 6345 H 604.823 3.26958 -2.20209 0
M  V30 6346 H 606.111 4.46337 -2.44255 0
M  V30 6347 H 605.509 5.63345 0.515626 0
M  V30 6348 H 604.066 6.51461 0.210332 0
M  V30 6349 N 607.499 1.09233 1.13605 0
M  V30 6350 C 608.432 0.6739 2.18023 0
M  V30 6351 C 609.41 -0.318603 1.59448 0
M  V30 6352 O 610.594 -0.220452 1.87206 0
M  V30 6353 C 607.721 -0.00751458 3.38699 0
M  V30 6354 C 606.767 0.946481 4.15865 0
M  V30 6355 S 607.6 2.45753 4.75779 0
M  V30 6356 C 608.756 1.78846 5.99804 0
M  V30 6357 H 608.989 1.55846 2.53178 0
M  V30 6358 H 606.522 0.908118 1.2487 0
M  V30 6359 H 608.48 -0.394368 4.08601 0
M  V30 6360 H 607.141 -0.868693 3.01849 0
M  V30 6361 H 606.334 0.416742 5.02274 0
M  V30 6362 H 605.936 1.27464 3.51609 0
M  V30 6363 H 608.228 1.11135 6.68323 0
M  V30 6364 H 609.171 2.63163 6.57382 0
M  V30 6365 H 609.579 1.25823 5.50299 0
M  V30 6366 N 608.977 -1.30795 0.87923 0
M  V30 6367 C 609.94 -2.26563 0.346676 0
M  V30 6368 C 610.94 -1.52578 -0.507597 0
M  V30 6369 O 612.13 -1.71318 -0.315575 0
M  V30 6370 C 609.262 -3.37115 -0.506611 0
M  V30 6371 H 610.455 -2.75183 1.19223 0
M  V30 6372 H 608.008 -1.41886 0.655598 0
M  V30 6373 H 608.743 -2.93802 -1.37299 0
M  V30 6374 H 608.528 -3.91959 0.105218 0
M  V30 6375 H 610.018 -4.08412 -0.871192 0
M  V30 6376 N 610.455 -0.639598 -1.44038 0
M  V30 6377 C 611.701 -0.147698 -2.02261 0
M  V30 6378 C 612.034 1.23031 -1.50256 0
M  V30 6379 O 611.309 1.81847 -0.690068 0
M  V30 6380 C 611.592 -0.14362 -3.59813 0
M  V30 6381 C 611.445 -1.55458 -4.22082 0
M  V30 6382 C 612.764 0.527317 -4.36929 0
M  V30 6383 H 609.883 -0.0551453 -0.734934 0
M  V30 6384 H 612.525 -0.817688 -1.71505 0
M  V30 6385 H 610.675 0.426898 -3.86147 0
M  V30 6386 H 612.347 -2.17464 -4.06826 0
M  V30 6387 H 610.59 -2.10594 -3.79253 0
M  V30 6388 H 611.261 -1.50369 -5.31124 0
M  V30 6389 H 613.737 0.0420504 -4.16079 0
M  V30 6390 H 612.613 0.499389 -5.46624 0
M  V30 6391 H 612.874 1.59914 -4.12165 0
M  V30 6392 N 611.933 1.52934 -0.380664 0
M  V30 6393 C 612.883 2.22989 0.475399 0
M  V30 6394 C 613.867 1.23058 1.03661 0
M  V30 6395 O 615.059 1.48436 0.964146 0
M  V30 6396 C 612.188 3.0338 1.60671 0
M  V30 6397 C 611.274 4.107 1.05766 0
M  V30 6398 N 611.665 5.05264 0.232837 0
M  V30 6399 C 609.963 4.25676 1.33101 0
M  V30 6400 C 610.664 5.81658 -0.0695134 0
M  V30 6401 N 609.64 5.40989 0.532144 0
M  V30 6402 H 613.442 2.93456 -0.161418 0
M  V30 6403 H 610.956 1.61291 -0.189495 0
M  V30 6404 H 612.953 3.52098 2.23232 0
M  V30 6405 H 611.613 2.34446 2.24644 0
M  V30 6406 H 612.624 5.17739 -0.129204 0
M  V30 6407 H 609.301 3.6797 1.97241 0
M  V30 6408 H 610.691 6.67843 -0.737269 0
M  V30 6409 N 613.412 0.11024 1.57214 0
M  V30 6410 C 614.359 -0.843195 2.14846 0
M  V30 6411 C 615.329 -1.26954 1.07107 0
M  V30 6412 O 616.514 -1.34861 1.34971 0
M  V30 6413 C 613.654 -2.09123 2.74521 0
M  V30 6414 C 612.767 -1.71404 3.96541 0
M  V30 6415 C 611.902 -2.91107 4.44331 0
M  V30 6416 C 610.941 -2.49586 5.58903 0
M  V30 6417 N 610.078 -3.62175 6.01477 0
M  V30 6418 H 614.918 -0.344886 2.95998 0
M  V30 6419 H 612.455 -0.15855 1.46243 0
M  V30 6420 H 614.413 -2.82234 3.07246 0
M  V30 6421 H 613.043 -2.56427 1.96074 0
M  V30 6422 H 612.095 -0.88201 3.70033 0
M  V30 6423 H 613.407 -1.36884 4.7965 0
M  V30 6424 H 612.561 -3.72454 4.78919 0
M  V30 6425 H 611.3 -3.28848 3.60153 0
M  V30 6426 H 610.305 -1.6667 5.23929 0
M  V30 6427 H 611.53 -2.12973 6.4484 0
M  V30 6428 H 609.476 -3.99605 5.20242 0
M  V30 6429 H 609.393 -3.3155 6.79419 0
M  V30 6430 H 610.661 -4.43987 6.407 0
M  V30 6431 N 614.89 -1.56749 -0.16351 0
M  V30 6432 C 615.82 -2.00042 -1.20438 0
M  V30 6433 C 616.801 -0.877256 -1.45733 0
M  V30 6434 O 617.986 -1.1439 -1.56935 0
M  V30 6435 C 615.116 -2.36697 -2.54149 0
M  V30 6436 C 614.07 -3.52046 -2.43408 0
M  V30 6437 C 613.396 -3.74466 -3.81679 0
M  V30 6438 C 614.696 -4.85247 -1.93216 0
M  V30 6439 H 616.39 -2.87244 -0.844477 0
M  V30 6440 H 613.936 -1.38194 -0.40478 0
M  V30 6441 H 615.889 -2.65582 -3.27176 0
M  V30 6442 H 614.613 -1.46414 -2.91943 0
M  V30 6443 H 613.272 -3.23301 -1.72834 0
M  V30 6444 H 612.92 -2.81461 -4.1688 0
M  V30 6445 H 612.62 -4.52084 -3.75359 0
M  V30 6446 H 614.144 -4.0576 -4.5628 0
M  V30 6447 H 615.558 -5.12957 -2.56023 0
M  V30 6448 H 613.955 -5.66556 -1.97825 0
M  V30 6449 H 615.025 -4.7672 -0.88689 0
M  V30 6450 N 616.368 0.432326 -1.51554 0
M  V30 6451 C 617.331 1.50765 -1.72634 0
M  V30 6452 C 618.331 1.49334 -0.596314 0
M  V30 6453 O 619.521 1.51268 -0.863925 0
M  V30 6454 C 616.653 2.90284 -1.7874 0
M  V30 6455 H 617.846 1.33377 -2.68609 0
M  V30 6456 H 615.399 0.661329 -1.4162 0
M  V30 6457 H 616.134 3.13071 -0.845977 0
M  V30 6458 H 615.919 2.92727 -2.6087 0
M  V30 6459 H 617.409 3.68282 -1.96871 0
M  V30 6460 N 617.846 1.41785 0.688094 0
M  V30 6461 C 618.793 1.44221 1.80191 0
M  V30 6462 C 619.763 0.295688 1.63447 0
M  V30 6463 O 620.948 0.49783 1.84191 0
M  V30 6464 C 618.088 1.33743 3.1813 0
M  V30 6465 C 617.201 2.58325 3.46254 0
M  V30 6466 C 616.336 2.40086 4.73848 0
M  V30 6467 C 615.375 3.60107 4.94964 0
M  V30 6468 N 614.512 3.40892 6.13789 0
M  V30 6469 H 619.352 2.39411 1.77444 0
M  V30 6470 H 616.889 1.18876 0.866423 0
M  V30 6471 H 618.847 1.25669 3.97823 0
M  V30 6472 H 617.477 0.42157 3.20035 0
M  V30 6473 H 616.529 2.7682 2.60912 0
M  V30 6474 H 617.841 3.4758 3.57756 0
M  V30 6475 H 616.995 2.29522 5.61609 0
M  V30 6476 H 615.734 1.483 4.64606 0
M  V30 6477 H 614.739 3.71118 4.05649 0
M  V30 6478 H 615.964 4.52857 5.06061 0
M  V30 6479 H 613.91 2.51812 6.05745 0
M  V30 6480 H 613.827 4.23727 6.26092 0
M  V30 6481 H 615.095 3.34114 7.04264 0
M  V30 6482 N 619.324 -0.923095 1.27737 0
M  V30 6483 C 620.549 -1.71054 1.17283 0
M  V30 6484 C 620.974 -1.86208 -0.266153 0
M  V30 6485 O 620.332 -1.36545 -1.1927 0
M  V30 6486 C 620.38 -3.0854 1.86642 0
M  V30 6487 O 619.484 -3.95528 1.16752 0
M  V30 6488 H 618.825 -0.524136 0.407649 0
M  V30 6489 H 621.355 -1.15487 1.6889 0
M  V30 6490 H 621.365 -3.58828 1.94182 0
M  V30 6491 H 620.04 -2.96828 2.91317 0
M  V30 6492 H 618.617 -3.53967 1.17312 0
M  V30 6493 N 620.802 -1.09834 -1.13024 0
M  V30 6494 C 622.051 -0.831806 -1.83749 0
M  V30 6495 C 622.364 0.644763 -1.84668 0
M  V30 6496 O 623.57 1.02697 -2.51327 0
M  V30 6497 C 622.026 -1.43817 -3.29916 0
M  V30 6498 C 621.634 -2.94759 -3.37374 0
M  V30 6499 C 623.378 -1.25077 -4.05655 0
M  V30 6500 C 621.285 -3.48461 -4.77838 0
M  V30 6501 H 620.215 -0.30751 -0.688443 0
M  V30 6502 H 622.866 -1.32156 -1.27307 0
M  V30 6503 H 621.248 -0.876106 -3.86187 0
M  V30 6504 H 622.422 -3.57228 -2.91076 0
M  V30 6505 H 620.737 -3.12581 -2.75103 0
M  V30 6506 H 623.334 -1.62649 -5.09362 0
M  V30 6507 H 623.677 -0.191782 -4.15858 0
M  V30 6508 H 624.21 -1.78057 -3.55725 0
M  V30 6509 H 620.949 -4.53998 -4.72828 0
M  V30 6510 H 620.469 -2.90757 -5.24615 0
M  V30 6511 H 622.148 -3.45914 -5.46766 0
M  V30 6512 N 622.28 1.30327 -0.886154 0
M  V30 6513 C 623.691 1.78243 -0.555554 0
M  V30 6514 C 624.042 1.72849 0.928314 0
M  V30 6515 O 623.167 1.30607 1.72542 0
M  V30 6516 C 623.762 3.23654 -1.00168 0
M  V30 6517 C 622.321 3.69401 -0.722471 0
M  V30 6518 C 621.468 2.50753 -1.18399 0
M  V30 6519 H 624.419 1.1718 -1.07026 0
M  V30 6520 H 624.44 3.79056 -0.331152 0
M  V30 6521 H 623.952 3.27548 -2.08169 0
M  V30 6522 H 622.053 3.70995 0.345496 0
M  V30 6523 H 622.166 4.60818 -1.31085 0
M  V30 6524 H 620.53 2.47452 -0.603303 0
M  V30 6525 H 621.313 2.57383 -2.27176 0
M  V30 6526 N 623.758 0.647228 1.43697 0
M  V30 6527 C 624.688 -0.0345631 2.33474 0
M  V30 6528 C 625.669 -0.818193 1.4913 0
M  V30 6529 O 626.854 -0.780867 1.77809 0
M  V30 6530 C 623.984 -1.00576 3.32418 0
M  V30 6531 C 622.938 -0.33266 4.26705 0
M  V30 6532 C 622.264 -1.41489 5.1564 0
M  V30 6533 C 623.564 0.771204 5.16575 0
M  V30 6534 H 625.258 0.715163 2.90733 0
M  V30 6535 H 622.804 0.345364 1.39797 0
M  V30 6536 H 624.757 -1.49159 3.94119 0
M  V30 6537 H 623.481 -1.78657 2.73403 0
M  V30 6538 H 622.14 0.13267 3.6636 0
M  V30 6539 H 621.788 -2.18698 4.52968 0
M  V30 6540 H 621.488 -0.969799 5.79542 0
M  V30 6541 H 623.012 -1.9022 5.80214 0
M  V30 6542 H 624.426 0.36779 5.72119 0
M  V30 6543 H 622.823 1.1404 5.89165 0
M  V30 6544 H 623.893 1.63169 4.56622 0
M  V30 6545 N 625.236 -1.5273 0.388769 0
M  V30 6546 C 626.652 -1.59553 0.0387049 0
M  V30 6547 C 626.852 -1.40278 -1.44652 0
M  V30 6548 O 625.908 -1.21951 -2.21098 0
M  V30 6549 C 627.221 -2.9625 0.515409 0
M  V30 6550 C 628.769 -3.09426 0.471621 0
M  V30 6551 C 629.244 -4.48572 0.924505 0
M  V30 6552 N 630.735 -4.54754 0.880496 0
M  V30 6553 C 631.47 -5.60653 1.20234 0
M  V30 6554 N 630.966 -6.74198 1.59463 0
M  V30 6555 N 632.759 -5.50755 1.12363 0
M  V30 6556 H 624.91 -1.63508 1.35569 0
M  V30 6557 H 627.173 -0.768097 0.555636 0
M  V30 6558 H 626.879 -3.15569 1.5527 0
M  V30 6559 H 626.753 -3.77102 -0.085792 0
M  V30 6560 H 629.14 -2.89804 -0.556588 0
M  V30 6561 H 629.221 -2.30528 1.10862 0
M  V30 6562 H 628.865 -4.68936 1.95094 0
M  V30 6563 H 628.795 -5.25935 0.264524 0
M  V30 6564 H 631.286 -3.73237 0.591815 0
M  V30 6565 H 631.599 -7.5097 1.82385 0
M  V30 6566 H 629.944 -6.75531 1.63349 0
M  V30 6567 H 633.135 -4.6093 0.816169 0
M  V30 6568 H 633.308 -6.33184 1.37777 0
M  V30 6569 N 626.714 -0.118576 -1.57153 0
M  V30 6570 C 628.13 0.238014 -1.57815 0
M  V30 6571 C 628.33 1.66747 -1.13127 0
M  V30 6572 O 627.386 2.38867 -0.818462 0
M  V30 6573 C 628.699 0.00508207 -3.007 0
M  V30 6574 C 630.247 0.0710139 -3.12919 0
M  V30 6575 C 630.722 -0.13422 -4.57803 0
M  V30 6576 N 632.213 -0.0801755 -4.63131 0
M  V30 6577 C 632.948 -0.213885 -5.73001 0
M  V30 6578 N 632.444 -0.403742 -6.91623 0
M  V30 6579 N 634.237 -0.15349 -5.6189 0
M  V30 6580 H 626.388 -1.05226 -1.84503 0
M  V30 6581 H 628.651 -0.414318 -0.852669 0
M  V30 6582 H 628.357 -0.983125 -3.3768 0
M  V30 6583 H 628.231 0.73714 -3.69927 0
M  V30 6584 H 630.618 1.04975 -2.75798 0
M  V30 6585 H 630.699 -0.692918 -2.46236 0
M  V30 6586 H 630.343 -1.10992 -4.95624 0
M  V30 6587 H 630.273 0.649692 -5.22577 0
M  V30 6588 H 632.764 0.0630689 -3.77847 0
M  V30 6589 H 633.077 -0.496645 -7.71202 0
M  V30 6590 H 631.422 -0.43971 -6.93608 0
M  V30 6591 H 634.613 -0.00613174 -4.681 0
M  V30 6592 H 634.786 -0.261138 -6.47474 0
M  V30 6593 N 628.193 1.56834 0.155195 0
M  V30 6594 C 629.125 1.94235 1.21677 0
M  V30 6595 C 630.138 0.83724 1.39621 0
M  V30 6596 O 631.327 1.11567 1.39338 0
M  V30 6597 C 628.427 2.19402 2.58294 0
M  V30 6598 C 627.6 3.50671 2.61436 0
M  V30 6599 C 626.659 3.64475 3.79532 0
M  V30 6600 O 625.685 4.36945 3.64784 0
M  V30 6601 N 626.887 3.00526 4.96653 0
M  V30 6602 H 629.652 2.85901 0.898932 0
M  V30 6603 H 627.213 1.58185 0.34483 0
M  V30 6604 H 629.205 2.25886 3.35794 0
M  V30 6605 H 627.775 1.34042 2.82403 0
M  V30 6606 H 626.995 3.55702 1.69912 0
M  V30 6607 H 628.283 4.3702 2.60559 0
M  V30 6608 H 627.681 2.41549 5.11538 0
M  V30 6609 H 626.238 3.12583 5.71958 0
M  V30 6610 N 629.671 -0.424282 1.51781 0
M  V30 6611 C 630.917 -1.17434 1.6534 0
M  V30 6612 C 631.25 -1.90549 0.374806 0
M  V30 6613 O 630.525 -1.84145 -0.626179 0
M  V30 6614 C 630.808 -2.18093 2.86544 0
M  V30 6615 C 630.661 -1.48975 4.24413 0
M  V30 6616 C 631.98 -3.18934 3.03264 0
M  V30 6617 H 629.099 -0.425566 0.601716 0
M  V30 6618 H 631.741 -0.461921 1.84299 0
M  V30 6619 H 629.891 -2.78849 2.7051 0
M  V30 6620 H 631.563 -0.914551 4.52143 0
M  V30 6621 H 629.806 -0.791893 4.26511 0
M  V30 6622 H 630.477 -2.22347 5.05238 0
M  V30 6623 H 632.953 -2.68243 3.18096 0
M  V30 6624 H 631.829 -3.86645 3.89611 0
M  V30 6625 H 632.09 -3.85793 2.15908 0
M  V30 6626 N 631.149 -1.42148 -0.680565 0
M  V30 6627 C 632.377 -1.45696 -1.46902 0
M  V30 6628 C 632.792 -0.0665858 -1.88683 0
M  V30 6629 O 632.149 0.917436 -1.57764 0
M  V30 6630 C 632.2 -2.37898 -2.72188 0
M  V30 6631 O 631.921 -3.71526 -2.32163 0
M  V30 6632 C 633.422 -2.50407 -3.65802 0
M  V30 6633 H 630.642 -0.495729 -0.45221 0
M  V30 6634 H 633.186 -1.866 -0.836709 0
M  V30 6635 H 631.341 -2.00263 -3.31622 0
M  V30 6636 H 631.755 -4.20849 -3.13027 0
M  V30 6637 H 633.229 -3.19056 -4.50452 0
M  V30 6638 H 633.706 -1.5401 -4.11312 0
M  V30 6639 H 634.312 -2.8874 -3.12265 0
M  V30 6640 N 632.627 0.916307 -1.28225 0
M  V30 6641 C 633.873 1.66765 -1.154 0
M  V30 6642 C 634.206 1.91912 0.297251 0
M  V30 6643 O 633.481 1.51766 1.21644 0
M  V30 6644 C 633.764 3.02715 -1.95028 0
M  V30 6645 C 633.617 2.84738 -3.48201 0
M  V30 6646 C 634.936 4.03215 -1.76369 0
M  V30 6647 H 632.055 0.605205 -0.42059 0
M  V30 6648 H 634.697 1.06255 -1.57512 0
M  V30 6649 H 632.847 3.54365 -1.59242 0
M  V30 6650 H 634.519 2.40118 -3.9388 0
M  V30 6651 H 632.762 2.19848 -3.73964 0
M  V30 6652 H 633.433 3.8127 -3.99171 0
M  V30 6653 H 635.909 3.60617 -2.07593 0
M  V30 6654 H 634.785 4.96306 -2.34459 0
M  V30 6655 H 635.046 4.36288 -0.71452 0
M  V30 6656 N 634.105 1.10431 1.1244 0
M  V30 6657 C 635.33 0.869089 1.88313 0
M  V30 6658 C 635.755 -0.574912 1.79099 0
M  V30 6659 O 635.113 -1.40496 1.14589 0
M  V30 6660 C 635.161 1.32208 3.3549 0
M  V30 6661 O 634.265 0.487092 4.09513 0
M  V30 6662 H 633.606 0.313894 0.585121 0
M  V30 6663 H 636.136 1.47111 1.42195 0
M  V30 6664 H 636.146 1.31201 3.86329 0
M  V30 6665 H 634.821 2.37364 3.41513 0
M  V30 6666 H 633.398 0.562372 3.68635 0
M  V30 6667 N 635.583 -1.29855 0.893053 0
M  V30 6668 C 636.546 -2.26183 0.370687 0
M  V30 6669 C 637.546 -1.53108 -0.491385 0
M  V30 6670 O 638.736 -1.71643 -0.297386 0
M  V30 6671 C 635.868 -3.37633 -0.470827 0
M  V30 6672 H 637.061 -2.73903 1.22135 0
M  V30 6673 H 634.614 -1.41183 0.67061 0
M  V30 6674 H 635.349 -2.95241 -1.34175 0
M  V30 6675 H 635.134 -3.91825 0.146784 0
M  V30 6676 H 636.624 -4.09313 -0.827825 0
M  V30 6677 N 637.061 -0.65484 -1.43351 0
M  V30 6678 C 638.338 -0.0987371 -1.95351 0
M  V30 6679 C 638.718 1.38161 -1.59608 0
M  V30 6680 O 638.066 2.10791 -0.882021 0
M  V30 6681 C 638.276 -0.346684 -3.47274 0
M  V30 6682 C 639.624 -0.25249 -4.23849 0
M  V30 6683 O 640.648 -0.279332 -3.55103 0
M  V30 6684 O 639.507 -0.177584 -5.46211 0
M  V30 6685 H 636.601 0.0086829 -0.826954 0
M  V30 6686 H 639.147 -0.728189 -1.53282 0
M  V30 6687 H 637.919 -1.37296 -3.66423 0
M  V30 6688 H 637.542 0.315757 -3.96344 0
M  V30 6689 N 638.539 1.52521 -0.396863 0
M  V30 6690 C 639.764 2.06571 0.185258 0
M  V30 6691 C 640.189 1.26605 1.39115 0
M  V30 6692 O 639.547 0.293055 1.78916 0
M  V30 6693 C 639.595 3.5674 0.526189 0
M  V30 6694 O 638.699 3.7929 1.61903 0
M  V30 6695 H 638.04 0.663712 0.0195474 0
M  V30 6696 H 640.57 1.966 -0.566519 0
M  V30 6697 H 640.58 4.00311 0.788338 0
M  V30 6698 H 639.255 4.14379 -0.355397 0
M  V30 6699 H 637.832 3.47605 1.35 0
M  V30 6700 N 640.017 0.126909 1.57088 0
M  V30 6701 C 641.242 -0.53997 2.00248 0
M  V30 6702 C 641.667 -1.58927 1.00618 0
M  V30 6703 O 641.025 -1.81288 -0.0210131 0
M  V30 6704 C 641.073 -1.13565 3.4225 0
M  V30 6705 O 640.177 -2.25103 3.45547 0
M  V30 6706 H 639.518 -0.13412 0.650314 0
M  V30 6707 H 642.048 0.217718 2.03438 0
M  V30 6708 H 642.058 -1.46925 3.80627 0
M  V30 6709 H 640.733 -0.367122 4.14277 0
M  V30 6710 H 639.31 -1.93123 3.18995 0
M  V30 6711 N 641.495 -1.56914 -0.146875 0
M  V30 6712 C 642.458 -1.97368 -1.16526 0
M  V30 6713 C 643.458 -0.860223 -1.35856 0
M  V30 6714 O 644.648 -1.12684 -1.32846 0
M  V30 6715 C 641.78 -2.28974 -2.52555 0
M  V30 6716 H 642.973 -2.88523 -0.818209 0
M  V30 6717 H 640.526 -1.5135 -0.390221 0
M  V30 6718 H 641.261 -1.40611 -2.92231 0
M  V30 6719 H 641.046 -3.10157 -2.39886 0
M  V30 6720 H 642.536 -2.61109 -3.25902 0
M  V30 6721 N 642.974 0.416227 -1.52004 0
M  V30 6722 C 644.199 1.19029 -1.69843 0
M  V30 6723 C 644.624 1.83708 -0.404103 0
M  V30 6724 O 643.982 1.69711 0.637787 0
M  V30 6725 C 644.03 2.23439 -2.83032 0
M  V30 6726 O 643.134 3.29419 -2.48106 0
M  V30 6727 H 642.475 0.347785 -0.565634 0
M  V30 6728 H 645.005 0.488871 -1.98674 0
M  V30 6729 H 645.015 2.67884 -3.07737 0
M  V30 6730 H 643.69 1.75745 -3.76944 0
M  V30 6731 H 642.267 2.90303 -2.34048 0
M  V30 6732 N 644.452 1.42507 0.673017 0
M  V30 6733 C 645.385 1.40557 1.79774 0
M  V30 6734 C 646.363 0.269606 1.60349 0
M  V30 6735 O 647.547 0.460105 1.82798 0
M  V30 6736 C 644.674 1.19815 3.168 0
M  V30 6737 C 643.72 2.36429 3.5497 0
M  V30 6738 S 644.553 3.98963 3.57196 0
M  V30 6739 C 645.709 3.80567 4.9691 0
M  V30 6740 H 645.942 2.35734 1.81154 0
M  V30 6741 H 643.475 1.293 0.843846 0
M  V30 6742 H 645.433 1.08535 3.95892 0
M  V30 6743 H 644.094 0.262215 3.13004 0
M  V30 6744 H 643.287 2.17669 4.54573 0
M  V30 6745 H 642.889 2.44233 2.83242 0
M  V30 6746 H 645.181 3.41668 5.85038 0
M  V30 6747 H 646.124 4.79852 5.20718 0
M  V30 6748 H 646.532 3.13399 4.69512 0
M  V30 6749 N 645.93 -0.909495 1.28709 0
M  V30 6750 C 646.878 -2.03381 1.12866 0
M  V30 6751 C 647.872 -1.69335 0.0468074 0
M  V30 6752 O 649.078 -1.78819 0.205891 0
M  V30 6753 H 645.453 -0.666452 0.348348 0
M  V30 6754 H 647.424 -2.13885 2.08077 0
M  V30 6755 C 646.173 -3.38092 0.811742 0
M  V30 6756 H 645.496 -3.64786 1.63619 0
M  V30 6757 H 646.936 -4.17477 0.740869 0
M  V30 6758 C 645.395 -3.33395 -0.484679 0
M  V30 6759 O 645.925 -3.72089 -1.5137 0
M  V30 6760 N 644.131 -2.86491 -0.486961 0
M  V30 6761 H 643.678 -2.55199 0.350877 0
M  V30 6762 H 643.636 -2.83731 -1.3544 0
M  V30 6763 N 647.408 -1.11026 -1.11852 0
M  V30 6764 C 648.633 -0.879064 -1.87849 0
M  V30 6765 C 649.058 0.565406 -1.79401 0
M  V30 6766 O 648.416 1.39886 -1.15333 0
M  V30 6767 C 648.464 -1.33985 -3.34784 0
M  V30 6768 O 647.568 -0.508803 -4.09249 0
M  V30 6769 H 646.909 -0.316992 -0.583448 0
M  V30 6770 H 649.439 -1.47863 -1.41413 0
M  V30 6771 H 649.449 -1.33248 -3.85628 0
M  V30 6772 H 648.124 -2.39172 -3.40249 0
M  V30 6773 H 646.701 -0.581913 -3.68332 0
M  V30 6774 N 648.886 1.2938 -0.899927 0
M  V30 6775 C 650.134 1.95164 -0.524924 0
M  V30 6776 C 650.455 1.71292 0.931888 0
M  V30 6777 O 649.725 1.04481 1.65712 0
M  V30 6778 H 648.305 0.722133 -0.191135 0
M  V30 6779 H 650.967 1.57628 -1.14627 0
M  V30 6780 H 650.063 3.0397 -0.707711 0
M  V30 6781 N 650.364 0.662433 1.43002 0
M  V30 6782 C 651.61 0.179857 2.02001 0
M  V30 6783 C 651.943 -1.20625 1.52195 0
M  V30 6784 O 651.218 -1.80726 0.718911 0
M  V30 6785 C 651.501 0.200845 3.59539 0
M  V30 6786 C 651.354 1.62153 4.19555 0
M  V30 6787 C 652.673 -0.457738 4.37713 0
M  V30 6788 H 649.792 0.0668305 0.733964 0
M  V30 6789 H 652.434 0.84487 1.70182 0
M  V30 6790 H 650.584 -0.365411 3.86778 0
M  V30 6791 H 652.256 2.23908 4.03315 0
M  V30 6792 H 650.499 2.16601 3.75854 0
M  V30 6793 H 651.17 1.58799 5.28665 0
M  V30 6794 H 653.646 0.0241495 4.16093 0
M  V30 6795 H 652.522 -0.412363 5.47349 0
M  V30 6796 H 652.783 -1.53336 4.14657 0
M  V30 6797 N 651.842 -1.52309 0.404946 0
M  V30 6798 C 652.772 -2.29805 -0.41376 0
M  V30 6799 C 653.753 -1.3384 -1.0498 0
M  V30 6800 O 654.938 -1.62745 -1.05961 0
M  V30 6801 C 652.068 -3.11639 -1.53292 0
M  V30 6802 C 651.022 -4.15616 -1.02211 0
M  V30 6803 C 650.348 -4.8577 -2.23455 0
M  V30 6804 C 651.648 -5.2224 -0.0790725 0
M  V30 6805 H 653.342 -2.98493 0.232878 0
M  V30 6806 H 650.888 -1.43552 0.113441 0
M  V30 6807 H 652.841 -3.64618 -2.11262 0
M  V30 6808 H 651.565 -2.40712 -2.20738 0
M  V30 6809 H 650.224 -3.63641 -0.46484 0
M  V30 6810 H 649.872 -4.11376 -2.89445 0
M  V30 6811 H 649.572 -5.56058 -1.89929 0
M  V30 6812 H 651.096 -5.4156 -2.82038 0
M  V30 6813 H 652.51 -5.70485 -0.567438 0
M  V30 6814 H 650.907 -5.99867 0.167167 0
M  V30 6815 H 651.977 -4.77078 0.867447 0
M  V30 6816 N 653.32 -0.135238 -1.57019 0
M  V30 6817 C 654.25 0.805235 -2.19176 0
M  V30 6818 C 655.231 1.2656 -1.13651 0
M  V30 6819 O 656.416 1.32528 -1.4195 0
M  V30 6820 C 653.546 2.04914 -2.80406 0
M  V30 6821 C 652.5 1.72598 -3.91655 0
M  V30 6822 C 651.826 3.04154 -4.39766 0
M  V30 6823 C 653.126 0.981709 -5.12991 0
M  V30 6824 H 654.82 0.287232 -2.98019 0
M  V30 6825 H 652.366 0.136714 -1.4335 0
M  V30 6826 H 654.319 2.71178 -3.22553 0
M  V30 6827 H 653.043 2.59067 -1.98877 0
M  V30 6828 H 651.702 1.08717 -3.50109 0
M  V30 6829 H 651.35 3.56274 -3.55075 0
M  V30 6830 H 651.05 2.83299 -5.14796 0
M  V30 6831 H 652.574 3.71509 -4.84576 0
M  V30 6832 H 653.988 1.5462 -5.52056 0
M  V30 6833 H 652.385 0.873533 -5.93708 0
M  V30 6834 H 653.455 -0.0286887 -4.84892 0
M  V30 6835 N 654.798 1.5699 0.138552 0
M  V30 6836 C 656.044 1.84081 0.85099 0
M  V30 6837 C 656.377 0.718107 1.80435 0
M  V30 6838 O 655.652 -0.277633 1.92508 0
M  V30 6839 C 655.935 3.21699 1.61808 0
M  V30 6840 C 655.788 4.44544 0.685633 0
M  V30 6841 C 657.107 3.5664 2.57868 0
M  V30 6842 H 654.226 0.669592 0.307922 0
M  V30 6843 H 656.868 1.89646 0.11588 0
M  V30 6844 H 655.018 3.17086 2.24474 0
M  V30 6845 H 656.69 4.61248 0.0693179 0
M  V30 6846 H 654.933 4.338 -0.00421993 0
M  V30 6847 H 655.604 5.3746 1.25858 0
M  V30 6848 H 658.08 3.61918 2.05316 0
M  V30 6849 H 656.956 4.53946 3.08584 0
M  V30 6850 H 657.217 2.83036 3.39622 0
M  V30 6851 N 656.276 -0.40816 1.52223 0
M  V30 6852 C 657.692 -0.74685 1.41047 0
M  V30 6853 C 657.892 -1.94788 0.51573 0
M  V30 6854 O 656.948 -2.52494 -0.0181156 0
M  V30 6855 C 658.261 -0.999878 2.83589 0
M  V30 6856 C 659.809 -1.10253 2.92939 0
M  V30 6857 C 660.284 -1.38832 4.36451 0
M  V30 6858 N 661.775 -1.45694 4.3969 0
M  V30 6859 C 662.51 -1.69435 5.47795 0
M  V30 6860 N 662.006 -1.90774 6.66016 0
M  V30 6861 N 663.799 -1.71458 5.35312 0
M  V30 6862 H 655.95 0.382409 2.08929 0
M  V30 6863 H 658.213 0.108807 0.941735 0
M  V30 6864 H 657.919 -0.189723 3.51188 0
M  V30 6865 H 657.793 -1.91978 3.24691 0
M  V30 6866 H 660.18 -1.90328 2.2552 0
M  V30 6867 H 660.261 -0.160973 2.55293 0
M  V30 6868 H 659.905 -0.592741 5.04429 0
M  V30 6869 H 659.835 -2.34241 4.71634 0
M  V30 6870 H 662.326 -1.3099 3.54472 0
M  V30 6871 H 662.639 -2.08342 7.44186 0
M  V30 6872 H 660.984 -1.88037 6.69079 0
M  V30 6873 H 664.175 -1.54326 4.41929 0
M  V30 6874 H 664.348 -1.89621 6.19635 0
M  V30 6875 N 657.755 -1.42862 -0.66545 0
M  V30 6876 C 659.166 -1.3901 -1.24632 0
M  V30 6877 C 659.517 -0.0880285 -1.96002 0
M  V30 6878 O 658.642 0.812947 -2.0055 0
M  V30 6879 C 659.237 -2.51806 -2.2667 0
M  V30 6880 C 657.796 -2.51257 -2.80262 0
M  V30 6881 C 656.943 -2.30124 -1.5472 0
M  V30 6882 H 659.894 -1.5194 -0.458237 0
M  V30 6883 H 659.915 -2.22593 -3.08598 0
M  V30 6884 H 659.427 -3.46558 -1.74697 0
M  V30 6885 H 657.528 -1.60349 -3.36332 0
M  V30 6886 H 657.641 -3.48614 -3.28641 0
M  V30 6887 H 656.005 -1.7856 -1.81627 0
M  V30 6888 H 656.788 -3.26945 -1.04699 0
M  V30 6889 N 659.233 0.902656 -1.29189 0
M  V30 6890 C 660.458 1.69167 -1.19989 0
M  V30 6891 C 660.883 1.86607 0.236495 0
M  V30 6892 O 660.241 1.38425 1.17082 0
M  V30 6893 C 660.289 3.05532 -1.91527 0
M  V30 6894 O 659.393 3.93621 -1.2303 0
M  V30 6895 H 658.734 0.517584 -0.415936 0
M  V30 6896 H 661.264 1.12785 -1.70706 0
M  V30 6897 H 661.274 3.55693 -1.99866 0
M  V30 6898 H 659.949 2.92156 -2.96003 0
M  V30 6899 H 658.526 3.52055 -1.22928 0
M  V30 6900 N 660.711 1.11618 1.11262 0
M  V30 6901 C 662.127 0.850468 1.35053 0
M  V30 6902 C 662.327 -0.523868 1.94571 0
M  V30 6903 O 661.383 -1.2743 2.17986 0
M  V30 6904 C 662.696 1.96005 2.28041 0
M  V30 6905 C 664.244 1.98993 2.416 0
M  V30 6906 C 664.719 3.0916 3.37911 0
M  V30 6907 N 666.21 3.08547 3.45475 0
M  V30 6908 C 666.945 3.9043 4.19943 0
M  V30 6909 N 666.441 4.8228 4.97371 0
M  V30 6910 N 668.234 3.786 4.15474 0
M  V30 6911 H 660.385 2.00184 0.709932 0
M  V30 6912 H 662.648 0.870635 0.375099 0
M  V30 6913 H 662.354 2.9499 1.91503 0
M  V30 6914 H 662.228 1.85782 3.28275 0
M  V30 6915 H 664.615 1.00633 2.77411 0
M  V30 6916 H 664.696 2.13292 1.4121 0
M  V30 6917 H 664.34 4.07748 3.02827 0
M  V30 6918 H 664.27 2.92102 4.3816 0
M  V30 6919 H 666.761 2.42 2.90249 0
M  V30 6920 H 667.074 5.41289 5.51567 0
M  V30 6921 H 665.419 4.863 4.96525 0
M  V30 6922 H 668.61 3.06185 3.54074 0
M  V30 6923 H 668.783 4.42647 4.73253 0
M  V30 6924 N 662.189 -1.289 0.906776 0
M  V30 6925 C 663.119 -2.29932 0.406659 0
M  V30 6926 C 664.1 -1.6189 -0.522061 0
M  V30 6927 O 665.285 -1.8935 -0.431283 0
M  V30 6928 C 662.415 -3.45425 -0.360366 0
M  V30 6929 C 661.369 -4.25316 0.478574 0
M  V30 6930 C 660.695 -5.33076 -0.416373 0
M  V30 6931 C 661.995 -4.92739 1.7322 0
M  V30 6932 H 663.689 -2.72013 1.25097 0
M  V30 6933 H 661.235 -1.30768 0.602977 0
M  V30 6934 H 663.188 -4.15186 -0.721029 0
M  V30 6935 H 661.912 -3.02206 -1.23852 0
M  V30 6936 H 660.571 -3.57273 0.821662 0
M  V30 6937 H 660.219 -4.86101 -1.29287 0
M  V30 6938 H 659.919 -5.8743 0.141309 0
M  V30 6939 H 661.443 -6.05686 -0.773072 0
M  V30 6940 H 662.857 -5.54898 1.44086 0
M  V30 6941 H 661.254 -5.57057 2.23175 0
M  V30 6942 H 662.324 -4.17625 2.46408 0
M  V30 6943 N 663.667 -0.670007 -1.42649 0
M  V30 6944 C 664.892 -0.196955 -2.06463 0
M  V30 6945 C 665.317 1.1352 -1.49983 0
M  V30 6946 O 664.675 1.705 -0.616397 0
M  V30 6947 C 664.723 -0.137381 -3.60338 0
M  V30 6948 O 663.827 0.895523 -4.02559 0
M  V30 6949 H 663.168 -0.102579 -0.656029 0
M  V30 6950 H 665.698 -0.917669 -1.82866 0
M  V30 6951 H 665.708 0.0403625 -4.0798 0
M  V30 6952 H 664.383 -1.10977 -4.0082 0
M  V30 6953 H 662.96 0.689209 -3.66476 0
M  V30 6954 N 665.145 1.52092 -0.413018 0
M  V30 6955 C 666.37 2.06756 0.163338 0
M  V30 6956 C 666.795 1.28073 1.37764 0
M  V30 6957 O 666.153 0.312015 1.78595 0
M  V30 6958 C 666.201 3.57278 0.488322 0
M  V30 6959 O 665.305 3.80986 1.57871 0
M  V30 6960 H 664.646 0.663882 0.0125068 0
M  V30 6961 H 667.176 1.95988 -0.587339 0
M  V30 6962 H 667.186 4.01125 0.745836 0
M  V30 6963 H 665.861 4.13978 -0.399327 0
M  V30 6964 H 664.438 3.49017 1.31306 0
M  V30 6965 N 666.623 0.143563 1.56945 0
M  V30 6966 C 667.848 -0.518701 2.00809 0
M  V30 6967 C 668.273 -1.5785 1.02298 0
M  V30 6968 O 667.631 -1.813 -0.0017839 0
M  V30 6969 C 667.679 -1.09929 3.43436 0
M  V30 6970 O 666.783 -2.21425 3.47915 0
M  V30 6971 H 666.124 -0.127215 0.6517 0
M  V30 6972 H 668.654 0.239283 2.03196 0
M  V30 6973 H 668.664 -1.4288 3.82164 0
M  V30 6974 H 667.339 -0.323162 4.14643 0
M  V30 6975 H 665.916 -1.89728 3.21026 0
M  V30 6976 N 668.101 -1.57061 -0.130224 0
M  V30 6977 C 669.349 -1.83893 -0.838313 0
M  V30 6978 C 669.67 -0.727046 -1.80939 0
M  V30 6979 O 668.94 0.249927 -1.94299 0
M  V30 6980 H 667.52 -0.67846 -0.312573 0
M  V30 6981 H 670.182 -1.94529 -0.120224 0
M  V30 6982 H 669.278 -2.79419 -1.39038 0
M  V30 6983 N 669.579 0.400081 -1.52437 0
M  V30 6984 C 670.807 1.16768 -1.70801 0
M  V30 6985 C 671.222 1.84036 -0.421462 0
M  V30 6986 O 670.579 1.72242 0.603228 0
M  V30 6987 C 670.63 2.22403 -2.8499 0
M  V30 6988 O 670.351 1.57879 -4.08663 0
M  V30 6989 C 671.852 3.11974 -3.1494 0
M  V30 6990 H 669.072 0.350533 -0.57216 0
M  V30 6991 H 671.616 0.469534 -1.99037 0
M  V30 6992 H 669.771 2.87871 -2.59247 0
M  V30 6993 H 670.185 2.27982 -4.7236 0
M  V30 6994 H 671.659 3.82148 -3.9833 0
M  V30 6995 H 672.136 3.74858 -2.28863 0
M  V30 6996 H 672.742 2.52165 -3.42481 0
M  V30 6997 N 671.057 1.43213 0.657864 0
M  V30 6998 C 672.468 1.39669 1.23893 0
M  V30 6999 C 672.819 0.0984217 1.95953 0
M  V30 7000 O 671.944 -0.8023 2.00978 0
M  V30 7001 C 672.539 2.53004 2.25332 0
M  V30 7002 C 671.098 2.5274 2.78926 0
M  V30 7003 C 670.245 2.30941 1.53497 0
M  V30 7004 H 673.196 1.52181 0.450172 0
M  V30 7005 H 673.217 2.24226 3.07413 0
M  V30 7006 H 672.729 3.4748 1.72856 0
M  V30 7007 H 670.83 1.6213 3.35477 0
M  V30 7008 H 670.943 3.50352 3.26787 0
M  V30 7009 H 669.307 1.7952 1.80678 0
M  V30 7010 H 670.09 3.27496 1.02963 0
M  V30 7011 N 672.536 -0.895792 1.29666 0
M  V30 7012 C 673.469 -2.00238 1.09453 0
M  V30 7013 C 674.447 -1.62599 0.00527044 0
M  V30 7014 O 675.631 -1.87847 0.156729 0
M  V30 7015 C 672.758 -3.32066 0.667054 0
M  V30 7016 C 671.804 -3.88691 1.7556 0
M  V30 7017 S 672.637 -4.17317 3.35569 0
M  V30 7018 C 673.793 -5.52181 2.94698 0
M  V30 7019 H 674.026 -2.17076 2.03138 0
M  V30 7020 H 671.559 -1.04287 1.13858 0
M  V30 7021 H 673.517 -4.08272 0.427136 0
M  V30 7022 H 672.178 -3.13101 -0.250256 0
M  V30 7023 H 671.371 -4.83918 1.40853 0
M  V30 7024 H 670.973 -3.19187 1.94924 0
M  V30 7025 H 673.265 -6.3281 2.41986 0
M  V30 7026 H 674.208 -5.91817 3.88791 0
M  V30 7027 H 674.616 -5.14225 2.32879 0
M  V30 7028 N 674.014 -1.12206 -1.10668 0
M  V30 7029 C 674.944 -0.810086 -2.18997 0
M  V30 7030 C 675.925 0.225065 -1.68604 0
M  V30 7031 O 677.11 0.086783 -1.94006 0
M  V30 7032 C 674.24 -0.261262 -3.46316 0
M  V30 7033 C 673.194 -1.2292 -4.09969 0
M  V30 7034 C 672.52 -0.540713 -5.31959 0
M  V30 7035 C 673.82 -2.58295 -4.53962 0
M  V30 7036 H 675.514 -1.7159 -2.45352 0
M  V30 7037 H 673.06 -0.82646 -1.17922 0
M  V30 7038 H 675.013 -0.0307522 -4.21389 0
M  V30 7039 H 673.737 0.679879 -3.19445 0
M  V30 7040 H 672.396 -1.44548 -3.369 0
M  V30 7041 H 672.044 0.405492 -5.01363 0
M  V30 7042 H 671.744 -1.18637 -5.75499 0
M  V30 7043 H 673.268 -0.319184 -6.09765 0
M  V30 7044 H 674.682 -2.40709 -5.20319 0
M  V30 7045 H 673.079 -3.18916 -5.08343 0
M  V30 7046 H 674.149 -3.16918 -3.67002 0
M  V30 7047 N 675.492 1.28418 -0.913599 0
M  V30 7048 C 676.455 2.25564 -0.406624 0
M  V30 7049 C 677.455 1.5387 0.466965 0
M  V30 7050 O 678.645 1.72094 0.270042 0
M  V30 7051 C 675.777 3.38339 0.417053 0
M  V30 7052 H 676.97 2.71926 -1.26477 0
M  V30 7053 H 674.523 1.40098 -0.692986 0
M  V30 7054 H 675.258 2.97339 1.29461 0
M  V30 7055 H 675.043 3.91542 -0.209102 0
M  V30 7056 H 676.533 4.10578 0.762602 0
M  V30 7057 N 676.97 0.677563 1.42291 0
M  V30 7058 C 678.218 0.200578 2.01102 0
M  V30 7059 C 678.539 -1.19803 1.53858 0
M  V30 7060 O 677.809 -1.80496 0.761439 0
M  V30 7061 H 676.389 0.0711634 0.743603 0
M  V30 7062 H 679.051 0.874691 1.7417 0
M  V30 7063 H 678.147 0.204 3.11433 0
M  V30 7064 N 678.448 -1.51871 0.421078 0
M  V30 7065 C 679.694 -2.02237 -0.151014 0
M  V30 7066 C 680.027 -1.30554 -1.43768 0
M  V30 7067 O 679.302 -0.41546 -1.90011 0
M  V30 7068 C 679.585 -3.5802 -0.386482 0
M  V30 7069 C 679.438 -4.40339 0.9177 0
M  V30 7070 C 680.757 -4.24444 -1.16342 0
M  V30 7071 H 677.876 -0.735062 -0.0534102 0
M  V30 7072 H 680.518 -1.81656 0.556888 0
M  V30 7073 H 678.668 -3.75688 -0.989494 0
M  V30 7074 H 680.34 -4.34357 1.55344 0
M  V30 7075 H 678.583 -4.06073 1.526 0
M  V30 7076 H 679.254 -5.47451 0.707187 0
M  V30 7077 H 681.73 -4.10948 -0.652788 0
M  V30 7078 H 680.606 -5.33358 -1.29693 0
M  V30 7079 H 680.867 -3.84204 -2.18724 0
M  V30 7080 N 679.926 -0.151884 -1.56866 0
M  V30 7081 C 681.151 0.508044 -2.01081 0
M  V30 7082 C 681.576 1.57306 -1.03134 0
M  V30 7083 O 680.934 1.81298 -0.0078309 0
M  V30 7084 C 680.982 1.08106 -3.44014 0
M  V30 7085 O 680.086 2.19577 -3.49084 0
M  V30 7086 H 679.427 0.123757 -0.652365 0
M  V30 7087 H 681.957 -0.250055 -2.03066 0
M  V30 7088 H 681.967 1.40851 -3.82916 0
M  V30 7089 H 680.642 0.301168 -4.14808 0
M  V30 7090 H 679.219 1.88023 -3.22027 0
M  V30 7091 N 681.404 1.57128 0.121893 0
M  V30 7092 C 682.314 2.03425 1.16857 0
M  V30 7093 C 683.33 0.954108 1.45509 0
M  V30 7094 O 684.506 1.26541 1.56682 0
M  V30 7095 C 681.571 2.42685 2.47599 0
M  V30 7096 C 680.632 3.64767 2.2637 0
M  V30 7097 C 679.865 4.02145 3.50878 0
M  V30 7098 O 680.088 3.39897 4.58068 0
M  V30 7099 O 679.022 4.95262 3.42051 0
M  V30 7100 H 682.848 2.92825 0.80544 0
M  V30 7101 H 680.433 1.45654 0.332477 0
M  V30 7102 H 682.315 2.68684 3.24634 0
M  V30 7103 H 680.99 1.56432 2.83392 0
M  V30 7104 H 679.897 3.43922 1.47203 0
M  V30 7105 H 681.23 4.51716 1.95482 0
M  V30 7106 N 682.882 -0.391992 1.52647 0
M  V30 7107 C 684.112 -1.15692 1.71169 0
M  V30 7108 C 684.52 -1.84285 0.428444 0
M  V30 7109 O 683.863 -1.73393 -0.606669 0
M  V30 7110 C 683.925 -2.25033 2.80357 0
M  V30 7111 C 683.589 -1.76433 4.21569 0
M  V30 7112 C 684.586 -1.2427 5.0483 0
M  V30 7113 C 682.271 -1.82746 4.67877 0
M  V30 7114 C 684.265 -0.790657 6.32477 0
M  V30 7115 C 681.952 -1.37153 5.9551 0
M  V30 7116 C 682.95 -0.853997 6.7764 0
M  V30 7117 O 682.638 -0.404708 8.02881 0
M  V30 7118 H 682.37 -0.35297 0.576531 0
M  V30 7119 H 684.924 -0.464994 2.00067 0
M  V30 7120 H 683.154 -2.97641 2.46874 0
M  V30 7121 H 684.843 -2.86718 2.87311 0
M  V30 7122 H 685.609 -1.18752 4.70237 0
M  V30 7123 H 681.488 -2.21971 4.04042 0
M  V30 7124 H 685.032 -0.386024 6.96531 0
M  V30 7125 H 680.929 -1.42356 6.29607 0
M  V30 7126 H 681.697 -0.526459 8.16805 0
M  V30 7127 N 684.36 -1.4356 -0.65026 0
M  V30 7128 C 685.27 -1.514 -1.79207 0
M  V30 7129 C 686.286 -0.400895 -1.69319 0
M  V30 7130 O 687.462 -0.655458 -1.90436 0
M  V30 7131 C 684.527 -1.43737 -3.155 0
M  V30 7132 C 683.588 -2.65743 -3.37163 0
M  V30 7133 C 682.821 -2.58436 -4.66954 0
M  V30 7134 O 683.044 -1.63374 -5.46503 0
M  V30 7135 O 681.978 -3.48984 -4.90402 0
M  V30 7136 H 685.804 -2.47825 -1.75547 0
M  V30 7137 H 683.389 -1.25594 -0.809111 0
M  V30 7138 H 685.271 -1.41916 -3.96784 0
M  V30 7139 H 683.946 -0.504488 -3.19745 0
M  V30 7140 H 682.853 -2.73136 -2.55632 0
M  V30 7141 H 684.186 -3.58014 -3.37768 0
M  V30 7142 N 685.838 0.888903 -1.30139 0
M  V30 7143 C 686.768 2.01046 -1.18755 0
M  V30 7144 C 687.749 1.69916 -0.0791438 0
M  V30 7145 O 688.934 1.92445 -0.260498 0
M  V30 7146 C 686.064 3.36109 -0.874518 0
M  V30 7147 C 685.018 3.81486 -1.94043 0
M  V30 7148 C 684.344 5.13796 -1.48047 0
M  V30 7149 C 685.644 4.00637 -3.35093 0
M  V30 7150 H 687.338 2.10828 -2.12584 0
M  V30 7151 H 684.884 1.01298 -1.02346 0
M  V30 7152 H 686.837 4.14089 -0.781548 0
M  V30 7153 H 685.561 3.26449 0.0994519 0
M  V30 7154 H 684.22 3.05731 -2.02297 0
M  V30 7155 H 683.868 5.0056 -0.494878 0
M  V30 7156 H 683.568 5.45127 -2.19341 0
M  V30 7157 H 685.092 5.94305 -1.40121 0
M  V30 7158 H 686.506 4.69067 -3.2962 0
M  V30 7159 H 684.903 4.43339 -4.04438 0
M  V30 7160 H 685.973 3.0462 -3.77273 0
M  V30 7161 N 687.317 1.12792 1.10072 0
M  V30 7162 C 688.728 0.899346 1.63611 0
M  V30 7163 C 689.079 -0.565547 1.87872 0
M  V30 7164 O 688.204 -1.43081 1.62348 0
M  V30 7165 C 688.799 1.62608 2.97227 0
M  V30 7166 C 687.358 1.44356 3.47618 0
M  V30 7167 C 686.505 1.65958 2.22156 0
M  V30 7168 H 689.456 1.28216 0.935223 0
M  V30 7169 H 689.477 1.0793 3.64872 0
M  V30 7170 H 688.989 2.69221 2.79538 0
M  V30 7171 H 687.09 0.400148 3.70445 0
M  V30 7172 H 687.203 2.20218 4.25489 0
M  V30 7173 H 685.567 1.08395 2.30484 0
M  V30 7174 H 686.35 2.73877 2.06993 0
M  V30 7175 N 688.795 -1.27931 0.920396 0
M  V30 7176 C 689.705 -2.30824 0.419212 0
M  V30 7177 C 690.721 -1.66767 -0.496461 0
M  V30 7178 O 691.897 -1.97763 -0.38104 0
M  V30 7179 C 688.962 -3.45158 -0.326601 0
M  V30 7180 C 688.023 -4.24754 0.623098 0
M  V30 7181 C 687.256 -5.33629 -0.0872172 0
M  V30 7182 O 687.479 -5.55204 -1.30784 0
M  V30 7183 O 686.413 -5.99091 0.580875 0
M  V30 7184 H 690.239 -2.75716 1.27337 0
M  V30 7185 H 687.824 -1.32747 0.685465 0
M  V30 7186 H 689.706 -4.14716 -0.747559 0
M  V30 7187 H 688.381 -3.02336 -1.15648 0
M  V30 7188 H 687.288 -3.57759 1.09359 0
M  V30 7189 H 688.621 -4.71272 1.41998 0
M  V30 7190 N 690.273 -0.685099 -1.4193 0
M  V30 7191 C 691.55 -0.140152 -1.95097 0
M  V30 7192 C 691.93 1.34745 -1.62502 0
M  V30 7193 O 691.278 2.08872 -0.926534 0
M  V30 7194 C 691.488 -0.420268 -3.4646 0
M  V30 7195 C 692.836 -0.342338 -4.23218 0
M  V30 7196 O 693.86 -0.354592 -3.54431 0
M  V30 7197 O 692.719 -0.293404 -5.45712 0
M  V30 7198 H 689.813 -0.00885998 -0.826953 0
M  V30 7199 H 692.359 -0.760539 -1.51703 0
M  V30 7200 H 691.131 -1.45037 -3.63428 0
M  V30 7201 H 690.754 0.231616 -3.96925 0
M  V30 7202 N 691.751 1.51645 -0.429126 0
M  V30 7203 C 693.162 1.86665 0.0359003 0
M  V30 7204 C 693.513 1.34677 1.42676 0
M  V30 7205 O 692.638 0.694195 2.04963 0
M  V30 7206 C 693.233 3.38724 0.0719221 0
M  V30 7207 C 691.792 3.7331 0.481336 0
M  V30 7208 C 690.939 2.75313 -0.331329 0
M  V30 7209 H 693.89 1.44987 -0.645333 0
M  V30 7210 H 693.911 3.7011 0.883118 0
M  V30 7211 H 693.423 3.76532 -0.940495 0
M  V30 7212 H 691.524 3.41088 1.49966 0
M  V30 7213 H 691.637 4.78631 0.211837 0
M  V30 7214 H 690.001 2.53839 0.209204 0
M  V30 7215 H 690.784 3.15963 -1.34247 0
M  V30 7216 N 693.229 0.160201 1.56784 0
M  V30 7217 C 694.645 -0.196089 1.58391 0
M  V30 7218 C 694.845 -1.63689 1.17508 0
M  V30 7219 O 693.901 -2.36613 0.881506 0
M  V30 7220 C 695.214 0.0746449 3.00607 0
M  V30 7221 C 696.762 0.0119762 3.12998 0
M  V30 7222 C 697.237 0.255551 4.57286 0
M  V30 7223 N 698.728 0.202938 4.62755 0
M  V30 7224 C 699.463 0.365731 5.72232 0
M  V30 7225 N 698.959 0.586972 6.90309 0
M  V30 7226 N 700.752 0.302411 5.61286 0
M  V30 7227 H 692.903 1.1008 1.81648 0
M  V30 7228 H 695.166 0.436779 0.841384 0
M  V30 7229 H 694.872 1.07231 3.34954 0
M  V30 7230 H 694.746 -0.638802 3.71751 0
M  V30 7231 H 697.133 -0.976254 2.78484 0
M  V30 7232 H 697.214 0.75796 2.44313 0
M  V30 7233 H 696.858 1.24094 4.92507 0
M  V30 7234 H 696.788 -0.510912 5.24116 0
M  V30 7235 H 699.279 0.0371328 3.77882 0
M  V30 7236 H 699.592 0.700941 7.69615 0
M  V30 7237 H 697.937 0.623453 6.92198 0
M  V30 7238 H 701.128 0.130238 4.67919 0
M  V30 7239 H 701.301 0.432712 6.46554 0
M  V30 7240 N 694.707 -1.5719 -0.113559 0
M  V30 7241 C 695.953 -1.86289 -0.816583 0
M  V30 7242 C 696.308 -0.748672 -1.77236 0
M  V30 7243 O 695.601 0.250889 -1.8995 0
M  V30 7244 C 695.795 -3.19593 -1.59984 0
M  V30 7245 C 695.624 -4.43876 -0.721414 0
M  V30 7246 C 694.394 -5.03913 -0.374172 0
M  V30 7247 C 696.592 -5.14287 -0.0366045 0
M  V30 7248 N 694.574 -6.11741 0.514352 0
M  V30 7249 C 695.945 -6.15913 0.710706 0
M  V30 7250 C 698 -4.97885 0.039247 0
M  V30 7251 C 696.703 -7.0291 1.52675 0
M  V30 7252 C 698.729 -5.85373 0.842135 0
M  V30 7253 C 698.091 -6.86506 1.57762 0
M  V30 7254 H 694.19 -0.731839 -0.275564 0
M  V30 7255 H 696.774 -1.94535 -0.080033 0
M  V30 7256 H 694.945 -3.12432 -2.30739 0
M  V30 7257 H 696.677 -3.3648 -2.24862 0
M  V30 7258 H 693.432 -4.68131 -0.717653 0
M  V30 7259 H 693.856 -6.70293 0.950623 0
M  V30 7260 H 698.498 -4.19651 -0.51503 0
M  V30 7261 H 696.216 -7.80547 2.09217 0
M  V30 7262 H 699.802 -5.74746 0.903256 0
M  V30 7263 H 698.682 -7.53032 2.1889 0
M  V30 7264 N 696.185 0.383891 -1.52853 0
M  V30 7265 C 697.095 1.49343 -1.80925 0
M  V30 7266 C 698.111 1.59458 -0.696348 0
M  V30 7267 O 699.287 1.75698 -0.984481 0
M  V30 7268 C 696.352 2.84819 -1.97684 0
M  V30 7269 C 695.413 2.84382 -3.21598 0
M  V30 7270 C 694.646 4.13397 -3.37548 0
M  V30 7271 O 694.869 5.08619 -2.58192 0
M  V30 7272 O 693.803 4.20325 -4.30826 0
M  V30 7273 H 697.629 1.2855 -2.75152 0
M  V30 7274 H 695.214 0.572229 -1.38007 0
M  V30 7275 H 697.096 3.65125 -2.10385 0
M  V30 7276 H 695.771 3.05627 -1.06647 0
M  V30 7277 H 694.678 2.0284 -3.14336 0
M  V30 7278 H 696.011 2.68526 -4.12498 0
M  V30 7279 N 697.663 1.43903 0.642637 0
M  V30 7280 C 698.593 1.52697 1.76652 0
M  V30 7281 C 699.574 0.380816 1.65782 0
M  V30 7282 O 700.759 0.599432 1.84717 0
M  V30 7283 C 697.889 1.45975 3.15133 0
M  V30 7284 C 696.843 2.58949 3.40778 0
M  V30 7285 C 696.169 2.37279 4.79169 0
M  V30 7286 C 697.469 4.01153 3.34475 0
M  V30 7287 H 699.163 2.46766 1.69549 0
M  V30 7288 H 696.709 1.18767 0.814279 0
M  V30 7289 H 698.662 1.5073 3.93521 0
M  V30 7290 H 697.386 0.484162 3.22991 0
M  V30 7291 H 696.045 2.53564 2.64765 0
M  V30 7292 H 695.693 1.37939 4.83717 0
M  V30 7293 H 695.393 3.13016 4.97287 0
M  V30 7294 H 696.917 2.43834 5.59801 0
M  V30 7295 H 698.331 4.07968 4.02784 0
M  V30 7296 H 696.728 4.77001 3.64129 0
M  V30 7297 H 697.798 4.25539 2.32475 0
M  V30 7298 N 699.141 -0.881989 1.30609 0
M  V30 7299 C 700.552 -1.44956 1.17664 0
M  V30 7300 C 700.903 -1.94945 -0.221531 0
M  V30 7301 O 700.028 -1.85257 -1.11844 0
M  V30 7302 C 700.623 -2.63474 2.12995 0
M  V30 7303 C 699.182 -3.16312 2.04019 0
M  V30 7304 C 698.329 -1.89008 2.02907 0
M  V30 7305 H 701.28 -0.691645 1.42835 0
M  V30 7306 H 701.301 -3.39783 1.71253 0
M  V30 7307 H 700.813 -2.2706 3.14746 0
M  V30 7308 H 698.914 -3.57376 1.0542 0
M  V30 7309 H 699.027 -3.79409 2.9255 0
M  V30 7310 H 697.391 -2.07465 1.47751 0
M  V30 7311 H 698.174 -1.54848 3.06394 0
M  V30 7312 N 700.619 -1.13374 -1.09472 0
M  V30 7313 C 702.035 -0.871846 -1.33682 0
M  V30 7314 C 702.235 0.492847 -1.9538 0
M  V30 7315 O 701.291 1.23946 -2.19985 0
M  V30 7316 C 702.604 -1.99608 -2.24893 0
M  V30 7317 C 704.152 -2.02812 -2.38404 0
M  V30 7318 C 704.627 -3.14497 -3.3295 0
M  V30 7319 N 706.118 -3.14004 -3.40523 0
M  V30 7320 C 706.853 -3.97061 -4.13679 0
M  V30 7321 N 706.349 -4.90131 -4.89636 0
M  V30 7322 N 708.142 -3.85162 -4.09398 0
M  V30 7323 H 700.293 -2.01288 -0.677995 0
M  V30 7324 H 702.556 -0.876492 -0.361201 0
M  V30 7325 H 702.262 -2.98 -1.86786 0
M  V30 7326 H 702.136 -1.90981 -3.25278 0
M  V30 7327 H 704.523 -1.05034 -2.75775 0
M  V30 7328 H 704.604 -2.15511 -1.37799 0
M  V30 7329 H 704.248 -4.12514 -2.96302 0
M  V30 7330 H 704.178 -2.99035 -4.33458 0
M  V30 7331 H 706.669 -2.46587 -2.86362 0
M  V30 7332 H 706.982 -5.49996 -5.42885 0
M  V30 7333 H 705.327 -4.94138 -4.88726 0
M  V30 7334 H 708.518 -3.11779 -3.49158 0
M  V30 7335 H 708.691 -4.5012 -4.6615 0
M  V30 7336 N 702.098 1.27442 -0.927168 0
M  V30 7337 C 703.375 1.89473 -0.485742 0
M  V30 7338 C 703.755 1.83922 1.03614 0
M  V30 7339 O 703.103 1.28409 1.89007 0
M  V30 7340 C 703.313 3.33417 -1.03123 0
M  V30 7341 C 704.661 4.10333 -1.0914 0
M  V30 7342 O 705.685 3.4243 -0.98082 0
M  V30 7343 O 704.544 5.31737 -1.26165 0
M  V30 7344 H 701.638 0.812124 -0.156154 0
M  V30 7345 H 704.184 1.35713 -1.01882 0
M  V30 7346 H 702.956 3.31747 -2.07508 0
M  V30 7347 H 702.579 3.94695 -0.479767 0
M  V30 7348 N 703.576 0.692616 1.41565 0
M  V30 7349 C 704.992 0.363878 1.55397 0
M  V30 7350 C 705.192 -1.1294 1.66874 0
M  V30 7351 O 704.248 -1.91517 1.64552 0
M  V30 7352 C 705.561 1.10982 2.7947 0
M  V30 7353 C 707.109 1.09387 2.93263 0
M  V30 7354 C 707.584 1.8215 4.20221 0
M  V30 7355 N 709.075 1.79105 4.27172 0
M  V30 7356 C 709.81 2.32247 5.2426 0
M  V30 7357 N 709.306 2.93847 6.27396 0
M  V30 7358 N 711.099 2.22519 5.1618 0
M  V30 7359 H 703.25 1.66116 1.3236 0
M  V30 7360 H 705.513 0.700848 0.63837 0
M  V30 7361 H 705.219 2.1647 2.77188 0
M  V30 7362 H 705.093 0.686492 3.709 0
M  V30 7363 H 707.48 0.0472638 2.95062 0
M  V30 7364 H 707.561 1.55623 2.03015 0
M  V30 7365 H 707.205 2.86789 4.19183 0
M  V30 7366 H 707.135 1.33351 5.09436 0
M  V30 7367 H 709.626 1.34191 3.53272 0
M  V30 7368 H 709.939 3.31972 6.97864 0
M  V30 7369 H 708.284 2.97924 6.27906 0
M  V30 7370 H 711.475 1.7407 4.34531 0
M  V30 7371 H 711.648 2.64239 5.91677 0
M  V30 7372 N 705.054 -1.51416 0.437162 0
M  V30 7373 C 705.984 -2.30631 -0.364922 0
M  V30 7374 C 706.965 -1.36037 -1.02118 0
M  V30 7375 O 708.15 -1.64956 -1.02485 0
M  V30 7376 C 705.28 -3.1482 -1.46648 0
M  V30 7377 C 704.234 -4.17691 -0.933717 0
M  V30 7378 C 703.56 -4.904 -2.13101 0
M  V30 7379 C 704.86 -5.2229 0.0317201 0
M  V30 7380 H 706.554 -2.97932 0.29614 0
M  V30 7381 H 704.1 -1.4328 0.143865 0
M  V30 7382 H 706.053 -3.69017 -2.03481 0
M  V30 7383 H 704.777 -2.4534 -2.15583 0
M  V30 7384 H 703.436 -3.64545 -0.387602 0
M  V30 7385 H 703.084 -4.17423 -2.80654 0
M  V30 7386 H 702.784 -5.59962 -1.78092 0
M  V30 7387 H 704.308 -5.4742 -2.70487 0
M  V30 7388 H 705.722 -5.7156 -0.446302 0
M  V30 7389 H 704.119 -5.99378 0.29437 0
M  V30 7390 H 705.189 -4.75131 0.968447 0
M  V30 7391 N 706.532 -0.168513 -1.56696 0
M  V30 7392 C 707.778 0.477865 -1.9709 0
M  V30 7393 C 708.111 1.63084 -1.05438 0
M  V30 7394 O 707.386 1.94238 -0.10095 0
M  V30 7395 C 707.669 0.963521 -3.4697 0
M  V30 7396 C 707.522 -0.189443 -4.49401 0
M  V30 7397 C 708.841 1.83813 -3.99876 0
M  V30 7398 H 705.96 0.172229 -0.716593 0
M  V30 7399 H 708.602 -0.254083 -1.88293 0
M  V30 7400 H 706.752 1.58724 -3.54597 0
M  V30 7401 H 708.424 -0.826451 -4.53836 0
M  V30 7402 H 706.667 -0.845366 -4.25483 0
M  V30 7403 H 707.338 0.192446 -5.51664 0
M  V30 7404 H 709.814 1.31235 -3.94863 0
M  V30 7405 H 708.69 2.14697 -5.0517 0
M  V30 7406 H 708.951 2.78289 -3.43523 0
M  V30 7407 N 708.01 1.57248 0.105221 0
M  V30 7408 C 708.94 2.04374 1.12931 0
M  V30 7409 C 709.921 0.93074 1.42377 0
M  V30 7410 O 711.106 1.20136 1.52581 0
M  V30 7411 C 708.236 2.45967 2.45189 0
M  V30 7412 C 707.19 3.60838 2.30174 0
M  V30 7413 C 706.516 3.88374 3.67518 0
M  V30 7414 C 707.816 4.92084 1.75073 0
M  V30 7415 H 709.51 2.9018 0.737287 0
M  V30 7416 H 707.056 1.39601 0.353211 0
M  V30 7417 H 709.009 2.77542 3.17094 0
M  V30 7418 H 707.733 1.57148 2.86308 0
M  V30 7419 H 706.392 3.29493 1.60716 0
M  V30 7420 H 706.04 2.96739 4.06147 0
M  V30 7421 H 705.74 4.65703 3.58321 0
M  V30 7422 H 707.264 4.22415 4.40906 0
M  V30 7423 H 708.678 5.22106 2.36809 0
M  V30 7424 H 707.075 5.73507 1.76662 0
M  V30 7425 H 708.145 4.79684 0.709347 0
M  V30 7426 N 709.488 -0.375779 1.53054 0
M  V30 7427 C 710.736 -1.11727 1.68409 0
M  V30 7428 C 711.057 -1.90127 0.43323 0
M  V30 7429 O 710.327 -1.87945 -0.552595 0
M  V30 7430 H 708.907 -0.415451 0.620813 0
M  V30 7431 H 711.569 -0.424869 1.90213 0
M  V30 7432 H 710.665 -1.8128 2.54055 0
M  V30 7433 N 710.966 -1.44241 -0.634997 0
M  V30 7434 C 711.913 -1.5081 -1.74714 0
M  V30 7435 C 712.883 -0.356147 -1.62237 0
M  V30 7436 O 714.068 -0.565848 -1.82216 0
M  V30 7437 C 711.208 -1.45458 -3.12947 0
M  V30 7438 C 710.321 -2.70998 -3.36428 0
M  V30 7439 C 709.456 -2.57507 -4.64611 0
M  V30 7440 C 708.495 -3.78229 -4.81258 0
M  V30 7441 N 707.632 -3.63438 -6.00714 0
M  V30 7442 H 712.472 -2.45832 -1.68436 0
M  V30 7443 H 710.009 -1.2201 -0.821706 0
M  V30 7444 H 711.967 -1.40347 -3.92885 0
M  V30 7445 H 710.597 -0.540058 -3.1825 0
M  V30 7446 H 709.649 -2.86312 -2.50458 0
M  V30 7447 H 710.961 -3.60619 -3.44609 0
M  V30 7448 H 710.115 -2.50207 -5.52703 0
M  V30 7449 H 708.854 -1.65441 -4.58782 0
M  V30 7450 H 707.859 -3.85918 -3.91596 0
M  V30 7451 H 709.084 -4.71327 -4.88904 0
M  V30 7452 H 707.03 -2.7412 -5.95982 0
M  V30 7453 H 706.947 -4.46672 -6.09934 0
M  V30 7454 H 708.215 -3.60022 -6.91378 0
M  V30 7455 N 712.444 0.87505 -1.31075 0
M  V30 7456 C 713.855 1.4433 -1.18431 0
M  V30 7457 C 714.206 1.9506 0.211189 0
M  V30 7458 O 713.331 1.85847 1.10859 0
M  V30 7459 C 713.926 2.62341 -2.14389 0
M  V30 7460 C 712.485 3.15225 -2.05694 0
M  V30 7461 C 711.632 1.87929 -2.03907 0
M  V30 7462 H 714.583 0.684061 -1.432 0
M  V30 7463 H 714.604 3.3887 -1.73053 0
M  V30 7464 H 714.116 2.25388 -3.15946 0
M  V30 7465 H 712.217 3.56812 -1.07314 0
M  V30 7466 H 712.33 3.77853 -2.94558 0
M  V30 7467 H 710.694 2.06679 -1.48849 0
M  V30 7468 H 711.477 1.53221 -3.07211 0
M  V30 7469 N 713.922 1.13953 1.08869 0
M  V30 7470 C 714.852 0.844824 2.17681 0
M  V30 7471 C 715.833 -0.198213 1.68941 0
M  V30 7472 O 717.018 -0.0559073 1.9412 0
M  V30 7473 C 714.148 0.316325 3.45856 0
M  V30 7474 C 713.102 1.29426 4.07962 0
M  V30 7475 C 712.428 0.625275 5.31031 0
M  V30 7476 C 713.728 2.65484 4.49795 0
M  V30 7477 H 715.422 1.75471 2.42591 0
M  V30 7478 H 712.968 0.845116 1.16592 0
M  V30 7479 H 714.921 0.0977876 4.21287 0
M  V30 7480 H 713.645 -0.628972 3.20486 0
M  V30 7481 H 712.304 1.49889 3.34558 0
M  V30 7482 H 711.952 -0.325678 5.01945 0
M  V30 7483 H 711.652 1.27777 5.73539 0
M  V30 7484 H 713.176 0.416152 6.0918 0
M  V30 7485 H 714.59 2.48957 5.16424 0
M  V30 7486 H 712.987 3.26963 5.03205 0
M  V30 7487 H 714.057 3.22717 3.61914 0
M  V30 7488 N 715.4 -1.26948 0.933913 0
M  V30 7489 C 716.648 -1.93704 0.576484 0
M  V30 7490 C 716.969 -1.73702 -0.886145 0
M  V30 7491 O 716.239 -1.08838 -1.62884 0
M  V30 7492 H 714.819 -0.716812 0.210214 0
M  V30 7493 H 717.481 -1.54534 1.18766 0
M  V30 7494 H 716.577 -3.01987 0.788055 0
M  V30 7495 N 716.879 -0.700114 -1.41195 0
M  V30 7496 C 717.789 -0.0382854 -2.34569 0
M  V30 7497 C 718.805 0.761036 -1.56474 0
M  V30 7498 O 719.981 0.697553 -1.88934 0
M  V30 7499 C 717.046 0.883522 -3.35253 0
M  V30 7500 C 716.107 0.0758957 -4.29233 0
M  V30 7501 C 715.34 0.9538 -5.25108 0
M  V30 7502 O 715.563 2.19326 -5.26547 0
M  V30 7503 O 714.497 0.401049 -6.00562 0
M  V30 7504 H 718.323 -0.808073 -2.92752 0
M  V30 7505 H 715.908 -0.460479 -1.42127 0
M  V30 7506 H 717.79 1.41199 -3.9704 0
M  V30 7507 H 716.465 1.63272 -2.79506 0
M  V30 7508 H 715.372 -0.497274 -3.7078 0
M  V30 7509 H 716.705 -0.634741 -4.8809 0
M  V30 7510 N 718.357 1.51182 -0.445186 0
M  V30 7511 C 719.605 2.01753 0.11841 0
M  V30 7512 C 719.926 1.33087 1.42523 0
M  V30 7513 O 719.196 0.467891 1.9023 0
M  V30 7514 H 717.776 0.745536 0.0467492 0
M  V30 7515 H 720.438 1.85765 -0.589688 0
M  V30 7516 H 719.534 3.10762 0.288665 0
M  V30 7517 N 719.835 0.176821 1.56605 0
M  V30 7518 C 721.075 -0.469104 1.98944 0
M  V30 7519 C 721.439 -1.60048 1.06059 0
M  V30 7520 O 722.64 -2.30934 1.3756 0
M  V30 7521 C 720.911 -0.934571 3.44965 0
M  V30 7522 S 722.47 -1.58091 4.09332 0
M  V30 7523 H 719.288 -0.150695 0.694847 0
M  V30 7524 H 721.89 0.27558 1.93548 0
M  V30 7525 H 720.594 -0.100814 4.10276 0
M  V30 7526 H 720.125 -1.71316 3.54139 0
M  V30 7527 H 722.14 -2.86922 4.04834 0
M  V30 7528 N 721.313 -1.57302 -0.09688 0
M  V30 7529 C 722.56 -1.85997 -0.800699 0
M  V30 7530 C 722.888 -0.765089 -1.7882 0
M  V30 7531 O 722.143 0.241492 -1.94204 0
M  V30 7532 C 722.442 -3.21272 -1.56586 0
M  V30 7533 C 722.108 -4.45104 -0.72064 0
M  V30 7534 C 720.77 -4.78723 -0.487632 0
M  V30 7535 C 723.122 -5.2103 -0.132948 0
M  V30 7536 C 720.45 -5.85697 0.34296 0
M  V30 7537 C 722.802 -6.28881 0.684957 0
M  V30 7538 C 721.466 -6.61017 0.928073 0
M  V30 7539 H 720.736 -0.680613 -0.292997 0
M  V30 7540 H 723.383 -1.91399 -0.0622474 0
M  V30 7541 H 721.688 -3.11547 -2.37583 0
M  V30 7542 H 723.385 -3.40702 -2.11478 0
M  V30 7543 H 719.975 -4.18777 -0.912359 0
M  V30 7544 H 724.159 -4.95392 -0.300132 0
M  V30 7545 H 719.415 -6.09008 0.540317 0
M  V30 7546 H 723.589 -6.86886 1.14721 0
M  V30 7547 H 721.216 -7.43738 1.57348 0
M  V30 7548 N 722.791 0.367657 -1.53252 0
M  V30 7549 C 724.039 1.10832 -1.68999 0
M  V30 7550 C 724.36 1.89894 -0.443306 0
M  V30 7551 O 723.63 1.88235 0.54262 0
M  V30 7552 H 722.21 0.412153 -0.623008 0
M  V30 7553 H 724.872 0.414775 -1.90435 0
M  V30 7554 H 723.968 1.7993 -2.55013 0
M  V30 7555 N 724.269 1.44576 0.627338 0
M  V30 7556 C 725.201 1.47724 1.75243 0
M  V30 7557 C 726.214 0.370193 1.58535 0
M  V30 7558 O 727.403 0.636151 1.66779 0
M  V30 7559 C 724.503 1.2991 3.13012 0
M  V30 7560 C 723.676 2.5393 3.56143 0
M  V30 7561 C 722.735 2.30961 4.72804 0
M  V30 7562 O 721.761 3.04469 4.80923 0
M  V30 7563 N 722.963 1.34261 5.6476 0
M  V30 7564 H 725.728 2.44718 1.73012 0
M  V30 7565 H 723.289 1.40064 0.812022 0
M  V30 7566 H 725.281 1.12385 3.88782 0
M  V30 7567 H 723.851 0.412668 3.09864 0
M  V30 7568 H 723.071 2.86707 2.70542 0
M  V30 7569 H 724.359 3.36411 3.81713 0
M  V30 7570 H 723.757 0.735573 5.60897 0
M  V30 7571 H 722.314 1.22713 6.40144 0
M  V30 7572 N 725.747 -0.868086 1.31537 0
M  V30 7573 C 726.993 -1.62367 1.2151 0
M  V30 7574 C 727.326 -1.92883 -0.225819 0
M  V30 7575 O 726.601 -1.56176 -1.15927 0
M  V30 7576 C 726.884 -2.95268 2.06129 0
M  V30 7577 C 726.737 -2.71619 3.58529 0
M  V30 7578 C 728.056 -3.96391 1.91212 0
M  V30 7579 H 725.175 -0.589178 0.442762 0
M  V30 7580 H 727.817 -1.00336 1.61347 0
M  V30 7581 H 725.967 -3.4821 1.72284 0
M  V30 7582 H 727.639 -2.25334 4.0252 0
M  V30 7583 H 725.882 -2.05817 3.81866 0
M  V30 7584 H 726.553 -3.66192 4.13047 0
M  V30 7585 H 729.029 -3.52663 2.20834 0
M  V30 7586 H 727.905 -4.87263 2.52718 0
M  V30 7587 H 728.166 -4.33335 0.875953 0
M  V30 7588 N 727.225 -1.14528 -1.08264 0
M  V30 7589 C 728.471 -0.91576 -1.80947 0
M  V30 7590 C 728.804 0.55623 -1.86064 0
M  V30 7591 O 728.079 1.41207 -1.33756 0
M  V30 7592 C 728.362 -1.51917 -3.26486 0
M  V30 7593 C 728.215 -3.06111 -3.2957 0
M  V30 7594 C 729.534 -1.19724 -4.23502 0
M  V30 7595 H 726.653 -0.334113 -0.656915 0
M  V30 7596 H 729.295 -1.41547 -1.26746 0
M  V30 7597 H 727.445 -1.0942 -3.72773 0
M  V30 7598 H 729.117 -3.57448 -2.91597 0
M  V30 7599 H 727.36 -3.40483 -2.688 0
M  V30 7600 H 728.031 -3.43438 -4.32151 0
M  V30 7601 H 730.507 -1.56467 -3.85561 0
M  V30 7602 H 729.383 -1.64575 -5.23647 0
M  V30 7603 H 729.644 -0.112771 -4.41956 0
M  V30 7604 N 728.703 1.26451 -0.940633 0
M  V30 7605 C 729.633 2.28773 -0.467479 0
M  V30 7606 C 730.614 1.63218 0.478955 0
M  V30 7607 O 731.799 1.90427 0.380929 0
M  V30 7608 C 728.929 3.46259 0.268656 0
M  V30 7609 C 727.883 4.23898 -0.591171 0
M  V30 7610 C 727.209 5.33993 0.274891 0
M  V30 7611 C 728.509 4.87974 -1.86223 0
M  V30 7612 H 730.203 2.68601 -1.32265 0
M  V30 7613 H 727.749 1.29123 -0.637436 0
M  V30 7614 H 729.702 4.16951 0.610696 0
M  V30 7615 H 728.426 3.05383 1.15796 0
M  V30 7616 H 727.085 3.54969 -0.916098 0
M  V30 7617 H 726.733 4.89358 1.16353 0
M  V30 7618 H 726.433 5.86849 -0.297006 0
M  V30 7619 H 727.957 6.07523 0.612213 0
M  V30 7620 H 729.371 5.50883 -1.58747 0
M  V30 7621 H 727.768 5.50945 -2.37866 0
M  V30 7622 H 728.838 4.10945 -2.57394 0
M  V30 7623 N 730.181 0.707592 1.40822 0
M  V30 7624 C 731.144 0.0587224 2.29125 0
M  V30 7625 C 732.144 -0.695624 1.44975 0
M  V30 7626 O 733.334 -0.528718 1.65983 0
M  V30 7627 C 730.466 -0.926939 3.28056 0
M  V30 7628 H 731.659 0.836349 2.88002 0
M  V30 7629 H 729.212 0.471778 1.4901 0
M  V30 7630 H 729.947 -1.7319 2.74182 0
M  V30 7631 H 729.732 -0.389015 3.90165 0
M  V30 7632 H 731.222 -1.37837 3.94196 0
M  V30 7633 N 731.66 -1.50943 0.453197 0
M  V30 7634 C 732.57 -2.31884 -0.355963 0
M  V30 7635 C 733.586 -1.41481 -1.01287 0
M  V30 7636 O 734.762 -1.74546 -1.00477 0
M  V30 7637 C 731.827 -3.15668 -1.43369 0
M  V30 7638 C 730.888 -4.2187 -0.795253 0
M  V30 7639 C 730.121 -5.0165 -1.82162 0
M  V30 7640 O 730.344 -4.82266 -3.04592 0
M  V30 7641 O 729.278 -5.85311 -1.40336 0
M  V30 7642 H 733.104 -3.02162 0.305248 0
M  V30 7643 H 730.689 -1.47839 0.215398 0
M  V30 7644 H 732.571 -3.67709 -2.05836 0
M  V30 7645 H 731.246 -2.48137 -2.07869 0
M  V30 7646 H 730.153 -3.73867 -0.132106 0
M  V30 7647 H 731.486 -4.9182 -0.193484 0
M  V30 7648 N 733.138 -0.185124 -1.56509 0
M  V30 7649 C 734.101 0.72591 -2.17401 0
M  V30 7650 C 735.101 1.14819 -1.12575 0
M  V30 7651 O 736.291 1.0629 -1.38015 0
M  V30 7652 C 733.423 1.98979 -2.76803 0
M  V30 7653 H 734.616 0.195588 -2.99262 0
M  V30 7654 H 732.169 0.0644772 -1.56167 0
M  V30 7655 H 732.904 2.56287 -1.98714 0
M  V30 7656 H 732.689 1.69583 -3.53531 0
M  V30 7657 H 734.179 2.63966 -3.23592 0
M  V30 7658 N 734.616 1.57351 0.0885366 0
M  V30 7659 C 735.865 1.85604 0.789556 0
M  V30 7660 C 736.178 0.775352 1.79576 0
M  V30 7661 O 737.384 0.945206 2.54515 0
M  V30 7662 C 735.84 3.29175 1.45506 0
M  V30 7663 C 735.448 4.45331 0.488278 0
M  V30 7664 C 737.192 3.66646 2.13942 0
M  V30 7665 C 735.099 5.79937 1.15874 0
M  V30 7666 H 734.029 0.692346 0.298619 0
M  V30 7667 H 736.68 1.83451 0.0425821 0
M  V30 7668 H 735.062 3.25889 2.24972 0
M  V30 7669 H 736.236 4.59977 -0.275359 0
M  V30 7670 H 734.551 4.16301 -0.0907363 0
M  V30 7671 H 737.148 4.64498 2.6485 0
M  V30 7672 H 737.491 2.956 2.93132 0
M  V30 7673 H 738.024 3.71848 1.41328 0
M  V30 7674 H 734.763 6.54232 0.407508 0
M  V30 7675 H 734.283 5.69123 1.89364 0
M  V30 7676 H 735.962 6.24718 1.68336 0
M  V30 7677 N 736.094 -0.359525 1.53444 0
M  V30 7678 C 737.342 -1.09935 1.69584 0
M  V30 7679 C 737.663 -1.89656 0.453371 0
M  V30 7680 O 736.933 -1.8852 -0.53263 0
M  V30 7681 H 735.513 -0.408843 0.625185 0
M  V30 7682 H 738.175 -0.40467 1.90653 0
M  V30 7683 H 737.271 -1.78575 2.55964 0
M  V30 7684 N 737.572 -1.44907 -0.619662 0
M  V30 7685 C 738.502 -1.55488 -1.742 0
M  V30 7686 C 739.483 -0.407143 -1.65156 0
M  V30 7687 O 740.668 -0.628743 -1.8374 0
M  V30 7688 C 737.798 -1.5097 -3.1277 0
M  V30 7689 C 736.752 -2.64337 -3.36615 0
M  V30 7690 C 736.078 -2.44872 -4.75333 0
M  V30 7691 C 737.378 -4.06423 -3.28051 0
M  V30 7692 H 739.072 -2.49432 -1.65602 0
M  V30 7693 H 736.618 -1.20047 -0.795281 0
M  V30 7694 H 738.571 -1.56971 -3.91073 0
M  V30 7695 H 737.295 -0.535486 -3.2218 0
M  V30 7696 H 735.954 -2.57744 -2.60698 0
M  V30 7697 H 735.602 -1.45617 -4.81461 0
M  V30 7698 H 735.302 -3.20888 -4.92244 0
M  V30 7699 H 736.826 -2.52709 -5.55851 0
M  V30 7700 H 738.24 -4.14324 -3.96243 0
M  V30 7701 H 736.637 -4.82733 -3.56495 0
M  V30 7702 H 737.707 -4.29183 -2.25676 0
M  V30 7703 N 739.05 0.861098 -1.31996 0
M  V30 7704 C 740.327 1.59788 -1.12814 0
M  V30 7705 C 740.707 2.08753 0.313882 0
M  V30 7706 O 740.055 1.87258 1.30946 0
M  V30 7707 C 740.265 2.74901 -2.15012 0
M  V30 7708 C 741.613 3.44643 -2.48004 0
M  V30 7709 O 742.637 2.85119 -2.13508 0
M  V30 7710 O 741.496 4.52044 -3.07113 0
M  V30 7711 H 738.59 0.703408 -0.434909 0
M  V30 7712 H 741.136 0.905788 -1.43505 0
M  V30 7713 H 739.908 2.36198 -3.11971 0
M  V30 7714 H 739.531 3.51792 -1.85279 0
M  V30 7715 N 740.528 1.15101 1.07655 0
M  V30 7716 C 741.475 0.844958 2.14777 0
M  V30 7717 C 742.445 -0.200798 1.64882 0
M  V30 7718 O 743.63 -0.0690278 1.90675 0
M  V30 7719 C 740.77 0.337018 3.4345 0
M  V30 7720 C 739.883 1.44398 4.07153 0
M  V30 7721 C 739.018 0.892487 5.23649 0
M  V30 7722 C 738.057 1.9766 5.79307 0
M  V30 7723 N 737.194 1.44171 6.87138 0
M  V30 7724 H 742.034 1.76242 2.40297 0
M  V30 7725 H 739.571 0.879435 1.17917 0
M  V30 7726 H 741.529 0.024256 4.17193 0
M  V30 7727 H 740.159 -0.543531 3.18191 0
M  V30 7728 H 739.211 1.87299 3.31094 0
M  V30 7729 H 740.523 2.26262 4.4453 0
M  V30 7730 H 739.677 0.532083 6.04362 0
M  V30 7731 H 738.416 0.0429854 4.87681 0
M  V30 7732 H 737.421 2.34586 4.97242 0
M  V30 7733 H 738.646 2.82982 6.17331 0
M  V30 7734 H 736.592 0.614518 6.53115 0
M  V30 7735 H 736.509 2.19665 7.23383 0
M  V30 7736 H 737.777 1.10945 7.71564 0
M  V30 7737 N 742.006 -1.2595 0.947325 0
M  V30 7738 C 743.283 -1.88676 0.515824 0
M  V30 7739 C 743.663 -1.85547 -1.00675 0
M  V30 7740 O 743.011 -1.31399 -1.8694 0
M  V30 7741 C 743.221 -3.31734 1.08415 0
M  V30 7742 C 744.569 -4.08545 1.15654 0
M  V30 7743 O 745.593 -3.40826 1.03517 0
M  V30 7744 O 744.452 -5.29663 1.34608 0
M  V30 7745 H 741.546 -0.809537 0.169055 0
M  V30 7746 H 744.092 -1.34075 1.04029 0
M  V30 7747 H 742.864 -3.28404 2.1276 0
M  V30 7748 H 742.487 -3.93882 0.542499 0
M  V30 7749 N 743.484 -0.715051 -1.40445 0
M  V30 7750 C 744.431 -0.0621393 -2.30716 0
M  V30 7751 C 745.401 0.750871 -1.48159 0
M  V30 7752 O 746.586 0.714928 -1.76899 0
M  V30 7753 C 743.726 0.854036 -3.34365 0
M  V30 7754 C 742.839 0.0305565 -4.31989 0
M  V30 7755 C 741.974 0.946162 -5.22706 0
M  V30 7756 C 741.013 0.116741 -6.11989 0
M  V30 7757 N 740.15 0.987194 -6.95125 0
M  V30 7758 H 744.99 -0.83764 -2.85985 0
M  V30 7759 H 742.527 -0.424759 -1.40834 0
M  V30 7760 H 744.485 1.39946 -3.93028 0
M  V30 7761 H 743.115 1.59572 -2.806 0
M  V30 7762 H 742.167 -0.632044 -3.75112 0
M  V30 7763 H 743.479 -0.611615 -4.95036 0
M  V30 7764 H 742.633 1.56014 -5.86297 0
M  V30 7765 H 741.372 1.62216 -4.59932 0
M  V30 7766 H 740.377 -0.510176 -5.47428 0
M  V30 7767 H 741.602 -0.555742 -6.76822 0
M  V30 7768 H 739.548 1.64885 -6.3494 0
M  V30 7769 H 739.465 0.401046 -7.54936 0
M  V30 7770 H 740.733 1.58737 -7.63166 0
M  V30 7771 N 744.962 1.50701 -0.461195 0
M  V30 7772 C 746.373 1.867 -0.00370227 0
M  V30 7773 C 746.724 1.37673 1.39787 0
M  V30 7774 O 745.849 0.737515 2.03445 0
M  V30 7775 C 746.444 3.388 5.75786e-05 0
M  V30 7776 C 745.003 3.74247 0.402044 0
M  V30 7777 C 744.15 2.74549 -0.389652 0
M  V30 7778 H 747.101 1.43585 -0.675942 0
M  V30 7779 H 747.122 3.719 0.804414 0
M  V30 7780 H 746.634 3.74452 -1.02015 0
M  V30 7781 H 744.735 3.44192 1.42697 0
M  V30 7782 H 744.848 4.78973 0.110265 0
M  V30 7783 H 743.212 2.54226 0.155314 0
M  V30 7784 H 743.995 3.13044 -1.40919 0
M  V30 7785 N 746.441 0.193421 1.56409 0
M  V30 7786 C 747.389 -0.744829 2.20352 0
M  V30 7787 C 748.383 -1.22104 1.17418 0
M  V30 7788 O 749.589 -1.18413 1.35567 0
M  V30 7789 H 745.964 -0.258538 0.70616 0
M  V30 7790 H 747.935 -0.181794 2.97846 0
M  V30 7791 C 746.684 -1.95453 2.87565 0
M  V30 7792 H 746.007 -1.59716 3.66512 0
M  V30 7793 H 747.447 -2.58942 3.35745 0
M  V30 7794 C 745.906 -2.79223 1.8851 0
M  V30 7795 O 746.436 -3.77093 1.38434 0
M  V30 7796 N 744.642 -2.44682 1.56777 0
M  V30 7797 H 744.189 -1.65153 1.97692 0
M  V30 7798 H 744.147 -3.01016 0.907573 0
M  V30 7799 N 747.919 -1.57396 -0.0801906 0
M  V30 7800 C 749.335 -1.53564 -0.434778 0
M  V30 7801 C 749.535 -0.912372 -1.79661 0
M  V30 7802 O 748.591 -0.511268 -2.4727 0
M  V30 7803 C 749.904 -2.98244 -0.383561 0
M  V30 7804 C 751.452 -3.09536 -0.46435 0
M  V30 7805 C 751.927 -4.55851 -0.443128 0
M  V30 7806 N 753.418 -4.60456 -0.503448 0
M  V30 7807 C 754.153 -5.71135 -0.509106 0
M  V30 7808 N 753.649 -6.91203 -0.47008 0
M  V30 7809 N 755.442 -5.59353 -0.555035 0
M  V30 7810 H 747.593 -1.96281 0.811635 0
M  V30 7811 H 749.856 -0.898041 0.303689 0
M  V30 7812 H 749.562 -3.47369 0.550236 0
M  V30 7813 H 749.436 -3.57705 -1.19694 0
M  V30 7814 H 751.823 -2.6039 -1.38857 0
M  V30 7815 H 751.904 -2.53 0.377445 0
M  V30 7816 H 751.548 -5.05653 0.477207 0
M  V30 7817 H 751.478 -5.10242 -1.30234 0
M  V30 7818 H 753.969 -3.74048 -0.538199 0
M  V30 7819 H 754.282 -7.7132 -0.478091 0
M  V30 7820 H 752.627 -6.93625 -0.436897 0
M  V30 7821 H 755.818 -4.64453 -0.583158 0
M  V30 7822 H 755.991 -6.4561 -0.555976 0
M  V30 7823 N 749.397 0.351382 -1.53633 0
M  V30 7824 C 750.643 1.09411 -1.70754 0
M  V30 7825 C 750.976 1.88544 -0.465293 0
M  V30 7826 O 750.251 1.86923 0.537608 0
M  V30 7827 C 750.534 2.04173 -2.96623 0
M  V30 7828 C 750.387 1.28556 -4.31038 0
M  V30 7829 C 751.706 3.04102 -3.18136 0
M  V30 7830 H 748.825 0.396373 -0.621335 0
M  V30 7831 H 751.467 0.373464 -1.86293 0
M  V30 7832 H 749.617 2.65625 -2.83506 0
M  V30 7833 H 751.289 0.697786 -4.55992 0
M  V30 7834 H 749.532 0.587498 -4.29803 0
M  V30 7835 H 750.203 1.97989 -5.15271 0
M  V30 7836 H 752.679 2.5276 -3.30532 0
M  V30 7837 H 751.555 3.67616 -4.07615 0
M  V30 7838 H 751.816 3.75053 -2.34068 0
M  V30 7839 N 750.875 1.45233 0.611969 0
M  V30 7840 C 752.103 1.52539 1.39784 0
M  V30 7841 C 752.518 0.156533 1.8815 0
M  V30 7842 O 751.875 -0.84112 1.61961 0
M  V30 7843 C 751.926 2.50614 2.60528 0
M  V30 7844 O 751.647 3.8218 2.14173 0
M  V30 7845 C 753.148 2.67574 3.53439 0
M  V30 7846 H 750.368 0.51674 0.428043 0
M  V30 7847 H 752.912 1.90379 0.746727 0
M  V30 7848 H 751.067 2.15858 3.2169 0
M  V30 7849 H 751.481 4.35305 2.92592 0
M  V30 7850 H 752.955 3.40184 4.34717 0
M  V30 7851 H 753.432 1.73458 4.03496 0
M  V30 7852 H 754.038 3.0331 2.98133 0
M  V30 7853 N 752.353 -0.854086 1.3245 0
M  V30 7854 C 753.3 -1.96271 1.21434 0
M  V30 7855 C 754.27 -1.6582 0.0963851 0
M  V30 7856 O 755.455 -1.88851 0.27203 0
M  V30 7857 C 752.595 -3.31939 0.943952 0
M  V30 7858 C 751.708 -3.74885 2.14675 0
M  V30 7859 C 750.843 -4.99347 1.81179 0
M  V30 7860 C 749.882 -5.34785 2.97777 0
M  V30 7861 N 749.019 -6.50425 2.6437 0
M  V30 7862 H 753.859 -2.05025 2.16261 0
M  V30 7863 H 751.396 -1.00348 1.07558 0
M  V30 7864 H 753.354 -4.10076 0.767675 0
M  V30 7865 H 751.984 -3.22784 0.0324763 0
M  V30 7866 H 751.036 -2.92396 2.43328 0
M  V30 7867 H 752.348 -3.97068 3.01891 0
M  V30 7868 H 751.502 -5.85193 1.60107 0
M  V30 7869 H 750.241 -4.79101 0.911777 0
M  V30 7870 H 749.246 -4.47451 3.1948 0
M  V30 7871 H 750.471 -5.56988 3.88511 0
M  V30 7872 H 748.417 -6.31695 1.7691 0
M  V30 7873 H 748.334 -6.7263 3.45116 0
M  V30 7874 H 749.602 -7.39422 2.46729 0
M  V30 7875 N 753.831 -1.1567 -1.07043 0
M  V30 7876 C 755.077 -0.9349 -1.79965 0
M  V30 7877 C 755.41 0.536464 -1.86643 0
M  V30 7878 O 754.685 1.39781 -1.35247 0
M  V30 7879 C 754.968 -1.55371 -3.24857 0
M  V30 7880 C 754.821 -3.09589 -3.26305 0
M  V30 7881 C 756.14 -1.24209 -4.22209 0
M  V30 7882 H 753.259 -0.341061 -0.653335 0
M  V30 7883 H 755.901 -1.42883 -1.25237 0
M  V30 7884 H 754.051 -1.13368 -3.71591 0
M  V30 7885 H 755.723 -3.60521 -2.87789 0
M  V30 7886 H 753.966 -3.43315 -2.65174 0
M  V30 7887 H 754.637 -3.48002 -4.28484 0
M  V30 7888 H 757.113 -1.60548 -3.8388 0
M  V30 7889 H 755.989 -1.70119 -5.21872 0
M  V30 7890 H 756.25 -0.15964 -4.41812 0
M  V30 7891 N 755.309 1.25446 -0.953992 0
M  V30 7892 C 756.272 2.24156 -0.478179 0
M  V30 7893 C 757.272 1.55278 0.417776 0
M  V30 7894 O 758.462 1.72866 0.215155 0
M  V30 7895 C 755.594 3.39495 0.309202 0
M  V30 7896 H 756.787 2.67764 -1.35064 0
M  V30 7897 H 754.34 1.37822 -0.737206 0
M  V30 7898 H 755.075 3.01307 1.19936 0
M  V30 7899 H 754.86 3.90679 -0.333562 0
M  V30 7900 H 756.35 4.12796 0.631594 0
M  V30 7901 N 756.787 0.722489 1.40064 0
M  V30 7902 C 758.033 0.265371 2.01056 0
M  V30 7903 C 758.366 -1.14062 1.57174 0
M  V30 7904 O 757.641 -1.77514 0.794916 0
M  V30 7905 C 757.924 0.353157 3.58364 0
M  V30 7906 C 757.777 1.79802 4.123 0
M  V30 7907 C 759.096 -0.271677 4.39261 0
M  V30 7908 H 756.215 0.0979002 0.730469 0
M  V30 7909 H 758.857 0.916289 1.66446 0
M  V30 7910 H 757.007 -0.201037 3.87979 0
M  V30 7911 H 758.679 2.40813 3.93455 0
M  V30 7912 H 756.922 2.32348 3.66329 0
M  V30 7913 H 757.593 1.81079 5.21454 0
M  V30 7914 H 760.069 0.200607 4.15616 0
M  V30 7915 H 758.945 -0.179843 5.48605 0
M  V30 7916 H 759.206 -1.35611 4.20787 0
M  V30 7917 N 758.265 -1.50454 0.469181 0
M  V30 7918 C 759.212 -2.28486 -0.325982 0
M  V30 7919 C 760.182 -1.33455 -0.988893 0
M  V30 7920 O 761.367 -1.6239 -1.0017 0
M  V30 7921 C 758.507 -3.15288 -1.40313 0
M  V30 7922 C 757.62 -4.25348 -0.755183 0
M  V30 7923 C 756.755 -4.9941 -1.81006 0
M  V30 7924 C 755.794 -6.01348 -1.14226 0
M  V30 7925 N 754.931 -6.68695 -2.1399 0
M  V30 7926 H 759.771 -2.95987 0.345753 0
M  V30 7927 H 757.308 -1.45965 0.182355 0
M  V30 7928 H 759.266 -3.63964 -2.03927 0
M  V30 7929 H 757.896 -2.49837 -2.04405 0
M  V30 7930 H 756.948 -3.80399 -0.00651901 0
M  V30 7931 H 758.26 -4.98279 -0.227941 0
M  V30 7932 H 757.414 -5.51794 -2.52206 0
M  V30 7933 H 756.153 -4.26181 -2.3711 0
M  V30 7934 H 755.158 -5.48225 -0.415876 0
M  V30 7935 H 756.383 -6.76548 -0.588135 0
M  V30 7936 H 754.329 -5.98258 -2.69115 0
M  V30 7937 H 754.246 -7.37495 -1.66246 0
M  V30 7938 H 755.514 -7.25697 -2.84576 0
M  V30 7939 N 759.743 -0.201713 -1.56304 0
M  V30 7940 C 760.676 0.755976 -2.15314 0
M  V30 7941 C 761.654 1.20497 -1.09175 0
M  V30 7942 O 762.838 1.2913 -1.37323 0
M  V30 7943 C 759.965 2.02177 -2.71739 0
M  V30 7944 C 759.011 1.71436 -3.90528 0
M  V30 7945 S 759.844 0.856624 -5.28604 0
M  V30 7946 C 761 2.13242 -5.88455 0
M  V30 7947 H 761.233 0.254348 -2.9621 0
M  V30 7948 H 758.766 0.0133669 -1.54394 0
M  V30 7949 H 760.724 2.74867 -3.04891 0
M  V30 7950 H 759.385 2.49452 -1.90873 0
M  V30 7951 H 758.578 2.65433 -4.28441 0
M  V30 7952 H 758.18 1.06823 -3.5842 0
M  V30 7953 H 760.472 3.08435 -6.0322 0
M  V30 7954 H 761.415 1.7975 -6.84905 0
M  V30 7955 H 761.823 2.2639 -5.17115 0
M  V30 7956 N 761.222 1.57436 0.0718424 0
M  V30 7957 C 762.152 2.06724 1.08571 0
M  V30 7958 C 763.133 0.960731 1.40371 0
M  V30 7959 O 764.318 1.23345 1.49999 0
M  V30 7960 C 761.448 2.51112 2.39916 0
M  V30 7961 C 760.402 3.65639 2.22469 0
M  V30 7962 C 759.728 3.96082 3.59198 0
M  V30 7963 C 761.028 4.95687 1.64596 0
M  V30 7964 H 762.722 2.91679 0.675569 0
M  V30 7965 H 760.268 1.40319 0.32352 0
M  V30 7966 H 762.221 2.84206 3.11135 0
M  V30 7967 H 760.945 1.63186 2.8291 0
M  V30 7968 H 759.604 3.32828 1.53691 0
M  V30 7969 H 759.252 3.05287 3.99761 0
M  V30 7970 H 758.952 4.73199 3.48362 0
M  V30 7971 H 760.476 4.31672 4.31847 0
M  V30 7972 H 761.89 5.27011 2.25681 0
M  V30 7973 H 760.287 5.77126 1.64457 0
M  V30 7974 H 761.357 4.8108 0.60744 0
M  V30 7975 N 762.7 -0.34323 1.53817 0
M  V30 7976 C 763.647 -1.42153 1.81827 0
M  V30 7977 C 764.617 -1.52251 0.663996 0
M  V30 7978 O 765.802 -1.67784 0.908461 0
M  V30 7979 C 762.942 -2.78799 2.03384 0
M  V30 7980 C 762.055 -2.7749 3.31094 0
M  V30 7981 C 761.19 -4.05856 3.42717 0
M  V30 7982 C 760.229 -3.98776 4.64375 0
M  V30 7983 N 759.366 -5.18833 4.73029 0
M  V30 7984 H 764.206 -1.17567 2.73829 0
M  V30 7985 H 761.743 -0.569506 1.35628 0
M  V30 7986 H 763.701 -3.58211 2.13872 0
M  V30 7987 H 762.331 -3.01736 1.14696 0
M  V30 7988 H 761.383 -1.90182 3.29446 0
M  V30 7989 H 762.695 -2.68137 4.206 0
M  V30 7990 H 761.849 -4.93691 3.52638 0
M  V30 7991 H 760.588 -4.1799 2.51267 0
M  V30 7992 H 759.593 -3.09325 4.5453 0
M  V30 7993 H 760.818 -3.88224 5.57189 0
M  V30 7994 H 758.764 -5.31511 3.84489 0
M  V30 7995 H 758.681 -5.11737 5.56472 0
M  V30 7996 H 759.949 -6.08439 4.87261 0
M  V30 7997 N 764.178 -1.45556 -0.604258 0
M  V30 7998 C 765.403 -1.53509 -1.39462 0
M  V30 7999 C 765.828 -0.169638 -1.87333 0
M  V30 8000 O 765.186 0.846346 -1.60333 0
M  V30 8001 C 765.234 -2.52654 -2.5729 0
M  V30 8002 O 764.338 -2.04666 -3.5803 0
M  V30 8003 H 763.679 -0.517355 -0.416221 0
M  V30 8004 H 766.209 -1.90939 -0.735072 0
M  V30 8005 H 766.219 -2.71568 -3.04491 0
M  V30 8006 H 764.894 -3.51823 -2.21797 0
M  V30 8007 H 763.471 -1.95643 -3.17456 0
M  V30 8008 N 765.656 0.84705 -1.32902 0
M  V30 8009 C 766.933 1.58583 -1.14503 0
M  V30 8010 C 767.313 2.09075 0.291724 0
M  V30 8011 O 766.661 1.88636 1.28952 0
M  V30 8012 C 766.871 2.72605 -2.17916 0
M  V30 8013 C 768.219 3.41993 -2.51646 0
M  V30 8014 O 769.243 2.82838 -2.1652 0
M  V30 8015 O 768.102 4.48761 -3.1189 0
M  V30 8016 H 765.196 0.698756 -0.442345 0
M  V30 8017 H 767.742 0.890516 -1.44457 0
M  V30 8018 H 766.514 2.32876 -3.14459 0
M  V30 8019 H 766.137 3.49807 -1.89 0
M  V30 8020 N 767.134 1.16236 1.06428 0
M  V30 8021 C 768.097 0.870163 2.1204 0
M  V30 8022 C 769.097 -0.134239 1.60239 0
M  V30 8023 O 770.287 0.0964932 1.73933 0
M  V30 8024 C 767.419 0.301033 3.39568 0
M  V30 8025 H 768.612 1.8064 2.39394 0
M  V30 8026 H 766.165 0.971116 1.2247 0
M  V30 8027 H 766.9 -0.642948 3.17863 0
M  V30 8028 H 766.685 1.02475 3.78472 0
M  V30 8029 H 768.175 0.114494 4.17443 0
M  V30 8030 N 768.612 -1.24939 0.960631 0
M  V30 8031 C 769.84 -1.96881 0.636045 0
M  V30 8032 C 770.255 -1.71334 -0.793093 0
M  V30 8033 O 769.612 -0.992917 -1.53125 0
M  V30 8034 C 769.663 -3.50309 0.892533 0
M  V30 8035 O 769.384 -3.74977 2.26548 0
M  V30 8036 C 770.885 -4.39474 0.581159 0
M  V30 8037 H 768.105 -0.627399 0.237931 0
M  V30 8038 H 770.649 -1.58952 1.28664 0
M  V30 8039 H 768.804 -3.86326 0.288257 0
M  V30 8040 H 769.218 -4.69401 2.34014 0
M  V30 8041 H 770.692 -5.46008 0.811125 0
M  V30 8042 H 771.169 -4.3652 -0.48443 0
M  V30 8043 H 771.775 -4.09032 1.16502 0
M  V30 8044 N 770.09 -0.729906 -1.39679 0
M  V30 8045 C 771 -0.0880322 -2.34435 0
M  V30 8046 C 772.016 0.727674 -1.58053 0
M  V30 8047 O 773.192 0.657321 -1.90371 0
M  V30 8048 C 770.257 0.812211 -3.37052 0
M  V30 8049 C 769.318 -0.0151681 -4.29297 0
M  V30 8050 C 768.551 0.842202 -5.27013 0
M  V30 8051 O 768.774 2.08108 -5.31081 0
M  V30 8052 O 767.708 0.27357 -6.01278 0
M  V30 8053 H 771.534 -0.869989 -2.90972 0
M  V30 8054 H 769.119 -0.490522 -1.41118 0
M  V30 8055 H 771.001 1.32745 -3.99946 0
M  V30 8056 H 769.676 1.57307 -2.82907 0
M  V30 8057 H 768.583 -0.575811 -3.69642 0
M  V30 8058 H 769.916 -0.738129 -4.86634 0
M  V30 8059 N 771.568 1.50203 -0.477153 0
M  V30 8060 C 772.515 2.28656 0.31386 0
M  V30 8061 C 773.485 1.33977 0.981802 0
M  V30 8062 O 774.67 1.62919 0.993072 0
M  V30 8063 C 771.81 3.16027 1.38639 0
M  V30 8064 C 770.923 4.25743 0.732615 0
M  V30 8065 C 770.058 5.00363 1.78355 0
M  V30 8066 C 769.097 6.01945 1.11035 0
M  V30 8067 N 768.234 6.6982 2.10441 0
M  V30 8068 H 773.074 2.958 -0.361445 0
M  V30 8069 H 770.611 1.45867 -0.190093 0
M  V30 8070 H 772.569 3.6504 2.01994 0
M  V30 8071 H 771.199 2.50917 2.03077 0
M  V30 8072 H 770.251 3.80398 -0.0136546 0
M  V30 8073 H 771.563 4.98393 0.201513 0
M  V30 8074 H 770.717 5.53124 2.49276 0
M  V30 8075 H 769.456 4.27432 2.34847 0
M  V30 8076 H 768.461 5.48438 0.386797 0
M  V30 8077 H 769.686 6.76851 0.552248 0
M  V30 8078 H 767.632 5.99677 2.65939 0
M  V30 8079 H 767.549 7.38366 1.62332 0
M  V30 8080 H 768.817 7.27196 2.80724 0
M  V30 8081 N 773.046 0.209999 1.56195 0
M  V30 8082 C 774.323 -0.473214 1.89789 0
M  V30 8083 C 774.703 -1.78581 1.1257 0
M  V30 8084 O 774.051 -2.27325 0.231398 0
M  V30 8085 C 774.261 -0.677458 3.42362 0
M  V30 8086 C 775.609 -0.990114 4.12895 0
M  V30 8087 O 776.633 -0.764655 3.47896 0
M  V30 8088 O 775.492 -1.41737 5.278 0
M  V30 8089 H 772.586 -0.248622 0.788743 0
M  V30 8090 H 775.132 0.251324 1.67829 0
M  V30 8091 H 773.904 0.248878 3.90508 0
M  V30 8092 H 773.527 -1.45391 3.70064 0
M  V30 8093 N 774.524 -1.57472 -0.0634922 0
M  V30 8094 C 775.454 -2.07297 -1.07473 0
M  V30 8095 C 776.435 -0.968162 -1.39859 0
M  V30 8096 O 777.62 -1.24139 -1.49343 0
M  V30 8097 C 774.75 -2.52381 -2.38581 0
M  V30 8098 C 773.704 -3.66813 -2.20526 0
M  V30 8099 C 773.03 -3.97982 -3.57092 0
M  V30 8100 C 774.33 -4.96553 -1.61965 0
M  V30 8101 H 776.024 -2.92033 -0.660092 0
M  V30 8102 H 773.57 -1.40488 -0.316074 0
M  V30 8103 H 775.523 -2.85852 -3.09624 0
M  V30 8104 H 774.247 -1.64684 -2.8204 0
M  V30 8105 H 772.906 -3.33639 -1.51924 0
M  V30 8106 H 772.554 -3.07403 -3.98136 0
M  V30 8107 H 772.254 -4.7504 -3.45848 0
M  V30 8108 H 773.778 -4.33956 -4.29552 0
M  V30 8109 H 775.192 -5.28201 -2.22883 0
M  V30 8110 H 773.589 -5.7799 -1.61394 0
M  V30 8111 H 774.659 -4.81396 -0.581918 0
M  V30 8112 N 776.003 0.335068 -1.53997 0
M  V30 8113 C 777.228 1.09859 -1.75914 0
M  V30 8114 C 777.653 1.81308 -0.500915 0
M  V30 8115 O 777.011 1.72854 0.54693 0
M  V30 8116 C 777.059 2.08122 -2.94478 0
M  V30 8117 O 776.163 3.15805 -2.65219 0
M  V30 8118 H 775.504 0.317313 -0.583274 0
M  V30 8119 H 778.034 0.382872 -2.00986 0
M  V30 8120 H 778.044 2.51195 -3.21504 0
M  V30 8121 H 776.719 1.55517 -3.8573 0
M  V30 8122 H 775.296 2.77489 -2.49107 0
M  V30 8123 N 777.481 1.45874 0.596531 0
M  V30 8124 C 778.758 1.40942 1.35627 0
M  V30 8125 C 779.138 0.0857066 2.10926 0
M  V30 8126 O 778.486 -0.932544 2.08605 0
M  V30 8127 C 778.696 2.63027 2.29386 0
M  V30 8128 C 780.044 3.08588 2.91649 0
M  V30 8129 O 781.068 2.63478 2.39704 0
M  V30 8130 O 779.927 3.86902 3.85965 0
M  V30 8131 H 777.021 0.559838 0.608696 0
M  V30 8132 H 779.567 1.5802 0.618698 0
M  V30 8133 H 778.339 3.5094 1.7308 0
M  V30 8134 H 777.962 2.48338 3.10506 0
M  V30 8135 N 778.959 -0.83999 1.33349 0
M  V30 8136 C 779.889 -1.965 1.26135 0
M  V30 8137 C 780.87 -1.69505 0.142152 0
M  V30 8138 O 782.055 -1.91346 0.331743 0
M  V30 8139 C 779.185 -3.32632 0.99866 0
M  V30 8140 C 778.139 -3.74021 2.08068 0
M  V30 8141 C 777.465 -5.07947 1.67014 0
M  V30 8142 C 778.765 -3.87925 3.49731 0
M  V30 8143 H 780.459 -2.02793 2.20262 0
M  V30 8144 H 778.005 -0.974297 1.06035 0
M  V30 8145 H 779.958 -4.10903 0.934696 0
M  V30 8146 H 778.682 -3.26593 0.0217759 0
M  V30 8147 H 777.341 -2.98012 2.13505 0
M  V30 8148 H 776.989 -4.98378 0.680316 0
M  V30 8149 H 776.689 -5.36611 2.39422 0
M  V30 8150 H 778.213 -5.88695 1.62082 0
M  V30 8151 H 779.627 -4.5651 3.46802 0
M  V30 8152 H 778.024 -4.28023 4.20614 0
M  V30 8153 H 779.094 -2.90407 3.88319 0
M  V30 8154 N 780.437 -1.16799 -1.0581 0
M  V30 8155 C 781.686 -0.94698 -1.78088 0
M  V30 8156 C 781.999 0.526016 -1.88394 0
M  V30 8157 O 783.205 0.865061 -2.5735 0
M  V30 8158 C 781.661 -1.64508 -3.20102 0
M  V30 8159 C 781.269 -3.15618 -3.17946 0
M  V30 8160 C 783.013 -1.50622 -3.96879 0
M  V30 8161 C 780.92 -3.78144 -4.5471 0
M  V30 8162 H 779.85 -0.35067 -0.667493 0
M  V30 8163 H 782.501 -1.39985 -1.18645 0
M  V30 8164 H 780.883 -1.11993 -3.79834 0
M  V30 8165 H 782.057 -3.75016 -2.67768 0
M  V30 8166 H 780.372 -3.29444 -2.54667 0
M  V30 8167 H 782.969 -1.94713 -4.97987 0
M  V30 8168 H 783.312 -0.455864 -4.13797 0
M  V30 8169 H 783.845 -2.00319 -3.43682 0
M  V30 8170 H 780.584 -4.83149 -4.42998 0
M  V30 8171 H 780.104 -3.23532 -5.05062 0
M  V30 8172 H 781.783 -3.79986 -5.2366 0
M  V30 8173 N 781.915 1.24427 -0.967243 0
M  V30 8174 C 783.14 1.9708 -0.646069 0
M  V30 8175 C 783.565 1.71272 0.777665 0
M  V30 8176 O 782.923 0.976179 1.52776 0
M  V30 8177 C 782.971 3.48501 -0.926266 0
M  V30 8178 O 782.075 4.12398 -0.0114653 0
M  V30 8179 H 781.416 0.617423 -0.244304 0
M  V30 8180 H 783.946 1.58215 -1.29727 0
M  V30 8181 H 783.956 3.98885 -0.857619 0
M  V30 8182 H 782.631 3.66613 -1.96386 0
M  V30 8183 H 781.208 3.72661 -0.133396 0
M  V30 8184 N 783.393 0.737304 1.3929 0
M  V30 8185 C 784.303 0.100464 2.34385 0
M  V30 8186 C 785.319 -0.719282 1.58437 0
M  V30 8187 O 786.495 -0.647216 1.90717 0
M  V30 8188 C 783.56 -0.794325 3.37478 0
M  V30 8189 C 782.621 0.0379345 4.29283 0
M  V30 8190 C 781.854 -0.814241 5.27452 0
M  V30 8191 O 782.077 -2.05288 5.32177 0
M  V30 8192 O 781.011 -0.241679 6.01415 0
M  V30 8193 H 784.837 0.885407 2.90507 0
M  V30 8194 H 782.422 0.497999 1.40856 0
M  V30 8195 H 784.304 -1.30622 4.00644 0
M  V30 8196 H 782.979 -1.55804 2.83737 0
M  V30 8197 H 781.886 0.595405 3.69331 0
M  V30 8198 H 783.219 0.763926 4.86236 0
M  V30 8199 N 784.871 -1.49948 0.485112 0
M  V30 8200 C 785.804 -2.25531 -0.348027 0
M  V30 8201 C 786.782 -1.29433 -0.984172 0
M  V30 8202 O 787.966 -1.58687 -1.01738 0
M  V30 8203 C 785.093 -3.04225 -1.48878 0
M  V30 8204 C 784.139 -4.15355 -0.968616 0
M  V30 8205 S 784.972 -5.35347 0.127934 0
M  V30 8206 C 786.128 -6.17593 -1.01637 0
M  V30 8207 H 786.361 -2.95847 0.293529 0
M  V30 8208 H 783.894 -1.52018 0.27018 0
M  V30 8209 H 785.852 -3.50153 -2.14251 0
M  V30 8210 H 784.513 -2.33407 -2.1019 0
M  V30 8211 H 783.706 -4.69873 -1.82305 0
M  V30 8212 H 783.308 -3.71936 -0.392377 0
M  V30 8213 H 785.6 -6.49576 -1.92503 0
M  V30 8214 H 786.543 -7.0626 -0.510149 0
M  V30 8215 H 786.951 -5.49877 -1.27653 0
M  V30 8216 N 786.349 -0.21828 -1.56081 0
M  V30 8217 C 787.259 0.704602 -2.23769 0
M  V30 8218 C 788.275 1.21633 -1.24425 0
M  V30 8219 O 789.451 1.25862 -1.57228 0
M  V30 8220 C 786.516 1.89725 -2.90182 0
M  V30 8221 C 785.577 1.42782 -4.0486 0
M  V30 8222 C 784.81 2.56361 -4.68097 0
M  V30 8223 O 785.033 3.74417 -4.30312 0
M  V30 8224 O 783.967 2.2775 -5.57148 0
M  V30 8225 H 787.793 0.158007 -3.03289 0
M  V30 8226 H 785.378 0.0120279 -1.49395 0
M  V30 8227 H 787.26 2.59382 -3.32113 0
M  V30 8228 H 785.935 2.432 -2.13624 0
M  V30 8229 H 784.842 0.699359 -3.67505 0
M  V30 8230 H 786.175 0.939474 -4.83151 0
M  V30 8231 N 787.827 1.57504 0.0551401 0
M  V30 8232 C 788.76 2.00155 1.09604 0
M  V30 8233 C 789.738 0.881274 1.36647 0
M  V30 8234 O 790.922 1.14498 1.49742 0
M  V30 8235 C 788.049 2.35246 2.43674 0
M  V30 8236 C 787.095 3.57452 2.32659 0
M  V30 8237 S 787.928 5.07639 1.7048 0
M  V30 8238 C 789.084 5.45947 3.06093 0
M  V30 8239 H 789.317 2.88131 0.732635 0
M  V30 8240 H 786.85 1.52122 0.264252 0
M  V30 8241 H 788.808 2.56136 3.20787 0
M  V30 8242 H 787.469 1.47769 2.7717 0
M  V30 8243 H 786.662 3.79576 3.31569 0
M  V30 8244 H 786.264 3.36279 1.63685 0
M  V30 8245 H 788.556 5.45036 4.0242 0
M  V30 8246 H 789.499 6.4656 2.88732 0
M  V30 8247 H 789.907 4.73419 3.07466 0
M  V30 8248 N 789.305 -0.326896 1.54172 0
M  V30 8249 C 790.238 -1.42591 1.78166 0
M  V30 8250 C 791.216 -1.49837 0.631484 0
M  V30 8251 O 792.4 -1.67298 0.868544 0
M  V30 8252 C 789.527 -2.8071 1.89524 0
M  V30 8253 C 788.573 -2.91012 3.11792 0
M  V30 8254 S 789.406 -2.55763 4.70474 0
M  V30 8255 C 790.562 -3.9596 4.84733 0
M  V30 8256 H 790.795 -1.22024 2.71104 0
M  V30 8257 H 788.328 -0.523539 1.45253 0
M  V30 8258 H 790.286 -3.60276 1.96753 0
M  V30 8259 H 788.947 -2.98562 0.975696 0
M  V30 8260 H 788.14 -3.92258 3.16464 0
M  V30 8261 H 787.742 -2.19414 3.02876 0
M  V30 8262 H 790.034 -4.90676 4.67166 0
M  V30 8263 H 790.977 -3.96273 5.86833 0
M  V30 8264 H 791.385 -3.8476 4.13062 0
M  V30 8265 N 790.784 -1.46188 -0.588786 0
M  V30 8266 C 791.731 -1.56292 -1.69828 0
M  V30 8267 C 792.701 -0.407581 -1.61022 0
M  V30 8268 O 793.886 -0.623532 -1.80324 0
M  V30 8269 C 791.026 -1.55341 -3.08161 0
M  V30 8270 C 790.139 -2.81564 -3.27636 0
M  V30 8271 C 789.274 -2.72158 -4.56183 0
M  V30 8272 C 788.313 -3.93348 -4.68981 0
M  V30 8273 N 787.45 -3.82365 -5.88848 0
M  V30 8274 H 792.29 -2.51066 -1.6053 0
M  V30 8275 H 789.827 -1.24562 -0.782474 0
M  V30 8276 H 791.785 -1.52776 -3.88221 0
M  V30 8277 H 790.415 -0.641034 -3.16371 0
M  V30 8278 H 789.467 -2.94136 -2.41223 0
M  V30 8279 H 790.779 -3.714 -3.32962 0
M  V30 8280 H 789.933 -2.67665 -5.44464 0
M  V30 8281 H 788.672 -1.79953 -4.53286 0
M  V30 8282 H 787.677 -3.98181 -3.7912 0
M  V30 8283 H 788.902 -4.86643 -4.73662 0
M  V30 8284 H 786.848 -2.92942 -5.86959 0
M  V30 8285 H 786.765 -4.65851 -5.95415 0
M  V30 8286 H 788.033 -3.81836 -6.79575 0
M  V30 8287 N 792.262 0.832906 -1.33792 0
M  V30 8288 C 793.195 1.94788 -1.18882 0
M  V30 8289 C 794.173 1.62389 -0.0828426 0
M  V30 8290 O 795.357 1.86886 -0.246175 0
M  V30 8291 C 792.484 3.28506 -0.824728 0
M  V30 8292 C 791.53 3.79872 -1.93905 0
M  V30 8293 S 792.363 4.00832 -3.55097 0
M  V30 8294 C 793.519 5.37492 -3.20708 0
M  V30 8295 H 793.752 2.07137 -2.13264 0
M  V30 8296 H 791.285 0.987362 -1.18704 0
M  V30 8297 H 793.243 4.05769 -0.621442 0
M  V30 8298 H 791.904 3.13939 0.100587 0
M  V30 8299 H 791.097 4.76647 -1.6378 0
M  V30 8300 H 790.699 3.09524 -2.09931 0
M  V30 8301 H 792.991 6.20544 -2.71903 0
M  V30 8302 H 793.934 5.72593 -4.16584 0
M  V30 8303 H 794.342 5.02529 -2.57148 0
M  V30 8304 N 793.74 1.17359 1.05189 0
M  V30 8305 C 794.989 0.956412 1.77583 0
M  V30 8306 C 795.302 -0.516018 1.88671 0
M  V30 8307 O 796.508 -0.851401 2.57805 0
M  V30 8308 C 794.964 1.66203 3.19225 0
M  V30 8309 C 794.572 3.17299 3.16267 0
M  V30 8310 C 796.316 1.52725 3.96075 0
M  V30 8311 C 794.223 3.8055 4.52698 0
M  V30 8312 H 793.153 0.354204 0.665624 0
M  V30 8313 H 795.804 1.40612 1.17901 0
M  V30 8314 H 794.186 1.14006 3.79234 0
M  V30 8315 H 795.36 3.76431 2.65776 0
M  V30 8316 H 793.675 3.3079 2.52917 0
M  V30 8317 H 796.272 1.97351 4.96947 0
M  V30 8318 H 796.615 0.477803 4.13549 0
M  V30 8319 H 797.148 2.02139 3.42614 0
M  V30 8320 H 793.887 4.85492 4.4043 0
M  V30 8321 H 793.407 3.26206 5.03339 0
M  V30 8322 H 795.086 3.82757 5.21638 0
M  V30 8323 N 795.218 -1.23913 0.973828 0
M  V30 8324 C 796.466 -1.91771 0.637817 0
M  V30 8325 C 796.787 -1.76434 -0.830435 0
M  V30 8326 O 796.057 -1.13965 -1.59339 0
M  V30 8327 H 794.637 -0.709761 0.232912 0
M  V30 8328 H 797.299 -1.50677 1.23622 0
M  V30 8329 H 796.395 -2.99327 0.883731 0
M  V30 8330 N 796.696 -0.74468 -1.38897 0
M  V30 8331 C 797.643 -0.111064 -2.30533 0
M  V30 8332 C 798.613 0.719276 -1.49719 0
M  V30 8333 O 799.798 0.677244 -1.78376 0
M  V30 8334 C 796.938 0.78292 -3.36102 0
M  V30 8335 C 796.051 -0.0610817 -4.31957 0
M  V30 8336 C 795.186 0.835075 -5.24595 0
M  V30 8337 C 794.225 -0.0130974 -6.12099 0
M  V30 8338 N 793.362 0.839525 -6.97063 0
M  V30 8339 H 798.202 -0.898113 -2.84144 0
M  V30 8340 H 795.739 -0.454537 -1.39901 0
M  V30 8341 H 797.697 1.31578 -3.95908 0
M  V30 8342 H 796.327 1.53585 -2.83922 0
M  V30 8343 H 795.379 -0.711469 -3.73687 0
M  V30 8344 H 796.691 -0.716482 -4.93627 0
M  V30 8345 H 795.845 1.43542 -5.89475 0
M  V30 8346 H 794.584 1.52423 -4.63269 0
M  V30 8347 H 793.589 -0.626179 -5.46223 0
M  V30 8348 H 794.814 -0.699181 -6.75491 0
M  V30 8349 H 792.76 1.5138 -6.38295 0
M  V30 8350 H 792.677 0.240823 -7.55616 0
M  V30 8351 H 793.945 1.42513 -7.66362 0
M  V30 8352 N 798.174 1.49689 -0.493057 0
M  V30 8353 C 799.124 2.25901 0.308682 0
M  V30 8354 C 800.108 1.30408 0.94247 0
M  V30 8355 O 801.3 1.55179 0.851384 0
M  V30 8356 C 798.429 3.14463 1.37725 0
M  V30 8357 C 797.515 4.17414 0.7501 0
M  V30 8358 N 797.906 5.05599 -0.142597 0
M  V30 8359 C 796.204 4.34377 1.01159 0
M  V30 8360 C 796.905 5.7954 -0.500782 0
M  V30 8361 N 795.881 5.43446 0.129386 0
M  V30 8362 H 799.683 2.91451 -0.378652 0
M  V30 8363 H 797.197 1.59441 -0.308614 0
M  V30 8364 H 799.194 3.67687 1.965 0
M  V30 8365 H 797.854 2.50464 2.06635 0
M  V30 8366 H 798.865 5.15354 -0.512894 0
M  V30 8367 H 795.542 3.81588 1.69402 0
M  V30 8368 H 796.932 6.60534 -1.23063 0
M  V30 8369 N 799.652 0.226554 1.55963 0
M  V30 8370 C 800.599 -0.681504 2.20509 0
M  V30 8371 C 801.569 -1.1866 1.16229 0
M  V30 8372 O 802.754 -1.24478 1.44602 0
M  V30 8373 C 799.894 -1.88183 2.89277 0
M  V30 8374 C 799.007 -1.41517 4.08163 0
M  V30 8375 C 798.142 -2.57346 4.647 0
M  V30 8376 C 797.181 -2.07441 5.75877 0
M  V30 8377 N 796.318 -3.16561 6.26685 0
M  V30 8378 H 801.158 -0.124372 2.9774 0
M  V30 8379 H 798.695 -0.0496333 1.47016 0
M  V30 8380 H 800.653 -2.58666 3.27335 0
M  V30 8381 H 799.283 -2.41177 2.14555 0
M  V30 8382 H 798.335 -0.605099 3.75557 0
M  V30 8383 H 799.647 -1.00928 4.88482 0
M  V30 8384 H 798.801 -3.35903 5.05227 0
M  V30 8385 H 797.54 -3.01227 3.83554 0
M  V30 8386 H 796.545 -1.27347 5.34848 0
M  V30 8387 H 797.77 -1.64554 6.58862 0
M  V30 8388 H 795.716 -3.59914 5.48451 0
M  V30 8389 H 795.633 -2.80239 7.02141 0
M  V30 8390 H 796.901 -3.95238 6.71868 0
M  V30 8391 N 801.13 -1.57531 -0.0467866 0
M  V30 8392 C 802.078 -2.06455 -1.0714 0
M  V30 8393 C 803.072 -0.974744 -1.38546 0
M  V30 8394 O 804.278 -1.15974 -1.37659 0
M  V30 8395 H 800.653 -0.658607 -0.362962 0
M  V30 8396 H 802.624 -2.91613 -0.632813 0
M  V30 8397 C 801.373 -2.54481 -2.36927 0
M  V30 8398 H 800.696 -3.37946 -2.13617 0
M  V30 8399 H 802.136 -2.92442 -3.07007 0
M  V30 8400 C 800.595 -1.43836 -3.04652 0
M  V30 8401 O 801.125 -0.794531 -3.93764 0
M  V30 8402 N 799.331 -1.17727 -2.65686 0
M  V30 8403 H 798.878 -1.70265 -1.93307 0
M  V30 8404 H 798.836 -0.439051 -3.11319 0
M  V30 8405 N 802.608 0.318715 -1.54344 0
M  V30 8406 C 803.857 1.05363 -1.71993 0
M  V30 8407 C 804.17 1.89018 -0.503155 0
M  V30 8408 O 805.376 2.65639 -0.561085 0
M  V30 8409 C 803.832 1.92281 -3.0423 0
M  V30 8410 C 803.44 1.13715 -4.33328 0
M  V30 8411 C 805.184 2.65479 -3.31242 0
M  V30 8412 C 803.091 1.99806 -5.56625 0
M  V30 8413 H 802.021 0.397081 -0.64097 0
M  V30 8414 H 804.672 0.311598 -1.80835 0
M  V30 8415 H 803.054 2.70402 -2.89307 0
M  V30 8416 H 804.228 0.403305 -4.59032 0
M  V30 8417 H 802.543 0.521769 -4.13118 0
M  V30 8418 H 805.14 3.30209 -4.20555 0
M  V30 8419 H 805.483 3.33374 -2.49334 0
M  V30 8420 H 806.016 1.94417 -3.47054 0
M  V30 8421 H 802.755 1.36411 -6.41149 0
M  V30 8422 H 802.275 2.70911 -5.35133 0
M  V30 8423 H 803.954 2.58277 -5.93213 0
M  V30 8424 N 804.086 1.46499 0.581025 0
M  V30 8425 C 805.335 1.51162 1.3354 0
M  V30 8426 C 805.648 0.168433 1.94873 0
M  V30 8427 O 806.854 0.092883 2.71341 0
M  V30 8428 C 805.31 2.66362 2.42032 0
M  V30 8429 C 804.918 4.07109 1.86994 0
M  V30 8430 C 806.662 2.80297 3.188 0
M  V30 8431 C 804.569 5.13645 2.93125 0
M  V30 8432 H 803.499 0.562576 0.502021 0
M  V30 8433 H 806.15 1.72713 0.619863 0
M  V30 8434 H 804.532 2.38143 3.16392 0
M  V30 8435 H 805.706 4.45125 1.19166 0
M  V30 8436 H 804.021 3.97854 1.22887 0
M  V30 8437 H 806.618 3.5706 3.9801 0
M  V30 8438 H 806.961 1.87875 3.71495 0
M  V30 8439 H 807.494 3.0817 2.51547 0
M  V30 8440 H 804.233 6.07866 2.45315 0
M  V30 8441 H 803.753 4.80172 3.59437 0
M  V30 8442 H 805.432 5.39562 3.57046 0
M  V30 8443 N 805.565 -0.825799 1.34232 0
M  V30 8444 C 806.513 -1.95792 1.25572 0
M  V30 8445 C 807.507 -1.68695 0.154404 0
M  V30 8446 O 808.713 -1.77147 0.319196 0
M  V30 8447 H 805.088 -0.642949 0.390027 0
M  V30 8448 H 807.059 -2.00219 2.21258 0
M  V30 8449 C 805.808 -3.32245 1.02511 0
M  V30 8450 H 805.131 -3.53642 1.86487 0
M  V30 8451 H 806.571 -4.1192 1.00487 0
M  V30 8452 C 805.03 -3.35803 -0.27167 0
M  V30 8453 O 805.56 -3.80962 -1.274 0
M  V30 8454 N 803.766 -2.89008 -0.303778 0
M  V30 8455 H 803.313 -2.52451 0.512464 0
M  V30 8456 H 803.271 -2.9177 -1.17121 0
M  V30 8457 N 807.043 -1.17915 -1.04565 0
M  V30 8458 C 807.973 -0.925033 -2.14395 0
M  V30 8459 C 808.954 0.135375 -1.6956 0
M  V30 8460 O 810.139 -0.0161774 -1.94193 0
M  V30 8461 C 807.269 -0.444469 -3.44444 0
M  V30 8462 C 806.223 -1.44478 -4.02877 0
M  V30 8463 C 805.549 -0.821933 -5.28345 0
M  V30 8464 C 806.849 -2.81995 -4.39632 0
M  V30 8465 H 808.543 -1.84354 -2.35911 0
M  V30 8466 H 806.089 -0.887806 -1.13375 0
M  V30 8467 H 808.042 -0.254078 -4.20633 0
M  V30 8468 H 806.766 0.509592 -3.226 0
M  V30 8469 H 805.425 -1.62203 -3.28764 0
M  V30 8470 H 805.073 0.139161 -5.02807 0
M  V30 8471 H 804.773 -1.48976 -5.68401 0
M  V30 8472 H 806.297 -0.641959 -6.07216 0
M  V30 8473 H 807.711 -2.67952 -5.06828 0
M  V30 8474 H 806.108 -3.45414 -4.90723 0
M  V30 8475 H 807.178 -3.35927 -3.49687 0
M  V30 8476 N 808.521 1.23394 -0.980386 0
M  V30 8477 C 809.451 2.2717 -0.540024 0
M  V30 8478 C 810.432 1.64659 0.426787 0
M  V30 8479 O 811.617 1.91543 0.320153 0
M  V30 8480 C 808.747 3.46939 0.15836 0
M  V30 8481 C 807.701 4.21802 -0.725732 0
M  V30 8482 C 807.027 5.34597 0.104866 0
M  V30 8483 C 808.327 4.81802 -2.01654 0
M  V30 8484 H 810.021 2.64257 -1.40743 0
M  V30 8485 H 807.567 1.2703 -0.678193 0
M  V30 8486 H 809.52 4.18683 0.477737 0
M  V30 8487 H 808.244 3.08912 1.06022 0
M  V30 8488 H 806.903 3.51875 -1.02857 0
M  V30 8489 H 806.551 4.92812 1.00726 0
M  V30 8490 H 806.251 5.85607 -0.483557 0
M  V30 8491 H 807.775 6.09163 0.418624 0
M  V30 8492 H 809.189 5.45554 -1.76193 0
M  V30 8493 H 807.586 5.43098 -2.55273 0
M  V30 8494 H 808.656 4.02549 -2.70338 0
M  V30 8495 N 809.999 0.752036 1.385 0
M  V30 8496 C 811.247 0.306895 1.99756 0
M  V30 8497 C 811.568 -1.11478 1.59992 0
M  V30 8498 O 810.838 -1.76206 0.856045 0
M  V30 8499 H 809.418 0.11048 0.738785 0
M  V30 8500 H 812.08 0.965785 1.69289 0
M  V30 8501 H 811.176 0.368797 3.09913 0
M  V30 8502 N 811.477 -1.49425 0.500989 0
M  V30 8503 C 812.44 -2.27646 -0.266416 0
M  V30 8504 C 813.44 -1.3366 -0.893961 0
M  V30 8505 O 814.63 -1.5682 -0.758495 0
M  V30 8506 C 811.762 -3.11618 -1.38227 0
M  V30 8507 H 812.955 -2.96945 0.419973 0
M  V30 8508 H 810.508 -1.5419 0.255954 0
M  V30 8509 H 811.243 -2.46885 -2.10281 0
M  V30 8510 H 811.028 -3.80721 -0.937746 0
M  V30 8511 H 812.518 -3.70698 -1.92283 0
M  V30 8512 N 812.955 -0.234822 -1.55841 0
M  V30 8513 C 814.195 0.394944 -2.00548 0
M  V30 8514 C 814.559 1.56002 -1.11926 0
M  V30 8515 O 815.76 2.2567 -1.46037 0
M  V30 8516 C 814.031 0.805896 -3.48195 0
M  V30 8517 S 815.59 1.4279 -4.14918 0
M  V30 8518 H 812.408 0.124802 -0.699961 0
M  V30 8519 H 815.01 -0.347224 -1.92392 0
M  V30 8520 H 813.714 -0.0515271 -4.10368 0
M  V30 8521 H 813.245 1.58055 -3.60253 0
M  V30 8522 H 815.26 2.71699 -4.15204 0
M  V30 8523 N 814.433 1.57553 0.0384317 0
M  V30 8524 C 815.661 1.93093 0.743141 0
M  V30 8525 C 816.076 0.833787 1.69391 0
M  V30 8526 O 815.433 -0.190532 1.81503 0
M  V30 8527 C 815.484 3.28533 1.50826 0
M  V30 8528 O 815.205 4.34032 0.595665 0
M  V30 8529 C 816.706 3.78297 2.31098 0
M  V30 8530 H 813.926 0.637486 0.20941 0
M  V30 8531 H 816.47 2.045 -0.00125154 0
M  V30 8532 H 814.625 3.18552 2.20462 0
M  V30 8533 H 815.039 5.12155 1.13124 0
M  V30 8534 H 816.513 4.75602 2.80191 0
M  V30 8535 H 816.99 3.09008 3.12107 0
M  V30 8536 H 817.596 3.91331 1.66555 0
M  V30 8537 N 815.911 -0.310526 1.54511 0
M  V30 8538 C 816.843 -1.40405 1.8116 0
M  V30 8539 C 817.856 -1.47261 0.694114 0
M  V30 8540 O 819.045 -1.49751 0.971441 0
M  V30 8541 C 816.145 -2.78849 1.92604 0
M  V30 8542 C 815.318 -2.95041 3.22908 0
M  V30 8543 C 814.377 -4.13925 3.24889 0
M  V30 8544 O 813.403 -4.06463 3.98467 0
M  V30 8545 N 814.605 -5.24099 2.496 0
M  V30 8546 H 817.37 -1.17903 2.75534 0
M  V30 8547 H 814.931 -0.500564 1.53967 0
M  V30 8548 H 816.923 -3.5661 1.91342 0
M  V30 8549 H 815.493 -2.94342 1.05268 0
M  V30 8550 H 814.713 -2.04472 3.37023 0
M  V30 8551 H 816.001 -3.02763 4.08916 0
M  V30 8552 H 815.399 -5.33039 1.89435 0
M  V30 8553 H 813.956 -6.0023 2.54102 0
M  V30 8554 N 817.389 -1.46805 -0.573248 0
M  V30 8555 C 818.666 -1.43082 -1.33368 0
M  V30 8556 C 819.046 -0.119252 -2.10763 0
M  V30 8557 O 818.394 0.899239 -2.10062 0
M  V30 8558 C 818.604 -2.66643 -2.25172 0
M  V30 8559 C 819.952 -3.13188 -2.86702 0
M  V30 8560 O 820.976 -2.67258 -2.35482 0
M  V30 8561 O 819.835 -3.92994 -3.79761 0
M  V30 8562 H 816.929 -0.569451 -0.599712 0
M  V30 8563 H 819.475 -1.58984 -0.59348 0
M  V30 8564 H 818.247 -3.53649 -1.67475 0
M  V30 8565 H 817.87 -2.53247 -3.06516 0
M  V30 8566 N 818.867 0.818669 -1.34668 0
M  V30 8567 C 820.115 1.57201 -1.27013 0
M  V30 8568 C 820.436 1.94354 0.158599 0
M  V30 8569 O 819.706 1.62626 1.09223 0
M  V30 8570 H 818.286 0.582919 -0.467135 0
M  V30 8571 H 820.948 0.977234 -1.6863 0
M  V30 8572 H 820.044 2.49291 -1.87778 0
M  V30 8573 N 820.346 1.18468 1.03938 0
M  V30 8574 C 821.757 0.984808 1.58614 0
M  V30 8575 C 822.108 -0.465165 1.90606 0
M  V30 8576 O 821.233 -1.34274 1.69704 0
M  V30 8577 C 821.828 1.78135 2.8819 0
M  V30 8578 C 820.387 1.62579 3.39478 0
M  V30 8579 C 819.534 1.77501 2.13046 0
M  V30 8580 H 822.485 1.32993 0.865944 0
M  V30 8581 H 822.506 1.27119 3.58638 0
M  V30 8582 H 822.018 2.83661 2.64874 0
M  V30 8583 H 820.119 0.59595 3.67803 0
M  V30 8584 H 820.232 2.42463 4.13217 0
M  V30 8585 H 818.596 1.2046 2.24414 0
M  V30 8586 H 819.379 2.84464 1.92185 0
M  V30 8587 N 821.824 -1.22873 0.986916 0
M  V30 8588 C 822.754 -2.2688 0.552064 0
M  V30 8589 C 823.735 -1.64883 -0.418048 0
M  V30 8590 O 824.92 -1.9171 -0.30999 0
M  V30 8591 C 822.05 -3.47018 -0.139959 0
M  V30 8592 C 821.004 -4.21411 0.748091 0
M  V30 8593 C 820.33 -5.34645 -0.0765132 0
M  V30 8594 C 821.63 -4.80726 2.04206 0
M  V30 8595 H 823.324 -2.63507 1.42143 0
M  V30 8596 H 820.87 -1.26668 0.68492 0
M  V30 8597 H 822.823 -4.18931 -0.455527 0
M  V30 8598 H 821.547 -3.0947 -1.04382 0
M  V30 8599 H 820.206 -3.51325 1.04721 0
M  V30 8600 H 819.854 -4.93339 -0.981109 0
M  V30 8601 H 819.554 -5.85342 0.514606 0
M  V30 8602 H 821.078 -6.09377 -0.386313 0
M  V30 8603 H 822.492 -5.44612 1.79083 0
M  V30 8604 H 820.889 -5.41737 2.5815 0
M  V30 8605 H 821.959 -4.01109 2.72469 0
M  V30 8606 N 823.302 -0.75937 -1.38099 0
M  V30 8607 C 824.532 -0.328634 -2.0397 0
M  V30 8608 C 824.94 1.04989 -1.57398 0
M  V30 8609 O 824.283 1.67918 -0.744932 0
M  V30 8610 C 824.345 -0.279216 -3.58414 0
M  V30 8611 C 824.009 -1.60025 -4.28067 0
M  V30 8612 C 825.006 -2.55048 -4.53041 0
M  V30 8613 C 822.691 -1.87128 -4.66142 0
M  V30 8614 C 824.685 -3.7539 -5.15132 0
M  V30 8615 C 822.372 -3.07742 -5.27956 0
M  V30 8616 C 823.37 -4.01694 -5.52387 0
M  V30 8617 O 823.058 -5.20186 -6.12912 0
M  V30 8618 H 822.79 -0.137443 -0.66188 0
M  V30 8619 H 825.344 -1.03082 -1.77661 0
M  V30 8620 H 823.574 0.479254 -3.83719 0
M  V30 8621 H 825.263 0.122781 -4.05714 0
M  V30 8622 H 826.029 -2.35387 -4.24049 0
M  V30 8623 H 821.908 -1.14833 -4.46469 0
M  V30 8624 H 825.452 -4.48737 -5.34117 0
M  V30 8625 H 821.349 -3.27294 -5.56371 0
M  V30 8626 H 822.117 -5.20846 -6.31397 0
M  V30 8627 N 824.78 1.49157 -0.508906 0
M  V30 8628 C 826.026 2.02773 0.0328469 0
M  V30 8629 C 826.359 1.38714 1.35912 0
M  V30 8630 O 825.634 0.525536 1.87266 0
M  V30 8631 C 825.917 3.59664 0.177088 0
M  V30 8632 C 825.77 4.34239 -1.17287 0
M  V30 8633 C 827.089 4.30505 0.913977 0
M  V30 8634 H 824.208 0.736926 0.0104631 0
M  V30 8635 H 826.85 1.781 -0.661851 0
M  V30 8636 H 825 3.80818 0.768774 0
M  V30 8637 H 826.672 4.24561 -1.80404 0
M  V30 8638 H 824.915 3.96486 -1.76016 0
M  V30 8639 H 825.586 5.42397 -1.02516 0
M  V30 8640 H 828.062 4.14054 0.412084 0
M  V30 8641 H 826.938 5.40012 0.983759 0
M  V30 8642 H 827.199 3.96302 1.95951 0
M  V30 8643 N 826.258 0.243083 1.55714 0
M  V30 8644 C 827.507 -0.383188 1.98027 0
M  V30 8645 C 827.82 -1.59347 1.13436 0
M  V30 8646 O 829.026 -2.29065 1.45745 0
M  V30 8647 C 827.482 -0.733135 3.52354 0
M  V30 8648 C 827.09 0.455539 4.45678 0
M  V30 8649 C 828.834 -1.32381 4.03331 0
M  V30 8650 C 826.741 0.0819591 5.91343 0
M  V30 8651 H 825.671 -0.146944 0.739543 0
M  V30 8652 H 828.322 0.342697 1.80272 0
M  V30 8653 H 826.704 -1.51704 3.65789 0
M  V30 8654 H 827.878 1.23291 4.44 0
M  V30 8655 H 826.193 0.960886 4.05162 0
M  V30 8656 H 828.79 -1.61658 5.09677 0
M  V30 8657 H 829.133 -2.24698 3.50452 0
M  V30 8658 H 829.666 -0.602885 3.93205 0
M  V30 8659 H 826.405 0.972171 6.48251 0
M  V30 8660 H 825.925 -0.659291 5.96166 0
M  V30 8661 H 827.604 -0.3372 6.46121 0
M  V30 8662 N 827.736 -1.57571 -0.0300757 0
M  V30 8663 C 828.982 -1.89506 -0.722159 0
M  V30 8664 C 829.315 -0.840699 -1.7506 0
M  V30 8665 O 828.59 0.144358 -1.93964 0
M  V30 8666 C 828.873 -3.32081 -1.39262 0
M  V30 8667 C 828.726 -4.48211 -0.377768 0
M  V30 8668 C 830.045 -3.73557 -2.32687 0
M  V30 8669 H 827.164 -0.689213 -0.261064 0
M  V30 8670 H 829.806 -1.89994 0.0150388 0
M  V30 8671 H 827.956 -3.31796 -2.02098 0
M  V30 8672 H 829.628 -4.6063 0.248591 0
M  V30 8673 H 827.871 -4.3274 0.303045 0
M  V30 8674 H 828.542 -5.44854 -0.885347 0
M  V30 8675 H 831.018 -3.75202 -1.79896 0
M  V30 8676 H 829.894 -4.74125 -2.7658 0
M  V30 8677 H 830.155 -3.05759 -3.19317 0
M  V30 8678 N 829.214 0.302327 -1.54673 0
M  V30 8679 C 830.124 1.39542 -1.88587 0
M  V30 8680 C 831.14 1.55543 -0.779895 0
M  V30 8681 O 832.316 1.70233 -1.07623 0
M  V30 8682 C 829.381 2.7394 -2.12504 0
M  V30 8683 C 828.442 2.66935 -3.3622 0
M  V30 8684 C 827.675 3.94923 -3.58987 0
M  V30 8685 O 827.898 4.94218 -2.84789 0
M  V30 8686 O 826.832 3.96896 -4.52501 0
M  V30 8687 H 830.658 1.13784 -2.81579 0
M  V30 8688 H 828.243 0.49827 -1.40846 0
M  V30 8689 H 830.125 3.5346 -2.29443 0
M  V30 8690 H 828.8 2.99544 -1.22698 0
M  V30 8691 H 827.707 1.85892 -3.24646 0
M  V30 8692 H 829.04 2.46283 -4.26152 0
M  V30 8693 N 830.692 1.47107 0.565454 0
M  V30 8694 C 831.922 1.56681 1.34664 0
M  V30 8695 C 832.33 0.213011 1.87997 0
M  V30 8696 O 831.673 -0.802629 1.65238 0
M  V30 8697 C 831.735 2.52528 2.55871 0
M  V30 8698 C 831.399 3.98403 2.23883 0
M  V30 8699 C 832.396 4.87125 1.81673 0
M  V30 8700 C 830.081 4.43674 2.35496 0
M  V30 8701 C 832.075 6.19135 1.51494 0
M  V30 8702 C 829.762 5.75714 2.0493 0
M  V30 8703 C 830.76 6.63266 1.62996 0
M  V30 8704 O 830.448 7.92853 1.32813 0
M  V30 8705 H 830.18 0.531967 0.417117 0
M  V30 8706 H 832.734 1.93368 0.692669 0
M  V30 8707 H 830.964 2.10893 3.24131 0
M  V30 8708 H 832.653 2.5232 3.17945 0
M  V30 8709 H 833.419 4.534 1.72201 0
M  V30 8710 H 829.298 3.7574 2.67096 0
M  V30 8711 H 832.842 6.87429 1.1869 0
M  V30 8712 H 828.739 6.08983 2.14031 0
M  V30 8713 H 829.507 8.0528 1.46513 0
M  V30 8714 N 832.17 -0.811516 1.35101 0
M  V30 8715 C 833.133 -1.90467 1.27495 0
M  V30 8716 C 834.133 -1.59703 0.187516 0
M  V30 8717 O 835.323 -1.68528 0.440896 0
M  V30 8718 C 832.455 -3.26774 0.971154 0
M  V30 8719 H 833.648 -1.98631 2.2469 0
M  V30 8720 H 831.201 -1.00681 1.19553 0
M  V30 8721 H 831.936 -3.243 0.0028557 0
M  V30 8722 H 831.721 -3.50488 1.75785 0
M  V30 8723 H 833.211 -4.06804 0.943414 0
M  V30 8724 N 833.648 -1.19017 -1.03309 0
M  V30 8725 C 834.873 -1.01598 -1.80811 0
M  V30 8726 C 835.298 0.430773 -1.83101 0
M  V30 8727 O 834.656 1.30946 -1.25391 0
M  V30 8728 C 834.704 -1.5845 -3.23923 0
M  V30 8729 O 833.808 -0.810972 -4.04348 0
M  V30 8730 H 833.149 -0.359398 -0.558327 0
M  V30 8731 H 835.679 -1.57945 -1.30055 0
M  V30 8732 H 835.689 -1.61486 -3.74682 0
M  V30 8733 H 834.364 -2.63752 -3.21571 0
M  V30 8734 H 832.941 -0.85353 -3.63 0
M  V30 8735 N 835.127 1.22348 -0.993418 0
M  V30 8736 C 836.074 2.24294 -0.544118 0
M  V30 8737 C 837.044 1.60602 0.42381 0
M  V30 8738 O 838.229 1.87952 0.328453 0
M  V30 8739 C 835.369 3.44837 0.134578 0
M  V30 8740 C 834.482 4.23043 -0.875151 0
M  V30 8741 C 833.617 5.30928 -0.169919 0
M  V30 8742 C 832.656 6.00853 -1.16798 0
M  V30 8743 N 831.793 7.00381 -0.491021 0
M  V30 8744 H 836.633 2.6209 -1.4182 0
M  V30 8745 H 834.17 1.2881 -0.710384 0
M  V30 8746 H 836.128 4.13625 0.544998 0
M  V30 8747 H 834.758 3.07804 0.972446 0
M  V30 8748 H 833.81 3.53546 -1.40389 0
M  V30 8749 H 835.122 4.71237 -1.63516 0
M  V30 8750 H 834.276 6.05972 0.297205 0
M  V30 8751 H 833.015 4.8371 0.622586 0
M  V30 8752 H 832.02 5.24591 -1.64573 0
M  V30 8753 H 833.245 6.50159 -1.96137 0
M  V30 8754 H 831.191 6.55393 0.282037 0
M  V30 8755 H 831.108 7.46584 -1.18947 0
M  V30 8756 H 832.376 7.79486 -0.0467169 0
M  V30 8757 N 836.605 0.766683 1.37694 0
M  V30 8758 C 837.853 0.328065 1.9942 0
M  V30 8759 C 838.174 -1.09775 1.61166 0
M  V30 8760 O 837.444 -1.75288 0.874686 0
M  V30 8761 H 836.024 0.11831 0.737572 0
M  V30 8762 H 838.686 0.983686 1.68255 0
M  V30 8763 H 837.782 0.401647 3.09505 0
M  V30 8764 N 838.083 -1.48885 0.516809 0
M  V30 8765 C 839.031 -2.31066 -0.266656 0
M  V30 8766 C 840.025 -1.40393 -0.94795 0
M  V30 8767 O 841.231 -1.57366 -0.873836 0
M  V30 8768 H 837.606 -0.744654 -0.104858 0
M  V30 8769 H 839.577 -2.95045 0.446236 0
M  V30 8770 C 838.326 -3.22131 -1.3087 0
M  V30 8771 H 837.649 -3.91839 -0.793865 0
M  V30 8772 H 839.089 -3.82544 -1.82856 0
M  V30 8773 C 837.548 -2.42825 -2.33533 0
M  V30 8774 O 838.078 -2.14364 -3.39722 0
M  V30 8775 N 836.284 -2.04559 -2.06407 0
M  V30 8776 H 835.831 -2.27905 -1.20071 0
M  V30 8777 H 835.789 -1.51807 -2.75322 0
M  V30 8778 N 839.561 -0.251338 -1.55583 0
M  V30 8779 C 840.491 0.640437 -2.24545 0
M  V30 8780 C 841.472 1.17781 -1.22726 0
M  V30 8781 O 842.657 1.21633 -1.5139 0
M  V30 8782 C 839.787 1.8355 -2.94834 0
M  V30 8783 C 838.741 1.4307 -4.03379 0
M  V30 8784 C 838.067 2.70695 -4.61116 0
M  V30 8785 C 839.367 0.59848 -5.1886 0
M  V30 8786 H 841.061 0.0653772 -2.99329 0
M  V30 8787 H 838.607 0.0300042 -1.43969 0
M  V30 8788 H 840.56 2.46505 -3.4178 0
M  V30 8789 H 839.284 2.43601 -2.17546 0
M  V30 8790 H 837.943 0.824474 -3.57209 0
M  V30 8791 H 837.591 3.28954 -3.80524 0
M  V30 8792 H 837.291 2.44332 -5.34393 0
M  V30 8793 H 838.815 3.34541 -5.10798 0
M  V30 8794 H 840.229 1.13244 -5.62004 0
M  V30 8795 H 838.626 0.430728 -5.98552 0
M  V30 8796 H 839.696 -0.38829 -4.83343 0
M  V30 8797 N 841.039 1.57585 0.0217189 0
M  V30 8798 C 842.455 1.55072 0.377484 0
M  V30 8799 C 842.655 0.978423 1.76151 0
M  V30 8800 O 841.711 0.602688 2.45202 0
M  V30 8801 C 843.024 2.99462 0.272605 0
M  V30 8802 C 844.572 3.11047 0.349148 0
M  V30 8803 C 845.047 4.57182 0.273636 0
M  V30 8804 N 846.538 4.62007 0.332206 0
M  V30 8805 C 847.273 5.72631 0.296782 0
M  V30 8806 N 846.769 6.92472 0.21322 0
M  V30 8807 N 848.562 5.61028 0.347053 0
M  V30 8808 H 840.713 1.93133 -0.883925 0
M  V30 8809 H 842.976 0.886151 -0.33681 0
M  V30 8810 H 842.682 3.45088 -0.67878 0
M  V30 8811 H 842.556 3.61901 1.06335 0
M  V30 8812 H 844.943 2.65364 1.29097 0
M  V30 8813 H 845.024 2.51425 -0.471085 0
M  V30 8814 H 844.668 5.03534 -0.664548 0
M  V30 8815 H 844.598 5.14724 1.11207 0
M  V30 8816 H 847.089 3.75788 0.399003 0
M  V30 8817 H 847.402 7.72563 0.191492 0
M  V30 8818 H 845.747 6.94769 0.179161 0
M  V30 8819 H 848.938 4.66298 0.410378 0
M  V30 8820 H 849.111 6.47229 0.315979 0
M  V30 8821 N 842.517 -0.29412 1.54831 0
M  V30 8822 C 843.427 -1.3854 1.89325 0
M  V30 8823 C 844.443 -1.55127 0.788133 0
M  V30 8824 O 845.619 -1.6966 1.08524 0
M  V30 8825 C 842.684 -2.72809 2.13954 0
M  V30 8826 C 841.745 -2.65148 3.37631 0
M  V30 8827 C 840.978 -3.93014 3.61076 0
M  V30 8828 O 841.201 -4.927 2.87406 0
M  V30 8829 O 840.135 -3.94491 4.54599 0
M  V30 8830 H 843.961 -1.12289 2.82179 0
M  V30 8831 H 841.546 -0.490793 1.41108 0
M  V30 8832 H 843.428 -3.52238 2.31315 0
M  V30 8833 H 842.103 -2.9889 1.24285 0
M  V30 8834 H 841.01 -1.84168 3.25627 0
M  V30 8835 H 842.343 -2.4402 4.27452 0
M  V30 8836 N 843.995 -1.47404 -0.557645 0
M  V30 8837 C 845.225 -1.57393 -1.33832 0
M  V30 8838 C 845.633 -0.222978 -1.87881 0
M  V30 8839 O 844.976 0.793854 -1.65661 0
M  V30 8840 C 845.038 -2.53882 -2.54528 0
M  V30 8841 C 844.702 -3.99585 -2.21767 0
M  V30 8842 C 845.699 -4.88082 -1.79087 0
M  V30 8843 C 843.384 -4.44917 -2.3314 0
M  V30 8844 C 845.378 -6.1993 -1.48209 0
M  V30 8845 C 843.065 -5.76793 -2.01874 0
M  V30 8846 C 844.063 -6.64121 -1.59476 0
M  V30 8847 O 843.751 -7.93546 -1.28607 0
M  V30 8848 H 843.483 -0.534172 -0.41429 0
M  V30 8849 H 846.037 -1.93733 -0.682404 0
M  V30 8850 H 844.267 -2.12609 -3.23009 0
M  V30 8851 H 845.956 -2.54003 -3.16603 0
M  V30 8852 H 846.722 -4.54307 -1.69794 0
M  V30 8853 H 842.601 -3.77152 -2.65099 0
M  V30 8854 H 846.145 -6.88049 -1.15043 0
M  V30 8855 H 842.042 -6.1011 -2.10799 0
M  V30 8856 H 842.81 -8.06046 -1.42241 0
M  V30 8857 N 845.473 0.80434 -1.35529 0
M  V30 8858 C 846.403 1.93086 -1.31301 0
M  V30 8859 C 847.384 1.69068 -0.187044 0
M  V30 8860 O 848.569 1.90399 -0.382359 0
M  V30 8861 C 845.699 3.29867 -1.0865 0
M  V30 8862 C 844.653 3.68373 -2.17911 0
M  V30 8863 C 843.979 5.0334 -1.80423 0
M  V30 8864 C 845.279 3.78516 -3.59893 0
M  V30 8865 H 846.973 1.96882 -2.25561 0
M  V30 8866 H 844.519 0.945841 -1.08581 0
M  V30 8867 H 846.472 4.08281 -1.04331 0
M  V30 8868 H 845.196 3.2642 -0.108359 0
M  V30 8869 H 843.855 2.92247 -2.21331 0
M  V30 8870 H 843.503 4.96399 -0.812213 0
M  V30 8871 H 843.203 5.30074 -2.53565 0
M  V30 8872 H 844.727 5.84191 -1.77633 0
M  V30 8873 H 846.141 4.47155 -3.58783 0
M  V30 8874 H 844.538 4.16721 -4.31814 0
M  V30 8875 H 845.608 2.8001 -3.95882 0
M  V30 8876 N 846.951 1.19563 1.02676 0
M  V30 8877 C 847.883 0.893054 2.11086 0
M  V30 8878 C 848.896 -0.115101 1.62393 0
M  V30 8879 O 850.085 0.11459 1.78132 0
M  V30 8880 C 847.185 0.315533 3.37428 0
M  V30 8881 C 846.358 1.37276 4.153 0
M  V30 8882 C 845.417 0.808398 5.19953 0
M  V30 8883 O 844.443 1.48661 5.49444 0
M  V30 8884 N 845.645 -0.387253 5.79207 0
M  V30 8885 H 848.41 1.82622 2.37633 0
M  V30 8886 H 845.971 1.09792 1.18984 0
M  V30 8887 H 847.963 -0.0759166 4.04629 0
M  V30 8888 H 846.533 -0.521961 3.08211 0
M  V30 8889 H 845.753 1.93897 3.43217 0
M  V30 8890 H 847.041 2.08509 4.64114 0
M  V30 8891 H 846.439 -0.955725 5.57568 0
M  V30 8892 H 844.996 -0.720457 6.47806 0
M  V30 8893 N 848.429 -1.21819 0.999893 0
M  V30 8894 C 849.392 -2.22227 0.561044 0
M  V30 8895 C 850.392 -1.56722 -0.359858 0
M  V30 8896 O 851.582 -1.73546 -0.150848 0
M  V30 8897 C 848.714 -3.40409 -0.182987 0
M  V30 8898 H 849.907 -2.62567 1.44909 0
M  V30 8899 H 847.46 -1.34991 0.78785 0
M  V30 8900 H 848.195 -3.05551 -1.08671 0
M  V30 8901 H 847.98 -3.89171 0.47833 0
M  V30 8902 H 849.47 -4.14856 -0.477952 0
M  V30 8903 N 849.908 -0.773975 -1.37286 0
M  V30 8904 C 851.324 -0.45386 -1.53011 0
M  V30 8905 C 851.524 1.03018 -1.73175 0
M  V30 8906 O 850.58 1.81597 -1.75438 0
M  V30 8907 C 851.893 -1.27087 -2.72524 0
M  V30 8908 C 853.441 -1.26299 -2.86387 0
M  V30 8909 C 853.916 -2.0634 -4.08886 0
M  V30 8910 N 855.407 -2.03706 -4.16003 0
M  V30 8911 C 856.142 -2.62418 -5.09828 0
M  V30 8912 N 855.638 -3.29926 -6.09197 0
M  V30 8913 N 857.431 -2.52236 -5.02328 0
M  V30 8914 H 849.582 -1.73551 -1.22449 0
M  V30 8915 H 851.845 -0.736874 -0.596423 0
M  V30 8916 H 851.551 -2.32263 -2.64096 0
M  V30 8917 H 851.425 -0.90157 -3.66267 0
M  V30 8918 H 853.812 -0.219213 -2.94285 0
M  V30 8919 H 853.893 -1.67195 -1.93596 0
M  V30 8920 H 853.537 -3.10741 -4.01749 0
M  V30 8921 H 853.467 -1.62825 -5.00795 0
M  V30 8922 H 855.958 -1.54559 -3.44848 0
M  V30 8923 H 856.271 -3.72095 -6.77322 0
M  V30 8924 H 854.616 -3.34026 -6.09469 0
M  V30 8925 H 857.807 -1.99108 -4.23643 0
M  V30 8926 H 857.98 -2.98286 -5.75265 0
M  V30 8927 N 851.386 1.48609 -0.524698 0
M  V30 8928 C 852.802 1.58557 -0.182199 0
M  V30 8929 C 853.002 1.52732 1.31435 0
M  V30 8930 O 852.058 1.41362 2.0922 0
M  V30 8931 C 853.371 2.90406 -0.78004 0
M  V30 8932 C 854.919 3.03924 -0.748293 0
M  V30 8933 C 855.394 4.38427 -1.32462 0
M  V30 8934 N 856.885 4.4498 -1.28635 0
M  V30 8935 C 857.62 5.47551 -1.70223 0
M  V30 8936 N 857.116 6.57103 -2.19515 0
M  V30 8937 N 858.909 5.38402 -1.61493 0
M  V30 8938 H 851.06 1.50638 -1.4974 0
M  V30 8939 H 853.323 0.714952 -0.622533 0
M  V30 8940 H 853.029 3.00308 -1.83052 0
M  V30 8941 H 852.903 3.76343 -0.254075 0
M  V30 8942 H 855.29 2.93638 0.293407 0
M  V30 8943 H 855.371 2.19611 -1.31167 0
M  V30 8944 H 855.015 4.49466 -2.36522 0
M  V30 8945 H 854.945 5.21418 -0.736967 0
M  V30 8946 H 857.436 3.66393 -0.92545 0
M  V30 8947 H 857.749 7.31499 -2.49257 0
M  V30 8948 H 856.094 6.58081 -2.23506 0
M  V30 8949 H 859.285 4.5171 -1.22785 0
M  V30 8950 H 859.458 6.18208 -1.94225 0
M  V30 8951 N 852.864 0.259585 1.55447 0
M  V30 8952 C 854.275 -0.241165 1.85136 0
M  V30 8953 C 854.626 -1.56634 1.18153 0
M  V30 8954 O 853.751 -2.11359 0.464351 0
M  V30 8955 C 854.346 -0.444355 3.35873 0
M  V30 8956 C 852.905 -0.889354 3.65742 0
M  V30 8957 C 852.052 0.0262474 2.77288 0
M  V30 8958 H 855.003 0.481808 1.51209 0
M  V30 8959 H 855.024 -1.28517 3.58139 0
M  V30 8960 H 854.536 0.520289 3.84597 0
M  V30 8961 H 852.637 -1.86602 3.22507 0
M  V30 8962 H 852.75 -0.737432 4.73391 0
M  V30 8963 H 851.114 -0.487361 2.49994 0
M  V30 8964 H 851.897 0.986494 3.28821 0
M  V30 8965 N 854.342 -1.57594 -0.0133615 0
M  V30 8966 C 855.753 -1.78168 -0.557937 0
M  V30 8967 C 856.104 -0.892616 -1.74719 0
M  V30 8968 O 855.229 -0.0915491 -2.16206 0
M  V30 8969 C 855.824 -3.23115 -1.01894 0
M  V30 8970 C 854.383 -3.44831 -1.50892 0
M  V30 8971 C 853.53 -2.73558 -0.454044 0
M  V30 8972 H 856.481 -1.57266 0.212843 0
M  V30 8973 H 856.502 -3.30493 -1.8856 0
M  V30 8974 H 856.014 -3.87798 -0.153175 0
M  V30 8975 H 854.115 -2.85345 -2.39602 0
M  V30 8976 H 854.228 -4.53485 -1.54559 0
M  V30 8977 H 852.592 -2.37787 -0.912666 0
M  V30 8978 H 853.375 -3.40932 0.402524 0
M  V30 8979 N 855.82 0.285905 -1.54985 0
M  V30 8980 C 857.068 1.01718 -1.74636 0
M  V30 8981 C 857.389 1.87277 -0.543342 0
M  V30 8982 O 856.659 1.90847 0.442078 0
M  V30 8983 H 855.239 0.378549 -0.643979 0
M  V30 8984 H 857.901 0.313247 -1.92366 0
M  V30 8985 H 856.997 1.66159 -2.64192 0
M  V30 8986 N 857.298 1.47698 0.54982 0
M  V30 8987 C 858.228 1.63622 1.66583 0
M  V30 8988 C 859.209 0.485477 1.63025 0
M  V30 8989 O 860.394 0.715692 1.80531 0
M  V30 8990 C 857.524 1.65721 3.05211 0
M  V30 8991 C 856.478 2.80097 3.2362 0
M  V30 8992 C 855.804 2.67272 4.63109 0
M  V30 8993 C 857.104 4.21612 3.08286 0
M  V30 8994 H 858.798 2.57049 1.53512 0
M  V30 8995 H 856.344 1.23705 0.737099 0
M  V30 8996 H 858.297 1.75451 3.83138 0
M  V30 8997 H 857.021 0.688593 3.19258 0
M  V30 8998 H 855.68 2.69889 2.48104 0
M  V30 8999 H 855.328 1.68422 4.73965 0
M  V30 9000 H 855.028 3.44008 4.76374 0
M  V30 9001 H 856.552 2.78942 5.43161 0
M  V30 9002 H 857.966 4.32758 3.76024 0
M  V30 9003 H 856.363 4.99193 3.33057 0
M  V30 9004 H 857.433 4.39462 2.04942 0
M  V30 9005 N 858.776 -0.797141 1.35954 0
M  V30 9006 C 859.686 -1.94088 1.31784 0
M  V30 9007 C 860.702 -1.72588 0.221227 0
M  V30 9008 O 861.878 -1.96256 0.452255 0
M  V30 9009 C 858.943 -3.28828 1.09878 0
M  V30 9010 C 858.004 -3.63158 2.28942 0
M  V30 9011 C 857.237 -4.91469 2.08072 0
M  V30 9012 O 857.46 -5.60616 1.05196 0
M  V30 9013 O 856.394 -5.24277 2.95664 0
M  V30 9014 H 860.22 -2.00554 2.28061 0
M  V30 9015 H 857.805 -0.936288 1.16422 0
M  V30 9016 H 859.687 -4.09473 0.995485 0
M  V30 9017 H 858.362 -3.23271 0.16659 0
M  V30 9018 H 857.269 -2.82851 2.44839 0
M  V30 9019 H 858.602 -3.7343 3.20641 0
M  V30 9020 N 860.254 -1.20106 -1.0204 0
M  V30 9021 C 861.484 -1.0329 -1.78927 0
M  V30 9022 C 861.892 0.421115 -1.84454 0
M  V30 9023 O 861.235 1.30422 -1.29367 0
M  V30 9024 C 861.297 -1.53627 -3.25021 0
M  V30 9025 C 860.961 -3.01869 -3.4311 0
M  V30 9026 C 861.958 -3.9956 -3.32638 0
M  V30 9027 C 859.643 -3.40746 -3.6905 0
M  V30 9028 C 861.637 -5.34119 -3.47844 0
M  V30 9029 C 859.324 -4.75462 -3.839 0
M  V30 9030 C 860.322 -5.71957 -3.73302 0
M  V30 9031 O 860.01 -7.04231 -3.87703 0
M  V30 9032 H 859.742 -0.363962 -0.569656 0
M  V30 9033 H 862.296 -1.59551 -1.29354 0
M  V30 9034 H 860.526 -0.917481 -3.75658 0
M  V30 9035 H 862.215 -1.32889 -3.8353 0
M  V30 9036 H 862.981 -3.70869 -3.12539 0
M  V30 9037 H 858.86 -2.66182 -3.76388 0
M  V30 9038 H 862.404 -6.09421 -3.39488 0
M  V30 9039 H 858.301 -5.03844 -4.03499 0
M  V30 9040 H 859.069 -7.11425 -4.04744 0
M  V30 9041 N 861.732 1.21287 -1.00634 0
M  V30 9042 C 862.972 1.92106 -0.698194 0
M  V30 9043 C 863.336 1.76437 0.757222 0
M  V30 9044 O 864.537 2.41641 1.17741 0
M  V30 9045 C 862.808 3.39748 -1.10932 0
M  V30 9046 S 864.367 4.29013 -0.921586 0
M  V30 9047 H 861.185 0.663755 -0.254853 0
M  V30 9048 H 863.787 1.46772 -1.29145 0
M  V30 9049 H 862.491 3.48669 -2.16467 0
M  V30 9050 H 862.022 3.90101 -0.508419 0
M  V30 9051 H 864.037 4.95871 0.180578 0
M  V30 9052 N 863.21 0.781244 1.36873 0
M  V30 9053 C 864.44 0.361042 2.03421 0
M  V30 9054 C 864.848 -1.02471 1.59048 0
M  V30 9055 O 864.191 -1.66712 0.771552 0
M  V30 9056 C 864.253 0.336202 3.57924 0
M  V30 9057 C 863.917 1.66815 4.25467 0
M  V30 9058 C 864.914 2.62224 4.48926 0
M  V30 9059 C 862.599 1.9452 4.63106 0
M  V30 9060 C 864.593 3.83538 5.09095 0
M  V30 9061 C 862.28 3.16103 5.22994 0
M  V30 9062 C 863.278 4.10431 5.45926 0
M  V30 9063 O 862.966 5.29871 6.04559 0
M  V30 9064 H 862.698 0.147956 0.65961 0
M  V30 9065 H 865.252 1.05895 1.75998 0
M  V30 9066 H 863.482 -0.418147 3.84433 0
M  V30 9067 H 865.171 -0.0582199 4.05858 0
M  V30 9068 H 865.937 2.42104 4.20251 0
M  V30 9069 H 861.816 1.21921 4.44585 0
M  V30 9070 H 865.36 4.57178 5.2691 0
M  V30 9071 H 861.257 3.36104 5.51094 0
M  V30 9072 H 862.025 5.30825 6.23031 0
M  V30 9073 N 864.689 -1.48329 0.532571 0
M  V30 9074 C 865.637 -2.31336 -0.242133 0
M  V30 9075 C 866.631 -1.41391 -0.933006 0
M  V30 9076 O 867.837 -1.58284 -0.857096 0
M  V30 9077 H 864.212 -0.745724 -0.0969536 0
M  V30 9078 H 866.183 -2.94555 0.477504 0
M  V30 9079 C 864.932 -3.23501 -1.27446 0
M  V30 9080 H 864.255 -3.92659 -0.752261 0
M  V30 9081 H 865.695 -3.84461 -1.78789 0
M  V30 9082 C 864.154 -2.45288 -2.30944 0
M  V30 9083 O 864.684 -2.17955 -3.37429 0
M  V30 9084 N 862.89 -2.06737 -2.04226 0
M  V30 9085 H 862.437 -2.29166 -1.17647 0
M  V30 9086 H 862.395 -1.54719 -2.73696 0
M  V30 9087 N 866.167 -0.267825 -1.55308 0
M  V30 9088 C 867.578 0.231344 -1.85261 0
M  V30 9089 C 867.929 1.56006 -1.18982 0
M  V30 9090 O 867.054 2.1111 -0.475554 0
M  V30 9091 C 867.649 0.426537 -3.36104 0
M  V30 9092 C 866.208 0.869945 -3.66209 0
M  V30 9093 C 865.355 -0.0409522 -2.7727 0
M  V30 9094 H 868.306 -0.489821 -1.50952 0
M  V30 9095 H 868.327 1.26616 -3.58816 0
M  V30 9096 H 867.839 -0.540678 -3.84315 0
M  V30 9097 H 865.94 1.84889 -3.23492 0
M  V30 9098 H 866.053 0.712316 -4.73775 0
M  V30 9099 H 864.417 0.474097 -2.50249 0
M  V30 9100 H 865.2 -1.00392 -3.28293 0
M  V30 9101 N 867.645 1.57599 0.00500368 0
M  V30 9102 C 868.87 1.95026 0.705663 0
M  V30 9103 C 869.295 0.869643 1.6679 0
M  V30 9104 O 868.653 -0.172659 1.80476 0
M  V30 9105 C 868.701 3.31545 1.4181 0
M  V30 9106 O 867.805 3.25495 2.53232 0
M  V30 9107 H 867.146 0.636808 0.188074 0
M  V30 9108 H 869.676 2.04547 -0.046696 0
M  V30 9109 H 869.686 3.66996 1.78265 0
M  V30 9110 H 868.361 4.09751 0.712543 0
M  V30 9111 H 866.938 3.01714 2.19142 0
M  V30 9112 N 869.123 -0.277682 1.55134 0
M  V30 9113 C 870.073 -1.34531 1.8408 0
M  V30 9114 C 871.057 -1.44904 0.699393 0
M  V30 9115 O 872.249 -1.48664 0.960623 0
M  V30 9116 C 869.378 -2.7064 2.11208 0
M  V30 9117 C 868.464 -2.64396 3.31596 0
M  V30 9118 N 868.855 -2.2777 4.51613 0
M  V30 9119 C 867.153 -2.95464 3.34091 0
M  V30 9120 C 867.854 -2.31401 5.33693 0
M  V30 9121 N 866.83 -2.69688 4.71984 0
M  V30 9122 H 870.632 -1.05214 2.74421 0
M  V30 9123 H 868.146 -0.486311 1.54948 0
M  V30 9124 H 870.143 -3.47649 2.301 0
M  V30 9125 H 868.803 -3.00849 1.22148 0
M  V30 9126 H 869.814 -1.99827 4.77797 0
M  V30 9127 H 866.491 -3.30415 2.5521 0
M  V30 9128 H 867.881 -2.05685 6.39643 0
M  V30 9129 N 870.601 -1.47988 -0.541979 0
M  V30 9130 C 871.549 -1.62044 -1.66867 0
M  V30 9131 C 872.543 -0.487217 -1.62242 0
M  V30 9132 O 873.749 -0.66554 -1.67244 0
M  V30 9133 H 870.124 -0.51024 -0.552412 0
M  V30 9134 H 872.095 -2.56695 -1.52153 0
M  V30 9135 C 870.844 -1.66615 -3.0518 0
M  V30 9136 H 870.167 -2.5317 -3.09427 0
M  V30 9137 H 871.607 -1.80496 -3.83663 0
M  V30 9138 C 870.066 -0.402421 -3.34488 0
M  V30 9139 O 870.596 0.48992 -3.98701 0
M  V30 9140 N 868.802 -0.277778 -2.89269 0
M  V30 9141 H 868.349 -1.00488 -2.37192 0
M  V30 9142 H 868.307 0.566784 -3.09249 0
M  V30 9143 N 872.079 0.78992 -1.36375 0
M  V30 9144 C 873.49 1.36506 -1.2737 0
M  V30 9145 C 873.841 1.96008 0.086711 0
M  V30 9146 O 872.966 1.92521 0.988159 0
M  V30 9147 C 873.561 2.48175 -2.30639 0
M  V30 9148 C 872.12 3.01506 -2.25325 0
M  V30 9149 C 871.267 1.74581 -2.15445 0
M  V30 9150 H 874.218 0.591606 -1.47261 0
M  V30 9151 H 874.239 3.27179 -1.94253 0
M  V30 9152 H 873.751 2.04838 -3.2964 0
M  V30 9153 H 871.852 3.49265 -1.29788 0
M  V30 9154 H 871.965 3.58355 -3.17992 0
M  V30 9155 H 870.329 1.96794 -1.61692 0
M  V30 9156 H 871.112 1.33373 -3.16333 0
M  V30 9157 N 873.557 1.20646 1.01402 0
M  V30 9158 C 874.467 0.973385 2.13453 0
M  V30 9159 C 875.483 -0.0715865 1.73853 0
M  V30 9160 O 876.659 0.116438 2.01063 0
M  V30 9161 C 873.724 0.531285 3.42605 0
M  V30 9162 C 872.785 1.64741 3.96433 0
M  V30 9163 C 872.018 1.22631 5.1942 0
M  V30 9164 O 872.241 0.0960891 5.70319 0
M  V30 9165 O 871.175 2.03474 5.66465 0
M  V30 9166 H 875.001 1.91164 2.35987 0
M  V30 9167 H 872.586 0.990553 1.11841 0
M  V30 9168 H 874.468 0.294095 4.20373 0
M  V30 9169 H 873.143 -0.378358 3.21481 0
M  V30 9170 H 872.05 1.93891 3.19933 0
M  V30 9171 H 873.383 2.53415 4.2195 0
M  V30 9172 N 875.035 -1.20752 1.01276 0
M  V30 9173 C 875.945 -2.27079 0.589277 0
M  V30 9174 C 876.961 -1.6999 -0.371389 0
M  V30 9175 O 878.137 -2.00044 -0.233294 0
M  V30 9176 C 875.202 -3.4663 -0.0696715 0
M  V30 9177 C 874.263 -4.18962 0.936454 0
M  V30 9178 C 873.496 -5.32806 0.308856 0
M  V30 9179 O 873.719 -5.63376 -0.8924 0
M  V30 9180 O 872.653 -5.93131 1.02367 0
M  V30 9181 H 876.479 -2.6551 1.47438 0
M  V30 9182 H 874.064 -1.27297 0.782045 0
M  V30 9183 H 875.946 -4.19119 -0.437873 0
M  V30 9184 H 874.621 -3.10082 -0.929029 0
M  V30 9185 H 873.528 -3.48661 1.35595 0
M  V30 9186 H 874.861 -4.59441 1.76565 0
M  V30 9187 N 876.513 -0.788492 -1.36457 0
M  V30 9188 C 877.445 -0.144208 -2.28746 0
M  V30 9189 C 878.458 0.646009 -1.49434 0
M  V30 9190 O 879.647 0.481344 -1.71888 0
M  V30 9191 C 876.747 0.818869 -3.28858 0
M  V30 9192 C 875.92 0.0789055 -4.37329 0
M  V30 9193 C 874.979 0.957791 -5.1741 0
M  V30 9194 O 874.005 0.415378 -5.67682 0
M  V30 9195 N 875.207 2.28216 -5.33758 0
M  V30 9196 H 877.972 -0.936949 -2.84678 0
M  V30 9197 H 875.533 -0.642317 -1.48613 0
M  V30 9198 H 877.525 1.41065 -3.79319 0
M  V30 9199 H 876.095 1.51249 -2.73573 0
M  V30 9200 H 875.315 -0.693939 -3.88044 0
M  V30 9201 H 876.603 -0.431753 -5.06965 0
M  V30 9202 H 876.001 2.747 -4.94527 0
M  V30 9203 H 874.558 2.8236 -5.87466 0
M  V30 9204 N 877.991 1.48044 -0.54043 0
M  V30 9205 C 878.921 2.32597 0.205178 0
M  V30 9206 C 879.902 1.42748 0.925041 0
M  V30 9207 O 881.087 1.71624 0.908784 0
M  V30 9208 C 878.217 3.24175 1.24612 0
M  V30 9209 C 877.171 4.23131 0.64376 0
M  V30 9210 C 876.497 5.03915 1.78812 0
M  V30 9211 C 877.797 5.20831 -0.39144 0
M  V30 9212 H 879.491 2.95184 -0.500676 0
M  V30 9213 H 877.037 1.41948 -0.242225 0
M  V30 9214 H 878.99 3.82158 1.77576 0
M  V30 9215 H 877.714 2.59608 1.98169 0
M  V30 9216 H 876.373 3.66349 0.135554 0
M  V30 9217 H 876.021 4.35765 2.51232 0
M  V30 9218 H 875.721 5.709 1.39094 0
M  V30 9219 H 877.245 5.64753 2.32134 0
M  V30 9220 H 878.659 5.73277 0.0515064 0
M  V30 9221 H 877.056 5.95926 -0.706569 0
M  V30 9222 H 878.126 4.6733 -1.29345 0
M  V30 9223 N 879.47 0.276058 1.55163 0
M  V30 9224 C 880.695 -0.346648 2.04483 0
M  V30 9225 C 881.12 -1.48613 1.15308 0
M  V30 9226 O 880.478 -1.80663 0.151875 0
M  V30 9227 C 880.526 -0.804268 3.51517 0
M  V30 9228 O 879.63 -1.91143 3.65429 0
M  V30 9229 H 878.971 -0.0715251 0.660136 0
M  V30 9230 H 881.501 0.410631 2.00437 0
M  V30 9231 H 881.511 -1.09977 3.92898 0
M  V30 9232 H 880.186 0.0294123 4.1589 0
M  V30 9233 H 878.763 -1.61839 3.3595 0
M  V30 9234 N 880.948 -1.576 0.00335426 0
M  V30 9235 C 882.173 -1.95398 -0.695311 0
M  V30 9236 C 882.598 -0.878476 -1.66326 0
M  V30 9237 O 881.956 0.163086 -1.80565 0
M  V30 9238 C 882.004 -3.32293 -1.40049 0
M  V30 9239 O 881.108 -3.26834 -2.51502 0
M  V30 9240 H 880.449 -0.637796 -0.184694 0
M  V30 9241 H 882.979 -2.04519 0.057543 0
M  V30 9242 H 882.989 -3.67936 -1.76316 0
M  V30 9243 H 881.664 -4.10123 -0.690803 0
M  V30 9244 H 880.241 -3.02872 -2.17539 0
M  V30 9245 N 882.426 0.269451 -1.5528 0
M  V30 9246 C 883.373 1.33316 -1.88403 0
M  V30 9247 C 884.343 1.48909 -0.735881 0
M  V30 9248 O 885.528 1.63259 -0.987479 0
M  V30 9249 C 882.668 2.68778 -2.16454 0
M  V30 9250 C 881.781 2.61377 -3.43956 0
M  V30 9251 C 880.916 3.89042 -3.6169 0
M  V30 9252 C 879.955 3.76166 -4.82872 0
M  V30 9253 N 879.092 4.95673 -4.97245 0
M  V30 9254 H 883.932 1.04368 -2.79126 0
M  V30 9255 H 881.469 0.504147 -1.38191 0
M  V30 9256 H 883.427 3.47599 -2.30719 0
M  V30 9257 H 882.057 2.9592 -1.28961 0
M  V30 9258 H 881.109 1.74247 -3.38145 0
M  V30 9259 H 882.421 2.47764 -4.32914 0
M  V30 9260 H 881.575 4.76304 -3.75791 0
M  V30 9261 H 880.314 4.05526 -2.70924 0
M  V30 9262 H 879.319 2.87287 -4.68771 0
M  V30 9263 H 880.544 3.61198 -5.75077 0
M  V30 9264 H 878.49 5.12561 -4.09411 0
M  V30 9265 H 878.407 4.84605 -5.80254 0
M  V30 9266 H 879.675 5.84498 -5.15735 0
M  V30 9267 N 883.904 1.48273 0.534124 0
M  V30 9268 C 885.181 1.46567 1.29528 0
M  V30 9269 C 885.561 0.17509 2.10373 0
M  V30 9270 O 884.909 -0.843228 2.12372 0
M  V30 9271 C 885.119 2.72519 2.18023 0
M  V30 9272 C 886.467 3.2068 2.78298 0
M  V30 9273 O 887.491 2.73408 2.28313 0
M  V30 9274 O 886.35 4.02924 3.69208 0
M  V30 9275 H 883.444 0.585151 0.584403 0
M  V30 9276 H 885.99 1.60502 0.551119 0
M  V30 9277 H 884.762 3.57965 1.5804 0
M  V30 9278 H 884.385 2.61285 2.99693 0
M  V30 9279 N 885.382 -0.782676 1.36792 0
M  V30 9280 C 886.312 -1.90973 1.34356 0
M  V30 9281 C 887.293 -1.6875 0.213917 0
M  V30 9282 O 888.478 -1.89766 0.412601 0
M  V30 9283 C 885.608 -3.28097 1.13884 0
M  V30 9284 C 884.562 -3.6486 2.23744 0
M  V30 9285 C 883.888 -5.00406 1.88408 0
M  V30 9286 C 885.188 -3.72742 3.6587 0
M  V30 9287 H 886.882 -1.93268 2.28665 0
M  V30 9288 H 884.428 -0.928447 1.10072 0
M  V30 9289 H 886.381 -4.06569 1.10813 0
M  V30 9290 H 885.105 -3.26206 0.160275 0
M  V30 9291 H 883.764 -2.88689 2.25952 0
M  V30 9292 H 883.412 -4.95044 0.891083 0
M  V30 9293 H 883.112 -5.25973 2.61966 0
M  V30 9294 H 884.636 -5.81291 1.86905 0
M  V30 9295 H 886.05 -4.4139 3.65852 0
M  V30 9296 H 884.447 -4.09798 4.38389 0
M  V30 9297 H 885.517 -2.73676 4.00287 0
M  V30 9298 N 886.86 -1.21182 -1.00761 0
M  V30 9299 C 888.106 -1.02898 -1.74756 0
M  V30 9300 C 888.439 0.436774 -1.89225 0
M  V30 9301 O 887.714 1.32415 -1.42466 0
M  V30 9302 C 887.997 -1.72372 -3.16164 0
M  V30 9303 C 887.85 -3.2645 -3.09435 0
M  V30 9304 C 889.169 -1.46415 -4.15031 0
M  V30 9305 H 886.288 -0.375214 -0.634337 0
M  V30 9306 H 888.93 -1.49321 -1.17487 0
M  V30 9307 H 887.08 -1.32906 -3.65059 0
M  V30 9308 H 888.752 -3.75269 -2.68274 0
M  V30 9309 H 886.995 -3.56889 -2.46603 0
M  V30 9310 H 887.666 -3.70226 -4.09435 0
M  V30 9311 H 890.142 -1.80671 -3.7483 0
M  V30 9312 H 889.018 -1.97544 -5.12121 0
M  V30 9313 H 889.279 -0.39361 -4.40344 0
M  V30 9314 N 888.338 1.20213 -1.01915 0
M  V30 9315 C 889.563 1.94163 -0.729076 0
M  V30 9316 C 889.988 1.74416 0.704323 0
M  V30 9317 O 889.346 1.0401 1.48498 0
M  V30 9318 C 889.394 3.44258 -1.07324 0
M  V30 9319 O 888.498 4.11979 -0.186367 0
M  V30 9320 H 887.839 0.606506 -0.270272 0
M  V30 9321 H 890.369 1.52571 -1.3632 0
M  V30 9322 H 890.379 3.94888 -1.02603 0
M  V30 9323 H 889.054 3.57954 -2.11759 0
M  V30 9324 H 887.631 3.7176 -0.291334 0
M  V30 9325 N 889.816 0.795718 1.36037 0
M  V30 9326 C 891.056 0.376514 2.00902 0
M  V30 9327 C 891.42 -1.03405 1.61776 0
M  V30 9328 O 892.621 -1.55468 2.19279 0
M  V30 9329 C 890.892 0.542086 3.53265 0
M  V30 9330 S 892.451 0.211694 4.38289 0
M  V30 9331 H 889.269 0.143527 0.696363 0
M  V30 9332 H 891.871 1.03559 1.65819 0
M  V30 9333 H 890.575 1.56888 3.79229 0
M  V30 9334 H 890.106 -0.132698 3.93176 0
M  V30 9335 H 892.121 -0.98452 4.86335 0
M  V30 9336 N 891.294 -1.47756 0.548274 0
M  V30 9337 C 892.257 -2.28379 -0.193857 0
M  V30 9338 C 893.257 -1.36436 -0.850986 0
M  V30 9339 O 894.447 -1.59154 -0.70822 0
M  V30 9340 C 891.579 -3.15858 -1.28243 0
M  V30 9341 H 892.772 -2.95458 0.514231 0
M  V30 9342 H 890.325 -1.53298 0.304879 0
M  V30 9343 H 891.06 -2.5345 -2.0232 0
M  V30 9344 H 890.845 -3.83512 -0.816148 0
M  V30 9345 H 892.335 -3.76627 -1.80393 0
M  V30 9346 N 892.772 -0.284283 -1.55015 0
M  V30 9347 C 894.002 0.332465 -2.03907 0
M  V30 9348 C 894.41 1.49331 -1.16177 0
M  V30 9349 O 893.753 1.82851 -0.176395 0
M  V30 9350 C 893.815 0.867193 -3.48884 0
M  V30 9351 C 893.479 -0.166198 -4.56698 0
M  V30 9352 C 894.476 -0.988898 -5.10408 0
M  V30 9353 C 892.161 -0.303081 -5.01385 0
M  V30 9354 C 894.155 -1.93458 -6.07333 0
M  V30 9355 C 891.842 -1.25223 -5.98133 0
M  V30 9356 C 892.84 -2.06647 -6.50988 0
M  V30 9357 O 892.528 -2.99955 -7.45843 0
M  V30 9358 H 892.26 0.0786597 -0.671408 0
M  V30 9359 H 894.814 -0.416871 -2.01125 0
M  V30 9360 H 893.044 1.66676 -3.48935 0
M  V30 9361 H 894.733 1.39802 -3.81065 0
M  V30 9362 H 895.499 -0.89393 -4.76691 0
M  V30 9363 H 891.378 0.320711 -4.59883 0
M  V30 9364 H 894.922 -2.57053 -6.48513 0
M  V30 9365 H 890.819 -1.34798 -6.31268 0
M  V30 9366 H 891.587 -2.94742 -7.6359 0
M  V30 9367 N 894.251 1.57596 -0.0117121 0
M  V30 9368 C 895.183 2.06025 1.0043 0
M  V30 9369 C 896.196 0.980348 1.29973 0
M  V30 9370 O 897.385 1.25691 1.26744 0
M  V30 9371 C 894.485 2.45514 2.33615 0
M  V30 9372 C 893.658 3.76378 2.22842 0
M  V30 9373 C 892.717 4.02606 3.38814 0
M  V30 9374 O 891.743 4.73108 3.16477 0
M  V30 9375 N 892.945 3.51416 4.62047 0
M  V30 9376 H 895.71 2.93811 0.591206 0
M  V30 9377 H 893.271 1.60947 0.175427 0
M  V30 9378 H 895.263 2.60166 3.09993 0
M  V30 9379 H 893.833 1.63186 2.66625 0
M  V30 9380 H 893.053 3.71691 1.313 0
M  V30 9381 H 894.341 4.62149 2.12829 0
M  V30 9382 H 893.739 2.94346 4.83091 0
M  V30 9383 H 892.296 3.71377 5.35651 0
M  V30 9384 N 895.729 -0.261212 1.5542 0
M  V30 9385 C 896.975 -0.992699 1.76843 0
M  V30 9386 C 897.308 -1.8551 0.574428 0
M  V30 9387 O 896.583 -1.89739 -0.427713 0
M  V30 9388 C 896.866 -1.86532 3.08022 0
M  V30 9389 C 896.719 -1.03206 4.378 0
M  V30 9390 C 898.038 -2.85036 3.35324 0
M  V30 9391 H 895.157 -0.359473 0.643388 0
M  V30 9392 H 897.799 -0.264214 1.88154 0
M  V30 9393 H 895.949 -2.48644 2.9851 0
M  V30 9394 H 897.621 -0.430743 4.59285 0
M  V30 9395 H 895.864 -0.335911 4.32497 0
M  V30 9396 H 896.535 -1.6761 5.25938 0
M  V30 9397 H 899.011 -2.3306 3.44706 0
M  V30 9398 H 897.887 -3.43226 4.28354 0
M  V30 9399 H 898.148 -3.60768 2.55537 0
M  V30 9400 N 897.207 -1.48554 -0.526253 0
M  V30 9401 C 898.17 -1.62868 -1.61266 0
M  V30 9402 C 899.17 -0.501762 -1.52771 0
M  V30 9403 O 900.36 -0.76764 -1.56374 0
M  V30 9404 C 897.492 -1.60238 -3.00893 0
M  V30 9405 H 898.685 -2.59742 -1.49913 0
M  V30 9406 H 896.238 -1.37207 -0.748595 0
M  V30 9407 H 896.973 -0.648545 -3.17749 0
M  V30 9408 H 896.758 -2.42054 -3.08468 0
M  V30 9409 H 898.248 -1.73455 -3.79872 0
M  V30 9410 N 898.685 0.775411 -1.37205 0
M  V30 9411 C 900.101 1.07546 -1.17924 0
M  V30 9412 C 900.301 2.01496 -0.0128897 0
M  V30 9413 O 899.357 2.44039 0.64816 0
M  V30 9414 C 900.67 1.67647 -2.49629 0
M  V30 9415 C 902.218 1.79923 -2.56119 0
M  V30 9416 C 902.693 2.43438 -3.87946 0
M  V30 9417 N 904.184 2.50893 -3.89368 0
M  V30 9418 C 904.919 3.00881 -4.88117 0
M  V30 9419 N 904.415 3.5107 -5.97262 0
M  V30 9420 N 906.208 2.99722 -4.75524 0
M  V30 9421 H 898.359 0.151524 -2.11859 0
M  V30 9422 H 900.622 0.129845 -0.939066 0
M  V30 9423 H 900.328 1.06082 -3.3532 0
M  V30 9424 H 900.202 2.66988 -2.66453 0
M  V30 9425 H 902.589 2.40621 -1.70838 0
M  V30 9426 H 902.67 0.793482 -2.43182 0
M  V30 9427 H 902.314 1.8338 -4.73639 0
M  V30 9428 H 902.244 3.44611 -3.98184 0
M  V30 9429 H 904.735 2.1537 -3.10522 0
M  V30 9430 H 905.048 3.87604 -6.68568 0
M  V30 9431 H 903.393 3.49184 -6.00912 0
M  V30 9432 H 906.584 2.5981 -3.8938 0
M  V30 9433 H 906.757 3.38369 -5.52639 0
M  V30 9434 N 900.163 1.21714 1.00117 0
M  V30 9435 C 901.411 1.03465 1.73607 0
M  V30 9436 C 901.732 -0.432295 1.90148 0
M  V30 9437 O 901.002 -1.31157 1.45515 0
M  V30 9438 H 899.582 0.379857 0.643209 0
M  V30 9439 H 902.244 1.53088 1.20624 0
M  V30 9440 H 901.34 1.50574 2.73375 0
M  V30 9441 N 901.641 -1.19671 1.02551 0
M  V30 9442 C 902.574 -2.21522 0.547998 0
M  V30 9443 C 903.552 -1.57363 -0.409349 0
M  V30 9444 O 904.736 -1.85638 -0.327248 0
M  V30 9445 C 901.863 -3.38101 -0.201375 0
M  V30 9446 C 900.909 -4.20601 0.706886 0
M  V30 9447 S 901.742 -4.89066 2.18116 0
M  V30 9448 C 902.898 -6.09058 1.4422 0
M  V30 9449 H 903.131 -2.61684 1.41099 0
M  V30 9450 H 900.664 -1.29864 0.835153 0
M  V30 9451 H 902.622 -4.05674 -0.627607 0
M  V30 9452 H 901.283 -2.96381 -1.04005 0
M  V30 9453 H 900.476 -5.03836 0.128554 0
M  V30 9454 H 900.078 -3.58329 1.07129 0
M  V30 9455 H 902.37 -6.73588 0.726975 0
M  V30 9456 H 903.313 -6.71368 2.25102 0
M  V30 9457 H 903.721 -5.56599 0.941176 0
M  V30 9458 N 903.119 -0.802921 -1.35613 0
M  V30 9459 C 904.029 -0.212177 -2.33639 0
M  V30 9460 C 905.045 0.642871 -1.61689 0
M  V30 9461 O 906.221 0.555485 -1.93588 0
M  V30 9462 C 903.286 0.632406 -3.40883 0
M  V30 9463 C 902.347 -0.242708 -4.28613 0
M  V30 9464 C 901.58 0.56166 -5.30736 0
M  V30 9465 O 901.803 1.79664 -5.41366 0
M  V30 9466 O 900.737 -0.0455387 -6.01883 0
M  V30 9467 H 904.563 -1.023 -2.85952 0
M  V30 9468 H 902.148 -0.564636 -1.38319 0
M  V30 9469 H 904.03 1.11358 -4.0642 0
M  V30 9470 H 902.705 1.42089 -2.90848 0
M  V30 9471 H 901.612 -0.77094 -3.6607 0
M  V30 9472 H 902.945 -0.995046 -4.82037 0
M  V30 9473 N 904.597 1.47463 -0.556102 0
M  V30 9474 C 905.827 2.06568 -0.0364056 0
M  V30 9475 C 906.235 1.40939 1.26225 0
M  V30 9476 O 905.578 0.499572 1.76777 0
M  V30 9477 C 905.64 3.58755 0.231278 0
M  V30 9478 C 905.304 4.46417 -0.977776 0
M  V30 9479 C 906.301 4.846 -1.88305 0
M  V30 9480 C 903.986 4.87948 -1.19214 0
M  V30 9481 C 905.98 5.63111 -2.98639 0
M  V30 9482 C 903.667 5.66224 -2.29857 0
M  V30 9483 C 904.665 6.03716 -3.194 0
M  V30 9484 O 904.353 6.80415 -4.28125 0
M  V30 9485 H 904.085 0.674675 -0.042305 0
M  V30 9486 H 906.639 1.9047 -0.768775 0
M  V30 9487 H 904.869 3.73061 1.01794 0
M  V30 9488 H 906.558 3.99884 0.696221 0
M  V30 9489 H 907.324 4.53115 -1.72949 0
M  V30 9490 H 903.203 4.58233 -0.504347 0
M  V30 9491 H 906.747 5.92293 -3.68557 0
M  V30 9492 H 902.644 5.97121 -2.45186 0
M  V30 9493 H 903.412 6.98807 -4.26159 0
M  V30 9494 N 906.075 0.2925 1.54862 0
M  V30 9495 C 907.005 -0.580677 2.26165 0
M  V30 9496 C 907.986 -1.14485 1.25806 0
M  V30 9497 O 909.171 -1.17577 1.54562 0
M  V30 9498 C 906.301 -1.75668 2.99596 0
M  V30 9499 C 905.255 -1.32325 4.07031 0
M  V30 9500 C 904.581 -2.58374 4.68131 0
M  V30 9501 C 905.881 -0.460703 5.20264 0
M  V30 9502 H 907.575 0.0140075 2.99397 0
M  V30 9503 H 905.121 0.00817706 1.43998 0
M  V30 9504 H 907.074 -2.37356 3.48195 0
M  V30 9505 H 905.798 -2.37747 2.23928 0
M  V30 9506 H 904.457 -0.729477 3.59269 0
M  V30 9507 H 904.105 -3.18749 3.89112 0
M  V30 9508 H 903.805 -2.30078 5.40683 0
M  V30 9509 H 905.329 -3.2088 5.19489 0
M  V30 9510 H 906.743 -0.983037 5.64809 0
M  V30 9511 H 905.14 -0.271881 5.99484 0
M  V30 9512 H 906.21 0.516304 4.82143 0
M  V30 9513 N 907.553 -1.57587 0.0200696 0
M  V30 9514 C 908.516 -2.08595 -0.949767 0
M  V30 9515 C 909.516 -0.999215 -1.25985 0
M  V30 9516 O 910.706 -1.26115 -1.2017 0
M  V30 9517 C 907.838 -2.54424 -2.26895 0
M  V30 9518 H 909.031 -2.95563 -0.508161 0
M  V30 9519 H 906.584 -1.54631 -0.227798 0
M  V30 9520 H 907.319 -1.70758 -2.75703 0
M  V30 9521 H 907.104 -3.3381 -2.05702 0
M  V30 9522 H 908.594 -2.94144 -2.96427 0
M  V30 9523 N 909.032 0.252966 -1.55557 0
M  V30 9524 C 910.257 1.0038 -1.8149 0
M  V30 9525 C 910.682 1.78397 -0.596318 0
M  V30 9526 O 910.04 1.7551 0.454535 0
M  V30 9527 C 910.088 1.9222 -3.05096 0
M  V30 9528 O 909.192 3.01302 -2.81587 0
M  V30 9529 H 908.533 0.285949 -0.599274 0
M  V30 9530 H 911.063 0.275795 -2.02733 0
M  V30 9531 H 911.073 2.338 -3.34368 0
M  V30 9532 H 909.748 1.34852 -3.93431 0
M  V30 9533 H 908.325 2.63894 -2.63466 0
M  V30 9534 N 910.51 1.48831 0.518367 0
M  V30 9535 C 911.457 1.64216 1.62178 0
M  V30 9536 C 912.427 0.483942 1.58894 0
M  V30 9537 O 913.612 0.708857 1.77144 0
M  V30 9538 C 910.752 1.69867 3.00399 0
M  V30 9539 C 909.865 2.96875 3.1383 0
M  V30 9540 C 909 2.93613 4.42679 0
M  V30 9541 C 908.039 4.15276 4.4968 0
M  V30 9542 N 907.176 4.10024 5.69934 0
M  V30 9543 H 912.016 2.58439 1.48368 0
M  V30 9544 H 909.553 1.28154 0.722152 0
M  V30 9545 H 911.511 1.71124 3.8049 0
M  V30 9546 H 910.141 0.791249 3.12952 0
M  V30 9547 H 909.193 3.0531 2.26914 0
M  V30 9548 H 910.505 3.86863 3.14863 0
M  V30 9549 H 909.659 2.93337 5.31073 0
M  V30 9550 H 908.398 2.01375 4.44184 0
M  V30 9551 H 907.403 4.15816 3.59691 0
M  V30 9552 H 908.628 5.08687 4.49904 0
M  V30 9553 H 906.574 3.20613 5.72314 0
M  V30 9554 H 906.491 4.93728 5.72511 0
M  V30 9555 H 907.759 4.13824 6.60583 0
M  V30 9556 N 911.988 -0.768124 1.37614 0
M  V30 9557 C 912.935 -1.88151 1.33671 0
M  V30 9558 C 913.905 -1.64871 0.201645 0
M  V30 9559 O 915.09 -1.86739 0.391582 0
M  V30 9560 C 912.23 -3.25264 1.15314 0
M  V30 9561 C 911.343 -3.60473 2.38082 0
M  V30 9562 C 910.478 -4.86814 2.12569 0
M  V30 9563 C 909.517 -5.14765 3.31184 0
M  V30 9564 N 908.654 -6.32295 3.052 0
M  V30 9565 H 913.494 -1.90857 2.28862 0
M  V30 9566 H 911.031 -0.933048 1.13722 0
M  V30 9567 H 912.989 -4.04364 1.02691 0
M  V30 9568 H 911.619 -3.21924 0.237689 0
M  V30 9569 H 910.671 -2.7633 2.61431 0
M  V30 9570 H 911.983 -3.77065 3.26532 0
M  V30 9571 H 911.137 -5.73826 1.96999 0
M  V30 9572 H 909.876 -4.72333 1.21462 0
M  V30 9573 H 908.881 -4.26227 3.4729 0
M  V30 9574 H 910.106 -5.31153 4.23147 0
M  V30 9575 H 908.052 -6.19166 2.16726 0
M  V30 9576 H 907.969 -6.4932 3.87195 0
M  V30 9577 H 909.237 -7.22234 2.93254 0
M  V30 9578 N 913.466 -1.22244 -0.994698 0
M  V30 9579 C 914.706 -1.05747 -1.7492 0
M  V30 9580 C 915.07 0.4007 -1.87772 0
M  V30 9581 O 916.271 0.686469 -2.59887 0
M  V30 9582 C 914.542 -1.7471 -3.11787 0
M  V30 9583 S 916.101 -1.73604 -4.02998 0
M  V30 9584 H 912.919 -0.378731 -0.601734 0
M  V30 9585 H 915.521 -1.55155 -1.18942 0
M  V30 9586 H 914.225 -2.79972 -3.00073 0
M  V30 9587 H 913.756 -1.25525 -3.72836 0
M  V30 9588 H 915.771 -0.784445 -4.8996 0
M  V30 9589 N 914.944 1.19125 -1.03184 0
M  V30 9590 C 916.193 1.8821 -0.725264 0
M  V30 9591 C 916.506 1.80674 0.749411 0
M  V30 9592 O 917.712 2.45037 1.16915 0
M  V30 9593 C 916.168 3.37607 -1.24697 0
M  V30 9594 C 915.776 3.53693 -2.74964 0
M  V30 9595 C 917.52 4.12149 -1.01652 0
M  V30 9596 C 915.427 4.97001 -3.20538 0
M  V30 9597 H 914.357 0.704916 -0.267599 0
M  V30 9598 H 917.008 1.34663 -1.24652 0
M  V30 9599 H 915.39 3.90569 -0.653614 0
M  V30 9600 H 916.564 3.11046 -3.39981 0
M  V30 9601 H 914.879 2.92544 -2.96322 0
M  V30 9602 H 917.476 5.17837 -1.33226 0
M  V30 9603 H 917.819 4.16274 0.0465712 0
M  V30 9604 H 918.352 3.65334 -1.57403 0
M  V30 9605 H 915.091 4.9804 -4.26189 0
M  V30 9606 H 914.611 5.40398 -2.60251 0
M  V30 9607 H 916.29 5.65669 -3.14049 0
M  V30 9608 N 916.422 0.810101 1.35185 0
M  V30 9609 C 917.372 0.195541 2.2716 0
M  V30 9610 C 918.356 -0.632691 1.47939 0
M  V30 9611 O 919.548 -0.489372 1.701 0
M  V30 9612 C 916.677 -0.652164 3.37049 0
M  V30 9613 C 915.763 0.185989 4.23692 0
M  V30 9614 N 916.154 1.25073 4.90092 0
M  V30 9615 C 914.452 -0.0318033 4.45989 0
M  V30 9616 C 915.153 1.76272 5.54349 0
M  V30 9617 N 914.129 1.06861 5.32993 0
M  V30 9618 H 917.931 1.01018 2.75994 0
M  V30 9619 H 915.445 0.651612 1.48754 0
M  V30 9620 H 917.442 -1.10851 4.01893 0
M  V30 9621 H 916.102 -1.46511 2.89767 0
M  V30 9622 H 917.113 1.63341 4.91467 0
M  V30 9623 H 913.79 -0.813607 4.09496 0
M  V30 9624 H 915.18 2.65278 6.17315 0
M  V30 9625 N 917.9 -1.47166 0.563914 0
M  V30 9626 C 919.316 -1.58018 0.224173 0
M  V30 9627 C 919.516 -1.56163 -1.27339 0
M  V30 9628 O 918.572 -1.4686 -2.05398 0
M  V30 9629 C 919.885 -2.88236 0.856762 0
M  V30 9630 C 921.433 -3.01833 0.82861 0
M  V30 9631 C 921.908 -4.34761 1.44039 0
M  V30 9632 N 923.399 -4.41413 1.40388 0
M  V30 9633 C 924.134 -5.42845 1.84681 0
M  V30 9634 N 923.63 -6.51052 2.3686 0
M  V30 9635 N 925.423 -5.33931 1.75711 0
M  V30 9636 H 917.574 -1.46615 1.53681 0
M  V30 9637 H 919.837 -0.698195 0.64127 0
M  V30 9638 H 919.543 -2.95349 1.90949 0
M  V30 9639 H 919.417 -3.75537 0.353766 0
M  V30 9640 H 921.804 -2.94312 -0.215451 0
M  V30 9641 H 921.885 -2.16056 1.36943 0
M  V30 9642 H 921.529 -4.43037 2.48355 0
M  V30 9643 H 921.459 -5.1928 0.874953 0
M  V30 9644 H 923.95 -3.63811 1.02227 0
M  V30 9645 H 924.263 -7.24633 2.68564 0
M  V30 9646 H 922.608 -6.51924 2.40875 0
M  V30 9647 H 925.799 -4.48295 1.34718 0
M  V30 9648 H 925.972 -6.12841 2.10547 0
M  V30 9649 N 919.378 -0.300708 -1.54705 0
M  V30 9650 C 920.655 0.361757 -1.92226 0
M  V30 9651 C 921.035 1.71714 -1.2279 0
M  V30 9652 O 920.383 2.2559 -0.363542 0
M  V30 9653 C 920.593 0.476699 -3.45729 0
M  V30 9654 C 921.941 0.7477 -4.17965 0
M  V30 9655 O 922.965 0.560521 -3.51762 0
M  V30 9656 O 921.824 1.10724 -5.35166 0
M  V30 9657 H 918.918 0.202213 -0.801897 0
M  V30 9658 H 921.464 -0.348746 -1.66078 0
M  V30 9659 H 920.236 -0.476132 -3.88392 0
M  V30 9660 H 919.859 1.23568 -3.77911 0
M  V30 9661 N 920.856 1.57574 -0.0284266 0
M  V30 9662 C 921.786 2.1321 0.952039 0
M  V30 9663 C 922.767 1.04806 1.33977 0
M  V30 9664 O 923.952 1.32635 1.41851 0
M  V30 9665 C 921.082 2.65862 2.23461 0
M  V30 9666 C 920.036 3.79047 1.98765 0
M  V30 9667 C 919.362 4.18124 3.33281 0
M  V30 9668 C 920.662 5.05151 1.32739 0
M  V30 9669 H 922.356 2.95385 0.488705 0
M  V30 9670 H 919.902 1.42092 0.233628 0
M  V30 9671 H 921.855 3.03417 2.92431 0
M  V30 9672 H 920.579 1.80848 2.71959 0
M  V30 9673 H 919.238 3.41929 1.32213 0
M  V30 9674 H 918.886 3.30092 3.79537 0
M  V30 9675 H 918.586 4.94396 3.17563 0
M  V30 9676 H 920.11 4.58262 4.0352 0
M  V30 9677 H 921.524 5.40297 1.91708 0
M  V30 9678 H 919.921 5.86416 1.27421 0
M  V30 9679 H 920.991 4.83969 0.300261 0
M  V30 9680 N 922.334 -0.244713 1.55689 0
M  V30 9681 C 923.297 -1.2864 1.89695 0
M  V30 9682 C 924.297 -1.40969 0.773583 0
M  V30 9683 O 925.487 -1.39632 1.04156 0
M  V30 9684 C 922.619 -2.66379 2.12732 0
M  V30 9685 H 923.812 -0.997033 2.82841 0
M  V30 9686 H 921.365 -0.484103 1.48614 0
M  V30 9687 H 922.1 -3.00452 1.22062 0
M  V30 9688 H 921.885 -2.58812 2.94549 0
M  V30 9689 H 923.375 -3.41592 2.40218 0
M  V30 9690 N 923.813 -1.49104 -0.510467 0
M  V30 9691 C 924.776 -1.64569 -1.59529 0
M  V30 9692 C 925.776 -0.517937 -1.5223 0
M  V30 9693 O 926.966 -0.784183 -1.55551 0
M  V30 9694 C 924.098 -1.6342 -2.99177 0
M  V30 9695 H 925.291 -2.61318 -1.4715 0
M  V30 9696 H 922.844 -1.37993 -0.734001 0
M  V30 9697 H 923.579 -0.68221 -3.17043 0
M  V30 9698 H 923.364 -2.45312 -3.05883 0
M  V30 9699 H 924.854 -1.77474 -3.78011 0
M  V30 9700 N 925.291 0.760815 -1.38019 0
M  V30 9701 C 926.707 1.06289 -1.19058 0
M  V30 9702 C 926.907 2.01471 -0.0342603 0
M  V30 9703 O 925.963 2.44713 0.62224 0
M  V30 9704 C 927.276 1.6499 -2.51394 0
M  V30 9705 C 928.824 1.77196 -2.58013 0
M  V30 9706 C 929.299 2.3931 -3.90506 0
M  V30 9707 N 930.79 2.46749 -3.92007 0
M  V30 9708 C 931.525 2.95687 -4.91281 0
M  V30 9709 N 931.021 3.44715 -6.00952 0
M  V30 9710 N 932.814 2.94661 -4.78677 0
M  V30 9711 H 924.965 0.129045 -2.12008 0
M  V30 9712 H 927.228 0.119878 -0.94039 0
M  V30 9713 H 926.934 1.0252 -3.36426 0
M  V30 9714 H 926.808 2.64146 -2.6927 0
M  V30 9715 H 929.195 2.38796 -1.7338 0
M  V30 9716 H 929.276 0.767645 -2.4401 0
M  V30 9717 H 928.92 1.78346 -4.75558 0
M  V30 9718 H 928.85 3.40369 -4.01817 0
M  V30 9719 H 931.341 2.12064 -3.12789 0
M  V30 9720 H 931.654 3.80492 -6.72641 0
M  V30 9721 H 929.999 3.42791 -6.04582 0
M  V30 9722 H 933.19 2.55665 -3.92113 0
M  V30 9723 H 933.363 3.32489 -5.56197 0
M  V30 9724 N 926.769 1.22769 0.988202 0
M  V30 9725 C 927.717 0.999271 2.10041 0
M  V30 9726 C 928.711 -0.0591767 1.69297 0
M  V30 9727 O 929.917 0.0936653 1.79756 0
M  V30 9728 H 926.292 0.30599 0.686931 0
M  V30 9729 H 928.263 1.94294 2.26478 0
M  V30 9730 C 927.012 0.59873 3.42506 0
M  V30 9731 H 926.335 1.40487 3.74304 0
M  V30 9732 H 927.775 0.478353 4.21293 0
M  V30 9733 C 926.234 -0.692216 3.29712 0
M  V30 9734 O 926.764 -1.74342 3.61895 0
M  V30 9735 N 924.97 -0.665163 2.82885 0
M  V30 9736 H 924.517 0.190604 2.56894 0
M  V30 9737 H 924.475 -1.52917 2.74706 0
M  V30 9738 N 928.247 -1.18576 1.03814 0
M  V30 9739 C 929.493 -1.88773 0.741132 0
M  V30 9740 C 929.826 -1.79993 -0.729127 0
M  V30 9741 O 929.101 -1.19851 -1.53186 0
M  V30 9742 C 929.384 -3.39352 1.20468 0
M  V30 9743 C 929.237 -3.56955 2.73684 0
M  V30 9744 C 930.556 -4.32901 0.792741 0
M  V30 9745 H 927.675 -0.685482 0.270708 0
M  V30 9746 H 930.317 -1.39523 1.2897 0
M  V30 9747 H 928.467 -3.81427 0.737974 0
M  V30 9748 H 930.139 -3.2399 3.28372 0
M  V30 9749 H 928.382 -2.99696 3.13632 0
M  V30 9750 H 929.053 -4.62598 3.01176 0
M  V30 9751 H 931.529 -3.98592 1.1943 0
M  V30 9752 H 930.405 -5.36828 1.14486 0
M  V30 9753 H 930.666 -4.41052 -0.304295 0
M  V30 9754 N 929.725 -0.817259 -1.34754 0
M  V30 9755 C 930.655 -0.249769 -2.3216 0
M  V30 9756 C 931.636 0.630663 -1.57977 0
M  V30 9757 O 932.821 0.558719 -1.85989 0
M  V30 9758 C 929.951 0.593825 -3.42186 0
M  V30 9759 C 928.905 -0.188997 -4.27583 0
M  V30 9760 C 928.231 0.776979 -5.29025 0
M  V30 9761 C 929.531 -1.39401 -5.03354 0
M  V30 9762 H 931.225 -1.06359 -2.79872 0
M  V30 9763 H 928.771 -0.512894 -1.34556 0
M  V30 9764 H 930.724 1.00097 -4.09339 0
M  V30 9765 H 929.448 1.44064 -2.93109 0
M  V30 9766 H 928.107 -0.577445 -3.62024 0
M  V30 9767 H 927.755 1.61959 -4.76212 0
M  V30 9768 H 927.455 0.257448 -5.87036 0
M  V30 9769 H 928.979 1.18211 -5.99048 0
M  V30 9770 H 930.393 -1.06117 -5.63393 0
M  V30 9771 H 928.79 -1.84878 -5.70912 0
M  V30 9772 H 929.86 -2.17515 -4.33377 0
M  V30 9773 N 931.203 1.46865 -0.571711 0
M  V30 9774 C 932.449 2.0273 -0.0531858 0
M  V30 9775 C 932.782 1.44353 1.29907 0
M  V30 9776 O 932.057 0.604488 1.84868 0
M  V30 9777 C 932.34 3.60092 0.0243831 0
M  V30 9778 C 932.193 4.28874 -1.35599 0
M  V30 9779 C 933.512 4.33994 0.730563 0
M  V30 9780 H 930.631 0.736706 -0.0208018 0
M  V30 9781 H 933.273 1.75132 -0.736794 0
M  V30 9782 H 931.423 3.83736 0.606565 0
M  V30 9783 H 933.095 4.16527 -1.98249 0
M  V30 9784 H 931.338 3.88664 -1.92674 0
M  V30 9785 H 932.009 5.37561 -1.25429 0
M  V30 9786 H 934.485 4.1543 0.236098 0
M  V30 9787 H 933.361 5.43699 0.753836 0
M  V30 9788 H 933.622 4.04257 1.78967 0
M  V30 9789 N 932.681 0.308908 1.54543 0
M  V30 9790 C 933.909 -0.300418 2.04707 0
M  V30 9791 C 934.324 -1.46915 1.18581 0
M  V30 9792 O 933.681 -1.81251 0.213186 0
M  V30 9793 C 933.732 -0.749038 3.53655 0
M  V30 9794 O 933.453 0.373181 4.36508 0
M  V30 9795 C 934.954 -1.4227 4.1985 0
M  V30 9796 H 932.174 -0.0641267 0.667929 0
M  V30 9797 H 934.718 0.450839 1.99469 0
M  V30 9798 H 932.873 -1.4503 3.59228 0
M  V30 9799 H 933.287 0.0224752 5.24495 0
M  V30 9800 H 934.761 -1.68768 5.25568 0
M  V30 9801 H 935.238 -2.36531 3.70067 0
M  V30 9802 H 935.844 -0.764404 4.18374 0
M  V30 9803 N 934.159 -1.57557 0.0367827 0
M  V30 9804 C 935.069 -2.14148 -0.958017 0
M  V30 9805 C 936.085 -1.09564 -1.35173 0
M  V30 9806 O 937.261 -1.4166 -1.43158 0
M  V30 9807 C 934.326 -2.6636 -2.21931 0
M  V30 9808 C 933.387 -3.85688 -1.8853 0
M  V30 9809 C 932.62 -4.35401 -3.08645 0
M  V30 9810 O 932.843 -3.8425 -4.21554 0
M  V30 9811 O 931.777 -5.27158 -2.90497 0
M  V30 9812 H 935.603 -2.99442 -0.506797 0
M  V30 9813 H 933.188 -1.48259 -0.184275 0
M  V30 9814 H 935.07 -2.99976 -2.9596 0
M  V30 9815 H 933.745 -1.84145 -2.66219 0
M  V30 9816 H 932.652 -3.56985 -1.11861 0
M  V30 9817 H 933.985 -4.69089 -1.49052 0
M  V30 9818 N 935.637 0.236453 -1.55816 0
M  V30 9819 C 936.914 0.986463 -1.68903 0
M  V30 9820 C 937.294 2.02984 -0.579722 0
M  V30 9821 O 936.642 2.24693 0.415389 0
M  V30 9822 C 936.852 1.61038 -3.09625 0
M  V30 9823 C 938.2 2.10829 -3.6856 0
M  V30 9824 O 939.224 1.7096 -3.12492 0
M  V30 9825 O 938.083 2.84064 -4.66873 0
M  V30 9826 H 935.177 0.459837 -0.687371 0
M  V30 9827 H 937.723 0.229412 -1.68142 0
M  V30 9828 H 936.495 0.856232 -3.81817 0
M  V30 9829 H 936.118 2.43336 -3.14441 0
M  V30 9830 N 937.115 1.49373 0.502552 0
M  V30 9831 C 938.063 1.66411 1.62512 0
M  V30 9832 C 939.057 0.530062 1.60893 0
M  V30 9833 O 940.263 0.709648 1.65421 0
M  V30 9834 H 936.638 0.524707 0.538689 0
M  V30 9835 H 938.609 2.60639 1.45293 0
M  V30 9836 C 937.358 1.74648 3.00655 0
M  V30 9837 H 936.681 2.61285 3.02606 0
M  V30 9838 H 938.121 1.90605 3.78742 0
M  V30 9839 C 936.58 0.490963 3.33303 0
M  V30 9840 O 937.11 -0.384039 3.9986 0
M  V30 9841 N 935.316 0.354375 2.88431 0
M  V30 9842 H 934.863 1.06742 2.34444 0
M  V30 9843 H 934.821 -0.484593 3.10643 0
M  V30 9844 N 938.594 -0.753485 1.38421 0
M  V30 9845 C 939.84 -1.51485 1.34834 0
M  V30 9846 C 940.173 -1.94102 -0.0615381 0
M  V30 9847 O 939.448 -1.65439 -1.02274 0
M  V30 9848 C 939.731 -2.76736 2.30411 0
M  V30 9849 C 939.584 -2.40256 3.80259 0
M  V30 9850 C 940.903 -3.7876 2.24119 0
M  V30 9851 H 938.022 -0.549534 0.491102 0
M  V30 9852 H 940.664 -0.863006 1.6927 0
M  V30 9853 H 938.814 -3.32357 2.01175 0
M  V30 9854 H 940.486 -1.90409 4.20169 0
M  V30 9855 H 938.729 -1.72714 3.97935 0
M  V30 9856 H 939.4 -3.29869 4.42595 0
M  V30 9857 H 941.876 -3.32679 2.49928 0
M  V30 9858 H 940.752 -4.64092 2.93104 0
M  V30 9859 H 941.013 -4.24352 1.24006 0
M  V30 9860 N 940.072 -1.23292 -0.981677 0
M  V30 9861 C 941.005 -0.956198 -2.07201 0
M  V30 9862 C 941.983 0.105027 -1.6226 0
M  V30 9863 O 943.167 -0.0289582 -1.88478 0
M  V30 9864 C 940.294 -0.44029 -3.35826 0
M  V30 9865 C 939.34 -1.48792 -3.99704 0
M  V30 9866 S 940.173 -3.06491 -4.39117 0
M  V30 9867 C 941.329 -2.56567 -5.70898 0
M  V30 9868 H 941.562 -1.87947 -2.30355 0
M  V30 9869 H 939.095 -1.06522 -1.1177 0
M  V30 9870 H 941.053 -0.149237 -4.10229 0
M  V30 9871 H 939.714 0.462045 -3.10683 0
M  V30 9872 H 938.907 -1.07706 -4.92357 0
M  V30 9873 H 938.509 -1.72826 -3.31673 0
M  V30 9874 H 940.801 -1.98508 -6.47766 0
M  V30 9875 H 941.744 -3.47755 -6.16824 0
M  V30 9876 H 942.152 -1.97465 -5.28836 0
M  V30 9877 N 941.55 1.18024 -1.04442 0
M  V30 9878 C 942.497 2.21785 -0.638759 0
M  V30 9879 C 943.467 1.62255 0.355312 0
M  V30 9880 O 944.652 1.89176 0.24844 0
M  V30 9881 C 941.792 3.45098 -0.0118002 0
M  V30 9882 C 940.905 4.1895 -1.05379 0
M  V30 9883 C 940.04 5.2973 -0.394951 0
M  V30 9884 C 939.079 5.95359 -1.42178 0
M  V30 9885 N 938.216 6.97668 -0.787635 0
M  V30 9886 H 943.056 2.55839 -1.52808 0
M  V30 9887 H 940.593 1.25681 -0.764378 0
M  V30 9888 H 942.551 4.15564 0.369075 0
M  V30 9889 H 941.181 3.11652 0.84102 0
M  V30 9890 H 940.233 3.47274 -1.55258 0
M  V30 9891 H 941.545 4.63877 -1.83355 0
M  V30 9892 H 940.699 6.06687 0.0399244 0
M  V30 9893 H 939.438 4.85915 0.416867 0
M  V30 9894 H 938.443 5.17139 -1.86675 0
M  V30 9895 H 939.668 6.41255 -2.23536 0
M  V30 9896 H 937.614 6.56 0.00380893 0
M  V30 9897 H 937.531 7.40867 -1.50505 0
M  V30 9898 H 938.799 7.78586 -0.377282 0
M  V30 9899 N 943.028 0.824394 1.34319 0
M  V30 9900 C 944.277 0.40956 1.97498 0
M  V30 9901 C 944.59 -1.03323 1.66083 0
M  V30 9902 O 945.796 -1.55205 2.22764 0
M  V30 9903 C 944.252 0.681384 3.53391 0
M  V30 9904 C 943.86 2.1379 3.93698 0
M  V30 9905 C 945.604 0.332788 4.23194 0
M  V30 9906 C 943.511 2.35453 5.42509 0
M  V30 9907 H 942.441 0.149409 0.739049 0
M  V30 9908 H 945.092 1.01095 1.5314 0
M  V30 9909 H 943.474 0.00980375 3.95999 0
M  V30 9910 H 944.648 2.84876 3.62191 0
M  V30 9911 H 942.963 2.44807 3.36836 0
M  V30 9912 H 945.56 0.472463 5.32609 0
M  V30 9913 H 945.903 -0.722862 4.09976 0
M  V30 9914 H 946.436 0.959005 3.86067 0
M  V30 9915 H 943.175 3.39529 5.60714 0
M  V30 9916 H 942.695 1.68912 5.75525 0
M  V30 9917 H 944.374 2.17885 6.09209 0
M  V30 9918 N 944.506 -1.46559 0.579492 0
M  V30 9919 C 945.469 -2.28739 -0.145371 0
M  V30 9920 C 946.469 -1.38211 -0.821854 0
M  V30 9921 O 947.659 -1.6062 -0.674302 0
M  V30 9922 C 944.791 -3.18507 -1.21515 0
M  V30 9923 H 945.984 -2.94301 0.576786 0
M  V30 9924 H 943.537 -1.52616 0.337327 0
M  V30 9925 H 944.272 -2.57685 -1.96899 0
M  V30 9926 H 944.057 -3.85157 -0.734616 0
M  V30 9927 H 945.547 -3.80369 -1.72363 0
M  V30 9928 N 945.984 -0.3171 -1.54377 0
M  V30 9929 C 947.261 0.341348 -1.92598 0
M  V30 9930 C 947.641 1.70402 -1.24605 0
M  V30 9931 O 946.989 2.25191 -0.387448 0
M  V30 9932 C 947.199 0.440003 -3.46215 0
M  V30 9933 C 948.547 0.703327 -4.18734 0
M  V30 9934 O 949.571 0.523181 -3.52337 0
M  V30 9935 O 948.43 1.05042 -5.3631 0
M  V30 9936 H 945.524 0.193696 -0.803997 0
M  V30 9937 H 948.07 -0.366341 -1.65699 0
M  V30 9938 H 946.842 -0.517299 -3.87866 0
M  V30 9939 H 946.465 1.19553 -3.792 0
M  V30 9940 N 947.462 1.57535 -0.0451378 0
M  V30 9941 C 948.709 1.92451 0.629987 0
M  V30 9942 C 949.037 0.92298 1.71206 0
M  V30 9943 O 948.292 -0.0656626 1.9559 0
M  V30 9944 C 948.591 3.34065 1.27024 0
M  V30 9945 C 948.257 4.49785 0.316971 0
M  V30 9946 C 946.919 4.81169 0.0546406 0
M  V30 9947 C 949.271 5.20111 -0.336693 0
M  V30 9948 C 946.599 5.8023 -0.86889 0
M  V30 9949 C 948.951 6.2016 -1.24838 0
M  V30 9950 C 947.615 6.49976 -1.51944 0
M  V30 9951 H 946.885 0.704228 0.230529 0
M  V30 9952 H 949.532 1.91182 -0.110328 0
M  V30 9953 H 947.837 3.31672 2.08568 0
M  V30 9954 H 949.534 3.58359 1.79945 0
M  V30 9955 H 946.124 4.2529 0.531614 0
M  V30 9956 H 950.308 4.96082 -0.147105 0
M  V30 9957 H 945.564 6.0167 -1.08643 0
M  V30 9958 H 949.738 6.73767 -1.76098 0
M  V30 9959 H 947.365 7.26551 -2.2367 0
M  V30 9960 N 948.94 -0.228186 1.55939 0
M  V30 9961 C 950.188 -0.951668 1.78291 0
M  V30 9962 C 950.509 -1.85132 0.612474 0
M  V30 9963 O 949.779 -1.92356 -0.370942 0
M  V30 9964 H 948.359 -0.354388 0.657585 0
M  V30 9965 H 951.021 -0.241635 1.93396 0
M  V30 9966 H 950.117 -1.56239 2.70177 0
M  V30 9967 N 950.418 -1.49637 -0.494624 0
M  V30 9968 C 951.348 -1.69692 -1.60396 0
M  V30 9969 C 952.329 -0.545648 -1.61111 0
M  V30 9970 O 953.514 -0.782202 -1.77751 0
M  V30 9971 C 950.644 -1.76934 -2.9885 0
M  V30 9972 C 949.598 -2.91915 -3.13001 0
M  V30 9973 C 948.924 -2.84276 -4.5287 0
M  V30 9974 C 950.224 -4.32764 -2.92426 0
M  V30 9975 H 951.918 -2.6257 -1.43866 0
M  V30 9976 H 949.464 -1.26355 -0.690679 0
M  V30 9977 H 951.417 -1.8955 -3.76362 0
M  V30 9978 H 950.141 -0.806609 -3.16483 0
M  V30 9979 H 948.8 -2.78911 -2.37916 0
M  V30 9980 H 948.448 -1.85897 -4.67388 0
M  V30 9981 H 948.148 -3.61452 -4.63278 0
M  V30 9982 H 949.672 -2.98909 -5.32434 0
M  V30 9983 H 951.086 -4.46415 -3.59703 0
M  V30 9984 H 949.483 -5.1121 -3.143 0
M  V30 9985 H 950.553 -4.46765 -1.88491 0
M  V30 9986 N 951.896 0.746133 -1.38819 0
M  V30 9987 C 952.859 1.84167 -1.36437 0
M  V30 9988 C 953.859 1.58626 -0.263499 0
M  V30 9989 O 955.049 1.66233 -0.520801 0
M  V30 9990 C 952.181 3.21769 -1.12596 0
M  V30 9991 H 953.374 1.87684 -2.33912 0
M  V30 9992 H 950.927 0.948625 -1.24221 0
M  V30 9993 H 951.662 3.23917 -0.15758 0
M  V30 9994 H 951.447 3.41702 -1.92307 0
M  V30 9995 H 952.937 4.0184 -1.13643 0
M  V30 9996 N 953.375 1.23811 0.975125 0
M  V30 9997 C 954.791 1.0019 1.24234 0
M  V30 9998 C 954.991 -0.293811 1.99346 0
M  V30 9999 O 954.047 -1.01189 2.31337 0
M  V30 10000 C 955.36 2.21218 2.03674 0
M  V30 10001 C 956.908 2.25764 2.16793 0
M  V30 10002 C 957.383 3.46394 2.99626 0
M  V30 10003 N 958.874 3.46665 3.07209 0
M  V30 10004 C 959.609 4.3666 3.71639 0
M  V30 10005 N 959.105 5.36899 4.37849 0
M  V30 10006 N 960.898 4.2439 3.68578 0
M  V30 10007 H 953.049 2.07087 0.472076 0
M  V30 10008 H 955.312 0.90838 0.271201 0
M  V30 10009 H 955.018 3.15277 1.55862 0
M  V30 10010 H 954.892 2.22733 3.04417 0
M  V30 10011 H 957.279 1.32242 2.63811 0
M  V30 10012 H 957.36 2.28279 1.15422 0
M  V30 10013 H 957.004 4.40227 2.53304 0
M  V30 10014 H 956.934 3.41121 4.01178 0
M  V30 10015 H 959.425 2.74142 2.60105 0
M  V30 10016 H 959.738 6.01816 4.84807 0
M  V30 10017 H 958.083 5.40793 4.36541 0
M  V30 10018 H 961.274 3.4532 3.16025 0
M  V30 10019 H 961.447 4.94727 4.18508 0
M  V30 10020 N 954.853 -1.17469 1.05066 0
M  V30 10021 C 956.13 -1.83625 0.673872 0
M  V30 10022 C 956.51 -1.93412 -0.845871 0
M  V30 10023 O 955.858 -1.4677 -1.75131 0
M  V30 10024 C 956.068 -3.21352 1.36139 0
M  V30 10025 C 957.416 -3.97274 1.49863 0
M  V30 10026 O 958.44 -3.30827 1.3203 0
M  V30 10027 O 957.299 -5.16349 1.79013 0
M  V30 10028 H 954.393 -0.792297 0.237055 0
M  V30 10029 H 956.939 -1.24776 1.15017 0
M  V30 10030 H 955.711 -3.0919 2.39827 0
M  V30 10031 H 955.334 -3.87867 0.874364 0
M  V30 10032 N 956.331 -0.831506 -1.3388 0
M  V30 10033 C 957.58 -0.420028 -1.97278 0
M  V30 10034 C 957.893 1.02441 -1.66629 0
M  V30 10035 O 959.099 1.54021 -2.23584 0
M  V30 10036 C 957.555 -0.700116 -3.53025 0
M  V30 10037 C 957.163 -2.15874 -3.92559 0
M  V30 10038 C 958.907 -0.355226 -4.23011 0
M  V30 10039 C 956.814 -2.38327 -5.41252 0
M  V30 10040 H 955.744 -0.153326 -0.738246 0
M  V30 10041 H 958.395 -1.01906 -1.52602 0
M  V30 10042 H 956.777 -0.0308044 -3.95988 0
M  V30 10043 H 957.951 -2.86792 -3.60675 0
M  V30 10044 H 956.266 -2.4659 -3.35533 0
M  V30 10045 H 958.863 -0.500701 -5.32351 0
M  V30 10046 H 959.206 0.70111 -4.10354 0
M  V30 10047 H 959.739 -0.979466 -3.85553 0
M  V30 10048 H 956.478 -3.42498 -5.58906 0
M  V30 10049 H 955.998 -1.71962 -5.74621 0
M  V30 10050 H 957.677 -2.21113 -6.08045 0
M  V30 10051 N 957.809 1.4625 -0.587256 0
M  V30 10052 C 958.759 2.27407 0.164393 0
M  V30 10053 C 959.743 1.36138 0.857628 0
M  V30 10054 O 960.935 1.60279 0.750973 0
M  V30 10055 C 958.064 3.22585 1.17447 0
M  V30 10056 C 957.15 4.21339 0.483121 0
M  V30 10057 N 957.541 5.03669 -0.46385 0
M  V30 10058 C 955.839 4.39931 0.73329 0
M  V30 10059 C 956.54 5.75182 -0.868334 0
M  V30 10060 N 955.516 5.43169 -0.216487 0
M  V30 10061 H 959.318 2.88453 -0.563237 0
M  V30 10062 H 956.832 1.57155 -0.409388 0
M  V30 10063 H 958.829 3.79439 1.72718 0
M  V30 10064 H 957.489 2.63098 1.90288 0
M  V30 10065 H 958.5 5.11049 -0.839602 0
M  V30 10066 H 955.177 3.91588 1.44792 0
M  V30 10067 H 956.567 6.51371 -1.64821 0
M  V30 10068 N 959.287 0.325282 1.54207 0
M  V30 10069 C 960.237 -0.55548 2.2113 0
M  V30 10070 C 961.221 -1.0803 1.19241 0
M  V30 10071 O 962.413 -1.01703 1.44864 0
M  V30 10072 C 959.542 -1.71504 2.97391 0
M  V30 10073 C 958.628 -1.20503 4.0662 0
M  V30 10074 N 959.019 -0.414838 5.04096 0
M  V30 10075 C 957.317 -1.4836 4.20601 0
M  V30 10076 C 958.018 -0.140225 5.81531 0
M  V30 10077 N 956.994 -0.72683 5.38719 0
M  V30 10078 H 960.796 0.0555192 2.93848 0
M  V30 10079 H 958.31 0.131225 1.61869 0
M  V30 10080 H 960.307 -2.35781 3.43821 0
M  V30 10081 H 958.967 -2.3295 2.26195 0
M  V30 10082 H 959.978 -0.0575291 5.17868 0
M  V30 10083 H 956.655 -2.10378 3.60621 0
M  V30 10084 H 958.045 0.496026 6.70067 0
M  V30 10085 N 960.765 -1.57509 0.0534917 0
M  V30 10086 C 962.014 -1.91959 -0.619244 0
M  V30 10087 C 962.327 -0.933882 -1.71866 0
M  V30 10088 O 963.533 -1.17052 -2.44972 0
M  V30 10089 C 961.989 -3.40938 -1.15278 0
M  V30 10090 C 961.597 -4.47919 -0.085348 0
M  V30 10091 C 963.341 -3.84419 -1.80063 0
M  V30 10092 C 961.248 -5.88014 -0.631897 0
M  V30 10093 H 960.178 -0.71642 -0.235072 0
M  V30 10094 H 962.829 -1.83089 0.122758 0
M  V30 10095 H 961.211 -3.44821 -1.94717 0
M  V30 10096 H 962.385 -4.55629 0.688374 0
M  V30 10097 H 960.7 -4.13793 0.465178 0
M  V30 10098 H 963.297 -4.86457 -2.21954 0
M  V30 10099 H 963.64 -3.20791 -2.65328 0
M  V30 10100 H 964.173 -3.83062 -1.07275 0
M  V30 10101 H 960.912 -6.55244 0.183175 0
M  V30 10102 H 960.432 -5.83861 -1.37355 0
M  V30 10103 H 962.111 -6.37336 -1.11407 0
M  V30 10104 N 962.243 0.219913 -1.56058 0
M  V30 10105 C 963.52 0.968493 -1.6994 0
M  V30 10106 C 963.9 2.02358 -0.601219 0
M  V30 10107 O 963.248 2.25121 0.391534 0
M  V30 10108 C 963.458 1.57745 -3.11316 0
M  V30 10109 C 964.806 2.06908 -3.70775 0
M  V30 10110 O 965.83 1.67636 -3.14288 0
M  V30 10111 O 964.689 2.79096 -4.69859 0
M  V30 10112 H 961.783 0.452521 -0.692209 0
M  V30 10113 H 964.329 0.211566 -1.68376 0
M  V30 10114 H 963.101 0.815687 -3.82704 0
M  V30 10115 H 962.724 2.39987 -3.17005 0
M  V30 10116 N 963.721 1.49897 0.486681 0
M  V30 10117 C 964.951 1.63599 1.2617 0
M  V30 10118 C 965.359 0.312365 1.86604 0
M  V30 10119 O 964.702 -0.713911 1.6926 0
M  V30 10120 C 964.764 2.65736 2.42125 0
M  V30 10121 C 964.428 4.09711 2.0245 0
M  V30 10122 C 965.425 4.9607 1.55596 0
M  V30 10123 C 963.11 4.55534 2.11647 0
M  V30 10124 C 965.104 6.26295 1.18462 0
M  V30 10125 C 962.791 5.85768 1.74124 0
M  V30 10126 C 963.789 6.70973 1.27608 0
M  V30 10127 O 963.477 7.98778 0.905991 0
M  V30 10128 H 963.209 0.55333 0.388332 0
M  V30 10129 H 965.763 1.96768 0.589195 0
M  V30 10130 H 963.993 2.27778 3.12497 0
M  V30 10131 H 965.682 2.68819 3.04123 0
M  V30 10132 H 966.448 4.61891 1.47925 0
M  V30 10133 H 962.327 3.8937 2.46803 0
M  V30 10134 H 965.871 6.92754 0.820839 0
M  V30 10135 H 961.768 6.19473 1.8145 0
M  V30 10136 H 962.536 8.11914 1.03621 0
M  V30 10137 N 965.199 -0.738761 1.39212 0
M  V30 10138 C 966.429 -1.5258 1.39295 0
M  V30 10139 C 966.837 -1.89194 -0.0153 0
M  V30 10140 O 966.18 -1.5435 -0.996073 0
M  V30 10141 C 966.242 -2.84462 2.19822 0
M  V30 10142 C 965.906 -2.70303 3.68491 0
M  V30 10143 C 966.903 -2.39102 4.61656 0
M  V30 10144 C 964.588 -2.87291 4.1203 0
M  V30 10145 C 966.582 -2.25066 5.96342 0
M  V30 10146 C 964.269 -2.72874 5.46793 0
M  V30 10147 C 965.267 -2.41807 6.38763 0
M  V30 10148 O 964.955 -2.27475 7.71045 0
M  V30 10149 H 964.687 -0.478236 0.477772 0
M  V30 10150 H 967.241 -0.920846 1.83602 0
M  V30 10151 H 965.471 -3.47202 1.70257 0
M  V30 10152 H 967.16 -3.46058 2.12129 0
M  V30 10153 H 967.926 -2.25632 4.2932 0
M  V30 10154 H 963.805 -3.10466 3.40781 0
M  V30 10155 H 967.349 -2.00739 6.68094 0
M  V30 10156 H 963.246 -2.85922 5.78722 0
M  V30 10157 H 964.014 -2.42574 7.81729 0
M  V30 10158 N 966.677 -1.24326 -0.968545 0
M  V30 10159 C 967.624 -1.0349 -2.06297 0
M  V30 10160 C 968.594 0.0515333 -1.6602 0
M  V30 10161 O 969.779 -0.102924 -1.90522 0
M  V30 10162 C 966.919 -0.64487 -3.39021 0
M  V30 10163 C 966.032 -1.80469 -3.92498 0
M  V30 10164 C 965.167 -1.36032 -5.13487 0
M  V30 10165 C 964.206 -2.49014 -5.59159 0
M  V30 10166 N 963.343 -2.05451 -6.71367 0
M  V30 10167 H 968.183 -1.97161 -2.23454 0
M  V30 10168 H 965.72 -0.982028 -1.0952 0
M  V30 10169 H 967.678 -0.399771 -4.1528 0
M  V30 10170 H 966.308 0.254845 -3.21792 0
M  V30 10171 H 965.36 -2.16348 -3.12886 0
M  V30 10172 H 966.672 -2.65365 -4.22354 0
M  V30 10173 H 965.826 -1.07405 -5.97117 0
M  V30 10174 H 964.565 -0.481887 -4.85313 0
M  V30 10175 H 963.57 -2.78402 -4.74102 0
M  V30 10176 H 964.795 -3.37413 -5.89346 0
M  V30 10177 H 962.741 -1.20004 -6.4493 0
M  V30 10178 H 962.658 -2.83901 -7.00668 0
M  V30 10179 H 963.926 -1.79962 -7.58442 0
M  V30 10180 N 968.156 1.1691 -1.05688 0
M  V30 10181 C 969.103 2.21095 -0.662246 0
M  V30 10182 C 970.073 1.62623 0.338083 0
M  V30 10183 O 971.258 1.89428 0.228362 0
M  V30 10184 C 968.398 3.45066 -0.0484018 0
M  V30 10185 C 967.511 4.17809 -1.09817 0
M  V30 10186 C 966.646 5.29281 -0.451114 0
M  V30 10187 C 965.685 5.93817 -1.48484 0
M  V30 10188 N 964.822 6.96793 -0.861588 0
M  V30 10189 H 969.662 2.54204 -1.55513 0
M  V30 10190 H 967.199 1.24863 -0.777665 0
M  V30 10191 H 969.157 4.15932 0.324978 0
M  V30 10192 H 967.787 3.12526 0.807918 0
M  V30 10193 H 966.839 3.45608 -1.58932 0
M  V30 10194 H 968.151 4.61907 -1.88265 0
M  V30 10195 H 967.305 6.06695 -0.0244251 0
M  V30 10196 H 966.044 4.8633 0.365306 0
M  V30 10197 H 965.049 5.1513 -1.92149 0
M  V30 10198 H 966.274 6.38848 -2.30325 0
M  V30 10199 H 964.22 6.55967 -0.0657688 0
M  V30 10200 H 964.137 7.39229 -1.58354 0
M  V30 10201 H 965.405 7.78142 -0.45984 0
M  V30 10202 N 969.634 0.838594 1.33437 0
M  V30 10203 C 970.862 0.447644 2.01999 0
M  V30 10204 C 971.277 -0.951053 1.63096 0
M  V30 10205 O 970.634 -1.61802 0.844169 0
M  V30 10206 C 970.685 0.558378 3.57162 0
M  V30 10207 O 970.406 1.90196 3.94661 0
M  V30 10208 C 971.907 0.164348 4.42995 0
M  V30 10209 H 969.127 0.177736 0.647032 0
M  V30 10210 H 971.671 1.13109 1.70372 0
M  V30 10211 H 969.826 -0.0771563 3.87323 0
M  V30 10212 H 970.24 1.88729 4.89369 0
M  V30 10213 H 971.714 0.292876 5.51222 0
M  V30 10214 H 972.191 -0.893713 4.30011 0
M  V30 10215 H 972.797 0.774306 4.18192 0
M  V30 10216 N 971.112 -1.45937 0.595003 0
M  V30 10217 C 972.34 -2.06698 0.091293 0
M  V30 10218 C 972.755 -1.44176 -1.21897 0
M  V30 10219 O 972.112 -0.551402 -1.73971 0
M  V30 10220 C 972.163 -3.61436 -0.0681801 0
M  V30 10221 O 971.884 -4.21622 1.19023 0
M  V30 10222 C 973.385 -4.39155 -0.604814 0
M  V30 10223 H 970.605 -0.668029 0.0630737 0
M  V30 10224 H 973.149 -1.87376 0.819165 0
M  V30 10225 H 971.304 -3.80143 -0.746324 0
M  V30 10226 H 971.718 -5.14647 1.01187 0
M  V30 10227 H 973.192 -5.47973 -0.665532 0
M  V30 10228 H 973.669 -4.08055 -1.62444 0
M  V30 10229 H 974.275 -4.25282 0.0388658 0
M  V30 10230 N 972.59 -0.333456 -1.54032 0
M  V30 10231 C 973.538 0.543414 -2.26163 0
M  V30 10232 C 974.532 1.11037 -1.27934 0
M  V30 10233 O 975.738 1.05727 -1.45677 0
M  V30 10234 H 972.113 0.19391 -0.726569 0
M  V30 10235 H 974.084 -0.0871052 -2.98273 0
M  V30 10236 C 972.833 1.68769 -3.03994 0
M  V30 10237 H 972.156 1.26069 -3.79403 0
M  V30 10238 H 973.596 2.27662 -3.57695 0
M  V30 10239 C 972.055 2.61117 -2.12884 0
M  V30 10240 O 972.585 3.63097 -1.71823 0
M  V30 10241 N 970.791 2.29573 -1.7817 0
M  V30 10242 H 970.338 1.46684 -2.11759 0
M  V30 10243 H 970.296 2.91622 -1.1749 0
M  V30 10244 N 974.068 1.57479 -0.061844 0
M  V30 10245 C 975.316 1.92727 0.608336 0
M  V30 10246 C 975.637 0.941799 1.70749 0
M  V30 10247 O 974.907 -0.0116608 1.95897 0
M  V30 10248 H 973.487 0.71145 0.2277 0
M  V30 10249 H 976.149 1.94546 -0.117359 0
M  V30 10250 H 975.245 2.9426 1.04007 0
M  V30 10251 N 975.546 -0.211634 1.56173 0
M  V30 10252 C 976.962 -0.56177 1.49386 0
M  V30 10253 C 977.162 -1.86666 0.758813 0
M  V30 10254 O 976.218 -2.50681 0.302534 0
M  V30 10255 C 977.531 -0.631815 2.93987 0
M  V30 10256 C 979.079 -0.721773 3.04564 0
M  V30 10257 C 979.554 -0.823075 4.50544 0
M  V30 10258 N 981.045 -0.887038 4.54627 0
M  V30 10259 C 981.78 -0.985304 5.64871 0
M  V30 10260 N 981.276 -1.0469 6.84844 0
M  V30 10261 N 983.069 -1.02121 5.52746 0
M  V30 10262 H 975.22 0.64452 2.02385 0
M  V30 10263 H 977.483 0.227466 0.920306 0
M  V30 10264 H 977.189 0.257592 3.50755 0
M  V30 10265 H 977.063 -1.4921 3.46433 0
M  V30 10266 H 979.45 -1.60162 2.47855 0
M  V30 10267 H 979.531 0.164385 2.55271 0
M  V30 10268 H 979.175 0.0523511 5.07873 0
M  V30 10269 H 979.105 -1.72479 4.97552 0
M  V30 10270 H 981.596 -0.849352 3.68231 0
M  V30 10271 H 981.909 -1.12193 7.64613 0
M  V30 10272 H 980.254 -1.01586 6.87536 0
M  V30 10273 H 983.445 -0.969814 4.57943 0
M  V30 10274 H 983.618 -1.09434 6.38693 0
M  V30 10275 N 977.024 -1.50153 -0.478725 0
M  V30 10276 C 977.954 -1.71384 -1.58587 0
M  V30 10277 C 978.935 -0.562705 -1.60523 0
M  V30 10278 O 980.12 -0.80101 -1.76911 0
M  V30 10279 C 977.25 -1.80094 -2.96957 0
M  V30 10280 C 976.204 -2.95218 -3.09888 0
M  V30 10281 C 975.53 -2.89063 -4.49829 0
M  V30 10282 C 976.83 -4.35841 -2.8782 0
M  V30 10283 H 978.524 -2.64081 -1.41073 0
M  V30 10284 H 976.07 -1.27081 -0.677239 0
M  V30 10285 H 978.023 -1.93531 -3.74331 0
M  V30 10286 H 976.747 -0.840131 -3.1561 0
M  V30 10287 H 975.406 -2.81419 -2.34944 0
M  V30 10288 H 975.054 -1.90844 -4.6539 0
M  V30 10289 H 974.754 -3.66345 -4.59418 0
M  V30 10290 H 976.278 -3.04539 -5.29234 0
M  V30 10291 H 977.692 -4.50205 -3.54948 0
M  V30 10292 H 976.089 -5.14515 -3.0886 0
M  V30 10293 H 977.159 -4.48739 -1.83742 0
M  V30 10294 N 978.502 0.731368 -1.39602 0
M  V30 10295 C 979.913 1.30981 -1.33045 0
M  V30 10296 C 980.264 1.962 0.00349918 0
M  V30 10297 O 979.389 1.96539 0.905615 0
M  V30 10298 C 979.984 2.3817 -2.40958 0
M  V30 10299 C 978.543 2.91678 -2.3791 0
M  V30 10300 C 977.69 1.65286 -2.22656 0
M  V30 10301 H 980.641 0.528615 -1.49637 0
M  V30 10302 H 980.662 3.18645 -2.07955 0
M  V30 10303 H 980.174 1.90673 -3.38032 0
M  V30 10304 H 978.275 3.43446 -1.44485 0
M  V30 10305 H 978.388 3.44545 -3.32904 0
M  V30 10306 H 976.752 1.89759 -1.69893 0
M  V30 10307 H 977.535 1.19836 -3.21705 0
M  V30 10308 N 979.98 1.24838 0.961938 0
M  V30 10309 C 981.226 1.09313 1.70817 0
M  V30 10310 C 981.559 -0.366244 1.90715 0
M  V30 10311 O 980.834 -1.27036 1.47282 0
M  V30 10312 C 981.117 1.83988 3.09549 0
M  V30 10313 C 980.97 3.3771 2.97106 0
M  V30 10314 C 982.289 1.61718 4.09311 0
M  V30 10315 H 979.408 0.398498 0.619974 0
M  V30 10316 H 982.05 1.53579 1.11864 0
M  V30 10317 H 980.2 1.46363 3.59875 0
M  V30 10318 H 981.872 3.84967 2.54161 0
M  V30 10319 H 980.115 3.65795 2.33187 0
M  V30 10320 H 980.786 3.85166 3.95412 0
M  V30 10321 H 983.262 1.94458 3.67866 0
M  V30 10322 H 982.138 2.16415 5.04436 0
M  V30 10323 H 982.399 0.55677 4.3858 0
M  V30 10324 N 981.458 -1.16348 1.06306 0
M  V30 10325 C 982.405 -2.20741 0.673962 0
M  V30 10326 C 983.375 -1.628 -0.329454 0
M  V30 10327 O 984.56 -1.89547 -0.218313 0
M  V30 10328 C 981.7 -3.45036 0.0667008 0
M  V30 10329 C 980.813 -4.17221 1.12031 0
M  V30 10330 C 979.948 -5.29034 0.479176 0
M  V30 10331 C 978.987 -5.93021 1.51631 0
M  V30 10332 N 978.124 -6.96327 0.898528 0
M  V30 10333 H 982.964 -2.53376 1.56859 0
M  V30 10334 H 980.501 -1.24449 0.784276 0
M  V30 10335 H 982.459 -4.16099 -0.302916 0
M  V30 10336 H 981.089 -3.1295 -0.791333 0
M  V30 10337 H 980.141 -3.4476 1.60763 0
M  V30 10338 H 981.453 -4.60902 1.90712 0
M  V30 10339 H 980.607 -6.06674 0.0565993 0
M  V30 10340 H 979.346 -4.86517 -0.33951 0
M  V30 10341 H 978.351 -5.14104 1.94878 0
M  V30 10342 H 979.576 -6.37618 2.3371 0
M  V30 10343 H 977.522 -6.55923 0.100555 0
M  V30 10344 H 977.439 -7.38379 1.62272 0
M  V30 10345 H 978.707 -7.77888 0.5011 0
M  V30 10346 N 982.937 -0.845659 -1.3299 0
M  V30 10347 C 984.183 -0.454563 -1.98256 0
M  V30 10348 C 984.538 0.976983 -1.65749 0
M  V30 10349 O 983.831 1.67481 -0.930631 0
M  V30 10350 C 984.025 -0.6201 -3.51979 0
M  V30 10351 C 983.854 -2.06619 -3.99423 0
M  V30 10352 C 982.624 -2.70283 -4.26937 0
M  V30 10353 C 984.822 -3.03573 -4.15148 0
M  V30 10354 N 982.804 -4.05896 -4.60567 0
M  V30 10355 C 984.175 -4.24149 -4.52214 0
M  V30 10356 C 986.23 -2.99888 -3.97457 0
M  V30 10357 C 984.933 -5.41527 -4.73435 0
M  V30 10358 C 986.959 -4.16502 -4.19858 0
M  V30 10359 C 986.321 -5.35835 -4.57231 0
M  V30 10360 H 982.42 -0.214896 -0.751893 0
M  V30 10361 H 985.004 -1.09515 -1.6098 0
M  V30 10362 H 983.175 -0.00926528 -3.88399 0
M  V30 10363 H 984.907 -0.199782 -4.04207 0
M  V30 10364 H 981.662 -2.21377 -4.18676 0
M  V30 10365 H 982.086 -4.75824 -4.81581 0
M  V30 10366 H 986.728 -2.08753 -3.67671 0
M  V30 10367 H 984.446 -6.332 -5.02079 0
M  V30 10368 H 988.032 -4.15075 -4.07681 0
M  V30 10369 H 986.912 -6.24568 -4.74219 0
M  V30 10370 N 984.415 1.45619 -0.602734 0
M  V30 10371 C 985.348 2.27583 0.167708 0
M  V30 10372 C 986.326 1.36844 0.878206 0
M  V30 10373 O 987.51 1.6627 0.888058 0
M  V30 10374 C 984.637 3.15094 1.24232 0
M  V30 10375 C 983.683 4.21739 0.63549 0
M  V30 10376 S 984.516 5.32638 -0.552944 0
M  V30 10377 C 985.672 6.23716 0.522382 0
M  V30 10378 H 985.905 2.92579 -0.527697 0
M  V30 10379 H 983.438 1.4939 -0.390127 0
M  V30 10380 H 985.396 3.66071 1.85748 0
M  V30 10381 H 984.057 2.49372 1.90978 0
M  V30 10382 H 983.25 4.82874 1.44389 0
M  V30 10383 H 982.852 3.73878 0.0955772 0
M  V30 10384 H 985.144 6.62819 1.40276 0
M  V30 10385 H 986.087 7.0808 -0.0526951 0
M  V30 10386 H 986.495 5.58282 0.83553 0
M  V30 10387 N 985.893 0.34162 1.53853 0
M  V30 10388 C 986.856 -0.503541 2.236 0
M  V30 10389 C 987.856 -1.02912 1.23554 0
M  V30 10390 O 989.046 -0.918678 1.48007 0
M  V30 10391 C 986.178 -1.70126 2.95415 0
M  V30 10392 H 987.371 0.106437 2.99711 0
M  V30 10393 H 984.924 0.0929408 1.56023 0
M  V30 10394 H 985.659 -2.34999 2.23486 0
M  V30 10395 H 985.444 -1.33161 3.68796 0
M  V30 10396 H 986.934 -2.30077 3.48503 0
M  V30 10397 N 987.371 -1.57444 0.0701946 0
M  V30 10398 C 988.782 -1.80875 -0.462709 0
M  V30 10399 C 989.133 -0.983975 -1.69742 0
M  V30 10400 O 988.258 -0.206027 -2.15417 0
M  V30 10401 C 988.853 -3.28062 -0.84623 0
M  V30 10402 C 987.412 -3.52345 -1.32401 0
M  V30 10403 C 986.559 -2.7558 -0.308399 0
M  V30 10404 H 989.51 -1.55917 0.295907 0
M  V30 10405 H 989.531 -3.40023 -1.70776 0
M  V30 10406 H 989.043 -3.88064 0.0526033 0
M  V30 10407 H 987.144 -2.97645 -2.24139 0
M  V30 10408 H 987.257 -4.6104 -1.30304 0
M  V30 10409 H 985.621 -2.4229 -0.785337 0
M  V30 10410 H 986.404 -3.38319 0.582679 0
M  V30 10411 N 988.849 0.203349 -1.56283 0
M  V30 10412 C 989.759 1.27266 -1.9708 0
M  V30 10413 C 990.775 1.50268 -0.877236 0
M  V30 10414 O 991.951 1.63044 -1.18231 0
M  V30 10415 C 989.016 2.59871 -2.29495 0
M  V30 10416 C 988.077 2.45012 -3.52516 0
M  V30 10417 C 987.31 3.71293 -3.83376 0
M  V30 10418 O 987.533 4.75106 -3.15643 0
M  V30 10419 O 986.467 3.67316 -4.76826 0
M  V30 10420 H 990.293 0.956461 -2.88246 0
M  V30 10421 H 987.878 0.407688 -1.4373 0
M  V30 10422 H 989.76 3.38152 -2.51458 0
M  V30 10423 H 988.435 2.91135 -1.415 0
M  V30 10424 H 987.342 1.6487 -3.35811 0
M  V30 10425 H 988.675 2.18683 -4.40952 0
M  V30 10426 N 990.327 1.50405 0.470755 0
M  V30 10427 C 991.29 1.68741 1.5511 0
M  V30 10428 C 992.29 0.558116 1.50804 0
M  V30 10429 O 993.48 0.825149 1.53418 0
M  V30 10430 C 990.612 1.71295 2.94739 0
M  V30 10431 H 991.805 2.65127 1.40169 0
M  V30 10432 H 989.358 1.39891 0.697156 0
M  V30 10433 H 990.093 0.766029 3.15123 0
M  V30 10434 H 989.878 2.53336 2.99271 0
M  V30 10435 H 991.368 1.87434 3.73173 0
M  V30 10436 N 991.805 -0.723954 1.39988 0
M  V30 10437 C 992.735 -1.85103 1.42335 0
M  V30 10438 C 993.716 -1.6769 0.285297 0
M  V30 10439 O 994.901 -1.87846 0.492716 0
M  V30 10440 C 992.031 -3.22972 1.27697 0
M  V30 10441 C 990.985 -3.55041 2.39018 0
M  V30 10442 C 990.311 -4.91965 2.09462 0
M  V30 10443 C 991.611 -3.56889 3.8135 0
M  V30 10444 H 993.305 -1.83396 2.36656 0
M  V30 10445 H 990.851 -0.880926 1.13911 0
M  V30 10446 H 992.804 -4.01503 1.27958 0
M  V30 10447 H 991.528 -3.25233 0.298487 0
M  V30 10448 H 990.187 -2.78845 2.37993 0
M  V30 10449 H 989.835 -4.90819 1.10025 0
M  V30 10450 H 989.535 -5.14389 2.84038 0
M  V30 10451 H 991.059 -5.7284 2.11391 0
M  V30 10452 H 992.473 -4.25476 3.84243 0
M  V30 10453 H 990.87 -3.90836 4.55376 0
M  V30 10454 H 991.94 -2.56452 4.11534 0
M  V30 10455 N 993.283 -1.25346 -0.955304 0
M  V30 10456 C 994.53 -1.10055 -1.69983 0
M  V30 10457 C 994.858 0.358586 -1.91166 0
M  V30 10458 O 994.113 1.28071 -1.47974 0
M  V30 10459 C 994.412 -1.7993 -3.08804 0
M  V30 10460 C 994.078 -3.29851 -3.07424 0
M  V30 10461 C 992.74 -3.7075 -3.06754 0
M  V30 10462 C 995.092 -4.25636 -3.00805 0
M  V30 10463 C 992.42 -5.05847 -2.97214 0
M  V30 10464 C 994.772 -5.60756 -2.92806 0
M  V30 10465 C 993.436 -6.00984 -2.90472 0
M  V30 10466 H 992.706 -0.402718 -0.622012 0
M  V30 10467 H 995.353 -1.5561 -1.11614 0
M  V30 10468 H 993.658 -1.26803 -3.70713 0
M  V30 10469 H 995.355 -1.65551 -3.65231 0
M  V30 10470 H 991.945 -2.97308 -3.08716 0
M  V30 10471 H 996.129 -3.9503 -3.00441 0
M  V30 10472 H 991.385 -5.36196 -2.93775 0
M  V30 10473 H 995.559 -6.34671 -2.86645 0
M  V30 10474 H 993.186 -7.05626 -2.82835 0
M  V30 10475 N 994.761 1.15782 -1.06922 0
M  V30 10476 C 996.038 1.8253 -0.703 0
M  V30 10477 C 996.418 1.94733 0.814994 0
M  V30 10478 O 995.766 1.49537 1.72774 0
M  V30 10479 C 995.976 3.19145 -1.41234 0
M  V30 10480 C 997.324 3.94839 -1.56164 0
M  V30 10481 O 998.348 3.28685 -1.37277 0
M  V30 10482 O 997.207 5.13436 -1.87205 0
M  V30 10483 H 994.301 0.788425 -0.24963 0
M  V30 10484 H 996.847 1.22931 -1.16988 0
M  V30 10485 H 995.619 3.05336 -2.44715 0
M  V30 10486 H 995.242 3.86427 -0.935959 0
M  V30 10487 N 996.239 0.8527 1.3254 0
M  V30 10488 C 997.655 0.542298 1.50104 0
M  V30 10489 C 997.855 -0.927465 1.78886 0
M  V30 10490 O 996.911 -1.7106 1.85728 0
M  V30 10491 C 998.224 1.4276 2.64651 0
M  V30 10492 C 999.772 1.42782 2.78536 0
M  V30 10493 C 1000.25 2.29828 3.9616 0
M  V30 10494 N 1001.74 2.27613 4.03418 0
M  V30 10495 C 1002.47 2.91696 4.93661 0
M  V30 10496 N 1001.97 3.64883 5.88925 0
M  V30 10497 N 1003.76 2.81094 4.86768 0
M  V30 10498 H 995.913 1.80395 1.12123 0
M  V30 10499 H 998.176 0.770394 0.552446 0
M  V30 10500 H 997.882 2.47266 2.50105 0
M  V30 10501 H 997.756 1.11358 3.60388 0
M  V30 10502 H 1000.14 0.390417 2.92506 0
M  V30 10503 H 1000.22 1.78198 1.83519 0
M  V30 10504 H 999.868 3.33635 3.82949 0
M  V30 10505 H 999.798 1.91746 4.9045 0
M  V30 10506 H 1002.29 1.74402 3.3525 0
M  V30 10507 H 1002.6 4.10952 6.54476 0
M  V30 10508 H 1000.95 3.68991 5.88957 0
M  V30 10509 H 1004.14 2.23469 4.11314 0
M  V30 10510 H 1004.31 3.31318 5.56895 0
M  V30 10511 N 997.718 -1.45297 0.610449 0
M  V30 10512 C 998.967 -2.0143 0.104323 0
M  V30 10513 C 999.28 -1.48431 -1.27388 0
M  V30 10514 O 1000.49 -1.96558 -1.87289 0
M  V30 10515 C 998.942 -3.59644 0.135812 0
M  V30 10516 C 998.55 -4.2164 1.51405 0
M  V30 10517 C 1000.29 -4.2333 -0.314922 0
M  V30 10518 C 998.201 -5.72015 1.50176 0
M  V30 10519 H 997.131 -0.753176 0.035233 0
M  V30 10520 H 999.782 -1.66738 0.7662 0
M  V30 10521 H 998.164 -3.91538 -0.592773 0
M  V30 10522 H 999.338 -4.01315 2.26457 0
M  V30 10523 H 997.653 -3.70159 1.90712 0
M  V30 10524 H 1000.25 -5.33597 -0.343335 0
M  V30 10525 H 1000.59 -3.94206 -1.33817 0
M  V30 10526 H 1001.13 -3.96163 0.360489 0
M  V30 10527 H 997.865 -6.05842 2.50271 0
M  V30 10528 H 997.385 -5.94523 0.793869 0
M  V30 10529 H 999.064 -6.35266 1.22665 0
M  V30 10530 N 999.196 -0.349774 -1.5367 0
M  V30 10531 C 1000.43 0.245682 -2.05134 0
M  V30 10532 C 1000.83 1.44269 -1.22406 0
M  V30 10533 O 1000.18 1.81938 -0.25379 0
M  V30 10534 C 1000.24 0.718439 -3.52248 0
M  V30 10535 C 999.903 -0.35975 -4.55582 0
M  V30 10536 C 1000.9 -1.20449 -5.05755 0
M  V30 10537 C 998.585 -0.515463 -4.99648 0
M  V30 10538 C 1000.58 -2.19043 -5.98581 0
M  V30 10539 C 998.266 -1.50479 -5.92283 0
M  V30 10540 C 999.264 -2.34072 -6.41638 0
M  V30 10541 O 998.952 -3.31319 -7.3245 0
M  V30 10542 H 998.684 0.0501122 -0.67414 0
M  V30 10543 H 1001.24 -0.5018 -1.99176 0
M  V30 10544 H 999.468 1.51727 -3.55691 0
M  V30 10545 H 1001.16 1.23513 -3.86651 0
M  V30 10546 H 1001.92 -1.09531 -4.7247 0
M  V30 10547 H 997.802 0.12537 -4.60829 0
M  V30 10548 H 1001.35 -2.84327 -6.37027 0
M  V30 10549 H 997.243 -1.61451 -6.24983 0
M  V30 10550 H 998.011 -3.26863 -7.50402 0
M  V30 10551 N 1000.67 1.57404 -0.0785433 0
M  V30 10552 C 1001.9 1.98074 0.597862 0
M  V30 10553 C 1002.32 0.95714 1.6274 0
M  V30 10554 O 1001.67 -0.0553728 1.82416 0
M  V30 10555 C 1001.72 3.38815 1.26041 0
M  V30 10556 O 1001.45 4.37254 0.27207 0
M  V30 10557 C 1002.95 3.94397 2.024 0
M  V30 10558 H 1000.17 0.651263 0.161546 0
M  V30 10559 H 1002.71 2.03927 -0.152941 0
M  V30 10560 H 1000.87 3.34028 1.96225 0
M  V30 10561 H 1001.28 5.19136 0.74822 0
M  V30 10562 H 1002.75 4.95075 2.4414 0
M  V30 10563 H 1003.23 3.31308 2.88326 0
M  V30 10564 H 1003.84 4.02607 1.37068 0
M  V30 10565 N 1002.15 -0.195058 1.56388 0
M  V30 10566 C 1003.1 -1.24584 1.90952 0
M  V30 10567 C 1004.09 -1.40993 0.77522 0
M  V30 10568 O 1005.28 -1.43363 1.03808 0
M  V30 10569 C 1002.41 -2.59064 2.25258 0
M  V30 10570 C 1001.49 -2.46447 3.45145 0
M  V30 10571 N 1001.88 -2.0351 4.63052 0
M  V30 10572 C 1000.18 -2.77339 3.49283 0
M  V30 10573 C 1000.88 -2.02785 5.45209 0
M  V30 10574 N 999.859 -2.4429 4.85616 0
M  V30 10575 H 1003.66 -0.9052 2.79613 0
M  V30 10576 H 1001.17 -0.403493 1.57308 0
M  V30 10577 H 1003.17 -3.34963 2.48205 0
M  V30 10578 H 1001.83 -2.93951 1.37924 0
M  V30 10579 H 1002.84 -1.74219 4.87717 0
M  V30 10580 H 999.52 -3.16423 2.72365 0
M  V30 10581 H 1000.91 -1.71489 6.49647 0
M  V30 10582 N 1003.63 -1.50653 -0.462772 0
M  V30 10583 C 1004.56 -1.66286 -1.5774 0
M  V30 10584 C 1005.57 -0.544094 -1.53439 0
M  V30 10585 O 1006.76 -0.817566 -1.58676 0
M  V30 10586 C 1003.86 -1.63893 -2.96635 0
M  V30 10587 C 1003.04 -2.91939 -3.25716 0
M  V30 10588 C 1002.1 -2.82076 -4.44206 0
M  V30 10589 O 1001.12 -3.56032 -4.44106 0
M  V30 10590 N 1002.32 -1.96196 -5.4634 0
M  V30 10591 H 1005.09 -2.6243 -1.44742 0
M  V30 10592 H 1002.65 -1.48221 -0.651326 0
M  V30 10593 H 1004.64 -1.54897 -3.73884 0
M  V30 10594 H 1003.21 -0.75449 -3.03358 0
M  V30 10595 H 1002.43 -3.14998 -2.37002 0
M  V30 10596 H 1003.72 -3.7675 -3.4196 0
M  V30 10597 H 1003.12 -1.35439 -5.49247 0
M  V30 10598 H 1001.67 -1.93097 -6.2254 0
M  V30 10599 N 1005.11 0.71652 -1.4037 0
M  V30 10600 C 1006.33 1.51069 -1.42102 0
M  V30 10601 C 1006.76 1.88087 -0.0222387 0
M  V30 10602 O 1006.12 1.53204 0.969448 0
M  V30 10603 C 1006.16 2.76307 -2.31704 0
M  V30 10604 O 1005.27 3.72975 -1.75964 0
M  V30 10605 H 1004.61 0.455502 -0.483129 0
M  V30 10606 H 1007.14 0.882514 -1.84588 0
M  V30 10607 H 1007.15 3.24846 -2.46859 0
M  V30 10608 H 1005.82 2.48698 -3.3335 0
M  V30 10609 H 1004.4 3.31818 -1.70151 0
M  V30 10610 N 1006.59 1.25851 0.948643 0
M  V30 10611 C 1007.86 1.01717 1.67072 0
M  V30 10612 C 1008.24 -0.454749 2.06144 0
M  V30 10613 O 1007.59 -1.43345 1.77945 0
M  V30 10614 C 1007.8 1.95872 2.88852 0
M  V30 10615 C 1009.15 2.24057 3.60671 0
M  V30 10616 O 1010.17 1.93678 2.98944 0
M  V30 10617 O 1009.03 2.75745 4.71833 0
M  V30 10618 H 1006.13 0.386198 0.731287 0
M  V30 10619 H 1008.67 1.37031 1.00104 0
M  V30 10620 H 1007.44 2.95233 2.56814 0
M  V30 10621 H 1007.07 1.60992 3.63548 0
M  V30 10622 N 1008.06 -1.15214 1.07534 0
M  V30 10623 C 1009.31 -1.86319 0.800814 0
M  V30 10624 C 1009.64 -1.82221 -0.671494 0
M  V30 10625 O 1008.92 -1.24664 -1.49295 0
M  V30 10626 C 1009.2 -3.35347 1.31203 0
M  V30 10627 C 1009.05 -3.48067 2.84902 0
M  V30 10628 C 1010.37 -4.3016 0.930064 0
M  V30 10629 H 1007.49 -0.676523 0.292379 0
M  V30 10630 H 1010.13 -1.35349 1.33344 0
M  V30 10631 H 1008.28 -3.78886 0.858949 0
M  V30 10632 H 1009.96 -3.13379 3.38514 0
M  V30 10633 H 1008.2 -2.89566 3.23008 0
M  V30 10634 H 1008.87 -4.52782 3.15741 0
M  V30 10635 H 1011.35 -3.94591 1.3205 0
M  V30 10636 H 1010.22 -5.32914 1.31507 0
M  V30 10637 H 1010.48 -4.41796 -0.163824 0
M  V30 10638 N 1009.54 -0.859717 -1.32086 0
M  V30 10639 C 1010.79 -0.475565 -1.97762 0
M  V30 10640 C 1011.14 0.959348 -1.66776 0
M  V30 10641 O 1010.44 1.66484 -0.948343 0
M  V30 10642 C 1010.63 -0.657397 -3.51302 0
M  V30 10643 C 1010.46 -2.10843 -3.97209 0
M  V30 10644 C 1009.23 -2.74796 -4.24046 0
M  V30 10645 C 1011.43 -3.07959 -4.11905 0
M  V30 10646 N 1009.41 -4.10758 -4.56236 0
M  V30 10647 C 1010.78 -4.28922 -4.4769 0
M  V30 10648 C 1012.84 -3.04086 -3.94254 0
M  V30 10649 C 1011.54 -5.46518 -4.67665 0
M  V30 10650 C 1013.56 -4.20931 -4.15416 0
M  V30 10651 C 1012.93 -5.40654 -4.51522 0
M  V30 10652 H 1009.03 -0.222859 -0.749572 0
M  V30 10653 H 1011.61 -1.11217 -1.59809 0
M  V30 10654 H 1009.78 -0.0504597 -3.88367 0
M  V30 10655 H 1011.51 -0.242642 -4.03972 0
M  V30 10656 H 1008.27 -2.25805 -4.16304 0
M  V30 10657 H 1008.69 -4.80905 -4.76507 0
M  V30 10658 H 1013.33 -2.12641 -3.65436 0
M  V30 10659 H 1011.05 -6.3849 -4.95335 0
M  V30 10660 H 1014.64 -4.19376 -4.03255 0
M  V30 10661 H 1013.52 -6.29563 -4.67568 0
M  V30 10662 N 1011.02 1.44971 -0.618145 0
M  V30 10663 C 1012.25 2.07039 -0.122395 0
M  V30 10664 C 1012.67 1.45793 1.18853 0
M  V30 10665 O 1012.03 0.55453 1.72611 0
M  V30 10666 C 1012.08 3.60599 -0.0073864 0
M  V30 10667 O 1011.18 3.99069 1.04007 0
M  V30 10668 H 1010.52 0.6593 -0.0788615 0
M  V30 10669 H 1013.05 1.86055 -0.851147 0
M  V30 10670 H 1013.06 4.07569 0.187417 0
M  V30 10671 H 1011.74 4.04561 -0.964544 0
M  V30 10672 H 1010.31 3.63753 0.820879 0
M  V30 10673 N 1012.5 0.357919 1.53482 0
M  V30 10674 C 1013.75 -0.234163 2.01142 0
M  V30 10675 C 1014.07 -1.49399 1.2454 0
M  V30 10676 O 1013.33 -1.92981 0.325111 0
M  V30 10677 C 1013.63 -0.579617 3.52669 0
M  V30 10678 C 1013.29 0.584988 4.47089 0
M  V30 10679 C 1011.96 0.904558 4.72622 0
M  V30 10680 C 1014.31 1.3656 5.02992 0
M  V30 10681 C 1011.64 2.00685 5.5131 0
M  V30 10682 C 1013.99 2.45824 5.82884 0
M  V30 10683 C 1012.65 2.78325 6.06706 0
M  V30 10684 H 1011.92 -0.0856863 0.736029 0
M  V30 10685 H 1014.57 0.488801 1.85157 0
M  V30 10686 H 1012.87 -1.38349 3.66561 0
M  V30 10687 H 1014.57 -1.04985 3.87013 0
M  V30 10688 H 1011.16 0.32587 4.27359 0
M  V30 10689 H 1015.34 1.13196 4.83219 0
M  V30 10690 H 1010.6 2.26272 5.67988 0
M  V30 10691 H 1014.77 3.06732 6.25211 0
M  V30 10692 H 1012.4 3.63862 6.67464 0
M  V30 10693 N 1013.98 -1.5736 0.0868897 0
M  V30 10694 C 1015.22 -1.9367 -0.577598 0
M  V30 10695 C 1015.55 -0.968844 -1.69229 0
M  V30 10696 O 1014.82 -0.0195061 -1.9589 0
M  V30 10697 H 1013.4 -0.714983 -0.216353 0
M  V30 10698 H 1016.06 -1.94335 0.148294 0
M  V30 10699 H 1015.15 -2.95877 -0.993128 0
M  V30 10700 N 1015.45 0.186762 -1.56489 0
M  V30 10701 C 1016.7 0.907194 -1.81378 0
M  V30 10702 C 1017.03 1.82558 -0.662283 0
M  V30 10703 O 1016.31 1.91564 0.336699 0
M  V30 10704 C 1016.59 1.71624 -3.16571 0
M  V30 10705 C 1016.44 0.822009 -4.42225 0
M  V30 10706 C 1017.76 2.68713 -3.48542 0
M  V30 10707 H 1014.88 0.328366 -0.659806 0
M  V30 10708 H 1017.52 0.174142 -1.892 0
M  V30 10709 H 1015.67 2.34119 -3.10033 0
M  V30 10710 H 1017.35 0.211122 -4.60817 0
M  V30 10711 H 1015.59 0.129178 -4.33608 0
M  V30 10712 H 1016.26 1.42326 -5.33336 0
M  V30 10713 H 1018.74 2.16348 -3.55433 0
M  V30 10714 H 1017.61 3.22397 -4.44242 0
M  V30 10715 H 1017.87 3.48165 -2.72459 0
M  V30 10716 N 1016.93 1.50896 0.454776 0
M  V30 10717 C 1017.86 1.73885 1.5584 0
M  V30 10718 C 1018.84 0.588172 1.59607 0
M  V30 10719 O 1020.03 0.829054 1.75614 0
M  V30 10720 C 1017.16 1.84796 2.94054 0
M  V30 10721 C 1016.11 3.00111 3.05152 0
M  V30 10722 C 1015.44 2.96183 4.45174 0
M  V30 10723 C 1016.74 4.40365 2.80849 0
M  V30 10724 H 1018.43 2.66292 1.36854 0
M  V30 10725 H 1015.98 1.28142 0.656936 0
M  V30 10726 H 1017.93 1.99462 3.71204 0
M  V30 10727 H 1016.66 0.890235 3.14233 0
M  V30 10728 H 1015.31 2.85121 2.30438 0
M  V30 10729 H 1014.96 1.98224 4.62295 0
M  V30 10730 H 1014.66 3.73608 4.53532 0
M  V30 10731 H 1016.19 3.1292 5.24322 0
M  V30 10732 H 1017.6 4.55795 3.47741 0
M  V30 10733 H 1016 5.19363 3.00636 0
M  V30 10734 H 1017.07 4.51606 1.76579 0
M  V30 10735 N 1018.41 -0.709066 1.40748 0
M  V30 10736 C 1019.34 -1.83583 1.4429 0
M  V30 10737 C 1020.32 -1.67378 0.303067 0
M  V30 10738 O 1021.51 -1.87312 0.512612 0
M  V30 10739 C 1018.64 -3.21599 1.31116 0
M  V30 10740 C 1017.59 -3.52486 2.4277 0
M  V30 10741 C 1016.92 -4.89716 2.14668 0
M  V30 10742 C 1018.22 -3.52824 3.85113 0
M  V30 10743 H 1019.91 -1.80876 2.38588 0
M  V30 10744 H 1017.46 -0.868795 1.14839 0
M  V30 10745 H 1019.41 -4.00123 1.32209 0
M  V30 10746 H 1018.13 -3.24898 0.332965 0
M  V30 10747 H 1016.79 -2.76305 2.40937 0
M  V30 10748 H 1016.44 -4.89625 1.15224 0
M  V30 10749 H 1016.14 -5.11347 2.89478 0
M  V30 10750 H 1017.66 -5.70566 2.17455 0
M  V30 10751 H 1019.08 -4.21377 3.88734 0
M  V30 10752 H 1017.48 -3.85984 4.59496 0
M  V30 10753 H 1018.55 -2.52073 4.14231 0
M  V30 10754 N 1019.89 -1.26353 -0.941956 0
M  V30 10755 C 1021.14 -1.13026 -1.69106 0
M  V30 10756 C 1021.49 0.323264 -1.89665 0
M  V30 10757 O 1020.78 1.23405 -1.46566 0
M  V30 10758 C 1020.98 -1.83195 -3.06879 0
M  V30 10759 C 1020.81 -3.35221 -2.99762 0
M  V30 10760 C 1019.58 -4.04509 -3.02821 0
M  V30 10761 C 1021.77 -4.31425 -2.79959 0
M  V30 10762 N 1019.76 -5.43212 -2.85995 0
M  V30 10763 C 1021.13 -5.57299 -2.71694 0
M  V30 10764 C 1023.18 -4.21686 -2.64736 0
M  V30 10765 C 1021.89 -6.74546 -2.49761 0
M  V30 10766 C 1023.91 -5.38639 -2.44177 0
M  V30 10767 C 1023.27 -6.6346 -2.36643 0
M  V30 10768 H 1019.37 -0.468375 -0.626218 0
M  V30 10769 H 1021.96 -1.59629 -1.11476 0
M  V30 10770 H 1020.13 -1.39068 -3.62649 0
M  V30 10771 H 1021.86 -1.62498 -3.70644 0
M  V30 10772 H 1018.61 -3.55863 -3.12503 0
M  V30 10773 H 1019.04 -6.16042 -2.80752 0
M  V30 10774 H 1023.68 -3.25918 -2.69328 0
M  V30 10775 H 1021.4 -7.70411 -2.4391 0
M  V30 10776 H 1024.98 -5.32973 -2.33305 0
M  V30 10777 H 1023.86 -7.52431 -2.20945 0
M  V30 10778 N 1021.37 1.14642 -1.08144 0
M  V30 10779 C 1022.28 2.23257 -0.720668 0
M  V30 10780 C 1023.29 1.71866 0.271648 0
M  V30 10781 O 1024.47 2.01064 0.116266 0
M  V30 10782 C 1021.53 3.46447 -0.132542 0
M  V30 10783 C 1020.6 4.12789 -1.17913 0
M  V30 10784 C 1019.83 5.30099 -0.618971 0
M  V30 10785 O 1020.05 5.6762 0.562418 0
M  V30 10786 O 1018.99 5.86154 -1.36774 0
M  V30 10787 H 1022.81 2.56463 -1.62667 0
M  V30 10788 H 1020.4 1.22521 -0.854932 0
M  V30 10789 H 1022.28 4.20959 0.19277 0
M  V30 10790 H 1020.95 3.14971 0.746662 0
M  V30 10791 H 1019.86 3.40163 -1.55693 0
M  V30 10792 H 1021.19 4.48365 -2.03051 0
M  V30 10793 N 1022.85 0.866709 1.31628 0
M  V30 10794 C 1024.09 0.472185 1.96095 0
M  V30 10795 C 1024.41 -0.979873 1.69286 0
M  V30 10796 O 1025.61 -1.48039 2.27589 0
M  V30 10797 C 1024.07 0.793468 3.51044 0
M  V30 10798 C 1023.68 2.26206 3.86697 0
M  V30 10799 C 1025.42 0.467255 4.21921 0
M  V30 10800 C 1023.33 2.52593 5.34743 0
M  V30 10801 H 1022.26 0.172846 0.733921 0
M  V30 10802 H 1024.91 1.05916 1.49847 0
M  V30 10803 H 1023.29 0.135783 3.95767 0
M  V30 10804 H 1024.47 2.96254 3.52945 0
M  V30 10805 H 1022.78 2.55399 3.28877 0
M  V30 10806 H 1025.38 0.641669 5.30836 0
M  V30 10807 H 1025.72 -0.592065 4.12068 0
M  V30 10808 H 1026.25 1.08134 3.82821 0
M  V30 10809 H 1022.99 3.57196 5.49628 0
M  V30 10810 H 1022.51 1.87136 5.6986 0
M  V30 10811 H 1024.19 2.37156 6.01968 0
M  V30 10812 N 1024.32 -1.44642 0.625825 0
M  V30 10813 C 1025.57 -2.02094 0.128201 0
M  V30 10814 C 1025.9 -1.49181 -1.24801 0
M  V30 10815 O 1025.15 -0.663965 -1.84092 0
M  V30 10816 C 1025.45 -3.57352 0.0584381 0
M  V30 10817 C 1025.12 -4.29496 1.37272 0
M  V30 10818 C 1023.78 -4.48922 1.7327 0
M  V30 10819 C 1026.13 -4.70586 2.2405 0
M  V30 10820 C 1023.46 -5.06697 2.95762 0
M  V30 10821 C 1025.81 -5.29717 3.45807 0
M  V30 10822 C 1024.48 -5.47363 3.82034 0
M  V30 10823 H 1023.75 -0.739514 0.0469122 0
M  V30 10824 H 1026.39 -1.73475 0.811083 0
M  V30 10825 H 1024.7 -3.85354 -0.707791 0
M  V30 10826 H 1026.4 -3.9953 -0.34303 0
M  V30 10827 H 1022.99 -4.14702 1.08258 0
M  V30 10828 H 1027.17 -4.55295 1.97535 0
M  V30 10829 H 1022.43 -5.18546 3.23913 0
M  V30 10830 H 1026.6 -5.60507 4.13286 0
M  V30 10831 H 1024.23 -5.91898 4.77033 0
M  V30 10832 N 1025.8 -0.366053 -1.5329 0
M  V30 10833 C 1027.03 0.224236 -2.05681 0
M  V30 10834 C 1027.44 1.42412 -1.23952 0
M  V30 10835 O 1026.8 1.80334 -0.280309 0
M  V30 10836 C 1026.85 0.617266 -3.56191 0
M  V30 10837 O 1026.57 -0.534931 -4.34822 0
M  V30 10838 C 1028.07 1.26589 -4.24841 0
M  V30 10839 H 1025.29 0.0392928 -0.669849 0
M  V30 10840 H 1027.84 -0.52456 -1.97658 0
M  V30 10841 H 1025.99 1.31598 -3.64364 0
M  V30 10842 H 1026.41 -0.217123 -5.2405 0
M  V30 10843 H 1027.88 1.49146 -5.31469 0
M  V30 10844 H 1028.36 2.22633 -3.78591 0
M  V30 10845 H 1028.96 0.6086 -4.20923 0
M  V30 10846 N 1027.28 1.57312 -0.0952337 0
M  V30 10847 C 1028.21 2.17056 0.860753 0
M  V30 10848 C 1029.19 1.10394 1.29411 0
M  V30 10849 O 1030.38 1.38532 1.36098 0
M  V30 10850 C 1027.51 2.751 2.11984 0
M  V30 10851 C 1026.46 3.87136 1.8251 0
M  V30 10852 C 1025.79 4.31883 3.15247 0
M  V30 10853 C 1027.09 5.10326 1.11194 0
M  V30 10854 H 1028.78 2.97192 0.362983 0
M  V30 10855 H 1026.33 1.42955 0.173151 0
M  V30 10856 H 1028.28 3.15547 2.79299 0
M  V30 10857 H 1027 1.92219 2.64044 0
M  V30 10858 H 1025.66 3.47229 1.17592 0
M  V30 10859 H 1025.31 3.45893 3.65195 0
M  V30 10860 H 1025.01 5.0742 2.96309 0
M  V30 10861 H 1026.53 4.74964 3.83721 0
M  V30 10862 H 1027.95 5.47942 1.6862 0
M  V30 10863 H 1026.34 5.91293 1.02435 0
M  V30 10864 H 1027.41 4.84807 0.0947227 0
M  V30 10865 N 1028.76 -0.17846 1.56586 0
M  V30 10866 C 1030.01 -0.894464 1.81228 0
M  V30 10867 C 1030.33 -1.83089 0.671062 0
M  V30 10868 O 1029.6 -1.93439 -0.309557 0
M  V30 10869 H 1028.18 -0.333288 0.668527 0
M  V30 10870 H 1030.84 -0.179986 1.94067 0
M  V30 10871 H 1029.93 -1.47565 2.75011 0
M  V30 10872 N 1030.24 -1.51135 -0.446768 0
M  V30 10873 C 1031.48 -1.63013 -1.19461 0
M  V30 10874 C 1031.8 -0.344067 -1.91941 0
M  V30 10875 O 1031.07 0.639666 -1.85162 0
M  V30 10876 H 1029.65 -0.600757 -0.443959 0
M  V30 10877 H 1032.32 -1.88024 -0.513137 0
M  V30 10878 H 1031.41 -2.45322 -1.92933 0
M  V30 10879 N 1031.71 0.701592 -1.41122 0
M  V30 10880 C 1032.94 1.49553 -1.43696 0
M  V30 10881 C 1033.36 1.88053 -0.0421865 0
M  V30 10882 O 1032.72 1.54223 0.953144 0
M  V30 10883 C 1032.77 2.73834 -2.34622 0
M  V30 10884 O 1031.87 3.71088 -1.7991 0
M  V30 10885 H 1031.21 0.450352 -0.487933 0
M  V30 10886 H 1033.74 0.862886 -1.85514 0
M  V30 10887 H 1033.75 3.22209 -2.5029 0
M  V30 10888 H 1032.43 2.45149 -3.35969 0
M  V30 10889 H 1031.01 3.29994 -1.73661 0
M  V30 10890 N 1033.19 1.2685 0.935242 0
M  V30 10891 C 1034.6 1.11569 1.49697 0
M  V30 10892 C 1034.95 -0.301952 1.93863 0
M  V30 10893 O 1034.08 -1.19408 1.80473 0
M  V30 10894 C 1034.67 2.01918 2.72056 0
M  V30 10895 C 1033.23 1.90765 3.24477 0
M  V30 10896 C 1032.38 1.94918 1.97237 0
M  V30 10897 H 1035.33 1.39853 0.750116 0
M  V30 10898 H 1035.35 1.57056 3.46574 0
M  V30 10899 H 1034.86 3.05088 2.39881 0
M  V30 10900 H 1032.96 0.905521 3.61429 0
M  V30 10901 H 1033.08 2.76611 3.91182 0
M  V30 10902 H 1031.44 1.39046 2.13397 0
M  V30 10903 H 1032.22 2.99729 1.67385 0
M  V30 10904 N 1034.67 -1.14067 1.0875 0
M  V30 10905 C 1035.9 -1.88767 0.839682 0
M  V30 10906 C 1036.31 -1.79024 -0.612119 0
M  V30 10907 O 1035.65 -1.14986 -1.43262 0
M  V30 10908 C 1035.71 -3.39333 1.18716 0
M  V30 10909 C 1035.38 -3.72858 2.64245 0
M  V30 10910 C 1036.37 -3.72683 3.62496 0
M  V30 10911 C 1034.06 -4.0273 3.0019 0
M  V30 10912 C 1036.05 -4.01909 4.9472 0
M  V30 10913 C 1033.74 -4.31618 4.32607 0
M  V30 10914 C 1034.74 -4.31192 5.29682 0
M  V30 10915 O 1034.43 -4.59377 6.59718 0
M  V30 10916 H 1034.16 -0.604665 0.302253 0
M  V30 10917 H 1036.71 -1.45364 1.45115 0
M  V30 10918 H 1034.94 -3.83205 0.518707 0
M  V30 10919 H 1036.63 -3.95346 0.919599 0
M  V30 10920 H 1037.4 -3.49688 3.3607 0
M  V30 10921 H 1033.28 -4.02213 2.25268 0
M  V30 10922 H 1036.82 -4.01491 5.70483 0
M  V30 10923 H 1032.72 -4.54083 4.58779 0
M  V30 10924 H 1033.49 -4.77078 6.65086 0
M  V30 10925 N 1036.15 -0.873678 -1.31166 0
M  V30 10926 C 1037.56 -0.53852 -1.78765 0
M  V30 10927 C 1037.91 0.944765 -1.71955 0
M  V30 10928 O 1037.04 1.73781 -1.28954 0
M  V30 10929 C 1037.63 -0.970749 -3.24595 0
M  V30 10930 C 1036.19 -0.687189 -3.70074 0
M  V30 10931 C 1035.34 -1.16001 -2.51871 0
M  V30 10932 H 1038.29 -1.05903 -1.18196 0
M  V30 10933 H 1038.31 -0.294966 -3.79355 0
M  V30 10934 H 1037.82 -2.05034 -3.29519 0
M  V30 10935 H 1035.92 0.380881 -3.70648 0
M  V30 10936 H 1036.03 -1.26682 -4.62048 0
M  V30 10937 H 1034.4 -0.579663 -2.48016 0
M  V30 10938 H 1035.18 -2.2471 -2.59539 0
M  V30 10939 N 1037.63 1.44308 -0.633487 0
M  V30 10940 C 1038.87 2.01624 -0.138643 0
M  V30 10941 C 1039.2 1.50101 1.24477 0
M  V30 10942 O 1038.47 0.705575 1.82752 0
M  V30 10943 H 1037.05 0.745439 -0.0482636 0
M  V30 10944 H 1039.71 1.76777 -0.820719 0
M  V30 10945 H 1038.8 3.11913 -0.108136 0
M  V30 10946 N 1039.1 0.374177 1.53094 0
M  V30 10947 C 1040.35 -0.213131 2.01677 0
M  V30 10948 C 1040.68 -1.47715 1.26071 0
M  V30 10949 O 1039.96 -1.91199 0.356834 0
M  V30 10950 C 1040.24 -0.496392 3.56662 0
M  V30 10951 C 1040.09 0.781859 4.42953 0
M  V30 10952 C 1041.41 -1.29339 4.20666 0
M  V30 10953 H 1038.53 -0.0759885 0.733072 0
M  V30 10954 H 1041.17 0.500765 1.83282 0
M  V30 10955 H 1039.32 -1.10455 3.72467 0
M  V30 10956 H 1041 1.41914 4.38928 0
M  V30 10957 H 1039.24 1.40041 4.10574 0
M  V30 10958 H 1039.91 0.538508 5.49367 0
M  V30 10959 H 1042.39 -0.778848 4.08746 0
M  V30 10960 H 1041.26 -1.46033 5.29118 0
M  V30 10961 H 1041.52 -2.30435 3.77296 0
M  V30 10962 N 1040.58 -1.57259 0.103575 0
M  V30 10963 C 1041.99 -1.81816 -0.424239 0
M  V30 10964 C 1042.34 -1.01976 -1.67617 0
M  V30 10965 O 1041.47 -0.251673 -2.14932 0
M  V30 10966 C 1042.06 -3.29783 -0.776453 0
M  V30 10967 C 1040.62 -3.55074 -1.24897 0
M  V30 10968 C 1039.77 -2.76172 -0.249875 0
M  V30 10969 H 1042.72 -1.55254 0.328913 0
M  V30 10970 H 1042.74 -3.43569 -1.63526 0
M  V30 10971 H 1042.25 -3.87865 0.134906 0
M  V30 10972 H 1040.36 -3.02332 -2.17775 0
M  V30 10973 H 1040.47 -4.637 -1.20495 0
M  V30 10974 H 1038.83 -2.43902 -0.733767 0
M  V30 10975 H 1039.62 -3.37007 0.65431 0
M  V30 10976 N 1042.06 0.170153 -1.56679 0
M  V30 10977 C 1043.31 0.887906 -1.8233 0
M  V30 10978 C 1043.64 1.81845 -0.681608 0
M  V30 10979 O 1042.91 1.9191 0.316362 0
M  V30 10980 C 1043.2 1.68256 -3.18374 0
M  V30 10981 C 1043.05 0.775059 -4.43072 0
M  V30 10982 C 1044.37 2.65001 -3.51372 0
M  V30 10983 H 1041.49 0.32135 -0.663252 0
M  V30 10984 H 1044.13 0.154065 -1.89374 0
M  V30 10985 H 1042.28 2.30817 -3.12499 0
M  V30 10986 H 1043.95 0.162234 -4.61015 0
M  V30 10987 H 1042.2 0.0831809 -4.3372 0
M  V30 10988 H 1042.87 1.36661 -5.34816 0
M  V30 10989 H 1045.34 2.12566 -3.57708 0
M  V30 10990 H 1044.22 3.17667 -4.47637 0
M  V30 10991 H 1044.48 3.45255 -2.76136 0
M  V30 10992 N 1043.54 1.5137 0.438746 0
M  V30 10993 C 1044.45 1.75424 1.55768 0
M  V30 10994 C 1045.46 0.638409 1.61865 0
M  V30 10995 O 1046.64 0.9205 1.79133 0
M  V30 10996 C 1043.71 1.87288 2.9176 0
M  V30 10997 C 1042.77 3.11137 2.95791 0
M  V30 10998 C 1042 3.22425 4.25297 0
M  V30 10999 O 1042.22 2.39688 5.17596 0
M  V30 11000 O 1041.16 4.15393 4.35583 0
M  V30 11001 H 1044.98 2.70339 1.38386 0
M  V30 11002 H 1042.57 1.35854 0.621609 0
M  V30 11003 H 1044.45 1.97085 3.72472 0
M  V30 11004 H 1043.12 0.955599 3.09273 0
M  V30 11005 H 1042.03 3.06819 2.1404 0
M  V30 11006 H 1043.36 4.02549 2.83223 0
M  V30 11007 N 1045.02 -0.694098 1.41492 0
M  V30 11008 C 1045.93 -1.83778 1.45818 0
M  V30 11009 C 1046.94 -1.70471 0.348639 0
M  V30 11010 O 1048.12 -1.92361 0.596588 0
M  V30 11011 C 1045.18 -3.19771 1.33967 0
M  V30 11012 C 1044.24 -3.45175 2.5525 0
M  V30 11013 C 1043.48 -4.74681 2.43955 0
M  V30 11014 O 1043.7 -5.51268 1.46491 0
M  V30 11015 O 1042.63 -5.00901 3.33739 0
M  V30 11016 H 1046.46 -1.83084 2.42309 0
M  V30 11017 H 1044.05 -0.847349 1.23046 0
M  V30 11018 H 1045.93 -4.00961 1.29648 0
M  V30 11019 H 1044.6 -3.21145 0.405926 0
M  V30 11020 H 1043.51 -2.6391 2.65146 0
M  V30 11021 H 1044.84 -3.48617 3.47458 0
M  V30 11022 N 1046.49 -1.27344 -0.928501 0
M  V30 11023 C 1047.42 -1.12517 -2.04602 0
M  V30 11024 C 1048.41 -0.0268563 -1.70079 0
M  V30 11025 O 1049.59 -0.201197 -1.93155 0
M  V30 11026 C 1046.72 -0.770749 -3.3864 0
M  V30 11027 C 1045.67 -1.8222 -3.87272 0
M  V30 11028 C 1045 -1.32178 -5.18105 0
M  V30 11029 C 1046.3 -3.22614 -4.10752 0
M  V30 11030 H 1047.99 -2.06 -2.17265 0
M  V30 11031 H 1045.54 -0.991827 -1.04397 0
M  V30 11032 H 1047.49 -0.653843 -4.16297 0
M  V30 11033 H 1046.22 0.19979 -3.25988 0
M  V30 11034 H 1044.88 -1.928 -3.11807 0
M  V30 11035 H 1044.52 -0.340719 -5.01845 0
M  V30 11036 H 1044.22 -2.02474 -5.51614 0
M  V30 11037 H 1045.75 -1.2178 -5.98333 0
M  V30 11038 H 1047.16 -3.1504 -4.78981 0
M  V30 11039 H 1045.56 -3.90614 -4.55566 0
M  V30 11040 H 1046.63 -3.67727 -3.16077 0
M  V30 11041 N 1047.97 1.13488 -1.09353 0
M  V30 11042 C 1049.22 1.84748 -0.829126 0
M  V30 11043 C 1049.55 1.83485 0.645247 0
M  V30 11044 O 1048.8 1.26767 1.49093 0
M  V30 11045 C 1049.1 3.32584 -1.30854 0
M  V30 11046 C 1048.77 3.54028 -2.7924 0
M  V30 11047 C 1047.43 3.59588 -3.19765 0
M  V30 11048 C 1049.78 3.62058 -3.74918 0
M  V30 11049 C 1047.11 3.70712 -4.54741 0
M  V30 11050 C 1049.46 3.7471 -5.09682 0
M  V30 11051 C 1048.13 3.78523 -5.49797 0
M  V30 11052 H 1047.4 0.67604 -0.303399 0
M  V30 11053 H 1050.04 1.33989 -1.36818 0
M  V30 11054 H 1048.35 3.85689 -0.689275 0
M  V30 11055 H 1050.04 3.86166 -1.08059 0
M  V30 11056 H 1046.63 3.50354 -2.4688 0
M  V30 11057 H 1050.82 3.57043 -3.44723 0
M  V30 11058 H 1046.07 3.71931 -4.8526 0
M  V30 11059 H 1050.25 3.79866 -5.83674 0
M  V30 11060 H 1047.88 3.86895 -6.54382 0
M  V30 11061 N 1049.45 0.880621 1.30701 0
M  V30 11062 C 1050.4 0.342397 2.28246 0
M  V30 11063 C 1051.37 -0.565023 1.56194 0
M  V30 11064 O 1052.55 -0.494377 1.84284 0
M  V30 11065 C 1049.69 -0.440859 3.42272 0
M  V30 11066 C 1048.81 0.495284 4.29151 0
M  V30 11067 C 1047.94 -0.303141 5.30334 0
M  V30 11068 C 1046.98 0.628751 6.08862 0
M  V30 11069 N 1046.12 -0.13408 7.01972 0
M  V30 11070 H 1050.96 1.17938 2.73669 0
M  V30 11071 H 1048.49 0.59296 1.34619 0
M  V30 11072 H 1050.45 -0.910854 4.07135 0
M  V30 11073 H 1049.08 -1.24245 2.97931 0
M  V30 11074 H 1048.13 1.08376 3.64635 0
M  V30 11075 H 1049.45 1.2094 4.83916 0
M  V30 11076 H 1048.6 -0.835181 6.00924 0
M  V30 11077 H 1047.34 -1.05049 4.76252 0
M  V30 11078 H 1046.34 1.17246 5.37153 0
M  V30 11079 H 1047.57 1.37512 6.65032 0
M  V30 11080 H 1045.52 -0.864046 6.50285 0
M  V30 11081 H 1045.43 0.520486 7.54206 0
M  V30 11082 H 1046.7 -0.647005 7.7681 0
M  V30 11083 N 1050.93 -1.4397 0.641131 0
M  V30 11084 C 1051.86 -2.33458 -0.04446 0
M  V30 11085 C 1052.84 -1.48781 -0.824507 0
M  V30 11086 O 1054.03 -1.77477 -0.788397 0
M  V30 11087 C 1051.16 -3.31989 -1.01984 0
M  V30 11088 C 1050.11 -4.2656 -0.350745 0
M  V30 11089 C 1049.44 -5.15036 -1.43673 0
M  V30 11090 C 1050.74 -5.16897 0.749299 0
M  V30 11091 H 1052.43 -2.91034 0.702832 0
M  V30 11092 H 1049.98 -1.39942 0.339435 0
M  V30 11093 H 1051.93 -3.93483 -1.50828 0
M  V30 11094 H 1050.65 -2.72643 -1.79815 0
M  V30 11095 H 1049.31 -3.66413 0.117139 0
M  V30 11096 H 1048.96 -4.52037 -2.20617 0
M  V30 11097 H 1048.66 -5.79125 -0.994358 0
M  V30 11098 H 1050.18 -5.79403 -1.92678 0
M  V30 11099 H 1051.6 -5.7227 0.343534 0
M  V30 11100 H 1049.99 -5.89643 1.11541 0
M  V30 11101 H 1051.06 -4.5731 1.61232 0
M  V30 11102 N 1052.41 -0.382291 -1.52893 0
M  V30 11103 C 1053.34 0.447829 -2.29165 0
M  V30 11104 C 1054.32 1.06956 -1.32267 0
M  V30 11105 O 1055.5 1.08365 -1.61154 0
M  V30 11106 C 1052.63 1.57902 -3.09329 0
M  V30 11107 C 1051.59 1.08369 -4.14053 0
M  V30 11108 C 1050.91 2.30641 -4.82399 0
M  V30 11109 C 1052.21 0.156591 -5.22065 0
M  V30 11110 H 1053.91 -0.188541 -2.98806 0
M  V30 11111 H 1051.45 -0.0921179 -1.43705 0
M  V30 11112 H 1053.41 2.16652 -3.61442 0
M  V30 11113 H 1052.13 2.24287 -2.37409 0
M  V30 11114 H 1050.79 0.518772 -3.62911 0
M  V30 11115 H 1050.44 2.9552 -4.07034 0
M  V30 11116 H 1050.14 1.98163 -5.53177 0
M  V30 11117 H 1051.66 2.90047 -5.37313 0
M  V30 11118 H 1053.08 0.652065 -5.6958 0
M  V30 11119 H 1051.47 -0.0780978 -6.00049 0
M  V30 11120 H 1052.54 -0.796529 -4.78313 0
M  V30 11121 N 1053.89 1.57202 -0.111913 0
M  V30 11122 C 1054.83 2.14936 0.840908 0
M  V30 11123 C 1055.8 1.07242 1.2684 0
M  V30 11124 O 1056.99 1.35114 1.34718 0
M  V30 11125 C 1054.13 2.74743 2.0883 0
M  V30 11126 C 1053.24 3.96723 1.70982 0
M  V30 11127 C 1052.38 4.4464 2.90634 0
M  V30 11128 C 1051.41 5.59169 2.48992 0
M  V30 11129 N 1050.55 6.01862 3.61534 0
M  V30 11130 H 1055.39 2.96034 0.341735 0
M  V30 11131 H 1052.93 1.4626 0.156993 0
M  V30 11132 H 1054.89 3.07546 2.81907 0
M  V30 11133 H 1053.52 1.96346 2.56218 0
M  V30 11134 H 1052.57 3.70127 0.878072 0
M  V30 11135 H 1053.88 4.79795 1.36373 0
M  V30 11136 H 1053.03 4.79315 3.71944 0
M  V30 11137 H 1051.77 3.60503 3.28464 0
M  V30 11138 H 1050.78 5.24106 1.66113 0
M  V30 11139 H 1052 6.45067 2.12287 0
M  V30 11140 H 1049.95 5.20667 3.99051 0
M  V30 11141 H 1049.87 6.79772 3.30827 0
M  V30 11142 H 1051.13 6.41172 4.43305 0
M  V30 11143 N 1055.36 -0.161842 1.56767 0
M  V30 11144 C 1056.27 -1.21996 2.00385 0
M  V30 11145 C 1057.29 -1.4789 0.916768 0
M  V30 11146 O 1058.47 -1.59852 1.22513 0
M  V30 11147 C 1055.53 -2.53695 2.36305 0
M  V30 11148 C 1054.59 -2.3558 3.58888 0
M  V30 11149 C 1053.82 -3.60998 3.93085 0
M  V30 11150 O 1054.05 -4.6657 3.28129 0
M  V30 11151 O 1052.98 -3.54544 4.86397 0
M  V30 11152 H 1056.81 -0.879701 2.9068 0
M  V30 11153 H 1054.39 -0.369437 1.4476 0
M  V30 11154 H 1056.27 -3.31366 2.60335 0
M  V30 11155 H 1054.95 -2.87281 1.49169 0
M  V30 11156 H 1053.86 -1.55908 3.40064 0
M  V30 11157 H 1055.19 -2.06915 4.46595 0
M  V30 11158 N 1056.84 -1.516 -0.430713 0
M  V30 11159 C 1058.09 -1.64271 -1.17726 0
M  V30 11160 C 1058.41 -0.364406 -1.91565 0
M  V30 11161 O 1057.68 0.619991 -1.8583 0
M  V30 11162 H 1056.26 -0.605432 -0.437562 0
M  V30 11163 H 1058.92 -1.88557 -0.493166 0
M  V30 11164 H 1058.02 -2.47355 -1.90321 0
M  V30 11165 N 1058.32 0.686584 -1.41858 0
M  V30 11166 C 1059.27 1.79271 -1.40875 0
M  V30 11167 C 1060.25 1.58413 -0.281782 0
M  V30 11168 O 1061.45 1.69093 -0.523132 0
M  V30 11169 C 1058.57 3.17647 -1.30213 0
M  V30 11170 C 1057.66 3.44168 -2.47808 0
M  V30 11171 N 1058.05 3.41339 -3.73258 0
M  V30 11172 C 1056.35 3.74755 -2.41815 0
M  V30 11173 C 1057.05 3.67016 -4.51303 0
M  V30 11174 N 1056.03 3.87203 -3.81543 0
M  V30 11175 H 1059.83 1.75459 -2.35778 0
M  V30 11176 H 1057.34 0.886946 -1.36041 0
M  V30 11177 H 1059.34 3.96896 -1.2759 0
M  V30 11178 H 1058 3.22664 -0.363021 0
M  V30 11179 H 1059.01 3.21511 -4.06018 0
M  V30 11180 H 1055.69 3.87089 -1.56423 0
M  V30 11181 H 1057.08 3.70888 -5.6026 0
M  V30 11182 N 1059.8 1.27835 0.921735 0
M  V30 11183 C 1061.21 1.05369 1.19873 0
M  V30 11184 C 1061.41 -0.208997 2.00413 0
M  V30 11185 O 1060.47 -0.912861 2.35421 0
M  V30 11186 C 1061.78 2.29658 1.94108 0
M  V30 11187 C 1063.33 2.34756 2.07023 0
M  V30 11188 C 1063.81 3.5879 2.84664 0
M  V30 11189 N 1065.3 3.59383 2.9223 0
M  V30 11190 C 1066.03 4.52029 3.52785 0
M  V30 11191 N 1065.53 5.54986 4.14683 0
M  V30 11192 N 1067.32 4.39641 3.50246 0
M  V30 11193 H 1059.47 2.08903 0.383819 0
M  V30 11194 H 1061.73 0.919065 0.232429 0
M  V30 11195 H 1061.44 3.21604 1.4235 0
M  V30 11196 H 1061.31 2.35444 2.94696 0
M  V30 11197 H 1063.7 1.43312 2.57965 0
M  V30 11198 H 1063.78 2.32969 1.05636 0
M  V30 11199 H 1063.43 4.50574 2.34404 0
M  V30 11200 H 1063.36 3.57829 3.86349 0
M  V30 11201 H 1065.85 2.84927 2.48244 0
M  V30 11202 H 1066.16 6.21837 4.58845 0
M  V30 11203 H 1064.51 5.58822 4.13211 0
M  V30 11204 H 1067.7 3.58413 3.01094 0
M  V30 11205 H 1067.87 5.12033 3.97148 0
M  V30 11206 N 1061.28 -1.12907 1.09954 0
M  V30 11207 C 1062.21 -2.17589 0.687769 0
M  V30 11208 C 1063.19 -1.59648 -0.308444 0
M  V30 11209 O 1064.37 -1.87343 -0.208527 0
M  V30 11210 C 1061.5 -3.38697 0.0140519 0
M  V30 11211 C 1060.54 -4.15254 0.972942 0
M  V30 11212 S 1061.38 -4.74205 2.48777 0
M  V30 11213 C 1062.53 -5.98653 1.82662 0
M  V30 11214 H 1062.77 -2.52181 1.57455 0
M  V30 11215 H 1060.3 -1.24289 0.916051 0
M  V30 11216 H 1062.26 -4.08844 -0.368343 0
M  V30 11217 H 1060.92 -3.02396 -0.849456 0
M  V30 11218 H 1060.11 -5.01999 0.448715 0
M  V30 11219 H 1059.71 -3.5079 1.297 0
M  V30 11220 H 1062 -6.67602 1.15388 0
M  V30 11221 H 1062.95 -6.55693 2.67343 0
M  V30 11222 H 1063.36 -5.49486 1.29325 0
M  V30 11223 N 1062.75 -0.88754 -1.30232 0
M  V30 11224 C 1064.03 -0.427249 -1.90877 0
M  V30 11225 C 1064.41 1.0922 -1.80649 0
M  V30 11226 O 1063.76 1.92866 -1.22536 0
M  V30 11227 C 1063.97 -0.928219 -3.3643 0
M  V30 11228 C 1065.32 -0.964706 -4.13496 0
M  V30 11229 O 1066.34 -0.875057 -3.45284 0
M  V30 11230 O 1065.2 -1.09754 -5.35366 0
M  V30 11231 H 1062.29 -0.131107 -0.816541 0
M  V30 11232 H 1064.84 -0.976609 -1.38782 0
M  V30 11233 H 1063.61 -1.97209 -3.37971 0
M  V30 11234 H 1063.23 -0.358169 -3.95983 0
M  V30 11235 N 1064.23 1.43628 -0.648757 0
M  V30 11236 C 1065.18 2.30755 0.0455536 0
M  V30 11237 C 1066.15 1.44495 0.819168 0
M  V30 11238 O 1067.33 1.73372 0.79667 0
M  V30 11239 C 1064.47 3.30017 1.00908 0
M  V30 11240 C 1063.59 4.31376 0.232039 0
M  V30 11241 C 1062.72 5.17723 1.18897 0
M  V30 11242 C 1061.76 6.10778 0.402096 0
M  V30 11243 N 1060.9 6.89763 1.31038 0
M  V30 11244 H 1065.74 2.89581 -0.70332 0
M  V30 11245 H 1063.28 1.42662 -0.3586 0
M  V30 11246 H 1065.23 3.86072 1.58128 0
M  V30 11247 H 1063.86 2.72851 1.72488 0
M  V30 11248 H 1062.92 3.77652 -0.456373 0
M  V30 11249 H 1064.23 4.9735 -0.380023 0
M  V30 11250 H 1063.38 5.78381 1.83194 0
M  V30 11251 H 1062.12 4.51864 1.83494 0
M  V30 11252 H 1061.13 5.49212 -0.254255 0
M  V30 11253 H 1062.35 6.78678 -0.239411 0
M  V30 11254 H 1060.3 6.26557 1.94324 0
M  V30 11255 H 1060.21 7.52243 0.752774 0
M  V30 11256 H 1061.48 7.54931 1.94164 0
M  V30 11257 N 1065.71 0.390394 1.52688 0
M  V30 11258 C 1067.12 -0.083394 1.86514 0
M  V30 11259 C 1067.47 -1.46057 1.31003 0
M  V30 11260 O 1066.6 -2.06663 0.641809 0
M  V30 11261 C 1067.19 -0.158102 3.38431 0
M  V30 11262 C 1065.75 -0.576186 3.71964 0
M  V30 11263 C 1064.9 0.261156 2.76068 0
M  V30 11264 H 1067.85 0.608226 1.46582 0
M  V30 11265 H 1067.87 -0.977023 3.67742 0
M  V30 11266 H 1067.38 0.844365 3.78803 0
M  V30 11267 H 1065.48 -1.58598 3.37161 0
M  V30 11268 H 1065.6 -0.333577 4.77937 0
M  V30 11269 H 1063.96 -0.273737 2.53225 0
M  V30 11270 H 1064.74 1.26162 3.19277 0
M  V30 11271 N 1067.19 -1.57141 0.120249 0
M  V30 11272 C 1068.41 -2.00017 -0.548454 0
M  V30 11273 C 1068.84 -0.999433 -1.59352 0
M  V30 11274 O 1068.2 0.0286978 -1.81277 0
M  V30 11275 C 1068.24 -3.41766 -1.15015 0
M  V30 11276 O 1067.35 -3.44589 -2.26566 0
M  V30 11277 H 1066.69 -0.649739 -0.136875 0
M  V30 11278 H 1069.22 -2.03529 0.209092 0
M  V30 11279 H 1069.23 -3.80001 -1.48537 0
M  V30 11280 H 1067.9 -4.14117 -0.384681 0
M  V30 11281 H 1066.48 -3.18174 -1.94473 0
M  V30 11282 N 1068.67 0.153526 -1.5685 0
M  V30 11283 C 1069.61 1.20896 -1.98713 0
M  V30 11284 C 1070.61 1.44839 -0.878529 0
M  V30 11285 O 1071.81 1.45208 -1.0637 0
M  V30 11286 H 1068.19 0.406797 -0.632472 0
M  V30 11287 H 1070.16 0.829145 -2.86649 0
M  V30 11288 C 1068.91 2.53642 -2.37825 0
M  V30 11289 H 1068.23 2.36047 -3.22679 0
M  V30 11290 H 1069.67 3.26136 -2.70946 0
M  V30 11291 C 1068.13 3.13706 -1.22841 0
M  V30 11292 O 1068.66 3.98246 -0.525626 0
M  V30 11293 N 1066.87 2.73059 -0.99435 0
M  V30 11294 H 1066.41 2.0441 -1.56761 0
M  V30 11295 H 1066.37 3.1358 -0.226883 0
M  V30 11296 N 1070.14 1.51827 0.422667 0
M  V30 11297 C 1071.38 1.66888 1.18016 0
M  V30 11298 C 1071.75 0.383859 1.88124 0
M  V30 11299 O 1072.95 0.410413 2.65648 0
M  V30 11300 C 1071.22 2.84842 2.1587 0
M  V30 11301 S 1072.78 3.20312 2.99909 0
M  V30 11302 H 1069.6 0.58781 0.4 0
M  V30 11303 H 1072.2 1.89779 0.46948 0
M  V30 11304 H 1070.9 3.76629 1.63029 0
M  V30 11305 H 1070.43 2.64183 2.91497 0
M  V30 11306 H 1072.45 2.67884 4.17675 0
M  V30 11307 N 1071.62 -0.679052 1.4222 0
M  V30 11308 C 1072.85 -1.46747 1.45852 0
M  V30 11309 C 1073.27 -1.88675 0.0685937 0
M  V30 11310 O 1072.62 -1.57861 -0.915757 0
M  V30 11311 C 1072.67 -2.71935 2.38188 0
M  V30 11312 O 1072.39 -2.31768 3.71773 0
M  V30 11313 C 1073.9 -3.65536 2.50796 0
M  V30 11314 H 1071.12 -0.451682 0.49621 0
M  V30 11315 H 1073.66 -0.834723 1.86689 0
M  V30 11316 H 1071.81 -3.31409 2.00616 0
M  V30 11317 H 1072.23 -3.12579 4.21182 0
M  V30 11318 H 1073.7 -4.50113 3.19535 0
M  V30 11319 H 1074.18 -4.11148 1.54447 0
M  V30 11320 H 1074.79 -3.11957 2.89072 0
M  V30 11321 N 1073.1 -1.28322 -0.914942 0
M  V30 11322 C 1074.05 -1.12003 -2.03858 0
M  V30 11323 C 1075.04 -0.0396287 -1.69354 0
M  V30 11324 O 1076.25 -0.198309 -1.78904 0
M  V30 11325 H 1072.62 -0.34552 -0.667922 0
M  V30 11326 H 1074.59 -2.07168 -2.14765 0
M  V30 11327 C 1073.34 -0.797402 -3.38433 0
M  V30 11328 H 1072.67 -1.62071 -3.65476 0
M  V30 11329 H 1074.11 -0.723165 -4.17787 0
M  V30 11330 C 1072.57 0.498807 -3.33187 0
M  V30 11331 O 1073.1 1.52946 -3.71444 0
M  V30 11332 N 1071.3 0.499101 -2.86282 0
M  V30 11333 H 1070.85 -0.340056 -2.55346 0
M  V30 11334 H 1070.81 1.36641 -2.83155 0
M  V30 11335 N 1074.58 1.12322 -1.10551 0
M  V30 11336 C 1075.49 2.21678 -0.767862 0
M  V30 11337 C 1076.5 1.72404 0.235132 0
M  V30 11338 O 1077.68 2.01266 0.0735912 0
M  V30 11339 C 1074.75 3.46087 -0.205999 0
M  V30 11340 C 1073.81 4.10195 -1.26642 0
M  V30 11341 C 1073.04 5.28666 -0.731274 0
M  V30 11342 O 1073.26 5.68686 0.44189 0
M  V30 11343 O 1072.2 5.83121 -1.49176 0
M  V30 11344 H 1076.02 2.52955 -1.6807 0
M  V30 11345 H 1073.61 1.2068 -0.880728 0
M  V30 11346 H 1075.49 4.21273 0.103435 0
M  V30 11347 H 1074.16 3.16484 0.679685 0
M  V30 11348 H 1073.07 3.36784 -1.62873 0
M  V30 11349 H 1074.4 4.43957 -2.12516 0
M  V30 11350 N 1076.06 0.894434 1.2976 0
M  V30 11351 C 1076.99 0.3847 2.30309 0
M  V30 11352 C 1077.97 -0.537486 1.61385 0
M  V30 11353 O 1079.15 -0.449332 1.8893 0
M  V30 11354 C 1076.28 -0.393311 3.45066 0
M  V30 11355 C 1075.24 0.437968 4.25753 0
M  V30 11356 C 1074.56 -0.467221 5.32655 0
M  V30 11357 C 1075.86 1.6851 4.9437 0
M  V30 11358 H 1077.56 1.22496 2.73194 0
M  V30 11359 H 1075.1 0.590471 1.31337 0
M  V30 11360 H 1077.06 -0.760614 4.14479 0
M  V30 11361 H 1075.78 -1.2673 3.0101 0
M  V30 11362 H 1074.44 0.787533 3.58041 0
M  V30 11363 H 1074.09 -1.33919 4.84845 0
M  V30 11364 H 1073.79 0.0852482 5.87538 0
M  V30 11365 H 1075.31 -0.830833 6.04921 0
M  V30 11366 H 1076.72 1.38784 5.56248 0
M  V30 11367 H 1075.12 2.17849 5.59162 0
M  V30 11368 H 1076.19 2.42412 4.19958 0
M  V30 11369 N 1077.53 -1.43282 0.656365 0
M  V30 11370 C 1078.76 -2.05826 0.178619 0
M  V30 11371 C 1079.17 -1.493 -1.16216 0
M  V30 11372 O 1078.52 -0.620163 -1.72915 0
M  V30 11373 C 1078.58 -3.59496 0.0164101 0
M  V30 11374 C 1078.24 -4.38621 1.28298 0
M  V30 11375 C 1079.24 -4.70477 2.21241 0
M  V30 11376 C 1076.92 -4.78577 1.52544 0
M  V30 11377 C 1078.92 -5.412 3.36721 0
M  V30 11378 C 1076.6 -5.49044 2.68316 0
M  V30 11379 C 1077.6 -5.80279 3.6023 0
M  V30 11380 O 1077.29 -6.49306 4.7398 0
M  V30 11381 H 1077.02 -0.670158 0.0886814 0
M  V30 11382 H 1079.58 -1.84722 0.89816 0
M  V30 11383 H 1077.81 -3.79188 -0.758532 0
M  V30 11384 H 1079.5 -4.03731 -0.419096 0
M  V30 11385 H 1080.26 -4.40125 2.03753 0
M  V30 11386 H 1076.14 -4.5367 0.818816 0
M  V30 11387 H 1079.68 -5.65497 4.08483 0
M  V30 11388 H 1075.58 -5.78813 2.85738 0
M  V30 11389 H 1076.35 -6.67789 4.73286 0
M  V30 11390 N 1079.01 -0.398486 -1.52479 0
M  V30 11391 C 1079.95 0.476551 -2.23169 0
M  V30 11392 C 1080.92 1.05665 -1.23587 0
M  V30 11393 O 1082.11 1.10654 -1.52604 0
M  V30 11394 C 1079.24 1.66048 -2.95204 0
M  V30 11395 C 1078.28 1.20478 -4.0913 0
M  V30 11396 S 1079.11 0.178711 -5.35202 0
M  V30 11397 C 1080.27 1.36821 -6.10762 0
M  V30 11398 H 1080.5 -0.123704 -2.97043 0
M  V30 11399 H 1078.04 -0.182722 -1.53315 0
M  V30 11400 H 1079.99 2.33942 -3.37315 0
M  V30 11401 H 1078.66 2.23206 -2.20993 0
M  V30 11402 H 1077.85 2.08901 -4.58668 0
M  V30 11403 H 1077.45 0.604632 -3.6908 0
M  V30 11404 H 1079.74 2.2937 -6.37492 0
M  V30 11405 H 1080.69 0.913579 -7.02182 0
M  V30 11406 H 1081.09 1.58919 -5.41669 0
M  V30 11407 N 1080.49 1.57075 -0.12858 0
M  V30 11408 C 1081.42 2.11553 0.855593 0
M  V30 11409 C 1082.4 1.03435 1.25459 0
M  V30 11410 O 1083.59 1.3115 1.35395 0
M  V30 11411 C 1080.71 2.62012 2.14633 0
M  V30 11412 C 1079.76 3.82105 1.89467 0
M  V30 11413 S 1080.59 5.24033 1.10228 0
M  V30 11414 C 1081.75 5.77867 2.4046 0
M  V30 11415 H 1081.98 2.94701 0.392248 0
M  V30 11416 H 1079.51 1.54164 0.0853746 0
M  V30 11417 H 1081.47 2.91737 2.8879 0
M  V30 11418 H 1080.13 1.79029 2.58084 0
M  V30 11419 H 1079.33 4.15592 2.8513 0
M  V30 11420 H 1078.93 3.53047 1.23427 0
M  V30 11421 H 1081.22 5.88175 3.36238 0
M  V30 11422 H 1082.16 6.75775 2.11504 0
M  V30 11423 H 1082.57 5.05991 2.50266 0
M  V30 11424 N 1081.97 -0.145205 1.5693 0
M  V30 11425 C 1082.9 -1.20881 1.93553 0
M  V30 11426 C 1083.88 -1.41467 0.801612 0
M  V30 11427 O 1085.06 -1.5605 1.05739 0
M  V30 11428 C 1082.19 -2.5674 2.20912 0
M  V30 11429 C 1081.24 -2.52738 3.43549 0
M  V30 11430 S 1082.07 -1.99257 4.97048 0
M  V30 11431 C 1083.23 -3.36842 5.27531 0
M  V30 11432 H 1083.46 -0.896362 2.83465 0
M  V30 11433 H 1080.99 -0.350894 1.5036 0
M  V30 11434 H 1082.95 -3.34923 2.37354 0
M  V30 11435 H 1081.61 -2.85174 1.31661 0
M  V30 11436 H 1080.8 -3.52753 3.59974 0
M  V30 11437 H 1080.41 -1.82665 3.26358 0
M  V30 11438 H 1082.7 -4.32958 5.21108 0
M  V30 11439 H 1083.64 -3.25268 6.28973 0
M  V30 11440 H 1084.05 -3.3406 4.55043 0
M  V30 11441 N 1083.45 -1.52049 -0.414609 0
M  V30 11442 C 1084.86 -1.40729 -0.752822 0
M  V30 11443 C 1085.06 -0.507468 -1.95005 0
M  V30 11444 O 1084.12 0.0288189 -2.52484 0
M  V30 11445 C 1085.43 -2.83163 -1.01189 0
M  V30 11446 C 1086.98 -2.92469 -1.11494 0
M  V30 11447 C 1087.46 -4.35859 -1.4068 0
M  V30 11448 N 1088.95 -4.39069 -1.47557 0
M  V30 11449 C 1089.68 -5.47072 -1.71756 0
M  V30 11450 N 1089.18 -6.65201 -1.93595 0
M  V30 11451 N 1090.97 -5.3458 -1.73726 0
M  V30 11452 H 1083.12 -2.09089 0.373549 0
M  V30 11453 H 1085.38 -0.942188 0.104814 0
M  V30 11454 H 1085.09 -3.51104 -0.204609 0
M  V30 11455 H 1084.96 -3.23874 -1.93353 0
M  V30 11456 H 1087.35 -2.24711 -1.91282 0
M  V30 11457 H 1087.43 -2.55222 -0.171794 0
M  V30 11458 H 1087.08 -5.04174 -0.614119 0
M  V30 11459 H 1087.01 -4.70637 -2.36238 0
M  V30 11460 H 1089.5 -3.53913 -1.32491 0
M  V30 11461 H 1089.81 -7.43297 -2.11495 0
M  V30 11462 H 1088.16 -6.68276 -1.90871 0
M  V30 11463 H 1091.35 -4.41271 -1.56198 0
M  V30 11464 H 1091.52 -6.18826 -1.92246 0
M  V30 11465 N 1084.93 0.6715 -1.42579 0
M  V30 11466 C 1086.2 1.42766 -1.33706 0
M  V30 11467 C 1086.58 2.11086 0.0239748 0
M  V30 11468 O 1085.93 2.03479 1.03964 0
M  V30 11469 C 1086.14 2.42739 -2.50756 0
M  V30 11470 C 1087.49 3.07284 -2.93021 0
M  V30 11471 O 1088.51 2.53066 -2.50671 0
M  V30 11472 O 1087.37 4.05541 -3.66331 0
M  V30 11473 H 1084.47 0.636955 -0.527463 0
M  V30 11474 H 1087.01 0.699946 -1.54593 0
M  V30 11475 H 1085.78 1.91076 -3.41476 0
M  V30 11476 H 1085.41 3.22986 -2.31874 0
M  V30 11477 N 1086.4 1.28806 0.908124 0
M  V30 11478 C 1087.64 1.17546 1.67219 0
M  V30 11479 C 1088.01 -0.270396 1.90086 0
M  V30 11480 O 1089.21 -0.505808 2.63998 0
M  V30 11481 C 1087.48 1.95774 2.99011 0
M  V30 11482 S 1089.04 2.00953 3.90081 0
M  V30 11483 H 1085.86 0.419283 0.574215 0
M  V30 11484 H 1088.46 1.6298 1.07971 0
M  V30 11485 H 1087.16 2.99978 2.80074 0
M  V30 11486 H 1086.69 1.50911 3.63303 0
M  V30 11487 H 1088.71 1.1201 4.83392 0
M  V30 11488 N 1087.88 -1.11734 1.11145 0
M  V30 11489 C 1089.13 -1.83874 0.86959 0
M  V30 11490 C 1089.48 -1.82859 -0.598363 0
M  V30 11491 O 1088.78 -1.26849 -1.43596 0
M  V30 11492 C 1088.97 -3.3046 1.36129 0
M  V30 11493 C 1088.8 -3.45752 2.87551 0
M  V30 11494 C 1087.57 -3.58956 3.55638 0
M  V30 11495 C 1089.77 -3.40296 3.85621 0
M  V30 11496 N 1087.75 -3.62688 4.95309 0
M  V30 11497 C 1089.12 -3.50611 5.11343 0
M  V30 11498 C 1091.17 -3.23808 3.78223 0
M  V30 11499 C 1089.88 -3.46138 6.3054 0
M  V30 11500 C 1091.9 -3.20651 4.96927 0
M  V30 11501 C 1091.27 -3.31534 6.21502 0
M  V30 11502 H 1087.36 -0.688226 0.371306 0
M  V30 11503 H 1089.95 -1.33715 1.41522 0
M  V30 11504 H 1088.12 -3.79144 0.842885 0
M  V30 11505 H 1089.85 -3.90493 1.0629 0
M  V30 11506 H 1086.61 -3.61387 3.06098 0
M  V30 11507 H 1087.03 -3.68199 5.68118 0
M  V30 11508 H 1091.67 -3.14282 2.8282 0
M  V30 11509 H 1089.39 -3.54433 7.26225 0
M  V30 11510 H 1092.98 -3.09064 4.9292 0
M  V30 11511 H 1091.86 -3.29076 7.11814 0
M  V30 11512 N 1089.36 -0.901303 -1.29284 0
M  V30 11513 C 1090.31 -0.351562 -2.25273 0
M  V30 11514 C 1091.29 0.529276 -1.51946 0
M  V30 11515 O 1092.49 0.371031 -1.73068 0
M  V30 11516 C 1089.61 0.41843 -3.4074 0
M  V30 11517 C 1088.7 -0.47742 -4.21404 0
M  V30 11518 N 1089.09 -1.58537 -4.80312 0
M  V30 11519 C 1087.39 -0.275504 -4.45148 0
M  V30 11520 C 1088.09 -2.14041 -5.40889 0
M  V30 11521 N 1087.07 -1.43324 -5.24365 0
M  V30 11522 H 1090.87 -1.1979 -2.68379 0
M  V30 11523 H 1088.38 -0.752538 -1.43912 0
M  V30 11524 H 1090.38 0.829022 -4.08574 0
M  V30 11525 H 1089.04 1.26201 -2.99171 0
M  V30 11526 H 1090.05 -1.96809 -4.79047 0
M  V30 11527 H 1086.73 0.529581 -4.14128 0
M  V30 11528 H 1088.12 -3.07173 -5.97574 0
M  V30 11529 N 1090.84 1.42931 -0.663954 0
M  V30 11530 C 1091.8 2.29197 0.0117626 0
M  V30 11531 C 1092.8 1.42767 0.739875 0
M  V30 11532 O 1093.99 1.64278 0.579509 0
M  V30 11533 C 1091.12 3.2505 1.02738 0
M  V30 11534 H 1092.32 2.90438 -0.747391 0
M  V30 11535 H 1089.87 1.5039 -0.425733 0
M  V30 11536 H 1090.6 2.68726 1.8154 0
M  V30 11537 H 1090.39 3.88785 0.508809 0
M  V30 11538 H 1091.88 3.89771 1.49893 0
M  V30 11539 N 1092.32 0.406567 1.52266 0
M  V30 11540 C 1093.56 -0.170305 2.02084 0
M  V30 11541 C 1093.89 -1.45008 1.29176 0
M  V30 11542 O 1093.17 -1.90399 0.39731 0
M  V30 11543 C 1093.45 -0.420627 3.57635 0
M  V30 11544 C 1093.31 0.87564 4.41194 0
M  V30 11545 C 1094.62 -1.20387 4.23314 0
M  V30 11546 H 1091.74 -0.0604219 0.734519 0
M  V30 11547 H 1094.39 0.539529 1.82179 0
M  V30 11548 H 1092.54 -1.0253 3.74726 0
M  V30 11549 H 1094.21 1.51192 4.35819 0
M  V30 11550 H 1092.45 1.48718 4.07511 0
M  V30 11551 H 1093.12 0.654916 5.48101 0
M  V30 11552 H 1095.6 -0.691972 4.10306 0
M  V30 11553 H 1094.47 -1.34776 5.32096 0
M  V30 11554 H 1094.73 -2.2238 3.82099 0
M  V30 11555 N 1093.79 -1.57004 0.136909 0
M  V30 11556 C 1095.21 -1.82675 -0.385577 0
M  V30 11557 C 1095.56 -1.05508 -1.65416 0
M  V30 11558 O 1094.68 -0.297207 -2.14349 0
M  V30 11559 C 1095.28 -3.31356 -0.706326 0
M  V30 11560 C 1093.84 -3.57644 -1.17337 0
M  V30 11561 C 1092.98 -2.7664 -0.191239 0
M  V30 11562 H 1095.93 -1.54522 0.36177 0
M  V30 11563 H 1095.95 -3.4696 -1.56201 0
M  V30 11564 H 1095.47 -3.87492 0.217147 0
M  V30 11565 H 1093.57 -3.06883 -2.11313 0
M  V30 11566 H 1093.68 -4.66152 -1.10632 0
M  V30 11567 H 1092.04 -2.45403 -0.681867 0
M  V30 11568 H 1092.83 -3.35543 0.725647 0
M  V30 11569 N 1095.27 0.136881 -1.57004 0
M  V30 11570 C 1096.5 0.866405 -1.88436 0
M  V30 11571 C 1096.92 1.73483 -0.727006 0
M  V30 11572 O 1096.28 1.78398 0.323094 0
M  V30 11573 C 1096.33 1.69059 -3.18514 0
M  V30 11574 O 1095.43 2.79584 -3.03161 0
M  V30 11575 H 1094.77 0.240709 -0.618834 0
M  V30 11576 H 1097.3 0.124653 -2.0422 0
M  V30 11577 H 1097.31 2.08353 -3.50789 0
M  V30 11578 H 1095.99 1.05296 -4.0235 0
M  V30 11579 H 1094.57 2.43623 -2.82315 0
M  V30 11580 N 1096.75 1.52266 0.40654 0
M  V30 11581 C 1097.68 1.72025 1.51459 0
M  V30 11582 C 1098.7 0.600667 1.51314 0
M  V30 11583 O 1099.88 0.875894 1.55532 0
M  V30 11584 C 1096.98 1.7479 2.90348 0
M  V30 11585 C 1096.16 3.03826 3.14656 0
M  V30 11586 C 1095.22 2.98369 4.33431 0
M  V30 11587 O 1094.24 3.7227 4.30586 0
M  V30 11588 N 1095.44 2.16338 5.38682 0
M  V30 11589 H 1098.21 2.67622 1.34903 0
M  V30 11590 H 1095.77 1.50536 0.595867 0
M  V30 11591 H 1097.76 1.68667 3.67877 0
M  V30 11592 H 1096.33 0.86656 3.00349 0
M  V30 11593 H 1095.55 3.23577 2.25148 0
M  V30 11594 H 1096.84 3.89182 3.27742 0
M  V30 11595 H 1096.24 1.55731 5.43842 0
M  V30 11596 H 1094.8 2.1607 6.14945 0
M  V30 11597 N 1098.23 -0.663929 1.42933 0
M  V30 11598 C 1099.64 -0.978346 1.26097 0
M  V30 11599 C 1099.84 -2.00756 0.172968 0
M  V30 11600 O 1098.9 -2.48418 -0.452184 0
M  V30 11601 C 1100.21 -1.4728 2.62162 0
M  V30 11602 C 1101.76 -1.59001 2.69606 0
M  V30 11603 C 1102.24 -2.1184 4.06064 0
M  V30 11604 N 1103.73 -2.19158 4.08074 0
M  V30 11605 C 1104.46 -2.61141 5.10483 0
M  V30 11606 N 1103.96 -3.02498 6.23271 0
M  V30 11607 N 1105.75 -2.60986 4.97838 0
M  V30 11608 H 1097.9 0.0173096 2.12393 0
M  V30 11609 H 1100.17 -0.0548116 0.946414 0
M  V30 11610 H 1099.87 -0.791008 3.42689 0
M  V30 11611 H 1099.75 -2.4497 2.86827 0
M  V30 11612 H 1102.13 -2.26284 1.89418 0
M  V30 11613 H 1102.21 -0.597728 2.48718 0
M  V30 11614 H 1101.86 -1.45162 4.86714 0
M  V30 11615 H 1101.79 -3.1188 4.2431 0
M  V30 11616 H 1104.28 -1.90013 3.26655 0
M  V30 11617 H 1104.59 -3.33251 6.97254 0
M  V30 11618 H 1102.94 -3.00328 6.2676 0
M  V30 11619 H 1106.13 -2.28046 4.08794 0
M  V30 11620 H 1106.3 -2.93384 5.7778 0
M  V30 11621 N 1099.71 -1.29285 -0.901281 0
M  V30 11622 C 1101.12 -1.15499 -1.46686 0
M  V30 11623 C 1101.47 0.250446 -1.94595 0
M  V30 11624 O 1100.59 1.14581 -1.83576 0
M  V30 11625 C 1101.19 -2.0906 -2.66607 0
M  V30 11626 C 1099.75 -1.99301 -3.19306 0
M  V30 11627 C 1098.89 -2.00079 -1.91999 0
M  V30 11628 H 1101.85 -1.41793 -0.712773 0
M  V30 11629 H 1101.87 -1.6619 -3.42288 0
M  V30 11630 H 1101.38 -3.11341 -2.31707 0
M  V30 11631 H 1099.48 -1.00103 -3.58901 0
M  V30 11632 H 1099.59 -2.86885 -3.8371 0
M  V30 11633 H 1097.96 -1.44655 -2.09636 0
M  V30 11634 H 1098.74 -3.04061 -1.59379 0
M  V30 11635 N 1101.18 1.11143 -1.11736 0
M  V30 11636 C 1102.41 1.86745 -0.890727 0
M  V30 11637 C 1102.83 1.80315 0.55964 0
M  V30 11638 O 1102.18 1.18663 1.38656 0
M  V30 11639 C 1102.24 3.35436 -1.34779 0
M  V30 11640 O 1101.96 3.41738 -2.74129 0
M  V30 11641 C 1103.46 4.27935 -1.15702 0
M  V30 11642 H 1100.68 0.59044 -0.318781 0
M  V30 11643 H 1103.22 1.40549 -1.48547 0
M  V30 11644 H 1101.38 3.79125 -0.796425 0
M  V30 11645 H 1101.79 4.34347 -2.94012 0
M  V30 11646 H 1103.26 5.30494 -1.52579 0
M  V30 11647 H 1103.74 4.39093 -0.0968735 0
M  V30 11648 H 1104.35 3.90042 -1.69551 0
M  V30 11649 N 1102.66 0.908147 1.28804 0
M  V30 11650 C 1103.91 0.538404 1.95211 0
M  V30 11651 C 1104.24 -0.916886 1.71533 0
M  V30 11652 O 1103.49 -1.66643 1.02609 0
M  V30 11653 C 1103.79 0.787327 3.4862 0
M  V30 11654 C 1103.46 2.22129 3.92389 0
M  V30 11655 C 1102.12 2.61336 4.04051 0
M  V30 11656 C 1104.47 3.15471 4.14883 0
M  V30 11657 C 1101.8 3.93048 4.3558 0
M  V30 11658 C 1104.15 4.46741 4.47889 0
M  V30 11659 C 1102.82 4.85809 4.57761 0
M  V30 11660 H 1102.09 0.197016 0.714329 0
M  V30 11661 H 1104.73 1.14841 1.53244 0
M  V30 11662 H 1103.04 0.0944731 3.91686 0
M  V30 11663 H 1104.73 0.480503 3.98111 0
M  V30 11664 H 1101.32 1.90704 3.83836 0
M  V30 11665 H 1105.51 2.86391 4.05332 0
M  V30 11666 H 1100.76 4.23027 4.41428 0
M  V30 11667 H 1104.94 5.19087 4.64243 0
M  V30 11668 H 1102.57 5.87904 4.81947 0
M  V30 11669 N 1104.14 -1.42577 0.671525 0
M  V30 11670 C 1105.09 -2.30798 -0.00883676 0
M  V30 11671 C 1106.06 -1.4578 -0.796076 0
M  V30 11672 O 1107.24 -1.74617 -0.768987 0
M  V30 11673 C 1104.38 -3.31581 -0.956452 0
M  V30 11674 C 1103.5 -4.31691 -0.163381 0
M  V30 11675 C 1102.63 -5.19549 -1.10645 0
M  V30 11676 C 1101.67 -6.1134 -0.304876 0
M  V30 11677 N 1100.81 -6.91761 -1.20048 0
M  V30 11678 H 1105.65 -2.88426 0.749301 0
M  V30 11679 H 1103.18 -1.42074 0.381251 0
M  V30 11680 H 1105.14 -3.88539 -1.51966 0
M  V30 11681 H 1103.77 -2.75561 -1.68126 0
M  V30 11682 H 1102.82 -3.76879 0.516396 0
M  V30 11683 H 1104.14 -4.96683 0.459099 0
M  V30 11684 H 1103.29 -5.81223 -1.73969 0
M  V30 11685 H 1102.03 -4.54726 -1.76282 0
M  V30 11686 H 1101.03 -5.48738 0.341597 0
M  V30 11687 H 1102.26 -6.78211 0.347352 0
M  V30 11688 H 1100.2 -6.2957 -1.84331 0
M  V30 11689 H 1100.12 -7.53345 -0.633003 0
M  V30 11690 H 1101.39 -7.57924 -1.82129 0
M  V30 11691 N 1105.62 -0.414636 -1.52048 0
M  V30 11692 C 1106.55 0.443601 -2.24866 0
M  V30 11693 C 1107.56 1.00556 -1.28032 0
M  V30 11694 O 1108.75 0.903566 -1.53941 0
M  V30 11695 C 1105.85 1.63004 -2.97124 0
M  V30 11696 C 1105.03 1.191 -4.20873 0
M  V30 11697 C 1104.08 2.24497 -4.75907 0
M  V30 11698 O 1103.11 1.84861 -5.38345 0
M  V30 11699 N 1104.31 3.56727 -4.57959 0
M  V30 11700 H 1107.08 -0.180393 -2.99157 0
M  V30 11701 H 1104.64 -0.242305 -1.60077 0
M  V30 11702 H 1106.63 2.33089 -3.30835 0
M  V30 11703 H 1105.2 2.15984 -2.25986 0
M  V30 11704 H 1104.42 0.318059 -3.92915 0
M  V30 11705 H 1105.71 0.874699 -5.01225 0
M  V30 11706 H 1105.11 3.91675 -4.08175 0
M  V30 11707 H 1103.66 4.22772 -4.96092 0
M  V30 11708 N 1107.1 1.56929 -0.145233 0
M  V30 11709 C 1108.03 2.19685 0.791263 0
M  V30 11710 C 1109.01 1.14455 1.25833 0
M  V30 11711 O 1110.19 1.42791 1.31622 0
M  V30 11712 C 1107.32 2.81705 2.03124 0
M  V30 11713 C 1106.28 3.92746 1.70101 0
M  V30 11714 C 1105.6 4.41694 3.01347 0
M  V30 11715 C 1106.9 5.13606 0.949025 0
M  V30 11716 H 1108.6 2.98196 0.26825 0
M  V30 11717 H 1106.14 1.43434 0.127584 0
M  V30 11718 H 1108.1 3.24273 2.69119 0
M  V30 11719 H 1106.82 2.00523 2.57795 0
M  V30 11720 H 1105.48 3.50794 1.06486 0
M  V30 11721 H 1105.13 3.57336 3.54006 0
M  V30 11722 H 1104.83 5.1659 2.80016 0
M  V30 11723 H 1106.35 4.86931 3.68416 0
M  V30 11724 H 1107.76 5.53029 1.51102 0
M  V30 11725 H 1106.16 5.94252 0.835711 0
M  V30 11726 H 1107.23 4.84863 -0.0595631 0
M  V30 11727 N 1108.58 -0.128553 1.57075 0
M  V30 11728 C 1109.82 -0.839252 1.8462 0
M  V30 11729 C 1110.15 -1.79974 0.729582 0
M  V30 11730 O 1109.43 -1.92681 -0.265369 0
M  V30 11731 C 1109.71 -1.59756 3.22723 0
M  V30 11732 C 1109.57 -0.657313 4.44971 0
M  V30 11733 C 1110.88 -2.55592 3.58275 0
M  V30 11734 H 1108 -0.303652 0.671539 0
M  V30 11735 H 1110.65 -0.103802 1.89716 0
M  V30 11736 H 1108.8 -2.22451 3.18509 0
M  V30 11737 H 1110.47 -0.0399471 4.61283 0
M  V30 11738 H 1108.71 0.0318416 4.33788 0
M  V30 11739 H 1109.38 -1.22433 5.38251 0
M  V30 11740 H 1111.86 -2.03007 3.63218 0
M  V30 11741 H 1110.73 -3.05687 4.55902 0
M  V30 11742 H 1110.99 -3.37813 2.85193 0
M  V30 11743 N 1110.05 -1.5248 -0.398459 0
M  V30 11744 C 1110.96 -1.79492 -1.51062 0
M  V30 11745 C 1111.98 -0.681101 -1.60116 0
M  V30 11746 O 1113.16 -0.967671 -1.7663 0
M  V30 11747 C 1110.22 -1.94958 -2.86692 0
M  V30 11748 C 1109.28 -3.1887 -2.87438 0
M  V30 11749 C 1108.51 -3.33588 -4.16599 0
M  V30 11750 O 1108.74 -2.53327 -5.11059 0
M  V30 11751 O 1107.67 -4.26795 -4.24416 0
M  V30 11752 H 1111.5 -2.73913 -1.31169 0
M  V30 11753 H 1109.08 -1.37455 -0.585372 0
M  V30 11754 H 1110.96 -2.06891 -3.67116 0
M  V30 11755 H 1109.64 -1.03726 -3.06631 0
M  V30 11756 H 1108.55 -3.12386 -2.0583 0
M  V30 11757 H 1109.88 -4.09917 -2.7245 0
M  V30 11758 N 1111.53 0.65634 -1.43283 0
M  V30 11759 C 1112.81 1.41339 -1.35213 0
M  V30 11760 C 1113.19 2.111 0.00158494 0
M  V30 11761 O 1112.54 2.0457 1.018 0
M  V30 11762 C 1112.75 2.40066 -2.53317 0
M  V30 11763 C 1114.09 3.04159 -2.96264 0
M  V30 11764 O 1115.12 2.50393 -2.53341 0
M  V30 11765 O 1113.98 4.01633 -3.70612 0
M  V30 11766 H 1111.07 0.631325 -0.534189 0
M  V30 11767 H 1113.62 0.68351 -1.55326 0
M  V30 11768 H 1112.39 1.87444 -3.43483 0
M  V30 11769 H 1112.01 3.20509 -2.35287 0
M  V30 11770 N 1113.01 1.29761 0.894412 0
M  V30 11771 C 1113.94 1.17902 2.01547 0
M  V30 11772 C 1114.92 0.0719402 1.69948 0
M  V30 11773 O 1116.11 0.252338 1.92554 0
M  V30 11774 C 1113.24 0.860262 3.36477 0
M  V30 11775 C 1112.19 1.92424 3.82305 0
M  V30 11776 C 1111.52 1.45868 5.14419 0
M  V30 11777 C 1112.82 3.33391 4.02054 0
M  V30 11778 H 1114.51 2.11688 2.11727 0
M  V30 11779 H 1112.06 1.01916 1.01731 0
M  V30 11780 H 1114.01 0.763987 4.14417 0
M  V30 11781 H 1112.73 -0.113289 3.26403 0
M  V30 11782 H 1111.39 2.00999 3.06586 0
M  V30 11783 H 1111.04 0.473654 5.00765 0
M  V30 11784 H 1110.74 2.17028 5.46052 0
M  V30 11785 H 1112.26 1.37601 5.94894 0
M  V30 11786 H 1113.68 3.27628 4.7046 0
M  V30 11787 H 1112.07 4.02555 4.4505 0
M  V30 11788 H 1113.14 3.75978 3.06216 0
M  V30 11789 N 1114.49 -1.10549 1.12324 0
M  V30 11790 C 1115.76 -1.78968 0.789287 0
M  V30 11791 C 1116.14 -1.984 -0.721156 0
M  V30 11792 O 1115.49 -1.5761 -1.65443 0
M  V30 11793 C 1115.7 -3.12044 1.563 0
M  V30 11794 C 1117.05 -3.86939 1.74825 0
M  V30 11795 O 1118.07 -3.21761 1.52802 0
M  V30 11796 O 1116.93 -5.0392 2.11488 0
M  V30 11797 H 1114.03 -0.775617 0.286962 0
M  V30 11798 H 1116.57 -1.17209 1.2272 0
M  V30 11799 H 1115.35 -2.93313 2.59005 0
M  V30 11800 H 1114.97 -3.81521 1.11926 0
M  V30 11801 N 1115.97 -0.914965 -1.28321 0
M  V30 11802 C 1117.38 -0.613297 -1.47346 0
M  V30 11803 C 1117.58 0.84106 -1.83108 0
M  V30 11804 O 1116.64 1.62004 -1.93678 0
M  V30 11805 C 1117.95 -1.55224 -2.57538 0
M  V30 11806 C 1119.5 -1.55909 -2.71407 0
M  V30 11807 C 1119.97 -2.48468 -3.84744 0
M  V30 11808 N 1121.46 -2.46602 -3.92099 0
M  V30 11809 C 1122.2 -3.14917 -4.79182 0
M  V30 11810 N 1121.7 -3.92566 -5.70845 0
M  V30 11811 N 1123.49 -3.03998 -4.72802 0
M  V30 11812 H 1115.64 -1.85539 -1.03388 0
M  V30 11813 H 1117.9 -0.795875 -0.515061 0
M  V30 11814 H 1117.61 -2.58917 -2.38023 0
M  V30 11815 H 1117.48 -1.28426 -3.54664 0
M  V30 11816 H 1119.87 -0.52953 -2.9031 0
M  V30 11817 H 1119.95 -1.86751 -1.74808 0
M  V30 11818 H 1119.59 -3.51526 -3.66595 0
M  V30 11819 H 1119.52 -2.14928 -4.80743 0
M  V30 11820 H 1122.02 -1.90199 -3.26547 0
M  V30 11821 H 1122.33 -4.41709 -6.34123 0
M  V30 11822 H 1120.67 -3.96671 -5.70681 0
M  V30 11823 H 1123.86 -2.42839 -4.00184 0
M  V30 11824 H 1124.04 -3.57511 -5.40454 0
M  V30 11825 N 1117.44 1.42219 -0.679077 0
M  V30 11826 C 1118.69 2.00703 -0.200309 0
M  V30 11827 C 1119.01 1.54339 1.20161 0
M  V30 11828 O 1120.21 2.0527 1.77698 0
M  V30 11829 C 1118.67 3.58586 -0.307248 0
M  V30 11830 C 1118.28 4.13937 -1.71349 0
M  V30 11831 C 1120.02 4.24351 0.112588 0
M  V30 11832 C 1117.93 5.64198 -1.77297 0
M  V30 11833 H 1116.86 0.750638 -0.0711279 0
M  V30 11834 H 1119.51 1.62893 -0.844881 0
M  V30 11835 H 1117.89 3.93921 0.40529 0
M  V30 11836 H 1119.06 3.90054 -2.45346 0
M  V30 11837 H 1117.38 3.60639 -2.08155 0
M  V30 11838 H 1119.98 5.34627 0.0883578 0
M  V30 11839 H 1120.32 4.00142 1.14857 0
M  V30 11840 H 1120.85 3.93992 -0.549093 0
M  V30 11841 H 1117.59 5.93211 -2.78892 0
M  V30 11842 H 1117.11 5.90058 -1.07662 0
M  V30 11843 H 1118.79 6.2869 -1.52835 0
M  V30 11844 N 1118.92 0.422693 1.51826 0
M  V30 11845 C 1120.17 -0.148861 2.02253 0
M  V30 11846 C 1120.5 -1.43629 1.30707 0
M  V30 11847 O 1119.78 -1.89967 0.417482 0
M  V30 11848 C 1120.06 -0.382672 3.58061 0
M  V30 11849 C 1119.91 0.922386 4.40241 0
M  V30 11850 C 1121.23 -1.1589 4.24567 0
M  V30 11851 H 1118.35 -0.0526279 0.735119 0
M  V30 11852 H 1120.99 0.558821 1.81596 0
M  V30 11853 H 1119.14 -0.985495 3.75793 0
M  V30 11854 H 1120.81 1.55806 4.34191 0
M  V30 11855 H 1119.06 1.53032 4.05911 0
M  V30 11856 H 1119.73 0.713012 5.47376 0
M  V30 11857 H 1122.2 -0.648415 4.11017 0
M  V30 11858 H 1121.08 -1.29125 5.33496 0
M  V30 11859 H 1121.34 -2.18315 3.84436 0
M  V30 11860 N 1120.4 -1.5685 0.153553 0
M  V30 11861 C 1121.36 -2.15894 -0.769564 0
M  V30 11862 C 1122.36 -1.10239 -1.17064 0
M  V30 11863 O 1123.55 -1.35845 -1.09049 0
M  V30 11864 C 1120.68 -2.72738 -2.04516 0
M  V30 11865 H 1121.88 -2.98807 -0.255842 0
M  V30 11866 H 1119.43 -1.56005 -0.0959279 0
M  V30 11867 H 1120.17 -1.9351 -2.60239 0
M  V30 11868 H 1119.95 -3.50042 -1.76672 0
M  V30 11869 H 1121.44 -3.18208 -2.70432 0
M  V30 11870 N 1121.88 0.120221 -1.57141 0
M  V30 11871 C 1122.81 1.14876 -2.03287 0
M  V30 11872 C 1123.79 1.43259 -0.917112 0
M  V30 11873 O 1124.97 1.53721 -1.18674 0
M  V30 11874 C 1122.1 2.47525 -2.43616 0
M  V30 11875 C 1121.06 2.33607 -3.58625 0
M  V30 11876 C 1120.38 3.71207 -3.84849 0
M  V30 11877 C 1121.68 1.79761 -4.90391 0
M  V30 11878 H 1123.38 0.764943 -2.89463 0
M  V30 11879 H 1120.92 0.366516 -1.39258 0
M  V30 11880 H 1122.88 3.19728 -2.74504 0
M  V30 11881 H 1121.6 2.87794 -1.54409 0
M  V30 11882 H 1120.26 1.63853 -3.27945 0
M  V30 11883 H 1119.91 4.0896 -2.9285 0
M  V30 11884 H 1119.61 3.62749 -4.62263 0
M  V30 11885 H 1121.13 4.44917 -4.18188 0
M  V30 11886 H 1122.55 2.4178 -5.19822 0
M  V30 11887 H 1120.94 1.82126 -5.71795 0
M  V30 11888 H 1122.01 0.755087 -4.78985 0
M  V30 11889 N 1123.36 1.52689 0.390367 0
M  V30 11890 C 1124.58 1.71541 1.15678 0
M  V30 11891 C 1125 0.433171 1.83764 0
M  V30 11892 O 1124.36 -0.592248 1.72623 0
M  V30 11893 C 1124.41 2.864 2.20584 0
M  V30 11894 O 1124.13 4.0966 1.55274 0
M  V30 11895 C 1125.63 3.1692 3.09962 0
M  V30 11896 H 1122.85 0.574381 0.346883 0
M  V30 11897 H 1125.39 1.99332 0.456851 0
M  V30 11898 H 1123.55 2.61075 2.86214 0
M  V30 11899 H 1123.96 4.73802 2.2497 0
M  V30 11900 H 1125.44 4.00755 3.79604 0
M  V30 11901 H 1125.91 2.31245 3.73393 0
M  V30 11902 H 1126.52 3.4408 2.49979 0
M  V30 11903 N 1124.83 -0.648732 1.43629 0
M  V30 11904 C 1126.06 -1.44117 1.49148 0
M  V30 11905 C 1126.48 -1.87767 0.111952 0
M  V30 11906 O 1125.84 -1.57655 -0.895249 0
M  V30 11907 C 1125.89 -2.64938 2.44623 0
M  V30 11908 O 1124.99 -3.64155 1.93559 0
M  V30 11909 H 1124.34 -0.431933 0.504312 0
M  V30 11910 H 1126.87 -0.793439 1.88589 0
M  V30 11911 H 1126.88 -3.12698 2.62076 0
M  V30 11912 H 1125.55 -2.3251 3.44836 0
M  V30 11913 H 1124.13 -3.23322 1.85789 0
M  V30 11914 N 1126.31 -1.30234 -0.887518 0
M  V30 11915 C 1127.26 -1.16302 -2.01436 0
M  V30 11916 C 1128.25 -0.0755422 -1.69231 0
M  V30 11917 O 1129.46 -0.236213 -1.78443 0
M  V30 11918 H 1125.84 -0.35961 -0.660443 0
M  V30 11919 H 1127.81 -2.11677 -2.10322 0
M  V30 11920 C 1126.56 -0.869009 -3.36665 0
M  V30 11921 H 1125.88 -1.69787 -3.61956 0
M  V30 11922 H 1127.32 -0.811621 -4.16159 0
M  V30 11923 C 1125.78 0.428021 -3.3417 0
M  V30 11924 O 1126.31 1.45033 -3.74604 0
M  V30 11925 N 1124.51 0.438264 -2.87276 0
M  V30 11926 H 1124.06 -0.394142 -2.54567 0
M  V30 11927 H 1124.02 1.30604 -2.85989 0
M  V30 11928 N 1127.79 1.09952 -1.12909 0
M  V30 11929 C 1128.72 2.16257 -0.759305 0
M  V30 11930 C 1129.74 1.61355 0.216427 0
M  V30 11931 O 1130.92 1.785 -0.00297224 0
M  V30 11932 C 1128.02 3.38741 -0.103908 0
M  V30 11933 C 1127.2 4.23072 -1.11037 0
M  V30 11934 C 1126.26 5.23991 -0.481667 0
M  V30 11935 O 1125.28 5.57665 -1.14011 0
M  V30 11936 N 1126.48 5.75652 0.748698 0
M  V30 11937 H 1129.25 2.48588 -1.67405 0
M  V30 11938 H 1126.81 1.25617 -1.02137 0
M  V30 11939 H 1128.8 4.03362 0.328799 0
M  V30 11940 H 1127.37 3.04344 0.713677 0
M  V30 11941 H 1126.59 3.5467 -1.72054 0
M  V30 11942 H 1127.88 4.76244 -1.79078 0
M  V30 11943 H 1127.28 5.505 1.30253 0
M  V30 11944 H 1125.84 6.42033 1.12415 0
M  V30 11945 N 1129.27 0.921757 1.27833 0
M  V30 11946 C 1130.18 0.421668 2.30779 0
M  V30 11947 C 1131.19 -0.494686 1.6682 0
M  V30 11948 O 1132.37 -0.378935 1.97803 0
M  V30 11949 C 1129.44 -0.322928 3.45193 0
M  V30 11950 C 1128.5 0.627618 4.24687 0
M  V30 11951 C 1127.73 -0.0815385 5.33638 0
M  V30 11952 O 1127.95 -1.30193 5.55343 0
M  V30 11953 O 1126.89 0.58725 5.99028 0
M  V30 11954 H 1130.71 1.2763 2.7558 0
M  V30 11955 H 1128.3 0.686877 1.32674 0
M  V30 11956 H 1130.18 -0.743145 4.14796 0
M  V30 11957 H 1128.85 -1.15326 3.02459 0
M  V30 11958 H 1127.76 1.09739 3.57642 0
M  V30 11959 H 1129.09 1.425 4.71121 0
M  V30 11960 N 1130.75 -1.41857 0.686609 0
M  V30 11961 C 1131.98 -2.05401 0.222238 0
M  V30 11962 C 1132.38 -1.51731 -1.13023 0
M  V30 11963 O 1131.73 -0.656701 -1.71561 0
M  V30 11964 C 1131.79 -3.59381 0.0926608 0
M  V30 11965 C 1131.45 -4.35801 1.37573 0
M  V30 11966 C 1132.45 -4.65678 2.31171 0
M  V30 11967 C 1130.14 -4.75233 1.62661 0
M  V30 11968 C 1132.13 -5.33936 3.48125 0
M  V30 11969 C 1129.82 -5.43229 2.79902 0
M  V30 11970 C 1130.81 -5.72507 3.72458 0
M  V30 11971 O 1130.5 -6.39106 4.87646 0
M  V30 11972 H 1130.23 -0.668126 0.102876 0
M  V30 11973 H 1132.79 -1.82775 0.93714 0
M  V30 11974 H 1131.02 -3.80711 -0.67793 0
M  V30 11975 H 1132.71 -4.04529 -0.333364 0
M  V30 11976 H 1133.47 -4.35704 2.13042 0
M  V30 11977 H 1129.35 -4.51831 0.914862 0
M  V30 11978 H 1132.9 -5.56706 4.20386 0
M  V30 11979 H 1128.79 -5.72621 2.97951 0
M  V30 11980 H 1129.56 -6.576 4.87344 0
M  V30 11981 N 1132.22 -0.430739 -1.51599 0
M  V30 11982 C 1133.15 0.374695 -2.30474 0
M  V30 11983 C 1134.14 1.02694 -1.35602 0
M  V30 11984 O 1135.32 1.03184 -1.6452 0
M  V30 11985 C 1132.45 1.47981 -3.14196 0
M  V30 11986 C 1131.4 0.951415 -4.17291 0
M  V30 11987 C 1130.73 2.15177 -4.89492 0
M  V30 11988 C 1132.03 -0.00957951 -5.22299 0
M  V30 11989 H 1133.72 -0.283508 -2.98055 0
M  V30 11990 H 1131.27 -0.13779 -1.43339 0
M  V30 11991 H 1133.22 2.05043 -3.68151 0
M  V30 11992 H 1131.95 2.16621 -2.44424 0
M  V30 11993 H 1130.61 0.403052 -3.64378 0
M  V30 11994 H 1130.25 2.82421 -4.1623 0
M  V30 11995 H 1129.95 1.80464 -5.59202 0
M  V30 11996 H 1131.48 2.72806 -5.46269 0
M  V30 11997 H 1132.89 0.470527 -5.71366 0
M  V30 11998 H 1131.29 -0.268959 -5.99497 0
M  V30 11999 H 1132.36 -0.948297 -4.75537 0
M  V30 12000 N 1133.7 1.56767 -0.161869 0
M  V30 12001 C 1134.98 1.88245 0.531352 0
M  V30 12002 C 1135.36 1.07025 1.81958 0
M  V30 12003 O 1134.71 0.161385 2.27929 0
M  V30 12004 C 1134.92 3.40117 0.782416 0
M  V30 12005 C 1136.27 4.09655 1.11661 0
M  V30 12006 O 1137.29 3.4538 0.871274 0
M  V30 12007 O 1136.15 5.23192 1.57901 0
M  V30 12008 H 1133.24 0.780725 0.272759 0
M  V30 12009 H 1135.79 1.68522 -0.199597 0
M  V30 12010 H 1134.56 3.91088 -0.128677 0
M  V30 12011 H 1134.18 3.65418 1.56702 0
M  V30 12012 N 1135.18 -0.111886 1.57202 0
M  V30 12013 C 1136.11 -1.13796 2.03894 0
M  V30 12014 C 1137.09 -1.4277 0.924696 0
M  V30 12015 O 1138.28 -1.53089 1.19488 0
M  V30 12016 C 1135.41 -2.46229 2.44925 0
M  V30 12017 C 1134.36 -2.31702 3.59859 0
M  V30 12018 C 1133.69 -3.69161 3.86813 0
M  V30 12019 C 1134.99 -1.77158 4.91337 0
M  V30 12020 H 1136.68 -0.749581 2.89865 0
M  V30 12021 H 1134.23 -0.359126 1.3945 0
M  V30 12022 H 1136.18 -3.18267 2.76195 0
M  V30 12023 H 1134.9 -2.86971 1.55933 0
M  V30 12024 H 1133.56 -1.62112 3.28809 0
M  V30 12025 H 1133.21 -4.07401 2.95015 0
M  V30 12026 H 1132.91 -3.60292 4.6418 0
M  V30 12027 H 1134.43 -4.42693 4.20542 0
M  V30 12028 H 1135.85 -2.3902 5.21097 0
M  V30 12029 H 1134.25 -1.79091 5.72753 0
M  V30 12030 H 1135.32 -0.729675 4.79379 0
M  V30 12031 N 1136.66 -1.52894 -0.382264 0
M  V30 12032 C 1137.88 -1.72453 -1.15216 0
M  V30 12033 C 1138.31 -0.444925 -1.82762 0
M  V30 12034 O 1137.67 0.599825 -1.7109 0
M  V30 12035 C 1137.71 -2.87939 -2.17079 0
M  V30 12036 O 1136.82 -2.55383 -3.23811 0
M  V30 12037 H 1136.16 -0.57324 -0.335099 0
M  V30 12038 H 1138.69 -1.99713 -0.444495 0
M  V30 12039 H 1138.7 -3.13628 -2.60963 0
M  V30 12040 H 1137.37 -3.80765 -1.67305 0
M  V30 12041 H 1135.95 -2.40457 -2.85018 0
M  V30 12042 N 1138.14 0.641106 -1.43971 0
M  V30 12043 C 1139.07 1.76599 -1.44527 0
M  V30 12044 C 1140.05 1.59709 -0.305257 0
M  V30 12045 O 1141.23 1.81728 -0.50071 0
M  V30 12046 C 1138.36 3.14052 -1.26843 0
M  V30 12047 C 1137.41 3.49615 -2.44278 0
M  V30 12048 S 1138.24 3.4822 -4.06821 0
M  V30 12049 C 1139.39 4.8831 -3.91541 0
M  V30 12050 H 1139.63 1.75858 -2.3971 0
M  V30 12051 H 1137.16 0.814834 -1.31148 0
M  V30 12052 H 1139.12 3.93376 -1.17327 0
M  V30 12053 H 1137.78 3.12342 -0.331872 0
M  V30 12054 H 1136.97 4.49611 -2.2774 0
M  V30 12055 H 1136.57 2.77732 -2.50482 0
M  V30 12056 H 1138.87 5.77282 -3.54615 0
M  V30 12057 H 1139.81 5.099 -4.91333 0
M  V30 12058 H 1140.22 4.62414 -3.2378 0
M  V30 12059 N 1139.62 1.30703 0.880598 0
M  V30 12060 C 1141.03 1.17818 1.4483 0
M  V30 12061 C 1141.38 -0.219456 1.94969 0
M  V30 12062 O 1140.5 -1.11646 1.85375 0
M  V30 12063 C 1141.1 2.13275 2.63247 0
M  V30 12064 C 1139.66 2.04356 3.16094 0
M  V30 12065 C 1138.8 2.03108 1.88792 0
M  V30 12066 H 1141.75 1.42909 0.690125 0
M  V30 12067 H 1141.78 1.71615 3.39601 0
M  V30 12068 H 1141.29 3.14988 2.26725 0
M  V30 12069 H 1139.39 1.058 3.57263 0
M  V30 12070 H 1139.5 2.92953 3.79098 0
M  V30 12071 H 1137.87 1.47971 2.07308 0
M  V30 12072 H 1138.65 3.06558 1.54521 0
M  V30 12073 N 1141.09 -1.09351 1.1349 0
M  V30 12074 C 1142.02 -2.18037 0.835588 0
M  V30 12075 C 1143 -1.68856 -0.205373 0
M  V30 12076 O 1144.19 -1.94094 -0.0641357 0
M  V30 12077 C 1141.32 -3.45987 0.301661 0
M  V30 12078 C 1140.27 -4.08507 1.27696 0
M  V30 12079 C 1139.6 -5.31292 0.602758 0
M  V30 12080 C 1140.9 -4.50916 2.63575 0
M  V30 12081 H 1142.59 -2.43332 1.74441 0
M  V30 12082 H 1140.14 -1.1695 0.840166 0
M  V30 12083 H 1142.09 -4.21324 0.079928 0
M  V30 12084 H 1140.82 -3.20217 -0.642552 0
M  V30 12085 H 1139.48 -3.3519 1.4847 0
M  V30 12086 H 1139.12 -5.01802 -0.346953 0
M  V30 12087 H 1138.82 -5.74075 1.25345 0
M  V30 12088 H 1140.35 -6.09351 0.390325 0
M  V30 12089 H 1141.76 -5.17474 2.46765 0
M  V30 12090 H 1140.16 -5.04586 3.24827 0
M  V30 12091 H 1141.23 -3.63279 3.2118 0
M  V30 12092 N 1142.57 -0.928524 -1.27343 0
M  V30 12093 C 1143.85 -0.487758 -1.89421 0
M  V30 12094 C 1144.23 1.03418 -1.84032 0
M  V30 12095 O 1143.58 1.8887 -1.2861 0
M  V30 12096 C 1143.79 -1.03478 -3.33307 0
M  V30 12097 C 1145.13 -1.09577 -4.10217 0
M  V30 12098 O 1146.16 -0.984463 -3.42326 0
M  V30 12099 O 1145.02 -1.2673 -5.31603 0
M  V30 12100 H 1142.11 -0.157018 -0.811957 0
M  V30 12101 H 1144.66 -1.02027 -1.35605 0
M  V30 12102 H 1143.43 -2.07861 -3.31526 0
M  V30 12103 H 1143.05 -0.483967 -3.94644 0
M  V30 12104 N 1144.05 1.41491 -0.694123 0
M  V30 12105 C 1144.98 2.29197 0.0112742 0
M  V30 12106 C 1145.99 1.44708 0.745877 0
M  V30 12107 O 1147.18 1.68227 0.596821 0
M  V30 12108 C 1144.28 3.22547 1.04004 0
M  V30 12109 C 1143.46 4.35787 0.375347 0
M  V30 12110 C 1142.52 5.09722 1.30652 0
M  V30 12111 O 1141.54 5.63558 0.799459 0
M  V30 12112 N 1142.74 5.1705 2.63893 0
M  V30 12113 H 1145.51 2.90377 -0.741705 0
M  V30 12114 H 1143.07 1.52628 -0.540039 0
M  V30 12115 H 1145.06 3.68878 1.66468 0
M  V30 12116 H 1143.63 2.62685 1.69456 0
M  V30 12117 H 1142.85 3.91857 -0.429145 0
M  V30 12118 H 1144.14 5.08726 -0.0869041 0
M  V30 12119 H 1143.54 4.74756 3.07609 0
M  V30 12120 H 1142.09 5.66962 3.21555 0
M  V30 12121 N 1145.53 0.438773 1.51369 0
M  V30 12122 C 1146.76 -0.125665 2.06217 0
M  V30 12123 C 1147.17 -1.36887 1.30609 0
M  V30 12124 O 1146.51 -1.80149 0.359433 0
M  V30 12125 C 1146.57 -0.511846 3.55838 0
M  V30 12126 C 1146.23 0.624755 4.52709 0
M  V30 12127 C 1147.23 1.49731 4.97872 0
M  V30 12128 C 1144.92 0.805895 4.95793 0
M  V30 12129 C 1146.91 2.53569 5.84792 0
M  V30 12130 C 1144.6 1.84755 5.82502 0
M  V30 12131 C 1145.6 2.71083 6.269 0
M  V30 12132 O 1145.28 3.7346 7.11887 0
M  V30 12133 H 1145.02 -0.0107227 0.675915 0
M  V30 12134 H 1147.57 0.617071 1.95912 0
M  V30 12135 H 1145.8 -1.30731 3.63932 0
M  V30 12136 H 1147.49 -1.0076 3.93195 0
M  V30 12137 H 1148.25 1.36891 4.65281 0
M  V30 12138 H 1144.13 0.14352 4.60777 0
M  V30 12139 H 1147.68 3.20984 6.19367 0
M  V30 12140 H 1143.57 1.97614 6.14507 0
M  V30 12141 H 1144.34 3.70058 7.30068 0
M  V30 12142 N 1147.01 -1.56678 0.170181 0
M  V30 12143 C 1148.23 -2.0166 -0.484543 0
M  V30 12144 C 1148.66 -1.04962 -1.56091 0
M  V30 12145 O 1148.01 -0.0289887 -1.81277 0
M  V30 12146 C 1148.06 -3.45252 -1.04084 0
M  V30 12147 O 1147.17 -3.51623 -2.15488 0
M  V30 12148 H 1146.51 -0.653765 -0.116135 0
M  V30 12149 H 1149.04 -2.02761 0.273737 0
M  V30 12150 H 1149.05 -3.84534 -1.36373 0
M  V30 12151 H 1147.72 -4.15131 -0.252738 0
M  V30 12152 H 1146.3 -3.242 -1.84252 0
M  V30 12153 N 1148.48 0.103547 -1.57259 0
M  V30 12154 C 1149.89 0.659006 -1.74683 0
M  V30 12155 C 1150.25 1.79542 -0.791142 0
M  V30 12156 O 1149.37 2.16376 0.0323585 0
M  V30 12157 C 1149.97 1.20222 -3.16752 0
M  V30 12158 C 1148.52 1.70382 -3.35629 0
M  V30 12159 C 1147.67 0.609886 -2.7051 0
M  V30 12160 H 1150.62 -0.122474 -1.58227 0
M  V30 12161 H 1150.64 2.07169 -3.19157 0
M  V30 12162 H 1150.16 0.374901 -3.86285 0
M  V30 12163 H 1148.26 2.55542 -2.71162 0
M  V30 12164 H 1148.37 1.80263 -4.43894 0
M  V30 12165 H 1146.73 1.04728 -2.32173 0
M  V30 12166 H 1147.52 -0.206713 -3.42677 0
M  V30 12167 N 1149.96 1.53094 0.37415 0
M  V30 12168 C 1151.19 1.73061 1.143 0
M  V30 12169 C 1151.61 0.454611 1.82524 0
M  V30 12170 O 1150.97 -0.590743 1.71406 0
M  V30 12171 C 1151.02 2.89086 2.15549 0
M  V30 12172 O 1150.12 2.57096 3.22452 0
M  V30 12173 H 1149.46 0.575009 0.332055 0
M  V30 12174 H 1151.99 1.99946 0.433897 0
M  V30 12175 H 1152 3.15007 2.59296 0
M  V30 12176 H 1150.68 3.81647 1.65283 0
M  V30 12177 H 1149.25 2.41965 2.83738 0
M  V30 12178 N 1151.44 -0.633461 1.44309 0
M  V30 12179 C 1152.69 -1.39306 1.46969 0
M  V30 12180 C 1153.01 -1.94235 0.101403 0
M  V30 12181 O 1152.27 -1.73959 -0.896475 0
M  V30 12182 C 1152.57 -2.57783 2.47554 0
M  V30 12183 C 1152.23 -2.21156 3.92939 0
M  V30 12184 C 1150.9 -2.1088 4.32531 0
M  V30 12185 C 1153.25 -1.9218 4.84475 0
M  V30 12186 C 1150.58 -1.69812 5.61588 0
M  V30 12187 C 1152.93 -1.52605 6.13917 0
M  V30 12188 C 1151.59 -1.40868 6.52466 0
M  V30 12189 H 1150.86 -0.509758 0.537799 0
M  V30 12190 H 1153.51 -0.718552 1.77508 0
M  V30 12191 H 1151.81 -3.30456 2.1049 0
M  V30 12192 H 1153.51 -3.16009 2.46859 0
M  V30 12193 H 1150.1 -2.30072 3.61614 0
M  V30 12194 H 1154.29 -1.9903 4.54644 0
M  V30 12195 H 1149.54 -1.59327 5.90275 0
M  V30 12196 H 1153.72 -1.29221 6.84306 0
M  V30 12197 H 1151.34 -1.08818 7.52371 0
M  V30 12198 N 1152.92 -1.31168 -0.873655 0
M  V30 12199 C 1154.33 -1.18584 -1.44203 0
M  V30 12200 C 1154.68 0.209114 -1.95082 0
M  V30 12201 O 1153.81 1.10662 -1.85965 0
M  V30 12202 C 1154.4 -2.14668 -2.62112 0
M  V30 12203 C 1152.96 -2.06029 -3.15006 0
M  V30 12204 C 1152.11 -2.04106 -1.87712 0
M  V30 12205 H 1155.06 -1.43273 -0.682536 0
M  V30 12206 H 1155.08 -1.73413 -3.38686 0
M  V30 12207 H 1154.59 -3.16186 -2.25051 0
M  V30 12208 H 1152.69 -1.07693 -3.56697 0
M  V30 12209 H 1152.8 -2.9496 -3.77539 0
M  V30 12210 H 1151.17 -1.49069 -2.0652 0
M  V30 12211 H 1151.95 -3.07373 -1.52894 0
M  V30 12212 N 1154.4 1.08748 -1.14068 0
M  V30 12213 C 1155.67 1.7769 -0.81766 0
M  V30 12214 C 1156.05 1.99522 0.689501 0
M  V30 12215 O 1155.4 1.60222 1.62914 0
M  V30 12216 C 1155.61 3.09517 -1.61245 0
M  V30 12217 C 1156.96 3.84108 -1.80958 0
M  V30 12218 O 1157.98 3.19289 -1.57902 0
M  V30 12219 O 1156.84 5.00491 -2.19479 0
M  V30 12220 H 1153.94 0.770953 -0.299265 0
M  V30 12221 H 1156.48 1.15242 -1.24569 0
M  V30 12222 H 1155.25 2.89155 -2.63638 0
M  V30 12223 H 1154.88 3.79692 -1.17982 0
M  V30 12224 N 1155.87 0.935264 1.26849 0
M  V30 12225 C 1157.1 0.596249 1.98122 0
M  V30 12226 C 1157.52 -0.827452 1.69702 0
M  V30 12227 O 1156.87 -1.55095 0.961864 0
M  V30 12228 C 1156.93 0.821773 3.52036 0
M  V30 12229 O 1156.65 2.18947 3.79465 0
M  V30 12230 C 1158.15 0.492498 4.40556 0
M  V30 12231 H 1155.37 0.225242 0.632066 0
M  V30 12232 H 1157.91 1.25435 1.61512 0
M  V30 12233 H 1156.07 0.210363 3.86828 0
M  V30 12234 H 1156.48 2.24509 4.74021 0
M  V30 12235 H 1157.95 0.700953 5.47531 0
M  V30 12236 H 1158.43 -0.57228 4.35456 0
M  V30 12237 H 1159.04 1.08238 4.11296 0
M  V30 12238 N 1157.35 -1.41121 0.701616 0
M  V30 12239 C 1158.77 -1.55162 0.373766 0
M  V30 12240 C 1158.97 -1.6759 -1.11875 0
M  V30 12241 O 1158.02 -1.65768 -1.90465 0
M  V30 12242 C 1159.34 -2.78758 1.12759 0
M  V30 12243 C 1160.89 -2.92561 1.11253 0
M  V30 12244 C 1161.36 -4.19052 1.84822 0
M  V30 12245 N 1162.85 -4.26023 1.81821 0
M  V30 12246 C 1163.59 -5.22771 2.3558 0
M  V30 12247 N 1163.08 -6.25512 2.97836 0
M  V30 12248 N 1164.88 -5.14752 2.25802 0
M  V30 12249 H 1157.03 -1.31299 1.66956 0
M  V30 12250 H 1159.29 -0.633894 0.704898 0
M  V30 12251 H 1159 -2.75804 2.18231 0
M  V30 12252 H 1158.87 -3.70456 0.710095 0
M  V30 12253 H 1161.26 -2.95026 0.0660506 0
M  V30 12254 H 1161.34 -2.0202 1.56913 0
M  V30 12255 H 1160.98 -4.17349 2.89452 0
M  V30 12256 H 1160.91 -5.08577 1.36592 0
M  V30 12257 H 1163.4 -3.52411 1.36438 0
M  V30 12258 H 1163.72 -6.95736 3.36409 0
M  V30 12259 H 1162.06 -6.25997 3.01916 0
M  V30 12260 H 1165.25 -4.33414 1.76833 0
M  V30 12261 H 1165.42 -5.89983 2.68001 0
M  V30 12262 N 1158.83 -0.446794 -1.51134 0
M  V30 12263 C 1160.06 0.117242 -2.07068 0
M  V30 12264 C 1160.48 1.34877 -1.3111 0
M  V30 12265 O 1159.84 1.77856 -0.35172 0
M  V30 12266 C 1159.89 0.408616 -3.58277 0
M  V30 12267 O 1158.99 1.49345 -3.84408 0
M  V30 12268 H 1158.33 -0.00228458 -0.663996 0
M  V30 12269 H 1160.86 -0.63085 -1.94632 0
M  V30 12270 H 1160.87 0.656298 -4.02687 0
M  V30 12271 H 1159.55 -0.491444 -4.12986 0
M  V30 12272 H 1158.12 1.23499 -3.51856 0
M  V30 12273 N 1160.31 1.56586 -0.178487 0
M  V30 12274 C 1161.53 2.01915 0.473841 0
M  V30 12275 C 1161.96 1.05789 1.55533 0
M  V30 12276 O 1161.32 0.0386018 1.81259 0
M  V30 12277 C 1161.36 3.45799 1.02251 0
M  V30 12278 O 1160.47 3.52761 2.1362 0
M  V30 12279 H 1159.81 0.654372 0.112666 0
M  V30 12280 H 1162.34 2.02613 -0.284486 0
M  V30 12281 H 1162.35 3.85252 1.34332 0
M  V30 12282 H 1161.02 4.1526 0.230719 0
M  V30 12283 H 1159.6 3.25172 1.8253 0
M  V30 12284 N 1161.79 -0.095206 1.57312 0
M  V30 12285 C 1163.01 -0.81227 1.90289 0
M  V30 12286 C 1163.43 -1.72287 0.772178 0
M  V30 12287 O 1162.79 -1.80698 -0.255841 0
M  V30 12288 C 1162.84 -1.62572 3.22882 0
M  V30 12289 O 1162.56 -0.75175 4.31602 0
M  V30 12290 C 1164.06 -2.44585 3.6972 0
M  V30 12291 H 1161.28 -0.232256 0.629522 0
M  V30 12292 H 1163.82 -0.0724733 2.04372 0
M  V30 12293 H 1161.98 -2.31803 3.10397 0
M  V30 12294 H 1162.39 -1.31514 5.07744 0
M  V30 12295 H 1163.87 -2.97155 4.65191 0
M  V30 12296 H 1164.34 -3.23044 2.97555 0
M  V30 12297 H 1164.95 -1.80554 3.85072 0
M  V30 12298 N 1163.26 -1.53291 -0.366026 0
M  V30 12299 C 1164.5 -1.71153 -1.11741 0
M  V30 12300 C 1164.87 -0.453416 -1.86569 0
M  V30 12301 O 1166.07 -0.508724 -2.63942 0
M  V30 12302 C 1164.34 -2.92657 -2.0515 0
M  V30 12303 S 1165.9 -3.31223 -2.87814 0
M  V30 12304 H 1162.72 -0.602251 -0.377909 0
M  V30 12305 H 1165.32 -1.91391 -0.398721 0
M  V30 12306 H 1164.02 -3.8242 -1.48939 0
M  V30 12307 H 1163.55 -2.7482 -2.81492 0
M  V30 12308 H 1165.57 -2.83201 -4.07445 0
M  V30 12309 N 1164.74 0.6258 -1.44643 0
M  V30 12310 C 1165.97 1.41726 -1.51422 0
M  V30 12311 C 1166.39 1.87565 -0.14181 0
M  V30 12312 O 1165.75 1.59059 0.870054 0
M  V30 12313 C 1165.8 2.61012 -2.48807 0
M  V30 12314 O 1164.9 3.61029 -1.99328 0
M  V30 12315 H 1164.24 0.423855 -0.511119 0
M  V30 12316 H 1166.77 0.763336 -1.89827 0
M  V30 12317 H 1166.78 3.08489 -2.67018 0
M  V30 12318 H 1165.46 2.26995 -3.48491 0
M  V30 12319 H 1164.04 3.20325 -1.90909 0
M  V30 12320 N 1166.22 1.31629 0.866686 0
M  V30 12321 C 1167.45 1.24609 1.65793 0
M  V30 12322 C 1167.87 -0.184944 1.87189 0
M  V30 12323 O 1167.23 -1.1322 1.41601 0
M  V30 12324 C 1167.28 1.9988 3.00134 0
M  V30 12325 O 1166.38 1.33838 3.90079 0
M  V30 12326 H 1165.72 0.430051 0.505917 0
M  V30 12327 H 1168.25 1.73752 1.08035 0
M  V30 12328 H 1168.26 2.09599 3.50046 0
M  V30 12329 H 1166.94 3.03947 2.83882 0
M  V30 12330 H 1165.51 1.3259 3.48532 0
M  V30 12331 N 1167.7 -1.08142 1.14644 0
M  V30 12332 C 1168.95 -1.80225 0.914517 0
M  V30 12333 C 1169.27 -1.86778 -0.560269 0
M  V30 12334 O 1168.54 -1.36284 -1.40724 0
M  V30 12335 H 1167.12 -0.667492 0.335356 0
M  V30 12336 H 1169.78 -1.30729 1.44554 0
M  V30 12337 H 1168.88 -2.82958 1.31685 0
M  V30 12338 N 1169.18 -0.941978 -1.26351 0
M  V30 12339 C 1170.09 -0.45833 -2.30079 0
M  V30 12340 C 1171.1 0.468084 -1.67586 0
M  V30 12341 O 1172.28 0.347418 -1.98381 0
M  V30 12342 C 1169.34 0.26797 -3.45663 0
M  V30 12343 C 1168.41 -0.695102 -4.23635 0
M  V30 12344 C 1167.64 -0.003369 -5.337 0
M  V30 12345 O 1167.86 1.21342 -5.57344 0
M  V30 12346 O 1166.8 -0.682476 -5.98018 0
M  V30 12347 H 1170.62 -1.31998 -2.73514 0
M  V30 12348 H 1168.21 -0.707897 -1.31564 0
M  V30 12349 H 1170.09 0.677061 -4.15925 0
M  V30 12350 H 1168.76 1.105 -3.04256 0
M  V30 12351 H 1167.67 -1.15415 -3.55851 0
M  V30 12352 H 1169 -1.49977 -4.68794 0
M  V30 12353 N 1170.66 1.40747 -0.709091 0
M  V30 12354 C 1171.93 1.94831 -0.173246 0
M  V30 12355 C 1172.31 1.64766 1.31967 0
M  V30 12356 O 1171.66 0.961853 2.07269 0
M  V30 12357 C 1171.87 3.45697 -0.479013 0
M  V30 12358 C 1173.22 4.22576 -0.414122 0
M  V30 12359 O 1174.24 3.53778 -0.414699 0
M  V30 12360 O 1173.1 5.45135 -0.385986 0
M  V30 12361 H 1170.2 0.826683 -0.0228947 0
M  V30 12362 H 1172.74 1.50391 -0.786178 0
M  V30 12363 H 1171.51 3.60914 -1.51185 0
M  V30 12364 H 1171.14 3.97261 0.164211 0
M  V30 12365 N 1172.13 0.454803 1.50895 0
M  V30 12366 C 1173.36 -0.106259 2.07128 0
M  V30 12367 C 1173.78 -1.3418 1.31823 0
M  V30 12368 O 1173.14 -1.77667 0.361147 0
M  V30 12369 C 1173.19 -0.389609 3.58489 0
M  V30 12370 O 1172.29 -1.47305 3.85195 0
M  V30 12371 H 1171.63 0.00580588 0.663975 0
M  V30 12372 H 1174.16 0.641163 1.94294 0
M  V30 12373 H 1174.17 -0.634934 4.03029 0
M  V30 12374 H 1172.85 0.513338 4.1272 0
M  V30 12375 H 1171.43 -1.21631 3.52506 0
M  V30 12376 N 1173.61 -1.56489 0.186789 0
M  V30 12377 C 1174.86 -1.97634 -0.454831 0
M  V30 12378 C 1175.19 -1.07334 -1.61843 0
M  V30 12379 O 1174.47 -0.123612 -1.94107 0
M  V30 12380 C 1174.75 -3.48071 -0.922962 0
M  V30 12381 C 1174.6 -4.49149 0.241877 0
M  V30 12382 C 1175.92 -4.01994 -1.79134 0
M  V30 12383 H 1173.04 -0.718555 -0.163854 0
M  V30 12384 H 1175.68 -1.87984 0.27604 0
M  V30 12385 H 1173.83 -3.56425 -1.54575 0
M  V30 12386 H 1175.5 -4.52841 0.87936 0
M  V30 12387 H 1173.75 -4.24468 0.894964 0
M  V30 12388 H 1174.42 -5.51851 -0.128051 0
M  V30 12389 H 1176.89 -3.96367 -1.26618 0
M  V30 12390 H 1175.77 -5.07641 -2.08787 0
M  V30 12391 H 1176.03 -3.46747 -2.74261 0
M  V30 12392 N 1175.09 0.086862 -1.5736 0
M  V30 12393 C 1176.34 0.78884 -1.86504 0
M  V30 12394 C 1176.66 1.78329 -0.77646 0
M  V30 12395 O 1175.92 1.94354 0.229122 0
M  V30 12396 C 1176.22 1.54537 -3.22263 0
M  V30 12397 C 1175.88 0.692284 -4.45554 0
M  V30 12398 C 1174.55 0.45714 -4.79024 0
M  V30 12399 C 1176.9 0.0997695 -5.21105 0
M  V30 12400 C 1174.23 -0.380247 -5.85466 0
M  V30 12401 C 1176.58 -0.724986 -6.28432 0
M  V30 12402 C 1175.24 -0.970144 -6.60412 0
M  V30 12403 H 1174.51 0.288657 -0.682465 0
M  V30 12404 H 1177.16 0.050059 -1.91435 0
M  V30 12405 H 1175.46 2.35594 -3.13053 0
M  V30 12406 H 1177.16 2.09305 -3.42042 0
M  V30 12407 H 1173.75 0.885675 -4.19349 0
M  V30 12408 H 1177.94 0.268583 -4.95573 0
M  V30 12409 H 1173.19 -0.579084 -6.08651 0
M  V30 12410 H 1177.37 -1.19093 -6.86141 0
M  V30 12411 H 1174.99 -1.6208 -7.42721 0
M  V30 12412 N 1176.57 1.53483 0.357892 0
M  V30 12413 C 1177.79 1.74264 1.12458 0
M  V30 12414 C 1178.22 0.473944 1.82031 0
M  V30 12415 O 1177.58 -0.57253 1.72023 0
M  V30 12416 C 1177.62 2.91356 2.12471 0
M  V30 12417 O 1176.73 2.60502 3.19707 0
M  V30 12418 H 1176.07 0.578499 0.325937 0
M  V30 12419 H 1178.6 2.00395 0.412666 0
M  V30 12420 H 1178.61 3.1774 2.5594 0
M  V30 12421 H 1177.28 3.83378 1.61226 0
M  V30 12422 H 1175.86 2.44961 2.81156 0
M  V30 12423 N 1178.05 -0.61812 1.44973 0
M  V30 12424 C 1179 -1.72346 1.49268 0
M  V30 12425 C 1179.98 -1.56889 0.357042 0
M  V30 12426 O 1181.17 -1.66404 0.603212 0
M  V30 12427 C 1178.3 -3.11073 1.4522 0
M  V30 12428 C 1177.39 -3.31953 2.63947 0
M  V30 12429 N 1177.78 -3.23141 3.89119 0
M  V30 12430 C 1176.08 -3.62791 2.59419 0
M  V30 12431 C 1176.78 -3.45066 4.683 0
M  V30 12432 N 1175.75 -3.68558 3.99582 0
M  V30 12433 H 1179.55 -1.6401 2.43881 0
M  V30 12434 H 1177.07 -0.821029 1.40117 0
M  V30 12435 H 1179.07 -3.90356 1.46381 0
M  V30 12436 H 1177.73 -3.20565 0.516555 0
M  V30 12437 H 1178.74 -3.01773 4.20896 0
M  V30 12438 H 1175.41 -3.79185 1.74713 0
M  V30 12439 H 1176.8 -3.43735 5.77318 0
M  V30 12440 N 1179.52 -1.32087 -0.859693 0
M  V30 12441 C 1180.43 -1.22587 -2.00024 0
M  V30 12442 C 1181.45 -0.140477 -1.73432 0
M  V30 12443 O 1182.63 -0.360213 -1.98153 0
M  V30 12444 C 1179.69 -0.944195 -3.33595 0
M  V30 12445 C 1178.75 -2.11752 -3.73443 0
M  V30 12446 C 1177.98 -1.84919 -5.0064 0
M  V30 12447 O 1178.21 -0.789299 -5.64913 0
M  V30 12448 O 1177.14 -2.70885 -5.37499 0
M  V30 12449 H 1180.97 -2.18457 -2.10974 0
M  V30 12450 H 1178.55 -1.11927 -0.989577 0
M  V30 12451 H 1180.43 -0.803389 -4.13671 0
M  V30 12452 H 1179.11 -0.0156083 -3.23696 0
M  V30 12453 H 1178.02 -2.31378 -2.93965 0
M  V30 12454 H 1179.35 -3.02872 -3.87981 0
M  V30 12455 N 1181 1.07532 -1.15215 0
M  V30 12456 C 1182.41 1.61567 -0.935568 0
M  V30 12457 C 1182.76 1.89085 0.523557 0
M  V30 12458 O 1181.89 1.65495 1.39429 0
M  V30 12459 C 1182.48 2.93531 -1.69189 0
M  V30 12460 C 1181.04 3.44316 -1.52063 0
M  V30 12461 C 1180.19 2.18404 -1.70866 0
M  V30 12462 H 1183.14 0.906431 -1.30267 0
M  V30 12463 H 1183.16 3.62377 -1.16031 0
M  V30 12464 H 1182.67 2.73471 -2.75381 0
M  V30 12465 H 1180.77 3.69462 -0.482567 0
M  V30 12466 H 1180.89 4.20478 -2.29642 0
M  V30 12467 H 1179.25 2.28012 -1.13502 0
M  V30 12468 H 1180.03 2.00841 -2.7842 0
M  V30 12469 N 1182.48 0.948665 1.2585 0
M  V30 12470 C 1183.41 0.482036 2.2847 0
M  V30 12471 C 1184.39 -0.468553 1.63519 0
M  V30 12472 O 1185.58 -0.368796 1.90666 0
M  V30 12473 C 1182.71 -0.246603 3.46423 0
M  V30 12474 C 1181.66 0.61815 4.23513 0
M  V30 12475 C 1180.99 -0.240884 5.34157 0
M  V30 12476 C 1182.29 1.89327 4.86778 0
M  V30 12477 H 1183.98 1.33973 2.67753 0
M  V30 12478 H 1181.53 0.645645 1.28715 0
M  V30 12479 H 1183.48 -0.584135 4.17332 0
M  V30 12480 H 1182.2 -1.13849 3.06114 0
M  V30 12481 H 1180.86 0.938682 3.54379 0
M  V30 12482 H 1180.51 -1.13235 4.90089 0
M  V30 12483 H 1180.21 0.334367 5.86648 0
M  V30 12484 H 1181.73 -0.573517 6.07901 0
M  V30 12485 H 1183.15 1.62252 5.49861 0
M  V30 12486 H 1181.55 2.41369 5.49419 0
M  V30 12487 H 1182.62 2.60006 4.09298 0
M  V30 12488 N 1183.96 -1.40369 0.716545 0
M  V30 12489 C 1185.37 -1.83783 0.328719 0
M  V30 12490 C 1185.72 -1.5991 -1.13681 0
M  V30 12491 O 1184.85 -1.08048 -1.87496 0
M  V30 12492 C 1185.44 -3.33626 0.589848 0
M  V30 12493 C 1184 -3.7553 0.25572 0
M  V30 12494 C 1183.15 -2.63571 0.861733 0
M  V30 12495 H 1186.1 -1.29623 0.915621 0
M  V30 12496 H 1186.12 -3.80225 -0.14459 0
M  V30 12497 H 1185.63 -3.5097 1.65655 0
M  V30 12498 H 1183.73 -3.63781 -0.805883 0
M  V30 12499 H 1183.84 -4.73577 0.725388 0
M  V30 12500 H 1182.21 -2.53047 0.289706 0
M  V30 12501 H 1182.99 -2.83727 1.93272 0
M  V30 12502 N 1185.44 -0.462799 -1.50652 0
M  V30 12503 C 1186.35 0.341191 -2.32106 0
M  V30 12504 C 1187.36 1.00384 -1.42123 0
M  V30 12505 O 1188.54 0.993635 -1.75182 0
M  V30 12506 C 1185.6 1.41356 -3.16575 0
M  V30 12507 C 1184.66 0.768375 -4.22368 0
M  V30 12508 C 1183.9 1.78964 -5.028 0
M  V30 12509 O 1184.12 3.01515 -4.84195 0
M  V30 12510 O 1183.05 1.36606 -5.86193 0
M  V30 12511 H 1186.88 -0.324482 -3.01962 0
M  V30 12512 H 1184.47 -0.224807 -1.47699 0
M  V30 12513 H 1186.35 2.0349 -3.69012 0
M  V30 12514 H 1185.02 2.06285 -2.49456 0
M  V30 12515 H 1183.93 0.108297 -3.73943 0
M  V30 12516 H 1185.26 0.162164 -4.91933 0
M  V30 12517 N 1186.91 1.56388 -0.195085 0
M  V30 12518 C 1187.82 2.22698 0.737743 0
M  V30 12519 C 1188.84 1.22605 1.23466 0
M  V30 12520 O 1190.02 1.55342 1.28183 0
M  V30 12521 C 1187.08 2.87333 1.94011 0
M  V30 12522 C 1186.14 4.02696 1.48776 0
M  V30 12523 C 1185.38 4.64239 2.63282 0
M  V30 12524 O 1185.6 4.24706 3.80763 0
M  V30 12525 O 1184.53 5.53705 2.35996 0
M  V30 12526 H 1188.36 3.03021 0.203013 0
M  V30 12527 H 1185.94 1.49361 0.0342044 0
M  V30 12528 H 1187.83 3.28226 2.64284 0
M  V30 12529 H 1186.5 2.0999 2.46345 0
M  V30 12530 H 1185.41 3.66426 0.753839 0
M  V30 12531 H 1186.74 4.81703 1.01109 0
M  V30 12532 N 1188.39 -0.0785156 1.57404 0
M  V30 12533 C 1189.8 -0.631132 1.75709 0
M  V30 12534 C 1190.15 -1.78261 0.819605 0
M  V30 12535 O 1189.28 -2.164 0.00206912 0
M  V30 12536 C 1189.87 -1.15168 3.18625 0
M  V30 12537 C 1188.43 -1.65021 3.38297 0
M  V30 12538 C 1187.58 -0.566773 2.71446 0
M  V30 12539 H 1190.53 0.147631 1.58012 0
M  V30 12540 H 1190.55 -2.02065 3.22413 0
M  V30 12541 H 1190.06 -0.313399 3.86833 0
M  V30 12542 H 1188.17 -2.51196 2.75194 0
M  V30 12543 H 1188.28 -1.73179 4.46706 0
M  V30 12544 H 1186.64 -1.01021 2.33809 0
M  V30 12545 H 1187.43 0.261204 3.42305 0
M  V30 12546 N 1189.87 -1.5367 -0.349747 0
M  V30 12547 C 1191.11 -1.72329 -1.09919 0
M  V30 12548 C 1191.47 -0.473178 -1.86078 0
M  V30 12549 O 1192.68 -0.53669 -2.63388 0
M  V30 12550 C 1190.95 -2.94817 -2.02034 0
M  V30 12551 S 1192.51 -3.34257 -2.84285 0
M  V30 12552 H 1189.32 -0.606225 -0.3715 0
M  V30 12553 H 1191.93 -1.91803 -0.378399 0
M  V30 12554 H 1190.63 -3.83979 -1.44874 0
M  V30 12555 H 1190.16 -2.7779 -2.78561 0
M  V30 12556 H 1192.18 -2.87506 -4.04419 0
M  V30 12557 N 1191.35 0.610423 -1.45298 0
M  V30 12558 C 1192.28 1.73207 -1.56594 0
M  V30 12559 C 1193.26 1.64893 -0.417651 0
M  V30 12560 O 1194.44 1.83336 -0.64043 0
M  V30 12561 C 1191.57 3.11803 -1.52959 0
M  V30 12562 C 1190.53 3.34925 -2.66475 0
M  V30 12563 C 1189.85 4.73764 -2.47894 0
M  V30 12564 C 1191.15 3.25456 -4.08504 0
M  V30 12565 H 1192.85 1.6401 -2.50482 0
M  V30 12566 H 1190.39 0.787621 -1.20551 0
M  V30 12567 H 1192.35 3.90065 -1.59458 0
M  V30 12568 H 1191.07 3.21833 -0.55599 0
M  V30 12569 H 1189.73 2.59051 -2.59399 0
M  V30 12570 H 1189.38 4.80524 -1.4868 0
M  V30 12571 H 1189.08 4.90191 -3.24016 0
M  V30 12572 H 1190.6 5.54231 -2.56243 0
M  V30 12573 H 1192.02 3.93597 -4.16839 0
M  V30 12574 H 1190.41 3.53414 -4.84994 0
M  V30 12575 H 1191.48 2.22939 -4.30612 0
M  V30 12576 N 1192.83 1.32541 0.852676 0
M  V30 12577 C 1194.24 1.20863 1.42299 0
M  V30 12578 C 1194.59 -0.178051 1.9539 0
M  V30 12579 O 1193.71 -1.07689 1.87702 0
M  V30 12580 C 1194.31 2.18811 2.58664 0
M  V30 12581 C 1192.87 2.11015 3.11689 0
M  V30 12582 C 1192.01 2.07067 1.84441 0
M  V30 12583 H 1194.97 1.44341 0.659657 0
M  V30 12584 H 1194.99 1.78779 3.35884 0
M  V30 12585 H 1194.5 3.19726 2.19993 0
M  V30 12586 H 1192.6 1.13354 3.54939 0
M  V30 12587 H 1192.71 3.00929 3.72799 0
M  V30 12588 H 1191.08 1.52335 2.04123 0
M  V30 12589 H 1191.86 3.09767 1.47984 0
M  V30 12590 N 1194.3 -1.0692 1.15784 0
M  V30 12591 C 1195.72 -1.31707 0.901408 0
M  V30 12592 C 1195.92 -1.96429 -0.449203 0
M  V30 12593 O 1194.98 -2.22692 -1.19015 0
M  V30 12594 C 1196.29 -2.20391 2.04568 0
M  V30 12595 C 1197.84 -2.33827 2.08072 0
M  V30 12596 C 1198.31 -3.25862 3.21835 0
M  V30 12597 N 1199.8 -3.33444 3.21511 0
M  V30 12598 C 1200.54 -4.04731 4.06177 0
M  V30 12599 N 1200.03 -4.78596 5.00917 0
M  V30 12600 N 1201.83 -4.00717 3.94185 0
M  V30 12601 H 1193.98 -0.632989 2.02749 0
M  V30 12602 H 1196.24 -0.341587 0.88432 0
M  V30 12603 H 1195.95 -1.80102 3.02087 0
M  V30 12604 H 1195.82 -3.20943 1.9818 0
M  V30 12605 H 1198.21 -2.73367 1.11151 0
M  V30 12606 H 1198.29 -1.32964 2.18527 0
M  V30 12607 H 1197.93 -2.8704 4.19012 0
M  V30 12608 H 1197.86 -4.26689 3.08617 0
M  V30 12609 H 1200.35 -2.80798 2.52905 0
M  V30 12610 H 1200.67 -5.30499 5.61952 0
M  V30 12611 H 1199.01 -4.77598 5.04902 0
M  V30 12612 H 1202.2 -3.42126 3.1948 0
M  V30 12613 H 1202.38 -4.56008 4.60392 0
M  V30 12614 N 1195.78 -0.955326 -1.25345 0
M  V30 12615 C 1196.73 -0.446792 -2.23579 0
M  V30 12616 C 1197.72 0.464354 -1.54054 0
M  V30 12617 O 1198.91 0.297293 -1.74485 0
M  V30 12618 C 1196.04 0.273533 -3.42209 0
M  V30 12619 C 1195.12 -0.655722 -4.19 0
M  V30 12620 N 1195.51 -1.78766 -4.73156 0
M  V30 12621 C 1193.81 -0.464059 -4.43579 0
M  V30 12622 C 1194.51 -2.36789 -5.31324 0
M  V30 12623 N 1193.49 -1.65435 -5.17815 0
M  V30 12624 H 1197.29 -1.31065 -2.63057 0
M  V30 12625 H 1194.81 -0.812899 -1.40591 0
M  V30 12626 H 1196.8 0.654986 -4.11723 0
M  V30 12627 H 1195.46 1.13399 -3.04254 0
M  V30 12628 H 1196.47 -2.1695 -4.70269 0
M  V30 12629 H 1193.15 0.353459 -4.16001 0
M  V30 12630 H 1194.54 -3.32242 -5.84008 0
M  V30 12631 N 1197.26 1.39987 -0.723979 0
M  V30 12632 C 1198.67 1.83606 -0.338461 0
M  V30 12633 C 1199.02 1.6051 1.12831 0
M  V30 12634 O 1198.15 1.09041 1.8692 0
M  V30 12635 C 1198.74 3.33308 -0.607533 0
M  V30 12636 C 1197.3 3.75389 -0.275632 0
M  V30 12637 C 1196.45 2.6311 -0.875699 0
M  V30 12638 H 1199.4 1.29135 -0.922483 0
M  V30 12639 H 1199.42 3.80297 0.124424 0
M  V30 12640 H 1198.93 3.50087 -1.67514 0
M  V30 12641 H 1197.03 3.64203 0.786579 0
M  V30 12642 H 1197.15 4.73185 -0.750492 0
M  V30 12643 H 1195.51 2.5289 -0.303122 0
M  V30 12644 H 1196.29 2.82698 -1.94774 0
M  V30 12645 N 1198.74 0.470782 1.50404 0
M  V30 12646 C 1199.7 -0.312227 2.27063 0
M  V30 12647 C 1200.7 -0.920709 1.31832 0
M  V30 12648 O 1201.89 -0.789937 1.5526 0
M  V30 12649 C 1199.02 -1.44477 3.0877 0
M  V30 12650 H 1200.22 0.36006 2.97731 0
M  V30 12651 H 1197.77 0.224837 1.54674 0
M  V30 12652 H 1198.51 -2.15212 2.42599 0
M  V30 12653 H 1198.29 -1.01426 3.78755 0
M  V30 12654 H 1199.78 -1.99713 3.66749 0
M  V30 12655 N 1200.22 -1.56282 0.203376 0
M  V30 12656 C 1201.15 -2.16714 -0.74616 0
M  V30 12657 C 1202.16 -1.13121 -1.17079 0
M  V30 12658 O 1203.35 -1.40179 -1.10509 0
M  V30 12659 C 1200.45 -2.72115 -2.02007 0
M  V30 12660 C 1199.62 -4.00695 -1.75391 0
M  V30 12661 C 1198.68 -4.40839 -2.8731 0
M  V30 12662 O 1197.71 -5.081 -2.56561 0
M  V30 12663 N 1198.91 -4.05024 -4.15856 0
M  V30 12664 H 1201.68 -2.98821 -0.229326 0
M  V30 12665 H 1199.24 -1.61885 0.0217049 0
M  V30 12666 H 1201.23 -2.95951 -2.76035 0
M  V30 12667 H 1199.8 -1.94415 -2.44789 0
M  V30 12668 H 1199.02 -3.84905 -0.851 0
M  V30 12669 H 1200.31 -4.8461 -1.55017 0
M  V30 12670 H 1199.71 -3.50938 -4.43688 0
M  V30 12671 H 1198.26 -4.33792 -4.86485 0
M  V30 12672 N 1201.7 0.070167 -1.57444 0
M  V30 12673 C 1202.63 1.08351 -2.06839 0
M  V30 12674 C 1203.61 1.40269 -0.962224 0
M  V30 12675 O 1204.79 1.49867 -1.23505 0
M  V30 12676 C 1201.92 2.39649 -2.51368 0
M  V30 12677 C 1200.88 2.22079 -3.65875 0
M  V30 12678 C 1200.2 3.58776 -3.96464 0
M  V30 12679 C 1201.5 1.64069 -4.95862 0
M  V30 12680 H 1203.2 0.672465 -2.9175 0
M  V30 12681 H 1200.74 0.322027 -1.40353 0
M  V30 12682 H 1202.69 3.10833 -2.84537 0
M  V30 12683 H 1201.42 2.82736 -1.63487 0
M  V30 12684 H 1200.08 1.53337 -3.32992 0
M  V30 12685 H 1199.73 3.99436 -3.05712 0
M  V30 12686 H 1199.43 3.47859 -4.7357 0
M  V30 12687 H 1200.95 4.31387 -4.32131 0
M  V30 12688 H 1202.36 2.2512 -5.27251 0
M  V30 12689 H 1200.76 1.63843 -5.773 0
M  V30 12690 H 1201.83 0.60232 -4.81145 0
M  V30 12691 N 1203.17 1.53854 0.341593 0
M  V30 12692 C 1204.14 1.8128 1.40251 0
M  V30 12693 C 1205.14 0.683915 1.45531 0
M  V30 12694 O 1206.33 0.952202 1.45872 0
M  V30 12695 C 1203.46 1.95658 2.79161 0
M  V30 12696 H 1204.65 2.76053 1.17195 0
M  V30 12697 H 1202.2 1.45296 0.57609 0
M  V30 12698 H 1202.94 1.03034 3.07497 0
M  V30 12699 H 1202.72 2.77788 2.76724 0
M  V30 12700 H 1204.21 2.18387 3.55945 0
M  V30 12701 N 1204.65 -0.602709 1.4562 0
M  V30 12702 C 1205.6 -1.73425 1.55005 0
M  V30 12703 C 1206.59 -1.64118 0.419713 0
M  V30 12704 O 1207.8 -1.69853 0.595815 0
M  V30 12705 H 1204.17 -0.573038 0.486962 0
M  V30 12706 H 1206.15 -1.62637 2.50184 0
M  V30 12707 C 1204.89 -3.11808 1.53853 0
M  V30 12708 H 1204.22 -3.19631 2.40158 0
M  V30 12709 H 1205.66 -3.90798 1.64477 0
M  V30 12710 C 1204.12 -3.35866 0.263765 0
M  V30 12711 O 1204.65 -3.96334 -0.654364 0
M  V30 12712 N 1202.85 -2.90171 0.157927 0
M  V30 12713 H 1202.4 -2.41144 0.905944 0
M  V30 12714 H 1202.36 -3.06641 -0.694175 0
M  V30 12715 N 1206.13 -1.32992 -0.845635 0
M  V30 12716 C 1207.38 -1.2382 -1.59728 0
M  V30 12717 C 1207.7 0.197724 -1.93995 0
M  V30 12718 O 1206.97 1.12477 -1.60392 0
M  V30 12719 H 1205.55 -0.455296 -0.592212 0
M  V30 12720 H 1208.21 -1.66627 -1.01101 0
M  V30 12721 H 1207.31 -1.82717 -2.53023 0
M  V30 12722 N 1207.61 1.06304 -1.1635 0
M  V30 12723 C 1208.86 1.78747 -0.943074 0
M  V30 12724 C 1209.18 1.87646 0.530483 0
M  V30 12725 O 1208.45 1.38506 1.38538 0
M  V30 12726 H 1207.03 0.662072 -0.345932 0
M  V30 12727 H 1209.69 1.28413 -1.46615 0
M  V30 12728 H 1208.78 2.80828 -1.3617 0
M  V30 12729 N 1209.09 0.96196 1.24836 0
M  V30 12730 C 1210.02 0.506241 2.27946 0
M  V30 12731 C 1211 -0.451183 1.64007 0
M  V30 12732 O 1212.18 -0.348552 1.91046 0
M  V30 12733 C 1209.31 -0.209846 3.46665 0
M  V30 12734 C 1208.27 0.663035 4.22833 0
M  V30 12735 C 1207.59 -0.184216 5.34383 0
M  V30 12736 C 1208.89 1.94479 4.84742 0
M  V30 12737 H 1210.59 1.36805 2.66317 0
M  V30 12738 H 1208.13 0.65926 1.28023 0
M  V30 12739 H 1210.08 -0.539838 4.17928 0
M  V30 12740 H 1208.81 -1.10596 3.07305 0
M  V30 12741 H 1207.47 0.976216 3.53363 0
M  V30 12742 H 1207.12 -1.08031 4.91262 0
M  V30 12743 H 1206.82 0.39657 5.8626 0
M  V30 12744 H 1208.34 -0.509009 6.08475 0
M  V30 12745 H 1209.75 1.68074 5.48109 0
M  V30 12746 H 1208.15 2.47183 5.46828 0
M  V30 12747 H 1209.22 2.64332 4.06517 0
M  V30 12748 N 1210.56 -1.39601 0.731392 0
M  V30 12749 C 1211.51 -2.30628 0.0890606 0
M  V30 12750 C 1212.48 -1.49025 -0.73353 0
M  V30 12751 O 1213.67 -1.77722 -0.694234 0
M  V30 12752 C 1210.81 -3.35339 -0.814956 0
M  V30 12753 C 1209.92 -4.31995 0.0198606 0
M  V30 12754 C 1209.05 -5.23774 -0.885095 0
M  V30 12755 C 1208.09 -6.12083 -0.045311 0
M  V30 12756 N 1207.23 -6.9623 -0.906002 0
M  V30 12757 H 1212.07 -2.84988 0.870958 0
M  V30 12758 H 1209.61 -1.40329 0.441166 0
M  V30 12759 H 1211.56 -3.94634 -1.3535 0
M  V30 12760 H 1210.19 -2.82443 -1.56287 0
M  V30 12761 H 1209.25 -3.74349 0.675778 0
M  V30 12762 H 1210.56 -4.94289 0.669346 0
M  V30 12763 H 1209.71 -5.88078 -1.49161 0
M  V30 12764 H 1208.45 -4.61794 -1.56837 0
M  V30 12765 H 1207.46 -5.46795 0.574028 0
M  V30 12766 H 1208.68 -6.76128 0.634692 0
M  V30 12767 H 1206.63 -6.36821 -1.57463 0
M  V30 12768 H 1206.54 -7.55352 -0.312914 0
M  V30 12769 H 1207.81 -7.64967 -1.49819 0
M  V30 12770 N 1212.04 -0.478751 -1.50152 0
M  V30 12771 C 1213.46 -0.133356 -1.59042 0
M  V30 12772 C 1213.66 1.36069 -1.48618 0
M  V30 12773 O 1212.71 2.13468 -1.34862 0
M  V30 12774 C 1214.03 -0.690369 -2.92668 0
M  V30 12775 C 1215.58 -0.654481 -3.06081 0
M  V30 12776 C 1216.05 -1.18917 -4.42293 0
M  V30 12777 N 1217.54 -1.14891 -4.48725 0
M  V30 12778 C 1218.28 -1.53305 -5.52526 0
M  V30 12779 N 1217.77 -1.99205 -6.63543 0
M  V30 12780 N 1219.57 -1.4486 -5.43113 0
M  V30 12781 H 1211.72 -1.45037 -1.55171 0
M  V30 12782 H 1213.98 -0.600254 -0.733757 0
M  V30 12783 H 1213.69 -1.7373 -3.05795 0
M  V30 12784 H 1213.56 -0.138227 -3.76947 0
M  V30 12785 H 1215.95 0.383564 -2.92597 0
M  V30 12786 H 1216.03 -1.24352 -2.2354 0
M  V30 12787 H 1215.67 -2.22588 -4.56527 0
M  V30 12788 H 1215.6 -0.57628 -5.23437 0
M  V30 12789 H 1218.09 -0.812344 -3.69066 0
M  V30 12790 H 1218.41 -2.26645 -7.38818 0
M  V30 12791 H 1216.75 -2.03164 -6.64642 0
M  V30 12792 H 1219.94 -1.08836 -4.55272 0
M  V30 12793 H 1220.11 -1.75123 -6.23888 0
M  V30 12794 N 1213.52 1.56172 -0.211661 0
M  V30 12795 C 1214.94 1.5895 0.143907 0
M  V30 12796 C 1215.14 1.22826 1.59737 0
M  V30 12797 O 1214.19 0.958823 2.33587 0
M  V30 12798 C 1215.51 3.00199 -0.173438 0
M  V30 12799 C 1217.05 3.12789 -0.114877 0
M  V30 12800 C 1217.53 4.56199 -0.405759 0
M  V30 12801 N 1219.02 4.61838 -0.354973 0
M  V30 12802 C 1219.75 5.70721 -0.553671 0
M  V30 12803 N 1219.25 6.88006 -0.813613 0
M  V30 12804 N 1221.04 5.59988 -0.486787 0
M  V30 12805 H 1213.19 1.77931 -1.15993 0
M  V30 12806 H 1215.46 0.826569 -0.464206 0
M  V30 12807 H 1215.16 3.31248 -1.18186 0
M  V30 12808 H 1215.04 3.73651 0.516232 0
M  V30 12809 H 1217.42 2.81543 0.884166 0
M  V30 12810 H 1217.51 2.41688 -0.837875 0
M  V30 12811 H 1217.15 4.88161 -1.40219 0
M  V30 12812 H 1217.08 5.25512 0.338318 0
M  V30 12813 H 1219.57 3.77555 -0.161352 0
M  V30 12814 H 1219.88 7.66894 -0.953594 0
M  V30 12815 H 1218.23 6.89774 -0.850696 0
M  V30 12816 H 1221.42 4.67238 -0.284009 0
M  V30 12817 H 1221.59 6.44781 -0.645051 0
M  V30 12818 O 1215.04 0.0750807 1.61325 0
M  V30 12819 H 1215.73 -0.530633 1.8629 0
M  V30 END ATOM
M  V30 BEGIN BOND
M  V30 END BOND
M  V30 END CTAB
M  END
$$$$
