drugbank_target|P15502 Elastin (DB00533)
 OpenBabel12092119473D

  0  0  0     0  0            999 V3000
M  V30 BEGIN CTAB
M  V30 COUNTS 9900 10032 0 0 0
M  V30 BEGIN ATOM
M  V30 1 H -0.908 1.98254 -0.117106 0
M  V30 2 N 0 1.576 0 0
M  V30 3 C 0.933 2.03868 1.02534 0
M  V30 4 C 1.911 0.928543 1.3348 0
M  V30 5 O 3.095 1.19667 1.45644 0
M  V30 6 C 0.222 2.43627 2.35294 0
M  V30 7 C -0.732 3.65373 2.2001 0
M  V30 8 S 0.101 5.13292 1.52614 0
M  V30 9 C 1.257 5.56322 2.86805 0
M  V30 10 H 1.49 2.90518 0.631377 0
M  V30 11 H -0.977 1.52953 0.210867 0
M  V30 12 H 0.981 2.67203 3.11629 0
M  V30 13 H -0.358 1.57376 2.7183 0
M  V30 14 H -1.165 3.90944 3.18086 0
M  V30 15 H -1.563 3.418 1.51819 0
M  V30 16 H 0.729 5.58782 3.83104 0
M  V30 17 H 1.672 6.56266 2.65933 0
M  V30 18 H 2.08 4.83886 2.90714 0
M  V30 19 N 1.4781 -0.272755 1.55222 0
M  V30 20 C 2.4411 -1.32041 1.87344 0
M  V30 21 C 3.4411 -1.42342 0.74803 0
M  V30 22 O 4.6311 -1.41488 1.0162 0
M  V30 23 C 1.7631 -2.70173 2.07893 0
M  V30 24 H 2.9561 -1.04789 2.80997 0
M  V30 25 H 0.5091 -0.51083 1.47717 0
M  V30 26 H 1.2441 -3.02605 1.16622 0
M  V30 27 H 1.0291 -2.64082 2.89833 0
M  V30 28 H 2.5191 -3.45869 2.34017 0
M  V30 29 N 2.9562 -1.48159 -0.537278 0
M  V30 30 C 4.2042 -1.55497 -1.29094 0
M  V30 31 C 4.5252 -0.227454 -1.93669 0
M  V30 32 O 3.7952 0.750386 -1.80959 0
M  V30 33 H 2.3752 -0.572832 -0.47945 0
M  V30 34 H 5.0372 -1.84579 -0.625818 0
M  V30 35 H 4.1332 -2.33216 -2.07405 0
M  V30 36 N 4.4343 0.785586 -1.36625 0
M  V30 37 C 5.3643 1.91259 -1.33949 0
M  V30 38 C 6.3453 1.68795 -0.210325 0
M  V30 39 O 7.5303 1.89854 -0.408561 0
M  V30 40 C 4.6603 3.28339 -1.13186 0
M  V30 41 C 3.6143 3.65335 -2.22967 0
M  V30 42 C 2.9403 5.00806 -1.87342 0
M  V30 43 C 4.2403 3.7352 -3.65075 0
M  V30 44 H 5.9343 1.93755 -2.28253 0
M  V30 45 H 3.4803 0.930788 -1.09874 0
M  V30 46 H 5.4333 4.06804 -1.09948 0
M  V30 47 H 4.1573 3.2624 -0.153332 0
M  V30 48 H 2.8163 2.89169 -2.25337 0
M  V30 49 H 2.4643 4.95233 -0.880545 0
M  V30 50 H 2.1643 5.26529 -2.60846 0
M  V30 51 H 3.6883 5.81687 -1.85667 0
M  V30 52 H 5.1023 4.42168 -3.64911 0
M  V30 53 H 3.4993 4.10731 -4.37516 0
M  V30 54 H 4.5693 2.74527 -3.99703 0
M  V30 55 N 5.9124 1.20967 1.01018 0
M  V30 56 C 7.1404 1.04956 1.78303 0
M  V30 57 C 7.5554 -0.400915 1.84494 0
M  V30 58 O 6.9124 -1.27826 1.30257 0
M  V30 59 C 6.9634 1.63403 3.22462 0
M  V30 60 O 6.6844 3.02775 3.16637 0
M  V30 61 C 8.1854 1.52432 4.16268 0
M  V30 62 H 5.4054 0.368858 0.560522 0
M  V30 63 H 7.9494 1.60193 1.27116 0
M  V30 64 H 6.1044 1.1227 3.70775 0
M  V30 65 H 6.5184 3.30626 4.07169 0
M  V30 66 H 7.9924 1.98078 5.15237 0
M  V30 67 H 8.4694 0.477875 4.36592 0
M  V30 68 H 9.0754 2.02787 3.73841 0
M  V30 69 N 7.3905 -1.2043 1.01659 0
M  V30 70 C 8.3535 -2.21433 0.591616 0
M  V30 71 C 9.3535 -1.57203 -0.338226 0
M  V30 72 O 10.5435 -1.73737 -0.126918 0
M  V30 73 C 7.6755 -3.40628 -0.136058 0
M  V30 74 H 8.8685 -2.60545 1.48514 0
M  V30 75 H 6.4215 -1.33893 0.806379 0
M  V30 76 H 7.1565 -3.07019 -1.04449 0
M  V30 77 H 6.9415 -3.88475 0.531917 0
M  V30 78 H 8.4315 -4.15475 -0.420735 0
M  V30 79 N 8.8686 -0.792821 -1.36206 0
M  V30 80 C 9.8316 -0.199459 -2.2833 0
M  V30 81 C 10.8316 0.605189 -1.48977 0
M  V30 82 O 12.0216 0.425685 -1.68919 0
M  V30 83 C 9.1536 0.723523 -3.33134 0
M  V30 84 H 10.3466 -1.01181 -2.82316 0
M  V30 85 H 7.8996 -0.562485 -1.45828 0
M  V30 86 H 8.6346 1.56008 -2.84309 0
M  V30 87 H 8.4196 0.148436 -3.91819 0
M  V30 88 H 9.9096 1.13344 -4.01924 0
M  V30 89 N 10.3467 1.47872 -0.545128 0
M  V30 90 C 11.3097 2.28337 0.198717 0
M  V30 91 C 12.3097 1.36255 0.853888 0
M  V30 92 O 13.4997 1.59003 0.711606 0
M  V30 93 C 10.6317 3.15585 1.28915 0
M  V30 94 H 11.8247 2.95567 -0.507941 0
M  V30 95 H 9.3777 1.53362 -0.301616 0
M  V30 96 H 10.1127 2.53019 2.02859 0
M  V30 97 H 9.8977 3.83337 0.824309 0
M  V30 98 H 11.3877 3.76243 1.81194 0
M  V30 99 N 11.8248 0.280983 1.55075 0
M  V30 100 C 13.2358 -0.215629 1.85451 0
M  V30 101 C 13.5868 -1.54991 1.203 0
M  V30 102 O 12.7118 -2.10699 0.493435 0
M  V30 103 C 13.3068 -0.398026 3.36454 0
M  V30 104 C 11.8658 -0.838866 3.66933 0
M  V30 105 C 11.0128 0.064458 2.77225 0
M  V30 106 H 13.9638 0.502601 1.50531 0
M  V30 107 H 13.9848 -1.23569 3.59876 0
M  V30 108 H 13.4968 0.573241 3.83843 0
M  V30 109 H 11.5978 -1.8214 3.25048 0
M  V30 110 H 11.7108 -0.672123 4.74362 0
M  V30 111 H 10.0748 -0.452863 2.50642 0
M  V30 112 H 10.8578 1.03172 3.2743 0
M  V30 113 N 13.3029 -1.57598 0.00835791 0
M  V30 114 C 14.7189 -1.55764 -0.347822 0
M  V30 115 C 14.9189 -1.01186 -1.74252 0
M  V30 116 O 13.9749 -0.649371 -2.44007 0
M  V30 117 C 15.2879 -2.99927 -0.215407 0
M  V30 118 C 16.8359 -3.11656 -0.289725 0
M  V30 119 C 17.3109 -4.57621 -0.18634 0
M  V30 120 N 18.8019 -4.62557 -0.243978 0
M  V30 121 C 19.5369 -5.73094 -0.18745 0
M  V30 122 N 19.0329 -6.92753 -0.0810331 0
M  V30 123 N 20.8259 -5.61588 -0.239925 0
M  V30 124 H 12.9769 -1.91411 0.92062 0
M  V30 125 H 15.2399 -0.879562 0.353659 0
M  V30 126 H 14.9459 -3.43729 0.744512 0
M  V30 127 H 14.8199 -3.63865 -0.994097 0
M  V30 128 H 17.2069 -2.67779 -1.24009 0
M  V30 129 H 17.2879 -2.5048 0.51898 0
M  V30 130 H 16.9319 -5.02174 0.760519 0
M  V30 131 H 16.8619 -5.16752 -1.01364 0
M  V30 132 H 19.3529 -3.76481 -0.327217 0
M  V30 133 H 19.6659 -7.72787 -0.0440241 0
M  V30 134 H 18.0109 -6.94984 -0.0465419 0
M  V30 135 H 21.2019 -4.66996 -0.321317 0
M  V30 136 H 21.3749 -6.47714 -0.192407 0
M  V30 137 N 14.781 0.264519 -1.55364 0
M  V30 138 C 16.192 0.834936 -1.6699 0
M  V30 139 C 16.543 1.86718 -0.602552 0
M  V30 140 O 15.668 2.14899 0.254425 0
M  V30 141 C 16.263 1.5212 -3.02729 0
M  V30 142 C 14.822 2.03954 -3.16354 0
M  V30 143 C 13.969 0.884498 -2.62815 0
M  V30 144 H 16.92 0.0406869 -1.58648 0
M  V30 145 H 16.941 2.38853 -2.96191 0
M  V30 146 H 16.453 0.769668 -3.80392 0
M  V30 147 H 14.554 2.82041 -2.43482 0
M  V30 148 H 14.667 2.24902 -4.23032 0
M  V30 149 H 13.031 1.2802 -2.20188 0
M  V30 150 H 13.814 0.14634 -3.42988 0
M  V30 151 N 16.2591 1.48442 0.529413 0
M  V30 152 C 17.5071 1.56179 1.28267 0
M  V30 153 C 17.8281 0.237721 1.93546 0
M  V30 154 O 17.0981 -0.740779 1.81354 0
M  V30 155 H 15.6781 0.575367 0.476405 0
M  V30 156 H 18.3401 1.84909 0.61602 0
M  V30 157 H 17.4361 2.34312 2.06165 0
M  V30 158 N 17.7372 -0.778329 1.37039 0
M  V30 159 C 18.9832 -1.53892 1.32079 0
M  V30 160 C 19.3162 -1.9396 -0.0965386 0
M  V30 161 O 18.5912 -1.63568 -1.05242 0
M  V30 162 C 18.8742 -2.80847 2.25382 0
M  V30 163 C 18.7272 -2.47076 3.75864 0
M  V30 164 C 20.0462 -3.82741 2.1725 0
M  V30 165 H 17.1652 -0.558303 0.48111 0
M  V30 166 H 19.8072 -0.893397 1.67685 0
M  V30 167 H 17.9572 -3.35931 1.95148 0
M  V30 168 H 19.6292 -1.97957 4.16666 0
M  V30 169 H 17.8722 -1.79863 3.94755 0
M  V30 170 H 18.5432 -3.37798 4.36574 0
M  V30 171 H 21.0192 -3.37133 2.43887 0
M  V30 172 H 19.8952 -4.69303 2.84686 0
M  V30 173 H 20.1562 -4.2652 1.16331 0
M  V30 174 N 19.2153 -1.21501 -1.00376 0
M  V30 175 C 20.1453 -0.999478 -2.11028 0
M  V30 176 C 21.1263 0.0759671 -1.6993 0
M  V30 177 O 22.3113 -0.0841106 -1.94018 0
M  V30 178 C 19.4413 -0.564709 -3.42678 0
M  V30 179 C 18.3953 -1.58486 -3.97576 0
M  V30 180 C 17.7213 -1.00628 -5.25146 0
M  V30 181 C 19.0213 -2.97204 -4.29496 0
M  V30 182 H 20.7153 -1.92495 -2.29317 0
M  V30 183 H 18.2613 -0.92693 -1.102 0
M  V30 184 H 20.2143 -0.401091 -4.19487 0
M  V30 185 H 18.9383 0.396411 -3.24185 0
M  V30 186 H 17.5973 -1.73606 -3.22888 0
M  V30 187 H 17.2453 -0.0368439 -5.02987 0
M  V30 188 H 16.9453 -1.68771 -5.62841 0
M  V30 189 H 18.4693 -0.854015 -6.04598 0
M  V30 190 H 19.8833 -2.8552 -4.97143 0
M  V30 191 H 18.2803 -3.62372 -4.78338 0
M  V30 192 H 19.3503 -3.47956 -3.3772 0
M  V30 193 N 20.6934 1.19889 -1.02296 0
M  V30 194 C 21.6234 2.25141 -0.619174 0
M  V30 195 C 22.6044 1.66051 0.368915 0
M  V30 196 O 23.7894 1.92546 0.252941 0
M  V30 197 C 20.9194 3.4728 0.0368783 0
M  V30 198 C 19.8734 4.19005 -0.872865 0
M  V30 199 C 19.1994 5.34637 -0.0822402 0
M  V30 200 C 20.4994 4.74452 -2.18387 0
M  V30 201 H 22.1934 2.59171 -1.49903 0
M  V30 202 H 19.7394 1.24579 -0.722222 0
M  V30 203 H 21.6924 4.20098 0.330958 0
M  V30 204 H 20.4164 3.12433 0.95149 0
M  V30 205 H 19.0754 3.48061 -1.15105 0
M  V30 206 H 18.7234 4.96034 0.83422 0
M  V30 207 H 18.4234 5.83557 -0.688149 0
M  V30 208 H 19.9474 6.10255 0.205238 0
M  V30 209 H 21.3614 5.39055 -1.95172 0
M  V30 210 H 19.7584 5.33834 -2.74119 0
M  V30 211 H 20.8284 3.92844 -2.84257 0
M  V30 212 N 22.1715 0.800033 1.35784 0
M  V30 213 C 23.1015 0.220184 2.3246 0
M  V30 214 C 24.0825 -0.65073 1.57161 0
M  V30 215 O 25.2675 -0.582359 1.85263 0
M  V30 216 C 22.3975 -0.637353 3.41402 0
M  V30 217 C 21.3515 0.134531 4.27789 0
M  V30 218 C 20.6775 -0.844285 5.27992 0
M  V30 219 C 21.9775 1.32979 5.05088 0
M  V30 220 H 23.6715 1.02787 2.81203 0
M  V30 221 H 21.2175 0.495717 1.35199 0
M  V30 222 H 23.1705 -1.05302 4.08031 0
M  V30 223 H 21.8945 -1.47785 2.91251 0
M  V30 224 H 20.5535 0.531296 3.6273 0
M  V30 225 H 20.2015 -1.68011 4.74111 0
M  V30 226 H 19.9015 -0.332184 5.8666 0
M  V30 227 H 21.4255 -1.2583 5.97494 0
M  V30 228 H 22.8395 0.98934 5.64699 0
M  V30 229 H 21.2365 1.77593 5.7322 0
M  V30 230 H 22.3065 2.11978 4.36111 0
M  V30 231 N 23.6496 -1.47581 0.552962 0
M  V30 232 C 24.5796 -2.32762 -0.185451 0
M  V30 233 C 25.5606 -1.43527 -0.912905 0
M  V30 234 O 26.7456 -1.72388 -0.894201 0
M  V30 235 C 23.8756 -3.25219 -1.21859 0
M  V30 236 C 22.8296 -4.23661 -0.607864 0
M  V30 237 C 22.1556 -5.05413 -1.74533 0
M  V30 238 C 23.4556 -5.20481 0.435582 0
M  V30 239 H 25.1496 -2.94749 0.525684 0
M  V30 240 H 22.6956 -1.41738 0.254251 0
M  V30 241 H 24.6486 -3.8365 -1.7433 0
M  V30 242 H 23.3726 -2.61279 -1.95961 0
M  V30 243 H 22.0316 -3.66451 -0.104489 0
M  V30 244 H 21.6796 -4.3788 -2.47529 0
M  V30 245 H 21.3796 -5.72059 -1.34249 0
M  V30 246 H 22.9036 -5.66701 -2.27338 0
M  V30 247 H 24.3176 -5.733 -0.00290157 0
M  V30 248 H 22.7146 -5.95305 0.757067 0
M  V30 249 H 23.7846 -4.66217 1.33303 0
M  V30 250 N 25.1277 -0.289203 -1.54924 0
M  V30 251 C 26.0577 0.58549 -2.2604 0
M  V30 252 C 27.0387 1.14753 -1.25562 0
M  V30 253 O 28.2237 1.17906 -1.54311 0
M  V30 254 C 25.3537 1.76305 -2.99222 0
M  V30 255 C 24.3077 1.33191 -4.06748 0
M  V30 256 C 23.6337 2.5937 -4.6758 0
M  V30 257 C 24.9337 0.471775 -5.20165 0
M  V30 258 H 26.6277 -0.00763532 -2.99399 0
M  V30 259 H 24.1737 -0.00511229 -1.43999 0
M  V30 260 H 26.1267 2.38097 -3.47689 0
M  V30 261 H 24.8507 2.38223 -2.23422 0
M  V30 262 H 23.5097 0.737121 -3.59113 0
M  V30 263 H 23.1577 3.19576 -3.88433 0
M  V30 264 H 22.8577 2.31228 -5.40192 0
M  V30 265 H 24.3817 3.21985 -5.18804 0
M  V30 266 H 25.7957 0.995056 -5.64599 0
M  V30 267 H 24.1927 0.284639 -5.99425 0
M  V30 268 H 25.2627 -0.506041 -4.82252 0
M  V30 269 N 26.6058 1.57591 -0.0167156 0
M  V30 270 C 27.8308 1.9598 0.67872 0
M  V30 271 C 28.2558 0.892546 1.65575 0
M  V30 272 O 27.6138 -0.147772 1.80697 0
M  V30 273 C 27.6618 3.33468 1.37227 0
M  V30 274 O 26.7658 3.28954 2.48722 0
M  V30 275 H 26.1068 0.639339 0.17928 0
M  V30 276 H 28.6368 2.04463 -0.0748802 0
M  V30 277 H 28.6468 3.69417 1.7319 0
M  V30 278 H 27.3218 4.10694 0.656007 0
M  V30 279 H 25.8988 3.04705 2.14963 0
M  V30 280 N 28.0839 -0.256276 1.55502 0
M  V30 281 C 29.3329 -0.983486 1.76098 0
M  V30 282 C 29.6459 -1.86837 0.578896 0
M  V30 283 O 30.8519 -2.63163 0.667648 0
M  V30 284 C 29.3079 -1.79868 3.1173 0
M  V30 285 C 28.9159 -0.961648 4.37557 0
M  V30 286 C 30.6599 -2.51919 3.41668 0
M  V30 287 C 28.5669 -1.77219 5.64223 0
M  V30 288 H 27.4969 -0.370936 0.656447 0
M  V30 289 H 30.1479 -0.238492 1.81944 0
M  V30 290 H 28.5299 -2.58527 2.99966 0
M  V30 291 H 29.7039 -0.218048 4.60284 0
M  V30 292 H 28.0189 -0.354913 4.14885 0
M  V30 293 H 30.6159 -3.12998 4.33516 0
M  V30 294 H 30.9589 -3.23059 2.62562 0
M  V30 295 H 31.4919 -1.80278 3.54605 0
M  V30 296 H 28.2309 -1.10471 6.46124 0
M  V30 297 H 27.7509 -2.49132 5.45613 0
M  V30 298 H 29.4299 -2.34169 6.03137 0
M  V30 299 N 29.562 -1.4872 -0.521534 0
M  V30 300 C 30.492 -1.66771 -1.63431 0
M  V30 301 C 31.473 -0.516499 -1.62069 0
M  V30 302 O 32.658 -0.750013 -1.79132 0
M  V30 303 C 29.788 -1.71515 -3.01993 0
M  V30 304 C 28.742 -2.86222 -3.18216 0
M  V30 305 C 28.068 -2.76061 -4.57924 0
M  V30 306 C 29.368 -4.27419 -3.00184 0
M  V30 307 H 31.062 -2.59932 -1.48579 0
M  V30 308 H 28.608 -1.25089 -0.713358 0
M  V30 309 H 30.561 -1.82731 -3.7972 0
M  V30 310 H 29.285 -0.749393 -3.17886 0
M  V30 311 H 27.944 -2.74575 -2.42908 0
M  V30 312 H 27.592 -1.77437 -4.70665 0
M  V30 313 H 27.292 -3.53037 -4.69722 0
M  V30 314 H 28.816 -2.89256 -5.37739 0
M  V30 315 H 30.23 -4.39855 -3.67697 0
M  V30 316 H 28.627 -5.05458 -3.2347 0
M  V30 317 H 29.697 -4.43293 -1.96518 0
M  V30 318 N 31.0401 0.771051 -1.3745 0
M  V30 319 C 31.9901 1.87456 -1.29785 0
M  V30 320 C 32.9741 1.59827 -0.185541 0
M  V30 321 O 34.1661 1.71945 -0.419997 0
M  V30 322 C 31.2951 3.24935 -1.1078 0
M  V30 323 C 30.3811 3.58514 -2.26558 0
M  V30 324 N 30.7721 3.6327 -3.5195 0
M  V30 325 C 29.0701 3.88683 -2.18727 0
M  V30 326 C 29.7711 3.93616 -4.283 0
M  V30 327 N 28.7471 4.09551 -3.57448 0
M  V30 328 H 32.5491 1.89386 -2.24745 0
M  V30 329 H 30.0631 0.967531 -1.30432 0
M  V30 330 H 32.0601 4.03881 -1.03374 0
M  V30 331 H 30.7201 3.24268 -0.16738 0
M  V30 332 H 31.7311 3.45458 -3.85848 0
M  V30 333 H 28.4081 3.95834 -1.32746 0
M  V30 334 H 29.7981 4.04066 -5.36824 0
M  V30 335 N 32.5182 1.22032 0.997298 0
M  V30 336 C 33.9292 1.0397 1.55071 0
M  V30 337 C 34.2802 -0.398192 1.92117 0
M  V30 338 O 33.4052 -1.28254 1.74298 0
M  V30 339 C 34.0002 1.88109 2.81781 0
M  V30 340 C 32.5592 1.74357 3.33581 0
M  V30 341 C 31.7062 1.84846 2.06706 0
M  V30 342 H 34.6572 1.35941 0.818883 0
M  V30 343 H 34.6782 1.39589 3.53971 0
M  V30 344 H 34.1902 2.92754 2.54787 0
M  V30 345 H 32.2912 0.72427 3.65493 0
M  V30 346 H 32.4042 2.56772 4.04481 0
M  V30 347 H 30.7682 1.28238 2.20062 0
M  V30 348 H 31.5512 2.91014 1.82114 0
M  V30 349 N 33.9963 -1.19345 1.0293 0
M  V30 350 C 35.2213 -1.93538 0.745511 0
M  V30 351 C 35.6463 -1.75007 -0.689511 0
M  V30 352 O 35.0043 -1.05265 -1.47611 0
M  V30 353 C 35.0523 -3.43336 1.10239 0
M  V30 354 O 34.1563 -4.11806 0.221289 0
M  V30 355 H 33.4973 -0.604193 0.275404 0
M  V30 356 H 36.0273 -1.5141 1.37609 0
M  V30 357 H 36.0373 -3.94004 1.05947 0
M  V30 358 H 34.7123 -3.56146 2.14786 0
M  V30 359 H 33.2893 -3.715 0.322842 0
M  V30 360 N 35.4744 -0.807222 -1.35358 0
M  V30 361 C 36.8904 -0.491038 -1.51858 0
M  V30 362 C 37.0904 0.987648 -1.75635 0
M  V30 363 O 36.1464 1.77265 -1.79815 0
M  V30 364 C 37.4594 -1.33695 -2.69344 0
M  V30 365 C 39.0074 -1.33246 -2.83222 0
M  V30 366 C 39.4824 -2.1625 -4.03733 0
M  V30 367 N 40.9734 -2.1379 -4.10911 0
M  V30 368 C 41.7084 -2.74772 -5.03277 0
M  V30 369 N 41.2044 -3.44684 -6.0097 0
M  V30 370 N 42.9974 -2.6441 -4.96028 0
M  V30 371 H 35.1484 -1.76485 -1.18181 0
M  V30 372 H 37.4114 -0.751199 -0.578276 0
M  V30 373 H 37.1174 -2.38634 -2.58354 0
M  V30 374 H 36.9914 -0.990618 -3.6396 0
M  V30 375 H 39.3784 -0.290911 -2.93663 0
M  V30 376 H 39.4594 -1.71866 -1.89461 0
M  V30 377 H 39.1034 -3.20445 -3.94052 0
M  V30 378 H 39.0334 -1.74989 -4.96675 0
M  V30 379 H 41.5244 -1.62923 -3.40976 0
M  V30 380 H 41.8374 -3.88501 -6.68047 0
M  V30 381 H 40.1824 -3.48788 -6.01142 0
M  V30 382 H 43.3734 -2.0938 -4.18662 0
M  V30 383 H 43.5464 -3.12225 -5.6782 0
M  V30 384 N 36.9525 1.47285 -0.560781 0
M  V30 385 C 38.3635 1.86258 -0.128343 0
M  V30 386 C 38.7145 1.46699 1.30284 0
M  V30 387 O 37.8395 0.871698 1.98067 0
M  V30 388 C 38.4345 3.38044 -0.22614 0
M  V30 389 C 36.9935 3.76096 0.151283 0
M  V30 390 C 36.1405 2.71335 -0.572084 0
M  V30 391 H 39.0915 1.38752 -0.770297 0
M  V30 392 H 39.1125 3.76441 0.554322 0
M  V30 393 H 38.6245 3.66806 -1.26788 0
M  V30 394 H 36.7255 3.52951 1.19399 0
M  V30 395 H 36.8385 4.78641 -0.209765 0
M  V30 396 H 35.2025 2.54696 -0.0147653 0
M  V30 397 H 35.9855 3.02938 -1.61504 0
M  V30 398 N 38.4306 0.297415 1.54768 0
M  V30 399 C 39.6786 -0.312295 1.99673 0
M  V30 400 C 39.9996 -1.54686 1.18732 0
M  V30 401 O 39.2696 -1.93854 0.282382 0
M  V30 402 H 37.8496 -0.118381 0.73756 0
M  V30 403 H 40.5116 0.407915 1.90583 0
M  V30 404 H 39.6076 -0.586813 3.06534 0
M  V30 405 N 39.9087 -1.5758 0.0250728 0
M  V30 406 C 41.1567 -1.91255 -0.653151 0
M  V30 407 C 41.4777 -0.901691 -1.729 0
M  V30 408 O 40.7477 0.0573785 -1.95816 0
M  V30 409 H 39.3277 -0.705942 -0.244243 0
M  V30 410 H 41.9897 -1.94767 0.0719209 0
M  V30 411 H 41.0857 -2.91752 -1.10847 0
M  V30 412 N 41.3868 0.248026 -1.55636 0
M  V30 413 C 42.6328 0.97767 -1.77678 0
M  V30 414 C 42.9658 1.85016 -0.590135 0
M  V30 415 O 42.2408 1.90095 0.411611 0
M  V30 416 C 42.5238 1.83914 -3.09593 0
M  V30 417 C 42.3768 0.99491 -4.38659 0
M  V30 418 C 43.6958 2.82183 -3.37729 0
M  V30 419 H 40.8148 0.354005 -0.646413 0
M  V30 420 H 43.4568 0.248253 -1.88371 0
M  V30 421 H 41.6068 2.46104 -3.00608 0
M  V30 422 H 43.2788 0.391789 -4.59633 0
M  V30 423 H 41.5218 0.299231 -4.32767 0
M  V30 424 H 42.1928 1.63145 -5.2734 0
M  V30 425 H 44.6688 2.30129 -3.4667 0
M  V30 426 H 43.5448 3.39582 -4.31249 0
M  V30 427 H 43.8058 3.58588 -2.58586 0
M  V30 428 N 42.8649 1.48995 0.513639 0
M  V30 429 C 44.2759 1.5119 1.09537 0
M  V30 430 C 44.6269 0.290906 1.94031 0
M  V30 431 O 43.7519 -0.60049 2.07902 0
M  V30 432 C 44.3469 2.73964 1.99322 0
M  V30 433 C 42.9059 2.78978 2.52682 0
M  V30 434 C 42.0529 2.44934 1.30009 0
M  V30 435 H 45.0039 1.55875 0.298125 0
M  V30 436 H 45.0249 2.53409 2.83838 0
M  V30 437 H 44.5369 3.62813 1.37799 0
M  V30 438 H 42.6379 1.94378 3.1788 0
M  V30 439 H 42.7509 3.8083 2.90698 0
M  V30 440 H 41.1149 1.9644 1.62122 0
M  V30 441 H 41.8979 3.36043 0.702131 0
M  V30 442 N 44.343 -0.763751 1.37857 0
M  V30 443 C 45.591 -1.51957 1.33243 0
M  V30 444 C 45.912 -1.94835 -0.0801709 0
M  V30 445 O 45.182 -1.66894 -1.02582 0
M  V30 446 H 43.762 -0.563626 0.49024 0
M  V30 447 H 46.424 -0.908504 1.7243 0
M  V30 448 H 45.52 -2.41523 1.97669 0
M  V30 449 N 45.8211 -1.22559 -0.990812 0
M  V30 450 C 46.7841 -0.998863 -2.0629 0
M  V30 451 C 47.7841 0.0354834 -1.60761 0
M  V30 452 O 48.9741 -0.203231 -1.7301 0
M  V30 453 C 46.1061 -0.509203 -3.37076 0
M  V30 454 H 47.2991 -1.95014 -2.27837 0
M  V30 455 H 44.8521 -1.04456 -1.16269 0
M  V30 456 H 45.5871 0.446335 -3.21214 0
M  V30 457 H 45.3721 -1.25547 -3.71457 0
M  V30 458 H 46.8621 -0.370888 -4.1595 0
M  V30 459 N 47.2992 1.18797 -1.03562 0
M  V30 460 C 48.5482 1.87978 -0.731235 0
M  V30 461 C 48.8612 1.80911 0.743671 0
M  V30 462 O 50.0672 2.45407 1.16137 0
M  V30 463 C 48.5232 3.3721 -1.25768 0
M  V30 464 C 48.1312 3.52818 -2.76085 0
M  V30 465 C 49.8752 4.11825 -1.0296 0
M  V30 466 C 47.7822 4.9598 -3.22114 0
M  V30 467 H 46.7122 0.704063 -0.269835 0
M  V30 468 H 49.3632 1.34266 -1.25079 0
M  V30 469 H 47.7452 3.90359 -0.666011 0
M  V30 470 H 48.9192 3.09965 -3.40966 0
M  V30 471 H 47.2342 2.91602 -2.97249 0
M  V30 472 H 49.8312 5.17411 -1.34869 0
M  V30 473 H 50.1742 4.16287 0.0333546 0
M  V30 474 H 50.7072 3.64833 -1.58562 0
M  V30 475 H 47.4462 4.96684 -4.27768 0
M  V30 476 H 46.9662 5.39569 -2.61965 0
M  V30 477 H 48.6452 5.6467 -3.15844 0
M  V30 478 N 48.7773 0.814389 1.34928 0
M  V30 479 C 50.1883 0.458364 1.80986 0
M  V30 480 C 50.5393 -1.02042 1.67577 0
M  V30 481 O 49.6643 -1.79352 1.21086 0
M  V30 482 C 50.2593 0.825212 3.28597 0
M  V30 483 C 48.8183 0.521677 3.72767 0
M  V30 484 C 47.9653 1.04668 2.56788 0
M  V30 485 H 50.9163 1.00533 1.22795 0
M  V30 486 H 50.9373 0.12571 3.80292 0
M  V30 487 H 50.4493 1.90154 3.38324 0
M  V30 488 H 48.5503 -0.545589 3.68584 0
M  V30 489 H 48.6633 1.05977 4.67232 0
M  V30 490 H 47.0273 0.468622 2.50352 0
M  V30 491 H 47.8103 2.12927 2.6929 0
M  V30 492 N 50.2554 -1.46986 0.568584 0
M  V30 493 C 51.5034 -2.02041 0.0487022 0
M  V30 494 C 51.8244 -1.44408 -1.31039 0
M  V30 495 O 51.0944 -0.623477 -1.85714 0
M  V30 496 H 49.6744 -0.746849 0.015014 0
M  V30 497 H 52.3364 -1.80257 0.741168 0
M  V30 498 H 51.4324 -3.12085 -0.0308961 0
M  V30 499 N 51.7335 -0.305618 -1.54608 0
M  V30 500 C 52.9815 0.301701 -1.99835 0
M  V30 501 C 53.3025 1.54054 -1.19551 0
M  V30 502 O 52.5725 1.93702 -0.292658 0
M  V30 503 H 51.1525 0.114468 -0.738178 0
M  V30 504 H 53.8145 -0.418016 -1.90364 0
M  V30 505 H 52.9105 0.570548 -3.06841 0
M  V30 506 N 53.2116 1.57565 -0.0334293 0
M  V30 507 C 54.4576 1.92262 0.645226 0
M  V30 508 C 54.7906 0.910543 1.71531 0
M  V30 509 O 54.0656 -0.066099 1.94388 0
M  V30 510 C 54.3486 3.37422 1.2577 0
M  V30 511 C 54.2016 4.49369 0.196891 0
M  V30 512 C 55.5206 3.82628 2.17449 0
M  V30 513 H 52.6396 0.699171 0.233085 0
M  V30 514 H 55.2816 1.89779 -0.0915694 0
M  V30 515 H 53.4316 3.39669 1.88566 0
M  V30 516 H 55.1036 4.59254 -0.433962 0
M  V30 517 H 53.3466 4.31168 -0.477137 0
M  V30 518 H 54.0176 5.47978 0.665124 0
M  V30 519 H 56.4936 3.82145 1.64634 0
M  V30 520 H 55.3696 4.84883 2.57254 0
M  V30 521 H 55.6306 3.18376 3.0674 0
M  V30 522 N 54.6897 -0.239769 1.55765 0
M  V30 523 C 56.1007 -0.808263 1.68297 0
M  V30 524 C 56.4517 -1.85736 0.632181 0
M  V30 525 O 55.5767 -2.15277 -0.220204 0
M  V30 526 C 56.1717 -1.47284 3.05111 0
M  V30 527 C 54.7307 -1.98895 3.19559 0
M  V30 528 C 53.8777 -0.842575 2.64189 0
M  V30 529 H 56.8287 -0.0154422 1.58692 0
M  V30 530 H 56.8497 -2.34111 2.99954 0
M  V30 531 H 56.3617 -0.709053 3.81568 0
M  V30 532 H 54.4627 -2.78132 2.47938 0
M  V30 533 H 54.5757 -2.18143 4.26556 0
M  V30 534 H 52.9397 -1.24501 2.22197 0
M  V30 535 H 53.7227 -0.0917552 3.43177 0
M  V30 536 N 56.1678 -1.49265 -0.50573 0
M  V30 537 C 57.4158 -1.582 -1.25766 0
M  V30 538 C 57.7368 -0.268482 -1.93143 0
M  V30 539 O 57.0068 0.711833 -1.8251 0
M  V30 540 H 55.5868 -0.582873 -0.467191 0
M  V30 541 H 58.2488 -1.85865 -0.586525 0
M  V30 542 H 57.3448 -2.37563 -2.02412 0
M  V30 543 N 57.6459 0.756429 -1.3826 0
M  V30 544 C 58.8939 1.51248 -1.34047 0
M  V30 545 C 59.2149 1.94875 0.0698372 0
M  V30 546 O 58.4849 1.67436 1.01696 0
M  V30 547 H 57.0649 0.561018 -0.493222 0
M  V30 548 H 59.7269 0.899347 -1.7291 0
M  V30 549 H 58.8229 2.40472 -1.98947 0
M  V30 550 N 59.124 1.23083 0.984299 0
M  V30 551 C 60.37 1.06214 1.72761 0
M  V30 552 C 60.703 -0.400584 1.90024 0
M  V30 553 O 59.978 -1.29672 1.44967 0
M  V30 554 C 60.261 1.78375 3.12817 0
M  V30 555 C 60.114 3.32296 3.03149 0
M  V30 556 C 61.433 1.54309 4.12161 0
M  V30 557 H 58.552 0.387251 0.627061 0
M  V30 558 H 61.194 1.51536 1.14616 0
M  V30 559 H 59.344 1.39848 3.62457 0
M  V30 560 H 61.016 3.8032 2.61064 0
M  V30 561 H 59.259 3.6153 2.39747 0
M  V30 562 H 59.93 3.77972 4.02295 0
M  V30 563 H 62.406 1.87791 3.71314 0
M  V30 564 H 61.282 2.07281 5.08258 0
M  V30 565 H 61.543 0.477572 4.39513 0
M  V30 566 N 60.6021 -1.18246 1.0419 0
M  V30 567 C 61.8491 -1.88257 0.746017 0
M  V30 568 C 62.1771 -1.80429 -0.726331 0
M  V30 569 O 61.4321 -1.2 -1.54591 0
M  V30 570 C 61.7311 -3.38082 1.15911 0
M  V30 571 C 61.3971 -3.66114 2.63195 0
M  V30 572 C 60.0591 -3.73474 3.03432 0
M  V30 573 C 62.4111 -3.78398 3.5842 0
M  V30 574 C 59.7391 -3.90599 4.37778 0
M  V30 575 C 62.0911 -3.97039 4.92487 0
M  V30 576 C 60.7551 -4.02635 5.32392 0
M  V30 577 H 60.0251 -0.688883 0.272987 0
M  V30 578 H 62.6721 -1.3995 1.30715 0
M  V30 579 H 60.9771 -3.88377 0.516806 0
M  V30 580 H 62.6741 -3.90596 0.907516 0
M  V30 581 H 59.2641 -3.61003 2.3103 0
M  V30 582 H 63.4481 -3.72042 3.28479 0
M  V30 583 H 58.7041 -3.93175 4.68213 0
M  V30 584 H 62.8781 -4.05486 5.66175 0
M  V30 585 H 60.5051 -4.15657 6.36501 0
M  V30 586 N 62.0802 -0.821533 -1.34494 0
M  V30 587 C 63.3102 -0.421272 -2.02259 0
M  V30 588 C 63.7182 0.977047 -1.6202 0
M  V30 589 O 63.0612 1.64348 -0.820703 0
M  V30 590 C 63.1232 -0.44231 -3.56769 0
M  V30 591 C 62.7872 -1.79372 -4.20327 0
M  V30 592 C 63.7842 -2.75435 -4.40944 0
M  V30 593 C 61.4692 -2.08182 -4.57127 0
M  V30 594 C 63.4632 -3.98482 -4.97484 0
M  V30 595 C 61.1502 -3.31489 -5.13379 0
M  V30 596 C 62.1482 -4.26457 -5.33501 0
M  V30 597 O 61.8362 -5.47585 -5.88562 0
M  V30 598 H 61.5682 -0.167473 -0.654927 0
M  V30 599 H 64.1222 -1.11073 -1.72777 0
M  V30 600 H 62.3522 0.303836 -3.85505 0
M  V30 601 H 64.0412 -0.0622925 -4.05852 0
M  V30 602 H 64.8072 -2.54473 -4.12878 0
M  V30 603 H 60.6862 -1.35066 -4.4077 0
M  V30 604 H 64.2302 -4.72618 -5.13106 0
M  V30 605 H 60.1272 -3.52316 -5.40873 0
M  V30 606 H 60.8952 -5.49086 -6.06998 0
M  V30 607 N 63.5583 1.46682 -0.576371 0
M  V30 608 C 64.9693 1.86112 -0.148091 0
M  V30 609 C 65.3203 1.48073 1.2872 0
M  V30 610 O 64.4453 0.892656 1.97131 0
M  V30 611 C 65.0403 3.37786 -0.261982 0
M  V30 612 C 63.5993 3.76235 0.111384 0
M  V30 613 C 62.7463 2.70713 -0.60083 0
M  V30 614 H 65.6973 1.37927 -0.78497 0
M  V30 615 H 65.7183 3.77007 0.514364 0
M  V30 616 H 65.2303 3.6544 -1.30671 0
M  V30 617 H 63.3313 3.54198 1.15649 0
M  V30 618 H 63.4443 4.78391 -0.26052 0
M  V30 619 H 61.8083 2.54666 -0.0417783 0
M  V30 620 H 62.5913 3.01208 -1.64708 0
M  V30 621 N 65.0364 0.313813 1.54444 0
M  V30 622 C 66.2844 -0.291099 1.99993 0
M  V30 623 C 66.6054 -1.53418 1.20366 0
M  V30 624 O 65.8754 -1.93544 0.302927 0
M  V30 625 H 64.4554 -0.110552 0.738774 0
M  V30 626 H 67.1174 0.428106 1.9014 0
M  V30 627 H 66.2134 -0.554268 3.07139 0
M  V30 628 N 66.5145 -1.57545 0.0417849 0
M  V30 629 C 67.4775 -2.09885 -0.92093 0
M  V30 630 C 68.4775 -1.01648 -1.24596 0
M  V30 631 O 69.6675 -1.27759 -1.1842 0
M  V30 632 C 66.7995 -2.57527 -2.23367 0
M  V30 633 H 67.9925 -2.96236 -0.467382 0
M  V30 634 H 65.5455 -1.5493 -0.206467 0
M  V30 635 H 66.2805 -1.74542 -2.73323 0
M  V30 636 H 66.0655 -3.36613 -2.01083 0
M  V30 637 H 67.5555 -2.98201 -2.92346 0
M  V30 638 N 67.9926 0.231505 -1.5589 0
M  V30 639 C 69.2406 0.955461 -1.78088 0
M  V30 640 C 69.5616 1.85262 -0.608533 0
M  V30 641 O 68.8316 1.92277 0.375035 0
M  V30 642 H 67.4116 0.355787 -0.656829 0
M  V30 643 H 70.0736 0.245751 -1.93344 0
M  V30 644 H 69.1696 1.56814 -2.69844 0
M  V30 645 N 69.4707 1.49531 0.497807 0
M  V30 646 C 70.4007 1.6935 1.60757 0
M  V30 647 C 71.3817 0.542218 1.61227 0
M  V30 648 O 72.5667 0.778417 1.77917 0
M  V30 649 C 69.6967 1.76298 2.99226 0
M  V30 650 C 68.6507 2.91248 3.13622 0
M  V30 651 C 67.9767 2.83312 4.53474 0
M  V30 652 C 69.2767 4.3214 2.93346 0
M  V30 653 H 70.9707 2.62263 1.44425 0
M  V30 654 H 68.5167 1.26208 0.693367 0
M  V30 655 H 70.4697 1.88749 3.76765 0
M  V30 656 H 69.1937 0.799871 3.16654 0
M  V30 657 H 67.8527 2.78404 2.38509 0
M  V30 658 H 67.5007 1.84902 4.67782 0
M  V30 659 H 67.2007 3.60465 4.64046 0
M  V30 660 H 68.7247 2.97775 5.33069 0
M  V30 661 H 70.1387 4.45649 3.60652 0
M  V30 662 H 68.5357 5.1054 3.15387 0
M  V30 663 H 69.6057 4.46363 1.89441 0
M  V30 664 N 70.9488 -0.749086 1.3866 0
M  V30 665 C 72.1968 -1.50535 1.34847 0
M  V30 666 C 72.5178 -1.94909 -0.0595016 0
M  V30 667 O 71.7878 -1.67973 -1.00806 0
M  V30 668 H 70.3678 -0.558395 0.49619 0
M  V30 669 H 73.0298 -0.890165 1.73384 0
M  V30 670 H 72.1258 -2.39413 2.00219 0
M  V30 671 N 72.4269 -1.23603 -0.977757 0
M  V30 672 C 73.3899 -1.02069 -2.05218 0
M  V30 673 C 74.3899 0.0184305 -1.60789 0
M  V30 674 O 75.5799 -0.221569 -1.72785 0
M  V30 675 C 72.7119 -0.544926 -3.36517 0
M  V30 676 H 73.9049 -1.9742 -2.25755 0
M  V30 677 H 71.4579 -1.05684 -1.15155 0
M  V30 678 H 72.1929 0.412241 -3.21669 0
M  V30 679 H 71.9779 -1.2948 -3.70105 0
M  V30 680 H 73.4679 -0.414985 -4.15533 0
M  V30 681 N 73.905 1.17692 -1.04816 0
M  V30 682 C 74.835 2.23777 -0.666791 0
M  V30 683 C 75.816 1.66796 0.33361 0
M  V30 684 O 77.001 1.93039 0.212042 0
M  V30 685 C 74.131 3.47281 -0.0367933 0
M  V30 686 C 73.085 4.17059 -0.961546 0
M  V30 687 C 72.411 5.34342 -0.195626 0
M  V30 688 C 73.711 4.69713 -2.28402 0
M  V30 689 H 75.405 2.55933 -1.55367 0
M  V30 690 H 72.951 1.23019 -0.748484 0
M  V30 691 H 74.904 4.20706 0.241775 0
M  V30 692 H 73.628 3.14381 0.885004 0
M  V30 693 H 72.287 3.45541 -1.22462 0
M  V30 694 H 71.935 4.97692 0.728816 0
M  V30 695 H 71.635 5.81966 -0.811775 0
M  V30 696 H 73.159 6.10553 0.0757473 0
M  V30 697 H 74.573 5.34794 -2.06563 0
M  V30 698 H 72.97 5.279 -2.8538 0
M  V30 699 H 74.04 3.86726 -2.92525 0
M  V30 700 N 75.3831 0.828654 1.34056 0
M  V30 701 C 76.6311 0.41863 1.97717 0
M  V30 702 C 76.9521 -1.02314 1.66002 0
M  V30 703 O 76.2221 -1.71119 0.953683 0
M  V30 704 H 74.8021 0.151809 0.731412 0
M  V30 705 H 77.4641 1.05936 1.63596 0
M  V30 706 H 76.5601 0.542318 3.07352 0
M  V30 707 N 76.8612 -1.46375 0.584142 0
M  V30 708 C 78.1092 -2.01978 0.0701287 0
M  V30 709 C 78.4302 -1.4579 -1.295 0
M  V30 710 O 77.7002 -0.64314 -1.85042 0
M  V30 711 H 76.2802 -0.746648 0.0229345 0
M  V30 712 H 78.9422 -1.79461 0.760245 0
M  V30 713 H 78.0382 -3.121 0.0022064 0
M  V30 714 N 78.3393 -0.321999 -1.54275 0
M  V30 715 C 79.5873 0.280489 -2.00144 0
M  V30 716 C 79.9083 1.52777 -1.21178 0
M  V30 717 O 79.1783 1.9338 -0.313187 0
M  V30 718 H 77.7583 0.106632 -0.73935 0
M  V30 719 H 80.4203 -0.438184 -1.8991 0
M  V30 720 H 79.5163 0.537972 -3.07428 0
M  V30 721 N 79.8174 1.5752 -0.0501392 0
M  V30 722 C 80.7804 2.1037 0.909786 0
M  V30 723 C 81.7804 1.02308 1.24056 0
M  V30 724 O 82.9704 1.28385 1.17741 0
M  V30 725 C 80.1024 2.58708 2.21998 0
M  V30 726 H 81.2954 2.96479 0.451665 0
M  V30 727 H 78.8484 1.55038 0.198248 0
M  V30 728 H 79.5834 1.75989 2.72394 0
M  V30 729 H 79.3684 3.37675 1.99295 0
M  V30 730 H 80.8584 2.99747 2.9076 0
M  V30 731 N 81.2955 -0.223234 1.56011 0
M  V30 732 C 82.2255 -1.27988 1.95298 0
M  V30 733 C 83.2065 -1.48976 0.820979 0
M  V30 734 O 84.3915 -1.61188 1.08315 0
M  V30 735 C 81.5215 -2.63 2.26822 0
M  V30 736 C 80.4755 -2.56671 3.42497 0
M  V30 737 C 79.8015 -3.95697 3.59622 0
M  V30 738 C 81.1015 -2.11601 4.77517 0
M  V30 739 H 82.7955 -0.953525 2.8381 0
M  V30 740 H 80.3415 -0.457244 1.36548 0
M  V30 741 H 82.2945 -3.37077 2.52898 0
M  V30 742 H 81.0185 -2.9732 1.35161 0
M  V30 743 H 79.6775 -1.85051 3.16467 0
M  V30 744 H 79.3255 -4.27322 2.6534 0
M  V30 745 H 79.0255 -3.92345 4.37424 0
M  V30 746 H 80.5495 -4.71438 3.88044 0
M  V30 747 H 81.9635 -2.7542 5.02809 0
M  V30 748 H 80.3605 -2.19311 5.5859 0
M  V30 749 H 81.4305 -1.06824 4.72987 0
M  V30 750 N 82.7736 -1.49793 -0.48987 0
M  V30 751 C 84.0216 -1.59525 -1.24081 0
M  V30 752 C 84.3426 -0.288953 -1.92847 0
M  V30 753 O 83.6126 0.692436 -1.83254 0
M  V30 754 H 82.1926 -0.587796 -0.460983 0
M  V30 755 H 84.8546 -1.86477 -0.566778 0
M  V30 756 H 83.9506 -2.39696 -1.99881 0
M  V30 757 N 84.2517 0.741722 -1.39055 0
M  V30 758 C 85.6627 1.31966 -1.32068 0
M  V30 759 C 86.0137 1.96192 0.0180797 0
M  V30 760 O 85.1387 1.95861 0.920196 0
M  V30 761 C 85.7337 2.39954 -2.39181 0
M  V30 762 C 84.2927 2.93438 -2.35735 0
M  V30 763 C 83.4397 1.66936 -2.21422 0
M  V30 764 H 86.3907 0.539721 -1.4924 0
M  V30 765 H 86.4117 3.20182 -2.05581 0
M  V30 766 H 85.9237 1.9318 -3.36605 0
M  V30 767 H 84.0247 3.4451 -1.41929 0
M  V30 768 H 84.1377 3.4701 -3.30335 0
M  V30 769 H 82.5017 1.91016 -1.68478 0
M  V30 770 H 83.2847 1.22224 -3.20806 0
M  V30 771 N 85.7298 1.2412 0.971189 0
M  V30 772 C 86.9778 1.07668 1.71032 0
M  V30 773 C 87.2988 -0.385797 1.91146 0
M  V30 774 O 86.5688 -1.27569 1.4867 0
M  V30 775 H 85.1488 0.395429 0.633755 0
M  V30 776 H 87.8108 1.55984 1.16855 0
M  V30 777 H 86.9068 1.57195 2.69622 0
M  V30 778 N 87.2079 -1.17134 1.05439 0
M  V30 779 C 88.4559 -1.87085 0.764429 0
M  V30 780 C 88.7769 -1.81584 -0.710787 0
M  V30 781 O 88.0469 -1.24349 -1.51374 0
M  V30 782 H 86.6269 -0.692627 0.279779 0
M  V30 783 H 89.2889 -1.42087 1.33406 0
M  V30 784 H 88.3849 -2.92759 1.0816 0
M  V30 785 N 88.686 -0.835752 -1.33615 0
M  V30 786 C 89.633 -0.26473 -2.29277 0
M  V30 787 C 90.603 0.617712 -1.54187 0
M  V30 788 O 91.788 0.556641 -1.825 0
M  V30 789 C 88.928 0.556777 -3.40579 0
M  V30 790 C 88.041 -0.349339 -4.30585 0
M  V30 791 C 87.176 0.482969 -5.29 0
M  V30 792 C 86.215 -0.421732 -6.10645 0
M  V30 793 N 85.352 0.372262 -7.01112 0
M  V30 794 H 90.192 -1.08582 -2.77514 0
M  V30 795 H 87.729 -0.546927 -1.36554 0
M  V30 796 H 89.687 1.04852 -4.03809 0
M  V30 797 H 88.317 1.34286 -2.93542 0
M  V30 798 H 87.369 -0.959372 -3.68104 0
M  V30 799 H 88.681 -1.04445 -4.87742 0
M  V30 800 H 87.835 1.03866 -5.97743 0
M  V30 801 H 86.574 1.21153 -4.72412 0
M  V30 802 H 85.579 -0.989464 -5.40823 0
M  V30 803 H 86.804 -1.14861 -6.69316 0
M  V30 804 H 84.75 1.08426 -6.46977 0
M  V30 805 H 84.667 -0.264198 -7.55538 0
M  V30 806 H 85.935 0.910293 -7.74167 0
M  V30 807 N 90.1641 1.46063 -0.591896 0
M  V30 808 C 91.5751 1.85944 -0.167822 0
M  V30 809 C 91.9261 1.49429 1.27143 0
M  V30 810 O 91.0511 0.913515 1.96173 0
M  V30 811 C 91.6461 3.37489 -0.297794 0
M  V30 812 C 90.2051 3.76332 0.0714732 0
M  V30 813 C 89.3521 2.7006 -0.629509 0
M  V30 814 H 92.3031 1.37087 -0.799555 0
M  V30 815 H 92.3241 3.77532 0.474349 0
M  V30 816 H 91.8361 3.64034 -1.3454 0
M  V30 817 H 89.9371 3.55405 1.11886 0
M  V30 818 H 90.0501 4.78088 -0.311245 0
M  V30 819 H 88.4141 2.54607 -0.0687867 0
M  V30 820 H 89.1971 2.99444 -1.67894 0
M  V30 821 N 91.6422 0.330177 1.54103 0
M  V30 822 C 92.5722 -0.525353 2.27513 0
M  V30 823 C 93.5532 -1.11383 1.2856 0
M  V30 824 O 94.7382 -1.13773 1.57383 0
M  V30 825 C 91.8682 -1.6831 3.03791 0
M  V30 826 C 90.8222 -1.2236 4.10137 0
M  V30 827 C 90.1482 -2.46882 4.74293 0
M  V30 828 C 91.4482 -0.333697 5.21233 0
M  V30 829 H 93.1422 0.087013 2.99274 0
M  V30 830 H 90.6882 0.0432893 1.43935 0
M  V30 831 H 92.6412 -2.28795 3.5388 0
M  V30 832 H 91.3652 -2.32216 2.29659 0
M  V30 833 H 90.0242 -0.64165 3.60941 0
M  V30 834 H 89.6722 -3.09165 3.96769 0
M  V30 835 H 89.3722 -2.16825 5.46133 0
M  V30 836 H 90.8962 -3.08117 5.27159 0
M  V30 837 H 92.3102 -0.845013 5.67038 0
M  V30 838 H 90.7072 -0.125612 5.99969 0
M  V30 839 H 91.7772 0.633724 4.80741 0
M  V30 840 N 93.1203 -1.57491 0.0584922 0
M  V30 841 C 94.0673 -2.11958 -0.913376 0
M  V30 842 C 95.0373 -1.02875 -1.30407 0
M  V30 843 O 96.2223 -1.30464 -1.39226 0
M  V30 844 C 93.3623 -2.67497 -2.18035 0
M  V30 845 C 92.4753 -3.90691 -1.84349 0
M  V30 846 C 91.6103 -4.3452 -3.05559 0
M  V30 847 C 90.6493 -5.50395 -2.67827 0
M  V30 848 N 89.7863 -5.89244 -3.81754 0
M  V30 849 H 94.6263 -2.94704 -0.442017 0
M  V30 850 H 92.1633 -1.45643 -0.206545 0
M  V30 851 H 94.1213 -2.978 -2.92183 0
M  V30 852 H 92.7513 -1.87537 -2.62735 0
M  V30 853 H 91.8033 -3.66934 -1.00319 0
M  V30 854 H 93.1153 -4.7489 -1.5258 0
M  V30 855 H 92.2693 -4.66414 -3.87998 0
M  V30 856 H 91.0083 -3.49147 -3.40511 0
M  V30 857 H 90.0133 -5.18165 -1.83806 0
M  V30 858 H 91.2383 -6.3749 -2.34059 0
M  V30 859 H 89.1843 -5.06823 -4.16493 0
M  V30 860 H 89.1013 -6.68151 -3.53708 0
M  V30 861 H 90.3693 -6.25756 -4.64811 0
M  V30 862 N 94.5984 0.214957 -1.56127 0
M  V30 863 C 96.0094 0.781386 -1.69562 0
M  V30 864 C 96.3604 1.84707 -0.66165 0
M  V30 865 O 95.4854 2.156 0.185927 0
M  V30 866 C 96.0804 1.42411 -3.07416 0
M  V30 867 C 94.6394 1.93786 -3.22683 0
M  V30 868 C 93.7864 0.800438 -2.65496 0
M  V30 869 H 96.7374 -0.00980633 -1.58697 0
M  V30 870 H 96.7584 2.29309 -3.0364 0
M  V30 871 H 96.2704 0.64826 -3.82648 0
M  V30 872 H 94.3714 2.74152 -2.52332 0
M  V30 873 H 94.4844 2.1133 -4.29973 0
M  V30 874 H 92.8484 1.2095 -2.2415 0
M  V30 875 H 93.6314 0.0371471 -3.4328 0
M  V30 876 N 96.0765 1.50051 0.48192 0
M  V30 877 C 97.3225 1.60736 1.2366 0
M  V30 878 C 97.6555 0.301786 1.91841 0
M  V30 879 O 96.9305 -0.696025 1.8162 0
M  V30 880 C 97.2135 2.78009 2.28874 0
M  V30 881 C 97.0665 4.18416 1.65069 0
M  V30 882 C 98.3855 2.90867 3.30279 0
M  V30 883 H 95.5045 0.585031 0.448228 0
M  V30 884 H 98.1465 1.82402 0.531946 0
M  V30 885 H 96.2965 2.59667 2.88973 0
M  V30 886 H 97.9685 4.48322 1.0865 0
M  V30 887 H 96.2115 4.23177 0.954148 0
M  V30 888 H 96.8825 4.96381 2.41474 0
M  V30 889 H 99.3585 3.07623 2.80191 0
M  V30 890 H 98.2345 3.74566 4.01238 0
M  V30 891 H 98.4955 2.01021 3.93755 0
M  V30 892 N 97.5546 -0.734337 1.39446 0
M  V30 893 C 98.9656 -1.31264 1.32766 0
M  V30 894 C 99.3166 -1.96198 -0.00767497 0
M  V30 895 O 98.4416 -1.96346 -0.909796 0
M  V30 896 C 99.0366 -2.38682 2.4045 0
M  V30 897 C 97.5956 -2.92184 2.37288 0
M  V30 898 C 96.7426 -1.6576 2.22304 0
M  V30 899 H 99.6936 -0.531799 1.49525 0
M  V30 900 H 99.7146 -3.19087 2.07276 0
M  V30 901 H 99.2266 -1.91392 3.37625 0
M  V30 902 H 97.3276 -3.43752 1.43754 0
M  V30 903 H 97.4406 -3.45253 3.3217 0
M  V30 904 H 95.8046 -1.9012 1.69489 0
M  V30 905 H 96.5876 -1.20521 3.21449 0
M  V30 906 N 99.0327 -1.24633 -0.964593 0
M  V30 907 C 100.281 -1.08573 -1.70459 0
M  V30 908 C 100.602 0.375655 -1.91347 0
M  V30 909 O 99.8717 1.26779 -1.49345 0
M  V30 910 H 98.4517 -0.398784 -0.631649 0
M  V30 911 H 101.114 -1.56601 -1.16026 0
M  V30 912 H 100.21 -1.58623 -2.68785 0
M  V30 913 N 100.511 1.16574 -1.06058 0
M  V30 914 C 101.759 1.86677 -0.77434 0
M  V30 915 C 102.08 1.81959 0.701147 0
M  V30 916 O 101.35 1.2515 1.50713 0
M  V30 917 H 99.9298 0.691134 -0.283449 0
M  V30 918 H 102.592 1.41378 -1.34158 0
M  V30 919 H 101.688 2.92181 -1.09711 0
M  V30 920 N 101.989 0.842826 1.3317 0
M  V30 921 C 102.919 0.294028 2.31641 0
M  V30 922 C 103.9 -0.600401 1.59151 0
M  V30 923 O 105.085 -0.523124 1.87022 0
M  V30 924 C 102.215 -0.528416 3.43257 0
M  V30 925 C 101.169 0.27056 4.27144 0
M  V30 926 C 100.495 -0.675881 5.30411 0
M  V30 927 C 101.795 1.48981 5.00602 0
M  V30 928 H 103.489 1.11681 2.77791 0
M  V30 929 H 101.035 0.538478 1.33553 0
M  V30 930 H 102.988 -0.922674 4.11175 0
M  V30 931 H 101.712 -1.38445 2.95805 0
M  V30 932 H 100.371 0.646427 3.60856 0
M  V30 933 H 100.019 -1.52842 4.79216 0
M  V30 934 H 99.7189 -0.145374 5.8742 0
M  V30 935 H 101.243 -1.06757 6.01195 0
M  V30 936 H 102.657 1.16849 5.61266 0
M  V30 937 H 101.054 1.95739 5.6728 0
M  V30 938 H 102.124 2.25746 4.29147 0
M  V30 939 N 103.467 -1.45747 0.599634 0
M  V30 940 C 104.43 -2.28917 -0.113835 0
M  V30 941 C 105.43 -1.3933 -0.802729 0
M  V30 942 O 106.62 -1.61534 -0.652103 0
M  V30 943 C 103.752 -3.20152 -1.17114 0
M  V30 944 H 104.945 -2.93478 0.617289 0
M  V30 945 H 102.498 -1.52137 0.358327 0
M  V30 946 H 103.233 -2.60374 -1.93329 0
M  V30 947 H 103.018 -3.86133 -0.681468 0
M  V30 948 H 104.508 -3.82708 -1.67105 0
M  V30 949 N 104.945 -0.338344 -1.53925 0
M  V30 950 C 106.193 0.259245 -2.0043 0
M  V30 951 C 106.514 1.51484 -1.22791 0
M  V30 952 O 105.784 1.93037 -0.33368 0
M  V30 953 H 104.364 0.0987845 -0.740439 0
M  V30 954 H 107.026 -0.458302 -1.89435 0
M  V30 955 H 106.122 0.505334 -3.07982 0
M  V30 956 N 106.423 1.57458 -0.0668435 0
M  V30 957 C 107.386 2.11323 0.887422 0
M  V30 958 C 108.386 1.03618 1.22964 0
M  V30 959 O 109.576 1.29626 1.16373 0
M  V30 960 C 106.708 2.61048 2.19242 0
M  V30 961 H 107.901 2.96942 0.420194 0
M  V30 962 H 105.454 1.55239 0.181793 0
M  V30 963 H 106.189 1.78868 2.70512 0
M  V30 964 H 105.974 3.39769 1.95702 0
M  V30 965 H 107.464 3.02814 2.87565 0
M  V30 966 N 107.901 -0.206675 1.56239 0
M  V30 967 C 109.149 -0.927007 1.79586 0
M  V30 968 C 109.47 -1.8427 0.637929 0
M  V30 969 O 108.74 -1.92849 -0.344398 0
M  V30 970 H 107.32 -0.345292 0.662407 0
M  V30 971 H 109.982 -0.21496 1.93711 0
M  V30 972 H 109.078 -1.52501 2.72305 0
M  V30 973 N 109.379 -1.50304 -0.473955 0
M  V30 974 C 110.309 -1.71886 -1.58042 0
M  V30 975 C 111.29 -0.567799 -1.60344 0
M  V30 976 O 112.475 -0.806623 -1.76656 0
M  V30 977 C 109.605 -1.81036 -2.96384 0
M  V30 978 C 108.559 -2.962 -3.08949 0
M  V30 979 C 107.885 -2.9049 -4.48909 0
M  V30 980 C 109.185 -4.36752 -2.86434 0
M  V30 981 H 110.879 -2.64527 -1.40234 0
M  V30 982 H 108.425 -1.27295 -0.673201 0
M  V30 983 H 110.378 -1.94719 -3.73714 0
M  V30 984 H 109.102 -0.850147 -3.15341 0
M  V30 985 H 107.761 -2.82164 -2.3405 0
M  V30 986 H 107.409 -1.92321 -4.64781 0
M  V30 987 H 107.109 -3.67802 -4.58253 0
M  V30 988 H 108.633 -3.06218 -5.28264 0
M  V30 989 H 110.047 -4.5133 -3.53517 0
M  V30 990 H 108.444 -5.15493 -3.07225 0
M  V30 991 H 109.514 -4.49321 -1.82316 0
M  V30 992 N 110.857 0.726932 -1.39834 0
M  V30 993 C 112.105 1.4837 -1.37225 0
M  V30 994 C 112.426 1.94979 0.0284857 0
M  V30 995 O 111.696 1.69555 0.981213 0
M  V30 996 H 110.276 0.55043 -0.505011 0
M  V30 997 H 112.938 0.862468 -1.74778 0
M  V30 998 H 112.034 2.36198 -2.04003 0
M  V30 999 N 112.336 1.25143 0.95797 0
M  V30 1000 C 113.299 1.05321 2.03569 0
M  V30 1001 C 114.299 0.007152 1.60798 0
M  V30 1002 O 115.489 0.24903 1.72411 0
M  V30 1003 C 112.621 0.598394 3.35607 0
M  V30 1004 H 113.814 2.00986 2.22586 0
M  V30 1005 H 111.367 1.07502 1.13459 0
M  V30 1006 H 112.102 -0.361014 3.22284 0
M  V30 1007 H 111.887 1.35351 3.67998 0
M  V30 1008 H 113.377 0.48104 4.1482 0
M  V30 1009 N 113.814 -1.1601 1.06675 0
M  V30 1010 C 115.062 -1.86264 0.784229 0
M  V30 1011 C 115.383 -1.82328 -0.691488 0
M  V30 1012 O 114.653 -1.25947 -1.50047 0
M  V30 1013 H 113.233 -0.689621 0.28711 0
M  V30 1014 H 115.895 -1.40664 1.34906 0
M  V30 1015 H 114.991 -2.91595 1.11259 0
M  V30 1016 N 115.292 -0.849877 -1.32721 0
M  V30 1017 C 116.222 -0.306308 -2.31482 0
M  V30 1018 C 117.203 0.591952 -1.59468 0
M  V30 1019 O 118.388 0.513199 -1.87296 0
M  V30 1020 C 115.518 0.510204 -3.43532 0
M  V30 1021 C 114.472 -0.293209 -4.26994 0
M  V30 1022 C 113.798 0.647743 -5.30762 0
M  V30 1023 C 115.098 -1.51634 -4.99804 0
M  V30 1024 H 116.792 -1.13153 -2.77195 0
M  V30 1025 H 114.338 -0.545553 -1.33266 0
M  V30 1026 H 116.291 0.900856 -4.11658 0
M  V30 1027 H 115.015 1.36874 -2.96535 0
M  V30 1028 H 113.674 -0.665555 -3.60508 0
M  V30 1029 H 113.322 1.50299 -4.8002 0
M  V30 1030 H 113.022 0.11422 -5.87489 0
M  V30 1031 H 114.546 1.03567 -6.01753 0
M  V30 1032 H 115.96 -1.19824 -5.60638 0
M  V30 1033 H 114.357 -1.98745 -5.66234 0
M  V30 1034 H 115.427 -2.28018 -4.27943 0
M  V30 1035 N 116.77 1.45427 -0.607355 0
M  V30 1036 C 118.018 2.01841 -0.102253 0
M  V30 1037 C 118.339 1.47832 1.27164 0
M  V30 1038 O 117.609 0.672497 1.83995 0
M  V30 1039 H 116.189 0.746188 -0.0348101 0
M  V30 1040 H 118.851 1.78229 -0.7887 0
M  V30 1041 H 117.947 3.12057 -0.0518585 0
M  V30 1042 N 118.248 0.346503 1.53744 0
M  V30 1043 C 119.211 -0.496439 2.23759 0
M  V30 1044 C 120.211 -1.0252 1.2388 0
M  V30 1045 O 121.401 -0.913974 1.48297 0
M  V30 1046 C 118.533 -1.69187 2.95954 0
M  V30 1047 H 119.726 0.115952 2.99676 0
M  V30 1048 H 117.279 0.0978939 1.55993 0
M  V30 1049 H 118.014 -2.34288 2.24231 0
M  V30 1050 H 117.799 -1.31989 3.69217 0
M  V30 1051 H 119.289 -2.28969 3.49232 0
M  V30 1052 N 119.726 -1.57421 0.075193 0
M  V30 1053 C 120.973 -1.93618 -0.593146 0
M  V30 1054 C 121.301 -0.955484 -1.69413 0
M  V30 1055 O 120.556 0.0283251 -1.9568 0
M  V30 1056 C 120.855 -3.36428 -1.20626 0
M  V30 1057 C 120.521 -4.50307 -0.231078 0
M  V30 1058 C 119.183 -4.81186 0.0371936 0
M  V30 1059 C 121.535 -5.19374 0.435888 0
M  V30 1060 C 118.863 -5.78466 0.979461 0
M  V30 1061 C 121.215 -6.17665 1.3665 0
M  V30 1062 C 119.879 -6.46958 1.6432 0
M  V30 1063 H 119.149 -0.708499 -0.217047 0
M  V30 1064 H 121.796 -1.90937 0.146793 0
M  V30 1065 H 120.101 -3.35592 -2.02201 0
M  V30 1066 H 121.798 -3.61727 -1.73073 0
M  V30 1067 H 118.388 -4.26227 -0.450357 0
M  V30 1068 H 122.572 -4.95711 0.241748 0
M  V30 1069 H 117.828 -5.99487 1.20106 0
M  V30 1070 H 122.002 -6.70284 1.88924 0
M  V30 1071 H 119.629 -7.2215 2.37494 0
M  V30 1072 N 121.204 0.198386 -1.56346 0
M  V30 1073 C 122.615 0.763358 -1.70381 0
M  V30 1074 C 122.966 1.83995 -0.681203 0
M  V30 1075 O 122.091 2.15785 0.16305 0
M  V30 1076 C 122.686 1.39143 -3.08909 0
M  V30 1077 C 121.245 1.90352 -3.2472 0
M  V30 1078 C 120.392 0.772233 -2.6633 0
M  V30 1079 H 123.343 -0.0266377 -1.58678 0
M  V30 1080 H 123.364 2.26076 -3.06055 0
M  V30 1081 H 122.876 0.607638 -3.83314 0
M  V30 1082 H 120.977 2.71461 -2.55225 0
M  V30 1083 H 121.09 2.06757 -4.3219 0
M  V30 1084 H 119.454 1.18566 -2.2542 0
M  V30 1085 H 120.237 0.00073556 -3.433 0
M  V30 1086 N 122.682 1.50554 0.465978 0
M  V30 1087 C 123.645 1.69233 1.54574 0
M  V30 1088 C 124.645 0.562901 1.50626 0
M  V30 1089 O 125.835 0.830016 1.53155 0
M  V30 1090 C 122.967 1.7223 2.94193 0
M  V30 1091 H 124.16 2.65571 1.39327 0
M  V30 1092 H 121.713 1.40111 0.692711 0
M  V30 1093 H 122.448 0.77603 3.14878 0
M  V30 1094 H 122.233 2.54285 2.98466 0
M  V30 1095 H 123.723 1.88618 3.72576 0
M  V30 1096 N 124.16 -0.719506 1.40217 0
M  V30 1097 C 125.406 -1.48152 1.38488 0
M  V30 1098 C 125.739 -1.94195 -0.0141867 0
M  V30 1099 O 125.014 -1.67884 -0.982096 0
M  V30 1100 C 125.297 -2.71035 2.37091 0
M  V30 1101 C 125.15 -2.30912 3.86005 0
M  V30 1102 C 126.469 -3.73182 2.33288 0
M  V30 1103 H 123.588 -0.537395 0.504357 0
M  V30 1104 H 126.23 -0.821472 1.71324 0
M  V30 1105 H 124.38 -3.27352 2.0922 0
M  V30 1106 H 126.052 -1.80107 4.24687 0
M  V30 1107 H 124.295 -1.62958 4.02029 0
M  V30 1108 H 124.966 -3.18978 4.50508 0
M  V30 1109 H 127.442 -3.26485 2.57966 0
M  V30 1110 H 126.318 -4.56806 3.04334 0
M  V30 1111 H 126.579 -4.21202 1.34317 0
M  V30 1112 N 125.638 -1.25649 -0.95132 0
M  V30 1113 C 126.866 -1.13343 -1.73092 0
M  V30 1114 C 127.281 0.312434 -1.86197 0
M  V30 1115 O 126.638 1.21465 -1.36207 0
M  V30 1116 C 126.689 -1.78602 -3.14299 0
M  V30 1117 O 126.41 -3.17537 -3.01831 0
M  V30 1118 C 127.911 -1.72119 -4.08522 0
M  V30 1119 H 125.131 -0.395181 -0.542285 0
M  V30 1120 H 127.675 -1.66076 -1.19328 0
M  V30 1121 H 125.83 -1.29832 -3.64996 0
M  V30 1122 H 126.244 -3.49676 -3.90931 0
M  V30 1123 H 127.718 -2.22435 -5.052 0
M  V30 1124 H 128.195 -0.685635 -4.33815 0
M  V30 1125 H 128.801 -2.20393 -3.63741 0
M  V30 1126 N 127.117 1.15442 -1.07289 0
M  V30 1127 C 128.364 1.86213 -0.795668 0
M  V30 1128 C 128.692 1.82291 0.678238 0
M  V30 1129 O 127.947 1.24057 1.51355 0
M  V30 1130 C 128.246 3.3489 -1.24834 0
M  V30 1131 C 127.912 3.59007 -2.72809 0
M  V30 1132 C 126.574 3.65298 -3.13227 0
M  V30 1133 C 128.926 3.68762 -3.68326 0
M  V30 1134 C 126.254 3.78854 -4.4798 0
M  V30 1135 C 128.606 3.83842 -5.0284 0
M  V30 1136 C 127.27 3.88378 -5.4288 0
M  V30 1137 H 126.54 0.681403 -0.291155 0
M  V30 1138 H 129.187 1.36435 -1.34379 0
M  V30 1139 H 127.492 3.8687 -0.619595 0
M  V30 1140 H 129.189 3.88052 -1.01076 0
M  V30 1141 H 125.779 3.5475 -2.40521 0
M  V30 1142 H 129.963 3.63202 -3.38227 0
M  V30 1143 H 125.219 3.80623 -4.78472 0
M  V30 1144 H 129.393 3.90332 -5.76727 0
M  V30 1145 H 127.02 3.98635 -6.47298 0
M  V30 1146 N 128.595 0.856903 1.32268 0
M  V30 1147 C 130.006 0.515711 1.79436 0
M  V30 1148 C 130.357 -0.966586 1.70738 0
M  V30 1149 O 129.482 -1.75409 1.26731 0
M  V30 1150 C 130.077 0.929335 3.25805 0
M  V30 1151 C 128.636 0.640006 3.70919 0
M  V30 1152 C 127.783 1.12784 2.53328 0
M  V30 1153 H 130.734 1.04389 1.19535 0
M  V30 1154 H 130.755 0.246633 3.797 0
M  V30 1155 H 130.267 2.00821 3.32103 0
M  V30 1156 H 128.368 -0.428051 3.70133 0
M  V30 1157 H 128.481 1.20788 4.63624 0
M  V30 1158 H 126.845 0.548033 2.48734 0
M  V30 1159 H 127.628 2.21387 2.62379 0
M  V30 1160 N 130.073 -1.45103 0.615059 0
M  V30 1161 C 131.321 -2.01784 0.112955 0
M  V30 1162 C 131.642 -1.48504 -1.26378 0
M  V30 1163 O 130.912 -0.682245 -1.83636 0
M  V30 1164 H 129.492 -0.745993 0.0387668 0
M  V30 1165 H 132.154 -1.77808 0.798141 0
M  V30 1166 H 131.25 -3.12025 0.0684069 0
M  V30 1167 N 131.551 -0.354651 -1.53558 0
M  V30 1168 C 132.514 0.484566 -2.24019 0
M  V30 1169 C 133.514 1.01861 -1.24422 0
M  V30 1170 O 134.704 0.906097 -1.4878 0
M  V30 1171 C 131.836 1.67615 -2.96847 0
M  V30 1172 H 133.029 -0.131843 -2.9961 0
M  V30 1173 H 130.582 -0.106165 -1.55939 0
M  V30 1174 H 131.317 2.33095 -2.25471 0
M  V30 1175 H 131.102 1.30029 -3.69912 0
M  V30 1176 H 132.592 2.27114 -3.50441 0
M  V30 1177 N 133.029 1.57378 -0.0835403 0
M  V30 1178 C 133.959 2.1641 0.87686 0
M  V30 1179 C 134.94 1.09429 1.30228 0
M  V30 1180 O 136.125 1.37516 1.37124 0
M  V30 1181 C 133.255 2.73517 2.14022 0
M  V30 1182 C 132.209 3.85769 1.85381 0
M  V30 1183 C 131.535 4.29529 3.18448 0
M  V30 1184 C 132.835 5.09486 1.14984 0
M  V30 1185 H 134.529 2.96914 0.385059 0
M  V30 1186 H 132.075 1.42823 0.18377 0
M  V30 1187 H 134.028 3.13463 2.81636 0
M  V30 1188 H 132.752 1.90252 2.65465 0
M  V30 1189 H 131.411 3.46345 1.20169 0
M  V30 1190 H 131.059 3.43169 3.67755 0
M  V30 1191 H 130.759 5.05204 3.00071 0
M  V30 1192 H 132.283 4.72099 3.8724 0
M  V30 1193 H 133.697 5.46674 1.72687 0
M  V30 1194 H 132.094 5.90515 1.06826 0
M  V30 1195 H 133.164 4.84724 0.130749 0
M  V30 1196 N 134.507 -0.190092 1.56449 0
M  V30 1197 C 135.753 -0.911052 1.81184 0
M  V30 1198 C 136.086 -1.82699 0.658396 0
M  V30 1199 O 135.361 -1.91491 -0.340775 0
M  V30 1200 C 135.644 -1.72297 3.16205 0
M  V30 1201 C 135.497 -0.831419 4.42049 0
M  V30 1202 C 136.816 -2.69454 3.47969 0
M  V30 1203 H 133.935 -0.32977 0.659106 0
M  V30 1204 H 136.577 -0.178169 1.89163 0
M  V30 1205 H 134.727 -2.34778 3.09534 0
M  V30 1206 H 136.399 -0.220929 4.60771 0
M  V30 1207 H 134.642 -0.138406 4.33579 0
M  V30 1208 H 135.313 -1.43461 5.33032 0
M  V30 1209 H 137.789 -2.17104 3.54972 0
M  V30 1210 H 136.665 -3.23342 4.43555 0
M  V30 1211 H 136.926 -3.48744 2.71717 0
M  V30 1212 N 135.985 -1.50799 -0.457987 0
M  V30 1213 C 137.396 -1.55152 -1.0385 0
M  V30 1214 C 137.747 -0.362719 -1.92818 0
M  V30 1215 O 136.872 0.522915 -2.09987 0
M  V30 1216 C 137.467 -2.81173 -1.89017 0
M  V30 1217 C 136.026 -2.88164 -2.42154 0
M  V30 1218 C 135.173 -2.49591 -1.20829 0
M  V30 1219 H 138.124 -1.56874 -0.240068 0
M  V30 1220 H 138.145 -2.63769 -2.74238 0
M  V30 1221 H 137.657 -3.67677 -1.24238 0
M  V30 1222 H 135.758 -2.06042 -3.10447 0
M  V30 1223 H 135.871 -3.91356 -2.76364 0
M  V30 1224 H 134.235 -2.02322 -1.54719 0
M  V30 1225 H 135.018 -3.38418 -0.576927 0
M  V30 1226 N 137.463 0.71206 -1.40597 0
M  V30 1227 C 138.711 1.46907 -1.38791 0
M  V30 1228 C 139.032 1.94998 0.00780391 0
M  V30 1229 O 138.302 1.70587 0.963174 0
M  V30 1230 H 136.882 0.545043 -0.51082 0
M  V30 1231 H 139.544 0.843882 -1.75683 0
M  V30 1232 H 138.64 2.34021 -2.06496 0
M  V30 1233 N 138.941 1.26152 0.944643 0
M  V30 1234 C 140.189 1.11271 1.6871 0
M  V30 1235 C 140.51 -0.345166 1.91921 0
M  V30 1236 O 139.78 -1.24387 1.51343 0
M  V30 1237 H 138.36 0.408783 0.625224 0
M  V30 1238 H 141.022 1.58427 1.1352 0
M  V30 1239 H 140.118 1.62879 2.66227 0
M  V30 1240 N 140.419 -1.14872 1.07899 0
M  V30 1241 C 141.665 -1.86064 0.806725 0
M  V30 1242 C 141.998 -1.82434 -0.665706 0
M  V30 1243 O 141.273 -1.25138 -1.48899 0
M  V30 1244 C 141.556 -3.34929 1.32267 0
M  V30 1245 C 141.409 -3.47161 2.86006 0
M  V30 1246 C 142.728 -4.29863 0.943717 0
M  V30 1247 H 139.847 -0.675591 0.294526 0
M  V30 1248 H 142.489 -1.34925 1.33773 0
M  V30 1249 H 140.639 -3.78611 0.870974 0
M  V30 1250 H 142.311 -3.12302 3.39507 0
M  V30 1251 H 140.554 -2.88539 3.23925 0
M  V30 1252 H 141.225 -4.51777 3.17177 0
M  V30 1253 H 143.701 -3.9417 1.33302 0
M  V30 1254 H 142.577 -5.32494 1.33198 0
M  V30 1255 H 142.838 -4.41846 -0.149796 0
M  V30 1256 N 141.898 -0.863906 -1.31812 0
M  V30 1257 C 142.861 -0.320212 -2.26952 0
M  V30 1258 C 143.861 0.525369 -1.51975 0
M  V30 1259 O 145.051 0.335547 -1.70938 0
M  V30 1260 C 142.183 0.545919 -3.365 0
M  V30 1261 H 143.376 -1.16004 -2.76556 0
M  V30 1262 H 140.929 -0.638995 -1.42641 0
M  V30 1263 H 141.664 1.40718 -2.92179 0
M  V30 1264 H 141.449 -0.0594674 -3.92055 0
M  V30 1265 H 142.939 0.918796 -4.07367 0
M  V30 1266 N 143.376 1.44774 -0.622745 0
M  V30 1267 C 144.653 1.95522 -0.0551974 0
M  V30 1268 C 145.033 1.5649 1.41683 0
M  V30 1269 O 144.381 0.834848 2.12703 0
M  V30 1270 C 144.591 3.4796 -0.269242 0
M  V30 1271 C 145.939 4.24306 -0.158014 0
M  V30 1272 O 146.963 3.55637 -0.200162 0
M  V30 1273 O 145.822 5.46471 -0.0558693 0
M  V30 1274 H 142.916 0.826556 0.0271015 0
M  V30 1275 H 145.462 1.54866 -0.693864 0
M  V30 1276 H 144.234 3.6939 -1.29099 0
M  V30 1277 H 143.857 3.95543 0.403966 0
M  V30 1278 N 144.854 0.36279 1.53368 0
M  V30 1279 C 145.817 -0.472679 2.24273 0
M  V30 1280 C 146.817 -1.012 1.24961 0
M  V30 1281 O 148.007 -0.898194 1.49259 0
M  V30 1282 C 145.139 -1.66039 2.97731 0
M  V30 1283 H 146.332 0.14773 2.99536 0
M  V30 1284 H 143.885 0.114434 1.55881 0
M  V30 1285 H 144.62 -2.31896 2.26704 0
M  V30 1286 H 144.405 -1.28066 3.70596 0
M  V30 1287 H 145.895 -2.25252 3.51641 0
M  V30 1288 N 146.332 -1.57332 0.0918853 0
M  V30 1289 C 147.295 -2.12708 -0.85369 0
M  V30 1290 C 148.295 -1.05561 -1.213 0
M  V30 1291 O 149.485 -1.31461 -1.14296 0
M  V30 1292 C 146.617 -2.64503 -2.15061 0
M  V30 1293 H 147.81 -2.97573 -0.3729 0
M  V30 1294 H 145.363 -1.55509 -0.157072 0
M  V30 1295 H 146.098 -1.83149 -2.67632 0
M  V30 1296 H 145.883 -3.4284 -1.90272 0
M  V30 1297 H 147.373 -3.07351 -2.82711 0
M  V30 1298 N 147.81 0.181792 -1.56548 0
M  V30 1299 C 148.773 1.20894 -1.94724 0
M  V30 1300 C 149.773 1.37738 -0.829747 0
M  V30 1301 O 150.963 1.35323 -1.09697 0
M  V30 1302 C 148.095 2.57593 -2.23291 0
M  V30 1303 H 149.288 0.882275 -2.86629 0
M  V30 1304 H 146.841 0.423838 -1.50444 0
M  V30 1305 H 147.576 2.95291 -1.34067 0
M  V30 1306 H 147.361 2.46735 -3.04736 0
M  V30 1307 H 148.851 3.31637 -2.53785 0
M  V30 1308 N 149.288 1.51039 0.449983 0
M  V30 1309 C 150.251 1.70863 1.5277 0
M  V30 1310 C 151.251 0.578846 1.5002 0
M  V30 1311 O 152.441 0.846213 1.52266 0
M  V30 1312 C 149.573 1.75341 2.9235 0
M  V30 1313 H 150.766 2.67034 1.36502 0
M  V30 1314 H 148.319 1.40838 0.677812 0
M  V30 1315 H 149.054 0.809383 3.14037 0
M  V30 1316 H 148.839 2.57436 2.95752 0
M  V30 1317 H 150.329 1.92559 3.70555 0
M  V30 1318 N 150.766 -0.704594 1.40972 0
M  V30 1319 C 151.996 -1.49138 1.42974 0
M  V30 1320 C 152.404 -1.89175 0.0308406 0
M  V30 1321 O 151.747 -1.56734 -0.958138 0
M  V30 1322 C 151.809 -2.79016 2.26694 0
M  V30 1323 C 151.473 -2.61236 3.74973 0
M  V30 1324 C 152.47 -2.27773 4.67349 0
M  V30 1325 C 150.155 -2.77158 4.18914 0
M  V30 1326 C 152.149 -2.10457 6.01653 0
M  V30 1327 C 149.836 -2.59459 5.53285 0
M  V30 1328 C 150.834 -2.26158 6.4447 0
M  V30 1329 O 150.522 -2.08605 7.76363 0
M  V30 1330 H 150.254 -0.466443 0.489292 0
M  V30 1331 H 152.808 -0.8758 1.85793 0
M  V30 1332 H 151.038 -3.42947 1.78673 0
M  V30 1333 H 152.727 -3.40782 2.20504 0
M  V30 1334 H 153.493 -2.15095 4.34694 0
M  V30 1335 H 149.372 -3.02064 3.48251 0
M  V30 1336 H 152.916 -1.84387 6.72791 0
M  V30 1337 H 148.813 -2.71725 5.85522 0
M  V30 1338 H 149.581 -2.23439 7.87412 0
M  V30 1339 N 152.244 -1.26651 -0.937939 0
M  V30 1340 C 153.191 -1.0849 -2.03712 0
M  V30 1341 C 154.161 0.011033 -1.66096 0
M  V30 1342 O 155.346 -0.149353 -1.90215 0
M  V30 1343 C 152.486 -0.72735 -3.37348 0
M  V30 1344 C 151.599 -1.89986 -3.87981 0
M  V30 1345 C 150.734 -1.48513 -5.10017 0
M  V30 1346 C 149.773 -2.62575 -5.5292 0
M  V30 1347 N 148.91 -2.21762 -6.66158 0
M  V30 1348 H 153.75 -2.02551 -2.18579 0
M  V30 1349 H 151.287 -1.00844 -1.07093 0
M  V30 1350 H 153.245 -0.50092 -4.14182 0
M  V30 1351 H 151.875 0.176298 -3.22318 0
M  V30 1352 H 150.927 -2.23913 -3.07518 0
M  V30 1353 H 152.239 -2.75586 -4.15757 0
M  V30 1354 H 151.393 -1.21934 -5.94321 0
M  V30 1355 H 150.132 -0.60009 -4.83994 0
M  V30 1356 H 149.137 -2.8988 -4.67172 0
M  V30 1357 H 150.362 -3.51685 -5.80943 0
M  V30 1358 H 148.308 -1.35696 -6.41812 0
M  V30 1359 H 148.225 -3.00903 -6.93537 0
M  V30 1360 H 149.493 -1.98403 -7.53828 0
M  V30 1361 N 153.722 1.14298 -1.08507 0
M  V30 1362 C 154.685 2.17607 -0.719711 0
M  V30 1363 C 155.685 1.58907 0.245997 0
M  V30 1364 O 156.875 1.74181 0.0254081 0
M  V30 1365 C 154.007 3.40842 -0.0627695 0
M  V30 1366 H 155.2 2.51443 -1.63452 0
M  V30 1367 H 152.753 1.28963 -0.88307 0
M  V30 1368 H 153.488 3.12587 0.863716 0
M  V30 1369 H 153.273 3.84713 -0.757504 0
M  V30 1370 H 154.763 4.17221 0.177786 0
M  V30 1371 N 155.201 0.870884 1.31352 0
M  V30 1372 C 156.164 0.332243 2.26779 0
M  V30 1373 C 157.164 -0.517302 1.52252 0
M  V30 1374 O 158.354 -0.326477 1.71113 0
M  V30 1375 C 155.486 -0.528066 3.36785 0
M  V30 1376 H 156.679 1.17469 2.75937 0
M  V30 1377 H 154.232 0.64655 1.423 0
M  V30 1378 H 154.967 -1.39167 2.92922 0
M  V30 1379 H 154.752 0.0802582 3.92018 0
M  V30 1380 H 156.242 -0.897179 4.07849 0
M  V30 1381 N 156.679 -1.44442 0.630414 0
M  V30 1382 C 157.626 -2.30678 -0.0749355 0
M  V30 1383 C 158.596 -1.4344 -0.837502 0
M  V30 1384 O 159.781 -1.72343 -0.818684 0
M  V30 1385 C 156.921 -3.28706 -1.05103 0
M  V30 1386 C 156.034 -4.31046 -0.286954 0
M  V30 1387 C 155.169 -5.16167 -1.2548 0
M  V30 1388 C 154.208 -6.10216 -0.479843 0
M  V30 1389 N 153.345 -6.88039 -1.39811 0
M  V30 1390 H 158.185 -2.90454 0.666386 0
M  V30 1391 H 155.722 -1.43107 0.340404 0
M  V30 1392 H 157.68 -3.84027 -1.63031 0
M  V30 1393 H 156.31 -2.70632 -1.75949 0
M  V30 1394 H 155.362 -3.78203 0.408243 0
M  V30 1395 H 156.674 -4.97794 0.316657 0
M  V30 1396 H 155.828 -5.76002 -1.90544 0
M  V30 1397 H 154.567 -4.49491 -1.89233 0
M  V30 1398 H 153.572 -5.49491 0.184295 0
M  V30 1399 H 154.797 -6.78928 0.152965 0
M  V30 1400 H 152.743 -6.24032 -2.02287 0
M  V30 1401 H 152.66 -7.51223 -0.848508 0
M  V30 1402 H 153.928 -7.52397 -2.03762 0
M  V30 1403 N 158.157 -0.370918 -1.53173 0
M  V30 1404 C 159.12 0.460778 -2.24521 0
M  V30 1405 C 160.12 1.00536 -1.25496 0
M  V30 1406 O 161.31 0.890266 -1.49733 0
M  V30 1407 C 158.442 1.64457 -2.98608 0
M  V30 1408 H 159.635 -0.163613 -2.99453 0
M  V30 1409 H 157.188 -0.122699 -1.55818 0
M  V30 1410 H 157.923 2.30691 -2.2793 0
M  V30 1411 H 157.708 1.26099 -3.7127 0
M  V30 1412 H 159.198 2.23384 -3.5283 0
M  V30 1413 N 159.635 1.57281 -0.100228 0
M  V30 1414 C 160.883 1.94153 0.561157 0
M  V30 1415 C 161.204 0.983157 1.68401 0
M  V30 1416 O 160.474 0.0361132 1.95867 0
M  V30 1417 H 159.054 0.716791 0.210283 0
M  V30 1418 H 161.716 1.94202 -0.164765 0
M  V30 1419 H 160.812 2.96709 0.968008 0
M  V30 1420 N 161.113 -0.173488 1.56642 0
M  V30 1421 C 162.076 -1.19859 1.95362 0
M  V30 1422 C 163.076 -1.37296 0.83704 0
M  V30 1423 O 164.266 -1.34739 1.10413 0
M  V30 1424 C 161.398 -2.56405 2.24654 0
M  V30 1425 H 162.591 -0.867062 2.87092 0
M  V30 1426 H 160.144 -0.415853 1.50666 0
M  V30 1427 H 160.879 -2.94576 1.35631 0
M  V30 1428 H 160.664 -2.45115 3.06041 0
M  V30 1429 H 162.154 -3.30287 2.5554 0
M  V30 1430 N 162.591 -1.51276 -0.441967 0
M  V30 1431 C 163.839 -1.63392 -1.18943 0
M  V30 1432 C 164.16 -0.350159 -1.9183 0
M  V30 1433 O 163.43 0.633784 -1.85364 0
M  V30 1434 H 162.01 -0.602164 -0.442049 0
M  V30 1435 H 164.672 -1.88186 -0.507165 0
M  V30 1436 H 163.768 -2.45934 -1.92154 0
M  V30 1437 N 164.069 0.697108 -1.41344 0
M  V30 1438 C 164.999 1.82353 -1.45841 0
M  V30 1439 C 165.98 1.67115 -0.317247 0
M  V30 1440 O 167.165 1.86871 -0.528474 0
M  V30 1441 C 164.295 3.20476 -1.33838 0
M  V30 1442 C 163.249 3.50415 -2.4575 0
M  V30 1443 C 162.575 4.87878 -2.18813 0
M  V30 1444 C 163.875 3.49546 -3.88091 0
M  V30 1445 H 165.569 1.78846 -2.40113 0
M  V30 1446 H 163.115 0.859028 -1.15571 0
M  V30 1447 H 165.068 3.98988 -1.35596 0
M  V30 1448 H 163.792 3.24604 -0.360498 0
M  V30 1449 H 162.451 2.74253 -2.43271 0
M  V30 1450 H 162.099 4.8863 -1.19371 0
M  V30 1451 H 161.799 5.08875 -2.93803 0
M  V30 1452 H 163.323 5.68702 -2.22284 0
M  V30 1453 H 164.737 4.18066 -3.92293 0
M  V30 1454 H 163.134 3.82075 -4.62751 0
M  V30 1455 H 164.204 2.48552 -4.16353 0
M  V30 1456 N 165.547 1.27147 0.931209 0
M  V30 1457 C 166.795 1.13055 1.6752 0
M  V30 1458 C 167.116 -0.324791 1.92276 0
M  V30 1459 O 166.386 -1.22775 1.52654 0
M  V30 1460 H 164.966 0.415391 0.620854 0
M  V30 1461 H 167.628 1.59623 1.11833 0
M  V30 1462 H 166.724 1.65694 2.64485 0
M  V30 1463 N 167.025 -1.13721 1.09112 0
M  V30 1464 C 168.273 -1.84559 0.823562 0
M  V30 1465 C 168.594 -1.83754 -0.652658 0
M  V30 1466 O 167.864 -1.29102 -1.47342 0
M  V30 1467 H 166.444 -0.683376 0.301673 0
M  V30 1468 H 169.106 -1.37771 1.37859 0
M  V30 1469 H 168.202 -2.8917 1.17419 0
M  V30 1470 N 168.503 -0.877838 -1.30888 0
M  V30 1471 C 169.749 -0.493426 -1.96706 0
M  V30 1472 C 170.082 0.953504 -1.6918 0
M  V30 1473 O 169.357 1.67266 -0.992594 0
M  V30 1474 C 169.64 -0.760429 -3.51979 0
M  V30 1475 C 169.493 -2.25747 -3.89048 0
M  V30 1476 C 170.812 -0.232148 -4.39487 0
M  V30 1477 H 167.931 -0.180746 -0.714493 0
M  V30 1478 H 170.573 -1.10052 -1.54882 0
M  V30 1479 H 168.723 -0.243715 -3.87735 0
M  V30 1480 H 170.395 -2.84204 -3.63354 0
M  V30 1481 H 168.638 -2.72694 -3.37373 0
M  V30 1482 H 169.309 -2.39491 -4.97341 0
M  V30 1483 H 171.785 -0.674314 -4.106 0
M  V30 1484 H 170.661 -0.448355 -5.47066 0
M  V30 1485 H 170.922 0.866297 -4.33529 0
M  V30 1486 N 169.982 1.44106 -0.638065 0
M  V30 1487 C 171.393 1.85316 -0.226894 0
M  V30 1488 C 171.744 1.53399 1.22324 0
M  V30 1489 O 170.869 0.975463 1.93167 0
M  V30 1490 C 171.464 3.3637 -0.405013 0
M  V30 1491 C 170.023 3.76369 -0.0482902 0
M  V30 1492 C 169.17 2.67921 -0.715108 0
M  V30 1493 H 172.121 1.34474 -0.842764 0
M  V30 1494 H 172.142 3.7885 0.354 0
M  V30 1495 H 171.654 3.59569 -1.46053 0
M  V30 1496 H 169.755 3.58784 1.00522 0
M  V30 1497 H 169.868 4.76856 -0.463187 0
M  V30 1498 H 168.232 2.54259 -0.149753 0
M  V30 1499 H 169.015 2.93951 -1.77335 0
M  V30 1500 N 171.46 0.379036 1.52974 0
M  V30 1501 C 172.708 -0.206014 2.01047 0
M  V30 1502 C 173.029 -1.48175 1.26765 0
M  V30 1503 O 172.299 -1.92085 0.384743 0
M  V30 1504 H 170.879 -0.0791184 0.742798 0
M  V30 1505 H 173.541 0.508366 1.88153 0
M  V30 1506 H 172.637 -0.423501 3.09213 0
M  V30 1507 N 172.938 -1.57226 0.108567 0
M  V30 1508 C 174.184 -1.95121 -0.552761 0
M  V30 1509 C 174.517 -0.991345 -1.66991 0
M  V30 1510 O 173.792 -0.0267211 -1.94482 0
M  V30 1511 C 174.075 -3.43039 -1.09528 0
M  V30 1512 C 173.928 -4.49797 0.0177332 0
M  V30 1513 C 175.247 -3.92567 -1.98945 0
M  V30 1514 H 172.366 -0.709496 -0.199461 0
M  V30 1515 H 175.008 -1.89126 0.182011 0
M  V30 1516 H 173.158 -3.48279 -1.72146 0
M  V30 1517 H 174.83 -4.56661 0.652584 0
M  V30 1518 H 173.073 -4.284 0.682309 0
M  V30 1519 H 173.744 -5.50528 -0.402919 0
M  V30 1520 H 176.22 -3.89565 -1.46214 0
M  V30 1521 H 175.096 -4.96605 -2.33827 0
M  V30 1522 H 175.357 -3.32648 -2.91201 0
M  V30 1523 N 174.416 0.165178 -1.56732 0
M  V30 1524 C 175.664 0.879068 -1.8198 0
M  V30 1525 C 175.985 1.82514 -0.686561 0
M  V30 1526 O 175.255 1.93694 0.293146 0
M  V30 1527 H 173.835 0.327608 -0.671329 0
M  V30 1528 H 176.497 0.163526 -1.94213 0
M  V30 1529 H 175.593 1.45228 -2.76252 0
M  V30 1530 N 175.894 1.51508 0.433938 0
M  V30 1531 C 177.142 1.6402 1.18075 0
M  V30 1532 C 177.463 0.360328 1.91642 0
M  V30 1533 O 176.733 -0.623945 1.85698 0
M  V30 1534 H 175.313 0.6045 0.43885 0
M  V30 1535 H 177.975 1.88452 0.497178 0
M  V30 1536 H 177.071 2.46949 1.90847 0
M  V30 1537 N 177.372 -0.689602 1.41712 0
M  V30 1538 C 178.302 -1.81577 1.46806 0
M  V30 1539 C 179.283 -1.66945 0.326105 0
M  V30 1540 O 180.468 -1.86588 0.538377 0
M  V30 1541 C 177.598 -3.19762 1.35535 0
M  V30 1542 C 176.552 -3.49107 2.47605 0
M  V30 1543 C 175.878 -4.86711 2.21397 0
M  V30 1544 C 177.178 -3.47483 3.89939 0
M  V30 1545 H 178.872 -1.7757 2.41058 0
M  V30 1546 H 176.418 -0.852887 1.16025 0
M  V30 1547 H 178.371 -3.98263 1.3771 0
M  V30 1548 H 177.095 -3.24409 0.377708 0
M  V30 1549 H 175.754 -2.72959 2.44722 0
M  V30 1550 H 175.402 -4.8799 1.21961 0
M  V30 1551 H 175.102 -5.0731 2.96497 0
M  V30 1552 H 176.626 -5.67515 2.25297 0
M  V30 1553 H 178.04 -4.1598 3.94505 0
M  V30 1554 H 176.437 -3.79615 4.64771 0
M  V30 1555 H 177.507 -2.46341 4.17665 0
M  V30 1556 N 178.85 -1.27639 -0.924453 0
M  V30 1557 C 180.098 -1.13941 -1.66918 0
M  V30 1558 C 180.419 0.314589 -1.92446 0
M  V30 1559 O 179.689 1.21964 -1.53303 0
M  V30 1560 H 178.269 -0.418678 -0.618642 0
M  V30 1561 H 180.931 -1.60213 -1.10985 0
M  V30 1562 H 180.027 -1.67094 -2.63602 0
M  V30 1563 N 180.328 1.1314 -1.09713 0
M  V30 1564 C 181.574 1.84757 -0.836224 0
M  V30 1565 C 181.907 1.8347 0.636598 0
M  V30 1566 O 181.182 1.27491 1.46889 0
M  V30 1567 C 181.465 3.32782 -1.37578 0
M  V30 1568 C 181.318 3.42567 -2.91493 0
M  V30 1569 C 182.637 4.28307 -1.01198 0
M  V30 1570 H 179.756 0.67082 -0.305236 0
M  V30 1571 H 182.398 1.3278 -1.35903 0
M  V30 1572 H 180.548 3.77177 -0.931097 0
M  V30 1573 H 182.22 3.06862 -3.44432 0
M  V30 1574 H 180.463 2.83349 -3.28475 0
M  V30 1575 H 181.134 4.46674 -3.24324 0
M  V30 1576 H 183.61 3.91999 -1.39556 0
M  V30 1577 H 182.486 5.30307 -1.41653 0
M  V30 1578 H 182.747 4.42029 0.0794833 0
M  V30 1579 N 181.806 0.884767 1.30421 0
M  V30 1580 C 183.031 0.517288 2.00845 0
M  V30 1581 C 183.456 -0.886779 1.65885 0
M  V30 1582 O 182.814 -1.58768 0.875354 0
M  V30 1583 C 182.862 0.698994 3.5376 0
M  V30 1584 O 181.966 -0.255208 4.1161 0
M  V30 1585 H 181.307 0.203872 0.631927 0
M  V30 1586 H 183.837 1.19225 1.66272 0
M  V30 1587 H 183.847 0.597912 4.03595 0
M  V30 1588 H 182.522 1.72271 3.78544 0
M  V30 1589 H 181.099 -0.10784 3.72744 0
M  V30 1590 N 183.284 -1.43765 0.645699 0
M  V30 1591 C 184.247 -2.29163 -0.0409488 0
M  V30 1592 C 185.247 -1.41813 -0.757996 0
M  V30 1593 O 186.437 -1.63527 -0.600382 0
M  V30 1594 C 183.569 -3.23716 -1.06869 0
M  V30 1595 H 184.762 -2.91366 0.710345 0
M  V30 1596 H 182.315 -1.5092 0.406547 0
M  V30 1597 H 183.05 -2.66393 -1.84947 0
M  V30 1598 H 182.835 -3.88105 -0.558277 0
M  V30 1599 H 184.325 -3.87831 -1.54845 0
M  V30 1600 N 184.763 -0.387143 -1.52771 0
M  V30 1601 C 186.011 0.195349 -2.01154 0
M  V30 1602 C 186.332 1.475 -1.27549 0
M  V30 1603 O 185.602 1.91878 -0.394924 0
M  V30 1604 H 184.182 0.075178 -0.743207 0
M  V30 1605 H 186.844 -0.518337 -1.87881 0
M  V30 1606 H 185.94 0.407096 -3.09434 0
M  V30 1607 N 186.241 1.57166 -0.116904 0
M  V30 1608 C 187.204 2.14039 0.819742 0
M  V30 1609 C 188.204 1.07477 1.19605 0
M  V30 1610 O 189.394 1.33263 1.1219 0
M  V30 1611 C 186.526 2.67891 2.10826 0
M  V30 1612 H 187.719 2.98128 0.325511 0
M  V30 1613 H 185.272 1.55739 0.132312 0
M  V30 1614 H 186.007 1.87384 2.64685 0
M  V30 1615 H 185.792 3.45823 1.84793 0
M  V30 1616 H 187.282 3.11809 2.77785 0
M  V30 1617 N 187.719 -0.156864 1.56817 0
M  V30 1618 C 188.965 -0.872416 1.83076 0
M  V30 1619 C 189.298 -1.81261 0.697001 0
M  V30 1620 O 188.573 -1.92171 -0.30008 0
M  V30 1621 C 188.856 -1.65551 3.19789 0
M  V30 1622 C 188.709 -0.737467 4.43713 0
M  V30 1623 C 190.028 -2.62012 3.53606 0
M  V30 1624 H 187.147 -0.315715 0.665953 0
M  V30 1625 H 189.789 -0.138004 1.89498 0
M  V30 1626 H 187.939 -2.28159 3.14445 0
M  V30 1627 H 189.611 -0.123143 4.61136 0
M  V30 1628 H 187.854 -0.0464067 4.33775 0
M  V30 1629 H 188.525 -1.32122 5.35955 0
M  V30 1630 H 191.001 -2.09525 3.59497 0
M  V30 1631 H 189.877 -3.13861 4.50314 0
M  V30 1632 H 190.138 -3.42902 2.79053 0
M  V30 1633 N 189.197 -1.51736 -0.425897 0
M  V30 1634 C 190.443 -1.65214 -1.1761 0
M  V30 1635 C 190.776 -0.372778 -1.90589 0
M  V30 1636 O 190.051 0.628139 -1.84078 0
M  V30 1637 C 190.334 -2.86312 -2.18398 0
M  V30 1638 C 190.187 -4.24254 -1.49426 0
M  V30 1639 C 191.506 -3.02925 -3.19256 0
M  V30 1640 H 188.625 -0.601263 -0.426206 0
M  V30 1641 H 191.267 -1.8425 -0.463882 0
M  V30 1642 H 189.417 -2.70213 -2.79137 0
M  V30 1643 H 191.089 -4.52046 -0.919362 0
M  V30 1644 H 189.332 -4.26426 -0.796432 0
M  V30 1645 H 190.003 -5.05001 -2.22885 0
M  V30 1646 H 192.479 -3.1781 -2.68581 0
M  V30 1647 H 191.355 -3.89199 -3.8706 0
M  V30 1648 H 191.616 -2.15497 -3.86023 0
M  V30 1649 N 190.675 0.682077 -1.42076 0
M  V30 1650 C 192.086 1.26246 -1.37546 0
M  V30 1651 C 192.437 1.96092 -0.0651481 0
M  V30 1652 O 191.562 1.99587 0.836297 0
M  V30 1653 C 192.157 2.29594 -2.49143 0
M  V30 1654 C 190.716 2.83175 -2.47969 0
M  V30 1655 C 189.863 1.57395 -2.28303 0
M  V30 1656 H 192.814 0.475937 -1.51395 0
M  V30 1657 H 192.835 3.11175 -2.18976 0
M  V30 1658 H 192.347 1.78729 -3.44496 0
M  V30 1659 H 190.448 3.3818 -1.56413 0
M  V30 1660 H 190.561 3.32687 -3.44755 0
M  V30 1661 H 188.925 1.83699 -1.76428 0
M  V30 1662 H 189.708 1.08507 -3.25701 0
M  V30 1663 N 192.153 1.28127 0.917671 0
M  V30 1664 C 193.085 1.07517 2.02417 0
M  V30 1665 C 194.098 0.0281099 1.62776 0
M  V30 1666 O 195.287 0.270748 1.76435 0
M  V30 1667 C 192.387 0.610957 3.33347 0
M  V30 1668 C 191.56 1.73255 4.01624 0
M  V30 1669 C 190.619 1.26238 5.10833 0
M  V30 1670 O 189.645 1.96389 5.34247 0
M  V30 1671 N 190.847 0.123448 5.80369 0
M  V30 1672 H 193.612 2.02806 2.20658 0
M  V30 1673 H 191.173 1.19827 1.08871 0
M  V30 1674 H 193.165 0.280101 4.0373 0
M  V30 1675 H 191.735 -0.24898 3.11607 0
M  V30 1676 H 190.955 2.23319 3.24842 0
M  V30 1677 H 192.243 2.48503 4.43986 0
M  V30 1678 H 191.641 -0.461847 5.63812 0
M  V30 1679 H 190.198 -0.148158 6.51632 0
M  V30 1680 N 193.631 -1.12557 1.10312 0
M  V30 1681 C 195.042 -1.65574 0.862678 0
M  V30 1682 C 195.393 -1.86566 -0.607256 0
M  V30 1683 O 194.518 -1.59121 -1.46662 0
M  V30 1684 C 195.113 -3.00776 1.55947 0
M  V30 1685 C 193.672 -3.50748 1.36576 0
M  V30 1686 C 192.819 -2.25797 1.60968 0
M  V30 1687 H 195.77 -0.963552 1.26101 0
M  V30 1688 H 195.791 -3.67185 0.997753 0
M  V30 1689 H 195.303 -2.85465 2.62928 0
M  V30 1690 H 193.404 -3.71245 0.317531 0
M  V30 1691 H 193.517 -4.30289 2.10686 0
M  V30 1692 H 191.881 -2.32841 1.03234 0
M  V30 1693 H 192.664 -2.13043 2.69198 0
M  V30 1694 N 195.109 -0.891671 -1.2995 0
M  V30 1695 C 196.357 -0.512486 -1.95494 0
M  V30 1696 C 196.678 0.942776 -1.70695 0
M  V30 1697 O 195.948 1.66374 -1.03424 0
M  V30 1698 H 194.528 -0.186533 -0.723336 0
M  V30 1699 H 197.19 -1.13621 -1.58355 0
M  V30 1700 H 196.286 -0.688342 -3.04415 0
M  V30 1701 N 196.587 1.43421 -0.653314 0
M  V30 1702 C 197.55 2.29182 0.0287951 0
M  V30 1703 C 198.55 1.42213 0.750465 0
M  V30 1704 O 199.74 1.63843 0.591701 0
M  V30 1705 C 196.872 3.24278 1.05151 0
M  V30 1706 H 198.065 2.90985 -0.725786 0
M  V30 1707 H 195.618 1.50702 -0.414545 0
M  V30 1708 H 196.353 2.6737 1.83532 0
M  V30 1709 H 196.138 3.88396 0.537687 0
M  V30 1710 H 197.628 3.88647 1.52786 0
M  V30 1711 N 198.065 0.39524 1.52563 0
M  V30 1712 C 199.313 -0.184678 2.01254 0
M  V30 1713 C 199.634 -1.46822 1.28329 0
M  V30 1714 O 198.904 -1.91666 0.405094 0
M  V30 1715 H 197.484 -0.0712355 0.743596 0
M  V30 1716 H 200.146 0.528293 1.87603 0
M  V30 1717 H 199.242 -0.390681 3.09645 0
M  V30 1718 N 199.544 -1.57102 0.125237 0
M  V30 1719 C 200.79 -1.95697 -0.532035 0
M  V30 1720 C 201.123 -1.009 -1.6593 0
M  V30 1721 O 200.398 -0.047347 -1.94442 0
M  V30 1722 C 200.681 -3.44181 -1.05884 0
M  V30 1723 C 200.534 -4.49752 0.0654392 0
M  V30 1724 C 201.853 -3.94655 -1.9477 0
M  V30 1725 H 198.972 -0.711571 -0.191925 0
M  V30 1726 H 201.614 -1.88923 0.20206 0
M  V30 1727 H 199.764 -3.50085 -1.68442 0
M  V30 1728 H 201.436 -4.55943 0.700982 0
M  V30 1729 H 199.679 -4.27653 0.727709 0
M  V30 1730 H 200.35 -5.50924 -0.344505 0
M  V30 1731 H 202.826 -3.91094 -1.42074 0
M  V30 1732 H 201.702 -4.99057 -2.28546 0
M  V30 1733 H 201.963 -3.35718 -2.87656 0
M  V30 1734 N 201.022 0.148545 -1.56898 0
M  V30 1735 C 201.969 1.18345 -1.98149 0
M  V30 1736 C 202.939 1.42772 -0.848848 0
M  V30 1737 O 204.124 1.55132 -1.11079 0
M  V30 1738 C 201.264 2.51231 -2.36594 0
M  V30 1739 C 200.377 2.33991 -3.63142 0
M  V30 1740 C 199.512 3.59902 -3.90697 0
M  V30 1741 C 198.551 3.37692 -5.1052 0
M  V30 1742 N 197.688 4.5573 -5.34092 0
M  V30 1743 H 202.528 0.82467 -2.86362 0
M  V30 1744 H 200.065 0.395756 -1.41676 0
M  V30 1745 H 202.023 3.28713 -2.56912 0
M  V30 1746 H 200.653 2.85059 -1.51463 0
M  V30 1747 H 199.705 1.47572 -3.50609 0
M  V30 1748 H 201.017 2.13539 -4.5078 0
M  V30 1749 H 200.171 4.45813 -4.11505 0
M  V30 1750 H 198.91 3.83357 -3.01477 0
M  V30 1751 H 197.915 2.5017 -4.89587 0
M  V30 1752 H 199.14 3.15637 -6.0129 0
M  V30 1753 H 197.086 4.79361 -4.47827 0
M  V30 1754 H 197.003 4.38274 -6.15996 0
M  V30 1755 H 198.271 5.42858 -5.59397 0
M  V30 1756 N 202.5 1.5196 0.417844 0
M  V30 1757 C 203.911 1.57851 0.997 0
M  V30 1758 C 204.262 0.413714 1.91789 0
M  V30 1759 O 203.387 -0.467057 2.113 0
M  V30 1760 C 203.982 2.86085 1.81496 0
M  V30 1761 C 202.541 2.94483 2.34428 0
M  V30 1762 C 201.688 2.52707 1.14169 0
M  V30 1763 H 204.639 1.57455 0.198392 0
M  V30 1764 H 204.66 2.70947 2.67148 0
M  V30 1765 H 204.172 3.70842 1.14446 0
M  V30 1766 H 202.273 2.142 3.04875 0
M  V30 1767 H 202.386 3.98546 2.65891 0
M  V30 1768 H 200.75 2.06353 1.49301 0
M  V30 1769 H 201.533 3.39828 0.486999 0
M  V30 1770 N 203.978 -0.674533 1.42435 0
M  V30 1771 C 205.226 -1.43175 1.42637 0
M  V30 1772 C 205.547 -1.94951 0.0438992 0
M  V30 1773 O 204.817 -1.7308 -0.917607 0
M  V30 1774 H 203.397 -0.531307 0.525092 0
M  V30 1775 H 206.059 -0.797006 1.77859 0
M  V30 1776 H 205.155 -2.28463 2.12629 0
M  V30 1777 N 205.456 -1.28612 -0.910864 0
M  V30 1778 C 206.403 -1.12786 -2.01365 0
M  V30 1779 C 207.373 -0.024201 -1.66082 0
M  V30 1780 O 208.558 -0.189667 -1.89855 0
M  V30 1781 C 205.698 -0.798743 -3.35729 0
M  V30 1782 C 204.811 -1.98173 -3.83864 0
M  V30 1783 C 203.946 -1.59298 -5.06752 0
M  V30 1784 C 202.985 -2.74245 -5.47226 0
M  V30 1785 N 202.122 -2.35842 -6.61304 0
M  V30 1786 H 206.962 -2.07142 -2.14234 0
M  V30 1787 H 204.499 -1.03093 -1.0493 0
M  V30 1788 H 206.457 -0.588662 -4.13026 0
M  V30 1789 H 205.087 0.10789 -3.2262 0
M  V30 1790 H 204.139 -2.30386 -3.02699 0
M  V30 1791 H 205.451 -2.84343 -4.09818 0
M  V30 1792 H 204.605 -1.34513 -5.916 0
M  V30 1793 H 203.344 -0.702618 -4.82612 0
M  V30 1794 H 202.349 -2.99725 -4.60918 0
M  V30 1795 H 203.574 -3.63928 -5.73353 0
M  V30 1796 H 201.52 -1.49279 -6.38789 0
M  V30 1797 H 201.437 -3.15546 -6.86998 0
M  V30 1798 H 202.705 -2.14348 -7.4945 0
M  V30 1799 N 206.934 1.1197 -1.10907 0
M  V30 1800 C 208.18 1.8386 -0.855773 0
M  V30 1801 C 208.513 1.84134 0.617103 0
M  V30 1802 O 207.788 1.29041 1.45529 0
M  V30 1803 C 208.071 3.31305 -1.411 0
M  V30 1804 C 207.924 3.39456 -2.9511 0
M  V30 1805 C 209.243 4.2721 -1.05736 0
M  V30 1806 H 206.362 0.667545 -0.312334 0
M  V30 1807 H 209.004 1.31331 -1.37303 0
M  V30 1808 H 207.154 3.76169 -0.97105 0
M  V30 1809 H 208.826 3.03191 -3.47668 0
M  V30 1810 H 207.069 2.79849 -3.31462 0
M  V30 1811 H 207.74 4.43209 -3.29044 0
M  V30 1812 H 210.216 3.90497 -1.43706 0
M  V30 1813 H 209.092 5.28775 -1.47269 0
M  V30 1814 H 209.353 4.42088 0.0325958 0
M  V30 1815 N 208.412 0.89855 1.29475 0
M  V30 1816 C 209.823 0.572537 1.77705 0
M  V30 1817 C 210.174 -0.911778 1.73727 0
M  V30 1818 O 209.299 -1.71288 1.32247 0
M  V30 1819 C 209.894 1.03252 3.22683 0
M  V30 1820 C 208.453 0.757687 3.68695 0
M  V30 1821 C 207.6 1.20787 2.49612 0
M  V30 1822 H 210.551 1.08139 1.16153 0
M  V30 1823 H 210.572 0.367307 3.78723 0
M  V30 1824 H 210.084 2.11285 3.25546 0
M  V30 1825 H 208.185 -0.310079 3.71308 0
M  V30 1826 H 208.298 1.35476 4.59547 0
M  V30 1827 H 206.662 0.626888 2.46865 0
M  V30 1828 H 207.445 2.29622 2.55203 0
M  V30 1829 N 209.89 -1.43072 0.660911 0
M  V30 1830 C 211.138 -2.01323 0.177094 0
M  V30 1831 C 211.459 -1.5245 -1.2159 0
M  V30 1832 O 210.729 -0.740322 -1.81373 0
M  V30 1833 H 209.309 -0.744382 0.0624804 0
M  V30 1834 H 211.971 -1.75179 0.854305 0
M  V30 1835 H 211.067 -3.11649 0.167641 0
M  V30 1836 N 211.368 -0.403325 -1.52352 0
M  V30 1837 C 212.614 0.174605 -2.02047 0
M  V30 1838 C 212.947 1.45282 -1.28867 0
M  V30 1839 O 212.222 1.90483 -0.393257 0
M  V30 1840 C 212.505 0.428238 -3.57545 0
M  V30 1841 C 212.358 -0.866248 -4.4138 0
M  V30 1842 C 213.677 1.21287 -4.23057 0
M  V30 1843 H 210.796 0.0619851 -0.734389 0
M  V30 1844 H 213.438 -0.53565 -1.82293 0
M  V30 1845 H 211.588 1.03327 -3.74507 0
M  V30 1846 H 213.26 -1.50265 -4.3614 0
M  V30 1847 H 211.503 -1.47851 -4.07827 0
M  V30 1848 H 212.174 -0.643249 -5.48239 0
M  V30 1849 H 214.65 0.700703 -4.10158 0
M  V30 1850 H 213.526 1.35909 -5.31808 0
M  V30 1851 H 213.787 2.23193 -3.81625 0
M  V30 1852 N 212.846 1.57033 -0.133567 0
M  V30 1853 C 214.094 1.953 0.519848 0
M  V30 1854 C 214.415 1.01866 1.66278 0
M  V30 1855 O 213.685 0.0776513 1.95746 0
M  V30 1856 H 212.265 0.721091 0.195032 0
M  V30 1857 H 214.927 1.93809 -0.205921 0
M  V30 1858 H 214.023 2.98695 0.904854 0
M  V30 1859 N 214.325 -0.140222 1.56975 0
M  V30 1860 C 215.255 -1.17456 2.01808 0
M  V30 1861 C 216.236 -1.44415 0.898794 0
M  V30 1862 O 217.421 -1.5522 1.16707 0
M  V30 1863 C 214.551 -2.50607 2.40444 0
M  V30 1864 C 213.505 -2.38155 3.55621 0
M  V30 1865 C 212.831 -3.76078 3.80091 0
M  V30 1866 C 214.131 -1.85991 4.88062 0
M  V30 1867 H 215.825 -0.801743 2.88466 0
M  V30 1868 H 213.371 -0.38422 1.38779 0
M  V30 1869 H 215.324 -3.23197 2.7041 0
M  V30 1870 H 214.048 -2.89737 1.50732 0
M  V30 1871 H 212.707 -1.68016 3.25832 0
M  V30 1872 H 212.355 -4.12656 2.87618 0
M  V30 1873 H 212.055 -3.68606 4.57606 0
M  V30 1874 H 213.579 -4.50206 4.12488 0
M  V30 1875 H 214.993 -2.4838 5.16701 0
M  V30 1876 H 213.39 -1.89393 5.6943 0
M  V30 1877 H 214.46 -0.816023 4.77984 0
M  V30 1878 N 215.803 -1.52179 -0.40978 0
M  V30 1879 C 217.214 -1.58377 -0.988615 0
M  V30 1880 C 217.565 -0.423879 -1.91566 0
M  V30 1881 O 216.69 0.455844 -2.11544 0
M  V30 1882 C 217.285 -2.87044 -1.79976 0
M  V30 1883 C 215.844 -2.95722 -2.32863 0
M  V30 1884 C 214.991 -2.53309 -1.12828 0
M  V30 1885 H 217.942 -1.57558 -0.190039 0
M  V30 1886 H 217.963 -2.7236 -2.65707 0
M  V30 1887 H 217.475 -3.71444 -1.12478 0
M  V30 1888 H 215.576 -2.15814 -3.03735 0
M  V30 1889 H 215.689 -3.99951 -2.63773 0
M  V30 1890 H 214.053 -2.07142 -1.48204 0
M  V30 1891 H 214.836 -3.40082 -0.46897 0
M  V30 1892 N 217.281 0.66697 -1.42791 0
M  V30 1893 C 218.529 1.42417 -1.43394 0
M  V30 1894 C 218.85 1.94925 -0.0542373 0
M  V30 1895 O 218.12 1.73564 0.908415 0
M  V30 1896 H 216.7 0.528515 -0.527902 0
M  V30 1897 H 219.362 0.787562 -1.78279 0
M  V30 1898 H 218.458 2.27333 -2.13837 0
M  V30 1899 N 218.759 1.29093 0.90403 0
M  V30 1900 C 220.005 1.16986 1.65656 0
M  V30 1901 C 220.338 -0.278925 1.92186 0
M  V30 1902 O 219.613 -1.2019 1.5292 0
M  V30 1903 C 219.896 1.97908 3.0084 0
M  V30 1904 C 219.749 3.50903 2.81403 0
M  V30 1905 C 221.068 1.80208 4.01513 0
M  V30 1906 H 218.187 0.426346 0.601164 0
M  V30 1907 H 220.829 1.58518 1.04747 0
M  V30 1908 H 218.979 1.62616 3.52829 0
M  V30 1909 H 220.651 3.96153 2.36348 0
M  V30 1910 H 218.894 3.76045 2.1627 0
M  V30 1911 H 219.565 4.02791 3.77443 0
M  V30 1912 H 222.041 2.11025 3.58619 0
M  V30 1913 H 220.917 2.39184 4.94047 0
M  V30 1914 H 221.178 0.756119 4.35586 0
M  V30 1915 N 220.237 -1.11381 1.11499 0
M  V30 1916 C 221.467 -1.86663 0.885464 0
M  V30 1917 C 221.875 -1.80464 -0.568281 0
M  V30 1918 O 221.218 -1.18445 -1.40415 0
M  V30 1919 C 221.28 -3.36337 1.26956 0
M  V30 1920 C 220.944 -3.66304 2.73259 0
M  V30 1921 C 221.941 -3.63733 3.71476 0
M  V30 1922 C 219.626 -3.9529 3.09921 0
M  V30 1923 C 221.62 -3.89725 5.04374 0
M  V30 1924 C 219.307 -4.20941 4.43004 0
M  V30 1925 C 220.305 -4.18147 5.40039 0
M  V30 1926 O 219.993 -4.43153 6.70724 0
M  V30 1927 H 219.725 -0.597114 0.316908 0
M  V30 1928 H 222.279 -1.41782 1.48617 0
M  V30 1929 H 220.509 -3.81826 0.611999 0
M  V30 1930 H 222.198 -3.92986 1.01573 0
M  V30 1931 H 222.964 -3.41389 3.44498 0
M  V30 1932 H 218.843 -3.966 2.35009 0
M  V30 1933 H 222.387 -3.8746 5.80104 0
M  V30 1934 H 218.284 -4.42761 4.69716 0
M  V30 1935 H 219.052 -4.60717 6.76522 0
M  V30 1936 N 221.715 -0.905404 -1.28997 0
M  V30 1937 C 223.126 -0.581953 -1.77398 0
M  V30 1938 C 223.477 0.902552 -1.74208 0
M  V30 1939 O 222.602 1.70584 -1.33154 0
M  V30 1940 C 223.197 -1.04961 -3.22131 0
M  V30 1941 C 221.756 -0.777229 -3.68288 0
M  V30 1942 C 220.903 -1.22109 -2.48967 0
M  V30 1943 H 223.854 -1.08754 -1.15578 0
M  V30 1944 H 223.875 -0.387387 -3.78523 0
M  V30 1945 H 223.387 -2.13008 -3.24421 0
M  V30 1946 H 221.488 0.290383 -3.71467 0
M  V30 1947 H 221.601 -1.37911 -4.58822 0
M  V30 1948 H 219.965 -0.639971 -2.46529 0
M  V30 1949 H 220.748 -2.30972 -2.53982 0
M  V30 1950 N 223.193 1.4272 -0.668489 0
M  V30 1951 C 224.441 2.01226 -0.187769 0
M  V30 1952 C 224.762 1.53092 1.2078 0
M  V30 1953 O 224.032 0.74993 1.80977 0
M  V30 1954 H 222.612 0.744041 -0.0664272 0
M  V30 1955 H 225.274 1.74723 -0.863583 0
M  V30 1956 H 224.37 3.11556 -0.184166 0
M  V30 1957 N 224.671 0.411399 1.52136 0
M  V30 1958 C 225.919 -0.163322 2.01439 0
M  V30 1959 C 226.24 -1.45453 1.29879 0
M  V30 1960 O 225.51 -1.91225 0.4254 0
M  V30 1961 H 224.09 -0.0633447 0.744309 0
M  V30 1962 H 226.752 0.548161 1.87033 0
M  V30 1963 H 225.848 -0.357817 3.10042 0
M  V30 1964 N 226.149 -1.5696 0.141893 0
M  V30 1965 C 227.395 -1.9625 -0.511248 0
M  V30 1966 C 227.728 -1.02654 -1.64851 0
M  V30 1967 O 227.003 -0.0679676 -1.94381 0
M  V30 1968 C 227.286 -3.45285 -1.02227 0
M  V30 1969 C 227.139 -4.49658 0.113138 0
M  V30 1970 C 228.458 -3.96698 -1.90574 0
M  V30 1971 H 225.577 -0.713567 -0.184367 0
M  V30 1972 H 228.219 -1.88698 0.222087 0
M  V30 1973 H 226.369 -3.51852 -1.64719 0
M  V30 1974 H 228.041 -4.55174 0.749302 0
M  V30 1975 H 226.284 -4.26857 0.773026 0
M  V30 1976 H 226.955 -5.51258 -0.286053 0
M  V30 1977 H 229.431 -3.92578 -1.37918 0
M  V30 1978 H 228.307 -5.01453 -2.2324 0
M  V30 1979 H 228.568 -3.3875 -2.84079 0
M  V30 1980 N 227.627 0.131896 -1.57047 0
M  V30 1981 C 228.557 1.16384 -2.02428 0
M  V30 1982 C 229.538 1.43936 -0.90644 0
M  V30 1983 O 230.723 1.54599 -1.17528 0
M  V30 1984 C 227.853 2.49328 -2.4177 0
M  V30 1985 C 226.807 2.36266 -3.56879 0
M  V30 1986 C 226.133 3.74057 -3.8208 0
M  V30 1987 C 227.433 1.834 -4.89042 0
M  V30 1988 H 229.127 0.786433 -2.88887 0
M  V30 1989 H 226.673 0.376855 -1.38981 0
M  V30 1990 H 228.626 3.21759 -2.7212 0
M  V30 1991 H 227.35 2.88934 -1.52266 0
M  V30 1992 H 226.009 1.66286 -3.26718 0
M  V30 1993 H 225.657 4.11125 -2.89803 0
M  V30 1994 H 225.357 3.66174 -4.59554 0
M  V30 1995 H 226.881 4.48012 -4.1487 0
M  V30 1996 H 228.295 2.45636 -5.18011 0
M  V30 1997 H 226.692 1.8637 -5.70426 0
M  V30 1998 H 227.762 0.790662 -4.7841 0
M  V30 1999 N 229.106 1.52395 0.401703 0
M  V30 2000 C 230.517 1.58899 0.980202 0
M  V30 2001 C 230.868 0.434032 1.91339 0
M  V30 2002 O 229.993 -0.444619 2.11783 0
M  V30 2003 C 230.588 2.87994 1.78451 0
M  V30 2004 C 229.147 2.96953 2.31292 0
M  V30 2005 C 228.294 2.53903 1.11483 0
M  V30 2006 H 231.245 1.57657 0.18168 0
M  V30 2007 H 231.266 2.73765 2.64259 0
M  V30 2008 H 230.778 3.72035 1.10506 0
M  V30 2009 H 228.879 2.17422 3.02586 0
M  V30 2010 H 228.992 4.01344 2.61649 0
M  V30 2011 H 227.356 2.07925 1.47104 0
M  V30 2012 H 228.139 3.40326 0.450928 0
M  V30 2013 N 230.584 -0.659388 1.43143 0
M  V30 2014 C 231.832 -1.41654 1.44147 0
M  V30 2015 C 232.153 -1.94893 0.0645739 0
M  V30 2016 O 231.423 -1.74044 -0.899198 0
M  V30 2017 H 230.003 -0.525708 0.530697 0
M  V30 2018 H 232.665 -0.778097 1.78694 0
M  V30 2019 H 231.761 -2.26195 2.1504 0
M  V30 2020 N 232.062 -1.29571 -0.897171 0
M  V30 2021 C 233.025 -1.14913 -1.98312 0
M  V30 2022 C 234.025 -0.0838629 -1.60581 0
M  V30 2023 O 235.215 -0.331006 -1.71026 0
M  V30 2024 C 232.347 -0.757835 -3.3237 0
M  V30 2025 H 233.54 -2.11377 -2.12743 0
M  V30 2026 H 231.093 -1.12793 -1.08201 0
M  V30 2027 H 231.828 0.206837 -3.2364 0
M  V30 2028 H 231.613 -1.52755 -3.61121 0
M  V30 2029 H 233.103 -0.678408 -4.12053 0
M  V30 2030 N 233.54 1.10788 -1.12088 0
M  V30 2031 C 234.956 1.34691 -0.856186 0
M  V30 2032 C 235.156 1.94791 0.515615 0
M  V30 2033 O 234.212 2.18524 1.26505 0
M  V30 2034 C 235.525 2.27208 -1.9697 0
M  V30 2035 C 237.073 2.40755 -2.00016 0
M  V30 2036 C 237.548 3.36598 -3.1059 0
M  V30 2037 N 239.039 3.44164 -3.10008 0
M  V30 2038 C 239.774 4.18284 -3.92206 0
M  V30 2039 N 239.27 4.95322 -4.84384 0
M  V30 2040 N 241.063 4.13865 -3.80357 0
M  V30 2041 H 233.214 0.70144 -2.00483 0
M  V30 2042 H 235.477 0.371405 -0.872217 0
M  V30 2043 H 235.183 1.90251 -2.958 0
M  V30 2044 H 235.057 3.27485 -1.87172 0
M  V30 2045 H 237.444 2.76982 -1.01808 0
M  V30 2046 H 237.525 1.40305 -2.13888 0
M  V30 2047 H 237.169 3.01096 -4.09028 0
M  V30 2048 H 237.099 4.36918 -2.93956 0
M  V30 2049 H 239.59 2.8922 -2.43228 0
M  V30 2050 H 239.903 5.49267 -5.43623 0
M  V30 2051 H 238.248 4.94459 -4.884 0
M  V30 2052 H 241.439 3.52773 -3.07683 0
M  V30 2053 H 241.612 4.71372 -4.44649 0
M  V30 2054 N 235.018 0.912232 1.28515 0
M  V30 2055 C 236.265 0.544599 1.95039 0
M  V30 2056 C 236.593 -0.911435 1.71823 0
M  V30 2057 O 235.848 -1.66317 1.03137 0
M  V30 2058 C 236.147 0.798392 3.48368 0
M  V30 2059 C 235.813 2.23374 3.91682 0
M  V30 2060 C 234.475 2.62617 4.03219 0
M  V30 2061 C 236.827 3.16786 4.13879 0
M  V30 2062 C 234.155 3.94429 4.3433 0
M  V30 2063 C 236.507 4.48161 4.46469 0
M  V30 2064 C 235.171 4.8726 4.56217 0
M  V30 2065 H 234.441 0.199283 0.7137 0
M  V30 2066 H 237.088 1.15327 1.52879 0
M  V30 2067 H 235.393 0.106908 3.91654 0
M  V30 2068 H 237.09 0.493141 3.97956 0
M  V30 2069 H 233.68 1.91922 3.83228 0
M  V30 2070 H 237.864 2.87677 4.0442 0
M  V30 2071 H 233.12 4.24426 4.40082 0
M  V30 2072 H 237.294 5.20559 4.62592 0
M  V30 2073 H 234.921 5.89431 4.80078 0
M  V30 2074 N 236.496 -1.42363 0.676048 0
M  V30 2075 C 237.907 -1.84649 0.275948 0
M  V30 2076 C 238.258 -1.56588 -1.18214 0
M  V30 2077 O 237.383 -1.02634 -1.90513 0
M  V30 2078 C 237.978 -3.35178 0.494053 0
M  V30 2079 C 236.537 -3.76109 0.148061 0
M  V30 2080 C 235.684 -2.65931 0.785891 0
M  V30 2081 H 238.635 -1.32192 0.878121 0
M  V30 2082 H 238.656 -3.79655 -0.25343 0
M  V30 2083 H 238.168 -3.55571 1.55535 0
M  V30 2084 H 236.269 -3.61323 -0.909742 0
M  V30 2085 H 236.382 -4.7546 0.589454 0
M  V30 2086 H 234.746 -2.53773 0.217113 0
M  V30 2087 H 235.529 -2.89146 1.85067 0
M  V30 2088 N 237.974 -0.419461 -1.51915 0
M  V30 2089 C 239.222 0.152637 -2.01523 0
M  V30 2090 C 239.543 1.44762 -1.30649 0
M  V30 2091 O 238.813 1.90997 -0.435535 0
M  V30 2092 H 237.393 0.0593966 -0.744635 0
M  V30 2093 H 240.055 -0.558073 -1.86739 0
M  V30 2094 H 239.151 0.341369 -3.10227 0
M  V30 2095 N 239.452 1.56882 -0.150215 0
M  V30 2096 C 240.698 1.96518 0.500834 0
M  V30 2097 C 241.031 1.03527 1.64304 0
M  V30 2098 O 240.306 0.0782751 1.94342 0
M  V30 2099 C 240.589 3.45822 1.00395 0
M  V30 2100 C 240.442 4.49591 -0.136983 0
M  V30 2101 C 241.761 3.97704 1.88467 0
M  V30 2102 H 238.88 0.714535 0.18058 0
M  V30 2103 H 241.522 1.88577 -0.232091 0
M  V30 2104 H 239.672 3.5272 1.62851 0
M  V30 2105 H 241.344 4.5477 -0.77343 0
M  V30 2106 H 239.587 4.26441 -0.795652 0
M  V30 2107 H 240.258 5.51402 0.256815 0
M  V30 2108 H 242.734 3.93304 1.35834 0
M  V30 2109 H 241.61 5.0263 2.20578 0
M  V30 2110 H 241.871 3.40252 2.82279 0
M  V30 2111 N 240.93 -0.123565 1.57115 0
M  V30 2112 C 242.178 -0.83051 1.84247 0
M  V30 2113 C 242.499 -1.80629 0.73471 0
M  V30 2114 O 241.769 -1.94403 -0.241688 0
M  V30 2115 H 240.349 -0.309694 0.679778 0
M  V30 2116 H 243.011 -0.111976 1.94578 0
M  V30 2117 H 242.107 -1.37852 2.80006 0
M  V30 2118 N 242.408 -1.52605 -0.393616 0
M  V30 2119 C 243.654 -1.67672 -1.14079 0
M  V30 2120 C 243.987 -0.413121 -1.89755 0
M  V30 2121 O 243.262 0.588952 -1.85369 0
M  V30 2122 C 243.545 -2.9088 -2.12276 0
M  V30 2123 C 243.398 -4.27329 -1.40394 0
M  V30 2124 C 244.717 -3.09628 -3.12759 0
M  V30 2125 H 241.836 -0.610168 -0.413356 0
M  V30 2126 H 244.478 -1.85193 -0.424696 0
M  V30 2127 H 242.628 -2.76073 -2.73342 0
M  V30 2128 H 244.3 -4.53894 -0.82327 0
M  V30 2129 H 242.543 -4.2802 -0.705801 0
M  V30 2130 H 243.214 -5.09615 -2.12123 0
M  V30 2131 H 245.69 -3.23436 -2.61779 0
M  V30 2132 H 244.566 -3.97322 -3.78717 0
M  V30 2133 H 244.827 -2.23637 -3.81365 0
M  V30 2134 N 243.887 0.651787 -1.4349 0
M  V30 2135 C 244.817 1.77621 -1.51569 0
M  V30 2136 C 245.798 1.66022 -0.370253 0
M  V30 2137 O 246.983 1.85095 -0.587658 0
M  V30 2138 C 244.113 3.16056 -1.43966 0
M  V30 2139 C 243.067 3.4242 -2.56774 0
M  V30 2140 C 242.393 4.8067 -2.34223 0
M  V30 2141 C 243.693 3.37023 -3.99015 0
M  V30 2142 H 245.387 1.71117 -2.45681 0
M  V30 2143 H 242.933 0.821825 -1.18246 0
M  V30 2144 H 244.886 3.94472 -1.48221 0
M  V30 2145 H 243.61 3.23293 -0.463586 0
M  V30 2146 H 242.269 2.66375 -2.51873 0
M  V30 2147 H 241.917 4.84585 -1.34856 0
M  V30 2148 H 241.617 4.9927 -3.09844 0
M  V30 2149 H 243.141 5.61342 -2.40265 0
M  V30 2150 H 244.555 4.05374 -4.05395 0
M  V30 2151 H 242.952 3.67159 -4.74673 0
M  V30 2152 H 244.022 2.3518 -4.2405 0
M  V30 2153 N 245.365 1.30045 0.890287 0
M  V30 2154 C 246.776 1.16738 1.45702 0
M  V30 2155 C 247.127 -0.233939 1.948 0
M  V30 2156 O 246.252 -1.13021 1.84541 0
M  V30 2157 C 246.847 2.11313 2.64825 0
M  V30 2158 C 245.406 2.02001 3.17604 0
M  V30 2159 C 244.553 2.01699 1.90296 0
M  V30 2160 H 247.504 1.42392 0.700726 0
M  V30 2161 H 247.525 1.69086 3.40867 0
M  V30 2162 H 247.037 3.13294 2.2906 0
M  V30 2163 H 245.138 1.03142 3.5804 0
M  V30 2164 H 245.251 2.90128 3.81264 0
M  V30 2165 H 243.615 1.46427 2.08402 0
M  V30 2166 H 244.398 3.05402 1.56795 0
M  V30 2167 N 246.843 -1.10192 1.12674 0
M  V30 2168 C 248.091 -1.81845 0.881861 0
M  V30 2169 C 248.412 -1.85737 -0.593867 0
M  V30 2170 O 247.682 -1.33724 -1.4316 0
M  V30 2171 H 246.262 -0.673432 0.323261 0
M  V30 2172 H 248.924 -1.33316 1.42172 0
M  V30 2173 H 248.02 -2.85288 1.2656 0
M  V30 2174 N 248.321 -0.919034 -1.28029 0
M  V30 2175 C 249.567 -0.555757 -1.95036 0
M  V30 2176 C 249.9 0.899198 -1.72128 0
M  V30 2177 O 249.175 1.64023 -1.04531 0
M  V30 2178 C 249.458 -0.872024 -3.49382 0
M  V30 2179 C 249.311 -2.3801 -3.81669 0
M  V30 2180 C 250.63 -0.37185 -4.38526 0
M  V30 2181 H 247.749 -0.203386 -0.708381 0
M  V30 2182 H 250.391 -1.14924 -1.51303 0
M  V30 2183 H 248.541 -0.366946 -3.86763 0
M  V30 2184 H 250.213 -2.9562 -3.54128 0
M  V30 2185 H 248.456 -2.83289 -3.28526 0
M  V30 2186 H 249.127 -2.55192 -4.8947 0
M  V30 2187 H 251.603 -0.804602 -4.08247 0
M  V30 2188 H 250.479 -0.622173 -5.45362 0
M  V30 2189 H 250.74 0.727934 -4.36066 0
M  V30 2190 N 249.799 1.42003 -0.683588 0
M  V30 2191 C 251.21 1.84501 -0.285736 0
M  V30 2192 C 251.561 1.57213 1.17382 0
M  V30 2193 O 250.686 1.03642 1.89966 0
M  V30 2194 C 251.281 3.34912 -0.511821 0
M  V30 2195 C 249.84 3.76025 -0.168005 0
M  V30 2196 C 248.987 2.6551 -0.799983 0
M  V30 2197 H 251.938 1.31724 -0.885119 0
M  V30 2198 H 251.959 3.79784 0.233292 0
M  V30 2199 H 251.471 3.54741 -1.57418 0
M  V30 2200 H 249.572 3.61801 0.890567 0
M  V30 2201 H 249.685 4.75141 -0.614661 0
M  V30 2202 H 248.049 2.53654 -0.230568 0
M  V30 2203 H 248.832 2.8816 -1.86597 0
M  V30 2204 N 251.277 0.427512 1.51691 0
M  V30 2205 C 252.505 -0.141191 2.06418 0
M  V30 2206 C 252.92 -1.37303 1.29589 0
M  V30 2207 O 252.277 -1.79059 0.352732 0
M  V30 2208 C 252.328 -0.473266 3.58389 0
M  V30 2209 O 252.049 0.709673 4.32314 0
M  V30 2210 C 253.55 -1.09371 4.29596 0
M  V30 2211 H 250.77 -0.0122747 0.670888 0
M  V30 2212 H 253.314 0.603764 1.95384 0
M  V30 2213 H 251.469 -1.16812 3.69369 0
M  V30 2214 H 251.883 0.42807 5.2275 0
M  V30 2215 H 253.357 -1.27613 5.37046 0
M  V30 2216 H 253.834 -2.072 3.87253 0
M  V30 2217 H 254.44 -0.43853 4.23033 0
M  V30 2218 N 252.755 -1.56801 0.158532 0
M  V30 2219 C 254.003 -1.96102 -0.488712 0
M  V30 2220 C 254.324 -1.04498 -1.64636 0
M  V30 2221 O 253.594 -0.108783 -1.95598 0
M  V30 2222 H 252.174 -0.724102 -0.183535 0
M  V30 2223 H 254.836 -1.93457 0.236728 0
M  V30 2224 H 253.932 -3.00097 -0.857219 0
M  V30 2225 N 254.233 0.115231 -1.57178 0
M  V30 2226 C 255.196 1.12526 -1.99676 0
M  V30 2227 C 256.196 1.34095 -0.88742 0
M  V30 2228 O 257.386 1.30548 -1.15337 0
M  V30 2229 C 254.518 2.4789 -2.34015 0
M  V30 2230 H 255.711 0.759912 -2.90113 0
M  V30 2231 H 253.264 0.359648 -1.52106 0
M  V30 2232 H 253.999 2.89339 -1.4647 0
M  V30 2233 H 253.784 2.33588 -3.14927 0
M  V30 2234 H 255.274 3.20575 -2.67622 0
M  V30 2235 N 255.711 1.52812 0.385517 0
M  V30 2236 C 256.959 1.67694 1.12797 0
M  V30 2237 C 257.28 0.421115 1.90399 0
M  V30 2238 O 256.55 -0.564551 1.87589 0
M  V30 2239 H 255.13 0.618155 0.419396 0
M  V30 2240 H 257.792 1.89938 0.436972 0
M  V30 2241 H 256.888 2.52896 1.82894 0
M  V30 2242 N 257.189 -0.644168 1.43834 0
M  V30 2243 C 258.435 -1.40603 1.46146 0
M  V30 2244 C 258.768 -1.93997 0.0887717 0
M  V30 2245 O 258.043 -1.72854 -0.891724 0
M  V30 2246 C 258.326 -2.58086 2.51124 0
M  V30 2247 C 258.179 -2.10126 3.97702 0
M  V30 2248 C 259.498 -3.60291 2.52742 0
M  V30 2249 H 256.617 -0.509905 0.532134 0
M  V30 2250 H 259.259 -0.729502 1.75437 0
M  V30 2251 H 257.409 -3.15801 2.26278 0
M  V30 2252 H 259.081 -1.57342 4.33637 0
M  V30 2253 H 257.324 -1.41419 4.10101 0
M  V30 2254 H 257.995 -2.94649 4.66783 0
M  V30 2255 H 260.471 -3.12352 2.7491 0
M  V30 2256 H 259.347 -4.40032 3.28121 0
M  V30 2257 H 259.608 -4.1349 1.56455 0
M  V30 2258 N 258.668 -1.30515 -0.883378 0
M  V30 2259 C 259.615 -1.17032 -1.98927 0
M  V30 2260 C 260.585 -0.0594241 -1.65994 0
M  V30 2261 O 261.77 -0.229895 -1.8941 0
M  V30 2262 C 258.91 -0.869777 -3.33959 0
M  V30 2263 C 258.023 -2.06271 -3.79574 0
M  V30 2264 C 257.158 -1.70011 -5.03259 0
M  V30 2265 C 256.197 -2.8579 -5.41286 0
M  V30 2266 N 255.334 -2.49816 -6.56153 0
M  V30 2267 H 260.174 -2.1164 -2.09792 0
M  V30 2268 H 257.711 -1.05296 -1.02719 0
M  V30 2269 H 259.669 -0.676138 -4.11685 0
M  V30 2270 H 258.299 0.0394332 -3.22776 0
M  V30 2271 H 257.351 -2.36755 -2.97744 0
M  V30 2272 H 258.663 -2.92971 -4.03694 0
M  V30 2273 H 257.817 -1.47032 -5.88614 0
M  V30 2274 H 256.556 -0.804829 -4.81013 0
M  V30 2275 H 255.561 -3.09434 -4.54456 0
M  V30 2276 H 256.786 -3.76008 -5.65504 0
M  V30 2277 H 254.732 -1.62795 -6.35479 0
M  V30 2278 H 254.649 -3.30048 -6.8015 0
M  V30 2279 H 255.917 -2.30197 -7.44735 0
M  V30 2280 N 260.146 1.09593 -1.13257 0
M  V30 2281 C 261.557 1.63229 -0.906274 0
M  V30 2282 C 261.908 1.8811 0.557578 0
M  V30 2283 O 261.033 1.62953 1.42391 0
M  V30 2284 C 261.628 2.96535 -1.63867 0
M  V30 2285 C 260.187 3.47003 -1.45828 0
M  V30 2286 C 259.334 2.2145 -1.66898 0
M  V30 2287 H 262.285 0.92978 -1.28611 0
M  V30 2288 H 262.306 3.64411 -1.09476 0
M  V30 2289 H 261.818 2.78394 -2.70404 0
M  V30 2290 H 259.919 3.70272 -0.415848 0
M  V30 2291 H 260.032 4.24551 -2.2202 0
M  V30 2292 H 258.396 2.30022 -1.09371 0
M  V30 2293 H 259.179 2.0583 -2.74752 0
M  V30 2294 N 261.624 0.925811 1.2754 0
M  V30 2295 C 262.571 0.422045 2.26908 0
M  V30 2296 C 263.541 -0.510029 1.58076 0
M  V30 2297 O 264.726 -0.429599 1.85901 0
M  V30 2298 C 261.866 -0.320837 3.43605 0
M  V30 2299 C 260.979 0.64513 4.27156 0
M  V30 2300 C 260.114 -0.117405 5.3107 0
M  V30 2301 C 259.153 0.841391 6.0629 0
M  V30 2302 N 258.29 0.111604 7.02011 0
M  V30 2303 H 263.13 1.27441 2.69375 0
M  V30 2304 H 260.667 0.639697 1.32462 0
M  V30 2305 H 262.625 -0.76785 4.10073 0
M  V30 2306 H 261.255 -1.13745 3.02096 0
M  V30 2307 H 260.307 1.21067 3.6062 0
M  V30 2308 H 261.619 1.37797 4.79389 0
M  V30 2309 H 260.773 -0.624422 6.03478 0
M  V30 2310 H 259.512 -0.883219 4.79636 0
M  V30 2311 H 258.517 1.35967 5.32722 0
M  V30 2312 H 259.742 1.60696 6.59813 0
M  V30 2313 H 257.688 -0.635999 6.5291 0
M  V30 2314 H 257.605 0.784044 7.51923 0
M  V30 2315 H 258.873 -0.374823 7.78598 0
M  V30 2316 N 263.102 -1.41638 0.69111 0
M  V30 2317 C 264.065 -2.29178 0.0319786 0
M  V30 2318 C 265.065 -1.44153 -0.712496 0
M  V30 2319 O 266.255 -1.65354 -0.548053 0
M  V30 2320 C 263.387 -3.26952 -0.965161 0
M  V30 2321 H 264.58 -2.88959 0.802681 0
M  V30 2322 H 262.133 -1.4955 0.454356 0
M  V30 2323 H 262.868 -2.72142 -1.76378 0
M  V30 2324 H 262.653 -3.89685 -0.434522 0
M  V30 2325 H 264.143 -3.92561 -1.42428 0
M  V30 2326 N 264.58 -0.43555 -1.51462 0
M  V30 2327 C 265.991 0.0279871 -1.86679 0
M  V30 2328 C 266.342 1.42104 -1.35281 0
M  V30 2329 O 265.467 2.04667 -0.702878 0
M  V30 2330 C 266.062 0.0575626 -3.38751 0
M  V30 2331 C 264.621 0.465507 -3.7351 0
M  V30 2332 C 263.768 -0.342996 -2.75171 0
M  V30 2333 H 266.719 -0.651473 -1.44712 0
M  V30 2334 H 266.74 0.867421 -3.70481 0
M  V30 2335 H 266.252 -0.956448 -3.7613 0
M  V30 2336 H 264.353 1.48519 -3.41721 0
M  V30 2337 H 264.466 0.191546 -4.78717 0
M  V30 2338 H 262.83 0.198442 -2.53926 0
M  V30 2339 H 263.613 -1.35585 -3.15391 0
M  V30 2340 N 266.058 1.56714 -0.166846 0
M  V30 2341 C 267.306 1.96358 0.478305 0
M  V30 2342 C 267.627 1.0537 1.6408 0
M  V30 2343 O 266.897 0.119154 1.95537 0
M  V30 2344 H 265.477 0.725065 0.179692 0
M  V30 2345 H 268.139 1.93329 -0.246985 0
M  V30 2346 H 267.235 3.00547 0.841292 0
M  V30 2347 N 267.536 -0.106894 1.57237 0
M  V30 2348 C 268.782 -0.81373 1.85759 0
M  V30 2349 C 269.115 -1.78952 0.754315 0
M  V30 2350 O 268.39 -1.93029 -0.23879 0
M  V30 2351 C 268.673 -1.55293 3.24894 0
M  V30 2352 C 268.526 -0.595929 4.45835 0
M  V30 2353 C 269.845 -2.5063 3.61763 0
M  V30 2354 H 266.964 -0.294369 0.67566 0
M  V30 2355 H 269.606 -0.0776472 1.89841 0
M  V30 2356 H 267.756 -2.1804 3.21544 0
M  V30 2357 H 269.428 0.0236262 4.61294 0
M  V30 2358 H 267.671 0.0916191 4.33703 0
M  V30 2359 H 268.342 -1.15004 5.39887 0
M  V30 2360 H 270.818 -1.97982 3.65981 0
M  V30 2361 H 269.694 -2.99376 4.60071 0
M  V30 2362 H 269.955 -3.3385 2.89821 0
M  V30 2363 N 269.014 -1.53014 -0.377408 0
M  V30 2364 C 270.262 -1.6829 -1.11906 0
M  V30 2365 C 270.583 -0.431206 -1.90173 0
M  V30 2366 O 269.853 0.554595 -1.87886 0
M  V30 2367 H 268.433 -0.620371 -0.416112 0
M  V30 2368 H 271.095 -1.90167 -0.426893 0
M  V30 2369 H 270.191 -2.53862 -1.8155 0
M  V30 2370 N 270.492 0.636531 -1.44174 0
M  V30 2371 C 271.74 1.39343 -1.46383 0
M  V30 2372 C 272.061 1.94766 -0.0955715 0
M  V30 2373 O 271.331 1.75452 0.871395 0
M  V30 2374 H 269.911 0.517199 -0.538994 0
M  V30 2375 H 272.573 0.74957 -1.7991 0
M  V30 2376 H 271.669 2.22746 -2.18611 0
M  V30 2377 N 271.97 1.30982 0.876444 0
M  V30 2378 C 272.933 1.18054 1.96459 0
M  V30 2379 C 273.933 0.109399 1.60427 0
M  V30 2380 O 275.123 0.358173 1.70478 0
M  V30 2381 C 272.255 0.810616 3.31122 0
M  V30 2382 H 273.448 2.14735 2.09354 0
M  V30 2383 H 271.001 1.145 1.06392 0
M  V30 2384 H 271.736 -0.155322 3.23928 0
M  V30 2385 H 271.521 1.58481 3.58645 0
M  V30 2386 H 273.011 0.743876 4.10921 0
M  V30 2387 N 273.449 -1.08991 1.13837 0
M  V30 2388 C 274.696 -1.81258 0.902882 0
M  V30 2389 C 275.024 -1.85936 -0.570803 0
M  V30 2390 O 274.279 -1.3267 -1.43865 0
M  V30 2391 C 274.578 -3.27042 1.44147 0
M  V30 2392 C 274.244 -3.4249 2.93276 0
M  V30 2393 C 272.906 -3.46414 3.33992 0
M  V30 2394 C 275.258 -3.4666 3.892 0
M  V30 2395 C 272.586 -3.52091 4.69307 0
M  V30 2396 C 274.938 -3.53872 5.24364 0
M  V30 2397 C 273.602 -3.56066 5.646 0
M  V30 2398 H 272.872 -0.663268 0.330388 0
M  V30 2399 H 275.519 -1.28368 1.42105 0
M  V30 2400 H 273.824 -3.82599 0.844097 0
M  V30 2401 H 275.521 -3.81499 1.23528 0
M  V30 2402 H 272.111 -3.40124 2.60794 0
M  V30 2403 H 276.295 -3.42865 3.58828 0
M  V30 2404 H 271.551 -3.52079 4.9985 0
M  V30 2405 H 275.725 -3.56043 5.98503 0
M  V30 2406 H 273.352 -3.60218 6.69438 0
M  V30 2407 N 274.927 -0.932562 -1.27047 0
M  V30 2408 C 275.89 -0.440064 -2.24936 0
M  V30 2409 C 276.89 0.444071 -1.54547 0
M  V30 2410 O 278.08 0.244465 -1.72476 0
M  V30 2411 C 275.212 0.36678 -3.38921 0
M  V30 2412 H 276.405 -1.305 -2.70018 0
M  V30 2413 H 273.958 -0.713707 -1.39054 0
M  V30 2414 H 274.693 1.25033 -2.99228 0
M  V30 2415 H 274.478 -0.267204 -3.91188 0
M  V30 2416 H 275.968 0.701567 -4.11665 0
M  V30 2417 N 276.405 1.4127 -0.698611 0
M  V30 2418 C 277.653 2.00782 -0.230409 0
M  V30 2419 C 277.974 1.5562 1.17505 0
M  V30 2420 O 277.244 0.78815 1.79346 0
M  V30 2421 H 275.824 0.742464 -0.0821944 0
M  V30 2422 H 278.486 1.72852 -0.90045 0
M  V30 2423 H 277.582 3.11095 -0.25021 0
M  V30 2424 N 277.883 0.443576 1.51229 0
M  V30 2425 C 279.132 -0.122332 2.01329 0
M  V30 2426 C 279.445 -1.43237 1.33201 0
M  V30 2427 O 280.651 -2.0816 1.74304 0
M  V30 2428 C 279.107 -0.268551 3.58897 0
M  V30 2429 C 278.715 1.03142 4.35965 0
M  V30 2430 C 280.459 -0.787894 4.17124 0
M  V30 2431 C 278.366 0.850504 5.85252 0
M  V30 2432 H 277.296 -0.0494929 0.752374 0
M  V30 2433 H 279.947 0.574289 1.74282 0
M  V30 2434 H 278.329 -1.02832 3.82415 0
M  V30 2435 H 279.503 1.80001 4.24189 0
M  V30 2436 H 277.818 1.47977 3.89219 0
M  V30 2437 H 280.415 -0.939841 5.26375 0
M  V30 2438 H 280.758 -1.77201 3.76703 0
M  V30 2439 H 281.291 -0.0862669 3.97706 0
M  V30 2440 H 278.03 1.80718 6.30096 0
M  V30 2441 H 277.55 0.121825 5.99676 0
M  V30 2442 H 279.229 0.506163 6.45017 0
M  V30 2443 N 279.361 -1.56624 0.175154 0
M  V30 2444 C 280.772 -1.83561 -0.340916 0
M  V30 2445 C 281.123 -1.09511 -1.62794 0
M  V30 2446 O 280.248 -0.349389 -2.13561 0
M  V30 2447 C 280.843 -3.32979 -0.625313 0
M  V30 2448 C 279.402 -3.60399 -1.08581 0
M  V30 2449 C 278.549 -2.77024 -0.123722 0
M  V30 2450 H 281.5 -1.53593 0.399344 0
M  V30 2451 H 281.521 -3.50666 -1.47694 0
M  V30 2452 H 281.033 -3.86847 0.311575 0
M  V30 2453 H 279.134 -3.11945 -2.03767 0
M  V30 2454 H 279.247 -4.68711 -0.992317 0
M  V30 2455 H 277.611 -2.46993 -0.621821 0
M  V30 2456 H 278.394 -3.33674 0.807256 0
M  V30 2457 N 280.839 0.0985539 -1.57292 0
M  V30 2458 C 282.087 0.801092 -1.85545 0
M  V30 2459 C 282.408 1.79438 -0.763353 0
M  V30 2460 O 281.678 1.94763 0.21073 0
M  V30 2461 H 280.258 0.29884 -0.684619 0
M  V30 2462 H 282.92 0.0810064 -1.94732 0
M  V30 2463 H 282.016 1.3338 -2.82163 0
M  V30 2464 N 282.317 1.53212 0.369288 0
M  V30 2465 C 283.563 1.69466 1.11397 0
M  V30 2466 C 283.896 0.443257 1.89074 0
M  V30 2467 O 283.171 -0.559386 1.86282 0
M  V30 2468 C 283.454 2.9422 2.07621 0
M  V30 2469 C 283.307 4.29508 1.33577 0
M  V30 2470 C 284.626 3.14565 3.07794 0
M  V30 2471 H 281.745 0.616667 0.403597 0
M  V30 2472 H 284.387 1.85845 0.395179 0
M  V30 2473 H 282.537 2.80387 2.68916 0
M  V30 2474 H 284.209 4.55147 0.750955 0
M  V30 2475 H 282.452 4.29088 0.637618 0
M  V30 2476 H 283.123 5.12926 2.03989 0
M  V30 2477 H 285.599 3.2756 2.56601 0
M  V30 2478 H 284.475 4.03297 3.72348 0
M  V30 2479 H 284.736 2.29675 3.77759 0
M  V30 2480 N 283.795 -0.628877 1.44509 0
M  V30 2481 C 285.043 -1.38565 1.4712 0
M  V30 2482 C 285.364 -1.94712 0.105899 0
M  V30 2483 O 284.634 -1.75912 -0.862079 0
M  V30 2484 H 283.214 -0.514333 0.541729 0
M  V30 2485 H 285.876 -0.740018 1.80305 0
M  V30 2486 H 284.972 -2.21583 2.19789 0
M  V30 2487 N 285.273 -1.31445 -0.869486 0
M  V30 2488 C 286.684 -1.19042 -1.43826 0
M  V30 2489 C 287.035 0.202919 -1.95148 0
M  V30 2490 O 286.16 1.10071 -1.86315 0
M  V30 2491 C 286.755 -2.15499 -2.6143 0
M  V30 2492 C 285.314 -2.07028 -3.14351 0
M  V30 2493 C 284.461 -2.04701 -1.87063 0
M  V30 2494 H 287.412 -1.43489 -0.677984 0
M  V30 2495 H 287.433 -1.74488 -3.38134 0
M  V30 2496 H 286.945 -3.16899 -2.24046 0
M  V30 2497 H 285.046 -1.08825 -3.56354 0
M  V30 2498 H 285.159 -2.96157 -3.766 0
M  V30 2499 H 283.523 -1.49724 -2.06046 0
M  V30 2500 H 284.306 -3.07857 -1.51917 0
M  V30 2501 N 286.751 1.08385 -1.14413 0
M  V30 2502 C 287.998 1.80776 -0.912482 0
M  V30 2503 C 288.326 1.86236 0.560934 0
M  V30 2504 O 287.581 1.33431 1.43159 0
M  V30 2505 C 287.88 3.26273 -1.45879 0
M  V30 2506 C 287.546 3.4093 -2.95089 0
M  V30 2507 C 286.208 3.44638 -3.35824 0
M  V30 2508 C 288.56 3.44591 -3.91033 0
M  V30 2509 C 285.888 3.49597 -4.71167 0
M  V30 2510 C 288.24 3.51086 -5.26233 0
M  V30 2511 C 286.904 3.53067 -5.6648 0
M  V30 2512 H 286.174 0.661507 -0.333901 0
M  V30 2513 H 288.821 1.27613 -1.42784 0
M  V30 2514 H 287.126 3.82146 -0.864376 0
M  V30 2515 H 288.823 3.80839 -1.2555 0
M  V30 2516 H 285.413 3.38736 -2.62594 0
M  V30 2517 H 289.597 3.40957 -3.60641 0
M  V30 2518 H 284.853 3.49424 -5.0171 0
M  V30 2519 H 289.027 3.52864 -6.00383 0
M  V30 2520 H 286.654 3.56662 -6.71339 0
M  V30 2521 N 288.23 0.939286 1.26551 0
M  V30 2522 C 289.478 0.58469 1.93457 0
M  V30 2523 C 289.799 -0.878774 1.74076 0
M  V30 2524 O 289.069 -1.62421 1.09528 0
M  V30 2525 H 287.649 0.21325 0.715914 0
M  V30 2526 H 290.311 1.1942 1.54029 0
M  V30 2527 H 289.407 0.800849 3.0165 0
M  V30 2528 N 289.708 -1.40897 0.706093 0
M  V30 2529 C 290.956 -2.00657 0.241054 0
M  V30 2530 C 291.277 -1.56241 -1.16678 0
M  V30 2531 O 290.547 -0.79765 -1.78926 0
M  V30 2532 H 289.127 -0.742018 0.0861308 0
M  V30 2533 H 291.789 -1.72372 0.909604 0
M  V30 2534 H 290.885 -3.10958 0.266705 0
M  V30 2535 N 291.186 -0.45159 -1.50991 0
M  V30 2536 C 292.597 0.00818571 -1.86698 0
M  V30 2537 C 292.948 1.40661 -1.3678 0
M  V30 2538 O 292.073 2.0391 -0.724546 0
M  V30 2539 C 292.668 0.0216303 -3.38793 0
M  V30 2540 C 291.227 0.425865 -3.73983 0
M  V30 2541 C 290.374 -0.372163 -2.74791 0
M  V30 2542 H 293.325 -0.666785 -1.44013 0
M  V30 2543 H 293.346 0.828078 -3.7138 0
M  V30 2544 H 292.858 -0.996288 -3.75094 0
M  V30 2545 H 290.959 1.44886 -3.43277 0
M  V30 2546 H 291.072 0.140761 -4.78893 0
M  V30 2547 H 289.436 0.171498 -2.54122 0
M  V30 2548 H 290.219 -1.38922 -3.13935 0
M  V30 2549 N 292.664 1.56529 -0.183458 0
M  V30 2550 C 293.596 2.15747 0.773697 0
M  V30 2551 C 294.609 1.1162 1.1851 0
M  V30 2552 O 295.798 1.3876 1.12285 0
M  V30 2553 C 292.898 2.6952 2.05456 0
M  V30 2554 C 292.071 3.98429 1.8048 0
M  V30 2555 C 291.13 4.37145 2.92901 0
M  V30 2556 O 290.156 5.04791 2.6301 0
M  V30 2557 N 291.358 3.99695 4.2098 0
M  V30 2558 H 294.123 2.98505 0.26736 0
M  V30 2559 H 291.684 1.619 -0.0010878 0
M  V30 2560 H 293.676 2.92412 2.79781 0
M  V30 2561 H 292.246 1.91282 2.47245 0
M  V30 2562 H 291.466 3.8379 0.899947 0
M  V30 2563 H 292.754 4.82597 1.61175 0
M  V30 2564 H 292.152 3.4526 4.48121 0
M  V30 2565 H 290.709 4.27562 4.9197 0
M  V30 2566 N 294.142 -0.090211 1.57342 0
M  V30 2567 C 295.553 -0.644173 1.75235 0
M  V30 2568 C 295.904 -1.78865 0.806335 0
M  V30 2569 O 295.029 -2.16395 -0.0140128 0
M  V30 2570 C 295.624 -1.17532 3.1776 0
M  V30 2571 C 294.183 -1.67531 3.37061 0
M  V30 2572 C 293.33 -0.58693 2.71017 0
M  V30 2573 H 296.281 0.135884 1.58117 0
M  V30 2574 H 296.302 -2.04455 3.20902 0
M  V30 2575 H 295.814 -0.342138 3.86589 0
M  V30 2576 H 293.915 -2.53234 2.73319 0
M  V30 2577 H 294.028 -1.76493 4.45406 0
M  V30 2578 H 292.392 -1.02756 2.33052 0
M  V30 2579 H 293.175 0.235758 3.4249 0
M  V30 2580 N 295.62 -1.53406 -0.361157 0
M  V30 2581 C 296.868 -1.69467 -1.10115 0
M  V30 2582 C 297.189 -0.451352 -1.89705 0
M  V30 2583 O 296.459 0.534636 -1.88463 0
M  V30 2584 H 295.039 -0.624749 -0.409508 0
M  V30 2585 H 297.701 -1.90609 -0.406699 0
M  V30 2586 H 296.797 -2.55774 -1.78847 0
M  V30 2587 N 297.098 0.621204 -1.44841 0
M  V30 2588 C 298.344 1.3826 -1.48365 0
M  V30 2589 C 298.677 1.93831 -0.119624 0
M  V30 2590 O 297.952 1.74251 0.864111 0
M  V30 2591 C 298.235 2.54058 -2.55199 0
M  V30 2592 C 298.088 2.03772 -4.00995 0
M  V30 2593 C 299.407 3.56225 -2.58442 0
M  V30 2594 H 296.526 0.501374 -0.540179 0
M  V30 2595 H 299.168 0.7015 -1.76576 0
M  V30 2596 H 297.318 3.12162 -2.31274 0
M  V30 2597 H 298.99 1.50423 -4.36086 0
M  V30 2598 H 297.233 1.34876 -4.12299 0
M  V30 2599 H 297.904 2.87185 -4.71411 0
M  V30 2600 H 300.38 3.07939 -2.79844 0
M  V30 2601 H 299.256 4.34756 -3.3508 0
M  V30 2602 H 299.517 4.10949 -1.63013 0
M  V30 2603 N 298.576 1.31904 0.862503 0
M  V30 2604 C 299.987 1.19803 1.43193 0
M  V30 2605 C 300.338 -0.192567 1.95253 0
M  V30 2606 O 299.463 -1.09081 1.86896 0
M  V30 2607 C 300.058 2.16883 2.60283 0
M  V30 2608 C 298.617 2.08692 3.13248 0
M  V30 2609 C 297.764 2.05691 1.85975 0
M  V30 2610 H 300.715 1.43846 0.670365 0
M  V30 2611 H 300.736 1.76278 3.37204 0
M  V30 2612 H 300.248 3.18083 2.22363 0
M  V30 2613 H 298.349 1.10713 3.55771 0
M  V30 2614 H 298.462 2.9815 3.75025 0
M  V30 2615 H 296.826 1.50814 2.05249 0
M  V30 2616 H 297.609 3.08659 1.50282 0
M  V30 2617 N 300.054 -1.07777 1.14986 0
M  V30 2618 C 300.984 -2.16865 0.865557 0
M  V30 2619 C 301.965 -1.69123 -0.182083 0
M  V30 2620 O 303.15 -1.94164 -0.0373815 0
M  V30 2621 C 300.28 -3.45539 0.349313 0
M  V30 2622 C 299.234 -4.06708 1.33313 0
M  V30 2623 C 298.56 -5.30411 0.675918 0
M  V30 2624 C 299.86 -4.47241 2.69764 0
M  V30 2625 H 301.554 -2.40905 1.77778 0
M  V30 2626 H 299.1 -1.15781 0.856203 0
M  V30 2627 H 301.053 -4.21174 0.137983 0
M  V30 2628 H 299.777 -3.21072 -0.598362 0
M  V30 2629 H 298.436 -3.33112 1.53075 0
M  V30 2630 H 298.084 -5.02232 -0.277767 0
M  V30 2631 H 297.784 -5.72293 1.33244 0
M  V30 2632 H 299.308 -6.08755 0.474262 0
M  V30 2633 H 300.722 -5.14025 2.53873 0
M  V30 2634 H 299.119 -5.00062 3.3175 0
M  V30 2635 H 300.189 -3.58818 3.26156 0
M  V30 2636 N 301.532 -0.945985 -1.26051 0
M  V30 2637 C 302.78 -0.594941 -1.93145 0
M  V30 2638 C 303.101 0.86953 -1.7454 0
M  V30 2639 O 302.371 1.61838 -1.10387 0
M  V30 2640 H 300.951 -0.217044 -0.714773 0
M  V30 2641 H 303.613 -1.20235 -1.53393 0
M  V30 2642 H 302.709 -0.816835 -3.01221 0
M  V30 2643 N 303.011 1.40521 -0.713556 0
M  V30 2644 C 304.241 2.0494 -0.261395 0
M  V30 2645 C 304.649 1.53861 1.10107 0
M  V30 2646 O 303.992 0.689321 1.70276 0
M  V30 2647 C 304.054 3.59138 -0.161227 0
M  V30 2648 C 303.718 4.33096 -1.45865 0
M  V30 2649 C 304.715 4.61182 -2.40016 0
M  V30 2650 C 302.4 4.72043 -1.71701 0
M  V30 2651 C 304.394 5.27196 -3.58251 0
M  V30 2652 C 302.081 5.37789 -2.90218 0
M  V30 2653 C 303.079 5.65295 -3.83315 0
M  V30 2654 O 302.767 6.29683 -4.99754 0
M  V30 2655 H 302.499 0.666041 -0.115608 0
M  V30 2656 H 305.053 1.80954 -0.971849 0
M  V30 2657 H 303.283 3.81936 0.605153 0
M  V30 2658 H 304.972 4.05091 0.256105 0
M  V30 2659 H 305.738 4.31559 -2.21318 0
M  V30 2660 H 301.617 4.50003 -1.00092 0
M  V30 2661 H 305.161 5.48582 -4.30934 0
M  V30 2662 H 301.058 5.66831 -3.08825 0
M  V30 2663 H 301.826 6.4818 -4.99805 0
M  V30 2664 N 304.489 0.459591 1.5075 0
M  V30 2665 C 305.9 0.00171547 1.867 0
M  V30 2666 C 306.251 -1.39934 1.37525 0
M  V30 2667 O 305.376 -2.03523 0.735349 0
M  V30 2668 C 305.971 -0.00366298 3.388 0
M  V30 2669 C 304.53 -0.406026 3.74204 0
M  V30 2670 C 303.677 0.38673 2.7459 0
M  V30 2671 H 306.628 0.674413 1.43657 0
M  V30 2672 H 306.649 -0.808371 3.71814 0
M  V30 2673 H 306.161 1.01617 3.74561 0
M  V30 2674 H 304.262 -1.43063 3.4404 0
M  V30 2675 H 304.375 -0.115362 4.78961 0
M  V30 2676 H 302.739 -0.158019 2.54209 0
M  V30 2677 H 303.522 1.40585 3.13194 0
M  V30 2678 N 305.967 -1.56429 0.191757 0
M  V30 2679 C 307.216 -1.9666 -0.448088 0
M  V30 2680 C 307.529 -1.08136 -1.62991 0
M  V30 2681 O 308.735 -1.38135 -2.33733 0
M  V30 2682 C 307.191 -3.49753 -0.848585 0
M  V30 2683 C 306.799 -4.46935 0.308764 0
M  V30 2684 C 308.543 -3.9876 -1.4557 0
M  V30 2685 C 306.45 -5.91293 -0.112506 0
M  V30 2686 H 305.38 -0.734312 -0.171179 0
M  V30 2687 H 308.031 -1.81301 0.283242 0
M  V30 2688 H 306.413 -3.60604 -1.63649 0
M  V30 2689 H 307.587 -4.47813 1.08627 0
M  V30 2690 H 305.902 -4.08102 0.827158 0
M  V30 2691 H 308.499 -5.04086 -1.78328 0
M  V30 2692 H 308.842 -3.42875 -2.36099 0
M  V30 2693 H 309.375 -3.9101 -0.731836 0
M  V30 2694 H 306.114 -6.51097 0.758514 0
M  V30 2695 H 305.634 -5.93676 -0.854941 0
M  V30 2696 H 307.313 -6.44663 -0.549448 0
M  V30 2697 N 307.445 0.0818655 -1.57387 0
M  V30 2698 C 308.392 1.09834 -2.0299 0
M  V30 2699 C 309.362 1.39043 -0.908639 0
M  V30 2700 O 310.547 1.50282 -1.17559 0
M  V30 2701 C 307.687 2.40971 -2.47037 0
M  V30 2702 C 306.8 2.18379 -3.7274 0
M  V30 2703 C 305.935 3.43008 -4.0561 0
M  V30 2704 C 304.974 3.15736 -5.24383 0
M  V30 2705 N 304.111 4.32667 -5.52941 0
M  V30 2706 H 308.951 0.702472 -2.89602 0
M  V30 2707 H 306.488 0.33531 -1.43227 0
M  V30 2708 H 308.446 3.1752 -2.70623 0
M  V30 2709 H 307.076 2.78379 -1.63417 0
M  V30 2710 H 306.128 1.32569 -3.56552 0
M  V30 2711 H 307.44 1.94227 -4.59431 0
M  V30 2712 H 306.594 4.27958 -4.30043 0
M  V30 2713 H 305.333 3.70225 -3.17466 0
M  V30 2714 H 304.338 2.2918 -4.99757 0
M  V30 2715 H 305.563 2.8985 -6.14136 0
M  V30 2716 H 303.509 4.59935 -4.67756 0
M  V30 2717 H 303.426 4.11753 -6.34031 0
M  V30 2718 H 304.694 5.18644 -5.81918 0
M  V30 2719 N 308.923 1.53595 0.353017 0
M  V30 2720 C 309.886 1.80232 1.41594 0
M  V30 2721 C 310.886 0.673081 1.46035 0
M  V30 2722 O 312.076 0.941335 1.46576 0
M  V30 2723 C 309.208 1.93578 2.80607 0
M  V30 2724 H 310.401 2.75174 1.19244 0
M  V30 2725 H 307.954 1.44864 0.586872 0
M  V30 2726 H 308.689 1.00746 3.08254 0
M  V30 2727 H 308.474 2.75724 2.78781 0
M  V30 2728 H 309.964 2.15735 3.57558 0
M  V30 2729 N 310.401 -0.613514 1.45168 0
M  V30 2730 C 311.812 -1.19539 1.43413 0
M  V30 2731 C 312.163 -1.95558 0.158632 0
M  V30 2732 O 311.288 -2.0335 -0.740119 0
M  V30 2733 C 311.883 -2.17445 2.59813 0
M  V30 2734 C 310.442 -2.71022 2.61197 0
M  V30 2735 C 309.589 -1.46323 2.35552 0
M  V30 2736 H 312.54 -0.403163 1.53494 0
M  V30 2737 H 312.561 -3.00373 2.33574 0
M  V30 2738 H 312.073 -1.62089 3.52631 0
M  V30 2739 H 310.174 -3.30332 1.7237 0
M  V30 2740 H 310.287 -3.15859 3.60236 0
M  V30 2741 H 308.651 -1.75072 1.84992 0
M  V30 2742 H 309.434 -0.92844 3.30507 0
M  V30 2743 N 311.879 -1.3236 -0.855495 0
M  V30 2744 C 312.826 -1.21225 -1.964 0
M  V30 2745 C 313.796 -0.0946204 -1.6583 0
M  V30 2746 O 314.981 -0.27002 -1.8888 0
M  V30 2747 C 312.121 -0.940419 -3.32039 0
M  V30 2748 C 311.234 -2.14276 -3.75113 0
M  V30 2749 C 310.369 -1.80648 -4.9954 0
M  V30 2750 C 309.408 -2.97208 -5.35102 0
M  V30 2751 N 308.545 -2.63678 -6.50706 0
M  V30 2752 H 313.385 -2.16042 -2.05255 0
M  V30 2753 H 310.922 -1.07451 -1.00463 0
M  V30 2754 H 312.88 -0.763311 -4.10158 0
M  V30 2755 H 311.51 -0.0290413 -3.22787 0
M  V30 2756 H 310.562 -2.43017 -2.92655 0
M  V30 2757 H 311.874 -3.01468 -3.97389 0
M  V30 2758 H 311.028 -1.59484 -5.85363 0
M  V30 2759 H 309.767 -0.906678 -4.79198 0
M  V30 2760 H 308.772 -3.19004 -4.47791 0
M  V30 2761 H 309.997 -3.87918 -5.57401 0
M  V30 2762 H 307.943 -1.76238 -6.31883 0
M  V30 2763 H 307.86 -3.444 -6.72997 0
M  V30 2764 H 309.128 -2.45942 -7.39684 0
M  V30 2765 N 313.357 1.07166 -1.15556 0
M  V30 2766 C 314.287 2.16403 -0.877046 0
M  V30 2767 C 315.268 1.69217 0.173111 0
M  V30 2768 O 316.453 1.94181 0.027084 0
M  V30 2769 C 313.583 3.45349 -0.367632 0
M  V30 2770 C 312.537 4.05995 -1.35468 0
M  V30 2771 C 311.863 5.30045 -0.704038 0
M  V30 2772 C 313.163 4.45804 -2.72132 0
M  V30 2773 H 314.857 2.39959 -1.79053 0
M  V30 2774 H 312.403 1.15325 -0.862331 0
M  V30 2775 H 314.356 4.21095 -0.160317 0
M  V30 2776 H 313.08 3.21385 0.581326 0
M  V30 2777 H 311.739 3.32296 -1.54839 0
M  V30 2778 H 311.387 5.02373 0.251128 0
M  V30 2779 H 311.087 5.71579 -1.36277 0
M  V30 2780 H 312.611 6.08495 -0.50654 0
M  V30 2781 H 314.025 5.12671 -2.56595 0
M  V30 2782 H 312.422 4.98296 -3.34397 0
M  V30 2783 H 313.492 3.57083 -3.28054 0
M  V30 2784 N 314.835 0.952656 1.25548 0
M  V30 2785 C 316.246 0.647392 1.75116 0
M  V30 2786 C 316.597 -0.837274 1.77438 0
M  V30 2787 O 315.722 -1.65525 1.39393 0
M  V30 2788 C 316.317 1.16845 3.18014 0
M  V30 2789 C 314.876 0.913382 3.6515 0
M  V30 2790 C 314.023 1.31265 2.44264 0
M  V30 2791 H 316.974 1.12968 1.11462 0
M  V30 2792 H 316.995 0.527606 3.76824 0
M  V30 2793 H 316.507 2.24902 3.16292 0
M  V30 2794 H 314.608 -0.152316 3.72289 0
M  V30 2795 H 314.721 1.54845 4.53387 0
M  V30 2796 H 313.085 0.731028 2.43984 0
M  V30 2797 H 313.868 2.40239 2.45234 0
M  V30 2798 N 316.313 -1.40141 0.720998 0
M  V30 2799 C 317.561 -2.0039 0.262323 0
M  V30 2800 C 317.882 -1.57469 -1.15015 0
M  V30 2801 O 317.152 -0.816582 -1.78069 0
M  V30 2802 H 315.732 -0.741063 0.093996 0
M  V30 2803 H 318.394 -1.71398 0.927835 0
M  V30 2804 H 317.49 -3.10658 0.299671 0
M  V30 2805 N 317.792 -0.46758 -1.50504 0
M  V30 2806 C 319.04 0.0884469 -2.01906 0
M  V30 2807 C 319.361 1.40532 -1.35188 0
M  V30 2808 O 318.631 1.89515 -0.496079 0
M  V30 2809 H 317.211 0.0356765 -0.746148 0
M  V30 2810 H 319.873 -0.6172 -1.84869 0
M  V30 2811 H 318.969 0.2425 -3.11156 0
M  V30 2812 N 319.27 1.56325 -0.20005 0
M  V30 2813 C 320.5 2.01811 0.442232 0
M  V30 2814 C 320.908 1.07932 1.55394 0
M  V30 2815 O 320.251 0.0772685 1.83537 0
M  V30 2816 C 320.313 3.43685 1.05457 0
M  V30 2817 C 319.977 4.56928 0.0809833 0
M  V30 2818 C 320.974 5.15009 -0.711471 0
M  V30 2819 C 318.659 5.0229 -0.0315364 0
M  V30 2820 C 320.653 6.16904 -1.60336 0
M  V30 2821 C 318.34 6.04028 -0.926981 0
M  V30 2822 C 319.338 6.6121 -1.71146 0
M  V30 2823 O 319.026 7.60971 -2.59189 0
M  V30 2824 H 318.758 0.666173 0.114848 0
M  V30 2825 H 321.312 2.03085 -0.307511 0
M  V30 2826 H 319.542 3.39413 1.85299 0
M  V30 2827 H 321.231 3.72948 1.60201 0
M  V30 2828 H 321.997 4.80827 -0.634873 0
M  V30 2829 H 317.876 4.57476 0.568902 0
M  V30 2830 H 321.42 6.61464 -2.21611 0
M  V30 2831 H 317.317 6.37634 -1.00468 0
M  V30 2832 H 318.085 7.7841 -2.53023 0
M  V30 2833 N 320.748 -0.0735177 1.57428 0
M  V30 2834 C 321.996 -0.771472 1.86796 0
M  V30 2835 C 322.317 -1.78201 0.791804 0
M  V30 2836 O 321.587 -1.95074 -0.179718 0
M  V30 2837 H 320.167 -0.28791 0.689287 0
M  V30 2838 H 322.829 -0.0500161 1.94836 0
M  V30 2839 H 321.925 -1.28874 2.8425 0
M  V30 2840 N 322.226 -1.5378 -0.344866 0
M  V30 2841 C 323.156 -1.84662 -1.42906 0
M  V30 2842 C 324.137 -0.701648 -1.54955 0
M  V30 2843 O 325.322 -0.953438 -1.69184 0
M  V30 2844 C 322.452 -2.05503 -2.79974 0
M  V30 2845 C 321.406 -3.21318 -2.82734 0
M  V30 2846 C 320.732 -3.2749 -4.22675 0
M  V30 2847 C 322.032 -4.59456 -2.48389 0
M  V30 2848 H 323.726 -2.75461 -1.17311 0
M  V30 2849 H 321.272 -1.32542 -0.562896 0
M  V30 2850 H 323.225 -2.25691 -3.55867 0
M  V30 2851 H 321.949 -1.11434 -3.07002 0
M  V30 2852 H 320.608 -3.00984 -2.09294 0
M  V30 2853 H 320.256 -2.31019 -4.4681 0
M  V30 2854 H 319.956 -4.05316 -4.25433 0
M  V30 2855 H 321.48 -3.49887 -5.00412 0
M  V30 2856 H 322.894 -4.79667 -3.13995 0
M  V30 2857 H 321.291 -5.39675 -2.62432 0
M  V30 2858 H 322.361 -4.63155 -1.4358 0
M  V30 2859 N 323.704 0.605807 -1.45491 0
M  V30 2860 C 325.115 1.18777 -1.44045 0
M  V30 2861 C 325.466 1.95471 -0.169001 0
M  V30 2862 O 324.591 2.0374 0.729324 0
M  V30 2863 C 325.186 2.16064 -2.60963 0
M  V30 2864 C 323.745 2.69633 -2.62631 0
M  V30 2865 C 322.892 1.45072 -2.36325 0
M  V30 2866 H 325.843 0.395017 -1.53705 0
M  V30 2867 H 325.864 2.9913 -2.35163 0
M  V30 2868 H 325.376 1.60217 -3.53486 0
M  V30 2869 H 323.477 3.29414 -1.74119 0
M  V30 2870 H 323.59 3.13944 -3.61906 0
M  V30 2871 H 321.954 1.74089 -1.85917 0
M  V30 2872 H 322.737 0.910899 -3.30995 0
M  V30 2873 N 325.182 1.32811 0.848464 0
M  V30 2874 C 326.412 1.26556 1.63301 0
M  V30 2875 C 326.82 -0.1676 1.88456 0
M  V30 2876 O 326.163 -1.11713 1.45828 0
M  V30 2877 C 326.225 1.96202 3.01239 0
M  V30 2878 C 325.889 3.45528 2.99098 0
M  V30 2879 C 326.886 4.40903 2.75501 0
M  V30 2880 C 324.571 3.87558 3.19537 0
M  V30 2881 C 326.565 5.76282 2.72356 0
M  V30 2882 C 324.252 5.23044 3.16019 0
M  V30 2883 C 325.25 6.17217 2.92458 0
M  V30 2884 O 324.938 7.50223 2.88825 0
M  V30 2885 H 324.67 0.43771 0.515156 0
M  V30 2886 H 327.224 1.7559 1.0657 0
M  V30 2887 H 325.454 1.41746 3.59785 0
M  V30 2888 H 327.143 1.83573 3.62016 0
M  V30 2889 H 327.909 4.09756 2.5947 0
M  V30 2890 H 323.788 3.14674 3.369 0
M  V30 2891 H 327.332 6.4976 2.53886 0
M  V30 2892 H 323.229 5.53818 3.31596 0
M  V30 2893 H 323.997 7.59657 3.04735 0
M  V30 2894 N 326.66 -1.06551 1.16123 0
M  V30 2895 C 327.888 -1.83005 0.965237 0
M  V30 2896 C 328.303 -1.82423 -0.486542 0
M  V30 2897 O 327.66 -1.24152 -1.33763 0
M  V30 2898 C 327.711 -3.29733 1.48183 0
M  V30 2899 O 327.432 -3.30416 2.87674 0
M  V30 2900 C 328.933 -4.22926 1.32848 0
M  V30 2901 H 326.153 -0.577118 0.342309 0
M  V30 2902 H 328.697 -1.3445 1.54089 0
M  V30 2903 H 326.852 -3.75609 0.948517 0
M  V30 2904 H 327.266 -4.22149 3.11272 0
M  V30 2905 H 328.74 -5.23916 1.73827 0
M  V30 2906 H 329.217 -4.38346 0.273692 0
M  V30 2907 H 329.823 -3.82894 1.85127 0
M  V30 2908 N 328.138 -0.959301 -1.25041 0
M  V30 2909 C 329.366 -0.633949 -1.96948 0
M  V30 2910 C 329.781 0.794916 -1.7125 0
M  V30 2911 O 329.138 1.53231 -0.991287 0
M  V30 2912 C 329.189 -0.888805 -3.50403 0
M  V30 2913 O 328.91 -2.26149 -3.75218 0
M  V30 2914 C 330.411 -0.576482 -4.39536 0
M  V30 2915 H 327.631 -0.237263 -0.627652 0
M  V30 2916 H 330.175 -1.28495 -1.59089 0
M  V30 2917 H 328.33 -0.284145 -3.86357 0
M  V30 2918 H 328.744 -2.33514 -4.6965 0
M  V30 2919 H 330.218 -0.805314 -5.46094 0
M  V30 2920 H 330.695 0.489075 -4.36468 0
M  V30 2921 H 331.301 -1.16067 -4.09156 0
M  V30 2922 N 329.616 1.39756 -0.72842 0
M  V30 2923 C 330.864 2.00248 -0.272946 0
M  V30 2924 C 331.185 1.58077 1.14178 0
M  V30 2925 O 330.455 0.826014 1.77634 0
M  V30 2926 H 329.035 0.740554 -0.0979247 0
M  V30 2927 H 331.697 1.70903 -0.936912 0
M  V30 2928 H 330.793 3.10495 -0.316142 0
M  V30 2929 N 331.094 0.475555 1.50254 0
M  V30 2930 C 332.041 -0.316293 2.28622 0
M  V30 2931 C 333.011 -0.983227 1.33873 0
M  V30 2932 O 334.196 -0.994805 1.62814 0
M  V30 2933 C 331.336 -1.38975 3.1588 0
M  V30 2934 C 330.449 -0.737146 4.25664 0
M  V30 2935 C 329.584 -1.78887 5.00173 0
M  V30 2936 C 328.623 -1.11676 6.01826 0
M  V30 2937 N 327.76 -2.11154 6.69596 0
M  V30 2938 H 332.6 0.358297 2.95838 0
M  V30 2939 H 330.137 0.188541 1.45887 0
M  V30 2940 H 332.095 -2.02383 3.64825 0
M  V30 2941 H 330.725 -2.03344 2.50701 0
M  V30 2942 H 329.777 0.0096065 3.80399 0
M  V30 2943 H 331.089 -0.206816 4.98371 0
M  V30 2944 H 330.243 -2.49865 5.52859 0
M  V30 2945 H 328.982 -2.35302 4.27182 0
M  V30 2946 H 327.987 -0.392633 5.48396 0
M  V30 2947 H 329.212 -0.55945 6.76792 0
M  V30 2948 H 327.158 -2.66577 5.99394 0
M  V30 2949 H 327.075 -1.63118 7.38193 0
M  V30 2950 H 328.343 -2.81497 7.26897 0
M  V30 2951 N 332.573 -1.56217 0.208337 0
M  V30 2952 C 333.503 -2.22694 -0.702116 0
M  V30 2953 C 334.484 -1.19432 -1.2112 0
M  V30 2954 O 335.669 -1.47978 -1.25762 0
M  V30 2955 C 332.799 -2.8966 -1.9161 0
M  V30 2956 C 331.753 -3.9928 -1.5414 0
M  V30 2957 C 331.079 -4.53476 -2.83308 0
M  V30 2958 C 332.379 -5.17012 -0.741339 0
M  V30 2959 H 334.073 -2.99034 -0.147898 0
M  V30 2960 H 331.619 -1.43831 -0.0696951 0
M  V30 2961 H 333.572 -3.34852 -2.55836 0
M  V30 2962 H 332.296 -2.10746 -2.49507 0
M  V30 2963 H 330.955 -3.54799 -0.922668 0
M  V30 2964 H 330.603 -3.71308 -3.39322 0
M  V30 2965 H 330.303 -5.27451 -2.58976 0
M  V30 2966 H 331.827 -5.01378 -3.485 0
M  V30 2967 H 333.241 -5.58667 -1.28699 0
M  V30 2968 H 331.638 -5.97137 -0.595627 0
M  V30 2969 H 332.708 -4.8423 0.254851 0
M  V30 2970 N 334.051 0.0651679 -1.57465 0
M  V30 2971 C 335.462 0.616213 -1.76238 0
M  V30 2972 C 335.813 1.7756 -0.834689 0
M  V30 2973 O 334.938 2.1639 -0.0204156 0
M  V30 2974 C 335.533 1.12462 -3.1959 0
M  V30 2975 C 334.092 1.62147 -3.39684 0
M  V30 2976 C 333.239 0.543739 -2.71917 0
M  V30 2977 H 336.19 -0.161022 -1.57881 0
M  V30 2978 H 336.211 1.99324 -3.24114 0
M  V30 2979 H 335.723 0.280592 -3.87084 0
M  V30 2980 H 333.824 2.48854 -2.77313 0
M  V30 2981 H 333.937 1.69385 -4.48158 0
M  V30 2982 H 332.301 0.990352 -2.34657 0
M  V30 2983 H 333.084 -0.290216 -3.42071 0
M  V30 2984 N 335.529 1.53961 0.336706 0
M  V30 2985 C 336.759 1.75229 1.09446 0
M  V30 2986 C 337.167 0.494602 1.82621 0
M  V30 2987 O 336.51 -0.543764 1.75468 0
M  V30 2988 C 336.572 2.88288 2.1478 0
M  V30 2989 C 336.236 4.27656 1.6112 0
M  V30 2990 C 337.233 5.08981 1.0599 0
M  V30 2991 C 334.918 4.74161 1.6576 0
M  V30 2992 C 336.912 6.34916 0.562129 0
M  V30 2993 C 334.599 6.00067 1.15595 0
M  V30 2994 C 335.597 6.80278 0.609147 0
M  V30 2995 O 335.285 8.03818 0.114999 0
M  V30 2996 H 335.017 0.588881 0.331956 0
M  V30 2997 H 337.571 2.01614 0.392566 0
M  V30 2998 H 335.801 2.57443 2.88548 0
M  V30 2999 H 337.49 2.97461 2.76174 0
M  V30 3000 H 338.256 4.74213 1.01722 0
M  V30 3001 H 334.135 4.11781 2.07261 0
M  V30 3002 H 337.679 6.9747 0.134668 0
M  V30 3003 H 333.576 6.3433 1.19566 0
M  V30 3004 H 334.344 8.18172 0.231651 0
M  V30 3005 N 337.007 -0.598083 1.45811 0
M  V30 3006 C 338.255 -1.35413 1.50026 0
M  V30 3007 C 338.576 -1.94444 0.147177 0
M  V30 3008 O 337.846 -1.77701 -0.824571 0
M  V30 3009 H 336.426 -0.502727 0.552517 0
M  V30 3010 H 339.088 -0.701606 1.81834 0
M  V30 3011 H 338.184 -2.16871 2.2444 0
M  V30 3012 N 338.485 -1.33259 -0.841409 0
M  V30 3013 C 339.715 -1.2742 -1.62628 0
M  V30 3014 C 340.123 0.157604 -1.88542 0
M  V30 3015 O 339.466 1.10938 -1.46419 0
M  V30 3016 C 339.528 -1.97797 -3.00194 0
M  V30 3017 C 339.192 -3.47109 -2.97261 0
M  V30 3018 C 340.189 -4.42358 -2.73159 0
M  V30 3019 C 337.874 -3.89247 -3.17478 0
M  V30 3020 C 339.868 -5.77718 -2.69296 0
M  V30 3021 C 337.555 -5.24713 -3.13241 0
M  V30 3022 C 338.553 -6.1876 -2.89181 0
M  V30 3023 O 338.241 -7.51745 -2.84843 0
M  V30 3024 H 337.973 -0.440436 -0.512827 0
M  V30 3025 H 340.527 -1.76153 -1.05638 0
M  V30 3026 H 338.757 -1.43652 -3.59028 0
M  V30 3027 H 340.446 -1.8549 -3.61038 0
M  V30 3028 H 341.212 -4.11127 -2.57294 0
M  V30 3029 H 337.091 -3.16456 -3.35226 0
M  V30 3030 H 340.635 -6.51097 -2.50436 0
M  V30 3031 H 336.532 -5.55569 -3.28654 0
M  V30 3032 H 337.3 -7.61262 -3.00702 0
M  V30 3033 N 339.963 1.05934 -1.16686 0
M  V30 3034 C 341.211 1.78447 -0.948744 0
M  V30 3035 C 341.532 1.87813 0.524523 0
M  V30 3036 O 340.802 1.38945 1.38098 0
M  V30 3037 H 339.382 0.660971 -0.348033 0
M  V30 3038 H 342.044 1.27947 -1.47022 0
M  V30 3039 H 341.14 2.80394 -1.37061 0
M  V30 3040 N 341.441 0.965919 1.2453 0
M  V30 3041 C 342.852 0.665929 1.7442 0
M  V30 3042 C 343.203 -0.818407 1.78316 0
M  V30 3043 O 342.328 -1.64037 1.41141 0
M  V30 3044 C 342.923 1.20211 3.16757 0
M  V30 3045 C 341.482 0.952059 3.6416 0
M  V30 3046 C 340.629 1.33848 2.42858 0
M  V30 3047 H 343.58 1.14144 1.10258 0
M  V30 3048 H 343.601 0.567544 3.76244 0
M  V30 3049 H 343.113 2.28244 3.13889 0
M  V30 3050 H 341.214 -0.112821 3.72429 0
M  V30 3051 H 341.327 1.59645 4.51719 0
M  V30 3052 H 339.691 0.756864 2.43195 0
M  V30 3053 H 340.474 2.42827 2.42673 0
M  V30 3054 N 342.919 -1.39368 0.735821 0
M  V30 3055 C 344.167 -2.00101 0.283562 0
M  V30 3056 C 344.488 -1.5868 -1.13338 0
M  V30 3057 O 343.758 -0.835423 -1.77193 0
M  V30 3058 H 342.338 -0.740024 0.101851 0
M  V30 3059 H 345 -1.70404 0.945962 0
M  V30 3060 H 344.096 -3.10323 0.332604 0
M  V30 3061 N 344.397 -0.483516 -1.5 0
M  V30 3062 C 345.645 0.067027 -2.01989 0
M  V30 3063 C 345.966 1.3909 -1.36671 0
M  V30 3064 O 345.236 1.88978 -0.516152 0
M  V30 3065 H 343.816 0.0277606 -0.746484 0
M  V30 3066 H 346.478 -0.636773 -1.84204 0
M  V30 3067 H 345.574 0.209484 -3.11396 0
M  V30 3068 N 345.875 1.56104 -0.216619 0
M  V30 3069 C 347.121 1.98466 0.417033 0
M  V30 3070 C 347.454 1.10403 1.59765 0
M  V30 3071 O 346.729 0.160632 1.93836 0
M  V30 3072 C 347.012 3.49769 0.85637 0
M  V30 3073 C 346.865 4.48606 -0.327546 0
M  V30 3074 C 348.184 4.05339 1.7143 0
M  V30 3075 H 345.303 0.721551 0.150112 0
M  V30 3076 H 347.945 1.87423 -0.311864 0
M  V30 3077 H 346.095 3.5931 1.47745 0
M  V30 3078 H 347.767 4.5108 -0.965618 0
M  V30 3079 H 346.01 4.22682 -0.975805 0
M  V30 3080 H 346.681 5.51995 0.0227149 0
M  V30 3081 H 349.157 3.98712 1.19031 0
M  V30 3082 H 348.033 5.11533 1.99061 0
M  V30 3083 H 348.294 3.51918 2.67593 0
M  V30 3084 N 347.353 -0.0568162 1.57498 0
M  V30 3085 C 348.316 -1.05038 2.03715 0
M  V30 3086 C 349.316 -1.30709 0.936577 0
M  V30 3087 O 350.506 -1.26178 1.20103 0
M  V30 3088 C 347.638 -2.39034 2.43055 0
M  V30 3089 H 348.831 -0.651715 2.92733 0
M  V30 3090 H 346.384 -0.302947 1.53336 0
M  V30 3091 H 347.119 -2.83703 1.57108 0
M  V30 3092 H 346.904 -2.21739 3.2338 0
M  V30 3093 H 348.394 -3.10421 2.79336 0
M  V30 3094 N 348.832 -1.54138 -0.328536 0
M  V30 3095 C 350.08 -1.71765 -1.06496 0
M  V30 3096 C 350.401 -0.49149 -1.88704 0
M  V30 3097 O 349.671 0.494539 -1.89555 0
M  V30 3098 H 348.251 -0.633295 -0.396164 0
M  V30 3099 H 350.913 -1.91429 -0.366176 0
M  V30 3100 H 350.009 -2.5951 -1.73381 0
M  V30 3101 N 350.31 0.590341 -1.46126 0
M  V30 3102 C 351.273 1.68194 -1.55703 0
M  V30 3103 C 352.273 1.54808 -0.434868 0
M  V30 3104 O 353.463 1.59564 -0.698928 0
M  V30 3105 C 350.595 3.07575 -1.47005 0
M  V30 3106 H 351.788 1.61064 -2.52979 0
M  V30 3107 H 349.341 0.807541 -1.33823 0
M  V30 3108 H 350.076 3.20268 -0.509785 0
M  V30 3109 H 349.861 3.187 -2.28414 0
M  V30 3110 H 351.351 3.87055 -1.56776 0
M  V30 3111 N 351.788 1.33704 0.83433 0
M  V30 3112 C 352.751 1.24244 1.92603 0
M  V30 3113 C 353.751 0.160383 1.59998 0
M  V30 3114 O 354.941 0.412228 1.69252 0
M  V30 3115 C 352.073 0.91555 3.28376 0
M  V30 3116 H 353.266 2.21287 2.02416 0
M  V30 3117 H 350.819 1.17827 1.02696 0
M  V30 3118 H 351.554 -0.0521886 3.24258 0
M  V30 3119 H 351.339 1.69811 3.53422 0
M  V30 3120 H 352.829 0.874231 4.08347 0
M  V30 3121 N 353.266 -1.05314 1.17247 0
M  V30 3122 C 354.514 -1.77941 0.958194 0
M  V30 3123 C 354.835 -1.88089 -0.514556 0
M  V30 3124 O 354.105 -1.39676 -1.37359 0
M  V30 3125 H 352.685 -0.659116 0.351533 0
M  V30 3126 H 355.347 -1.27166 1.47699 0
M  V30 3127 H 354.443 -2.79663 1.38546 0
M  V30 3128 N 354.744 -0.972509 -1.24016 0
M  V30 3129 C 355.691 -0.505969 -2.25186 0
M  V30 3130 C 356.661 0.451009 -1.5986 0
M  V30 3131 O 357.846 0.360307 -1.87367 0
M  V30 3132 C 354.986 0.193089 -3.44559 0
M  V30 3133 C 354.099 -0.803222 -4.24467 0
M  V30 3134 C 353.234 -0.0797793 -5.3114 0
M  V30 3135 C 352.273 -1.06583 -6.02749 0
M  V30 3136 N 351.41 -0.372074 -7.01113 0
M  V30 3137 H 356.25 -1.37351 -2.64459 0
M  V30 3138 H 353.787 -0.688419 -1.29997 0
M  V30 3139 H 355.745 0.615125 -4.1264 0
M  V30 3140 H 354.375 1.02455 -3.06109 0
M  V30 3141 H 353.427 -1.34368 -3.55878 0
M  V30 3142 H 354.739 -1.55494 -4.73944 0
M  V30 3143 H 353.893 0.400015 -6.0538 0
M  V30 3144 H 352.632 0.704597 -4.82583 0
M  V30 3145 H 351.637 -1.55645 -5.27309 0
M  V30 3146 H 352.862 -1.85074 -6.53395 0
M  V30 3147 H 350.808 0.393238 -6.5482 0
M  V30 3148 H 350.725 -1.06258 -7.48495 0
M  V30 3149 H 351.993 0.0855932 -7.79453 0
M  V30 3150 N 356.222 1.38976 -0.743202 0
M  V30 3151 C 357.185 2.28901 -0.117014 0
M  V30 3152 C 358.185 1.46698 0.658503 0
M  V30 3153 O 359.375 1.67274 0.486305 0
M  V30 3154 C 356.507 3.30309 0.84315 0
M  V30 3155 H 357.7 2.8578 -0.909373 0
M  V30 3156 H 355.253 1.47761 -0.509547 0
M  V30 3157 H 355.988 2.785 1.66157 0
M  V30 3158 H 355.773 3.91029 0.289594 0
M  V30 3159 H 357.263 3.97577 1.2776 0
M  V30 3160 N 357.7 0.491464 1.49741 0
M  V30 3161 C 358.948 -0.0563141 2.02022 0
M  V30 3162 C 359.269 -1.38363 1.37407 0
M  V30 3163 O 358.539 -1.88702 0.526166 0
M  V30 3164 H 357.119 -0.0238014 0.746621 0
M  V30 3165 H 359.781 0.646533 1.83864 0
M  V30 3166 H 358.877 -0.192967 3.11503 0
M  V30 3167 N 359.178 -1.55987 0.224894 0
M  V30 3168 C 360.408 -2.02489 -0.41007 0
M  V30 3169 C 360.816 -1.10391 -1.53657 0
M  V30 3170 O 360.159 -0.106458 -1.83391 0
M  V30 3171 C 360.221 -3.45319 -0.999757 0
M  V30 3172 C 359.885 -4.56999 -0.00827976 0
M  V30 3173 C 360.882 -5.13812 0.793314 0
M  V30 3174 C 358.567 -5.02176 0.111442 0
M  V30 3175 C 360.561 -6.14276 1.7013 0
M  V30 3176 C 358.248 -6.02477 1.02296 0
M  V30 3177 C 359.246 -6.58403 1.81643 0
M  V30 3178 O 358.934 -7.56751 2.71262 0
M  V30 3179 H 358.666 -0.667915 -0.104235 0
M  V30 3180 H 361.22 -2.0257 0.339782 0
M  V30 3181 H 359.45 -3.42318 -1.79876 0
M  V30 3182 H 361.139 -3.7545 -1.54248 0
M  V30 3183 H 361.905 -4.79756 0.711288 0
M  V30 3184 H 357.784 -4.58323 -0.49605 0
M  V30 3185 H 361.328 -6.57854 2.32107 0
M  V30 3186 H 357.225 -6.35954 1.10599 0
M  V30 3187 H 357.993 -7.74286 2.65375 0
M  V30 3188 N 360.656 0.0484629 -1.57525 0
M  V30 3189 C 362.067 0.597486 -1.76881 0
M  V30 3190 C 362.418 1.76664 -0.853475 0
M  V30 3191 O 361.543 2.16357 -0.0433656 0
M  V30 3192 C 362.138 1.09066 -3.20765 0
M  V30 3193 C 360.697 1.58535 -3.41385 0
M  V30 3194 C 359.844 0.514868 -2.72478 0
M  V30 3195 H 362.795 -0.177758 -1.57701 0
M  V30 3196 H 362.816 1.95875 -3.2621 0
M  V30 3197 H 362.328 0.239521 -3.8736 0
M  V30 3198 H 360.429 2.45898 -2.79937 0
M  V30 3199 H 360.542 1.64622 -4.49929 0
M  V30 3200 H 358.906 0.965407 -2.35695 0
M  V30 3201 H 359.689 -0.32648 -3.41744 0
M  V30 3202 N 362.134 1.5431 0.320358 0
M  V30 3203 C 363.362 1.76636 1.07738 0
M  V30 3204 C 363.777 0.51649 1.81598 0
M  V30 3205 O 363.134 -0.512942 1.75143 0
M  V30 3206 C 363.185 2.96158 2.07299 0
M  V30 3207 O 362.906 4.16313 1.36438 0
M  V30 3208 C 364.407 3.3072 2.95193 0
M  V30 3209 H 361.627 0.589597 0.320339 0
M  V30 3210 H 364.171 2.01207 0.36551 0
M  V30 3211 H 362.326 2.73851 2.74016 0
M  V30 3212 H 362.74 4.83565 2.03138 0
M  V30 3213 H 364.214 4.17643 3.60941 0
M  V30 3214 H 364.691 2.48026 3.62463 0
M  V30 3215 H 365.297 3.55117 2.34034 0
M  V30 3216 N 363.613 -0.582584 1.46437 0
M  V30 3217 C 364.861 -1.33814 1.51453 0
M  V30 3218 C 365.182 -1.94277 0.167792 0
M  V30 3219 O 364.452 -1.78566 -0.805677 0
M  V30 3220 H 363.032 -0.496838 0.557818 0
M  V30 3221 H 365.694 -0.682281 1.82568 0
M  V30 3222 H 364.79 -2.14479 2.26728 0
M  V30 3223 N 365.091 -1.34144 -0.827227 0
M  V30 3224 C 366.319 -1.29325 -1.61501 0
M  V30 3225 C 366.734 0.13354 -1.88327 0
M  V30 3226 O 366.091 1.0793 -1.47164 0
M  V30 3227 C 366.142 -2.07746 -2.95844 0
M  V30 3228 O 365.863 -3.4486 -2.70191 0
M  V30 3229 C 367.364 -2.10273 -3.90256 0
M  V30 3230 H 364.584 -0.445069 -0.50215 0
M  V30 3231 H 367.128 -1.76693 -1.02955 0
M  V30 3232 H 365.283 -1.6403 -3.5096 0
M  V30 3233 H 365.697 -3.85345 -3.55822 0
M  V30 3234 H 367.171 -2.69575 -4.81698 0
M  V30 3235 H 367.648 -1.096 -4.25305 0
M  V30 3236 H 368.254 -2.54059 -3.41078 0
M  V30 3237 N 366.569 1.04691 -1.17803 0
M  V30 3238 C 367.817 1.7743 -0.967617 0
M  V30 3239 C 368.138 1.88359 0.504574 0
M  V30 3240 O 367.408 1.40402 1.36617 0
M  V30 3241 H 365.988 0.657242 -0.355024 0
M  V30 3242 H 368.65 1.2638 -1.48371 0
M  V30 3243 H 367.746 2.78924 -1.40027 0
M  V30 3244 N 368.047 0.979072 1.23499 0
M  V30 3245 C 369.293 0.648178 1.92163 0
M  V30 3246 C 369.626 -0.816049 1.76222 0
M  V30 3247 O 368.901 -1.58849 1.12237 0
M  V30 3248 C 369.184 1.03773 3.44824 0
M  V30 3249 C 369.037 2.55948 3.69879 0
M  V30 3250 C 370.356 0.580653 4.36253 0
M  V30 3251 H 367.475 0.236952 0.69787 0
M  V30 3252 H 370.117 1.22012 1.45647 0
M  V30 3253 H 368.267 0.551058 3.84572 0
M  V30 3254 H 369.939 3.12179 3.3962 0
M  V30 3255 H 368.182 2.98641 3.14636 0
M  V30 3256 H 368.853 2.78255 4.76737 0
M  V30 3257 H 371.329 0.998465 4.03943 0
M  V30 3258 H 370.205 0.881663 5.41773 0
M  V30 3259 H 370.466 -0.519052 4.39042 0
M  V30 3260 N 369.525 -1.3858 0.750561 0
M  V30 3261 C 370.773 -1.99789 0.30477 0
M  V30 3262 C 371.094 -1.59874 -1.11649 0
M  V30 3263 O 370.364 -0.85417 -1.76297 0
M  V30 3264 H 368.944 -0.738902 0.109694 0
M  V30 3265 H 371.606 -1.69391 0.963983 0
M  V30 3266 H 370.702 -3.09952 0.365499 0
M  V30 3267 N 371.003 -0.499398 -1.49478 0
M  V30 3268 C 372.414 -0.051215 -1.8663 0
M  V30 3269 C 372.765 1.36238 -1.41186 0
M  V30 3270 O 371.89 2.01502 -0.789051 0
M  V30 3271 C 372.485 -0.0861651 -3.3869 0
M  V30 3272 C 371.044 0.30667 -3.75149 0
M  V30 3273 C 370.191 -0.459397 -2.73468 0
M  V30 3274 H 373.142 -0.712264 -1.41818 0
M  V30 3275 H 373.163 0.709507 -3.73826 0
M  V30 3276 H 372.675 -1.11512 -3.71735 0
M  V30 3277 H 370.776 1.33892 -3.47712 0
M  V30 3278 H 370.889 -0.0116669 -4.79099 0
M  V30 3279 H 369.253 0.0905645 -2.54539 0
M  V30 3280 H 370.036 -1.4884 -3.09357 0
M  V30 3281 N 372.481 1.55866 -0.233164 0
M  V30 3282 C 373.413 2.18099 0.704668 0
M  V30 3283 C 374.426 1.15334 1.14899 0
M  V30 3284 O 375.615 1.42262 1.07814 0
M  V30 3285 C 372.715 2.7592 1.96777 0
M  V30 3286 C 371.888 4.03969 1.67713 0
M  V30 3287 C 370.947 4.46242 2.78845 0
M  V30 3288 O 369.973 5.12903 2.46818 0
M  V30 3289 N 371.175 4.12886 4.08051 0
M  V30 3290 H 373.94 2.99205 0.172258 0
M  V30 3291 H 371.501 1.61815 -0.0525945 0
M  V30 3292 H 373.493 3.01165 2.70337 0
M  V30 3293 H 372.063 1.99051 2.41034 0
M  V30 3294 H 371.283 3.86459 0.777391 0
M  V30 3295 H 372.571 4.8748 1.4574 0
M  V30 3296 H 371.969 3.59342 4.3691 0
M  V30 3297 H 370.526 4.42997 4.78118 0
M  V30 3298 N 373.959 -0.0401083 1.57549 0
M  V30 3299 C 374.922 -1.02871 2.04817 0
M  V30 3300 C 375.922 -1.29708 0.950388 0
M  V30 3301 O 377.112 -1.24897 1.21435 0
M  V30 3302 C 374.244 -2.36443 2.45576 0
M  V30 3303 H 375.437 -0.620631 2.93408 0
M  V30 3304 H 372.99 -0.286667 1.53649 0
M  V30 3305 H 373.725 -2.82021 1.60108 0
M  V30 3306 H 373.51 -2.18296 3.25713 0
M  V30 3307 H 375 -3.07441 2.82612 0
M  V30 3308 N 375.437 -1.54477 -0.31217 0
M  V30 3309 C 376.4 -1.83923 -1.36766 0
M  V30 3310 C 377.4 -0.711563 -1.44199 0
M  V30 3311 O 378.59 -0.979866 -1.44029 0
M  V30 3312 C 375.722 -2.0095 -2.75376 0
M  V30 3313 H 376.915 -2.78239 -1.11906 0
M  V30 3314 H 374.468 -1.46369 -0.548257 0
M  V30 3315 H 375.203 -1.08883 -3.05475 0
M  V30 3316 H 374.988 -2.83018 -2.71373 0
M  V30 3317 H 376.478 -2.2514 -3.51713 0
M  V30 3318 N 376.915 0.57481 -1.46744 0
M  V30 3319 C 377.878 1.66533 -1.57478 0
M  V30 3320 C 378.878 1.54338 -0.451263 0
M  V30 3321 O 380.068 1.58814 -0.715813 0
M  V30 3322 C 377.2 3.05999 -1.50259 0
M  V30 3323 H 378.393 1.58372 -2.54673 0
M  V30 3324 H 375.946 0.793301 -1.34672 0
M  V30 3325 H 376.681 3.19709 -0.543725 0
M  V30 3326 H 376.466 3.16259 -2.31781 0
M  V30 3327 H 377.956 3.8537 -1.60872 0
M  V30 3328 N 378.394 1.34581 0.820102 0
M  V30 3329 C 379.357 1.2628 1.91275 0
M  V30 3330 C 380.357 0.177344 1.59819 0
M  V30 3331 O 381.547 0.430156 1.68806 0
M  V30 3332 C 378.679 0.950327 3.27386 0
M  V30 3333 H 379.872 2.23421 2.00057 0
M  V30 3334 H 377.425 1.1891 1.0144 0
M  V30 3335 H 378.16 -0.0177938 3.24295 0
M  V30 3336 H 377.945 1.73549 3.51601 0
M  V30 3337 H 379.435 0.917492 4.07396 0
M  V30 3338 N 379.872 -1.04064 1.18357 0
M  V30 3339 C 380.835 -2.10243 0.912707 0
M  V30 3340 C 381.835 -1.60477 -0.101928 0
M  V30 3341 O 383.025 -1.73703 0.131517 0
M  V30 3342 C 380.157 -3.38893 0.369387 0
M  V30 3343 H 381.35 -2.35706 1.85426 0
M  V30 3344 H 378.903 -1.20489 0.995594 0
M  V30 3345 H 379.638 -3.19094 -0.578776 0
M  V30 3346 H 379.423 -3.76331 1.1008 0
M  V30 3347 H 380.913 -4.17128 0.198575 0
M  V30 3348 N 381.35 -0.985608 -1.22978 0
M  V30 3349 C 382.313 -0.535071 -2.22867 0
M  V30 3350 C 383.313 0.378123 -1.56291 0
M  V30 3351 O 384.503 0.171092 -1.73358 0
M  V30 3352 C 381.635 0.222702 -3.40172 0
M  V30 3353 H 382.828 -1.41835 -2.6424 0
M  V30 3354 H 380.381 -0.772042 -1.35901 0
M  V30 3355 H 381.116 1.12229 -3.04262 0
M  V30 3356 H 380.901 -0.43288 -3.89703 0
M  V30 3357 H 382.391 0.526335 -4.1427 0
M  V30 3358 N 382.828 1.3818 -0.7579 0
M  V30 3359 C 383.791 2.28764 -0.141286 0
M  V30 3360 C 384.791 1.47388 0.642907 0
M  V30 3361 O 385.981 1.67781 0.468536 0
M  V30 3362 C 383.113 3.31184 0.808069 0
M  V30 3363 H 384.306 2.848 -0.939633 0
M  V30 3364 H 381.859 1.47212 -0.525191 0
M  V30 3365 H 382.594 2.80247 1.63193 0
M  V30 3366 H 382.379 3.91314 0.248104 0
M  V30 3367 H 383.869 3.98909 1.23536 0
M  V30 3368 N 384.306 0.507319 1.49211 0
M  V30 3369 C 385.253 -0.267728 2.29242 0
M  V30 3370 C 386.223 -0.954609 1.35928 0
M  V30 3371 O 387.408 -0.960046 1.64887 0
M  V30 3372 C 384.548 -1.32243 3.18756 0
M  V30 3373 C 383.661 -0.64669 4.27132 0
M  V30 3374 C 382.796 -1.68238 5.03855 0
M  V30 3375 C 381.835 -0.98885 6.0406 0
M  V30 3376 N 380.972 -1.96903 6.73924 0
M  V30 3377 H 385.812 0.420968 2.95012 0
M  V30 3378 H 383.349 0.219443 1.45454 0
M  V30 3379 H 385.307 -1.94599 3.69036 0
M  V30 3380 H 383.937 -1.97981 2.54958 0
M  V30 3381 H 382.989 0.0902926 3.80293 0
M  V30 3382 H 384.301 -0.101058 4.98698 0
M  V30 3383 H 383.455 -2.38081 5.58034 0
M  V30 3384 H 382.194 -2.26187 4.32077 0
M  V30 3385 H 381.199 -0.276222 5.49106 0
M  V30 3386 H 382.424 -0.415767 6.77826 0
M  V30 3387 H 380.37 -2.53803 6.04913 0
M  V30 3388 H 380.287 -1.47423 7.41487 0
M  V30 3389 H 381.555 -2.66015 7.32705 0
M  V30 3390 N 385.784 -1.5574 0.241426 0
M  V30 3391 C 386.747 -2.19877 -0.647063 0
M  V30 3392 C 387.747 -1.16642 -1.10686 0
M  V30 3393 O 388.937 -1.41757 -1.01245 0
M  V30 3394 C 386.069 -2.83797 -1.88871 0
M  V30 3395 H 387.262 -2.99772 -0.087574 0
M  V30 3396 H 384.815 -1.56298 -0.00813574 0
M  V30 3397 H 385.55 -2.07824 -2.48957 0
M  V30 3398 H 385.335 -3.59414 -1.56728 0
M  V30 3399 H 386.825 -3.32898 -2.52129 0
M  V30 3400 N 387.262 0.0317525 -1.57568 0
M  V30 3401 C 388.225 1.01783 -2.0536 0
M  V30 3402 C 389.225 1.29203 -0.957253 0
M  V30 3403 O 390.415 1.24251 -1.22095 0
M  V30 3404 C 387.547 2.35137 -2.46827 0
M  V30 3405 H 388.74 0.605062 -2.93733 0
M  V30 3406 H 386.293 0.278514 -1.53799 0
M  V30 3407 H 387.028 2.81168 -1.61602 0
M  V30 3408 H 386.813 2.16566 -3.26866 0
M  V30 3409 H 388.303 3.05938 -2.84239 0
M  V30 3410 N 388.74 1.54641 0.303973 0
M  V30 3411 C 389.703 1.84646 1.35789 0
M  V30 3412 C 390.703 0.7192 1.4382 0
M  V30 3413 O 391.893 0.987491 1.43507 0
M  V30 3414 C 389.025 2.02407 2.74307 0
M  V30 3415 H 390.218 2.78829 1.10429 0
M  V30 3416 H 387.771 1.46658 0.540487 0
M  V30 3417 H 388.506 1.10502 3.04893 0
M  V30 3418 H 388.291 2.84453 2.69868 0
M  V30 3419 H 389.781 2.27002 3.50514 0
M  V30 3420 N 390.218 -0.567019 1.47046 0
M  V30 3421 C 391.165 -1.67489 1.58796 0
M  V30 3422 C 392.135 -1.60399 0.43144 0
M  V30 3423 O 393.32 -1.79378 0.650233 0
M  V30 3424 C 390.46 -3.05821 1.59899 0
M  V30 3425 C 389.573 -3.2342 2.86397 0
M  V30 3426 C 388.708 -4.52093 2.789 0
M  V30 3427 C 387.747 -4.6309 4.00267 0
M  V30 3428 N 386.884 -5.83106 3.91064 0
M  V30 3429 H 391.724 -1.56785 2.53422 0
M  V30 3430 H 389.261 -0.763896 1.2571 0
M  V30 3431 H 391.219 -3.8591 1.58522 0
M  V30 3432 H 389.849 -3.15384 0.687929 0
M  V30 3433 H 388.901 -2.3683 2.97684 0
M  V30 3434 H 390.213 -3.27412 3.76301 0
M  V30 3435 H 389.367 -5.4043 2.75718 0
M  V30 3436 H 388.106 -4.50565 1.86662 0
M  V30 3437 H 387.111 -3.73168 4.03765 0
M  V30 3438 H 388.336 -4.66386 4.93621 0
M  V30 3439 H 386.282 -5.82546 3.01623 0
M  V30 3440 H 386.199 -5.88434 4.74638 0
M  V30 3441 H 387.467 -6.73831 3.91882 0
M  V30 3442 N 391.696 -1.35014 -0.812953 0
M  V30 3443 C 392.943 -1.27931 -1.56971 0
M  V30 3444 C 393.271 0.148034 -1.93936 0
M  V30 3445 O 392.526 1.11175 -1.61054 0
M  V30 3446 C 392.825 -2.12524 -2.87347 0
M  V30 3447 C 392.491 -3.61401 -2.6963 0
M  V30 3448 C 391.153 -4.01983 -2.64506 0
M  V30 3449 C 393.505 -4.55894 -2.52607 0
M  V30 3450 C 390.833 -5.35235 -2.40293 0
M  V30 3451 C 393.185 -5.89336 -2.29925 0
M  V30 3452 C 391.849 -6.2907 -2.23219 0
M  V30 3453 H 391.119 -0.468131 -0.574399 0
M  V30 3454 H 393.766 -1.66851 -0.939836 0
M  V30 3455 H 392.071 -1.66463 -3.54679 0
M  V30 3456 H 393.768 -2.04383 -3.45005 0
M  V30 3457 H 390.358 -3.29193 -2.74463 0
M  V30 3458 H 394.542 -4.25431 -2.55583 0
M  V30 3459 H 389.798 -5.65028 -2.33566 0
M  V30 3460 H 393.972 -6.62139 -2.15743 0
M  V30 3461 H 391.599 -7.32256 -2.04219 0
M  V30 3462 N 393.175 1.03435 -1.18907 0
M  V30 3463 C 394.423 1.76394 -0.986382 0
M  V30 3464 C 394.744 1.88883 0.484567 0
M  V30 3465 O 394.014 1.41843 1.3512 0
M  V30 3466 H 392.594 0.65344 -0.361975 0
M  V30 3467 H 395.256 1.248 -1.49703 0
M  V30 3468 H 394.352 2.77424 -1.42978 0
M  V30 3469 N 394.653 0.992116 1.22453 0
M  V30 3470 C 395.616 0.546883 2.2258 0
M  V30 3471 C 396.616 -0.369829 1.56489 0
M  V30 3472 O 397.806 -0.161896 1.73446 0
M  V30 3473 C 394.938 -0.204659 3.40285 0
M  V30 3474 H 396.131 1.43234 2.63484 0
M  V30 3475 H 393.684 0.779239 1.3549 0
M  V30 3476 H 394.419 -1.10614 3.04853 0
M  V30 3477 H 394.204 0.45354 3.89468 0
M  V30 3478 H 395.694 -0.504358 4.14543 0
M  V30 3479 N 396.131 -1.37776 0.765217 0
M  V30 3480 C 397.379 -1.99454 0.325943 0
M  V30 3481 C 397.7 -1.61049 -1.09947 0
M  V30 3482 O 396.97 -0.872821 -1.75381 0
M  V30 3483 H 395.55 -0.737697 0.117525 0
M  V30 3484 H 398.212 -1.68359 0.981895 0
M  V30 3485 H 397.308 -3.09547 0.398353 0
M  V30 3486 N 397.609 -0.515225 -1.4894 0
M  V30 3487 C 398.572 0.244681 -2.2789 0
M  V30 3488 C 399.572 0.881166 -1.34507 0
M  V30 3489 O 400.762 0.743497 -1.57537 0
M  V30 3490 C 397.894 1.35247 -3.12923 0
M  V30 3491 H 399.087 -0.448289 -2.96531 0
M  V30 3492 H 396.64 -0.270656 -1.53939 0
M  V30 3493 H 397.375 2.07916 -2.48881 0
M  V30 3494 H 397.16 0.901374 -3.81599 0
M  V30 3495 H 398.65 1.88737 -3.72516 0
M  V30 3496 N 399.087 1.5561 -0.249682 0
M  V30 3497 C 400.05 2.20217 0.635394 0
M  V30 3498 C 401.05 1.17227 1.10066 0
M  V30 3499 O 402.24 1.42292 1.00492 0
M  V30 3500 C 399.372 2.84794 1.87363 0
M  V30 3501 H 400.565 2.99814 0.0716752 0
M  V30 3502 H 398.118 1.563 -0.000153234 0
M  V30 3503 H 398.853 2.09142 2.47851 0
M  V30 3504 H 398.638 3.60241 1.5482 0
M  V30 3505 H 400.128 3.3423 2.5036 0
M  V30 3506 N 400.565 -0.0233959 1.57583 0
M  V30 3507 C 401.813 -0.711654 1.89156 0
M  V30 3508 C 402.134 -1.75591 0.848096 0
M  V30 3509 O 401.404 -1.95547 -0.117566 0
M  V30 3510 H 399.984 -0.265835 0.698098 0
M  V30 3511 H 402.646 0.0119948 1.94896 0
M  V30 3512 H 401.742 -1.19766 2.88206 0
M  V30 3513 N 402.043 -1.548 -0.295768 0
M  V30 3514 C 403.289 -1.74588 -1.03184 0
M  V30 3515 C 403.622 -0.532962 -1.86744 0
M  V30 3516 O 402.897 0.469872 -1.88739 0
M  V30 3517 C 403.18 -3.03791 -1.93347 0
M  V30 3518 C 403.033 -4.35392 -1.12933 0
M  V30 3519 C 404.352 -3.28892 -2.92435 0
M  V30 3520 H 401.471 -0.635221 -0.373715 0
M  V30 3521 H 404.113 -1.87519 -0.30606 0
M  V30 3522 H 402.263 -2.92898 -2.55232 0
M  V30 3523 H 403.935 -4.58211 -0.532943 0
M  V30 3524 H 402.178 -4.31642 -0.432168 0
M  V30 3525 H 402.849 -5.22074 -1.79284 0
M  V30 3526 H 405.325 -3.39429 -2.4068 0
M  V30 3527 H 404.201 -4.20603 -3.52682 0
M  V30 3528 H 404.462 -2.47437 -3.6637 0
M  V30 3529 N 403.521 0.559213 -1.47345 0
M  V30 3530 C 404.451 1.67622 -1.62558 0
M  V30 3531 C 405.432 1.63331 -0.475087 0
M  V30 3532 O 406.617 1.80983 -0.704182 0
M  V30 3533 C 403.747 3.0626 -1.63774 0
M  V30 3534 C 402.701 3.25397 -2.7803 0
M  V30 3535 C 402.027 4.64801 -2.64318 0
M  V30 3536 C 403.327 3.10965 -4.19641 0
M  V30 3537 H 405.021 1.55146 -2.56067 0
M  V30 3538 H 402.567 0.744961 -1.23233 0
M  V30 3539 H 404.52 3.84247 -1.73008 0
M  V30 3540 H 403.244 3.1969 -0.66825 0
M  V30 3541 H 401.903 2.49817 -2.68304 0
M  V30 3542 H 401.551 4.75028 -1.65401 0
M  V30 3543 H 401.251 4.78555 -3.40968 0
M  V30 3544 H 402.775 5.44926 -2.75478 0
M  V30 3545 H 404.189 3.78772 -4.30354 0
M  V30 3546 H 402.586 3.36229 -4.97062 0
M  V30 3547 H 403.656 2.07736 -4.38148 0
M  V30 3548 N 404.999 1.35443 0.805782 0
M  V30 3549 C 406.41 1.25768 1.37983 0
M  V30 3550 C 406.761 -0.10958 1.95894 0
M  V30 3551 O 405.886 -1.01056 1.91355 0
M  V30 3552 C 406.481 2.27727 2.5085 0
M  V30 3553 C 405.04 2.2179 3.04115 0
M  V30 3554 C 404.187 2.13393 1.77084 0
M  V30 3555 H 407.138 1.4656 0.608752 0
M  V30 3556 H 407.159 1.90422 3.29424 0
M  V30 3557 H 406.671 3.27227 2.08671 0
M  V30 3558 H 404.772 1.25703 3.50756 0
M  V30 3559 H 404.885 3.13788 3.62042 0
M  V30 3560 H 403.249 1.59384 1.98668 0
M  V30 3561 H 404.032 3.14755 1.37056 0
M  V30 3562 N 406.477 -1.02803 1.19454 0
M  V30 3563 C 407.725 -1.75869 0.995722 0
M  V30 3564 C 408.046 -1.89138 -0.474543 0
M  V30 3565 O 407.316 -1.42558 -1.34366 0
M  V30 3566 H 405.896 -0.651511 0.365435 0
M  V30 3567 H 408.558 -1.24004 1.50363 0
M  V30 3568 H 407.654 -2.76661 1.44447 0
M  V30 3569 N 407.956 -0.998596 -1.21925 0
M  V30 3570 C 409.202 -0.678667 -1.91107 0
M  V30 3571 C 409.535 0.78791 -1.77498 0
M  V30 3572 O 408.81 1.57043 -1.1475 0
M  V30 3573 C 409.093 -1.09245 -3.43129 0
M  V30 3574 C 408.946 -2.61801 -3.6576 0
M  V30 3575 C 410.265 -0.649984 -4.35274 0
M  V30 3576 H 407.384 -0.248025 -0.694012 0
M  V30 3577 H 410.026 -1.24314 -1.43688 0
M  V30 3578 H 408.176 -0.612171 -3.83647 0
M  V30 3579 H 409.848 -3.17543 -3.34611 0
M  V30 3580 H 408.091 -3.03609 -3.09845 0
M  V30 3581 H 408.762 -2.85804 -4.7225 0
M  V30 3582 H 411.238 -1.0626 -4.02303 0
M  V30 3583 H 410.114 -0.967743 -5.40302 0
M  V30 3584 H 410.375 0.449139 -4.39813 0
M  V30 3585 N 409.434 1.37368 -0.772513 0
M  V30 3586 C 410.682 1.99279 -0.336516 0
M  V30 3587 C 411.003 1.6163 1.09091 0
M  V30 3588 O 410.273 0.882109 1.74916 0
M  V30 3589 H 408.853 0.737063 -0.121435 0
M  V30 3590 H 411.515 1.67836 -0.990809 0
M  V30 3591 H 410.611 3.09332 -0.414763 0
M  V30 3592 N 410.912 0.523116 1.48665 0
M  V30 3593 C 412.16 -0.0134497 2.02096 0
M  V30 3594 C 412.481 -1.35418 1.40311 0
M  V30 3595 O 411.751 -1.87543 0.566074 0
M  V30 3596 H 410.331 -0.00795915 0.746958 0
M  V30 3597 H 412.993 0.685388 1.82451 0
M  V30 3598 H 412.089 -0.126849 3.11842 0
M  V30 3599 N 412.39 -1.55475 0.257931 0
M  V30 3600 C 413.353 -2.20551 -0.623706 0
M  V30 3601 C 414.353 -1.17809 -1.09443 0
M  V30 3602 O 415.543 -1.42823 -0.997362 0
M  V30 3603 C 412.675 -2.85784 -1.8585 0
M  V30 3604 H 413.868 -2.99848 -0.0557743 0
M  V30 3605 H 411.421 -1.56298 0.0084422 0
M  V30 3606 H 412.156 -2.10453 -2.46739 0
M  V30 3607 H 411.941 -3.61057 -1.52907 0
M  V30 3608 H 413.431 -3.35553 -2.48584 0
M  V30 3609 N 413.868 0.0150385 -1.57593 0
M  V30 3610 C 415.116 0.701613 -1.8953 0
M  V30 3611 C 415.437 1.75139 -0.857396 0
M  V30 3612 O 414.707 1.95607 0.107194 0
M  V30 3613 H 413.287 0.26213 -0.699498 0
M  V30 3614 H 415.949 -0.0223304 -1.94887 0
M  V30 3615 H 415.045 1.18236 -2.88837 0
M  V30 3616 N 415.346 1.54954 0.287554 0
M  V30 3617 C 416.592 1.75132 1.02257 0
M  V30 3618 C 416.925 0.542858 1.86458 0
M  V30 3619 O 416.2 -0.459856 1.88986 0
M  V30 3620 C 416.483 3.04812 1.91733 0
M  V30 3621 C 416.336 4.35985 1.10622 0
M  V30 3622 C 417.655 3.30438 2.90687 0
M  V30 3623 H 414.774 0.637194 0.370341 0
M  V30 3624 H 417.416 1.87678 0.296111 0
M  V30 3625 H 415.566 2.94247 2.53675 0
M  V30 3626 H 417.238 4.58487 0.508636 0
M  V30 3627 H 415.481 4.31865 0.409271 0
M  V30 3628 H 416.152 5.23017 1.76513 0
M  V30 3629 H 418.628 3.40701 2.38877 0
M  V30 3630 H 417.504 4.22467 3.50447 0
M  V30 3631 H 417.765 2.49377 3.65053 0
M  V30 3632 N 416.824 -0.551391 1.4764 0
M  V30 3633 C 418.235 -1.13349 1.48354 0
M  V30 3634 C 418.586 -1.94709 0.241432 0
M  V30 3635 O 417.711 -2.06306 -0.653205 0
M  V30 3636 C 418.306 -2.0623 2.68802 0
M  V30 3637 C 416.865 -2.597 2.72457 0
M  V30 3638 C 416.012 -1.36201 2.41546 0
M  V30 3639 H 418.963 -0.337698 1.55065 0
M  V30 3640 H 418.984 -2.90196 2.46103 0
M  V30 3641 H 418.496 -1.46987 3.59188 0
M  V30 3642 H 416.597 -3.22724 1.86225 0
M  V30 3643 H 416.71 -3.00296 3.73308 0
M  V30 3644 H 415.074 -1.67068 1.9225 0
M  V30 3645 H 415.857 -0.787425 3.34147 0
M  V30 3646 N 418.302 -1.35869 -0.798587 0
M  V30 3647 C 419.55 -1.29332 -1.55298 0
M  V30 3648 C 419.871 0.129729 -1.94568 0
M  V30 3649 O 419.141 1.06796 -1.6423 0
M  V30 3650 H 417.721 -0.475737 -0.57592 0
M  V30 3651 H 420.383 -1.70062 -0.952093 0
M  V30 3652 H 419.479 -1.91458 -2.46476 0
M  V30 3653 N 419.78 1.02168 -1.19998 0
M  V30 3654 C 421.026 1.75945 -1.00852 0
M  V30 3655 C 421.359 1.88702 0.458828 0
M  V30 3656 O 420.634 1.40911 1.34069 0
M  V30 3657 C 420.917 3.18154 -1.68671 0
M  V30 3658 C 420.77 3.13224 -3.22817 0
M  V30 3659 C 422.089 4.16711 -1.41561 0
M  V30 3660 H 419.208 0.638673 -0.367785 0
M  V30 3661 H 421.85 1.19222 -1.4794 0
M  V30 3662 H 420 3.66586 -1.28636 0
M  V30 3663 H 421.672 2.72635 -3.72112 0
M  V30 3664 H 419.915 2.50751 -3.53986 0
M  V30 3665 H 420.586 4.13728 -3.65422 0
M  V30 3666 H 423.062 3.76913 -1.76284 0
M  V30 3667 H 421.938 5.14391 -1.91553 0
M  V30 3668 H 422.199 4.40774 -0.342193 0
M  V30 3669 N 421.258 1.00505 1.21394 0
M  V30 3670 C 422.669 0.721082 1.72213 0
M  V30 3671 C 423.02 -0.761263 1.80829 0
M  V30 3672 O 422.145 -1.59464 1.46288 0
M  V30 3673 C 422.74 1.30228 3.12772 0
M  V30 3674 C 421.299 1.06743 3.60947 0
M  V30 3675 C 420.446 1.41507 2.38477 0
M  V30 3676 H 423.397 1.17594 1.06571 0
M  V30 3677 H 423.418 0.686955 3.74247 0
M  V30 3678 H 422.93 2.38115 3.06468 0
M  V30 3679 H 421.031 0.00572162 3.726 0
M  V30 3680 H 421.144 1.73936 4.46411 0
M  V30 3681 H 419.508 0.833852 2.40664 0
M  V30 3682 H 420.291 2.50424 2.34824 0
M  V30 3683 N 422.737 -1.36956 0.779787 0
M  V30 3684 C 423.985 -1.99097 0.347079 0
M  V30 3685 C 424.306 -1.62206 -1.08232 0
M  V30 3686 O 423.576 -0.891373 -1.74446 0
M  V30 3687 H 422.156 -0.736409 0.125342 0
M  V30 3688 H 424.818 -1.67308 0.999696 0
M  V30 3689 H 423.914 -3.09107 0.431162 0
M  V30 3690 N 424.215 -0.530993 -1.48385 0
M  V30 3691 C 425.178 0.220497 -2.28137 0
M  V30 3692 C 426.178 0.866851 -1.35434 0
M  V30 3693 O 427.368 0.726746 -1.58316 0
M  V30 3694 C 424.5 1.31921 -3.1434 0
M  V30 3695 H 425.693 -0.479714 -2.96038 0
M  V30 3696 H 423.246 -0.286968 -1.53643 0
M  V30 3697 H 423.981 2.05264 -2.51072 0
M  V30 3698 H 423.766 0.86085 -3.82533 0
M  V30 3699 H 425.256 1.84776 -3.74497 0
M  V30 3700 N 425.693 1.55336 -0.266172 0
M  V30 3701 C 426.942 1.98574 0.353749 0
M  V30 3702 C 427.255 1.15789 1.57646 0
M  V30 3703 O 428.461 1.49129 2.26876 0
M  V30 3704 C 426.917 3.53403 0.680747 0
M  V30 3705 C 426.525 4.44953 -0.52165 0
M  V30 3706 C 428.269 4.05251 1.26379 0
M  V30 3707 C 426.176 5.91156 -0.169736 0
M  V30 3708 H 425.106 0.741643 0.135949 0
M  V30 3709 H 427.757 1.79743 -0.369421 0
M  V30 3710 H 426.139 3.68001 1.46257 0
M  V30 3711 H 427.313 4.42121 -1.29869 0
M  V30 3712 H 425.628 4.03691 -1.02093 0
M  V30 3713 H 428.225 5.12021 1.54074 0
M  V30 3714 H 428.568 3.53749 2.19471 0
M  V30 3715 H 429.101 3.94057 0.544447 0
M  V30 3716 H 425.84 6.46736 -1.0683 0
M  V30 3717 H 425.36 5.97079 0.570717 0
M  V30 3718 H 427.039 6.4655 0.241245 0
M  V30 3719 N 427.171 -0.0066808 1.57599 0
M  V30 3720 C 428.582 -0.550379 1.78403 0
M  V30 3721 C 428.933 -1.74339 0.900014 0
M  V30 3722 O 428.058 -2.16166 0.100713 0
M  V30 3723 C 428.653 -1.00523 3.23544 0
M  V30 3724 C 427.212 -1.49428 3.45468 0
M  V30 3725 C 426.359 -0.442444 2.73748 0
M  V30 3726 H 429.31 0.219508 1.57175 0
M  V30 3727 H 429.331 -1.87157 3.31289 0
M  V30 3728 H 428.843 -0.136735 3.87859 0
M  V30 3729 H 426.944 -2.3839 2.86358 0
M  V30 3730 H 427.057 -1.52635 4.54136 0
M  V30 3731 H 425.421 -0.902578 2.38171 0
M  V30 3732 H 426.204 0.416973 3.40758 0
M  V30 3733 N 428.649 -1.55105 -0.279332 0
M  V30 3734 C 429.897 -1.75066 -1.00977 0
M  V30 3735 C 430.218 -0.551276 -1.87045 0
M  V30 3736 O 429.488 0.433984 -1.91032 0
M  V30 3737 H 428.068 -0.645578 -0.375816 0
M  V30 3738 H 430.73 -1.92497 -0.305089 0
M  V30 3739 H 429.826 -2.64894 -1.65038 0
M  V30 3740 N 430.127 0.543554 -1.4793 0
M  V30 3741 C 431.376 1.29649 -1.54512 0
M  V30 3742 C 431.689 1.94382 -0.217973 0
M  V30 3743 O 432.895 2.71017 -0.161908 0
M  V30 3744 C 431.351 2.35175 -2.72435 0
M  V30 3745 C 430.959 1.76572 -4.11736 0
M  V30 3746 C 432.703 3.11564 -2.8832 0
M  V30 3747 C 430.61 2.79958 -5.20939 0
M  V30 3748 H 429.54 0.487541 -0.57517 0
M  V30 3749 H 432.191 0.575708 -1.74235 0
M  V30 3750 H 430.573 3.10229 -2.46118 0
M  V30 3751 H 431.747 1.07799 -4.48013 0
M  V30 3752 H 430.062 1.12722 -4.00852 0
M  V30 3753 H 432.659 3.88794 -3.67074 0
M  V30 3754 H 433.002 3.66594 -1.97268 0
M  V30 3755 H 433.535 2.43623 -3.14472 0
M  V30 3756 H 430.274 2.29766 -6.13912 0
M  V30 3757 H 429.794 3.47101 -4.89164 0
M  V30 3758 H 431.473 3.43198 -5.48474 0
M  V30 3759 N 431.605 1.3629 0.791371 0
M  V30 3760 C 432.853 1.30154 1.5461 0
M  V30 3761 C 433.174 -0.119409 1.94634 0
M  V30 3762 O 432.444 -1.05924 1.64794 0
M  V30 3763 H 431.024 0.478784 0.573389 0
M  V30 3764 H 433.686 1.70565 0.94306 0
M  V30 3765 H 432.782 1.92762 2.45457 0
M  V30 3766 N 433.083 -1.0153 1.20538 0
M  V30 3767 C 434.331 -1.74803 1.01432 0
M  V30 3768 C 434.652 -1.8963 -0.454456 0
M  V30 3769 O 433.922 -1.43975 -1.32846 0
M  V30 3770 H 432.502 -0.647598 0.372324 0
M  V30 3771 H 435.164 -1.22402 1.5167 0
M  V30 3772 H 434.26 -2.75114 1.47373 0
M  V30 3773 N 434.561 -1.01147 -1.20859 0
M  V30 3774 C 435.81 -0.693214 -1.89413 0
M  V30 3775 C 436.123 0.779969 -1.79376 0
M  V30 3776 O 437.329 1.21057 -2.43017 0
M  V30 3777 C 435.785 -1.18949 -3.39675 0
M  V30 3778 C 435.393 -2.68921 -3.58309 0
M  V30 3779 C 437.137 -0.94642 -4.13815 0
M  V30 3780 C 435.044 -3.12056 -5.0237 0
M  V30 3781 H 433.974 -0.255595 -0.709357 0
M  V30 3782 H 436.625 -1.22349 -1.36759 0
M  V30 3783 H 435.007 -0.587228 -3.91622 0
M  V30 3784 H 436.181 -3.34652 -3.16772 0
M  V30 3785 H 434.496 -2.91314 -2.97532 0
M  V30 3786 H 437.093 -1.24417 -5.20023 0
M  V30 3787 H 437.436 0.117219 -4.16135 0
M  V30 3788 H 437.969 -1.5118 -3.67953 0
M  V30 3789 H 434.708 -4.17674 -5.05202 0
M  V30 3790 H 434.228 -2.51041 -5.44737 0
M  V30 3791 H 435.907 -3.04403 -5.70918 0
M  V30 3792 N 436.039 1.36541 -0.78704 0
M  V30 3793 C 437.002 2.28413 -0.189778 0
M  V30 3794 C 438.002 1.48719 0.611499 0
M  V30 3795 O 439.192 1.68737 0.432842 0
M  V30 3796 C 436.324 3.32824 0.737638 0
M  V30 3797 H 437.517 2.82743 -0.999831 0
M  V30 3798 H 435.07 1.46065 -0.556298 0
M  V30 3799 H 435.805 2.83646 1.57212 0
M  V30 3800 H 435.59 3.91752 0.165044 0
M  V30 3801 H 437.08 4.0144 1.15047 0
M  V30 3802 N 437.518 0.538854 1.48102 0
M  V30 3803 C 438.766 0.00798599 2.02098 0
M  V30 3804 C 439.087 -1.33922 1.41739 0
M  V30 3805 O 438.357 -1.86932 0.585934 0
M  V30 3806 H 436.937 -3.62179e-05 0.747 0
M  V30 3807 H 439.599 0.7047 1.81714 0
M  V30 3808 H 438.695 -0.0937672 3.11959 0
M  V30 3809 N 438.996 -1.55193 0.274407 0
M  V30 3810 C 440.242 -1.99877 -0.343086 0
M  V30 3811 C 440.575 -1.16256 -1.55558 0
M  V30 3812 O 439.85 -0.232462 -1.93106 0
M  V30 3813 C 440.133 -3.52706 -0.725965 0
M  V30 3814 C 439.986 -4.47081 0.493818 0
M  V30 3815 C 441.305 -4.11422 -1.56268 0
M  V30 3816 H 438.424 -0.726625 -0.123229 0
M  V30 3817 H 441.066 -1.86136 0.38121 0
M  V30 3818 H 439.216 -3.64546 -1.34307 0
M  V30 3819 H 440.888 -4.47186 1.13237 0
M  V30 3820 H 439.131 -4.1877 1.13201 0
M  V30 3821 H 439.802 -5.51699 0.18217 0
M  V30 3822 H 442.278 -4.02855 -1.04151 0
M  V30 3823 H 441.154 -5.18568 -1.79939 0
M  V30 3824 H 441.415 -3.61607 -2.54348 0
M  V30 3825 N 440.474 -0.00167713 -1.576 0
M  V30 3826 C 441.722 0.681471 -1.90264 0
M  V30 3827 C 442.043 1.7422 -0.875924 0
M  V30 3828 O 441.313 1.95709 0.0864412 0
M  V30 3829 H 439.893 0.254696 -0.702239 0
M  V30 3830 H 442.555 -0.0429996 -1.94853 0
M  V30 3831 H 441.651 1.15166 -2.90075 0
M  V30 3832 N 441.952 1.55251 0.271103 0
M  V30 3833 C 443.18 1.79974 1.02064 0
M  V30 3834 C 443.595 0.574003 1.79863 0
M  V30 3835 O 442.952 -0.456962 1.76686 0
M  V30 3836 C 443.003 3.02603 1.97772 0
M  V30 3837 O 442.724 4.20443 1.23124 0
M  V30 3838 C 444.225 3.39944 2.84522 0
M  V30 3839 H 441.445 0.599489 0.301419 0
M  V30 3840 H 443.989 2.02268 0.301313 0
M  V30 3841 H 442.144 2.8243 2.65165 0
M  V30 3842 H 442.558 4.89783 1.87651 0
M  V30 3843 H 444.032 4.28915 3.47471 0
M  V30 3844 H 444.509 2.59432 3.54389 0
M  V30 3845 H 445.115 3.62383 2.22618 0
M  V30 3846 N 443.43 -0.535701 1.48216 0
M  V30 3847 C 444.841 -1.11769 1.49548 0
M  V30 3848 C 445.192 -1.94442 0.26207 0
M  V30 3849 O 444.317 -2.06987 -0.631287 0
M  V30 3850 C 444.912 -2.03367 2.70975 0
M  V30 3851 C 443.471 -2.56795 2.75196 0
M  V30 3852 C 442.618 -1.33631 2.42977 0
M  V30 3853 H 445.569 -0.321232 1.55415 0
M  V30 3854 H 445.59 -2.87569 2.49167 0
M  V30 3855 H 445.102 -1.43169 3.60727 0
M  V30 3856 H 443.203 -3.20731 1.89638 0
M  V30 3857 H 443.316 -2.9632 3.76472 0
M  V30 3858 H 441.68 -1.6502 1.94012 0
M  V30 3859 H 442.463 -0.75194 3.34964 0
M  V30 3860 N 444.908 -1.36708 -0.784132 0
M  V30 3861 C 445.871 -1.31307 -1.87859 0
M  V30 3862 C 446.871 -0.219654 -1.59293 0
M  V30 3863 O 448.061 -0.47476 -1.67606 0
M  V30 3864 C 445.193 -1.03679 -3.24751 0
M  V30 3865 H 446.386 -2.28647 -1.94064 0
M  V30 3866 H 443.939 -1.21558 -0.98252 0
M  V30 3867 H 444.674 -0.0681936 -3.24228 0
M  V30 3868 H 444.459 -1.82811 -3.46876 0
M  V30 3869 H 445.949 -1.02518 -4.04821 0
M  V30 3870 N 446.386 1.0089 -1.21074 0
M  V30 3871 C 447.349 2.0775 -0.968129 0
M  V30 3872 C 448.349 1.6069 0.0593445 0
M  V30 3873 O 449.539 1.73293 -0.177525 0
M  V30 3874 C 446.671 3.37794 -0.459108 0
M  V30 3875 H 447.864 2.30707 -1.9161 0
M  V30 3876 H 445.417 1.17807 -1.02719 0
M  V30 3877 H 446.152 3.20516 0.49397 0
M  V30 3878 H 445.937 3.7328 -1.20019 0
M  V30 3879 H 447.427 4.16454 -0.309099 0
M  V30 3880 N 447.864 1.01787 1.20321 0
M  V30 3881 C 448.827 0.593972 2.2137 0
M  V30 3882 C 449.827 -0.336553 1.57239 0
M  V30 3883 O 451.017 -0.125069 1.7375 0
M  V30 3884 C 448.149 -0.132433 3.40643 0
M  V30 3885 H 449.342 1.48791 2.60387 0
M  V30 3886 H 446.895 0.807803 1.33807 0
M  V30 3887 H 447.63 -1.04123 3.0713 0
M  V30 3888 H 447.415 0.53605 3.88418 0
M  V30 3889 H 448.905 -0.416314 4.1552 0
M  V30 3890 N 449.342 -1.36122 0.79427 0
M  V30 3891 C 450.305 -2.28309 0.201889 0
M  V30 3892 C 451.305 -1.49041 -0.603603 0
M  V30 3893 O 452.495 -1.68964 -0.423888 0
M  V30 3894 C 449.627 -3.3321 -0.719978 0
M  V30 3895 H 450.82 -2.82208 1.01481 0
M  V30 3896 H 448.373 -1.45768 0.564037 0
M  V30 3897 H 449.108 -2.84475 -1.55706 0
M  V30 3898 H 448.893 -3.91835 -0.144266 0
M  V30 3899 H 450.383 -4.02044 -1.12916 0
M  V30 3900 N 450.82 -0.546701 -1.47814 0
M  V30 3901 C 451.783 0.196287 -2.28358 0
M  V30 3902 C 452.783 0.852437 -1.36346 0
M  V30 3903 O 453.973 0.709913 -1.59078 0
M  V30 3904 C 451.105 1.28579 -3.15722 0
M  V30 3905 H 452.298 -0.511086 -2.95513 0
M  V30 3906 H 449.851 -0.303248 -1.5333 0
M  V30 3907 H 450.586 2.0259 -2.53235 0
M  V30 3908 H 450.371 0.820229 -3.83425 0
M  V30 3909 H 451.861 1.80793 -3.76435 0
M  V30 3910 N 452.299 1.55045 -0.282633 0
M  V30 3911 C 453.262 2.21515 0.588539 0
M  V30 3912 C 454.262 1.19535 1.07554 0
M  V30 3913 O 455.452 1.44391 0.974514 0
M  V30 3914 C 452.584 2.88704 1.8128 0
M  V30 3915 H 453.777 2.99899 0.00806397 0
M  V30 3916 H 451.33 1.56265 -0.0333067 0
M  V30 3917 H 452.065 2.14352 2.43359 0
M  V30 3918 H 451.85 3.63443 1.47144 0
M  V30 3919 H 453.34 3.39465 2.43214 0
M  V30 3920 N 453.777 0.010035 1.57597 0
M  V30 3921 C 454.74 -0.963029 2.07986 0
M  V30 3922 C 455.74 -1.26619 0.991173 0
M  V30 3923 O 456.93 -1.2097 1.25347 0
M  V30 3924 C 454.062 -2.2851 2.52974 0
M  V30 3925 H 455.255 -0.526971 2.95234 0
M  V30 3926 H 452.808 -0.237639 1.54483 0
M  V30 3927 H 453.543 -2.76784 1.69 0
M  V30 3928 H 453.328 -2.07824 3.32493 0
M  V30 3929 H 454.818 -2.98294 2.9225 0
M  V30 3930 N 455.255 -1.55392 -0.262866 0
M  V30 3931 C 456.218 -1.88181 -1.30846 0
M  V30 3932 C 457.218 -0.757079 -1.41862 0
M  V30 3933 O 458.408 -1.02519 -1.40838 0
M  V30 3934 C 455.54 -2.09609 -2.68844 0
M  V30 3935 H 456.733 -2.81659 -1.02997 0
M  V30 3936 H 454.286 -1.48039 -0.501414 0
M  V30 3937 H 455.021 -1.18547 -3.01856 0
M  V30 3938 H 454.806 -2.91508 -2.62231 0
M  V30 3939 H 456.296 -2.36215 -3.44372 0
M  V30 3940 N 456.733 0.527833 -1.48498 0
M  V30 3941 C 457.696 1.61439 -1.62696 0
M  V30 3942 C 458.696 1.52824 -0.500136 0
M  V30 3943 O 459.886 1.56456 -0.765976 0
M  V30 3944 C 457.018 3.01063 -1.59918 0
M  V30 3945 H 458.211 1.50189 -2.59583 0
M  V30 3946 H 455.764 0.750055 -1.37127 0
M  V30 3947 H 456.499 3.17818 -0.645163 0
M  V30 3948 H 456.284 3.08725 -2.41726 0
M  V30 3949 H 457.774 3.80057 -1.73051 0
M  V30 3950 N 458.211 1.37122 0.776871 0
M  V30 3951 C 459.174 1.32301 1.8716 0
M  V30 3952 C 460.174 0.228099 1.59174 0
M  V30 3953 O 461.364 0.483642 1.67352 0
M  V30 3954 C 458.496 1.054 3.24197 0
M  V30 3955 H 459.689 2.29673 1.92848 0
M  V30 3956 H 457.242 1.22077 0.97606 0
M  V30 3957 H 457.977 0.0853872 3.24188 0
M  V30 3958 H 457.762 1.84648 3.45901 0
M  V30 3959 H 459.252 1.04664 4.04271 0
M  V30 3960 N 459.689 -1.00246 1.21608 0
M  V30 3961 C 460.636 -2.09073 0.977613 0
M  V30 3962 C 461.606 -1.65815 -0.097297 0
M  V30 3963 O 462.791 -1.90734 0.0503445 0
M  V30 3964 C 459.931 -3.40671 0.551133 0
M  V30 3965 C 459.044 -3.97326 1.69576 0
M  V30 3966 C 458.179 -5.17043 1.2182 0
M  V30 3967 C 457.218 -5.65813 2.335 0
M  V30 3968 N 456.355 -6.76778 1.86859 0
M  V30 3969 H 461.195 -2.28806 1.90924 0
M  V30 3970 H 458.732 -1.12186 0.951452 0
M  V30 3971 H 460.69 -4.16225 0.285097 0
M  V30 3972 H 459.32 -3.20967 -0.343489 0
M  V30 3973 H 458.372 -3.18734 2.07637 0
M  V30 3974 H 459.684 -4.29511 2.53617 0
M  V30 3975 H 458.838 -5.99852 0.908975 0
M  V30 3976 H 457.577 -4.86458 0.347869 0
M  V30 3977 H 456.582 -4.81599 2.65222 0
M  V30 3978 H 457.807 -5.98427 3.21033 0
M  V30 3979 H 455.753 -6.47994 1.02174 0
M  V30 3980 H 455.67 -7.08231 2.64471 0
M  V30 3981 H 456.938 -7.63116 1.58978 0
M  V30 3982 N 461.167 -1.02423 -1.1978 0
M  V30 3983 C 462.13 -0.605703 -2.21052 0
M  V30 3984 C 463.13 0.328209 -1.57415 0
M  V30 3985 O 464.32 0.115853 -1.73814 0
M  V30 3986 C 461.452 0.114366 -3.40708 0
M  V30 3987 H 462.645 -1.5017 -2.59594 0
M  V30 3988 H 460.198 -0.814888 -1.33376 0
M  V30 3989 H 460.933 1.02492 -3.07678 0
M  V30 3990 H 460.718 -0.556641 -3.88129 0
M  V30 3991 H 462.208 0.394272 -4.15735 0
M  V30 3992 N 462.645 1.35699 -0.801477 0
M  V30 3993 C 463.608 2.28199 -0.213994 0
M  V30 3994 C 464.608 1.49359 0.595691 0
M  V30 3995 O 465.798 1.69186 0.414921 0
M  V30 3996 C 462.93 3.33587 0.702297 0
M  V30 3997 H 464.123 2.81666 -1.02976 0
M  V30 3998 H 461.676 1.45467 -0.571759 0
M  V30 3999 H 462.411 2.85297 1.54195 0
M  V30 4000 H 462.196 3.91906 0.123484 0
M  V30 4001 H 463.686 4.02638 1.10783 0
M  V30 4002 N 464.123 0.554532 1.47522 0
M  V30 4003 C 465.07 -0.19466 2.29978 0
M  V30 4004 C 466.04 -0.910882 1.38896 0
M  V30 4005 O 467.225 -0.907102 1.67858 0
M  V30 4006 C 464.365 -1.22035 3.22802 0
M  V30 4007 C 463.478 -0.510474 4.28973 0
M  V30 4008 C 462.613 -1.52123 5.08952 0
M  V30 4009 C 461.652 -0.796173 6.069 0
M  V30 4010 N 460.789 -1.75363 6.79847 0
M  V30 4011 H 465.629 0.51461 2.93523 0
M  V30 4012 H 463.166 0.265607 1.44682 0
M  V30 4013 H 465.124 -1.8276 3.7504 0
M  V30 4014 H 463.754 -1.89769 2.61127 0
M  V30 4015 H 462.806 0.211234 3.79813 0
M  V30 4016 H 464.118 0.0576503 4.98767 0
M  V30 4017 H 463.272 -2.20207 5.65326 0
M  V30 4018 H 462.011 -2.12327 4.39054 0
M  V30 4019 H 461.016 -0.101388 5.49707 0
M  V30 4020 H 462.241 -0.199911 6.78806 0
M  V30 4021 H 460.187 -2.3443 6.12682 0
M  V30 4022 H 460.104 -1.23759 7.45801 0
M  V30 4023 H 461.372 -2.4257 7.40797 0
M  V30 4024 N 465.601 -1.54893 0.290851 0
M  V30 4025 C 466.831 -2.04047 -0.323818 0
M  V30 4026 C 467.239 -1.16809 -1.48837 0
M  V30 4027 O 466.582 -0.184145 -1.82775 0
M  V30 4028 C 466.644 -3.49248 -0.852395 0
M  V30 4029 C 466.308 -4.56623 0.185557 0
M  V30 4030 C 467.305 -5.09985 1.01053 0
M  V30 4031 C 464.99 -5.01252 0.324332 0
M  V30 4032 C 466.984 -6.06507 1.96031 0
M  V30 4033 C 464.671 -5.97596 1.27757 0
M  V30 4034 C 465.669 -6.50107 2.09405 0
M  V30 4035 O 465.357 -7.44565 3.03114 0
M  V30 4036 H 465.089 -0.671735 -0.0758129 0
M  V30 4037 H 467.643 -2.00947 0.425393 0
M  V30 4038 H 465.873 -3.49639 -1.65195 0
M  V30 4039 H 467.562 -3.81654 -1.38185 0
M  V30 4040 H 468.328 -4.76307 0.914129 0
M  V30 4041 H 464.207 -4.60015 -0.301213 0
M  V30 4042 H 467.751 -6.47418 2.598 0
M  V30 4043 H 463.648 -6.30691 1.37473 0
M  V30 4044 H 464.416 -7.62334 2.97976 0
M  V30 4045 N 467.08 -0.0183926 -1.57589 0
M  V30 4046 C 468.328 0.661253 -1.90976 0
M  V30 4047 C 468.649 1.73281 -0.894353 0
M  V30 4048 O 467.919 1.9579 0.0656788 0
M  V30 4049 H 466.499 0.247233 -0.704901 0
M  V30 4050 H 469.161 -0.0636639 -1.94796 0
M  V30 4051 H 468.257 1.12083 -2.9128 0
M  V30 4052 N 468.558 1.5553 0.254621 0
M  V30 4053 C 469.521 1.88872 1.29846 0
M  V30 4054 C 470.521 0.764591 1.41459 0
M  V30 4055 O 471.711 1.03265 1.40293 0
M  V30 4056 C 468.843 2.11032 2.67728 0
M  V30 4057 H 470.036 2.82201 1.01502 0
M  V30 4058 H 467.589 1.48303 0.493556 0
M  V30 4059 H 468.324 1.20146 3.01223 0
M  V30 4060 H 468.109 2.92895 2.60682 0
M  V30 4061 H 469.599 2.38038 3.43115 0
M  V30 4062 N 470.036 -0.519951 1.48776 0
M  V30 4063 C 470.999 -1.60574 1.6355 0
M  V30 4064 C 471.999 -1.52557 0.508234 0
M  V30 4065 O 473.189 -1.56047 0.774262 0
M  V30 4066 C 470.321 -3.00211 1.61512 0
M  V30 4067 H 471.514 -1.4881 2.60376 0
M  V30 4068 H 469.067 -0.742772 1.37523 0
M  V30 4069 H 469.802 -3.17471 0.662009 0
M  V30 4070 H 469.587 -3.07439 2.43359 0
M  V30 4071 H 471.077 -3.79134 1.75064 0
M  V30 4072 N 471.514 -1.37532 -0.769588 0
M  V30 4073 C 472.477 -1.33292 -1.86456 0
M  V30 4074 C 473.477 -0.236537 -1.59051 0
M  V30 4075 O 474.667 -0.492511 -1.67093 0
M  V30 4076 C 471.799 -1.07118 -3.23633 0
M  V30 4077 H 472.992 -2.30692 -1.91628 0
M  V30 4078 H 470.545 -1.22593 -0.969572 0
M  V30 4079 H 471.28 -0.102578 -3.24138 0
M  V30 4080 H 471.065 -1.86479 -3.44917 0
M  V30 4081 H 472.555 -1.06806 -4.03711 0
M  V30 4082 N 472.992 0.995999 -1.22138 0
M  V30 4083 C 474.24 1.73167 -1.042 0
M  V30 4084 C 474.561 1.90329 0.42423 0
M  V30 4085 O 473.831 1.4607 1.30539 0
M  V30 4086 H 472.411 0.641593 -0.38258 0
M  V30 4087 H 475.073 1.19974 -1.53598 0
M  V30 4088 H 474.169 2.72734 -1.51731 0
M  V30 4089 N 474.47 1.03057 1.19235 0
M  V30 4090 C 475.4 0.633497 2.24742 0
M  V30 4091 C 476.381 -0.358335 1.66283 0
M  V30 4092 O 477.566 -0.240676 1.92703 0
M  V30 4093 C 474.696 -0.0147648 3.47297 0
M  V30 4094 C 473.65 0.899527 4.18441 0
M  V30 4095 C 472.976 0.116281 5.34574 0
M  V30 4096 C 474.276 2.21404 4.73051 0
M  V30 4097 H 475.97 1.5155 2.58211 0
M  V30 4098 H 473.516 0.73014 1.24117 0
M  V30 4099 H 475.469 -0.304202 4.20301 0
M  V30 4100 H 474.193 -0.931577 3.13032 0
M  V30 4101 H 472.852 1.17319 3.47321 0
M  V30 4102 H 472.5 -0.802619 4.96555 0
M  V30 4103 H 472.2 0.725293 5.83107 0
M  V30 4104 H 473.724 -0.166376 6.10373 0
M  V30 4105 H 475.138 1.98601 5.37802 0
M  V30 4106 H 473.535 2.77512 5.32078 0
M  V30 4107 H 474.605 2.86752 3.91026 0
M  V30 4108 N 475.948 -1.35272 0.808662 0
M  V30 4109 C 477.194 -1.99003 0.390581 0
M  V30 4110 C 477.527 -1.63999 -1.0401 0
M  V30 4111 O 476.802 -0.904368 -1.72196 0
M  V30 4112 C 477.085 -3.55454 0.576566 0
M  V30 4113 C 476.938 -4.00249 2.05233 0
M  V30 4114 C 478.257 -4.401 0.00354277 0
M  V30 4115 H 475.376 -0.722917 0.143388 0
M  V30 4116 H 478.018 -1.6039 1.01858 0
M  V30 4117 H 476.168 -3.88477 0.0419766 0
M  V30 4118 H 477.84 -3.77626 2.64946 0
M  V30 4119 H 476.083 -3.51082 2.54801 0
M  V30 4120 H 476.754 -5.0911 2.13333 0
M  V30 4121 H 479.23 -4.13548 0.460117 0
M  V30 4122 H 478.106 -5.48656 0.163575 0
M  V30 4123 H 478.367 -4.28444 -1.09032 0
M  V30 4124 N 477.426 -0.562348 -1.47226 0
M  V30 4125 C 478.837 -0.130325 -1.86245 0
M  V30 4126 C 479.188 1.30128 -1.46838 0
M  V30 4127 O 478.313 1.97974 -0.873805 0
M  V30 4128 C 478.908 -0.229738 -3.3802 0
M  V30 4129 C 477.467 0.14728 -3.76112 0
M  V30 4130 C 476.614 -0.574971 -2.71274 0
M  V30 4131 H 479.565 -0.771773 -1.3867 0
M  V30 4132 H 479.586 0.550316 -3.76499 0
M  V30 4133 H 479.098 -1.27178 -3.66671 0
M  V30 4134 H 477.199 1.19023 -3.53078 0
M  V30 4135 H 477.312 -0.214858 -4.78618 0
M  V30 4136 H 475.676 -0.0174756 -2.54694 0
M  V30 4137 H 476.459 -1.61827 -3.02766 0
M  V30 4138 N 478.904 1.54736 -0.299062 0
M  V30 4139 C 480.152 1.99706 0.31017 0
M  V30 4140 C 480.473 1.18896 1.54559 0
M  V30 4141 O 479.743 0.284445 1.93824 0
M  V30 4142 H 478.323 0.737686 0.117596 0
M  V30 4143 H 480.985 1.9054 -0.409943 0
M  V30 4144 H 480.081 3.06596 0.58355 0
M  V30 4145 N 480.382 0.0267497 1.57577 0
M  V30 4146 C 481.63 -0.651116 1.91324 0
M  V30 4147 C 481.951 -1.72804 0.90353 0
M  V30 4148 O 481.221 -1.95822 -0.0552946 0
M  V30 4149 H 479.801 -0.243491 0.706202 0
M  V30 4150 H 482.463 0.0739935 1.94759 0
M  V30 4151 H 481.559 -1.10536 2.9187 0
M  V30 4152 N 481.861 -1.55662 -0.24637 0
M  V30 4153 C 483.272 -1.67953 -0.81539 0
M  V30 4154 C 483.623 -0.624302 -1.86002 0
M  V30 4155 O 482.748 0.229328 -2.15181 0
M  V30 4156 C 483.343 -3.04484 -1.48576 0
M  V30 4157 C 481.902 -3.18713 -2.00248 0
M  V30 4158 C 481.049 -2.6383 -0.853766 0
M  V30 4159 H 484 -1.58685 -0.0221692 0
M  V30 4160 H 484.021 -2.98959 -2.3538 0
M  V30 4161 H 483.533 -3.81264 -0.725222 0
M  V30 4162 H 481.634 -2.46757 -2.79181 0
M  V30 4163 H 481.747 -4.25628 -2.1995 0
M  V30 4164 H 480.111 -2.21667 -1.25442 0
M  V30 4165 H 480.894 -3.43135 -0.106302 0
M  V30 4166 N 483.339 0.512053 -1.4905 0
M  V30 4167 C 484.587 1.26436 -1.57665 0
M  V30 4168 C 484.908 1.93255 -0.260293 0
M  V30 4169 O 484.178 1.82206 0.719564 0
M  V30 4170 H 482.758 0.469658 -0.580888 0
M  V30 4171 H 485.42 0.594398 -1.85615 0
M  V30 4172 H 484.516 2.03417 -2.36702 0
M  V30 4173 N 484.817 1.37938 0.762283 0
M  V30 4174 C 486.064 1.33668 1.52115 0
M  V30 4175 C 486.392 -0.0759538 1.94352 0
M  V30 4176 O 485.647 -1.05121 1.6507 0
M  V30 4177 C 485.946 2.23042 2.79261 0
M  V30 4178 C 485.612 3.71159 2.56031 0
M  V30 4179 C 484.274 4.11523 2.49404 0
M  V30 4180 C 486.626 4.64955 2.35513 0
M  V30 4181 C 483.954 5.43784 2.20263 0
M  V30 4182 C 486.306 5.97464 2.07894 0
M  V30 4183 C 484.97 6.36922 1.99718 0
M  V30 4184 H 484.24 0.489127 0.556629 0
M  V30 4185 H 486.887 1.70224 0.877262 0
M  V30 4186 H 485.192 1.79512 3.48256 0
M  V30 4187 H 486.889 2.17047 3.37182 0
M  V30 4188 H 483.479 3.39153 2.62056 0
M  V30 4189 H 487.663 4.34623 2.39617 0
M  V30 4190 H 482.919 5.73307 2.12435 0
M  V30 4191 H 487.093 6.6969 1.91019 0
M  V30 4192 H 484.72 7.39331 1.76902 0
M  V30 4193 N 486.295 -0.989507 1.22664 0
M  V30 4194 C 487.543 -1.72612 1.05117 0
M  V30 4195 C 487.864 -1.90552 -0.414131 0
M  V30 4196 O 487.134 -1.4676 -1.29762 0
M  V30 4197 H 485.714 -0.639555 0.385977 0
M  V30 4198 H 488.376 -1.19158 1.54232 0
M  V30 4199 H 487.472 -2.71926 1.53175 0
M  V30 4200 N 487.773 -1.03688 -1.18687 0
M  V30 4201 C 489.184 -0.766488 -1.70241 0
M  V30 4202 C 489.535 0.713052 -1.82784 0
M  V30 4203 O 488.66 1.55529 -1.50465 0
M  V30 4204 C 489.255 -1.38475 -3.09209 0
M  V30 4205 C 487.814 -1.16276 -3.5799 0
M  V30 4206 C 486.961 -1.4778 -2.34641 0
M  V30 4207 H 489.912 -1.20378 -1.03415 0
M  V30 4208 H 489.933 -0.785939 -3.72295 0
M  V30 4209 H 489.445 -2.46157 -3.00048 0
M  V30 4210 H 487.546 -0.104508 -3.72453 0
M  V30 4211 H 487.659 -1.8571 -4.41643 0
M  V30 4212 H 486.023 -0.897366 -2.38368 0
M  V30 4213 H 486.806 -2.56562 -2.28102 0
M  V30 4214 N 489.251 1.34841 -0.815825 0
M  V30 4215 C 490.499 1.98107 -0.399744 0
M  V30 4216 C 490.82 1.65019 1.03894 0
M  V30 4217 O 490.09 0.937311 1.72021 0
M  V30 4218 H 488.67 0.732827 -0.144823 0
M  V30 4219 H 491.332 1.64599 -1.0437 0
M  V30 4220 H 490.428 3.07856 -0.512965 0
M  V30 4221 N 490.729 0.570148 1.46925 0
M  V30 4222 C 491.975 0.0510284 2.02736 0
M  V30 4223 C 492.308 -1.3006 1.44215 0
M  V30 4224 O 491.583 -1.84932 0.602521 0
M  V30 4225 C 491.866 -0.028215 3.60089 0
M  V30 4226 C 491.719 1.35142 4.29018 0
M  V30 4227 C 493.038 -0.735181 4.33916 0
M  V30 4228 H 490.157 0.0200178 0.736728 0
M  V30 4229 H 492.799 0.73493 1.75211 0
M  V30 4230 H 490.949 -0.610648 3.83671 0
M  V30 4231 H 492.621 1.97806 4.16738 0
M  V30 4232 H 490.864 1.9226 3.88868 0
M  V30 4233 H 491.535 1.24857 5.37694 0
M  V30 4234 H 494.011 -0.240519 4.15404 0
M  V30 4235 H 492.887 -0.759622 5.43618 0
M  V30 4236 H 493.148 -1.79397 4.04066 0
M  V30 4237 N 492.207 -1.54576 0.307264 0
M  V30 4238 C 493.453 -2.0056 -0.300612 0
M  V30 4239 C 493.786 -1.1953 -1.53057 0
M  V30 4240 O 493.061 -0.27337 -1.92569 0
M  V30 4241 C 493.344 -3.54167 -0.650987 0
M  V30 4242 C 493.197 -4.45933 0.588539 0
M  V30 4243 C 494.516 -4.14645 -1.47506 0
M  V30 4244 H 491.635 -0.729075 -0.107788 0
M  V30 4245 H 494.277 -1.85286 0.420606 0
M  V30 4246 H 492.427 -3.67313 -1.26544 0
M  V30 4247 H 494.099 -4.44683 1.22697 0
M  V30 4248 H 492.342 -4.16274 1.22058 0
M  V30 4249 H 493.013 -5.51189 0.299153 0
M  V30 4250 H 495.489 -4.04973 -0.955821 0
M  V30 4251 H 494.365 -5.22269 -1.68899 0
M  V30 4252 H 494.626 -3.66921 -2.4662 0
M  V30 4253 N 493.685 -0.035106 -1.57561 0
M  V30 4254 C 494.933 0.64096 -1.91667 0
M  V30 4255 C 495.254 1.72323 -0.912681 0
M  V30 4256 O 494.524 1.95849 0.0449089 0
M  V30 4257 H 493.104 0.239743 -0.707483 0
M  V30 4258 H 495.766 -0.084321 -1.94718 0
M  V30 4259 H 494.862 1.08987 -2.92452 0
M  V30 4260 N 495.163 1.55791 0.238111 0
M  V30 4261 C 496.409 1.78297 0.966337 0
M  V30 4262 C 496.742 0.601903 1.84637 0
M  V30 4263 O 496.017 -0.399499 1.90353 0
M  V30 4264 C 496.3 3.10758 1.81939 0
M  V30 4265 C 496.153 4.39283 0.966958 0
M  V30 4266 C 497.472 3.39519 2.80027 0
M  V30 4267 H 494.591 0.648654 0.349882 0
M  V30 4268 H 497.233 1.88525 0.236253 0
M  V30 4269 H 495.383 3.02168 2.44185 0
M  V30 4270 H 497.055 4.59873 0.362514 0
M  V30 4271 H 495.298 4.32948 0.271669 0
M  V30 4272 H 495.969 5.28368 1.59784 0
M  V30 4273 H 498.445 3.48128 2.27917 0
M  V30 4274 H 497.321 4.33402 3.36829 0
M  V30 4275 H 497.582 2.60864 3.56934 0
M  V30 4276 N 496.642 -0.504142 1.49319 0
M  V30 4277 C 498.053 -1.08572 1.51885 0
M  V30 4278 C 498.404 -1.93842 0.303255 0
M  V30 4279 O 497.529 -2.0828 -0.58724 0
M  V30 4280 C 498.124 -1.97574 2.75227 0
M  V30 4281 C 496.683 -2.509 2.80581 0
M  V30 4282 C 495.83 -1.28447 2.45757 0
M  V30 4283 H 498.781 -0.288194 1.56061 0
M  V30 4284 H 498.802 -2.82219 2.55211 0
M  V30 4285 H 498.314 -1.35486 3.63683 0
M  V30 4286 H 496.415 -3.16636 1.96398 0
M  V30 4287 H 496.528 -2.88268 3.82673 0
M  V30 4288 H 494.892 -1.60868 1.97468 0
M  V30 4289 H 495.675 -0.68072 3.36483 0
M  V30 4290 N 498.12 -1.38341 -0.754957 0
M  V30 4291 C 499.368 -1.34208 -1.51105 0
M  V30 4292 C 499.689 0.0677634 -1.94882 0
M  V30 4293 O 498.959 1.01517 -1.67544 0
M  V30 4294 H 497.539 -0.493819 -0.560493 0
M  V30 4295 H 500.201 -1.73005 -0.897507 0
M  V30 4296 H 499.297 -1.99203 -2.4026 0
M  V30 4297 N 499.598 0.982988 -1.23187 0
M  V30 4298 C 500.561 2.05649 -1.01198 0
M  V30 4299 C 501.561 1.6078 0.0252464 0
M  V30 4300 O 502.751 1.72878 -0.214243 0
M  V30 4301 C 499.883 3.36744 -0.530656 0
M  V30 4302 H 501.076 2.2659 -1.96461 0
M  V30 4303 H 498.629 1.15602 -1.05195 0
M  V30 4304 H 499.364 3.21492 0.425873 0
M  V30 4305 H 499.149 3.7065 -1.2791 0
M  V30 4306 H 500.639 4.15705 -0.397366 0
M  V30 4307 N 501.076 1.04316 1.18135 0
M  V30 4308 C 502.324 0.746542 1.87806 0
M  V30 4309 C 502.645 -0.728082 1.80898 0
M  V30 4310 O 501.915 -1.52554 1.22899 0
M  V30 4311 H 500.495 0.273157 0.695265 0
M  V30 4312 H 503.157 1.32044 1.43354 0
M  V30 4313 H 502.253 1.05362 2.93778 0
M  V30 4314 N 502.554 -1.34406 0.822964 0
M  V30 4315 C 503.8 -1.98578 0.411666 0
M  V30 4316 C 504.133 -1.65093 -1.02264 0
M  V30 4317 O 503.408 -0.92258 -1.71227 0
M  V30 4318 C 503.691 -3.54823 0.614235 0
M  V30 4319 C 503.544 -3.9805 2.09466 0
M  V30 4320 C 504.863 -4.40071 0.050221 0
M  V30 4321 H 501.982 -0.721355 0.151047 0
M  V30 4322 H 504.624 -1.59301 1.03554 0
M  V30 4323 H 502.774 -3.88411 0.0831774 0
M  V30 4324 H 504.446 -3.74795 2.68936 0
M  V30 4325 H 502.689 -3.4836 2.5851 0
M  V30 4326 H 503.36 -5.06819 2.18721 0
M  V30 4327 H 505.836 -4.13037 0.503953 0
M  V30 4328 H 504.712 -5.48452 0.221759 0
M  V30 4329 H 504.973 -4.29576 -1.04482 0
M  V30 4330 N 504.032 -0.577932 -1.46621 0
M  V30 4331 C 505.443 -0.150071 -1.86096 0
M  V30 4332 C 505.794 1.28563 -1.48209 0
M  V30 4333 O 504.919 1.97036 -0.894754 0
M  V30 4334 C 505.514 -0.265576 -3.37758 0
M  V30 4335 C 504.073 0.10738 -3.76247 0
M  V30 4336 C 503.22 -0.603711 -2.70649 0
M  V30 4337 H 506.171 -0.786438 -1.37844 0
M  V30 4338 H 506.192 0.510352 -3.77062 0
M  V30 4339 H 505.704 -1.3106 -3.65301 0
M  V30 4340 H 503.805 1.15272 -3.54321 0
M  V30 4341 H 503.918 -0.26561 -4.78363 0
M  V30 4342 H 502.282 -0.0444884 -2.54661 0
M  V30 4343 H 503.065 -1.65029 -3.01032 0
M  V30 4344 N 505.51 1.54411 -0.315457 0
M  V30 4345 C 506.758 2.00023 0.288971 0
M  V30 4346 C 507.079 1.20529 1.5329 0
M  V30 4347 O 506.349 0.304986 1.93511 0
M  V30 4348 H 504.929 0.738891 0.109766 0
M  V30 4349 H 507.591 1.90094 -0.430129 0
M  V30 4350 H 506.687 3.07198 0.550999 0
M  V30 4351 N 506.988 0.0434614 1.5754 0
M  V30 4352 C 508.234 -0.632971 1.92669 0
M  V30 4353 C 508.567 -1.70947 0.921446 0
M  V30 4354 O 507.842 -1.94426 -0.0537202 0
M  V30 4355 C 508.125 -1.23619 3.38216 0
M  V30 4356 C 507.978 -0.168274 4.49485 0
M  V30 4357 C 509.297 -2.15008 3.84005 0
M  V30 4358 H 506.416 -0.228629 0.700641 0
M  V30 4359 H 509.058 0.103651 1.89717 0
M  V30 4360 H 507.208 -1.864 3.40863 0
M  V30 4361 H 508.88 0.463196 4.58969 0
M  V30 4362 H 507.123 0.504581 4.30855 0
M  V30 4363 H 507.794 -0.630218 5.48391 0
M  V30 4364 H 510.27 -1.62198 3.83185 0
M  V30 4365 H 509.146 -2.54161 4.86511 0
M  V30 4366 H 509.407 -3.04707 3.20322 0
M  V30 4367 N 508.466 -1.55915 -0.229846 0
M  V30 4368 C 509.714 -1.7819 -0.953565 0
M  V30 4369 C 510.035 -0.610504 -1.85197 0
M  V30 4370 O 509.305 0.372988 -1.92316 0
M  V30 4371 H 507.885 -0.657208 -0.355087 0
M  V30 4372 H 510.547 -1.9337 -0.243693 0
M  V30 4373 H 509.643 -2.70011 -1.56527 0
M  V30 4374 N 509.944 0.496216 -1.49584 0
M  V30 4375 C 511.19 1.25189 -1.59548 0
M  V30 4376 C 511.523 1.9212 -0.283466 0
M  V30 4377 O 510.798 1.80947 0.713324 0
M  V30 4378 C 511.081 2.31516 -2.75812 0
M  V30 4379 C 510.934 1.69054 -4.16822 0
M  V30 4380 C 512.253 3.3304 -2.87702 0
M  V30 4381 H 509.372 0.45379 -0.580727 0
M  V30 4382 H 512.014 0.549327 -1.81886 0
M  V30 4383 H 510.164 2.91438 -2.56897 0
M  V30 4384 H 511.836 1.12923 -4.47265 0
M  V30 4385 H 510.079 0.994485 -4.22247 0
M  V30 4386 H 510.75 2.462 -4.94054 0
M  V30 4387 H 513.226 2.83114 -3.04936 0
M  V30 4388 H 512.102 4.04794 -3.7072 0
M  V30 4389 H 512.363 3.95655 -1.97255 0
M  V30 4390 N 511.423 1.38739 0.74761 0
M  V30 4391 C 512.834 1.31507 1.32524 0
M  V30 4392 C 513.185 -0.0263963 1.96182 0
M  V30 4393 O 512.31 -0.92849 1.95469 0
M  V30 4394 C 512.905 2.38162 2.40966 0
M  V30 4395 C 511.464 2.34489 2.94434 0
M  V30 4396 C 510.611 2.20712 1.67873 0
M  V30 4397 H 513.562 1.4901 0.546043 0
M  V30 4398 H 513.583 2.04222 3.21051 0
M  V30 4399 H 513.095 3.35783 1.94605 0
M  V30 4400 H 511.196 1.40467 3.45108 0
M  V30 4401 H 511.309 3.28861 3.48407 0
M  V30 4402 H 509.673 1.67667 1.91729 0
M  V30 4403 H 510.456 3.20285 1.23582 0
M  V30 4404 N 512.901 -0.976442 1.23707 0
M  V30 4405 C 514.149 -1.71487 1.06942 0
M  V30 4406 C 514.47 -1.9098 -0.393897 0
M  V30 4407 O 513.74 -1.48128 -1.28198 0
M  V30 4408 H 512.32 -0.635425 0.392739 0
M  V30 4409 H 514.982 -1.17515 1.55487 0
M  V30 4410 H 514.078 -2.70286 1.56051 0
M  V30 4411 N 514.379 -1.04941 -1.1758 0
M  V30 4412 C 515.342 -0.652456 -2.19717 0
M  V30 4413 C 516.342 0.294745 -1.58076 0
M  V30 4414 O 517.532 0.0789579 -1.74021 0
M  V30 4415 C 514.664 0.0420712 -3.40874 0
M  V30 4416 H 515.857 -1.55642 -2.5635 0
M  V30 4417 H 513.41 -0.842995 -1.31618 0
M  V30 4418 H 514.145 0.95943 -3.09783 0
M  V30 4419 H 513.93 -0.638844 -3.86861 0
M  V30 4420 H 515.42 0.306 -4.16477 0
M  V30 4421 N 515.857 1.33968 -0.830081 0
M  V30 4422 C 517.105 1.97672 -0.420734 0
M  V30 4423 C 517.426 1.66111 1.02138 0
M  V30 4424 O 516.696 0.955503 1.71017 0
M  V30 4425 H 515.276 0.73125 -0.152587 0
M  V30 4426 H 517.938 1.63483 -1.0611 0
M  V30 4427 H 517.034 3.07294 -0.545588 0
M  V30 4428 N 517.335 0.585699 1.46312 0
M  V30 4429 C 518.584 0.0701192 2.01578 0
M  V30 4430 C 518.897 -1.29889 1.46247 0
M  V30 4431 O 520.103 -1.90598 1.93351 0
M  V30 4432 C 518.559 0.0747499 3.59822 0
M  V30 4433 C 518.167 1.44226 4.24149 0
M  V30 4434 C 519.911 -0.38673 4.22735 0
M  V30 4435 C 517.818 1.40446 5.74481 0
M  V30 4436 H 516.748 0.0224441 0.753666 0
M  V30 4437 H 519.399 0.737789 1.68015 0
M  V30 4438 H 517.781 -0.659144 3.90476 0
M  V30 4439 H 518.955 2.19612 4.05101 0
M  V30 4440 H 517.27 1.84401 3.73343 0
M  V30 4441 H 519.867 -0.433853 5.32937 0
M  V30 4442 H 520.21 -1.40489 3.91878 0
M  V30 4443 H 520.743 0.293195 3.96718 0
M  V30 4444 H 517.482 2.39952 6.10003 0
M  V30 4445 H 517.002 0.692845 5.95785 0
M  V30 4446 H 518.681 1.11865 6.37256 0
M  V30 4447 N 518.813 -1.54241 0.323641 0
M  V30 4448 C 520.224 -1.85975 -0.164405 0
M  V30 4449 C 520.575 -1.24529 -1.51615 0
M  V30 4450 O 519.7 -0.551351 -2.09258 0
M  V30 4451 C 520.295 -3.37424 -0.305091 0
M  V30 4452 C 518.854 -3.69107 -0.737358 0
M  V30 4453 C 518.001 -2.76942 0.140884 0
M  V30 4454 H 520.952 -1.49088 0.543922 0
M  V30 4455 H 520.973 -3.63147 -1.13598 0
M  V30 4456 H 520.485 -3.82116 0.678876 0
M  V30 4457 H 518.586 -3.29947 -1.73107 0
M  V30 4458 H 518.699 -4.76035 -0.541053 0
M  V30 4459 H 517.063 -2.51795 -0.383572 0
M  V30 4460 H 517.846 -3.24461 1.12162 0
M  V30 4461 N 520.291 -0.0518155 -1.57515 0
M  V30 4462 C 521.537 0.622745 -1.93002 0
M  V30 4463 C 521.87 1.70456 -0.930499 0
M  V30 4464 O 521.145 1.94452 0.0434086 0
M  V30 4465 C 521.428 1.21824 -3.38867 0
M  V30 4466 C 521.281 0.144434 -4.49568 0
M  V30 4467 C 522.6 2.12968 -3.8514 0
M  V30 4468 H 519.719 0.22491 -0.701844 0
M  V30 4469 H 522.361 -0.113711 -1.89659 0
M  V30 4470 H 520.511 1.8459 -3.41846 0
M  V30 4471 H 522.183 -0.48753 -4.58717 0
M  V30 4472 H 520.426 -0.527424 -4.30582 0
M  V30 4473 H 521.097 0.601127 -5.48717 0
M  V30 4474 H 523.573 1.60163 -3.8404 0
M  V30 4475 H 522.449 2.51578 -4.87852 0
M  V30 4476 H 522.71 3.03004 -3.21934 0
M  V30 4477 N 521.769 1.56035 0.221574 0
M  V30 4478 C 523.015 1.79312 0.947372 0
M  V30 4479 C 523.348 0.621453 1.83988 0
M  V30 4480 O 522.623 -0.379287 1.90766 0
M  V30 4481 C 522.906 3.1267 1.78633 0
M  V30 4482 C 522.759 4.40284 0.920312 0
M  V30 4483 C 524.078 3.4247 2.7641 0
M  V30 4484 H 521.197 0.652328 0.342982 0
M  V30 4485 H 523.839 1.88765 0.216244 0
M  V30 4486 H 521.989 3.04741 2.40967 0
M  V30 4487 H 523.661 4.60232 0.313718 0
M  V30 4488 H 521.904 4.33212 0.225734 0
M  V30 4489 H 522.575 5.30033 1.54171 0
M  V30 4490 H 525.051 3.50526 2.24211 0
M  V30 4491 H 523.927 4.3695 3.32213 0
M  V30 4492 H 524.188 2.64635 3.54148 0
M  V30 4493 N 523.247 -0.488276 1.49845 0
M  V30 4494 C 524.658 -1.06955 1.53028 0
M  V30 4495 C 525.009 -1.9351 0.323797 0
M  V30 4496 O 524.134 -2.08891 -0.565116 0
M  V30 4497 C 524.729 -1.94643 2.77307 0
M  V30 4498 C 523.288 -2.4791 2.83227 0
M  V30 4499 C 522.435 -1.25833 2.47106 0
M  V30 4500 H 525.386 -0.271626 1.56358 0
M  V30 4501 H 525.407 -2.79496 2.5819 0
M  V30 4502 H 524.919 -1.31621 3.65099 0
M  V30 4503 H 523.02 -3.14535 1.99745 0
M  V30 4504 H 523.133 -2.84193 3.85709 0
M  V30 4505 H 521.497 -1.58764 1.99163 0
M  V30 4506 H 522.28 -0.644993 3.37186 0
M  V30 4507 N 524.725 -1.39134 -0.740242 0
M  V30 4508 C 525.973 -1.35803 -1.49673 0
M  V30 4509 C 526.294 0.0470897 -1.94943 0
M  V30 4510 O 525.564 0.997347 -1.68611 0
M  V30 4511 H 524.144 -0.499736 -0.555224 0
M  V30 4512 H 526.806 -1.73947 -0.879107 0
M  V30 4513 H 525.902 -2.0174 -2.38133 0
M  V30 4514 N 526.204 0.969867 -1.24223 0
M  V30 4515 C 527.167 2.04564 -1.03373 0
M  V30 4516 C 528.167 1.60798 0.00819206 0
M  V30 4517 O 529.357 1.72641 -0.232567 0
M  V30 4518 C 526.489 3.36163 -0.566343 0
M  V30 4519 H 527.682 2.24494 -1.98853 0
M  V30 4520 H 525.235 1.1448 -1.06415 0
M  V30 4521 H 525.97 3.21925 0.391751 0
M  V30 4522 H 525.755 3.69273 -1.31834 0
M  V30 4523 H 527.245 4.1526 -0.441435 0
M  V30 4524 N 527.682 1.05563 1.17022 0
M  V30 4525 C 528.93 0.76642 1.87004 0
M  V30 4526 C 529.251 -0.708854 1.8166 0
M  V30 4527 O 528.521 -1.51242 1.2451 0
M  V30 4528 H 527.101 0.280516 0.692329 0
M  V30 4529 H 529.763 1.33557 1.41945 0
M  V30 4530 H 528.859 1.08472 2.92644 0
M  V30 4531 N 529.16 -1.33526 0.837174 0
M  V30 4532 C 530.409 -1.97098 0.428387 0
M  V30 4533 C 530.722 -1.67062 -1.01734 0
M  V30 4534 O 531.928 -2.24235 -1.53072 0
M  V30 4535 C 530.384 -3.52725 0.715075 0
M  V30 4536 C 529.992 -3.9164 2.17537 0
M  V30 4537 C 531.736 -4.22857 0.373154 0
M  V30 4538 C 529.643 -5.40237 2.40619 0
M  V30 4539 H 528.573 -0.737589 0.156455 0
M  V30 4540 H 531.224 -1.52169 1.02552 0
M  V30 4541 H 529.606 -3.95971 0.0475904 0
M  V30 4542 H 530.78 -3.59456 2.88319 0
M  V30 4543 H 529.095 -3.34485 2.4801 0
M  V30 4544 H 531.692 -5.32133 0.523264 0
M  V30 4545 H 532.035 -4.10647 -0.683708 0
M  V30 4546 H 532.568 -3.85135 0.995801 0
M  V30 4547 H 529.307 -5.57449 3.44864 0
M  V30 4548 H 528.827 -5.73887 1.74396 0
M  V30 4549 H 530.506 -6.07102 2.23688 0
M  V30 4550 N 530.638 -0.59345 -1.46 0
M  V30 4551 C 532.049 -0.169801 -1.85926 0
M  V30 4552 C 532.4 1.26984 -1.49565 0
M  V30 4553 O 531.525 1.96076 -0.915602 0
M  V30 4554 C 532.12 -0.301385 -3.37457 0
M  V30 4555 C 530.679 0.0674684 -3.7634 0
M  V30 4556 C 529.826 -0.632383 -2.69993 0
M  V30 4557 H 532.777 -0.801014 -1.37002 0
M  V30 4558 H 532.798 0.470331 -3.77582 0
M  V30 4559 H 532.31 -1.34927 -3.63891 0
M  V30 4560 H 530.411 1.11507 -3.55523 0
M  V30 4561 H 530.524 -0.316332 -4.78055 0
M  V30 4562 H 528.888 -0.0714961 -2.546 0
M  V30 4563 H 529.671 -1.68212 -2.99265 0
M  V30 4564 N 532.116 1.54067 -0.331816 0
M  V30 4565 C 533.364 2.00319 0.267739 0
M  V30 4566 C 533.685 1.22148 1.52003 0
M  V30 4567 O 532.955 0.325494 1.93177 0
M  V30 4568 H 531.535 0.740014 0.101922 0
M  V30 4569 H 534.197 1.89628 -0.450267 0
M  V30 4570 H 533.293 3.07765 0.518385 0
M  V30 4571 N 533.594 0.0601682 1.57485 0
M  V30 4572 C 534.557 -0.896373 2.10945 0
M  V30 4573 C 535.557 -1.23402 1.03095 0
M  V30 4574 O 536.747 -1.16921 1.29132 0
M  V30 4575 C 533.879 -2.20346 2.60116 0
M  V30 4576 H 535.072 -0.432778 2.96761 0
M  V30 4577 H 532.625 -0.188372 1.55161 0
M  V30 4578 H 533.36 -2.71268 1.7772 0
M  V30 4579 H 533.145 -1.9714 3.38937 0
M  V30 4580 H 534.635 -2.88846 3.01592 0
M  V30 4581 N 535.072 -1.5615 -0.213296 0
M  V30 4582 C 536.035 -1.92249 -1.24792 0
M  V30 4583 C 537.035 -0.801828 -1.39382 0
M  V30 4584 O 538.225 -1.06948 -1.37506 0
M  V30 4585 C 535.357 -2.18056 -2.62039 0
M  V30 4586 H 536.55 -2.84793 -0.939845 0
M  V30 4587 H 534.103 -1.49559 -0.454062 0
M  V30 4588 H 534.838 -1.2809 -2.97932 0
M  V30 4589 H 534.623 -2.99703 -2.52825 0
M  V30 4590 H 536.113 -2.47051 -3.36683 0
M  V30 4591 N 536.55 0.480323 -1.50102 0
M  V30 4592 C 537.796 1.23489 -1.60867 0
M  V30 4593 C 538.129 1.91809 -0.303827 0
M  V30 4594 O 537.404 1.81694 0.694092 0
M  V30 4595 C 537.687 2.28578 -2.78252 0
M  V30 4596 C 537.54 1.64624 -4.18592 0
M  V30 4597 C 538.859 3.2997 -2.91218 0
M  V30 4598 H 535.978 0.447605 -0.585507 0
M  V30 4599 H 538.62 0.530005 -1.82458 0
M  V30 4600 H 536.77 2.88697 -2.59974 0
M  V30 4601 H 538.442 1.08173 -4.48438 0
M  V30 4602 H 536.685 0.949645 -4.23278 0
M  V30 4603 H 537.356 2.40946 -4.96638 0
M  V30 4604 H 539.832 2.79864 -3.07921 0
M  V30 4605 H 538.708 4.00839 -3.74993 0
M  V30 4606 H 538.969 3.93541 -2.0144 0
M  V30 4607 N 538.028 1.39524 0.732853 0
M  V30 4608 C 539.439 1.32905 1.31122 0
M  V30 4609 C 539.79 -0.00558708 1.96199 0
M  V30 4610 O 538.915 -0.907706 1.96443 0
M  V30 4611 C 539.51 2.40704 2.38426 0
M  V30 4612 C 538.069 2.37599 2.91931 0
M  V30 4613 C 537.216 2.2248 1.65523 0
M  V30 4614 H 540.167 1.49581 0.530207 0
M  V30 4615 H 540.188 2.07616 3.18867 0
M  V30 4616 H 539.7 3.37829 1.91033 0
M  V30 4617 H 537.801 1.44119 3.43599 0
M  V30 4618 H 537.914 3.32538 3.44899 0
M  V30 4619 H 536.278 1.69691 1.8994 0
M  V30 4620 H 537.061 3.21577 1.20178 0
M  V30 4621 N 539.506 -0.963266 1.24736 0
M  V30 4622 C 540.754 -1.70343 1.08755 0
M  V30 4623 C 541.075 -1.91387 -0.373619 0
M  V30 4624 O 540.345 -1.4948 -1.2662 0
M  V30 4625 H 538.925 -0.631224 0.399456 0
M  V30 4626 H 541.587 -1.15859 1.56725 0
M  V30 4627 H 540.683 -2.68616 1.58909 0
M  V30 4628 N 540.985 -1.06182 -1.16461 0
M  V30 4629 C 542.231 -0.779015 -1.87241 0
M  V30 4630 C 542.564 0.692715 -1.81425 0
M  V30 4631 O 541.839 1.5074 -1.22913 0
M  V30 4632 C 542.122 -1.2728 -3.36856 0
M  V30 4633 C 541.975 -2.80821 -3.51368 0
M  V30 4634 C 543.294 -0.879799 -4.31216 0
M  V30 4635 H 540.413 -0.284464 -0.679889 0
M  V30 4636 H 543.055 -1.31755 -1.36896 0
M  V30 4637 H 541.205 -0.814673 -3.79862 0
M  V30 4638 H 542.877 -3.34833 -3.17308 0
M  V30 4639 H 541.12 -3.19606 -2.93316 0
M  V30 4640 H 541.791 -3.10435 -4.56436 0
M  V30 4641 H 544.267 -1.27436 -3.96105 0
M  V30 4642 H 543.143 -1.25278 -5.34412 0
M  V30 4643 H 543.404 0.215372 -4.41575 0
M  V30 4644 N 542.463 1.3308 -0.844243 0
M  V30 4645 C 543.709 1.97898 -0.443206 0
M  V30 4646 C 544.042 1.66699 0.99625 0
M  V30 4647 O 543.317 0.949704 1.69738 0
M  V30 4648 C 543.6 3.53801 -0.670606 0
M  V30 4649 C 543.453 3.94667 -2.15772 0
M  V30 4650 C 544.772 4.39936 -0.120226 0
M  V30 4651 H 541.891 0.718861 -0.162504 0
M  V30 4652 H 544.533 1.57633 -1.06075 0
M  V30 4653 H 542.683 3.88229 -0.14496 0
M  V30 4654 H 544.355 3.70469 -2.74865 0
M  V30 4655 H 542.598 3.44203 -2.6402 0
M  V30 4656 H 543.269 5.03275 -2.26757 0
M  V30 4657 H 545.745 4.12183 -0.5696 0
M  V30 4658 H 544.621 5.4803 -0.308984 0
M  V30 4659 H 544.882 4.31184 0.976347 0
M  V30 4660 N 543.941 0.601185 1.45683 0
M  V30 4661 C 545.166 0.0982245 2.07167 0
M  V30 4662 C 545.591 -1.20546 1.44396 0
M  V30 4663 O 544.949 -1.73247 0.534347 0
M  V30 4664 C 544.997 -0.0346976 3.60583 0
M  V30 4665 O 544.101 -1.08657 3.97828 0
M  V30 4666 H 543.442 0.0711618 0.660176 0
M  V30 4667 H 545.972 0.829376 1.87036 0
M  V30 4668 H 545.982 -0.234969 4.07323 0
M  V30 4669 H 544.657 0.917265 4.05659 0
M  V30 4670 H 543.234 -0.863275 3.6277 0
M  V30 4671 N 545.419 -1.53889 0.339982 0
M  V30 4672 C 546.83 -1.86139 -0.144671 0
M  V30 4673 C 547.181 -1.2613 -1.50285 0
M  V30 4674 O 546.306 -0.573515 -2.08662 0
M  V30 4675 C 546.901 -3.37728 -0.269285 0
M  V30 4676 C 545.46 -3.69868 -0.698168 0
M  V30 4677 C 544.607 -2.76777 0.170249 0
M  V30 4678 H 547.558 -1.48503 0.559704 0
M  V30 4679 H 547.579 -3.64331 -1.0974 0
M  V30 4680 H 547.091 -3.81375 0.719366 0
M  V30 4681 H 545.192 -3.31764 -1.69597 0
M  V30 4682 H 545.305 -4.76582 -0.490533 0
M  V30 4683 H 543.669 -2.52188 -0.356844 0
M  V30 4684 H 544.452 -3.23253 1.15597 0
M  V30 4685 N 546.897 -0.0685191 -1.57451 0
M  V30 4686 C 547.807 0.914677 -2.16034 0
M  V30 4687 C 548.823 1.32938 -1.12265 0
M  V30 4688 O 549.999 1.40275 -1.44516 0
M  V30 4689 C 547.064 2.16519 -2.70777 0
M  V30 4690 C 546.125 1.80721 -3.89408 0
M  V30 4691 C 545.358 2.9981 -4.41531 0
M  V30 4692 O 545.581 4.13727 -3.92666 0
M  V30 4693 O 544.515 2.79817 -5.32903 0
M  V30 4694 H 548.341 0.446364 -3.00402 0
M  V30 4695 H 545.926 0.154367 -1.486 0
M  V30 4696 H 547.808 2.89856 -3.05878 0
M  V30 4697 H 546.483 2.62454 -1.89471 0
M  V30 4698 H 545.39 1.04646 -3.59166 0
M  V30 4699 H 546.723 1.39571 -4.71997 0
M  V30 4700 N 548.375 1.56261 0.205012 0
M  V30 4701 C 549.338 1.92908 1.23771 0
M  V30 4702 C 550.338 0.809208 1.38955 0
M  V30 4703 O 551.528 1.07676 1.36936 0
M  V30 4704 C 548.66 2.19442 2.60879 0
M  V30 4705 H 549.853 2.85287 0.924728 0
M  V30 4706 H 547.406 1.49798 0.446125 0
M  V30 4707 H 548.141 1.29668 2.97248 0
M  V30 4708 H 547.926 3.0104 2.51232 0
M  V30 4709 H 549.416 2.48833 3.35368 0
M  V30 4710 N 549.853 -0.472356 1.50355 0
M  V30 4711 C 550.816 -1.5529 1.68576 0
M  V30 4712 C 551.816 -1.50863 0.556511 0
M  V30 4713 O 553.006 -1.53505 0.823516 0
M  V30 4714 C 550.138 -2.94921 1.70981 0
M  V30 4715 H 551.331 -1.40451 2.64978 0
M  V30 4716 H 548.884 -0.698645 1.39816 0
M  V30 4717 H 549.619 -3.15204 0.762675 0
M  V30 4718 H 549.404 -2.99541 2.53017 0
M  V30 4719 H 550.894 -3.73372 1.87037 0
M  V30 4720 N 551.331 -1.39911 -0.725443 0
M  V30 4721 C 552.294 -1.39156 -1.82121 0
M  V30 4722 C 553.294 -0.287018 -1.58218 0
M  V30 4723 O 554.484 -0.545421 -1.65441 0
M  V30 4724 C 551.616 -1.1736 -3.20062 0
M  V30 4725 H 552.809 -2.36672 -1.84191 0
M  V30 4726 H 550.362 -1.25615 -0.930079 0
M  V30 4727 H 551.097 -0.205648 -3.23647 0
M  V30 4728 H 550.882 -1.97358 -3.3881 0
M  V30 4729 H 552.372 -1.19596 -4.00108 0
M  V30 4730 N 552.809 0.956637 -1.25245 0
M  V30 4731 C 553.756 2.053 -1.05454 0
M  V30 4732 C 554.726 1.66062 0.0356889 0
M  V30 4733 O 555.911 1.90415 -0.121099 0
M  V30 4734 C 553.051 3.38391 -0.677191 0
M  V30 4735 C 552.164 3.90758 -1.84206 0
M  V30 4736 C 551.299 5.12165 -1.40926 0
M  V30 4737 C 550.338 5.56757 -2.54338 0
M  V30 4738 N 549.475 6.69376 -2.11848 0
M  V30 4739 H 554.315 2.21562 -1.99284 0
M  V30 4740 H 551.852 1.08578 -0.992434 0
M  V30 4741 H 553.81 4.1488 -0.43938 0
M  V30 4742 H 552.44 3.22021 0.224127 0
M  V30 4743 H 551.492 3.10808 -2.19323 0
M  V30 4744 H 552.804 4.19802 -2.69383 0
M  V30 4745 H 551.958 5.96065 -1.13098 0
M  V30 4746 H 550.697 4.84832 -0.528175 0
M  V30 4747 H 549.702 4.71423 -2.82913 0
M  V30 4748 H 550.927 5.861 -3.43022 0
M  V30 4749 H 548.873 6.43756 -1.26153 0
M  V30 4750 H 548.79 6.97927 -2.90574 0
M  V30 4751 H 550.058 7.5669 -1.87191 0
M  V30 4752 N 554.287 1.06798 1.15896 0
M  V30 4753 C 555.25 0.687328 2.18651 0
M  V30 4754 C 556.25 -0.269559 1.58524 0
M  V30 4755 O 557.44 -0.0512627 1.74125 0
M  V30 4756 C 554.572 0.0121642 3.40898 0
M  V30 4757 H 555.765 1.59701 2.53842 0
M  V30 4758 H 553.318 0.863828 1.3026 0
M  V30 4759 H 554.053 -0.910025 3.1127 0
M  V30 4760 H 553.838 0.700309 3.85795 0
M  V30 4761 H 555.328 -0.239703 4.16911 0
M  V30 4762 N 555.766 -1.3263 0.851289 0
M  V30 4763 C 556.729 -2.27247 0.298541 0
M  V30 4764 C 557.729 -1.51467 -0.539847 0
M  V30 4765 O 558.919 -1.7061 -0.351843 0
M  V30 4766 C 556.051 -3.35964 -0.578004 0
M  V30 4767 H 557.244 -2.7765 1.13359 0
M  V30 4768 H 554.797 -1.43245 0.625354 0
M  V30 4769 H 555.532 -2.90823 -1.435 0
M  V30 4770 H 555.317 -3.92094 0.0220539 0
M  V30 4771 H 556.807 -4.06472 -0.957626 0
M  V30 4772 N 557.244 -0.608902 -1.45362 0
M  V30 4773 C 558.207 0.0992563 -2.28985 0
M  V30 4774 C 559.207 0.793841 -1.39838 0
M  V30 4775 O 560.397 0.641804 -1.61946 0
M  V30 4776 C 557.529 1.15073 -3.20891 0
M  V30 4777 H 558.722 -0.635964 -2.93079 0
M  V30 4778 H 556.275 -0.368007 -1.51906 0
M  V30 4779 H 557.01 1.91667 -2.616 0
M  V30 4780 H 556.795 0.656867 -3.86559 0
M  V30 4781 H 558.285 1.64665 -3.83765 0
M  V30 4782 N 558.722 1.53707 -0.348139 0
M  V30 4783 C 559.669 2.25173 0.506518 0
M  V30 4784 C 560.639 1.25174 1.09182 0
M  V30 4785 O 561.824 1.53917 1.12757 0
M  V30 4786 C 558.964 3.03141 1.64923 0
M  V30 4787 C 558.077 4.18002 1.0908 0
M  V30 4788 C 557.212 4.83447 2.20119 0
M  V30 4789 C 556.251 5.90369 1.61651 0
M  V30 4790 N 555.388 6.49575 2.66451 0
M  V30 4791 H 560.228 2.97799 -0.109452 0
M  V30 4792 H 557.765 1.46953 -0.0657866 0
M  V30 4793 H 559.723 3.46607 2.32205 0
M  V30 4794 H 558.353 2.32803 2.23612 0
M  V30 4795 H 557.405 3.79145 0.308783 0
M  V30 4796 H 558.717 4.94892 0.623178 0
M  V30 4797 H 557.871 5.30008 2.95257 0
M  V30 4798 H 556.61 4.05991 2.70227 0
M  V30 4799 H 555.615 5.43186 0.850209 0
M  V30 4800 H 556.84 6.69735 1.1239 0
M  V30 4801 H 554.786 5.74981 3.15805 0
M  V30 4802 H 554.703 7.21952 2.24325 0
M  V30 4803 H 555.971 7.00789 3.41344 0
M  V30 4804 N 560.2 0.0768682 1.57412 0
M  V30 4805 C 561.163 -0.873949 2.11884 0
M  V30 4806 C 562.163 -1.22301 1.04398 0
M  V30 4807 O 563.353 -1.15545 1.30365 0
M  V30 4808 C 560.485 -2.17575 2.62438 0
M  V30 4809 H 561.678 -0.401278 2.97203 0
M  V30 4810 H 559.231 -0.171904 1.55352 0
M  V30 4811 H 559.966 -2.69368 1.80587 0
M  V30 4812 H 559.751 -1.93534 3.41009 0
M  V30 4813 H 561.241 -2.85631 3.04639 0
M  V30 4814 N 561.678 -1.56367 -0.196722 0
M  V30 4815 C 562.641 -1.93561 -1.22746 0
M  V30 4816 C 563.641 -0.816566 -1.38524 0
M  V30 4817 O 564.831 -1.084 -1.36363 0
M  V30 4818 C 561.963 -2.20823 -2.59712 0
M  V30 4819 H 563.156 -2.85774 -0.909586 0
M  V30 4820 H 560.709 -1.50032 -0.438174 0
M  V30 4821 H 561.444 -1.31243 -2.96557 0
M  V30 4822 H 561.229 -3.02368 -2.49632 0
M  V30 4823 H 562.719 -2.50608 -3.34044 0
M  V30 4824 N 563.156 0.464375 -1.50603 0
M  V30 4825 C 564.103 1.56152 -1.69956 0
M  V30 4826 C 565.073 1.57046 -0.54091 0
M  V30 4827 O 566.258 1.74473 -0.772258 0
M  V30 4828 C 563.398 2.94079 -1.80586 0
M  V30 4829 C 562.511 3.02923 -3.07996 0
M  V30 4830 C 561.646 4.31806 -3.09382 0
M  V30 4831 C 560.685 4.34417 -4.31218 0
M  V30 4832 N 559.822 5.54782 -4.30304 0
M  V30 4833 H 564.662 1.38955 -2.6362 0
M  V30 4834 H 562.199 0.675482 -1.30674 0
M  V30 4835 H 564.157 3.74073 -1.8473 0
M  V30 4836 H 562.787 3.09896 -0.903556 0
M  V30 4837 H 561.839 2.1576 -3.13292 0
M  V30 4838 H 563.151 3.00712 -3.97962 0
M  V30 4839 H 562.305 5.20153 -3.12292 0
M  V30 4840 H 561.044 4.36636 -2.17257 0
M  V30 4841 H 560.049 3.44467 -4.28512 0
M  V30 4842 H 561.274 4.31273 -5.24576 0
M  V30 4843 H 559.22 5.60384 -3.41037 0
M  V30 4844 H 559.137 5.54339 -5.14047 0
M  V30 4845 H 560.405 6.45235 -4.3737 0
M  V30 4846 N 564.634 1.40294 0.718013 0
M  V30 4847 C 565.864 1.41544 1.50495 0
M  V30 4848 C 566.272 0.0127877 1.89196 0
M  V30 4849 O 565.615 -0.97305 1.55812 0
M  V30 4850 C 565.677 2.24021 2.81167 0
M  V30 4851 C 565.341 3.72463 2.64803 0
M  V30 4852 C 566.338 4.65154 2.32223 0
M  V30 4853 C 564.023 4.1625 2.81143 0
M  V30 4854 C 566.017 5.99618 2.16189 0
M  V30 4855 C 563.704 5.50784 2.64727 0
M  V30 4856 C 564.702 6.42283 2.32297 0
M  V30 4857 O 564.39 7.74337 2.16004 0
M  V30 4858 H 564.122 0.484819 0.471091 0
M  V30 4859 H 566.676 1.84948 0.893488 0
M  V30 4860 H 564.906 1.75393 3.44636 0
M  V30 4861 H 566.595 2.17243 3.42871 0
M  V30 4862 H 567.361 4.32622 2.19234 0
M  V30 4863 H 563.24 3.45352 3.05373 0
M  V30 4864 H 566.784 6.71 1.90799 0
M  V30 4865 H 562.681 5.82902 2.773 0
M  V30 4866 H 563.449 7.85244 2.30942 0
M  V30 4867 N 566.112 -0.949982 1.2575 0
M  V30 4868 C 567.36 -1.6918 1.10555 0
M  V30 4869 C 567.681 -1.91773 -0.353298 0
M  V30 4870 O 566.951 -1.50814 -1.25027 0
M  V30 4871 H 565.531 -0.626952 0.406129 0
M  V30 4872 H 568.193 -1.1419 1.57945 0
M  V30 4873 H 567.289 -2.66915 1.61749 0
M  V30 4874 N 567.59 -1.07411 -1.15328 0
M  V30 4875 C 568.553 -0.698914 -2.18284 0
M  V30 4876 C 569.553 0.261149 -1.58665 0
M  V30 4877 O 570.743 0.0420277 -1.74149 0
M  V30 4878 C 567.875 -0.0302427 -3.40887 0
M  V30 4879 H 569.068 -1.61045 -2.52991 0
M  V30 4880 H 566.621 -0.870724 -1.298 0
M  V30 4881 H 567.356 0.893505 -3.11748 0
M  V30 4882 H 567.141 -0.720759 -3.85419 0
M  V30 4883 H 568.631 0.21759 -4.17033 0
M  V30 4884 N 569.068 1.32177 -0.85831 0
M  V30 4885 C 570.484 1.49873 -0.548656 0
M  V30 4886 C 570.684 1.79278 0.919874 0
M  V30 4887 O 569.74 1.86451 1.70271 0
M  V30 4888 C 571.053 2.64043 -1.4388 0
M  V30 4889 C 572.601 2.77928 -1.43961 0
M  V30 4890 C 573.076 3.95182 -2.31506 0
M  V30 4891 N 574.567 4.0245 -2.29321 0
M  V30 4892 C 575.302 4.9242 -2.93786 0
M  V30 4893 N 574.798 5.87373 -3.67376 0
M  V30 4894 N 576.591 4.85572 -2.83155 0
M  V30 4895 H 568.742 1.11357 -1.80868 0
M  V30 4896 H 571.005 0.549175 -0.772729 0
M  V30 4897 H 570.711 2.49055 -2.48324 0
M  V30 4898 H 570.585 3.59912 -1.12885 0
M  V30 4899 H 572.972 2.92338 -0.402813 0
M  V30 4900 H 573.053 1.82762 -1.78974 0
M  V30 4901 H 572.697 3.81531 -3.35256 0
M  V30 4902 H 572.627 4.89633 -1.93823 0
M  V30 4903 H 575.118 3.34507 -1.75822 0
M  V30 4904 H 575.431 6.52728 -4.13722 0
M  V30 4905 H 573.776 5.87388 -3.71484 0
M  V30 4906 H 576.967 4.10363 -2.25211 0
M  V30 4907 H 577.14 5.55486 -3.33676 0
M  V30 4908 N 570.547 0.616602 1.45037 0
M  V30 4909 C 571.958 0.199359 1.85633 0
M  V30 4910 C 572.309 -1.24588 1.51566 0
M  V30 4911 O 571.434 -1.94594 0.94668 0
M  V30 4912 C 572.029 0.355033 3.36935 0
M  V30 4913 C 570.588 -0.00758748 3.76399 0
M  V30 4914 C 569.735 0.675256 2.68953 0
M  V30 4915 H 572.686 0.822708 1.3571 0
M  V30 4916 H 572.707 -0.410201 3.78282 0
M  V30 4917 H 572.219 1.40699 3.61698 0
M  V30 4918 H 570.32 -1.05837 3.57252 0
M  V30 4919 H 570.433 0.392346 4.77491 0
M  V30 4920 H 568.797 0.111992 2.54454 0
M  V30 4921 H 569.58 1.72952 2.96551 0
M  V30 4922 N 572.025 -1.5352 0.356285 0
M  V30 4923 C 573.273 -2.00719 -0.235837 0
M  V30 4924 C 573.594 -1.24551 -1.5004 0
M  V30 4925 O 572.864 -0.356185 -1.92635 0
M  V30 4926 H 571.444 -0.741542 -0.0901366 0
M  V30 4927 H 574.106 -1.88887 0.480378 0
M  V30 4928 H 573.202 -3.08551 -0.469357 0
M  V30 4929 N 573.503 -0.0852151 -1.57369 0
M  V30 4930 C 574.749 0.581666 -1.94279 0
M  V30 4931 C 575.082 1.68444 -0.966446 0
M  V30 4932 O 574.357 1.945 0.00215277 0
M  V30 4933 C 574.64 1.14609 -3.41375 0
M  V30 4934 C 574.493 0.0490414 -4.49773 0
M  V30 4935 C 575.812 2.04751 -3.8957 0
M  V30 4936 H 572.931 0.209972 -0.706456 0
M  V30 4937 H 575.573 -0.153915 -1.89376 0
M  V30 4938 H 573.723 1.77297 -3.45685 0
M  V30 4939 H 575.395 -0.584721 -4.57579 0
M  V30 4940 H 573.638 -0.618638 -4.29366 0
M  V30 4941 H 574.309 0.484601 -5.49869 0
M  V30 4942 H 576.785 1.51981 -3.87351 0
M  V30 4943 H 575.661 2.41173 -4.93079 0
M  V30 4944 H 575.922 2.96107 -3.28288 0
M  V30 4945 N 574.981 1.5647 0.188427 0
M  V30 4946 C 576.229 1.80655 0.905986 0
M  V30 4947 C 576.55 0.659391 1.83513 0
M  V30 4948 O 575.82 -0.321868 1.93238 0
M  V30 4949 H 574.4 0.666391 0.337538 0
M  V30 4950 H 577.062 1.93949 0.192339 0
M  V30 4951 H 576.158 2.74066 1.49313 0
M  V30 4952 N 576.459 -0.456382 1.50847 0
M  V30 4953 C 577.705 -1.20914 1.62811 0
M  V30 4954 C 578.038 -1.91301 0.334304 0
M  V30 4955 O 577.313 -1.82775 -0.665098 0
M  V30 4956 C 577.596 -2.24122 2.81853 0
M  V30 4957 C 577.449 -1.57944 4.21158 0
M  V30 4958 C 578.768 -3.25295 2.96431 0
M  V30 4959 H 575.887 -0.438233 0.592554 0
M  V30 4960 H 578.529 -0.50091 1.83278 0
M  V30 4961 H 576.679 -2.84524 2.64534 0
M  V30 4962 H 578.351 -1.01025 4.50102 0
M  V30 4963 H 576.594 -0.882185 4.24735 0
M  V30 4964 H 577.265 -2.33014 5.00408 0
M  V30 4965 H 579.741 -2.7493 3.12335 0
M  V30 4966 H 578.617 -3.94822 3.81322 0
M  V30 4967 H 578.878 -3.90286 2.07676 0
M  V30 4968 N 577.937 -1.40673 -0.710563 0
M  V30 4969 C 579.185 -1.38947 -1.46759 0
M  V30 4970 C 579.506 0.00572879 -1.94999 0
M  V30 4971 O 578.776 0.961358 -1.70689 0
M  V30 4972 H 577.356 -0.5114 -0.544499 0
M  V30 4973 H 580.018 -1.75773 -0.842012 0
M  V30 4974 H 579.114 -2.06745 -2.33801 0
M  V30 4975 N 579.415 0.9433 -1.26252 0
M  V30 4976 C 580.663 1.68592 -1.11451 0
M  V30 4977 C 580.984 1.91957 0.343123 0
M  V30 4978 O 580.254 1.51475 1.24226 0
M  V30 4979 H 578.834 0.624789 -0.409448 0
M  V30 4980 H 581.496 1.13351 -1.58548 0
M  V30 4981 H 580.592 2.66054 -1.63162 0
M  V30 4982 N 580.893 1.08022 1.14757 0
M  V30 4983 C 582.142 0.802468 1.8505 0
M  V30 4984 C 582.455 -0.674061 1.83619 0
M  V30 4985 O 583.661 -1.06683 2.49662 0
M  V30 4986 C 582.117 1.38551 3.32162 0
M  V30 4987 C 581.725 2.89354 3.42021 0
M  V30 4988 C 583.469 1.18608 4.07594 0
M  V30 4989 C 581.376 3.40815 4.83321 0
M  V30 4990 H 580.306 0.296518 0.693248 0
M  V30 4991 H 582.957 1.30114 1.29393 0
M  V30 4992 H 581.339 0.814556 3.87532 0
M  V30 4993 H 582.513 3.52552 2.96722 0
M  V30 4994 H 580.828 3.08165 2.80041 0
M  V30 4995 H 583.425 1.54525 5.11885 0
M  V30 4996 H 583.768 0.125599 4.1611 0
M  V30 4997 H 584.301 1.72375 3.58513 0
M  V30 4998 H 581.04 4.46418 4.79991 0
M  V30 4999 H 580.56 2.82374 5.29174 0
M  V30 5000 H 582.239 3.37171 5.522 0
M  V30 5001 N 582.371 -1.3172 0.865308 0
M  V30 5002 C 583.782 -1.79104 0.527126 0
M  V30 5003 C 584.133 -1.7135 -0.955695 0
M  V30 5004 O 583.258 -1.27845 -1.74598 0
M  V30 5005 C 583.853 -3.25207 0.950061 0
M  V30 5006 C 582.412 -3.70504 0.663611 0
M  V30 5007 C 581.559 -2.52605 1.14395 0
M  V30 5008 H 584.51 -1.18868 1.05148 0
M  V30 5009 H 584.531 -3.79535 0.270805 0
M  V30 5010 H 584.043 -3.30818 2.02931 0
M  V30 5011 H 582.144 -3.70398 -0.404474 0
M  V30 5012 H 582.257 -4.62845 1.23737 0
M  V30 5013 H 580.621 -2.4838 0.563859 0
M  V30 5014 H 581.404 -2.60964 2.23053 0
M  V30 5015 N 583.85 -0.624285 -1.44708 0
M  V30 5016 C 585.077 -0.132919 -2.06473 0
M  V30 5017 C 585.493 1.18967 -1.46602 0
M  V30 5018 O 584.85 1.72824 -0.586341 0
M  V30 5019 C 584.901 -0.00465418 -3.615 0
M  V30 5020 O 584.622 -1.27494 -4.19138 0
M  V30 5021 C 586.123 0.516213 -4.40284 0
M  V30 5022 H 583.343 -0.0765201 -0.666623 0
M  V30 5023 H 585.887 -0.856751 -1.85688 0
M  V30 5024 H 584.042 0.669583 -3.8157 0
M  V30 5025 H 584.456 -1.11536 -5.12504 0
M  V30 5026 H 585.93 0.554994 -5.49203 0
M  V30 5027 H 586.407 1.5419 -4.11245 0
M  V30 5028 H 587.013 -0.124542 -4.25118 0
M  V30 5029 N 585.328 1.53329 -0.364422 0
M  V30 5030 C 586.558 2.05359 0.226096 0
M  V30 5031 C 586.966 1.23777 1.43094 0
M  V30 5032 O 586.309 0.271139 1.81688 0
M  V30 5033 C 586.371 3.52918 0.684794 0
M  V30 5034 C 586.035 4.55218 -0.403206 0
M  V30 5035 C 587.032 5.04583 -1.2527 0
M  V30 5036 C 584.717 4.99134 -0.563117 0
M  V30 5037 C 586.711 5.96463 -2.24745 0
M  V30 5038 C 584.398 5.9082 -1.56124 0
M  V30 5039 C 585.396 6.39375 -2.40184 0
M  V30 5040 O 585.084 7.29255 -3.38293 0
M  V30 5041 H 584.816 0.674588 0.0436772 0
M  V30 5042 H 587.37 1.98688 -0.520782 0
M  V30 5043 H 585.6 3.57122 1.48326 0
M  V30 5044 H 587.289 3.87812 1.19818 0
M  V30 5045 H 588.055 4.71403 -1.14034 0
M  V30 5046 H 583.934 4.60928 0.0813909 0
M  V30 5047 H 587.478 6.34285 -2.90393 0
M  V30 5048 H 583.375 6.23414 -1.67407 0
M  V30 5049 H 584.143 7.47249 -3.34009 0
M  V30 5050 N 586.806 0.0935595 1.57322 0
M  V30 5051 C 588.054 -0.569383 1.93913 0
M  V30 5052 C 588.375 -1.68817 0.976009 0
M  V30 5053 O 587.645 -1.9588 0.0278099 0
M  V30 5054 H 586.225 -0.21332 0.715894 0
M  V30 5055 H 588.887 0.156531 1.9427 0
M  V30 5056 H 587.983 -0.980577 2.96296 0
M  V30 5057 N 588.284 -1.56567 -0.180126 0
M  V30 5058 C 589.53 -1.81761 -0.899497 0
M  V30 5059 C 589.863 -0.670015 -1.82276 0
M  V30 5060 O 589.138 0.328575 -1.91705 0
M  V30 5061 C 589.421 -3.17296 -1.7028 0
M  V30 5062 C 589.274 -4.4257 -0.803255 0
M  V30 5063 C 590.593 -3.49678 -2.67233 0
M  V30 5064 H 587.712 -0.661192 -0.325567 0
M  V30 5065 H 590.354 -1.89272 -0.16612 0
M  V30 5066 H 588.504 -3.11023 -2.32802 0
M  V30 5067 H 590.176 -4.60902 -0.191585 0
M  V30 5068 H 588.419 -4.33658 -0.110796 0
M  V30 5069 H 589.09 -5.33935 -1.40064 0
M  V30 5070 H 591.566 -3.56347 -2.14839 0
M  V30 5071 H 590.442 -4.45605 -3.20511 0
M  V30 5072 H 590.703 -2.73932 -3.47007 0
M  V30 5073 N 589.762 0.448376 -1.51087 0
M  V30 5074 C 591.01 1.19635 -1.62886 0
M  V30 5075 C 591.331 1.91977 -0.342024 0
M  V30 5076 O 590.601 1.85094 0.641636 0
M  V30 5077 H 589.181 0.444598 -0.600285 0
M  V30 5078 H 591.843 0.515138 -1.87969 0
M  V30 5079 H 590.939 1.93194 -2.45117 0
M  V30 5080 N 591.24 1.41047 0.703093 0
M  V30 5081 C 592.203 1.42036 1.79884 0
M  V30 5082 C 593.203 0.312153 1.57741 0
M  V30 5083 O 594.393 0.571672 1.64553 0
M  V30 5084 C 591.525 1.22437 3.18154 0
M  V30 5085 H 592.718 2.39572 1.80403 0
M  V30 5086 H 590.271 1.27079 0.909977 0
M  V30 5087 H 591.006 0.257112 3.23279 0
M  V30 5088 H 590.791 2.02723 3.35627 0
M  V30 5089 H 592.281 1.25946 3.98155 0
M  V30 5090 N 592.718 -0.936591 1.26751 0
M  V30 5091 C 593.966 -1.67998 1.12343 0
M  V30 5092 C 594.287 -1.92137 -0.332938 0
M  V30 5093 O 593.557 -1.52132 -1.23421 0
M  V30 5094 H 592.137 -0.622609 0.412756 0
M  V30 5095 H 594.799 -1.12509 1.59147 0
M  V30 5096 H 593.895 -2.65185 1.64571 0
M  V30 5097 N 594.196 -1.08629 -1.14182 0
M  V30 5098 C 595.444 -0.815731 -1.84906 0
M  V30 5099 C 595.765 0.660441 -1.83475 0
M  V30 5100 O 595.035 1.47888 -1.28476 0
M  V30 5101 H 593.615 -0.298773 -0.684648 0
M  V30 5102 H 596.277 -1.37274 -1.38354 0
M  V30 5103 H 595.373 -1.16193 -2.89665 0
M  V30 5104 N 595.674 1.31259 -0.872281 0
M  V30 5105 C 596.921 1.96622 -0.484365 0
M  V30 5106 C 597.249 1.68939 0.963841 0
M  V30 5107 O 596.504 0.97974 1.6941 0
M  V30 5108 C 596.803 3.50659 -0.690889 0
M  V30 5109 C 596.469 3.98366 -2.11224 0
M  V30 5110 C 595.131 4.11104 -2.50094 0
M  V30 5111 C 597.483 4.23425 -3.0391 0
M  V30 5112 C 594.811 4.46254 -3.80887 0
M  V30 5113 C 597.163 4.60039 -4.3422 0
M  V30 5114 C 595.827 4.70984 -4.73001 0
M  V30 5115 H 595.097 0.71949 -0.177242 0
M  V30 5116 H 597.744 1.56353 -1.10571 0
M  V30 5117 H 596.049 3.91798 0.0135782 0
M  V30 5118 H 597.746 3.99284 -0.370534 0
M  V30 5119 H 594.336 3.88949 -1.80047 0
M  V30 5120 H 598.52 4.13075 -2.75104 0
M  V30 5121 H 593.776 4.52926 -4.10692 0
M  V30 5122 H 597.95 4.78381 -5.06088 0
M  V30 5123 H 595.577 4.97977 -5.7439 0
M  V30 5124 N 597.152 0.631951 1.44375 0
M  V30 5125 C 598.563 0.219036 1.85411 0
M  V30 5126 C 598.914 -1.22974 1.52879 0
M  V30 5127 O 598.039 -1.93579 0.967266 0
M  V30 5128 C 598.634 0.39075 3.36539 0
M  V30 5129 C 597.193 0.0323351 3.76386 0
M  V30 5130 C 596.34 0.703744 2.68221 0
M  V30 5131 H 599.291 0.837056 1.3483 0
M  V30 5132 H 599.312 -0.370056 3.78696 0
M  V30 5133 H 598.824 1.44527 3.60185 0
M  V30 5134 H 596.925 -1.02042 3.58355 0
M  V30 5135 H 597.038 0.442969 4.77048 0
M  V30 5136 H 595.402 0.138974 2.54321 0
M  V30 5137 H 596.185 1.76088 2.947 0
M  V30 5138 N 598.631 -1.53133 0.372548 0
M  V30 5139 C 599.879 -2.00958 -0.214534 0
M  V30 5140 C 600.2 -1.26135 -1.48711 0
M  V30 5141 O 599.47 -0.376597 -1.92246 0
M  V30 5142 H 598.05 -0.742456 -0.0822664 0
M  V30 5143 H 600.712 -1.88367 0.500385 0
M  V30 5144 H 599.808 -3.09031 -0.436605 0
M  V30 5145 N 600.109 -0.101901 -1.5727 0
M  V30 5146 C 601.356 0.560197 -1.94597 0
M  V30 5147 C 601.684 1.67767 -0.984101 0
M  V30 5148 O 600.939 1.95699 -0.00489193 0
M  V30 5149 C 601.238 1.14898 -3.38427 0
M  V30 5150 C 600.904 0.154613 -4.50635 0
M  V30 5151 C 599.566 -0.118861 -4.81053 0
M  V30 5152 C 601.918 -0.523979 -5.18559 0
M  V30 5153 C 599.246 -1.0775 -5.76721 0
M  V30 5154 C 601.598 -1.47114 -6.15256 0
M  V30 5155 C 600.262 -1.75278 -6.44076 0
M  V30 5156 H 599.532 0.204991 -0.712081 0
M  V30 5157 H 602.179 -0.17918 -1.9066 0
M  V30 5158 H 600.484 1.96476 -3.38976 0
M  V30 5159 H 602.181 1.66909 -3.64613 0
M  V30 5160 H 598.771 0.377948 -4.2693 0
M  V30 5161 H 602.955 -0.325851 -4.95229 0
M  V30 5162 H 598.211 -1.30263 -5.97362 0
M  V30 5163 H 602.385 -2.00274 -6.66981 0
M  V30 5164 H 600.012 -2.49717 -7.18015 0
M  V30 5165 N 601.587 1.56661 0.17182 0
M  V30 5166 C 602.835 1.81606 0.886774 0
M  V30 5167 C 603.156 0.678818 1.82803 0
M  V30 5168 O 602.426 -0.301354 1.93568 0
M  V30 5169 H 601.006 0.669934 0.330451 0
M  V30 5170 H 603.668 1.94142 0.171757 0
M  V30 5171 H 602.764 2.75634 1.46398 0
M  V30 5172 N 603.065 -0.440357 1.51323 0
M  V30 5173 C 604.311 -1.19181 1.64085 0
M  V30 5174 C 604.644 -1.90936 0.354575 0
M  V30 5175 O 603.919 -1.8347 -0.645675 0
M  V30 5176 C 604.202 -2.2112 2.84215 0
M  V30 5177 C 604.055 -1.53468 4.22809 0
M  V30 5178 C 605.374 -3.22133 2.99864 0
M  V30 5179 H 602.493 -0.431924 0.597169 0
M  V30 5180 H 605.135 -0.481443 1.83799 0
M  V30 5181 H 603.285 -2.81703 2.67537 0
M  V30 5182 H 604.957 -0.962455 4.51148 0
M  V30 5183 H 603.2 -0.837086 4.25647 0
M  V30 5184 H 603.871 -2.27694 5.02852 0
M  V30 5185 H 606.347 -2.71601 3.15233 0
M  V30 5186 H 605.223 -3.90756 3.85488 0
M  V30 5187 H 605.484 -3.88061 2.11804 0
M  V30 5188 N 604.543 -1.41418 -0.695603 0
M  V30 5189 C 605.791 -1.40496 -1.45277 0
M  V30 5190 C 606.112 -0.0149538 -1.94994 0
M  V30 5191 O 605.382 0.9432 -1.71699 0
M  V30 5192 H 603.962 -0.517147 -0.539044 0
M  V30 5193 H 606.624 -1.76656 -0.823321 0
M  V30 5194 H 605.72 -2.09214 -2.31595 0
M  V30 5195 N 606.021 0.929856 -1.27246 0
M  V30 5196 C 607.267 1.6798 -1.13625 0
M  V30 5197 C 607.6 1.91586 0.317589 0
M  V30 5198 O 606.875 1.50467 1.23247 0
M  V30 5199 C 607.158 3.04766 -1.91806 0
M  V30 5200 C 607.011 2.88415 -3.45162 0
M  V30 5201 C 608.33 4.05063 -1.72082 0
M  V30 5202 H 605.449 0.609632 -0.414147 0
M  V30 5203 H 608.091 1.0792 -1.56376 0
M  V30 5204 H 606.241 3.56034 -1.55474 0
M  V30 5205 H 607.913 2.44282 -3.91311 0
M  V30 5206 H 606.156 2.23802 -3.71611 0
M  V30 5207 H 606.827 3.85482 -3.95105 0
M  V30 5208 H 609.303 3.62798 -2.03757 0
M  V30 5209 H 608.179 4.98765 -2.29182 0
M  V30 5210 H 608.44 4.37021 -0.668206 0
M  V30 5211 N 607.499 1.09233 1.13605 0
M  V30 5212 C 608.747 0.825525 1.84471 0
M  V30 5213 C 609.068 -0.650702 1.83823 0
M  V30 5214 O 608.338 -1.47204 1.29259 0
M  V30 5215 H 606.918 0.3024 0.683054 0
M  V30 5216 H 609.58 1.38006 1.37624 0
M  V30 5217 H 608.676 1.17727 2.89045 0
M  V30 5218 N 608.977 -1.30795 0.87923 0
M  V30 5219 C 610.225 -1.95974 0.493809 0
M  V30 5220 C 610.546 -1.69787 -0.959021 0
M  V30 5221 O 609.816 -1.01832 -1.67353 0
M  V30 5222 H 608.396 -0.725083 0.179622 0
M  V30 5223 H 611.058 -1.59432 1.12105 0
M  V30 5224 H 610.154 -3.05058 0.659263 0
M  V30 5225 N 610.455 -0.639598 -1.44038 0
M  V30 5226 C 611.704 -0.144885 -2.01179 0
M  V30 5227 C 612.017 1.24372 -1.50967 0
M  V30 5228 O 613.223 1.83291 -2.00292 0
M  V30 5229 C 611.679 -0.208244 -3.59297 0
M  V30 5230 C 611.287 -1.59869 -4.18504 0
M  V30 5231 C 613.031 0.229568 -4.23879 0
M  V30 5232 C 610.938 -1.61671 -5.68873 0
M  V30 5233 H 609.868 -0.0504005 -0.752314 0
M  V30 5234 H 612.519 -0.799639 -1.65161 0
M  V30 5235 H 610.901 0.513767 -3.92653 0
M  V30 5236 H 612.075 -2.34496 -3.96671 0
M  V30 5237 H 610.39 -1.98131 -3.66242 0
M  V30 5238 H 612.987 0.235758 -5.3418 0
M  V30 5239 H 613.33 1.25848 -3.96822 0
M  V30 5240 H 613.863 -0.440233 -3.95357 0
M  V30 5241 H 610.602 -2.62427 -6.00677 0
M  V30 5242 H 610.122 -0.913489 -5.92803 0
M  V30 5243 H 611.801 -1.35439 -6.32665 0
M  V30 5244 N 611.933 1.52934 -0.380664 0
M  V30 5245 C 613.344 1.86457 0.0952684 0
M  V30 5246 C 613.695 1.3007 1.46889 0
M  V30 5247 O 612.82 0.628636 2.07068 0
M  V30 5248 C 613.415 3.38323 0.179648 0
M  V30 5249 C 611.974 3.71589 0.599858 0
M  V30 5250 C 611.121 2.76228 -0.243572 0
M  V30 5251 H 614.072 1.46966 -0.59888 0
M  V30 5252 H 614.093 3.67113 1.00042 0
M  V30 5253 H 613.605 3.79333 -0.820228 0
M  V30 5254 H 611.706 3.36144 1.60742 0
M  V30 5255 H 611.819 4.77715 0.364003 0
M  V30 5256 H 610.183 2.53045 0.289855 0
M  V30 5257 H 610.966 3.20074 -1.24127 0
M  V30 5258 N 613.412 0.11024 1.57214 0
M  V30 5259 C 614.66 -0.548783 1.94506 0
M  V30 5260 C 614.981 -1.67772 0.99386 0
M  V30 5261 O 614.251 -1.9584 0.0485841 0
M  V30 5262 H 612.831 -0.205715 0.718116 0
M  V30 5263 H 615.493 0.177127 1.94093 0
M  V30 5264 H 614.589 -0.949096 2.97319 0
M  V30 5265 N 614.89 -1.56749 -0.16351 0
M  V30 5266 C 616.136 -1.82704 -0.880168 0
M  V30 5267 C 616.469 -0.689311 -1.81555 0
M  V30 5268 O 615.744 0.308224 -1.92042 0
M  V30 5269 C 616.027 -3.19084 -1.66905 0
M  V30 5270 C 615.88 -4.43397 -0.756269 0
M  V30 5271 C 617.199 -3.52493 -2.63509 0
M  V30 5272 H 614.318 -0.664608 -0.318535 0
M  V30 5273 H 616.96 -1.89438 -0.146036 0
M  V30 5274 H 615.11 -3.13475 -2.2949 0
M  V30 5275 H 616.782 -4.61079 -0.14269 0
M  V30 5276 H 615.025 -4.33752 -0.0647944 0
M  V30 5277 H 615.696 -5.3539 -1.34393 0
M  V30 5278 H 618.172 -3.58606 -2.11047 0
M  V30 5279 H 617.048 -4.48979 -3.15767 0
M  V30 5280 H 617.309 -2.77597 -3.44082 0
M  V30 5281 N 616.368 0.432326 -1.51554 0
M  V30 5282 C 617.331 1.50765 -1.72634 0
M  V30 5283 C 618.331 1.49334 -0.596314 0
M  V30 5284 O 619.521 1.51268 -0.863925 0
M  V30 5285 C 616.653 2.90284 -1.7874 0
M  V30 5286 H 617.846 1.33377 -2.68609 0
M  V30 5287 H 615.399 0.661329 -1.4162 0
M  V30 5288 H 616.134 3.13071 -0.845977 0
M  V30 5289 H 615.919 2.92727 -2.6087 0
M  V30 5290 H 617.409 3.68282 -1.96871 0
M  V30 5291 N 617.846 1.41785 0.688094 0
M  V30 5292 C 619.094 1.41264 1.4453 0
M  V30 5293 C 619.415 0.0252946 1.94984 0
M  V30 5294 O 618.685 -0.934081 1.72197 0
M  V30 5295 H 617.265 0.519998 0.536294 0
M  V30 5296 H 619.927 1.7709 0.813941 0
M  V30 5297 H 619.023 2.10439 2.30482 0
M  V30 5298 N 619.324 -0.923095 1.27737 0
M  V30 5299 C 620.57 -1.67375 1.14514 0
M  V30 5300 C 620.903 -1.91751 -0.307424 0
M  V30 5301 O 620.178 -1.51119 -1.22447 0
M  V30 5302 C 620.461 -3.03745 1.9342 0
M  V30 5303 C 620.314 -2.86581 3.46686 0
M  V30 5304 C 621.633 -4.04144 1.74228 0
M  V30 5305 H 618.752 -0.607427 0.417374 0
M  V30 5306 H 621.394 -1.07089 1.56946 0
M  V30 5307 H 619.544 -3.55204 1.5736 0
M  V30 5308 H 621.216 -2.42203 3.92601 0
M  V30 5309 H 619.459 -2.21829 3.72793 0
M  V30 5310 H 620.13 -3.83381 3.97143 0
M  V30 5311 H 622.606 -3.61712 2.05678 0
M  V30 5312 H 621.482 -4.97543 2.31824 0
M  V30 5313 H 621.743 -4.36661 0.691373 0
M  V30 5314 N 620.802 -1.09834 -1.13024 0
M  V30 5315 C 622.213 -0.855651 -1.65938 0
M  V30 5316 C 622.564 0.615159 -1.86307 0
M  V30 5317 O 621.689 1.47335 -1.58497 0
M  V30 5318 C 622.284 -1.5467 -3.01434 0
M  V30 5319 C 620.843 -1.35088 -3.51323 0
M  V30 5320 C 619.99 -1.6001 -2.26478 0
M  V30 5321 H 622.941 -1.25691 -0.968889 0
M  V30 5322 H 622.962 -0.982179 -3.67605 0
M  V30 5323 H 622.474 -2.61715 -2.86578 0
M  V30 5324 H 620.575 -0.30179 -3.71376 0
M  V30 5325 H 620.688 -2.0886 -4.31178 0
M  V30 5326 H 619.052 -1.02246 -2.33276 0
M  V30 5327 H 619.835 -2.68293 -2.14182 0
M  V30 5328 N 622.28 1.30327 -0.886154 0
M  V30 5329 C 623.528 1.9571 -0.504195 0
M  V30 5330 C 623.849 1.70294 0.950003 0
M  V30 5331 O 623.119 1.02718 1.66811 0
M  V30 5332 H 621.699 0.72412 -0.183465 0
M  V30 5333 H 624.361 1.58835 -1.12949 0
M  V30 5334 H 623.457 3.04704 -0.675431 0
M  V30 5335 N 623.758 0.647228 1.43697 0
M  V30 5336 C 625.004 0.158422 2.0218 0
M  V30 5337 C 625.337 -1.22233 1.50907 0
M  V30 5338 O 624.612 -1.81478 0.699702 0
M  V30 5339 C 624.895 0.1627 3.59732 0
M  V30 5340 C 624.748 1.57694 4.21251 0
M  V30 5341 C 626.067 -0.504138 4.37203 0
M  V30 5342 H 623.186 0.059042 0.734631 0
M  V30 5343 H 625.828 0.826772 1.71069 0
M  V30 5344 H 623.978 -0.406414 3.86368 0
M  V30 5345 H 625.65 2.19618 4.05667 0
M  V30 5346 H 623.893 2.12603 3.7813 0
M  V30 5347 H 624.564 1.53183 5.3032 0
M  V30 5348 H 627.04 -0.0199841 4.16095 0
M  V30 5349 H 625.916 -0.470394 5.46881 0
M  V30 5350 H 626.177 -1.57726 4.13007 0
M  V30 5351 N 625.236 -1.5273 0.388769 0
M  V30 5352 C 626.484 -2.01174 -0.193208 0
M  V30 5353 C 626.805 -1.27705 -1.47365 0
M  V30 5354 O 626.075 -0.396966 -1.91836 0
M  V30 5355 H 624.655 -0.743287 -0.0743871 0
M  V30 5356 H 627.317 -1.87826 0.520336 0
M  V30 5357 H 626.413 -3.09477 -0.403803 0
M  V30 5358 N 626.714 -0.118576 -1.57153 0
M  V30 5359 C 627.962 0.538461 -1.94795 0
M  V30 5360 C 628.283 1.67243 -1.00274 0
M  V30 5361 O 627.553 1.95811 -0.0589692 0
M  V30 5362 H 626.133 0.201904 -0.719197 0
M  V30 5363 H 628.795 -0.187418 -1.93997 0
M  V30 5364 H 627.891 0.933315 -2.97818 0
M  V30 5365 N 628.193 1.56834 0.155195 0
M  V30 5366 C 629.439 1.83169 0.870467 0
M  V30 5367 C 629.772 0.698929 1.81187 0
M  V30 5368 O 629.047 -0.298035 1.92203 0
M  V30 5369 C 629.33 3.19965 1.65211 0
M  V30 5370 C 629.183 4.43792 0.732744 0
M  V30 5371 C 630.502 3.53885 2.61636 0
M  V30 5372 H 627.621 0.666288 0.315006 0
M  V30 5373 H 630.263 1.89513 0.135988 0
M  V30 5374 H 628.413 3.14687 2.27825 0
M  V30 5375 H 630.085 4.61148 0.118236 0
M  V30 5376 H 628.328 4.3378 0.0417906 0
M  V30 5377 H 628.999 5.36095 1.31552 0
M  V30 5378 H 631.475 3.5972 2.09143 0
M  V30 5379 H 630.351 4.50648 3.13381 0
M  V30 5380 H 630.612 2.79418 3.42605 0
M  V30 5381 N 629.671 -0.424282 1.51781 0
M  V30 5382 C 631.082 -1.00368 1.57427 0
M  V30 5383 C 631.433 -1.91962 0.40558 0
M  V30 5384 O 630.558 -2.111 -0.47601 0
M  V30 5385 C 631.153 -1.82707 2.85313 0
M  V30 5386 C 629.712 -2.35675 2.93487 0
M  V30 5387 C 628.859 -1.1524 2.5222 0
M  V30 5388 H 631.81 -0.205064 1.5737 0
M  V30 5389 H 631.831 -2.68294 2.69812 0
M  V30 5390 H 631.343 -1.16017 3.70353 0
M  V30 5391 H 629.444 -3.05781 2.12906 0
M  V30 5392 H 629.557 -2.67578 3.97415 0
M  V30 5393 H 627.921 -1.50174 2.05718 0
M  V30 5394 H 628.704 -0.5014 3.39619 0
M  V30 5395 N 631.149 -1.42148 -0.680565 0
M  V30 5396 C 632.397 -1.42029 -1.43779 0
M  V30 5397 C 632.718 -0.0356347 -1.94967 0
M  V30 5398 O 631.988 0.924936 -1.7269 0
M  V30 5399 H 630.568 -0.522835 -0.533529 0
M  V30 5400 H 633.23 -1.7752 -0.804538 0
M  V30 5401 H 632.326 -2.11658 -2.29363 0
M  V30 5402 N 632.627 0.916307 -1.28225 0
M  V30 5403 C 633.873 1.66765 -1.154 0
M  V30 5404 C 634.206 1.91912 0.297251 0
M  V30 5405 O 633.481 1.51766 1.21644 0
M  V30 5406 C 633.764 3.02715 -1.95028 0
M  V30 5407 C 633.617 2.84738 -3.48201 0
M  V30 5408 C 634.936 4.03215 -1.76369 0
M  V30 5409 H 632.055 0.605205 -0.42059 0
M  V30 5410 H 634.697 1.06255 -1.57512 0
M  V30 5411 H 632.847 3.54365 -1.59242 0
M  V30 5412 H 634.519 2.40118 -3.9388 0
M  V30 5413 H 632.762 2.19848 -3.73964 0
M  V30 5414 H 633.433 3.8127 -3.99171 0
M  V30 5415 H 635.909 3.60617 -2.07593 0
M  V30 5416 H 634.785 4.96306 -2.34459 0
M  V30 5417 H 635.046 4.36288 -0.71452 0
M  V30 5418 N 634.105 1.10431 1.1244 0
M  V30 5419 C 635.353 0.845045 1.83585 0
M  V30 5420 C 635.674 -0.631168 1.84503 0
M  V30 5421 O 634.944 -1.45825 1.30813 0
M  V30 5422 H 633.524 0.309628 0.679809 0
M  V30 5423 H 636.186 1.39458 1.36153 0
M  V30 5424 H 635.282 1.20786 2.8778 0
M  V30 5425 N 635.583 -1.29855 0.893053 0
M  V30 5426 C 636.831 -1.9544 0.514566 0
M  V30 5427 C 637.152 -1.70795 -0.940959 0
M  V30 5428 O 636.422 -1.03601 -1.66264 0
M  V30 5429 H 635.002 -0.723137 0.187302 0
M  V30 5430 H 637.664 -1.58234 1.13789 0
M  V30 5431 H 636.76 -3.04341 0.691581 0
M  V30 5432 N 637.061 -0.65484 -1.43351 0
M  V30 5433 C 638.307 -0.169142 -2.02093 0
M  V30 5434 C 638.64 1.21431 -1.51553 0
M  V30 5435 O 637.915 1.81105 -0.709317 0
M  V30 5436 C 638.198 -0.181775 -3.59641 0
M  V30 5437 C 638.051 -1.59926 -4.20409 0
M  V30 5438 C 639.37 0.480945 -4.37464 0
M  V30 5439 H 636.489 -0.0629371 -0.734308 0
M  V30 5440 H 639.131 -0.835833 -1.70628 0
M  V30 5441 H 637.281 0.385918 -3.86578 0
M  V30 5442 H 638.953 -2.21766 -4.04497 0
M  V30 5443 H 637.196 -2.14605 -3.76998 0
M  V30 5444 H 637.867 -1.55994 -5.295 0
M  V30 5445 H 640.343 -0.00208273 -4.161 0
M  V30 5446 H 639.219 0.441384 -5.47122 0
M  V30 5447 H 639.48 1.55533 -4.13838 0
M  V30 5448 N 638.539 1.52521 -0.396863 0
M  V30 5449 C 639.95 1.86547 0.0754868 0
M  V30 5450 C 640.301 1.31621 1.45501 0
M  V30 5451 O 639.426 0.650563 2.0639 0
M  V30 5452 C 640.021 3.38495 0.143754 0
M  V30 5453 C 638.58 3.72205 0.560413 0
M  V30 5454 C 637.727 2.75954 -0.272856 0
M  V30 5455 H 640.678 1.46323 -0.614434 0
M  V30 5456 H 640.699 3.68153 0.961425 0
M  V30 5457 H 640.211 3.78442 -0.860415 0
M  V30 5458 H 638.312 3.3783 1.57167 0
M  V30 5459 H 638.425 4.78074 0.313314 0
M  V30 5460 H 636.789 2.53339 0.263 0
M  V30 5461 H 637.572 3.1874 -1.27515 0
M  V30 5462 N 640.017 0.126909 1.57088 0
M  V30 5463 C 641.265 -0.528123 1.95078 0
M  V30 5464 C 641.586 -1.66708 1.0116 0
M  V30 5465 O 640.856 -1.95777 0.0693527 0
M  V30 5466 H 639.436 -0.198087 0.720257 0
M  V30 5467 H 642.098 0.197703 1.93895 0
M  V30 5468 H 641.194 -0.917507 2.98309 0
M  V30 5469 N 641.495 -1.56914 -0.146875 0
M  V30 5470 C 642.741 -1.83628 -0.860741 0
M  V30 5471 C 643.074 -0.708528 -1.80813 0
M  V30 5472 O 642.349 0.287838 -1.92358 0
M  V30 5473 C 642.632 -3.20836 -1.63511 0
M  V30 5474 C 642.485 -4.44174 -0.709199 0
M  V30 5475 C 643.804 -3.55268 -2.59756 0
M  V30 5476 H 640.923 -0.667949 -0.311468 0
M  V30 5477 H 643.565 -1.89582 -0.125936 0
M  V30 5478 H 641.715 -3.15891 -2.26153 0
M  V30 5479 H 643.387 -4.61205 -0.0937781 0
M  V30 5480 H 641.63 -4.33796 -0.0187856 0
M  V30 5481 H 642.301 -5.36785 -1.28707 0
M  V30 5482 H 644.777 -3.60824 -2.07232 0
M  V30 5483 H 643.653 -4.52303 -3.10987 0
M  V30 5484 H 643.914 -2.81231 -3.41118 0
M  V30 5485 N 642.974 0.416227 -1.52004 0
M  V30 5486 C 644.222 1.16153 -1.65387 0
M  V30 5487 C 644.543 1.91208 -0.382669 0
M  V30 5488 O 643.813 1.86413 0.602231 0
M  V30 5489 H 642.393 0.431765 -0.60958 0
M  V30 5490 H 645.055 0.475151 -1.89019 0
M  V30 5491 H 644.151 1.87952 -2.4916 0
M  V30 5492 N 644.452 1.42507 0.673017 0
M  V30 5493 C 645.701 1.42364 1.42883 0
M  V30 5494 C 646.014 0.0441598 1.9555 0
M  V30 5495 O 647.22 -0.0798679 2.71382 0
M  V30 5496 C 645.676 2.5043 2.58482 0
M  V30 5497 C 645.284 3.94392 2.12506 0
M  V30 5498 C 647.028 2.59455 3.35981 0
M  V30 5499 C 644.935 4.93964 3.25198 0
M  V30 5500 H 643.865 0.52951 0.536782 0
M  V30 5501 H 646.516 1.68422 0.728448 0
M  V30 5502 H 644.898 2.1754 3.30896 0
M  V30 5503 H 646.072 4.36645 1.47233 0
M  V30 5504 H 644.387 3.89233 1.4794 0
M  V30 5505 H 646.984 3.31025 4.19912 0
M  V30 5506 H 647.327 1.63869 3.82691 0
M  V30 5507 H 647.86 2.91549 2.70637 0
M  V30 5508 H 644.599 5.91034 2.83477 0
M  V30 5509 H 644.119 4.56341 3.89247 0
M  V30 5510 H 645.798 5.15763 3.90637 0
M  V30 5511 N 645.93 -0.909495 1.28709 0
M  V30 5512 C 647.155 -1.69801 1.1909 0
M  V30 5513 C 647.58 -1.86479 -0.246388 0
M  V30 5514 O 646.938 -1.37802 -1.17815 0
M  V30 5515 C 646.986 -3.06543 1.89904 0
M  V30 5516 O 646.09 -3.94268 1.2094 0
M  V30 5517 H 645.431 -0.519783 0.413185 0
M  V30 5518 H 647.961 -1.13689 1.70106 0
M  V30 5519 H 647.971 -3.56748 1.97977 0
M  V30 5520 H 646.646 -2.93722 2.94449 0
M  V30 5521 H 645.223 -3.52702 1.2106 0
M  V30 5522 N 647.408 -1.11026 -1.11852 0
M  V30 5523 C 648.819 -0.873203 -1.65021 0
M  V30 5524 C 649.17 0.595364 -1.86949 0
M  V30 5525 O 648.295 1.45645 -1.60051 0
M  V30 5526 C 648.89 -1.57859 -2.99777 0
M  V30 5527 C 647.449 -1.38807 -3.49871 0
M  V30 5528 C 646.596 -1.62403 -2.24768 0
M  V30 5529 H 649.547 -1.26712 -0.955503 0
M  V30 5530 H 649.568 -1.02111 -3.66543 0
M  V30 5531 H 649.08 -2.6474 -2.83786 0
M  V30 5532 H 647.181 -0.341163 -3.71035 0
M  V30 5533 H 647.294 -2.13421 -4.28938 0
M  V30 5534 H 645.658 -1.04714 -2.32179 0
M  V30 5535 H 646.441 -2.70549 -2.11324 0
M  V30 5536 N 648.886 1.2938 -0.899927 0
M  V30 5537 C 649.796 2.31462 -0.382437 0
M  V30 5538 C 650.812 1.65956 0.522929 0
M  V30 5539 O 651.988 1.97131 0.412454 0
M  V30 5540 C 649.053 3.44595 0.381472 0
M  V30 5541 C 648.114 4.25692 -0.555444 0
M  V30 5542 C 647.347 5.33422 0.172102 0
M  V30 5543 O 647.57 5.53053 1.396 0
M  V30 5544 O 646.504 5.99939 -0.485491 0
M  V30 5545 H 650.33 2.77706 -1.22934 0
M  V30 5546 H 647.915 1.33821 -0.664259 0
M  V30 5547 H 649.797 4.13474 0.813442 0
M  V30 5548 H 648.472 3.00458 1.20443 0
M  V30 5549 H 647.379 3.59453 -1.03653 0
M  V30 5550 H 648.712 4.73471 -1.34483 0
M  V30 5551 N 650.364 0.662433 1.43002 0
M  V30 5552 C 651.327 -0.0142016 2.29196 0
M  V30 5553 C 652.327 -0.741394 1.42688 0
M  V30 5554 O 653.517 -0.581257 1.64216 0
M  V30 5555 C 650.649 -1.03084 3.24941 0
M  V30 5556 H 651.842 0.7443 2.90517 0
M  V30 5557 H 649.395 0.424133 1.50435 0
M  V30 5558 H 650.13 -1.81826 2.68533 0
M  V30 5559 H 649.915 -0.512946 3.8873 0
M  V30 5560 H 651.405 -1.50308 3.89612 0
M  V30 5561 N 651.842 -1.52309 0.404946 0
M  V30 5562 C 652.774 -2.24579 -0.45791 0
M  V30 5563 C 653.787 -1.2739 -1.01369 0
M  V30 5564 O 654.976 -1.53363 -0.91335 0
M  V30 5565 C 652.076 -2.9608 -1.64893 0
M  V30 5566 C 651.249 -4.20106 -1.21777 0
M  V30 5567 C 650.308 -4.74468 -2.27523 0
M  V30 5568 O 649.334 -5.37157 -1.88285 0
M  V30 5569 N 650.536 -4.55678 -3.59635 0
M  V30 5570 H 653.301 -2.99265 0.161341 0
M  V30 5571 H 650.862 -1.60228 0.232107 0
M  V30 5572 H 652.854 -3.29344 -2.35191 0
M  V30 5573 H 651.424 -2.24606 -2.17419 0
M  V30 5574 H 650.644 -3.92704 -0.343071 0
M  V30 5575 H 651.932 -5.00658 -0.906596 0
M  V30 5576 H 651.33 -4.05673 -3.94266 0
M  V30 5577 H 649.887 -4.9339 -4.25922 0
M  V30 5578 N 653.32 -0.135238 -1.57019 0
M  V30 5579 C 654.283 0.794707 -2.14981 0
M  V30 5580 C 655.283 1.18342 -1.08866 0
M  V30 5581 O 656.473 1.10627 -1.34563 0
M  V30 5582 C 653.605 2.07685 -2.70333 0
M  V30 5583 H 654.798 0.290696 -2.98488 0
M  V30 5584 H 652.351 0.114128 -1.55883 0
M  V30 5585 H 653.086 2.6248 -1.9046 0
M  V30 5586 H 652.871 1.80745 -3.47957 0
M  V30 5587 H 654.361 2.74127 -3.1503 0
M  V30 5588 N 654.798 1.5699 0.138552 0
M  V30 5589 C 655.761 1.97984 1.15478 0
M  V30 5590 C 656.761 0.867416 1.35398 0
M  V30 5591 O 657.951 1.13387 1.32246 0
M  V30 5592 C 655.083 2.3031 2.51337 0
M  V30 5593 H 656.276 2.88953 0.802896 0
M  V30 5594 H 653.829 1.51555 0.382189 0
M  V30 5595 H 654.564 1.42159 2.91481 0
M  V30 5596 H 654.349 3.11425 2.38237 0
M  V30 5597 H 655.839 2.62834 3.24512 0
M  V30 5598 N 656.276 -0.40816 1.52223 0
M  V30 5599 C 657.239 -1.48 1.7501 0
M  V30 5600 C 658.239 -1.48367 0.619996 0
M  V30 5601 O 659.429 -1.49874 0.887881 0
M  V30 5602 C 656.561 -2.87403 1.83336 0
M  V30 5603 H 657.754 -1.29086 2.70697 0
M  V30 5604 H 655.307 -0.638715 1.42654 0
M  V30 5605 H 656.042 -3.11686 0.895677 0
M  V30 5606 H 655.827 -2.8854 2.65494 0
M  V30 5607 H 657.317 -3.65103 2.02705 0
M  V30 5608 N 657.755 -1.42862 -0.66545 0
M  V30 5609 C 658.718 -1.46756 -1.76055 0
M  V30 5610 C 659.718 -0.353866 -1.56858 0
M  V30 5611 O 660.908 -0.615099 -1.62979 0
M  V30 5612 C 658.04 -1.30829 -3.14796 0
M  V30 5613 H 659.233 -2.44271 -1.73987 0
M  V30 5614 H 656.786 -1.29447 -0.875965 0
M  V30 5615 H 657.521 -0.342733 -3.22484 0
M  V30 5616 H 657.306 -2.11551 -3.30134 0
M  V30 5617 H 658.796 -1.36458 -3.94676 0
M  V30 5618 N 659.233 0.902656 -1.29189 0
M  V30 5619 C 660.196 1.98797 -1.14071 0
M  V30 5620 C 661.196 1.60615 -0.0770549 0
M  V30 5621 O 662.386 1.71165 -0.323753 0
M  V30 5622 C 659.518 3.32688 -0.743739 0
M  V30 5623 H 660.711 2.13637 -2.10473 0
M  V30 5624 H 658.264 1.08678 -1.12334 0
M  V30 5625 H 658.999 3.23549 0.220554 0
M  V30 5626 H 658.784 3.61765 -1.51223 0
M  V30 5627 H 660.274 4.12337 -0.660935 0
M  V30 5628 N 660.711 1.11618 1.11262 0
M  V30 5629 C 661.658 0.7762 2.17356 0
M  V30 5630 C 662.628 -0.253152 1.6416 0
M  V30 5631 O 663.813 -0.129655 1.90359 0
M  V30 5632 C 660.953 0.227581 3.44349 0
M  V30 5633 C 660.066 1.31372 4.1154 0
M  V30 5634 C 659.201 0.72544 5.26223 0
M  V30 5635 C 658.24 1.7913 5.85302 0
M  V30 5636 N 657.377 1.22237 6.91377 0
M  V30 5637 H 662.217 1.68508 2.45783 0
M  V30 5638 H 659.754 0.841475 1.20655 0
M  V30 5639 H 661.712 -0.108483 4.17059 0
M  V30 5640 H 660.342 -0.644486 3.16301 0
M  V30 5641 H 659.394 1.7667 3.36885 0
M  V30 5642 H 660.706 2.12005 4.51504 0
M  V30 5643 H 659.86 0.339541 6.05749 0
M  V30 5644 H 658.599 -0.112188 4.87571 0
M  V30 5645 H 657.604 2.18648 5.04453 0
M  V30 5646 H 658.829 2.63199 6.26022 0
M  V30 5647 H 656.775 0.406423 6.5474 0
M  V30 5648 H 656.692 1.9654 7.30006 0
M  V30 5649 H 657.96 0.863426 7.74703 0
M  V30 5650 N 662.189 -1.289 0.906776 0
M  V30 5651 C 663.152 -2.25777 0.394656 0
M  V30 5652 C 664.152 -1.53621 -0.475119 0
M  V30 5653 O 665.342 -1.71949 -0.279165 0
M  V30 5654 C 662.474 -3.38113 -0.43499 0
M  V30 5655 H 663.667 -2.72592 1.25033 0
M  V30 5656 H 661.22 -1.40463 0.685547 0
M  V30 5657 H 661.955 -2.96648 -1.31036 0
M  V30 5658 H 661.74 -3.91647 0.188334 0
M  V30 5659 H 663.23 -4.10168 -0.784365 0
M  V30 5660 N 663.667 -0.670007 -1.42649 0
M  V30 5661 C 664.63 0.00204659 -2.292 0
M  V30 5662 C 665.63 0.733817 -1.4308 0
M  V30 5663 O 666.82 0.57254 -1.64522 0
M  V30 5664 C 663.952 1.01359 -3.25483 0
M  V30 5665 H 665.145 -0.759696 -2.90118 0
M  V30 5666 H 662.698 -0.432105 -1.50208 0
M  V30 5667 H 663.433 1.80399 -2.69493 0
M  V30 5668 H 663.218 0.492323 -3.88997 0
M  V30 5669 H 664.708 1.4824 -3.90403 0
M  V30 5670 N 665.145 1.52092 -0.413018 0
M  V30 5671 C 666.092 2.27119 0.410558 0
M  V30 5672 C 667.062 1.29692 1.03774 0
M  V30 5673 O 668.247 1.58561 1.06128 0
M  V30 5674 C 665.387 3.09863 1.51918 0
M  V30 5675 C 664.5 4.22252 0.912528 0
M  V30 5676 C 663.635 4.92348 1.99417 0
M  V30 5677 C 662.674 5.96694 1.36466 0
M  V30 5678 N 661.811 6.60292 2.38661 0
M  V30 5679 H 666.651 2.97067 -0.235661 0
M  V30 5680 H 664.188 1.46542 -0.128055 0
M  V30 5681 H 666.146 3.56144 2.17295 0
M  V30 5682 H 664.776 2.42078 2.13537 0
M  V30 5683 H 663.828 3.80113 0.147697 0
M  V30 5684 H 665.14 4.9709 0.412717 0
M  V30 5685 H 664.294 5.42054 2.72512 0
M  V30 5686 H 663.033 4.17087 2.52764 0
M  V30 5687 H 662.038 5.46304 0.61906 0
M  V30 5688 H 663.263 6.73899 0.838827 0
M  V30 5689 H 661.209 5.87858 2.91134 0
M  V30 5690 H 661.126 7.30816 1.93503 0
M  V30 5691 H 662.394 7.14635 3.11314 0
M  V30 5692 N 666.623 0.143563 1.56945 0
M  V30 5693 C 667.853 -0.514699 2.00086 0
M  V30 5694 C 668.261 -1.59184 1.0226 0
M  V30 5695 O 667.604 -1.83697 0.0110514 0
M  V30 5696 C 667.666 -1.17778 3.39659 0
M  V30 5697 C 667.33 -0.245657 4.56339 0
M  V30 5698 C 668.327 0.525343 5.17239 0
M  V30 5699 C 666.012 -0.149564 5.02077 0
M  V30 5700 C 668.006 1.37992 6.22284 0
M  V30 5701 C 665.693 0.708621 6.06978 0
M  V30 5702 C 666.691 1.47197 6.6695 0
M  V30 5703 O 666.379 2.31586 7.6982 0
M  V30 5704 H 666.111 -0.138789 0.661599 0
M  V30 5705 H 668.665 0.234098 2.04062 0
M  V30 5706 H 666.895 -1.97415 3.32512 0
M  V30 5707 H 668.584 -1.73542 3.6693 0
M  V30 5708 H 669.35 0.461118 4.82803 0
M  V30 5709 H 665.229 -0.733457 4.55128 0
M  V30 5710 H 668.773 1.97621 6.69023 0
M  V30 5711 H 664.67 0.77415 6.40841 0
M  V30 5712 H 665.438 2.24796 7.87025 0
M  V30 5713 N 668.101 -1.57061 -0.130224 0
M  V30 5714 C 669.349 -1.83893 -0.838313 0
M  V30 5715 C 669.67 -0.727046 -1.80939 0
M  V30 5716 O 668.94 0.249927 -1.94299 0
M  V30 5717 H 667.52 -0.67846 -0.312573 0
M  V30 5718 H 670.182 -1.94529 -0.120224 0
M  V30 5719 H 669.278 -2.79419 -1.39038 0
M  V30 5720 N 669.579 0.400081 -1.52437 0
M  V30 5721 C 670.542 1.4707 -1.75793 0
M  V30 5722 C 671.542 1.48036 -0.627856 0
M  V30 5723 O 672.732 1.49401 -0.895817 0
M  V30 5724 C 669.864 2.86427 -1.84858 0
M  V30 5725 H 671.057 1.27649 -2.71377 0
M  V30 5726 H 668.61 0.631141 -1.42991 0
M  V30 5727 H 669.345 3.11207 -0.912194 0
M  V30 5728 H 669.13 2.87128 -2.6702 0
M  V30 5729 H 670.62 3.64023 -2.04638 0
M  V30 5730 N 671.057 1.43213 0.657864 0
M  V30 5731 C 672.02 1.47687 1.75275 0
M  V30 5732 C 673.02 0.362179 1.56668 0
M  V30 5733 O 674.21 0.623734 1.62651 0
M  V30 5734 C 671.342 1.32497 3.14098 0
M  V30 5735 H 672.535 2.4519 1.7269 0
M  V30 5736 H 670.088 1.2991 0.869087 0
M  V30 5737 H 670.823 0.359831 3.22298 0
M  V30 5738 H 670.608 2.13299 3.29008 0
M  V30 5739 H 672.098 1.38549 3.93946 0
M  V30 5740 N 672.536 -0.895792 1.29666 0
M  V30 5741 C 673.784 -1.64339 1.17631 0
M  V30 5742 C 674.105 -1.93099 -0.271643 0
M  V30 5743 O 673.375 -1.55981 -1.18518 0
M  V30 5744 H 671.955 -0.609162 0.432354 0
M  V30 5745 H 674.617 -1.07389 1.62646 0
M  V30 5746 H 673.713 -2.59815 1.72924 0
M  V30 5747 N 674.014 -1.12206 -1.10668 0
M  V30 5748 C 674.977 -0.790867 -2.15123 0
M  V30 5749 C 675.977 0.193618 -1.5963 0
M  V30 5750 O 677.167 -0.0318728 -1.74171 0
M  V30 5751 C 674.299 -0.174797 -3.40452 0
M  V30 5752 H 675.492 -1.7163 -2.45933 0
M  V30 5753 H 673.045 -0.924993 -1.2599 0
M  V30 5754 H 673.78 0.760478 -3.15257 0
M  V30 5755 H 673.565 -0.88358 -3.82015 0
M  V30 5756 H 675.055 0.0405162 -4.1758 0
M  V30 5757 N 675.492 1.28418 -0.913599 0
M  V30 5758 C 676.74 1.94596 -0.545594 0
M  V30 5759 C 677.061 1.7227 0.913668 0
M  V30 5760 O 676.331 1.06233 1.64595 0
M  V30 5761 H 674.911 0.720065 -0.198783 0
M  V30 5762 H 677.573 1.56404 -1.16292 0
M  V30 5763 H 676.669 3.03202 -0.739911 0
M  V30 5764 N 676.97 0.677563 1.42291 0
M  V30 5765 C 678.216 0.201272 2.01799 0
M  V30 5766 C 678.549 -1.19004 1.53465 0
M  V30 5767 O 677.824 -1.79953 0.738039 0
M  V30 5768 C 678.107 0.238968 3.59306 0
M  V30 5769 C 677.96 1.66594 4.17812 0
M  V30 5770 C 679.279 -0.411287 4.38174 0
M  V30 5771 H 676.398 0.0746114 0.733214 0
M  V30 5772 H 679.04 0.862872 1.69276 0
M  V30 5773 H 677.19 -0.324368 3.87144 0
M  V30 5774 H 678.862 2.28173 4.00917 0
M  V30 5775 H 677.105 2.20576 3.73536 0
M  V30 5776 H 677.776 1.64398 5.26951 0
M  V30 5777 H 680.252 0.0682804 4.16044 0
M  V30 5778 H 679.128 -0.354286 5.47755 0
M  V30 5779 H 679.389 -1.4893 4.1626 0
M  V30 5780 N 678.448 -1.51871 0.421078 0
M  V30 5781 C 679.378 -2.30231 -0.389363 0
M  V30 5782 C 680.359 -1.34946 -1.03555 0
M  V30 5783 O 681.544 -1.63859 -1.04229 0
M  V30 5784 C 678.674 -3.13247 -1.49979 0
M  V30 5785 C 677.628 -4.16677 -0.977966 0
M  V30 5786 C 676.954 -4.88112 -2.1829 0
M  V30 5787 C 678.254 -5.22295 -0.0236775 0
M  V30 5788 H 679.948 -2.98229 0.264524 0
M  V30 5789 H 677.494 -1.43424 0.12866 0
M  V30 5790 H 679.447 -3.66838 -2.07383 0
M  V30 5791 H 678.171 -2.4304 -2.18173 0
M  V30 5792 H 676.83 -3.64114 -0.426245 0
M  V30 5793 H 676.478 -4.14423 -2.85066 0
M  V30 5794 H 676.178 -5.58041 -1.84021 0
M  V30 5795 H 677.702 -5.44521 -2.76278 0
M  V30 5796 H 679.116 -5.71055 -0.506899 0
M  V30 5797 H 677.513 -5.99656 0.230782 0
M  V30 5798 H 678.583 -4.76131 0.917999 0
M  V30 5799 N 679.926 -0.151884 -1.56866 0
M  V30 5800 C 681.174 0.497021 -1.95893 0
M  V30 5801 C 681.495 1.65078 -1.03799 0
M  V30 5802 O 680.765 1.95642 -0.10049 0
M  V30 5803 H 679.345 0.186603 -0.723318 0
M  V30 5804 H 682.007 -0.228525 -1.93556 0
M  V30 5805 H 681.103 0.869933 -2.99731 0
M  V30 5806 N 681.404 1.57128 0.121893 0
M  V30 5807 C 682.652 1.84335 0.828548 0
M  V30 5808 C 682.973 0.736632 1.80551 0
M  V30 5809 O 682.243 -0.23962 1.94429 0
M  V30 5810 H 680.823 0.680108 0.30897 0
M  V30 5811 H 683.485 1.9459 0.109906 0
M  V30 5812 H 682.581 2.80152 1.37554 0
M  V30 5813 N 682.882 -0.391992 1.52647 0
M  V30 5814 C 683.812 -1.48517 1.8018 0
M  V30 5815 C 684.793 -1.57039 0.653667 0
M  V30 5816 O 685.978 -1.72036 0.900962 0
M  V30 5817 C 683.108 -2.86161 1.96797 0
M  V30 5818 C 682.062 -2.92481 3.12472 0
M  V30 5819 C 681.388 -4.32546 3.14338 0
M  V30 5820 C 682.688 -2.624 4.51601 0
M  V30 5821 H 684.382 -1.25726 2.71723 0
M  V30 5822 H 681.928 -0.603387 1.30749 0
M  V30 5823 H 683.881 -3.62639 2.14641 0
M  V30 5824 H 682.605 -3.10283 1.01941 0
M  V30 5825 H 681.264 -2.18451 2.94406 0
M  V30 5826 H 680.912 -4.53703 2.1717 0
M  V30 5827 H 680.612 -4.37695 3.92042 0
M  V30 5828 H 682.136 -5.10934 3.34333 0
M  V30 5829 H 683.55 -3.28596 4.69785 0
M  V30 5830 H 681.947 -2.78903 5.3135 0
M  V30 5831 H 683.017 -1.57754 4.58521 0
M  V30 5832 N 684.36 -1.4356 -0.65026 0
M  V30 5833 C 685.606 -1.45549 -1.41221 0
M  V30 5834 C 685.939 -0.0805472 -1.94033 0
M  V30 5835 O 685.214 0.899043 -1.72475 0
M  V30 5836 C 685.497 -2.50028 -2.59148 0
M  V30 5837 C 685.35 -3.96808 -2.1181 0
M  V30 5838 C 686.669 -2.51212 -3.61359 0
M  V30 5839 H 683.788 -0.529967 -0.512156 0
M  V30 5840 H 686.43 -1.75127 -0.736933 0
M  V30 5841 H 684.58 -2.24937 -3.16758 0
M  V30 5842 H 686.252 -4.32966 -1.59178 0
M  V30 5843 H 684.495 -4.09498 -1.43156 0
M  V30 5844 H 685.166 -4.6553 -2.96625 0
M  V30 5845 H 687.642 -2.73583 -3.13515 0
M  V30 5846 H 686.518 -3.26252 -4.41419 0
M  V30 5847 H 686.779 -1.54701 -4.1415 0
M  V30 5848 N 685.838 0.888903 -1.30139 0
M  V30 5849 C 687.249 1.45578 -1.16893 0
M  V30 5850 C 687.6 1.94825 0.231866 0
M  V30 5851 O 686.725 1.84661 1.12824 0
M  V30 5852 C 687.32 2.646 -2.11595 0
M  V30 5853 C 685.879 3.17389 -2.02339 0
M  V30 5854 C 685.026 1.90081 -2.01902 0
M  V30 5855 H 687.977 0.69921 -1.42467 0
M  V30 5856 H 687.998 3.40687 -1.69449 0
M  V30 5857 H 687.51 2.28726 -3.13538 0
M  V30 5858 H 685.611 3.5793 -1.03523 0
M  V30 5859 H 685.724 3.80955 -2.90534 0
M  V30 5860 H 684.088 2.08246 -1.46648 0
M  V30 5861 H 684.871 1.5647 -3.05568 0
M  V30 5862 N 687.317 1.12792 1.10072 0
M  V30 5863 C 688.565 0.883796 1.81751 0
M  V30 5864 C 688.886 -0.591891 1.858 0
M  V30 5865 O 688.156 -1.43017 1.33876 0
M  V30 5866 H 686.736 0.323978 0.673088 0
M  V30 5867 H 689.398 1.42314 1.33164 0
M  V30 5868 H 688.494 1.26863 2.85153 0
M  V30 5869 N 688.795 -1.27931 0.920396 0
M  V30 5870 C 690.206 -1.76707 0.602616 0
M  V30 5871 C 690.557 -1.75249 -0.882159 0
M  V30 5872 O 689.682 -1.35135 -1.69019 0
M  V30 5873 C 690.277 -3.20884 1.08714 0
M  V30 5874 C 688.836 -3.67356 0.820157 0
M  V30 5875 C 687.983 -2.47525 1.25006 0
M  V30 5876 H 690.934 -1.14301 1.10095 0
M  V30 5877 H 690.955 -3.78045 0.431535 0
M  V30 5878 H 690.467 -3.21913 2.1678 0
M  V30 5879 H 688.568 -3.7178 -0.247012 0
M  V30 5880 H 688.681 -4.57181 1.43257 0
M  V30 5881 H 687.045 -2.45765 0.668698 0
M  V30 5882 H 687.828 -2.51269 2.3392 0
M  V30 5883 N 690.273 -0.685099 -1.4193 0
M  V30 5884 C 691.205 0.0258679 -2.29185 0
M  V30 5885 C 692.218 0.755076 -1.44231 0
M  V30 5886 O 693.407 0.60752 -1.67844 0
M  V30 5887 C 690.507 1.06055 -3.21878 0
M  V30 5888 C 689.68 0.403088 -4.35539 0
M  V30 5889 C 688.739 1.33895 -5.0888 0
M  V30 5890 O 687.765 0.835326 -5.63037 0
M  V30 5891 N 688.967 2.6718 -5.15359 0
M  V30 5892 H 691.732 -0.723201 -2.90843 0
M  V30 5893 H 689.293 -0.53031 -1.52968 0
M  V30 5894 H 691.285 1.68813 -3.6781 0
M  V30 5895 H 689.855 1.71126 -2.616 0
M  V30 5896 H 689.075 -0.404185 -3.92122 0
M  V30 5897 H 690.363 -0.0545098 -5.08771 0
M  V30 5898 H 689.761 3.10626 -4.72788 0
M  V30 5899 H 688.318 3.25159 -5.64903 0
M  V30 5900 N 691.751 1.51645 -0.429126 0
M  V30 5901 C 692.714 2.26116 0.374726 0
M  V30 5902 C 693.714 1.29242 0.956714 0
M  V30 5903 O 694.904 1.53022 0.832452 0
M  V30 5904 C 692.036 3.04669 1.52937 0
M  V30 5905 H 693.229 2.9861 -0.277818 0
M  V30 5906 H 690.782 1.55236 -0.182097 0
M  V30 5907 H 691.517 2.36571 2.21821 0
M  V30 5908 H 691.302 3.75814 1.11833 0
M  V30 5909 H 692.792 3.61102 2.09751 0
M  V30 5910 N 693.229 0.160201 1.56784 0
M  V30 5911 C 694.192 -0.760405 2.16219 0
M  V30 5912 C 695.192 -1.16595 1.10735 0
M  V30 5913 O 696.382 -1.08472 1.36306 0
M  V30 5914 C 693.514 -2.03358 2.73603 0
M  V30 5915 H 694.707 -0.243173 2.98912 0
M  V30 5916 H 692.26 -0.0893139 1.56045 0
M  V30 5917 H 692.995 -2.59416 1.94612 0
M  V30 5918 H 692.78 -1.75186 3.50788 0
M  V30 5919 H 694.27 -2.69081 3.19351 0
M  V30 5920 N 694.707 -1.5719 -0.113559 0
M  V30 5921 C 695.953 -1.85412 -0.821597 0
M  V30 5922 C 696.286 -0.746722 -1.7927 0
M  V30 5923 O 695.561 0.246971 -1.92926 0
M  V30 5924 C 695.844 -3.24233 -1.56669 0
M  V30 5925 C 695.697 -4.45578 -0.614823 0
M  V30 5926 C 697.016 -3.60697 -2.52161 0
M  V30 5927 H 694.135 -0.674406 -0.29723 0
M  V30 5928 H 696.777 -1.89807 -0.085694 0
M  V30 5929 H 694.927 -3.20617 -2.19401 0
M  V30 5930 H 696.599 -4.613 0.00407137 0
M  V30 5931 H 694.842 -4.33738 0.0732332 0
M  V30 5932 H 695.513 -5.39395 -1.17292 0
M  V30 5933 H 697.989 -3.65139 -1.99532 0
M  V30 5934 H 696.865 -4.58798 -3.01323 0
M  V30 5935 H 697.126 -2.88403 -3.35076 0
M  V30 5936 N 696.185 0.383891 -1.52853 0
M  V30 5937 C 697.596 0.961591 -1.60032 0
M  V30 5938 C 697.947 1.90819 -0.456333 0
M  V30 5939 O 697.072 2.12288 0.419873 0
M  V30 5940 C 697.667 1.75078 -2.90057 0
M  V30 5941 C 696.226 2.2781 -2.99632 0
M  V30 5942 C 695.373 1.08512 -2.55187 0
M  V30 5943 H 698.324 0.163269 -1.57858 0
M  V30 5944 H 698.345 2.61046 -2.7683 0
M  V30 5945 H 697.857 1.06157 -3.73299 0
M  V30 5946 H 695.958 3.00028 -2.20939 0
M  V30 5947 H 696.071 2.56947 -4.0437 0
M  V30 5948 H 694.435 1.44667 -2.09627 0
M  V30 5949 H 695.218 0.41118 -3.40829 0
M  V30 5950 N 697.663 1.43903 0.642637 0
M  V30 5951 C 698.911 1.45791 1.39962 0
M  V30 5952 C 699.232 0.0873144 1.94804 0
M  V30 5953 O 698.502 -0.878825 1.75081 0
M  V30 5954 H 697.082 0.536797 0.519479 0
M  V30 5955 H 699.744 1.7959 0.757189 0
M  V30 5956 H 698.84 2.17665 2.2367 0
M  V30 5957 N 699.141 -0.881989 1.30609 0
M  V30 5958 C 700.387 -1.63647 1.19781 0
M  V30 5959 C 700.72 -1.92632 -0.246265 0
M  V30 5960 O 699.995 -1.54938 -1.17577 0
M  V30 5961 C 700.278 -2.97437 2.02985 0
M  V30 5962 C 700.131 -2.75406 3.55628 0
M  V30 5963 C 701.45 -3.98397 1.86997 0
M  V30 5964 H 698.569 -0.593841 0.436488 0
M  V30 5965 H 701.211 -1.02041 1.60273 0
M  V30 5966 H 699.361 -3.50018 1.68581 0
M  V30 5967 H 701.033 -2.2959 4.00107 0
M  V30 5968 H 699.276 -2.09856 3.79662 0
M  V30 5969 H 699.947 -3.70552 4.09139 0
M  V30 5970 H 702.423 -3.54986 2.17081 0
M  V30 5971 H 701.299 -4.89916 2.47536 0
M  V30 5972 H 701.56 -4.3424 0.829943 0
M  V30 5973 N 700.619 -1.13374 -1.09472 0
M  V30 5974 C 702.03 -0.90801 -1.63132 0
M  V30 5975 C 702.381 0.555576 -1.8817 0
M  V30 5976 O 701.506 1.42218 -1.63104 0
M  V30 5977 C 702.101 -1.64182 -2.96361 0
M  V30 5978 C 700.66 -1.46197 -3.46848 0
M  V30 5979 C 699.807 -1.67134 -2.21273 0
M  V30 5980 H 702.758 -1.2871 -0.928411 0
M  V30 5981 H 702.779 -1.09863 -3.64294 0
M  V30 5982 H 702.291 -2.707 -2.78106 0
M  V30 5983 H 700.392 -0.419788 -3.70228 0
M  V30 5984 H 700.505 -2.22472 -4.24315 0
M  V30 5985 H 698.869 -1.09616 -2.29905 0
M  V30 5986 H 699.652 -2.74971 -2.05538 0
M  V30 5987 N 702.098 1.27442 -0.927168 0
M  V30 5988 C 703.346 1.94007 -0.566203 0
M  V30 5989 C 703.667 1.7323 0.895345 0
M  V30 5990 O 702.937 1.07973 1.63459 0
M  V30 5991 H 701.517 0.717917 -0.206409 0
M  V30 5992 H 704.179 1.55161 -1.17945 0
M  V30 5993 H 703.275 3.02401 -0.772028 0
M  V30 5994 N 703.576 0.692616 1.41565 0
M  V30 5995 C 704.804 0.231279 2.05603 0
M  V30 5996 C 705.219 -1.11837 1.52111 0
M  V30 5997 O 704.576 -1.6983 0.66813 0
M  V30 5998 C 704.627 0.177125 3.61066 0
M  V30 5999 O 704.348 1.47346 4.12578 0
M  V30 6000 C 705.849 -0.30556 4.42246 0
M  V30 6001 H 703.069 0.108238 0.662213 0
M  V30 6002 H 705.613 0.944369 1.81389 0
M  V30 6003 H 703.768 -0.486769 3.8433 0
M  V30 6004 H 704.182 1.35861 5.06599 0
M  V30 6005 H 705.656 -0.29233 5.51225 0
M  V30 6006 H 706.133 -1.34393 4.18133 0
M  V30 6007 H 706.739 0.327229 4.24039 0
M  V30 6008 N 705.054 -1.51416 0.437162 0
M  V30 6009 C 706.302 -2.01687 -0.129108 0
M  V30 6010 C 706.623 -1.32329 -1.43227 0
M  V30 6011 O 705.893 -0.457796 -1.90476 0
M  V30 6012 H 704.473 -0.745277 -0.0507023 0
M  V30 6013 H 707.135 -1.86075 0.579828 0
M  V30 6014 H 706.231 -3.10605 -0.305141 0
M  V30 6015 N 706.532 -0.168513 -1.56696 0
M  V30 6016 C 707.78 0.476216 -1.96409 0
M  V30 6017 C 708.101 1.63968 -1.05544 0
M  V30 6018 O 707.371 1.95525 -0.121235 0
M  V30 6019 H 705.951 0.178921 -0.725256 0
M  V30 6020 H 708.613 -0.249042 -1.93302 0
M  V30 6021 H 707.709 0.838094 -3.00637 0
M  V30 6022 N 708.01 1.57248 0.105221 0
M  V30 6023 C 709.256 1.85845 0.811753 0
M  V30 6024 C 709.589 0.756219 1.78871 0
M  V30 6025 O 708.864 -0.236736 1.93054 0
M  V30 6026 C 709.147 3.25059 1.54947 0
M  V30 6027 C 709 4.45898 0.591185 0
M  V30 6028 C 710.319 3.6203 2.50245 0
M  V30 6029 H 707.438 0.675973 0.293649 0
M  V30 6030 H 710.08 1.89849 0.0756269 0
M  V30 6031 H 708.23 3.21776 2.17698 0
M  V30 6032 H 709.902 4.61291 -0.0285352 0
M  V30 6033 H 708.145 4.33693 -0.0962343 0
M  V30 6034 H 708.816 5.40009 1.1443 0
M  V30 6035 H 711.292 3.66192 1.97593 0
M  V30 6036 H 710.168 4.60389 2.98886 0
M  V30 6037 H 710.429 2.90176 3.33542 0
M  V30 6038 N 709.488 -0.375779 1.53054 0
M  V30 6039 C 710.899 -0.95309 1.6054 0
M  V30 6040 C 711.25 -1.90575 0.466446 0
M  V30 6041 O 710.375 -2.12507 -0.408609 0
M  V30 6042 C 710.97 -1.73537 2.90982 0
M  V30 6043 C 709.529 -2.26218 3.00836 0
M  V30 6044 C 708.676 -1.07157 2.55759 0
M  V30 6045 H 711.627 -0.154895 1.57942 0
M  V30 6046 H 711.648 -2.59574 2.78211 0
M  V30 6047 H 711.16 -1.04176 3.73857 0
M  V30 6048 H 709.261 -2.98852 2.22527 0
M  V30 6049 H 709.374 -2.54799 4.05727 0
M  V30 6050 H 707.738 -1.43553 2.10391 0
M  V30 6051 H 708.521 -0.393099 3.41042 0
M  V30 6052 N 710.966 -1.44241 -0.634997 0
M  V30 6053 C 712.214 -1.46531 -1.39187 0
M  V30 6054 C 712.535 -0.0976441 -1.94755 0
M  V30 6055 O 711.805 0.869528 -1.75545 0
M  V30 6056 H 710.385 -0.539544 -0.516625 0
M  V30 6057 H 713.047 -1.79989 -0.747655 0
M  V30 6058 H 712.143 -2.18848 -2.22513 0
M  V30 6059 N 712.444 0.87505 -1.31075 0
M  V30 6060 C 713.69 1.63009 -1.20647 0
M  V30 6061 C 714.023 1.9276 0.236045 0
M  V30 6062 O 713.298 1.55559 1.16754 0
M  V30 6063 C 713.581 2.96357 -2.0456 0
M  V30 6064 C 713.434 2.73516 -3.57084 0
M  V30 6065 C 714.753 3.974 -1.89107 0
M  V30 6066 H 711.872 0.591518 -0.439631 0
M  V30 6067 H 714.514 1.0119 -1.60812 0
M  V30 6068 H 712.664 3.49119 -1.70435 0
M  V30 6069 H 714.336 2.27465 -4.01319 0
M  V30 6070 H 712.579 2.0784 -3.80769 0
M  V30 6071 H 713.25 3.68377 -4.11099 0
M  V30 6072 H 715.726 3.5383 -2.18961 0
M  V30 6073 H 714.602 4.88596 -2.5013 0
M  V30 6074 H 714.863 4.33794 -0.85296 0
M  V30 6075 N 713.922 1.13953 1.08869 0
M  V30 6076 C 715.17 0.903023 1.80803 0
M  V30 6077 C 715.491 -0.572151 1.86417 0
M  V30 6078 O 714.761 -1.41589 1.35386 0
M  V30 6079 H 713.341 0.331099 0.669614 0
M  V30 6080 H 716.003 1.43719 1.31647 0
M  V30 6081 H 715.099 1.29881 2.83791 0
M  V30 6082 N 715.4 -1.26948 0.933913 0
M  V30 6083 C 716.628 -1.98186 0.59414 0
M  V30 6084 C 717.043 -1.69614 -0.829257 0
M  V30 6085 O 716.4 -0.960213 -1.55197 0
M  V30 6086 C 716.451 -3.52123 0.818026 0
M  V30 6087 O 716.172 -3.79698 2.18543 0
M  V30 6088 C 717.673 -4.40608 0.48781 0
M  V30 6089 H 714.893 -0.632305 0.224569 0
M  V30 6090 H 717.437 -1.61646 1.25263 0
M  V30 6091 H 715.592 -3.86851 0.206246 0
M  V30 6092 H 716.006 -4.7426 2.24005 0
M  V30 6093 H 717.48 -5.47606 0.695126 0
M  V30 6094 H 717.957 -4.35394 -0.576913 0
M  V30 6095 H 718.563 -4.11411 1.078 0
M  V30 6096 N 716.879 -0.700114 -1.41195 0
M  V30 6097 C 718.29 -0.307249 -1.84154 0
M  V30 6098 C 718.641 1.15539 -1.58572 0
M  V30 6099 O 717.766 1.88744 -1.05852 0
M  V30 6100 C 718.361 -0.550872 -3.34292 0
M  V30 6101 C 716.92 -0.211877 -3.75803 0
M  V30 6102 C 716.067 -0.830915 -2.64558 0
M  V30 6103 H 719.018 -0.900431 -1.30683 0
M  V30 6104 H 719.039 0.188954 -3.80031 0
M  V30 6105 H 718.551 -1.61548 -3.5288 0
M  V30 6106 H 716.652 0.848283 -3.62815 0
M  V30 6107 H 716.765 -0.67007 -4.74391 0
M  V30 6108 H 715.129 -0.260155 -2.53368 0
M  V30 6109 H 715.912 -1.89948 -2.85963 0
M  V30 6110 N 718.357 1.51182 -0.445186 0
M  V30 6111 C 719.32 2.26501 0.350722 0
M  V30 6112 C 720.32 1.3025 0.942952 0
M  V30 6113 O 721.51 1.53897 0.816175 0
M  V30 6114 C 718.642 3.06274 1.49697 0
M  V30 6115 H 719.835 2.98299 -0.309474 0
M  V30 6116 H 717.388 1.55034 -0.198551 0
M  V30 6117 H 718.123 2.38911 2.19299 0
M  V30 6118 H 717.908 3.76979 1.0784 0
M  V30 6119 H 719.398 3.63306 2.05909 0
M  V30 6120 N 719.835 0.176821 1.56605 0
M  V30 6121 C 720.798 -0.737429 2.17013 0
M  V30 6122 C 721.798 -1.15414 1.11965 0
M  V30 6123 O 722.988 -1.0702 1.37449 0
M  V30 6124 C 720.12 -2.00445 2.75744 0
M  V30 6125 H 721.313 -0.211455 2.99154 0
M  V30 6126 H 718.866 -0.0727582 1.56131 0
M  V30 6127 H 719.601 -2.57338 1.97352 0
M  V30 6128 H 719.386 -1.71456 3.52626 0
M  V30 6129 H 720.876 -2.65679 3.22187 0
M  V30 6130 N 721.313 -1.57302 -0.09688 0
M  V30 6131 C 722.276 -2.00976 -1.10188 0
M  V30 6132 C 723.276 -0.903009 -1.3305 0
M  V30 6133 O 724.466 -1.16853 -1.29194 0
M  V30 6134 C 721.598 -2.36893 -2.45142 0
M  V30 6135 H 722.791 -2.9098 -0.726003 0
M  V30 6136 H 720.344 -1.52515 -0.341872 0
M  V30 6137 H 721.079 -1.49837 -2.8761 0
M  V30 6138 H 720.864 -3.17632 -2.29897 0
M  V30 6139 H 722.354 -2.71345 -3.1743 0
M  V30 6140 N 722.791 0.367657 -1.53252 0
M  V30 6141 C 723.754 1.43308 -1.78873 0
M  V30 6142 C 724.754 1.46671 -0.659115 0
M  V30 6143 O 725.944 1.47468 -0.927306 0
M  V30 6144 C 723.076 2.82442 -1.90892 0
M  V30 6145 H 724.269 1.21864 -2.74024 0
M  V30 6146 H 721.822 0.600668 -1.44297 0
M  V30 6147 H 722.557 3.09202 -0.978 0
M  V30 6148 H 722.342 2.81399 -2.73051 0
M  V30 6149 H 723.832 3.59601 -2.12314 0
M  V30 6150 N 724.269 1.44576 0.627338 0
M  V30 6151 C 725.232 1.51372 1.72102 0
M  V30 6152 C 726.232 0.395329 1.55865 0
M  V30 6153 O 727.422 0.658094 1.61291 0
M  V30 6154 C 724.554 1.39129 3.11217 0
M  V30 6155 H 725.747 2.48798 1.6745 0
M  V30 6156 H 723.3 1.31724 0.841336 0
M  V30 6157 H 724.035 0.428114 3.21462 0
M  V30 6158 H 723.82 2.20229 3.24409 0
M  V30 6159 H 725.31 1.46874 3.90919 0
M  V30 6160 N 725.747 -0.868086 1.31537 0
M  V30 6161 C 726.694 -1.97548 1.19346 0
M  V30 6162 C 727.664 -1.65913 0.0787922 0
M  V30 6163 O 728.849 -1.89129 0.251985 0
M  V30 6164 C 725.989 -3.32922 0.908692 0
M  V30 6165 C 725.102 -3.77141 2.10687 0
M  V30 6166 C 724.237 -5.01241 1.75873 0
M  V30 6167 C 723.276 -5.37914 2.92088 0
M  V30 6168 N 722.413 -6.53192 2.57457 0
M  V30 6169 H 727.253 -2.07307 2.14074 0
M  V30 6170 H 724.79 -1.01483 1.06487 0
M  V30 6171 H 726.748 -4.10867 0.724138 0
M  V30 6172 H 725.378 -3.228 -0.0017611 0
M  V30 6173 H 724.43 -2.94961 2.40213 0
M  V30 6174 H 725.742 -4.00248 2.97663 0
M  V30 6175 H 724.896 -5.86858 1.53891 0
M  V30 6176 H 723.635 -4.80041 0.86091 0
M  V30 6177 H 722.64 -4.50814 3.14717 0
M  V30 6178 H 723.865 -5.61077 3.82582 0
M  V30 6179 H 721.811 -6.33536 1.702 0
M  V30 6180 H 721.728 -6.76252 3.37963 0
M  V30 6181 H 722.996 -7.41997 2.38873 0
M  V30 6182 N 727.225 -1.14528 -1.08264 0
M  V30 6183 C 728.188 -0.83632 -2.13397 0
M  V30 6184 C 729.188 0.159715 -1.60005 0
M  V30 6185 O 730.378 -0.0688098 -1.74064 0
M  V30 6186 C 727.51 -0.246973 -3.40004 0
M  V30 6187 H 728.703 -1.76808 -2.42237 0
M  V30 6188 H 726.256 -0.951509 -1.24 0
M  V30 6189 H 726.991 0.693436 -3.168 0
M  V30 6190 H 726.776 -0.964412 -3.80055 0
M  V30 6191 H 728.266 -0.0480679 -4.17572 0
M  V30 6192 N 728.703 1.26451 -0.940633 0
M  V30 6193 C 729.666 2.24651 -0.454378 0
M  V30 6194 C 730.666 1.54826 0.434222 0
M  V30 6195 O 731.856 1.72628 0.233477 0
M  V30 6196 C 728.988 3.39148 0.345192 0
M  V30 6197 H 730.181 2.69182 -1.32217 0
M  V30 6198 H 727.734 1.38596 -0.722547 0
M  V30 6199 H 728.469 3.00018 1.23125 0
M  V30 6200 H 728.254 3.9101 -0.292107 0
M  V30 6201 H 729.744 4.12103 0.675341 0
M  V30 6202 N 730.181 0.707592 1.40822 0
M  V30 6203 C 731.144 0.0587224 2.29125 0
M  V30 6204 C 732.144 -0.695624 1.44975 0
M  V30 6205 O 733.334 -0.528718 1.65983 0
M  V30 6206 C 730.466 -0.926939 3.28056 0
M  V30 6207 H 731.659 0.836349 2.88002 0
M  V30 6208 H 729.212 0.471778 1.4901 0
M  V30 6209 H 729.947 -1.7319 2.74182 0
M  V30 6210 H 729.732 -0.389015 3.90165 0
M  V30 6211 H 731.222 -1.37837 3.94196 0
M  V30 6212 N 731.66 -1.50943 0.453197 0
M  V30 6213 C 732.607 -2.28128 -0.350197 0
M  V30 6214 C 733.577 -1.32398 -1.00299 0
M  V30 6215 O 734.762 -1.61319 -1.01887 0
M  V30 6216 C 731.902 -3.13782 -1.43649 0
M  V30 6217 C 731.015 -4.24523 -0.800255 0
M  V30 6218 C 730.15 -4.97462 -1.86293 0
M  V30 6219 C 729.189 -6.00102 -1.20598 0
M  V30 6220 N 728.326 -6.66387 -2.21071 0
M  V30 6221 H 733.166 -2.96337 0.31434 0
M  V30 6222 H 730.703 -1.46151 0.166863 0
M  V30 6223 H 732.661 -3.6178 -2.07776 0
M  V30 6224 H 731.291 -2.47655 -2.07044 0
M  V30 6225 H 730.343 -3.80371 -0.0468651 0
M  V30 6226 H 731.655 -4.98009 -0.280777 0
M  V30 6227 H 730.809 -5.49088 -2.58044 0
M  V30 6228 H 729.548 -4.23642 -2.41617 0
M  V30 6229 H 728.553 -5.47753 -0.474 0
M  V30 6230 H 729.778 -6.75887 -0.659859 0
M  V30 6231 H 727.724 -5.9537 -2.75446 0
M  V30 6232 H 727.641 -7.3569 -1.74058 0
M  V30 6233 H 728.909 -7.22638 -2.92257 0
M  V30 6234 N 733.138 -0.185124 -1.56509 0
M  V30 6235 C 734.101 0.72591 -2.17401 0
M  V30 6236 C 735.101 1.14819 -1.12575 0
M  V30 6237 O 736.291 1.0629 -1.38015 0
M  V30 6238 C 733.423 1.98979 -2.76803 0
M  V30 6239 H 734.616 0.195588 -2.99262 0
M  V30 6240 H 732.169 0.0644772 -1.56167 0
M  V30 6241 H 732.904 2.56287 -1.98714 0
M  V30 6242 H 732.689 1.69583 -3.53531 0
M  V30 6243 H 734.179 2.63966 -3.23592 0
M  V30 6244 N 734.616 1.57351 0.0885366 0
M  V30 6245 C 735.579 2.01557 1.09121 0
M  V30 6246 C 736.579 0.910052 1.3257 0
M  V30 6247 O 737.769 1.17537 1.28572 0
M  V30 6248 C 734.901 2.38189 2.43883 0
M  V30 6249 H 736.094 2.91361 0.710562 0
M  V30 6250 H 733.647 1.52694 0.333779 0
M  V30 6251 H 734.382 1.5136 2.86811 0
M  V30 6252 H 734.167 3.18846 2.28209 0
M  V30 6253 H 735.657 2.73025 3.15986 0
M  V30 6254 N 736.094 -0.359525 1.53444 0
M  V30 6255 C 737.026 -1.46098 1.76602 0
M  V30 6256 C 738.039 -1.49395 0.646912 0
M  V30 6257 O 739.228 -1.52765 0.923307 0
M  V30 6258 C 736.328 -2.84836 1.83635 0
M  V30 6259 C 735.501 -3.05164 3.13358 0
M  V30 6260 C 734.56 -4.24051 3.11556 0
M  V30 6261 O 733.586 -4.18935 3.85334 0
M  V30 6262 N 734.788 -5.31775 2.328 0
M  V30 6263 H 737.553 -1.2661 2.71643 0
M  V30 6264 H 735.114 -0.549294 1.52297 0
M  V30 6265 H 737.106 -3.62516 1.799 0
M  V30 6266 H 735.676 -2.97542 0.958509 0
M  V30 6267 H 734.896 -2.15091 3.30348 0
M  V30 6268 H 736.184 -3.15619 3.99076 0
M  V30 6269 H 735.582 -5.38796 1.7238 0
M  V30 6270 H 734.139 -6.0801 2.34877 0
M  V30 6271 N 737.572 -1.44907 -0.619662 0
M  V30 6272 C 738.819 -1.48292 -1.37898 0
M  V30 6273 C 739.147 -0.119933 -1.9413 0
M  V30 6274 O 738.402 0.879834 -1.74807 0
M  V30 6275 C 738.701 -2.50002 -2.55409 0
M  V30 6276 C 738.367 -3.95031 -2.17397 0
M  V30 6277 C 737.029 -4.34524 -2.06743 0
M  V30 6278 C 739.381 -4.86287 -1.87548 0
M  V30 6279 C 736.709 -5.63183 -1.64445 0
M  V30 6280 C 739.061 -6.15346 -1.4674 0
M  V30 6281 C 737.725 -6.53781 -1.34636 0
M  V30 6282 H 736.995 -0.542638 -0.504603 0
M  V30 6283 H 739.642 -1.78186 -0.701581 0
M  V30 6284 H 737.947 -2.13634 -3.28433 0
M  V30 6285 H 739.644 -2.49864 -3.13639 0
M  V30 6286 H 736.234 -3.63793 -2.26611 0
M  V30 6287 H 740.418 -4.56522 -1.94682 0
M  V30 6288 H 735.674 -5.91769 -1.53687 0
M  V30 6289 H 739.848 -6.85508 -1.22685 0
M  V30 6290 H 737.475 -7.53375 -1.01634 0
M  V30 6291 N 739.05 0.861098 -1.31996 0
M  V30 6292 C 740.298 1.61162 -1.21947 0
M  V30 6293 C 740.619 1.93751 0.220351 0
M  V30 6294 O 739.889 1.59069 1.14341 0
M  V30 6295 H 738.469 0.597485 -0.448353 0
M  V30 6296 H 741.131 1.03039 -1.65436 0
M  V30 6297 H 740.227 2.55138 -1.79752 0
M  V30 6298 N 740.528 1.15101 1.07655 0
M  V30 6299 C 741.458 0.867864 2.16773 0
M  V30 6300 C 742.439 -0.180283 1.69142 0
M  V30 6301 O 743.624 -0.0353152 1.94168 0
M  V30 6302 C 740.754 0.35299 3.45501 0
M  V30 6303 C 739.708 1.33746 4.06566 0
M  V30 6304 C 739.034 0.681562 5.30338 0
M  V30 6305 C 740.334 2.7024 4.46954 0
M  V30 6306 H 742.028 1.78034 2.40716 0
M  V30 6307 H 739.574 0.857435 1.15689 0
M  V30 6308 H 741.527 0.142465 4.21159 0
M  V30 6309 H 740.251 -0.594945 3.21135 0
M  V30 6310 H 738.91 1.53429 3.32949 0
M  V30 6311 H 738.558 -0.272422 5.02262 0
M  V30 6312 H 738.258 1.33853 5.72151 0
M  V30 6313 H 739.782 0.48074 6.08705 0
M  V30 6314 H 741.196 2.5442 5.13754 0
M  V30 6315 H 739.593 3.32282 4.99709 0
M  V30 6316 H 740.663 3.26537 3.58471 0
M  V30 6317 N 742.006 -1.2595 0.947325 0
M  V30 6318 C 743.252 -1.9375 0.599064 0
M  V30 6319 C 743.585 -1.74088 -0.860632 0
M  V30 6320 O 742.86 -1.08158 -1.61654 0
M  V30 6321 C 743.143 -3.47353 0.949634 0
M  V30 6322 C 742.996 -3.76273 2.46452 0
M  V30 6323 C 744.315 -4.37589 0.469442 0
M  V30 6324 H 741.434 -0.703674 0.219115 0
M  V30 6325 H 744.076 -1.48705 1.18266 0
M  V30 6326 H 742.226 -3.8585 0.453008 0
M  V30 6327 H 743.898 -3.47455 3.03435 0
M  V30 6328 H 742.141 -3.22135 2.90537 0
M  V30 6329 H 742.812 -4.83664 2.66032 0
M  V30 6330 H 745.288 -4.06353 0.89534 0
M  V30 6331 H 744.164 -5.43841 0.7435 0
M  V30 6332 H 744.425 -4.37579 -0.630618 0
M  V30 6333 N 743.484 -0.715051 -1.40445 0
M  V30 6334 C 744.895 -0.326763 -1.83818 0
M  V30 6335 C 745.246 1.13851 -1.59789 0
M  V30 6336 O 744.371 1.87611 -1.07848 0
M  V30 6337 C 744.966 -0.586297 -3.33688 0
M  V30 6338 C 743.525 -0.251724 -3.75557 0
M  V30 6339 C 742.672 -0.858928 -2.63662 0
M  V30 6340 H 745.623 -0.914241 -1.2972 0
M  V30 6341 H 745.644 0.148636 -3.8021 0
M  V30 6342 H 745.156 -1.65281 -3.51146 0
M  V30 6343 H 743.257 0.809754 -3.63695 0
M  V30 6344 H 743.37 -0.720348 -4.73654 0
M  V30 6345 H 741.734 -0.287013 -2.53078 0
M  V30 6346 H 742.517 -1.9297 -2.83932 0
M  V30 6347 N 744.962 1.50701 -0.461195 0
M  V30 6348 C 746.21 2.01867 0.0970051 0
M  V30 6349 C 746.531 1.34591 1.41104 0
M  V30 6350 O 745.801 0.488041 1.89723 0
M  V30 6351 H 744.381 0.74599 0.0388392 0
M  V30 6352 H 747.043 1.85129 -0.609357 0
M  V30 6353 H 746.139 3.11051 0.255688 0
M  V30 6354 N 746.441 0.193421 1.56409 0
M  V30 6355 C 747.687 -0.446449 1.97825 0
M  V30 6356 C 748.02 -1.61386 1.08019 0
M  V30 6357 O 747.295 -1.94053 0.131839 0
M  V30 6358 C 747.578 -0.908199 3.48459 0
M  V30 6359 C 747.431 0.260914 4.49043 0
M  V30 6360 C 748.75 -1.77428 4.0275 0
M  V30 6361 H 745.869 -0.160807 0.719243 0
M  V30 6362 H 748.511 0.284006 1.87865 0
M  V30 6363 H 746.661 -1.53062 3.57077 0
M  V30 6364 H 748.333 0.898548 4.52464 0
M  V30 6365 H 746.576 0.912949 4.24085 0
M  V30 6366 H 747.247 -0.104657 5.51901 0
M  V30 6367 H 749.723 -1.24936 3.96901 0
M  V30 6368 H 748.599 -2.06633 5.08521 0
M  V30 6369 H 748.86 -2.72788 3.47907 0
M  V30 6370 N 747.919 -1.57396 -0.0801906 0
M  V30 6371 C 749.167 -1.86467 -0.779384 0
M  V30 6372 C 749.488 -0.784243 -1.78535 0
M  V30 6373 O 748.758 0.187986 -1.94996 0
M  V30 6374 H 747.338 -0.68806 -0.29083 0
M  V30 6375 H 750 -1.94813 -0.0582749 0
M  V30 6376 H 749.096 -2.83701 -1.30078 0
M  V30 6377 N 749.397 0.351382 -1.53633 0
M  V30 6378 C 750.643 1.09411 -1.70754 0
M  V30 6379 C 750.976 1.88544 -0.465293 0
M  V30 6380 O 750.251 1.86923 0.537608 0
M  V30 6381 C 750.534 2.04173 -2.96623 0
M  V30 6382 C 750.387 1.28556 -4.31038 0
M  V30 6383 C 751.706 3.04102 -3.18136 0
M  V30 6384 H 748.825 0.396373 -0.621335 0
M  V30 6385 H 751.467 0.373464 -1.86293 0
M  V30 6386 H 749.617 2.65625 -2.83506 0
M  V30 6387 H 751.289 0.697786 -4.55992 0
M  V30 6388 H 749.532 0.587498 -4.29803 0
M  V30 6389 H 750.203 1.97989 -5.15271 0
M  V30 6390 H 752.679 2.5276 -3.30532 0
M  V30 6391 H 751.555 3.67616 -4.07615 0
M  V30 6392 H 751.816 3.75053 -2.34068 0
M  V30 6393 N 750.875 1.45233 0.611969 0
M  V30 6394 C 751.838 1.53189 1.70487 0
M  V30 6395 C 752.838 0.411839 1.55437 0
M  V30 6396 O 754.028 0.675164 1.60584 0
M  V30 6397 C 751.16 1.42422 3.09723 0
M  V30 6398 H 752.353 2.5056 1.64802 0
M  V30 6399 H 749.906 1.32609 0.827318 0
M  V30 6400 H 750.641 0.462185 3.2099 0
M  V30 6401 H 750.426 2.23658 3.22055 0
M  V30 6402 H 751.916 1.51012 3.89339 0
M  V30 6403 N 752.353 -0.854086 1.3245 0
M  V30 6404 C 753.764 -1.42427 1.20712 0
M  V30 6405 C 754.115 -1.95371 -0.18013 0
M  V30 6406 O 753.24 -1.87587 -1.07889 0
M  V30 6407 C 753.835 -2.58897 2.18536 0
M  V30 6408 C 752.394 -3.11913 2.10683 0
M  V30 6409 C 751.541 -1.84661 2.06871 0
M  V30 6410 H 754.492 -0.661192 1.4427 0
M  V30 6411 H 754.513 -3.36074 1.78422 0
M  V30 6412 H 754.025 -2.20333 3.19492 0
M  V30 6413 H 752.126 -3.55059 1.12977 0
M  V30 6414 H 752.239 -3.73119 3.00532 0
M  V30 6415 H 750.603 -2.04285 1.52118 0
M  V30 6416 H 751.386 -1.48314 3.09609 0
M  V30 6417 N 753.831 -1.1567 -1.07043 0
M  V30 6418 C 755.079 -0.931673 -1.79344 0
M  V30 6419 C 755.4 0.542421 -1.87304 0
M  V30 6420 O 754.67 1.39418 -1.37621 0
M  V30 6421 H 753.25 -0.34171 -0.664262 0
M  V30 6422 H 755.912 -1.45795 -1.29344 0
M  V30 6423 H 755.008 -1.34379 -2.81689 0
M  V30 6424 N 755.309 1.25446 -0.953992 0
M  V30 6425 C 756.555 1.9343 -0.60933 0
M  V30 6426 C 756.888 1.74542 0.851388 0
M  V30 6427 O 756.163 1.09014 1.61078 0
M  V30 6428 C 756.446 3.46844 -0.968041 0
M  V30 6429 C 756.299 3.74961 -2.48444 0
M  V30 6430 C 757.618 4.37334 -0.492641 0
M  V30 6431 H 754.737 0.702502 -0.222844 0
M  V30 6432 H 757.379 1.48076 -1.19053 0
M  V30 6433 H 755.529 3.85604 -0.473465 0
M  V30 6434 H 757.201 3.45841 -3.05273 0
M  V30 6435 H 755.444 3.20589 -2.92241 0
M  V30 6436 H 756.115 4.82246 -2.68594 0
M  V30 6437 H 758.591 4.05873 -0.916878 0
M  V30 6438 H 757.467 5.43439 -0.772331 0
M  V30 6439 H 757.728 4.37908 0.607403 0
M  V30 6440 N 756.787 0.722489 1.40064 0
M  V30 6441 C 758.035 0.264455 2.00362 0
M  V30 6442 C 758.356 -1.14847 1.57592 0
M  V30 6443 O 757.626 -1.77982 0.818477 0
M  V30 6444 H 756.206 0.0947846 0.740962 0
M  V30 6445 H 758.868 0.929659 1.71299 0
M  V30 6446 H 757.964 0.302977 3.10626 0
M  V30 6447 N 758.265 -1.50454 0.469181 0
M  V30 6448 C 759.511 -2.02615 -0.0865971 0
M  V30 6449 C 759.844 -1.35062 -1.39542 0
M  V30 6450 O 759.119 -0.475701 -1.88593 0
M  V30 6451 C 759.402 -3.59068 -0.272385 0
M  V30 6452 C 759.255 -4.37196 1.05733 0
M  V30 6453 C 760.574 -4.2793 -1.0278 0
M  V30 6454 H 757.693 -0.736389 -0.0299977 0
M  V30 6455 H 760.335 -1.79792 0.614399 0
M  V30 6456 H 758.485 -3.78646 -0.869471 0
M  V30 6457 H 760.157 -4.29195 1.69084 0
M  V30 6458 H 758.4 -4.01013 1.65442 0
M  V30 6459 H 759.071 -5.44924 0.880997 0
M  V30 6460 H 761.547 -4.12816 -0.521718 0
M  V30 6461 H 760.423 -5.37214 -1.12659 0
M  V30 6462 H 760.684 -3.90968 -2.0639 0
M  V30 6463 N 759.743 -0.201713 -1.56304 0
M  V30 6464 C 760.706 0.702811 -2.18159 0
M  V30 6465 C 761.706 1.13619 -1.13787 0
M  V30 6466 O 762.896 1.0482 -1.39134 0
M  V30 6467 C 760.028 1.96032 -2.78898 0
M  V30 6468 H 761.221 0.163836 -2.99452 0
M  V30 6469 H 758.774 0.04791 -1.56227 0
M  V30 6470 H 759.509 2.54165 -2.01421 0
M  V30 6471 H 759.294 1.65824 -3.55309 0
M  V30 6472 H 760.784 2.60519 -3.26373 0
M  V30 6473 N 761.222 1.57436 0.0718424 0
M  V30 6474 C 762.633 1.75975 0.623678 0
M  V30 6475 C 762.984 0.827155 1.77912 0
M  V30 6476 O 762.109 0.0112425 2.16397 0
M  V30 6477 C 762.704 3.1911 1.13816 0
M  V30 6478 C 761.263 3.38994 1.63586 0
M  V30 6479 C 760.41 2.71684 0.555261 0
M  V30 6480 H 763.361 1.57948 -0.154328 0
M  V30 6481 H 763.382 3.23267 2.00696 0
M  V30 6482 H 762.894 3.86962 0.296998 0
M  V30 6483 H 760.995 2.76256 2.50027 0
M  V30 6484 H 761.108 4.47436 1.71283 0
M  V30 6485 H 759.472 2.34236 1.00029 0
M  V30 6486 H 760.255 3.42191 -0.275712 0
M  V30 6487 N 762.7 -0.34323 1.53817 0
M  V30 6488 C 763.948 -1.0813 1.70741 0
M  V30 6489 C 764.269 -1.89165 0.473461 0
M  V30 6490 O 763.539 -1.89075 -0.512605 0
M  V30 6491 H 762.119 -0.40219 0.629486 0
M  V30 6492 H 764.781 -0.384426 1.91071 0
M  V30 6493 H 763.877 -1.7585 2.57843 0
M  V30 6494 N 764.178 -1.45556 -0.604258 0
M  V30 6495 C 765.424 -1.49968 -1.36519 0
M  V30 6496 C 765.757 -0.142236 -1.93678 0
M  V30 6497 O 765.032 0.843717 -1.75247 0
M  V30 6498 C 765.315 -2.58146 -2.51063 0
M  V30 6499 C 765.168 -4.03346 -1.99078 0
M  V30 6500 C 766.487 -2.62581 -3.53184 0
M  V30 6501 H 763.606 -0.545993 -0.495036 0
M  V30 6502 H 766.248 -1.77382 -0.680845 0
M  V30 6503 H 764.398 -2.34901 -3.09441 0
M  V30 6504 H 766.07 -4.37811 -1.45323 0
M  V30 6505 H 764.313 -4.13845 -1.30055 0
M  V30 6506 H 764.984 -4.74731 -2.81664 0
M  V30 6507 H 767.46 -2.83419 -3.04652 0
M  V30 6508 H 766.336 -3.40131 -4.30816 0
M  V30 6509 H 766.597 -1.67798 -4.09019 0
M  V30 6510 N 765.656 0.84705 -1.32902 0
M  V30 6511 C 766.904 1.5986 -1.2365 0
M  V30 6512 C 767.225 1.93974 0.199789 0
M  V30 6513 O 766.495 1.60273 1.12648 0
M  V30 6514 H 765.075 0.592696 -0.454665 0
M  V30 6515 H 767.737 1.01278 -1.66519 0
M  V30 6516 H 766.833 2.53218 -1.82448 0
M  V30 6517 N 767.134 1.16236 1.06428 0
M  V30 6518 C 768.38 0.944431 1.79467 0
M  V30 6519 C 768.713 -0.526558 1.86925 0
M  V30 6520 O 767.988 -1.39061 1.35986 0
M  V30 6521 C 768.271 1.57092 3.24028 0
M  V30 6522 C 768.124 3.11315 3.24658 0
M  V30 6523 C 769.443 1.26447 4.21544 0
M  V30 6524 H 766.562 0.344521 0.651517 0
M  V30 6525 H 769.204 1.43545 1.24478 0
M  V30 6526 H 767.354 1.15337 3.70985 0
M  V30 6527 H 769.026 3.62042 2.85873 0
M  V30 6528 H 767.269 3.44716 2.6335 0
M  V30 6529 H 767.94 3.50269 4.26633 0
M  V30 6530 H 770.416 1.62581 3.83023 0
M  V30 6531 H 769.292 1.72885 5.20963 0
M  V30 6532 H 769.553 0.183068 4.41721 0
M  V30 6533 N 768.612 -1.24939 0.960631 0
M  V30 6534 C 769.575 -2.239 0.49006 0
M  V30 6535 C 770.575 -1.55497 -0.409535 0
M  V30 6536 O 771.765 -1.72978 -0.205984 0
M  V30 6537 C 768.897 -3.39654 -0.291193 0
M  V30 6538 H 770.09 -2.67044 1.36482 0
M  V30 6539 H 767.643 -1.37429 0.744505 0
M  V30 6540 H 768.378 -3.01939 -1.18336 0
M  V30 6541 H 768.163 -3.90496 0.354276 0
M  V30 6542 H 769.653 -4.13125 -0.609693 0
M  V30 6543 N 770.09 -0.729906 -1.39679 0
M  V30 6544 C 771.501 -0.346241 -1.83461 0
M  V30 6545 C 771.852 1.1215 -1.60987 0
M  V30 6546 O 770.977 1.86456 -1.09832 0
M  V30 6547 C 771.572 -0.621656 -3.33048 0
M  V30 6548 C 770.131 -0.291543 -3.75269 0
M  V30 6549 C 769.278 -0.886844 -2.62736 0
M  V30 6550 H 772.229 -0.927949 -1.28743 0
M  V30 6551 H 772.25 0.108301 -3.80346 0
M  V30 6552 H 771.762 -1.68996 -3.49373 0
M  V30 6553 H 769.863 0.771133 -3.64533 0
M  V30 6554 H 769.976 -0.770544 -4.72863 0
M  V30 6555 H 768.34 -0.313839 -2.52759 0
M  V30 6556 H 769.123 -1.95971 -2.81869 0
M  V30 6557 N 771.568 1.50203 -0.477153 0
M  V30 6558 C 772.816 2.01959 0.0755889 0
M  V30 6559 C 773.137 1.3608 1.39668 0
M  V30 6560 O 772.407 0.508136 1.89195 0
M  V30 6561 H 770.987 0.74636 0.0309248 0
M  V30 6562 H 773.649 1.84473 -0.628959 0
M  V30 6563 H 772.745 3.11305 0.222683 0
M  V30 6564 N 773.046 0.209999 1.56195 0
M  V30 6565 C 774.292 -0.425442 1.98287 0
M  V30 6566 C 774.625 -1.60232 1.09724 0
M  V30 6567 O 773.9 -1.93902 0.152414 0
M  V30 6568 C 774.183 -0.871189 3.49403 0
M  V30 6569 C 774.036 0.308527 4.48741 0
M  V30 6570 C 775.355 -1.73146 4.04609 0
M  V30 6571 H 772.474 -0.153169 0.720908 0
M  V30 6572 H 775.116 0.303916 1.87554 0
M  V30 6573 H 773.266 -1.49266 3.58681 0
M  V30 6574 H 774.938 0.946487 4.51486 0
M  V30 6575 H 773.181 0.957878 4.23092 0
M  V30 6576 H 773.852 -0.0461143 5.51981 0
M  V30 6577 H 776.328 -1.2072 3.98203 0
M  V30 6578 H 775.204 -2.01228 5.10684 0
M  V30 6579 H 775.465 -2.69083 3.5078 0
M  V30 6580 N 774.524 -1.57472 -0.0634922 0
M  V30 6581 C 775.772 -1.87283 -0.759563 0
M  V30 6582 C 776.093 -0.803135 -1.77693 0
M  V30 6583 O 775.363 0.167293 -1.95184 0
M  V30 6584 H 773.943 -0.691106 -0.283516 0
M  V30 6585 H 776.605 -1.94864 -0.0376091 0
M  V30 6586 H 775.701 -2.85064 -1.27062 0
M  V30 6587 N 776.003 0.335068 -1.53997 0
M  V30 6588 C 776.933 1.41727 -1.85568 0
M  V30 6589 C 777.914 1.54505 -0.7115 0
M  V30 6590 O 779.099 1.68573 -0.964191 0
M  V30 6591 C 776.229 2.7866 -2.07282 0
M  V30 6592 C 775.183 2.80682 -3.23112 0
M  V30 6593 C 774.509 4.20581 -3.30175 0
M  V30 6594 C 775.809 2.45458 -4.61029 0
M  V30 6595 H 777.503 1.15555 -2.76202 0
M  V30 6596 H 775.049 0.554445 -1.32898 0
M  V30 6597 H 777.002 3.54423 -2.27952 0
M  V30 6598 H 775.726 3.06286 -1.13387 0
M  V30 6599 H 774.385 2.07373 -3.02311 0
M  V30 6600 H 774.033 4.4533 -2.33859 0
M  V30 6601 H 773.733 4.22843 -4.08016 0
M  V30 6602 H 775.257 4.98174 -3.53066 0
M  V30 6603 H 776.671 3.10934 -4.81656 0
M  V30 6604 H 775.068 2.5899 -5.41336 0
M  V30 6605 H 776.138 1.40628 -4.6406 0
M  V30 6606 N 777.481 1.45874 0.596531 0
M  V30 6607 C 778.444 1.54988 1.68853 0
M  V30 6608 C 779.444 0.428302 1.54991 0
M  V30 6609 O 780.634 0.692158 1.59859 0
M  V30 6610 C 777.766 1.457 3.08195 0
M  V30 6611 H 778.959 2.52294 1.62135 0
M  V30 6612 H 776.512 1.33479 0.813206 0
M  V30 6613 H 777.247 0.496204 3.20481 0
M  V30 6614 H 777.032 2.27061 3.19665 0
M  V30 6615 H 778.522 1.55133 3.87716 0
M  V30 6616 N 778.959 -0.83999 1.33349 0
M  V30 6617 C 780.37 -1.41139 1.22216 0
M  V30 6618 C 780.721 -1.95551 -0.159398 0
M  V30 6619 O 779.846 -1.88721 -1.05893 0
M  V30 6620 C 780.441 -2.56564 2.21269 0
M  V30 6621 C 779 -3.09661 2.13979 0
M  V30 6622 C 778.147 -1.82457 2.08818 0
M  V30 6623 H 781.098 -0.645853 1.44964 0
M  V30 6624 H 781.119 -3.34163 1.81976 0
M  V30 6625 H 780.631 -2.16932 3.21811 0
M  V30 6626 H 778.732 -3.53841 1.16736 0
M  V30 6627 H 778.845 -3.6991 3.04472 0
M  V30 6628 H 777.209 -2.0266 1.54276 0
M  V30 6629 H 777.992 -1.45022 3.11165 0
M  V30 6630 N 780.437 -1.16799 -1.0581 0
M  V30 6631 C 781.685 -0.950642 -1.78346 0
M  V30 6632 C 782.006 0.522524 -1.87869 0
M  V30 6633 O 781.276 1.3795 -1.39092 0
M  V30 6634 H 779.856 -0.348736 -0.6606 0
M  V30 6635 H 782.518 -1.47158 -1.27791 0
M  V30 6636 H 781.614 -1.37359 -2.80248 0
M  V30 6637 N 781.915 1.24427 -0.967243 0
M  V30 6638 C 783.161 1.92772 -0.629812 0
M  V30 6639 C 783.494 1.75436 0.832827 0
M  V30 6640 O 782.769 1.10716 1.59913 0
M  V30 6641 C 783.052 3.45798 -1.00477 0
M  V30 6642 C 782.905 3.72304 -2.52407 0
M  V30 6643 C 784.224 4.36787 -0.538999 0
M  V30 6644 H 781.343 0.700099 -0.230282 0
M  V30 6645 H 783.985 1.46805 -1.20616 0
M  V30 6646 H 782.135 3.8508 -0.514336 0
M  V30 6647 H 783.807 3.42584 -3.08924 0
M  V30 6648 H 782.05 3.17472 -2.95625 0
M  V30 6649 H 782.721 4.7937 -2.73693 0
M  V30 6650 H 785.197 4.04877 -0.959874 0
M  V30 6651 H 784.073 5.4259 -0.829926 0
M  V30 6652 H 784.334 4.38527 0.560923 0
M  V30 6653 N 783.393 0.737304 1.3929 0
M  V30 6654 C 784.641 0.285691 2.00071 0
M  V30 6655 C 784.962 -1.13169 1.58801 0
M  V30 6656 O 784.232 -1.77104 0.837308 0
M  V30 6657 H 782.812 0.102638 0.739915 0
M  V30 6658 H 785.474 0.947775 1.70303 0
M  V30 6659 H 784.57 0.335906 3.10287 0
M  V30 6660 N 784.871 -1.49948 0.485112 0
M  V30 6661 C 786.117 -2.02695 -0.0651022 0
M  V30 6662 C 786.45 -1.36534 -1.38102 0
M  V30 6663 O 785.725 -0.495677 -1.88078 0
M  V30 6664 C 786.008 -3.59337 -0.234285 0
M  V30 6665 C 785.861 -4.3605 1.10364 0
M  V30 6666 C 787.18 -4.28996 -0.982351 0
M  V30 6667 H 784.299 -0.736666 -0.0221856 0
M  V30 6668 H 786.941 -1.7913 0.633433 0
M  V30 6669 H 785.091 -3.79546 -0.829262 0
M  V30 6670 H 786.763 -4.27377 1.73627 0
M  V30 6671 H 785.006 -3.99236 1.69686 0
M  V30 6672 H 785.677 -5.43959 0.938743 0
M  V30 6673 H 788.153 -4.13346 -0.477904 0
M  V30 6674 H 787.029 -5.38379 -1.06955 0
M  V30 6675 H 787.29 -3.93135 -2.02231 0
M  V30 6676 N 786.349 -0.21828 -1.56081 0
M  V30 6677 C 787.312 0.679633 -2.18892 0
M  V30 6678 C 788.312 1.12405 -1.14986 0
M  V30 6679 O 789.502 1.03339 -1.40238 0
M  V30 6680 C 786.634 1.93063 -2.80962 0
M  V30 6681 H 787.827 0.132066 -2.99609 0
M  V30 6682 H 785.38 0.0313374 -1.56269 0
M  V30 6683 H 786.115 2.52015 -2.04106 0
M  V30 6684 H 785.9 1.62046 -3.57048 0
M  V30 6685 H 787.39 2.57043 -3.29118 0
M  V30 6686 N 787.827 1.57504 0.0551401 0
M  V30 6687 C 789.238 1.76626 0.604979 0
M  V30 6688 C 789.589 0.845978 1.77024 0
M  V30 6689 O 788.714 0.0341936 2.16373 0
M  V30 6690 C 789.309 3.203 1.10425 0
M  V30 6691 C 787.868 3.4071 1.59981 0
M  V30 6692 C 787.015 2.72258 0.526414 0
M  V30 6693 H 789.966 1.57775 -0.171072 0
M  V30 6694 H 789.987 3.25377 1.97256 0
M  V30 6695 H 789.499 3.87255 0.255939 0
M  V30 6696 H 787.6 2.78892 2.47083 0
M  V30 6697 H 787.713 4.49227 1.66528 0
M  V30 6698 H 786.077 2.35283 0.97539 0
M  V30 6699 H 786.86 3.41879 -0.311991 0
M  V30 6700 N 789.305 -0.326896 1.54172 0
M  V30 6701 C 790.553 -1.06313 1.71878 0
M  V30 6702 C 790.874 -1.88652 0.493498 0
M  V30 6703 O 790.144 -1.89608 -0.492522 0
M  V30 6704 H 788.724 -0.39549 0.633716 0
M  V30 6705 H 791.386 -0.364139 1.91468 0
M  V30 6706 H 790.482 -1.73105 2.59694 0
M  V30 6707 N 790.784 -1.46188 -0.588786 0
M  V30 6708 C 792.03 -1.51407 -1.34921 0
M  V30 6709 C 792.363 -0.162771 -1.93517 0
M  V30 6710 O 791.638 0.825082 -1.76132 0
M  V30 6711 C 791.921 -2.60795 -2.48311 0
M  V30 6712 C 791.774 -4.05435 -1.94789 0
M  V30 6713 C 793.093 -2.66313 -3.50379 0
M  V30 6714 H 790.212 -0.551213 -0.489217 0
M  V30 6715 H 792.854 -1.78095 -0.661993 0
M  V30 6716 H 791.004 -2.3817 -3.06932 0
M  V30 6717 H 792.676 -4.39328 -1.40672 0
M  V30 6718 H 790.919 -4.15202 -1.25659 0
M  V30 6719 H 791.59 -4.77691 -2.76613 0
M  V30 6720 H 794.066 -2.86634 -3.01629 0
M  V30 6721 H 792.942 -3.44681 -4.27184 0
M  V30 6722 H 793.203 -1.72127 -4.07216 0
M  V30 6723 N 792.262 0.832906 -1.33792 0
M  V30 6724 C 793.51 1.58539 -1.25338 0
M  V30 6725 C 793.831 1.94175 0.179204 0
M  V30 6726 O 793.101 1.61458 1.10941 0
M  V30 6727 H 791.681 0.58784 -0.460926 0
M  V30 6728 H 794.343 0.995064 -1.67584 0
M  V30 6729 H 793.439 2.51268 -1.85123 0
M  V30 6730 N 793.74 1.17359 1.05189 0
M  V30 6731 C 794.986 0.963413 1.78455 0
M  V30 6732 C 795.319 -0.506703 1.87473 0
M  V30 6733 O 794.594 -1.37611 1.37453 0
M  V30 6734 C 794.877 1.60519 3.22344 0
M  V30 6735 C 794.73 3.14741 3.21338 0
M  V30 6736 C 796.049 1.3091 4.20179 0
M  V30 6737 H 793.168 0.351412 0.647826 0
M  V30 6738 H 795.81 1.44858 1.22948 0
M  V30 6739 H 793.96 1.19265 3.69741 0
M  V30 6740 H 795.632 3.65053 2.82017 0
M  V30 6741 H 793.875 3.4749 2.59679 0
M  V30 6742 H 794.546 3.54775 4.22894 0
M  V30 6743 H 797.022 1.66635 3.81277 0
M  V30 6744 H 795.898 1.784 5.191 0
M  V30 6745 H 796.159 0.229908 4.41502 0
M  V30 6746 N 795.218 -1.23913 0.973828 0
M  V30 6747 C 796.181 -2.23367 0.51378 0
M  V30 6748 C 797.181 -1.55923 -0.39302 0
M  V30 6749 O 798.371 -1.73187 -0.187626 0
M  V30 6750 C 795.503 -3.39944 -0.255152 0
M  V30 6751 H 796.696 -2.65581 1.39307 0
M  V30 6752 H 794.249 -1.36632 0.759039 0
M  V30 6753 H 794.984 -3.03177 -1.15127 0
M  V30 6754 H 794.769 -3.90098 0.395673 0
M  V30 6755 H 796.259 -4.13749 -0.565842 0
M  V30 6756 N 796.696 -0.74468 -1.38897 0
M  V30 6757 C 798.107 -0.36568 -1.83084 0
M  V30 6758 C 798.458 1.10436 -1.62168 0
M  V30 6759 O 797.583 1.85281 -1.11804 0
M  V30 6760 C 798.178 -0.656946 -3.3237 0
M  V30 6761 C 796.737 -0.331329 -3.74939 0
M  V30 6762 C 795.884 -0.914661 -2.61781 0
M  V30 6763 H 798.835 -0.941551 -1.27752 0
M  V30 6764 H 798.856 0.0679546 -3.80439 0
M  V30 6765 H 798.368 -1.72693 -3.47561 0
M  V30 6766 H 796.469 0.732426 -3.6533 0
M  V30 6767 H 796.582 -0.820655 -4.72019 0
M  V30 6768 H 794.946 -0.34063 -2.52412 0
M  V30 6769 H 795.729 -1.98949 -2.79775 0
M  V30 6770 N 798.174 1.49689 -0.493057 0
M  V30 6771 C 799.422 2.02027 0.0541642 0
M  V30 6772 C 799.743 1.37554 1.38217 0
M  V30 6773 O 799.013 0.528174 1.88646 0
M  V30 6774 H 797.593 0.746646 0.0230069 0
M  V30 6775 H 800.255 1.83795 -0.648489 0
M  V30 6776 H 799.351 3.11523 0.189652 0
M  V30 6777 N 799.652 0.226554 1.55963 0
M  V30 6778 C 800.898 -0.404387 1.98727 0
M  V30 6779 C 801.231 -1.59059 1.11418 0
M  V30 6780 O 800.506 -1.93729 0.172971 0
M  V30 6781 C 800.789 -0.834081 3.50307 0
M  V30 6782 C 800.642 0.356104 4.48388 0
M  V30 6783 C 801.961 -1.68845 4.06423 0
M  V30 6784 H 799.08 -0.145515 0.722492 0
M  V30 6785 H 801.722 0.323791 1.87221 0
M  V30 6786 H 799.872 -1.45454 3.60244 0
M  V30 6787 H 801.544 0.99432 4.50456 0
M  V30 6788 H 799.787 1.0027 4.22053 0
M  V30 6789 H 800.458 0.0124333 5.51999 0
M  V30 6790 H 802.934 -1.16489 3.99461 0
M  V30 6791 H 801.81 -1.958 5.1279 0
M  V30 6792 H 802.071 -2.65347 3.53615 0
M  V30 6793 N 801.13 -1.57531 -0.0467866 0
M  V30 6794 C 802.378 -1.88078 -0.739656 0
M  V30 6795 C 802.699 -0.821936 -1.76831 0
M  V30 6796 O 801.969 0.146582 -1.95351 0
M  V30 6797 H 800.549 -0.694075 -0.276169 0
M  V30 6798 H 803.211 -1.94893 -0.0169391 0
M  V30 6799 H 802.307 -2.86396 -1.24031 0
M  V30 6800 N 802.608 0.318715 -1.54344 0
M  V30 6801 C 803.854 1.05765 -1.73037 0
M  V30 6802 C 804.187 1.87514 -0.505181 0
M  V30 6803 O 803.462 1.88021 0.497838 0
M  V30 6804 C 803.745 1.97836 -3.00887 0
M  V30 6805 C 803.598 1.19384 -4.33668 0
M  V30 6806 C 804.917 2.97285 -3.24514 0
M  V30 6807 H 802.036 0.383104 -0.629603 0
M  V30 6808 H 804.678 0.333864 -1.87044 0
M  V30 6809 H 802.828 2.59552 -2.89076 0
M  V30 6810 H 804.5 0.600906 -4.57369 0
M  V30 6811 H 802.743 0.496198 -4.30953 0
M  V30 6812 H 803.414 1.87014 -5.19355 0
M  V30 6813 H 805.89 2.45693 -3.35819 0
M  V30 6814 H 804.766 3.58887 -4.15321 0
M  V30 6815 H 805.027 3.70003 -2.41971 0
M  V30 6816 N 804.086 1.46499 0.581025 0
M  V30 6817 C 805.049 1.5677 1.672 0
M  V30 6818 C 806.049 0.444716 1.54528 0
M  V30 6819 O 807.239 0.709074 1.59116 0
M  V30 6820 C 804.371 1.4896 3.06633 0
M  V30 6821 H 805.564 2.54 1.5945 0
M  V30 6822 H 803.117 1.34334 0.799003 0
M  V30 6823 H 803.852 0.530168 3.19937 0
M  V30 6824 H 803.637 2.30439 3.17239 0
M  V30 6825 H 805.127 1.59237 3.86048 0
M  V30 6826 N 805.565 -0.825799 1.34232 0
M  V30 6827 C 806.976 -1.39835 1.23706 0
M  V30 6828 C 807.327 -1.95709 -0.138649 0
M  V30 6829 O 806.452 -1.89833 -1.03886 0
M  V30 6830 C 807.047 -2.54203 2.23978 0
M  V30 6831 C 805.606 -3.07374 2.17251 0
M  V30 6832 C 804.753 -1.80232 2.10741 0
M  V30 6833 H 807.704 -0.630442 1.4564 0
M  V30 6834 H 807.725 -3.32214 1.8551 0
M  V30 6835 H 807.237 -2.13506 3.24094 0
M  V30 6836 H 805.338 -3.52583 1.20483 0
M  V30 6837 H 805.451 -3.6666 3.08379 0
M  V30 6838 H 803.815 -2.01012 1.56417 0
M  V30 6839 H 804.598 -1.41713 3.12686 0
M  V30 6840 N 807.043 -1.17915 -1.04565 0
M  V30 6841 C 808.291 -0.969505 -1.77327 0
M  V30 6842 C 808.612 0.502569 -1.88412 0
M  V30 6843 O 807.882 1.36467 -1.40547 0
M  V30 6844 H 806.462 -0.355723 -0.656864 0
M  V30 6845 H 809.124 -1.48506 -1.26223 0
M  V30 6846 H 808.22 -1.40324 -2.78775 0
M  V30 6847 N 808.521 1.23394 -0.980386 0
M  V30 6848 C 809.77 1.91116 -0.644785 0
M  V30 6849 C 810.083 1.77333 0.825367 0
M  V30 6850 O 811.289 2.39858 1.27203 0
M  V30 6851 C 809.745 3.42592 -1.10266 0
M  V30 6852 C 809.353 3.65037 -2.59715 0
M  V30 6853 C 811.097 4.1609 -0.8408 0
M  V30 6854 C 809.004 5.10148 -2.9917 0
M  V30 6855 H 807.934 0.715632 -0.23746 0
M  V30 6856 H 810.585 1.39829 -1.18828 0
M  V30 6857 H 808.967 3.92989 -0.487372 0
M  V30 6858 H 810.141 3.25186 -3.26482 0
M  V30 6859 H 808.456 3.04849 -2.83647 0
M  V30 6860 H 811.053 5.23021 -1.11143 0
M  V30 6861 H 811.396 4.15702 0.223085 0
M  V30 6862 H 811.929 3.71681 -1.41767 0
M  V30 6863 H 808.668 5.15668 -4.04682 0
M  V30 6864 H 808.188 5.50949 -2.37097 0
M  V30 6865 H 809.867 5.7848 -2.89775 0
M  V30 6866 N 809.999 0.752036 1.385 0
M  V30 6867 C 811.247 0.306895 1.99756 0
M  V30 6868 C 811.568 -1.11478 1.59992 0
M  V30 6869 O 810.838 -1.76206 0.856045 0
M  V30 6870 H 809.418 0.11048 0.738785 0
M  V30 6871 H 812.08 0.965785 1.69289 0
M  V30 6872 H 811.176 0.368797 3.09913 0
M  V30 6873 N 811.477 -1.49425 0.500989 0
M  V30 6874 C 812.888 -1.86624 0.0532011 0
M  V30 6875 C 813.239 -1.41331 -1.36088 0
M  V30 6876 O 812.364 -0.791195 -2.01418 0
M  V30 6877 C 812.959 -3.38681 0.0897693 0
M  V30 6878 C 811.518 -3.75181 -0.302677 0
M  V30 6879 C 810.665 -2.73419 0.462307 0
M  V30 6880 H 813.616 -1.41743 0.713773 0
M  V30 6881 H 813.637 -3.73902 -0.705528 0
M  V30 6882 H 813.149 -3.71616 1.11907 0
M  V30 6883 H 811.25 -3.47855 -1.33521 0
M  V30 6884 H 811.363 -4.79097 0.0167653 0
M  V30 6885 H 809.727 -2.54548 -0.0878557 0
M  V30 6886 H 810.51 -3.09198 1.49169 0
M  V30 6887 N 812.955 -0.234822 -1.55841 0
M  V30 6888 C 814.203 0.392483 -1.98252 0
M  V30 6889 C 814.524 1.59344 -1.12404 0
M  V30 6890 O 813.794 1.94834 -0.204055 0
M  V30 6891 H 812.374 0.147999 -0.732192 0
M  V30 6892 H 815.036 -0.330804 -1.92072 0
M  V30 6893 H 814.132 0.709829 -3.03921 0
M  V30 6894 N 814.433 1.57553 0.0384317 0
M  V30 6895 C 815.681 1.88468 0.729672 0
M  V30 6896 C 816.002 0.831302 1.76393 0
M  V30 6897 O 815.272 -0.13622 1.95426 0
M  V30 6898 H 813.852 0.695529 0.272485 0
M  V30 6899 H 816.514 1.94899 0.0066032 0
M  V30 6900 H 815.61 2.8705 1.22511 0
M  V30 6901 N 815.911 -0.310526 1.54511 0
M  V30 6902 C 817.157 -1.04846 1.73595 0
M  V30 6903 C 817.49 -1.87244 0.515118 0
M  V30 6904 O 816.765 -1.88282 -0.48786 0
M  V30 6905 C 817.048 -1.96237 3.01932 0
M  V30 6906 C 816.901 -1.17082 4.34295 0
M  V30 6907 C 818.22 -2.9556 3.26086 0
M  V30 6908 H 815.339 -0.37976 0.631626 0
M  V30 6909 H 817.981 -0.32394 1.87218 0
M  V30 6910 H 816.131 -2.58015 2.90449 0
M  V30 6911 H 817.803 -0.576643 4.57682 0
M  V30 6912 H 816.046 -0.473336 4.3121 0
M  V30 6913 H 816.717 -1.84257 5.20339 0
M  V30 6914 H 819.193 -2.43908 3.37117 0
M  V30 6915 H 818.069 -3.5668 4.17218 0
M  V30 6916 H 818.33 -3.68715 2.4393 0
M  V30 6917 N 817.389 -1.46805 -0.573248 0
M  V30 6918 C 818.352 -1.57655 -1.66366 0
M  V30 6919 C 819.352 -0.452905 -1.5429 0
M  V30 6920 O 820.542 -0.717502 -1.58737 0
M  V30 6921 C 817.674 -1.50584 -3.05839 0
M  V30 6922 H 818.867 -2.54842 -1.581 0
M  V30 6923 H 816.42 -1.34756 -0.791868 0
M  V30 6924 H 817.155 -0.547127 -3.19651 0
M  V30 6925 H 816.94 -2.32118 -3.16012 0
M  V30 6926 H 818.43 -1.61282 -3.85199 0
M  V30 6927 N 818.867 0.818669 -1.34668 0
M  V30 6928 C 819.83 1.9114 -1.26483 0
M  V30 6929 C 820.83 1.598 -0.179044 0
M  V30 6930 O 822.02 1.6876 -0.431952 0
M  V30 6931 C 819.152 3.27285 -0.95381 0
M  V30 6932 H 820.345 1.9982 -2.23634 0
M  V30 6933 H 817.898 1.01314 -1.19018 0
M  V30 6934 H 818.633 3.24297 0.0143428 0
M  V30 6935 H 818.418 3.51416 -1.73924 0
M  V30 6936 H 819.908 4.07299 -0.921827 0
M  V30 6937 N 820.346 1.18468 1.03938 0
M  V30 6938 C 821.309 0.914944 2.10146 0
M  V30 6939 C 822.309 -0.10022 1.60487 0
M  V30 6940 O 823.499 0.133365 1.73689 0
M  V30 6941 C 820.631 0.372993 3.38853 0
M  V30 6942 H 821.824 1.85677 2.35508 0
M  V30 6943 H 819.377 0.996876 1.20383 0
M  V30 6944 H 820.112 -0.57538 3.19155 0
M  V30 6945 H 819.897 1.1048 3.76213 0
M  V30 6946 H 821.387 0.203014 4.17106 0
M  V30 6947 N 821.824 -1.22873 0.986916 0
M  V30 6948 C 822.787 -2.2281 0.537442 0
M  V30 6949 C 823.787 -1.56331 -0.37646 0
M  V30 6950 O 824.977 -1.73376 -0.169247 0
M  V30 6951 C 822.109 -3.40195 -0.219082 0
M  V30 6952 H 823.302 -2.64089 1.42116 0
M  V30 6953 H 820.855 -1.35819 0.773488 0
M  V30 6954 H 821.59 -3.04381 -1.11905 0
M  V30 6955 H 821.375 -3.89657 0.437026 0
M  V30 6956 H 822.865 -4.14326 -0.521926 0
M  V30 6957 N 823.302 -0.75937 -1.38099 0
M  V30 6958 C 824.249 -0.135508 -2.30402 0
M  V30 6959 C 825.219 0.703356 -1.50473 0
M  V30 6960 O 826.404 0.658287 -1.79084 0
M  V30 6961 C 823.544 0.747228 -3.36913 0
M  V30 6962 C 822.657 -0.106893 -4.31868 0
M  V30 6963 C 821.792 0.779388 -5.25451 0
M  V30 6964 C 820.831 -0.0780179 -6.1205 0
M  V30 6965 N 819.968 0.765545 -6.97914 0
M  V30 6966 H 824.808 -0.9282 -2.83176 0
M  V30 6967 H 822.345 -0.46935 -1.39411 0
M  V30 6968 H 824.303 1.27371 -3.97281 0
M  V30 6969 H 822.933 1.50565 -2.85535 0
M  V30 6970 H 821.985 -0.751063 -3.72912 0
M  V30 6971 H 823.297 -0.768798 -4.9284 0
M  V30 6972 H 822.451 1.37282 -5.90964 0
M  V30 6973 H 821.19 1.47501 -4.6486 0
M  V30 6974 H 820.195 -0.684078 -5.45528 0
M  V30 6975 H 821.42 -0.770786 -6.74712 0
M  V30 6976 H 819.366 1.44601 -6.39864 0
M  V30 6977 H 819.283 0.160666 -7.55829 0
M  V30 6978 H 820.551 1.34377 -7.6783 0
M  V30 6979 N 824.78 1.49157 -0.508906 0
M  V30 6980 C 826.005 2.07376 0.0315182 0
M  V30 6981 C 826.43 1.36575 1.2934 0
M  V30 6982 O 825.788 0.424963 1.76249 0
M  V30 6983 C 825.836 3.59661 0.260118 0
M  V30 6984 O 824.94 3.90255 1.33322 0
M  V30 6985 H 824.281 0.663334 -0.029739 0
M  V30 6986 H 826.811 1.91857 -0.710791 0
M  V30 6987 H 826.821 4.05056 0.489225 0
M  V30 6988 H 825.496 4.10601 -0.661794 0
M  V30 6989 H 824.073 3.56661 1.08844 0
M  V30 6990 N 826.258 0.243083 1.55714 0
M  V30 6991 C 827.221 -0.644723 2.19945 0
M  V30 6992 C 828.221 -1.10562 1.16759 0
M  V30 6993 O 829.411 -1.01095 1.41865 0
M  V30 6994 C 826.543 -1.88569 2.83997 0
M  V30 6995 H 827.736 -0.0843839 2.99781 0
M  V30 6996 H 825.289 -0.00647246 1.56299 0
M  V30 6997 H 826.024 -2.48736 2.08089 0
M  V30 6998 H 825.809 -1.56345 3.59581 0
M  V30 6999 H 827.299 -2.51774 3.33166 0
M  V30 7000 N 827.736 -1.57571 -0.0300757 0
M  V30 7001 C 828.699 -2.05468 -1.01565 0
M  V30 7002 C 829.699 -0.958628 -1.29101 0
M  V30 7003 O 830.889 -1.22228 -1.24121 0
M  V30 7004 C 828.021 -2.47077 -2.34874 0
M  V30 7005 H 829.214 -2.93797 -0.601936 0
M  V30 7006 H 826.767 -1.53828 -0.276878 0
M  V30 7007 H 827.502 -1.61901 -2.80996 0
M  V30 7008 H 827.287 -3.27097 -2.16218 0
M  V30 7009 H 828.777 -2.84564 -3.05635 0
M  V30 7010 N 829.214 0.302327 -1.54673 0
M  V30 7011 C 830.161 1.37282 -1.85532 0
M  V30 7012 C 831.131 1.50437 -0.704129 0
M  V30 7013 O 832.316 1.65317 -0.952627 0
M  V30 7014 C 829.456 2.73309 -2.10704 0
M  V30 7015 C 828.569 2.68614 -3.38335 0
M  V30 7016 C 827.704 3.96626 -3.53357 0
M  V30 7017 C 826.743 3.86324 -4.74784 0
M  V30 7018 N 825.88 5.06109 -4.86619 0
M  V30 7019 H 830.72 1.10265 -2.76849 0
M  V30 7020 H 828.257 0.533346 -1.37091 0
M  V30 7021 H 830.215 3.52414 -2.23294 0
M  V30 7022 H 828.845 2.98589 -1.22656 0
M  V30 7023 H 827.897 1.81381 -3.34373 0
M  V30 7024 H 829.209 2.56891 -4.27561 0
M  V30 7025 H 828.363 4.84168 -3.65604 0
M  V30 7026 H 827.102 4.11182 -2.62261 0
M  V30 7027 H 826.107 2.97166 -4.62572 0
M  V30 7028 H 827.332 3.73315 -5.67286 0
M  V30 7029 H 825.278 5.2113 -3.98446 0
M  V30 7030 H 825.195 4.96804 -5.69844 0
M  V30 7031 H 826.463 5.95306 -5.03221 0
M  V30 7032 N 830.692 1.47107 0.565454 0
M  V30 7033 C 831.938 1.53535 1.32495 0
M  V30 7034 C 832.271 0.193537 1.93233 0
M  V30 7035 O 831.546 -0.796956 1.77423 0
M  V30 7036 C 831.829 2.64712 2.4413 0
M  V30 7037 C 831.682 4.08482 1.88314 0
M  V30 7038 C 833.001 2.71853 3.46098 0
M  V30 7039 H 830.12 0.558926 0.480386 0
M  V30 7040 H 832.762 1.79125 0.633575 0
M  V30 7041 H 830.912 2.43023 3.03104 0
M  V30 7042 H 832.584 4.4151 1.33665 0
M  V30 7043 H 830.827 4.17148 1.19037 0
M  V30 7044 H 831.498 4.82032 2.68978 0
M  V30 7045 H 833.974 2.91397 2.97031 0
M  V30 7046 H 832.85 3.51433 4.21646 0
M  V30 7047 H 833.111 1.78584 4.04426 0
M  V30 7048 N 832.17 -0.811516 1.35101 0
M  V30 7049 C 833.133 -1.90467 1.27495 0
M  V30 7050 C 834.133 -1.59703 0.187516 0
M  V30 7051 O 835.323 -1.68528 0.440896 0
M  V30 7052 C 832.455 -3.26774 0.971154 0
M  V30 7053 H 833.648 -1.98631 2.2469 0
M  V30 7054 H 831.201 -1.00681 1.19553 0
M  V30 7055 H 831.936 -3.243 0.0028557 0
M  V30 7056 H 831.721 -3.50488 1.75785 0
M  V30 7057 H 833.211 -4.06804 0.943414 0
M  V30 7058 N 833.648 -1.19017 -1.03309 0
M  V30 7059 C 834.611 -0.926076 -2.09658 0
M  V30 7060 C 835.611 0.0917077 -1.60538 0
M  V30 7061 O 836.801 -0.142574 -1.73616 0
M  V30 7062 C 833.933 -0.390958 -3.38651 0
M  V30 7063 H 835.126 -1.86923 -2.3452 0
M  V30 7064 H 832.679 -1.00325 -1.19853 0
M  V30 7065 H 833.414 0.558446 -3.19456 0
M  V30 7066 H 833.199 -1.12474 -3.75622 0
M  V30 7067 H 834.689 -0.225131 -4.16993 0
M  V30 7068 N 835.127 1.22348 -0.993418 0
M  V30 7069 C 836.074 2.24294 -0.544118 0
M  V30 7070 C 837.044 1.60602 0.42381 0
M  V30 7071 O 838.229 1.87952 0.328453 0
M  V30 7072 C 835.369 3.44837 0.134578 0
M  V30 7073 C 834.482 4.23043 -0.875151 0
M  V30 7074 C 833.617 5.30928 -0.169919 0
M  V30 7075 C 832.656 6.00853 -1.16798 0
M  V30 7076 N 831.793 7.00381 -0.491021 0
M  V30 7077 H 836.633 2.6209 -1.4182 0
M  V30 7078 H 834.17 1.2881 -0.710384 0
M  V30 7079 H 836.128 4.13625 0.544998 0
M  V30 7080 H 834.758 3.07804 0.972446 0
M  V30 7081 H 833.81 3.53546 -1.40389 0
M  V30 7082 H 835.122 4.71237 -1.63516 0
M  V30 7083 H 834.276 6.05972 0.297205 0
M  V30 7084 H 833.015 4.8371 0.622586 0
M  V30 7085 H 832.02 5.24591 -1.64573 0
M  V30 7086 H 833.245 6.50159 -1.96137 0
M  V30 7087 H 831.191 6.55393 0.282037 0
M  V30 7088 H 831.108 7.46584 -1.18947 0
M  V30 7089 H 832.376 7.79486 -0.0467169 0
M  V30 7090 N 836.605 0.766683 1.37694 0
M  V30 7091 C 837.568 0.155849 2.2867 0
M  V30 7092 C 838.568 -0.633509 1.47795 0
M  V30 7093 O 839.758 -0.457844 1.68076 0
M  V30 7094 C 836.89 -0.786965 3.31692 0
M  V30 7095 H 838.083 0.957748 2.84196 0
M  V30 7096 H 835.636 0.534554 1.46875 0
M  V30 7097 H 836.371 -1.61406 2.8128 0
M  V30 7098 H 836.156 -0.223182 3.91464 0
M  V30 7099 H 837.646 -1.20994 3.99688 0
M  V30 7100 N 838.083 -1.48885 0.516809 0
M  V30 7101 C 839.015 -2.27357 -0.290061 0
M  V30 7102 C 840.028 -1.34558 -0.916406 0
M  V30 7103 O 841.217 -1.59715 -0.797073 0
M  V30 7104 C 838.317 -3.07496 -1.42476 0
M  V30 7105 C 837.49 -4.27982 -0.902793 0
M  V30 7106 C 836.549 -4.90038 -1.91701 0
M  V30 7107 O 835.575 -5.49643 -1.47922 0
M  V30 7108 N 836.777 -4.811 -3.24843 0
M  V30 7109 H 839.542 -2.97244 0.382884 0
M  V30 7110 H 837.103 -1.58064 0.35032 0
M  V30 7111 H 839.095 -3.45882 -2.10113 0
M  V30 7112 H 837.665 -2.40115 -2.00159 0
M  V30 7113 H 836.885 -3.94167 -0.0508272 0
M  V30 7114 H 838.173 -5.06003 -0.532723 0
M  V30 7115 H 837.571 -4.33801 -3.63088 0
M  V30 7116 H 836.128 -5.23625 -3.8815 0
M  V30 7117 N 839.561 -0.251338 -1.55583 0
M  V30 7118 C 840.491 0.640437 -2.24545 0
M  V30 7119 C 841.472 1.17781 -1.22726 0
M  V30 7120 O 842.657 1.21633 -1.5139 0
M  V30 7121 C 839.787 1.8355 -2.94834 0
M  V30 7122 C 838.741 1.4307 -4.03379 0
M  V30 7123 C 838.067 2.70695 -4.61116 0
M  V30 7124 C 839.367 0.59848 -5.1886 0
M  V30 7125 H 841.061 0.0653772 -2.99329 0
M  V30 7126 H 838.607 0.0300042 -1.43969 0
M  V30 7127 H 840.56 2.46505 -3.4178 0
M  V30 7128 H 839.284 2.43601 -2.17546 0
M  V30 7129 H 837.943 0.824474 -3.57209 0
M  V30 7130 H 837.591 3.28954 -3.80524 0
M  V30 7131 H 837.291 2.44332 -5.34393 0
M  V30 7132 H 838.815 3.34541 -5.10798 0
M  V30 7133 H 840.229 1.13244 -5.62004 0
M  V30 7134 H 838.626 0.430728 -5.98552 0
M  V30 7135 H 839.696 -0.38829 -4.83343 0
M  V30 7136 N 841.039 1.57585 0.0217189 0
M  V30 7137 C 842.455 1.55072 0.377484 0
M  V30 7138 C 842.655 0.978423 1.76151 0
M  V30 7139 O 841.711 0.602688 2.45202 0
M  V30 7140 C 843.024 2.99462 0.272605 0
M  V30 7141 C 844.572 3.11047 0.349148 0
M  V30 7142 C 845.047 4.57182 0.273636 0
M  V30 7143 N 846.538 4.62007 0.332206 0
M  V30 7144 C 847.273 5.72631 0.296782 0
M  V30 7145 N 846.769 6.92472 0.21322 0
M  V30 7146 N 848.562 5.61028 0.347053 0
M  V30 7147 H 840.713 1.93133 -0.883925 0
M  V30 7148 H 842.976 0.886151 -0.33681 0
M  V30 7149 H 842.682 3.45088 -0.67878 0
M  V30 7150 H 842.556 3.61901 1.06335 0
M  V30 7151 H 844.943 2.65364 1.29097 0
M  V30 7152 H 845.024 2.51425 -0.471085 0
M  V30 7153 H 844.668 5.03534 -0.664548 0
M  V30 7154 H 844.598 5.14724 1.11207 0
M  V30 7155 H 847.089 3.75788 0.399003 0
M  V30 7156 H 847.402 7.72563 0.191492 0
M  V30 7157 H 845.747 6.94769 0.179161 0
M  V30 7158 H 848.938 4.66298 0.410378 0
M  V30 7159 H 849.111 6.47229 0.315979 0
M  V30 7160 N 842.517 -0.29412 1.54831 0
M  V30 7161 C 843.48 -1.3461 1.85507 0
M  V30 7162 C 844.48 -1.43359 0.728343 0
M  V30 7163 O 845.67 -1.42875 0.996609 0
M  V30 7164 C 842.802 -2.73012 2.0415 0
M  V30 7165 H 843.995 -1.08651 2.79526 0
M  V30 7166 H 841.548 -0.531138 1.46999 0
M  V30 7167 H 842.283 -3.04183 1.12441 0
M  V30 7168 H 842.068 -2.68051 2.86166 0
M  V30 7169 H 843.558 -3.49061 2.29229 0
M  V30 7170 N 843.995 -1.47404 -0.557645 0
M  V30 7171 C 844.958 -1.59411 -1.64684 0
M  V30 7172 C 845.958 -0.469244 -1.53801 0
M  V30 7173 O 847.148 -0.734298 -1.57967 0
M  V30 7174 C 844.28 -1.5382 -3.04224 0
M  V30 7175 H 845.473 -2.56504 -1.55389 0
M  V30 7176 H 843.026 -1.35588 -0.777531 0
M  V30 7177 H 843.761 -0.581 -3.19053 0
M  V30 7178 H 843.546 -2.35456 -3.13533 0
M  V30 7179 H 845.036 -1.65358 -3.83466 0
M  V30 7180 N 845.473 0.80434 -1.35529 0
M  V30 7181 C 846.436 1.89788 -1.28503 0
M  V30 7182 C 847.436 1.59601 -0.195983 0
M  V30 7183 O 848.626 1.68292 -0.449827 0
M  V30 7184 C 845.758 3.26255 -0.98847 0
M  V30 7185 H 846.951 1.97436 -2.25741 0
M  V30 7186 H 844.504 1.00046 -1.20086 0
M  V30 7187 H 845.239 3.24294 -0.0200541 0
M  V30 7188 H 845.024 3.49551 -1.77641 0
M  V30 7189 H 846.514 4.06298 -0.964975 0
M  V30 7190 N 846.951 1.19563 1.02676 0
M  V30 7191 C 848.199 0.997593 1.75763 0
M  V30 7192 C 848.52 -0.47253 1.89188 0
M  V30 7193 O 847.79 -1.34214 1.42701 0
M  V30 7194 H 846.37 0.366128 0.651122 0
M  V30 7195 H 849.032 1.50495 1.23844 0
M  V30 7196 H 848.128 1.44741 2.76508 0
M  V30 7197 N 848.429 -1.21819 0.999893 0
M  V30 7198 C 849.359 -2.26282 0.576096 0
M  V30 7199 C 850.34 -1.65317 -0.400537 0
M  V30 7200 O 851.525 -1.92028 -0.28964 0
M  V30 7201 C 848.655 -3.47147 -0.103145 0
M  V30 7202 C 847.609 -4.20594 0.792745 0
M  V30 7203 C 846.935 -5.34696 -0.0198026 0
M  V30 7204 C 848.235 -4.78533 2.09293 0
M  V30 7205 H 849.929 -2.61984 1.4493 0
M  V30 7206 H 847.475 -1.25935 0.698316 0
M  V30 7207 H 849.428 -4.1939 -0.411068 0
M  V30 7208 H 848.152 -3.1056 -1.01094 0
M  V30 7209 H 846.811 -3.50194 1.08442 0
M  V30 7210 H 846.459 -4.94352 -0.928729 0
M  V30 7211 H 846.159 -5.84764 0.576661 0
M  V30 7212 H 847.683 -6.09752 -0.321659 0
M  V30 7213 H 849.097 -5.42682 1.8485 0
M  V30 7214 H 847.494 -5.38968 2.63881 0
M  V30 7215 H 848.564 -3.98197 2.76708 0
M  V30 7216 N 849.908 -0.773975 -1.37286 0
M  V30 7217 C 851.156 -0.338636 -1.99243 0
M  V30 7218 C 851.477 1.08919 -1.61746 0
M  V30 7219 O 850.747 1.74822 -0.88397 0
M  V30 7220 H 849.327 -0.12222 -0.736934 0
M  V30 7221 H 851.989 -0.992595 -1.67731 0
M  V30 7222 H 851.085 -0.418055 -3.09287 0
M  V30 7223 N 851.386 1.48609 -0.524698 0
M  V30 7224 C 852.349 2.28041 0.230166 0
M  V30 7225 C 853.349 1.35065 0.872584 0
M  V30 7226 O 854.539 1.58007 0.73345 0
M  V30 7227 C 851.671 3.13778 1.33252 0
M  V30 7228 H 852.864 2.96239 -0.467161 0
M  V30 7229 H 850.417 1.53763 -0.280452 0
M  V30 7230 H 851.152 2.502 2.06327 0
M  V30 7231 H 850.937 3.82165 0.877058 0
M  V30 7232 H 852.427 3.7371 1.86362 0
M  V30 7233 N 852.864 0.259585 1.55447 0
M  V30 7234 C 854.112 -0.360893 1.98852 0
M  V30 7235 C 854.433 -1.57535 1.14924 0
M  V30 7236 O 853.703 -1.94485 0.235025 0
M  V30 7237 H 852.283 -0.136332 0.734454 0
M  V30 7238 H 854.945 0.361319 1.91522 0
M  V30 7239 H 854.041 -0.661388 3.05012 0
M  V30 7240 N 854.342 -1.57594 -0.0133615 0
M  V30 7241 C 855.591 -1.8916 -0.700103 0
M  V30 7242 C 855.904 -0.860147 -1.75673 0
M  V30 7243 O 857.11 -1.06556 -2.49716 0
M  V30 7244 C 855.566 -3.35742 -1.29635 0
M  V30 7245 C 855.174 -4.47154 -0.275249 0
M  V30 7246 C 856.918 -3.76436 -1.96205 0
M  V30 7247 C 854.825 -5.84805 -0.880726 0
M  V30 7248 H 853.755 -0.705805 -0.265247 0
M  V30 7249 H 856.406 -1.83445 0.044993 0
M  V30 7250 H 854.788 -3.36252 -2.09167 0
M  V30 7251 H 855.962 -4.58139 0.494506 0
M  V30 7252 H 854.277 -4.15394 0.289256 0
M  V30 7253 H 856.874 -4.76606 -2.42386 0
M  V30 7254 H 857.217 -3.09249 -2.78695 0
M  V30 7255 H 857.75 -3.78168 -1.23426 0
M  V30 7256 H 854.489 -6.55431 -0.0949013 0
M  V30 7257 H 854.009 -5.7751 -1.61995 0
M  V30 7258 H 855.688 -6.32038 -1.38338 0
M  V30 7259 N 855.82 0.285905 -1.54985 0
M  V30 7260 C 857.231 0.857869 -1.65824 0
M  V30 7261 C 857.582 1.87531 -0.576763 0
M  V30 7262 O 856.707 2.14528 0.284016 0
M  V30 7263 C 857.302 1.56277 -3.00604 0
M  V30 7264 C 855.861 2.08294 -3.13513 0
M  V30 7265 C 855.008 0.920633 -2.61571 0
M  V30 7266 H 857.959 0.0625463 -1.58577 0
M  V30 7267 H 857.98 2.42912 -2.92872 0
M  V30 7268 H 857.492 0.822017 -3.79295 0
M  V30 7269 H 855.593 2.8537 -2.39572 0
M  V30 7270 H 855.706 2.3071 -4.19892 0
M  V30 7271 H 854.07 1.31043 -2.18403 0
M  V30 7272 H 854.853 0.193594 -3.42754 0
M  V30 7273 N 857.298 1.47698 0.54982 0
M  V30 7274 C 858.546 1.54397 1.30407 0
M  V30 7275 C 858.867 0.211026 1.93855 0
M  V30 7276 O 858.137 -0.765701 1.80316 0
M  V30 7277 H 856.717 0.568747 0.484289 0
M  V30 7278 H 859.379 1.84042 0.641444 0
M  V30 7279 H 858.475 2.31449 2.09375 0
M  V30 7280 N 858.776 -0.797141 1.35954 0
M  V30 7281 C 859.706 -1.92387 1.32323 0
M  V30 7282 C 860.687 -1.68967 0.196007 0
M  V30 7283 O 861.872 -1.90193 0.39245 0
M  V30 7284 C 859.002 -3.29286 1.10398 0
M  V30 7285 C 857.956 -3.67212 2.19862 0
M  V30 7286 C 857.282 -5.02377 1.8309 0
M  V30 7287 C 858.582 -3.76602 3.61896 0
M  V30 7288 H 860.276 -1.95683 2.26602 0
M  V30 7289 H 857.822 -0.94007 1.09081 0
M  V30 7290 H 859.775 -4.07721 1.06495 0
M  V30 7291 H 858.499 -3.26358 0.125668 0
M  V30 7292 H 857.158 -2.91069 2.22878 0
M  V30 7293 H 856.806 -4.95961 0.838527 0
M  V30 7294 H 856.506 -5.28722 2.56372 0
M  V30 7295 H 858.03 -5.8324 1.80729 0
M  V30 7296 H 859.444 -4.45246 3.6115 0
M  V30 7297 H 857.841 -4.14425 4.34018 0
M  V30 7298 H 858.911 -2.77906 3.97361 0
M  V30 7299 N 860.254 -1.20106 -1.0204 0
M  V30 7300 C 861.502 -1.0069 -1.75231 0
M  V30 7301 C 861.823 0.462491 -1.89436 0
M  V30 7302 O 861.093 1.33455 -1.4341 0
M  V30 7303 H 859.673 -0.369576 -0.649171 0
M  V30 7304 H 862.335 -1.51149 -1.23044 0
M  V30 7305 H 861.431 -1.46205 -2.75736 0
M  V30 7306 N 861.732 1.21287 -1.00634 0
M  V30 7307 C 862.978 1.90671 -0.690822 0
M  V30 7308 C 863.311 1.77996 0.776592 0
M  V30 7309 O 862.586 1.15748 1.5631 0
M  V30 7310 C 862.869 3.42426 -1.11428 0
M  V30 7311 C 862.722 3.64086 -2.64124 0
M  V30 7312 C 864.041 4.34851 -0.677686 0
M  V30 7313 H 861.16 0.692419 -0.252439 0
M  V30 7314 H 863.802 1.42893 -1.25226 0
M  V30 7315 H 861.952 3.83249 -0.636586 0
M  V30 7316 H 863.624 3.32582 -3.19667 0
M  V30 7317 H 861.867 3.07906 -3.05576 0
M  V30 7318 H 862.538 4.7042 -2.88806 0
M  V30 7319 H 865.014 4.01619 -1.0882 0
M  V30 7320 H 863.89 5.39675 -1.00213 0
M  V30 7321 H 864.151 4.4009 0.421125 0
M  V30 7322 N 863.21 0.781244 1.36873 0
M  V30 7323 C 864.458 0.349198 1.9906 0
M  V30 7324 C 864.779 -1.0806 1.62321 0
M  V30 7325 O 864.049 -1.74351 0.893229 0
M  V30 7326 H 862.629 0.126126 0.736275 0
M  V30 7327 H 865.291 1.00148 1.67202 0
M  V30 7328 H 864.387 0.434451 3.09061 0
M  V30 7329 N 864.689 -1.48329 0.532571 0
M  V30 7330 C 865.935 -2.028 -0.000583219 0
M  V30 7331 C 866.268 -1.40858 -1.33688 0
M  V30 7332 O 865.543 -0.555261 -1.86406 0
M  V30 7333 C 865.826 -3.59901 -0.119846 0
M  V30 7334 C 865.679 -4.32318 1.2418 0
M  V30 7335 C 866.998 -4.31904 -0.845372 0
M  V30 7336 H 864.117 -0.736999 0.00126205 0
M  V30 7337 H 866.759 -1.77024 0.690102 0
M  V30 7338 H 864.909 -3.81993 -0.708092 0
M  V30 7339 H 866.581 -4.21637 1.87136 0
M  V30 7340 H 864.824 -3.93635 1.82301 0
M  V30 7341 H 865.495 -5.40697 1.11132 0
M  V30 7342 H 867.971 -4.14658 -0.346159 0
M  V30 7343 H 866.847 -5.41509 -0.897723 0
M  V30 7344 H 867.108 -3.99369 -1.89622 0
M  V30 7345 N 866.167 -0.267825 -1.55308 0
M  V30 7346 C 867.415 0.350343 -1.9904 0
M  V30 7347 C 867.736 1.56924 -1.15758 0
M  V30 7348 O 867.006 1.94358 -0.245336 0
M  V30 7349 H 865.586 0.132435 -0.735167 0
M  V30 7350 H 868.248 -0.371471 -1.91327 0
M  V30 7351 H 867.344 0.645203 -3.05358 0
M  V30 7352 N 867.645 1.57599 0.00500368 0
M  V30 7353 C 868.891 1.90631 0.691919 0
M  V30 7354 C 869.224 0.868443 1.737 0
M  V30 7355 O 868.499 -0.113482 1.94169 0
M  V30 7356 C 868.782 3.34255 1.33961 0
M  V30 7357 C 868.635 4.48755 0.306413 0
M  V30 7358 C 869.954 3.77211 2.26715 0
M  V30 7359 H 867.073 0.693279 0.250066 0
M  V30 7360 H 869.715 1.89946 -0.0452634 0
M  V30 7361 H 867.865 3.3497 1.96793 0
M  V30 7362 H 869.537 4.60176 -0.321841 0
M  V30 7363 H 867.78 4.32203 -0.371852 0
M  V30 7364 H 868.451 5.46193 0.798554 0
M  V30 7365 H 870.927 3.78017 1.73904 0
M  V30 7366 H 869.803 4.78466 2.69002 0
M  V30 7367 H 870.064 3.10801 3.14413 0
M  V30 7368 N 869.123 -0.277682 1.55134 0
M  V30 7369 C 870.534 -0.849063 1.66276 0
M  V30 7370 C 870.885 -1.87223 0.5867 0
M  V30 7371 O 870.01 -2.14676 -0.272635 0
M  V30 7372 C 870.605 -1.54681 3.01429 0
M  V30 7373 C 869.164 -2.06628 3.14614 0
M  V30 7374 C 868.311 -0.906748 2.62056 0
M  V30 7375 H 871.262 -0.0541357 1.58608 0
M  V30 7376 H 871.283 -2.41356 2.94156 0
M  V30 7377 H 870.795 -0.80189 3.79725 0
M  V30 7378 H 868.896 -2.84095 2.41082 0
M  V30 7379 H 869.009 -2.2848 4.2111 0
M  V30 7380 H 867.373 -1.29882 2.19095 0
M  V30 7381 H 868.156 -0.175414 3.42852 0
M  V30 7382 N 870.601 -1.47988 -0.541979 0
M  V30 7383 C 871.849 -1.55086 -1.29587 0
M  V30 7384 C 872.17 -0.221304 -1.9374 0
M  V30 7385 O 871.44 0.756128 -1.80719 0
M  V30 7386 H 870.02 -0.571307 -0.481266 0
M  V30 7387 H 872.682 -1.8438 -0.631675 0
M  V30 7388 H 871.778 -2.32556 -2.08144 0
M  V30 7389 N 872.079 0.78992 -1.36375 0
M  V30 7390 C 873.009 1.91683 -1.33341 0
M  V30 7391 C 873.99 1.68861 -0.204965 0
M  V30 7392 O 875.175 1.89982 -0.402531 0
M  V30 7393 C 872.305 3.28696 -1.12143 0
M  V30 7394 C 871.259 3.66041 -2.21806 0
M  V30 7395 C 870.585 5.01399 -1.85751 0
M  V30 7396 C 871.885 3.74677 -3.63888 0
M  V30 7397 H 873.579 1.94478 -2.27637 0
M  V30 7398 H 871.125 0.934271 -1.09578 0
M  V30 7399 H 873.078 4.07151 -1.08656 0
M  V30 7400 H 871.802 3.26287 -0.142974 0
M  V30 7401 H 870.461 2.89883 -2.24418 0
M  V30 7402 H 870.109 4.9551 -0.864817 0
M  V30 7403 H 869.809 5.27355 -2.59173 0
M  V30 7404 H 871.333 5.82274 -1.83819 0
M  V30 7405 H 872.747 4.43324 -3.63506 0
M  V30 7406 H 871.144 4.12118 -4.3621 0
M  V30 7407 H 872.214 2.75795 -3.9883 0
M  V30 7408 N 873.557 1.20646 1.01402 0
M  V30 7409 C 874.805 1.01618 1.74695 0
M  V30 7410 C 875.126 -0.452438 1.89679 0
M  V30 7411 O 874.396 -1.32693 1.44116 0
M  V30 7412 H 872.976 0.373013 0.647202 0
M  V30 7413 H 875.638 1.518 1.22241 0
M  V30 7414 H 874.734 1.47666 2.74957 0
M  V30 7415 N 875.035 -1.20752 1.01276 0
M  V30 7416 C 876.281 -1.90302 0.700924 0
M  V30 7417 C 876.614 -1.78406 -0.767142 0
M  V30 7418 O 875.889 -1.16575 -1.55694 0
M  V30 7419 C 876.172 -3.41831 1.13242 0
M  V30 7420 C 876.025 -3.6268 2.66051 0
M  V30 7421 C 877.344 -4.34486 0.700738 0
M  V30 7422 H 874.463 -0.69107 0.256107 0
M  V30 7423 H 877.105 -1.42227 1.25982 0
M  V30 7424 H 875.255 -3.82906 0.656902 0
M  V30 7425 H 876.927 -3.30882 3.21426 0
M  V30 7426 H 875.17 -3.06281 3.07204 0
M  V30 7427 H 875.841 -4.68882 2.91296 0
M  V30 7428 H 878.317 -4.01036 1.10948 0
M  V30 7429 H 877.193 -5.39136 1.03073 0
M  V30 7430 H 877.454 -4.40307 -0.39778 0
M  V30 7431 N 876.513 -0.788492 -1.36457 0
M  V30 7432 C 877.761 -0.359749 -1.98872 0
M  V30 7433 C 878.082 1.07197 -1.62892 0
M  V30 7434 O 877.352 1.73875 -0.902463 0
M  V30 7435 H 875.932 -0.130029 -0.735596 0
M  V30 7436 H 878.594 -1.01033 -1.66668 0
M  V30 7437 H 877.69 -0.450835 -3.08827 0
M  V30 7438 N 877.991 1.48044 -0.54043 0
M  V30 7439 C 878.954 2.28273 0.205966 0
M  V30 7440 C 879.954 1.35983 0.858209 0
M  V30 7441 O 881.144 1.58776 0.716651 0
M  V30 7442 C 878.276 3.15174 1.29917 0
M  V30 7443 H 879.469 2.95727 -0.498555 0
M  V30 7444 H 877.022 1.53457 -0.296745 0
M  V30 7445 H 877.757 2.52374 2.03661 0
M  V30 7446 H 877.542 3.83074 0.836475 0
M  V30 7447 H 879.032 3.75666 1.82387 0
M  V30 7448 N 879.47 0.276058 1.55163 0
M  V30 7449 C 880.718 -0.339782 1.99223 0
M  V30 7450 C 881.039 -1.56307 1.16589 0
M  V30 7451 O 880.309 -1.94225 0.25564 0
M  V30 7452 H 878.889 -0.128534 0.735859 0
M  V30 7453 H 881.551 0.381612 1.91128 0
M  V30 7454 H 880.647 -0.629 3.05696 0
M  V30 7455 N 880.948 -1.576 0.00335426 0
M  V30 7456 C 882.194 -1.90996 -0.681799 0
M  V30 7457 C 882.527 -0.877643 -1.73237 0
M  V30 7458 O 881.802 0.103183 -1.94226 0
M  V30 7459 C 882.085 -3.34961 -1.32187 0
M  V30 7460 C 881.938 -4.48911 -0.28261 0
M  V30 7461 C 883.257 -3.78408 -2.24711 0
M  V30 7462 H 880.376 -0.694596 -0.246386 0
M  V30 7463 H 883.018 -1.89919 0.055336 0
M  V30 7464 H 881.168 -3.36008 -1.95014 0
M  V30 7465 H 882.84 -4.59999 0.346241 0
M  V30 7466 H 881.083 -4.32 0.394768 0
M  V30 7467 H 881.754 -5.46609 -0.769576 0
M  V30 7468 H 884.23 -3.78934 -1.71897 0
M  V30 7469 H 883.106 -4.79885 -2.66461 0
M  V30 7470 H 883.367 -3.12464 -3.1276 0
M  V30 7471 N 882.426 0.269451 -1.5528 0
M  V30 7472 C 883.837 0.840233 -1.66724 0
M  V30 7473 C 884.188 1.86909 -0.596621 0
M  V30 7474 O 883.313 2.14817 0.261246 0
M  V30 7475 C 883.908 1.5308 -3.02245 0
M  V30 7476 C 882.467 2.04957 -3.15705 0
M  V30 7477 C 881.614 0.892838 -2.62533 0
M  V30 7478 H 884.565 0.0457236 -1.58634 0
M  V30 7479 H 884.586 2.39792 -2.95432 0
M  V30 7480 H 884.098 0.781741 -3.80145 0
M  V30 7481 H 882.199 2.82813 -2.42585 0
M  V30 7482 H 882.312 2.26244 -4.22316 0
M  V30 7483 H 880.676 1.28719 -2.19781 0
M  V30 7484 H 881.459 0.157229 -3.4294 0
M  V30 7485 N 883.904 1.48273 0.534124 0
M  V30 7486 C 885.152 1.55771 1.28762 0
M  V30 7487 C 885.473 0.231575 1.9362 0
M  V30 7488 O 884.743 -0.746533 1.81118 0
M  V30 7489 H 883.323 0.573851 0.47823 0
M  V30 7490 H 885.985 1.84712 0.621888 0
M  V30 7491 H 885.081 2.33657 2.06908 0
M  V30 7492 N 885.382 -0.782676 1.36792 0
M  V30 7493 C 886.312 -1.90973 1.34356 0
M  V30 7494 C 887.293 -1.6875 0.213917 0
M  V30 7495 O 888.478 -1.89766 0.412601 0
M  V30 7496 C 885.608 -3.28097 1.13884 0
M  V30 7497 C 884.562 -3.6486 2.23744 0
M  V30 7498 C 883.888 -5.00406 1.88408 0
M  V30 7499 C 885.188 -3.72742 3.6587 0
M  V30 7500 H 886.882 -1.93268 2.28665 0
M  V30 7501 H 884.428 -0.928447 1.10072 0
M  V30 7502 H 886.381 -4.06569 1.10813 0
M  V30 7503 H 885.105 -3.26206 0.160275 0
M  V30 7504 H 883.764 -2.88689 2.25952 0
M  V30 7505 H 883.412 -4.95044 0.891083 0
M  V30 7506 H 883.112 -5.25973 2.61966 0
M  V30 7507 H 884.636 -5.81291 1.86905 0
M  V30 7508 H 886.05 -4.4139 3.65852 0
M  V30 7509 H 884.447 -4.09798 4.38389 0
M  V30 7510 H 885.517 -2.73676 4.00287 0
M  V30 7511 N 886.86 -1.21182 -1.00761 0
M  V30 7512 C 888.108 -1.02543 -1.74153 0
M  V30 7513 C 888.429 0.442372 -1.89916 0
M  V30 7514 O 887.699 1.31927 -1.44818 0
M  V30 7515 H 886.279 -0.37644 -0.645214 0
M  V30 7516 H 888.941 -1.52446 -1.21434 0
M  V30 7517 H 888.037 -1.49122 -2.7417 0
M  V30 7518 N 888.338 1.20213 -1.01915 0
M  V30 7519 C 889.584 1.89928 -0.711007 0
M  V30 7520 C 889.917 1.7881 0.75767 0
M  V30 7521 O 889.192 1.17399 1.55073 0
M  V30 7522 C 889.475 3.41225 -1.15053 0
M  V30 7523 C 889.328 3.61264 -2.67971 0
M  V30 7524 C 890.647 4.34108 -0.72377 0
M  V30 7525 H 887.766 0.689702 -0.259768 0
M  V30 7526 H 890.408 1.41557 -1.26734 0
M  V30 7527 H 888.558 3.82552 -0.677199 0
M  V30 7528 H 890.23 3.29173 -3.23176 0
M  V30 7529 H 888.473 3.04647 -3.08824 0
M  V30 7530 H 889.144 4.67331 -2.93779 0
M  V30 7531 H 891.62 4.00442 -1.13073 0
M  V30 7532 H 890.496 5.38581 -1.05931 0
M  V30 7533 H 890.757 4.40512 0.374424 0
M  V30 7534 N 889.816 0.795718 1.36037 0
M  V30 7535 C 891.064 0.370291 1.98679 0
M  V30 7536 C 891.385 -1.06332 1.63458 0
M  V30 7537 O 890.655 -1.73394 0.911671 0
M  V30 7538 H 889.235 0.133928 0.734896 0
M  V30 7539 H 891.897 1.01915 1.6613 0
M  V30 7540 H 890.993 0.467207 3.08583 0
M  V30 7541 N 891.294 -1.47756 0.548274 0
M  V30 7542 C 892.257 -2.28379 -0.193857 0
M  V30 7543 C 893.257 -1.36436 -0.850986 0
M  V30 7544 O 894.447 -1.59154 -0.70822 0
M  V30 7545 C 891.579 -3.15858 -1.28243 0
M  V30 7546 H 892.772 -2.95458 0.514231 0
M  V30 7547 H 890.325 -1.53298 0.304879 0
M  V30 7548 H 891.06 -2.5345 -2.0232 0
M  V30 7549 H 890.845 -3.83512 -0.816148 0
M  V30 7550 H 892.335 -3.76627 -1.80393 0
M  V30 7551 N 892.772 -0.284283 -1.55015 0
M  V30 7552 C 894.02 0.329212 -1.99401 0
M  V30 7553 C 894.341 1.55687 -1.17416 0
M  V30 7554 O 893.611 1.94087 -0.265937 0
M  V30 7555 H 892.191 0.12463 -0.73653 0
M  V30 7556 H 894.853 -0.391743 -1.90922 0
M  V30 7557 H 893.949 0.61278 -3.06025 0
M  V30 7558 N 894.251 1.57596 -0.0117121 0
M  V30 7559 C 895.497 1.91355 0.671661 0
M  V30 7560 C 895.83 0.886818 1.72769 0
M  V30 7561 O 895.105 -0.0928813 1.94278 0
M  V30 7562 C 895.388 3.35657 1.30409 0
M  V30 7563 C 895.241 4.49055 0.2588 0
M  V30 7564 C 896.56 3.79595 2.22701 0
M  V30 7565 H 893.679 0.695893 0.242698 0
M  V30 7566 H 896.321 1.89887 -0.0654071 0
M  V30 7567 H 894.471 3.37038 1.9323 0
M  V30 7568 H 896.143 4.59809 -0.370631 0
M  V30 7569 H 894.386 4.31785 -0.417672 0
M  V30 7570 H 895.057 5.4701 0.740578 0
M  V30 7571 H 897.533 3.7984 1.69885 0
M  V30 7572 H 896.409 4.81292 2.63912 0
M  V30 7573 H 896.67 3.14118 3.11098 0
M  V30 7574 N 895.729 -0.261212 1.5542 0
M  V30 7575 C 897.14 -0.83138 1.67167 0
M  V30 7576 C 897.491 -1.8659 0.606525 0
M  V30 7577 O 896.616 -2.14953 -0.24985 0
M  V30 7578 C 897.211 -1.51475 3.03052 0
M  V30 7579 C 895.77 -2.0328 3.16787 0
M  V30 7580 C 894.917 -0.878903 2.63003 0
M  V30 7581 H 897.868 -0.0373102 1.58656 0
M  V30 7582 H 897.889 -2.38222 2.96699 0
M  V30 7583 H 897.401 -0.76157 3.80554 0
M  V30 7584 H 895.502 -2.81523 2.44082 0
M  V30 7585 H 895.615 -2.24001 4.2351 0
M  V30 7586 H 893.979 -1.27551 2.2046 0
M  V30 7587 H 894.762 -0.13904 3.43018 0
M  V30 7588 N 897.207 -1.48554 -0.526253 0
M  V30 7589 C 898.455 -1.56452 -1.27935 0
M  V30 7590 C 898.776 -0.24184 -1.93495 0
M  V30 7591 O 898.046 0.736917 -1.81511 0
M  V30 7592 H 896.626 -0.576379 -0.47518 0
M  V30 7593 H 899.288 -1.85039 -0.612083 0
M  V30 7594 H 898.384 -2.34751 -2.05666 0
M  V30 7595 N 898.685 0.775411 -1.37205 0
M  V30 7596 C 899.932 1.53384 -1.32211 0
M  V30 7597 C 900.26 1.9427 0.0944958 0
M  V30 7598 O 899.515 1.64059 1.06692 0
M  V30 7599 C 899.814 2.81377 -2.20367 0
M  V30 7600 C 899.48 2.59561 -3.68699 0
M  V30 7601 C 898.142 2.53319 -4.09124 0
M  V30 7602 C 900.494 2.39939 -4.62686 0
M  V30 7603 C 897.822 2.25442 -5.41658 0
M  V30 7604 C 900.174 2.13586 -5.95453 0
M  V30 7605 C 898.838 2.05786 -6.34987 0
M  V30 7606 H 898.108 0.561271 -0.483793 0
M  V30 7607 H 900.755 0.893466 -1.6938 0
M  V30 7608 H 899.06 3.49954 -1.76181 0
M  V30 7609 H 900.757 3.39238 -2.13819 0
M  V30 7610 H 897.347 2.6528 -3.36637 0
M  V30 7611 H 901.531 2.43753 -4.32317 0
M  V30 7612 H 896.787 2.17896 -5.71254 0
M  V30 7613 H 900.961 1.97401 -6.67837 0
M  V30 7614 H 898.588 1.83948 -7.37609 0
M  V30 7615 N 900.163 1.21714 1.00117 0
M  V30 7616 C 901.411 1.03465 1.73607 0
M  V30 7617 C 901.732 -0.432295 1.90148 0
M  V30 7618 O 901.002 -1.31157 1.45515 0
M  V30 7619 H 899.582 0.379857 0.643209 0
M  V30 7620 H 902.244 1.53088 1.20624 0
M  V30 7621 H 901.34 1.50574 2.73375 0
M  V30 7622 N 901.641 -1.19671 1.02551 0
M  V30 7623 C 902.604 -2.20987 0.608055 0
M  V30 7624 C 903.604 -1.5745 -0.326534 0
M  V30 7625 O 904.794 -1.73827 -0.114003 0
M  V30 7626 C 901.926 -3.4072 -0.11074 0
M  V30 7627 H 903.119 -2.59434 1.50446 0
M  V30 7628 H 900.672 -1.3329 0.816307 0
M  V30 7629 H 901.407 -3.07787 -1.02165 0
M  V30 7630 H 901.192 -3.88069 0.560772 0
M  V30 7631 H 902.682 -4.15776 -0.389848 0
M  V30 7632 N 903.119 -0.802921 -1.35613 0
M  V30 7633 C 904.367 -0.380822 -1.9848 0
M  V30 7634 C 904.688 1.05464 -1.6402 0
M  V30 7635 O 903.958 1.72908 -0.920854 0
M  V30 7636 H 902.538 -0.137824 -0.734176 0
M  V30 7637 H 905.2 -1.02795 -1.65587 0
M  V30 7638 H 904.296 -0.483565 -3.08331 0
M  V30 7639 N 904.597 1.47463 -0.556102 0
M  V30 7640 C 905.56 2.28478 0.181743 0
M  V30 7641 C 906.56 1.36886 0.843738 0
M  V30 7642 O 907.75 1.59527 0.69977 0
M  V30 7643 C 904.882 3.16534 1.26566 0
M  V30 7644 H 906.075 2.95182 -0.529892 0
M  V30 7645 H 903.628 1.53134 -0.313005 0
M  V30 7646 H 904.363 2.5452 2.00973 0
M  V30 7647 H 904.148 3.83939 0.795798 0
M  V30 7648 H 905.638 3.77579 1.78393 0
M  V30 7649 N 906.075 0.2925 1.54862 0
M  V30 7650 C 907.352 -0.371946 1.92031 0
M  V30 7651 C 907.732 -1.72363 1.21878 0
M  V30 7652 O 907.08 -2.25779 0.351573 0
M  V30 7653 C 907.29 -0.495027 3.45471 0
M  V30 7654 C 908.638 -0.769855 4.17562 0
M  V30 7655 O 909.662 -0.579168 3.5146 0
M  V30 7656 O 908.521 -1.13561 5.34571 0
M  V30 7657 H 905.615 -0.206463 0.800813 0
M  V30 7658 H 908.161 0.339933 1.6626 0
M  V30 7659 H 906.933 0.455528 3.88639 0
M  V30 7660 H 906.556 -1.2557 3.7725 0
M  V30 7661 N 907.553 -1.57587 0.0200696 0
M  V30 7662 C 908.463 -2.13119 -0.980676 0
M  V30 7663 C 909.479 -1.08124 -1.36328 0
M  V30 7664 O 910.655 -1.40134 -1.44653 0
M  V30 7665 C 907.72 -2.63991 -2.24743 0
M  V30 7666 C 906.781 -3.83667 -1.9261 0
M  V30 7667 C 906.014 -4.32103 -3.13246 0
M  V30 7668 O 906.237 -3.79758 -4.25606 0
M  V30 7669 O 905.171 -5.24047 -2.96072 0
M  V30 7670 H 908.997 -2.98887 -0.538528 0
M  V30 7671 H 906.582 -1.48055 -0.19999 0
M  V30 7672 H 908.464 -2.9682 -2.99125 0
M  V30 7673 H 907.139 -1.81311 -2.68157 0
M  V30 7674 H 906.046 -3.55778 -1.15641 0
M  V30 7675 H 907.379 -4.67482 -1.54019 0
M  V30 7676 N 909.032 0.252966 -1.55557 0
M  V30 7677 C 910.28 0.979912 -1.76754 0
M  V30 7678 C 910.601 1.86083 -0.582944 0
M  V30 7679 O 909.871 1.91742 0.401497 0
M  V30 7680 H 908.451 0.364805 -0.651864 0
M  V30 7681 H 911.113 0.272372 -1.92987 0
M  V30 7682 H 910.209 1.60518 -2.67657 0
M  V30 7683 N 910.51 1.48831 0.518367 0
M  V30 7684 C 911.756 1.57672 1.27543 0
M  V30 7685 C 912.089 0.254915 1.9252 0
M  V30 7686 O 911.364 -0.740107 1.79868 0
M  V30 7687 C 911.647 2.72345 2.35585 0
M  V30 7688 C 911.5 4.14267 1.75224 0
M  V30 7689 C 912.819 2.82726 3.37274 0
M  V30 7690 H 909.938 0.573926 0.462361 0
M  V30 7691 H 912.58 1.8105 0.576267 0
M  V30 7692 H 910.73 2.52543 2.95219 0
M  V30 7693 H 912.402 4.45539 1.19551 0
M  V30 7694 H 910.645 4.20724 1.05706 0
M  V30 7695 H 911.316 4.90345 2.53507 0
M  V30 7696 H 913.792 3.00699 2.8761 0
M  V30 7697 H 912.668 3.6467 4.10252 0
M  V30 7698 H 912.929 1.9136 3.9854 0
M  V30 7699 N 911.988 -0.768124 1.37614 0
M  V30 7700 C 913.404 -1.06919 1.18493 0
M  V30 7701 C 913.604 -2.01486 0.0235753 0
M  V30 7702 O 912.66 -2.4438 -0.635209 0
M  V30 7703 C 913.973 -1.66321 2.50515 0
M  V30 7704 C 915.521 -1.78562 2.57069 0
M  V30 7705 C 915.996 -2.41377 3.89231 0
M  V30 7706 N 917.487 -2.48824 3.90693 0
M  V30 7707 C 918.222 -2.98288 4.89706 0
M  V30 7708 N 917.718 -3.47897 5.99115 0
M  V30 7709 N 919.511 -2.97196 4.77107 0
M  V30 7710 H 911.662 -0.140286 2.11936 0
M  V30 7711 H 913.925 -0.124863 0.939741 0
M  V30 7712 H 913.631 -1.04303 3.35878 0
M  V30 7713 H 913.505 -2.65571 2.67866 0
M  V30 7714 H 915.892 -2.39712 1.72111 0
M  V30 7715 H 915.973 -0.780574 2.43599 0
M  V30 7716 H 915.617 -1.80866 4.74605 0
M  V30 7717 H 915.547 -3.42495 4.00006 0
M  V30 7718 H 918.038 -2.1372 3.1166 0
M  V30 7719 H 918.351 -3.84053 6.70614 0
M  V30 7720 H 916.696 -3.45993 6.02755 0
M  V30 7721 H 919.887 -2.57741 3.90752 0
M  V30 7722 H 920.06 -3.35434 5.54426 0
M  V30 7723 N 913.466 -1.22244 -0.994698 0
M  V30 7724 C 914.882 -0.982006 -1.25813 0
M  V30 7725 C 915.082 0.325488 -1.98854 0
M  V30 7726 O 914.138 1.04857 -2.29698 0
M  V30 7727 C 915.451 -2.1795 -2.07167 0
M  V30 7728 C 916.999 -2.22287 -2.20358 0
M  V30 7729 C 917.474 -3.41583 -3.05098 0
M  V30 7730 N 918.965 -3.41734 -3.12686 0
M  V30 7731 C 919.7 -4.30692 -3.78539 0
M  V30 7732 N 919.196 -5.29865 -4.46335 0
M  V30 7733 N 920.989 -4.18473 -3.75283 0
M  V30 7734 H 913.14 -2.0631 -0.504963 0
M  V30 7735 H 915.403 -0.90395 -0.285618 0
M  V30 7736 H 915.109 -3.12758 -1.60858 0
M  V30 7737 H 914.983 -2.17862 -3.07922 0
M  V30 7738 H 917.37 -1.28028 -2.65881 0
M  V30 7739 H 917.451 -2.26414 -1.19039 0
M  V30 7740 H 917.095 -4.36141 -2.60275 0
M  V30 7741 H 917.025 -3.34695 -4.06555 0
M  V30 7742 H 919.516 -2.69969 -2.64433 0
M  V30 7743 H 919.829 -5.94027 -4.9432 0
M  V30 7744 H 918.174 -5.3378 -4.45089 0
M  V30 7745 H 921.365 -3.40249 -3.21478 0
M  V30 7746 H 921.538 -4.88007 -4.26326 0
M  V30 7747 N 914.944 1.19125 -1.03184 0
M  V30 7748 C 916.169 1.93379 -0.749628 0
M  V30 7749 C 916.594 1.75153 0.685785 0
M  V30 7750 O 915.952 1.05579 1.47386 0
M  V30 7751 C 916 3.43101 -1.1097 0
M  V30 7752 O 915.104 4.11758 -0.230053 0
M  V30 7753 H 914.445 0.603605 -0.276689 0
M  V30 7754 H 916.975 1.51116 -1.37931 0
M  V30 7755 H 916.985 3.93778 -1.06785 0
M  V30 7756 H 915.66 3.55688 -2.15544 0
M  V30 7757 H 914.237 3.7143 -0.330748 0
M  V30 7758 N 916.422 0.810101 1.35185 0
M  V30 7759 C 917.352 0.237453 2.32289 0
M  V30 7760 C 918.333 -0.639032 1.5764 0
M  V30 7761 O 919.518 -0.568575 1.8569 0
M  V30 7762 C 916.648 -0.611964 3.41866 0
M  V30 7763 C 915.602 0.166318 4.27677 0
M  V30 7764 C 914.928 -0.805024 5.28605 0
M  V30 7765 C 916.228 1.36729 5.04086 0
M  V30 7766 H 917.922 1.04874 2.80432 0
M  V30 7767 H 915.468 0.505751 1.34826 0
M  V30 7768 H 917.421 -1.02267 4.08802 0
M  V30 7769 H 916.145 -1.45617 2.92341 0
M  V30 7770 H 914.804 0.558238 3.62325 0
M  V30 7771 H 914.452 -1.64483 4.75347 0
M  V30 7772 H 914.152 -0.288577 5.86891 0
M  V30 7773 H 915.676 -1.21386 5.98413 0
M  V30 7774 H 917.09 1.03128 5.63948 0
M  V30 7775 H 915.487 1.81848 5.71884 0
M  V30 7776 H 916.557 2.15214 4.34524 0
M  V30 7777 N 917.9 -1.47166 0.563914 0
M  V30 7778 C 919.125 -2.0735 0.0454698 0
M  V30 7779 C 919.55 -1.41281 -1.24182 0
M  V30 7780 O 918.908 -0.490084 -1.7455 0
M  V30 7781 C 918.956 -3.60378 -0.126453 0
M  V30 7782 O 918.06 -3.94934 -1.18746 0
M  V30 7783 H 917.401 -0.661773 0.0543377 0
M  V30 7784 H 919.931 -1.89086 0.781508 0
M  V30 7785 H 919.941 -4.06593 -0.338554 0
M  V30 7786 H 918.616 -4.07862 0.81373 0
M  V30 7787 H 917.193 -3.60455 -0.955318 0
M  V30 7788 N 919.378 -0.300708 -1.54705 0
M  V30 7789 C 920.789 0.191995 -1.8571 0
M  V30 7790 C 921.14 1.53447 -1.22264 0
M  V30 7791 O 920.265 2.10054 -0.520226 0
M  V30 7792 C 920.86 0.355148 -3.36933 0
M  V30 7793 C 919.419 0.792071 -3.67972 0
M  V30 7794 C 918.566 -0.099756 -2.77121 0
M  V30 7795 H 921.517 -0.521729 -1.49879 0
M  V30 7796 H 921.538 1.18977 -3.61421 0
M  V30 7797 H 921.05 -0.622075 -3.83082 0
M  V30 7798 H 919.151 1.77986 -3.27341 0
M  V30 7799 H 919.264 0.611661 -4.75179 0
M  V30 7800 H 917.628 0.420909 -2.51198 0
M  V30 7801 H 918.411 -1.07333 -3.2609 0
M  V30 7802 N 920.856 1.57574 -0.0284266 0
M  V30 7803 C 921.766 2.13637 0.96936 0
M  V30 7804 C 922.782 1.08845 1.35752 0
M  V30 7805 O 923.958 1.40899 1.43908 0
M  V30 7806 C 921.023 2.65179 2.2334 0
M  V30 7807 C 920.084 3.84683 1.90572 0
M  V30 7808 C 919.317 4.33758 3.1095 0
M  V30 7809 O 919.54 3.82009 4.23586 0
M  V30 7810 O 918.474 5.2561 2.93288 0
M  V30 7811 H 922.3 2.99169 0.52267 0
M  V30 7812 H 919.885 1.48159 0.192135 0
M  V30 7813 H 921.767 2.98402 2.97547 0
M  V30 7814 H 920.442 1.82731 2.67191 0
M  V30 7815 H 919.349 3.56386 1.13753 0
M  V30 7816 H 920.682 4.68292 1.51538 0
M  V30 7817 N 922.334 -0.244713 1.55689 0
M  V30 7818 C 923.264 -1.30667 1.93516 0
M  V30 7819 C 924.245 -1.50094 0.800371 0
M  V30 7820 O 925.43 -1.62665 1.06083 0
M  V30 7821 C 922.56 -2.66101 2.23176 0
M  V30 7822 C 921.514 -2.61366 3.38927 0
M  V30 7823 C 920.84 -4.00616 3.54134 0
M  V30 7824 C 922.14 -2.18161 4.74555 0
M  V30 7825 H 923.834 -0.992546 2.82469 0
M  V30 7826 H 921.38 -0.476018 1.35905 0
M  V30 7827 H 923.333 -3.4053 2.48228 0
M  V30 7828 H 922.057 -2.99154 1.31051 0
M  V30 7829 H 920.716 -1.89395 3.13887 0
M  V30 7830 H 920.364 -4.30938 2.59426 0
M  V30 7831 H 920.064 -3.98335 4.31975 0
M  V30 7832 H 921.588 -4.76741 3.8151 0
M  V30 7833 H 923.002 -2.82323 4.98965 0
M  V30 7834 H 921.399 -2.26988 5.55515 0
M  V30 7835 H 922.469 -1.13333 4.7147 0
M  V30 7836 N 923.813 -1.49104 -0.510467 0
M  V30 7837 C 925.229 -1.35657 -0.840797 0
M  V30 7838 C 925.429 -0.382425 -1.97838 0
M  V30 7839 O 924.485 0.189331 -2.51789 0
M  V30 7840 C 925.798 -2.76155 -1.18992 0
M  V30 7841 C 927.346 -2.84786 -1.29868 0
M  V30 7842 C 927.821 -4.2603 -1.68115 0
M  V30 7843 N 929.312 -4.28796 -1.75181 0
M  V30 7844 C 930.047 -5.35041 -2.062 0
M  V30 7845 N 929.543 -6.51543 -2.35508 0
M  V30 7846 N 931.336 -5.2245 -2.07371 0
M  V30 7847 H 923.487 -2.11042 0.23982 0
M  V30 7848 H 925.75 -0.946946 0.0446824 0
M  V30 7849 H 925.456 -3.49092 -0.427484 0
M  V30 7850 H 925.33 -3.10922 -2.13558 0
M  V30 7851 H 927.717 -2.12092 -2.05186 0
M  V30 7852 H 927.798 -2.53613 -0.333758 0
M  V30 7853 H 927.442 -4.99247 -0.933512 0
M  V30 7854 H 927.372 -4.5466 -2.65691 0
M  V30 7855 H 929.863 -3.44771 -1.5473 0
M  V30 7856 H 930.176 -7.28342 -2.58337 0
M  V30 7857 H 928.521 -6.54785 -2.32985 0
M  V30 7858 H 931.712 -4.30444 -1.83945 0
M  V30 7859 H 931.885 -6.05347 -2.31212 0
M  V30 7860 N 925.291 0.760815 -1.38019 0
M  V30 7861 C 926.201 1.90526 -1.36884 0
M  V30 7862 C 927.217 1.71941 -0.266908 0
M  V30 7863 O 928.393 1.94988 -0.50413 0
M  V30 7864 C 925.458 3.25799 -1.18558 0
M  V30 7865 C 924.519 3.56961 -2.3849 0
M  V30 7866 C 923.752 4.8578 -2.21029 0
M  V30 7867 O 923.975 5.57629 -1.20023 0
M  V30 7868 O 922.909 5.16254 -3.0946 0
M  V30 7869 H 926.735 1.94437 -2.33298 0
M  V30 7870 H 924.32 0.905091 -1.18863 0
M  V30 7871 H 926.202 4.0669 -1.1037 0
M  V30 7872 H 924.877 3.22716 -0.252241 0
M  V30 7873 H 923.784 2.7626 -2.52252 0
M  V30 7874 H 925.117 3.64798 -3.30429 0
M  V30 7875 N 926.769 1.22769 0.988202 0
M  V30 7876 C 928.017 1.05301 1.725 0
M  V30 7877 C 928.338 -0.412103 1.90596 0
M  V30 7878 O 927.608 -1.29606 1.46898 0
M  V30 7879 H 926.188 0.386658 0.639144 0
M  V30 7880 H 928.85 1.54359 1.18993 0
M  V30 7881 H 927.946 1.53465 2.71763 0
M  V30 7882 N 928.247 -1.18576 1.03814 0
M  V30 7883 C 929.524 -1.8433 0.654358 0
M  V30 7884 C 929.904 -1.92504 -0.866338 0
M  V30 7885 O 929.252 -1.44904 -1.76678 0
M  V30 7886 C 929.462 -3.22778 1.32723 0
M  V30 7887 C 930.81 -3.98841 1.45641 0
M  V30 7888 O 931.834 -3.32209 1.28514 0
M  V30 7889 O 930.693 -5.18219 1.73526 0
M  V30 7890 H 927.787 -0.794766 0.228638 0
M  V30 7891 H 930.333 -1.25989 1.13687 0
M  V30 7892 H 929.105 -3.11717 2.36534 0
M  V30 7893 H 928.728 -3.88772 0.833176 0
M  V30 7894 N 929.725 -0.817259 -1.34754 0
M  V30 7895 C 931.136 -0.462215 -1.80888 0
M  V30 7896 C 931.487 1.01685 -1.67794 0
M  V30 7897 O 930.612 1.79094 -1.21468 0
M  V30 7898 C 931.207 -0.832204 -3.2842 0
M  V30 7899 C 929.766 -0.52961 -3.72655 0
M  V30 7900 C 928.913 -1.05214 -2.56564 0
M  V30 7901 H 931.864 -1.00795 -1.22581 0
M  V30 7902 H 931.885 -0.133804 -3.80265 0
M  V30 7903 H 931.397 -1.90873 -3.37919 0
M  V30 7904 H 929.498 0.537743 -3.68699 0
M  V30 7905 H 929.611 -1.06971 -4.67005 0
M  V30 7906 H 927.975 -0.473949 -2.50251 0
M  V30 7907 H 928.758 -2.135 -2.68836 0
M  V30 7908 N 931.203 1.46865 -0.571711 0
M  V30 7909 C 932.428 2.07323 -0.0564655 0
M  V30 7910 C 932.853 1.41938 1.23431 0
M  V30 7911 O 932.211 0.499334 1.74288 0
M  V30 7912 C 932.259 3.6044 0.107339 0
M  V30 7913 O 931.363 3.95558 1.1665 0
M  V30 7914 H 930.704 0.661475 -0.0578465 0
M  V30 7915 H 933.234 1.88669 -0.791524 0
M  V30 7916 H 933.244 4.06767 0.316987 0
M  V30 7917 H 931.919 4.07425 -0.835348 0
M  V30 7918 H 930.496 3.60957 0.936189 0
M  V30 7919 N 932.681 0.308908 1.54543 0
M  V30 7920 C 933.906 -0.303196 2.05172 0
M  V30 7921 C 934.331 -1.46133 1.18434 0
M  V30 7922 O 933.689 -1.803 0.190162 0
M  V30 7923 C 933.737 -0.729526 3.53143 0
M  V30 7924 O 932.841 -1.83348 3.69401 0
M  V30 7925 H 932.182 -0.0575066 0.661505 0
M  V30 7926 H 934.712 0.453055 1.99521 0
M  V30 7927 H 934.722 -1.01619 3.95143 0
M  V30 7928 H 933.397 0.117622 4.15734 0
M  V30 7929 H 931.974 -1.54676 3.39308 0
M  V30 7930 N 934.159 -1.57557 0.0367827 0
M  V30 7931 C 935.384 -1.96828 -0.653707 0
M  V30 7932 C 935.809 -0.913559 -1.64425 0
M  V30 7933 O 935.167 0.124749 -1.8087 0
M  V30 7934 C 935.215 -3.35189 -1.32969 0
M  V30 7935 O 934.319 -3.32095 -2.44513 0
M  V30 7936 H 933.66 -0.64157 -0.171124 0
M  V30 7937 H 936.19 -2.04351 0.100912 0
M  V30 7938 H 936.2 -3.71593 -1.68472 0
M  V30 7939 H 934.875 -4.11496 -0.603654 0
M  V30 7940 H 933.452 -3.07418 -2.11065 0
M  V30 7941 N 935.637 0.236453 -1.55816 0
M  V30 7942 C 936.569 1.31602 -1.87653 0
M  V30 7943 C 937.582 1.43782 -0.763584 0
M  V30 7944 O 938.771 1.44945 -1.04178 0
M  V30 7945 C 935.871 2.69342 -2.05689 0
M  V30 7946 C 935.044 2.79298 -3.36617 0
M  V30 7947 C 934.103 3.97952 -3.44268 0
M  V30 7948 O 933.129 3.86989 -4.17406 0
M  V30 7949 N 934.331 5.11594 -2.74321 0
M  V30 7950 H 937.096 1.04623 -2.80845 0
M  V30 7951 H 934.657 0.426534 -1.5618 0
M  V30 7952 H 936.649 3.47074 -2.08138 0
M  V30 7953 H 935.219 2.88984 -1.19192 0
M  V30 7954 H 934.439 1.8816 -3.46395 0
M  V30 7955 H 935.727 2.82908 -4.22895 0
M  V30 7956 H 935.125 5.23394 -2.14651 0
M  V30 7957 H 933.682 5.87422 -2.8245 0
M  V30 7958 N 937.115 1.49373 0.502552 0
M  V30 7959 C 938.065 1.62321 1.60112 0
M  V30 7960 C 939.049 0.47895 1.53606 0
M  V30 7961 O 940.241 0.731824 1.61162 0
M  V30 7962 C 937.37 1.69162 2.98729 0
M  V30 7963 C 936.456 2.89161 3.10237 0
M  V30 7964 N 936.847 4.13256 2.91638 0
M  V30 7965 C 935.145 2.87065 3.41335 0
M  V30 7966 C 935.846 4.93913 3.07287 0
M  V30 7967 N 934.822 4.27249 3.36094 0
M  V30 7968 H 938.624 2.55989 1.44384 0
M  V30 7969 H 936.138 1.46123 0.708644 0
M  V30 7970 H 938.135 1.76536 3.77678 0
M  V30 7971 H 936.795 0.766301 3.15528 0
M  V30 7972 H 937.806 4.4326 2.67844 0
M  V30 7973 H 934.483 2.03905 3.6432 0
M  V30 7974 H 935.873 6.02491 2.97413 0
M  V30 7975 N 938.594 -0.753485 1.38421 0
M  V30 7976 C 939.524 -1.8808 1.38377 0
M  V30 7977 C 940.505 -1.68258 0.249664 0
M  V30 7978 O 941.69 -1.88848 0.45276 0
M  V30 7979 C 938.82 -3.25608 1.20818 0
M  V30 7980 C 937.774 -3.60032 2.31433 0
M  V30 7981 C 937.1 -4.96297 1.9898 0
M  V30 7982 C 938.4 -3.64898 3.73694 0
M  V30 7983 H 940.094 -1.88375 2.32713 0
M  V30 7984 H 937.64 -0.90489 1.12017 0
M  V30 7985 H 939.593 -4.04127 1.19412 0
M  V30 7986 H 938.317 -3.25793 0.229433 0
M  V30 7987 H 936.976 -2.83831 2.32025 0
M  V30 7988 H 936.624 -4.93043 0.995889 0
M  V30 7989 H 936.324 -5.20298 2.73063 0
M  V30 7990 H 937.848 -5.77196 1.99193 0
M  V30 7991 H 939.262 -4.33531 3.75132 0
M  V30 7992 H 937.659 -4.00407 4.46983 0
M  V30 7993 H 938.729 -2.65124 4.06002 0
M  V30 7994 N 940.072 -1.23292 -0.981677 0
M  V30 7995 C 941.483 -1.05936 -1.53735 0
M  V30 7996 C 941.834 0.373695 -1.92608 0
M  V30 7997 O 940.959 1.26024 -1.75917 0
M  V30 7998 C 941.554 -1.91682 -2.79363 0
M  V30 7999 C 940.113 -1.78591 -3.31334 0
M  V30 8000 C 939.26 -1.87463 -2.04335 0
M  V30 8001 H 942.211 -1.36973 -0.801505 0
M  V30 8002 H 942.232 -1.44085 -3.52164 0
M  V30 8003 H 941.744 -2.95975 -2.51039 0
M  V30 8004 H 939.845 -0.770755 -3.64541 0
M  V30 8005 H 939.958 -2.61902 -4.01179 0
M  V30 8006 H 938.322 -1.3103 -2.18411 0
M  V30 8007 H 939.105 -2.9331 -1.78394 0
M  V30 8008 N 941.55 1.18024 -1.04442 0
M  V30 8009 C 942.775 1.92573 -0.770097 0
M  V30 8010 C 943.2 1.75871 0.667169 0
M  V30 8011 O 942.558 1.07136 1.46258 0
M  V30 8012 C 942.606 3.41904 -1.14602 0
M  V30 8013 O 941.71 4.11491 -0.273712 0
M  V30 8014 H 941.051 0.600636 -0.283076 0
M  V30 8015 H 943.581 1.49645 -1.39526 0
M  V30 8016 H 943.591 3.92623 -1.10956 0
M  V30 8017 H 942.266 3.53382 -2.19304 0
M  V30 8018 H 940.843 3.71059 -0.370124 0
M  V30 8019 N 943.028 0.824394 1.34319 0
M  V30 8020 C 944.256 0.426194 2.02463 0
M  V30 8021 C 944.671 -0.968298 1.62078 0
M  V30 8022 O 944.028 -1.62689 0.82696 0
M  V30 8023 C 944.079 0.520465 3.57734 0
M  V30 8024 O 943.8 1.86 3.96656 0
M  V30 8025 C 945.301 0.117353 4.43145 0
M  V30 8026 H 942.521 0.170864 0.648881 0
M  V30 8027 H 945.065 1.11296 1.71562 0
M  V30 8028 H 943.22 -0.118233 3.8722 0
M  V30 8029 H 943.634 1.83528 4.91343 0
M  V30 8030 H 945.108 0.234395 5.51502 0
M  V30 8031 H 945.585 -0.939271 4.29039 0
M  V30 8032 H 946.191 0.729908 4.1899 0
M  V30 8033 N 944.506 -1.46559 0.579492 0
M  V30 8034 C 945.917 -1.8608 0.152052 0
M  V30 8035 C 946.268 -1.48346 -1.28405 0
M  V30 8036 O 945.393 -0.89685 -1.9694 0
M  V30 8037 C 945.988 -3.37729 0.269171 0
M  V30 8038 C 944.547 -3.76258 -0.103376 0
M  V30 8039 C 943.694 -2.70584 0.60659 0
M  V30 8040 H 946.645 -1.3776 0.787904 0
M  V30 8041 H 946.666 -3.77116 -0.506339 0
M  V30 8042 H 946.178 -3.65162 1.31448 0
M  V30 8043 H 944.279 -3.54443 -1.14895 0
M  V30 8044 H 944.392 -4.78335 0.270701 0
M  V30 8045 H 942.756 -2.54656 0.0471984 0
M  V30 8046 H 943.539 -3.00856 1.65349 0
M  V30 8047 N 945.984 -0.3171 -1.54377 0
M  V30 8048 C 947.209 0.292311 -2.0533 0
M  V30 8049 C 947.634 1.45503 -1.19207 0
M  V30 8050 O 946.992 1.80197 -0.199721 0
M  V30 8051 C 947.04 0.710787 -3.53525 0
M  V30 8052 O 946.144 1.81387 -3.70368 0
M  V30 8053 H 945.485 0.0539976 -0.661801 0
M  V30 8054 H 948.015 -0.463629 -1.99278 0
M  V30 8055 H 948.025 0.995216 -3.95676 0
M  V30 8056 H 946.7 -0.139668 -4.15665 0
M  V30 8057 H 945.277 1.52875 -3.40123 0
M  V30 8058 N 947.462 1.57535 -0.0451378 0
M  V30 8059 C 948.687 1.97172 0.64326 0
M  V30 8060 C 949.112 0.922266 1.63939 0
M  V30 8061 O 948.47 -0.115155 1.80934 0
M  V30 8062 C 948.518 3.35889 1.3119 0
M  V30 8063 O 947.622 3.33387 2.42748 0
M  V30 8064 H 946.963 0.642469 0.167719 0
M  V30 8065 H 949.493 2.04295 -0.111747 0
M  V30 8066 H 949.503 3.72481 1.66499 0
M  V30 8067 H 948.178 4.1181 0.581823 0
M  V30 8068 H 946.755 3.08533 2.09432 0
M  V30 8069 N 948.94 -0.228186 1.55939 0
M  V30 8070 C 950.351 -0.795734 1.68893 0
M  V30 8071 C 950.702 -1.85261 0.645967 0
M  V30 8072 O 949.827 -2.15434 -0.2042 0
M  V30 8073 C 950.422 -1.45013 3.06197 0
M  V30 8074 C 948.981 -1.96514 3.21028 0
M  V30 8075 C 948.128 -0.822918 2.64808 0
M  V30 8076 H 951.079 -0.0036485 1.587 0
M  V30 8077 H 951.1 -2.31875 3.01685 0
M  V30 8078 H 950.612 -0.680678 3.82084 0
M  V30 8079 H 948.713 -2.76282 2.49998 0
M  V30 8080 H 948.826 -2.14967 4.28166 0
M  V30 8081 H 947.19 -1.22846 2.23116 0
M  V30 8082 H 947.973 -0.0662493 3.43236 0
M  V30 8083 N 950.418 -1.49637 -0.494624 0
M  V30 8084 C 951.834 -1.36541 -0.826361 0
M  V30 8085 C 952.034 -0.403386 -1.97421 0
M  V30 8086 O 951.09 0.162614 -2.51976 0
M  V30 8087 C 952.403 -2.77401 -1.16057 0
M  V30 8088 C 953.951 -2.86148 -1.26841 0
M  V30 8089 C 954.426 -4.27789 -1.63587 0
M  V30 8090 N 955.917 -4.3063 -1.70624 0
M  V30 8091 C 956.652 -5.37198 -2.00514 0
M  V30 8092 N 956.148 -6.54004 -2.28584 0
M  V30 8093 N 957.941 -5.2462 -2.01818 0
M  V30 8094 H 950.092 -2.10776 0.26219 0
M  V30 8095 H 952.355 -0.946419 0.0547235 0
M  V30 8096 H 952.061 -3.49526 -0.390434 0
M  V30 8097 H 951.935 -3.1317 -2.10249 0
M  V30 8098 H 954.322 -2.14256 -2.02925 0
M  V30 8099 H 954.403 -2.53953 -0.30684 0
M  V30 8100 H 954.047 -5.00209 -0.880507 0
M  V30 8101 H 953.977 -4.57453 -2.60854 0
M  V30 8102 H 956.468 -3.46393 -1.51065 0
M  V30 8103 H 956.781 -7.31041 -2.50598 0
M  V30 8104 H 955.126 -6.57219 -2.26027 0
M  V30 8105 H 958.317 -4.32371 -1.79369 0
M  V30 8106 H 958.49 -6.07765 -2.24778 0
M  V30 8107 N 951.896 0.746133 -1.38819 0
M  V30 8108 C 953.142 1.50768 -1.35635 0
M  V30 8109 C 953.475 1.94132 0.0512435 0
M  V30 8110 O 952.75 1.65979 1.01396 0
M  V30 8111 C 953.033 2.7551 -2.31875 0
M  V30 8112 C 952.886 2.38236 -3.81528 0
M  V30 8113 C 954.205 3.77566 -2.26124 0
M  V30 8114 H 951.324 0.546922 -0.494009 0
M  V30 8115 H 953.966 0.854017 -1.69725 0
M  V30 8116 H 952.116 3.31285 -2.02935 0
M  V30 8117 H 953.788 1.88178 -4.21173 0
M  V30 8118 H 952.031 1.70601 -3.98846 0
M  V30 8119 H 952.702 3.27517 -4.44339 0
M  V30 8120 H 955.178 3.31349 -2.51689 0
M  V30 8121 H 954.054 4.62531 -2.95561 0
M  V30 8122 H 954.315 4.23689 -1.26254 0
M  V30 8123 N 953.375 1.23811 0.975125 0
M  V30 8124 C 954.786 1.0675 1.53171 0
M  V30 8125 C 955.137 -0.363475 1.92804 0
M  V30 8126 O 954.262 -1.25089 1.76583 0
M  V30 8127 C 954.857 1.93161 2.78342 0
M  V30 8128 C 953.416 1.80346 3.30382 0
M  V30 8129 C 952.563 1.88544 2.03338 0
M  V30 8130 H 955.514 1.37396 0.79423 0
M  V30 8131 H 955.535 1.45951 3.51395 0
M  V30 8132 H 955.047 2.97302 2.49465 0
M  V30 8133 H 953.148 0.790077 3.64127 0
M  V30 8134 H 953.261 2.64026 3.99784 0
M  V30 8135 H 951.625 1.32186 2.17713 0
M  V30 8136 H 952.408 2.94252 1.76836 0
M  V30 8137 N 954.853 -1.17469 1.05066 0
M  V30 8138 C 956.101 -1.87327 0.758485 0
M  V30 8139 C 956.422 -1.81358 -0.716549 0
M  V30 8140 O 955.692 -1.23868 -1.51768 0
M  V30 8141 H 954.272 -0.693512 0.277579 0
M  V30 8142 H 956.934 -1.4251 1.32954 0
M  V30 8143 H 956.03 -2.93101 1.0723 0
M  V30 8144 N 956.331 -0.831506 -1.3388 0
M  V30 8145 C 957.294 -0.264773 -2.27666 0
M  V30 8146 C 958.294 0.562273 -1.50649 0
M  V30 8147 O 959.484 0.377131 -1.70069 0
M  V30 8148 C 956.616 0.627814 -3.35069 0
M  V30 8149 H 957.809 -1.09225 -2.79303 0
M  V30 8150 H 955.362 -0.604021 -1.44157 0
M  V30 8151 H 956.097 1.47802 -2.88661 0
M  V30 8152 H 955.882 0.0361552 -3.92083 0
M  V30 8153 H 957.372 1.01786 -4.05005 0
M  V30 8154 N 957.809 1.4625 -0.587256 0
M  V30 8155 C 958.739 2.33132 0.131076 0
M  V30 8156 C 959.72 1.45619 0.879158 0
M  V30 8157 O 960.905 1.74428 0.853723 0
M  V30 8158 C 958.035 3.27975 1.14236 0
M  V30 8159 C 956.989 4.24965 0.508819 0
M  V30 8160 C 956.315 5.09349 1.62689 0
M  V30 8161 C 957.615 5.19322 -0.55694 0
M  V30 8162 H 959.309 2.93442 -0.594333 0
M  V30 8163 H 956.855 1.41106 -0.287263 0
M  V30 8164 H 958.808 3.87614 1.65328 0
M  V30 8165 H 957.532 2.65781 1.8981 0
M  V30 8166 H 956.191 3.66595 0.0189337 0
M  V30 8167 H 955.839 4.43537 2.37242 0
M  V30 8168 H 955.539 5.75036 1.20861 0
M  V30 8169 H 957.063 5.71852 2.14049 0
M  V30 8170 H 958.477 5.73151 -0.130903 0
M  V30 8171 H 956.874 5.93376 -0.895801 0
M  V30 8172 H 957.944 4.62979 -1.44148 0
M  V30 8173 N 959.287 0.325282 1.54207 0
M  V30 8174 C 960.25 -0.527228 2.23054 0
M  V30 8175 C 961.25 -1.04217 1.22456 0
M  V30 8176 O 962.44 -0.934325 1.47024 0
M  V30 8177 C 959.572 -1.7325 2.93594 0
M  V30 8178 H 960.765 0.0746423 2.99807 0
M  V30 8179 H 958.318 0.0763872 1.56113 0
M  V30 8180 H 959.053 -2.37356 2.20981 0
M  V30 8181 H 958.838 -1.37065 3.67363 0
M  V30 8182 H 960.328 -2.3376 3.46043 0
M  V30 8183 N 960.765 -1.57509 0.0534917 0
M  V30 8184 C 961.728 -2.10563 -0.905307 0
M  V30 8185 C 962.728 -1.02571 -1.23838 0
M  V30 8186 O 963.918 -1.28635 -1.17468 0
M  V30 8187 C 961.05 -2.5918 -2.21447 0
M  V30 8188 H 962.243 -2.96575 -0.445354 0
M  V30 8189 H 959.796 -1.55079 -0.194947 0
M  V30 8190 H 960.531 -1.76568 -2.72019 0
M  V30 8191 H 960.316 -3.38098 -1.98575 0
M  V30 8192 H 961.806 -3.00365 -2.90122 0
M  V30 8193 N 962.243 0.219913 -1.56058 0
M  V30 8194 C 963.206 1.25606 -1.91718 0
M  V30 8195 C 964.206 1.39721 -0.795912 0
M  V30 8196 O 965.396 1.37958 -1.06364 0
M  V30 8197 C 962.528 2.62961 -2.16943 0
M  V30 8198 H 963.721 0.951909 -2.84392 0
M  V30 8199 H 961.274 0.460398 -1.49365 0
M  V30 8200 H 962.009 2.98472 -1.26826 0
M  V30 8201 H 961.794 2.54093 -2.98629 0
M  V30 8202 H 963.284 3.37727 -2.45622 0
M  V30 8203 N 963.721 1.49897 0.486681 0
M  V30 8204 C 964.668 1.67619 1.58658 0
M  V30 8205 C 965.638 0.517537 1.57831 0
M  V30 8206 O 966.823 0.746272 1.756 0
M  V30 8207 C 963.963 1.762 2.96728 0
M  V30 8208 C 963.076 3.03465 3.07462 0
M  V30 8209 C 962.211 3.02937 4.36351 0
M  V30 8210 C 961.25 4.24721 4.4077 0
M  V30 8211 N 960.387 4.22021 5.61108 0
M  V30 8212 H 965.227 2.61528 1.42853 0
M  V30 8213 H 962.764 1.29657 0.694807 0
M  V30 8214 H 964.722 1.79156 3.76774 0
M  V30 8215 H 963.352 0.857452 3.11203 0
M  V30 8216 H 962.404 3.10054 2.20387 0
M  V30 8217 H 963.716 3.93454 3.06586 0
M  V30 8218 H 962.87 3.04536 5.24731 0
M  V30 8219 H 961.609 2.10751 4.39813 0
M  V30 8220 H 960.614 4.23352 3.5079 0
M  V30 8221 H 961.839 5.18116 4.39013 0
M  V30 8222 H 959.785 3.3268 5.65385 0
M  V30 8223 H 959.702 5.05761 5.61909 0
M  V30 8224 H 960.97 4.27743 6.51656 0
M  V30 8225 N 965.199 -0.738761 1.39212 0
M  V30 8226 C 966.162 -1.83441 1.37412 0
M  V30 8227 C 967.162 -1.58484 0.271908 0
M  V30 8228 O 968.352 -1.65954 0.529609 0
M  V30 8229 C 965.484 -3.21167 1.143 0
M  V30 8230 H 966.677 -1.86441 2.34904 0
M  V30 8231 H 964.23 -0.942023 1.24722 0
M  V30 8232 H 964.965 -3.23829 0.174756 0
M  V30 8233 H 964.75 -3.40678 1.94116 0
M  V30 8234 H 966.24 -4.01231 1.15773 0
M  V30 8235 N 966.677 -1.24326 -0.968545 0
M  V30 8236 C 967.64 -1.03591 -2.04454 0
M  V30 8237 C 968.64 0.0064809 -1.60799 0
M  V30 8238 O 969.83 -0.234404 -1.72616 0
M  V30 8239 C 966.962 -0.56992 -3.36102 0
M  V30 8240 H 968.155 -1.99092 -2.24282 0
M  V30 8241 H 965.708 -1.06537 -1.14366 0
M  V30 8242 H 966.443 0.388325 -3.21967 0
M  V30 8243 H 966.228 -1.32227 -3.69132 0
M  V30 8244 H 967.718 -0.445854 -4.15213 0
M  V30 8245 N 968.156 1.1691 -1.05688 0
M  V30 8246 C 969.103 2.21095 -0.662246 0
M  V30 8247 C 970.073 1.62623 0.338083 0
M  V30 8248 O 971.258 1.89428 0.228362 0
M  V30 8249 C 968.398 3.45066 -0.0484018 0
M  V30 8250 C 967.511 4.17809 -1.09817 0
M  V30 8251 C 966.646 5.29281 -0.451114 0
M  V30 8252 C 965.685 5.93817 -1.48484 0
M  V30 8253 N 964.822 6.96793 -0.861588 0
M  V30 8254 H 969.662 2.54204 -1.55513 0
M  V30 8255 H 967.199 1.24863 -0.777665 0
M  V30 8256 H 969.157 4.15932 0.324978 0
M  V30 8257 H 967.787 3.12526 0.807918 0
M  V30 8258 H 966.839 3.45608 -1.58932 0
M  V30 8259 H 968.151 4.61907 -1.88265 0
M  V30 8260 H 967.305 6.06695 -0.0244251 0
M  V30 8261 H 966.044 4.8633 0.365306 0
M  V30 8262 H 965.049 5.1513 -1.92149 0
M  V30 8263 H 966.274 6.38848 -2.30325 0
M  V30 8264 H 964.22 6.55967 -0.0657688 0
M  V30 8265 H 964.137 7.39229 -1.58354 0
M  V30 8266 H 965.405 7.78142 -0.45984 0
M  V30 8267 N 969.634 0.838594 1.33437 0
M  V30 8268 C 970.864 0.446995 2.01707 0
M  V30 8269 C 971.272 -0.956335 1.63251 0
M  V30 8270 O 970.615 -1.63289 0.841566 0
M  V30 8271 C 970.677 0.487707 3.56176 0
M  V30 8272 C 970.341 1.8471 4.18009 0
M  V30 8273 C 971.338 2.81028 4.374 0
M  V30 8274 C 969.023 2.13987 4.54439 0
M  V30 8275 C 971.017 4.04785 4.92369 0
M  V30 8276 C 968.704 3.38 5.09116 0
M  V30 8277 C 969.702 4.33216 5.28027 0
M  V30 8278 O 969.39 5.55036 5.81541 0
M  V30 8279 H 969.122 0.175799 0.652741 0
M  V30 8280 H 971.676 1.13265 1.71348 0
M  V30 8281 H 969.906 -0.254719 3.8586 0
M  V30 8282 H 971.595 0.113971 4.0574 0
M  V30 8283 H 972.361 2.5971 4.09604 0
M  V30 8284 H 968.24 1.40668 4.39014 0
M  V30 8285 H 971.784 4.79114 5.07046 0
M  V30 8286 H 967.681 3.59175 5.36343 0
M  V30 8287 H 968.449 5.56772 5.99956 0
M  V30 8288 N 971.112 -1.45937 0.595003 0
M  V30 8289 C 972.36 -2.01921 0.0851368 0
M  V30 8290 C 972.681 -1.46748 -1.28413 0
M  V30 8291 O 971.951 -0.656873 -1.84559 0
M  V30 8292 H 970.531 -0.746457 0.0284826 0
M  V30 8293 H 973.193 -1.78891 0.773561 0
M  V30 8294 H 972.289 -3.1209 0.0254002 0
M  V30 8295 N 972.59 -0.333456 -1.54032 0
M  V30 8296 C 973.553 0.515392 -2.2333 0
M  V30 8297 C 974.553 1.03566 -1.23007 0
M  V30 8298 O 975.743 0.926514 -1.47517 0
M  V30 8299 C 972.875 1.7169 -2.94508 0
M  V30 8300 H 974.068 -0.0905407 -2.99763 0
M  V30 8301 H 971.621 -0.0846651 -1.56071 0
M  V30 8302 H 972.356 2.3618 -2.22237 0
M  V30 8303 H 972.141 1.35115 -3.68085 0
M  V30 8304 H 973.631 2.31922 -3.47278 0
M  V30 8305 N 974.068 1.57479 -0.061844 0
M  V30 8306 C 975.031 2.1104 0.894127 0
M  V30 8307 C 976.031 1.03227 1.23292 0
M  V30 8308 O 977.221 1.29256 1.16784 0
M  V30 8309 C 974.353 2.6035 2.20069 0
M  V30 8310 H 975.546 2.96807 0.429619 0
M  V30 8311 H 973.099 1.55181 0.18672 0
M  V30 8312 H 973.834 1.78008 2.71079 0
M  V30 8313 H 973.619 3.39146 1.9678 0
M  V30 8314 H 975.109 3.019 2.88525 0
M  V30 8315 N 975.546 -0.211634 1.56173 0
M  V30 8316 C 976.792 -0.935935 1.79911 0
M  V30 8317 C 977.125 -1.83589 0.633155 0
M  V30 8318 O 976.4 -1.91004 -0.367132 0
M  V30 8319 C 976.683 -1.76638 3.13801 0
M  V30 8320 C 976.536 -0.892259 4.40861 0
M  V30 8321 C 977.855 -2.74224 3.44223 0
M  V30 8322 H 974.974 -0.338822 0.654499 0
M  V30 8323 H 977.616 -0.20422 1.88899 0
M  V30 8324 H 975.766 -2.39021 3.0627 0
M  V30 8325 H 977.438 -0.284407 4.60422 0
M  V30 8326 H 975.681 -0.198145 4.33347 0
M  V30 8327 H 976.352 -1.50793 5.31004 0
M  V30 8328 H 978.828 -2.21975 3.51946 0
M  V30 8329 H 977.704 -3.29424 4.39057 0
M  V30 8330 H 977.965 -3.52455 2.66885 0
M  V30 8331 N 977.024 -1.50153 -0.478725 0
M  V30 8332 C 978.435 -1.53706 -1.05978 0
M  V30 8333 C 978.786 -0.336112 -1.933 0
M  V30 8334 O 977.911 0.551803 -2.09246 0
M  V30 8335 C 978.506 -2.78541 -1.92874 0
M  V30 8336 C 977.065 -2.848 -2.46102 0
M  V30 8337 C 976.212 -2.47902 -1.24257 0
M  V30 8338 H 979.163 -1.56528 -0.261664 0
M  V30 8339 H 979.184 -2.59964 -2.77847 0
M  V30 8340 H 978.696 -3.6593 -1.29293 0
M  V30 8341 H 976.797 -2.01744 -3.13257 0
M  V30 8342 H 976.91 -3.87511 -2.81731 0
M  V30 8343 H 975.274 -2.0017 -1.57493 0
M  V30 8344 H 976.057 -3.3759 -0.62351 0
M  V30 8345 N 978.502 0.731368 -1.39602 0
M  V30 8346 C 979.75 1.48805 -1.36753 0
M  V30 8347 C 980.071 1.94969 0.034676 0
M  V30 8348 O 979.341 1.69243 0.986591 0
M  V30 8349 H 977.921 0.55203 -0.503261 0
M  V30 8350 H 980.583 0.868013 -1.74504 0
M  V30 8351 H 979.679 2.36844 -2.03252 0
M  V30 8352 N 979.98 1.24838 0.961938 0
M  V30 8353 C 981.226 1.09313 1.70817 0
M  V30 8354 C 981.559 -0.366244 1.90715 0
M  V30 8355 O 980.834 -1.27036 1.47282 0
M  V30 8356 C 981.117 1.83988 3.09549 0
M  V30 8357 C 980.97 3.3771 2.97106 0
M  V30 8358 C 982.289 1.61718 4.09311 0
M  V30 8359 H 979.408 0.398498 0.619974 0
M  V30 8360 H 982.05 1.53579 1.11864 0
M  V30 8361 H 980.2 1.46363 3.59875 0
M  V30 8362 H 981.872 3.84967 2.54161 0
M  V30 8363 H 980.115 3.65795 2.33187 0
M  V30 8364 H 980.786 3.85166 3.95412 0
M  V30 8365 H 983.262 1.94458 3.67866 0
M  V30 8366 H 982.138 2.16415 5.04436 0
M  V30 8367 H 982.399 0.55677 4.3858 0
M  V30 8368 N 981.458 -1.16348 1.06306 0
M  V30 8369 C 982.388 -2.2291 0.695234 0
M  V30 8370 C 983.369 -1.67208 -0.312343 0
M  V30 8371 O 984.554 -1.93293 -0.187442 0
M  V30 8372 C 981.684 -3.47205 0.0810149 0
M  V30 8373 C 980.638 -4.15801 1.01458 0
M  V30 8374 C 979.964 -5.3405 0.263656 0
M  V30 8375 C 981.264 -4.66766 2.34365 0
M  V30 8376 H 982.958 -2.53934 1.58613 0
M  V30 8377 H 980.504 -1.22056 0.76409 0
M  V30 8378 H 982.457 -4.2098 -0.18818 0
M  V30 8379 H 981.181 -3.15482 -0.844897 0
M  V30 8380 H 979.84 -3.43954 1.26852 0
M  V30 8381 H 979.488 -4.9858 -0.665378 0
M  V30 8382 H 979.188 -5.80885 0.88582 0
M  V30 8383 H 980.712 -6.106 0.00200994 0
M  V30 8384 H 982.126 -5.3212 2.13356 0
M  V30 8385 H 980.523 -5.24223 2.9208 0
M  V30 8386 H 981.593 -3.82969 2.97426 0
M  V30 8387 N 982.937 -0.845659 -1.3299 0
M  V30 8388 C 984.185 -0.443774 -1.97168 0
M  V30 8389 C 984.506 1.00192 -1.67292 0
M  V30 8390 O 983.776 1.69891 -0.975397 0
M  V30 8391 H 982.356 -0.161111 -0.729419 0
M  V30 8392 H 985.018 -1.08011 -1.62233 0
M  V30 8393 H 984.114 -0.581414 -3.06637 0
M  V30 8394 N 984.415 1.45619 -0.602734 0
M  V30 8395 C 985.663 2.01873 -0.095844 0
M  V30 8396 C 985.984 1.47427 1.27633 0
M  V30 8397 O 985.254 0.666652 1.84208 0
M  V30 8398 H 983.834 0.746295 -0.0324408 0
M  V30 8399 H 986.496 1.78478 -0.783037 0
M  V30 8400 H 985.592 3.12072 -0.0419507 0
M  V30 8401 N 985.893 0.34162 1.53853 0
M  V30 8402 C 986.823 -0.508431 2.27897 0
M  V30 8403 C 987.804 -1.10425 1.29384 0
M  V30 8404 O 988.989 -1.126 1.58224 0
M  V30 8405 C 986.119 -1.66048 3.05034 0
M  V30 8406 C 985.073 -1.19309 4.11035 0
M  V30 8407 C 984.399 -2.4335 4.76114 0
M  V30 8408 C 985.699 -0.294952 5.21467 0
M  V30 8409 H 987.393 0.109251 2.99201 0
M  V30 8410 H 984.939 0.0539847 1.43899 0
M  V30 8411 H 986.892 -2.26158 3.5557 0
M  V30 8412 H 985.616 -2.30503 2.31379 0
M  V30 8413 H 984.275 -0.614809 3.61408 0
M  V30 8414 H 983.923 -3.06208 3.99056 0
M  V30 8415 H 983.623 -2.1276 5.47729 0
M  V30 8416 H 985.147 -3.0419 5.29434 0
M  V30 8417 H 986.561 -0.80285 5.67651 0
M  V30 8418 H 984.958 -0.0810221 6.00045 0
M  V30 8419 H 986.028 0.669433 4.80257 0
M  V30 8420 N 987.371 -1.57444 0.0701946 0
M  V30 8421 C 988.619 -1.93047 -0.598106 0
M  V30 8422 C 988.94 -0.950841 -1.70247 0
M  V30 8423 O 988.21 0.00127177 -1.959 0
M  V30 8424 H 986.79 -0.712648 -0.223924 0
M  V30 8425 H 989.452 -1.94481 0.127674 0
M  V30 8426 H 988.548 -2.94807 -1.02445 0
M  V30 8427 N 988.849 0.203349 -1.56283 0
M  V30 8428 C 989.812 1.23566 -1.93039 0
M  V30 8429 C 990.812 1.38869 -0.810687 0
M  V30 8430 O 992.002 1.36822 -1.07821 0
M  V30 8431 C 989.134 2.60645 -2.1972 0
M  V30 8432 H 990.327 0.921692 -2.85385 0
M  V30 8433 H 987.88 0.44453 -1.49845 0
M  V30 8434 H 988.615 2.9711 -1.29985 0
M  V30 8435 H 988.4 2.50911 -3.01307 0
M  V30 8436 H 989.89 3.35103 -2.4919 0
M  V30 8437 N 990.327 1.50405 0.470755 0
M  V30 8438 C 991.257 1.72222 1.57676 0
M  V30 8439 C 992.238 0.57121 1.60222 0
M  V30 8440 O 993.423 0.810381 1.76484 0
M  V30 8441 C 990.553 1.81666 2.95998 0
M  V30 8442 C 989.507 2.96857 3.08318 0
M  V30 8443 C 988.833 2.91445 4.4829 0
M  V30 8444 C 990.133 4.37361 2.85504 0
M  V30 8445 H 991.827 2.64825 1.39671 0
M  V30 8446 H 989.373 1.27438 0.67049 0
M  V30 8447 H 991.326 1.95514 3.73299 0
M  V30 8448 H 990.05 0.856856 3.1516 0
M  V30 8449 H 988.709 2.82661 2.33449 0
M  V30 8450 H 988.357 1.93309 4.64371 0
M  V30 8451 H 988.057 3.68776 4.57469 0
M  V30 8452 H 989.581 3.07341 5.27611 0
M  V30 8453 H 990.995 4.52081 3.52555 0
M  V30 8454 H 989.392 5.16145 3.06127 0
M  V30 8455 H 990.462 4.49708 1.81359 0
M  V30 8456 N 991.805 -0.723954 1.39988 0
M  V30 8457 C 993.053 -1.48078 1.3754 0
M  V30 8458 C 993.374 -1.94985 -0.0243358 0
M  V30 8459 O 992.644 -1.69764 -0.977602 0
M  V30 8460 H 991.224 -0.549354 0.506181 0
M  V30 8461 H 993.886 -0.858746 1.74962 0
M  V30 8462 H 992.982 -2.35763 2.04505 0
M  V30 8463 N 993.283 -1.25346 -0.955304 0
M  V30 8464 C 994.531 -1.09837 -1.69647 0
M  V30 8465 C 994.852 0.361425 -1.91621 0
M  V30 8466 O 994.122 1.25666 -1.50283 0
M  V30 8467 H 992.702 -0.403467 -0.628668 0
M  V30 8468 H 995.364 -1.57459 -1.14859 0
M  V30 8469 H 994.46 -1.60616 -2.67598 0
M  V30 8470 N 994.761 1.15782 -1.06922 0
M  V30 8471 C 996.007 1.86741 -0.790922 0
M  V30 8472 C 996.34 1.81863 0.681149 0
M  V30 8473 O 995.615 1.23871 1.49954 0
M  V30 8474 C 995.898 3.36038 -1.29422 0
M  V30 8475 C 995.751 3.49573 -2.83052 0
M  V30 8476 C 997.07 4.30647 -0.907239 0
M  V30 8477 H 994.189 0.678064 -0.288787 0
M  V30 8478 H 996.831 1.36054 -1.32624 0
M  V30 8479 H 994.981 3.79336 -0.838843 0
M  V30 8480 H 996.653 3.1517 -3.36847 0
M  V30 8481 H 994.896 2.91275 -3.21467 0
M  V30 8482 H 995.567 4.5445 -3.13335 0
M  V30 8483 H 998.043 3.95286 -1.29956 0
M  V30 8484 H 996.919 5.33604 -1.28679 0
M  V30 8485 H 997.18 4.41703 0.187251 0
M  V30 8486 N 996.239 0.8527 1.3254 0
M  V30 8487 C 997.487 0.454224 1.96929 0
M  V30 8488 C 997.808 -0.993034 1.67821 0
M  V30 8489 O 997.078 -1.69371 0.984393 0
M  V30 8490 H 995.658 0.164977 0.728554 0
M  V30 8491 H 998.32 1.0887 1.61658 0
M  V30 8492 H 997.416 0.597667 3.06324 0
M  V30 8493 N 997.718 -1.45297 0.610449 0
M  V30 8494 C 998.967 -2.0143 0.104323 0
M  V30 8495 C 999.28 -1.48431 -1.27388 0
M  V30 8496 O 1000.49 -1.96558 -1.87289 0
M  V30 8497 C 998.942 -3.59644 0.135812 0
M  V30 8498 C 998.55 -4.2164 1.51405 0
M  V30 8499 C 1000.29 -4.2333 -0.314922 0
M  V30 8500 C 998.201 -5.72015 1.50176 0
M  V30 8501 H 997.131 -0.753176 0.035233 0
M  V30 8502 H 999.782 -1.66738 0.7662 0
M  V30 8503 H 998.164 -3.91538 -0.592773 0
M  V30 8504 H 999.338 -4.01315 2.26457 0
M  V30 8505 H 997.653 -3.70159 1.90712 0
M  V30 8506 H 1000.25 -5.33597 -0.343335 0
M  V30 8507 H 1000.59 -3.94206 -1.33817 0
M  V30 8508 H 1001.13 -3.96163 0.360489 0
M  V30 8509 H 997.865 -6.05842 2.50271 0
M  V30 8510 H 997.385 -5.94523 0.793869 0
M  V30 8511 H 999.064 -6.35266 1.22665 0
M  V30 8512 N 999.196 -0.349774 -1.5367 0
M  V30 8513 C 1000.61 0.132815 -1.86227 0
M  V30 8514 C 1000.96 1.49479 -1.27084 0
M  V30 8515 O 1000.08 2.08292 -0.58679 0
M  V30 8516 C 1000.68 0.247775 -3.37893 0
M  V30 8517 C 999.237 0.674603 -3.70305 0
M  V30 8518 C 998.384 -0.187869 -2.76663 0
M  V30 8519 H 1001.33 -0.569148 -1.48143 0
M  V30 8520 H 1001.36 1.07418 -3.65023 0
M  V30 8521 H 1000.87 -0.743635 -3.80909 0
M  V30 8522 H 998.969 1.67481 -3.32837 0
M  V30 8523 H 999.082 0.460177 -4.76885 0
M  V30 8524 H 997.446 0.340779 -2.5241 0
M  V30 8525 H 998.229 -1.17653 -3.2251 0
M  V30 8526 N 1000.67 1.57404 -0.0785433 0
M  V30 8527 C 1001.92 1.93361 0.58786 0
M  V30 8528 C 1002.24 0.959856 1.6974 0
M  V30 8529 O 1001.51 0.0091173 1.95898 0
M  V30 8530 H 1000.09 0.713825 0.220141 0
M  V30 8531 H 1002.75 1.94411 -0.137986 0
M  V30 8532 H 1001.85 2.95346 1.00881 0
M  V30 8533 N 1002.15 -0.195058 1.56388 0
M  V30 8534 C 1003.4 -0.913636 1.8027 0
M  V30 8535 C 1003.72 -1.83791 0.651606 0
M  V30 8536 O 1002.99 -1.931 -0.330057 0
M  V30 8537 H 1001.57 -0.34036 0.664954 0
M  V30 8538 H 1004.23 -0.200559 1.93865 0
M  V30 8539 H 1003.33 -1.50473 2.7343 0
M  V30 8540 N 1003.63 -1.50653 -0.462772 0
M  V30 8541 C 1004.88 -1.62297 -1.21603 0
M  V30 8542 C 1005.21 -0.326191 -1.91441 0
M  V30 8543 O 1004.48 0.67284 -1.82491 0
M  V30 8544 C 1004.77 -2.80901 -2.25315 0
M  V30 8545 C 1004.62 -4.20484 -1.59728 0
M  V30 8546 C 1005.94 -2.95049 -3.26549 0
M  V30 8547 H 1003.06 -0.590691 -0.440741 0
M  V30 8548 H 1005.7 -1.83064 -0.508675 0
M  V30 8549 H 1003.85 -2.63325 -2.85643 0
M  V30 8550 H 1005.52 -4.49669 -1.02932 0
M  V30 8551 H 1003.76 -4.24357 -0.900181 0
M  V30 8552 H 1004.44 -4.99416 -2.35133 0
M  V30 8553 H 1006.91 -3.11166 -2.76251 0
M  V30 8554 H 1005.79 -3.79645 -3.96435 0
M  V30 8555 H 1006.05 -2.06019 -3.91163 0
M  V30 8556 N 1005.11 0.71652 -1.4037 0
M  V30 8557 C 1006.35 1.47857 -1.38803 0
M  V30 8558 C 1006.69 1.94197 0.0100536 0
M  V30 8559 O 1005.96 1.68093 0.978521 0
M  V30 8560 C 1006.25 2.7053 -2.37667 0
M  V30 8561 C 1006.1 2.3009 -3.86496 0
M  V30 8562 C 1007.42 3.72684 -2.34082 0
M  V30 8563 H 1004.54 0.53632 -0.505499 0
M  V30 8564 H 1007.18 0.817824 -1.71498 0
M  V30 8565 H 1005.33 3.26906 -2.09916 0
M  V30 8566 H 1007 1.79202 -4.2507 0
M  V30 8567 H 1005.24 1.62102 -4.02375 0
M  V30 8568 H 1005.91 3.18018 -4.51186 0
M  V30 8569 H 1008.39 3.25935 -2.58661 0
M  V30 8570 H 1007.27 4.56157 -3.05306 0
M  V30 8571 H 1007.53 4.20916 -1.35213 0
M  V30 8572 N 1006.59 1.25851 0.948643 0
M  V30 8573 C 1007.83 1.10735 1.69062 0
M  V30 8574 C 1008.16 -0.351257 1.9181 0
M  V30 8575 O 1007.43 -1.24867 1.50947 0
M  V30 8576 H 1006.01 0.406796 0.626519 0
M  V30 8577 H 1008.67 1.58066 1.14022 0
M  V30 8578 H 1007.76 1.62033 2.66743 0
M  V30 8579 N 1008.06 -1.15214 1.07534 0
M  V30 8580 C 1009.03 -2.18209 0.701237 0
M  V30 8581 C 1010.03 -1.58693 -0.25946 0
M  V30 8582 O 1011.22 -1.74154 -0.0401744 0
M  V30 8583 C 1008.35 -3.40883 0.0338703 0
M  V30 8584 H 1009.54 -2.5282 1.61314 0
M  V30 8585 H 1007.1 -1.29707 0.872105 0
M  V30 8586 H 1007.83 -3.11843 -0.890187 0
M  V30 8587 H 1007.62 -3.85342 0.72486 0
M  V30 8588 H 1009.11 -4.17056 -0.213152 0
M  V30 8589 N 1009.54 -0.859717 -1.32086 0
M  V30 8590 C 1010.79 -0.464662 -1.96686 0
M  V30 8591 C 1011.11 0.98412 -1.68345 0
M  V30 8592 O 1010.38 1.68847 -0.993361 0
M  V30 8593 H 1008.96 -0.168838 -0.727669 0
M  V30 8594 H 1011.62 -1.09726 -1.61079 0
M  V30 8595 H 1010.72 -0.613904 -3.06003 0
M  V30 8596 N 1011.02 1.44971 -0.618145 0
M  V30 8597 C 1012.43 1.85611 -0.201334 0
M  V30 8598 C 1012.78 1.51698 1.24427 0
M  V30 8599 O 1011.91 0.94875 1.94493 0
M  V30 8600 C 1012.5 3.36897 -0.358619 0
M  V30 8601 C 1011.06 3.764 0.00358196 0
M  V30 8602 C 1010.21 2.68881 -0.678118 0
M  V30 8603 H 1013.16 1.35622 -0.824152 0
M  V30 8604 H 1013.18 3.78326 0.406176 0
M  V30 8605 H 1012.69 3.61548 -1.41084 0
M  V30 8606 H 1010.79 3.57365 1.05457 0
M  V30 8607 H 1010.91 4.77449 -0.397427 0
M  V30 8608 H 1009.27 2.54442 -0.114699 0
M  V30 8609 H 1010.05 2.96367 -1.73268 0
M  V30 8610 N 1012.5 0.357919 1.53482 0
M  V30 8611 C 1013.46 -0.479797 2.24122 0
M  V30 8612 C 1014.46 -1.01596 1.24639 0
M  V30 8613 O 1015.65 -0.902928 1.48973 0
M  V30 8614 C 1012.78 -1.66983 2.97203 0
M  V30 8615 H 1013.98 0.138219 2.99581 0
M  V30 8616 H 1011.53 0.109484 1.55916 0
M  V30 8617 H 1012.26 -2.32615 2.25966 0
M  V30 8618 H 1012.05 -1.29242 3.70188 0
M  V30 8619 H 1013.54 -2.26367 3.50924 0
M  V30 8620 N 1013.98 -1.5736 0.0868897 0
M  V30 8621 C 1014.94 -2.12436 -0.860439 0
M  V30 8622 C 1015.94 -1.05175 -1.21634 0
M  V30 8623 O 1017.13 -1.31098 -1.14713 0
M  V30 8624 C 1014.26 -2.63818 -2.159 0
M  V30 8625 H 1015.45 -2.97453 -0.382346 0
M  V30 8626 H 1013.01 -1.55458 -0.162009 0
M  V30 8627 H 1013.74 -1.82298 -2.68212 0
M  V30 8628 H 1013.53 -3.42234 -1.91359 0
M  V30 8629 H 1015.02 -3.06452 -2.83685 0
M  V30 8630 N 1015.45 0.186762 -1.56489 0
M  V30 8631 C 1016.42 1.21511 -1.94339 0
M  V30 8632 C 1017.42 1.38001 -0.82537 0
M  V30 8633 O 1018.61 1.3567 -1.09266 0
M  V30 8634 C 1015.74 2.583 -2.22472 0
M  V30 8635 H 1016.93 0.891371 -2.86347 0
M  V30 8636 H 1014.49 0.428612 -1.50308 0
M  V30 8637 H 1015.22 2.95715 -1.33129 0
M  V30 8638 H 1015.01 2.47701 -3.03951 0
M  V30 8639 H 1016.5 3.32441 -2.5273 0
M  V30 8640 N 1016.93 1.50896 0.454776 0
M  V30 8641 C 1017.9 1.70377 1.53312 0
M  V30 8642 C 1018.9 0.57408 1.50203 0
M  V30 8643 O 1020.09 0.841374 1.52534 0
M  V30 8644 C 1017.22 1.74411 2.92905 0
M  V30 8645 H 1018.41 2.66599 1.37349 0
M  V30 8646 H 1015.96 1.40622 0.68228 0
M  V30 8647 H 1016.7 0.799408 3.14293 0
M  V30 8648 H 1016.48 2.56496 2.96568 0
M  V30 8649 H 1017.97 1.91382 3.71164 0
M  V30 8650 N 1018.41 -0.709066 1.40748 0
M  V30 8651 C 1019.37 -1.80485 1.41272 0
M  V30 8652 C 1020.37 -1.57872 0.305463 0
M  V30 8653 O 1021.56 -1.64793 0.564691 0
M  V30 8654 C 1018.7 -3.1867 1.21087 0
M  V30 8655 H 1019.89 -1.81417 2.38805 0
M  V30 8656 H 1017.44 -0.915356 1.26692 0
M  V30 8657 H 1018.18 -3.23385 0.243406 0
M  V30 8658 H 1017.96 -3.36484 2.01299 0
M  V30 8659 H 1019.45 -3.98685 1.24257 0
M  V30 8660 N 1019.89 -1.26353 -0.941956 0
M  V30 8661 C 1020.85 -1.07904 -2.02211 0
M  V30 8662 C 1021.85 -0.0276283 -1.60776 0
M  V30 8663 O 1023.04 -0.270965 -1.7208 0
M  V30 8664 C 1020.17 -0.641084 -3.34818 0
M  V30 8665 H 1021.37 -2.03804 -2.20009 0
M  V30 8666 H 1018.92 -1.08939 -1.12081 0
M  V30 8667 H 1019.66 0.319943 -3.22718 0
M  V30 8668 H 1019.44 -1.40027 -3.66244 0
M  V30 8669 H 1020.93 -0.533826 -4.14174 0
M  V30 8670 N 1021.37 1.14642 -1.08144 0
M  V30 8671 C 1022.33 2.17834 -0.712799 0
M  V30 8672 C 1023.33 1.58828 0.251041 0
M  V30 8673 O 1024.52 1.74173 0.0309381 0
M  V30 8674 C 1021.65 3.4086 -0.0519477 0
M  V30 8675 H 1022.85 2.51961 -1.62653 0
M  V30 8676 H 1020.4 1.29243 -0.878971 0
M  V30 8677 H 1021.13 3.12311 0.873636 0
M  V30 8678 H 1020.92 3.84952 -0.745286 0
M  V30 8679 H 1022.41 4.17163 0.191031 0
M  V30 8680 N 1022.85 0.866709 1.31628 0
M  V30 8681 C 1023.79 0.318169 2.28596 0
M  V30 8682 C 1024.76 -0.581558 1.55586 0
M  V30 8683 O 1025.95 -0.513895 1.83749 0
M  V30 8684 C 1023.09 -0.477137 3.41786 0
M  V30 8685 C 1022.2 0.449739 4.29653 0
M  V30 8686 C 1021.34 -0.359373 5.29983 0
M  V30 8687 C 1020.37 0.564138 6.09495 0
M  V30 8688 N 1019.51 -0.208526 7.0179 0
M  V30 8689 H 1024.35 1.15029 2.74904 0
M  V30 8690 H 1021.89 0.578649 1.35241 0
M  V30 8691 H 1023.85 -0.953985 4.06146 0
M  V30 8692 H 1022.48 -1.27398 2.96597 0
M  V30 8693 H 1021.53 1.04502 3.65764 0
M  V30 8694 H 1022.84 1.158 4.85172 0
M  V30 8695 H 1021.99 -0.89887 6.00004 0
M  V30 8696 H 1020.73 -1.10094 4.75111 0
M  V30 8697 H 1019.74 1.11542 5.38366 0
M  V30 8698 H 1020.96 1.30451 6.66453 0
M  V30 8699 H 1018.91 -0.932969 6.49332 0
M  V30 8700 H 1018.83 0.440463 7.54716 0
M  V30 8701 H 1020.09 -0.72936 7.7608 0
M  V30 8702 N 1024.32 -1.44642 0.625825 0
M  V30 8703 C 1025.29 -2.29085 -0.072526 0
M  V30 8704 C 1026.29 -1.40755 -0.777467 0
M  V30 8705 O 1027.48 -1.62684 -0.622861 0
M  V30 8706 C 1024.61 -3.22212 -1.1132 0
M  V30 8707 H 1025.8 -2.92317 0.670124 0
M  V30 8708 H 1023.35 -1.51466 0.38571 0
M  V30 8709 H 1024.09 -2.63819 -1.88601 0
M  V30 8710 H 1023.87 -3.87299 -0.611709 0
M  V30 8711 H 1025.36 -3.8566 -1.60175 0
M  V30 8712 N 1025.8 -0.366053 -1.5329 0
M  V30 8713 C 1026.76 0.467904 -2.24373 0
M  V30 8714 C 1027.76 1.00934 -1.25176 0
M  V30 8715 O 1028.95 0.895015 -1.49449 0
M  V30 8716 C 1026.09 1.65405 -2.98084 0
M  V30 8717 H 1027.28 -0.154105 -2.99504 0
M  V30 8718 H 1024.83 -0.117751 -1.55856 0
M  V30 8719 H 1025.57 2.31413 -2.27197 0
M  V30 8720 H 1025.35 1.27277 -3.70868 0
M  V30 8721 H 1026.84 2.24503 -3.52119 0
M  V30 8722 N 1027.28 1.57312 -0.0952337 0
M  V30 8723 C 1028.24 2.12889 0.849161 0
M  V30 8724 C 1029.24 1.05819 1.21075 0
M  V30 8725 O 1030.43 1.31704 1.14016 0
M  V30 8726 C 1027.56 2.6496 2.14498 0
M  V30 8727 H 1028.76 2.97651 0.366566 0
M  V30 8728 H 1026.31 1.55542 0.153762 0
M  V30 8729 H 1027.05 1.83718 2.67242 0
M  V30 8730 H 1026.83 3.43244 1.89542 0
M  V30 8731 H 1028.32 3.07952 2.82056 0
M  V30 8732 N 1028.76 -0.17846 1.56586 0
M  V30 8733 C 1029.7 -1.22104 1.95855 0
M  V30 8734 C 1030.67 -1.44366 0.821447 0
M  V30 8735 O 1031.86 -1.57224 1.08098 0
M  V30 8736 C 1029 -2.55701 2.31757 0
M  V30 8737 C 1028.11 -2.40879 3.5861 0
M  V30 8738 C 1027.25 -3.67293 3.83757 0
M  V30 8739 C 1026.29 -3.47373 5.03982 0
M  V30 8740 N 1025.42 -4.65839 5.25298 0
M  V30 8741 H 1030.26 -0.879168 2.84736 0
M  V30 8742 H 1027.8 -0.422721 1.40895 0
M  V30 8743 H 1029.76 -3.33556 2.50592 0
M  V30 8744 H 1028.39 -2.87898 1.45995 0
M  V30 8745 H 1027.44 -1.54236 3.47729 0
M  V30 8746 H 1028.75 -2.22102 4.46623 0
M  V30 8747 H 1027.91 -4.53584 4.02922 0
M  V30 8748 H 1026.65 -3.89041 2.94107 0
M  V30 8749 H 1025.65 -2.59467 4.84723 0
M  V30 8750 H 1026.88 -3.27055 5.95157 0
M  V30 8751 H 1024.82 -4.8782 4.38598 0
M  V30 8752 H 1024.74 -4.4995 6.0752 0
M  V30 8753 H 1026.01 -5.53435 5.48936 0
M  V30 8754 N 1030.24 -1.51135 -0.446768 0
M  V30 8755 C 1031.2 -1.71187 -1.52406 0
M  V30 8756 C 1032.2 -0.582037 -1.49897 0
M  V30 8757 O 1033.39 -0.849452 -1.52085 0
M  V30 8758 C 1030.52 -1.75962 -2.91976 0
M  V30 8759 H 1031.71 -2.67324 -1.35934 0
M  V30 8760 H 1029.27 -1.40982 -0.674813 0
M  V30 8761 H 1030 -0.816065 -3.13864 0
M  V30 8762 H 1029.79 -2.58065 -2.95203 0
M  V30 8763 H 1031.28 -1.93347 -3.70144 0
M  V30 8764 N 1031.71 0.701592 -1.41122 0
M  V30 8765 C 1032.68 1.79733 -1.42227 0
M  V30 8766 C 1033.68 1.57708 -0.313831 0
M  V30 8767 O 1034.87 1.64492 -0.573423 0
M  V30 8768 C 1032 3.18024 -1.22775 0
M  V30 8769 H 1033.19 1.80148 -2.39764 0
M  V30 8770 H 1030.74 0.908624 -1.27176 0
M  V30 8771 H 1031.48 3.23252 -0.260552 0
M  V30 8772 H 1031.26 3.35411 -2.0308 0
M  V30 8773 H 1032.75 3.98021 -1.2637 0
M  V30 8774 N 1033.19 1.2685 0.935242 0
M  V30 8775 C 1034.12 1.04717 2.0388 0
M  V30 8776 C 1035.14 0.00567507 1.62799 0
M  V30 8777 O 1036.33 0.246408 1.76791 0
M  V30 8778 C 1033.43 0.56496 3.34158 0
M  V30 8779 C 1032.6 1.67704 4.03973 0
M  V30 8780 C 1031.66 1.19186 5.12524 0
M  V30 8781 O 1030.68 1.89008 5.36903 0
M  V30 8782 N 1031.89 0.0434554 5.80484 0
M  V30 8783 H 1034.65 1.99746 2.23431 0
M  V30 8784 H 1032.21 1.18316 1.10512 0
M  V30 8785 H 1034.2 0.224436 4.04077 0
M  V30 8786 H 1032.77 -0.291899 3.11234 0
M  V30 8787 H 1031.99 2.18821 3.27889 0
M  V30 8788 H 1033.28 2.42361 4.47368 0
M  V30 8789 H 1032.68 -0.539502 5.63122 0
M  V30 8790 H 1031.24 -0.237946 6.51366 0
M  V30 8791 N 1034.67 -1.14067 1.0875 0
M  V30 8792 C 1035.92 -1.85185 0.819317 0
M  V30 8793 C 1036.25 -1.8314 -0.654969 0
M  V30 8794 O 1035.5 -1.25974 -1.49763 0
M  V30 8795 C 1035.8 -3.33273 1.29089 0
M  V30 8796 C 1035.47 -3.55504 2.77359 0
M  V30 8797 C 1034.13 -3.61279 3.17853 0
M  V30 8798 C 1036.48 -3.64041 3.72992 0
M  V30 8799 C 1033.81 -3.73119 4.52768 0
M  V30 8800 C 1036.16 -3.77407 5.07687 0
M  V30 8801 C 1034.82 -3.81433 5.47782 0
M  V30 8802 H 1034.09 -0.67764 0.299809 0
M  V30 8803 H 1036.74 -1.34713 1.36106 0
M  V30 8804 H 1035.05 -3.86049 0.668811 0
M  V30 8805 H 1036.74 -3.86734 1.06009 0
M  V30 8806 H 1033.33 -3.51659 2.45019 0
M  V30 8807 H 1037.52 -3.58866 3.42825 0
M  V30 8808 H 1032.77 -3.74499 4.83281 0
M  V30 8809 H 1036.95 -3.82956 5.81651 0
M  V30 8810 H 1034.57 -3.9036 6.52321 0
M  V30 8811 N 1036.15 -0.873678 -1.31166 0
M  V30 8812 C 1037.4 -0.485497 -1.96182 0
M  V30 8813 C 1037.72 0.96621 -1.69379 0
M  V30 8814 O 1036.99 1.67783 -1.01121 0
M  V30 8815 H 1035.57 -0.176547 -0.725838 0
M  V30 8816 H 1038.23 -1.11428 -1.59906 0
M  V30 8817 H 1037.33 -0.646325 -3.05334 0
M  V30 8818 N 1037.63 1.44308 -0.633487 0
M  V30 8819 C 1038.56 2.33431 0.0568402 0
M  V30 8820 C 1039.54 1.48342 0.832386 0
M  V30 8821 O 1040.72 1.77056 0.797798 0
M  V30 8822 C 1037.85 3.31443 1.03743 0
M  V30 8823 C 1036.81 4.26368 0.373362 0
M  V30 8824 C 1036.13 5.14267 1.46403 0
M  V30 8825 C 1037.43 5.17287 -0.721876 0
M  V30 8826 H 1039.13 2.91402 -0.687388 0
M  V30 8827 H 1036.67 1.4012 -0.332009 0
M  V30 8828 H 1038.63 3.92677 1.52913 0
M  V30 8829 H 1037.35 2.71686 1.81258 0
M  V30 8830 H 1036.01 3.6647 -0.0977053 0
M  V30 8831 H 1035.66 4.50861 2.23011 0
M  V30 8832 H 1035.36 5.7859 1.02506 0
M  V30 8833 H 1036.88 5.78373 1.95748 0
M  V30 8834 H 1038.29 5.72444 -0.313181 0
M  V30 8835 H 1036.69 5.90226 -1.08413 0
M  V30 8836 H 1037.76 4.58159 -1.58804 0
M  V30 8837 N 1039.1 0.374177 1.53094 0
M  V30 8838 C 1040.35 -0.213131 2.01677 0
M  V30 8839 C 1040.68 -1.47715 1.26071 0
M  V30 8840 O 1039.96 -1.91199 0.356834 0
M  V30 8841 C 1040.24 -0.496392 3.56662 0
M  V30 8842 C 1040.09 0.781859 4.42953 0
M  V30 8843 C 1041.41 -1.29339 4.20666 0
M  V30 8844 H 1038.53 -0.0759885 0.733072 0
M  V30 8845 H 1041.17 0.500765 1.83282 0
M  V30 8846 H 1039.32 -1.10455 3.72467 0
M  V30 8847 H 1041 1.41914 4.38928 0
M  V30 8848 H 1039.24 1.40041 4.10574 0
M  V30 8849 H 1039.91 0.538508 5.49367 0
M  V30 8850 H 1042.39 -0.778848 4.08746 0
M  V30 8851 H 1041.26 -1.46033 5.29118 0
M  V30 8852 H 1041.52 -2.30435 3.77296 0
M  V30 8853 N 1040.58 -1.57259 0.103575 0
M  V30 8854 C 1041.83 -1.94272 -0.557024 0
M  V30 8855 C 1042.15 -0.986739 -1.68192 0
M  V30 8856 O 1041.42 -0.0402818 -1.95859 0
M  V30 8857 H 1040 -0.717237 -0.208757 0
M  V30 8858 H 1042.66 -1.94167 0.168898 0
M  V30 8859 H 1041.76 -2.96914 -0.961691 0
M  V30 8860 N 1042.06 0.170153 -1.56679 0
M  V30 8861 C 1043.02 1.19443 -1.95617 0
M  V30 8862 C 1044.02 1.37118 -0.83996 0
M  V30 8863 O 1045.21 1.34504 -1.10699 0
M  V30 8864 C 1042.35 2.55926 -2.25199 0
M  V30 8865 H 1043.54 0.86095 -2.87276 0
M  V30 8866 H 1041.09 0.412646 -1.50755 0
M  V30 8867 H 1041.83 2.94286 -1.36257 0
M  V30 8868 H 1041.61 2.44464 -3.06562 0
M  V30 8869 H 1043.1 3.29742 -2.56242 0
M  V30 8870 N 1043.54 1.5137 0.438746 0
M  V30 8871 C 1044.5 1.71993 1.51496 0
M  V30 8872 C 1045.5 0.589978 1.49586 0
M  V30 8873 O 1046.69 0.857505 1.51633 0
M  V30 8874 C 1043.82 1.77508 2.91039 0
M  V30 8875 H 1045.02 2.68041 1.34514 0
M  V30 8876 H 1042.57 1.41338 0.667326 0
M  V30 8877 H 1043.3 0.832698 3.13427 0
M  V30 8878 H 1043.09 2.59627 2.9383 0
M  V30 8879 H 1044.58 1.95308 3.69113 0
M  V30 8880 N 1045.02 -0.694098 1.41492 0
M  V30 8881 C 1046.26 -1.45127 1.4065 0
M  V30 8882 C 1046.59 -1.94993 0.0170289 0
M  V30 8883 O 1045.86 -1.71799 -0.941372 0
M  V30 8884 H 1044.44 -0.538493 0.51772 0
M  V30 8885 H 1047.1 -0.821441 1.76744 0
M  V30 8886 H 1046.19 -2.31372 2.0946 0
M  V30 8887 N 1046.49 -1.27344 -0.928501 0
M  V30 8888 C 1047.42 -1.12517 -2.04602 0
M  V30 8889 C 1048.41 -0.0268563 -1.70079 0
M  V30 8890 O 1049.59 -0.201197 -1.93155 0
M  V30 8891 C 1046.72 -0.770749 -3.3864 0
M  V30 8892 C 1045.67 -1.8222 -3.87272 0
M  V30 8893 C 1045 -1.32178 -5.18105 0
M  V30 8894 C 1046.3 -3.22614 -4.10752 0
M  V30 8895 H 1047.99 -2.06 -2.17265 0
M  V30 8896 H 1045.54 -0.991827 -1.04397 0
M  V30 8897 H 1047.49 -0.653843 -4.16297 0
M  V30 8898 H 1046.22 0.19979 -3.25988 0
M  V30 8899 H 1044.88 -1.928 -3.11807 0
M  V30 8900 H 1044.52 -0.340719 -5.01845 0
M  V30 8901 H 1044.22 -2.02474 -5.51614 0
M  V30 8902 H 1045.75 -1.2178 -5.98333 0
M  V30 8903 H 1047.16 -3.1504 -4.78981 0
M  V30 8904 H 1045.56 -3.90614 -4.55566 0
M  V30 8905 H 1046.63 -3.67727 -3.16077 0
M  V30 8906 N 1047.97 1.13488 -1.09353 0
M  V30 8907 C 1049.22 1.84383 -0.827488 0
M  V30 8908 C 1049.54 1.83892 0.648745 0
M  V30 8909 O 1048.81 1.29415 1.47066 0
M  V30 8910 H 1047.39 0.682732 -0.303127 0
M  V30 8911 H 1050.05 1.37477 -1.38152 0
M  V30 8912 H 1049.15 2.88919 -1.18035 0
M  V30 8913 N 1049.45 0.880621 1.30701 0
M  V30 8914 C 1050.7 0.495894 1.95922 0
M  V30 8915 C 1051.02 -0.957214 1.69889 0
M  V30 8916 O 1050.29 -1.67245 1.0201 0
M  V30 8917 H 1048.87 0.180394 0.724891 0
M  V30 8918 H 1051.53 1.12274 1.59313 0
M  V30 8919 H 1050.63 0.662508 3.04987 0
M  V30 8920 N 1050.93 -1.4397 0.641131 0
M  V30 8921 C 1051.86 -2.33458 -0.04446 0
M  V30 8922 C 1052.84 -1.48781 -0.824507 0
M  V30 8923 O 1054.03 -1.77477 -0.788397 0
M  V30 8924 C 1051.16 -3.31989 -1.01984 0
M  V30 8925 C 1050.11 -4.2656 -0.350745 0
M  V30 8926 C 1049.44 -5.15036 -1.43673 0
M  V30 8927 C 1050.74 -5.16897 0.749299 0
M  V30 8928 H 1052.43 -2.91034 0.702832 0
M  V30 8929 H 1049.98 -1.39942 0.339435 0
M  V30 8930 H 1051.93 -3.93483 -1.50828 0
M  V30 8931 H 1050.65 -2.72643 -1.79815 0
M  V30 8932 H 1049.31 -3.66413 0.117139 0
M  V30 8933 H 1048.96 -4.52037 -2.20617 0
M  V30 8934 H 1048.66 -5.79125 -0.994358 0
M  V30 8935 H 1050.18 -5.79403 -1.92678 0
M  V30 8936 H 1051.6 -5.7227 0.343534 0
M  V30 8937 H 1049.99 -5.89643 1.11541 0
M  V30 8938 H 1051.06 -4.5731 1.61232 0
M  V30 8939 N 1052.41 -0.382291 -1.52893 0
M  V30 8940 C 1053.66 0.201734 -2.01091 0
M  V30 8941 C 1053.98 1.47905 -1.2708 0
M  V30 8942 O 1053.25 1.92002 -0.38883 0
M  V30 8943 H 1051.83 0.0775373 -0.742965 0
M  V30 8944 H 1054.49 -0.512369 -1.88045 0
M  V30 8945 H 1053.58 0.416919 -3.09303 0
M  V30 8946 N 1053.89 1.57202 -0.111913 0
M  V30 8947 C 1055.13 1.95239 0.548607 0
M  V30 8948 C 1055.46 0.994897 1.6678 0
M  V30 8949 O 1054.74 0.0308603 1.94476 0
M  V30 8950 C 1055.02 3.43271 1.08798 0
M  V30 8951 C 1054.88 4.49792 -0.0273064 0
M  V30 8952 C 1056.19 3.92989 1.98109 0
M  V30 8953 H 1053.31 0.709919 0.197951 0
M  V30 8954 H 1055.96 1.89087 -0.186036 0
M  V30 8955 H 1054.11 3.48644 1.71404 0
M  V30 8956 H 1055.78 4.56521 -0.662302 0
M  V30 8957 H 1054.02 4.28254 -0.691426 0
M  V30 8958 H 1054.69 5.50612 0.391201 0
M  V30 8959 H 1057.17 3.89875 1.45385 0
M  V30 8960 H 1056.04 4.97101 2.32769 0
M  V30 8961 H 1056.3 3.33267 2.90492 0
M  V30 8962 N 1055.36 -0.161842 1.56767 0
M  V30 8963 C 1056.61 -0.875192 1.82167 0
M  V30 8964 C 1056.93 -1.82367 0.690444 0
M  V30 8965 O 1056.2 -1.93756 -0.289023 0
M  V30 8966 H 1054.78 -0.326178 0.672024 0
M  V30 8967 H 1057.44 -0.159392 1.94247 0
M  V30 8968 H 1056.54 -1.44639 2.76561 0
M  V30 8969 N 1056.84 -1.516 -0.430713 0
M  V30 8970 C 1058.09 -1.64271 -1.17726 0
M  V30 8971 C 1058.41 -0.364406 -1.91565 0
M  V30 8972 O 1057.68 0.619991 -1.8583 0
M  V30 8973 H 1056.26 -0.605432 -0.437562 0
M  V30 8974 H 1058.92 -1.88557 -0.493166 0
M  V30 8975 H 1058.02 -2.47355 -1.90321 0
M  V30 8976 N 1058.32 0.686584 -1.41858 0
M  V30 8977 C 1059.25 1.81264 -1.47193 0
M  V30 8978 C 1060.23 1.66875 -0.329657 0
M  V30 8979 O 1061.42 1.86473 -0.542347 0
M  V30 8980 C 1058.55 3.19472 -1.36216 0
M  V30 8981 C 1057.5 3.4858 -2.48347 0
M  V30 8982 C 1056.83 4.86239 -2.22432 0
M  V30 8983 C 1058.13 3.46653 -3.90678 0
M  V30 8984 H 1059.82 1.77057 -2.41436 0
M  V30 8985 H 1057.37 0.850415 -1.16206 0
M  V30 8986 H 1059.32 3.97969 -1.38558 0
M  V30 8987 H 1058.04 3.24327 -0.384611 0
M  V30 8988 H 1056.7 2.72437 -2.45303 0
M  V30 8989 H 1056.35 4.8773 -1.22999 0
M  V30 8990 H 1056.05 5.06677 -2.97577 0
M  V30 8991 H 1057.57 5.67034 -2.26505 0
M  V30 8992 H 1058.99 4.15139 -3.95389 0
M  V30 8993 H 1057.38 3.78625 -4.65578 0
M  V30 8994 H 1058.45 2.45451 -4.18189 0
M  V30 8995 N 1059.8 1.27835 0.921735 0
M  V30 8996 C 1061.05 1.14296 1.66676 0
M  V30 8997 C 1061.37 -0.310493 1.92512 0
M  V30 8998 O 1060.64 -1.21637 1.53562 0
M  V30 8999 H 1059.22 0.419994 0.617749 0
M  V30 9000 H 1061.88 1.60449 1.10644 0
M  V30 9001 H 1060.97 1.67654 2.63246 0
M  V30 9002 N 1061.28 -1.12907 1.09954 0
M  V30 9003 C 1062.52 -1.84579 0.840155 0
M  V30 9004 C 1062.85 -1.83605 -0.632692 0
M  V30 9005 O 1062.13 -1.27803 -1.46617 0
M  V30 9006 C 1062.41 -3.32489 1.38286 0
M  V30 9007 C 1062.27 -3.41946 2.92221 0
M  V30 9008 C 1063.58 -4.28091 1.0211 0
M  V30 9009 H 1060.7 -0.670169 0.306663 0
M  V30 9010 H 1063.35 -1.3249 1.36185 0
M  V30 9011 H 1061.5 -3.76978 0.939123 0
M  V30 9012 H 1063.17 -3.06128 3.45085 0
M  V30 9013 H 1061.41 -2.8265 3.29077 0
M  V30 9014 H 1062.08 -4.45983 3.25274 0
M  V30 9015 H 1064.56 -3.91701 1.4039 0
M  V30 9016 H 1063.43 -5.30005 1.42781 0
M  V30 9017 H 1063.69 -4.42044 -0.0700753 0
M  V30 9018 N 1062.75 -0.88754 -1.30232 0
M  V30 9019 C 1064.16 -0.55745 -1.78184 0
M  V30 9020 C 1064.52 0.926474 -1.72948 0
M  V30 9021 O 1063.64 1.72403 -1.3079 0
M  V30 9022 C 1064.24 -1.00512 -3.23547 0
M  V30 9023 C 1062.79 -0.726402 -3.69324 0
M  V30 9024 C 1061.94 -1.18666 -2.50627 0
M  V30 9025 H 1064.89 -1.07151 -1.17066 0
M  V30 9026 H 1064.91 -0.335185 -3.79021 0
M  V30 9027 H 1064.43 -2.08517 -3.27326 0
M  V30 9028 H 1062.53 0.341548 -3.71031 0
M  V30 9029 H 1062.64 -1.31575 -4.60679 0
M  V30 9030 H 1061 -0.605936 -2.47387 0
M  V30 9031 H 1061.79 -2.2745 -2.57141 0
M  V30 9032 N 1064.23 1.43628 -0.648757 0
M  V30 9033 C 1065.48 2.01465 -0.16002 0
M  V30 9034 C 1065.8 1.51413 1.22878 0
M  V30 9035 O 1065.07 0.724919 1.81994 0
M  V30 9036 H 1063.65 0.744885 -0.0561672 0
M  V30 9037 H 1066.31 1.75897 -0.839422 0
M  V30 9038 H 1065.41 3.1178 -0.141213 0
M  V30 9039 N 1065.71 0.390394 1.52688 0
M  V30 9040 C 1066.96 -0.191729 2.01892 0
M  V30 9041 C 1067.29 -1.4637 1.27631 0
M  V30 9042 O 1066.56 -1.90809 0.377094 0
M  V30 9043 C 1066.85 -0.458535 3.57169 0
M  V30 9044 C 1066.7 0.828796 4.42098 0
M  V30 9045 C 1068.02 -1.2487 4.22014 0
M  V30 9046 H 1065.14 -0.0682091 0.733837 0
M  V30 9047 H 1067.78 0.520176 1.82741 0
M  V30 9048 H 1065.93 -1.06498 3.73618 0
M  V30 9049 H 1067.6 1.46562 4.37398 0
M  V30 9050 H 1065.85 1.44388 4.09066 0
M  V30 9051 H 1066.52 0.596746 5.48765 0
M  V30 9052 H 1068.99 -0.735452 4.09549 0
M  V30 9053 H 1067.87 -1.40412 5.30637 0
M  V30 9054 H 1068.13 -2.2642 3.79719 0
M  V30 9055 N 1067.19 -1.57141 0.120249 0
M  V30 9056 C 1068.44 -1.94852 -0.536387 0
M  V30 9057 C 1068.76 -1.00452 -1.67136 0
M  V30 9058 O 1068.03 -0.061053 -1.95805 0
M  V30 9059 H 1066.61 -0.719411 -0.201138 0
M  V30 9060 H 1069.27 -1.93977 0.189482 0
M  V30 9061 H 1068.37 -2.97917 -0.930145 0
M  V30 9062 N 1068.67 0.153526 -1.5685 0
M  V30 9063 C 1069.91 0.865519 -1.82629 0
M  V30 9064 C 1070.24 1.81999 -0.700105 0
M  V30 9065 O 1069.51 1.93907 0.278744 0
M  V30 9066 H 1068.09 0.32261 -0.673745 0
M  V30 9067 H 1070.75 0.149088 -1.94329 0
M  V30 9068 H 1069.84 1.43171 -2.77324 0
M  V30 9069 N 1070.14 1.51827 0.422667 0
M  V30 9070 C 1071.07 1.77152 1.52117 0
M  V30 9071 C 1072.06 0.621895 1.58324 0
M  V30 9072 O 1073.24 0.866118 1.73816 0
M  V30 9073 C 1070.37 1.90991 2.90068 0
M  V30 9074 C 1069.32 3.06516 2.98717 0
M  V30 9075 C 1068.65 3.05559 4.38791 0
M  V30 9076 C 1069.95 4.46223 2.71445 0
M  V30 9077 H 1071.64 2.69135 1.31175 0
M  V30 9078 H 1069.19 1.29507 0.629607 0
M  V30 9079 H 1071.14 2.07291 3.6689 0
M  V30 9080 H 1069.87 0.956688 3.12274 0
M  V30 9081 H 1068.53 2.89945 2.24338 0
M  V30 9082 H 1068.17 2.07985 4.57986 0
M  V30 9083 H 1067.87 3.83144 4.45505 0
M  V30 9084 H 1069.4 3.23971 5.17566 0
M  V30 9085 H 1070.81 4.63069 3.37994 0
M  V30 9086 H 1069.21 5.25623 2.89552 0
M  V30 9087 H 1070.28 4.5525 1.6696 0
M  V30 9088 N 1071.62 -0.679052 1.4222 0
M  V30 9089 C 1072.87 -1.43627 1.42182 0
M  V30 9090 C 1073.19 -1.94964 0.0377095 0
M  V30 9091 O 1072.46 -1.72788 -0.923098 0
M  V30 9092 H 1071.04 -0.532972 0.523402 0
M  V30 9093 H 1073.7 -0.802649 1.77605 0
M  V30 9094 H 1072.8 -2.29137 2.11902 0
M  V30 9095 N 1073.1 -1.28322 -0.914942 0
M  V30 9096 C 1074.35 -1.15179 -1.66067 0
M  V30 9097 C 1074.67 0.300279 -1.92674 0
M  V30 9098 O 1073.94 1.20821 -1.54205 0
M  V30 9099 H 1072.52 -0.423264 -0.615513 0
M  V30 9100 H 1075.18 -1.61034 -1.09791 0
M  V30 9101 H 1074.28 -1.69048 -2.62353 0
M  V30 9102 N 1074.58 1.12322 -1.10551 0
M  V30 9103 C 1075.83 1.83216 -0.84349 0
M  V30 9104 C 1076.14 1.85075 0.632992 0
M  V30 9105 O 1077.35 2.51976 1.01095 0
M  V30 9106 C 1075.8 3.28994 -1.45915 0
M  V30 9107 C 1075.41 3.3549 -2.96901 0
M  V30 9108 C 1077.15 4.0485 -1.27657 0
M  V30 9109 C 1075.06 4.7561 -3.51496 0
M  V30 9110 H 1073.99 0.686471 -0.311887 0
M  V30 9111 H 1076.64 1.26463 -1.32964 0
M  V30 9112 H 1075.02 3.85621 -0.900678 0
M  V30 9113 H 1076.2 2.88795 -3.59074 0
M  V30 9114 H 1074.51 2.73107 -3.14327 0
M  V30 9115 H 1077.11 5.08316 -1.65889 0
M  V30 9116 H 1077.45 4.15727 -0.218258 0
M  V30 9117 H 1077.99 3.54584 -1.80318 0
M  V30 9118 H 1074.73 4.69927 -4.56999 0
M  V30 9119 H 1074.25 5.22753 -2.94091 0
M  V30 9120 H 1075.92 5.44552 -3.49388 0
M  V30 9121 N 1076.06 0.894434 1.2976 0
M  V30 9122 C 1077.47 0.566892 1.77885 0
M  V30 9123 C 1077.82 -0.917289 1.73437 0
M  V30 9124 O 1076.94 -1.71707 1.31703 0
M  V30 9125 C 1077.54 1.02227 3.2301 0
M  V30 9126 C 1076.1 0.745978 3.68934 0
M  V30 9127 C 1075.24 1.19993 2.49994 0
M  V30 9128 H 1078.2 1.0777 1.16496 0
M  V30 9129 H 1078.22 0.355281 3.78838 0
M  V30 9130 H 1077.73 2.1025 3.26215 0
M  V30 9131 H 1075.83 -0.321866 3.71207 0
M  V30 9132 H 1075.94 1.34017 4.59974 0
M  V30 9133 H 1074.31 0.619047 2.47063 0
M  V30 9134 H 1075.09 2.28811 2.55931 0
M  V30 9135 N 1077.53 -1.43282 0.656365 0
M  V30 9136 C 1078.95 -1.85012 0.250475 0
M  V30 9137 C 1079.3 -1.54944 -1.20361 0
M  V30 9138 O 1078.42 -0.999983 -1.9191 0
M  V30 9139 C 1079.02 -3.35827 0.447815 0
M  V30 9140 C 1077.58 -3.76277 0.0962151 0
M  V30 9141 C 1076.72 -2.66988 0.749168 0
M  V30 9142 H 1079.67 -1.3339 0.85982 0
M  V30 9143 H 1079.69 -3.7927 -0.305726 0
M  V30 9144 H 1079.21 -3.5768 1.5062 0
M  V30 9145 H 1077.31 -3.60035 -0.959449 0
M  V30 9146 H 1077.42 -4.76227 0.523875 0
M  V30 9147 H 1075.78 -2.54048 0.18212 0
M  V30 9148 H 1076.57 -2.91669 1.81064 0
M  V30 9149 N 1079.01 -0.398486 -1.52479 0
M  V30 9150 C 1079.98 0.420206 -2.25315 0
M  V30 9151 C 1080.98 0.982559 -1.27289 0
M  V30 9152 O 1082.17 0.863113 -1.51314 0
M  V30 9153 C 1079.3 1.59045 -3.01525 0
M  V30 9154 H 1080.49 -0.217599 -2.9911 0
M  V30 9155 H 1078.04 -0.150784 -1.55571 0
M  V30 9156 H 1078.78 2.26542 -2.32054 0
M  V30 9157 H 1078.56 1.19382 -3.73484 0
M  V30 9158 H 1080.05 2.16984 -3.56802 0
M  V30 9159 N 1080.49 1.57075 -0.12858 0
M  V30 9160 C 1081.45 2.14643 0.803813 0
M  V30 9161 C 1082.45 1.08363 1.18803 0
M  V30 9162 O 1083.64 1.34093 1.11197 0
M  V30 9163 C 1080.78 2.6945 2.08829 0
M  V30 9164 H 1081.97 2.98362 0.303347 0
M  V30 9165 H 1079.52 1.55833 0.120735 0
M  V30 9166 H 1080.26 1.89345 2.63285 0
M  V30 9167 H 1080.04 3.47187 1.82218 0
M  V30 9168 H 1081.53 3.13865 2.7546 0
M  V30 9169 N 1081.97 -0.145205 1.5693 0
M  V30 9170 C 1082.93 -1.16316 1.97492 0
M  V30 9171 C 1083.93 -1.35764 0.861668 0
M  V30 9172 O 1085.12 -1.32726 1.12825 0
M  V30 9173 C 1082.25 -2.52311 2.29242 0
M  V30 9174 H 1083.45 -0.815138 2.8861 0
M  V30 9175 H 1081 -0.38861 1.51392 0
M  V30 9176 H 1081.74 -2.92081 1.40922 0
M  V30 9177 H 1081.52 -2.39555 3.10412 0
M  V30 9178 H 1083.01 -3.25624 2.61456 0
M  V30 9179 N 1083.45 -1.52049 -0.414609 0
M  V30 9180 C 1084.41 -1.74382 -1.4874 0
M  V30 9181 C 1085.41 -0.613701 -1.48628 0
M  V30 9182 O 1086.6 -0.88152 -1.50249 0
M  V30 9183 C 1083.73 -1.82116 -2.88178 0
M  V30 9184 H 1084.93 -2.70147 -1.30233 0
M  V30 9185 H 1082.48 -1.42382 -0.644756 0
M  V30 9186 H 1083.21 -0.882457 -3.12063 0
M  V30 9187 H 1083 -2.64268 -2.89663 0
M  V30 9188 H 1084.49 -2.01155 -3.65959 0
M  V30 9189 N 1084.93 0.6715 -1.42579 0
M  V30 9190 C 1085.87 1.78496 -1.46314 0
M  V30 9191 C 1086.84 1.63091 -0.314743 0
M  V30 9192 O 1088.03 1.83597 -0.519292 0
M  V30 9193 C 1085.17 3.16548 -1.37447 0
M  V30 9194 C 1084.28 3.43216 -2.62348 0
M  V30 9195 C 1083.42 4.71014 -2.456 0
M  V30 9196 C 1082.45 4.90728 -3.65859 0
M  V30 9197 N 1081.59 6.09769 -3.48032 0
M  V30 9198 H 1086.43 1.74638 -2.41466 0
M  V30 9199 H 1083.97 0.852491 -1.19879 0
M  V30 9200 H 1085.93 3.96329 -1.30303 0
M  V30 9201 H 1084.56 3.19522 -0.458891 0
M  V30 9202 H 1083.61 2.57664 -2.79846 0
M  V30 9203 H 1084.92 3.53675 -3.51732 0
M  V30 9204 H 1084.07 5.58892 -2.3606 0
M  V30 9205 H 1082.81 4.62843 -1.53712 0
M  V30 9206 H 1081.82 4.01291 -3.75827 0
M  V30 9207 H 1083.04 5.00741 -4.58732 0
M  V30 9208 H 1080.99 6.02765 -2.58864 0
M  V30 9209 H 1080.91 6.21104 -4.31005 0
M  V30 9210 H 1082.17 7.00317 -3.42311 0
M  V30 9211 N 1086.4 1.28806 0.908124 0
M  V30 9212 C 1087.37 1.13228 1.99279 0
M  V30 9213 C 1088.37 0.0702456 1.60646 0
M  V30 9214 O 1089.56 0.316494 1.71301 0
M  V30 9215 C 1086.69 0.729629 3.33 0
M  V30 9216 H 1087.88 2.09566 2.14528 0
M  V30 9217 H 1085.43 1.11872 1.09153 0
M  V30 9218 H 1086.17 -0.234268 3.23453 0
M  V30 9219 H 1085.95 1.49688 3.62403 0
M  V30 9220 H 1087.44 0.643449 4.12613 0
M  V30 9221 N 1087.88 -1.11734 1.11145 0
M  V30 9222 C 1088.84 -2.15868 0.770303 0
M  V30 9223 C 1089.84 -1.59438 -0.208842 0
M  V30 9224 O 1091.03 -1.74193 0.0152516 0
M  V30 9225 C 1088.17 -3.40603 0.142303 0
M  V30 9226 H 1089.36 -2.4756 1.69276 0
M  V30 9227 H 1086.91 -1.26867 0.912929 0
M  V30 9228 H 1087.65 -3.14517 -0.790526 0
M  V30 9229 H 1087.43 -3.8284 0.847087 0
M  V30 9230 H 1088.92 -4.17523 -0.0803608 0
M  V30 9231 N 1089.36 -0.901303 -1.29284 0
M  V30 9232 C 1090.31 -0.378666 -2.27672 0
M  V30 9233 C 1091.28 0.540102 -1.57074 0
M  V30 9234 O 1092.46 0.464997 -1.85047 0
M  V30 9235 C 1089.6 0.38635 -3.42931 0
M  V30 9236 C 1088.71 -0.563496 -4.28309 0
M  V30 9237 C 1087.85 0.218731 -5.30749 0
M  V30 9238 C 1086.89 -0.725536 -6.07785 0
M  V30 9239 N 1086.03 0.0223854 -7.02096 0
M  V30 9240 H 1090.87 -1.22277 -2.71758 0
M  V30 9241 H 1088.4 -0.614302 -1.33659 0
M  V30 9242 H 1090.36 0.845967 -4.08533 0
M  V30 9243 H 1088.99 1.1949 -2.9987 0
M  V30 9244 H 1088.04 -1.14163 -3.62865 0
M  V30 9245 H 1089.35 -1.28623 -4.81931 0
M  V30 9246 H 1088.51 0.739473 -6.02177 0
M  V30 9247 H 1087.25 0.97459 -4.77863 0
M  V30 9248 H 1086.25 -1.25776 -5.3522 0
M  V30 9249 H 1087.48 -1.48075 -6.6276 0
M  V30 9250 H 1085.42 0.760482 -6.51577 0
M  V30 9251 H 1085.34 -0.640408 -7.53283 0
M  V30 9252 H 1086.61 0.523339 -7.77741 0
M  V30 9253 N 1090.84 1.42931 -0.663954 0
M  V30 9254 C 1092.07 2.05729 -0.189532 0
M  V30 9255 C 1092.48 1.49914 1.15423 0
M  V30 9256 O 1091.82 0.629324 1.72584 0
M  V30 9257 C 1091.88 3.59482 -0.0354748 0
M  V30 9258 C 1091.54 4.37935 -1.30622 0
M  V30 9259 C 1092.54 4.69297 -2.23733 0
M  V30 9260 C 1090.23 4.77761 -1.5508 0
M  V30 9261 C 1092.22 5.39407 -3.39586 0
M  V30 9262 C 1089.91 5.47613 -2.71224 0
M  V30 9263 C 1090.91 5.7836 -3.63302 0
M  V30 9264 O 1090.59 6.46783 -4.77417 0
M  V30 9265 H 1090.33 0.669678 -0.0922342 0
M  V30 9266 H 1092.88 1.84243 -0.907943 0
M  V30 9267 H 1091.11 3.79584 0.738412 0
M  V30 9268 H 1092.8 4.03947 0.397679 0
M  V30 9269 H 1093.56 4.39038 -2.06084 0
M  V30 9270 H 1089.44 4.53229 -0.842863 0
M  V30 9271 H 1092.99 5.63323 -4.11476 0
M  V30 9272 H 1088.88 5.77289 -2.88804 0
M  V30 9273 H 1089.65 6.6527 -4.76821 0
M  V30 9274 N 1092.32 0.406567 1.52266 0
M  V30 9275 C 1093.56 -0.169717 2.01386 0
M  V30 9276 C 1093.88 -1.45864 1.29417 0
M  V30 9277 O 1093.15 -1.9136 0.419327 0
M  V30 9278 H 1091.73 -0.0657075 0.744105 0
M  V30 9279 H 1094.4 0.542221 1.87206 0
M  V30 9280 H 1093.49 -0.367659 3.09927 0
M  V30 9281 N 1093.79 -1.57004 0.136909 0
M  V30 9282 C 1094.76 -2.15066 -0.792419 0
M  V30 9283 C 1095.76 -1.08991 -1.18226 0
M  V30 9284 O 1096.95 -1.34681 -1.10484 0
M  V30 9285 C 1094.08 -2.70554 -2.07397 0
M  V30 9286 H 1095.27 -2.98519 -0.28752 0
M  V30 9287 H 1092.83 -1.55895 -0.112469 0
M  V30 9288 H 1093.56 -1.90739 -2.62277 0
M  V30 9289 H 1093.35 -3.48149 -1.80374 0
M  V30 9290 H 1094.84 -3.15322 -2.73792 0
M  V30 9291 N 1095.27 0.136881 -1.57004 0
M  V30 9292 C 1096.24 1.15267 -1.98106 0
M  V30 9293 C 1097.24 1.35305 -0.868856 0
M  V30 9294 O 1098.43 1.32126 -1.13527 0
M  V30 9295 C 1095.56 2.51092 -2.30577 0
M  V30 9296 H 1096.75 0.799821 -2.89038 0
M  V30 9297 H 1094.3 0.380576 -1.51596 0
M  V30 9298 H 1095.04 2.9133 -1.42469 0
M  V30 9299 H 1094.82 2.37906 -3.11678 0
M  V30 9300 H 1096.31 3.24232 -2.63179 0
M  V30 9301 N 1096.75 1.52266 0.40654 0
M  V30 9302 C 1098 1.66123 1.15097 0
M  V30 9303 C 1098.32 0.394836 1.90961 0
M  V30 9304 O 1097.59 -0.590349 1.86793 0
M  V30 9305 H 1096.17 0.612317 0.427875 0
M  V30 9306 H 1098.83 1.89318 0.463106 0
M  V30 9307 H 1097.93 2.50351 1.86361 0
M  V30 9308 N 1098.23 -0.663929 1.42933 0
M  V30 9309 C 1099.16 -1.78899 1.50058 0
M  V30 9310 C 1100.14 -1.66329 0.356164 0
M  V30 9311 O 1101.32 -1.85587 0.571944 0
M  V30 9312 C 1098.45 -3.17265 1.41281 0
M  V30 9313 C 1097.41 -3.44584 2.53861 0
M  V30 9314 C 1096.73 -4.82638 2.3014 0
M  V30 9315 C 1098.03 -3.40394 3.96143 0
M  V30 9316 H 1099.73 -1.73194 2.44222 0
M  V30 9317 H 1097.27 -0.83182 1.17545 0
M  V30 9318 H 1099.23 -3.95715 1.44872 0
M  V30 9319 H 1097.95 -3.23675 0.43616 0
M  V30 9320 H 1096.61 -2.685 2.49606 0
M  V30 9321 H 1096.26 -4.85711 1.30743 0
M  V30 9322 H 1095.96 -5.01879 3.056 0
M  V30 9323 H 1097.48 -5.63359 2.35497 0
M  V30 9324 H 1098.9 -4.08796 4.01943 0
M  V30 9325 H 1097.29 -3.7117 4.71543 0
M  V30 9326 H 1098.36 -2.38767 4.22041 0
M  V30 9327 N 1099.71 -1.29285 -0.901281 0
M  V30 9328 C 1100.95 -1.16934 -1.64836 0
M  V30 9329 C 1101.28 0.279826 -1.92982 0
M  V30 9330 O 1100.55 1.19179 -1.55478 0
M  V30 9331 H 1099.13 -0.429768 -0.61099 0
M  V30 9332 H 1101.79 -1.62189 -1.08077 0
M  V30 9333 H 1100.88 -1.71821 -2.60545 0
M  V30 9334 N 1101.18 1.11143 -1.11736 0
M  V30 9335 C 1102.43 1.82586 -0.866412 0
M  V30 9336 C 1102.75 1.85227 0.609593 0
M  V30 9337 O 1102.02 1.32505 1.44288 0
M  V30 9338 H 1100.6 0.676149 -0.31754 0
M  V30 9339 H 1103.27 1.34516 -1.41037 0
M  V30 9340 H 1102.36 2.8635 -1.24136 0
M  V30 9341 N 1102.66 0.908147 1.28804 0
M  V30 9342 C 1103.91 0.539201 1.95501 0
M  V30 9343 C 1104.24 -0.913759 1.7136 0
M  V30 9344 O 1103.52 -1.64904 1.03136 0
M  V30 9345 C 1103.8 0.842372 3.50109 0
M  V30 9346 C 1103.65 2.34765 3.83673 0
M  V30 9347 C 1104.97 0.334658 4.38826 0
M  V30 9348 H 1102.09 0.197373 0.71008 0
M  V30 9349 H 1104.73 1.13637 1.52272 0
M  V30 9350 H 1102.88 0.334143 3.8706 0
M  V30 9351 H 1104.55 2.92607 3.56621 0
M  V30 9352 H 1102.8 2.80494 3.30916 0
M  V30 9353 H 1103.47 2.51034 4.91616 0
M  V30 9354 H 1105.94 0.769961 4.08914 0
M  V30 9355 H 1104.82 0.575914 5.4587 0
M  V30 9356 H 1105.08 -0.764878 4.35433 0
M  V30 9357 N 1104.14 -1.42577 0.671525 0
M  V30 9358 C 1105.07 -2.33499 0.00506984 0
M  V30 9359 C 1106.05 -1.50497 -0.792763 0
M  V30 9360 O 1107.24 -1.79109 -0.750574 0
M  V30 9361 C 1104.37 -3.34077 -0.949194 0
M  V30 9362 C 1103.32 -4.27208 -0.260187 0
M  V30 9363 C 1102.65 -5.17968 -1.32716 0
M  V30 9364 C 1103.95 -5.15192 0.858772 0
M  V30 9365 H 1105.64 -2.89477 0.764407 0
M  V30 9366 H 1103.19 -1.39191 0.369043 0
M  V30 9367 H 1105.14 -3.96594 -1.42448 0
M  V30 9368 H 1103.86 -2.76396 -1.73991 0
M  V30 9369 H 1102.52 -3.66082 0.194834 0
M  V30 9370 H 1102.17 -4.56615 -2.10979 0
M  V30 9371 H 1101.87 -5.81104 -0.871293 0
M  V30 9372 H 1103.39 -5.83359 -1.80345 0
M  V30 9373 H 1104.81 -5.71412 0.464844 0
M  V30 9374 H 1103.21 -5.87144 1.24023 0
M  V30 9375 H 1104.28 -4.53787 1.70895 0
M  V30 9376 N 1105.62 -0.414636 -1.52048 0
M  V30 9377 C 1106.87 0.159034 -2.01473 0
M  V30 9378 C 1107.19 1.45176 -1.30188 0
M  V30 9379 O 1106.46 1.91134 -0.429469 0
M  V30 9380 H 1105.04 0.0617604 -0.744443 0
M  V30 9381 H 1107.7 -0.552141 -1.86916 0
M  V30 9382 H 1106.8 0.351217 -3.10118 0
M  V30 9383 N 1107.1 1.56929 -0.145233 0
M  V30 9384 C 1108.34 1.95681 0.50532 0
M  V30 9385 C 1108.67 1.03098 1.65516 0
M  V30 9386 O 1107.94 0.0921961 1.95683 0
M  V30 9387 H 1106.52 0.72252 0.189668 0
M  V30 9388 H 1109.18 1.93651 -0.220318 0
M  V30 9389 H 1108.27 2.99359 0.882631 0
M  V30 9390 N 1108.58 -0.128553 1.57075 0
M  V30 9391 C 1109.54 -1.14215 1.98715 0
M  V30 9392 C 1110.54 -1.34843 0.876019 0
M  V30 9393 O 1111.73 -1.31522 1.14227 0
M  V30 9394 C 1108.86 -2.49865 2.31905 0
M  V30 9395 H 1110.05 -0.784481 2.89458 0
M  V30 9396 H 1107.61 -0.372531 1.51796 0
M  V30 9397 H 1108.34 -2.9057 1.44012 0
M  V30 9398 H 1108.13 -2.3625 3.12935 0
M  V30 9399 H 1109.62 -3.22832 2.64895 0
M  V30 9400 N 1110.05 -1.5248 -0.398459 0
M  V30 9401 C 1111.3 -1.66731 -1.14215 0
M  V30 9402 C 1111.62 -0.404957 -1.90749 0
M  V30 9403 O 1110.89 0.580434 -1.87104 0
M  V30 9404 H 1109.47 -0.614577 -0.424622 0
M  V30 9405 H 1112.13 -1.89561 -0.453059 0
M  V30 9406 H 1111.23 -2.51336 -1.85031 0
M  V30 9407 N 1111.53 0.65634 -1.43283 0
M  V30 9408 C 1112.46 1.78184 -1.44164 0
M  V30 9409 C 1113.48 1.59249 -0.338177 0
M  V30 9410 O 1114.67 1.68027 -0.60242 0
M  V30 9411 C 1111.77 3.15566 -1.23577 0
M  V30 9412 C 1110.94 3.61187 -2.46704 0
M  V30 9413 C 1110 4.77361 -2.21388 0
M  V30 9414 O 1109.02 4.8696 -2.94718 0
M  V30 9415 N 1110.23 5.67351 -1.22855 0
M  V30 9416 H 1112.99 1.77907 -2.41183 0
M  V30 9417 H 1110.55 0.840076 -1.38399 0
M  V30 9418 H 1112.54 3.90968 -1.04529 0
M  V30 9419 H 1111.11 3.10633 -0.350155 0
M  V30 9420 H 1110.33 2.76263 -2.81198 0
M  V30 9421 H 1111.62 3.88413 -3.28652 0
M  V30 9422 H 1111.02 5.62265 -0.622417 0
M  V30 9423 H 1109.58 6.42487 -1.09791 0
M  V30 9424 N 1113.01 1.29761 0.894412 0
M  V30 9425 C 1114.26 1.18039 1.64539 0
M  V30 9426 C 1114.58 -0.26697 1.92659 0
M  V30 9427 O 1113.84 -1.20865 1.53916 0
M  V30 9428 C 1114.14 1.94458 2.99868 0
M  V30 9429 C 1113.8 3.44143 2.91336 0
M  V30 9430 C 1112.47 3.84963 2.88716 0
M  V30 9431 C 1114.82 4.39503 2.80154 0
M  V30 9432 C 1112.15 5.19451 2.72741 0
M  V30 9433 C 1114.5 5.74088 2.65718 0
M  V30 9434 C 1113.16 6.14159 2.61467 0
M  V30 9435 H 1112.43 0.431936 0.60209 0
M  V30 9436 H 1115.08 1.60758 1.04063 0
M  V30 9437 H 1113.38 1.44346 3.64241 0
M  V30 9438 H 1115.08 1.82788 3.56917 0
M  V30 9439 H 1111.67 3.11699 2.9418 0
M  V30 9440 H 1115.86 4.08915 2.81251 0
M  V30 9441 H 1111.11 5.49602 2.67858 0
M  V30 9442 H 1115.29 6.47625 2.56038 0
M  V30 9443 H 1112.91 7.18317 2.48847 0
M  V30 9444 N 1114.49 -1.10549 1.12324 0
M  V30 9445 C 1115.9 -1.63991 0.892402 0
M  V30 9446 C 1116.25 -1.87631 -0.573506 0
M  V30 9447 O 1115.37 -1.6174 -1.43768 0
M  V30 9448 C 1115.97 -2.97914 1.61347 0
M  V30 9449 C 1114.53 -3.48227 1.42881 0
M  V30 9450 C 1113.68 -2.22857 1.65015 0
M  V30 9451 H 1116.63 -0.94065 1.27818 0
M  V30 9452 H 1116.65 -3.65326 1.06382 0
M  V30 9453 H 1116.16 -2.80677 2.68034 0
M  V30 9454 H 1114.26 -3.70611 0.384441 0
M  V30 9455 H 1114.37 -4.26419 2.18413 0
M  V30 9456 H 1112.74 -2.30941 1.07417 0
M  V30 9457 H 1113.52 -2.08152 2.72997 0
M  V30 9458 N 1115.97 -0.914965 -1.28321 0
M  V30 9459 C 1116.9 -0.421292 -2.29668 0
M  V30 9460 C 1117.88 0.511743 -1.6222 0
M  V30 9461 O 1119.06 0.419218 -1.89621 0
M  V30 9462 C 1116.19 0.338364 -3.45648 0
M  V30 9463 C 1115.15 -0.505646 -4.25003 0
M  V30 9464 C 1114.47 0.382421 -5.33331 0
M  V30 9465 C 1115.77 -1.76354 -4.91626 0
M  V30 9466 H 1117.47 -1.26826 -2.71211 0
M  V30 9467 H 1115.01 -0.611291 -1.30381 0
M  V30 9468 H 1116.96 0.694578 -4.15636 0
M  V30 9469 H 1115.69 1.21925 -3.02988 0
M  V30 9470 H 1114.35 -0.844395 -3.56743 0
M  V30 9471 H 1114 1.26189 -4.86914 0
M  V30 9472 H 1113.7 -0.17871 -5.87328 0
M  V30 9473 H 1115.22 0.73449 -6.06166 0
M  V30 9474 H 1116.63 -1.47616 -5.5397 0
M  V30 9475 H 1115.03 -2.26717 -5.55625 0
M  V30 9476 H 1116.1 -2.49063 -4.16048 0
M  V30 9477 N 1117.44 1.42219 -0.679077 0
M  V30 9478 C 1118.69 2.01081 -0.202718 0
M  V30 9479 C 1119.01 1.53986 1.19639 0
M  V30 9480 O 1118.28 0.763359 1.80415 0
M  V30 9481 H 1116.86 0.743526 -0.0719547 0
M  V30 9482 H 1119.52 1.74077 -0.876544 0
M  V30 9483 H 1118.62 3.11411 -0.207314 0
M  V30 9484 N 1118.92 0.422693 1.51826 0
M  V30 9485 C 1120.17 -0.148348 2.01555 0
M  V30 9486 C 1120.49 -1.44483 1.30956 0
M  V30 9487 O 1119.76 -1.90904 0.439599 0
M  V30 9488 H 1118.34 -0.0578116 0.74476 0
M  V30 9489 H 1121 0.562046 1.8662 0
M  V30 9490 H 1120.1 -0.334766 3.10299 0
M  V30 9491 N 1120.4 -1.5685 0.153553 0
M  V30 9492 C 1121.65 -1.96625 -0.49665 0
M  V30 9493 C 1121.98 -1.03877 -1.64083 0
M  V30 9494 O 1121.25 -0.0824112 -1.94325 0
M  V30 9495 C 1121.54 -3.46035 -0.996585 0
M  V30 9496 C 1121.39 -4.49561 0.146551 0
M  V30 9497 C 1122.71 -3.98104 -1.8762 0
M  V30 9498 H 1119.83 -0.714917 -0.179059 0
M  V30 9499 H 1122.47 -1.88527 0.236104 0
M  V30 9500 H 1120.62 -3.53066 -1.621 0
M  V30 9501 H 1122.29 -4.54604 0.783108 0
M  V30 9502 H 1120.53 -4.26271 0.804727 0
M  V30 9503 H 1121.21 -5.51456 -0.245078 0
M  V30 9504 H 1123.68 -3.93593 -1.34997 0
M  V30 9505 H 1122.56 -5.03098 -2.19508 0
M  V30 9506 H 1122.82 -3.40852 -2.81554 0
M  V30 9507 N 1121.88 0.120221 -1.57141 0
M  V30 9508 C 1122.84 1.13159 -1.99318 0
M  V30 9509 C 1123.84 1.34376 -0.883158 0
M  V30 9510 O 1125.03 1.30914 -1.14922 0
M  V30 9511 C 1122.16 2.48632 -2.33227 0
M  V30 9512 H 1123.36 0.769119 -2.8987 0
M  V30 9513 H 1120.91 0.364475 -1.51991 0
M  V30 9514 H 1121.64 2.89802 -1.45551 0
M  V30 9515 H 1121.43 2.34587 -3.14184 0
M  V30 9516 H 1122.92 3.21423 -2.66603 0
M  V30 9517 N 1123.36 1.52689 0.390367 0
M  V30 9518 C 1124.32 1.76726 1.45947 0
M  V30 9519 C 1125.32 0.637269 1.47633 0
M  V30 9520 O 1126.51 0.905312 1.48828 0
M  V30 9521 C 1123.64 1.86678 2.85244 0
M  V30 9522 H 1124.83 2.72185 1.25918 0
M  V30 9523 H 1122.39 1.4339 0.622023 0
M  V30 9524 H 1123.12 0.931991 3.10619 0
M  V30 9525 H 1122.91 2.68843 2.85422 0
M  V30 9526 H 1124.4 2.06952 3.62713 0
M  V30 9527 N 1124.83 -0.648732 1.43629 0
M  V30 9528 C 1126.25 -0.964917 1.27128 0
M  V30 9529 C 1126.45 -2.00561 0.194251 0
M  V30 9530 O 1125.51 -2.48884 -0.42581 0
M  V30 9531 C 1126.82 -1.44491 2.6371 0
M  V30 9532 C 1128.37 -1.56133 2.71278 0
M  V30 9533 C 1128.84 -2.07521 4.08288 0
M  V30 9534 N 1130.33 -2.14817 4.10375 0
M  V30 9535 C 1131.07 -2.55712 5.13224 0
M  V30 9536 N 1130.56 -2.9587 6.26444 0
M  V30 9537 N 1132.36 -2.55691 5.00578 0
M  V30 9538 H 1124.51 0.0398357 2.12363 0
M  V30 9539 H 1126.77 -0.0447705 0.946942 0
M  V30 9540 H 1126.48 -0.754616 3.43509 0
M  V30 9541 H 1126.35 -2.41914 2.89409 0
M  V30 9542 H 1128.74 -2.24263 1.91808 0
M  V30 9543 H 1128.82 -0.571314 2.49338 0
M  V30 9544 H 1128.46 -1.39992 4.88226 0
M  V30 9545 H 1128.39 -3.07362 4.27594 0
M  V30 9546 H 1130.88 -1.86538 3.28652 0
M  V30 9547 H 1131.2 -3.25837 7.0075 0
M  V30 9548 H 1129.54 -2.93664 6.2991 0
M  V30 9549 H 1132.73 -2.23697 4.1119 0
M  V30 9550 H 1132.91 -2.87239 5.80859 0
M  V30 9551 N 1126.31 -1.30234 -0.887518 0
M  V30 9552 C 1127.72 -1.17048 -1.45453 0
M  V30 9553 C 1128.07 0.229793 -1.9485 0
M  V30 9554 O 1127.2 1.12628 -1.84781 0
M  V30 9555 C 1127.79 -2.11876 -2.64375 0
M  V30 9556 C 1126.35 -2.02676 -3.17174 0
M  V30 9557 C 1125.5 -2.02104 -1.89866 0
M  V30 9558 H 1128.45 -1.42541 -0.697694 0
M  V30 9559 H 1128.47 -1.69811 -3.40506 0
M  V30 9560 H 1127.98 -3.13781 -2.28392 0
M  V30 9561 H 1126.09 -1.03904 -3.57819 0
M  V30 9562 H 1126.2 -2.90939 -3.80646 0
M  V30 9563 H 1124.56 -1.4687 -2.0809 0
M  V30 9564 H 1125.35 -3.05735 -1.56145 0
M  V30 9565 N 1127.79 1.09952 -1.12909 0
M  V30 9566 C 1129.04 1.81657 -0.885729 0
M  V30 9567 C 1129.36 1.85863 0.589913 0
M  V30 9568 O 1128.63 1.34028 1.42875 0
M  V30 9569 H 1127.21 0.672743 -0.324694 0
M  V30 9570 H 1129.87 1.33013 -1.42456 0
M  V30 9571 H 1128.97 2.85018 -1.27167 0
M  V30 9572 N 1129.27 0.921757 1.27833 0
M  V30 9573 C 1130.52 0.559078 1.94629 0
M  V30 9574 C 1130.84 -0.898641 1.72495 0
M  V30 9575 O 1130.1 -1.65546 1.0437 0
M  V30 9576 C 1130.4 0.824259 3.47765 0
M  V30 9577 C 1130.06 2.26278 3.90011 0
M  V30 9578 C 1128.73 2.65607 4.01256 0
M  V30 9579 C 1131.08 3.19853 4.11513 0
M  V30 9580 C 1128.41 3.97646 4.31387 0
M  V30 9581 C 1130.76 4.51467 4.43126 0
M  V30 9582 C 1129.42 4.90637 4.52583 0
M  V30 9583 H 1128.69 0.204581 0.712199 0
M  V30 9584 H 1131.34 1.1646 1.52018 0
M  V30 9585 H 1129.64 0.136011 3.91564 0
M  V30 9586 H 1131.34 0.522701 3.97579 0
M  V30 9587 H 1127.93 1.94765 3.81791 0
M  V30 9588 H 1132.11 2.90674 4.02271 0
M  V30 9589 H 1127.37 4.27685 4.36916 0
M  V30 9590 H 1131.54 5.23982 4.58711 0
M  V30 9591 H 1129.17 5.92982 4.75685 0
M  V30 9592 N 1130.75 -1.41857 0.686609 0
M  V30 9593 C 1131.99 -2.0097 0.213378 0
M  V30 9594 C 1132.32 -1.54618 -1.1882 0
M  V30 9595 O 1131.59 -0.772916 -1.80008 0
M  V30 9596 H 1130.17 -0.743134 0.0758968 0
M  V30 9597 H 1132.83 -1.73609 0.885763 0
M  V30 9598 H 1131.92 -3.11296 0.223826 0
M  V30 9599 N 1132.22 -0.430739 -1.51599 0
M  V30 9600 C 1133.15 0.374695 -2.30474 0
M  V30 9601 C 1134.14 1.02694 -1.35602 0
M  V30 9602 O 1135.32 1.03184 -1.6452 0
M  V30 9603 C 1132.45 1.47981 -3.14196 0
M  V30 9604 C 1131.4 0.951415 -4.17291 0
M  V30 9605 C 1130.73 2.15177 -4.89492 0
M  V30 9606 C 1132.03 -0.00957951 -5.22299 0
M  V30 9607 H 1133.72 -0.283508 -2.98055 0
M  V30 9608 H 1131.27 -0.13779 -1.43339 0
M  V30 9609 H 1133.22 2.05043 -3.68151 0
M  V30 9610 H 1131.95 2.16621 -2.44424 0
M  V30 9611 H 1130.61 0.403052 -3.64378 0
M  V30 9612 H 1130.25 2.82421 -4.1623 0
M  V30 9613 H 1129.95 1.80464 -5.59202 0
M  V30 9614 H 1131.48 2.72806 -5.46269 0
M  V30 9615 H 1132.89 0.470527 -5.71366 0
M  V30 9616 H 1131.29 -0.268959 -5.99497 0
M  V30 9617 H 1132.36 -0.948297 -4.75537 0
M  V30 9618 N 1133.7 1.56767 -0.161869 0
M  V30 9619 C 1134.93 2.01401 0.49523 0
M  V30 9620 C 1135.35 1.04133 1.56646 0
M  V30 9621 O 1134.71 0.0193747 1.8129 0
M  V30 9622 C 1134.76 3.44695 1.05913 0
M  V30 9623 O 1133.86 3.50475 2.1735 0
M  V30 9624 H 1133.2 0.65314 0.1196 0
M  V30 9625 H 1135.73 2.02903 -0.26298 0
M  V30 9626 H 1135.74 3.83805 1.3841 0
M  V30 9627 H 1134.42 4.14991 0.274749 0
M  V30 9628 H 1133 3.23218 1.85969 0
M  V30 9629 N 1135.18 -0.111886 1.57202 0
M  V30 9630 C 1136.59 -0.668261 1.74331 0
M  V30 9631 C 1136.94 -1.79959 0.781609 0
M  V30 9632 O 1136.07 -2.16356 -0.043833 0
M  V30 9633 C 1136.66 -1.219 3.1611 0
M  V30 9634 C 1135.22 -1.7216 3.34721 0
M  V30 9635 C 1134.37 -0.624223 2.70183 0
M  V30 9636 H 1137.32 0.114081 1.58289 0
M  V30 9637 H 1137.34 -2.08858 3.18054 0
M  V30 9638 H 1136.85 -0.395381 3.86081 0
M  V30 9639 H 1134.95 -2.56976 2.69803 0
M  V30 9640 H 1135.07 -1.82615 4.42932 0
M  V30 9641 H 1133.43 -1.05958 2.31614 0
M  V30 9642 H 1134.21 0.188537 3.42782 0
M  V30 9643 N 1136.66 -1.52894 -0.382264 0
M  V30 9644 C 1137.91 -1.67489 -1.12385 0
M  V30 9645 C 1138.22 -0.424565 -1.90937 0
M  V30 9646 O 1139.43 -0.450763 -2.67732 0
M  V30 9647 C 1137.88 -2.96019 -2.04697 0
M  V30 9648 C 1137.49 -4.28255 -1.31535 0
M  V30 9649 C 1139.23 -3.19981 -2.78949 0
M  V30 9650 C 1137.14 -5.47887 -2.22652 0
M  V30 9651 H 1136.07 -0.624002 -0.423246 0
M  V30 9652 H 1138.72 -1.79392 -0.386107 0
M  V30 9653 H 1137.1 -2.77878 -2.82134 0
M  V30 9654 H 1138.28 -4.56971 -0.592771 0
M  V30 9655 H 1136.59 -4.10607 -0.692148 0
M  V30 9656 H 1139.19 -4.06541 -3.47316 0
M  V30 9657 H 1139.53 -2.35335 -3.43399 0
M  V30 9658 H 1140.07 -3.38718 -2.08602 0
M  V30 9659 H 1136.81 -6.3496 -1.62806 0
M  V30 9660 H 1136.33 -5.23473 -2.92807 0
M  V30 9661 H 1138 -5.82026 -2.82586 0
M  V30 9662 N 1138.14 0.641106 -1.43971 0
M  V30 9663 C 1139.38 1.40084 -1.46228 0
M  V30 9664 C 1139.71 1.94287 -0.0911011 0
M  V30 9665 O 1138.97 1.73481 0.905688 0
M  V30 9666 C 1139.27 2.59092 -2.46183 0
M  V30 9667 C 1138.93 2.23237 -3.9176 0
M  V30 9668 C 1137.59 2.13171 -4.31407 0
M  V30 9669 C 1139.95 1.94746 -4.83449 0
M  V30 9670 C 1137.27 1.72788 -5.60679 0
M  V30 9671 C 1139.63 1.55858 -6.13099 0
M  V30 9672 C 1138.29 1.44326 -6.5171 0
M  V30 9673 H 1137.56 0.512603 -0.535088 0
M  V30 9674 H 1140.21 0.727956 -1.77124 0
M  V30 9675 H 1138.51 3.31568 -2.08734 0
M  V30 9676 H 1140.21 3.17313 -2.4518 0
M  V30 9677 H 1136.8 2.31986 -3.60389 0
M  V30 9678 H 1140.98 2.01438 -4.53582 0
M  V30 9679 H 1136.24 1.62455 -5.89422 0
M  V30 9680 H 1140.41 1.32848 -6.83611 0
M  V30 9681 H 1138.04 1.12806 -7.51784 0
M  V30 9682 N 1139.62 1.30703 0.880598 0
M  V30 9683 C 1141.03 1.17818 1.4483 0
M  V30 9684 C 1141.38 -0.219456 1.94969 0
M  V30 9685 O 1140.5 -1.11646 1.85375 0
M  V30 9686 C 1141.1 2.13275 2.63247 0
M  V30 9687 C 1139.66 2.04356 3.16094 0
M  V30 9688 C 1138.8 2.03108 1.88792 0
M  V30 9689 H 1141.75 1.42909 0.690125 0
M  V30 9690 H 1141.78 1.71615 3.39601 0
M  V30 9691 H 1141.29 3.14988 2.26725 0
M  V30 9692 H 1139.39 1.058 3.57263 0
M  V30 9693 H 1139.5 2.92953 3.79098 0
M  V30 9694 H 1137.87 1.47971 2.07308 0
M  V30 9695 H 1138.65 3.06558 1.54521 0
M  V30 9696 N 1141.09 -1.09351 1.1349 0
M  V30 9697 C 1142.34 -1.81185 0.89535 0
M  V30 9698 C 1142.66 -1.86173 -0.580048 0
M  V30 9699 O 1141.93 -1.34784 -1.42162 0
M  V30 9700 H 1140.51 -0.671011 0.328257 0
M  V30 9701 H 1143.17 -1.32255 1.43159 0
M  V30 9702 H 1142.27 -2.84339 1.28676 0
M  V30 9703 N 1142.57 -0.928524 -1.27343 0
M  V30 9704 C 1143.82 -0.568267 -1.93946 0
M  V30 9705 C 1144.14 0.893501 -1.73325 0
M  V30 9706 O 1143.41 1.63344 -1.08147 0
M  V30 9707 H 1141.99 -0.207173 -0.717696 0
M  V30 9708 H 1144.65 -1.1811 -1.55036 0
M  V30 9709 H 1143.75 -0.775246 -3.02318 0
M  V30 9710 N 1144.05 1.41491 -0.694123 0
M  V30 9711 C 1145.01 2.2917 -0.0368562 0
M  V30 9712 C 1146.01 1.44305 0.709426 0
M  V30 9713 O 1147.2 1.6547 0.544533 0
M  V30 9714 C 1144.33 3.27156 0.958201 0
M  V30 9715 H 1145.53 2.88787 -0.808829 0
M  V30 9716 H 1143.08 1.49453 -0.457538 0
M  V30 9717 H 1143.82 2.72516 1.75799 0
M  V30 9718 H 1143.6 3.89776 0.426227 0
M  V30 9719 H 1145.09 3.92863 1.41592 0
M  V30 9720 N 1145.53 0.438773 1.51369 0
M  V30 9721 C 1146.77 -0.126367 2.04009 0
M  V30 9722 C 1147.13 -1.39837 1.31566 0
M  V30 9723 O 1148.33 -2.04384 1.74587 0
M  V30 9724 C 1146.6 -0.338531 3.55793 0
M  V30 9725 S 1148.16 -0.866869 4.30152 0
M  V30 9726 H 1144.98 -0.0311763 0.710316 0
M  V30 9727 H 1147.58 0.598507 1.86113 0
M  V30 9728 H 1146.29 0.593555 4.06085 0
M  V30 9729 H 1145.82 -1.09044 3.77985 0
M  V30 9730 H 1147.83 -2.14427 4.47477 0
M  V30 9731 N 1147.01 -1.56678 0.170181 0
M  V30 9732 C 1147.94 -2.20916 -0.756213 0
M  V30 9733 C 1148.92 -1.16442 -1.23997 0
M  V30 9734 O 1150.1 -1.44867 -1.29333 0
M  V30 9735 C 1147.23 -2.84901 -1.98617 0
M  V30 9736 C 1146.19 -3.95403 -1.63831 0
M  V30 9737 C 1145.51 -4.46432 -2.94282 0
M  V30 9738 C 1146.81 -5.15051 -0.867195 0
M  V30 9739 H 1148.51 -2.98585 -0.220776 0
M  V30 9740 H 1146.05 -1.43619 -0.104748 0
M  V30 9741 H 1148 -3.28514 -2.63926 0
M  V30 9742 H 1146.73 -2.04598 -2.54572 0
M  V30 9743 H 1145.39 -3.52444 -1.00891 0
M  V30 9744 H 1145.04 -3.62923 -3.48276 0
M  V30 9745 H 1144.74 -5.20979 -2.71762 0
M  V30 9746 H 1146.26 -4.92731 -3.60622 0
M  V30 9747 H 1147.67 -5.55363 -1.42285 0
M  V30 9748 H 1146.07 -5.95507 -0.741065 0
M  V30 9749 H 1147.14 -4.84707 0.136693 0
M  V30 9750 N 1148.48 0.103547 -1.57259 0
M  V30 9751 C 1149.73 0.806979 -1.8529 0
M  V30 9752 C 1150.05 1.79679 -0.757653 0
M  V30 9753 O 1149.32 1.94695 0.216913 0
M  V30 9754 H 1147.9 0.301012 -0.683667 0
M  V30 9755 H 1150.56 0.0871886 -1.94705 0
M  V30 9756 H 1149.66 1.34275 -2.81738 0
M  V30 9757 N 1149.96 1.53094 0.37415 0
M  V30 9758 C 1150.91 1.78927 1.45787 0
M  V30 9759 C 1151.88 0.633187 1.53558 0
M  V30 9760 O 1153.06 0.874472 1.69581 0
M  V30 9761 C 1150.2 1.97726 2.8284 0
M  V30 9762 C 1149.32 3.25436 2.84104 0
M  V30 9763 C 1148.45 3.3447 4.12678 0
M  V30 9764 C 1147.49 4.56246 4.08051 0
M  V30 9765 N 1146.63 4.6248 5.28258 0
M  V30 9766 H 1151.47 2.71404 1.2306 0
M  V30 9767 H 1149 1.34453 0.596716 0
M  V30 9768 H 1150.96 2.06611 3.62447 0
M  V30 9769 H 1149.59 1.08593 3.03986 0
M  V30 9770 H 1148.64 3.25548 1.96781 0
M  V30 9771 H 1149.96 4.15112 2.76556 0
M  V30 9772 H 1149.11 3.4262 5.00696 0
M  V30 9773 H 1147.85 2.42795 4.22968 0
M  V30 9774 H 1146.85 4.48206 3.1842 0
M  V30 9775 H 1148.08 5.49254 3.99371 0
M  V30 9776 H 1146.03 3.73703 5.3915 0
M  V30 9777 H 1145.94 5.46049 5.22845 0
M  V30 9778 H 1147.21 4.74903 6.18132 0
M  V30 9779 N 1151.44 -0.633461 1.44309 0
M  V30 9780 C 1152.4 -1.72743 1.50641 0
M  V30 9781 C 1153.4 -1.56031 0.388718 0
M  V30 9782 O 1154.59 -1.61568 0.651251 0
M  V30 9783 C 1151.72 -3.11804 1.37809 0
M  V30 9784 H 1152.92 -1.68503 2.48086 0
M  V30 9785 H 1150.47 -0.846912 1.31366 0
M  V30 9786 H 1151.21 -3.2164 0.414483 0
M  V30 9787 H 1150.99 -3.2534 2.18852 0
M  V30 9788 H 1152.48 -3.91538 1.45216 0
M  V30 9789 N 1152.92 -1.31168 -0.873655 0
M  V30 9790 C 1154.16 -1.21938 -1.64044 0
M  V30 9791 C 1154.52 0.219903 -1.90737 0
M  V30 9792 O 1155.72 0.435635 -2.65246 0
M  V30 9793 C 1153.99 -2.03633 -2.93715 0
M  V30 9794 S 1155.55 -2.11224 -3.84616 0
M  V30 9795 H 1152.37 -0.43436 -0.562896 0
M  V30 9796 H 1154.97 -1.65786 -1.03612 0
M  V30 9797 H 1153.68 -3.07298 -2.72022 0
M  V30 9798 H 1153.21 -1.6049 -3.59175 0
M  V30 9799 H 1155.22 -1.24787 -4.80253 0
M  V30 9800 N 1154.4 1.08748 -1.14068 0
M  V30 9801 C 1155.64 1.80707 -0.904947 0
M  V30 9802 C 1155.97 1.86478 0.570167 0
M  V30 9803 O 1155.24 1.35536 1.41445 0
M  V30 9804 H 1153.82 0.669261 -0.331811 0
M  V30 9805 H 1156.48 1.31494 -1.43859 0
M  V30 9806 H 1155.57 2.83653 -1.30182 0
M  V30 9807 N 1155.87 0.935264 1.26849 0
M  V30 9808 C 1157.29 0.636661 1.46352 0
M  V30 9809 C 1157.49 -0.811823 1.84423 0
M  V30 9810 O 1156.55 -1.58902 1.9623 0
M  V30 9811 C 1157.86 1.59301 2.55036 0
M  V30 9812 C 1159.41 1.60207 2.68892 0
M  V30 9813 C 1159.88 2.54558 3.80742 0
M  V30 9814 N 1161.37 2.52809 3.88126 0
M  V30 9815 C 1162.11 3.225 4.74111 0
M  V30 9816 N 1161.6 4.01598 5.64527 0
M  V30 9817 N 1163.4 3.11481 4.67906 0
M  V30 9818 H 1155.55 1.8716 1.00423 0
M  V30 9819 H 1157.81 0.803968 0.502334 0
M  V30 9820 H 1157.52 2.62671 2.33874 0
M  V30 9821 H 1157.39 1.34052 3.52576 0
M  V30 9822 H 1159.78 0.575649 2.89431 0
M  V30 9823 H 1159.86 1.89508 1.71815 0
M  V30 9824 H 1159.5 3.57314 3.60956 0
M  V30 9825 H 1159.43 2.22549 4.77263 0
M  V30 9826 H 1161.92 1.9537 3.2348 0
M  V30 9827 H 1162.24 4.51742 6.27016 0
M  V30 9828 H 1160.58 4.057 5.64298 0
M  V30 9829 H 1163.77 2.49175 3.9627 0
M  V30 9830 H 1163.95 3.66064 5.34697 0
M  V30 9831 N 1157.35 -1.41121 0.701616 0
M  V30 9832 C 1158.3 -2.30765 0.040121 0
M  V30 9833 C 1159.27 -1.47436 -0.764975 0
M  V30 9834 O 1160.45 -1.76209 -0.731775 0
M  V30 9835 C 1157.59 -3.33535 -0.885903 0
M  V30 9836 C 1156.71 -4.3194 -0.0717765 0
M  V30 9837 C 1155.84 -5.21779 -0.995996 0
M  V30 9838 C 1154.88 -6.11849 -0.175133 0
M  V30 9839 N 1154.02 -6.94151 -1.05348 0
M  V30 9840 H 1158.86 -2.86772 0.810312 0
M  V30 9841 H 1156.4 -1.41233 0.411301 0
M  V30 9842 H 1158.35 -3.91675 -1.4369 0
M  V30 9843 H 1156.98 -2.79065 -1.62243 0
M  V30 9844 H 1156.04 -3.75698 0.596221 0
M  V30 9845 H 1157.35 -4.95597 0.56435 0
M  V30 9846 H 1156.5 -5.84782 -1.61601 0
M  V30 9847 H 1155.24 -4.58363 -1.66597 0
M  V30 9848 H 1154.25 -5.4789 0.457916 0
M  V30 9849 H 1155.47 -6.77322 0.491133 0
M  V30 9850 H 1153.42 -6.33338 -1.70936 0
M  V30 9851 H 1153.33 -7.54518 -0.473065 0
M  V30 9852 H 1154.6 -7.61617 -1.66012 0
M  V30 9853 N 1158.83 -0.446794 -1.51134 0
M  V30 9854 C 1160.25 -0.0995905 -1.59289 0
M  V30 9855 C 1160.45 1.39191 -1.45699 0
M  V30 9856 O 1159.5 2.1628 -1.30303 0
M  V30 9857 C 1160.82 -0.628135 -2.94066 0
M  V30 9858 C 1162.36 -0.589409 -3.074 0
M  V30 9859 C 1162.84 -1.09509 -4.44715 0
M  V30 9860 N 1164.33 -1.05347 -4.51061 0
M  V30 9861 C 1165.06 -1.41551 -5.55654 0
M  V30 9862 N 1164.56 -1.85086 -6.67619 0
M  V30 9863 N 1166.35 -1.33307 -5.46064 0
M  V30 9864 H 1158.5 -1.41713 -1.58213 0
M  V30 9865 H 1160.77 -0.584555 -0.746324 0
M  V30 9866 H 1160.47 -1.67205 -3.09411 0
M  V30 9867 H 1160.35 -0.0582398 -3.77155 0
M  V30 9868 H 1162.73 0.445541 -2.91717 0
M  V30 9869 H 1162.82 -1.19582 -2.26128 0
M  V30 9870 H 1162.46 -2.12855 -4.61146 0
M  V30 9871 H 1162.39 -0.465122 -5.24542 0
M  V30 9872 H 1164.88 -0.733877 -3.70706 0
M  V30 9873 H 1165.19 -2.10923 -7.43459 0
M  V30 9874 H 1163.54 -1.8902 -6.68802 0
M  V30 9875 H 1166.73 -0.991547 -4.57478 0
M  V30 9876 H 1166.9 -1.6185 -6.27462 0
M  V30 9877 N 1160.31 1.56586 -0.178487 0
M  V30 9878 C 1161.26 2.18309 0.74899 0
M  V30 9879 C 1162.23 1.12525 1.22178 0
M  V30 9880 O 1163.41 1.40706 1.28866 0
M  V30 9881 C 1160.55 2.83353 1.9699 0
M  V30 9882 C 1159.66 4.03618 1.54002 0
M  V30 9883 C 1158.8 4.56567 2.71514 0
M  V30 9884 C 1157.84 5.69226 2.25051 0
M  V30 9885 N 1156.97 6.16654 3.35682 0
M  V30 9886 H 1161.81 2.97217 0.21587 0
M  V30 9887 H 1159.35 1.46794 0.0948182 0
M  V30 9888 H 1161.31 3.19226 2.68609 0
M  V30 9889 H 1159.94 2.07037 2.4766 0
M  V30 9890 H 1158.99 3.73518 0.720298 0
M  V30 9891 H 1160.3 4.85148 1.15901 0
M  V30 9892 H 1159.46 4.94659 3.5128 0
M  V30 9893 H 1158.2 3.7411 3.12879 0
M  V30 9894 H 1157.2 5.30679 1.43734 0
M  V30 9895 H 1158.43 6.5349 1.84736 0
M  V30 9896 H 1156.37 5.37124 3.76609 0
M  V30 9897 H 1156.29 6.93192 3.01697 0
M  V30 9898 H 1157.56 6.59397 4.15711 0
M  V30 9899 O 1161.83 0.0408443 1.61448 0
M  V30 9900 H 1162.52 -0.570029 1.85123 0
M  V30 END ATOM
M  V30 BEGIN BOND
M  V30 END BOND
M  V30 END CTAB
M  END
$$$$
