drugbank_target|P00947 Steroid Delta-isomerase (DB01561; DB03515; DB04693; DB08308)
 OpenBabel12092119573D

  0  0  0     0  0            999 V3000
M  V30 BEGIN CTAB
M  V30 COUNTS 1874 1892 0 0 0
M  V30 BEGIN ATOM
M  V30 1 H -0.908 1.98254 -0.117106 0
M  V30 2 N 0 1.576 0 0
M  V30 3 C 0.933 2.03868 1.02534 0
M  V30 4 C 1.911 0.928543 1.3348 0
M  V30 5 O 3.095 1.19667 1.45644 0
M  V30 6 C 0.222 2.43627 2.35294 0
M  V30 7 C -0.732 3.65373 2.2001 0
M  V30 8 S 0.101 5.13292 1.52614 0
M  V30 9 C 1.257 5.56322 2.86805 0
M  V30 10 H 1.49 2.90518 0.631377 0
M  V30 11 H -0.977 1.52953 0.210867 0
M  V30 12 H 0.981 2.67203 3.11629 0
M  V30 13 H -0.358 1.57376 2.7183 0
M  V30 14 H -1.165 3.90944 3.18086 0
M  V30 15 H -1.563 3.418 1.51819 0
M  V30 16 H 0.729 5.58782 3.83104 0
M  V30 17 H 1.672 6.56266 2.65933 0
M  V30 18 H 2.08 4.83886 2.90714 0
M  V30 19 N 1.4781 -0.272755 1.55222 0
M  V30 20 C 2.4261 -1.35705 1.88909 0
M  V30 21 C 3.4201 -1.5112 0.765456 0
M  V30 22 O 4.6261 -1.52901 0.949802 0
M  V30 23 H 1.0011 -0.453868 0.59959 0
M  V30 24 H 2.9721 -1.04544 2.79487 0
M  V30 25 C 1.7211 -2.71049 2.17779 0
M  V30 26 H 1.0441 -2.59979 3.03728 0
M  V30 27 H 2.4841 -3.45858 2.45272 0
M  V30 28 C 0.9431 -3.22165 0.985473 0
M  V30 29 O 1.4731 -4.01096 0.220233 0
M  V30 30 N -0.3209 -2.7985 0.783108 0
M  V30 31 H -0.7739 -2.15775 1.40708 0
M  V30 32 H -0.8159 -3.14397 -0.0130392 0
M  V30 33 N 2.9562 -1.48159 -0.537278 0
M  V30 34 C 4.1842 -1.59454 -1.31841 0
M  V30 35 C 4.5992 -0.252065 -1.8711 0
M  V30 36 O 3.9562 0.757621 -1.66031 0
M  V30 37 C 4.0072 -2.63546 -2.47439 0
M  V30 38 O 3.7282 -3.92583 -1.94449 0
M  V30 39 C 5.2292 -2.85212 -3.39366 0
M  V30 40 H 2.4492 -0.53785 -0.401196 0
M  V30 41 H 4.9932 -1.93932 -0.648891 0
M  V30 42 H 3.1482 -2.31946 -3.1029 0
M  V30 43 H 3.5622 -4.49629 -2.70063 0
M  V30 44 H 5.0362 -3.61863 -4.16844 0
M  V30 45 H 5.5132 -1.93765 -3.94147 0
M  V30 46 H 6.1192 -3.18086 -2.82314 0
M  V30 47 N 4.4343 0.785586 -1.36625 0
M  V30 48 C 5.8453 1.36101 -1.27803 0
M  V30 49 C 6.1963 1.96035 0.0804875 0
M  V30 50 O 5.3213 1.92834 0.982042 0
M  V30 51 C 5.9163 2.47442 -2.31426 0
M  V30 52 C 4.4753 3.00789 -2.26281 0
M  V30 53 C 3.6223 1.73896 -2.15999 0
M  V30 54 H 6.5733 0.586928 -1.47448 0
M  V30 55 H 6.5943 3.2656 -1.95291 0
M  V30 56 H 6.1063 2.03791 -3.30289 0
M  V30 57 H 4.2073 3.48851 -1.30896 0
M  V30 58 H 4.3203 3.57343 -3.19128 0
M  V30 59 H 2.6843 1.9628 -1.62316 0
M  V30 60 H 3.4673 1.32368 -3.16755 0
M  V30 61 N 5.9124 1.20967 1.01018 0
M  V30 62 C 6.8224 0.980157 2.13143 0
M  V30 63 C 7.8384 -0.0660665 1.73875 0
M  V30 64 O 9.0144 0.122821 2.01025 0
M  V30 65 C 6.0794 0.54216 3.42435 0
M  V30 66 C 5.1404 1.65999 3.95908 0
M  V30 67 C 4.3734 1.2428 5.19028 0
M  V30 68 O 4.5964 0.114196 5.70286 0
M  V30 69 O 3.5304 2.05271 5.65816 0
M  V30 70 H 7.3564 1.91913 2.35379 0
M  V30 71 H 4.9414 0.994099 1.11526 0
M  V30 72 H 6.8234 0.30744 4.20277 0
M  V30 73 H 5.4984 -0.36815 3.216 0
M  V30 74 H 4.4054 1.94906 3.19316 0
M  V30 75 H 5.7384 2.54753 4.21143 0
M  V30 76 N 7.3905 -1.2043 1.01659 0
M  V30 77 C 8.3405 -2.21076 0.557623 0
M  V30 78 C 9.3245 -1.56176 -0.387029 0
M  V30 79 O 10.5165 -1.7575 -0.209996 0
M  V30 80 C 7.6455 -3.43146 -0.102707 0
M  V30 81 C 6.7315 -4.15213 0.863652 0
M  V30 82 N 7.1225 -4.63662 2.02117 0
M  V30 83 C 5.4205 -4.40716 0.684472 0
M  V30 84 C 6.1215 -5.18868 2.62966 0
M  V30 85 N 5.0975 -5.0893 1.91027 0
M  V30 86 H 8.8995 -2.56201 1.44008 0
M  V30 87 H 6.4135 -1.36366 0.881931 0
M  V30 88 H 8.4105 -4.14475 -0.449054 0
M  V30 89 H 7.0705 -3.09526 -0.981003 0
M  V30 90 H 8.0815 -4.58877 2.40109 0
M  V30 91 H 4.7585 -4.17245 -0.14577 0
M  V30 92 H 6.1485 -5.6673 3.60924 0
M  V30 93 N 8.8686 -0.792821 -1.36206 0
M  V30 94 C 9.8016 -0.139422 -2.27774 0
M  V30 95 C 10.7796 0.68649 -1.47398 0
M  V30 96 O 11.9636 0.656738 -1.7669 0
M  V30 97 C 9.0906 0.807947 -3.28922 0
M  V30 98 C 8.1366 0.0633999 -4.26453 0
M  V30 99 S 8.9696 -1.26319 -5.20388 0
M  V30 100 C 10.1256 -0.31991 -6.25082 0
M  V30 101 H 10.3586 -0.915809 -2.82843 0
M  V30 102 H 7.8916 -0.587203 -1.42798 0
M  V30 103 H 9.8496 1.34908 -3.87699 0
M  V30 104 H 8.5106 1.55761 -2.72759 0
M  V30 105 H 7.7036 0.782386 -4.9789 0
M  V30 106 H 7.3056 -0.407352 -3.71775 0
M  V30 107 H 9.5976 0.499985 -6.75653 0
M  V30 108 H 10.5406 -1.00307 -7.00959 0
M  V30 109 H 10.9486 0.0782694 -5.64446 0
M  V30 110 N 10.3467 1.47872 -0.545128 0
M  V30 111 C 11.5747 2.06889 -0.021084 0
M  V30 112 C 11.9897 1.39955 1.2672 0
M  V30 113 O 11.3467 0.492036 1.75742 0
M  V30 114 C 11.3977 3.60996 0.190817 0
M  V30 115 O 11.1187 4.25419 -1.04644 0
M  V30 116 C 12.6197 4.36849 0.753521 0
M  V30 117 H 9.8397 0.669785 -0.0403635 0
M  V30 118 H 12.3837 1.90049 -0.755095 0
M  V30 119 H 10.5387 3.77391 0.87492 0
M  V30 120 H 10.9527 5.17785 -0.836611 0
M  V30 121 H 12.4267 5.45399 0.851139 0
M  V30 122 H 12.9037 4.02306 1.762 0
M  V30 123 H 13.5097 4.25169 0.105503 0
M  V30 124 N 11.8248 0.280983 1.55075 0
M  V30 125 C 12.7878 -0.590896 2.21452 0
M  V30 126 C 13.7878 -1.07682 1.19421 0
M  V30 127 O 14.9778 -0.97605 1.44288 0
M  V30 128 C 12.1098 -1.81587 2.88511 0
M  V30 129 H 13.3028 -0.0112554 2.99898 0
M  V30 130 H 10.8558 0.0316438 1.56268 0
M  V30 131 H 11.5908 -2.43587 2.14093 0
M  V30 132 H 11.3758 -1.4753 3.63287 0
M  V30 133 H 12.8658 -2.43575 3.39206 0
M  V30 134 N 13.3029 -1.57598 0.00835791 0
M  V30 135 C 14.5489 -1.91211 -0.675732 0
M  V30 136 C 14.8819 -0.883139 -1.72958 0
M  V30 137 O 14.1569 0.097016 -1.94258 0
M  V30 138 C 14.4399 -3.35379 -1.31123 0
M  V30 139 C 14.2929 -4.48999 -0.268356 0
M  V30 140 C 15.6119 -3.7912 -2.23508 0
M  V30 141 H 12.7309 -0.695374 -0.244179 0
M  V30 142 H 15.3729 -1.89901 0.0613655 0
M  V30 143 H 13.5229 -3.36626 -1.93946 0
M  V30 144 H 15.1949 -4.59887 0.360844 0
M  V30 145 H 13.4379 -4.31873 0.408482 0
M  V30 146 H 14.1089 -5.46851 -0.752218 0
M  V30 147 H 16.5849 -3.79477 -1.70693 0
M  V30 148 H 15.4609 -4.80729 -2.64936 0
M  V30 149 H 15.7219 -3.13455 -3.11766 0
M  V30 150 N 14.781 0.264519 -1.55364 0
M  V30 151 C 16.027 0.99646 -1.76631 0
M  V30 152 C 16.36 1.85632 -0.570478 0
M  V30 153 O 15.635 1.89647 0.43175 0
M  V30 154 C 15.918 1.87187 -3.07625 0
M  V30 155 C 15.771 1.04138 -4.37579 0
M  V30 156 C 17.09 2.85749 -3.34717 0
M  V30 157 H 14.209 0.360841 -0.642622 0
M  V30 158 H 16.851 0.268218 -1.88097 0
M  V30 159 H 15.001 2.49279 -2.9798 0
M  V30 160 H 16.673 0.440517 -4.59192 0
M  V30 161 H 14.916 0.345115 -4.32425 0
M  V30 162 H 15.587 1.68729 -5.2558 0
M  V30 163 H 18.063 2.33793 -3.4421 0
M  V30 164 H 16.939 3.44136 -4.27623 0
M  V30 165 H 17.2 3.61311 -2.54768 0
M  V30 166 N 16.2591 1.48442 0.529413 0
M  V30 167 C 17.1911 1.59095 1.64989 0
M  V30 168 C 18.2041 0.475212 1.5571 0
M  V30 169 O 19.3931 0.746081 1.6216 0
M  V30 170 C 16.4931 1.50518 3.0364 0
M  V30 171 C 15.6661 2.77142 3.38395 0
M  V30 172 C 14.7251 2.62012 4.56329 0
M  V30 173 O 13.7511 3.35898 4.59522 0
M  V30 174 N 14.9531 1.71667 5.54536 0
M  V30 175 H 17.7181 2.55723 1.56287 0
M  V30 176 H 15.2791 1.45173 0.716697 0
M  V30 177 H 17.2711 1.38091 3.80412 0
M  V30 178 H 15.8411 0.618627 3.06418 0
M  V30 179 H 15.0611 3.0413 2.50796 0
M  V30 180 H 16.3491 3.61146 3.58401 0
M  V30 181 H 15.7471 1.10841 5.54735 0
M  V30 182 H 14.3041 1.65178 6.30523 0
M  V30 183 N 17.7372 -0.778329 1.37039 0
M  V30 184 C 19.1532 -1.07796 1.17695 0
M  V30 185 C 19.3532 -2.01498 0.00860115 0
M  V30 186 O 18.4092 -2.43901 -0.653352 0
M  V30 187 C 19.7222 -1.68178 2.49272 0
M  V30 188 C 21.2702 -1.80467 2.55735 0
M  V30 189 C 21.7452 -2.44263 3.87427 0
M  V30 190 N 23.2362 -2.51721 3.88833 0
M  V30 191 C 23.9712 -3.01919 4.87476 0
M  V30 192 N 23.4672 -3.5234 5.96513 0
M  V30 193 N 25.2602 -3.00733 4.74885 0
M  V30 194 H 17.4112 -0.156032 2.11826 0
M  V30 195 H 19.6742 -0.131844 0.938787 0
M  V30 196 H 19.3802 -1.06796 3.35093 0
M  V30 197 H 19.2542 -2.67554 2.65885 0
M  V30 198 H 21.6412 -2.40984 1.70325 0
M  V30 199 H 21.7222 -0.798656 2.43013 0
M  V30 200 H 21.3662 -1.84388 4.73248 0
M  V30 201 H 21.2962 -3.45458 3.9745 0
M  V30 202 H 23.7872 -2.1603 3.10063 0
M  V30 203 H 24.1002 -3.89027 6.67741 0
M  V30 204 H 22.4452 -3.50462 6.00168 0
M  V30 205 H 25.6362 -2.60638 3.88826 0
M  V30 206 H 25.8092 -3.39545 5.51918 0
M  V30 207 N 19.2153 -1.21501 -1.00376 0
M  V30 208 C 20.4453 -1.05746 -1.77486 0
M  V30 209 C 20.8533 0.395655 -1.85017 0
M  V30 210 O 20.1963 1.28626 -1.31152 0
M  V30 211 C 20.2583 -1.58092 -3.22873 0
M  V30 212 C 19.9223 -3.06568 -3.38917 0
M  V30 213 C 20.9193 -4.04106 -3.271 0
M  V30 214 C 18.6043 -3.45799 -3.64319 0
M  V30 215 C 20.5983 -5.38862 -3.40451 0
M  V30 216 C 18.2853 -4.80707 -3.77311 0
M  V30 217 C 19.2833 -5.77047 -3.65384 0
M  V30 218 O 18.9713 -7.09507 -3.77961 0
M  V30 219 H 18.7033 -0.371778 -0.564586 0
M  V30 220 H 21.2573 -1.61319 -1.27143 0
M  V30 221 H 19.4873 -0.969163 -3.74358 0
M  V30 222 H 21.1763 -1.38162 -3.81662 0
M  V30 223 H 21.9423 -3.75141 -3.07399 0
M  V30 224 H 17.8213 -2.71344 -3.72684 0
M  V30 225 H 21.3653 -6.14041 -3.31058 0
M  V30 226 H 17.2623 -5.09357 -3.96517 0
M  V30 227 H 18.0303 -7.16935 -3.94901 0
M  V30 228 N 20.6934 1.19889 -1.02296 0
M  V30 229 C 21.9394 1.89701 -0.717033 0
M  V30 230 C 22.2724 1.7905 0.751989 0
M  V30 231 O 21.5474 1.17891 1.547 0
M  V30 232 C 21.8304 3.40858 -1.16136 0
M  V30 233 C 21.6834 3.60411 -2.69117 0
M  V30 234 C 23.0024 4.33876 -0.737549 0
M  V30 235 H 20.1214 0.688874 -0.261957 0
M  V30 236 H 22.7634 1.41154 -1.27183 0
M  V30 237 H 20.9134 3.82335 -0.689342 0
M  V30 238 H 22.5854 3.28145 -3.2422 0
M  V30 239 H 20.8284 3.03665 -3.0979 0
M  V30 240 H 21.4994 4.66396 -2.95261 0
M  V30 241 H 23.9754 4.00081 -1.14344 0
M  V30 242 H 22.8514 5.38242 -1.0764 0
M  V30 243 H 23.1124 4.40628 0.360436 0
M  V30 244 N 22.1715 0.800033 1.35784 0
M  V30 245 C 23.1345 0.211565 2.28221 0
M  V30 246 C 24.1345 -0.59728 1.49296 0
M  V30 247 O 25.3245 -0.416721 1.69142 0
M  V30 248 C 22.4565 -0.705846 3.33513 0
M  V30 249 H 23.6495 1.02677 2.81776 0
M  V30 250 H 21.2025 0.570211 1.45528 0
M  V30 251 H 21.9375 -1.54498 2.85133 0
M  V30 252 H 21.7225 -0.127655 3.91892 0
M  V30 253 H 23.2125 -1.11211 4.02519 0
M  V30 254 N 23.6496 -1.47581 0.552962 0
M  V30 255 C 24.6126 -2.28439 -0.186605 0
M  V30 256 C 25.6126 -1.36706 -0.84665 0
M  V30 257 O 26.8026 -1.59378 -0.703164 0
M  V30 258 C 23.9346 -3.16264 -1.2724 0
M  V30 259 H 25.1276 -2.95294 0.523609 0
M  V30 260 H 22.6806 -1.532 0.309745 0
M  V30 261 H 23.4156 -2.54091 -2.01514 0
M  V30 262 H 23.2006 -3.83769 -0.803968 0
M  V30 263 H 24.6906 -3.77198 -1.79196 0
M  V30 264 N 25.1277 -0.289203 -1.54924 0
M  V30 265 C 26.0577 0.58549 -2.2604 0
M  V30 266 C 27.0387 1.14753 -1.25562 0
M  V30 267 O 28.2237 1.17906 -1.54311 0
M  V30 268 C 25.3537 1.76305 -2.99222 0
M  V30 269 C 24.3077 1.33191 -4.06748 0
M  V30 270 C 23.6337 2.5937 -4.6758 0
M  V30 271 C 24.9337 0.471775 -5.20165 0
M  V30 272 H 26.6277 -0.00763532 -2.99399 0
M  V30 273 H 24.1737 -0.00511229 -1.43999 0
M  V30 274 H 26.1267 2.38097 -3.47689 0
M  V30 275 H 24.8507 2.38223 -2.23422 0
M  V30 276 H 23.5097 0.737121 -3.59113 0
M  V30 277 H 23.1577 3.19576 -3.88433 0
M  V30 278 H 22.8577 2.31228 -5.40192 0
M  V30 279 H 24.3817 3.21985 -5.18804 0
M  V30 280 H 25.7957 0.995056 -5.64599 0
M  V30 281 H 24.1927 0.284639 -5.99425 0
M  V30 282 H 25.2627 -0.506041 -4.82252 0
M  V30 283 N 26.6058 1.57591 -0.0167156 0
M  V30 284 C 27.5538 2.10604 0.987353 0
M  V30 285 C 28.5478 1.02977 1.34507 0
M  V30 286 O 29.7538 1.21425 1.32875 0
M  V30 287 H 26.1288 0.672695 0.336134 0
M  V30 288 H 28.0998 2.93925 0.514817 0
M  V30 289 C 26.8488 2.6382 2.26483 0
M  V30 290 H 26.1718 3.46278 1.99829 0
M  V30 291 H 27.6118 3.04573 2.94977 0
M  V30 292 C 26.0708 1.55992 2.9861 0
M  V30 293 O 26.6008 0.952521 3.90243 0
M  V30 294 N 24.8068 1.28335 2.60727 0
M  V30 295 H 24.3538 1.77914 1.86291 0
M  V30 296 H 24.3118 0.564115 3.09298 0
M  V30 297 N 28.0839 -0.256276 1.55502 0
M  V30 298 C 29.0469 -1.30047 1.88734 0
M  V30 299 C 30.0469 -1.4154 0.763086 0
M  V30 300 O 31.2369 -1.40403 1.03115 0
M  V30 301 C 28.3689 -2.67953 2.10747 0
M  V30 302 H 29.5619 -1.01802 2.82093 0
M  V30 303 H 27.1149 -0.495134 1.4825 0
M  V30 304 H 27.8499 -3.01351 1.19825 0
M  V30 305 H 27.6349 -2.60993 2.92617 0
M  V30 306 H 29.1249 -3.43368 2.37673 0
M  V30 307 N 29.562 -1.4872 -0.521534 0
M  V30 308 C 30.81 -1.56857 -1.27437 0
M  V30 309 C 31.131 -0.247982 -1.93417 0
M  V30 310 O 30.401 0.731151 -1.81744 0
M  V30 311 H 28.981 -0.577885 -0.473347 0
M  V30 312 H 31.643 -1.85233 -0.606205 0
M  V30 313 H 30.739 -2.35402 -2.0492 0
M  V30 314 N 31.0401 0.771051 -1.3745 0
M  V30 315 C 32.3171 1.519 -1.23231 0
M  V30 316 C 32.6971 2.10383 0.173809 0
M  V30 317 O 32.0451 1.95583 1.18151 0
M  V30 318 C 32.2551 2.59933 -2.32886 0
M  V30 319 C 33.6031 3.27316 -2.70461 0
M  V30 320 O 34.6271 2.70228 -2.32068 0
M  V30 321 O 33.4861 4.30531 -3.36608 0
M  V30 322 H 30.5801 0.672803 -0.480901 0
M  V30 323 H 33.1261 0.807957 -1.49232 0
M  V30 324 H 31.8981 2.14842 -3.27045 0
M  V30 325 H 31.5211 3.38637 -2.08353 0
M  V30 326 N 32.5182 1.22032 0.997298 0
M  V30 327 C 33.4482 1.01065 2.10495 0
M  V30 328 C 34.4292 -0.0669542 1.69968 0
M  V30 329 O 35.6142 0.0943987 1.9397 0
M  V30 330 C 32.7442 0.582874 3.42374 0
M  V30 331 C 31.6982 1.60592 3.96729 0
M  V30 332 C 31.0242 1.03412 5.24605 0
M  V30 333 C 32.3242 2.99478 4.27914 0
M  V30 334 H 34.0182 1.93708 2.28292 0
M  V30 335 H 31.5642 0.932761 1.09707 0
M  V30 336 H 33.5172 0.423332 4.19268 0
M  V30 337 H 32.2412 -0.379213 3.24391 0
M  V30 338 H 30.9002 1.75316 3.21963 0
M  V30 339 H 30.5482 0.063518 5.0296 0
M  V30 340 H 30.2482 1.71754 5.61938 0
M  V30 341 H 31.7722 0.886066 6.04137 0
M  V30 342 H 33.1862 2.88153 4.95622 0
M  V30 343 H 31.5832 3.64903 4.76409 0
M  V30 344 H 32.6532 3.49742 3.3587 0
M  V30 345 N 33.9963 -1.19345 1.0293 0
M  V30 346 C 35.2733 -1.84811 0.640642 0
M  V30 347 C 35.6533 -1.91855 -0.88062 0
M  V30 348 O 35.0013 -1.43587 -1.7775 0
M  V30 349 C 35.2113 -3.23755 1.30321 0
M  V30 350 C 36.5593 -3.99912 1.42673 0
M  V30 351 O 37.5833 -3.33155 1.26041 0
M  V30 352 O 36.4423 -5.19494 1.6967 0
M  V30 353 H 33.5363 -0.796443 0.222726 0
M  V30 354 H 36.0823 -1.26831 1.12748 0
M  V30 355 H 34.8543 -3.13466 2.34211 0
M  V30 356 H 34.4773 -3.89381 0.804261 0
M  V30 357 N 35.4744 -0.807222 -1.35358 0
M  V30 358 C 36.7224 -0.387122 -1.98358 0
M  V30 359 C 37.0434 1.04942 -1.64354 0
M  V30 360 O 36.3134 1.72615 -0.926339 0
M  V30 361 H 34.8934 -0.140154 -0.733734 0
M  V30 362 H 37.5554 -1.0332 -1.6526 0
M  V30 363 H 36.6514 -0.493352 -3.08176 0
M  V30 364 N 36.9525 1.47285 -0.560781 0
M  V30 365 C 38.2015 2.01668 -0.035895 0
M  V30 366 C 38.5145 1.44021 1.32353 0
M  V30 367 O 39.7205 1.90088 1.93853 0
M  V30 368 C 38.1765 3.59897 -0.0136659 0
M  V30 369 C 37.7845 4.26536 -1.37006 0
M  V30 370 C 39.5285 4.22017 0.458425 0
M  V30 371 C 37.4355 5.76782 -1.30675 0
M  V30 372 H 36.3655 0.753938 -0.00964879 0
M  V30 373 H 39.0165 1.69243 -0.709166 0
M  V30 374 H 37.3985 3.89301 0.725325 0
M  V30 375 H 38.5725 4.0877 -2.12705 0
M  V30 376 H 36.8875 3.76419 -1.78038 0
M  V30 377 H 39.4845 5.32124 0.524247 0
M  V30 378 H 39.8275 3.89437 1.4712 0
M  V30 379 H 40.3605 3.97159 -0.225818 0
M  V30 380 H 37.0995 6.13988 -2.29564 0
M  V30 381 H 36.6195 5.96875 -0.591622 0
M  V30 382 H 38.2985 6.39063 -1.01033 0
M  V30 383 N 38.4306 0.297415 1.54768 0
M  V30 384 C 39.6766 -0.313376 2.00364 0
M  V30 385 C 40.0096 -1.53815 1.18553 0
M  V30 386 O 39.2846 -1.92739 0.261103 0
M  V30 387 C 39.5676 -0.673525 3.53745 0
M  V30 388 C 39.4206 0.560133 4.46299 0
M  V30 389 C 40.7396 -1.50143 4.13697 0
M  V30 390 H 37.8586 -0.112428 0.728374 0
M  V30 391 H 40.5006 0.4088 1.8555 0
M  V30 392 H 38.6506 -1.28881 3.665 0
M  V30 393 H 40.3226 1.19863 4.45455 0
M  V30 394 H 38.5656 1.19405 4.17043 0
M  V30 395 H 39.2366 0.26405 5.51368 0
M  V30 396 H 41.7126 -0.981588 4.04356 0
M  V30 397 H 40.5886 -1.72221 5.21182 0
M  V30 398 H 40.8496 -2.48952 3.65343 0
M  V30 399 N 39.9087 -1.5758 0.0250728 0
M  V30 400 C 40.8717 -2.08896 -0.943139 0
M  V30 401 C 41.8717 -1.00321 -1.25668 0
M  V30 402 O 43.0617 -1.26495 -1.19769 0
M  V30 403 C 40.1937 -2.55143 -2.26086 0
M  V30 404 H 41.3867 -2.95723 -0.498775 0
M  V30 405 H 38.9397 -1.54703 -0.222888 0
M  V30 406 H 39.6747 -1.71633 -2.75159 0
M  V30 407 H 39.4597 -3.34461 -2.04641 0
M  V30 408 H 40.9497 -2.95083 -2.95492 0
M  V30 409 N 41.3868 0.248026 -1.55636 0
M  V30 410 C 42.3168 1.31079 -1.93237 0
M  V30 411 C 43.2978 1.50264 -0.797174 0
M  V30 412 O 44.4828 1.62891 -1.05737 0
M  V30 413 C 41.6128 2.66575 -2.22609 0
M  V30 414 C 40.5668 2.62087 -3.3837 0
M  V30 415 C 39.8928 4.01369 -3.53281 0
M  V30 416 C 41.1928 2.19171 -4.7409 0
M  V30 417 H 42.8868 0.998556 -2.82257 0
M  V30 418 H 40.4328 0.47891 -1.35803 0
M  V30 419 H 42.3858 3.41057 -2.47503 0
M  V30 420 H 41.1098 2.99432 -1.30414 0
M  V30 421 H 39.7688 1.90063 -3.13483 0
M  V30 422 H 39.4168 4.31489 -2.58508 0
M  V30 423 H 39.1168 3.99254 -4.31127 0
M  V30 424 H 40.6408 4.77552 -3.80495 0
M  V30 425 H 42.0548 2.83384 -4.98363 0
M  V30 426 H 40.4518 2.2817 -5.5503 0
M  V30 427 H 41.5218 1.14336 -4.71227 0
M  V30 428 N 42.8649 1.48995 0.513639 0
M  V30 429 C 44.1119 1.57843 1.26854 0
M  V30 430 C 44.4399 0.259501 1.92761 0
M  V30 431 O 43.6949 -0.75159 1.80692 0
M  V30 432 C 43.9939 2.67756 2.36731 0
M  V30 433 C 43.6599 4.09669 1.88368 0
M  V30 434 C 42.3219 4.48291 1.74896 0
M  V30 435 C 44.6739 4.98537 1.52021 0
M  V30 436 C 42.0019 5.73568 1.23438 0
M  V30 437 C 44.3539 6.24319 1.0202 0
M  V30 438 C 43.0179 6.61783 0.871778 0
M  V30 439 H 42.2879 0.577587 0.464192 0
M  V30 440 H 44.9349 1.82778 0.571366 0
M  V30 441 H 43.2399 2.36743 3.12185 0
M  V30 442 H 44.9369 2.71813 2.9482 0
M  V30 443 H 41.5269 3.79176 1.99808 0
M  V30 444 H 45.7109 4.69363 1.61281 0
M  V30 445 H 40.9669 6.01304 1.10648 0
M  V30 446 H 45.1409 6.92566 0.729722 0
M  V30 447 H 42.7679 7.5874 0.470852 0
M  V30 448 N 44.343 -0.763751 1.37857 0
M  V30 449 C 45.306 -1.85889 1.34081 0
M  V30 450 C 46.306 -1.58949 0.243277 0
M  V30 451 O 47.496 -1.66882 0.499589 0
M  V30 452 C 44.628 -3.23176 1.08489 0
M  V30 453 H 45.821 -1.90648 2.31502 0
M  V30 454 H 43.374 -0.964367 1.23003 0
M  V30 455 H 44.109 -3.24091 0.116318 0
M  V30 456 H 43.894 -3.44124 1.8794 0
M  V30 457 H 45.384 -4.03254 1.08517 0
M  V30 458 N 45.8211 -1.22559 -0.990812 0
M  V30 459 C 47.0981 -0.959875 -1.70428 0
M  V30 460 C 47.4781 0.524455 -2.04481 0
M  V30 461 O 46.8261 1.49302 -1.72977 0
M  V30 462 C 47.0361 -1.85955 -2.95333 0
M  V30 463 C 48.3841 -2.11687 -3.68068 0
M  V30 464 O 49.4081 -1.8342 -3.05345 0
M  V30 465 O 48.2671 -2.59572 -4.80921 0
M  V30 466 H 45.3611 -0.361154 -0.743974 0
M  V30 467 H 47.9071 -1.33554 -1.04697 0
M  V30 468 H 46.6791 -2.86346 -2.66687 0
M  V30 469 H 46.3021 -1.4856 -3.68803 0
M  V30 470 N 47.2992 1.18797 -1.03562 0
M  V30 471 C 48.5762 1.84469 -0.650434 0
M  V30 472 C 48.9562 1.92319 0.870433 0
M  V30 473 O 48.3042 1.44528 1.76986 0
M  V30 474 C 48.5142 3.2306 -1.32036 0
M  V30 475 C 49.8622 3.9915 -1.44792 0
M  V30 476 O 50.8862 3.32481 -1.27806 0
M  V30 477 O 49.7452 5.18587 -1.72423 0
M  V30 478 H 46.8392 0.795251 -0.226946 0
M  V30 479 H 49.3852 1.26231 -1.13419 0
M  V30 480 H 48.1572 3.1222 -2.3587 0
M  V30 481 H 47.7802 3.88949 -0.8249 0
M  V30 482 N 48.7773 0.814389 1.34928 0
M  V30 483 C 49.7403 0.235759 2.27984 0
M  V30 484 C 50.7403 -0.581412 1.49921 0
M  V30 485 O 51.9303 -0.398758 1.69575 0
M  V30 486 C 49.0623 -0.670433 3.34242 0
M  V30 487 H 50.2553 1.05659 2.80671 0
M  V30 488 H 47.8083 0.585614 1.44915 0
M  V30 489 H 48.5433 -1.51466 2.86755 0
M  V30 490 H 48.3283 -0.0860822 3.92005 0
M  V30 491 H 49.8183 -1.06935 4.03676 0
M  V30 492 N 50.2554 -1.46986 0.568584 0
M  V30 493 C 51.4834 -2.0683 0.0539956 0
M  V30 494 C 51.8984 -1.41953 -1.24478 0
M  V30 495 O 51.2554 -0.519933 -1.74937 0
M  V30 496 C 51.3064 -3.61254 -0.133362 0
M  V30 497 O 51.0274 -4.237 1.11399 0
M  V30 498 C 52.5284 -4.37992 -0.683927 0
M  V30 499 H 49.7484 -0.669058 0.0510141 0
M  V30 500 H 52.2924 -1.88824 0.785234 0
M  V30 501 H 50.4474 -3.78735 -0.81477 0
M  V30 502 H 50.8614 -5.16388 0.91888 0
M  V30 503 H 52.3354 -5.46684 -0.764263 0
M  V30 504 H 52.8124 -4.05058 -1.69778 0
M  V30 505 H 53.4184 -4.25283 -0.0378494 0
M  V30 506 N 51.7335 -0.305618 -1.54608 0
M  V30 507 C 52.9795 0.302746 -2.00528 0
M  V30 508 C 53.3125 1.53184 -1.19367 0
M  V30 509 O 52.5875 1.92598 -0.271321 0
M  V30 510 C 52.8705 0.654756 -3.54097 0
M  V30 511 C 52.7235 -0.583793 -4.45995 0
M  V30 512 C 54.0425 1.47947 -4.14487 0
M  V30 513 H 51.1615 0.108564 -0.72896 0
M  V30 514 H 53.8035 -0.418634 -1.85331 0
M  V30 515 H 51.9535 1.26935 -3.67178 0
M  V30 516 H 53.6255 -1.22224 -4.44814 0
M  V30 517 H 51.8685 -1.21615 -4.16404 0
M  V30 518 H 52.5395 -0.293287 -5.5122 0
M  V30 519 H 55.0155 0.96013 -4.04871 0
M  V30 520 H 53.8915 1.69454 -5.22088 0
M  V30 521 H 54.1525 2.47011 -3.66658 0
M  V30 522 N 53.2116 1.57565 -0.0334293 0
M  V30 523 C 54.1216 2.13943 0.962572 0
M  V30 524 C 55.1376 1.09276 1.35406 0
M  V30 525 O 56.3136 1.41355 1.4346 0
M  V30 526 C 53.3786 2.65887 2.22497 0
M  V30 527 C 52.4396 3.85286 1.8935 0
M  V30 528 C 51.6726 4.34743 3.09571 0
M  V30 529 O 51.8956 3.83352 4.22371 0
M  V30 530 O 50.8296 5.26538 2.91618 0
M  V30 531 H 54.6556 2.99333 0.513169 0
M  V30 532 H 52.2406 1.4822 0.18743 0
M  V30 533 H 54.1226 2.99346 2.96598 0
M  V30 534 H 52.7976 1.83578 2.6661 0
M  V30 535 H 51.7046 3.56746 1.1262 0
M  V30 536 H 53.0376 4.68771 1.5005 0
M  V30 537 N 54.6897 -0.239769 1.55765 0
M  V30 538 C 55.9667 -0.990056 1.68693 0
M  V30 539 C 56.3467 -2.03107 0.5754 0
M  V30 540 O 55.6947 -2.24604 -0.42017 0
M  V30 541 C 55.9047 -1.61696 3.09282 0
M  V30 542 C 57.2527 -2.11613 3.6811 0
M  V30 543 O 58.2767 -1.71624 3.12127 0
M  V30 544 O 57.1357 -2.85057 4.66267 0
M  V30 545 H 54.2297 -0.461299 0.686391 0
M  V30 546 H 56.7757 -0.232991 1.68093 0
M  V30 547 H 55.5477 -0.864357 3.81634 0
M  V30 548 H 55.1707 -2.44005 3.13923 0
M  V30 549 N 56.1678 -1.49265 -0.50573 0
M  V30 550 C 57.5788 -1.51769 -1.08734 0
M  V30 551 C 57.9298 -0.301192 -1.93874 0
M  V30 552 O 57.0548 0.589456 -2.08217 0
M  V30 553 C 57.6498 -2.75017 -1.97867 0
M  V30 554 C 56.2088 -2.80314 -2.51199 0
M  V30 555 C 55.3558 -2.4562 -1.28709 0
M  V30 556 H 58.3068 -1.56031 -0.289855 0
M  V30 557 H 58.3278 -2.5491 -2.82491 0
M  V30 558 H 57.8398 -3.63539 -1.35873 0
M  V30 559 H 55.9408 -1.96061 -3.16845 0
M  V30 560 H 56.0538 -3.82366 -2.88675 0
M  V30 561 H 54.4178 -1.97297 -1.61078 0
M  V30 562 H 55.2008 -3.36411 -0.6843 0
M  V30 563 N 57.6459 0.756429 -1.3826 0
M  V30 564 C 58.8919 1.51772 -1.34511 0
M  V30 565 C 59.2249 1.94089 0.0656691 0
M  V30 566 O 58.4999 1.65221 1.02626 0
M  V30 567 C 58.7829 2.77226 -2.29821 0
M  V30 568 C 58.6359 2.41065 -3.79747 0
M  V30 569 C 59.9549 3.79236 -2.23312 0
M  V30 570 H 57.0739 0.550578 -0.489931 0
M  V30 571 H 59.7159 0.866607 -1.69086 0
M  V30 572 H 57.8659 3.32784 -2.00467 0
M  V30 573 H 59.5379 1.91303 -4.19763 0
M  V30 574 H 57.7809 1.7356 -3.97567 0
M  V30 575 H 58.4519 3.3081 -4.41892 0
M  V30 576 H 60.9279 3.3321 -2.49219 0
M  V30 577 H 59.8039 4.64714 -2.92116 0
M  V30 578 H 60.0649 4.24615 -1.23102 0
M  V30 579 N 59.124 1.23083 0.984299 0
M  V30 580 C 60.372 1.05848 1.72165 0
M  V30 581 C 60.693 -0.406049 1.90726 0
M  V30 582 O 59.963 -1.29139 1.47309 0
M  V30 583 H 58.543 0.388685 0.637913 0
M  V30 584 H 61.205 1.54736 1.18503 0
M  V30 585 H 60.301 1.54327 2.71274 0
M  V30 586 N 60.6021 -1.18246 1.0419 0
M  V30 587 C 61.8271 -1.92736 0.765996 0
M  V30 588 C 62.2521 -1.75728 -0.67091 0
M  V30 589 O 61.6101 -1.06825 -1.46486 0
M  V30 590 C 61.6581 -3.42148 1.13875 0
M  V30 591 O 60.7621 -4.11548 0.264954 0
M  V30 592 H 60.1031 -0.601238 0.281797 0
M  V30 593 H 62.6331 -1.49942 1.39207 0
M  V30 594 H 62.6431 -3.92858 1.1012 0
M  V30 595 H 61.3181 -3.53848 2.18551 0
M  V30 596 H 59.8951 -3.71137 0.362226 0
M  V30 597 N 62.0802 -0.821533 -1.34494 0
M  V30 598 C 62.9902 -0.244355 -2.33324 0
M  V30 599 C 64.0062 0.620527 -1.62559 0
M  V30 600 O 65.1822 0.528754 -1.94335 0
M  V30 601 C 62.2472 0.585368 -3.41723 0
M  V30 602 C 61.3082 -0.301752 -4.28238 0
M  V30 603 C 60.5412 0.488466 -5.3146 0
M  V30 604 O 60.7642 1.72186 -5.4379 0
M  V30 605 O 59.6982 -0.12848 -6.01763 0
M  V30 606 H 63.5242 -1.06231 -2.84515 0
M  V30 607 H 61.1092 -0.583645 -1.37528 0
M  V30 608 H 62.9912 1.05747 -4.07916 0
M  V30 609 H 61.6662 1.38068 -2.92778 0
M  V30 610 H 60.5732 -0.821315 -3.64973 0
M  V30 611 H 61.9062 -1.06138 -4.8062 0
M  V30 612 N 63.5583 1.46682 -0.576371 0
M  V30 613 C 64.9693 1.86112 -0.148091 0
M  V30 614 C 65.3203 1.48073 1.2872 0
M  V30 615 O 64.4453 0.892656 1.97131 0
M  V30 616 C 65.0403 3.37786 -0.261982 0
M  V30 617 C 63.5993 3.76235 0.111384 0
M  V30 618 C 62.7463 2.70713 -0.60083 0
M  V30 619 H 65.6973 1.37927 -0.78497 0
M  V30 620 H 65.7183 3.77007 0.514364 0
M  V30 621 H 65.2303 3.6544 -1.30671 0
M  V30 622 H 63.3313 3.54198 1.15649 0
M  V30 623 H 63.4443 4.78391 -0.26052 0
M  V30 624 H 61.8083 2.54666 -0.0417783 0
M  V30 625 H 62.5913 3.01208 -1.64708 0
M  V30 626 N 65.0364 0.313813 1.54444 0
M  V30 627 C 66.4524 -0.0391619 1.59552 0
M  V30 628 C 66.6524 -1.51322 1.33056 0
M  V30 629 O 65.7084 -2.26782 1.11022 0
M  V30 630 C 67.0214 0.370302 2.98411 0
M  V30 631 C 68.5694 0.320139 3.11358 0
M  V30 632 C 69.0444 0.704617 4.52547 0
M  V30 633 N 70.5354 0.657645 4.58508 0
M  V30 634 C 71.2704 0.927453 5.6585 0
M  V30 635 N 70.7664 1.26389 6.81174 0
M  V30 636 N 72.5594 0.853662 5.5558 0
M  V30 637 H 64.7104 1.27433 1.69925 0
M  V30 638 H 66.9734 0.517511 0.794284 0
M  V30 639 H 66.6794 1.39694 3.22767 0
M  V30 640 H 66.5534 -0.269619 3.76235 0
M  V30 641 H 68.9404 -0.697275 2.86744 0
M  V30 642 H 69.0214 0.99486 2.35661 0
M  V30 643 H 68.6654 1.7199 4.77893 0
M  V30 644 H 68.5954 0.00768843 5.26599 0
M  V30 645 H 71.0864 0.409067 3.75679 0
M  V30 646 H 71.3994 1.4554 7.58972 0
M  V30 647 H 69.7444 1.30206 6.82694 0
M  V30 648 H 72.9354 0.590383 4.64362 0
M  V30 649 H 73.1084 1.0673 6.3915 0
M  V30 650 N 66.5145 -1.57545 0.0417849 0
M  V30 651 C 67.7395 -1.97035 -0.647455 0
M  V30 652 C 68.1645 -0.918775 -1.64135 0
M  V30 653 O 67.5225 0.119006 -1.80909 0
M  V30 654 C 67.5705 -3.35609 -1.31905 0
M  V30 655 O 66.6745 -3.3287 -2.43457 0
M  V30 656 H 66.0155 -0.64211 -0.169086 0
M  V30 657 H 68.5455 -2.04318 0.107399 0
M  V30 658 H 68.5555 -3.72126 -1.67291 0
M  V30 659 H 67.2305 -4.11685 -0.590586 0
M  V30 660 H 65.8075 -3.08087 -2.10088 0
M  V30 661 N 67.9926 0.231505 -1.5589 0
M  V30 662 C 69.2406 0.955461 -1.78088 0
M  V30 663 C 69.5616 1.85262 -0.608533 0
M  V30 664 O 68.8316 1.92277 0.375035 0
M  V30 665 H 67.4116 0.355787 -0.656829 0
M  V30 666 H 70.0736 0.245751 -1.93344 0
M  V30 667 H 69.1696 1.56814 -2.69844 0
M  V30 668 N 69.4707 1.49531 0.497807 0
M  V30 669 C 70.6987 1.62893 1.27567 0
M  V30 670 C 71.1137 0.301585 1.86376 0
M  V30 671 O 70.4707 -0.713335 1.67982 0
M  V30 672 C 70.5217 2.70013 2.40364 0
M  V30 673 O 70.2427 3.976 1.83972 0
M  V30 674 C 71.7437 2.94109 3.31685 0
M  V30 675 H 68.9637 0.548298 0.386794 0
M  V30 676 H 71.5077 1.95584 0.597245 0
M  V30 677 H 69.6627 2.40092 3.04031 0
M  V30 678 H 70.0767 4.56631 2.58047 0
M  V30 679 H 71.5507 3.72788 4.07104 0
M  V30 680 H 72.0277 2.04147 3.88871 0
M  V30 681 H 72.6337 3.2546 2.73781 0
M  V30 682 N 70.9488 -0.749086 1.3866 0
M  V30 683 C 71.9118 -1.84457 1.36045 0
M  V30 684 C 72.9118 -1.58682 0.260122 0
M  V30 685 O 74.1018 -1.66343 0.517261 0
M  V30 686 C 71.2338 -3.22008 1.11911 0
M  V30 687 H 72.4268 -1.88182 2.33512 0
M  V30 688 H 69.9798 -0.951266 1.24019 0
M  V30 689 H 70.7148 -3.2395 0.150686 0
M  V30 690 H 70.4998 -3.42111 1.91579 0
M  V30 691 H 71.9898 -4.0208 1.12788 0
M  V30 692 N 72.4269 -1.23603 -0.977757 0
M  V30 693 C 73.3899 -1.02069 -2.05218 0
M  V30 694 C 74.3899 0.0184305 -1.60789 0
M  V30 695 O 75.5799 -0.221569 -1.72785 0
M  V30 696 C 72.7119 -0.544926 -3.36517 0
M  V30 697 H 73.9049 -1.9742 -2.25755 0
M  V30 698 H 71.4579 -1.05684 -1.15155 0
M  V30 699 H 72.1929 0.412241 -3.21669 0
M  V30 700 H 71.9779 -1.2948 -3.70105 0
M  V30 701 H 73.4679 -0.414985 -4.15533 0
M  V30 702 N 73.905 1.17692 -1.04816 0
M  V30 703 C 75.154 1.87192 -0.751132 0
M  V30 704 C 75.467 1.8169 0.724441 0
M  V30 705 O 76.673 2.46625 1.13527 0
M  V30 706 C 75.129 3.35857 -1.29338 0
M  V30 707 C 74.737 3.4987 -2.79812 0
M  V30 708 C 76.481 4.10709 -1.07322 0
M  V30 709 C 74.388 4.92536 -3.27356 0
M  V30 710 H 73.318 0.701162 -0.277288 0
M  V30 711 H 75.969 1.32932 -1.26496 0
M  V30 712 H 74.351 3.89631 -0.707376 0
M  V30 713 H 75.525 3.06332 -3.44235 0
M  V30 714 H 73.84 2.88433 -3.00325 0
M  V30 715 H 76.437 5.15952 -1.4035 0
M  V30 716 H 76.78 4.16299 -0.0108001 0
M  V30 717 H 77.313 3.6313 -1.62423 0
M  V30 718 H 74.052 4.92119 -4.33012 0
M  V30 719 H 73.572 5.3676 -2.67673 0
M  V30 720 H 75.251 5.61288 -3.21815 0
M  V30 721 N 75.3831 0.828654 1.34056 0
M  V30 722 C 76.7991 0.515135 1.51058 0
M  V30 723 C 76.9991 -0.959581 1.77184 0
M  V30 724 O 76.0551 -1.74382 1.82612 0
M  V30 725 C 77.3681 1.37963 2.67183 0
M  V30 726 C 78.9161 1.37735 2.81066 0
M  V30 727 C 79.3911 2.22645 4.00241 0
M  V30 728 N 80.8821 2.203 4.07458 0
M  V30 729 C 81.6171 2.82744 4.98842 0
M  V30 730 N 81.1131 3.54201 5.9541 0
M  V30 731 N 82.9061 2.72268 4.91759 0
M  V30 732 H 75.0571 1.78343 1.15358 0
M  V30 733 H 77.3201 0.760304 0.566252 0
M  V30 734 H 77.0261 2.42714 2.54525 0
M  V30 735 H 76.9001 1.0484 3.62338 0
M  V30 736 H 79.2871 0.337593 2.93163 0
M  V30 737 H 79.3681 1.74859 1.86703 0
M  V30 738 H 79.0121 3.26674 3.88905 0
M  V30 739 H 78.9421 1.82869 4.93829 0
M  V30 740 H 81.4331 1.68327 3.38341 0
M  V30 741 H 81.7461 3.9908 6.61782 0
M  V30 742 H 80.0911 3.58308 5.95517 0
M  V30 743 H 83.2821 2.16014 4.15278 0
M  V30 744 H 83.4551 3.21219 5.62781 0
M  V30 745 N 76.8612 -1.46375 0.584142 0
M  V30 746 C 77.7712 -2.34115 -0.150728 0
M  V30 747 C 78.7872 -1.49838 -0.884567 0
M  V30 748 O 79.9632 -1.82704 -0.847429 0
M  V30 749 C 77.0282 -3.2705 -1.15062 0
M  V30 750 C 76.0892 -4.27228 -0.421293 0
M  V30 751 C 75.3222 -5.15722 -1.37355 0
M  V30 752 O 75.5452 -5.07176 -2.61014 0
M  V30 753 O 74.4792 -5.95383 -0.883355 0
M  V30 754 H 78.3052 -2.98309 0.569708 0
M  V30 755 H 75.8902 -1.45373 0.344535 0
M  V30 756 H 77.7722 -3.84381 -1.72712 0
M  V30 757 H 76.4472 -2.65451 -1.8525 0
M  V30 758 H 75.3542 -3.7358 0.197085 0
M  V30 759 H 76.6872 -4.91616 0.239641 0
M  V30 760 N 78.3393 -0.321999 -1.54275 0
M  V30 761 C 79.5863 0.281044 -2.0054 0
M  V30 762 C 79.9143 1.52265 -1.21019 0
M  V30 763 O 79.1693 1.93687 -0.279982 0
M  V30 764 C 79.4683 0.661769 -3.5122 0
M  V30 765 C 79.1343 -0.480482 -4.48333 0
M  V30 766 C 77.7963 -0.794005 -4.74604 0
M  V30 767 C 80.1483 -1.24783 -5.06042 0
M  V30 768 C 77.4763 -1.87763 -5.55844 0
M  V30 769 C 79.8283 -2.32153 -5.88462 0
M  V30 770 C 78.4923 -2.64089 -6.13036 0
M  V30 771 H 77.7623 0.102841 -0.733829 0
M  V30 772 H 80.4093 -0.445453 -1.86247 0
M  V30 773 H 78.7143 1.46867 -3.63232 0
M  V30 774 H 80.4113 1.13989 -3.84457 0
M  V30 775 H 77.0013 -0.226039 -4.28004 0
M  V30 776 H 81.1853 -1.01887 -4.85729 0
M  V30 777 H 76.4413 -2.12954 -5.73115 0
M  V30 778 H 80.6153 -2.92057 -6.32199 0
M  V30 779 H 78.2423 -3.48185 -6.75775 0
M  V30 780 N 79.8174 1.5752 -0.0501392 0
M  V30 781 C 81.0474 1.96678 0.632573 0
M  V30 782 C 81.4554 0.926298 1.64974 0
M  V30 783 O 80.7984 -0.09802 1.83438 0
M  V30 784 C 80.8604 3.32068 1.37735 0
M  V30 785 C 80.5244 4.54076 0.516131 0
M  V30 786 C 81.5214 5.19445 -0.217357 0
M  V30 787 C 79.2064 5.00304 0.44736 0
M  V30 788 C 81.2004 6.29378 -1.00807 0
M  V30 789 C 78.8874 6.10114 -0.347038 0
M  V30 790 C 79.8854 6.74512 -1.07344 0
M  V30 791 O 79.5734 7.82211 -1.85477 0
M  V30 792 H 79.3054 0.652193 0.177821 0
M  V30 793 H 81.8594 2.05091 -0.112543 0
M  V30 794 H 80.0894 3.20206 2.16807 0
M  V30 795 H 81.7784 3.55981 1.95019 0
M  V30 796 H 82.5444 4.84689 -0.173688 0
M  V30 797 H 78.4234 4.49971 1.00235 0
M  V30 798 H 81.9674 6.79575 -1.57556 0
M  V30 799 H 77.8644 6.44307 -0.392349 0
M  V30 800 H 78.6324 7.98982 -1.77678 0
M  V30 801 N 81.2955 -0.223234 1.56011 0
M  V30 802 C 82.2585 -1.26014 1.9145 0
M  V30 803 C 83.2585 -1.3989 0.792937 0
M  V30 804 O 84.4485 -1.38184 1.0607 0
M  V30 805 C 81.5805 -2.63422 2.16383 0
M  V30 806 H 82.7735 -0.95796 2.84189 0
M  V30 807 H 80.3265 -0.463576 1.49267 0
M  V30 808 H 81.0615 -2.98741 1.2619 0
M  V30 809 H 80.8465 -2.54728 2.98088 0
M  V30 810 H 82.3365 -3.38249 2.44903 0
M  V30 811 N 82.7736 -1.49793 -0.48987 0
M  V30 812 C 83.7216 -1.67783 -1.61095 0
M  V30 813 C 84.7156 -0.543683 -1.60438 0
M  V30 814 O 85.9216 -0.723647 -1.64813 0
M  V30 815 H 82.2966 -0.529255 -0.534222 0
M  V30 816 H 84.2676 -2.61861 -1.43078 0
M  V30 817 C 83.0166 -1.77191 -2.99164 0
M  V30 818 H 82.3396 -2.63841 -3.0038 0
M  V30 819 H 83.7796 -1.93809 -3.77113 0
M  V30 820 C 82.2386 -0.519203 -3.32875 0
M  V30 821 O 82.7686 0.350124 -4.00171 0
M  V30 822 N 80.9746 -0.378816 -2.8812 0
M  V30 823 H 80.5216 -1.08725 -2.33531 0
M  V30 824 H 80.4796 0.458239 -3.11043 0
M  V30 825 N 84.2517 0.741722 -1.39055 0
M  V30 826 C 85.4767 1.53607 -1.39354 0
M  V30 827 C 85.9017 1.88096 0.0116905 0
M  V30 828 O 85.2597 1.5143 0.996924 0
M  V30 829 C 85.3077 2.80441 -2.26682 0
M  V30 830 O 84.4117 3.76088 -1.69208 0
M  V30 831 H 83.7527 0.464142 -0.474835 0
M  V30 832 H 86.2827 0.915665 -1.82967 0
M  V30 833 H 86.2927 3.29246 -2.40959 0
M  V30 834 H 84.9677 2.5467 -3.2881 0
M  V30 835 H 83.5447 3.34833 -1.64138 0
M  V30 836 N 85.7298 1.2412 0.971189 0
M  V30 837 C 86.6598 1.05508 2.08304 0
M  V30 838 C 87.6408 -0.0308864 1.70072 0
M  V30 839 O 88.8258 0.135521 1.93727 0
M  V30 840 C 85.9558 0.655365 3.4106 0
M  V30 841 C 84.9098 1.68971 3.93234 0
M  V30 842 C 84.2358 1.14516 5.22293 0
M  V30 843 C 85.5358 3.08487 4.21465 0
M  V30 844 H 87.2298 1.98507 2.24132 0
M  V30 845 H 84.7758 0.955821 1.07704 0
M  V30 846 H 86.7288 0.51217 4.18276 0
M  V30 847 H 85.4528 -0.31032 3.25122 0
M  V30 848 H 84.1118 1.82106 3.18171 0
M  V30 849 H 83.7598 0.170189 5.02712 0
M  V30 850 H 83.4598 1.83635 5.58168 0
M  V30 851 H 84.9838 1.01401 6.02121 0
M  V30 852 H 86.3978 2.98601 4.89398 0
M  V30 853 H 84.7948 3.74926 4.68562 0
M  V30 854 H 85.8648 3.56787 3.28376 0
M  V30 855 N 87.2079 -1.17134 1.05439 0
M  V30 856 C 88.1549 -2.21235 0.657539 0
M  V30 857 C 89.1249 -1.62551 -0.341543 0
M  V30 858 O 90.3099 -1.89379 -0.232393 0
M  V30 859 C 87.4499 -3.45076 0.0410575 0
M  V30 860 C 86.5629 -4.18042 1.08927 0
M  V30 861 C 85.6979 -5.29376 0.439848 0
M  V30 862 C 84.7369 -5.94132 1.4722 0
M  V30 863 N 83.8739 -6.96975 0.846756 0
M  V30 864 H 88.7139 -2.54534 1.54972 0
M  V30 865 H 86.2509 -1.25028 0.775006 0
M  V30 866 H 88.2089 -4.15862 -0.33383 0
M  V30 867 H 86.8389 -3.12353 -0.814568 0
M  V30 868 H 85.8909 -3.45945 1.58196 0
M  V30 869 H 87.2029 -4.62306 1.87282 0
M  V30 870 H 86.3569 -6.06699 0.0115125 0
M  V30 871 H 85.0959 -4.86251 -0.375656 0
M  V30 872 H 84.1009 -5.15538 1.91052 0
M  V30 873 H 85.3259 -6.39337 2.28965 0
M  V30 874 H 83.2719 -6.5598 0.0518075 0
M  V30 875 H 83.1889 -7.39565 1.5678 0
M  V30 876 H 84.4569 -7.78239 0.443277 0
M  V30 877 N 88.686 -0.835752 -1.33615 0
M  V30 878 C 89.616 -0.281739 -2.31794 0
M  V30 879 C 90.597 0.608833 -1.58831 0
M  V30 880 O 91.782 0.533035 -1.86741 0
M  V30 881 C 88.912 0.546612 -3.42971 0
M  V30 882 C 87.866 -0.247904 -4.27281 0
M  V30 883 C 87.192 0.704001 -5.30045 0
M  V30 884 C 88.492 -1.46324 -5.01385 0
M  V30 885 H 90.186 -1.10206 -2.78379 0
M  V30 886 H 87.732 -0.531388 -1.33837 0
M  V30 887 H 89.685 0.944467 -4.1068 0
M  V30 888 H 88.409 1.40011 -2.95067 0
M  V30 889 H 87.068 -0.627281 -3.61194 0
M  V30 890 H 86.716 1.55381 -4.78399 0
M  V30 891 H 86.416 0.176524 -5.87335 0
M  V30 892 H 87.94 1.09944 -6.0062 0
M  V30 893 H 89.354 -1.13871 -5.61877 0
M  V30 894 H 87.751 -1.92728 -5.6831 0
M  V30 895 H 88.821 -2.23467 -4.30338 0
M  V30 896 N 90.1641 1.46063 -0.591896 0
M  V30 897 C 91.5751 1.85944 -0.167822 0
M  V30 898 C 91.9261 1.49429 1.27143 0
M  V30 899 O 91.0511 0.913515 1.96173 0
M  V30 900 C 91.6461 3.37489 -0.297794 0
M  V30 901 C 90.2051 3.76332 0.0714732 0
M  V30 902 C 89.3521 2.7006 -0.629509 0
M  V30 903 H 92.3031 1.37087 -0.799555 0
M  V30 904 H 92.3241 3.77532 0.474349 0
M  V30 905 H 91.8361 3.64034 -1.3454 0
M  V30 906 H 89.9371 3.55405 1.11886 0
M  V30 907 H 90.0501 4.78088 -0.311245 0
M  V30 908 H 88.4141 2.54607 -0.0687867 0
M  V30 909 H 89.1971 2.99444 -1.67894 0
M  V30 910 N 91.6422 0.330177 1.54103 0
M  V30 911 C 92.5722 -0.525353 2.27513 0
M  V30 912 C 93.5532 -1.11383 1.2856 0
M  V30 913 O 94.7382 -1.13773 1.57383 0
M  V30 914 C 91.8682 -1.6831 3.03791 0
M  V30 915 C 90.8222 -1.2236 4.10137 0
M  V30 916 C 90.1482 -2.46882 4.74293 0
M  V30 917 C 91.4482 -0.333697 5.21233 0
M  V30 918 H 93.1422 0.087013 2.99274 0
M  V30 919 H 90.6882 0.0432893 1.43935 0
M  V30 920 H 92.6412 -2.28795 3.5388 0
M  V30 921 H 91.3652 -2.32216 2.29659 0
M  V30 922 H 90.0242 -0.64165 3.60941 0
M  V30 923 H 89.6722 -3.09165 3.96769 0
M  V30 924 H 89.3722 -2.16825 5.46133 0
M  V30 925 H 90.8962 -3.08117 5.27159 0
M  V30 926 H 92.3102 -0.845013 5.67038 0
M  V30 927 H 90.7072 -0.125612 5.99969 0
M  V30 928 H 91.7772 0.633724 4.80741 0
M  V30 929 N 93.1203 -1.57491 0.0584922 0
M  V30 930 C 94.0833 -2.1085 -0.898617 0
M  V30 931 C 95.0833 -1.02964 -1.23511 0
M  V30 932 O 96.2733 -1.29007 -1.17059 0
M  V30 933 C 93.4053 -2.59881 -2.20623 0
M  V30 934 H 94.5983 -2.96715 -0.435936 0
M  V30 935 H 92.1513 -1.55141 -0.190023 0
M  V30 936 H 92.8863 -1.77431 -2.71457 0
M  V30 937 H 92.6713 -3.38727 -1.97501 0
M  V30 938 H 94.1613 -3.01285 -2.89166 0
M  V30 939 N 94.5984 0.214957 -1.56127 0
M  V30 940 C 95.8444 0.939762 -1.79712 0
M  V30 941 C 96.1774 1.83723 -0.629247 0
M  V30 942 O 95.4524 1.90925 0.371197 0
M  V30 943 C 95.7354 1.77306 -3.13424 0
M  V30 944 C 95.5884 0.90164 -4.40671 0
M  V30 945 C 96.9074 2.74956 -3.43638 0
M  V30 946 H 94.0264 0.340214 -0.653776 0
M  V30 947 H 96.6684 0.20824 -1.88855 0
M  V30 948 H 94.8184 2.39673 -3.0576 0
M  V30 949 H 96.4904 0.294206 -4.60361 0
M  V30 950 H 94.7334 0.207368 -4.33304 0
M  V30 951 H 95.4044 1.51923 -5.30682 0
M  V30 952 H 97.8804 2.22724 -3.51473 0
M  V30 953 H 96.7564 3.30358 -4.38355 0
M  V30 954 H 97.0174 3.53023 -2.66134 0
M  V30 955 N 96.0765 1.50051 0.48192 0
M  V30 956 C 96.9865 1.7089 1.60728 0
M  V30 957 C 98.0025 0.591788 1.63627 0
M  V30 958 O 99.1785 0.868817 1.81696 0
M  V30 959 C 96.2435 1.78855 2.97005 0
M  V30 960 C 95.3045 3.02537 3.04581 0
M  V30 961 C 94.5375 3.10112 4.34357 0
M  V30 962 O 94.7605 2.24765 5.24249 0
M  V30 963 O 93.6945 4.02747 4.47301 0
M  V30 964 H 97.5205 2.66264 1.46072 0
M  V30 965 H 95.1055 1.34018 0.660264 0
M  V30 966 H 96.9875 1.86336 3.77964 0
M  V30 967 H 95.6625 0.866628 3.11883 0
M  V30 968 H 94.5695 3.00563 2.22739 0
M  V30 969 H 95.9025 3.94272 2.94636 0
M  V30 970 N 97.5546 -0.734337 1.39446 0
M  V30 971 C 98.4846 -1.86155 1.40955 0
M  V30 972 C 99.4656 -1.67898 0.272827 0
M  V30 973 O 100.651 -1.88207 0.478743 0
M  V30 974 C 97.7806 -3.23912 1.25294 0
M  V30 975 C 96.7346 -3.56808 2.36373 0
M  V30 976 C 96.0606 -4.93508 2.058 0
M  V30 977 C 97.3606 -3.59713 3.78687 0
M  V30 978 H 99.0546 -1.8515 2.35287 0
M  V30 979 H 96.6006 -0.889367 1.13253 0
M  V30 980 H 98.5536 -4.02443 1.2497 0
M  V30 981 H 97.2776 -3.25446 0.274308 0
M  V30 982 H 95.9366 -2.80606 2.35914 0
M  V30 983 H 95.5846 -4.91623 1.06374 0
M  V30 984 H 95.2846 -5.16486 2.80208 0
M  V30 985 H 96.8086 -5.74396 2.07128 0
M  V30 986 H 98.2226 -4.2832 3.81071 0
M  V30 987 H 96.6196 -3.94209 4.52459 0
M  V30 988 H 97.6896 -2.59504 4.09617 0
M  V30 989 N 99.0327 -1.24633 -0.964593 0
M  V30 990 C 100.261 -1.11501 -1.74285 0
M  V30 991 C 100.676 0.332165 -1.85855 0
M  V30 992 O 100.033 1.22903 -1.34911 0
M  V30 993 C 100.084 -1.75258 -3.16175 0
M  V30 994 O 99.8047 -3.14318 -3.05182 0
M  V30 995 C 101.306 -1.67776 -4.10324 0
M  V30 996 H 98.5257 -0.389407 -0.546446 0
M  V30 997 H 101.07 -1.64801 -1.21083 0
M  V30 998 H 99.2247 -1.25954 -3.66353 0
M  V30 999 H 99.6387 -3.4551 -3.94618 0
M  V30 1000 H 101.113 -2.17064 -5.0753 0
M  V30 1001 H 101.59 -0.639584 -4.34518 0
M  V30 1002 H 102.196 -2.16522 -3.66058 0
M  V30 1003 N 100.511 1.16574 -1.06058 0
M  V30 1004 C 101.443 2.2045 -0.627239 0
M  V30 1005 C 102.456 1.59752 0.313534 0
M  V30 1006 O 103.645 1.78192 0.104896 0
M  V30 1007 C 100.745 3.3875 0.100974 0
M  V30 1008 C 99.9178 4.29008 -0.852687 0
M  V30 1009 C 98.9768 5.25944 -0.164152 0
M  V30 1010 O 98.0028 5.63535 -0.801047 0
M  V30 1011 N 99.2048 5.70075 1.09518 0
M  V30 1012 H 101.97 2.58249 -1.52077 0
M  V30 1013 H 99.5308 1.3156 -0.943594 0
M  V30 1014 H 101.523 4.00638 0.57194 0
M  V30 1015 H 100.093 2.99476 0.89628 0
M  V30 1016 H 99.3128 3.64419 -1.50308 0
M  V30 1017 H 100.601 4.86195 -1.49972 0
M  V30 1018 H 99.9988 5.41624 1.6328 0
M  V30 1019 H 98.5558 6.34067 1.51006 0
M  V30 1020 N 101.989 0.842826 1.3317 0
M  V30 1021 C 102.899 0.281444 2.32906 0
M  V30 1022 C 103.915 -0.594587 1.63526 0
M  V30 1023 O 105.091 -0.49777 1.95152 0
M  V30 1024 C 102.156 -0.530929 3.42611 0
M  V30 1025 C 101.217 0.369843 4.27704 0
M  V30 1026 C 100.45 -0.403853 5.3217 0
M  V30 1027 O 100.673 -1.63513 5.46461 0
M  V30 1028 O 99.6069 0.224199 6.01482 0
M  V30 1029 H 103.433 1.10744 2.82789 0
M  V30 1030 H 101.018 0.60545 1.36582 0
M  V30 1031 H 102.9 -0.992437 4.09547 0
M  V30 1032 H 101.575 -1.33392 2.94938 0
M  V30 1033 H 100.482 0.879275 3.6362 0
M  V30 1034 H 101.815 1.13771 4.78871 0
M  V30 1035 N 103.467 -1.45747 0.599634 0
M  V30 1036 C 104.713 -2.02592 0.0918643 0
M  V30 1037 C 105.046 -1.46806 -1.27128 0
M  V30 1038 O 104.321 -0.639658 -1.83681 0
M  V30 1039 C 104.604 -3.60073 0.0443398 0
M  V30 1040 C 104.457 -4.26208 1.43759 0
M  V30 1041 C 105.776 -4.35309 -0.647608 0
M  V30 1042 H 102.895 -0.736175 0.034857 0
M  V30 1043 H 105.537 -1.73694 0.770081 0
M  V30 1044 H 103.687 -3.84823 -0.533224 0
M  V30 1045 H 105.359 -4.12668 2.06162 0
M  V30 1046 H 103.602 -3.84916 2.00056 0
M  V30 1047 H 104.273 -5.35069 1.35665 0
M  V30 1048 H 106.749 -4.15805 -0.156776 0
M  V30 1049 H 105.625 -5.45038 -0.649942 0
M  V30 1050 H 105.886 -4.07598 -1.71219 0
M  V30 1051 N 104.945 -0.338344 -1.53925 0
M  V30 1052 C 106.361 0.0137736 -1.59594 0
M  V30 1053 C 106.561 1.49186 -1.35447 0
M  V30 1054 O 105.617 2.24987 -1.14616 0
M  V30 1055 C 106.93 -0.41773 -2.97784 0
M  V30 1056 C 108.478 -0.369633 -3.1081 0
M  V30 1057 C 108.953 -0.776524 -4.51369 0
M  V30 1058 N 110.444 -0.730506 -4.57403 0
M  V30 1059 C 111.179 -1.01736 -5.64303 0
M  V30 1060 N 110.675 -1.3721 -6.79077 0
M  V30 1061 N 112.468 -0.941942 -5.54151 0
M  V30 1062 H 104.619 -1.3012 -1.67876 0
M  V30 1063 H 106.882 -0.530082 -0.78595 0
M  V30 1064 H 106.588 -1.44811 -3.20504 0
M  V30 1065 H 106.462 0.209729 -3.76616 0
M  V30 1066 H 108.849 0.651568 -2.87817 0
M  V30 1067 H 108.93 -1.03223 -2.34049 0
M  V30 1068 H 108.574 -1.79571 -4.75096 0
M  V30 1069 H 108.504 -0.0914649 -5.26521 0
M  V30 1070 H 110.995 -0.468783 -3.74981 0
M  V30 1071 H 111.308 -1.57597 -7.5656 0
M  V30 1072 H 109.653 -1.4105 -6.80536 0
M  V30 1073 H 112.844 -0.664184 -4.63364 0
M  V30 1074 H 113.017 -1.16884 -6.37371 0
M  V30 1075 N 106.423 1.57458 -0.0668435 0
M  V30 1076 C 107.386 2.11323 0.887422 0
M  V30 1077 C 108.386 1.03618 1.22964 0
M  V30 1078 O 109.576 1.29626 1.16373 0
M  V30 1079 C 106.708 2.61048 2.19242 0
M  V30 1080 H 107.901 2.96942 0.420194 0
M  V30 1081 H 105.454 1.55239 0.181793 0
M  V30 1082 H 106.189 1.78868 2.70512 0
M  V30 1083 H 105.974 3.39769 1.95702 0
M  V30 1084 H 107.464 3.02814 2.87565 0
M  V30 1085 N 107.901 -0.206675 1.56239 0
M  V30 1086 C 109.147 -0.930218 1.80208 0
M  V30 1087 C 109.48 -1.83387 0.638981 0
M  V30 1088 O 108.755 -1.91119 -0.361066 0
M  V30 1089 C 109.038 -1.75641 3.1436 0
M  V30 1090 C 108.891 -0.878257 4.41142 0
M  V30 1091 C 110.21 -2.73129 3.45092 0
M  V30 1092 H 107.329 -0.336742 0.655571 0
M  V30 1093 H 109.971 -0.198222 1.88963 0
M  V30 1094 H 108.121 -2.38048 3.07027 0
M  V30 1095 H 109.793 -0.269787 4.6051 0
M  V30 1096 H 108.036 -0.184385 4.33408 0
M  V30 1097 H 108.707 -1.49106 5.3148 0
M  V30 1098 H 111.183 -2.20856 3.52649 0
M  V30 1099 H 110.059 -3.28028 4.40101 0
M  V30 1100 H 110.32 -3.51606 2.68003 0
M  V30 1101 N 109.379 -1.50304 -0.473955 0
M  V30 1102 C 110.342 -1.6841 -1.55469 0
M  V30 1103 C 111.342 -0.554905 -1.50922 0
M  V30 1104 O 112.532 -0.821882 -1.53593 0
M  V30 1105 C 109.664 -1.70667 -2.95102 0
M  V30 1106 H 110.857 -2.64828 -1.40733 0
M  V30 1107 H 108.41 -1.39742 -0.700132 0
M  V30 1108 H 109.145 -0.75932 -3.15285 0
M  V30 1109 H 108.93 -2.52698 -2.9981 0
M  V30 1110 H 110.42 -1.8664 -3.73571 0
M  V30 1111 N 110.857 0.726932 -1.39834 0
M  V30 1112 C 111.805 1.86235 -1.39353 0
M  V30 1113 C 112.799 1.67144 -0.275555 0
M  V30 1114 O 114.005 1.74387 -0.44601 0
M  V30 1115 H 110.38 0.613174 -0.43534 0
M  V30 1116 H 112.351 1.83756 -2.35109 0
M  V30 1117 C 111.1 3.23995 -1.26185 0
M  V30 1118 H 110.423 3.39285 -2.11484 0
M  V30 1119 H 111.863 4.03609 -1.29907 0
M  V30 1120 C 110.322 3.36888 0.0290018 0
M  V30 1121 O 110.852 3.89152 0.99619 0
M  V30 1122 N 109.058 2.90446 0.0947437 0
M  V30 1123 H 108.605 2.48102 -0.693035 0
M  V30 1124 H 108.563 2.99451 0.957932 0
M  V30 1125 N 112.336 1.25143 0.95797 0
M  V30 1126 C 113.246 1.06968 2.08794 0
M  V30 1127 C 114.262 0.00773911 1.73998 0
M  V30 1128 O 115.438 0.207972 2.00323 0
M  V30 1129 C 112.503 0.68691 3.39827 0
M  V30 1130 C 111.564 1.82641 3.88511 0
M  V30 1131 C 110.797 1.46181 5.1329 0
M  V30 1132 O 111.02 0.355971 5.69288 0
M  V30 1133 O 109.954 2.29085 5.566 0
M  V30 1134 H 113.78 2.01723 2.27027 0
M  V30 1135 H 111.365 1.04051 1.07209 0
M  V30 1136 H 113.247 0.485417 4.18595 0
M  V30 1137 H 111.922 -0.231417 3.22872 0
M  V30 1138 H 110.829 2.08274 3.10762 0
M  V30 1139 H 112.162 2.72386 4.09959 0
M  V30 1140 N 113.814 -1.1601 1.06675 0
M  V30 1141 C 114.777 -2.18724 0.685001 0
M  V30 1142 C 115.777 -1.58496 -0.271246 0
M  V30 1143 O 116.967 -1.74119 -0.0531156 0
M  V30 1144 C 114.099 -3.40899 0.00853648 0
M  V30 1145 H 115.292 -2.54011 1.59431 0
M  V30 1146 H 112.845 -1.30352 0.862441 0
M  V30 1147 H 113.58 -3.11173 -0.913337 0
M  V30 1148 H 113.365 -3.8587 0.696204 0
M  V30 1149 H 114.855 -4.16886 -0.24414 0
M  V30 1150 N 115.292 -0.849877 -1.32721 0
M  V30 1151 C 116.255 -0.296122 -2.27279 0
M  V30 1152 C 117.255 0.541458 -1.5141 0
M  V30 1153 O 118.445 0.353658 -1.70572 0
M  V30 1154 C 115.577 0.581579 -3.35902 0
M  V30 1155 H 116.77 -1.13064 -2.77771 0
M  V30 1156 H 114.323 -0.62383 -1.43311 0
M  V30 1157 H 115.058 1.43809 -2.9067 0
M  V30 1158 H 114.843 -0.0178814 -3.92096 0
M  V30 1159 H 116.333 0.961951 -4.0637 0
M  V30 1160 N 116.77 1.45427 -0.607355 0
M  V30 1161 C 118.017 2.02241 -0.102455 0
M  V30 1162 C 118.345 1.4758 1.26691 0
M  V30 1163 O 117.6 0.640468 1.84923 0
M  V30 1164 C 117.899 3.57398 -0.0129263 0
M  V30 1165 C 117.565 4.3121 -1.31792 0
M  V30 1166 C 116.227 4.51092 -1.67539 0
M  V30 1167 C 118.579 4.73401 -2.18039 0
M  V30 1168 C 115.907 5.10422 -2.89285 0
M  V30 1169 C 118.259 5.34078 -3.39034 0
M  V30 1170 C 116.923 5.52184 -3.75033 0
M  V30 1171 H 116.193 0.740051 -0.037491 0
M  V30 1172 H 118.84 1.74494 -0.788926 0
M  V30 1173 H 117.145 3.84421 0.756806 0
M  V30 1174 H 118.842 3.99061 0.393881 0
M  V30 1175 H 115.432 4.16047 -1.02968 0
M  V30 1176 H 119.616 4.57774 -1.91721 0
M  V30 1177 H 114.872 5.22629 -3.17283 0
M  V30 1178 H 119.046 5.65724 -4.06115 0
M  V30 1179 H 116.673 5.97925 -4.69457 0
M  V30 1180 N 118.248 0.346503 1.53744 0
M  V30 1181 C 119.211 -0.496439 2.23759 0
M  V30 1182 C 120.211 -1.0252 1.2388 0
M  V30 1183 O 121.401 -0.913974 1.48297 0
M  V30 1184 C 118.533 -1.69187 2.95954 0
M  V30 1185 H 119.726 0.115952 2.99676 0
M  V30 1186 H 117.279 0.0978939 1.55993 0
M  V30 1187 H 118.014 -2.34288 2.24231 0
M  V30 1188 H 117.799 -1.31989 3.69217 0
M  V30 1189 H 119.289 -2.28969 3.49232 0
M  V30 1190 N 119.726 -1.57421 0.075193 0
M  V30 1191 C 120.973 -1.93618 -0.593146 0
M  V30 1192 C 121.301 -0.955484 -1.69413 0
M  V30 1193 O 120.556 0.0283251 -1.9568 0
M  V30 1194 C 120.855 -3.36428 -1.20626 0
M  V30 1195 C 120.521 -4.50307 -0.231078 0
M  V30 1196 C 119.183 -4.81186 0.0371936 0
M  V30 1197 C 121.535 -5.19374 0.435888 0
M  V30 1198 C 118.863 -5.78466 0.979461 0
M  V30 1199 C 121.215 -6.17665 1.3665 0
M  V30 1200 C 119.879 -6.46958 1.6432 0
M  V30 1201 H 119.149 -0.708499 -0.217047 0
M  V30 1202 H 121.796 -1.90937 0.146793 0
M  V30 1203 H 120.101 -3.35592 -2.02201 0
M  V30 1204 H 121.798 -3.61727 -1.73073 0
M  V30 1205 H 118.388 -4.26227 -0.450357 0
M  V30 1206 H 122.572 -4.95711 0.241748 0
M  V30 1207 H 117.828 -5.99487 1.20106 0
M  V30 1208 H 122.002 -6.70284 1.88924 0
M  V30 1209 H 119.629 -7.2215 2.37494 0
M  V30 1210 N 121.204 0.198386 -1.56346 0
M  V30 1211 C 122.432 0.935572 -1.84539 0
M  V30 1212 C 122.847 1.76989 -0.657281 0
M  V30 1213 O 122.204 1.78626 0.374043 0
M  V30 1214 C 122.255 1.8344 -3.11499 0
M  V30 1215 O 121.976 1.03377 -4.25728 0
M  V30 1216 C 123.477 2.68355 -3.52846 0
M  V30 1217 H 120.697 0.273126 -0.612897 0
M  V30 1218 H 123.241 0.20663 -2.03453 0
M  V30 1219 H 121.396 2.51701 -2.94492 0
M  V30 1220 H 121.81 1.64599 -4.98003 0
M  V30 1221 H 123.284 3.27085 -4.44657 0
M  V30 1222 H 123.761 3.41901 -2.75681 0
M  V30 1223 H 124.367 2.05471 -3.72373 0
M  V30 1224 N 122.682 1.50554 0.465978 0
M  V30 1225 C 123.928 1.62038 1.21949 0
M  V30 1226 C 124.261 0.322116 1.9151 0
M  V30 1227 O 123.536 -0.676723 1.82348 0
M  V30 1228 C 123.819 2.80421 2.25912 0
M  V30 1229 C 123.672 4.20144 1.60622 0
M  V30 1230 C 124.991 2.94354 3.27176 0
M  V30 1231 H 122.11 0.589752 0.441998 0
M  V30 1232 H 124.752 1.82956 0.51257 0
M  V30 1233 H 122.902 2.62717 2.86203 0
M  V30 1234 H 124.574 4.49449 1.03889 0
M  V30 1235 H 122.817 4.24165 0.909211 0
M  V30 1236 H 123.488 4.98914 2.36196 0
M  V30 1237 H 125.964 3.10578 2.76913 0
M  V30 1238 H 124.84 3.788 3.97242 0
M  V30 1239 H 125.101 2.05186 3.916 0
M  V30 1240 N 124.16 -0.719506 1.40217 0
M  V30 1241 C 125.385 -1.51371 1.4178 0
M  V30 1242 C 125.81 -1.88091 0.0182355 0
M  V30 1243 O 125.168 -1.52997 -0.972707 0
M  V30 1244 C 125.216 -2.768 2.31115 0
M  V30 1245 O 124.32 -3.73349 1.7517 0
M  V30 1246 H 123.661 -0.456529 0.482159 0
M  V30 1247 H 126.191 -0.88644 1.844 0
M  V30 1248 H 126.201 -3.25371 2.46167 0
M  V30 1249 H 124.876 -2.49407 3.3282 0
M  V30 1250 H 123.453 -3.32179 1.69444 0
M  V30 1251 N 125.638 -1.25649 -0.95132 0
M  V30 1252 C 126.885 -1.10594 -1.69633 0
M  V30 1253 C 127.213 0.352515 -1.91279 0
M  V30 1254 O 126.468 1.27601 -1.4838 0
M  V30 1255 C 126.767 -1.80909 -3.08231 0
M  V30 1256 C 126.433 -3.30825 -3.06375 0
M  V30 1257 C 125.095 -3.71722 -3.05576 0
M  V30 1258 C 127.447 -4.26589 -2.99452 0
M  V30 1259 C 124.775 -5.06788 -2.95606 0
M  V30 1260 C 127.127 -5.61683 -2.91024 0
M  V30 1261 C 125.791 -6.01904 -2.88562 0
M  V30 1262 H 125.061 -0.404691 -0.620731 0
M  V30 1263 H 127.708 -1.55964 -1.11119 0
M  V30 1264 H 126.013 -1.27979 -3.70309 0
M  V30 1265 H 127.71 -1.6671 -3.64704 0
M  V30 1266 H 124.3 -2.98287 -3.07771 0
M  V30 1267 H 128.484 -3.95982 -2.99185 0
M  V30 1268 H 123.74 -5.37126 -2.92071 0
M  V30 1269 H 127.914 -6.35578 -2.84629 0
M  V30 1270 H 125.541 -7.06521 -2.80593 0
M  V30 1271 N 127.117 1.15442 -1.07289 0
M  V30 1272 C 128.027 2.23786 -0.704057 0
M  V30 1273 C 129.043 1.7166 0.284413 0
M  V30 1274 O 130.219 2.00972 0.131205 0
M  V30 1275 C 127.284 3.46535 -0.106792 0
M  V30 1276 C 126.345 4.13654 -1.14842 0
M  V30 1277 C 125.578 5.30544 -0.57956 0
M  V30 1278 O 125.801 5.67187 0.604585 0
M  V30 1279 O 124.735 5.87154 -1.32414 0
M  V30 1280 H 128.561 2.57664 -1.60757 0
M  V30 1281 H 126.146 1.23152 -0.845803 0
M  V30 1282 H 128.028 4.20804 0.224048 0
M  V30 1283 H 126.703 3.14407 0.770049 0
M  V30 1284 H 125.61 3.4131 -1.5316 0
M  V30 1285 H 126.943 4.49861 -1.99714 0
M  V30 1286 N 128.595 0.856903 1.32268 0
M  V30 1287 C 129.825 0.47475 2.01071 0
M  V30 1288 C 130.233 -0.933746 1.64553 0
M  V30 1289 O 129.576 -1.62114 0.863989 0
M  V30 1290 C 129.638 0.536746 3.55471 0
M  V30 1291 C 129.302 1.90453 4.15423 0
M  V30 1292 C 130.299 2.87029 4.33486 0
M  V30 1293 C 127.984 2.20229 4.51447 0
M  V30 1294 C 129.978 4.11532 4.86744 0
M  V30 1295 C 127.665 3.44984 5.0441 0
M  V30 1296 C 128.663 4.40452 5.22007 0
M  V30 1297 O 128.351 5.62998 5.73837 0
M  V30 1298 H 128.083 0.184778 0.650256 0
M  V30 1299 H 130.637 1.15615 1.69771 0
M  V30 1300 H 128.867 -0.20152 3.86175 0
M  V30 1301 H 130.556 0.169875 4.05544 0
M  V30 1302 H 131.322 2.6533 4.05986 0
M  V30 1303 H 127.201 1.46705 4.37034 0
M  V30 1304 H 130.745 4.86056 5.00395 0
M  V30 1305 H 126.642 3.66532 5.31342 0
M  V30 1306 H 127.41 5.64987 5.92226 0
M  V30 1307 N 130.073 -1.45103 0.615059 0
M  V30 1308 C 131.005 -2.28786 -0.13762 0
M  V30 1309 C 132.018 -1.40376 -0.824525 0
M  V30 1310 O 133.207 -1.64681 -0.688662 0
M  V30 1311 C 130.307 -3.16322 -1.21628 0
M  V30 1312 C 129.48 -4.33054 -0.615039 0
M  V30 1313 C 128.539 -5.01743 -1.58556 0
M  V30 1314 O 127.565 -5.58293 -1.10895 0
M  V30 1315 N 128.767 -5.01714 -2.91998 0
M  V30 1316 H 131.532 -2.94025 0.580483 0
M  V30 1317 H 129.093 -1.55373 0.45507 0
M  V30 1318 H 131.085 -3.59139 -1.86552 0
M  V30 1319 H 129.655 -2.52943 -1.83681 0
M  V30 1320 H 128.875 -3.93627 0.21245 0
M  V30 1321 H 130.163 -5.08431 -0.193704 0
M  V30 1322 H 129.561 -4.57075 -3.33316 0
M  V30 1323 H 128.118 -5.48371 -3.52325 0
M  V30 1324 N 131.551 -0.354651 -1.53558 0
M  V30 1325 C 132.799 0.237972 -2.00694 0
M  V30 1326 C 133.12 1.50173 -1.24391 0
M  V30 1327 O 132.39 1.92673 -0.354135 0
M  V30 1328 H 130.97 0.0909256 -0.741446 0
M  V30 1329 H 133.632 -0.478368 -1.88938 0
M  V30 1330 H 132.728 0.47264 -3.085 0
M  V30 1331 N 133.029 1.57378 -0.0835403 0
M  V30 1332 C 134.445 1.57246 0.273109 0
M  V30 1333 C 134.645 1.09385 1.69225 0
M  V30 1334 O 133.701 0.765051 2.40631 0
M  V30 1335 C 135.014 3.00614 0.0720628 0
M  V30 1336 C 136.562 3.12684 0.1407 0
M  V30 1337 C 137.037 4.57989 -0.0322094 0
M  V30 1338 N 138.528 4.63194 0.0230085 0
M  V30 1339 C 139.263 5.73335 -0.0861941 0
M  V30 1340 N 138.759 6.9235 -0.24958 0
M  V30 1341 N 140.552 5.62093 -0.0282886 0
M  V30 1342 H 132.703 1.86801 -1.0109 0
M  V30 1343 H 134.966 0.861687 -0.395222 0
M  V30 1344 H 134.672 3.39786 -0.907662 0
M  V30 1345 H 134.546 3.68193 0.81936 0
M  V30 1346 H 136.933 2.73391 1.11092 0
M  V30 1347 H 137.014 2.47719 -0.637896 0
M  V30 1348 H 136.658 4.97973 -0.999247 0
M  V30 1349 H 136.588 5.21 0.765937 0
M  V30 1350 H 139.079 3.77613 0.14722 0
M  V30 1351 H 139.392 7.72117 -0.324733 0
M  V30 1352 H 137.737 6.94415 -0.285097 0
M  V30 1353 H 140.928 4.67997 0.0981408 0
M  V30 1354 H 141.101 6.47895 -0.116845 0
M  V30 1355 N 134.507 -0.190092 1.56449 0
M  V30 1356 C 135.454 -1.23557 1.94942 0
M  V30 1357 C 136.424 -1.44972 0.810696 0
M  V30 1358 O 137.609 -1.58023 1.06927 0
M  V30 1359 C 134.749 -2.57416 2.2985 0
M  V30 1360 C 133.862 -2.43537 3.5681 0
M  V30 1361 C 132.997 -3.70134 3.81017 0
M  V30 1362 C 132.036 -3.51109 5.01387 0
M  V30 1363 N 131.173 -4.6973 5.21822 0
M  V30 1364 H 136.013 -0.900304 2.84075 0
M  V30 1365 H 133.55 -0.43318 1.40577 0
M  V30 1366 H 135.508 -3.35409 2.48106 0
M  V30 1367 H 134.138 -2.88975 1.43852 0
M  V30 1368 H 133.19 -1.56816 3.46573 0
M  V30 1369 H 134.502 -2.25415 4.4496 0
M  V30 1370 H 133.656 -4.56566 3.9954 0
M  V30 1371 H 132.395 -3.91215 2.91207 0
M  V30 1372 H 131.4 -2.63063 4.82782 0
M  V30 1373 H 132.625 -3.31468 5.9271 0
M  V30 1374 H 130.571 -4.91065 4.34961 0
M  V30 1375 H 130.488 -4.54452 6.0416 0
M  V30 1376 H 131.756 -5.57499 5.44808 0
M  V30 1377 N 135.985 -1.50799 -0.457987 0
M  V30 1378 C 137.213 -1.66218 -1.23203 0
M  V30 1379 C 137.628 -0.350894 -1.85511 0
M  V30 1380 O 136.985 0.668546 -1.69814 0
M  V30 1381 C 137.036 -2.76291 -2.33121 0
M  V30 1382 O 136.757 -4.02338 -1.73366 0
M  V30 1383 C 138.258 -3.028 -3.2377 0
M  V30 1384 H 135.478 -0.558361 -0.372121 0
M  V30 1385 H 138.022 -1.97099 -0.545179 0
M  V30 1386 H 136.177 -2.48068 -2.97558 0
M  V30 1387 H 136.591 -4.63312 -2.4585 0
M  V30 1388 H 138.065 -3.8345 -3.97077 0
M  V30 1389 H 138.542 -2.14385 -3.83322 0
M  V30 1390 H 139.148 -3.32604 -2.65056 0
M  V30 1391 N 137.463 0.71206 -1.40597 0
M  V30 1392 C 138.709 1.47416 -1.39271 0
M  V30 1393 C 139.042 1.942 0.00388791 0
M  V30 1394 O 138.317 1.68403 0.973179 0
M  V30 1395 C 138.6 2.69774 -2.38525 0
M  V30 1396 C 138.453 2.28861 -3.87224 0
M  V30 1397 C 139.772 3.71939 -2.35264 0
M  V30 1398 H 136.891 0.534713 -0.5072 0
M  V30 1399 H 139.533 0.812375 -1.71757 0
M  V30 1400 H 137.683 3.26238 -2.10953 0
M  V30 1401 H 139.355 1.77852 -4.25636 0
M  V30 1402 H 137.598 1.60824 -4.02887 0
M  V30 1403 H 138.269 3.16584 -4.52193 0
M  V30 1404 H 140.745 3.25113 -2.59694 0
M  V30 1405 H 139.621 4.55186 -3.06753 0
M  V30 1406 H 139.882 4.20484 -1.36549 0
M  V30 1407 N 138.941 1.26152 0.944643 0
M  V30 1408 C 140.187 1.11657 1.69294 0
M  V30 1409 C 140.52 -0.339926 1.91202 0
M  V30 1410 O 139.795 -1.24994 1.49019 0
M  V30 1411 C 140.078 1.88236 3.06984 0
M  V30 1412 C 139.931 3.41772 2.92424 0
M  V30 1413 C 141.25 1.67343 4.07043 0
M  V30 1414 H 138.369 0.407004 0.614424 0
M  V30 1415 H 141.011 1.55106 1.09737 0
M  V30 1416 H 139.161 1.51308 3.57824 0
M  V30 1417 H 140.833 3.88433 2.48832 0
M  V30 1418 H 139.076 3.68974 2.28124 0
M  V30 1419 H 139.747 3.90579 3.90067 0
M  V30 1420 H 142.223 1.99509 3.65151 0
M  V30 1421 H 141.099 2.23346 5.01406 0
M  V30 1422 H 141.36 0.617158 4.37771 0
M  V30 1423 N 140.419 -1.14872 1.07899 0
M  V30 1424 C 141.382 -2.17986 0.708161 0
M  V30 1425 C 142.382 -1.58775 -0.25442 0
M  V30 1426 O 143.572 -1.74166 -0.034645 0
M  V30 1427 C 140.704 -3.40871 0.0446929 0
M  V30 1428 H 141.897 -2.52306 1.62116 0
M  V30 1429 H 139.45 -1.2943 0.876218 0
M  V30 1430 H 140.185 -3.12124 -0.880281 0
M  V30 1431 H 139.97 -3.8511 0.737091 0
M  V30 1432 H 141.46 -4.17121 -0.19991 0
M  V30 1433 N 141.898 -0.863906 -1.31812 0
M  V30 1434 C 143.309 -0.52522 -1.7916 0
M  V30 1435 C 143.66 0.957518 -1.71248 0
M  V30 1436 O 142.785 1.74734 -1.27659 0
M  V30 1437 C 143.38 -0.9466 -3.25307 0
M  V30 1438 C 141.939 -0.659668 -3.70574 0
M  V30 1439 C 141.086 -1.14126 -2.52726 0
M  V30 1440 H 144.037 -1.05022 -1.1898 0
M  V30 1441 H 144.058 -0.266766 -3.79564 0
M  V30 1442 H 143.57 -2.02579 -3.31034 0
M  V30 1443 H 141.671 0.408416 -3.70355 0
M  V30 1444 H 141.784 -1.23245 -4.62977 0
M  V30 1445 H 140.148 -0.561216 -2.4844 0
M  V30 1446 H 140.931 -2.22775 -2.61201 0
M  V30 1447 N 143.376 1.44774 -0.622745 0
M  V30 1448 C 144.625 2.01334 -0.121397 0
M  V30 1449 C 144.938 1.49505 1.26125 0
M  V30 1450 O 146.144 1.98139 1.85616 0
M  V30 1451 C 144.6 3.59516 -0.166298 0
M  V30 1452 C 144.208 4.20342 -1.54974 0
M  V30 1453 C 145.952 4.23582 0.279021 0
M  V30 1454 C 143.859 5.70721 -1.55021 0
M  V30 1455 H 142.789 0.752851 -0.0416172 0
M  V30 1456 H 145.44 1.66083 -0.780309 0
M  V30 1457 H 143.822 3.92027 0.559557 0
M  V30 1458 H 144.996 3.99381 -2.29851 0
M  V30 1459 H 143.311 3.68529 -1.93843 0
M  V30 1460 H 145.908 5.33868 0.298083 0
M  V30 1461 H 146.251 3.95327 1.30471 0
M  V30 1462 H 146.784 3.95843 -0.394063 0
M  V30 1463 H 143.523 6.03698 -2.55399 0
M  V30 1464 H 143.043 5.93829 -0.844245 0
M  V30 1465 H 144.722 6.34203 -1.28047 0
M  V30 1466 N 144.854 0.36279 1.53368 0
M  V30 1467 C 146.131 -0.284021 1.93527 0
M  V30 1468 C 146.511 -1.66628 1.29608 0
M  V30 1469 O 145.859 -2.23942 0.45413 0
M  V30 1470 C 146.069 -0.337028 3.47369 0
M  V30 1471 C 147.417 -0.578708 4.20638 0
M  V30 1472 O 148.441 -0.418352 3.53735 0
M  V30 1473 O 147.3 -0.89074 5.39192 0
M  V30 1474 H 144.394 -0.169743 0.809393 0
M  V30 1475 H 146.94 0.41537 1.64538 0
M  V30 1476 H 145.712 0.632217 3.86159 0
M  V30 1477 H 145.335 -1.08243 3.82582 0
M  V30 1478 N 146.332 -1.57332 0.0918853 0
M  V30 1479 C 147.282 -2.10385 -0.87876 0
M  V30 1480 C 148.266 -1.01814 -1.24591 0
M  V30 1481 O 149.458 -1.28093 -1.22152 0
M  V30 1482 C 146.587 -2.68517 -2.13901 0
M  V30 1483 C 145.673 -3.84126 -1.79744 0
M  V30 1484 N 146.064 -4.92288 -1.1613 0
M  V30 1485 C 144.362 -3.93801 -2.09373 0
M  V30 1486 C 145.063 -5.7295 -1.00513 0
M  V30 1487 N 144.039 -5.21876 -1.5214 0
M  V30 1488 H 147.841 -2.91395 -0.38293 0
M  V30 1489 H 145.355 -1.62017 -0.111423 0
M  V30 1490 H 147.352 -3.04852 -2.84378 0
M  V30 1491 H 146.012 -1.88961 -2.64053 0
M  V30 1492 H 147.023 -5.1123 -0.828504 0
M  V30 1493 H 143.7 -3.25249 -2.61762 0
M  V30 1494 H 145.09 -6.69978 -0.507902 0
M  V30 1495 N 147.81 0.181792 -1.56548 0
M  V30 1496 C 149.057 0.900097 -1.81396 0
M  V30 1497 C 149.385 1.82695 -0.667281 0
M  V30 1498 O 148.64 1.92614 0.346146 0
M  V30 1499 C 148.939 1.73728 -3.12335 0
M  V30 1500 C 148.605 0.960255 -4.40556 0
M  V30 1501 C 147.267 0.745766 -4.75386 0
M  V30 1502 C 149.619 0.414477 -5.19549 0
M  V30 1503 C 146.947 -0.0257694 -5.86694 0
M  V30 1504 C 149.299 -0.343916 -6.31664 0
M  V30 1505 C 147.963 -0.569301 -6.65068 0
M  V30 1506 H 147.233 0.329369 -0.663775 0
M  V30 1507 H 149.88 0.165647 -1.90782 0
M  V30 1508 H 148.185 2.54081 -2.98245 0
M  V30 1509 H 149.882 2.29591 -3.28769 0
M  V30 1510 H 146.472 1.13746 -4.13231 0
M  V30 1511 H 150.656 0.567554 -4.93044 0
M  V30 1512 H 145.912 -0.210233 -6.11038 0
M  V30 1513 H 150.086 -0.774133 -6.92084 0
M  V30 1514 H 147.713 -1.16903 -7.51158 0
M  V30 1515 N 149.288 1.51039 0.449983 0
M  V30 1516 C 150.704 1.38934 0.785462 0
M  V30 1517 C 150.904 0.461817 1.96136 0
M  V30 1518 O 149.96 -0.0877389 2.52348 0
M  V30 1519 C 151.273 2.80724 1.0777 0
M  V30 1520 C 152.821 2.89787 1.1829 0
M  V30 1521 C 153.296 4.32457 1.50815 0
M  V30 1522 N 154.787 4.35505 1.57764 0
M  V30 1523 C 155.522 5.42914 1.84477 0
M  V30 1524 N 155.018 6.60502 2.09068 0
M  V30 1525 N 156.811 5.3038 1.86155 0
M  V30 1526 H 148.962 2.09904 -0.324647 0
M  V30 1527 H 151.225 0.944378 -0.0827957 0
M  V30 1528 H 150.931 3.50531 0.286498 0
M  V30 1529 H 150.805 3.19273 2.00859 0
M  V30 1530 H 153.192 2.20186 1.96474 0
M  V30 1531 H 153.273 2.54752 0.231314 0
M  V30 1532 H 152.917 5.02603 0.731622 0
M  V30 1533 H 152.847 4.64995 2.47158 0
M  V30 1534 H 155.338 3.50724 1.40715 0
M  V30 1535 H 155.651 7.38158 2.28785 0
M  V30 1536 H 153.996 6.63639 2.06416 0
M  V30 1537 H 157.187 4.37505 1.66454 0
M  V30 1538 H 157.36 6.1417 2.06637 0
M  V30 1539 N 150.766 -0.704594 1.40972 0
M  V30 1540 C 152.013 -1.46458 1.39844 0
M  V30 1541 C 152.341 -1.94499 0.00447594 0
M  V30 1542 O 151.596 -1.69275 -0.982057 0
M  V30 1543 C 151.895 -2.698 2.34399 0
M  V30 1544 C 151.561 -2.40464 3.81429 0
M  V30 1545 C 150.223 -2.32174 4.21484 0
M  V30 1546 C 152.575 -2.16086 4.74296 0
M  V30 1547 C 149.903 -1.97589 5.52427 0
M  V30 1548 C 152.255 -1.83011 6.05549 0
M  V30 1549 C 150.919 -1.7321 6.44635 0
M  V30 1550 H 150.189 -0.535927 0.511725 0
M  V30 1551 H 152.836 -0.806124 1.73706 0
M  V30 1552 H 151.141 -3.40536 1.93759 0
M  V30 1553 H 152.838 -3.27919 2.30804 0
M  V30 1554 H 149.428 -2.47808 3.49699 0
M  V30 1555 H 153.612 -2.2144 4.4416 0
M  V30 1556 H 148.868 -1.88547 5.81601 0
M  V30 1557 H 153.042 -1.63164 6.77016 0
M  V30 1558 H 150.669 -1.46179 7.46013 0
M  V30 1559 N 152.244 -1.26651 -0.937939 0
M  V30 1560 C 153.192 -1.08308 -2.05845 0
M  V30 1561 C 154.186 -0.0090757 -1.69398 0
M  V30 1562 O 155.392 -0.166007 -1.79233 0
M  V30 1563 H 151.767 -0.333416 -0.674046 0
M  V30 1564 H 153.738 -2.03261 -2.18467 0
M  V30 1565 C 152.487 -0.736229 -3.39816 0
M  V30 1566 H 151.81 -1.55453 -3.6834 0
M  V30 1567 H 153.25 -0.64769 -4.19024 0
M  V30 1568 C 151.709 0.558824 -3.32233 0
M  V30 1569 O 152.239 1.59621 -3.68624 0
M  V30 1570 N 150.445 0.550657 -2.85335 0
M  V30 1571 H 149.992 -0.293943 -2.55917 0
M  V30 1572 H 149.95 1.41726 -2.80644 0
M  V30 1573 N 153.722 1.14298 -1.08507 0
M  V30 1574 C 154.97 1.84993 -0.813763 0
M  V30 1575 C 155.291 1.83405 0.662393 0
M  V30 1576 O 154.561 1.28319 1.48024 0
M  V30 1577 H 153.141 0.684966 -0.298045 0
M  V30 1578 H 155.803 1.385 -1.37126 0
M  V30 1579 H 154.899 2.89788 -1.15884 0
M  V30 1580 N 155.201 0.870884 1.31352 0
M  V30 1581 C 156.164 0.332243 2.26779 0
M  V30 1582 C 157.164 -0.517302 1.52252 0
M  V30 1583 O 158.354 -0.326477 1.71113 0
M  V30 1584 C 155.486 -0.528066 3.36785 0
M  V30 1585 H 156.679 1.17469 2.75937 0
M  V30 1586 H 154.232 0.64655 1.423 0
M  V30 1587 H 154.967 -1.39167 2.92922 0
M  V30 1588 H 154.752 0.0802582 3.92018 0
M  V30 1589 H 156.242 -0.897179 4.07849 0
M  V30 1590 N 156.679 -1.44442 0.630414 0
M  V30 1591 C 157.927 -2.01653 0.134351 0
M  V30 1592 C 158.248 -1.49836 -1.24796 0
M  V30 1593 O 157.518 -0.701684 -1.82902 0
M  V30 1594 H 156.098 -0.74554 0.0466769 0
M  V30 1595 H 158.76 -1.76952 0.816955 0
M  V30 1596 H 157.856 -3.11935 0.101498 0
M  V30 1597 N 158.157 -0.370918 -1.53173 0
M  V30 1598 C 159.104 0.473035 -2.259 0
M  V30 1599 C 160.074 1.07311 -1.26781 0
M  V30 1600 O 161.259 1.1046 -1.55574 0
M  V30 1601 C 158.399 1.60405 -3.05556 0
M  V30 1602 C 157.512 1.02863 -4.19575 0
M  V30 1603 C 156.647 2.12918 -4.86661 0
M  V30 1604 C 155.686 1.52869 -5.92704 0
M  V30 1605 N 154.823 2.56779 -6.53459 0
M  V30 1606 H 159.663 -0.153649 -2.97604 0
M  V30 1607 H 157.2 -0.0875946 -1.46839 0
M  V30 1608 H 159.158 2.27034 -3.50016 0
M  V30 1609 H 157.788 2.20131 -2.36097 0
M  V30 1610 H 156.84 0.252465 -3.79561 0
M  V30 1611 H 158.152 0.549642 -4.95762 0
M  V30 1612 H 157.306 2.87356 -5.34333 0
M  V30 1613 H 156.045 2.6417 -4.09958 0
M  V30 1614 H 155.05 0.769479 -5.44389 0
M  V30 1615 H 156.275 1.02435 -6.7133 0
M  V30 1616 H 154.221 3.07235 -5.79606 0
M  V30 1617 H 154.138 2.13583 -7.25202 0
M  V30 1618 H 155.406 3.30903 -7.05779 0
M  V30 1619 N 159.635 1.57281 -0.100228 0
M  V30 1620 C 160.881 1.94826 0.563101 0
M  V30 1621 C 161.214 0.982475 1.67514 0
M  V30 1622 O 160.489 0.0164069 1.94493 0
M  V30 1623 C 160.772 3.42453 1.11346 0
M  V30 1624 C 160.625 4.498 0.00612081 0
M  V30 1625 C 161.944 3.91506 2.01024 0
M  V30 1626 H 159.063 0.708428 0.203221 0
M  V30 1627 H 161.705 1.8922 -0.171979 0
M  V30 1628 H 159.855 3.47361 1.7399 0
M  V30 1629 H 161.527 4.57 -0.628357 0
M  V30 1630 H 159.77 4.28756 -0.659581 0
M  V30 1631 H 160.441 5.50306 0.432109 0
M  V30 1632 H 162.917 3.88784 1.48278 0
M  V30 1633 H 161.793 4.95358 2.36457 0
M  V30 1634 H 162.054 3.31099 2.92961 0
M  V30 1635 N 161.113 -0.173488 1.56642 0
M  V30 1636 C 162.359 -0.891784 1.8214 0
M  V30 1637 C 162.692 -1.8199 0.677736 0
M  V30 1638 O 161.967 -1.91842 -0.320446 0
M  V30 1639 C 162.25 -1.68933 3.18015 0
M  V30 1640 C 162.103 -0.784487 4.42906 0
M  V30 1641 C 163.422 -2.65748 3.50808 0
M  V30 1642 H 160.541 -0.322761 0.662567 0
M  V30 1643 H 163.183 -0.158095 1.89341 0
M  V30 1644 H 161.333 -2.31482 3.12007 0
M  V30 1645 H 163.005 -0.172046 4.60979 0
M  V30 1646 H 161.248 -0.0924117 4.33702 0
M  V30 1647 H 161.919 -1.37799 5.34524 0
M  V30 1648 H 164.395 -2.13327 3.57255 0
M  V30 1649 H 163.271 -3.18619 4.4696 0
M  V30 1650 H 163.532 -3.45842 2.75401 0
M  V30 1651 N 162.591 -1.51276 -0.441967 0
M  V30 1652 C 163.816 -1.67799 -1.21895 0
M  V30 1653 C 164.241 -0.372864 -1.84367 0
M  V30 1654 O 163.599 0.666501 -1.68604 0
M  V30 1655 C 163.647 -2.79199 -2.28211 0
M  V30 1656 O 162.751 -2.42479 -3.33583 0
M  V30 1657 H 162.092 -0.559649 -0.357336 0
M  V30 1658 H 164.622 -1.97815 -0.522522 0
M  V30 1659 H 164.632 -3.03146 -2.73069 0
M  V30 1660 H 163.307 -3.73906 -1.82118 0
M  V30 1661 H 161.884 -2.29087 -2.94234 0
M  V30 1662 N 164.069 0.697108 -1.41344 0
M  V30 1663 C 165.002 1.82134 -1.37486 0
M  V30 1664 C 165.98 1.60784 -0.242351 0
M  V30 1665 O 167.164 1.83553 -0.429012 0
M  V30 1666 C 164.291 3.18788 -1.14421 0
M  V30 1667 C 163.337 3.58932 -2.3037 0
M  V30 1668 S 164.17 3.63916 -3.92843 0
M  V30 1669 C 165.326 5.03298 -3.72078 0
M  V30 1670 H 165.559 1.85129 -2.32625 0
M  V30 1671 H 163.092 0.865671 -1.2785 0
M  V30 1672 H 165.05 3.97677 -1.018 0
M  V30 1673 H 163.711 3.13404 -0.20905 0
M  V30 1674 H 162.904 4.58202 -2.09922 0
M  V30 1675 H 162.506 2.87347 -2.39391 0
M  V30 1676 H 164.798 5.90753 -3.31688 0
M  V30 1677 H 165.741 5.28788 -4.70945 0
M  V30 1678 H 166.149 4.74764 -3.05384 0
M  V30 1679 N 165.547 1.27147 0.931209 0
M  V30 1680 C 166.963 1.04475 1.20653 0
M  V30 1681 C 167.163 -0.223885 2.00252 0
M  V30 1682 O 166.219 -0.930332 2.34736 0
M  V30 1683 C 167.532 2.28209 1.95809 0
M  V30 1684 C 169.08 2.33211 2.08762 0
M  V30 1685 C 169.555 3.56665 2.87323 0
M  V30 1686 N 171.046 3.57201 2.94892 0
M  V30 1687 C 171.781 4.49395 3.56134 0
M  V30 1688 N 171.277 5.51889 4.18796 0
M  V30 1689 N 173.07 4.37026 3.53504 0
M  V30 1690 H 165.221 2.08612 0.399333 0
M  V30 1691 H 167.484 0.917312 0.239253 0
M  V30 1692 H 167.19 3.20538 1.44736 0
M  V30 1693 H 167.064 2.33247 2.96438 0
M  V30 1694 H 169.451 1.41391 2.59023 0
M  V30 1695 H 169.532 2.32178 1.07364 0
M  V30 1696 H 169.176 4.4882 2.37746 0
M  V30 1697 H 169.106 3.54948 3.88998 0
M  V30 1698 H 171.597 2.83074 2.50354 0
M  V30 1699 H 171.91 6.18409 4.63454 0
M  V30 1700 H 170.255 5.55735 4.17353 0
M  V30 1701 H 173.446 3.56166 3.03749 0
M  V30 1702 H 173.619 5.09067 4.00942 0
M  V30 1703 N 167.025 -1.13721 1.09112 0
M  V30 1704 C 167.988 -2.17222 0.731241 0
M  V30 1705 C 168.988 -1.59035 -0.237566 0
M  V30 1706 O 170.178 -1.74192 -0.0161704 0
M  V30 1707 C 167.31 -3.40804 0.0808443 0
M  V30 1708 H 168.503 -2.50573 1.64783 0
M  V30 1709 H 166.056 -1.28493 0.889897 0
M  V30 1710 H 166.791 -3.1304 -0.847127 0
M  V30 1711 H 166.576 -3.84306 0.777896 0
M  V30 1712 H 168.066 -4.1731 -0.155657 0
M  V30 1713 N 168.503 -0.877838 -1.30888 0
M  V30 1714 C 169.433 -0.35534 -2.3078 0
M  V30 1715 C 170.414 0.557994 -1.60687 0
M  V30 1716 O 171.599 0.473355 -1.88343 0
M  V30 1717 C 168.729 0.437221 -3.44537 0
M  V30 1718 C 167.683 -0.383715 -4.26276 0
M  V30 1719 C 167.009 0.535014 -5.32017 0
M  V30 1720 C 168.309 -1.62201 -4.96476 0
M  V30 1721 H 170.003 -1.19007 -2.74732 0
M  V30 1722 H 167.549 -0.573698 -1.32078 0
M  V30 1723 H 169.502 0.813334 -4.13477 0
M  V30 1724 H 168.226 1.30553 -2.99372 0
M  V30 1725 H 166.885 -0.741874 -3.59015 0
M  V30 1726 H 166.533 1.40083 -4.831 0
M  V30 1727 H 166.233 -0.0104211 -5.87599 0
M  V30 1728 H 167.757 0.907799 -6.03814 0
M  V30 1729 H 169.171 -1.31689 -5.5797 0
M  V30 1730 H 167.568 -2.10711 -5.61891 0
M  V30 1731 H 168.638 -2.37044 -4.23011 0
M  V30 1732 N 169.982 1.44106 -0.638065 0
M  V30 1733 C 171.229 2.01978 -0.14533 0
M  V30 1734 C 171.557 1.50234 1.23532 0
M  V30 1735 O 170.812 0.679548 1.83523 0
M  V30 1736 C 171.111 3.5729 -0.0887327 0
M  V30 1737 C 170.777 4.28317 -1.40909 0
M  V30 1738 C 169.439 4.47437 -1.77069 0
M  V30 1739 C 171.791 4.6867 -2.28031 0
M  V30 1740 C 169.119 5.04171 -3.00047 0
M  V30 1741 C 171.471 5.26766 -3.50286 0
M  V30 1742 C 170.135 5.44104 -3.86661 0
M  V30 1743 H 169.405 0.739089 -0.0531801 0
M  V30 1744 H 172.052 1.72781 -0.825761 0
M  V30 1745 H 170.357 3.8594 0.675095 0
M  V30 1746 H 172.054 3.99807 0.309145 0
M  V30 1747 H 168.644 4.1377 -1.1177 0
M  V30 1748 H 172.828 4.53604 -2.01388 0
M  V30 1749 H 168.084 5.15782 -3.28298 0
M  V30 1750 H 172.258 5.56983 -4.18023 0
M  V30 1751 H 169.885 5.87832 -4.82034 0
M  V30 1752 N 171.46 0.379036 1.52974 0
M  V30 1753 C 172.708 -0.206014 2.01047 0
M  V30 1754 C 173.029 -1.48175 1.26765 0
M  V30 1755 O 172.299 -1.92085 0.384743 0
M  V30 1756 H 170.879 -0.0791184 0.742798 0
M  V30 1757 H 173.541 0.508366 1.88153 0
M  V30 1758 H 172.637 -0.423501 3.09213 0
M  V30 1759 N 172.938 -1.57226 0.108567 0
M  V30 1760 C 173.848 -2.18292 -0.859401 0
M  V30 1761 C 174.864 -1.15612 -1.30038 0
M  V30 1762 O 176.04 -1.48039 -1.36552 0
M  V30 1763 C 173.105 -2.762 -2.09558 0
M  V30 1764 C 172.166 -3.93881 -1.70752 0
M  V30 1765 C 171.399 -4.49018 -2.88477 0
M  V30 1766 O 171.622 -4.03068 -4.036 0
M  V30 1767 O 170.556 -5.39852 -2.66164 0
M  V30 1768 H 174.382 -3.01441 -0.369769 0
M  V30 1769 H 171.967 -1.48945 -0.1165 0
M  V30 1770 H 173.849 -3.13156 -2.81978 0
M  V30 1771 H 172.524 -1.96089 -2.57548 0
M  V30 1772 H 171.431 -3.61713 -0.954714 0
M  V30 1773 H 172.764 -4.75396 -1.27513 0
M  V30 1774 N 174.416 0.165178 -1.56732 0
M  V30 1775 C 175.363 1.2044 -1.96883 0
M  V30 1776 C 176.333 1.43664 -0.833657 0
M  V30 1777 O 177.518 1.56302 -1.09427 0
M  V30 1778 C 174.658 2.53727 -2.33916 0
M  V30 1779 C 173.771 2.3783 -3.6064 0
M  V30 1780 C 172.906 3.64026 -3.86857 0
M  V30 1781 C 171.945 3.43088 -5.06909 0
M  V30 1782 N 171.082 4.61369 -5.29229 0
M  V30 1783 H 175.922 0.854996 -2.85471 0
M  V30 1784 H 173.459 0.41076 -1.41249 0
M  V30 1785 H 175.417 3.31419 -2.53411 0
M  V30 1786 H 174.047 2.8665 -1.48431 0
M  V30 1787 H 173.099 1.51282 -3.49024 0
M  V30 1788 H 174.411 2.18308 -4.4849 0
M  V30 1789 H 173.565 4.50152 -4.06753 0
M  V30 1790 H 172.304 3.86533 -2.97394 0
M  V30 1791 H 171.309 2.55349 -4.86906 0
M  V30 1792 H 172.534 3.21997 -5.97909 0
M  V30 1793 H 170.48 4.84084 -4.42718 0
M  V30 1794 H 170.397 4.44783 -6.11313 0
M  V30 1795 H 171.665 5.48761 -5.53608 0
M  V30 1796 N 175.894 1.51508 0.433938 0
M  V30 1797 C 176.842 1.73646 1.54757 0
M  V30 1798 C 177.836 0.602854 1.5831 0
M  V30 1799 O 179.042 0.784318 1.62014 0
M  V30 1800 H 175.417 0.548718 0.51421 0
M  V30 1801 H 177.388 2.66991 1.33261 0
M  V30 1802 C 176.137 1.88172 2.92381 0
M  V30 1803 H 175.46 2.74808 2.90381 0
M  V30 1804 H 176.9 2.07672 3.6966 0
M  V30 1805 C 175.359 0.64239 3.30719 0
M  V30 1806 O 175.889 -0.201362 4.01195 0
M  V30 1807 N 174.095 0.485489 2.86516 0
M  V30 1808 H 173.642 1.17318 2.29334 0
M  V30 1809 H 173.6 -0.342482 3.12529 0
M  V30 1810 N 177.372 -0.689602 1.41712 0
M  V30 1811 C 178.621 -1.44534 1.40686 0
M  V30 1812 C 178.934 -1.95588 0.0213352 0
M  V30 1813 O 180.14 -2.71271 -0.111534 0
M  V30 1814 C 178.596 -2.61387 2.47396 0
M  V30 1815 C 178.204 -2.17094 3.91885 0
M  V30 1816 C 179.948 -3.38986 2.55517 0
M  V30 1817 C 177.855 -3.3094 4.90135 0
M  V30 1818 H 176.785 -0.542925 0.52321 0
M  V30 1819 H 179.436 -0.748054 1.6756 0
M  V30 1820 H 177.818 -3.33412 2.13664 0
M  V30 1821 H 178.992 -1.52318 4.34897 0
M  V30 1822 H 177.307 -1.52473 3.8748 0
M  V30 1823 H 179.904 -4.23747 3.26102 0
M  V30 1824 H 180.247 -3.84578 1.59391 0
M  V30 1825 H 180.78 -2.74021 2.8837 0
M  V30 1826 H 177.519 -2.90355 5.87685 0
M  V30 1827 H 177.039 -3.94546 4.51767 0
M  V30 1828 H 178.718 -3.9663 5.11169 0
M  V30 1829 N 178.85 -1.27639 -0.924453 0
M  V30 1830 C 179.8 -1.07295 -2.01176 0
M  V30 1831 C 180.784 5.77352e-05 -1.609 0
M  V30 1832 O 181.976 -0.218855 -1.75642 0
M  V30 1833 C 179.105 -0.725592 -3.35544 0
M  V30 1834 C 178.191 -1.83691 -3.82254 0
M  V30 1835 N 178.582 -3.07697 -4.01443 0
M  V30 1836 C 176.88 -1.72433 -4.11319 0
M  V30 1837 C 177.581 -3.80037 -4.40394 0
M  V30 1838 N 176.557 -3.0782 -4.48049 0
M  V30 1839 H 180.359 -2.01399 -2.14046 0
M  V30 1840 H 177.873 -1.18401 -1.11153 0
M  V30 1841 H 179.87 -0.560959 -4.13109 0
M  V30 1842 H 178.53 0.207782 -3.24034 0
M  V30 1843 H 179.541 -3.43424 -3.8766 0
M  V30 1844 H 176.218 -0.862005 -4.08504 0
M  V30 1845 H 177.608 -4.86632 -4.63291 0
M  V30 1846 N 180.328 1.1314 -1.09713 0
M  V30 1847 C 181.291 2.16831 -0.742751 0
M  V30 1848 C 182.291 1.59159 0.229129 0
M  V30 1849 O 183.481 1.74199 0.00693237 0
M  V30 1850 C 180.613 3.40756 -0.0989168 0
M  V30 1851 H 181.806 2.49695 -1.66109 0
M  V30 1852 H 179.359 1.2802 -0.896699 0
M  V30 1853 H 180.094 3.13485 0.830514 0
M  V30 1854 H 179.879 3.83888 -0.798265 0
M  V30 1855 H 181.369 4.17386 0.133524 0
M  V30 1856 N 181.806 0.884767 1.30421 0
M  V30 1857 C 183.054 0.502112 1.95763 0
M  V30 1858 C 183.375 -0.951815 1.70192 0
M  V30 1859 O 182.645 -1.6692 1.0254 0
M  V30 1860 H 181.225 0.182694 0.724315 0
M  V30 1861 H 183.887 1.1278 1.58955 0
M  V30 1862 H 182.983 0.672188 3.04775 0
M  V30 1863 N 183.284 -1.43765 0.645699 0
M  V30 1864 C 184.247 -2.29163 -0.0409488 0
M  V30 1865 C 185.247 -1.41813 -0.757996 0
M  V30 1866 O 186.437 -1.63527 -0.600382 0
M  V30 1867 C 183.569 -3.23716 -1.06869 0
M  V30 1868 H 184.762 -2.91366 0.710345 0
M  V30 1869 H 182.315 -1.5092 0.406547 0
M  V30 1870 H 183.05 -2.66393 -1.84947 0
M  V30 1871 H 182.835 -3.88105 -0.558277 0
M  V30 1872 H 184.325 -3.87831 -1.54845 0
M  V30 1873 O 184.801 -0.529329 -1.52579 0
M  V30 1874 H 185.492 -0.019233 -1.9369 0
M  V30 END ATOM
M  V30 BEGIN BOND
M  V30 END BOND
M  V30 END CTAB
M  END
$$$$
