drugbank_target|Q06124 Tyrosine-protein phosphatase non-receptor type 11 (DB02779)
 OpenBabel12092119473D

  0  0  0     0  0            999 V3000
M  V30 BEGIN CTAB
M  V30 COUNTS 9543 9643 0 0 0
M  V30 BEGIN ATOM
M  V30 1 H -0.908 1.98254 -0.117106 0
M  V30 2 N 0 1.576 0 0
M  V30 3 C 0.933 2.03868 1.02534 0
M  V30 4 C 1.911 0.928543 1.3348 0
M  V30 5 O 3.095 1.19667 1.45644 0
M  V30 6 C 0.222 2.43627 2.35294 0
M  V30 7 C -0.732 3.65373 2.2001 0
M  V30 8 S 0.101 5.13292 1.52614 0
M  V30 9 C 1.257 5.56322 2.86805 0
M  V30 10 H 1.49 2.90518 0.631377 0
M  V30 11 H -0.977 1.52953 0.210867 0
M  V30 12 H 0.981 2.67203 3.11629 0
M  V30 13 H -0.358 1.57376 2.7183 0
M  V30 14 H -1.165 3.90944 3.18086 0
M  V30 15 H -1.563 3.418 1.51819 0
M  V30 16 H 0.729 5.58782 3.83104 0
M  V30 17 H 1.672 6.56266 2.65933 0
M  V30 18 H 2.08 4.83886 2.90714 0
M  V30 19 N 1.4781 -0.272755 1.55222 0
M  V30 20 C 2.7061 -1.02255 1.79865 0
M  V30 21 C 3.1211 -1.79924 0.572088 0
M  V30 22 O 2.4781 -1.76638 -0.458842 0
M  V30 23 C 2.5291 -1.98094 3.02392 0
M  V30 24 O 2.2501 -1.23572 4.20311 0
M  V30 25 C 3.7511 -2.84884 3.39641 0
M  V30 26 H 0.9711 -0.302057 0.599168 0
M  V30 27 H 3.5151 -0.303465 2.02236 0
M  V30 28 H 1.6701 -2.65465 2.82147 0
M  V30 29 H 2.0841 -1.88172 4.89583 0
M  V30 30 H 3.5581 -3.47927 4.28545 0
M  V30 31 H 4.0351 -3.54665 2.59055 0
M  V30 32 H 4.6411 -2.23003 3.62146 0
M  V30 33 N 2.9562 -1.48159 -0.537278 0
M  V30 34 C 4.1812 -1.59707 -1.32319 0
M  V30 35 C 4.6062 -0.254859 -1.86365 0
M  V30 36 O 3.9642 0.772378 -1.64024 0
M  V30 37 C 4.0122 -2.6412 -2.45505 0
M  V30 38 O 3.1162 -2.20774 -3.48328 0
M  V30 39 H 2.4572 -0.535791 -0.392204 0
M  V30 40 H 4.9872 -1.94092 -0.647268 0
M  V30 41 H 4.9972 -2.85166 -2.91795 0
M  V30 42 H 3.6722 -3.61567 -2.05528 0
M  V30 43 H 2.2492 -2.09911 -3.08207 0
M  V30 44 N 4.4343 0.785586 -1.36625 0
M  V30 45 C 5.8503 1.08419 -1.17122 0
M  V30 46 C 6.0503 2.015 0.00208491 0
M  V30 47 O 5.1063 2.43551 0.666278 0
M  V30 48 C 6.4193 1.69498 -2.48377 0
M  V30 49 C 7.9673 1.81821 -2.54775 0
M  V30 50 C 8.4423 2.46315 -3.86126 0
M  V30 51 N 9.9333 2.53779 -3.87492 0
M  V30 52 C 10.6683 3.045 -4.85868 0
M  V30 53 N 10.1643 3.55499 -5.94637 0
M  V30 54 N 11.9573 3.03247 -4.73284 0
M  V30 55 H 4.1083 0.167264 -2.1174 0
M  V30 56 H 6.3713 0.13682 -0.938075 0
M  V30 57 H 6.0773 1.08571 -3.34522 0
M  V30 58 H 5.9513 2.6896 -2.64462 0
M  V30 59 H 8.3383 2.41884 -1.69045 0
M  V30 60 H 8.4193 0.811532 -2.42586 0
M  V30 61 H 8.0633 1.86895 -4.72263 0
M  V30 62 H 7.9933 3.47561 -3.95612 0
M  V30 63 H 10.4843 2.17672 -3.08913 0
M  V30 64 H 10.7973 3.92562 -6.65669 0
M  V30 65 H 9.1423 3.5364 -5.98301 0
M  V30 66 H 12.3333 2.62696 -3.87438 0
M  V30 67 H 12.5063 3.42467 -5.50109 0
M  V30 68 N 5.9124 1.20967 1.01018 0
M  V30 69 C 7.3284 0.965905 1.27053 0
M  V30 70 C 7.5284 -0.350785 1.98423 0
M  V30 71 O 6.5844 -1.07773 2.28344 0
M  V30 72 C 7.8974 2.15294 2.09926 0
M  V30 73 C 9.4454 2.19463 2.23171 0
M  V30 74 C 9.9204 3.3767 3.09424 0
M  V30 75 N 11.4114 3.37724 3.17012 0
M  V30 76 C 12.1464 4.25837 3.83993 0
M  V30 77 N 11.6424 5.24138 4.53047 0
M  V30 78 N 13.4354 4.1366 3.80581 0
M  V30 79 H 5.5864 2.0565 0.531194 0
M  V30 80 H 7.8494 0.90024 0.297106 0
M  V30 81 H 7.5554 3.10684 1.64828 0
M  V30 82 H 7.4294 2.13923 3.10672 0
M  V30 83 H 9.8164 1.24632 2.6749 0
M  V30 84 H 9.8974 2.2488 1.21912 0
M  V30 85 H 9.5414 4.32791 2.65808 0
M  V30 86 H 9.4714 3.29491 4.10784 0
M  V30 87 H 11.9624 2.6658 2.6785 0
M  V30 88 H 12.2754 5.87684 5.01844 0
M  V30 89 H 10.6204 5.28068 4.5185 0
M  V30 90 H 13.8114 3.36127 3.25785 0
M  V30 91 H 13.9844 4.82538 4.32505 0
M  V30 92 N 7.3905 -1.2043 1.01659 0
M  V30 93 C 8.6365 -1.90356 0.716674 0
M  V30 94 C 8.9915 -1.77367 -0.745557 0
M  V30 95 O 8.2845 -1.1471 -1.53467 0
M  V30 96 C 8.4785 -3.40464 1.08714 0
M  V30 97 C 8.3075 -3.6806 2.58384 0
M  V30 98 C 7.0775 -3.86775 3.25167 0
M  V30 99 C 9.2755 -3.70623 3.56572 0
M  V30 100 N 7.2575 -4.01889 4.64067 0
M  V30 101 C 8.6285 -3.91161 4.81034 0
M  V30 102 C 10.6835 -3.53586 3.50544 0
M  V30 103 C 9.3865 -3.96428 6.00198 0
M  V30 104 C 11.4125 -3.60125 4.6911 0
M  V30 105 C 10.7745 -3.81135 5.92381 0
M  V30 106 H 6.8735 -0.716226 0.313918 0
M  V30 107 H 9.4575 -1.44815 1.30141 0
M  V30 108 H 7.6285 -3.84757 0.530745 0
M  V30 109 H 9.3605 -3.97863 0.740763 0
M  V30 110 H 6.1155 -3.85156 2.75594 0
M  V30 111 H 6.5395 -4.13323 5.36184 0
M  V30 112 H 11.1815 -3.36308 2.56235 0
M  V30 113 H 8.8995 -4.12502 6.94887 0
M  V30 114 H 12.4855 -3.4825 4.66062 0
M  V30 115 H 11.3655 -3.86054 6.82592 0
M  V30 116 N 8.8686 -0.792821 -1.36206 0
M  V30 117 C 10.1156 -0.366786 -1.99151 0
M  V30 118 C 10.4436 1.06243 -1.62919 0
M  V30 119 O 9.6986 1.74927 -0.877442 0
M  V30 120 C 9.9976 -0.481501 -3.54142 0
M  V30 121 C 9.6636 -1.87202 -4.10203 0
M  V30 122 C 8.3256 -2.25248 -4.25226 0
M  V30 123 C 10.6776 -2.78237 -4.40719 0
M  V30 124 C 8.0056 -3.53723 -4.68078 0
M  V30 125 C 10.3576 -4.06144 -4.85005 0
M  V30 126 C 9.0216 -4.44207 -4.98234 0
M  V30 127 H 8.2916 -0.134217 -0.728743 0
M  V30 128 H 10.9386 -1.01094 -1.62641 0
M  V30 129 H 9.2436 0.246146 -3.91026 0
M  V30 130 H 10.9406 -0.132844 -4.0078 0
M  V30 131 H 7.5306 -1.56639 -3.98951 0
M  V30 132 H 11.7146 -2.50097 -4.28679 0
M  V30 133 H 6.9706 -3.8308 -4.76508 0
M  V30 134 H 11.1446 -4.76796 -5.07581 0
M  V30 135 H 8.7716 -5.43814 -5.31197 0
M  V30 136 N 10.3467 1.47872 -0.545128 0
M  V30 137 C 11.2967 2.26842 0.229456 0
M  V30 138 C 12.2807 1.33626 0.896267 0
M  V30 139 O 13.4727 1.58063 0.79657 0
M  V30 140 C 10.6017 3.19089 1.26638 0
M  V30 141 C 9.6877 4.19783 0.603598 0
M  V30 142 N 10.0787 5.0479 -0.319405 0
M  V30 143 C 8.3767 4.3765 0.858989 0
M  V30 144 C 9.0777 5.77433 -0.703241 0
M  V30 145 N 8.0537 5.43566 -0.0608309 0
M  V30 146 H 11.8557 2.89947 -0.480391 0
M  V30 147 H 9.3697 1.58263 -0.364209 0
M  V30 148 H 11.3667 3.74337 1.83515 0
M  V30 149 H 10.0267 2.5754 1.97745 0
M  V30 150 H 11.0377 5.13244 -0.692889 0
M  V30 151 H 7.7147 3.87281 1.55948 0
M  V30 152 H 9.1047 6.55824 -1.46098 0
M  V30 153 N 11.8248 0.280983 1.55075 0
M  V30 154 C 13.2358 -0.215629 1.85451 0
M  V30 155 C 13.5868 -1.54991 1.203 0
M  V30 156 O 12.7118 -2.10699 0.493435 0
M  V30 157 C 13.3068 -0.398026 3.36454 0
M  V30 158 C 11.8658 -0.838866 3.66933 0
M  V30 159 C 11.0128 0.064458 2.77225 0
M  V30 160 H 13.9638 0.502601 1.50531 0
M  V30 161 H 13.9848 -1.23569 3.59876 0
M  V30 162 H 13.4968 0.573241 3.83843 0
M  V30 163 H 11.5978 -1.8214 3.25048 0
M  V30 164 H 11.7108 -0.672123 4.74362 0
M  V30 165 H 10.0748 -0.452863 2.50642 0
M  V30 166 H 10.8578 1.03172 3.2743 0
M  V30 167 N 13.3029 -1.57598 0.00835791 0
M  V30 168 C 14.2509 -2.10078 -0.998508 0
M  V30 169 C 15.2449 -1.02262 -1.35051 0
M  V30 170 O 16.4509 -1.20719 -1.33518 0
M  V30 171 H 12.8259 -0.670903 -0.339696 0
M  V30 172 H 14.7969 -2.93648 -0.530398 0
M  V30 173 C 13.5459 -2.62615 -2.27879 0
M  V30 174 H 12.8689 -3.45213 -2.01662 0
M  V30 175 H 14.3089 -3.03004 -2.96588 0
M  V30 176 C 12.7679 -1.54407 -2.99433 0
M  V30 177 O 13.2979 -0.931812 -3.90743 0
M  V30 178 N 11.5039 -1.2695 -2.61404 0
M  V30 179 H 11.0509 -1.76924 -1.87232 0
M  V30 180 H 11.0089 -0.547704 -3.09593 0
M  V30 181 N 14.781 0.264519 -1.55364 0
M  V30 182 C 16.03 0.992812 -1.75574 0
M  V30 183 C 16.343 1.87142 -0.568979 0
M  V30 184 O 17.549 2.63513 -0.653682 0
M  V30 185 C 16.005 1.81519 -3.10771 0
M  V30 186 C 15.613 0.984839 -4.37041 0
M  V30 187 C 17.357 2.53727 -3.40327 0
M  V30 188 C 15.264 1.80209 -5.63275 0
M  V30 189 H 14.194 0.374412 -0.65447 0
M  V30 190 H 16.845 0.248138 -1.81815 0
M  V30 191 H 15.227 2.60115 -2.98591 0
M  V30 192 H 16.401 0.242455 -4.60162 0
M  V30 193 H 14.716 0.37691 -4.14691 0
M  V30 194 H 17.313 3.15292 -4.3185 0
M  V30 195 H 17.656 3.24447 -2.60845 0
M  V30 196 H 18.189 1.82156 -3.53644 0
M  V30 197 H 14.928 1.13896 -6.45529 0
M  V30 198 H 14.448 2.52022 -5.44284 0
M  V30 199 H 16.127 2.37364 -6.01887 0
M  V30 200 N 16.2591 1.48442 0.529413 0
M  V30 201 C 17.4871 1.60151 1.30994 0
M  V30 202 C 17.9021 0.261985 1.86973 0
M  V30 203 O 17.2591 -0.748805 1.66431 0
M  V30 204 C 17.3101 2.64854 2.46038 0
M  V30 205 O 17.0311 3.93608 1.92365 0
M  V30 206 C 18.5321 2.87007 3.37849 0
M  V30 207 H 15.7521 0.539971 0.398338 0
M  V30 208 H 18.2961 1.94273 0.638597 0
M  V30 209 H 16.4511 2.33589 3.09055 0
M  V30 210 H 16.8651 4.51055 2.67675 0
M  V30 211 H 18.3391 3.64068 4.14919 0
M  V30 212 H 18.8161 1.95852 3.93114 0
M  V30 213 H 19.4221 3.19579 2.80623 0
M  V30 214 N 17.7372 -0.778329 1.37039 0
M  V30 215 C 18.9852 -1.53361 1.31623 0
M  V30 216 C 19.3062 -1.94739 -0.100831 0
M  V30 217 O 18.5762 -1.65797 -1.04347 0
M  V30 218 H 17.1562 -0.568794 0.484234 0
M  V30 219 H 19.8182 -0.926742 1.71457 0
M  V30 220 H 18.9142 -2.43606 1.95096 0
M  V30 221 N 19.2153 -1.21501 -1.00376 0
M  V30 222 C 20.4613 -1.03452 -1.74429 0
M  V30 223 C 20.7943 0.430764 -1.89362 0
M  V30 224 O 20.0693 1.31962 -1.42886 0
M  V30 225 C 20.3523 -1.73375 -3.15615 0
M  V30 226 C 20.2053 -3.27431 -3.08397 0
M  V30 227 C 21.5243 -1.47732 -4.14564 0
M  V30 228 H 18.6433 -0.377226 -0.633143 0
M  V30 229 H 21.2853 -1.49693 -1.17013 0
M  V30 230 H 19.4353 -1.34064 -3.64636 0
M  V30 231 H 21.1073 -3.76119 -2.67081 0
M  V30 232 H 19.3503 -3.5767 -2.45468 0
M  V30 233 H 20.0213 -3.71524 -4.08258 0
M  V30 234 H 22.4973 -1.8186 -3.74254 0
M  V30 235 H 21.3733 -1.99169 -5.11491 0
M  V30 236 H 21.6343 -0.407589 -4.40217 0
M  V30 237 N 20.6934 1.19889 -1.02296 0
M  V30 238 C 21.6034 2.26571 -0.608508 0
M  V30 239 C 22.6194 1.70299 0.356964 0
M  V30 240 O 23.7954 2.00235 0.216326 0
M  V30 241 C 20.8604 3.46677 0.0402814 0
M  V30 242 C 19.9214 4.18153 -0.97194 0
M  V30 243 C 19.1544 5.32525 -0.354016 0
M  V30 244 O 19.3774 5.64112 0.844604 0
M  V30 245 O 18.3114 5.92242 -1.07391 0
M  V30 246 H 22.1374 2.64251 -1.49684 0
M  V30 247 H 19.7224 1.26629 -0.792809 0
M  V30 248 H 21.6044 4.19475 0.402324 0
M  V30 249 H 20.2794 3.10858 0.902707 0
M  V30 250 H 19.1864 3.47499 -1.38546 0
M  V30 251 H 20.5194 4.57927 -1.80454 0
M  V30 252 N 22.1715 0.800033 1.35784 0
M  V30 253 C 23.1345 0.211565 2.28221 0
M  V30 254 C 24.1345 -0.59728 1.49296 0
M  V30 255 O 25.3245 -0.416721 1.69142 0
M  V30 256 C 22.4565 -0.705846 3.33513 0
M  V30 257 H 23.6495 1.02677 2.81776 0
M  V30 258 H 21.2025 0.570211 1.45528 0
M  V30 259 H 21.9375 -1.54498 2.85133 0
M  V30 260 H 21.7225 -0.127655 3.91892 0
M  V30 261 H 23.2125 -1.11211 4.02519 0
M  V30 262 N 23.6496 -1.47581 0.552962 0
M  V30 263 C 24.5596 -2.33743 -0.200353 0
M  V30 264 C 25.5756 -1.47928 -0.916151 0
M  V30 265 O 26.7516 -1.80865 -0.885993 0
M  V30 266 C 23.8166 -3.24536 -1.21973 0
M  V30 267 C 22.8776 -4.26238 -0.511819 0
M  V30 268 C 22.1106 -5.12693 -1.48263 0
M  V30 269 O 22.3336 -5.01525 -2.71714 0
M  V30 270 O 21.2676 -5.93375 -1.00945 0
M  V30 271 H 25.0936 -2.9945 0.506304 0
M  V30 272 H 22.6786 -1.46071 0.313622 0
M  V30 273 H 24.5606 -3.80631 -1.80827 0
M  V30 274 H 23.2356 -2.61462 -1.90839 0
M  V30 275 H 22.1426 -3.73914 0.117799 0
M  V30 276 H 23.4756 -4.92014 0.135308 0
M  V30 277 N 25.1277 -0.289203 -1.54924 0
M  V30 278 C 26.0757 0.607966 -2.24514 0
M  V30 279 C 27.0697 1.14655 -1.24702 0
M  V30 280 O 28.2757 1.09856 -1.4259 0
M  V30 281 H 24.6507 0.21464 -0.720718 0
M  V30 282 H 26.6217 -0.00164182 -2.984 0
M  V30 283 C 25.3707 1.77406 -2.99036 0
M  V30 284 H 24.6937 1.36884 -3.75637 0
M  V30 285 H 26.1337 2.37814 -3.51028 0
M  V30 286 C 24.5927 2.67107 -2.05318 0
M  V30 287 O 25.1227 3.6787 -1.61353 0
M  V30 288 N 23.3287 2.34582 -1.71521 0
M  V30 289 H 22.8757 1.52688 -2.07471 0
M  V30 290 H 22.8337 2.94867 -1.0909 0
M  V30 291 N 26.6058 1.57591 -0.0167156 0
M  V30 292 C 27.5358 2.12496 0.967858 0
M  V30 293 C 28.5168 1.03807 1.34752 0
M  V30 294 O 29.7018 1.31577 1.42833 0
M  V30 295 C 26.8318 2.64194 2.25431 0
M  V30 296 C 25.7858 3.77559 2.01576 0
M  V30 297 C 25.1118 4.15636 3.36379 0
M  V30 298 C 26.4118 5.04151 1.36489 0
M  V30 299 H 28.1058 2.95013 0.510643 0
M  V30 300 H 25.6518 1.41915 0.244181 0
M  V30 301 H 27.6048 3.01236 2.94678 0
M  V30 302 H 26.3288 1.78821 2.73296 0
M  V30 303 H 24.9878 3.40937 1.34751 0
M  V30 304 H 24.6358 3.27263 3.81979 0
M  V30 305 H 24.3358 4.92022 3.21229 0
M  V30 306 H 25.8598 4.5525 4.06915 0
M  V30 307 H 27.2738 5.38857 1.95718 0
M  V30 308 H 25.6708 5.85453 1.31776 0
M  V30 309 H 26.7408 4.83733 0.336219 0
M  V30 310 N 28.0839 -0.256276 1.55502 0
M  V30 311 C 29.0139 -1.32102 1.92539 0
M  V30 312 C 29.9949 -1.50684 0.789194 0
M  V30 313 O 31.1799 -1.63449 1.04872 0
M  V30 314 C 28.3099 -2.67752 2.21192 0
M  V30 315 C 27.2639 -2.63878 3.36975 0
M  V30 316 C 26.5899 -4.03236 3.51147 0
M  V30 317 C 27.8899 -2.21682 4.72921 0
M  V30 318 H 29.5839 -1.01351 2.81724 0
M  V30 319 H 27.1299 -0.486105 1.35547 0
M  V30 320 H 29.0829 -3.42365 2.45691 0
M  V30 321 H 27.8069 -3.0012 1.28824 0
M  V30 322 H 26.4659 -1.91722 3.12471 0
M  V30 323 H 26.1139 -4.32854 2.56216 0
M  V30 324 H 25.8139 -4.01535 4.29003 0
M  V30 325 H 27.3379 -4.79563 3.77957 0
M  V30 326 H 28.7519 -2.86023 4.96854 0
M  V30 327 H 27.1489 -2.3111 5.53812 0
M  V30 328 H 28.2189 -1.16833 4.70615 0
M  V30 329 N 29.562 -1.4872 -0.521534 0
M  V30 330 C 30.492 -1.66771 -1.63431 0
M  V30 331 C 31.473 -0.516499 -1.62069 0
M  V30 332 O 32.658 -0.750013 -1.79132 0
M  V30 333 C 29.788 -1.71515 -3.01993 0
M  V30 334 C 28.742 -2.86222 -3.18216 0
M  V30 335 C 28.068 -2.76061 -4.57924 0
M  V30 336 C 29.368 -4.27419 -3.00184 0
M  V30 337 H 31.062 -2.59932 -1.48579 0
M  V30 338 H 28.608 -1.25089 -0.713358 0
M  V30 339 H 30.561 -1.82731 -3.7972 0
M  V30 340 H 29.285 -0.749393 -3.17886 0
M  V30 341 H 27.944 -2.74575 -2.42908 0
M  V30 342 H 27.592 -1.77437 -4.70665 0
M  V30 343 H 27.292 -3.53037 -4.69722 0
M  V30 344 H 28.816 -2.89256 -5.37739 0
M  V30 345 H 30.23 -4.39855 -3.67697 0
M  V30 346 H 28.627 -5.05458 -3.2347 0
M  V30 347 H 29.697 -4.43293 -1.96518 0
M  V30 348 N 31.0401 0.771051 -1.3745 0
M  V30 349 C 32.2681 1.56015 -1.35893 0
M  V30 350 C 32.6831 1.88718 0.0555523 0
M  V30 351 O 32.0401 1.51502 1.01752 0
M  V30 352 C 32.0911 2.87001 -2.19801 0
M  V30 353 O 31.8121 2.557 -3.55738 0
M  V30 354 C 33.3131 3.81228 -2.26231 0
M  V30 355 H 30.5331 0.483317 -0.465453 0
M  V30 356 H 33.0771 0.955611 -1.80799 0
M  V30 357 H 31.2321 3.43877 -1.78402 0
M  V30 358 H 31.6461 3.39584 -3.99729 0
M  V30 359 H 33.1201 4.70139 -2.89263 0
M  V30 360 H 33.5971 4.20409 -1.27093 0
M  V30 361 H 34.2031 3.30281 -2.67945 0
M  V30 362 N 32.5182 1.22032 0.997298 0
M  V30 363 C 33.9342 0.979326 1.26021 0
M  V30 364 C 34.1342 -0.32972 1.98784 0
M  V30 365 O 33.1902 -1.05345 2.29475 0
M  V30 366 C 34.5032 2.17509 2.07631 0
M  V30 367 C 36.0512 2.21817 2.2083 0
M  V30 368 C 36.5262 3.40933 3.05825 0
M  V30 369 N 38.0172 3.41067 3.13412 0
M  V30 370 C 38.7522 4.29885 3.79455 0
M  V30 371 N 38.2482 5.28914 4.47462 0
M  V30 372 N 40.0412 4.17673 3.76173 0
M  V30 373 H 32.1922 2.06202 0.509352 0
M  V30 374 H 34.4552 0.90334 0.287541 0
M  V30 375 H 34.1612 3.12415 1.61524 0
M  V30 376 H 34.0352 2.17206 3.08385 0
M  V30 377 H 36.4222 1.27462 2.66153 0
M  V30 378 H 36.5032 2.2616 1.1952 0
M  V30 379 H 36.1472 4.35586 2.61203 0
M  V30 380 H 36.0772 3.33829 4.07266 0
M  V30 381 H 38.5682 2.69406 2.65007 0
M  V30 382 H 38.8812 5.92973 4.95583 0
M  V30 383 H 37.2262 5.32831 4.46224 0
M  V30 384 H 40.4172 3.39564 3.22202 0
M  V30 385 H 40.5902 4.87098 4.27363 0
M  V30 386 N 33.9963 -1.19345 1.0293 0
M  V30 387 C 35.2443 -1.88665 0.724574 0
M  V30 388 C 35.5653 -1.80036 -0.749144 0
M  V30 389 O 34.8353 -1.2111 -1.53978 0
M  V30 390 H 33.4153 -0.698406 0.265025 0
M  V30 391 H 36.0773 -1.44885 1.30362 0
M  V30 392 H 35.1733 -2.94987 1.01926 0
M  V30 393 N 35.4744 -0.807222 -1.35358 0
M  V30 394 C 36.7204 -0.388463 -1.99045 0
M  V30 395 C 37.0534 1.04184 -1.63888 0
M  V30 396 O 36.3284 1.72292 -0.902535 0
M  V30 397 C 36.6114 -0.572783 -3.55515 0
M  V30 398 C 36.4644 -2.04807 -4.00468 0
M  V30 399 C 37.7834 0.00114064 -4.401 0
M  V30 400 H 34.9024 -0.142619 -0.723069 0
M  V30 401 H 37.5444 -1.01687 -1.60498 0
M  V30 402 H 35.6944 -0.0378425 -3.88482 0
M  V30 403 H 37.3664 -2.64544 -3.77908 0
M  V30 404 H 35.6094 -2.54427 -3.51353 0
M  V30 405 H 36.2804 -2.12792 -5.09337 0
M  V30 406 H 38.7564 -0.455716 -4.13597 0
M  V30 407 H 37.6324 -0.157737 -5.48673 0
M  V30 408 H 37.8934 1.09488 -4.28328 0
M  V30 409 N 36.9525 1.47285 -0.560781 0
M  V30 410 C 38.2295 1.9558 0.0277798 0
M  V30 411 C 38.6095 1.5034 1.48192 0
M  V30 412 O 37.9575 0.743882 2.16052 0
M  V30 413 C 38.1675 3.48789 -0.121418 0
M  V30 414 C 39.5155 4.24594 0.0220912 0
M  V30 415 O 40.5395 3.56166 -0.0491439 0
M  V30 416 O 39.3985 5.46217 0.175958 0
M  V30 417 H 36.4925 0.824663 0.0621342 0
M  V30 418 H 39.0385 1.5767 -0.627556 0
M  V30 419 H 37.8105 3.74533 -1.13316 0
M  V30 420 H 37.4335 3.93473 0.571366 0
M  V30 421 N 38.4306 0.297415 1.54768 0
M  V30 422 C 39.6786 -0.312295 1.99673 0
M  V30 423 C 39.9996 -1.54686 1.18732 0
M  V30 424 O 39.2696 -1.93854 0.282382 0
M  V30 425 H 37.8496 -0.118381 0.73756 0
M  V30 426 H 40.5116 0.407915 1.90583 0
M  V30 427 H 39.6076 -0.586813 3.06534 0
M  V30 428 N 39.9087 -1.5758 0.0250728 0
M  V30 429 C 41.1337 -1.96337 -0.668317 0
M  V30 430 C 41.5587 -0.901314 -1.651 0
M  V30 431 O 40.9167 0.138187 -1.80773 0
M  V30 432 C 40.9647 -3.34191 -1.35457 0
M  V30 433 O 40.0687 -3.30269 -2.46974 0
M  V30 434 H 39.4097 -0.640281 -0.175887 0
M  V30 435 H 41.9397 -2.0442 0.0857224 0
M  V30 436 H 41.9497 -3.70331 -1.71228 0
M  V30 437 H 40.6247 -4.11036 -0.634218 0
M  V30 438 H 39.2017 -3.05841 -2.13344 0
M  V30 439 N 41.3868 0.248026 -1.55636 0
M  V30 440 C 42.6338 0.976224 -1.77415 0
M  V30 441 C 42.9618 1.85361 -0.589193 0
M  V30 442 O 42.2168 1.90973 0.427529 0
M  V30 443 C 42.5158 1.86819 -3.04686 0
M  V30 444 C 42.1818 1.14625 -4.36087 0
M  V30 445 C 40.8438 0.946723 -4.71795 0
M  V30 446 C 43.1958 0.634463 -5.17324 0
M  V30 447 C 40.5238 0.223091 -5.86276 0
M  V30 448 C 42.8758 -0.0756959 -6.32555 0
M  V30 449 C 41.5398 -0.286711 -6.66884 0
M  V30 450 H 40.8098 0.357226 -0.649208 0
M  V30 451 H 43.4568 0.246415 -1.89908 0
M  V30 452 H 41.7618 2.66502 -2.872 0
M  V30 453 H 43.4588 2.43329 -3.18735 0
M  V30 454 H 40.0488 1.3117 -4.08035 0
M  V30 455 H 44.2328 0.77616 -4.90193 0
M  V30 456 H 39.4888 0.0491185 -6.1138 0
M  V30 457 H 43.6628 -0.479899 -6.94745 0
M  V30 458 H 41.2898 -0.849389 -7.5544 0
M  V30 459 N 42.8649 1.48995 0.513639 0
M  V30 460 C 43.7949 1.67636 1.62544 0
M  V30 461 C 44.7759 0.525087 1.61793 0
M  V30 462 O 45.9609 0.759502 1.78732 0
M  V30 463 C 43.0909 1.73114 3.01079 0
M  V30 464 C 42.0449 2.87905 3.16693 0
M  V30 465 C 41.3709 2.78486 4.56453 0
M  V30 466 C 42.6709 4.29005 2.97913 0
M  V30 467 H 44.3649 2.60716 1.47198 0
M  V30 468 H 41.9109 1.25465 0.706714 0
M  V30 469 H 43.8639 1.84742 3.78746 0
M  V30 470 H 42.5879 0.766241 3.17484 0
M  V30 471 H 41.2469 2.75859 2.41448 0
M  V30 472 H 40.8949 1.7993 4.69717 0
M  V30 473 H 40.5949 3.55523 4.67843 0
M  V30 474 H 42.1189 2.92104 5.36197 0
M  V30 475 H 43.5329 4.41798 3.65359 0
M  V30 476 H 41.9299 5.07166 3.20785 0
M  V30 477 H 42.9999 4.44329 1.94165 0
M  V30 478 N 44.343 -0.763751 1.37857 0
M  V30 479 C 45.306 -1.85889 1.34081 0
M  V30 480 C 46.306 -1.58949 0.243277 0
M  V30 481 O 47.496 -1.66882 0.499589 0
M  V30 482 C 44.628 -3.23176 1.08489 0
M  V30 483 H 45.821 -1.90648 2.31502 0
M  V30 484 H 43.374 -0.964367 1.23003 0
M  V30 485 H 44.109 -3.24091 0.116318 0
M  V30 486 H 43.894 -3.44124 1.8794 0
M  V30 487 H 45.384 -4.03254 1.08517 0
M  V30 488 N 45.8211 -1.22559 -0.990812 0
M  V30 489 C 47.2371 -0.985996 -1.255 0
M  V30 490 C 47.4371 0.319173 -1.98956 0
M  V30 491 O 46.4931 1.04127 -2.3003 0
M  V30 492 C 47.8061 -2.18607 -2.06474 0
M  V30 493 C 49.3541 -2.22985 -2.19651 0
M  V30 494 C 49.8291 -3.4255 -3.04012 0
M  V30 495 N 51.3201 -3.42725 -3.11599 0
M  V30 496 C 52.0551 -4.31892 -3.7717 0
M  V30 497 N 51.5511 -5.31279 -4.44651 0
M  V30 498 N 53.3441 -4.19662 -3.73952 0
M  V30 499 H 45.4951 -2.06469 -0.49841 0
M  V30 500 H 47.7581 -0.904853 -0.282747 0
M  V30 501 H 47.4641 -3.13267 -1.59865 0
M  V30 502 H 47.3381 -2.18838 -3.07229 0
M  V30 503 H 49.7251 -1.28871 -2.65474 0
M  V30 504 H 49.8061 -2.26791 -1.18319 0
M  V30 505 H 49.4501 -4.36965 -2.58889 0
M  V30 506 H 49.3801 -3.35984 -4.0549 0
M  V30 507 H 51.8711 -2.70807 -2.63575 0
M  V30 508 H 52.1841 -5.95593 -4.92431 0
M  V30 509 H 50.5291 -5.3519 -4.43392 0
M  V30 510 H 53.7201 -3.41268 -3.20396 0
M  V30 511 H 53.8931 -4.89358 -4.24774 0
M  V30 512 N 47.2992 1.18797 -1.03562 0
M  V30 513 C 48.7102 1.70322 -0.764676 0
M  V30 514 C 49.0612 1.82708 0.714996 0
M  V30 515 O 48.1862 1.50299 1.55689 0
M  V30 516 C 48.7812 3.09356 -1.38145 0
M  V30 517 C 47.3402 3.58114 -1.15895 0
M  V30 518 C 46.4872 2.34798 -1.4753 0
M  V30 519 H 49.4382 1.03543 -1.20268 0
M  V30 520 H 49.4592 3.72378 -0.781977 0
M  V30 521 H 48.9712 3.00309 -2.45837 0
M  V30 522 H 47.0722 3.72464 -0.100544 0
M  V30 523 H 47.1852 4.4184 -1.8524 0
M  V30 524 H 45.5492 2.38464 -0.894829 0
M  V30 525 H 46.3322 2.28375 -2.56319 0
M  V30 526 N 48.7773 0.814389 1.34928 0
M  V30 527 C 50.0023 0.410097 2.03305 0
M  V30 528 C 50.4273 -0.973464 1.60951 0
M  V30 529 O 49.7853 -1.63185 0.789964 0
M  V30 530 C 49.8333 0.51049 3.56968 0
M  V30 531 O 48.9373 -0.473035 4.09678 0
M  V30 532 H 48.2783 0.170088 0.641846 0
M  V30 533 H 50.8083 1.10244 1.72358 0
M  V30 534 H 50.8183 0.383135 4.06197 0
M  V30 535 H 49.4933 1.51963 3.87144 0
M  V30 536 H 48.0703 -0.305272 3.71648 0
M  V30 537 N 50.2554 -1.46986 0.568584 0
M  V30 538 C 51.2024 -2.30153 -0.172707 0
M  V30 539 C 52.1724 -1.39759 -0.897586 0
M  V30 540 O 53.3574 -1.68716 -0.891044 0
M  V30 541 C 50.4974 -3.23952 -1.1895 0
M  V30 542 C 49.6104 -4.29441 -0.469517 0
M  V30 543 C 48.7454 -5.1038 -1.47259 0
M  V30 544 C 47.7844 -6.07632 -0.738225 0
M  V30 545 N 46.9214 -6.8149 -1.68868 0
M  V30 546 H 51.7614 -2.93019 0.542596 0
M  V30 547 H 49.2984 -1.44422 0.279401 0
M  V30 548 H 51.2564 -3.76767 -1.79173 0
M  V30 549 H 49.8864 -2.62926 -1.87269 0
M  V30 550 H 48.9384 -3.79594 0.247467 0
M  V30 551 H 50.2504 -4.98689 0.105241 0
M  V30 552 H 49.4044 -5.67402 -2.14803 0
M  V30 553 H 48.1434 -4.4106 -2.08128 0
M  V30 554 H 47.1484 -5.49778 -0.0489293 0
M  V30 555 H 48.3734 -6.78966 -0.135129 0
M  V30 556 H 46.3194 -6.14891 -2.28573 0
M  V30 557 H 46.2364 -7.46948 -1.16636 0
M  V30 558 H 47.5044 -7.43078 -2.3549 0
M  V30 559 N 51.7335 -0.305618 -1.54608 0
M  V30 560 C 52.9585 0.307562 -2.05107 0
M  V30 561 C 53.3835 1.46385 -1.18123 0
M  V30 562 O 52.7415 1.8034 -0.186324 0
M  V30 563 C 52.7895 0.73704 -3.52987 0
M  V30 564 O 51.8935 1.84134 -3.6901 0
M  V30 565 H 51.2345 0.0589143 -0.661381 0
M  V30 566 H 53.7645 -0.448807 -1.99617 0
M  V30 567 H 53.7745 1.02459 -3.94925 0
M  V30 568 H 52.4495 -0.108773 -4.15758 0
M  V30 569 H 51.0265 1.55398 -3.38978 0
M  V30 570 N 53.2116 1.57565 -0.0334293 0
M  V30 571 C 54.1596 2.1164 0.96496 0
M  V30 572 C 55.1536 1.04398 1.33407 0
M  V30 573 O 56.3596 1.22828 1.3158 0
M  V30 574 H 52.7346 0.676222 0.32898 0
M  V30 575 H 54.7056 2.94455 0.483614 0
M  V30 576 C 53.4546 2.66207 2.23672 0
M  V30 577 H 52.7776 3.48378 1.96145 0
M  V30 578 H 54.2176 3.07685 2.9173 0
M  V30 579 C 52.6766 1.59151 2.96939 0
M  V30 580 O 53.2066 0.993858 3.89211 0
M  V30 581 N 51.4126 1.31093 2.59351 0
M  V30 582 H 50.9596 1.7988 1.84393 0
M  V30 583 H 50.9176 0.596889 3.08682 0
M  V30 584 N 54.6897 -0.239769 1.55765 0
M  V30 585 C 56.1007 -0.808263 1.68297 0
M  V30 586 C 56.4517 -1.85736 0.632181 0
M  V30 587 O 55.5767 -2.15277 -0.220204 0
M  V30 588 C 56.1717 -1.47284 3.05111 0
M  V30 589 C 54.7307 -1.98895 3.19559 0
M  V30 590 C 53.8777 -0.842575 2.64189 0
M  V30 591 H 56.8287 -0.0154422 1.58692 0
M  V30 592 H 56.8497 -2.34111 2.99954 0
M  V30 593 H 56.3617 -0.709053 3.81568 0
M  V30 594 H 54.4627 -2.78132 2.47938 0
M  V30 595 H 54.5757 -2.18143 4.26556 0
M  V30 596 H 52.9397 -1.24501 2.22197 0
M  V30 597 H 53.7227 -0.0917552 3.43177 0
M  V30 598 N 56.1678 -1.49265 -0.50573 0
M  V30 599 C 57.4158 -1.582 -1.25766 0
M  V30 600 C 57.7368 -0.268482 -1.93143 0
M  V30 601 O 57.0068 0.711833 -1.8251 0
M  V30 602 H 55.5868 -0.582873 -0.467191 0
M  V30 603 H 58.2488 -1.85865 -0.586525 0
M  V30 604 H 57.3448 -2.37563 -2.02412 0
M  V30 605 N 57.6459 0.756429 -1.3826 0
M  V30 606 C 58.9229 1.50584 -1.24835 0
M  V30 607 C 59.3029 2.10556 0.151485 0
M  V30 608 O 58.6509 1.96825 1.1607 0
M  V30 609 C 58.8609 2.57448 -2.3563 0
M  V30 610 C 60.2089 3.24429 -2.73917 0
M  V30 611 O 61.2329 2.67751 -2.34921 0
M  V30 612 O 60.0919 4.26937 -3.41156 0
M  V30 613 H 57.1859 0.667664 -0.48801 0
M  V30 614 H 59.7319 0.792083 -1.5008 0
M  V30 615 H 58.5039 2.11362 -3.29305 0
M  V30 616 H 58.1269 3.36408 -2.11933 0
M  V30 617 N 59.124 1.23083 0.984299 0
M  V30 618 C 60.371 1.06057 1.72505 0
M  V30 619 C 60.699 -0.403105 1.90277 0
M  V30 620 O 59.954 -1.3149 1.44944 0
M  V30 621 C 60.253 1.72673 3.1292 0
M  V30 622 C 59.919 3.22586 3.15038 0
M  V30 623 C 58.581 3.63489 3.15324 0
M  V30 624 C 60.933 4.185 3.10657 0
M  V30 625 C 58.261 4.98772 3.08939 0
M  V30 626 C 60.613 5.53769 3.05814 0
M  V30 627 C 59.277 5.94041 3.04419 0
M  V30 628 H 58.547 0.388091 0.631242 0
M  V30 629 H 61.194 1.52963 1.15215 0
M  V30 630 H 59.499 1.18116 3.73572 0
M  V30 631 H 61.196 1.56982 3.68996 0
M  V30 632 H 57.786 2.90022 3.15571 0
M  V30 633 H 61.97 3.87911 3.09579 0
M  V30 634 H 57.226 5.29193 3.0621 0
M  V30 635 H 61.4 6.27808 3.0138 0
M  V30 636 H 59.027 6.98833 2.99227 0
M  V30 637 N 60.6021 -1.18246 1.0419 0
M  V30 638 C 61.8301 -1.92195 0.766072 0
M  V30 639 C 62.2451 -1.76247 -0.676933 0
M  V30 640 O 61.6021 -1.09293 -1.46155 0
M  V30 641 C 61.6531 -3.43568 1.12442 0
M  V30 642 O 61.3741 -3.59015 2.51078 0
M  V30 643 C 62.8751 -4.34613 0.873275 0
M  V30 644 H 60.0951 -0.610114 0.279288 0
M  V30 645 H 62.6391 -1.50007 1.38989 0
M  V30 646 H 60.7941 -3.8354 0.545542 0
M  V30 647 H 61.2081 -4.5273 2.64831 0
M  V30 648 H 62.6821 -5.39374 1.17385 0
M  V30 649 H 63.1591 -4.38781 -0.191909 0
M  V30 650 H 63.7651 -4.00341 1.43551 0
M  V30 651 N 62.0802 -0.821533 -1.34494 0
M  V30 652 C 63.0102 -0.257138 -2.3208 0
M  V30 653 C 63.9912 0.625645 -1.58176 0
M  V30 654 O 65.1762 0.552811 -1.86166 0
M  V30 655 C 62.3062 0.582958 -3.42372 0
M  V30 656 C 61.2602 -0.202571 -4.2752 0
M  V30 657 C 60.5862 0.760179 -5.29269 0
M  V30 658 C 61.8862 -1.40998 -5.02908 0
M  V30 659 H 63.5802 -1.07247 -2.79532 0
M  V30 660 H 61.1262 -0.517163 -1.34393 0
M  V30 661 H 63.0792 0.987972 -4.09655 0
M  V30 662 H 61.8032 1.43133 -2.93565 0
M  V30 663 H 60.4622 -0.588936 -3.61838 0
M  V30 664 H 60.1102 1.60447 -4.76724 0
M  V30 665 H 59.8102 0.238809 -5.87115 0
M  V30 666 H 61.3342 1.16308 -5.9942 0
M  V30 667 H 62.7482 -1.07905 -5.63054 0
M  V30 668 H 61.1452 -1.86689 -5.70322 0
M  V30 669 H 62.2152 -2.1889 -4.32684 0
M  V30 670 N 63.5583 1.46682 -0.576371 0
M  V30 671 C 64.7833 2.07304 -0.0630475 0
M  V30 672 C 65.2083 1.42329 1.2298 0
M  V30 673 O 64.5663 0.504865 1.74129 0
M  V30 674 C 64.6143 3.60472 0.095895 0
M  V30 675 O 63.7183 3.95927 1.15394 0
M  V30 676 H 63.0593 0.661288 -0.0599463 0
M  V30 677 H 65.5893 1.88417 -0.797511 0
M  V30 678 H 65.5993 4.06865 0.304071 0
M  V30 679 H 64.2743 4.07157 -0.84828 0
M  V30 680 H 62.8513 3.61252 0.924724 0
M  V30 681 N 65.0364 0.313813 1.54444 0
M  V30 682 C 66.2824 -0.292108 2.00685 0
M  V30 683 C 66.6154 -1.52548 1.20177 0
M  V30 684 O 65.8904 -1.92452 0.281531 0
M  V30 685 C 66.1734 -0.635968 3.5444 0
M  V30 686 C 66.0264 0.607437 4.4568 0
M  V30 687 C 67.3454 -1.45747 4.15266 0
M  V30 688 H 64.4644 -0.104697 0.729526 0
M  V30 689 H 67.1064 0.428457 1.85106 0
M  V30 690 H 65.2564 -1.24986 3.67846 0
M  V30 691 H 66.9284 1.24581 4.44159 0
M  V30 692 H 65.1714 1.23822 4.15753 0
M  V30 693 H 65.8424 0.322515 5.51057 0
M  V30 694 H 68.3184 -0.938645 4.05375 0
M  V30 695 H 67.1944 -1.66683 5.2298 0
M  V30 696 H 67.4554 -2.45063 3.67963 0
M  V30 697 N 66.5145 -1.57545 0.0417849 0
M  V30 698 C 67.9305 -1.56467 -0.314704 0
M  V30 699 C 68.1305 -1.04859 -1.72066 0
M  V30 700 O 67.1865 -0.700983 -2.42575 0
M  V30 701 C 68.4995 -3.00317 -0.15174 0
M  V30 702 C 70.0475 -3.12201 -0.223553 0
M  V30 703 C 70.5225 -4.57913 -0.0892295 0
M  V30 704 N 72.0135 -4.6297 -0.145808 0
M  V30 705 C 72.7485 -5.73362 -0.0658459 0
M  V30 706 N 72.2445 -6.92769 0.0659282 0
M  V30 707 N 74.0375 -5.6197 -0.12075 0
M  V30 708 H 66.1885 -1.89416 0.961014 0
M  V30 709 H 68.4515 -0.871862 0.372237 0
M  V30 710 H 68.1575 -3.42073 0.817254 0
M  V30 711 H 68.0315 -3.65892 -0.916692 0
M  V30 712 H 70.4185 -2.70349 -1.18301 0
M  V30 713 H 70.4995 -2.49323 0.571994 0
M  V30 714 H 70.1435 -5.00448 0.866867 0
M  V30 715 H 70.0735 -5.18786 -0.903802 0
M  V30 716 H 72.5645 -3.7709 -0.247286 0
M  V30 717 H 72.8775 -7.72707 0.119905 0
M  V30 718 H 71.2225 -6.94927 0.100885 0
M  V30 719 H 74.4135 -4.67572 -0.222187 0
M  V30 720 H 74.5865 -6.47977 -0.0549735 0
M  V30 721 N 67.9926 0.231505 -1.5589 0
M  V30 722 C 69.4086 0.580748 -1.48659 0
M  V30 723 C 69.6086 1.87617 -0.73498 0
M  V30 724 O 68.6646 2.51046 -0.270586 0
M  V30 725 C 69.9776 0.669202 -2.93159 0
M  V30 726 C 71.5256 0.760499 -3.03621 0
M  V30 727 C 72.0006 0.880383 -4.49459 0
M  V30 728 N 73.4916 0.944861 -4.53461 0
M  V30 729 C 74.2266 1.05716 -5.63571 0
M  V30 730 N 73.7226 1.13403 -6.83456 0
M  V30 731 N 75.5156 1.09152 -5.514 0
M  V30 732 H 67.6666 -0.618695 -2.03189 0
M  V30 733 H 69.9296 -0.215728 -0.923128 0
M  V30 734 H 69.6356 -0.212904 -3.51055 0
M  V30 735 H 69.5096 1.5361 -3.44505 0
M  V30 736 H 71.8966 1.63305 -2.45796 0
M  V30 737 H 71.9776 -0.131864 -2.5546 0
M  V30 738 H 71.6216 0.0123284 -5.07899 0
M  V30 739 H 71.5516 1.78802 -4.95316 0
M  V30 740 H 74.0426 0.896176 -3.6712 0
M  V30 741 H 74.3556 1.21921 -7.63122 0
M  V30 742 H 72.7006 1.10333 -6.86186 0
M  V30 743 H 75.8916 1.02805 -4.56671 0
M  V30 744 H 76.0646 1.17558 -6.37247 0
M  V30 745 N 69.4707 1.49531 0.497807 0
M  V30 746 C 70.4187 1.66926 1.61983 0
M  V30 747 C 71.4127 0.535167 1.60724 0
M  V30 748 O 72.6187 0.714896 1.65195 0
M  V30 749 H 68.9937 0.526415 0.537021 0
M  V30 750 H 70.9647 2.61098 1.44465 0
M  V30 751 C 69.7137 1.75602 3.00099 0
M  V30 752 H 69.0367 2.62244 3.01775 0
M  V30 753 H 70.4767 1.91807 3.78135 0
M  V30 754 C 68.9357 0.501543 3.33146 0
M  V30 755 O 69.4657 -0.371342 3.9998 0
M  V30 756 N 67.6717 0.363531 2.88317 0
M  V30 757 H 67.2187 1.07485 2.34104 0
M  V30 758 H 67.1767 -0.474728 3.10795 0
M  V30 759 N 70.9488 -0.749086 1.3866 0
M  V30 760 C 72.1968 -1.50535 1.34847 0
M  V30 761 C 72.5178 -1.94909 -0.0595016 0
M  V30 762 O 71.7878 -1.67973 -1.00806 0
M  V30 763 H 70.3678 -0.558395 0.49619 0
M  V30 764 H 73.0298 -0.890165 1.73384 0
M  V30 765 H 72.1258 -2.39413 2.00219 0
M  V30 766 N 72.4269 -1.23603 -0.977757 0
M  V30 767 C 73.3899 -1.02069 -2.05218 0
M  V30 768 C 74.3899 0.0184305 -1.60789 0
M  V30 769 O 75.5799 -0.221569 -1.72785 0
M  V30 770 C 72.7119 -0.544926 -3.36517 0
M  V30 771 H 73.9049 -1.9742 -2.25755 0
M  V30 772 H 71.4579 -1.05684 -1.15155 0
M  V30 773 H 72.1929 0.412241 -3.21669 0
M  V30 774 H 71.9779 -1.2948 -3.70105 0
M  V30 775 H 73.4679 -0.414985 -4.15533 0
M  V30 776 N 73.905 1.17692 -1.04816 0
M  V30 777 C 75.151 1.88137 -0.75711 0
M  V30 778 C 75.484 1.80604 0.713841 0
M  V30 779 O 74.759 1.21146 1.52164 0
M  V30 780 C 75.042 3.38318 -1.2334 0
M  V30 781 C 74.895 3.54622 -2.76701 0
M  V30 782 C 76.214 4.32214 -0.829415 0
M  V30 783 H 73.333 0.683163 -0.27651 0
M  V30 784 H 75.975 1.38424 -1.30149 0
M  V30 785 H 74.125 3.80787 -0.770286 0
M  V30 786 H 75.797 3.21194 -3.31107 0
M  V30 787 H 74.04 2.97026 -3.16161 0
M  V30 788 H 74.711 4.60028 -3.05088 0
M  V30 789 H 77.187 3.97565 -1.22805 0
M  V30 790 H 76.063 5.35838 -1.19033 0
M  V30 791 H 76.324 4.41294 0.266891 0
M  V30 792 N 75.3831 0.828654 1.34056 0
M  V30 793 C 76.6111 0.43262 2.02326 0
M  V30 794 C 77.0261 -0.963147 1.62385 0
M  V30 795 O 76.3831 -1.62425 0.832121 0
M  V30 796 C 76.4341 0.53182 3.57567 0
M  V30 797 O 76.1551 1.87258 3.96063 0
M  V30 798 C 77.6561 0.131422 4.43105 0
M  V30 799 H 74.8761 0.172923 0.648335 0
M  V30 800 H 77.4201 1.1184 1.71208 0
M  V30 801 H 75.5751 -0.105938 3.87255 0
M  V30 802 H 75.9891 1.85087 4.90758 0
M  V30 803 H 77.4631 0.251904 5.51425 0
M  V30 804 H 77.9401 -0.925645 4.29335 0
M  V30 805 H 78.5461 0.743207 4.18756 0
M  V30 806 N 76.8612 -1.46375 0.584142 0
M  V30 807 C 77.8112 -2.27371 -0.169232 0
M  V30 808 C 78.7952 -1.35955 -0.860523 0
M  V30 809 O 79.9872 -1.60119 -0.754382 0
M  V30 810 C 77.1162 -3.22334 -1.18134 0
M  V30 811 C 76.2022 -4.21235 -0.492088 0
M  V30 812 N 76.5932 -5.03766 0.453129 0
M  V30 813 C 74.8912 -4.39773 -0.742652 0
M  V30 814 C 75.5922 -5.75366 0.85609 0
M  V30 815 N 74.5682 -5.43214 0.204926 0
M  V30 816 H 78.3702 -2.88572 0.557097 0
M  V30 817 H 75.8842 -1.57242 0.406042 0
M  V30 818 H 77.8812 -3.79071 -1.73525 0
M  V30 819 H 76.5412 -2.62693 -1.90847 0
M  V30 820 H 77.5522 -5.11227 0.828723 0
M  V30 821 H 74.2292 -3.91279 -1.45625 0
M  V30 822 H 75.6192 -6.5172 1.63434 0
M  V30 823 N 78.3393 -0.321999 -1.54275 0
M  V30 824 C 79.5883 0.281931 -1.9972 0
M  V30 825 C 79.9013 1.53369 -1.21397 0
M  V30 826 O 81.1073 2.21352 -1.57211 0
M  V30 827 C 79.5633 0.5529 -3.55628 0
M  V30 828 C 79.1713 -0.681721 -4.42783 0
M  V30 829 C 80.9153 1.11687 -4.09544 0
M  V30 830 C 78.8223 -0.382742 -5.9016 0
M  V30 831 H 77.7523 0.109124 -0.746062 0
M  V30 832 H 80.4033 -0.43398 -1.78294 0
M  V30 833 H 78.7853 1.32896 -3.73035 0
M  V30 834 H 79.9593 -1.45723 -4.37151 0
M  V30 835 H 78.2743 -1.1658 -3.99748 0
M  V30 836 H 80.8713 1.35515 -5.17242 0
M  V30 837 H 81.2143 2.06575 -3.61431 0
M  V30 838 H 81.7473 0.402032 -3.95763 0
M  V30 839 H 78.4863 -1.30076 -6.42464 0
M  V30 840 H 78.0063 0.355094 -5.98748 0
M  V30 841 H 79.6853 0.00800157 -6.47 0
M  V30 842 N 79.8174 1.5752 -0.0501392 0
M  V30 843 C 80.7644 2.1147 0.924603 0
M  V30 844 C 81.7344 1.02182 1.30951 0
M  V30 845 O 82.9194 1.29723 1.39916 0
M  V30 846 C 80.0594 2.66337 2.19451 0
M  V30 847 C 79.1724 3.89708 1.86418 0
M  V30 848 C 78.3074 4.32893 3.07859 0
M  V30 849 C 77.3464 5.48967 2.70742 0
M  V30 850 N 76.4834 5.87211 3.84874 0
M  V30 851 H 81.3234 2.94465 0.457639 0
M  V30 852 H 78.8604 1.45531 0.214266 0
M  V30 853 H 80.8184 2.96247 2.93758 0
M  V30 854 H 79.4484 1.86141 2.63726 0
M  V30 855 H 78.5004 3.66396 1.02264 0
M  V30 856 H 79.8124 4.74074 1.55096 0
M  V30 857 H 78.9664 4.6435 3.90466 0
M  V30 858 H 77.7054 3.47336 3.42358 0
M  V30 859 H 76.7104 5.17183 1.86551 0
M  V30 860 H 77.9354 6.3624 2.37436 0
M  V30 861 H 75.8814 5.04607 4.19175 0
M  V30 862 H 75.7984 6.66266 3.57247 0
M  V30 863 H 77.0664 6.23282 4.68123 0
M  V30 864 N 81.2955 -0.223234 1.56011 0
M  V30 865 C 82.5445 -0.945912 1.78144 0
M  V30 866 C 82.8575 -1.85567 0.618396 0
M  V30 867 O 84.0635 -2.61688 0.723318 0
M  V30 868 C 82.5195 -1.73216 3.15475 0
M  V30 869 C 82.1275 -0.868619 4.39499 0
M  V30 870 C 83.8715 -2.44615 3.46935 0
M  V30 871 C 81.7785 -1.65212 5.67855 0
M  V30 872 H 80.7085 -0.356929 0.664167 0
M  V30 873 H 83.3595 -0.199845 1.82409 0
M  V30 874 H 81.7415 -2.52107 3.05382 0
M  V30 875 H 82.9155 -0.120366 4.60643 0
M  V30 876 H 81.2305 -0.26683 4.15544 0
M  V30 877 H 83.8275 -3.03732 4.40058 0
M  V30 878 H 84.1705 -3.17417 2.69355 0
M  V30 879 H 84.7035 -1.72715 3.58349 0
M  V30 880 H 81.4425 -0.967407 6.48322 0
M  V30 881 H 80.9625 -2.37503 5.50774 0
M  V30 882 H 82.6415 -2.21322 6.07968 0
M  V30 883 N 82.7736 -1.49793 -0.48987 0
M  V30 884 C 83.7056 -1.63413 -1.60713 0
M  V30 885 C 84.7186 -0.516329 -1.54395 0
M  V30 886 O 85.9076 -0.788812 -1.60125 0
M  V30 887 C 83.0076 -1.58516 -2.99543 0
M  V30 888 C 82.1806 -2.86016 -3.30928 0
M  V30 889 C 81.2396 -2.74018 -4.49222 0
M  V30 890 O 80.2656 -3.47964 -4.50455 0
M  V30 891 N 81.4676 -1.86309 -5.4979 0
M  V30 892 H 84.2326 -2.59777 -1.49452 0
M  V30 893 H 81.7936 -1.47022 -0.677955 0
M  V30 894 H 83.7856 -1.48128 -3.76617 0
M  V30 895 H 82.3556 -0.69965 -3.0467 0
M  V30 896 H 81.5756 -3.10672 -2.42645 0
M  V30 897 H 82.8636 -3.70521 -3.487 0
M  V30 898 H 82.2616 -1.2551 -5.51601 0
M  V30 899 H 80.8186 -1.81837 -6.25922 0
M  V30 900 N 84.2517 0.741722 -1.39055 0
M  V30 901 C 85.1997 1.87702 -1.3737 0
M  V30 902 C 86.1937 1.67427 -0.257812 0
M  V30 903 O 87.3997 1.7485 -0.427489 0
M  V30 904 H 83.7747 0.617757 -0.428812 0
M  V30 905 H 85.7457 1.86239 -2.33147 0
M  V30 906 C 84.4947 3.25315 -1.22741 0
M  V30 907 H 83.8177 3.41509 -2.07873 0
M  V30 908 H 85.2577 4.04964 -1.25618 0
M  V30 909 C 83.7167 3.36838 0.0647316 0
M  V30 910 O 84.2467 3.88073 1.03741 0
M  V30 911 N 82.4527 2.90329 0.125544 0
M  V30 912 H 81.9997 2.48823 -0.666682 0
M  V30 913 H 81.9577 2.98418 0.989639 0
M  V30 914 N 85.7298 1.2412 0.971189 0
M  V30 915 C 86.9578 1.10575 1.74874 0
M  V30 916 C 87.3728 -0.342017 1.85676 0
M  V30 917 O 86.7298 -1.23617 1.34258 0
M  V30 918 C 86.7808 1.73579 3.171 0
M  V30 919 O 86.5018 3.12695 3.06844 0
M  V30 920 C 88.0028 1.65598 4.11208 0
M  V30 921 H 85.2228 0.386504 0.548503 0
M  V30 922 H 87.7668 1.64156 1.21955 0
M  V30 923 H 85.9218 1.24009 3.67016 0
M  V30 924 H 86.3358 3.43412 3.96445 0
M  V30 925 H 87.8098 2.1437 5.08674 0
M  V30 926 H 88.2868 0.616532 4.34851 0
M  V30 927 H 88.8928 2.14578 3.67201 0
M  V30 928 N 87.2079 -1.17134 1.05439 0
M  V30 929 C 88.4559 -1.87085 0.764429 0
M  V30 930 C 88.7769 -1.81584 -0.710787 0
M  V30 931 O 88.0469 -1.24349 -1.51374 0
M  V30 932 H 86.6269 -0.692627 0.279779 0
M  V30 933 H 89.2889 -1.42087 1.33406 0
M  V30 934 H 88.3849 -2.92759 1.0816 0
M  V30 935 N 88.686 -0.835752 -1.33615 0
M  V30 936 C 89.963 -0.352017 -1.92406 0
M  V30 937 C 90.343 1.16225 -1.76224 0
M  V30 938 O 89.691 1.97526 -1.14873 0
M  V30 939 C 89.901 -0.795485 -3.39813 0
M  V30 940 C 91.249 -0.801703 -4.16963 0
M  V30 941 O 92.273 -0.738889 -3.48452 0
M  V30 942 O 91.132 -0.886607 -5.3926 0
M  V30 943 H 88.226 -0.0989641 -0.821057 0
M  V30 944 H 90.772 -0.921397 -1.42507 0
M  V30 945 H 89.544 -1.83795 -3.45449 0
M  V30 946 H 89.167 -0.202505 -3.97084 0
M  V30 947 N 90.1641 1.46063 -0.591896 0
M  V30 948 C 91.3941 2.06418 -0.0867676 0
M  V30 949 C 91.8021 1.43975 1.22751 0
M  V30 950 O 91.1451 0.542531 1.75506 0
M  V30 951 C 91.2071 3.59213 0.143725 0
M  V30 952 C 90.8711 4.439 -1.08635 0
M  V30 953 C 91.8681 4.79864 -2.00067 0
M  V30 954 C 89.5531 4.84896 -1.31077 0
M  V30 955 C 91.5471 5.55661 -3.12282 0
M  V30 956 C 89.2341 5.6045 -2.43596 0
M  V30 957 C 90.2321 5.95747 -3.34027 0
M  V30 958 O 89.9201 6.69772 -4.4459 0
M  V30 959 H 89.6521 0.673443 -0.0587447 0
M  V30 960 H 92.2061 1.88539 -0.814994 0
M  V30 961 H 90.4361 3.75433 0.926668 0
M  V30 962 H 92.1251 4.01463 0.5985 0
M  V30 963 H 92.8911 4.48763 -1.83947 0
M  V30 964 H 88.7701 4.56867 -0.61594 0
M  V30 965 H 92.3141 5.8313 -3.82891 0
M  V30 966 H 88.2111 5.90965 -2.59674 0
M  V30 967 H 88.9791 6.88207 -4.43073 0
M  V30 968 N 91.6422 0.330177 1.54103 0
M  V30 969 C 92.8722 -0.271784 2.04805 0
M  V30 970 C 93.2802 -1.45816 1.20559 0
M  V30 971 O 92.6232 -1.82247 0.2306 0
M  V30 972 C 92.6852 -0.763238 3.51305 0
M  V30 973 C 92.3492 0.301705 4.56003 0
M  V30 974 C 93.3462 1.13999 5.07248 0
M  V30 975 C 91.0312 0.451793 5.00264 0
M  V30 976 C 93.0252 2.11402 6.01322 0
M  V30 977 C 90.7122 1.42924 5.94151 0
M  V30 978 C 91.7102 2.25882 6.44567 0
M  V30 979 O 91.3982 3.21965 7.3661 0
M  V30 980 H 91.1302 -0.058693 0.673447 0
M  V30 981 H 93.6842 0.476395 1.99799 0
M  V30 982 H 91.9142 -1.56244 3.5373 0
M  V30 983 H 93.6032 -1.28427 3.85047 0
M  V30 984 H 94.3692 1.03505 4.73827 0
M  V30 985 H 90.2482 -0.184044 4.60632 0
M  V30 986 H 93.7922 2.76192 6.40596 0
M  V30 987 H 89.6892 1.53479 6.26988 0
M  V30 988 H 90.4572 3.17281 7.54503 0
M  V30 989 N 93.1203 -1.57491 0.0584922 0
M  V30 990 C 94.3973 -1.84346 -0.653918 0
M  V30 991 C 94.7773 -0.948355 -1.88599 0
M  V30 992 O 94.1253 -0.0112403 -2.28497 0
M  V30 993 C 94.3353 -3.34239 -1.00425 0
M  V30 994 C 95.6833 -4.01431 -1.38342 0
M  V30 995 O 96.7073 -3.38907 -1.09637 0
M  V30 996 O 95.5663 -5.11683 -1.91943 0
M  V30 997 H 92.6603 -0.761112 -0.323478 0
M  V30 998 H 95.2063 -1.6947 0.0884125 0
M  V30 999 H 93.9783 -3.91089 -0.128625 0
M  V30 1000 H 93.6013 -3.54329 -1.80378 0
M  V30 1001 N 94.5984 0.214957 -1.56127 0
M  V30 1002 C 95.5284 1.2695 -1.95974 0
M  V30 1003 C 96.5094 1.48539 -0.828868 0
M  V30 1004 O 97.6944 1.60611 -1.09168 0
M  V30 1005 C 94.8244 2.61794 -2.28214 0
M  V30 1006 C 93.7784 2.54851 -3.43853 0
M  V30 1007 C 93.1044 3.93785 -3.61715 0
M  V30 1008 C 94.4044 2.09065 -4.78632 0
M  V30 1009 H 96.0984 0.93846 -2.84312 0
M  V30 1010 H 93.6444 0.449996 -1.36788 0
M  V30 1011 H 95.5974 3.35731 -2.54682 0
M  V30 1012 H 94.3214 2.96599 -1.36736 0
M  V30 1013 H 92.9804 1.8337 -3.17444 0
M  V30 1014 H 92.6284 4.25908 -2.67602 0
M  V30 1015 H 92.3284 3.90019 -4.39498 0
M  V30 1016 H 93.8524 4.69374 -3.90539 0
M  V30 1017 H 95.2664 2.7275 -5.04262 0
M  V30 1018 H 93.6634 2.16346 -5.59745 0
M  V30 1019 H 94.7334 1.04315 -4.73547 0
M  V30 1020 N 96.0765 1.50051 0.48192 0
M  V30 1021 C 97.3065 1.63999 1.2565 0
M  V30 1022 C 97.7145 0.318288 1.86504 0
M  V30 1023 O 97.0575 -0.708534 1.69486 0
M  V30 1024 C 97.1195 2.66504 2.4128 0
M  V30 1025 C 96.7835 4.10352 2.01148 0
M  V30 1026 C 97.7805 4.96562 1.54021 0
M  V30 1027 C 95.4655 4.56203 2.10199 0
M  V30 1028 C 97.4595 6.26668 1.16473 0
M  V30 1029 C 95.1465 5.86318 1.72264 0
M  V30 1030 C 96.1445 6.71375 1.25477 0
M  V30 1031 O 95.8325 7.99062 0.880626 0
M  V30 1032 H 95.5645 0.55456 0.386574 0
M  V30 1033 H 98.1185 1.96954 0.582944 0
M  V30 1034 H 96.3485 2.28769 3.11772 0
M  V30 1035 H 98.0375 2.69783 3.03268 0
M  V30 1036 H 98.8035 4.62358 1.46458 0
M  V30 1037 H 94.6825 3.90152 2.45566 0
M  V30 1038 H 98.2265 6.93011 0.798841 0
M  V30 1039 H 94.1235 6.20046 1.79482 0
M  V30 1040 H 94.8915 8.12239 1.01043 0
M  V30 1041 N 97.5546 -0.734337 1.39446 0
M  V30 1042 C 98.8026 -1.49096 1.36436 0
M  V30 1043 C 99.1236 -1.94961 -0.0388255 0
M  V30 1044 O 98.3936 -1.69033 -0.990191 0
M  V30 1045 H 96.9736 -0.5531 0.502085 0
M  V30 1046 H 99.6356 -0.871725 1.74319 0
M  V30 1047 H 98.7316 -2.37276 2.02747 0
M  V30 1048 N 99.0327 -1.24633 -0.964593 0
M  V30 1049 C 100.281 -1.08573 -1.70459 0
M  V30 1050 C 100.602 0.375655 -1.91347 0
M  V30 1051 O 99.8717 1.26779 -1.49345 0
M  V30 1052 H 98.4517 -0.398784 -0.631649 0
M  V30 1053 H 101.114 -1.56601 -1.16026 0
M  V30 1054 H 100.21 -1.58623 -2.68785 0
M  V30 1055 N 100.511 1.16574 -1.06058 0
M  V30 1056 C 101.421 2.2452 -0.680282 0
M  V30 1057 C 102.437 1.71348 0.302604 0
M  V30 1058 O 103.613 2.00822 0.152513 0
M  V30 1059 C 100.678 3.46629 -0.0700315 0
M  V30 1060 C 99.7388 4.14849 -1.10448 0
M  V30 1061 C 98.9718 5.31129 -0.523256 0
M  V30 1062 O 99.1948 5.66514 0.664709 0
M  V30 1063 O 98.1288 5.88526 -1.26179 0
M  V30 1064 H 101.955 2.59355 -1.58015 0
M  V30 1065 H 99.5398 1.24043 -0.832694 0
M  V30 1066 H 101.422 4.20543 0.268667 0
M  V30 1067 H 100.097 3.13573 0.803353 0
M  V30 1068 H 99.0038 3.42916 -1.49532 0
M  V30 1069 H 100.337 4.51954 -1.94931 0
M  V30 1070 N 101.989 0.842826 1.3317 0
M  V30 1071 C 102.936 0.276885 2.29133 0
M  V30 1072 C 103.906 -0.609527 1.54512 0
M  V30 1073 O 105.091 -0.546955 1.82792 0
M  V30 1074 C 102.231 -0.538707 3.40869 0
M  V30 1075 C 101.344 0.372169 4.30394 0
M  V30 1076 C 100.479 -0.454908 5.29249 0
M  V30 1077 C 99.5179 0.45411 6.10413 0
M  V30 1078 N 98.6549 -0.335075 7.013 0
M  V30 1079 H 103.495 1.10052 2.76934 0
M  V30 1080 H 101.032 0.554161 1.36262 0
M  V30 1081 H 102.99 -1.02709 4.0436 0
M  V30 1082 H 101.62 -1.32727 2.9425 0
M  V30 1083 H 100.672 0.97888 3.6759 0
M  V30 1084 H 101.984 1.0703 4.87182 0
M  V30 1085 H 101.138 -1.00695 5.98285 0
M  V30 1086 H 99.8769 -1.18646 4.73048 0
M  V30 1087 H 98.8819 1.01813 5.40291 0
M  V30 1088 H 100.107 1.18409 6.68697 0
M  V30 1089 H 98.0529 -1.04994 6.47543 0
M  V30 1090 H 97.9699 0.304262 7.55387 0
M  V30 1091 H 99.2379 -0.869224 7.74638 0
M  V30 1092 N 103.467 -1.45747 0.599634 0
M  V30 1093 C 104.714 -2.02292 0.0917284 0
M  V30 1094 C 105.042 -1.46906 -1.27472 0
M  V30 1095 O 104.297 -0.630652 -1.8526 0
M  V30 1096 C 104.596 -3.57399 -0.00602758 0
M  V30 1097 C 104.262 -4.31902 1.29503 0
M  V30 1098 C 102.924 -4.51974 1.65144 0
M  V30 1099 C 105.276 -4.74551 2.15525 0
M  V30 1100 C 102.604 -5.11949 2.86574 0
M  V30 1101 C 104.956 -5.35868 3.36196 0
M  V30 1102 C 103.62 -5.54165 3.72099 0
M  V30 1103 H 102.89 -0.740239 0.0335658 0
M  V30 1104 H 105.537 -1.7491 0.779661 0
M  V30 1105 H 103.842 -3.84014 -0.777183 0
M  V30 1106 H 105.539 -3.98846 -0.415038 0
M  V30 1107 H 102.129 -4.16588 1.00761 0
M  V30 1108 H 106.313 -4.58784 1.8929 0
M  V30 1109 H 101.569 -5.24305 3.14507 0
M  V30 1110 H 105.743 -5.6787 4.03109 0
M  V30 1111 H 103.37 -6.00406 4.6628 0
M  V30 1112 N 104.945 -0.338344 -1.53925 0
M  V30 1113 C 105.908 0.508299 -2.23493 0
M  V30 1114 C 106.908 1.03175 -1.23335 0
M  V30 1115 O 108.098 0.921826 -1.47811 0
M  V30 1116 C 105.23 1.70754 -2.95052 0
M  V30 1117 H 106.423 -0.100058 -2.99733 0
M  V30 1118 H 103.976 -0.0896198 -1.56043 0
M  V30 1119 H 104.711 2.35474 -2.22986 0
M  V30 1120 H 104.496 1.33946 -3.68512 0
M  V30 1121 H 105.986 2.30818 -3.48013 0
M  V30 1122 N 106.423 1.57458 -0.0668435 0
M  V30 1123 C 107.651 1.97624 0.612565 0
M  V30 1124 C 108.066 0.94502 1.63447 0
M  V30 1125 O 107.423 -0.0689276 1.8237 0
M  V30 1126 C 107.474 3.37869 1.28555 0
M  V30 1127 O 107.195 4.3704 0.304557 0
M  V30 1128 C 108.696 3.92882 2.05325 0
M  V30 1129 H 105.916 0.650045 0.166381 0
M  V30 1130 H 108.46 2.04035 -0.137782 0
M  V30 1131 H 106.615 3.3256 1.98702 0
M  V30 1132 H 107.029 5.18565 0.786779 0
M  V30 1133 H 108.503 4.93247 2.47812 0
M  V30 1134 H 108.98 3.29156 2.9078 0
M  V30 1135 H 109.586 4.01577 1.40056 0
M  V30 1136 N 107.901 -0.206675 1.56239 0
M  V30 1137 C 108.831 -1.25909 1.96645 0
M  V30 1138 C 109.812 -1.48097 0.836734 0
M  V30 1139 O 110.997 -1.6003 1.10019 0
M  V30 1140 C 108.127 -2.6058 2.29599 0
M  V30 1141 C 107.081 -2.53024 3.452 0
M  V30 1142 C 106.407 -3.91861 3.63798 0
M  V30 1143 C 107.707 -2.06524 4.79734 0
M  V30 1144 H 109.401 -0.923369 2.84806 0
M  V30 1145 H 106.947 -0.442735 1.37025 0
M  V30 1146 H 108.9 -3.34375 2.56459 0
M  V30 1147 H 107.624 -2.95869 1.38307 0
M  V30 1148 H 106.283 -1.81684 3.18412 0
M  V30 1149 H 105.931 -4.24483 2.69857 0
M  V30 1150 H 105.631 -3.87683 4.4156 0
M  V30 1151 H 107.155 -4.67296 3.93022 0
M  V30 1152 H 108.569 -2.70072 5.05702 0
M  V30 1153 H 106.966 -2.13374 5.60885 0
M  V30 1154 H 108.036 -1.01802 4.74093 0
M  V30 1155 N 109.379 -1.50304 -0.473955 0
M  V30 1156 C 110.342 -1.6841 -1.55469 0
M  V30 1157 C 111.342 -0.554905 -1.50922 0
M  V30 1158 O 112.532 -0.821882 -1.53593 0
M  V30 1159 C 109.664 -1.70667 -2.95102 0
M  V30 1160 H 110.857 -2.64828 -1.40733 0
M  V30 1161 H 108.41 -1.39742 -0.700132 0
M  V30 1162 H 109.145 -0.75932 -3.15285 0
M  V30 1163 H 108.93 -2.52698 -2.9981 0
M  V30 1164 H 110.42 -1.8664 -3.73571 0
M  V30 1165 N 110.857 0.726932 -1.39834 0
M  V30 1166 C 111.767 1.87131 -1.41489 0
M  V30 1167 C 112.783 1.71239 -0.308757 0
M  V30 1168 O 113.959 1.93701 -0.551529 0
M  V30 1169 C 111.024 3.22811 -1.26468 0
M  V30 1170 C 110.085 3.51039 -2.47124 0
M  V30 1171 C 109.318 4.80245 -2.3281 0
M  V30 1172 O 109.541 5.54537 -1.33585 0
M  V30 1173 O 108.475 5.08554 -3.21957 0
M  V30 1174 H 112.301 1.8869 -2.3797 0
M  V30 1175 H 109.886 0.875837 -1.21035 0
M  V30 1176 H 111.768 4.03877 -1.20255 0
M  V30 1177 H 110.443 3.22005 -0.330862 0
M  V30 1178 H 109.35 2.70027 -2.58914 0
M  V30 1179 H 110.683 3.56632 -3.39227 0
M  V30 1180 N 112.336 1.25143 0.95797 0
M  V30 1181 C 113.266 1.07711 2.07173 0
M  V30 1182 C 114.247 -0.0128462 1.70095 0
M  V30 1183 O 115.432 0.156061 1.93572 0
M  V30 1184 C 112.562 0.691503 3.40346 0
M  V30 1185 C 111.516 1.73132 3.9142 0
M  V30 1186 C 110.842 1.20049 5.21049 0
M  V30 1187 C 112.142 3.1294 4.1817 0
M  V30 1188 H 113.836 2.00873 2.22014 0
M  V30 1189 H 111.382 0.967191 1.06684 0
M  V30 1190 H 113.335 0.556505 4.17709 0
M  V30 1191 H 112.059 -0.275819 3.25433 0
M  V30 1192 H 110.718 1.8547 3.16222 0
M  V30 1193 H 110.366 0.223499 5.02503 0
M  V30 1194 H 110.066 1.89545 5.56189 0
M  V30 1195 H 111.59 1.07782 6.01012 0
M  V30 1196 H 113.004 3.03775 4.86203 0
M  V30 1197 H 111.401 3.79875 4.64559 0
M  V30 1198 H 112.471 3.6025 3.24573 0
M  V30 1199 N 113.814 -1.1601 1.06675 0
M  V30 1200 C 115.06 -1.86909 0.786945 0
M  V30 1201 C 115.393 -1.81717 -0.685018 0
M  V30 1202 O 114.668 -1.23551 -1.50218 0
M  V30 1203 C 114.951 -3.36313 1.28707 0
M  V30 1204 C 114.804 -3.50175 2.82308 0
M  V30 1205 C 116.123 -4.3084 0.898071 0
M  V30 1206 H 113.242 -0.678677 0.287343 0
M  V30 1207 H 115.884 -1.36336 1.32334 0
M  V30 1208 H 114.034 -3.79513 0.830768 0
M  V30 1209 H 115.706 -3.15886 3.36175 0
M  V30 1210 H 113.949 -2.91959 3.20847 0
M  V30 1211 H 114.62 -4.55116 3.12368 0
M  V30 1212 H 117.096 -3.95561 1.29114 0
M  V30 1213 H 115.972 -5.33876 1.27543 0
M  V30 1214 H 116.233 -4.41662 -0.196651 0
M  V30 1215 N 115.292 -0.849877 -1.32721 0
M  V30 1216 C 116.224 -0.248332 -2.27851 0
M  V30 1217 C 117.237 0.577218 -1.52224 0
M  V30 1218 O 118.426 0.402489 -1.73903 0
M  V30 1219 C 115.526 0.668107 -3.32249 0
M  V30 1220 C 114.699 -0.120534 -4.37234 0
M  V30 1221 C 113.758 0.720932 -5.21238 0
M  V30 1222 O 112.784 0.156166 -5.68986 0
M  V30 1223 N 113.986 2.03647 -5.43607 0
M  V30 1224 H 116.751 -1.06575 -2.80111 0
M  V30 1225 H 114.312 -0.709395 -1.45531 0
M  V30 1226 H 116.304 1.23627 -3.85355 0
M  V30 1227 H 114.874 1.38621 -2.80184 0
M  V30 1228 H 114.094 -0.870108 -3.84477 0
M  V30 1229 H 115.382 -0.662406 -5.0447 0
M  V30 1230 H 114.78 2.51871 -5.06535 0
M  V30 1231 H 113.337 2.55287 -5.99727 0
M  V30 1232 N 116.77 1.45427 -0.607355 0
M  V30 1233 C 118 2.06314 -0.108656 0
M  V30 1234 C 118.408 1.45269 1.21217 0
M  V30 1235 O 117.751 0.561115 1.74921 0
M  V30 1236 C 117.813 3.59345 0.105618 0
M  V30 1237 C 117.477 4.42723 -1.13337 0
M  V30 1238 C 118.474 4.77715 -2.05145 0
M  V30 1239 C 116.159 4.83478 -1.36213 0
M  V30 1240 C 118.153 5.52317 -3.18158 0
M  V30 1241 C 115.84 5.57835 -2.49527 0
M  V30 1242 C 116.838 5.92171 -3.40327 0
M  V30 1243 O 116.526 6.65019 -4.51669 0
M  V30 1244 H 116.258 0.672782 -0.0658842 0
M  V30 1245 H 118.812 1.87664 -0.834945 0
M  V30 1246 H 117.042 3.76394 0.886796 0
M  V30 1247 H 118.731 4.02076 0.555886 0
M  V30 1248 H 119.497 4.46787 -1.88697 0
M  V30 1249 H 115.376 4.56188 -0.664362 0
M  V30 1250 H 118.92 5.79036 -3.89054 0
M  V30 1251 H 114.817 5.88177 -2.65928 0
M  V30 1252 H 115.585 6.83469 -4.50348 0
M  V30 1253 N 118.248 0.346503 1.53744 0
M  V30 1254 C 119.478 -0.250047 2.05081 0
M  V30 1255 C 119.886 -1.44529 1.22098 0
M  V30 1256 O 119.229 -1.81992 0.249917 0
M  V30 1257 C 119.291 -0.725934 3.52094 0
M  V30 1258 C 118.955 0.350053 4.55657 0
M  V30 1259 C 119.952 1.19372 5.0601 0
M  V30 1260 C 117.637 0.504827 4.99757 0
M  V30 1261 C 119.631 2.17768 5.99046 0
M  V30 1262 C 117.318 1.49218 5.92602 0
M  V30 1263 C 118.316 2.32706 6.42135 0
M  V30 1264 O 118.004 3.2976 7.33153 0
M  V30 1265 H 117.736 -0.0515469 0.674032 0
M  V30 1266 H 120.29 0.497559 1.99282 0
M  V30 1267 H 118.52 -1.52483 3.55367 0
M  V30 1268 H 120.209 -1.24336 3.86388 0
M  V30 1269 H 120.975 1.08525 4.72702 0
M  V30 1270 H 116.854 -0.135178 4.60802 0
M  V30 1271 H 120.398 2.82971 6.37631 0
M  V30 1272 H 116.295 1.6012 6.25325 0
M  V30 1273 H 117.063 3.25265 7.51096 0
M  V30 1274 N 119.726 -1.57421 0.075193 0
M  V30 1275 C 120.659 -2.08528 -0.926904 0
M  V30 1276 C 121.637 -0.991171 -1.28898 0
M  V30 1277 O 122.821 -1.26479 -1.39769 0
M  V30 1278 C 119.948 -2.54576 -2.23402 0
M  V30 1279 C 118.994 -3.75454 -2.02327 0
M  V30 1280 S 119.827 -5.19989 -1.27951 0
M  V30 1281 C 120.983 -5.69372 -2.59935 0
M  V30 1282 H 121.216 -2.932 -0.492048 0
M  V30 1283 H 118.749 -1.53785 -0.137651 0
M  V30 1284 H 120.707 -2.81767 -2.98526 0
M  V30 1285 H 119.368 -1.70166 -2.64012 0
M  V30 1286 H 118.561 -4.05675 -2.99071 0
M  V30 1287 H 118.163 -3.48654 -1.35339 0
M  V30 1288 H 120.455 -5.76424 -3.56008 0
M  V30 1289 H 121.398 -6.68207 -2.34319 0
M  V30 1290 H 121.806 -4.97205 -2.67296 0
M  V30 1291 N 121.204 0.198386 -1.56346 0
M  V30 1292 C 122.114 1.2664 -1.97483 0
M  V30 1293 C 123.13 1.49989 -0.882002 0
M  V30 1294 O 124.306 1.62668 -1.18748 0
M  V30 1295 C 121.371 2.59141 -2.30319 0
M  V30 1296 C 120.432 2.43892 -3.53292 0
M  V30 1297 C 119.665 3.70074 -3.84553 0
M  V30 1298 O 119.888 4.74101 -3.1715 0
M  V30 1299 O 118.822 3.658 -4.7799 0
M  V30 1300 H 122.648 0.947304 -2.88548 0
M  V30 1301 H 120.233 0.403123 -1.43859 0
M  V30 1302 H 122.115 3.37352 -2.5253 0
M  V30 1303 H 120.79 2.90684 -1.42423 0
M  V30 1304 H 119.697 1.63803 -3.36332 0
M  V30 1305 H 121.03 2.17282 -4.41644 0
M  V30 1306 N 122.682 1.50554 0.465978 0
M  V30 1307 C 123.632 1.66177 1.56106 0
M  V30 1308 C 124.616 0.516265 1.52393 0
M  V30 1309 O 125.808 0.770906 1.5933 0
M  V30 1310 C 122.937 1.76396 2.94515 0
M  V30 1311 C 122.023 2.9664 3.03093 0
M  V30 1312 N 122.414 4.20245 2.81474 0
M  V30 1313 C 120.712 2.95304 3.34233 0
M  V30 1314 C 121.413 5.01259 2.95151 0
M  V30 1315 N 120.389 4.35318 3.25576 0
M  V30 1316 H 124.191 2.59434 1.38099 0
M  V30 1317 H 121.705 1.47808 0.6728 0
M  V30 1318 H 123.702 1.85694 3.73261 0
M  V30 1319 H 122.362 0.843017 3.13565 0
M  V30 1320 H 123.373 4.4966 2.56956 0
M  V30 1321 H 120.05 2.12729 3.59239 0
M  V30 1322 H 121.44 6.09564 2.82632 0
M  V30 1323 N 124.16 -0.719506 1.40217 0
M  V30 1324 C 125.11 -1.8251 1.36653 0
M  V30 1325 C 126.094 -1.59028 0.244732 0
M  V30 1326 O 127.286 -1.70268 0.483524 0
M  V30 1327 C 124.415 -3.20599 1.22763 0
M  V30 1328 C 123.501 -3.49858 2.39708 0
M  V30 1329 N 123.892 -3.49957 3.6519 0
M  V30 1330 C 122.19 -3.80297 2.33002 0
M  V30 1331 C 122.891 -3.77449 4.42614 0
M  V30 1332 N 121.867 -3.96002 3.72402 0
M  V30 1333 H 125.669 -1.80914 2.31619 0
M  V30 1334 H 123.183 -0.918455 1.33933 0
M  V30 1335 H 125.18 -3.99766 1.18292 0
M  V30 1336 H 123.84 -3.23424 0.287614 0
M  V30 1337 H 124.851 -3.309 3.98404 0
M  V30 1338 H 121.528 -3.90635 1.47346 0
M  V30 1339 H 122.918 -3.83863 5.51451 0
M  V30 1340 N 125.638 -1.25649 -0.95132 0
M  V30 1341 C 126.886 -1.10375 -1.69298 0
M  V30 1342 C 127.207 0.355339 -1.91735 0
M  V30 1343 O 126.477 1.25188 -1.50681 0
M  V30 1344 H 125.057 -0.405461 -0.627384 0
M  V30 1345 H 127.719 -1.57823 -1.14358 0
M  V30 1346 H 126.815 -1.61465 -2.67087 0
M  V30 1347 N 127.117 1.15442 -1.07289 0
M  V30 1348 C 128.049 2.19773 -0.650585 0
M  V30 1349 C 129.062 1.60076 0.296572 0
M  V30 1350 O 130.251 1.78293 0.0859905 0
M  V30 1351 C 127.351 3.38838 0.0650398 0
M  V30 1352 C 126.524 4.2808 -0.898141 0
M  V30 1353 C 125.583 5.2574 -0.219926 0
M  V30 1354 O 124.609 5.62654 -0.860773 0
M  V30 1355 N 125.811 5.71205 1.03466 0
M  V30 1356 H 128.576 2.56622 -1.54808 0
M  V30 1357 H 126.137 1.30551 -0.957494 0
M  V30 1358 H 128.129 4.01222 0.529415 0
M  V30 1359 H 126.699 3.00409 0.864466 0
M  V30 1360 H 125.919 3.62804 -1.54165 0
M  V30 1361 H 127.207 4.84577 -1.5512 0
M  V30 1362 H 126.605 5.43325 1.57526 0
M  V30 1363 H 125.162 6.35633 1.44272 0
M  V30 1364 N 128.595 0.856903 1.32268 0
M  V30 1365 C 129.525 0.31858 2.31316 0
M  V30 1366 C 130.506 -0.583487 1.59779 0
M  V30 1367 O 131.691 -0.503259 1.87566 0
M  V30 1368 C 128.821 -0.491979 3.43798 0
M  V30 1369 C 127.775 0.315849 4.26833 0
M  V30 1370 C 127.101 -0.619586 5.31098 0
M  V30 1371 C 128.401 1.54282 4.98993 0
M  V30 1372 H 130.095 1.14621 2.76591 0
M  V30 1373 H 127.641 0.552613 1.32974 0
M  V30 1374 H 129.594 -0.879012 4.1213 0
M  V30 1375 H 128.318 -1.35299 2.97257 0
M  V30 1376 H 126.977 0.684664 3.6015 0
M  V30 1377 H 126.625 -1.47751 4.8081 0
M  V30 1378 H 126.325 -0.0830621 5.87541 0
M  V30 1379 H 127.849 -1.00375 6.02293 0
M  V30 1380 H 129.263 1.22796 5.59995 0
M  V30 1381 H 127.66 2.01745 5.65172 0
M  V30 1382 H 128.73 2.30285 4.26728 0
M  V30 1383 N 130.073 -1.45103 0.615059 0
M  V30 1384 C 131.02 -2.30586 -0.0993978 0
M  V30 1385 C 131.99 -1.42544 -0.852669 0
M  V30 1386 O 133.175 -1.71465 -0.836917 0
M  V30 1387 C 130.315 -3.27572 -1.08583 0
M  V30 1388 C 129.428 -4.30717 -0.332656 0
M  V30 1389 C 128.563 -5.14807 -1.30947 0
M  V30 1390 C 127.602 -6.09673 -0.544538 0
M  V30 1391 N 126.739 -6.86517 -1.47101 0
M  V30 1392 H 131.579 -2.91144 0.635542 0
M  V30 1393 H 129.116 -1.4346 0.325206 0
M  V30 1394 H 131.074 -3.82276 -1.67095 0
M  V30 1395 H 129.704 -2.68751 -1.78809 0
M  V30 1396 H 128.756 -3.78615 0.368107 0
M  V30 1397 H 130.068 -4.98102 0.263842 0
M  V30 1398 H 129.222 -5.73948 -1.96643 0
M  V30 1399 H 127.961 -4.47458 -1.9399 0
M  V30 1400 H 126.966 -5.49656 0.126003 0
M  V30 1401 H 128.191 -6.79052 0.080947 0
M  V30 1402 H 126.137 -6.21851 -2.08895 0
M  V30 1403 H 126.054 -7.50281 -0.928137 0
M  V30 1404 H 127.322 -7.50194 -2.11731 0
M  V30 1405 N 131.551 -0.354651 -1.53558 0
M  V30 1406 C 132.461 0.50515 -2.29097 0
M  V30 1407 C 133.477 1.10223 -1.34636 0
M  V30 1408 O 134.653 1.11553 -1.67684 0
M  V30 1409 C 131.718 1.63479 -3.05738 0
M  V30 1410 C 130.779 1.06636 -4.15845 0
M  V30 1411 C 130.012 2.14217 -4.88822 0
M  V30 1412 O 130.235 3.35137 -4.61562 0
M  V30 1413 O 129.169 1.77887 -5.75013 0
M  V30 1414 H 132.995 -0.109237 -3.03503 0
M  V30 1415 H 130.58 -0.119357 -1.48922 0
M  V30 1416 H 132.462 2.2918 -3.5363 0
M  V30 1417 H 131.137 2.23478 -2.34178 0
M  V30 1418 H 130.044 0.373565 -3.7223 0
M  V30 1419 H 131.377 0.511081 -4.89539 0
M  V30 1420 N 133.029 1.57378 -0.0835403 0
M  V30 1421 C 133.976 2.13384 0.879539 0
M  V30 1422 C 134.946 1.04936 1.28754 0
M  V30 1423 O 136.131 1.32662 1.37133 0
M  V30 1424 C 133.271 2.70932 2.13752 0
M  V30 1425 C 132.384 3.93575 1.7811 0
M  V30 1426 C 131.519 4.39326 2.98607 0
M  V30 1427 C 130.558 5.54587 2.59037 0
M  V30 1428 N 129.695 5.95243 3.72331 0
M  V30 1429 H 134.535 2.9537 0.395076 0
M  V30 1430 H 132.072 1.45953 0.183349 0
M  V30 1431 H 134.03 3.02411 2.87408 0
M  V30 1432 H 132.66 1.91693 2.59718 0
M  V30 1433 H 131.712 3.68483 0.94469 0
M  V30 1434 H 133.024 4.77258 1.45005 0
M  V30 1435 H 132.178 4.72528 3.80529 0
M  V30 1436 H 130.917 3.5452 3.34913 0
M  V30 1437 H 129.922 5.21024 1.75539 0
M  V30 1438 H 131.147 6.41133 2.23887 0
M  V30 1439 H 129.093 5.13385 4.08378 0
M  V30 1440 H 129.01 6.73694 3.43034 0
M  V30 1441 H 130.278 6.33072 4.54797 0
M  V30 1442 N 134.507 -0.190092 1.56449 0
M  V30 1443 C 135.455 -1.25501 1.95837 0
M  V30 1444 C 136.449 -1.4685 0.844485 0
M  V30 1445 O 137.655 -1.47651 1.02952 0
M  V30 1446 H 134.03 -0.421447 0.622805 0
M  V30 1447 H 136.001 -0.895821 2.84636 0
M  V30 1448 C 134.75 -2.59124 2.31841 0
M  V30 1449 H 134.073 -2.43514 3.17082 0
M  V30 1450 H 135.513 -3.32371 2.6326 0
M  V30 1451 C 133.972 -3.16488 1.15486 0
M  V30 1452 O 134.502 -3.99365 0.432535 0
M  V30 1453 N 132.708 -2.75305 0.930349 0
M  V30 1454 H 132.255 -2.08013 1.51948 0
M  V30 1455 H 132.213 -3.14024 0.153634 0
M  V30 1456 N 135.985 -1.50799 -0.457987 0
M  V30 1457 C 137.233 -1.62121 -1.2067 0
M  V30 1458 C 137.554 -0.329793 -1.92191 0
M  V30 1459 O 136.824 0.653409 -1.84682 0
M  V30 1460 H 135.404 -0.597441 -0.448411 0
M  V30 1461 H 138.066 -1.87637 -0.527096 0
M  V30 1462 H 137.162 -2.43882 -1.94751 0
M  V30 1463 N 137.463 0.71206 -1.40597 0
M  V30 1464 C 138.74 1.46536 -1.29563 0
M  V30 1465 C 139.12 2.10931 0.0844217 0
M  V30 1466 O 138.468 2.00418 1.0975 0
M  V30 1467 C 138.678 2.49821 -2.43701 0
M  V30 1468 C 140.026 3.15551 -2.841 0
M  V30 1469 O 141.05 2.60142 -2.4332 0
M  V30 1470 O 139.909 4.15867 -3.54566 0
M  V30 1471 H 137.003 0.651801 -0.509004 0
M  V30 1472 H 139.549 0.743935 -1.52524 0
M  V30 1473 H 138.321 2.00778 -3.35863 0
M  V30 1474 H 137.944 3.29495 -2.22528 0
M  V30 1475 N 138.941 1.26152 0.944643 0
M  V30 1476 C 140.187 1.11657 1.69294 0
M  V30 1477 C 140.52 -0.339926 1.91202 0
M  V30 1478 O 139.795 -1.24994 1.49019 0
M  V30 1479 C 140.078 1.88236 3.06984 0
M  V30 1480 C 139.931 3.41772 2.92424 0
M  V30 1481 C 141.25 1.67343 4.07043 0
M  V30 1482 H 138.369 0.407004 0.614424 0
M  V30 1483 H 141.011 1.55106 1.09737 0
M  V30 1484 H 139.161 1.51308 3.57824 0
M  V30 1485 H 140.833 3.88433 2.48832 0
M  V30 1486 H 139.076 3.68974 2.28124 0
M  V30 1487 H 139.747 3.90579 3.90067 0
M  V30 1488 H 142.223 1.99509 3.65151 0
M  V30 1489 H 141.099 2.23346 5.01406 0
M  V30 1490 H 141.36 0.617158 4.37771 0
M  V30 1491 N 140.419 -1.14872 1.07899 0
M  V30 1492 C 141.668 -1.85135 0.800499 0
M  V30 1493 C 141.981 -1.83547 -0.676014 0
M  V30 1494 O 143.187 -2.49548 -1.06948 0
M  V30 1495 C 141.643 -3.3231 1.38197 0
M  V30 1496 C 141.251 -3.42329 2.8899 0
M  V30 1497 C 142.995 -4.0772 1.18174 0
M  V30 1498 C 140.902 -4.83684 3.403 0
M  V30 1499 H 139.832 -0.693563 0.29578 0
M  V30 1500 H 142.483 -1.29532 1.29976 0
M  V30 1501 H 140.865 -3.87618 0.810431 0
M  V30 1502 H 142.039 -2.97097 3.52236 0
M  V30 1503 H 140.354 -2.80369 3.07867 0
M  V30 1504 H 142.951 -5.12049 1.5398 0
M  V30 1505 H 143.294 -4.16124 0.12117 0
M  V30 1506 H 143.827 -3.58696 1.71994 0
M  V30 1507 H 140.566 -4.80465 4.45907 0
M  V30 1508 H 140.086 -5.29474 2.81811 0
M  V30 1509 H 141.765 -5.52558 3.36584 0
M  V30 1510 N 141.898 -0.863906 -1.31812 0
M  V30 1511 C 142.808 -0.318461 -2.32428 0
M  V30 1512 C 143.824 0.568496 -1.64451 0
M  V30 1513 O 145 0.46666 -1.95919 0
M  V30 1514 C 142.065 0.476355 -3.43412 0
M  V30 1515 C 141.126 -0.43784 -4.27061 0
M  V30 1516 C 140.359 0.319138 -5.32745 0
M  V30 1517 O 140.582 1.54799 -5.48993 0
M  V30 1518 O 139.516 -0.319861 -6.01049 0
M  V30 1519 H 143.342 -1.15229 -2.80991 0
M  V30 1520 H 140.927 -0.627103 -1.35602 0
M  V30 1521 H 142.809 0.927156 -4.11074 0
M  V30 1522 H 141.484 1.28683 -2.97022 0
M  V30 1523 H 140.391 -0.937013 -3.62175 0
M  V30 1524 H 141.724 -1.21375 -4.77 0
M  V30 1525 N 143.376 1.44774 -0.622745 0
M  V30 1526 C 144.306 2.33382 0.0741861 0
M  V30 1527 C 145.287 1.47719 0.843387 0
M  V30 1528 O 146.472 1.76458 0.810934 0
M  V30 1529 C 143.602 3.30663 1.06204 0
M  V30 1530 C 142.556 4.26079 0.405037 0
M  V30 1531 C 141.882 5.13165 1.5022 0
M  V30 1532 C 143.182 5.1781 -0.683414 0
M  V30 1533 H 144.876 2.91905 -0.665713 0
M  V30 1534 H 142.422 1.40363 -0.321587 0
M  V30 1535 H 144.375 3.9153 1.55827 0
M  V30 1536 H 143.099 2.70331 1.83272 0
M  V30 1537 H 141.758 3.66532 -0.0704683 0
M  V30 1538 H 141.406 4.49191 2.26355 0
M  V30 1539 H 141.106 5.77812 1.06803 0
M  V30 1540 H 142.63 5.76902 2.00041 0
M  V30 1541 H 144.044 5.72661 -0.270631 0
M  V30 1542 H 142.441 5.91015 -1.04023 0
M  V30 1543 H 143.511 4.59326 -1.55395 0
M  V30 1544 N 144.854 0.36279 1.53368 0
M  V30 1545 C 145.801 -0.485008 2.25646 0
M  V30 1546 C 146.771 -1.07982 1.2621 0
M  V30 1547 O 147.956 -1.11284 1.54986 0
M  V30 1548 C 145.096 -1.62023 3.04701 0
M  V30 1549 C 144.209 -1.05086 4.19024 0
M  V30 1550 C 143.344 -2.15496 4.85525 0
M  V30 1551 C 142.383 -1.5601 5.91884 0
M  V30 1552 N 141.52 -2.60241 6.52088 0
M  V30 1553 H 146.36 0.137864 2.97681 0
M  V30 1554 H 143.897 0.0798061 1.46883 0
M  V30 1555 H 145.855 -2.28887 3.48807 0
M  V30 1556 H 144.485 -2.2138 2.34927 0
M  V30 1557 H 143.537 -0.27259 3.79422 0
M  V30 1558 H 144.849 -0.575926 4.95464 0
M  V30 1559 H 144.003 -2.90186 5.32801 0
M  V30 1560 H 142.742 -2.66341 4.08551 0
M  V30 1561 H 141.747 -0.798338 5.43973 0
M  V30 1562 H 142.972 -1.05994 6.70777 0
M  V30 1563 H 140.918 -3.10304 5.77968 0
M  V30 1564 H 140.835 -2.17426 7.24059 0
M  V30 1565 H 142.103 -3.34641 7.04014 0
M  V30 1566 N 146.332 -1.57332 0.0918853 0
M  V30 1567 C 147.562 -1.98286 -0.580205 0
M  V30 1568 C 147.97 -0.969713 -1.6246 0
M  V30 1569 O 147.313 0.0493501 -1.83634 0
M  V30 1570 C 147.375 -3.35603 -1.28882 0
M  V30 1571 C 147.039 -4.55285 -0.395559 0
M  V30 1572 C 148.036 -5.18687 0.355002 0
M  V30 1573 C 145.721 -5.01314 -0.314556 0
M  V30 1574 C 147.715 -6.26484 1.17458 0
M  V30 1575 C 145.402 -6.08979 0.508677 0
M  V30 1576 C 146.4 -6.71429 1.2519 0
M  V30 1577 O 146.088 -7.77018 2.06151 0
M  V30 1578 H 145.82 -0.656678 -0.160466 0
M  V30 1579 H 148.374 -2.04721 0.16688 0
M  V30 1580 H 146.604 -3.25842 -2.08241 0
M  V30 1581 H 148.293 -3.61026 -1.85512 0
M  V30 1582 H 149.059 -4.84058 0.302134 0
M  V30 1583 H 144.938 -4.5247 -0.882697 0
M  V30 1584 H 148.482 -6.75159 1.75518 0
M  V30 1585 H 144.379 -6.4304 0.563037 0
M  V30 1586 H 145.147 -7.93991 1.98799 0
M  V30 1587 N 147.81 0.181792 -1.56548 0
M  V30 1588 C 149.221 0.745244 -1.71181 0
M  V30 1589 C 149.572 1.83262 -0.70068 0
M  V30 1590 O 148.697 2.15946 0.140154 0
M  V30 1591 C 149.292 1.35859 -3.10367 0
M  V30 1592 C 147.851 1.86898 -3.2672 0
M  V30 1593 C 146.998 0.743942 -2.67134 0
M  V30 1594 H 149.949 -0.0434661 -1.5864 0
M  V30 1595 H 149.97 2.22817 -3.08436 0
M  V30 1596 H 149.482 0.566948 -3.83937 0
M  V30 1597 H 147.583 2.68738 -2.5809 0
M  V30 1598 H 147.696 2.02162 -4.34359 0
M  V30 1599 H 146.06 1.16169 -2.26665 0
M  V30 1600 H 146.843 -0.035676 -3.43281 0
M  V30 1601 N 149.288 1.51039 0.449983 0
M  V30 1602 C 150.218 1.74379 1.55288 0
M  V30 1603 C 151.199 0.593236 1.5942 0
M  V30 1604 O 152.384 0.834625 1.7535 0
M  V30 1605 C 149.514 1.85728 2.93466 0
M  V30 1606 C 148.468 3.01078 3.04197 0
M  V30 1607 C 147.794 2.97595 4.44231 0
M  V30 1608 C 149.094 4.41254 2.7945 0
M  V30 1609 H 150.788 2.66725 1.36008 0
M  V30 1610 H 148.334 1.2835 0.652864 0
M  V30 1611 H 150.287 2.0064 3.70569 0
M  V30 1612 H 149.011 0.900207 3.13949 0
M  V30 1613 H 147.67 2.85851 2.29531 0
M  V30 1614 H 147.318 1.99691 4.61663 0
M  V30 1615 H 147.018 3.75046 4.52343 0
M  V30 1616 H 148.542 3.14583 5.23326 0
M  V30 1617 H 149.956 4.56897 3.46292 0
M  V30 1618 H 148.353 5.20315 2.98985 0
M  V30 1619 H 149.423 4.52164 1.75144 0
M  V30 1620 N 150.766 -0.704594 1.40972 0
M  V30 1621 C 151.714 -1.83994 1.42299 0
M  V30 1622 C 152.708 -1.66684 0.302111 0
M  V30 1623 O 153.914 -1.73655 0.473697 0
M  V30 1624 H 150.289 -0.606171 0.44504 0
M  V30 1625 H 152.26 -1.79992 2.38003 0
M  V30 1626 C 151.009 -3.21946 1.31323 0
M  V30 1627 H 150.332 -3.35878 2.16855 0
M  V30 1628 H 151.772 -4.01491 1.36311 0
M  V30 1629 C 150.231 -3.36891 0.0245977 0
M  V30 1630 O 150.761 -3.90687 -0.934153 0
M  V30 1631 N 148.967 -2.90559 -0.0485243 0
M  V30 1632 H 148.514 -2.46968 0.732419 0
M  V30 1633 H 148.472 -3.00937 -0.910171 0
M  V30 1634 N 152.244 -1.26651 -0.937939 0
M  V30 1635 C 153.484 -1.13611 -1.69917 0
M  V30 1636 C 153.848 0.314687 -1.89404 0
M  V30 1637 O 155.049 0.567285 -2.62746 0
M  V30 1638 C 153.32 -1.88742 -3.03498 0
M  V30 1639 S 154.879 -1.91794 -3.94665 0
M  V30 1640 H 151.697 -0.405767 -0.583844 0
M  V30 1641 H 154.299 -1.60416 -1.11745 0
M  V30 1642 H 153.003 -2.9336 -2.86999 0
M  V30 1643 H 152.534 -1.42391 -3.66727 0
M  V30 1644 H 154.549 -1.00698 -4.85875 0
M  V30 1645 N 153.722 1.14298 -1.08507 0
M  V30 1646 C 154.685 2.17607 -0.719711 0
M  V30 1647 C 155.685 1.58907 0.245997 0
M  V30 1648 O 156.875 1.74181 0.0254081 0
M  V30 1649 C 154.007 3.40842 -0.0627695 0
M  V30 1650 H 155.2 2.51443 -1.63452 0
M  V30 1651 H 152.753 1.28963 -0.88307 0
M  V30 1652 H 153.488 3.12587 0.863716 0
M  V30 1653 H 153.273 3.84713 -0.757504 0
M  V30 1654 H 154.763 4.17221 0.177786 0
M  V30 1655 N 155.201 0.870884 1.31352 0
M  V30 1656 C 156.478 0.402907 1.91405 0
M  V30 1657 C 156.858 -1.11512 1.79244 0
M  V30 1658 O 156.206 -1.94411 1.2007 0
M  V30 1659 C 156.416 0.885301 3.37585 0
M  V30 1660 C 157.764 0.911971 4.14691 0
M  V30 1661 O 158.788 0.831016 3.46371 0
M  V30 1662 O 157.647 1.02927 5.3672 0
M  V30 1663 H 154.741 0.120698 0.818145 0
M  V30 1664 H 157.287 0.958857 1.40014 0
M  V30 1665 H 156.059 1.92889 3.40455 0
M  V30 1666 H 155.682 0.307714 3.96407 0
M  V30 1667 N 156.679 -1.44442 0.630414 0
M  V30 1668 C 158.09 -1.85434 0.217063 0
M  V30 1669 C 158.441 -1.52748 -1.23136 0
M  V30 1670 O 157.566 -0.965205 -1.93682 0
M  V30 1671 C 158.161 -3.36581 0.387168 0
M  V30 1672 C 156.72 -3.76389 0.0283297 0
M  V30 1673 C 155.867 -2.68296 0.700889 0
M  V30 1674 H 158.818 -1.34919 0.83562 0
M  V30 1675 H 158.839 -3.78657 -0.374086 0
M  V30 1676 H 158.351 -3.60339 1.44144 0
M  V30 1677 H 156.452 -3.58246 -1.02423 0
M  V30 1678 H 156.565 -4.77095 0.437892 0
M  V30 1679 H 154.929 -2.54335 0.136267 0
M  V30 1680 H 155.712 -2.94887 1.75774 0
M  V30 1681 N 158.157 -0.370918 -1.53173 0
M  V30 1682 C 159.385 0.217704 -2.05751 0
M  V30 1683 C 159.8 1.42018 -1.24404 0
M  V30 1684 O 159.157 1.80245 -0.286033 0
M  V30 1685 C 159.208 0.605954 -3.56385 0
M  V30 1686 O 158.929 -0.548734 -4.3465 0
M  V30 1687 C 160.43 1.2524 -4.25241 0
M  V30 1688 H 157.65 0.0371659 -0.66997 0
M  V30 1689 H 160.194 -0.530832 -1.9749 0
M  V30 1690 H 158.349 1.3044 -3.6478 0
M  V30 1691 H 158.763 -0.23376 -5.23979 0
M  V30 1692 H 160.237 1.47458 -5.3194 0
M  V30 1693 H 160.714 2.2143 -3.79296 0
M  V30 1694 H 161.32 0.595233 -4.21114 0
M  V30 1695 N 159.635 1.57281 -0.100228 0
M  V30 1696 C 160.86 1.99302 0.573881 0
M  V30 1697 C 161.285 0.979059 1.60611 0
M  V30 1698 O 160.643 -0.0517803 1.81226 0
M  V30 1699 C 160.691 3.40274 1.19358 0
M  V30 1700 O 159.795 3.41676 2.30935 0
M  V30 1701 H 159.136 0.647944 0.145138 0
M  V30 1702 H 161.666 2.03779 -0.183156 0
M  V30 1703 H 161.676 3.78078 1.53365 0
M  V30 1704 H 160.351 4.13594 0.437385 0
M  V30 1705 H 158.928 3.15672 1.98509 0
M  V30 1706 N 161.113 -0.173488 1.56642 0
M  V30 1707 C 162.023 -1.23482 1.99473 0
M  V30 1708 C 163.039 -1.48567 0.905752 0
M  V30 1709 O 164.215 -1.60758 1.21321 0
M  V30 1710 C 161.28 -2.55444 2.34413 0
M  V30 1711 C 160.341 -2.38241 3.57127 0
M  V30 1712 C 159.574 -3.63909 3.90392 0
M  V30 1713 O 159.797 -4.68996 3.24653 0
M  V30 1714 O 158.731 -3.58149 4.83749 0
M  V30 1715 H 162.557 -0.901279 2.90018 0
M  V30 1716 H 160.142 -0.380185 1.44482 0
M  V30 1717 H 162.024 -3.33292 2.57865 0
M  V30 1718 H 160.699 -2.88382 1.4703 0
M  V30 1719 H 159.606 -1.58431 3.38896 0
M  V30 1720 H 160.939 -2.10228 4.45045 0
M  V30 1721 N 162.591 -1.51276 -0.441967 0
M  V30 1722 C 164.007 -1.39349 -0.778083 0
M  V30 1723 C 164.207 -0.472212 -1.95889 0
M  V30 1724 O 163.263 0.0743551 -2.5239 0
M  V30 1725 C 164.576 -2.81292 -1.0628 0
M  V30 1726 C 166.124 -2.9041 -1.16751 0
M  V30 1727 C 166.599 -4.33251 -1.48519 0
M  V30 1728 N 168.09 -4.36336 -1.55453 0
M  V30 1729 C 168.825 -5.43885 -1.81596 0
M  V30 1730 N 168.321 -6.61601 -2.05562 0
M  V30 1731 N 170.114 -5.3136 -1.8334 0
M  V30 1732 H 162.265 -2.09729 0.335774 0
M  V30 1733 H 164.528 -0.943925 0.0878028 0
M  V30 1734 H 164.234 -3.50678 -0.267905 0
M  V30 1735 H 164.108 -3.20334 -1.99163 0
M  V30 1736 H 166.495 -2.21225 -1.95304 0
M  V30 1737 H 166.576 -2.54871 -0.217801 0
M  V30 1738 H 166.22 -5.02984 -0.704958 0
M  V30 1739 H 166.15 -4.66299 -2.44689 0
M  V30 1740 H 168.641 -3.51466 -1.38853 0
M  V30 1741 H 168.954 -7.39361 -2.24867 0
M  V30 1742 H 167.299 -6.64725 -2.02894 0
M  V30 1743 H 170.49 -4.38382 -1.64132 0
M  V30 1744 H 170.663 -6.15258 -2.03377 0
M  V30 1745 N 164.069 0.697108 -1.41344 0
M  V30 1746 C 165.315 1.45796 -1.41828 0
M  V30 1747 C 165.67 1.92382 -0.0261743 0
M  V30 1748 O 164.963 1.66522 0.947688 0
M  V30 1749 C 165.157 2.68553 -2.35826 0
M  V30 1750 C 164.986 2.33975 -3.84039 0
M  V30 1751 C 163.756 2.24414 -4.52732 0
M  V30 1752 C 165.954 1.97048 -4.75054 0
M  V30 1753 N 163.936 1.82705 -5.86082 0
M  V30 1754 C 165.307 1.66086 -5.9734 0
M  V30 1755 C 167.362 1.83845 -4.62715 0
M  V30 1756 C 166.065 1.23246 -7.08663 0
M  V30 1757 C 168.091 1.4241 -5.73998 0
M  V30 1758 C 167.453 1.12357 -6.95381 0
M  V30 1759 H 163.552 0.530859 -0.574206 0
M  V30 1760 H 166.136 0.806674 -1.77203 0
M  V30 1761 H 164.307 3.31404 -2.02549 0
M  V30 1762 H 166.039 3.35015 -2.2704 0
M  V30 1763 H 162.794 2.4276 -4.0665 0
M  V30 1764 H 163.218 1.64337 -6.56751 0
M  V30 1765 H 167.86 2.05734 -3.69369 0
M  V30 1766 H 165.578 1.00102 -8.01876 0
M  V30 1767 H 169.164 1.32746 -5.66454 0
M  V30 1768 H 168.044 0.807795 -7.80028 0
M  V30 1769 N 165.547 1.27147 0.931209 0
M  V30 1770 C 166.794 1.13278 1.67852 0
M  V30 1771 C 167.122 -0.32204 1.91815 0
M  V30 1772 O 166.377 -1.25224 1.50391 0
M  V30 1773 C 166.676 1.8579 3.05314 0
M  V30 1774 C 166.342 3.35657 3.01073 0
M  V30 1775 C 165.004 3.76536 2.99623 0
M  V30 1776 C 167.356 4.31299 2.92627 0
M  V30 1777 C 164.684 5.11426 2.87506 0
M  V30 1778 C 167.036 5.66242 2.82051 0
M  V30 1779 C 165.7 6.06418 2.7895 0
M  V30 1780 H 164.97 0.414515 0.614214 0
M  V30 1781 H 167.617 1.57712 1.08624 0
M  V30 1782 H 165.922 1.33854 3.68226 0
M  V30 1783 H 167.619 1.72491 3.62005 0
M  V30 1784 H 164.209 3.03146 3.02986 0
M  V30 1785 H 168.393 4.00692 2.92848 0
M  V30 1786 H 163.649 5.41705 2.83489 0
M  V30 1787 H 167.823 6.40026 2.74481 0
M  V30 1788 H 165.45 7.10895 2.69318 0
M  V30 1789 N 167.025 -1.13721 1.09112 0
M  V30 1790 C 167.975 -2.17082 0.697091 0
M  V30 1791 C 168.959 -1.58321 -0.286923 0
M  V30 1792 O 170.151 -1.7673 -0.0978008 0
M  V30 1793 C 167.28 -3.43105 0.115729 0
M  V30 1794 C 166.366 -4.0888 1.12596 0
M  V30 1795 N 166.757 -4.4987 2.31195 0
M  V30 1796 C 165.055 -4.35471 0.963366 0
M  V30 1797 C 165.756 -5.01094 2.95431 0
M  V30 1798 N 164.732 -4.95751 2.23006 0
M  V30 1799 H 168.534 -2.46524 1.6001 0
M  V30 1800 H 166.048 -1.30481 0.966869 0
M  V30 1801 H 168.045 -4.16491 -0.184555 0
M  V30 1802 H 166.705 -3.15138 -0.78217 0
M  V30 1803 H 167.716 -4.42678 2.68806 0
M  V30 1804 H 164.393 -4.17328 0.119878 0
M  V30 1805 H 165.783 -5.4263 3.96236 0
M  V30 1806 N 168.503 -0.877838 -1.30888 0
M  V30 1807 C 169.751 -0.491723 -1.96027 0
M  V30 1808 C 170.072 0.960827 -1.69685 0
M  V30 1809 O 169.342 1.67462 -1.01654 0
M  V30 1810 H 167.922 -0.17885 -0.725273 0
M  V30 1811 H 170.584 -1.11935 -1.59551 0
M  V30 1812 H 169.68 -0.656016 -3.05128 0
M  V30 1813 N 169.982 1.44106 -0.638065 0
M  V30 1814 C 170.932 2.27843 0.0847285 0
M  V30 1815 C 171.916 1.39055 0.809471 0
M  V30 1816 O 173.108 1.62808 0.694435 0
M  V30 1817 C 170.237 3.26497 1.06089 0
M  V30 1818 C 169.323 4.22772 0.33541 0
M  V30 1819 N 169.714 5.01737 -0.639787 0
M  V30 1820 C 168.012 4.42227 0.578921 0
M  V30 1821 C 168.713 5.71792 -1.06904 0
M  V30 1822 N 167.689 5.42079 -0.406395 0
M  V30 1823 H 171.491 2.86305 -0.663814 0
M  V30 1824 H 169.005 1.55627 -0.464122 0
M  V30 1825 H 171.002 3.8525 1.59337 0
M  V30 1826 H 169.662 2.69595 1.80966 0
M  V30 1827 H 170.673 5.07799 -1.01789 0
M  V30 1828 H 167.35 3.96415 1.31003 0
M  V30 1829 H 168.74 6.45205 -1.8751 0
M  V30 1830 N 171.46 0.379036 1.52974 0
M  V30 1831 C 172.39 -0.452706 2.29069 0
M  V30 1832 C 173.371 -1.07237 1.32039 0
M  V30 1833 O 174.556 -1.08708 1.60923 0
M  V30 1834 C 171.686 -1.5856 3.08992 0
M  V30 1835 C 170.64 -1.0925 4.13822 0
M  V30 1836 C 169.966 -2.31668 4.81907 0
M  V30 1837 C 171.266 -0.167702 5.22031 0
M  V30 1838 H 172.96 0.182181 2.98845 0
M  V30 1839 H 170.506 0.0890592 1.43724 0
M  V30 1840 H 172.459 -2.1742 3.6098 0
M  V30 1841 H 171.183 -2.24792 2.36931 0
M  V30 1842 H 169.842 -0.526494 3.628 0
M  V30 1843 H 169.49 -2.96386 4.06404 0
M  V30 1844 H 169.19 -1.9934 5.52754 0
M  V30 1845 H 170.714 -2.91189 5.36695 0
M  V30 1846 H 172.128 -0.664186 5.6944 0
M  V30 1847 H 170.525 0.0653265 6.00064 0
M  V30 1848 H 171.595 0.786347 4.78482 0
M  V30 1849 N 172.938 -1.57226 0.108567 0
M  V30 1850 C 174.163 -1.99604 -0.563303 0
M  V30 1851 C 174.588 -0.987563 -1.6009 0
M  V30 1852 O 173.946 0.0421687 -1.81251 0
M  V30 1853 C 173.994 -3.40902 -1.17552 0
M  V30 1854 O 173.098 -3.42896 -2.2912 0
M  V30 1855 H 172.439 -0.648704 -0.1417 0
M  V30 1856 H 174.969 -2.03679 0.193961 0
M  V30 1857 H 174.979 -3.78886 -1.51357 0
M  V30 1858 H 173.654 -4.1382 -0.415445 0
M  V30 1859 H 172.231 -3.1672 -1.96832 0
M  V30 1860 N 174.416 0.165178 -1.56732 0
M  V30 1861 C 175.664 0.879068 -1.8198 0
M  V30 1862 C 175.985 1.82514 -0.686561 0
M  V30 1863 O 175.255 1.93694 0.293146 0
M  V30 1864 H 173.835 0.327608 -0.671329 0
M  V30 1865 H 176.497 0.163526 -1.94213 0
M  V30 1866 H 175.593 1.45228 -2.76252 0
M  V30 1867 N 175.894 1.51508 0.433938 0
M  V30 1868 C 176.841 1.73068 1.52696 0
M  V30 1869 C 177.811 0.572441 1.55924 0
M  V30 1870 O 178.996 0.807253 1.72882 0
M  V30 1871 C 176.136 1.86474 2.90381 0
M  V30 1872 C 175.249 3.14037 2.96656 0
M  V30 1873 C 174.384 3.18019 4.25485 0
M  V30 1874 C 173.423 4.39882 4.2564 0
M  V30 1875 N 172.56 4.41394 5.45999 0
M  V30 1876 H 177.4 2.66366 1.33615 0
M  V30 1877 H 174.937 1.32008 0.649018 0
M  V30 1878 H 176.895 1.92229 3.70275 0
M  V30 1879 H 175.525 0.965809 3.08013 0
M  V30 1880 H 174.577 3.17575 2.09404 0
M  V30 1881 H 175.889 4.0394 2.92633 0
M  V30 1882 H 175.043 3.22708 5.13755 0
M  V30 1883 H 173.782 2.2601 4.3217 0
M  V30 1884 H 172.787 4.35366 3.35763 0
M  V30 1885 H 174.012 5.33159 4.20617 0
M  V30 1886 H 171.958 3.52258 5.53399 0
M  V30 1887 H 171.875 5.25111 5.4387 0
M  V30 1888 H 173.143 4.50281 6.36292 0
M  V30 1889 N 177.372 -0.689602 1.41712 0
M  V30 1890 C 178.282 -1.83314 1.46401 0
M  V30 1891 C 179.298 -1.7036 0.35405 0
M  V30 1892 O 180.474 -1.92171 0.602692 0
M  V30 1893 C 177.539 -3.19344 1.34982 0
M  V30 1894 C 176.6 -3.44363 2.56344 0
M  V30 1895 C 175.833 -4.73904 2.45461 0
M  V30 1896 O 176.056 -5.508 1.48241 0
M  V30 1897 O 174.99 -4.99839 3.35328 0
M  V30 1898 H 178.816 -1.82314 2.42889 0
M  V30 1899 H 176.401 -0.843438 1.23315 0
M  V30 1900 H 178.283 -4.00547 1.3092 0
M  V30 1901 H 176.958 -3.21014 0.41612 0
M  V30 1902 H 175.865 -2.63067 2.65982 0
M  V30 1903 H 177.198 -3.47512 3.48563 0
M  V30 1904 N 178.85 -1.27639 -0.924453 0
M  V30 1905 C 179.813 -1.10681 -2.00705 0
M  V30 1906 C 180.813 -0.0497823 -1.60723 0
M  V30 1907 O 182.003 -0.294654 -1.7169 0
M  V30 1908 C 179.135 -0.687164 -3.33902 0
M  V30 1909 H 180.328 -2.06817 -2.17179 0
M  V30 1910 H 177.881 -1.10473 -1.10569 0
M  V30 1911 H 178.616 0.275439 -3.23128 0
M  V30 1912 H 178.401 -1.45061 -3.6428 0
M  V30 1913 H 179.891 -0.590853 -4.13399 0
M  V30 1914 N 180.328 1.1314 -1.09713 0
M  V30 1915 C 181.238 2.22242 -0.751367 0
M  V30 1916 C 182.254 1.72224 0.247938 0
M  V30 1917 O 183.43 2.01205 0.0885463 0
M  V30 1918 C 180.495 3.46231 -0.180274 0
M  V30 1919 C 179.556 4.11125 -1.2359 0
M  V30 1920 C 178.789 5.29195 -0.691966 0
M  V30 1921 O 179.012 5.68342 0.48414 0
M  V30 1922 O 177.946 5.84214 -1.44838 0
M  V30 1923 H 181.772 2.54197 -1.66186 0
M  V30 1924 H 179.357 1.21331 -0.871735 0
M  V30 1925 H 181.239 4.21185 0.134739 0
M  V30 1926 H 179.914 3.1597 0.703185 0
M  V30 1927 H 178.821 3.37985 -1.60366 0
M  V30 1928 H 180.154 4.45524 -2.09211 0
M  V30 1929 N 181.806 0.884767 1.30421 0
M  V30 1930 C 182.753 0.349642 2.28136 0
M  V30 1931 C 183.723 -0.560061 1.56373 0
M  V30 1932 O 184.908 -0.488524 1.8444 0
M  V30 1933 C 182.048 -0.42999 3.42411 0
M  V30 1934 C 181.161 0.508907 4.28992 0
M  V30 1935 C 180.296 -0.286301 5.30428 0
M  V30 1936 C 179.335 0.648079 6.08659 0
M  V30 1937 N 178.472 -0.111792 7.02011 0
M  V30 1938 H 183.312 1.18807 2.73293 0
M  V30 1939 H 180.849 0.597231 1.3443 0
M  V30 1940 H 182.807 -0.897923 4.07423 0
M  V30 1941 H 181.437 -1.23299 2.98324 0
M  V30 1942 H 180.489 1.09533 3.64289 0
M  V30 1943 H 181.801 1.22475 4.8353 0
M  V30 1944 H 180.955 -0.816098 6.01186 0
M  V30 1945 H 179.694 -1.03536 4.76583 0
M  V30 1946 H 178.699 1.18951 5.36778 0
M  V30 1947 H 179.924 1.39623 6.64592 0
M  V30 1948 H 177.87 -0.843395 6.50556 0
M  V30 1949 H 177.787 0.544429 7.54037 0
M  V30 1950 H 179.055 -0.622339 7.77012 0
M  V30 1951 N 183.284 -1.43765 0.645699 0
M  V30 1952 C 184.214 -2.33471 -0.0370477 0
M  V30 1953 C 185.195 -1.49042 -0.819779 0
M  V30 1954 O 186.38 -1.77726 -0.782758 0
M  V30 1955 C 183.51 -3.32311 -1.0093 0
M  V30 1956 C 182.464 -4.2667 -0.337201 0
M  V30 1957 C 181.79 -5.1549 -1.42037 0
M  V30 1958 C 183.09 -5.16657 0.765706 0
M  V30 1959 H 184.784 -2.90809 0.712069 0
M  V30 1960 H 182.33 -1.39834 0.343876 0
M  V30 1961 H 184.283 -3.9396 -1.49578 0
M  V30 1962 H 183.007 -2.73213 -1.78948 0
M  V30 1963 H 181.666 -3.66374 0.128771 0
M  V30 1964 H 181.314 -4.52735 -2.1918 0
M  V30 1965 H 181.014 -5.79438 -0.975966 0
M  V30 1966 H 182.538 -5.80012 -1.90838 0
M  V30 1967 H 183.952 -5.72158 0.361702 0
M  V30 1968 H 182.349 -5.89286 1.13413 0
M  V30 1969 H 183.419 -4.56796 1.62683 0
M  V30 1970 N 184.763 -0.387143 -1.52771 0
M  V30 1971 C 185.693 0.440551 -2.29306 0
M  V30 1972 C 186.674 1.06535 -1.32606 0
M  V30 1973 O 187.859 1.07853 -1.61497 0
M  V30 1974 C 184.989 1.56919 -3.09829 0
M  V30 1975 C 183.943 1.07054 -4.14395 0
M  V30 1976 C 183.269 2.29109 -4.83129 0
M  V30 1977 C 184.569 0.140015 -5.22112 0
M  V30 1978 H 186.263 -0.198026 -2.98744 0
M  V30 1979 H 183.809 -0.09668 -1.43675 0
M  V30 1980 H 185.762 2.15503 -3.62128 0
M  V30 1981 H 184.486 2.23532 -2.3812 0
M  V30 1982 H 183.145 0.507247 -3.63074 0
M  V30 1983 H 182.793 2.94227 -4.0797 0
M  V30 1984 H 182.493 1.96406 -5.53804 0
M  V30 1985 H 184.017 2.88339 -5.38231 0
M  V30 1986 H 185.431 0.633978 -5.69784 0
M  V30 1987 H 183.828 -0.0971485 -6.00021 0
M  V30 1988 H 184.898 -0.811711 -4.78058 0
M  V30 1989 N 186.241 1.57166 -0.116904 0
M  V30 1990 C 187.469 1.99473 0.549383 0
M  V30 1991 C 187.884 0.996541 1.60357 0
M  V30 1992 O 187.241 -0.0108731 1.82497 0
M  V30 1993 C 187.292 3.41788 1.17741 0
M  V30 1994 O 187.013 4.37788 0.165362 0
M  V30 1995 C 188.514 3.99216 1.92722 0
M  V30 1996 H 185.734 0.655009 0.145616 0
M  V30 1997 H 188.278 2.03494 -0.202625 0
M  V30 1998 H 186.433 3.38713 1.88021 0
M  V30 1999 H 186.847 5.20806 0.621403 0
M  V30 2000 H 188.321 5.00882 2.31995 0
M  V30 2001 H 188.798 3.3824 2.80161 0
M  V30 2002 H 189.404 4.0583 1.27209 0
M  V30 2003 N 187.719 -0.156864 1.56817 0
M  V30 2004 C 188.629 -1.2136 2.00771 0
M  V30 2005 C 189.645 -1.47598 0.921459 0
M  V30 2006 O 190.821 -1.59462 1.2302 0
M  V30 2007 C 187.886 -2.52943 2.37109 0
M  V30 2008 C 186.947 -2.34439 3.59634 0
M  V30 2009 C 186.18 -3.59748 3.94229 0
M  V30 2010 O 186.403 -4.65526 3.29609 0
M  V30 2011 O 185.337 -3.52998 4.8752 0
M  V30 2012 H 189.163 -0.870468 2.90958 0
M  V30 2013 H 186.748 -0.36484 1.44877 0
M  V30 2014 H 188.63 -3.30538 2.61386 0
M  V30 2015 H 187.305 -2.86806 1.5008 0
M  V30 2016 H 186.212 -1.54828 3.40557 0
M  V30 2017 H 187.545 -2.05496 4.4725 0
M  V30 2018 N 189.197 -1.51736 -0.425897 0
M  V30 2019 C 190.144 -1.73875 -1.51776 0
M  V30 2020 C 191.114 -0.580702 -1.55618 0
M  V30 2021 O 192.299 -0.81641 -1.72451 0
M  V30 2022 C 189.439 -1.88012 -2.89388 0
M  V30 2023 C 188.552 -3.15606 -2.94986 0
M  V30 2024 C 187.687 -3.20271 -4.23793 0
M  V30 2025 C 186.726 -4.42134 -4.23302 0
M  V30 2026 N 185.863 -4.44284 -5.43651 0
M  V30 2027 H 190.703 -2.67071 -1.32201 0
M  V30 2028 H 188.24 -1.32351 -0.642008 0
M  V30 2029 H 190.198 -1.9419 -3.69251 0
M  V30 2030 H 188.828 -0.98213 -3.07496 0
M  V30 2031 H 187.88 -3.18681 -2.07717 0
M  V30 2032 H 189.192 -4.05486 -2.90486 0
M  V30 2033 H 188.346 -3.25428 -5.12036 0
M  V30 2034 H 187.085 -2.28299 -4.30965 0
M  V30 2035 H 186.09 -4.3714 -3.3345 0
M  V30 2036 H 187.315 -5.35382 -4.17783 0
M  V30 2037 H 185.261 -3.55188 -5.51523 0
M  V30 2038 H 185.178 -5.27988 -5.41078 0
M  V30 2039 H 186.446 -4.53649 -6.33895 0
M  V30 2040 N 190.675 0.682077 -1.42076 0
M  V30 2041 C 191.923 1.4393 -1.41876 0
M  V30 2042 C 192.244 1.94971 -0.0335599 0
M  V30 2043 O 191.514 1.72591 0.926773 0
M  V30 2044 H 190.094 0.534085 -0.522267 0
M  V30 2045 H 192.756 0.806427 -1.77434 0
M  V30 2046 H 191.852 2.29588 -2.11414 0
M  V30 2047 N 192.153 1.28127 0.917671 0
M  V30 2048 C 193.1 1.11717 2.0196 0
M  V30 2049 C 194.07 0.0153929 1.66093 0
M  V30 2050 O 195.255 0.179596 1.89953 0
M  V30 2051 C 192.395 0.780927 3.36148 0
M  V30 2052 C 191.508 1.96135 3.84909 0
M  V30 2053 C 190.643 1.56609 5.0759 0
M  V30 2054 C 189.682 2.71339 5.48673 0
M  V30 2055 N 188.819 2.32332 6.62545 0
M  V30 2056 H 193.659 2.06003 2.15329 0
M  V30 2057 H 191.196 1.02535 1.05475 0
M  V30 2058 H 193.154 0.56675 4.13333 0
M  V30 2059 H 191.784 -0.124998 3.22558 0
M  V30 2060 H 190.836 2.28777 3.03916 0
M  V30 2061 H 192.148 2.82165 4.1132 0
M  V30 2062 H 191.302 1.31374 5.92305 0
M  V30 2063 H 190.041 0.677014 4.82978 0
M  V30 2064 H 189.046 2.97276 4.62501 0
M  V30 2065 H 190.271 3.60882 5.75274 0
M  V30 2066 H 188.217 1.45889 6.39572 0
M  V30 2067 H 188.134 3.11899 6.88662 0
M  V30 2068 H 189.402 2.10371 7.50576 0
M  V30 2069 N 193.631 -1.12557 1.10312 0
M  V30 2070 C 194.581 -2.16331 0.720076 0
M  V30 2071 C 195.565 -1.58616 -0.270115 0
M  V30 2072 O 196.757 -1.76823 -0.0790507 0
M  V30 2073 C 193.886 -3.42963 0.152113 0
M  V30 2074 C 192.972 -4.07663 1.16927 0
M  V30 2075 N 193.363 -4.47392 2.35953 0
M  V30 2076 C 191.661 -4.34425 1.0095 0
M  V30 2077 C 192.362 -4.97932 3.0073 0
M  V30 2078 N 191.338 -4.93358 2.28252 0
M  V30 2079 H 195.14 -2.44813 1.62616 0
M  V30 2080 H 192.654 -1.29449 0.980654 0
M  V30 2081 H 194.651 -4.16664 -0.14037 0
M  V30 2082 H 193.311 -3.1595 -0.748701 0
M  V30 2083 H 194.322 -4.39802 2.73486 0
M  V30 2084 H 190.999 -4.17177 0.164134 0
M  V30 2085 H 192.389 -5.38397 4.01969 0
M  V30 2086 N 195.109 -0.891671 -1.2995 0
M  V30 2087 C 196.357 -0.512486 -1.95494 0
M  V30 2088 C 196.678 0.942776 -1.70695 0
M  V30 2089 O 195.948 1.66374 -1.03424 0
M  V30 2090 H 194.528 -0.186533 -0.723336 0
M  V30 2091 H 197.19 -1.13621 -1.58355 0
M  V30 2092 H 196.286 -0.688342 -3.04415 0
M  V30 2093 N 196.587 1.43421 -0.653314 0
M  V30 2094 C 197.812 2.06678 -0.172846 0
M  V30 2095 C 198.237 1.48648 1.15262 0
M  V30 2096 O 197.595 0.596457 1.71208 0
M  V30 2097 C 197.643 3.60474 -0.0953184 0
M  V30 2098 O 196.747 4.01487 0.942442 0
M  V30 2099 H 196.088 0.657181 -0.0949155 0
M  V30 2100 H 198.618 1.83925 -0.896265 0
M  V30 2101 H 198.628 4.07905 0.0879728 0
M  V30 2102 H 197.303 4.02088 -1.06291 0
M  V30 2103 H 195.88 3.65646 0.731932 0
M  V30 2104 N 198.065 0.39524 1.52563 0
M  V30 2105 C 199.312 -0.185044 2.01653 0
M  V30 2106 C 199.64 -1.46317 1.28146 0
M  V30 2107 O 198.895 -1.9213 0.372074 0
M  V30 2108 C 199.194 -0.493444 3.53977 0
M  V30 2109 C 198.86 0.69384 4.4553 0
M  V30 2110 C 197.522 1.01954 4.70275 0
M  V30 2111 C 199.874 1.48785 4.99512 0
M  V30 2112 C 197.202 2.14069 5.46252 0
M  V30 2113 C 199.554 2.59965 5.76716 0
M  V30 2114 C 198.218 2.93037 5.99738 0
M  V30 2115 H 197.488 -0.0677123 0.7379 0
M  V30 2116 H 200.135 0.533807 1.8391 0
M  V30 2117 H 198.44 -1.29369 3.69825 0
M  V30 2118 H 200.137 -0.955163 3.89458 0
M  V30 2119 H 196.727 0.429987 4.26438 0
M  V30 2120 H 200.911 1.24946 4.80315 0
M  V30 2121 H 196.167 2.40056 5.62302 0
M  V30 2122 H 200.341 3.21887 6.17545 0
M  V30 2123 H 197.968 3.8003 6.58393 0
M  V30 2124 N 199.544 -1.57102 0.125237 0
M  V30 2125 C 200.474 -2.18659 -0.819174 0
M  V30 2126 C 201.455 -1.12843 -1.27281 0
M  V30 2127 O 202.64 -1.41104 -1.33429 0
M  V30 2128 C 199.77 -2.79096 -2.06695 0
M  V30 2129 C 198.724 -3.90548 -1.75088 0
M  V30 2130 C 198.05 -4.37821 -3.06948 0
M  V30 2131 C 199.35 -5.12356 -1.01435 0
M  V30 2132 H 201.044 -2.9783 -0.306202 0
M  V30 2133 H 198.59 -1.4326 -0.145839 0
M  V30 2134 H 200.543 -3.2082 -2.73226 0
M  V30 2135 H 199.267 -1.97223 -2.60328 0
M  V30 2136 H 197.926 -3.49409 -1.10944 0
M  V30 2137 H 197.574 -3.52799 -3.58527 0
M  V30 2138 H 197.274 -5.12982 -2.86571 0
M  V30 2139 H 198.798 -4.822 -3.74587 0
M  V30 2140 H 200.212 -5.5106 -1.58132 0
M  V30 2141 H 198.609 -5.9314 -0.911319 0
M  V30 2142 H 199.679 -4.849 -0.00218681 0
M  V30 2143 N 201.022 0.148545 -1.56898 0
M  V30 2144 C 202.268 0.862694 -1.83536 0
M  V30 2145 C 202.601 1.80889 -0.706604 0
M  V30 2146 O 201.876 1.92328 0.289885 0
M  V30 2147 C 202.159 1.63853 -3.20662 0
M  V30 2148 C 202.012 0.713925 -4.44098 0
M  V30 2149 C 203.331 2.60133 -3.54991 0
M  V30 2150 H 200.45 0.312179 -0.667618 0
M  V30 2151 H 203.092 0.127953 -1.89569 0
M  V30 2152 H 201.242 2.26489 -3.1565 0
M  V30 2153 H 202.914 0.098686 -4.61194 0
M  V30 2154 H 201.157 0.0234019 -4.33794 0
M  V30 2155 H 201.828 1.29278 -5.36648 0
M  V30 2156 H 204.304 2.07616 -3.60603 0
M  V30 2157 H 203.18 3.11468 -4.51972 0
M  V30 2158 H 203.441 3.41417 -2.80868 0
M  V30 2159 N 202.5 1.5196 0.417844 0
M  V30 2160 C 203.916 1.40569 0.755816 0
M  V30 2161 C 204.116 0.503316 1.95113 0
M  V30 2162 O 203.172 -0.0341925 2.52477 0
M  V30 2163 C 204.485 2.82947 1.01791 0
M  V30 2164 C 206.033 2.92231 1.12116 0
M  V30 2165 C 206.508 4.35559 1.41608 0
M  V30 2166 N 207.999 4.38753 1.48491 0
M  V30 2167 C 208.734 5.46705 1.7292 0
M  V30 2168 N 208.23 6.64788 1.95011 0
M  V30 2169 N 210.023 5.34209 1.74863 0
M  V30 2170 H 202.174 2.09168 -0.369098 0
M  V30 2171 H 204.437 0.942409 -0.102809 0
M  V30 2172 H 204.143 3.5106 0.212081 0
M  V30 2173 H 204.017 3.23462 1.94042 0
M  V30 2174 H 206.404 2.24304 1.9176 0
M  V30 2175 H 206.485 2.55185 0.177225 0
M  V30 2176 H 206.129 5.04042 0.624848 0
M  V30 2177 H 206.059 4.70133 2.37239 0
M  V30 2178 H 208.55 3.5363 1.33244 0
M  V30 2179 H 208.863 7.42845 2.13076 0
M  V30 2180 H 207.208 6.67869 1.92293 0
M  V30 2181 H 210.399 4.40937 1.57137 0
M  V30 2182 H 210.572 6.18415 1.93563 0
M  V30 2183 N 203.978 -0.674533 1.42435 0
M  V30 2184 C 204.888 -1.81751 1.48337 0
M  V30 2185 C 205.904 -1.69975 0.372099 0
M  V30 2186 O 207.08 -1.91521 0.62304 0
M  V30 2187 C 204.145 -3.17895 1.38361 0
M  V30 2188 C 203.206 -3.41625 2.59982 0
M  V30 2189 C 202.439 -4.71274 2.50473 0
M  V30 2190 O 202.662 -5.49197 1.54075 0
M  V30 2191 O 201.596 -4.96254 3.4061 0
M  V30 2192 H 205.422 -1.79728 2.44809 0
M  V30 2193 H 203.007 -0.830312 1.24202 0
M  V30 2194 H 204.889 -3.99136 1.35161 0
M  V30 2195 H 203.564 -3.20555 0.450144 0
M  V30 2196 H 202.471 -2.60231 2.68757 0
M  V30 2197 H 203.804 -3.43796 3.52229 0
M  V30 2198 N 205.456 -1.28612 -0.910864 0
M  V30 2199 C 206.681 -1.1891 -1.69927 0
M  V30 2200 C 207.106 0.248372 -1.86453 0
M  V30 2201 O 206.464 1.17961 -1.37676 0
M  V30 2202 C 206.512 -1.89578 -3.06745 0
M  V30 2203 O 205.616 -1.20521 -3.94396 0
M  V30 2204 H 204.957 -0.412632 -0.520222 0
M  V30 2205 H 207.487 -1.69985 -1.1387 0
M  V30 2206 H 207.497 -1.97597 -3.56958 0
M  V30 2207 H 206.172 -2.94136 -2.94035 0
M  V30 2208 H 204.749 -1.20684 -3.52831 0
M  V30 2209 N 206.934 1.1197 -1.10907 0
M  V30 2210 C 207.866 2.17592 -0.720175 0
M  V30 2211 C 208.879 1.60938 0.245495 0
M  V30 2212 O 210.068 1.78476 0.0292245 0
M  V30 2213 C 207.168 3.38873 -0.0427917 0
M  V30 2214 C 206.341 4.25006 -1.03388 0
M  V30 2215 C 205.4 5.24774 -0.387075 0
M  V30 2216 O 204.426 5.59631 -1.03934 0
M  V30 2217 N 205.628 5.74208 0.852407 0
M  V30 2218 H 208.393 2.51567 -1.62893 0
M  V30 2219 H 205.954 1.27439 -0.998543 0
M  V30 2220 H 207.946 4.02703 0.401501 0
M  V30 2221 H 206.516 3.03007 0.768456 0
M  V30 2222 H 205.736 3.57716 -1.65629 0
M  V30 2223 H 207.024 4.79397 -1.70458 0
M  V30 2224 H 206.422 5.48062 1.40161 0
M  V30 2225 H 204.979 6.39901 1.23977 0
M  V30 2226 N 208.412 0.89855 1.29475 0
M  V30 2227 C 209.637 0.538561 2.00285 0
M  V30 2228 C 210.062 -0.869135 1.66816 0
M  V30 2229 O 209.42 -1.57831 0.892145 0
M  V30 2230 C 209.468 0.736475 3.52999 0
M  V30 2231 O 208.572 -0.211537 4.11857 0
M  V30 2232 H 207.913 0.210563 0.62973 0
M  V30 2233 H 210.443 1.20982 1.64998 0
M  V30 2234 H 210.453 0.640685 4.02938 0
M  V30 2235 H 209.128 1.76276 3.76696 0
M  V30 2236 H 207.705 -0.0682991 3.72837 0
M  V30 2237 N 209.89 -1.43072 0.660911 0
M  V30 2238 C 210.84 -2.27948 -0.04847 0
M  V30 2239 C 211.824 -1.40325 -0.787246 0
M  V30 2240 O 213.016 -1.63893 -0.668446 0
M  V30 2241 C 210.145 -3.28143 -1.00881 0
M  V30 2242 C 209.231 -4.23252 -0.268108 0
M  V30 2243 N 209.622 -5.00656 0.719528 0
M  V30 2244 C 207.92 -4.43092 -0.508493 0
M  V30 2245 C 208.621 -5.70019 1.15988 0
M  V30 2246 N 207.597 -5.41364 0.492584 0
M  V30 2247 H 211.399 -2.85213 0.709279 0
M  V30 2248 H 208.913 -1.54869 0.488822 0
M  V30 2249 H 210.91 -3.87736 -1.53188 0
M  V30 2250 H 209.57 -2.7244 -1.76654 0
M  V30 2251 H 210.581 -5.06115 1.09855 0
M  V30 2252 H 207.258 -3.98449 -1.24679 0
M  V30 2253 H 208.648 -6.4214 1.97751 0
M  V30 2254 N 211.368 -0.403325 -1.52352 0
M  V30 2255 C 212.779 0.0675782 -1.86578 0
M  V30 2256 C 213.13 1.44941 -1.32236 0
M  V30 2257 O 212.255 2.06112 -0.659307 0
M  V30 2258 C 212.85 0.129404 -3.38553 0
M  V30 2259 C 211.409 0.544629 -3.72439 0
M  V30 2260 C 210.556 -0.284551 -2.75836 0
M  V30 2261 H 213.507 -0.620631 -1.46061 0
M  V30 2262 H 213.528 0.94581 -3.68558 0
M  V30 2263 H 213.04 -0.87645 -3.78074 0
M  V30 2264 H 211.141 1.55734 -3.38493 0
M  V30 2265 H 211.254 0.293046 -4.78203 0
M  V30 2266 H 209.618 0.252258 -2.53448 0
M  V30 2267 H 210.401 -1.28865 -3.18196 0
M  V30 2268 N 212.846 1.57033 -0.133567 0
M  V30 2269 C 214.094 1.953 0.519848 0
M  V30 2270 C 214.415 1.01866 1.66278 0
M  V30 2271 O 213.685 0.0776513 1.95746 0
M  V30 2272 H 212.265 0.721091 0.195032 0
M  V30 2273 H 214.927 1.93809 -0.205921 0
M  V30 2274 H 214.023 2.98695 0.904854 0
M  V30 2275 N 214.325 -0.140222 1.56975 0
M  V30 2276 C 215.602 -0.880769 1.74648 0
M  V30 2277 C 215.982 -1.99036 0.703404 0
M  V30 2278 O 215.33 -2.26821 -0.27648 0
M  V30 2279 C 215.54 -1.417 3.18939 0
M  V30 2280 C 216.888 -1.87774 3.80823 0
M  V30 2281 O 217.912 -1.51427 3.2241 0
M  V30 2282 O 216.771 -2.54827 4.83452 0
M  V30 2283 H 213.865 -0.416713 0.714338 0
M  V30 2284 H 216.411 -0.125618 1.69234 0
M  V30 2285 H 215.183 -0.619902 3.86359 0
M  V30 2286 H 214.806 -2.23546 3.28805 0
M  V30 2287 N 215.803 -1.52179 -0.40978 0
M  V30 2288 C 217.05 -1.66206 -1.15679 0
M  V30 2289 C 217.378 -0.391674 -1.90516 0
M  V30 2290 O 216.633 0.62533 -1.8544 0
M  V30 2291 C 216.932 -2.83428 -2.17723 0
M  V30 2292 C 216.598 -4.21672 -1.59699 0
M  V30 2293 C 215.26 -4.59274 -1.43599 0
M  V30 2294 C 217.612 -5.07825 -1.17317 0
M  V30 2295 C 214.94 -5.80709 -0.836328 0
M  V30 2296 C 217.292 -6.29864 -0.587691 0
M  V30 2297 C 215.956 -6.66216 -0.413818 0
M  V30 2298 H 215.226 -0.608192 -0.423301 0
M  V30 2299 H 217.873 -1.86279 -0.444097 0
M  V30 2300 H 216.178 -2.57687 -2.95135 0
M  V30 2301 H 217.875 -2.91477 -2.75394 0
M  V30 2302 H 214.465 -3.9204 -1.73213 0
M  V30 2303 H 218.649 -4.79359 -1.28565 0
M  V30 2304 H 213.905 -6.07498 -0.689626 0
M  V30 2305 H 218.079 -6.95948 -0.250894 0
M  V30 2306 H 215.706 -7.60182 0.0529471 0
M  V30 2307 N 217.281 0.66697 -1.42791 0
M  V30 2308 C 218.527 1.4291 -1.43891 0
M  V30 2309 C 218.86 1.94114 -0.0578972 0
M  V30 2310 O 218.135 1.71414 0.91911 0
M  V30 2311 C 218.418 2.62049 -2.46987 0
M  V30 2312 C 218.271 2.16426 -3.94309 0
M  V30 2313 C 219.59 3.64266 -2.46978 0
M  V30 2314 H 216.709 0.518306 -0.523954 0
M  V30 2315 H 219.351 0.757321 -1.74255 0
M  V30 2316 H 217.501 3.19361 -2.21225 0
M  V30 2317 H 219.173 1.64221 -4.31079 0
M  V30 2318 H 217.416 1.47925 -4.078 0
M  V30 2319 H 218.087 3.02038 -4.62036 0
M  V30 2320 H 220.563 3.16686 -2.69906 0
M  V30 2321 H 219.439 4.45196 -3.21079 0
M  V30 2322 H 219.7 4.15927 -1.49857 0
M  V30 2323 N 218.759 1.29093 0.90403 0
M  V30 2324 C 219.689 1.16401 2.02418 0
M  V30 2325 C 220.67 0.0593085 1.69997 0
M  V30 2326 O 221.855 0.238021 1.92736 0
M  V30 2327 C 218.985 0.835233 3.37107 0
M  V30 2328 C 217.939 1.89578 3.83724 0
M  V30 2329 C 217.265 1.42041 5.15489 0
M  V30 2330 C 218.565 3.30394 4.04521 0
M  V30 2331 H 220.259 2.10109 2.13295 0
M  V30 2332 H 217.805 1.01157 1.02486 0
M  V30 2333 H 219.758 0.733169 4.14973 0
M  V30 2334 H 218.482 -0.137543 3.2631 0
M  V30 2335 H 217.141 1.98715 3.08071 0
M  V30 2336 H 216.789 0.436426 5.01103 0
M  V30 2337 H 216.489 2.12964 5.4765 0
M  V30 2338 H 218.013 1.33176 5.959 0
M  V30 2339 H 219.427 3.24123 4.72882 0
M  V30 2340 H 217.824 3.99237 4.48029 0
M  V30 2341 H 218.894 3.73692 3.09002 0
M  V30 2342 N 220.237 -1.11381 1.11499 0
M  V30 2343 C 221.462 -1.87475 0.887019 0
M  V30 2344 C 221.887 -1.79639 -0.557796 0
M  V30 2345 O 221.245 -1.15924 -1.39396 0
M  V30 2346 C 221.293 -3.34213 1.35403 0
M  V30 2347 O 220.397 -4.0903 0.526146 0
M  V30 2348 H 219.738 -0.582099 0.319463 0
M  V30 2349 H 222.268 -1.40785 1.48461 0
M  V30 2350 H 222.278 -3.8506 1.34881 0
M  V30 2351 H 220.953 -3.39232 2.40612 0
M  V30 2352 H 219.53 -3.68082 0.597522 0
M  V30 2353 N 221.715 -0.905404 -1.28997 0
M  V30 2354 C 222.961 -0.535039 -1.95615 0
M  V30 2355 C 223.294 0.917404 -1.71165 0
M  V30 2356 O 222.569 1.65123 -1.02785 0
M  V30 2357 C 222.852 -0.834918 -3.50287 0
M  V30 2358 C 222.705 -2.33948 -3.84172 0
M  V30 2359 C 224.024 -0.325318 -4.38896 0
M  V30 2360 H 221.143 -0.195861 -0.710498 0
M  V30 2361 H 223.785 -1.13313 -1.52513 0
M  V30 2362 H 221.935 -0.325904 -3.87131 0
M  V30 2363 H 223.607 -2.91847 -3.57243 0
M  V30 2364 H 221.85 -2.79789 -3.31513 0
M  V30 2365 H 222.521 -2.49987 -4.92149 0
M  V30 2366 H 224.997 -0.761256 -4.09077 0
M  V30 2367 H 223.873 -0.564295 -5.45992 0
M  V30 2368 H 224.134 0.774144 -4.35269 0
M  V30 2369 N 223.193 1.4272 -0.668489 0
M  V30 2370 C 224.609 1.55992 -0.33745 0
M  V30 2371 C 224.809 1.64933 1.15756 0
M  V30 2372 O 223.865 1.61278 1.94282 0
M  V30 2373 C 225.178 2.81314 -1.06222 0
M  V30 2374 C 226.726 2.95078 -1.04394 0
M  V30 2375 C 227.201 4.23252 -1.74991 0
M  V30 2376 N 228.692 4.3015 -1.71829 0
M  V30 2377 C 229.427 5.28127 -2.23315 0
M  V30 2378 N 228.923 6.32293 -2.83156 0
M  V30 2379 N 230.716 5.19882 -2.13726 0
M  V30 2380 H 222.867 1.3516 -1.63846 0
M  V30 2381 H 225.13 0.650174 -0.689912 0
M  V30 2382 H 224.836 2.80823 -2.11734 0
M  V30 2383 H 224.71 3.72012 -0.62344 0
M  V30 2384 H 227.097 2.951 0.0028244 0
M  V30 2385 H 227.178 2.05627 -1.52155 0
M  V30 2386 H 226.822 4.2399 -2.79633 0
M  V30 2387 H 226.752 5.11626 -1.24685 0
M  V30 2388 H 229.243 3.55499 -1.28175 0
M  V30 2389 H 229.556 7.03398 -3.20079 0
M  V30 2390 H 227.901 6.32873 -2.87223 0
M  V30 2391 H 231.092 4.37423 -1.66669 0
M  V30 2392 H 231.265 5.96077 -2.54158 0
M  V30 2393 N 224.671 0.411399 1.52136 0
M  V30 2394 C 225.899 -0.163076 2.06256 0
M  V30 2395 C 226.314 -1.3867 1.28125 0
M  V30 2396 O 225.671 -1.79423 0.333721 0
M  V30 2397 C 225.722 -0.511252 3.57867 0
M  V30 2398 O 225.443 0.66378 4.33042 0
M  V30 2399 C 226.944 -1.13921 4.28412 0
M  V30 2400 H 224.164 -0.0193897 0.67072 0
M  V30 2401 H 226.708 0.583007 1.96013 0
M  V30 2402 H 224.863 -1.20723 3.6811 0
M  V30 2403 H 225.277 0.372601 5.23175 0
M  V30 2404 H 226.751 -1.33302 5.35663 0
M  V30 2405 H 227.228 -2.11296 3.85033 0
M  V30 2406 H 227.834 -0.483373 4.22544 0
M  V30 2407 N 226.149 -1.5696 0.141893 0
M  V30 2408 C 227.397 -1.95573 -0.509484 0
M  V30 2409 C 227.718 -1.02746 -1.65736 0
M  V30 2410 O 226.988 -0.0880311 -1.95702 0
M  V30 2411 H 225.568 -0.722115 -0.191205 0
M  V30 2412 H 228.23 -1.93697 0.216196 0
M  V30 2413 H 227.326 -2.99171 -0.889 0
M  V30 2414 N 227.627 0.131896 -1.57047 0
M  V30 2415 C 228.904 0.871495 -1.75112 0
M  V30 2416 C 229.284 1.9866 -0.713949 0
M  V30 2417 O 228.632 2.26965 0.264447 0
M  V30 2418 C 228.842 1.40007 -3.19686 0
M  V30 2419 C 230.19 1.85752 -3.81813 0
M  V30 2420 O 231.214 1.49715 -3.23209 0
M  V30 2421 O 230.073 2.5226 -4.84796 0
M  V30 2422 H 227.167 0.412919 -0.716538 0
M  V30 2423 H 229.713 0.116641 -1.69299 0
M  V30 2424 H 228.485 0.599404 -3.86682 0
M  V30 2425 H 228.108 2.218 -3.29986 0
M  V30 2426 N 229.106 1.52395 0.401703 0
M  V30 2427 C 230.383 1.57387 1.16141 0
M  V30 2428 C 230.763 0.359359 2.08019 0
M  V30 2429 O 230.111 -0.65326 2.18963 0
M  V30 2430 C 230.321 2.90631 1.93221 0
M  V30 2431 C 231.669 3.43904 2.49028 0
M  V30 2432 O 232.693 2.92421 2.03393 0
M  V30 2433 O 231.552 4.33823 3.32356 0
M  V30 2434 H 228.646 0.634262 0.530698 0
M  V30 2435 H 231.192 1.64725 0.407883 0
M  V30 2436 H 229.964 3.70473 1.25958 0
M  V30 2437 H 229.587 2.8662 2.75563 0
M  V30 2438 N 230.584 -0.659388 1.43143 0
M  V30 2439 C 231.531 -1.77249 1.47822 0
M  V30 2440 C 232.501 -1.62818 0.328558 0
M  V30 2441 O 233.686 -1.83151 0.534838 0
M  V30 2442 C 230.826 -3.15371 1.40126 0
M  V30 2443 C 229.939 -3.4098 2.65249 0
M  V30 2444 C 229.074 -4.68915 2.49584 0
M  V30 2445 C 228.113 -4.87608 3.70006 0
M  V30 2446 N 227.25 -6.06796 3.53189 0
M  V30 2447 H 232.09 -1.72584 2.42938 0
M  V30 2448 H 229.627 -0.842297 1.20598 0
M  V30 2449 H 231.585 -3.9521 1.33659 0
M  V30 2450 H 230.215 -3.19121 0.485964 0
M  V30 2451 H 229.267 -2.55282 2.8202 0
M  V30 2452 H 230.579 -3.50681 3.54717 0
M  V30 2453 H 229.733 -5.56871 2.4079 0
M  V30 2454 H 228.472 -4.61524 1.5763 0
M  V30 2455 H 227.477 -3.9809 3.79215 0
M  V30 2456 H 228.702 -4.96834 4.62961 0
M  V30 2457 H 226.648 -6.00549 2.63965 0
M  V30 2458 H 226.565 -6.17428 4.36255 0
M  V30 2459 H 227.833 -6.9739 3.48236 0
M  V30 2460 N 232.062 -1.29571 -0.897171 0
M  V30 2461 C 233.31 -1.17456 -1.64464 0
M  V30 2462 C 233.631 0.273698 -1.9307 0
M  V30 2463 O 232.901 1.18684 -1.55855 0
M  V30 2464 H 231.481 -0.431706 -0.609622 0
M  V30 2465 H 234.143 -1.62531 -1.07562 0
M  V30 2466 H 233.239 -1.72648 -2.59998 0
M  V30 2467 N 233.54 1.10788 -1.12088 0
M  V30 2468 C 234.45 2.20599 -0.798338 0
M  V30 2469 C 235.466 1.72712 0.21135 0
M  V30 2470 O 236.642 2.01348 0.0458477 0
M  V30 2471 C 233.707 3.45771 -0.253674 0
M  V30 2472 C 232.768 4.08411 -1.32283 0
M  V30 2473 C 232.001 5.27608 -0.80406 0
M  V30 2474 O 232.224 5.69241 0.363478 0
M  V30 2475 O 231.158 5.8101 -1.57198 0
M  V30 2476 H 234.984 2.50614 -1.7154 0
M  V30 2477 H 232.569 1.19454 -0.897275 0
M  V30 2478 H 234.451 4.21376 0.0453691 0
M  V30 2479 H 233.126 3.1739 0.636005 0
M  V30 2480 H 232.033 3.34507 -1.67499 0
M  V30 2481 H 233.366 4.40986 -2.18614 0
M  V30 2482 N 235.018 0.912232 1.28515 0
M  V30 2483 C 236.243 0.559774 1.99703 0
M  V30 2484 C 236.668 -0.851393 1.67729 0
M  V30 2485 O 236.026 -1.56875 0.908834 0
M  V30 2486 C 236.074 0.773874 3.52198 0
M  V30 2487 O 235.178 -0.167842 4.12058 0
M  V30 2488 H 234.519 0.21723 0.627461 0
M  V30 2489 H 237.049 1.22725 1.63706 0
M  V30 2490 H 237.059 0.683386 4.02236 0
M  V30 2491 H 235.734 1.80261 3.74805 0
M  V30 2492 H 234.311 -0.0287509 3.72889 0
M  V30 2493 N 236.496 -1.42363 0.676048 0
M  V30 2494 C 237.444 -2.32596 -0.0131507 0
M  V30 2495 C 238.438 -1.49891 -0.789238 0
M  V30 2496 O 239.644 -1.65955 -0.697061 0
M  V30 2497 H 236.019 -0.751647 -0.0230481 0
M  V30 2498 H 237.99 -2.88421 0.765243 0
M  V30 2499 C 236.739 -3.34479 -0.949702 0
M  V30 2500 H 236.062 -3.98158 -0.361938 0
M  V30 2501 H 237.502 -4.00199 -1.4006 0
M  V30 2502 C 235.961 -2.66838 -2.05667 0
M  V30 2503 O 236.491 -2.50124 -3.14326 0
M  V30 2504 N 234.697 -2.25843 -1.82875 0
M  V30 2505 H 234.244 -2.39637 -0.945085 0
M  V30 2506 H 234.202 -1.80918 -2.5713 0
M  V30 2507 N 237.974 -0.419461 -1.51915 0
M  V30 2508 C 239.251 0.211999 -1.94448 0
M  V30 2509 C 239.631 1.61703 -1.35703 0
M  V30 2510 O 238.979 2.22102 -0.536931 0
M  V30 2511 C 239.189 0.207872 -3.4838 0
M  V30 2512 C 240.537 0.422192 -4.22496 0
M  V30 2513 O 241.561 0.286778 -3.55044 0
M  V30 2514 O 240.42 0.690009 -5.42126 0
M  V30 2515 H 237.514 0.139586 -0.815135 0
M  V30 2516 H 240.06 -0.476151 -1.62883 0
M  V30 2517 H 238.832 -0.775102 -3.83546 0
M  V30 2518 H 238.455 0.939688 -3.86336 0
M  V30 2519 N 239.452 1.56882 -0.150215 0
M  V30 2520 C 240.7 1.9584 0.499105 0
M  V30 2521 C 241.021 1.03623 1.65188 0
M  V30 2522 O 240.291 0.0984084 1.95653 0
M  V30 2523 H 238.871 0.723119 0.187373 0
M  V30 2524 H 241.533 1.9358 -0.226466 0
M  V30 2525 H 240.629 2.99638 0.873122 0
M  V30 2526 N 240.93 -0.123565 1.57115 0
M  V30 2527 C 241.877 -1.15177 2.00007 0
M  V30 2528 C 242.847 -1.41403 0.871454 0
M  V30 2529 O 244.032 -1.53346 1.13533 0
M  V30 2530 C 241.172 -2.47436 2.40561 0
M  V30 2531 C 240.285 -2.28184 3.66819 0
M  V30 2532 C 239.42 -3.53641 3.96373 0
M  V30 2533 C 238.459 -3.29528 5.15827 0
M  V30 2534 N 237.596 -4.47175 5.41275 0
M  V30 2535 H 242.436 -0.779008 2.87638 0
M  V30 2536 H 239.973 -0.373166 1.42288 0
M  V30 2537 H 241.931 -3.24584 2.62109 0
M  V30 2538 H 240.561 -2.82614 1.55978 0
M  V30 2539 H 239.613 -1.41976 3.52912 0
M  V30 2540 H 240.925 -2.0634 4.5412 0
M  V30 2541 H 240.079 -4.39209 4.18545 0
M  V30 2542 H 238.818 -3.78512 3.07538 0
M  V30 2543 H 237.823 -2.42349 4.93505 0
M  V30 2544 H 239.048 -3.06031 6.06236 0
M  V30 2545 H 236.994 -4.72175 4.55397 0
M  V30 2546 H 236.911 -4.28419 6.22891 0
M  V30 2547 H 238.179 -5.3389 5.67963 0
M  V30 2548 N 242.408 -1.52605 -0.393616 0
M  V30 2549 C 243.633 -1.71592 -1.16495 0
M  V30 2550 C 244.058 -0.43133 -1.83088 0
M  V30 2551 O 243.416 0.612523 -1.7064 0
M  V30 2552 C 243.464 -2.86318 -2.19213 0
M  V30 2553 O 242.568 -2.52969 -3.257 0
M  V30 2554 H 241.909 -0.570734 -0.33935 0
M  V30 2555 H 244.439 -1.99377 -0.459324 0
M  V30 2556 H 244.449 -3.1168 -2.63286 0
M  V30 2557 H 243.124 -3.79511 -1.7013 0
M  V30 2558 H 241.701 -2.38332 -2.86797 0
M  V30 2559 N 243.887 0.651787 -1.4349 0
M  V30 2560 C 244.834 1.76462 -1.4876 0
M  V30 2561 C 245.804 1.62641 -0.337189 0
M  V30 2562 O 246.989 1.82864 -0.544544 0
M  V30 2563 C 244.129 3.14623 -1.41796 0
M  V30 2564 C 243.242 3.39568 -2.67053 0
M  V30 2565 C 242.377 4.67585 -2.52068 0
M  V30 2566 C 241.416 4.85639 -3.72587 0
M  V30 2567 N 240.553 6.04915 -3.56402 0
M  V30 2568 H 245.393 1.71293 -2.43849 0
M  V30 2569 H 242.93 0.835889 -1.21043 0
M  V30 2570 H 244.888 3.94496 -1.35753 0
M  V30 2571 H 243.518 3.18859 -0.50288 0
M  V30 2572 H 242.57 2.53783 -2.8337 0
M  V30 2573 H 243.882 3.48795 -3.56572 0
M  V30 2574 H 243.036 5.55586 -2.4374 0
M  V30 2575 H 241.775 4.60681 -1.60075 0
M  V30 2576 H 240.78 3.96073 -3.81321 0
M  V30 2577 H 242.005 4.94372 -4.65589 0
M  V30 2578 H 239.951 5.9914 -2.67146 0
M  V30 2579 H 239.868 6.15106 -4.39524 0
M  V30 2580 H 241.136 6.95533 -3.51929 0
M  V30 2581 N 245.365 1.30045 0.890287 0
M  V30 2582 C 246.611 1.18737 1.64406 0
M  V30 2583 C 246.944 -0.258525 1.92472 0
M  V30 2584 O 246.219 -1.18562 1.54186 0
M  V30 2585 C 246.502 2.01087 2.98724 0
M  V30 2586 C 246.355 3.53867 2.77665 0
M  V30 2587 C 247.674 1.84457 3.9958 0
M  V30 2588 H 244.793 0.432698 0.596608 0
M  V30 2589 H 247.435 1.5962 1.0306 0
M  V30 2590 H 245.585 1.66349 3.51084 0
M  V30 2591 H 247.257 3.98637 2.32133 0
M  V30 2592 H 245.5 3.78318 2.12269 0
M  V30 2593 H 246.171 4.06772 3.7315 0
M  V30 2594 H 248.647 2.14817 3.56361 0
M  V30 2595 H 247.523 2.44411 4.91482 0
M  V30 2596 H 247.784 0.802276 4.3476 0
M  V30 2597 N 246.843 -1.10192 1.12674 0
M  V30 2598 C 248.071 -1.85983 0.906527 0
M  V30 2599 C 248.486 -1.80783 -0.544333 0
M  V30 2600 O 247.843 -1.19834 -1.37645 0
M  V30 2601 C 247.894 -3.34281 1.37618 0
M  V30 2602 O 247.615 -3.39401 2.77017 0
M  V30 2603 C 249.116 -4.26938 1.19325 0
M  V30 2604 H 246.336 -0.587716 0.323775 0
M  V30 2605 H 248.88 -1.39284 1.49734 0
M  V30 2606 H 247.035 -3.78436 0.828539 0
M  V30 2607 H 247.449 -4.31838 2.97684 0
M  V30 2608 H 248.923 -5.29181 1.57071 0
M  V30 2609 H 249.4 -4.38995 0.134097 0
M  V30 2610 H 250.006 -3.8859 1.72852 0
M  V30 2611 N 248.321 -0.919034 -1.28029 0
M  V30 2612 C 249.271 -0.382574 -2.24767 0
M  V30 2613 C 250.255 0.508286 -1.52661 0
M  V30 2614 O 251.447 0.347145 -1.73562 0
M  V30 2615 C 248.576 0.371432 -3.41285 0
M  V30 2616 C 247.662 -0.535449 -4.20706 0
M  V30 2617 N 248.053 -1.65141 -4.78082 0
M  V30 2618 C 246.351 -0.336824 -4.44726 0
M  V30 2619 C 247.052 -2.21475 -5.37888 0
M  V30 2620 N 246.028 -1.50537 -5.22341 0
M  V30 2621 H 249.83 -1.23477 -2.66703 0
M  V30 2622 H 247.344 -0.772299 -1.42861 0
M  V30 2623 H 249.341 0.772638 -4.09678 0
M  V30 2624 H 248.001 1.22066 -3.00882 0
M  V30 2625 H 249.012 -2.03392 -4.7629 0
M  V30 2626 H 245.689 0.47246 -4.14818 0
M  V30 2627 H 247.079 -3.15379 -5.93284 0
M  V30 2628 N 249.799 1.42003 -0.683588 0
M  V30 2629 C 251.045 2.01712 -0.209825 0
M  V30 2630 C 251.378 1.53968 1.18353 0
M  V30 2631 O 250.653 0.745661 1.79639 0
M  V30 2632 C 250.936 3.59202 -0.254197 0
M  V30 2633 C 250.789 4.17102 -1.68363 0
M  V30 2634 C 252.108 4.38344 0.392709 0
M  V30 2635 H 249.227 0.732891 -0.0777189 0
M  V30 2636 H 251.869 1.68909 -0.87004 0
M  V30 2637 H 250.019 3.87278 0.307954 0
M  V30 2638 H 251.691 3.99946 -2.29871 0
M  V30 2639 H 249.934 3.72597 -2.22157 0
M  V30 2640 H 250.605 5.26249 -1.6663 0
M  V30 2641 H 253.081 4.16011 -0.0859162 0
M  V30 2642 H 251.957 5.47901 0.331063 0
M  V30 2643 H 252.218 4.16887 1.47164 0
M  V30 2644 N 251.277 0.427512 1.51691 0
M  V30 2645 C 252.21 -0.433876 2.24037 0
M  V30 2646 C 253.188 -1.03287 1.25581 0
M  V30 2647 O 254.372 -1.07722 1.54688 0
M  V30 2648 C 251.499 -1.60385 2.98319 0
M  V30 2649 C 250.545 -1.12648 4.11355 0
M  V30 2650 S 251.378 -0.076543 5.35445 0
M  V30 2651 C 252.534 -1.25141 6.13262 0
M  V30 2652 H 252.767 0.180367 2.96752 0
M  V30 2653 H 250.3 0.211946 1.52938 0
M  V30 2654 H 252.258 -2.27462 3.41718 0
M  V30 2655 H 250.919 -2.18948 2.25213 0
M  V30 2656 H 250.112 -2.0011 4.62571 0
M  V30 2657 H 249.714 -0.534088 3.70167 0
M  V30 2658 H 252.006 -2.17162 6.41753 0
M  V30 2659 H 252.949 -0.779411 7.03797 0
M  V30 2660 H 253.357 -1.48553 5.44603 0
M  V30 2661 N 252.755 -1.56801 0.158532 0
M  V30 2662 C 254.004 -1.95665 -0.489702 0
M  V30 2663 C 254.317 -1.04654 -1.65248 0
M  V30 2664 O 255.523 -1.33146 -2.3661 0
M  V30 2665 C 253.979 -3.47874 -0.922582 0
M  V30 2666 C 253.587 -4.47489 0.213893 0
M  V30 2667 C 255.331 -3.95583 -1.53996 0
M  V30 2668 C 253.238 -5.90921 -0.237903 0
M  V30 2669 H 252.168 -0.730516 -0.186716 0
M  V30 2670 H 254.819 -1.81861 0.244722 0
M  V30 2671 H 253.201 -3.57051 -1.71261 0
M  V30 2672 H 254.375 -4.50017 0.991036 0
M  V30 2673 H 252.69 -4.09764 0.740407 0
M  V30 2674 H 255.287 -5.0019 -1.8898 0
M  V30 2675 H 255.63 -3.37789 -2.43319 0
M  V30 2676 H 256.163 -3.8937 -0.814611 0
M  V30 2677 H 252.902 -6.52559 0.620236 0
M  V30 2678 H 252.422 -5.91729 -0.980676 0
M  V30 2679 H 254.101 -6.43352 -0.686067 0
M  V30 2680 N 254.233 0.115231 -1.57178 0
M  V30 2681 C 255.649 0.468877 -1.52557 0
M  V30 2682 C 255.849 1.81649 -0.872125 0
M  V30 2683 O 254.905 2.48347 -0.45606 0
M  V30 2684 C 256.218 0.4499 -2.97315 0
M  V30 2685 C 257.766 0.533185 -3.08425 0
M  V30 2686 C 258.241 0.54456 -4.54751 0
M  V30 2687 N 259.732 0.605892 -4.5922 0
M  V30 2688 C 260.467 0.636203 -5.6986 0
M  V30 2689 N 259.963 0.623931 -6.89985 0
M  V30 2690 N 261.756 0.679496 -5.57978 0
M  V30 2691 H 253.907 -0.767712 -1.9804 0
M  V30 2692 H 256.17 -0.283609 -0.904583 0
M  V30 2693 H 255.876 -0.472721 -3.48509 0
M  V30 2694 H 255.75 1.27632 -3.5495 0
M  V30 2695 H 258.137 1.44623 -2.57232 0
M  V30 2696 H 258.218 -0.320995 -2.53778 0
M  V30 2697 H 257.862 -0.364452 -5.06591 0
M  V30 2698 H 257.792 1.41568 -5.07214 0
M  V30 2699 H 260.283 0.621386 -3.72756 0
M  V30 2700 H 260.596 0.649787 -7.70063 0
M  V30 2701 H 258.941 0.591296 -6.9248 0
M  V30 2702 H 262.132 0.686472 -4.63039 0
M  V30 2703 H 262.305 0.69965 -6.44212 0
M  V30 2704 N 255.711 1.52812 0.385517 0
M  V30 2705 C 256.951 1.69716 1.13911 0
M  V30 2706 C 257.315 0.42962 1.87132 0
M  V30 2707 O 258.516 0.475071 2.64569 0
M  V30 2708 C 256.787 2.90021 2.0886 0
M  V30 2709 S 258.346 3.27531 2.92009 0
M  V30 2710 H 255.164 0.59739 0.385547 0
M  V30 2711 H 257.766 1.90868 0.423061 0
M  V30 2712 H 256.47 3.80493 1.53797 0
M  V30 2713 H 256.001 2.71213 2.84969 0
M  V30 2714 H 258.016 2.77989 4.11019 0
M  V30 2715 N 257.189 -0.644168 1.43834 0
M  V30 2716 C 258.121 -1.76955 1.45669 0
M  V30 2717 C 259.134 -1.58956 0.351666 0
M  V30 2718 O 260.323 -1.6751 0.616644 0
M  V30 2719 C 257.423 -3.14507 1.26248 0
M  V30 2720 C 256.596 -3.59083 2.49757 0
M  V30 2721 C 255.655 -4.75467 2.25427 0
M  V30 2722 O 254.681 -4.84444 2.98836 0
M  V30 2723 N 255.883 -5.66289 1.27661 0
M  V30 2724 H 258.648 -1.75856 2.42682 0
M  V30 2725 H 256.209 -0.828312 1.39106 0
M  V30 2726 H 258.201 -3.90067 1.0784 0
M  V30 2727 H 256.771 -3.10325 0.376478 0
M  V30 2728 H 255.991 -2.7387 2.8353 0
M  V30 2729 H 257.279 -3.85613 3.31934 0
M  V30 2730 H 256.677 -5.61718 0.670064 0
M  V30 2731 H 255.234 -6.41533 1.15234 0
M  V30 2732 N 258.668 -1.30515 -0.883378 0
M  V30 2733 C 259.578 -1.18959 -2.02203 0
M  V30 2734 C 260.594 -0.109172 -1.73657 0
M  V30 2735 O 261.77 -0.324413 -1.9877 0
M  V30 2736 C 258.835 -0.883871 -3.35244 0
M  V30 2737 C 257.896 -2.04982 -3.77201 0
M  V30 2738 C 257.129 -1.75859 -5.03894 0
M  V30 2739 O 257.352 -0.687276 -5.66244 0
M  V30 2740 O 256.286 -2.61146 -5.42297 0
M  V30 2741 H 260.112 -2.14616 -2.1488 0
M  V30 2742 H 257.697 -1.10124 -1.0096 0
M  V30 2743 H 259.579 -0.728644 -4.15053 0
M  V30 2744 H 258.254 0.0427798 -3.23672 0
M  V30 2745 H 257.161 -2.26038 -2.9809 0
M  V30 2746 H 258.494 -2.95825 -3.93381 0
M  V30 2747 N 260.146 1.09593 -1.13257 0
M  V30 2748 C 261.076 2.18214 -0.830946 0
M  V30 2749 C 262.057 1.68812 0.208966 0
M  V30 2750 O 263.242 1.9408 0.0682666 0
M  V30 2751 C 260.372 3.46051 -0.294296 0
M  V30 2752 C 259.326 4.08778 -1.26826 0
M  V30 2753 C 258.652 5.31419 -0.591449 0
M  V30 2754 C 259.952 4.51476 -2.62615 0
M  V30 2755 H 261.646 2.43703 -1.73923 0
M  V30 2756 H 259.192 1.17128 -0.837675 0
M  V30 2757 H 261.145 4.2134 -0.0709606 0
M  V30 2758 H 259.869 3.20079 0.649366 0
M  V30 2759 H 258.528 3.35505 -1.47756 0
M  V30 2760 H 258.176 5.01727 0.357633 0
M  V30 2761 H 257.876 5.74341 -1.24123 0
M  V30 2762 H 259.4 6.09433 -0.377355 0
M  V30 2763 H 260.814 5.17999 -2.45663 0
M  V30 2764 H 259.211 5.05277 -3.23752 0
M  V30 2765 H 260.281 3.63962 -3.20406 0
M  V30 2766 N 261.624 0.925811 1.2754 0
M  V30 2767 C 262.571 0.422045 2.26908 0
M  V30 2768 C 263.541 -0.510029 1.58076 0
M  V30 2769 O 264.726 -0.429599 1.85901 0
M  V30 2770 C 261.866 -0.320837 3.43605 0
M  V30 2771 C 260.979 0.64513 4.27156 0
M  V30 2772 C 260.114 -0.117405 5.3107 0
M  V30 2773 C 259.153 0.841391 6.0629 0
M  V30 2774 N 258.29 0.111604 7.02011 0
M  V30 2775 H 263.13 1.27441 2.69375 0
M  V30 2776 H 260.667 0.639697 1.32462 0
M  V30 2777 H 262.625 -0.76785 4.10073 0
M  V30 2778 H 261.255 -1.13745 3.02096 0
M  V30 2779 H 260.307 1.21067 3.6062 0
M  V30 2780 H 261.619 1.37797 4.79389 0
M  V30 2781 H 260.773 -0.624422 6.03478 0
M  V30 2782 H 259.512 -0.883219 4.79636 0
M  V30 2783 H 258.517 1.35967 5.32722 0
M  V30 2784 H 259.742 1.60696 6.59813 0
M  V30 2785 H 257.688 -0.635999 6.5291 0
M  V30 2786 H 257.605 0.784044 7.51923 0
M  V30 2787 H 258.873 -0.374823 7.78598 0
M  V30 2788 N 263.102 -1.41638 0.69111 0
M  V30 2789 C 264.332 -2.0533 0.228758 0
M  V30 2790 C 264.74 -1.52089 -1.12541 0
M  V30 2791 O 264.083 -0.662145 -1.71351 0
M  V30 2792 C 264.145 -3.59349 0.10407 0
M  V30 2793 C 263.809 -4.35362 1.38956 0
M  V30 2794 C 264.806 -4.64942 2.32648 0
M  V30 2795 C 262.491 -4.74714 1.64169 0
M  V30 2796 C 264.485 -5.32828 3.49818 0
M  V30 2797 C 262.172 -5.42338 2.81625 0
M  V30 2798 C 263.17 -5.71322 3.74273 0
M  V30 2799 O 262.858 -6.37554 4.89673 0
M  V30 2800 H 262.59 -0.667796 0.104997 0
M  V30 2801 H 265.144 -1.82477 0.942938 0
M  V30 2802 H 263.374 -3.80924 -0.665839 0
M  V30 2803 H 265.063 -4.04633 -0.320519 0
M  V30 2804 H 265.829 -4.35025 2.14425 0
M  V30 2805 H 261.708 -4.51538 0.929202 0
M  V30 2806 H 265.252 -5.55368 4.22152 0
M  V30 2807 H 261.149 -5.71673 2.99768 0
M  V30 2808 H 261.917 -6.56049 4.8943 0
M  V30 2809 N 264.58 -0.43555 -1.51462 0
M  V30 2810 C 265.857 0.191364 -1.94662 0
M  V30 2811 C 266.237 1.60254 -1.37411 0
M  V30 2812 O 265.585 2.2152 -0.560458 0
M  V30 2813 C 265.795 0.17091 -3.48581 0
M  V30 2814 C 267.143 0.377357 -4.2292 0
M  V30 2815 O 268.167 0.249104 -3.55328 0
M  V30 2816 O 267.026 0.63247 -5.42828 0
M  V30 2817 H 264.12 0.130932 -0.816569 0
M  V30 2818 H 266.666 -0.4934 -1.62369 0
M  V30 2819 H 265.438 -0.815738 -3.82703 0
M  V30 2820 H 265.061 0.898659 -3.87311 0
M  V30 2821 N 266.058 1.56714 -0.166846 0
M  V30 2822 C 267.304 1.97039 0.479962 0
M  V30 2823 C 267.637 1.05264 1.63197 0
M  V30 2824 O 266.912 0.0988833 1.94248 0
M  V30 2825 C 267.195 3.46867 0.967212 0
M  V30 2826 C 267.048 4.49421 -0.18466 0
M  V30 2827 C 268.367 3.9968 1.84238 0
M  V30 2828 H 265.486 0.71641 0.172992 0
M  V30 2829 H 268.128 1.8832 -0.252079 0
M  V30 2830 H 266.278 3.54428 1.59101 0
M  V30 2831 H 267.95 4.53924 -0.821621 0
M  V30 2832 H 266.193 4.25573 -0.840837 0
M  V30 2833 H 266.864 5.51644 0.198317 0
M  V30 2834 H 269.34 3.94723 1.31655 0
M  V30 2835 H 268.216 5.04941 2.15234 0
M  V30 2836 H 268.477 3.43226 2.78654 0
M  V30 2837 N 267.536 -0.106894 1.57237 0
M  V30 2838 C 268.784 -0.810921 1.85117 0
M  V30 2839 C 269.105 -1.7984 0.753827 0
M  V30 2840 O 268.375 -1.94649 -0.221056 0
M  V30 2841 H 266.955 -0.302466 0.683025 0
M  V30 2842 H 269.617 -0.0913324 1.94686 0
M  V30 2843 H 268.713 -1.34875 2.81452 0
M  V30 2844 N 269.014 -1.53014 -0.377408 0
M  V30 2845 C 270.262 -1.6829 -1.11906 0
M  V30 2846 C 270.583 -0.431206 -1.90173 0
M  V30 2847 O 269.853 0.554595 -1.87886 0
M  V30 2848 H 268.433 -0.620371 -0.416112 0
M  V30 2849 H 271.095 -1.90167 -0.426893 0
M  V30 2850 H 270.191 -2.53862 -1.8155 0
M  V30 2851 N 270.492 0.636531 -1.44174 0
M  V30 2852 C 271.74 1.39343 -1.46383 0
M  V30 2853 C 272.061 1.94766 -0.0955715 0
M  V30 2854 O 271.331 1.75452 0.871395 0
M  V30 2855 H 269.911 0.517199 -0.538994 0
M  V30 2856 H 272.573 0.74957 -1.7991 0
M  V30 2857 H 271.669 2.22746 -2.18611 0
M  V30 2858 N 271.97 1.30982 0.876444 0
M  V30 2859 C 272.88 1.2003 2.01569 0
M  V30 2860 C 273.896 0.11838 1.73597 0
M  V30 2861 O 275.072 0.33495 1.98595 0
M  V30 2862 C 272.137 0.901637 3.34771 0
M  V30 2863 C 271.198 2.06979 3.76109 0
M  V30 2864 C 270.431 1.78529 5.02954 0
M  V30 2865 O 270.654 0.717296 5.65872 0
M  V30 2866 O 269.588 2.64019 5.40905 0
M  V30 2867 H 273.414 2.15753 2.13739 0
M  V30 2868 H 270.999 1.10658 1.00375 0
M  V30 2869 H 272.881 0.750645 4.1466 0
M  V30 2870 H 271.556 -0.0256141 3.2369 0
M  V30 2871 H 270.463 2.27616 2.96887 0
M  V30 2872 H 271.796 2.97907 3.91807 0
M  V30 2873 N 273.449 -1.08991 1.13837 0
M  V30 2874 C 274.865 -1.33312 0.877506 0
M  V30 2875 C 275.065 -1.95587 -0.48456 0
M  V30 2876 O 274.121 -2.20509 -1.23013 0
M  V30 2877 C 275.434 -2.24045 2.0056 0
M  V30 2878 C 276.982 -2.37542 2.03821 0
M  V30 2879 C 277.457 -3.31614 3.15905 0
M  V30 2880 N 278.948 -3.39189 3.15445 0
M  V30 2881 C 279.683 -4.11992 3.98811 0
M  V30 2882 N 279.179 -4.87553 4.92203 0
M  V30 2883 N 280.972 -4.07762 3.86894 0
M  V30 2884 H 273.123 -0.669456 2.01574 0
M  V30 2885 H 275.386 -0.357482 0.878015 0
M  V30 2886 H 275.092 -1.85521 2.98789 0
M  V30 2887 H 274.966 -3.24466 1.92359 0
M  V30 2888 H 277.353 -2.75327 1.06202 0
M  V30 2889 H 277.434 -1.36884 2.16093 0
M  V30 2890 H 277.078 -2.94551 4.13766 0
M  V30 2891 H 277.008 -4.32186 3.0087 0
M  V30 2892 H 279.499 -2.85314 2.47799 0
M  V30 2893 H 279.812 -5.40549 5.52292 0
M  V30 2894 H 278.157 -4.86627 4.96205 0
M  V30 2895 H 281.348 -3.47833 3.13257 0
M  V30 2896 H 281.521 -4.64238 4.52092 0
M  V30 2897 N 274.927 -0.932562 -1.27047 0
M  V30 2898 C 276.174 -0.575559 -1.94148 0
M  V30 2899 C 276.502 0.883984 -1.73251 0
M  V30 2900 O 275.757 1.64655 -1.0577 0
M  V30 2901 C 276.056 -0.853713 -3.47054 0
M  V30 2902 C 275.722 -2.29577 -3.88079 0
M  V30 2903 C 274.384 -2.68999 -3.9899 0
M  V30 2904 C 276.736 -3.23331 -4.08787 0
M  V30 2905 C 274.064 -4.01289 -4.28 0
M  V30 2906 C 276.416 -4.55207 -4.39282 0
M  V30 2907 C 275.08 -4.94457 -4.48407 0
M  V30 2908 H 274.35 -0.210612 -0.710439 0
M  V30 2909 H 276.997 -1.17744 -1.51025 0
M  V30 2910 H 275.302 -0.169204 -3.91434 0
M  V30 2911 H 276.999 -0.55639 -3.97121 0
M  V30 2912 H 273.589 -1.97994 -3.80127 0
M  V30 2913 H 277.773 -2.94074 -3.99793 0
M  V30 2914 H 273.029 -4.31374 -4.33275 0
M  V30 2915 H 277.203 -5.27852 -4.54252 0
M  V30 2916 H 274.83 -5.96994 -4.7064 0
M  V30 2917 N 276.405 1.4127 -0.698611 0
M  V30 2918 C 277.682 1.94955 -0.158762 0
M  V30 2919 C 278.062 1.63781 1.33188 0
M  V30 2920 O 277.41 0.946423 2.07979 0
M  V30 2921 C 277.62 3.46044 -0.453309 0
M  V30 2922 C 278.968 4.22872 -0.382707 0
M  V30 2923 O 279.992 3.54076 -0.388396 0
M  V30 2924 O 278.851 5.45407 -0.345463 0
M  V30 2925 H 275.945 0.82683 -0.0167505 0
M  V30 2926 H 278.491 1.50971 -0.77498 0
M  V30 2927 H 277.263 3.62028 -1.48498 0
M  V30 2928 H 276.886 3.97128 0.19373 0
M  V30 2929 N 277.883 0.443576 1.51229 0
M  V30 2930 C 279.108 -0.121648 2.07043 0
M  V30 2931 C 279.533 -1.35156 1.30823 0
M  V30 2932 O 278.891 -1.7793 0.347934 0
M  V30 2933 C 278.939 -0.41624 3.5819 0
M  V30 2934 O 278.043 -1.50163 3.8409 0
M  V30 2935 H 277.384 0.000871367 0.663999 0
M  V30 2936 H 279.914 0.626706 1.94765 0
M  V30 2937 H 279.924 -0.664867 4.02546 0
M  V30 2938 H 278.599 0.482653 4.1309 0
M  V30 2939 H 277.176 -1.24248 3.51592 0
M  V30 2940 N 279.361 -1.56624 0.175154 0
M  V30 2941 C 280.291 -2.21155 -0.749195 0
M  V30 2942 C 281.272 -1.16836 -1.23626 0
M  V30 2943 O 282.457 -1.45277 -1.28873 0
M  V30 2944 C 279.587 -2.8553 -1.97711 0
M  V30 2945 C 278.541 -3.95921 -1.62575 0
M  V30 2946 C 277.867 -4.47365 -2.92864 0
M  V30 2947 C 279.167 -5.15323 -0.850838 0
M  V30 2948 H 280.861 -2.98653 -0.211295 0
M  V30 2949 H 278.407 -1.43651 -0.100188 0
M  V30 2950 H 280.36 -3.2935 -2.62881 0
M  V30 2951 H 279.084 -2.05406 -2.53921 0
M  V30 2952 H 277.743 -3.52762 -0.997719 0
M  V30 2953 H 277.391 -3.64027 -3.47122 0
M  V30 2954 H 277.091 -5.21839 -2.70106 0
M  V30 2955 H 278.615 -4.93873 -3.59056 0
M  V30 2956 H 280.029 -5.55812 -1.40521 0
M  V30 2957 H 278.426 -5.95739 -0.722154 0
M  V30 2958 H 279.496 -4.84661 0.152082 0
M  V30 2959 N 280.839 0.0985539 -1.57292 0
M  V30 2960 C 282.067 0.816318 -1.90115 0
M  V30 2961 C 282.482 1.72451 -0.768509 0
M  V30 2962 O 281.839 1.80643 0.259687 0
M  V30 2963 C 281.89 1.63259 -3.22535 0
M  V30 2964 O 281.611 0.760934 -4.31441 0
M  V30 2965 C 283.112 2.45372 -3.69199 0
M  V30 2966 H 280.332 0.233595 -0.629027 0
M  V30 2967 H 282.876 0.0768229 -2.04356 0
M  V30 2968 H 281.031 2.32463 -3.09903 0
M  V30 2969 H 281.445 1.32595 -5.07463 0
M  V30 2970 H 282.919 2.98144 -4.64558 0
M  V30 2971 H 283.396 3.23677 -2.96867 0
M  V30 2972 H 284.002 1.81373 -3.84687 0
M  V30 2973 N 282.317 1.53212 0.369288 0
M  V30 2974 C 283.594 1.59815 1.12776 0
M  V30 2975 C 283.974 0.403402 2.0721 0
M  V30 2976 O 283.322 -0.606667 2.20299 0
M  V30 2977 C 283.532 2.94664 1.87013 0
M  V30 2978 C 284.88 3.49109 2.41677 0
M  V30 2979 O 285.904 2.96669 1.97144 0
M  V30 2980 O 284.763 4.40775 3.23079 0
M  V30 2981 H 281.857 0.645376 0.517125 0
M  V30 2982 H 284.403 1.65553 0.37285 0
M  V30 2983 H 283.175 3.73061 1.18071 0
M  V30 2984 H 282.798 2.92401 2.69421 0
M  V30 2985 N 283.795 -0.628877 1.44509 0
M  V30 2986 C 284.725 -1.75187 1.54376 0
M  V30 2987 C 285.706 -1.65411 0.396618 0
M  V30 2988 O 286.891 -1.84137 0.617031 0
M  V30 2989 C 284.021 -3.13725 1.48976 0
M  V30 2990 C 282.975 -3.38291 2.62189 0
M  V30 2991 C 282.301 -4.76883 2.41841 0
M  V30 2992 C 283.601 -3.30632 4.04326 0
M  V30 2993 H 285.295 -1.67187 2.48373 0
M  V30 2994 H 282.841 -0.802909 1.19538 0
M  V30 2995 H 284.794 -3.92064 1.54478 0
M  V30 2996 H 283.518 -3.22515 0.514961 0
M  V30 2997 H 282.177 -2.62334 2.56079 0
M  V30 2998 H 281.825 -4.82378 1.42548 0
M  V30 2999 H 281.525 -4.94278 3.17747 0
M  V30 3000 H 283.049 -5.57449 2.49165 0
M  V30 3001 H 284.463 -3.98873 4.11793 0
M  V30 3002 H 282.86 -3.59561 4.80454 0
M  V30 3003 H 283.93 -2.28404 4.27738 0
M  V30 3004 N 285.273 -1.31445 -0.869486 0
M  V30 3005 C 286.519 -1.21337 -1.62496 0
M  V30 3006 C 286.852 0.227872 -1.92858 0
M  V30 3007 O 286.127 1.16094 -1.56053 0
M  V30 3008 C 286.41 -2.05814 -2.95487 0
M  V30 3009 C 286.263 -3.5824 -2.72 0
M  V30 3010 C 287.582 -1.9079 -3.96594 0
M  V30 3011 H 284.701 -0.442135 -0.589649 0
M  V30 3012 H 287.343 -1.6124 -1.00507 0
M  V30 3013 H 285.493 -1.71913 -3.48394 0
M  V30 3014 H 287.165 -4.0228 -2.25762 0
M  V30 3015 H 285.408 -3.81647 -2.06224 0
M  V30 3016 H 286.079 -4.12657 -3.66631 0
M  V30 3017 H 288.555 -2.20459 -3.52898 0
M  V30 3018 H 287.431 -2.52199 -4.87531 0
M  V30 3019 H 287.692 -0.871341 -4.33428 0
M  V30 3020 N 286.751 1.08385 -1.14413 0
M  V30 3021 C 287.661 2.18856 -0.844951 0
M  V30 3022 C 288.677 1.73121 0.174668 0
M  V30 3023 O 289.853 2.014 0.00312857 0
M  V30 3024 C 286.918 3.45155 -0.32696 0
M  V30 3025 C 285.979 4.05513 -1.40916 0
M  V30 3026 C 285.212 5.25784 -0.915793 0
M  V30 3027 O 285.435 5.69884 0.242651 0
M  V30 3028 O 284.369 5.77545 -1.69487 0
M  V30 3029 H 288.195 2.46919 -1.76818 0
M  V30 3030 H 285.78 1.17524 -0.922411 0
M  V30 3031 H 287.662 4.21377 -0.0440211 0
M  V30 3032 H 286.337 3.18668 0.568539 0
M  V30 3033 H 285.244 3.30879 -1.74556 0
M  V30 3034 H 286.577 4.3625 -2.27919 0
M  V30 3035 N 288.23 0.939286 1.26551 0
M  V30 3036 C 289.18 0.418284 2.2413 0
M  V30 3037 C 290.164 -0.483935 1.5345 0
M  V30 3038 O 291.356 -0.319489 1.74093 0
M  V30 3039 C 288.485 -0.31709 3.41832 0
M  V30 3040 C 287.571 0.602311 4.19801 0
M  V30 3041 N 287.962 1.72726 4.75394 0
M  V30 3042 C 286.26 0.407534 4.44134 0
M  V30 3043 C 286.961 2.30004 5.34297 0
M  V30 3044 N 285.937 1.58828 5.1988 0
M  V30 3045 H 289.739 1.27705 2.64705 0
M  V30 3046 H 287.253 0.794929 1.41614 0
M  V30 3047 H 289.25 -0.707364 4.10855 0
M  V30 3048 H 287.91 -1.17264 3.02786 0
M  V30 3049 H 288.921 2.10944 4.72994 0
M  V30 3050 H 285.598 -0.406406 4.15517 0
M  V30 3051 H 286.988 3.24778 5.88191 0
M  V30 3052 N 289.708 -1.40897 0.706093 0
M  V30 3053 C 290.938 -2.05075 0.250523 0
M  V30 3054 C 291.346 -1.53275 -1.10921 0
M  V30 3055 O 290.689 -0.680281 -1.7064 0
M  V30 3056 C 290.751 -3.59219 0.142178 0
M  V30 3057 C 290.415 -4.33864 1.43566 0
M  V30 3058 C 291.412 -4.62448 2.37566 0
M  V30 3059 C 289.097 -4.72946 1.69195 0
M  V30 3060 C 291.091 -5.29088 3.5545 0
M  V30 3061 C 288.778 -5.3932 2.87362 0
M  V30 3062 C 289.776 -5.6732 3.80312 0
M  V30 3063 O 289.464 -6.32325 4.96408 0
M  V30 3064 H 289.196 -0.666645 0.112074 0
M  V30 3065 H 291.75 -1.81467 0.962239 0
M  V30 3066 H 289.98 -3.81609 -0.6254 0
M  V30 3067 H 291.669 -4.0495 -0.277584 0
M  V30 3068 H 292.435 -4.32727 2.19027 0
M  V30 3069 H 288.314 -4.50527 0.977042 0
M  V30 3070 H 291.858 -5.50859 4.28018 0
M  V30 3071 H 287.755 -5.68461 3.05814 0
M  V30 3072 H 288.523 -6.50821 4.9636 0
M  V30 3073 N 291.186 -0.45159 -1.50991 0
M  V30 3074 C 292.133 0.352625 -2.2809 0
M  V30 3075 C 293.103 1.0044 -1.32291 0
M  V30 3076 O 294.288 1.02058 -1.6121 0
M  V30 3077 C 291.428 1.43983 -3.13629 0
M  V30 3078 C 290.541 0.804772 -4.24438 0
M  V30 3079 C 289.676 1.86822 -4.97263 0
M  V30 3080 C 288.715 1.21236 -5.99973 0
M  V30 3081 N 287.852 2.2178 -6.66152 0
M  V30 3082 H 292.692 -0.311186 -2.96371 0
M  V30 3083 H 290.229 -0.165308 -1.46168 0
M  V30 3084 H 292.187 2.08161 -3.61559 0
M  V30 3085 H 290.817 2.07307 -2.47434 0
M  V30 3086 H 289.869 0.0509129 -3.80366 0
M  V30 3087 H 291.181 0.286076 -4.97979 0
M  V30 3088 H 290.335 2.58628 -5.48813 0
M  V30 3089 H 289.074 2.42068 -4.23385 0
M  V30 3090 H 288.079 0.479828 -5.47702 0
M  V30 3091 H 289.304 0.667051 -6.75816 0
M  V30 3092 H 287.25 2.76079 -5.95077 0
M  V30 3093 H 287.167 1.74841 -7.35504 0
M  V30 3094 H 288.435 2.93026 -7.22327 0
M  V30 3095 N 292.664 1.56529 -0.183458 0
M  V30 3096 C 293.611 2.18546 0.742055 0
M  V30 3097 C 294.581 1.12912 1.2182 0
M  V30 3098 O 295.766 1.41115 1.28418 0
M  V30 3099 C 292.906 2.83977 1.96089 0
M  V30 3100 C 292.019 4.04105 1.52719 0
M  V30 3101 C 291.154 4.57427 2.70063 0
M  V30 3102 C 290.193 5.69938 2.23243 0
M  V30 3103 N 289.33 6.17717 3.33722 0
M  V30 3104 H 294.17 2.97284 0.206432 0
M  V30 3105 H 291.707 1.46823 0.0901571 0
M  V30 3106 H 293.665 3.20077 2.67594 0
M  V30 3107 H 292.295 2.07822 2.47002 0
M  V30 3108 H 291.347 3.73745 0.708436 0
M  V30 3109 H 292.659 4.85513 1.1436 0
M  V30 3110 H 291.813 4.95772 3.49708 0
M  V30 3111 H 290.552 3.75101 3.11689 0
M  V30 3112 H 289.557 5.31133 1.42048 0
M  V30 3113 H 290.782 6.54073 1.82661 0
M  V30 3114 H 288.728 5.38317 3.74902 0
M  V30 3115 H 288.645 6.94146 2.99495 0
M  V30 3116 H 289.913 6.60713 4.13616 0
M  V30 3117 N 294.142 -0.090211 1.57342 0
M  V30 3118 C 295.09 -1.12792 2.03422 0
M  V30 3119 C 296.084 -1.41182 0.936166 0
M  V30 3120 O 297.29 -1.40805 1.12133 0
M  V30 3121 H 293.665 -0.380986 0.648347 0
M  V30 3122 H 295.636 -0.71299 2.89757 0
M  V30 3123 C 294.385 -2.43855 2.47851 0
M  V30 3124 H 293.708 -2.22855 3.31927 0
M  V30 3125 H 295.148 -3.14955 2.83865 0
M  V30 3126 C 293.607 -3.08503 1.3538 0
M  V30 3127 O 294.137 -3.95805 0.685641 0
M  V30 3128 N 292.343 -2.68831 1.10355 0
M  V30 3129 H 291.89 -1.97929 1.64869 0
M  V30 3130 H 291.848 -3.12412 0.353031 0
M  V30 3131 N 295.62 -1.53406 -0.361157 0
M  V30 3132 C 297.031 -1.61442 -0.937728 0
M  V30 3133 C 297.382 -0.48461 -1.90121 0
M  V30 3134 O 296.507 0.388312 -2.12888 0
M  V30 3135 C 297.102 -2.92624 -1.70753 0
M  V30 3136 C 295.661 -3.02981 -2.23337 0
M  V30 3137 C 294.808 -2.5677 -1.04712 0
M  V30 3138 H 297.759 -1.58083 -0.139816 0
M  V30 3139 H 297.78 -2.80675 -2.56908 0
M  V30 3140 H 297.292 -3.74834 -1.00604 0
M  V30 3141 H 295.393 -2.25368 -2.96715 0
M  V30 3142 H 295.506 -4.0814 -2.50916 0
M  V30 3143 H 293.87 -2.11752 -1.41539 0
M  V30 3144 H 294.653 -3.41402 -0.360539 0
M  V30 3145 N 297.098 0.621204 -1.44841 0
M  V30 3146 C 298.031 1.7459 -1.46947 0
M  V30 3147 C 299.009 1.59273 -0.327238 0
M  V30 3148 O 300.193 1.81021 -0.525706 0
M  V30 3149 C 297.32 3.12274 -1.31159 0
M  V30 3150 C 296.366 3.46216 -2.49072 0
M  V30 3151 S 297.199 3.4258 -4.11581 0
M  V30 3152 C 298.355 4.82867 -3.98233 0
M  V30 3153 H 298.588 1.72538 -2.42111 0
M  V30 3154 H 296.121 0.796683 -1.32259 0
M  V30 3155 H 298.079 3.91722 -1.22737 0
M  V30 3156 H 296.74 3.11855 -0.374885 0
M  V30 3157 H 295.933 4.4643 -2.33915 0
M  V30 3158 H 295.535 2.74253 -2.54286 0
M  V30 3159 H 297.827 5.7234 -3.62537 0
M  V30 3160 H 298.77 5.0308 -4.98313 0
M  V30 3161 H 299.178 4.57908 -3.30121 0
M  V30 3162 N 298.576 1.31904 0.862503 0
M  V30 3163 C 299.822 1.22197 1.61851 0
M  V30 3164 C 300.155 -0.217641 1.92977 0
M  V30 3165 O 299.43 -1.15264 1.56666 0
M  V30 3166 C 299.713 2.07378 2.94391 0
M  V30 3167 C 299.566 3.59678 2.70096 0
M  V30 3168 C 300.885 1.92891 3.95577 0
M  V30 3169 H 298.004 0.445255 0.587296 0
M  V30 3170 H 300.646 1.6177 0.99651 0
M  V30 3171 H 298.796 1.73758 3.47477 0
M  V30 3172 H 300.468 4.03472 2.23625 0
M  V30 3173 H 298.711 3.82735 2.04197 0
M  V30 3174 H 299.382 4.14595 3.64438 0
M  V30 3175 H 301.858 2.22327 3.51724 0
M  V30 3176 H 300.734 2.54781 4.86187 0
M  V30 3177 H 300.995 0.894315 4.3296 0
M  V30 3178 N 300.054 -1.07777 1.14986 0
M  V30 3179 C 300.964 -2.18404 0.856546 0
M  V30 3180 C 301.98 -1.73211 -0.165485 0
M  V30 3181 O 303.156 -2.01399 0.00755219 0
M  V30 3182 C 300.221 -3.44977 0.34526 0
M  V30 3183 C 299.282 -4.0476 1.43065 0
M  V30 3184 C 298.515 -5.25291 0.943663 0
M  V30 3185 O 298.738 -5.70004 -0.212426 0
M  V30 3186 O 297.672 -5.76638 1.72547 0
M  V30 3187 H 301.498 -2.45978 1.78125 0
M  V30 3188 H 299.083 -1.17033 0.928631 0
M  V30 3189 H 300.965 -4.21348 0.0663671 0
M  V30 3190 H 299.64 -3.18965 -0.551631 0
M  V30 3191 H 298.547 -3.29949 1.76309 0
M  V30 3192 H 299.88 -4.35035 2.30229 0
M  V30 3193 N 301.532 -0.945985 -1.26051 0
M  V30 3194 C 302.76 -0.613025 -1.9761 0
M  V30 3195 C 303.175 0.813035 -1.70397 0
M  V30 3196 O 302.532 1.54274 -0.974979 0
M  V30 3197 C 302.583 -0.85159 -3.51326 0
M  V30 3198 O 302.304 -2.22157 -3.77595 0
M  V30 3199 C 303.805 -0.529831 -4.40122 0
M  V30 3200 H 301.025 -0.230593 -0.630133 0
M  V30 3201 H 303.569 -1.268 -1.60443 0
M  V30 3202 H 301.724 -0.243151 -3.86636 0
M  V30 3203 H 302.138 -2.2852 -4.721 0
M  V30 3204 H 303.612 -0.747348 -5.46917 0
M  V30 3205 H 304.089 0.535341 -4.35925 0
M  V30 3206 H 304.695 -1.11721 -4.10364 0
M  V30 3207 N 303.011 1.40521 -0.713556 0
M  V30 3208 C 303.941 2.33381 -0.0743864 0
M  V30 3209 C 304.922 1.52784 0.747735 0
M  V30 3210 O 306.107 1.81258 0.697071 0
M  V30 3211 C 303.237 3.36748 0.849598 0
M  V30 3212 C 302.191 4.27793 0.133247 0
M  V30 3213 C 301.517 5.21679 1.17281 0
M  V30 3214 C 302.817 5.12415 -1.01134 0
M  V30 3215 H 304.511 2.87081 -0.850007 0
M  V30 3216 H 302.057 1.38034 -0.410201 0
M  V30 3217 H 304.01 4.00648 1.30612 0
M  V30 3218 H 302.734 2.81439 1.65709 0
M  V30 3219 H 301.393 3.65342 -0.303426 0
M  V30 3220 H 301.041 4.62677 1.9733 0
M  V30 3221 H 300.741 5.83435 0.698397 0
M  V30 3222 H 302.265 5.88456 1.62947 0
M  V30 3223 H 303.679 5.69781 -0.634274 0
M  V30 3224 H 302.076 5.83203 -1.41399 0
M  V30 3225 H 303.146 4.48514 -1.84292 0
M  V30 3226 N 304.489 0.459591 1.5075 0
M  V30 3227 C 305.737 -0.0991532 2.01857 0
M  V30 3228 C 306.058 -1.41247 1.34441 0
M  V30 3229 O 305.328 -1.89775 0.486022 0
M  V30 3230 H 303.908 -0.039633 0.745948 0
M  V30 3231 H 306.57 0.607387 1.85194 0
M  V30 3232 H 305.666 -0.258998 3.11023 0
M  V30 3233 N 305.967 -1.56429 0.191757 0
M  V30 3234 C 307.195 -2.01867 -0.453586 0
M  V30 3235 C 307.61 -1.07191 -1.5542 0
M  V30 3236 O 306.967 -0.0762108 -1.82341 0
M  V30 3237 C 307.018 -3.47017 -1.013 0
M  V30 3238 O 306.739 -4.38078 0.0437005 0
M  V30 3239 C 308.24 -4.07956 -1.73456 0
M  V30 3240 H 305.46 -0.661211 -0.114199 0
M  V30 3241 H 308.004 -2.02295 0.299483 0
M  V30 3242 H 306.159 -3.47298 -1.71647 0
M  V30 3243 H 306.573 -5.23178 -0.372212 0
M  V30 3244 H 308.047 -5.1138 -2.07833 0
M  V30 3245 H 308.524 -3.51222 -2.63704 0
M  V30 3246 H 309.13 -4.11437 -1.07702 0
M  V30 3247 N 307.445 0.0818655 -1.57387 0
M  V30 3248 C 308.691 0.784074 -1.8703 0
M  V30 3249 C 309.024 1.77729 -0.782689 0
M  V30 3250 O 308.299 1.93384 0.208051 0
M  V30 3251 C 308.582 1.50105 -3.27323 0
M  V30 3252 C 308.435 0.524925 -4.46727 0
M  V30 3253 C 309.754 2.44843 -3.65705 0
M  V30 3254 H 306.873 0.283582 -0.680257 0
M  V30 3255 H 309.515 0.0474352 -1.89941 0
M  V30 3256 H 307.665 2.12897 -3.24972 0
M  V30 3257 H 309.337 -0.0970111 -4.61198 0
M  V30 3258 H 307.58 -0.160606 -4.33503 0
M  V30 3259 H 308.251 1.064 -5.41648 0
M  V30 3260 H 310.727 1.92135 -3.69085 0
M  V30 3261 H 309.603 2.92018 -4.64776 0
M  V30 3262 H 309.864 3.29197 -2.95096 0
M  V30 3263 N 308.923 1.53595 0.353017 0
M  V30 3264 C 309.853 1.83902 1.43883 0
M  V30 3265 C 310.834 0.693421 1.55324 0
M  V30 3266 O 312.019 0.944452 1.69687 0
M  V30 3267 C 309.149 2.04016 2.8106 0
M  V30 3268 C 308.103 3.19814 2.84434 0
M  V30 3269 C 307.429 3.25244 4.24406 0
M  V30 3270 C 308.729 4.58133 2.50822 0
M  V30 3271 H 310.423 2.74835 1.1877 0
M  V30 3272 H 307.969 1.32242 0.569917 0
M  V30 3273 H 309.922 2.238 3.57059 0
M  V30 3274 H 308.646 1.09804 3.07588 0
M  V30 3275 H 307.305 2.9987 2.10887 0
M  V30 3276 H 306.953 2.28646 4.48029 0
M  V30 3277 H 306.653 4.03054 4.27576 0
M  V30 3278 H 308.177 3.47228 5.0226 0
M  V30 3279 H 309.591 4.77995 3.16534 0
M  V30 3280 H 307.988 5.38276 2.6529 0
M  V30 3281 H 309.058 4.62387 1.46034 0
M  V30 3282 N 310.401 -0.613514 1.45168 0
M  V30 3283 C 311.333 -1.73825 1.4939 0
M  V30 3284 C 312.346 -1.58175 0.385304 0
M  V30 3285 O 313.535 -1.66165 0.652036 0
M  V30 3286 C 310.635 -3.11758 1.32891 0
M  V30 3287 C 309.808 -3.53704 2.57317 0
M  V30 3288 C 308.867 -4.70579 2.35462 0
M  V30 3289 O 307.893 -4.77996 3.09044 0
M  V30 3290 N 309.095 -5.63454 1.39644 0
M  V30 3291 H 311.86 -1.70669 2.46358 0
M  V30 3292 H 309.421 -0.79862 1.40832 0
M  V30 3293 H 311.413 -3.87692 1.1609 0
M  V30 3294 H 309.983 -3.09456 0.442218 0
M  V30 3295 H 309.203 -2.67794 2.89275 0
M  V30 3296 H 310.491 -3.78486 3.40038 0
M  V30 3297 H 309.889 -5.6017 0.789062 0
M  V30 3298 H 308.446 -6.38944 1.28816 0
M  V30 3299 N 311.879 -1.3236 -0.855495 0
M  V30 3300 C 312.809 -1.23833 -1.97958 0
M  V30 3301 C 313.79 -0.122361 -1.69659 0
M  V30 3302 O 314.975 -0.30939 -1.9172 0
M  V30 3303 C 312.105 -0.959772 -3.33775 0
M  V30 3304 C 311.059 -2.03689 -3.76424 0
M  V30 3305 C 310.385 -1.61075 -5.09862 0
M  V30 3306 C 311.685 -3.4518 -3.9198 0
M  V30 3307 H 313.379 -2.1788 -2.0535 0
M  V30 3308 H 310.925 -1.04891 -0.986605 0
M  V30 3309 H 312.878 -0.886678 -4.11966 0
M  V30 3310 H 311.602 0.0163404 -3.26596 0
M  V30 3311 H 310.261 -2.10012 -3.00484 0
M  V30 3312 H 309.909 -0.622107 -4.99138 0
M  V30 3313 H 309.609 -2.33143 -5.39368 0
M  V30 3314 H 311.133 -1.55201 -5.90546 0
M  V30 3315 H 312.547 -3.4145 -4.60526 0
M  V30 3316 H 310.944 -4.1559 -4.32903 0
M  V30 3317 H 312.014 -3.84903 -2.94919 0
M  V30 3318 N 313.357 1.07166 -1.15556 0
M  V30 3319 C 314.304 2.14417 -0.854055 0
M  V30 3320 C 315.274 1.64965 0.193806 0
M  V30 3321 O 316.459 1.90703 0.0609443 0
M  V30 3322 C 313.599 3.43304 -0.351574 0
M  V30 3323 C 312.712 4.06537 -1.46123 0
M  V30 3324 C 311.847 5.23266 -0.914677 0
M  V30 3325 C 310.886 5.78464 -2.00114 0
M  V30 3326 N 310.023 6.86521 -1.47083 0
M  V30 3327 H 314.863 2.39548 -1.77259 0
M  V30 3328 H 312.4 1.17543 -0.884425 0
M  V30 3329 H 314.358 4.17179 -0.0419409 0
M  V30 3330 H 312.988 3.18419 0.530037 0
M  V30 3331 H 312.04 3.30297 -1.88701 0
M  V30 3332 H 313.352 4.43567 -2.28144 0
M  V30 3333 H 312.506 6.04131 -0.557698 0
M  V30 3334 H 311.245 4.87658 -0.0636583 0
M  V30 3335 H 310.25 4.96243 -2.36692 0
M  V30 3336 H 311.475 6.16126 -2.85597 0
M  V30 3337 H 309.421 6.52849 -0.642198 0
M  V30 3338 H 309.338 7.22446 -2.22729 0
M  V30 3339 H 310.606 7.71087 -1.14215 0
M  V30 3340 N 314.835 0.952656 1.25548 0
M  V30 3341 C 315.767 0.428609 2.25157 0
M  V30 3342 C 316.78 -0.454428 1.56329 0
M  V30 3343 O 317.969 -0.263023 1.76552 0
M  V30 3344 C 315.069 -0.401972 3.36508 0
M  V30 3345 C 314.242 0.467601 4.34893 0
M  V30 3346 C 313.301 -0.30445 5.25319 0
M  V30 3347 O 312.327 0.296473 5.68427 0
M  V30 3348 N 313.529 -1.59805 5.5807 0
M  V30 3349 H 316.294 1.28497 2.70756 0
M  V30 3350 H 313.855 0.822798 1.39433 0
M  V30 3351 H 315.847 -0.926134 3.9396 0
M  V30 3352 H 314.417 -1.15918 2.90313 0
M  V30 3353 H 313.637 1.17288 3.76347 0
M  V30 3354 H 314.925 1.06119 4.97611 0
M  V30 3355 H 314.323 -2.10823 5.24948 0
M  V30 3356 H 312.88 -2.06822 6.18116 0
M  V30 3357 N 316.313 -1.40141 0.720998 0
M  V30 3358 C 317.724 -1.83678 0.334553 0
M  V30 3359 C 318.075 -1.6027 -1.13173 0
M  V30 3360 O 317.2 -1.08643 -1.87152 0
M  V30 3361 C 317.795 -3.33437 0.600437 0
M  V30 3362 C 316.354 -3.75447 0.267642 0
M  V30 3363 C 315.501 -2.63296 0.870097 0
M  V30 3364 H 318.452 -1.29331 0.919732 0
M  V30 3365 H 318.473 -3.80269 -0.132517 0
M  V30 3366 H 317.985 -3.50442 1.66768 0
M  V30 3367 H 316.086 -3.64035 -0.794329 0
M  V30 3368 H 316.199 -4.73344 0.74042 0
M  V30 3369 H 314.563 -2.52954 0.297739 0
M  V30 3370 H 315.346 -2.83112 1.94172 0
M  V30 3371 N 317.792 -0.46758 -1.50504 0
M  V30 3372 C 318.722 0.318381 -2.31319 0
M  V30 3373 C 319.703 0.993564 -1.38066 0
M  V30 3374 O 320.888 0.991411 -1.66987 0
M  V30 3375 C 318.018 1.40275 -3.17711 0
M  V30 3376 C 316.972 0.849373 -4.19487 0
M  V30 3377 C 316.298 2.03177 -4.94594 0
M  V30 3378 C 317.598 -0.136942 -5.2212 0
M  V30 3379 H 319.292 -0.356106 -2.97275 0
M  V30 3380 H 316.838 -0.172703 -1.42961 0
M  V30 3381 H 318.791 1.96004 -3.73042 0
M  V30 3382 H 317.515 2.10596 -2.49634 0
M  V30 3383 H 316.174 0.314076 -3.65252 0
M  V30 3384 H 315.822 2.72187 -4.22993 0
M  V30 3385 H 315.522 1.66774 -5.63436 0
M  V30 3386 H 317.046 2.59403 -5.52759 0
M  V30 3387 H 318.46 0.331056 -5.72343 0
M  V30 3388 H 316.857 -0.41507 -5.98663 0
M  V30 3389 H 317.927 -1.06398 -4.73083 0
M  V30 3390 N 319.27 1.56325 -0.20005 0
M  V30 3391 C 320.218 2.20666 0.735482 0
M  V30 3392 C 321.212 1.17934 1.21605 0
M  V30 3393 O 322.418 1.36068 1.17837 0
M  V30 3394 H 318.793 0.70725 0.255542 0
M  V30 3395 H 320.764 2.9792 0.169166 0
M  V30 3396 C 319.513 2.88391 1.94232 0
M  V30 3397 H 318.836 3.67185 1.58161 0
M  V30 3398 H 320.276 3.3684 2.57517 0
M  V30 3399 C 318.735 1.89692 2.78421 0
M  V30 3400 O 319.265 1.40032 3.76502 0
M  V30 3401 N 317.471 1.57813 2.44015 0
M  V30 3402 H 317.018 1.9839 1.64314 0
M  V30 3403 H 316.976 0.920325 3.00628 0
M  V30 3404 N 320.748 -0.0735177 1.57428 0
M  V30 3405 C 321.976 -0.785969 1.9139 0
M  V30 3406 C 322.391 -1.71207 0.795847 0
M  V30 3407 O 321.748 -1.81033 -0.230915 0
M  V30 3408 C 321.799 -1.58107 3.25091 0
M  V30 3409 O 321.52 -0.6922 4.32597 0
M  V30 3410 C 323.021 -2.39467 3.73055 0
M  V30 3411 H 320.241 -0.223558 0.632663 0
M  V30 3412 H 322.785 -0.044302 2.04452 0
M  V30 3413 H 320.94 -2.27503 3.13562 0
M  V30 3414 H 321.354 -1.24504 5.09508 0
M  V30 3415 H 322.828 -2.90716 4.69242 0
M  V30 3416 H 323.305 -3.18913 3.01979 0
M  V30 3417 H 323.911 -1.7523 3.87523 0
M  V30 3418 N 322.226 -1.5378 -0.344866 0
M  V30 3419 C 323.454 -1.74899 -1.10534 0
M  V30 3420 C 323.869 -0.487534 -1.82397 0
M  V30 3421 O 323.226 0.540741 -1.74305 0
M  V30 3422 C 323.277 -2.92822 -2.11984 0
M  V30 3423 O 322.998 -4.14089 -1.43044 0
M  V30 3424 C 324.499 -3.25982 -3.00417 0
M  V30 3425 H 321.719 -0.584426 -0.329678 0
M  V30 3426 H 324.263 -2.006 -0.397474 0
M  V30 3427 H 322.418 -2.69457 -2.78338 0
M  V30 3428 H 322.832 -4.80272 -2.10805 0
M  V30 3429 H 324.306 -4.11848 -3.67539 0
M  V30 3430 H 324.783 -2.42228 -3.66363 0
M  V30 3431 H 325.389 -3.51349 -2.39654 0
M  V30 3432 N 323.704 0.605807 -1.45491 0
M  V30 3433 C 325.12 0.926751 -1.29936 0
M  V30 3434 C 325.32 1.99896 -0.253706 0
M  V30 3435 O 324.376 2.50038 0.351737 0
M  V30 3436 C 325.689 1.36599 -2.67883 0
M  V30 3437 C 327.237 1.4801 -2.75793 0
M  V30 3438 C 327.712 1.95309 -4.14268 0
M  V30 3439 N 329.203 2.0254 -4.16571 0
M  V30 3440 C 329.938 2.40363 -5.20589 0
M  V30 3441 N 329.434 2.77143 -6.34952 0
M  V30 3442 N 331.227 2.40718 -5.07948 0
M  V30 3443 H 323.378 -0.102862 -2.12151 0
M  V30 3444 H 325.641 0.016639 -0.947854 0
M  V30 3445 H 325.347 0.652306 -3.45598 0
M  V30 3446 H 325.221 2.33215 -2.96463 0
M  V30 3447 H 327.608 2.1847 -1.98381 0
M  V30 3448 H 327.689 0.497041 -2.50925 0
M  V30 3449 H 327.333 1.25436 -4.92167 0
M  V30 3450 H 327.263 2.94532 -4.3653 0
M  V30 3451 H 329.754 1.76699 -3.34045 0
M  V30 3452 H 330.067 3.0489 -7.10114 0
M  V30 3453 H 328.412 2.74834 -6.3835 0
M  V30 3454 H 331.603 2.11392 -4.1765 0
M  V30 3455 H 331.776 2.69869 -5.89131 0
M  V30 3456 N 325.182 1.32811 0.848464 0
M  V30 3457 C 326.431 1.23075 1.59798 0
M  V30 3458 C 326.744 -0.204419 1.94529 0
M  V30 3459 O 327.95 -0.423701 2.68173 0
M  V30 3460 C 326.406 2.15594 2.88179 0
M  V30 3461 C 326.014 3.64228 2.60849 0
M  V30 3462 C 327.758 2.14709 3.66197 0
M  V30 3463 C 325.665 4.48689 3.85269 0
M  V30 3464 H 324.595 0.457091 0.599653 0
M  V30 3465 H 327.246 1.57813 0.936342 0
M  V30 3466 H 325.628 1.73778 3.55833 0
M  V30 3467 H 326.802 4.14424 2.01467 0
M  V30 3468 H 325.117 3.67306 1.96151 0
M  V30 3469 H 327.714 2.75046 4.58534 0
M  V30 3470 H 328.057 1.13966 4.00397 0
M  V30 3471 H 328.59 2.54837 3.05455 0
M  V30 3472 H 325.329 5.5027 3.56207 0
M  V30 3473 H 324.849 4.03241 4.44024 0
M  V30 3474 H 326.528 4.62006 4.52946 0
M  V30 3475 N 326.66 -1.06551 1.16123 0
M  V30 3476 C 327.608 -2.16063 0.861371 0
M  V30 3477 C 328.602 -1.6856 -0.168517 0
M  V30 3478 O 329.808 -1.79986 -0.0227579 0
M  V30 3479 H 326.183 -0.705278 0.260934 0
M  V30 3480 H 328.154 -2.38567 1.79244 0
M  V30 3481 C 326.903 -3.45661 0.376018 0
M  V30 3482 H 326.226 -3.82604 1.15992 0
M  V30 3483 H 327.666 -4.23504 0.204951 0
M  V30 3484 C 326.125 -3.24546 -0.903954 0
M  V30 3485 O 326.655 -3.49865 -1.97377 0
M  V30 3486 N 324.861 -2.77992 -0.846679 0
M  V30 3487 H 324.408 -2.57589 0.0241017 0
M  V30 3488 H 324.366 -2.64244 -1.70359 0
M  V30 3489 N 328.138 -0.959301 -1.25041 0
M  V30 3490 C 329.101 -0.487677 -2.23952 0
M  V30 3491 C 330.101 0.41119 -1.55454 0
M  V30 3492 O 331.291 0.207825 -1.72956 0
M  V30 3493 C 328.423 0.294807 -3.39623 0
M  V30 3494 H 329.616 -1.36198 -2.67189 0
M  V30 3495 H 327.169 -0.743042 -1.37508 0
M  V30 3496 H 327.904 1.18658 -3.01813 0
M  V30 3497 H 327.689 -0.35012 -3.90534 0
M  V30 3498 H 329.179 0.614089 -4.1306 0
M  V30 3499 N 329.616 1.39756 -0.72842 0
M  V30 3500 C 330.579 2.29012 -0.0927297 0
M  V30 3501 C 331.579 1.45992 0.674025 0
M  V30 3502 O 332.769 1.66749 0.50402 0
M  V30 3503 C 329.901 3.29396 0.878137 0
M  V30 3504 H 331.094 2.86729 -0.879011 0
M  V30 3505 H 328.647 1.48293 -0.493847 0
M  V30 3506 H 329.382 2.76722 1.69101 0
M  V30 3507 H 329.167 3.907 0.331051 0
M  V30 3508 H 330.657 3.96199 1.3197 0
M  V30 3509 N 331.094 0.475555 1.50254 0
M  V30 3510 C 332.004 -0.321501 2.32387 0
M  V30 3511 C 333.02 -0.991755 1.42969 0
M  V30 3512 O 334.196 -0.978747 1.76018 0
M  V30 3513 C 331.261 -1.38667 3.17762 0
M  V30 3514 C 330.322 -0.732538 4.23004 0
M  V30 3515 C 329.555 -1.74695 5.04299 0
M  V30 3516 O 329.778 -2.97399 4.86734 0
M  V30 3517 O 328.712 -1.31631 5.8733 0
M  V30 3518 H 332.538 0.350071 3.01676 0
M  V30 3519 H 330.123 0.237321 1.47503 0
M  V30 3520 H 332.005 -2.00354 3.70724 0
M  V30 3521 H 330.68 -2.04163 2.51196 0
M  V30 3522 H 329.587 -0.0765902 3.74022 0
M  V30 3523 H 330.92 -0.120452 4.92053 0
M  V30 3524 N 332.573 -1.56217 0.208337 0
M  V30 3525 C 333.822 -1.97124 -0.427204 0
M  V30 3526 C 334.135 -1.09859 -1.61835 0
M  V30 3527 O 335.341 -1.40606 -2.32255 0
M  V30 3528 C 333.797 -3.50633 -0.811442 0
M  V30 3529 C 333.405 -4.46582 0.35615 0
M  V30 3530 C 335.149 -4.00282 -1.41332 0
M  V30 3531 C 333.056 -5.91379 -0.0497852 0
M  V30 3532 H 331.986 -0.736086 -0.163381 0
M  V30 3533 H 334.637 -1.8099 0.302456 0
M  V30 3534 H 333.019 -3.62319 -1.59815 0
M  V30 3535 H 334.193 -4.46636 1.1337 0
M  V30 3536 H 332.508 -4.07202 0.870396 0
M  V30 3537 H 335.105 -5.0595 -1.72972 0
M  V30 3538 H 335.448 -3.45359 -2.32449 0
M  V30 3539 H 335.981 -3.91764 -0.690323 0
M  V30 3540 H 332.72 -6.50255 0.827529 0
M  V30 3541 H 332.24 -5.94549 -0.791926 0
M  V30 3542 H 333.919 -6.45209 -0.481042 0
M  V30 3543 N 334.051 0.0651679 -1.57465 0
M  V30 3544 C 334.961 1.09448 -2.07505 0
M  V30 3545 C 335.977 1.41974 -1.00595 0
M  V30 3546 O 337.153 1.52018 -1.32107 0
M  V30 3547 C 334.218 2.38689 -2.51453 0
M  V30 3548 C 333.279 2.13073 -3.72691 0
M  V30 3549 C 332.512 3.36152 -4.14533 0
M  V30 3550 O 332.735 4.45517 -3.56189 0
M  V30 3551 O 331.669 3.23974 -5.07272 0
M  V30 3552 H 335.495 0.69935 -2.95538 0
M  V30 3553 H 333.08 0.279752 -1.46757 0
M  V30 3554 H 334.962 3.14736 -2.80212 0
M  V30 3555 H 333.637 2.77568 -1.66546 0
M  V30 3556 H 332.544 1.34709 -3.49005 0
M  V30 3557 H 333.877 1.79071 -4.5847 0
M  V30 3558 N 335.529 1.53961 0.336706 0
M  V30 3559 C 336.754 1.75797 1.10046 0
M  V30 3560 C 337.179 0.498985 1.81361 0
M  V30 3561 O 336.537 -0.548769 1.72795 0
M  V30 3562 C 336.585 2.94257 2.08436 0
M  V30 3563 O 335.689 2.64883 3.16087 0
M  V30 3564 H 335.03 0.582936 0.317934 0
M  V30 3565 H 337.56 2.00945 0.38501 0
M  V30 3566 H 337.57 3.21237 2.51537 0
M  V30 3567 H 336.245 3.85564 1.55927 0
M  V30 3568 H 334.822 2.48812 2.77753 0
M  V30 3569 N 337.007 -0.598083 1.45811 0
M  V30 3570 C 338.423 -0.919847 1.30426 0
M  V30 3571 C 338.623 -1.99759 0.264303 0
M  V30 3572 O 337.679 -2.50221 -0.338472 0
M  V30 3573 C 338.992 -1.35176 2.68603 0
M  V30 3574 C 340.54 -1.46546 2.76574 0
M  V30 3575 C 341.015 -1.9311 4.15298 0
M  V30 3576 N 342.506 -2.00328 4.1764 0
M  V30 3577 C 343.241 -2.37599 5.21856 0
M  V30 3578 N 342.737 -2.73771 6.36413 0
M  V30 3579 N 344.53 -2.38021 5.09218 0
M  V30 3580 H 336.681 0.114111 2.12093 0
M  V30 3581 H 338.944 -0.0116121 0.947929 0
M  V30 3582 H 338.65 -0.633969 3.45939 0
M  V30 3583 H 338.524 -2.3164 2.97696 0
M  V30 3584 H 340.911 -2.17415 1.99537 0
M  V30 3585 H 340.992 -0.483727 2.51185 0
M  V30 3586 H 340.636 -1.22824 4.92825 0
M  V30 3587 H 340.566 -2.92213 4.38086 0
M  V30 3588 H 343.057 -1.74925 3.34977 0
M  V30 3589 H 343.37 -3.0112 7.11721 0
M  V30 3590 H 341.715 -2.71445 6.39799 0
M  V30 3591 H 344.906 -2.09174 4.18765 0
M  V30 3592 H 345.079 -2.66741 5.90554 0
M  V30 3593 N 338.485 -1.33259 -0.841409 0
M  V30 3594 C 339.731 -1.24757 -1.59886 0
M  V30 3595 C 340.064 0.186913 -1.93298 0
M  V30 3596 O 339.339 1.12757 -1.5848 0
M  V30 3597 C 339.622 -2.12036 -2.91055 0
M  V30 3598 C 339.475 -3.63929 -2.6434 0
M  V30 3599 C 340.794 -1.9916 -3.92458 0
M  V30 3600 H 337.913 -0.454542 -0.580138 0
M  V30 3601 H 340.555 -1.63335 -0.970647 0
M  V30 3602 H 338.705 -1.79265 -3.44669 0
M  V30 3603 H 340.377 -4.06978 -2.17178 0
M  V30 3604 H 338.62 -3.85935 -1.98082 0
M  V30 3605 H 339.291 -4.20341 -3.57796 0
M  V30 3606 H 341.767 -2.27895 -3.48143 0
M  V30 3607 H 340.643 -2.62484 -4.82072 0
M  V30 3608 H 340.904 -0.963082 -4.31482 0
M  V30 3609 N 339.963 1.05934 -1.16686 0
M  V30 3610 C 341.379 1.30938 -0.912542 0
M  V30 3611 C 341.579 1.96803 0.432533 0
M  V30 3612 O 340.635 2.23693 1.17123 0
M  V30 3613 C 341.948 2.18649 -2.06429 0
M  V30 3614 C 343.496 2.32055 -2.10047 0
M  V30 3615 C 343.971 3.23122 -3.24586 0
M  V30 3616 N 345.462 3.30706 -3.24327 0
M  V30 3617 C 346.197 4.01273 -4.09594 0
M  V30 3618 N 345.693 4.74332 -5.04956 0
M  V30 3619 N 347.486 3.97361 -3.97569 0
M  V30 3620 H 339.637 0.615777 -2.03278 0
M  V30 3621 H 341.9 0.334077 -0.887185 0
M  V30 3622 H 341.606 1.77534 -3.03603 0
M  V30 3623 H 341.48 3.19252 -2.00894 0
M  V30 3624 H 343.867 2.72415 -1.13464 0
M  V30 3625 H 343.948 1.31107 -2.19647 0
M  V30 3626 H 343.592 2.83477 -4.2143 0
M  V30 3627 H 343.522 4.24057 -3.12223 0
M  V30 3628 H 346.013 2.78644 -2.55276 0
M  V30 3629 H 346.326 5.25716 -5.6643 0
M  V30 3630 H 344.671 4.733 -5.08933 0
M  V30 3631 H 347.862 3.39405 -3.22369 0
M  V30 3632 H 348.035 4.52089 -4.64241 0
M  V30 3633 N 341.441 0.965919 1.2453 0
M  V30 3634 C 342.351 0.502154 2.29163 0
M  V30 3635 C 343.367 -0.436017 1.68448 0
M  V30 3636 O 344.543 -0.309497 1.99008 0
M  V30 3637 C 341.608 -0.201956 3.46111 0
M  V30 3638 C 340.669 0.775821 4.22232 0
M  V30 3639 C 339.902 0.105217 5.33596 0
M  V30 3640 O 340.125 -1.10683 5.59558 0
M  V30 3641 O 339.059 0.796475 5.96607 0
M  V30 3642 H 342.885 1.37194 2.70946 0
M  V30 3643 H 340.47 0.732875 1.30189 0
M  V30 3644 H 342.352 -0.597564 4.17142 0
M  V30 3645 H 341.027 -1.04673 3.06309 0
M  V30 3646 H 339.934 1.22185 3.53584 0
M  V30 3647 H 341.267 1.58896 4.65846 0
M  V30 3648 N 342.919 -1.39368 0.735821 0
M  V30 3649 C 343.849 -2.33234 0.111506 0
M  V30 3650 C 344.83 -1.53954 -0.723334 0
M  V30 3651 O 346.015 -1.82344 -0.668147 0
M  V30 3652 C 343.145 -3.38057 -0.795917 0
M  V30 3653 C 342.099 -4.2795 -0.065172 0
M  V30 3654 C 341.425 -5.23479 -1.08967 0
M  V30 3655 C 342.725 -5.10741 1.09273 0
M  V30 3656 H 344.419 -2.85692 0.895571 0
M  V30 3657 H 341.965 -1.37364 0.432109 0
M  V30 3658 H 343.918 -4.02675 -1.24221 0
M  V30 3659 H 342.642 -2.8404 -1.61211 0
M  V30 3660 H 341.301 -3.64813 0.361511 0
M  V30 3661 H 340.949 -4.65758 -1.89944 0
M  V30 3662 H 340.649 -5.84472 -0.605489 0
M  V30 3663 H 342.173 -5.90974 -1.53565 0
M  V30 3664 H 343.587 -5.68699 0.724841 0
M  V30 3665 H 341.984 -5.8088 1.50659 0
M  V30 3666 H 343.054 -4.45525 1.91404 0
M  V30 3667 N 344.397 -0.483516 -1.5 0
M  V30 3668 C 345.622 0.0667119 -2.07293 0
M  V30 3669 C 346.047 1.3164 -1.3436 0
M  V30 3670 O 345.405 1.76945 -0.394987 0
M  V30 3671 C 345.453 0.321126 -3.59167 0
M  V30 3672 O 344.557 1.39927 -3.87936 0
M  V30 3673 H 343.898 -0.0184758 -0.663743 0
M  V30 3674 H 346.428 -0.678125 -1.93035 0
M  V30 3675 H 346.438 0.557906 -4.04168 0
M  V30 3676 H 345.113 -0.592007 -4.11665 0
M  V30 3677 H 343.69 1.14882 -3.54763 0
M  V30 3678 N 345.875 1.56104 -0.216619 0
M  V30 3679 C 346.822 2.2007 0.695531 0
M  V30 3680 C 347.792 1.15471 1.19397 0
M  V30 3681 O 348.977 1.43807 1.25396 0
M  V30 3682 C 346.117 2.88073 1.90021 0
M  V30 3683 C 345.23 4.07253 1.44113 0
M  V30 3684 C 344.365 4.63052 2.603 0
M  V30 3685 C 343.404 5.74545 2.11103 0
M  V30 3686 N 342.541 6.24656 3.20545 0
M  V30 3687 H 347.381 2.97655 0.143327 0
M  V30 3688 H 344.918 1.46982 0.0589934 0
M  V30 3689 H 346.876 3.25681 2.60745 0
M  V30 3690 H 345.506 2.13015 2.42538 0
M  V30 3691 H 344.558 3.75164 0.628999 0
M  V30 3692 H 345.87 4.8783 1.04036 0
M  V30 3693 H 345.024 5.03078 3.39113 0
M  V30 3694 H 343.763 3.81628 3.03663 0
M  V30 3695 H 342.768 5.34027 1.3075 0
M  V30 3696 H 343.993 6.57801 1.68746 0
M  V30 3697 H 341.939 5.46148 3.63399 0
M  V30 3698 H 341.856 7.00343 2.84704 0
M  V30 3699 H 343.124 6.69338 3.99508 0
M  V30 3700 N 347.353 -0.0568162 1.57498 0
M  V30 3701 C 348.283 -1.06593 2.0775 0
M  V30 3702 C 349.264 -1.39448 0.974082 0
M  V30 3703 O 350.449 -1.48815 1.24771 0
M  V30 3704 C 347.579 -2.37509 2.5339 0
M  V30 3705 C 346.533 -2.1897 3.67745 0
M  V30 3706 C 345.859 -3.55402 3.99492 0
M  V30 3707 C 347.159 -1.59859 4.97235 0
M  V30 3708 H 348.853 -0.647706 2.9231 0
M  V30 3709 H 346.399 -0.310116 1.40621 0
M  V30 3710 H 348.352 -3.08409 2.87162 0
M  V30 3711 H 347.076 -2.8134 1.65878 0
M  V30 3712 H 345.735 -1.50508 3.3428 0
M  V30 3713 H 345.383 -3.9683 3.09088 0
M  V30 3714 H 345.083 -3.43831 4.76502 0
M  V30 3715 H 346.607 -4.27708 4.35773 0
M  V30 3716 H 348.021 -2.20642 5.29141 0
M  V30 3717 H 346.418 -1.58942 5.78669 0
M  V30 3718 H 347.488 -0.561506 4.81638 0
M  V30 3719 N 348.832 -1.54138 -0.328536 0
M  V30 3720 C 349.795 -1.82462 -1.38709 0
M  V30 3721 C 350.795 -0.696229 -1.44946 0
M  V30 3722 O 351.985 -0.964535 -1.4506 0
M  V30 3723 C 349.117 -1.98018 -2.77492 0
M  V30 3724 H 350.31 -2.77037 -1.14851 0
M  V30 3725 H 347.863 -1.45779 -0.563751 0
M  V30 3726 H 348.598 -1.05637 -3.06613 0
M  V30 3727 H 348.383 -2.80124 -2.74359 0
M  V30 3728 H 349.873 -2.21396 -3.54081 0
M  V30 3729 N 350.31 0.590341 -1.46126 0
M  V30 3730 C 351.22 1.72793 -1.58681 0
M  V30 3731 C 352.236 1.67516 -0.470566 0
M  V30 3732 O 353.412 1.87562 -0.733642 0
M  V30 3733 C 350.477 3.09287 -1.5666 0
M  V30 3734 C 349.538 3.25886 -2.79458 0
M  V30 3735 C 348.771 4.55869 -2.77524 0
M  V30 3736 O 348.994 5.3928 -1.85832 0
M  V30 3737 O 347.928 4.75552 -3.68964 0
M  V30 3738 H 351.754 1.65149 -2.54872 0
M  V30 3739 H 349.339 0.756486 -1.28832 0
M  V30 3740 H 351.221 3.90577 -1.58202 0
M  V30 3741 H 349.896 3.17385 -0.636271 0
M  V30 3742 H 348.803 2.44119 -2.83472 0
M  V30 3743 H 350.136 3.22675 -3.71674 0
M  V30 3744 N 351.788 1.33704 0.83433 0
M  V30 3745 C 353.016 1.28467 1.62185 0
M  V30 3746 C 353.431 -0.143526 1.88254 0
M  V30 3747 O 352.788 -1.08709 1.4659 0
M  V30 3748 C 352.839 2.06174 2.96942 0
M  V30 3749 O 352.56 3.43422 2.72016 0
M  V30 3750 C 354.061 2.08201 3.91366 0
M  V30 3751 H 351.281 0.4424 0.504503 0
M  V30 3752 H 353.825 1.76145 1.03891 0
M  V30 3753 H 351.98 1.62167 3.51825 0
M  V30 3754 H 352.394 3.83453 3.57861 0
M  V30 3755 H 353.868 2.67017 4.83121 0
M  V30 3756 H 354.345 1.07343 4.2588 0
M  V30 3757 H 354.951 2.52246 3.42421 0
M  V30 3758 N 353.266 -1.05314 1.17247 0
M  V30 3759 C 354.494 -1.81971 0.984593 0
M  V30 3760 C 354.909 -1.82929 -0.467166 0
M  V30 3761 O 354.266 -1.25564 -1.32438 0
M  V30 3762 C 354.317 -3.28143 1.51672 0
M  V30 3763 O 354.038 -3.27347 2.91163 0
M  V30 3764 C 355.539 -4.21493 1.37326 0
M  V30 3765 H 352.759 -0.573455 0.348411 0
M  V30 3766 H 355.303 -1.32808 1.55506 0
M  V30 3767 H 353.458 -3.74582 0.988302 0
M  V30 3768 H 353.872 -4.18824 3.15732 0
M  V30 3769 H 355.346 -5.22043 1.79375 0
M  V30 3770 H 355.823 -4.38031 0.320169 0
M  V30 3771 H 356.429 -3.80909 1.89178 0
M  V30 3772 N 354.744 -0.972509 -1.24016 0
M  V30 3773 C 356.021 -0.553733 -1.87598 0
M  V30 3774 C 356.401 0.969158 -1.87538 0
M  V30 3775 O 355.749 1.84255 -1.35139 0
M  V30 3776 C 355.959 -1.15076 -3.29482 0
M  V30 3777 C 357.307 -1.23862 -4.06132 0
M  V30 3778 O 358.331 -1.10363 -3.38672 0
M  V30 3779 O 357.19 -1.45252 -5.26844 0
M  V30 3780 H 354.284 -0.185331 -0.805966 0
M  V30 3781 H 356.83 -1.06709 -1.31952 0
M  V30 3782 H 355.602 -2.19333 -3.2405 0
M  V30 3783 H 355.225 -0.621746 -3.92709 0
M  V30 3784 N 356.222 1.38976 -0.743202 0
M  V30 3785 C 357.169 2.30544 -0.10861 0
M  V30 3786 C 358.139 1.49642 0.720869 0
M  V30 3787 O 359.324 1.78304 0.679142 0
M  V30 3788 C 356.464 3.36018 0.786496 0
M  V30 3789 C 355.577 4.31963 -0.0564849 0
M  V30 3790 C 354.712 5.24506 0.840657 0
M  V30 3791 C 353.751 6.121 -0.00658363 0
M  V30 3792 N 352.888 6.96973 0.846943 0
M  V30 3793 H 357.728 2.8424 -0.895088 0
M  V30 3794 H 355.265 1.3995 -0.453048 0
M  V30 3795 H 357.223 3.95768 1.31999 0
M  V30 3796 H 355.853 2.83758 1.53887 0
M  V30 3797 H 354.905 3.73763 -0.707492 0
M  V30 3798 H 356.217 4.93703 -0.711229 0
M  V30 3799 H 355.371 5.89322 1.4417 0
M  V30 3800 H 354.11 4.63107 1.52916 0
M  V30 3801 H 353.115 5.46289 -0.620366 0
M  V30 3802 H 354.34 6.75565 -0.691992 0
M  V30 3803 H 352.286 6.38133 1.52059 0
M  V30 3804 H 352.203 7.5559 0.248864 0
M  V30 3805 H 353.471 7.6621 1.43328 0
M  V30 3806 N 357.7 0.491464 1.49741 0
M  V30 3807 C 358.946 -0.0565092 2.02721 0
M  V30 3808 C 359.279 -1.37522 1.37118 0
M  V30 3809 O 358.554 -1.87866 0.503645 0
M  V30 3810 C 358.837 -0.219051 3.59433 0
M  V30 3811 C 358.69 1.12211 4.35579 0
M  V30 3812 C 360.009 -0.964157 4.29409 0
M  V30 3813 H 357.128 -0.0190627 0.736753 0
M  V30 3814 H 359.77 0.641021 1.7886 0
M  V30 3815 H 357.92 -0.813165 3.79895 0
M  V30 3816 H 359.592 1.75437 4.26637 0
M  V30 3817 H 357.835 1.71377 3.98513 0
M  V30 3818 H 358.506 0.961794 5.43556 0
M  V30 3819 H 360.982 -0.460378 4.13545 0
M  V30 3820 H 359.858 -1.04671 5.38828 0
M  V30 3821 H 360.119 -2.00563 3.93988 0
M  V30 3822 N 359.178 -1.55987 0.224894 0
M  V30 3823 C 360.125 -2.20436 -0.68385 0
M  V30 3824 C 361.095 -1.16102 -1.18783 0
M  V30 3825 O 362.28 -1.4447 -1.24632 0
M  V30 3826 C 359.42 -2.89076 -1.88491 0
M  V30 3827 C 358.533 -4.08012 -1.41951 0
M  V30 3828 C 357.668 -4.64426 -2.5784 0
M  V30 3829 C 356.707 -5.75656 -2.08053 0
M  V30 3830 N 355.844 -6.26347 -3.17227 0
M  V30 3831 H 360.684 -2.97727 -0.12754 0
M  V30 3832 H 358.221 -1.47011 -0.0511978 0
M  V30 3833 H 360.179 -3.27059 -2.59014 0
M  V30 3834 H 358.809 -2.14298 -2.41405 0
M  V30 3835 H 357.861 -3.75492 -0.609095 0
M  V30 3836 H 359.173 -4.88375 -1.01447 0
M  V30 3837 H 358.327 -5.04869 -3.3644 0
M  V30 3838 H 357.066 -3.83233 -3.01635 0
M  V30 3839 H 356.071 -5.34712 -1.27916 0
M  V30 3840 H 357.296 -6.58686 -1.65255 0
M  V30 3841 H 355.242 -5.48067 -3.60497 0
M  V30 3842 H 355.159 -7.01843 -2.80986 0
M  V30 3843 H 356.427 -6.71447 -3.95953 0
M  V30 3844 N 360.656 0.0484629 -1.57525 0
M  V30 3845 C 361.588 1.08222 -2.02041 0
M  V30 3846 C 362.601 1.33621 -0.930012 0
M  V30 3847 O 363.79 1.3145 -1.20761 0
M  V30 3848 C 360.89 2.42818 -2.36416 0
M  V30 3849 C 360.063 2.37049 -3.67596 0
M  V30 3850 C 359.122 3.53937 -3.89378 0
M  V30 3851 O 358.148 3.34308 -4.60681 0
M  V30 3852 N 359.35 4.75126 -3.3352 0
M  V30 3853 H 362.115 0.702946 -2.9134 0
M  V30 3854 H 359.676 0.236745 -1.6016 0
M  V30 3855 H 361.668 3.197 -2.48141 0
M  V30 3856 H 360.238 2.72661 -1.52888 0
M  V30 3857 H 359.458 1.45395 -3.66407 0
M  V30 3858 H 360.746 2.30318 -4.53686 0
M  V30 3859 H 360.144 4.93976 -2.75688 0
M  V30 3860 H 358.701 5.49439 -3.50656 0
M  V30 3861 N 362.134 1.5431 0.320358 0
M  V30 3862 C 363.382 1.72327 1.05583 0
M  V30 3863 C 363.703 0.50149 1.88441 0
M  V30 3864 O 362.973 -0.48448 1.89815 0
M  V30 3865 H 361.553 0.635387 0.3928 0
M  V30 3866 H 364.215 1.91621 0.356019 0
M  V30 3867 H 363.311 2.60426 1.72003 0
M  V30 3868 N 363.613 -0.582584 1.46437 0
M  V30 3869 C 364.86 -1.34079 1.51753 0
M  V30 3870 C 365.188 -1.93762 0.169299 0
M  V30 3871 O 364.443 -1.76989 -0.835062 0
M  V30 3872 C 364.742 -2.48964 2.56421 0
M  V30 3873 C 364.408 -2.07273 4.00436 0
M  V30 3874 C 363.07 -1.95618 4.39644 0
M  V30 3875 C 365.422 -1.75111 4.90903 0
M  V30 3876 C 362.75 -1.5006 5.67185 0
M  V30 3877 C 365.102 -1.31032 6.18881 0
M  V30 3878 C 363.766 -1.17954 6.56996 0
M  V30 3879 H 363.036 -0.49063 0.555304 0
M  V30 3880 H 365.683 -0.656007 1.79913 0
M  V30 3881 H 363.988 -3.22889 2.21923 0
M  V30 3882 H 365.685 -3.07178 2.57765 0
M  V30 3883 H 362.275 -2.17279 3.69443 0
M  V30 3884 H 366.459 -1.83001 4.61329 0
M  V30 3885 H 361.715 -1.38577 5.95488 0
M  V30 3886 H 365.889 -1.052 6.88408 0
M  V30 3887 H 363.516 -0.824279 7.55718 0
M  V30 3888 N 365.091 -1.34144 -0.827227 0
M  V30 3889 C 366.337 -1.27455 -1.58515 0
M  V30 3890 C 366.692 0.155271 -1.91772 0
M  V30 3891 O 365.985 1.10042 -1.56848 0
M  V30 3892 C 366.179 -2.09464 -2.89585 0
M  V30 3893 C 366.008 -3.60276 -2.69131 0
M  V30 3894 C 364.778 -4.29565 -2.66087 0
M  V30 3895 C 366.976 -4.54367 -2.40947 0
M  V30 3896 N 364.958 -5.66252 -2.37132 0
M  V30 3897 C 366.329 -5.79027 -2.21648 0
M  V30 3898 C 368.384 -4.43327 -2.26639 0
M  V30 3899 C 367.087 -6.93891 -1.89492 0
M  V30 3900 C 369.113 -5.58019 -1.95878 0
M  V30 3901 C 368.475 -6.81695 -1.774 0
M  V30 3902 H 364.574 -0.521614 -0.582617 0
M  V30 3903 H 367.158 -1.68811 -0.970105 0
M  V30 3904 H 365.329 -1.70411 -3.49019 0
M  V30 3905 H 367.061 -1.94453 -3.54923 0
M  V30 3906 H 363.816 -3.81959 -2.80008 0
M  V30 3907 H 364.24 -6.38338 -2.25507 0
M  V30 3908 H 368.882 -3.48333 -2.39633 0
M  V30 3909 H 366.6 -7.88871 -1.75236 0
M  V30 3910 H 370.186 -5.5142 -1.85546 0
M  V30 3911 H 369.066 -7.68942 -1.53941 0
M  V30 3912 N 366.569 1.04691 -1.17803 0
M  V30 3913 C 367.479 2.16057 -0.914151 0
M  V30 3914 C 368.495 1.73589 0.119503 0
M  V30 3915 O 369.671 2.01308 -0.0609468 0
M  V30 3916 C 366.736 3.4394 -0.436603 0
M  V30 3917 C 365.797 4.00825 -1.53746 0
M  V30 3918 C 365.03 5.22604 -1.0826 0
M  V30 3919 O 365.253 5.70367 0.0612244 0
M  V30 3920 O 364.187 5.7186 -1.87775 0
M  V30 3921 H 368.013 2.41169 -1.84584 0
M  V30 3922 H 365.598 1.1453 -0.959334 0
M  V30 3923 H 367.48 4.21024 -0.178057 0
M  V30 3924 H 366.155 3.20316 0.466869 0
M  V30 3925 H 365.062 3.25158 -1.84995 0
M  V30 3926 H 366.395 4.28778 -2.41683 0
M  V30 3927 N 368.047 0.979072 1.23499 0
M  V30 3928 C 368.957 0.526431 2.28617 0
M  V30 3929 C 369.973 -0.418126 1.68901 0
M  V30 3930 O 371.149 -0.288372 1.99325 0
M  V30 3931 C 368.214 -0.165235 3.46306 0
M  V30 3932 C 367.275 0.82056 4.21385 0
M  V30 3933 C 366.508 0.161807 5.33455 0
M  V30 3934 O 366.731 -1.04742 5.60701 0
M  V30 3935 O 365.665 0.859708 5.95729 0
M  V30 3936 H 369.491 1.4006 2.69475 0
M  V30 3937 H 367.076 0.746643 1.29405 0
M  V30 3938 H 368.958 -0.553287 4.17752 0
M  V30 3939 H 367.633 -1.01419 3.07402 0
M  V30 3940 H 366.54 1.25929 3.52268 0
M  V30 3941 H 367.873 1.63828 4.64135 0
M  V30 3942 N 369.525 -1.3858 0.750561 0
M  V30 3943 C 370.772 -2.00184 0.305373 0
M  V30 3944 C 371.1 -1.59575 -1.11203 0
M  V30 3945 O 370.355 -0.823236 -1.77542 0
M  V30 3946 C 370.654 -3.55455 0.372373 0
M  V30 3947 C 370.32 -4.15765 1.745 0
M  V30 3948 C 368.982 -4.31951 2.12065 0
M  V30 3949 C 371.334 -4.49067 2.64553 0
M  V30 3950 C 368.662 -4.78734 3.39162 0
M  V30 3951 C 371.014 -4.97265 3.91038 0
M  V30 3952 C 369.678 -5.11658 4.28676 0
M  V30 3953 H 368.948 -0.732526 0.111744 0
M  V30 3954 H 371.595 -1.65673 0.960451 0
M  V30 3955 H 369.9 -3.90084 -0.366272 0
M  V30 3956 H 371.597 -4.00999 0.00953918 0
M  V30 3957 H 368.187 -4.03579 1.44297 0
M  V30 3958 H 372.371 -4.36166 2.36796 0
M  V30 3959 H 367.627 -4.88062 3.68246 0
M  V30 3960 H 371.801 -5.22003 4.60962 0
M  V30 3961 H 369.428 -5.47668 5.27222 0
M  V30 3962 N 371.003 -0.499398 -1.49478 0
M  V30 3963 C 371.913 0.284489 -2.32869 0
M  V30 3964 C 372.929 0.968885 -1.44529 0
M  V30 3965 O 374.105 0.95062 -1.77553 0
M  V30 3966 C 371.17 1.33594 -3.19928 0
M  V30 3967 C 370.231 0.665149 -4.24116 0
M  V30 3968 C 369.464 1.6665 -5.07014 0
M  V30 3969 O 369.687 2.89618 -4.91404 0
M  V30 3970 O 368.621 1.22271 -5.8935 0
M  V30 3971 H 372.447 -0.39802 -3.01081 0
M  V30 3972 H 370.032 -0.260758 -1.47107 0
M  V30 3973 H 371.914 1.94431 -3.73864 0
M  V30 3974 H 370.589 2.0014 -2.54412 0
M  V30 3975 H 369.496 0.0170769 -3.74096 0
M  V30 3976 H 370.829 0.0421555 -4.92182 0
M  V30 3977 N 372.481 1.55866 -0.233164 0
M  V30 3978 C 373.709 2.02998 0.399905 0
M  V30 3979 C 374.124 1.11274 1.52524 0
M  V30 3980 O 373.481 0.124528 1.82075 0
M  V30 3981 C 373.532 3.4958 0.920639 0
M  V30 3982 O 373.253 4.37808 -0.159834 0
M  V30 3983 C 374.754 4.12411 1.62578 0
M  V30 3984 H 371.974 0.664006 0.0966281 0
M  V30 3985 H 374.518 2.0143 -0.353013 0
M  V30 3986 H 372.673 3.51727 1.62379 0
M  V30 3987 H 373.087 5.23981 0.23337 0
M  V30 3988 H 374.561 5.16711 1.94201 0
M  V30 3989 H 375.038 3.5809 2.54299 0
M  V30 3990 H 375.644 4.14148 0.967553 0
M  V30 3991 N 373.959 -0.0401083 1.57549 0
M  V30 3992 C 374.889 -1.04384 2.08869 0
M  V30 3993 C 375.87 -1.38407 0.988817 0
M  V30 3994 O 377.055 -1.47483 1.26342 0
M  V30 3995 C 374.185 -2.34808 2.55895 0
M  V30 3996 C 373.139 -2.15057 3.70047 0
M  V30 3997 C 372.465 -3.51145 4.03239 0
M  V30 3998 C 373.765 -1.54576 4.98902 0
M  V30 3999 H 375.459 -0.616666 2.92981 0
M  V30 4000 H 373.005 -0.295184 1.40942 0
M  V30 4001 H 374.958 -3.05346 2.90417 0
M  V30 4002 H 373.682 -2.79565 1.68853 0
M  V30 4003 H 372.341 -1.46954 3.35857 0
M  V30 4004 H 371.989 -3.93529 3.13279 0
M  V30 4005 H 371.689 -3.38758 4.80122 0
M  V30 4006 H 373.213 -4.23062 4.40285 0
M  V30 4007 H 374.627 -2.15017 5.31451 0
M  V30 4008 H 373.024 -1.52796 5.80322 0
M  V30 4009 H 374.094 -0.51039 4.82206 0
M  V30 4010 N 375.437 -1.54477 -0.31217 0
M  V30 4011 C 376.369 -1.81011 -1.40598 0
M  V30 4012 C 377.382 -0.692546 -1.47335 0
M  V30 4013 O 378.571 -0.969847 -1.49854 0
M  V30 4014 C 375.671 -1.92307 -2.79054 0
M  V30 4015 C 374.844 -3.22594 -2.95384 0
M  V30 4016 C 373.903 -3.24448 -4.1427 0
M  V30 4017 O 372.929 -3.98035 -4.06887 0
M  V30 4018 N 374.131 -2.49042 -5.24365 0
M  V30 4019 H 376.896 -2.75408 -1.18196 0
M  V30 4020 H 374.457 -1.53914 -0.502202 0
M  V30 4021 H 376.449 -1.90962 -3.56813 0
M  V30 4022 H 375.019 -1.04955 -2.94454 0
M  V30 4023 H 374.239 -3.36806 -2.04831 0
M  V30 4024 H 375.527 -4.08593 -3.03198 0
M  V30 4025 H 374.925 -1.88867 -5.33241 0
M  V30 4026 H 373.482 -2.53463 -6.005 0
M  V30 4027 N 376.915 0.57481 -1.46744 0
M  V30 4028 C 377.847 1.69804 -1.53946 0
M  V30 4029 C 378.86 1.57098 -0.427106 0
M  V30 4030 O 380.049 1.64378 -0.695863 0
M  V30 4031 C 377.149 3.08125 -1.4111 0
M  V30 4032 C 376.322 3.46757 -2.66605 0
M  V30 4033 C 375.381 4.6417 -2.47855 0
M  V30 4034 O 374.407 4.69634 -3.21609 0
M  V30 4035 N 375.609 5.59553 -1.54534 0
M  V30 4036 H 378.374 1.64077 -2.50796 0
M  V30 4037 H 375.935 0.761 -1.429 0
M  V30 4038 H 377.927 3.84478 -1.26328 0
M  V30 4039 H 376.497 3.08175 -0.524109 0
M  V30 4040 H 375.717 2.6003 -2.96274 0
M  V30 4041 H 377.005 3.69337 -3.49954 0
M  V30 4042 H 376.403 5.57881 -0.937304 0
M  V30 4043 H 374.96 6.35304 -1.45711 0
M  V30 4044 N 378.394 1.34581 0.820102 0
M  V30 4045 C 379.326 1.22236 1.93884 0
M  V30 4046 C 380.339 0.148776 1.62119 0
M  V30 4047 O 381.528 0.400877 1.7394 0
M  V30 4048 C 378.628 0.856542 3.27897 0
M  V30 4049 C 377.801 2.02569 3.87666 0
M  V30 4050 C 376.86 1.63782 5.00062 0
M  V30 4051 O 375.886 2.35477 5.18208 0
M  V30 4052 N 377.088 0.553611 5.77854 0
M  V30 4053 H 379.853 2.18615 2.05006 0
M  V30 4054 H 377.414 1.27573 0.99683 0
M  V30 4055 H 379.406 0.578806 4.0054 0
M  V30 4056 H 377.976 -0.0171518 3.12595 0
M  V30 4057 H 377.196 2.468 3.07382 0
M  V30 4058 H 378.484 2.80752 4.24329 0
M  V30 4059 H 377.882 -0.0423528 5.65684 0
M  V30 4060 H 376.439 0.335614 6.50935 0
M  V30 4061 N 379.872 -1.04064 1.18357 0
M  V30 4062 C 380.782 -2.15569 0.925596 0
M  V30 4063 C 381.798 -1.7365 -0.110295 0
M  V30 4064 O 382.974 -2.01273 0.0716218 0
M  V30 4065 C 380.039 -3.43704 0.454836 0
M  V30 4066 C 379.1 -4.00004 1.55869 0
M  V30 4067 C 378.333 -5.22023 1.1103 0
M  V30 4068 O 378.556 -5.70392 -0.0309756 0
M  V30 4069 O 377.49 -5.70856 1.90805 0
M  V30 4070 H 381.316 -2.40187 1.8586 0
M  V30 4071 H 378.901 -1.1402 0.965394 0
M  V30 4072 H 380.783 -4.20923 0.200382 0
M  V30 4073 H 379.458 -3.20559 -0.449876 0
M  V30 4074 H 378.365 -3.24172 1.86716 0
M  V30 4075 H 379.698 -4.2749 2.43953 0
M  V30 4076 N 381.35 -0.985608 -1.22978 0
M  V30 4077 C 382.59 -0.665487 -1.93263 0
M  V30 4078 C 382.954 0.78706 -1.75127 0
M  V30 4079 O 384.155 1.21826 -2.39608 0
M  V30 4080 C 382.426 -1.0515 -3.41582 0
M  V30 4081 S 383.985 -0.848637 -4.30516 0
M  V30 4082 H 380.803 -0.24355 -0.667985 0
M  V30 4083 H 383.405 -1.26635 -1.48942 0
M  V30 4084 H 382.109 -2.10517 -3.52293 0
M  V30 4085 H 381.64 -0.442134 -3.90908 0
M  V30 4086 H 383.655 0.264717 -4.95493 0
M  V30 4087 N 382.828 1.3818 -0.7579 0
M  V30 4088 C 383.775 2.30416 -0.133057 0
M  V30 4089 C 384.745 1.50398 0.704957 0
M  V30 4090 O 385.93 1.79014 0.660192 0
M  V30 4091 C 383.07 3.36834 0.750813 0
M  V30 4092 C 382.183 4.31879 -0.102297 0
M  V30 4093 C 381.318 5.25368 0.784979 0
M  V30 4094 C 380.357 6.12058 -0.0715046 0
M  V30 4095 N 379.494 6.97832 0.772972 0
M  V30 4096 H 384.334 2.83274 -0.925186 0
M  V30 4097 H 381.871 1.39461 -0.467866 0
M  V30 4098 H 383.829 3.97145 1.27794 0
M  V30 4099 H 382.459 2.85374 1.50868 0
M  V30 4100 H 381.511 3.72991 -0.747095 0
M  V30 4101 H 382.823 4.92921 -0.763552 0
M  V30 4102 H 381.977 5.90818 1.37911 0
M  V30 4103 H 380.716 4.64703 1.47996 0
M  V30 4104 H 379.721 5.456 -0.678272 0
M  V30 4105 H 380.946 6.74793 -0.763606 0
M  V30 4106 H 378.892 6.3971 1.45282 0
M  V30 4107 H 378.809 7.55812 0.168709 0
M  V30 4108 H 380.077 7.67687 1.35194 0
M  V30 4109 N 384.306 0.507319 1.49211 0
M  V30 4110 C 385.236 -0.256939 2.32082 0
M  V30 4111 C 386.217 -0.956609 1.40652 0
M  V30 4112 O 387.402 -0.946788 1.69557 0
M  V30 4113 C 384.532 -1.31802 3.21318 0
M  V30 4114 C 383.486 -0.737855 4.21592 0
M  V30 4115 C 382.812 -1.89992 4.99807 0
M  V30 4116 C 384.112 0.275325 5.21574 0
M  V30 4117 H 385.806 0.434798 2.96226 0
M  V30 4118 H 383.352 0.210546 1.42452 0
M  V30 4119 H 385.305 -1.86045 3.78107 0
M  V30 4120 H 384.029 -2.03903 2.5513 0
M  V30 4121 H 382.688 -0.217126 3.65956 0
M  V30 4122 H 382.336 -2.60877 4.30061 0
M  V30 4123 H 382.036 -1.51777 5.6766 0
M  V30 4124 H 383.56 -2.44657 5.59442 0
M  V30 4125 H 384.974 -0.179193 5.7302 0
M  V30 4126 H 383.371 0.573649 5.97352 0
M  V30 4127 H 384.441 1.18903 4.70096 0
M  V30 4128 N 385.784 -1.5574 0.241426 0
M  V30 4129 C 386.714 -2.24133 -0.654722 0
M  V30 4130 C 387.695 -1.21974 -1.1856 0
M  V30 4131 O 388.88 -1.50612 -1.22595 0
M  V30 4132 C 386.01 -2.93659 -1.85423 0
M  V30 4133 C 384.964 -4.0246 -1.45636 0
M  V30 4134 C 384.29 -4.59383 -2.73626 0
M  V30 4135 C 385.59 -5.18468 -0.631506 0
M  V30 4136 H 387.284 -2.99281 -0.0844353 0
M  V30 4137 H 384.83 -1.43947 -0.0391707 0
M  V30 4138 H 386.783 -3.40203 -2.48676 0
M  V30 4139 H 385.507 -2.15991 -2.44981 0
M  V30 4140 H 384.166 -3.56676 -0.847202 0
M  V30 4141 H 383.814 -3.78422 -3.3137 0
M  V30 4142 H 383.514 -5.32826 -2.4773 0
M  V30 4143 H 385.038 -5.08658 -3.37786 0
M  V30 4144 H 386.452 -5.61272 -1.1682 0
M  V30 4145 H 384.849 -5.98266 -0.468831 0
M  V30 4146 H 385.919 -4.8358 0.357506 0
M  V30 4147 N 387.262 0.0317525 -1.57568 0
M  V30 4148 C 388.492 0.733884 -1.93126 0
M  V30 4149 C 388.9 1.69563 -0.839352 0
M  V30 4150 O 388.243 1.82681 0.193175 0
M  V30 4151 C 388.305 1.54798 -3.24465 0
M  V30 4152 C 387.969 0.751304 -4.50782 0
M  V30 4153 C 388.966 0.0527632 -5.19873 0
M  V30 4154 C 386.651 0.706639 -4.97305 0
M  V30 4155 C 388.645 -0.679774 -6.33765 0
M  V30 4156 C 386.332 -0.0296449 -6.11093 0
M  V30 4157 C 387.33 -0.721614 -6.79177 0
M  V30 4158 O 387.018 -1.44595 -7.90789 0
M  V30 4159 H 386.75 0.211459 -0.642076 0
M  V30 4160 H 389.304 -0.00585615 -2.05399 0
M  V30 4161 H 387.534 2.33147 -3.08512 0
M  V30 4162 H 389.223 2.13247 -3.4537 0
M  V30 4163 H 389.989 0.0783188 -4.84937 0
M  V30 4164 H 385.868 1.23474 -4.44157 0
M  V30 4165 H 389.412 -1.22042 -6.86842 0
M  V30 4166 H 385.309 -0.0571331 -6.45475 0
M  V30 4167 H 386.077 -1.35935 -8.07133 0
M  V30 4168 N 388.74 1.54641 0.303973 0
M  V30 4169 C 389.965 1.78092 1.06292 0
M  V30 4170 C 390.39 0.537342 1.80262 0
M  V30 4171 O 389.748 -0.511993 1.7392 0
M  V30 4172 C 389.796 2.98612 2.02147 0
M  V30 4173 O 388.9 2.71528 3.10397 0
M  V30 4174 H 388.241 0.589548 0.305497 0
M  V30 4175 H 390.771 2.01716 0.3423 0
M  V30 4176 H 390.781 3.265 2.44667 0
M  V30 4177 H 389.456 3.88785 1.47714 0
M  V30 4178 H 388.033 2.54648 2.72413 0
M  V30 4179 N 390.218 -0.567019 1.47046 0
M  V30 4180 C 391.634 -0.891975 1.32348 0
M  V30 4181 C 391.834 -1.99154 0.306616 0
M  V30 4182 O 390.89 -2.50883 -0.28532 0
M  V30 4183 C 392.203 -1.29449 2.7141 0
M  V30 4184 C 393.751 -1.40646 2.79621 0
M  V30 4185 C 394.226 -1.84257 4.19301 0
M  V30 4186 N 395.717 -1.91424 4.21795 0
M  V30 4187 C 396.452 -2.26476 5.26779 0
M  V30 4188 N 395.948 -2.60211 6.42077 0
M  V30 4189 N 397.741 -2.27166 5.14152 0
M  V30 4190 H 389.892 0.159074 2.11803 0
M  V30 4191 H 392.155 0.00849752 0.947962 0
M  V30 4192 H 391.861 -0.560448 3.47206 0
M  V30 4193 H 391.735 -2.25273 3.02542 0
M  V30 4194 H 394.122 -2.13133 2.04104 0
M  V30 4195 H 394.203 -0.430339 2.52154 0
M  V30 4196 H 393.847 -1.12343 4.95319 0
M  V30 4197 H 393.777 -2.82855 4.44185 0
M  V30 4198 H 396.268 -1.6778 3.38612 0
M  V30 4199 H 396.581 -2.85956 7.17948 0
M  V30 4200 H 394.926 -2.57813 6.45413 0
M  V30 4201 H 398.117 -2.00244 4.23107 0
M  V30 4202 H 398.29 -2.54154 5.96079 0
M  V30 4203 N 391.696 -1.35014 -0.812953 0
M  V30 4204 C 392.643 -1.27412 -1.92444 0
M  V30 4205 C 393.613 -0.14733 -1.65445 0
M  V30 4206 O 394.798 -0.329974 -1.87925 0
M  V30 4207 C 391.938 -1.04558 -3.28879 0
M  V30 4208 C 391.051 -2.26101 -3.68106 0
M  V30 4209 C 390.186 -1.96449 -4.9354 0
M  V30 4210 C 389.225 -3.14081 -5.25376 0
M  V30 4211 N 388.362 -2.84246 -6.41988 0
M  V30 4212 H 393.202 -2.22463 -1.98278 0
M  V30 4213 H 390.739 -1.10593 -0.969933 0
M  V30 4214 H 392.697 -0.893413 -4.07522 0
M  V30 4215 H 391.327 -0.131719 -3.22531 0
M  V30 4216 H 390.379 -2.52204 -2.84775 0
M  V30 4217 H 391.691 -3.13959 -3.87597 0
M  V30 4218 H 390.845 -1.78026 -5.79993 0
M  V30 4219 H 389.584 -1.05867 -4.76071 0
M  V30 4220 H 388.589 -3.33089 -4.37415 0
M  V30 4221 H 389.814 -4.05455 -5.44778 0
M  V30 4222 H 387.76 -1.96252 -6.25956 0
M  V30 4223 H 387.677 -3.65637 -6.61699 0
M  V30 4224 H 388.945 -2.6935 -7.31485 0
M  V30 4225 N 393.175 1.03435 -1.18907 0
M  V30 4226 C 394.085 2.15075 -0.937015 0
M  V30 4227 C 395.101 1.73706 0.101085 0
M  V30 4228 O 396.277 2.01232 -0.0822948 0
M  V30 4229 C 393.342 3.43458 -0.473057 0
M  V30 4230 C 392.403 3.99172 -1.57989 0
M  V30 4231 C 391.636 5.21427 -1.13797 0
M  V30 4232 O 391.859 5.704 0.000725941 0
M  V30 4233 O 390.793 5.69837 -1.9383 0
M  V30 4234 H 394.619 2.39198 -1.87131 0
M  V30 4235 H 392.204 1.13506 -0.971427 0
M  V30 4236 H 394.086 4.20811 -0.222702 0
M  V30 4237 H 392.761 3.20793 0.432869 0
M  V30 4238 H 391.668 3.23178 -1.88433 0
M  V30 4239 H 393.001 4.2619 -2.46217 0
M  V30 4240 N 394.653 0.992116 1.22453 0
M  V30 4241 C 395.901 0.666215 1.90804 0
M  V30 4242 C 396.222 -0.804152 1.77647 0
M  V30 4243 O 395.492 -1.57629 1.16318 0
M  V30 4244 H 394.072 0.243423 0.706225 0
M  V30 4245 H 396.734 1.25845 1.48825 0
M  V30 4246 H 395.83 0.928069 2.97982 0
M  V30 4247 N 396.131 -1.37776 0.765217 0
M  V30 4248 C 397.063 -2.28958 0.105361 0
M  V30 4249 C 398.076 -1.48316 -0.67128 0
M  V30 4250 O 399.265 -1.71046 -0.51045 0
M  V30 4251 C 396.365 -3.27421 -0.874569 0
M  V30 4252 C 395.538 -4.37132 -0.153123 0
M  V30 4253 C 394.597 -5.1571 -1.04547 0
M  V30 4254 O 393.623 -5.66896 -0.511672 0
M  V30 4255 N 394.825 -5.29808 -2.37243 0
M  V30 4256 H 397.59 -2.86227 0.888495 0
M  V30 4257 H 395.151 -1.49682 0.617 0
M  V30 4258 H 397.143 -3.7687 -1.47483 0
M  V30 4259 H 395.713 -2.70967 -1.55871 0
M  V30 4260 H 394.933 -3.89166 0.627975 0
M  V30 4261 H 396.221 -5.07625 0.345643 0
M  V30 4262 H 395.619 -4.89793 -2.83054 0
M  V30 4263 H 394.176 -5.82589 -2.9229 0
M  V30 4264 N 397.609 -0.515225 -1.4894 0
M  V30 4265 C 399.025 -0.172099 -1.58669 0
M  V30 4266 C 399.225 1.32405 -1.51892 0
M  V30 4267 O 398.281 2.10116 -1.40027 0
M  V30 4268 C 399.594 -0.761533 -2.90897 0
M  V30 4269 C 401.142 -0.728926 -3.04394 0
M  V30 4270 C 401.617 -1.29667 -4.39261 0
M  V30 4271 N 403.108 -1.25799 -4.4579 0
M  V30 4272 C 403.843 -1.66733 -5.48623 0
M  V30 4273 N 403.339 -2.15327 -6.58488 0
M  V30 4274 N 405.132 -1.58061 -5.39419 0
M  V30 4275 H 397.283 -1.48778 -1.51588 0
M  V30 4276 H 399.546 -0.617968 -0.718901 0
M  V30 4277 H 399.252 -1.81136 -3.01468 0
M  V30 4278 H 399.126 -0.230106 -3.76497 0
M  V30 4279 H 401.513 0.312098 -2.93445 0
M  V30 4280 H 401.594 -1.29766 -2.20442 0
M  V30 4281 H 401.238 -2.33655 -4.50963 0
M  V30 4282 H 401.168 -0.703752 -5.21876 0
M  V30 4283 H 403.659 -0.902102 -3.66975 0
M  V30 4284 H 403.972 -2.44594 -7.33071 0
M  V30 4285 H 402.317 -2.19311 -6.59491 0
M  V30 4286 H 405.508 -1.19906 -4.52482 0
M  V30 4287 H 405.681 -1.90284 -6.19432 0
M  V30 4288 N 399.087 1.5561 -0.249682 0
M  V30 4289 C 400.019 2.18834 0.681496 0
M  V30 4290 C 401.032 1.16546 1.1367 0
M  V30 4291 O 402.221 1.43397 1.06299 0
M  V30 4292 C 399.321 2.77992 1.9384 0
M  V30 4293 C 398.494 4.05725 1.63419 0
M  V30 4294 C 397.553 4.49174 2.74096 0
M  V30 4295 O 396.579 5.15492 2.41364 0
M  V30 4296 N 397.781 4.17191 4.03649 0
M  V30 4297 H 400.546 2.9937 0.140514 0
M  V30 4298 H 398.107 1.6175 -0.0697541 0
M  V30 4299 H 400.099 3.04015 2.67127 0
M  V30 4300 H 398.669 2.01596 2.38909 0
M  V30 4301 H 397.889 3.87261 0.736358 0
M  V30 4302 H 399.177 4.88999 1.40562 0
M  V30 4303 H 398.575 3.63955 4.33074 0
M  V30 4304 H 397.132 4.48043 4.73393 0
M  V30 4305 N 400.565 -0.0233959 1.57583 0
M  V30 4306 C 401.475 -1.03907 2.10334 0
M  V30 4307 C 402.491 -1.39257 1.04323 0
M  V30 4308 O 403.667 -1.48462 1.36091 0
M  V30 4309 C 400.732 -2.31938 2.57693 0
M  V30 4310 C 399.793 -2.03117 3.78209 0
M  V30 4311 C 399.026 -3.25043 4.233 0
M  V30 4312 O 399.249 -4.35916 3.67876 0
M  V30 4313 O 398.183 -3.10411 5.15683 0
M  V30 4314 H 402.009 -0.620748 2.97288 0
M  V30 4315 H 399.594 -0.240743 1.47448 0
M  V30 4316 H 401.476 -3.07196 2.88458 0
M  V30 4317 H 400.151 -2.73055 1.73847 0
M  V30 4318 H 399.058 -1.25408 3.52454 0
M  V30 4319 H 400.391 -1.66852 4.63056 0
M  V30 4320 N 402.043 -1.548 -0.295768 0
M  V30 4321 C 402.991 -1.86874 -1.38495 0
M  V30 4322 C 403.985 -0.742938 -1.52239 0
M  V30 4323 O 405.191 -0.926999 -1.54294 0
M  V30 4324 H 401.566 -0.592786 -0.462719 0
M  V30 4325 H 403.537 -2.77904 -1.08682 0
M  V30 4326 C 402.286 -2.13732 -2.74252 0
M  V30 4327 H 401.609 -2.99835 -2.64459 0
M  V30 4328 H 403.049 -2.4011 -3.49461 0
M  V30 4329 C 401.508 -0.937539 -3.23592 0
M  V30 4330 O 402.038 -0.160665 -4.01379 0
M  V30 4331 N 400.244 -0.741478 -2.80981 0
M  V30 4332 H 399.791 -1.37489 -2.1784 0
M  V30 4333 H 399.749 0.0597103 -3.14343 0
M  V30 4334 N 403.521 0.559213 -1.47345 0
M  V30 4335 C 404.468 1.66645 -1.59682 0
M  V30 4336 C 405.438 1.60168 -0.43994 0
M  V30 4337 O 406.623 1.79031 -0.659736 0
M  V30 4338 C 403.763 3.04969 -1.61518 0
M  V30 4339 C 402.876 3.21897 -2.88108 0
M  V30 4340 C 402.011 4.50608 -2.81294 0
M  V30 4341 C 401.05 4.60961 -4.02717 0
M  V30 4342 N 400.187 5.81024 -3.94151 0
M  V30 4343 H 405.027 1.55439 -2.54249 0
M  V30 4344 H 402.564 0.757219 -1.26113 0
M  V30 4345 H 404.522 3.85064 -1.60566 0
M  V30 4346 H 403.152 3.15015 -0.704645 0
M  V30 4347 H 402.204 2.35248 -2.98936 0
M  V30 4348 H 403.516 3.25412 -3.78032 0
M  V30 4349 H 402.67 5.3896 -2.7858 0
M  V30 4350 H 401.409 4.49568 -1.89049 0
M  V30 4351 H 400.414 3.71021 -4.05738 0
M  V30 4352 H 401.639 4.63761 -4.96087 0
M  V30 4353 H 399.585 5.80938 -3.04708 0
M  V30 4354 H 399.502 5.85909 -4.77752 0
M  V30 4355 H 400.77 6.71744 -3.9545 0
M  V30 4356 N 404.999 1.35443 0.805782 0
M  V30 4357 C 405.947 1.28465 1.93906 0
M  V30 4358 C 406.941 0.17943 1.68447 0
M  V30 4359 O 408.147 0.345459 1.76654 0
M  V30 4360 H 404.522 0.399528 0.637088 0
M  V30 4361 H 406.493 2.24206 1.96912 0
M  V30 4362 C 405.242 1.07432 3.30687 0
M  V30 4363 H 404.565 1.91716 3.50835 0
M  V30 4364 H 406.005 1.06591 4.10383 0
M  V30 4365 C 404.464 -0.22179 3.36169 0
M  V30 4366 O 404.994 -1.21731 3.82811 0
M  V30 4367 N 403.2 -0.260841 2.89427 0
M  V30 4368 H 402.747 0.549884 2.51663 0
M  V30 4369 H 402.705 -1.12777 2.93477 0
M  V30 4370 N 406.477 -1.02803 1.19454 0
M  V30 4371 C 407.424 -2.11099 0.933046 0
M  V30 4372 C 408.394 -1.65571 -0.132447 0
M  V30 4373 O 409.579 -1.90797 0.00987576 0
M  V30 4374 C 406.719 -3.41763 0.478747 0
M  V30 4375 C 405.832 -4.00833 1.6111 0
M  V30 4376 C 404.967 -5.19511 1.10825 0
M  V30 4377 C 404.006 -5.70639 2.21445 0
M  V30 4378 N 403.143 -6.80589 1.72461 0
M  V30 4379 H 407.983 -2.32804 1.86028 0
M  V30 4380 H 405.52 -1.14179 0.927441 0
M  V30 4381 H 407.478 -4.16736 0.196745 0
M  V30 4382 H 406.108 -3.20166 -0.411493 0
M  V30 4383 H 405.16 -3.23066 2.00829 0
M  V30 4384 H 406.472 -4.34794 2.4445 0
M  V30 4385 H 405.626 -6.01645 0.781533 0
M  V30 4386 H 404.365 -4.87086 0.244606 0
M  V30 4387 H 403.37 -4.87116 2.54947 0
M  V30 4388 H 404.595 -6.05102 3.08267 0
M  V30 4389 H 402.541 -6.50016 0.884056 0
M  V30 4390 H 402.458 -7.13681 2.49389 0
M  V30 4391 H 403.726 -7.66317 1.42755 0
M  V30 4392 N 407.956 -0.998596 -1.21925 0
M  V30 4393 C 408.904 -0.546641 -2.26085 0
M  V30 4394 C 409.898 0.405576 -1.64473 0
M  V30 4395 O 411.104 0.277471 -1.77849 0
M  V30 4396 H 407.479 -0.158403 -0.735127 0
M  V30 4397 H 409.45 -1.43645 -2.61551 0
M  V30 4398 C 408.199 0.117388 -3.47502 0
M  V30 4399 H 407.522 -0.606277 -3.95176 0
M  V30 4400 H 408.962 0.396993 -4.22137 0
M  V30 4401 C 407.421 1.35455 -3.0847 0
M  V30 4402 O 407.951 2.44944 -3.18379 0
M  V30 4403 N 406.157 1.23191 -2.63196 0
M  V30 4404 H 405.704 0.341006 -2.55333 0
M  V30 4405 H 405.662 2.06071 -2.37449 0
M  V30 4406 N 409.434 1.37368 -0.772513 0
M  V30 4407 C 410.85 1.53059 -0.452231 0
M  V30 4408 C 411.05 1.73065 1.03203 0
M  V30 4409 O 410.106 1.75245 1.81784 0
M  V30 4410 C 411.419 2.72659 -1.26797 0
M  V30 4411 C 412.967 2.86521 -1.25995 0
M  V30 4412 C 413.442 4.09105 -2.05905 0
M  V30 4413 N 414.933 4.16219 -2.03263 0
M  V30 4414 C 415.668 5.10107 -2.61875 0
M  V30 4415 N 415.164 6.09547 -3.29278 0
M  V30 4416 N 416.957 5.02596 -2.51701 0
M  V30 4417 H 409.108 1.22634 -1.7342 0
M  V30 4418 H 411.371 0.597206 -0.736239 0
M  V30 4419 H 411.077 2.64343 -2.31982 0
M  V30 4420 H 410.951 3.66363 -0.897672 0
M  V30 4421 H 413.338 2.94308 -0.216081 0
M  V30 4422 H 413.419 1.93774 -1.66989 0
M  V30 4423 H 413.063 4.0208 -3.10313 0
M  V30 4424 H 412.993 5.00968 -1.62292 0
M  V30 4425 H 415.484 3.45012 -1.54192 0
M  V30 4426 H 415.797 6.77718 -3.71374 0
M  V30 4427 H 414.142 6.09824 -3.33377 0
M  V30 4428 H 417.333 4.23855 -1.98657 0
M  V30 4429 H 417.506 5.75582 -2.97673 0
M  V30 4430 N 410.912 0.523116 1.48665 0
M  V30 4431 C 412.142 -0.00961724 2.06598 0
M  V30 4432 C 412.55 -1.29333 1.38093 0
M  V30 4433 O 411.893 -1.77846 0.46007 0
M  V30 4434 C 411.955 -0.311135 3.58151 0
M  V30 4435 C 411.619 0.878092 4.48485 0
M  V30 4436 C 412.616 1.77464 4.88674 0
M  V30 4437 C 410.301 1.08315 4.90483 0
M  V30 4438 C 412.295 2.86021 5.69623 0
M  V30 4439 C 409.982 2.17187 5.71203 0
M  V30 4440 C 410.98 3.05873 6.10681 0
M  V30 4441 O 410.668 4.12862 6.89783 0
M  V30 4442 H 410.4 0.0272658 0.67545 0
M  V30 4443 H 412.954 0.726156 1.92136 0
M  V30 4444 H 411.184 -1.10079 3.70701 0
M  V30 4445 H 412.873 -0.785125 3.98234 0
M  V30 4446 H 413.639 1.62813 4.56855 0
M  V30 4447 H 409.518 0.402149 4.59243 0
M  V30 4448 H 413.062 3.55272 6.00356 0
M  V30 4449 H 408.959 2.31824 6.02435 0
M  V30 4450 H 409.727 4.10487 7.08126 0
M  V30 4451 N 412.39 -1.55475 0.257931 0
M  V30 4452 C 413.337 -2.21837 -0.636939 0
M  V30 4453 C 414.307 -1.18596 -1.16294 0
M  V30 4454 O 415.492 -1.47081 -1.21539 0
M  V30 4455 C 412.632 -2.9301 -1.82317 0
M  V30 4456 C 411.745 -4.10931 -1.33265 0
M  V30 4457 C 410.88 -4.69791 -2.47931 0
M  V30 4458 C 409.919 -5.7994 -1.95796 0
M  V30 4459 N 409.056 -6.32935 -3.0387 0
M  V30 4460 H 413.896 -2.9793 -0.0643591 0
M  V30 4461 H 411.433 -1.47086 -0.0200031 0
M  V30 4462 H 413.391 -3.3248 -2.52018 0
M  V30 4463 H 412.021 -2.1937 -2.36805 0
M  V30 4464 H 411.073 -3.76699 -0.52931 0
M  V30 4465 H 412.385 -4.90417 -0.910654 0
M  V30 4466 H 411.539 -5.11892 -3.25656 0
M  V30 4467 H 410.278 -3.89545 -2.93438 0
M  V30 4468 H 409.283 -5.37305 -1.16546 0
M  V30 4469 H 410.508 -6.62043 -1.51246 0
M  V30 4470 H 408.454 -5.55591 -3.48791 0
M  V30 4471 H 408.371 -7.07645 -2.66035 0
M  V30 4472 H 409.639 -6.79695 -3.81621 0
M  V30 4473 N 413.868 0.0150385 -1.57593 0
M  V30 4474 C 414.816 1.02958 -2.08572 0
M  V30 4475 C 415.81 1.36554 -1.00246 0
M  V30 4476 O 417.016 1.35295 -1.18724 0
M  V30 4477 H 413.391 0.349619 -0.665786 0
M  V30 4478 H 415.362 0.573932 -2.92829 0
M  V30 4479 C 414.111 2.31752 -2.59203 0
M  V30 4480 H 413.434 2.06765 -3.42182 0
M  V30 4481 H 414.874 3.01053 -2.98568 0
M  V30 4482 C 413.333 3.01692 -1.49945 0
M  V30 4483 O 413.863 3.92083 -0.873704 0
M  V30 4484 N 412.069 2.6326 -1.23056 0
M  V30 4485 H 411.616 1.89838 -1.74125 0
M  V30 4486 H 411.574 3.10372 -0.501685 0
M  V30 4487 N 415.346 1.54954 0.287554 0
M  V30 4488 C 416.595 1.74081 1.01877 0
M  V30 4489 C 416.908 0.541135 1.87966 0
M  V30 4490 O 418.114 0.614491 2.64455 0
M  V30 4491 C 416.57 3.08042 1.86113 0
M  V30 4492 C 416.178 4.35531 1.04961 0
M  V30 4493 C 417.922 3.36523 2.58752 0
M  V30 4494 C 415.829 5.60538 1.88551 0
M  V30 4495 H 414.759 0.64884 0.384087 0
M  V30 4496 H 417.41 1.81426 0.275101 0
M  V30 4497 H 415.792 2.94696 2.64519 0
M  V30 4498 H 416.966 4.59751 0.31074 0
M  V30 4499 H 415.281 4.14085 0.43843 0
M  V30 4500 H 417.878 4.27122 3.21668 0
M  V30 4501 H 418.221 2.56 3.28283 0
M  V30 4502 H 418.754 3.50901 1.87386 0
M  V30 4503 H 415.493 6.43767 1.23466 0
M  V30 4504 H 415.013 5.40483 2.60074 0
M  V30 4505 H 416.692 5.98297 2.46273 0
M  V30 4506 N 416.824 -0.551391 1.4764 0
M  V30 4507 C 417.754 -1.66757 1.63445 0
M  V30 4508 C 418.735 -1.63077 0.483742 0
M  V30 4509 O 419.92 -1.80607 0.71377 0
M  V30 4510 C 417.05 -3.05387 1.65396 0
M  V30 4511 C 416.004 -3.23918 2.79752 0
M  V30 4512 C 415.33 -4.63393 2.66779 0
M  V30 4513 C 416.63 -3.08735 4.21284 0
M  V30 4514 H 418.324 -1.53786 2.56886 0
M  V30 4515 H 415.87 -0.738415 1.23626 0
M  V30 4516 H 417.823 -3.83325 1.75043 0
M  V30 4517 H 416.547 -3.19332 0.685195 0
M  V30 4518 H 415.206 -2.48391 2.69625 0
M  V30 4519 H 414.854 -4.74144 1.67918 0
M  V30 4520 H 414.554 -4.7674 3.43501 0
M  V30 4521 H 416.078 -5.43458 2.78364 0
M  V30 4522 H 417.492 -3.76484 4.32357 0
M  V30 4523 H 415.889 -3.33588 4.98838 0
M  V30 4524 H 416.959 -2.0541 4.39243 0
M  V30 4525 N 418.302 -1.35869 -0.798587 0
M  V30 4526 C 419.713 -1.26498 -1.37314 0
M  V30 4527 C 420.064 0.0991899 -1.95949 0
M  V30 4528 O 419.189 1.0004 -1.91888 0
M  V30 4529 C 419.784 -2.29054 -2.49639 0
M  V30 4530 C 418.343 -2.234 -3.02935 0
M  V30 4531 C 417.49 -2.14329 -1.75949 0
M  V30 4532 H 420.441 -1.46881 -0.600971 0
M  V30 4533 H 420.462 -1.92166 -3.28409 0
M  V30 4534 H 419.974 -3.2833 -2.06933 0
M  V30 4535 H 418.075 -1.27562 -3.50084 0
M  V30 4536 H 418.188 -3.15703 -3.60372 0
M  V30 4537 H 416.552 -1.60435 -1.9782 0
M  V30 4538 H 417.335 -3.15477 -1.35384 0
M  V30 4539 N 419.78 1.02168 -1.19998 0
M  V30 4540 C 421.027 1.75685 -1.00702 0
M  V30 4541 C 421.355 1.88947 0.461426 0
M  V30 4542 O 420.61 1.40832 1.35885 0
M  V30 4543 C 420.909 3.18081 -1.62969 0
M  V30 4544 C 420.575 3.24809 -3.12746 0
M  V30 4545 C 419.237 3.26352 -3.53621 0
M  V30 4546 C 421.589 3.23379 -4.08749 0
M  V30 4547 C 418.917 3.2413 -4.89036 0
M  V30 4548 C 421.269 3.22698 -5.44104 0
M  V30 4549 C 419.933 3.22542 -5.84399 0
M  V30 4550 H 419.203 0.642877 -0.368496 0
M  V30 4551 H 421.85 1.19865 -1.49348 0
M  V30 4552 H 420.155 3.77027 -1.06573 0
M  V30 4553 H 421.852 3.73648 -1.45561 0
M  V30 4554 H 418.442 3.2434 -2.80181 0
M  V30 4555 H 422.626 3.21361 -3.78207 0
M  V30 4556 H 417.882 3.22338 -5.19527 0
M  V30 4557 H 422.056 3.20543 -6.18244 0
M  V30 4558 H 419.683 3.20575 -6.89301 0
M  V30 4559 N 421.258 1.00505 1.21394 0
M  V30 4560 C 422.535 0.603277 1.86064 0
M  V30 4561 C 422.915 -0.919095 1.90042 0
M  V30 4562 O 422.263 -1.80607 1.39977 0
M  V30 4563 C 422.473 1.23772 3.26315 0
M  V30 4564 C 423.821 1.34586 4.02705 0
M  V30 4565 O 424.845 1.19304 3.35626 0
M  V30 4566 O 423.704 1.59169 5.22807 0
M  V30 4567 H 420.798 0.206634 0.800769 0
M  V30 4568 H 423.344 1.1017 1.29076 0
M  V30 4569 H 422.116 2.27848 3.18121 0
M  V30 4570 H 421.739 0.725648 3.90922 0
M  V30 4571 N 422.737 -1.36956 0.779787 0
M  V30 4572 C 423.687 -2.27539 0.144892 0
M  V30 4573 C 424.671 -1.46493 -0.665488 0
M  V30 4574 O 425.863 -1.68968 -0.527141 0
M  V30 4575 C 422.992 -3.35512 -0.727082 0
M  V30 4576 C 422.078 -4.24001 0.0915642 0
M  V30 4577 N 422.469 -4.92757 1.14125 0
M  V30 4578 C 420.767 -4.45807 -0.131141 0
M  V30 4579 C 421.468 -5.58138 1.6388 0
M  V30 4580 N 420.444 -5.35241 0.94962 0
M  V30 4581 H 424.246 -2.78176 0.948446 0
M  V30 4582 H 421.76 -1.50169 0.618315 0
M  V30 4583 H 423.757 -3.99324 -1.19776 0
M  V30 4584 H 422.417 -2.86431 -1.52929 0
M  V30 4585 H 423.428 -4.94984 1.52353 0
M  V30 4586 H 420.105 -4.07582 -0.904621 0
M  V30 4587 H 421.495 -6.23071 2.51461 0
M  V30 4588 N 424.215 -0.530993 -1.48385 0
M  V30 4589 C 425.443 -0.00134122 -2.069 0
M  V30 4590 C 425.858 1.2805 -1.3874 0
M  V30 4591 O 425.215 1.76204 -0.475244 0
M  V30 4592 C 425.266 0.225256 -3.60798 0
M  V30 4593 O 424.987 -1.0058 -4.26398 0
M  V30 4594 C 426.488 0.795172 -4.3611 0
M  V30 4595 H 423.708 -0.0339704 -0.67014 0
M  V30 4596 H 426.252 -0.736926 -1.90761 0
M  V30 4597 H 424.407 0.910891 -3.76539 0
M  V30 4598 H 424.821 -0.787165 -5.1856 0
M  V30 4599 H 426.295 0.903143 -5.44562 0
M  V30 4600 H 426.772 1.80031 -4.00606 0
M  V30 4601 H 427.378 0.146069 -4.25049 0
M  V30 4602 N 425.693 1.55336 -0.266172 0
M  V30 4603 C 427.109 1.59356 0.0882065 0
M  V30 4604 C 427.309 1.2834 1.55342 0
M  V30 4605 O 426.365 1.03996 2.30089 0
M  V30 4606 C 427.678 2.99409 -0.278364 0
M  V30 4607 C 429.226 3.12196 -0.224243 0
M  V30 4608 C 429.701 4.545 -0.565123 0
M  V30 4609 N 431.192 4.60313 -0.51634 0
M  V30 4610 C 431.927 5.68434 -0.753013 0
M  V30 4611 N 431.423 6.84738 -1.05383 0
M  V30 4612 N 433.216 5.57942 -0.682414 0
M  V30 4613 H 425.367 1.73764 -1.22147 0
M  V30 4614 H 427.63 0.809822 -0.492841 0
M  V30 4615 H 427.336 3.2691 -1.29703 0
M  V30 4616 H 427.21 3.75228 0.385186 0
M  V30 4617 H 429.597 2.84464 0.78512 0
M  V30 4618 H 429.678 2.38609 -0.921922 0
M  V30 4619 H 429.322 4.82956 -1.57213 0
M  V30 4620 H 429.252 5.26374 0.154248 0
M  V30 4621 H 431.743 3.7676 -0.29335 0
M  V30 4622 H 432.056 7.63088 -1.22133 0
M  V30 4623 H 430.401 6.86375 -1.09151 0
M  V30 4624 H 433.592 4.65958 -0.44731 0
M  V30 4625 H 433.765 6.4213 -0.870248 0
M  V30 4626 N 427.171 -0.0066808 1.57599 0
M  V30 4627 C 428.417 -0.693947 1.90558 0
M  V30 4628 C 428.75 -1.73792 0.866594 0
M  V30 4629 O 428.025 -1.94156 -0.115548 0
M  V30 4630 C 428.308 -1.34317 3.34112 0
M  V30 4631 C 428.161 -0.311189 4.48722 0
M  V30 4632 C 429.48 -2.27116 3.7697 0
M  V30 4633 H 426.599 -0.250803 0.693013 0
M  V30 4634 H 429.241 0.043242 1.89951 0
M  V30 4635 H 427.391 -1.9715 3.3476 0
M  V30 4636 H 429.063 0.316944 4.6021 0
M  V30 4637 H 427.306 0.367253 4.32243 0
M  V30 4638 H 427.977 -0.804366 5.46108 0
M  V30 4639 H 430.453 -1.74306 3.77831 0
M  V30 4640 H 429.329 -2.69511 4.78179 0
M  V30 4641 H 429.59 -3.14743 3.10466 0
M  V30 4642 N 428.649 -1.55105 -0.279332 0
M  V30 4643 C 429.895 -1.75672 -1.01327 0
M  V30 4644 C 430.228 -0.552739 -1.86168 0
M  V30 4645 O 429.503 0.449827 -1.89227 0
M  V30 4646 C 429.786 -3.05825 -1.90114 0
M  V30 4647 C 429.639 -4.36565 -1.08309 0
M  V30 4648 C 430.958 -3.31975 -2.8893 0
M  V30 4649 H 428.077 -0.639149 -0.366957 0
M  V30 4650 H 430.719 -1.87833 -0.286154 0
M  V30 4651 H 428.869 -2.95588 -2.52111 0
M  V30 4652 H 430.541 -4.58751 -0.484314 0
M  V30 4653 H 428.784 -4.32076 -0.386362 0
M  V30 4654 H 429.455 -5.23946 -1.73737 0
M  V30 4655 H 431.931 -3.41963 -2.37067 0
M  V30 4656 H 430.807 -4.2432 -3.48201 0
M  V30 4657 H 431.068 -2.51309 -3.63725 0
M  V30 4658 N 430.127 0.543554 -1.4793 0
M  V30 4659 C 431.057 1.65888 -1.64327 0
M  V30 4660 C 432.038 1.62818 -0.492383 0
M  V30 4661 O 433.223 1.80226 -0.723338 0
M  V30 4662 C 430.353 3.04506 -1.67013 0
M  V30 4663 C 429.307 3.2243 -2.81466 0
M  V30 4664 C 428.633 4.61972 -2.69233 0
M  V30 4665 C 429.933 3.06496 -4.22915 0
M  V30 4666 H 431.627 1.52421 -2.57698 0
M  V30 4667 H 429.173 0.731849 -1.24016 0
M  V30 4668 H 431.126 3.82391 -1.77074 0
M  V30 4669 H 429.85 3.18964 -0.70212 0
M  V30 4670 H 428.509 2.46957 -2.70938 0
M  V30 4671 H 428.157 4.73247 -1.7043 0
M  V30 4672 H 427.857 4.74911 -3.46025 0
M  V30 4673 H 429.381 5.41974 -2.81242 0
M  V30 4674 H 430.795 3.74186 -4.34348 0
M  V30 4675 H 429.192 3.30938 -5.006 0
M  V30 4676 H 430.262 2.03077 -4.40327 0
M  V30 4677 N 431.605 1.3629 0.791371 0
M  V30 4678 C 432.555 1.26988 1.89362 0
M  V30 4679 C 433.539 0.161795 1.60084 0
M  V30 4680 O 434.731 0.394426 1.72549 0
M  V30 4681 C 431.86 1.05944 3.26544 0
M  V30 4682 C 430.946 2.21211 3.61838 0
M  V30 4683 N 431.337 3.46518 3.68455 0
M  V30 4684 C 429.635 2.12933 3.91887 0
M  V30 4685 C 430.336 4.2241 3.99931 0
M  V30 4686 N 429.312 3.51329 4.14812 0
M  V30 4687 H 433.114 2.21908 1.92702 0
M  V30 4688 H 430.628 1.28982 0.986787 0
M  V30 4689 H 432.625 0.973666 4.05371 0
M  V30 4690 H 431.285 0.119223 3.24481 0
M  V30 4691 H 432.296 3.80677 3.51148 0
M  V30 4692 H 428.973 1.26855 3.97761 0
M  V30 4693 H 430.363 5.30767 4.1199 0
M  V30 4694 N 433.083 -1.0153 1.20538 0
M  V30 4695 C 434.36 -1.72327 0.925343 0
M  V30 4696 C 434.74 -2.03383 -0.565547 0
M  V30 4697 O 434.088 -1.69934 -1.52757 0
M  V30 4698 C 434.298 -2.9902 1.79967 0
M  V30 4699 C 435.646 -3.72258 2.04228 0
M  V30 4700 O 436.67 -3.08979 1.77231 0
M  V30 4701 O 435.529 -4.86053 2.4983 0
M  V30 4702 H 432.623 -0.751099 0.346092 0
M  V30 4703 H 435.169 -1.07366 1.31417 0
M  V30 4704 H 433.941 -2.72402 2.80915 0
M  V30 4705 H 433.564 -3.71721 1.41099 0
M  V30 4706 N 434.561 -1.01147 -1.20859 0
M  V30 4707 C 435.809 -0.696486 -1.89719 0
M  V30 4708 C 436.13 0.775788 -1.78904 0
M  V30 4709 O 435.4 1.55759 -1.18811 0
M  V30 4710 H 433.98 -0.254628 -0.702263 0
M  V30 4711 H 436.642 -1.28197 -1.46804 0
M  V30 4712 H 435.738 -0.975357 -2.96468 0
M  V30 4713 N 436.039 1.36541 -0.78704 0
M  V30 4714 C 437.316 1.9355 -0.282424 0
M  V30 4715 C 437.696 1.71919 1.22503 0
M  V30 4716 O 437.044 1.07677 2.01539 0
M  V30 4717 C 437.254 3.4246 -0.672462 0
M  V30 4718 C 438.602 4.19582 -0.650863 0
M  V30 4719 O 439.626 3.50889 -0.612789 0
M  V30 4720 O 438.485 5.42106 -0.691623 0
M  V30 4721 H 435.579 0.824091 -0.0693 0
M  V30 4722 H 438.125 1.45736 -0.869423 0
M  V30 4723 H 436.897 3.51851 -1.71221 0
M  V30 4724 H 436.52 3.97556 -0.0592211 0
M  V30 4725 N 437.518 0.538854 1.48102 0
M  V30 4726 C 438.929 0.100679 1.86428 0
M  V30 4727 C 439.28 -1.32447 1.44749 0
M  V30 4728 O 438.405 -1.99339 0.842199 0
M  V30 4729 C 439 0.175933 3.38343 0
M  V30 4730 C 437.559 -0.207098 3.7583 0
M  V30 4731 C 436.706 0.531741 2.72154 0
M  V30 4732 H 439.657 0.749614 1.3988 0
M  V30 4733 H 439.678 -0.610144 3.75576 0
M  V30 4734 H 439.19 1.21328 3.68648 0
M  V30 4735 H 437.291 -1.24626 3.5114 0
M  V30 4736 H 437.404 0.138687 4.78899 0
M  V30 4737 H 435.768 -0.0230462 2.5469 0
M  V30 4738 H 436.551 1.56989 3.05302 0
M  V30 4739 N 438.996 -1.55193 0.274407 0
M  V30 4740 C 439.944 -2.23924 -0.629362 0
M  V30 4741 C 440.938 -1.23602 -1.1584 0
M  V30 4742 O 442.144 -1.41535 -1.11211 0
M  V30 4743 H 438.519 -0.718637 -0.221507 0
M  V30 4744 H 440.49 -2.98388 -0.0268322 0
M  V30 4745 C 439.239 -2.97329 -1.80252 0
M  V30 4746 H 438.562 -3.74313 -1.40462 0
M  V30 4747 H 440.002 -3.48743 -2.41152 0
M  V30 4748 C 438.461 -2.0276 -2.69054 0
M  V30 4749 O 438.991 -1.57836 -3.69392 0
M  V30 4750 N 437.197 -1.69275 -2.36208 0
M  V30 4751 H 436.744 -2.06004 -1.54661 0
M  V30 4752 H 436.702 -1.06271 -2.95895 0
M  V30 4753 N 440.474 -0.00167713 -1.576 0
M  V30 4754 C 441.384 1.00548 -2.1196 0
M  V30 4755 C 442.4 1.3758 -1.06526 0
M  V30 4756 O 443.576 1.46278 -1.38436 0
M  V30 4757 C 440.641 2.27809 -2.6135 0
M  V30 4758 C 439.702 1.97074 -3.81393 0
M  V30 4759 C 438.935 3.18267 -4.28417 0
M  V30 4760 O 439.158 4.30009 -3.74765 0
M  V30 4761 O 438.092 3.02167 -5.20556 0
M  V30 4762 H 441.918 0.573373 -2.98238 0
M  V30 4763 H 439.503 0.217255 -1.47812 0
M  V30 4764 H 441.385 3.02568 -2.93309 0
M  V30 4765 H 440.06 2.70254 -1.78169 0
M  V30 4766 H 438.967 1.19785 -3.54404 0
M  V30 4767 H 440.3 1.59464 -4.65652 0
M  V30 4768 N 441.952 1.55251 0.271103 0
M  V30 4769 C 443.363 1.66635 0.842007 0
M  V30 4770 C 443.714 0.594631 1.86972 0
M  V30 4771 O 442.839 -0.263532 2.14789 0
M  V30 4772 C 443.434 3.02082 1.53401 0
M  V30 4773 C 441.993 3.15487 2.05293 0
M  V30 4774 C 441.14 2.62438 0.895631 0
M  V30 4775 H 444.091 1.58629 0.0474117 0
M  V30 4776 H 444.112 2.95176 2.40107 0
M  V30 4777 H 443.624 3.80062 0.785786 0
M  V30 4778 H 441.725 2.42284 2.83071 0
M  V30 4779 H 441.838 4.22075 2.26693 0
M  V30 4780 H 440.202 2.19644 1.28953 0
M  V30 4781 H 440.985 3.42923 0.160878 0
M  V30 4782 N 443.43 -0.535701 1.48216 0
M  V30 4783 C 444.676 -1.29375 1.56173 0
M  V30 4784 C 445.009 -1.92804 0.232429 0
M  V30 4785 O 444.284 -1.78992 -0.761048 0
M  V30 4786 C 444.567 -2.38747 2.69577 0
M  V30 4787 C 444.42 -1.80046 4.12193 0
M  V30 4788 C 445.739 -3.40551 2.78771 0
M  V30 4789 H 442.858 -0.469027 0.568491 0
M  V30 4790 H 445.5 -0.597358 1.80365 0
M  V30 4791 H 443.65 -2.98147 2.4908 0
M  V30 4792 H 445.322 -1.24742 4.44114 0
M  V30 4793 H 443.565 -1.10609 4.19462 0
M  V30 4794 H 444.236 -2.59212 4.87353 0
M  V30 4795 H 446.712 -2.91099 2.97322 0
M  V30 4796 H 445.588 -4.1448 3.59857 0
M  V30 4797 H 445.849 -4.00746 1.86696 0
M  V30 4798 N 444.908 -1.36708 -0.784132 0
M  V30 4799 C 446.133 -1.34565 -1.5782 0
M  V30 4800 C 446.558 0.0695257 -1.87971 0
M  V30 4801 O 445.916 1.04302 -1.48293 0
M  V30 4802 C 445.964 -2.17952 -2.87279 0
M  V30 4803 O 445.068 -1.57563 -3.81114 0
M  V30 4804 H 444.409 -0.460337 -0.478524 0
M  V30 4805 H 446.939 -1.80064 -0.971495 0
M  V30 4806 H 446.949 -2.30721 -3.365 0
M  V30 4807 H 445.624 -3.20823 -2.64661 0
M  V30 4808 H 444.201 -1.53764 -3.39722 0
M  V30 4809 N 446.386 1.0089 -1.21074 0
M  V30 4810 C 447.663 1.71834 -0.934469 0
M  V30 4811 C 448.043 2.0368 0.554753 0
M  V30 4812 O 447.391 1.70742 1.51854 0
M  V30 4813 C 447.601 2.98061 -1.8155 0
M  V30 4814 C 448.949 3.7117 -2.06199 0
M  V30 4815 O 449.973 3.08034 -1.78867 0
M  V30 4816 O 448.832 4.84721 -2.52404 0
M  V30 4817 H 445.926 0.749253 -0.35007 0
M  V30 4818 H 448.472 1.06668 -1.31985 0
M  V30 4819 H 447.244 2.70908 -2.82355 0
M  V30 4820 H 446.867 3.70968 -1.43068 0
M  V30 4821 N 447.864 1.01787 1.20321 0
M  V30 4822 C 449.094 0.72614 1.93419 0
M  V30 4823 C 449.502 -0.717317 1.75075 0
M  V30 4824 O 448.845 -1.49836 1.06278 0
M  V30 4825 C 448.907 0.983621 3.45782 0
M  V30 4826 C 448.571 2.41645 3.87888 0
M  V30 4827 C 449.568 3.39732 3.93545 0
M  V30 4828 C 447.253 2.75752 4.19841 0
M  V30 4829 C 449.247 4.69988 4.30569 0
M  V30 4830 C 446.934 4.06221 4.56539 0
M  V30 4831 C 447.932 5.0315 4.61876 0
M  V30 4832 O 447.62 6.31284 4.97731 0
M  V30 4833 H 447.352 0.265824 0.621541 0
M  V30 4834 H 449.906 1.3623 1.53722 0
M  V30 4835 H 448.136 0.290301 3.85609 0
M  V30 4836 H 449.825 0.683279 4.00108 0
M  V30 4837 H 450.591 3.14718 3.69022 0
M  V30 4838 H 446.47 2.00993 4.14877 0
M  V30 4839 H 450.014 5.45642 4.3465 0
M  V30 4840 H 445.911 4.31013 4.80518 0
M  V30 4841 H 446.679 6.35591 5.15719 0
M  V30 4842 N 449.342 -1.36122 0.79427 0
M  V30 4843 C 450.591 -1.98361 0.365464 0
M  V30 4844 C 450.904 -1.6374 -1.06997 0
M  V30 4845 O 452.11 -2.19251 -1.60129 0
M  V30 4846 C 450.566 -3.54821 0.602496 0
M  V30 4847 C 450.174 -3.98362 2.04967 0
M  V30 4848 C 451.918 -4.2383 0.238437 0
M  V30 4849 C 449.825 -5.47619 2.2331 0
M  V30 4850 H 448.755 -0.742193 0.13291 0
M  V30 4851 H 451.406 -1.55354 0.976589 0
M  V30 4852 H 449.788 -3.95922 -0.078409 0
M  V30 4853 H 450.962 -3.68447 2.76737 0
M  V30 4854 H 449.277 -3.42206 2.37243 0
M  V30 4855 H 451.874 -5.33529 0.353705 0
M  V30 4856 H 452.217 -4.08264 -0.814006 0
M  V30 4857 H 452.75 -3.88108 0.872769 0
M  V30 4858 H 449.489 -5.68138 3.26955 0
M  V30 4859 H 449.009 -5.79145 1.5605 0
M  V30 4860 H 450.688 -6.13911 2.0426 0
M  V30 4861 N 450.82 -0.546701 -1.47814 0
M  V30 4862 C 451.768 0.220048 -2.31557 0
M  V30 4863 C 452.762 0.919472 -1.42275 0
M  V30 4864 O 453.968 0.841953 -1.59095 0
M  V30 4865 H 450.343 0.0898334 -0.746615 0
M  V30 4866 H 452.314 -0.505589 -2.94086 0
M  V30 4867 C 451.063 1.24353 -3.24702 0
M  V30 4868 H 450.386 0.714758 -3.93359 0
M  V30 4869 H 451.826 1.75112 -3.8615 0
M  V30 4870 C 450.285 2.28593 -2.47481 0
M  V30 4871 O 450.815 3.35334 -2.21165 0
M  V30 4872 N 449.021 2.02244 -2.08676 0
M  V30 4873 H 448.568 1.15455 -2.30278 0
M  V30 4874 H 448.526 2.72207 -1.57323 0
M  V30 4875 N 452.299 1.55045 -0.282633 0
M  V30 4876 C 453.262 2.21515 0.588539 0
M  V30 4877 C 454.262 1.19535 1.07554 0
M  V30 4878 O 455.452 1.44391 0.974514 0
M  V30 4879 C 452.584 2.88704 1.8128 0
M  V30 4880 H 453.777 2.99899 0.00806397 0
M  V30 4881 H 451.33 1.56265 -0.0333067 0
M  V30 4882 H 452.065 2.14352 2.43359 0
M  V30 4883 H 451.85 3.63443 1.47144 0
M  V30 4884 H 453.34 3.39465 2.43214 0
M  V30 4885 N 453.777 0.010035 1.57597 0
M  V30 4886 C 454.725 -0.996272 2.10184 0
M  V30 4887 C 455.719 -1.34942 1.02406 0
M  V30 4888 O 456.925 -1.33389 1.20861 0
M  V30 4889 H 453.3 -0.338982 0.671264 0
M  V30 4890 H 455.271 -0.527272 2.93705 0
M  V30 4891 C 454.02 -2.27599 2.62857 0
M  V30 4892 H 453.343 -2.01295 3.45428 0
M  V30 4893 H 454.783 -2.96265 3.0332 0
M  V30 4894 C 453.242 -2.99269 1.54725 0
M  V30 4895 O 453.772 -3.90644 0.93597 0
M  V30 4896 N 451.978 -2.61269 1.27228 0
M  V30 4897 H 451.525 -1.87043 1.77123 0
M  V30 4898 H 451.483 -3.09534 0.550999 0
M  V30 4899 N 455.255 -1.55392 -0.262866 0
M  V30 4900 C 456.504 -1.75679 -0.990943 0
M  V30 4901 C 456.817 -0.57097 -1.87081 0
M  V30 4902 O 458.023 -0.656486 -2.63444 0
M  V30 4903 C 456.479 -3.10964 -1.81188 0
M  V30 4904 C 456.087 -4.37146 -0.980188 0
M  V30 4905 C 457.831 -3.40597 -2.53365 0
M  V30 4906 C 455.738 -5.63466 -1.7961 0
M  V30 4907 H 454.668 -0.654868 -0.373716 0
M  V30 4908 H 457.319 -1.81841 -0.246203 0
M  V30 4909 H 455.701 -2.98867 -2.59797 0
M  V30 4910 H 456.875 -4.60187 -0.237558 0
M  V30 4911 H 455.19 -4.14731 -0.372497 0
M  V30 4912 H 457.787 -4.32186 -3.14833 0
M  V30 4913 H 458.13 -2.6119 -3.24169 0
M  V30 4914 H 458.663 -3.53838 -1.81779 0
M  V30 4915 H 455.402 -6.4565 -1.13209 0
M  V30 4916 H 454.922 -5.44552 -2.51443 0
M  V30 4917 H 456.601 -6.02139 -2.36723 0
M  V30 4918 N 456.733 0.527833 -1.48498 0
M  V30 4919 C 457.982 1.28003 -1.55878 0
M  V30 4920 C 458.295 1.9414 -0.238577 0
M  V30 4921 O 459.501 2.7083 -0.190643 0
M  V30 4922 C 457.957 2.32272 -2.74914 0
M  V30 4923 C 457.565 1.72196 -4.13585 0
M  V30 4924 C 459.309 3.08488 -2.91608 0
M  V30 4925 C 457.216 2.74417 -5.23879 0
M  V30 4926 H 456.146 0.481413 -0.580308 0
M  V30 4927 H 458.797 0.557195 -1.74836 0
M  V30 4928 H 457.179 3.07601 -2.49395 0
M  V30 4929 H 458.353 1.03041 -4.49132 0
M  V30 4930 H 456.668 1.08464 -4.02025 0
M  V30 4931 H 459.265 3.84879 -3.71177 0
M  V30 4932 H 459.608 3.64481 -2.01145 0
M  V30 4933 H 460.141 2.40274 -3.17038 0
M  V30 4934 H 456.88 2.23242 -6.16314 0
M  V30 4935 H 456.4 3.41893 -4.92818 0
M  V30 4936 H 458.079 3.37362 -5.52083 0
M  V30 4937 N 458.211 1.37122 0.776871 0
M  V30 4938 C 459.144 1.26835 1.89705 0
M  V30 4939 C 460.122 0.14992 1.61907 0
M  V30 4940 O 461.306 0.323242 1.85708 0
M  V30 4941 C 458.433 0.95986 3.24814 0
M  V30 4942 C 457.479 2.09447 3.7153 0
M  V30 4943 S 458.312 3.71368 3.85806 0
M  V30 4944 C 459.468 3.42659 5.23771 0
M  V30 4945 H 459.701 2.21647 1.98141 0
M  V30 4946 H 457.234 1.22685 0.937433 0
M  V30 4947 H 459.192 0.788696 4.02852 0
M  V30 4948 H 457.853 0.0293137 3.14086 0
M  V30 4949 H 457.046 1.8335 4.69467 0
M  V30 4950 H 456.648 2.2255 3.00578 0
M  V30 4951 H 458.94 2.9733 6.0877 0
M  V30 4952 H 459.883 4.39905 5.54878 0
M  V30 4953 H 460.291 2.77708 4.91466 0
M  V30 4954 N 459.689 -1.00246 1.21608 0
M  V30 4955 C 461.1 -1.55511 1.03312 0
M  V30 4956 C 461.451 -1.91946 -0.406332 0
M  V30 4957 O 460.576 -1.73753 -1.28992 0
M  V30 4958 C 461.171 -2.82576 1.86913 0
M  V30 4959 C 459.73 -3.34318 1.72941 0
M  V30 4960 C 458.877 -2.07487 1.83968 0
M  V30 4961 H 461.828 -0.824638 1.35593 0
M  V30 4962 H 461.849 -3.54559 1.38087 0
M  V30 4963 H 461.361 -2.56026 2.91672 0
M  V30 4964 H 459.462 -3.65797 0.70877 0
M  V30 4965 H 459.575 -4.05566 2.55055 0
M  V30 4966 H 457.939 -2.20603 1.27304 0
M  V30 4967 H 458.722 -1.83346 2.9024 0
M  V30 4968 N 461.167 -1.02423 -1.1978 0
M  V30 4969 C 462.077 -0.610919 -2.26506 0
M  V30 4970 C 463.093 0.355152 -1.70337 0
M  V30 4971 O 464.269 0.214195 -2.00258 0
M  V30 4972 C 461.334 0.0365921 -3.46681 0
M  V30 4973 C 460.395 -0.976389 -4.18049 0
M  V30 4974 C 459.628 -0.359683 -5.32487 0
M  V30 4975 O 459.851 0.838601 -5.64202 0
M  V30 4976 O 458.785 -1.08022 -5.92127 0
M  V30 4977 H 462.611 -1.49965 -2.64091 0
M  V30 4978 H 460.196 -0.794156 -1.26545 0
M  V30 4979 H 462.078 0.39786 -4.19518 0
M  V30 4980 H 460.753 0.899398 -3.10954 0
M  V30 4981 H 459.66 -1.38916 -3.47352 0
M  V30 4982 H 460.993 -1.80941 -4.57735 0
M  V30 4983 N 462.645 1.35699 -0.801477 0
M  V30 4984 C 463.892 1.98913 -0.379459 0
M  V30 4985 C 464.22 1.63592 1.05204 0
M  V30 4986 O 463.475 0.888563 1.74365 0
M  V30 4987 C 463.774 3.53828 -0.504041 0
M  V30 4988 C 463.44 4.09002 -1.8981 0
M  V30 4989 C 462.102 4.23783 -2.27951 0
M  V30 4990 C 464.454 4.38939 -2.81038 0
M  V30 4991 C 461.782 4.65816 -3.56696 0
M  V30 4992 C 464.134 4.82409 -4.09224 0
M  V30 4993 C 462.798 4.95395 -4.4737 0
M  V30 4994 H 462.068 0.727874 -0.138854 0
M  V30 4995 H 464.715 1.61994 -1.02128 0
M  V30 4996 H 463.02 3.91175 0.221242 0
M  V30 4997 H 464.717 4.00687 -0.158361 0
M  V30 4998 H 461.307 3.97946 -1.59176 0
M  V30 4999 H 465.491 4.27077 -2.52821 0
M  V30 5000 H 460.747 4.74059 -3.86106 0
M  V30 5001 H 464.921 5.04535 -4.80018 0
M  V30 5002 H 462.548 5.27724 -5.47185 0
M  V30 5003 N 464.123 0.554532 1.47522 0
M  V30 5004 C 465.033 -0.197865 2.33764 0
M  V30 5005 C 466.049 -0.914576 1.48025 0
M  V30 5006 O 467.225 -0.884067 1.80959 0
M  V30 5007 C 464.29 -1.21628 3.24665 0
M  V30 5008 C 463.351 -0.507283 4.26292 0
M  V30 5009 C 462.584 -1.47718 5.1285 0
M  V30 5010 O 462.807 -2.7118 5.01814 0
M  V30 5011 O 461.741 -1.00313 5.93482 0
M  V30 5012 H 465.567 0.50949 2.99396 0
M  V30 5013 H 463.152 0.315176 1.46038 0
M  V30 5014 H 465.034 -1.80421 3.80823 0
M  V30 5015 H 463.709 -1.9056 2.61665 0
M  V30 5016 H 462.616 0.121778 3.73902 0
M  V30 5017 H 463.949 0.140544 4.91999 0
M  V30 5018 N 465.601 -1.54893 0.290851 0
M  V30 5019 C 466.829 -2.04343 -0.324288 0
M  V30 5020 C 467.244 -1.16859 -1.48289 0
M  V30 5021 O 466.601 -0.192018 -1.81487 0
M  V30 5022 C 466.652 -3.52756 -0.79026 0
M  V30 5023 O 466.373 -4.36913 0.322213 0
M  V30 5024 C 467.874 -4.18161 -1.4716 0
M  V30 5025 H 465.094 -0.667135 -0.0719173 0
M  V30 5026 H 467.638 -1.99981 0.427529 0
M  V30 5027 H 465.793 -3.57511 -1.49213 0
M  V30 5028 H 466.207 -5.24486 -0.0387372 0
M  V30 5029 H 467.681 -5.23562 -1.7489 0
M  V30 5030 H 468.158 -3.67282 -2.40834 0
M  V30 5031 H 468.764 -4.17454 -0.813178 0
M  V30 5032 N 467.08 -0.0183926 -1.57589 0
M  V30 5033 C 468.027 0.967022 -2.09565 0
M  V30 5034 C 468.997 1.32983 -0.995225 0
M  V30 5035 O 470.182 1.42501 -1.26878 0
M  V30 5036 C 467.322 2.24772 -2.61861 0
M  V30 5037 C 466.435 1.94232 -3.85873 0
M  V30 5038 C 465.57 3.16518 -4.26603 0
M  V30 5039 C 464.609 2.81748 -5.43401 0
M  V30 5040 N 463.746 3.96626 -5.79338 0
M  V30 5041 H 468.586 0.516874 -2.93483 0
M  V30 5042 H 466.123 0.243544 -1.4507 0
M  V30 5043 H 468.081 2.99667 -2.90268 0
M  V30 5044 H 466.711 2.67423 -1.8079 0
M  V30 5045 H 465.763 1.09625 -3.64262 0
M  V30 5046 H 467.075 1.64616 -4.70853 0
M  V30 5047 H 466.229 3.99743 -4.56389 0
M  V30 5048 H 464.968 3.49286 -3.40368 0
M  V30 5049 H 463.973 1.96933 -5.1332 0
M  V30 5050 H 465.198 2.50207 -6.31327 0
M  V30 5051 H 463.144 4.29257 -4.96059 0
M  V30 5052 H 463.061 3.70598 -6.58933 0
M  V30 5053 H 464.329 4.80586 -6.13724 0
M  V30 5054 N 468.558 1.5553 0.254621 0
M  V30 5055 C 469.798 1.7876 0.991179 0
M  V30 5056 C 470.162 0.586669 1.82817 0
M  V30 5057 O 471.363 0.697585 2.5959 0
M  V30 5058 C 469.634 3.06679 1.83529 0
M  V30 5059 S 471.193 3.511 2.632 0
M  V30 5060 H 468.011 0.627916 0.333531 0
M  V30 5061 H 470.613 1.93766 0.259778 0
M  V30 5062 H 469.317 3.92158 1.20996 0
M  V30 5063 H 468.848 2.94388 2.60958 0
M  V30 5064 H 470.863 3.11823 3.8598 0
M  V30 5065 N 470.036 -0.519951 1.48776 0
M  V30 5066 C 470.984 -1.64443 1.64503 0
M  V30 5067 C 471.978 -1.61501 0.511248 0
M  V30 5068 O 473.184 -1.66238 0.690294 0
M  V30 5069 H 469.559 -0.544776 0.518385 0
M  V30 5070 H 471.53 -1.48325 2.58925 0
M  V30 5071 C 470.279 -3.02673 1.71127 0
M  V30 5072 H 469.602 -3.05635 2.57735 0
M  V30 5073 H 471.042 -3.80941 1.86172 0
M  V30 5074 C 469.501 -3.33854 0.452032 0
M  V30 5075 O 470.031 -3.99385 -0.430678 0
M  V30 5076 N 468.237 -2.88825 0.32069 0
M  V30 5077 H 467.784 -2.35674 1.03998 0
M  V30 5078 H 467.742 -3.10056 -0.520814 0
M  V30 5079 N 471.514 -1.37532 -0.769588 0
M  V30 5080 C 472.462 -1.33561 -1.90432 0
M  V30 5081 C 473.456 -0.224027 -1.67912 0
M  V30 5082 O 474.662 -0.392174 -1.75676 0
M  V30 5083 H 471.037 -0.416279 -0.626271 0
M  V30 5084 H 473.008 -2.29348 -1.90899 0
M  V30 5085 C 471.757 -1.16162 -3.27722 0
M  V30 5086 H 471.08 -2.00951 -3.45628 0
M  V30 5087 H 472.52 -1.17434 -4.07413 0
M  V30 5088 C 470.979 0.132583 -3.36639 0
M  V30 5089 O 471.509 1.11539 -3.85904 0
M  V30 5090 N 469.715 0.184013 -2.90017 0
M  V30 5091 H 469.262 -0.616415 -2.50116 0
M  V30 5092 H 469.22 1.04956 -2.96364 0
M  V30 5093 N 472.992 0.995999 -1.22138 0
M  V30 5094 C 474.217 1.77601 -1.0711 0
M  V30 5095 C 474.642 1.84339 0.374264 0
M  V30 5096 O 474 1.29359 1.27028 0
M  V30 5097 C 474.048 3.18897 -1.68336 0
M  V30 5098 O 473.152 4.01663 -0.934928 0
M  V30 5099 H 472.493 0.547011 -0.376397 0
M  V30 5100 H 475.023 1.25137 -1.6187 0
M  V30 5101 H 475.033 3.69539 -1.72931 0
M  V30 5102 H 473.708 3.13308 -2.73516 0
M  V30 5103 H 472.285 3.60204 -0.964751 0
M  V30 5104 N 474.47 1.03057 1.19235 0
M  V30 5105 C 475.417 0.612832 2.22515 0
M  V30 5106 C 476.387 -0.374224 1.61829 0
M  V30 5107 O 477.572 -0.270501 1.88873 0
M  V30 5108 C 474.712 -0.028475 3.45088 0
M  V30 5109 C 473.825 1.00483 4.20151 0
M  V30 5110 C 472.96 0.333102 5.30155 0
M  V30 5111 C 471.999 1.3522 5.96977 0
M  V30 5112 N 471.136 0.70616 6.9854 0
M  V30 5113 H 475.976 1.49812 2.57605 0
M  V30 5114 H 473.513 0.749658 1.26564 0
M  V30 5115 H 475.471 -0.417548 4.15105 0
M  V30 5116 H 474.101 -0.877334 3.10649 0
M  V30 5117 H 473.153 1.51194 3.49062 0
M  V30 5118 H 474.465 1.77929 4.65986 0
M  V30 5119 H 473.619 -0.110725 6.06599 0
M  V30 5120 H 472.358 -0.473547 4.85396 0
M  V30 5121 H 471.363 1.80627 5.19282 0
M  V30 5122 H 472.588 2.16037 6.4382 0
M  V30 5123 H 470.534 -0.0803667 6.55951 0
M  V30 5124 H 470.451 1.41848 7.42573 0
M  V30 5125 H 471.719 0.286391 7.78974 0
M  V30 5126 N 475.948 -1.35272 0.808662 0
M  V30 5127 C 477.359 -1.81179 0.450688 0
M  V30 5128 C 477.71 -1.67143 -1.02751 0
M  V30 5129 O 476.835 -1.20325 -1.79864 0
M  V30 5130 C 477.43 -3.28943 0.811275 0
M  V30 5131 C 475.989 -3.72985 0.505871 0
M  V30 5132 C 475.136 -2.57229 1.03578 0
M  V30 5133 H 478.087 -1.2322 1.00012 0
M  V30 5134 H 478.108 -3.80342 0.109588 0
M  V30 5135 H 477.62 -3.39127 1.88718 0
M  V30 5136 H 475.721 -3.68349 -0.561209 0
M  V30 5137 H 475.834 -4.67677 1.03995 0
M  V30 5138 H 474.198 -2.50548 0.458005 0
M  V30 5139 H 474.981 -2.7019 2.11784 0
M  V30 5140 N 477.426 -0.562348 -1.47226 0
M  V30 5141 C 478.373 0.182461 -2.30078 0
M  V30 5142 C 479.343 0.903503 -1.39377 0
M  V30 5143 O 480.528 0.898188 -1.68337 0
M  V30 5144 C 477.668 1.20322 -3.23445 0
M  V30 5145 C 476.781 0.487717 -4.29238 0
M  V30 5146 C 475.916 1.49422 -5.09752 0
M  V30 5147 C 474.955 0.763976 -6.07314 0
M  V30 5148 N 474.092 1.71755 -6.80768 0
M  V30 5149 H 478.932 -0.530169 -2.93246 0
M  V30 5150 H 476.469 -0.273276 -1.44539 0
M  V30 5151 H 478.427 1.80768 -3.76004 0
M  V30 5152 H 477.057 1.88382 -2.6213 0
M  V30 5153 H 476.109 -0.231374 -3.79696 0
M  V30 5154 H 477.421 -0.0841003 -4.98729 0
M  V30 5155 H 476.575 2.17206 -5.66486 0
M  V30 5156 H 475.314 2.09995 -4.40174 0
M  V30 5157 H 474.319 0.0722344 -5.49753 0
M  V30 5158 H 475.544 0.16391 -6.78902 0
M  V30 5159 H 473.49 2.31177 -6.13916 0
M  V30 5160 H 473.407 1.19802 -7.46447 0
M  V30 5161 H 474.675 2.38638 -7.42073 0
M  V30 5162 N 478.904 1.54736 -0.299062 0
M  V30 5163 C 479.851 2.23448 0.577899 0
M  V30 5164 C 480.821 1.21637 1.13109 0
M  V30 5165 O 482.006 1.50252 1.17597 0
M  V30 5166 C 479.146 2.9774 1.74484 0
M  V30 5167 C 478.259 4.1432 1.22323 0
M  V30 5168 C 477.394 4.76199 2.35388 0
M  V30 5169 C 476.433 5.84927 1.80351 0
M  V30 5170 N 475.57 6.4077 2.86982 0
M  V30 5171 H 480.41 2.97996 -0.0146545 0
M  V30 5172 H 477.947 1.47088 -0.0190013 0
M  V30 5173 H 479.905 3.39045 2.43114 0
M  V30 5174 H 478.535 2.25572 2.30905 0
M  V30 5175 H 477.587 3.7797 0.429249 0
M  V30 5176 H 478.899 4.92659 0.780309 0
M  V30 5177 H 478.053 5.20346 3.11969 0
M  V30 5178 H 476.792 3.97188 2.83006 0
M  V30 5179 H 475.797 5.40207 1.02259 0
M  V30 5180 H 477.022 6.65821 1.3364 0
M  V30 5181 H 474.968 5.64643 3.33938 0
M  V30 5182 H 474.885 7.1445 2.4718 0
M  V30 5183 H 476.153 6.89574 3.63466 0
M  V30 5184 N 480.382 0.0267497 1.57577 0
M  V30 5185 C 481.607 -0.666227 1.96408 0
M  V30 5186 C 482.032 -1.65004 0.903071 0
M  V30 5187 O 481.39 -1.80787 -0.136263 0
M  V30 5188 C 481.438 -1.35101 3.34335 0
M  V30 5189 O 480.542 -2.46623 3.30531 0
M  V30 5190 H 479.883 -0.175206 0.640468 0
M  V30 5191 H 482.413 0.0878977 2.04411 0
M  V30 5192 H 482.423 -1.70834 3.70513 0
M  V30 5193 H 481.098 -0.629844 4.11103 0
M  V30 5194 H 479.675 -2.13019 3.06068 0
M  V30 5195 N 481.861 -1.55662 -0.24637 0
M  V30 5196 C 483.091 -1.81312 -0.990438 0
M  V30 5197 C 483.499 -0.600234 -1.79426 0
M  V30 5198 O 482.842 0.440537 -1.78339 0
M  V30 5199 C 482.904 -3.0032 -1.97607 0
M  V30 5200 C 482.568 -4.36322 -1.35912 0
M  V30 5201 C 483.565 -5.14295 -0.761348 0
M  V30 5202 C 481.25 -4.83019 -1.37833 0
M  V30 5203 C 483.244 -6.37114 -0.190998 0
M  V30 5204 C 480.931 -6.05786 -0.804128 0
M  V30 5205 C 481.929 -6.82672 -0.211489 0
M  V30 5206 O 481.617 -8.03121 0.353845 0
M  V30 5207 H 481.349 -0.607233 -0.297058 0
M  V30 5208 H 483.903 -2.0356 -0.274351 0
M  V30 5209 H 482.133 -2.73829 -2.73047 0
M  V30 5210 H 483.822 -3.13057 -2.58361 0
M  V30 5211 H 484.588 -4.79337 -0.739013 0
M  V30 5212 H 480.467 -4.23165 -1.829 0
M  V30 5213 H 484.011 -6.97069 0.272206 0
M  V30 5214 H 479.908 -6.40222 -0.823792 0
M  V30 5215 H 480.676 -8.18131 0.245761 0
M  V30 5216 N 483.339 0.512053 -1.4905 0
M  V30 5217 C 484.588 1.26343 -1.57227 0
M  V30 5218 C 484.901 1.93876 -0.259155 0
M  V30 5219 O 486.107 2.70612 -0.219358 0
M  V30 5220 C 484.563 2.29343 -2.77362 0
M  V30 5221 C 484.171 1.67799 -4.15388 0
M  V30 5222 C 485.915 3.05378 -2.94864 0
M  V30 5223 C 483.822 2.68845 -5.2676 0
M  V30 5224 H 482.752 0.475231 -0.585382 0
M  V30 5225 H 485.403 0.53862 -1.75417 0
M  V30 5226 H 483.785 3.04938 -2.52643 0
M  V30 5227 H 484.959 0.982715 -4.50199 0
M  V30 5228 H 483.274 1.04194 -4.03153 0
M  V30 5229 H 485.871 3.80921 -3.75238 0
M  V30 5230 H 486.214 3.62327 -2.05 0
M  V30 5231 H 486.747 2.36898 -3.19569 0
M  V30 5232 H 483.486 2.16692 -6.18647 0
M  V30 5233 H 483.006 3.36647 -4.96416 0
M  V30 5234 H 484.685 3.31487 -5.5563 0
M  V30 5235 N 484.817 1.37938 0.762283 0
M  V30 5236 C 485.78 1.34279 1.85747 0
M  V30 5237 C 486.78 0.244969 1.58923 0
M  V30 5238 O 487.97 0.501365 1.66829 0
M  V30 5239 C 485.102 1.08833 3.23061 0
M  V30 5240 H 486.295 2.31705 1.90401 0
M  V30 5241 H 483.848 1.23105 0.963057 0
M  V30 5242 H 484.583 0.119767 3.24079 0
M  V30 5243 H 484.368 1.88306 3.43923 0
M  V30 5244 H 485.858 1.08946 4.03138 0
M  V30 5245 N 486.295 -0.989507 1.22664 0
M  V30 5246 C 487.523 -1.76496 1.07967 0
M  V30 5247 C 487.938 -1.85148 -0.369543 0
M  V30 5248 O 487.295 -1.32408 -1.25596 0
M  V30 5249 C 487.346 -3.19642 1.68853 0
M  V30 5250 O 487.067 -3.11453 3.08105 0
M  V30 5251 C 488.568 -4.13621 1.59475 0
M  V30 5252 H 485.788 -0.55418 0.378319 0
M  V30 5253 H 488.332 -1.24378 1.62328 0
M  V30 5254 H 486.487 -3.68816 1.18547 0
M  V30 5255 H 486.901 -4.01499 3.37489 0
M  V30 5256 H 488.375 -5.11801 2.06795 0
M  V30 5257 H 488.852 -4.35718 0.55191 0
M  V30 5258 H 489.458 -3.70346 2.09103 0
M  V30 5259 N 487.773 -1.03688 -1.18687 0
M  V30 5260 C 488.705 -0.582696 -2.21669 0
M  V30 5261 C 489.718 0.345656 -1.59088 0
M  V30 5262 O 490.907 0.140776 -1.77944 0
M  V30 5263 C 488.007 0.169204 -3.38477 0
M  V30 5264 C 487.18 -0.766079 -4.30639 0
M  V30 5265 C 486.239 -0.0581541 -5.26168 0
M  V30 5266 O 485.265 -0.687346 -5.65035 0
M  V30 5267 N 486.467 1.20981 -5.67753 0
M  V30 5268 H 489.232 -1.46843 -2.61261 0
M  V30 5269 H 486.793 -0.916896 -1.33434 0
M  V30 5270 H 488.785 0.652543 -3.99405 0
M  V30 5271 H 487.355 0.956435 -2.97609 0
M  V30 5272 H 486.575 -1.42935 -3.67373 0
M  V30 5273 H 487.863 -1.40146 -4.89118 0
M  V30 5274 H 487.261 1.74159 -5.38224 0
M  V30 5275 H 485.818 1.6375 -6.30896 0
M  V30 5276 N 489.251 1.34841 -0.815825 0
M  V30 5277 C 490.499 1.98107 -0.399744 0
M  V30 5278 C 490.82 1.65019 1.03894 0
M  V30 5279 O 490.09 0.937311 1.72021 0
M  V30 5280 H 488.67 0.732827 -0.144823 0
M  V30 5281 H 491.332 1.64599 -1.0437 0
M  V30 5282 H 490.428 3.07856 -0.512965 0
M  V30 5283 N 490.729 0.570148 1.46925 0
M  V30 5284 C 491.969 0.0534743 2.0433 0
M  V30 5285 C 492.333 -1.27729 1.4335 0
M  V30 5286 O 493.534 -1.88244 1.91879 0
M  V30 5287 C 491.805 -0.0244296 3.57392 0
M  V30 5288 S 493.364 -0.485351 4.36108 0
M  V30 5289 H 490.182 0.0313908 0.710307 0
M  V30 5290 H 492.784 0.759808 1.80131 0
M  V30 5291 H 491.488 0.948261 3.99295 0
M  V30 5292 H 491.019 -0.753922 3.86108 0
M  V30 5293 H 493.034 -1.74258 4.64595 0
M  V30 5294 N 492.207 -1.54576 0.307264 0
M  V30 5295 C 493.137 -2.26708 -0.55907 0
M  V30 5296 C 494.118 -1.26893 -1.1328 0
M  V30 5297 O 495.303 -1.55677 -1.16097 0
M  V30 5298 C 492.433 -3.01259 -1.72801 0
M  V30 5299 C 491.387 -4.08275 -1.28435 0
M  V30 5300 C 490.713 -4.70575 -2.53895 0
M  V30 5301 C 492.013 -5.2068 -0.411038 0
M  V30 5302 H 493.707 -2.9937 0.042576 0
M  V30 5303 H 491.253 -1.43983 0.0219173 0
M  V30 5304 H 493.206 -3.50444 -2.34023 0
M  V30 5305 H 491.93 -2.26187 -2.356 0
M  V30 5306 H 490.589 -3.59949 -0.695161 0
M  V30 5307 H 490.237 -3.92136 -3.15021 0
M  V30 5308 H 489.937 -5.42854 -2.24908 0
M  V30 5309 H 491.461 -5.22527 -3.15908 0
M  V30 5310 H 492.875 -5.65721 -0.929097 0
M  V30 5311 H 491.272 -5.99716 -0.214664 0
M  V30 5312 H 492.342 -4.81629 0.562287 0
M  V30 5313 N 493.685 -0.035106 -1.57561 0
M  V30 5314 C 494.617 0.973604 -2.07494 0
M  V30 5315 C 495.63 1.28504 -0.999534 0
M  V30 5316 O 496.819 1.24864 -1.27559 0
M  V30 5317 C 493.919 2.29945 -2.48955 0
M  V30 5318 C 493.092 2.1723 -3.79644 0
M  V30 5319 C 492.151 3.328 -4.07592 0
M  V30 5320 O 491.177 3.09418 -4.77754 0
M  V30 5321 N 492.379 4.56779 -3.58236 0
M  V30 5322 H 495.144 0.547525 -2.94656 0
M  V30 5323 H 492.705 0.151515 -1.61189 0
M  V30 5324 H 494.697 3.06097 -2.64739 0
M  V30 5325 H 493.267 2.64173 -1.67126 0
M  V30 5326 H 492.487 1.25768 -3.73599 0
M  V30 5327 H 493.775 2.05945 -4.65257 0
M  V30 5328 H 493.173 4.78668 -3.01485 0
M  V30 5329 H 491.73 5.30079 -3.79288 0
M  V30 5330 N 495.163 1.55791 0.238111 0
M  V30 5331 C 496.111 1.91885 1.31464 0
M  V30 5332 C 497.105 0.798929 1.49377 0
M  V30 5333 O 498.311 0.983626 1.50747 0
M  V30 5334 H 494.686 0.609551 0.440399 0
M  V30 5335 H 496.657 2.81747 0.982925 0
M  V30 5336 C 495.406 2.23763 2.6613 0
M  V30 5337 H 494.729 3.09444 2.53149 0
M  V30 5338 H 496.169 2.52915 3.40309 0
M  V30 5339 C 494.628 1.05699 3.1989 0
M  V30 5340 O 495.158 0.309524 4.00506 0
M  V30 5341 N 493.364 0.845251 2.78036 0
M  V30 5342 H 492.911 1.4548 2.12588 0
M  V30 5343 H 492.869 0.0569973 3.14348 0
M  V30 5344 N 496.642 -0.504142 1.49319 0
M  V30 5345 C 497.87 -1.28256 1.62351 0
M  V30 5346 C 498.285 -1.86502 0.293682 0
M  V30 5347 O 497.642 -1.67678 -0.720449 0
M  V30 5348 C 497.693 -2.41507 2.68992 0
M  V30 5349 O 497.414 -1.85656 3.96817 0
M  V30 5350 C 498.915 -3.32929 2.927 0
M  V30 5351 H 496.135 -0.389115 0.546654 0
M  V30 5352 H 498.679 -0.605531 1.95329 0
M  V30 5353 H 496.834 -3.05046 2.38801 0
M  V30 5354 H 497.248 -2.59981 4.55533 0
M  V30 5355 H 498.722 -4.0868 3.71058 0
M  V30 5356 H 499.199 -3.89733 2.02496 0
M  V30 5357 H 499.805 -2.75158 3.24296 0
M  V30 5358 N 498.12 -1.38341 -0.754957 0
M  V30 5359 C 499.366 -1.34672 -1.51628 0
M  V30 5360 C 499.699 0.0636036 -1.94096 0
M  V30 5361 O 498.974 1.0245 -1.6533 0
M  V30 5362 C 499.257 -2.30116 -2.76981 0
M  V30 5363 C 499.11 -3.80003 -2.4066 0
M  V30 5364 C 500.429 -2.23715 -3.78998 0
M  V30 5365 H 497.548 -0.490517 -0.550056 0
M  V30 5366 H 500.19 -1.69178 -0.864807 0
M  V30 5367 H 498.34 -2.00821 -3.3257 0
M  V30 5368 H 500.012 -4.19966 -1.90856 0
M  V30 5369 H 498.255 -3.97751 -1.73137 0
M  V30 5370 H 498.926 -4.42244 -3.30339 0
M  V30 5371 H 501.402 -2.49574 -3.32945 0
M  V30 5372 H 500.278 -2.9261 -4.64403 0
M  V30 5373 H 500.539 -1.23554 -4.24484 0
M  V30 5374 N 499.598 0.982988 -1.23187 0
M  V30 5375 C 500.546 2.09616 -1.00817 0
M  V30 5376 C 501.54 1.6932 0.0519995 0
M  V30 5377 O 502.746 1.79715 -0.101284 0
M  V30 5378 H 499.121 0.685628 -0.308899 0
M  V30 5379 H 501.092 2.25652 -1.95253 0
M  V30 5380 C 499.841 3.42249 -0.613243 0
M  V30 5381 H 499.164 3.73705 -1.42073 0
M  V30 5382 H 500.604 4.21086 -0.496208 0
M  V30 5383 C 499.063 3.30002 0.678233 0
M  V30 5384 O 499.593 3.6263 1.72807 0
M  V30 5385 N 497.799 2.83164 0.653165 0
M  V30 5386 H 497.346 2.56811 -0.201492 0
M  V30 5387 H 497.304 2.75352 1.51752 0
M  V30 5388 N 501.076 1.04316 1.18135 0
M  V30 5389 C 502.353 0.662166 1.84051 0
M  V30 5390 C 502.733 -0.858169 1.9287 0
M  V30 5391 O 502.081 -1.76062 1.45652 0
M  V30 5392 C 502.291 1.3409 3.22212 0
M  V30 5393 C 503.639 1.4733 3.9822 0
M  V30 5394 O 504.663 1.29921 3.31661 0
M  V30 5395 O 503.522 1.75722 5.17479 0
M  V30 5396 H 500.616 0.232005 0.79379 0
M  V30 5397 H 503.162 1.1422 1.25506 0
M  V30 5398 H 501.934 2.37853 3.10711 0
M  V30 5399 H 501.557 0.849649 3.88416 0
M  V30 5400 N 502.554 -1.34406 0.822964 0
M  V30 5401 C 503.801 -1.98284 0.411057 0
M  V30 5402 C 504.129 -1.65245 -1.02588 0
M  V30 5403 O 503.384 -0.91619 -1.72929 0
M  V30 5404 C 503.683 -3.52981 0.560268 0
M  V30 5405 C 503.349 -4.05931 1.96293 0
M  V30 5406 C 502.011 -4.20103 2.34664 0
M  V30 5407 C 504.363 -4.34412 2.87985 0
M  V30 5408 C 501.691 -4.60082 3.64062 0
M  V30 5409 C 504.043 -4.75838 4.16847 0
M  V30 5410 C 502.707 -4.88215 4.55195 0
M  V30 5411 H 501.977 -0.725573 0.150416 0
M  V30 5412 H 504.624 -1.60349 1.04692 0
M  V30 5413 H 502.929 -3.91477 -0.158982 0
M  V30 5414 H 504.626 -4.00385 0.222087 0
M  V30 5415 H 501.216 -3.95363 1.65487 0
M  V30 5416 H 505.4 -4.23001 2.59584 0
M  V30 5417 H 500.656 -4.67856 3.93599 0
M  V30 5418 H 504.83 -4.96834 4.87984 0
M  V30 5419 H 502.457 -5.18952 5.55512 0
M  V30 5420 N 504.032 -0.577932 -1.46621 0
M  V30 5421 C 505.278 -0.0700937 -2.03279 0
M  V30 5422 C 505.633 1.27376 -1.44198 0
M  V30 5423 O 504.926 1.82097 -0.595911 0
M  V30 5424 C 505.12 0.0590832 -3.57351 0
M  V30 5425 C 504.949 -1.2707 -4.31374 0
M  V30 5426 C 503.719 -1.84357 -4.70469 0
M  V30 5427 C 505.917 -2.19278 -4.65211 0
M  V30 5428 N 503.899 -3.11124 -5.29221 0
M  V30 5429 C 505.27 -3.30631 -5.24484 0
M  V30 5430 C 507.325 -2.19018 -4.47142 0
M  V30 5431 C 506.028 -4.41849 -5.67593 0
M  V30 5432 C 508.054 -3.29262 -4.91264 0
M  V30 5433 C 507.416 -4.39335 -5.50604 0
M  V30 5434 H 503.515 -0.0683127 -0.779011 0
M  V30 5435 H 506.099 -0.76978 -1.78836 0
M  V30 5436 H 504.27 0.727929 -3.81518 0
M  V30 5437 H 506.002 0.57087 -4.00653 0
M  V30 5438 H 502.757 -1.37906 -4.53077 0
M  V30 5439 H 503.181 -3.75794 -5.63123 0
M  V30 5440 H 507.823 -1.35191 -4.00604 0
M  V30 5441 H 505.541 -5.26421 -6.13112 0
M  V30 5442 H 509.127 -3.30172 -4.79038 0
M  V30 5443 H 508.007 -5.23233 -5.84121 0
M  V30 5444 N 505.51 1.54411 -0.315457 0
M  V30 5445 C 506.926 1.59556 0.037464 0
M  V30 5446 C 507.126 1.33217 1.5118 0
M  V30 5447 O 506.182 1.11264 2.26664 0
M  V30 5448 C 507.495 2.98372 -0.373477 0
M  V30 5449 C 509.043 3.11324 -0.323452 0
M  V30 5450 C 509.518 4.52472 -0.709433 0
M  V30 5451 N 511.009 4.58437 -0.662524 0
M  V30 5452 C 511.744 5.65751 -0.933474 0
M  V30 5453 N 511.24 6.81039 -1.27114 0
M  V30 5454 N 513.033 5.55489 -0.859573 0
M  V30 5455 H 505.184 1.6979 -1.27614 0
M  V30 5456 H 507.447 0.793732 -0.518356 0
M  V30 5457 H 507.153 3.22618 -1.40037 0
M  V30 5458 H 507.027 3.76264 0.265615 0
M  V30 5459 H 509.414 2.86818 0.694223 0
M  V30 5460 H 509.495 2.35555 -0.997367 0
M  V30 5461 H 509.139 4.7771 -1.72498 0
M  V30 5462 H 509.069 5.26598 -0.0132923 0
M  V30 5463 H 511.56 3.75636 -0.413065 0
M  V30 5464 H 511.873 7.58816 -1.46348 0
M  V30 5465 H 510.218 6.82555 -1.30932 0
M  V30 5466 H 513.409 4.64299 -0.595324 0
M  V30 5467 H 513.582 6.39036 -1.0741 0
M  V30 5468 N 506.988 0.0434614 1.5754 0
M  V30 5469 C 507.921 -0.968729 2.06618 0
M  V30 5470 C 508.899 -1.30868 0.965 0
M  V30 5471 O 510.083 -1.42288 1.23638 0
M  V30 5472 C 507.21 -2.28486 2.50023 0
M  V30 5473 C 506.256 -2.09851 3.71302 0
M  V30 5474 S 507.089 -1.38401 5.17306 0
M  V30 5475 C 508.245 -2.71354 5.64019 0
M  V30 5476 H 508.478 -0.551021 2.92149 0
M  V30 5477 H 506.011 -0.168607 1.53477 0
M  V30 5478 H 507.969 -3.04142 2.75695 0
M  V30 5479 H 506.63 -2.67387 1.64812 0
M  V30 5480 H 505.823 -3.07184 3.99567 0
M  V30 5481 H 505.425 -1.42336 3.45856 0
M  V30 5482 H 507.717 -3.67549 5.69134 0
M  V30 5483 H 508.66 -2.47734 6.6335 0
M  V30 5484 H 509.068 -2.77259 4.91719 0
M  V30 5485 N 508.466 -1.55915 -0.229846 0
M  V30 5486 C 509.712 -1.78807 -0.956868 0
M  V30 5487 C 510.045 -0.611687 -1.84315 0
M  V30 5488 O 509.32 0.389398 -1.90562 0
M  V30 5489 C 509.603 -3.11718 -1.80288 0
M  V30 5490 C 509.456 -4.3979 -0.943649 0
M  V30 5491 C 510.775 -3.40999 -2.78222 0
M  V30 5492 H 507.894 -0.6505 -0.346437 0
M  V30 5493 H 510.536 -1.88648 -0.226252 0
M  V30 5494 H 508.686 -3.03459 -2.42579 0
M  V30 5495 H 510.358 -4.60059 -0.338121 0
M  V30 5496 H 508.601 -4.33086 -0.248705 0
M  V30 5497 H 509.272 -5.29208 -1.5698 0
M  V30 5498 H 511.748 -3.49332 -2.26067 0
M  V30 5499 H 510.624 -4.35183 -3.34526 0
M  V30 5500 H 510.885 -2.62754 -3.55546 0
M  V30 5501 N 509.944 0.496216 -1.49584 0
M  V30 5502 C 511.191 1.25003 -1.59312 0
M  V30 5503 C 511.519 1.92445 -0.28198 0
M  V30 5504 O 510.774 1.81557 0.730452 0
M  V30 5505 C 511.073 2.3359 -2.705 0
M  V30 5506 C 510.739 1.83574 -4.11839 0
M  V30 5507 C 509.401 1.69653 -4.50302 0
M  V30 5508 C 511.753 1.46193 -5.00277 0
M  V30 5509 C 509.081 1.16736 -5.74969 0
M  V30 5510 C 511.433 0.947265 -6.25468 0
M  V30 5511 C 510.097 0.794485 -6.62755 0
M  V30 5512 H 509.367 0.45742 -0.582965 0
M  V30 5513 H 512.014 0.549996 -1.83432 0
M  V30 5514 H 510.319 3.09401 -2.40371 0
M  V30 5515 H 512.016 2.91627 -2.75235 0
M  V30 5516 H 508.606 1.9537 -3.81482 0
M  V30 5517 H 512.79 1.55793 -4.71214 0
M  V30 5518 H 508.046 1.03623 -6.02555 0
M  V30 5519 H 512.22 0.648846 -6.93371 0
M  V30 5520 H 509.847 0.382271 -7.59238 0
M  V30 5521 N 511.423 1.38739 0.74761 0
M  V30 5522 C 512.355 1.32341 1.87132 0
M  V30 5523 C 513.368 0.234502 1.61102 0
M  V30 5524 O 514.557 0.492516 1.71571 0
M  V30 5525 C 511.657 1.02915 3.22896 0
M  V30 5526 C 510.83 2.22834 3.76383 0
M  V30 5527 C 509.889 1.90059 4.90677 0
M  V30 5528 O 508.915 2.62615 5.04997 0
M  V30 5529 N 510.117 0.859141 5.74107 0
M  V30 5530 H 512.882 2.29175 1.93129 0
M  V30 5531 H 510.443 1.32678 0.927805 0
M  V30 5532 H 512.435 0.79031 3.96908 0
M  V30 5533 H 511.005 0.148572 3.12247 0
M  V30 5534 H 510.225 2.62747 2.93867 0
M  V30 5535 H 511.513 3.02851 4.08851 0
M  V30 5536 H 510.911 0.257564 5.65113 0
M  V30 5537 H 509.468 0.680189 6.48241 0
M  V30 5538 N 512.901 -0.976442 1.23707 0
M  V30 5539 C 513.811 -2.10359 1.03856 0
M  V30 5540 C 514.827 -1.73991 -0.0180919 0
M  V30 5541 O 516.003 -2.0061 0.178211 0
M  V30 5542 C 513.068 -3.40809 0.636387 0
M  V30 5543 C 512.129 -3.91179 1.76854 0
M  V30 5544 C 511.362 -5.15404 1.38546 0
M  V30 5545 O 511.585 -5.69754 0.27142 0
M  V30 5546 O 510.519 -5.5994 2.20797 0
M  V30 5547 H 514.345 -2.29997 1.98331 0
M  V30 5548 H 511.93 -1.08742 1.02448 0
M  V30 5549 H 513.812 -4.19269 0.423223 0
M  V30 5550 H 512.487 -3.22493 -0.279322 0
M  V30 5551 H 511.394 -3.13819 2.03638 0
M  V30 5552 H 512.727 -4.13958 2.6627 0
M  V30 5553 N 514.379 -1.04941 -1.1758 0
M  V30 5554 C 515.327 -0.64204 -2.23563 0
M  V30 5555 C 516.321 0.335453 -1.66045 0
M  V30 5556 O 517.527 0.20179 -1.78865 0
M  V30 5557 H 513.902 -0.18944 -0.727748 0
M  V30 5558 H 515.873 -1.54609 -2.55223 0
M  V30 5559 C 514.622 -0.0301051 -3.47687 0
M  V30 5560 H 513.945 -0.773339 -3.92249 0
M  V30 5561 H 515.385 0.217592 -4.23441 0
M  V30 5562 C 513.844 1.2225 -3.13937 0
M  V30 5563 O 514.374 2.3122 -3.28482 0
M  V30 5564 N 512.58 1.11917 -2.68185 0
M  V30 5565 H 512.127 0.232403 -2.5655 0
M  V30 5566 H 512.085 1.95814 -2.45976 0
M  V30 5567 N 515.857 1.33968 -0.830081 0
M  V30 5568 C 517.082 2.02813 -0.433796 0
M  V30 5569 C 517.507 1.62076 0.954614 0
M  V30 5570 O 516.865 0.808955 1.62252 0
M  V30 5571 C 516.913 3.56348 -0.552115 0
M  V30 5572 O 516.017 4.10202 0.425191 0
M  V30 5573 H 515.358 0.639817 -0.177567 0
M  V30 5574 H 517.888 1.7106 -1.12248 0
M  V30 5575 H 517.898 4.05722 -0.430513 0
M  V30 5576 H 516.573 3.85344 -1.56471 0
M  V30 5577 H 515.15 3.71979 0.261878 0
M  V30 5578 N 517.335 0.585699 1.46312 0
M  V30 5579 C 518.751 0.247607 1.57668 0
M  V30 5580 C 518.951 -1.25007 1.58037 0
M  V30 5581 O 518.007 -2.03196 1.49893 0
M  V30 5582 C 519.32 0.899456 2.86933 0
M  V30 5583 C 520.868 0.873326 3.00569 0
M  V30 5584 C 521.343 1.50477 4.32574 0
M  V30 5585 N 522.834 1.46925 4.3928 0
M  V30 5586 C 523.569 1.92719 5.40044 0
M  V30 5587 N 523.065 2.46499 6.47464 0
M  V30 5588 N 524.858 1.83617 5.31264 0
M  V30 5589 H 517.009 1.55841 1.44317 0
M  V30 5590 H 519.272 0.651564 0.688599 0
M  V30 5591 H 518.978 1.95313 2.92482 0
M  V30 5592 H 518.852 0.409476 3.74971 0
M  V30 5593 H 521.239 -0.171736 2.946 0
M  V30 5594 H 521.32 1.40136 2.13999 0
M  V30 5595 H 520.964 2.54905 4.39302 0
M  V30 5596 H 520.894 0.951944 5.17924 0
M  V30 5597 H 523.385 1.07616 3.62253 0
M  V30 5598 H 523.698 2.79291 7.20567 0
M  V30 5599 H 522.043 2.50526 6.48276 0
M  V30 5600 H 525.234 1.41358 4.46246 0
M  V30 5601 H 525.407 2.19622 6.09648 0
M  V30 5602 N 518.813 -1.54241 0.323641 0
M  V30 5603 C 520.059 -2.00867 -0.279323 0
M  V30 5604 C 520.392 -1.21146 -1.5178 0
M  V30 5605 O 519.667 -0.29378 -1.92269 0
M  V30 5606 C 519.95 -3.54837 -0.613387 0
M  V30 5607 C 519.803 -4.45284 0.635803 0
M  V30 5608 C 521.122 -4.16186 -1.43099 0
M  V30 5609 H 518.241 -0.730177 -0.100049 0
M  V30 5610 H 520.883 -1.84829 0.440235 0
M  V30 5611 H 519.033 -3.68634 -1.22641 0
M  V30 5612 H 520.705 -4.43357 1.27406 0
M  V30 5613 H 518.948 -4.14956 1.26466 0
M  V30 5614 H 519.619 -5.5084 0.357597 0
M  V30 5615 H 522.095 -4.05964 -0.912814 0
M  V30 5616 H 520.971 -5.24031 -1.6335 0
M  V30 5617 H 521.232 -3.69516 -2.42715 0
M  V30 5618 N 520.291 -0.0518155 -1.57515 0
M  V30 5619 C 521.54 0.621286 -1.91893 0
M  V30 5620 C 521.853 1.71966 -0.932052 0
M  V30 5621 O 523.059 2.45096 -1.16791 0
M  V30 5622 C 521.515 1.15641 -3.40816 0
M  V30 5623 C 521.123 0.0901146 -4.47909 0
M  V30 5624 C 522.867 1.80472 -3.84227 0
M  V30 5625 C 520.774 0.638154 -5.87947 0
M  V30 5626 H 519.704 0.235835 -0.716169 0
M  V30 5627 H 522.355 -0.120809 -1.83102 0
M  V30 5628 H 520.737 1.95084 -3.44613 0
M  V30 5629 H 521.911 -0.683525 -4.55702 0
M  V30 5630 H 520.226 -0.460774 -4.13843 0
M  V30 5631 H 522.823 2.22471 -4.86221 0
M  V30 5632 H 523.166 2.65669 -3.20508 0
M  V30 5633 H 523.699 1.07683 -3.82948 0
M  V30 5634 H 520.438 -0.176202 -6.55263 0
M  V30 5635 H 519.958 1.37976 -5.83714 0
M  V30 5636 H 521.637 1.12085 -6.37217 0
M  V30 5637 N 521.769 1.56035 0.221574 0
M  V30 5638 C 523.015 1.79312 0.947372 0
M  V30 5639 C 523.348 0.621453 1.83988 0
M  V30 5640 O 522.623 -0.379287 1.90766 0
M  V30 5641 C 522.906 3.1267 1.78633 0
M  V30 5642 C 522.759 4.40284 0.920312 0
M  V30 5643 C 524.078 3.4247 2.7641 0
M  V30 5644 H 521.197 0.652328 0.342982 0
M  V30 5645 H 523.839 1.88765 0.216244 0
M  V30 5646 H 521.989 3.04741 2.40967 0
M  V30 5647 H 523.661 4.60232 0.313718 0
M  V30 5648 H 521.904 4.33212 0.225734 0
M  V30 5649 H 522.575 5.30033 1.54171 0
M  V30 5650 H 525.051 3.50526 2.24211 0
M  V30 5651 H 523.927 4.3695 3.32213 0
M  V30 5652 H 524.188 2.64635 3.54148 0
M  V30 5653 N 523.247 -0.488276 1.49845 0
M  V30 5654 C 524.18 -1.60651 1.62069 0
M  V30 5655 C 525.158 -1.5568 0.469308 0
M  V30 5656 O 526.342 -1.75553 0.686551 0
M  V30 5657 C 523.469 -2.99197 1.58741 0
M  V30 5658 C 522.515 -3.22385 2.79232 0
M  V30 5659 S 523.348 -3.04133 4.40753 0
M  V30 5660 C 524.504 -4.45052 4.4009 0
M  V30 5661 H 524.737 -1.50039 2.56662 0
M  V30 5662 H 522.27 -0.674371 1.38894 0
M  V30 5663 H 524.228 -3.79081 1.57506 0
M  V30 5664 H 522.889 -3.07213 0.654136 0
M  V30 5665 H 522.082 -4.23557 2.73159 0
M  V30 5666 H 521.684 -2.50245 2.77945 0
M  V30 5667 H 523.976 -5.37375 4.12594 0
M  V30 5668 H 524.919 -4.56172 5.41583 0
M  V30 5669 H 525.327 -4.26327 3.70008 0
M  V30 5670 N 524.725 -1.39134 -0.740242 0
M  V30 5671 C 525.953 -1.39334 -1.5295 0
M  V30 5672 C 526.368 0.0135008 -1.88795 0
M  V30 5673 O 525.725 0.983524 -1.5373 0
M  V30 5674 C 525.776 -2.2614 -2.82034 0
M  V30 5675 O 525.497 -3.61345 -2.47712 0
M  V30 5676 C 526.998 -2.34666 -3.76094 0
M  V30 5677 H 524.218 -0.476103 -0.472828 0
M  V30 5678 H 526.762 -1.82883 -0.9151 0
M  V30 5679 H 524.917 -1.86018 -3.39818 0
M  V30 5680 H 525.331 -4.07194 -3.30595 0
M  V30 5681 H 526.805 -2.99663 -4.63579 0
M  V30 5682 H 527.282 -1.36426 -4.17474 0
M  V30 5683 H 527.888 -2.75236 -3.2423 0
M  V30 5684 N 526.204 0.969867 -1.24223 0
M  V30 5685 C 527.432 1.74756 -1.10761 0
M  V30 5686 C 527.847 1.85713 0.340041 0
M  V30 5687 O 527.204 1.34389 1.23474 0
M  V30 5688 C 527.255 3.16915 -1.73917 0
M  V30 5689 O 526.976 3.06511 -3.13021 0
M  V30 5690 C 528.477 4.11032 -1.66036 0
M  V30 5691 H 525.697 0.548092 -0.387087 0
M  V30 5692 H 528.241 1.2178 -1.64286 0
M  V30 5693 H 526.396 3.66884 -1.244 0
M  V30 5694 H 526.81 3.96079 -3.43834 0
M  V30 5695 H 528.284 5.08446 -2.14911 0
M  V30 5696 H 528.761 4.34785 -0.621159 0
M  V30 5697 H 529.367 3.66972 -2.14969 0
M  V30 5698 N 527.682 1.05563 1.17022 0
M  V30 5699 C 528.629 0.659893 2.21165 0
M  V30 5700 C 529.599 -0.339813 1.62587 0
M  V30 5701 O 530.784 -0.230378 1.89404 0
M  V30 5702 C 527.924 0.0447297 3.45071 0
M  V30 5703 C 527.037 1.09372 4.17926 0
M  V30 5704 C 526.172 0.445481 5.29329 0
M  V30 5705 C 525.211 1.47852 5.93975 0
M  V30 5706 N 524.348 0.854172 6.96885 0
M  V30 5707 H 529.188 1.55243 2.54369 0
M  V30 5708 H 526.725 0.776336 1.24946 0
M  V30 5709 H 528.683 -0.329404 4.15898 0
M  V30 5710 H 527.313 -0.811244 3.1244 0
M  V30 5711 H 526.365 1.58564 3.45777 0
M  V30 5712 H 527.677 1.87773 4.62107 0
M  V30 5713 H 526.831 0.0179688 6.06697 0
M  V30 5714 H 525.57 -0.370481 4.86291 0
M  V30 5715 H 524.575 1.91601 5.15334 0
M  V30 5716 H 525.8 2.29645 6.39093 0
M  V30 5717 H 523.746 0.0587882 6.55974 0
M  V30 5718 H 523.663 1.57567 7.39397 0
M  V30 5719 H 524.931 0.451559 7.78191 0
M  V30 5720 N 529.16 -1.33526 0.837174 0
M  V30 5721 C 530.07 -2.33023 0.271568 0
M  V30 5722 C 531.086 -1.63272 -0.601514 0
M  V30 5723 O 532.262 -1.94939 -0.506038 0
M  V30 5724 C 529.327 -3.42382 -0.545448 0
M  V30 5725 C 528.388 -4.27857 0.351709 0
M  V30 5726 C 527.621 -5.31994 -0.426409 0
M  V30 5727 O 527.844 -5.45763 -1.65828 0
M  V30 5728 O 526.778 -6.01572 0.1987 0
M  V30 5729 H 530.604 -2.83256 1.09545 0
M  V30 5730 H 528.189 -1.36837 0.599655 0
M  V30 5731 H 530.071 -4.09122 -1.00979 0
M  V30 5732 H 528.746 -2.94369 -1.34641 0
M  V30 5733 H 527.653 -3.6399 0.863853 0
M  V30 5734 H 528.986 -4.79349 1.1174 0
M  V30 5735 N 530.638 -0.59345 -1.46 0
M  V30 5736 C 531.884 -0.0832754 -2.02629 0
M  V30 5737 C 532.217 1.27749 -1.46266 0
M  V30 5738 O 531.492 1.8395 -0.631866 0
M  V30 5739 C 531.775 -0.0290756 -3.60088 0
M  V30 5740 C 531.628 -1.41951 -4.26814 0
M  V30 5741 C 532.947 0.666055 -4.35031 0
M  V30 5742 H 530.066 -0.031736 -0.736316 0
M  V30 5743 H 532.708 -0.762711 -1.74019 0
M  V30 5744 H 530.858 0.549532 -3.84594 0
M  V30 5745 H 532.53 -2.04411 -4.13538 0
M  V30 5746 H 530.773 -1.98422 -3.8576 0
M  V30 5747 H 531.444 -1.33395 -5.3564 0
M  V30 5748 H 533.92 0.174401 -4.15734 0
M  V30 5749 H 532.796 0.673041 -5.44758 0
M  V30 5750 H 533.057 1.72946 -4.06869 0
M  V30 5751 N 532.116 1.54067 -0.331816 0
M  V30 5752 C 533.026 2.28322 0.539104 0
M  V30 5753 C 534.042 1.32985 1.1221 0
M  V30 5754 O 535.218 1.6601 1.1403 0
M  V30 5755 C 532.283 3.03277 1.68 0
M  V30 5756 C 531.344 4.14216 1.12798 0
M  V30 5757 C 530.577 4.85588 2.2145 0
M  V30 5758 O 530.8 4.56536 3.41952 0
M  V30 5759 O 529.734 5.72309 1.86404 0
M  V30 5760 H 533.56 3.03632 -0.0641692 0
M  V30 5761 H 531.145 1.49083 -0.0972365 0
M  V30 5762 H 533.027 3.50189 2.34405 0
M  V30 5763 H 531.702 2.30834 2.2693 0
M  V30 5764 H 530.609 3.71635 0.428782 0
M  V30 5765 H 531.942 4.88727 0.583698 0
M  V30 5766 N 533.594 0.0601682 1.57485 0
M  V30 5767 C 535.01 -0.296422 1.56823 0
M  V30 5768 C 535.21 -1.70831 1.0686 0
M  V30 5769 O 534.266 -2.4174 0.729245 0
M  V30 5770 C 535.579 -0.116681 3.00474 0
M  V30 5771 C 537.127 -0.187103 3.1244 0
M  V30 5772 C 537.602 -0.035783 4.57986 0
M  V30 5773 N 539.093 -0.0917676 4.63109 0
M  V30 5774 C 539.828 0.00107251 5.734 0
M  V30 5775 N 539.324 0.146773 6.92645 0
M  V30 5776 N 541.117 -0.0551577 5.62073 0
M  V30 5777 H 533.268 0.983055 1.88281 0
M  V30 5778 H 535.531 0.382386 0.867459 0
M  V30 5779 H 535.237 0.85712 3.41096 0
M  V30 5780 H 535.111 -0.873929 3.66936 0
M  V30 5781 H 537.498 -1.15138 2.71712 0
M  V30 5782 H 537.579 0.601052 2.48638 0
M  V30 5783 H 537.223 0.925212 4.99402 0
M  V30 5784 H 537.153 -0.843196 5.19806 0
M  V30 5785 H 539.644 -0.203261 3.77353 0
M  V30 5786 H 539.957 0.210076 7.72514 0
M  V30 5787 H 538.302 0.181979 6.94762 0
M  V30 5788 H 541.493 -0.167605 4.678 0
M  V30 5789 H 541.666 0.020652 6.47997 0
M  V30 5790 N 535.072 -1.5615 -0.213296 0
M  V30 5791 C 536.32 -1.79191 -0.934612 0
M  V30 5792 C 536.641 -0.630112 -1.84539 0
M  V30 5793 O 535.911 0.35257 -1.92701 0
M  V30 5794 H 534.491 -0.660937 -0.348097 0
M  V30 5795 H 537.153 -1.93618 -0.22317 0
M  V30 5796 H 536.249 -2.71656 -1.53654 0
M  V30 5797 N 536.55 0.480323 -1.50102 0
M  V30 5798 C 537.497 1.57946 -1.6829 0
M  V30 5799 C 538.467 1.57611 -0.524223 0
M  V30 5800 O 539.652 1.75282 -0.753709 0
M  V30 5801 C 536.792 2.95978 -1.77457 0
M  V30 5802 C 535.905 3.06173 -3.04766 0
M  V30 5803 C 535.04 4.35063 -3.04784 0
M  V30 5804 C 534.079 4.38966 -4.26586 0
M  V30 5805 N 533.216 5.59314 -4.24396 0
M  V30 5806 H 538.056 1.41743 -2.62131 0
M  V30 5807 H 535.593 0.689304 -1.2995 0
M  V30 5808 H 537.551 3.76011 -1.80752 0
M  V30 5809 H 536.181 3.10837 -0.870637 0
M  V30 5810 H 535.233 2.19071 -3.10986 0
M  V30 5811 H 536.545 3.04916 -3.9475 0
M  V30 5812 H 535.699 5.23436 -3.06757 0
M  V30 5813 H 534.438 4.38915 -2.12614 0
M  V30 5814 H 533.443 3.48992 -4.24835 0
M  V30 5815 H 534.668 4.36813 -5.19972 0
M  V30 5816 H 532.614 5.63969 -3.35074 0
M  V30 5817 H 532.531 5.5976 -5.08138 0
M  V30 5818 H 533.799 6.49837 -4.30502 0
M  V30 5819 N 538.028 1.39524 0.732853 0
M  V30 5820 C 539.253 1.40329 1.52717 0
M  V30 5821 C 539.678 0.000286574 1.881 0
M  V30 5822 O 539.036 -0.987262 1.52062 0
M  V30 5823 C 539.084 2.28464 2.78992 0
M  V30 5824 O 538.188 1.716 3.75003 0
M  V30 5825 H 537.529 0.47778 0.461109 0
M  V30 5826 H 540.059 1.83546 0.903996 0
M  V30 5827 H 540.069 2.43051 3.27705 0
M  V30 5828 H 538.744 3.30425 2.52572 0
M  V30 5829 H 537.321 1.66267 3.33781 0
M  V30 5830 N 539.506 -0.963266 1.24736 0
M  V30 5831 C 540.453 -2.05857 1.04363 0
M  V30 5832 C 541.423 -1.6604 -0.0444951 0
M  V30 5833 O 542.608 -1.90477 0.110999 0
M  V30 5834 C 539.748 -3.38745 0.659235 0
M  V30 5835 C 538.861 -3.9173 1.82131 0
M  V30 5836 C 537.996 -5.12906 1.38208 0
M  V30 5837 C 537.035 -5.58098 2.51382 0
M  V30 5838 N 536.172 -6.7049 2.08295 0
M  V30 5839 H 541.012 -2.22616 1.98107 0
M  V30 5840 H 538.549 -1.09103 0.986661 0
M  V30 5841 H 540.507 -4.15107 0.417371 0
M  V30 5842 H 539.137 -3.21898 -0.241201 0
M  V30 5843 H 538.189 -3.11966 2.17672 0
M  V30 5844 H 539.501 -4.21225 2.67153 0
M  V30 5845 H 538.655 -5.96657 1.09935 0
M  V30 5846 H 537.394 -4.85105 0.502456 0
M  V30 5847 H 536.399 -4.72917 2.80409 0
M  V30 5848 H 537.624 -5.87911 3.39909 0
M  V30 5849 H 535.57 -6.44416 1.22737 0
M  V30 5850 H 535.487 -6.99458 2.86869 0
M  V30 5851 H 536.755 -7.57672 1.83175 0
M  V30 5852 N 540.985 -1.06182 -1.16461 0
M  V30 5853 C 542.225 -0.787048 -1.8864 0
M  V30 5854 C 542.589 0.674093 -1.79778 0
M  V30 5855 O 543.79 1.06341 -2.46871 0
M  V30 5856 C 542.061 -1.2666 -3.34203 0
M  V30 5857 S 543.62 -1.12071 -4.24247 0
M  V30 5858 H 540.438 -0.285539 -0.651144 0
M  V30 5859 H 543.04 -1.35851 -1.40587 0
M  V30 5860 H 541.744 -2.32496 -3.38192 0
M  V30 5861 H 541.275 -0.689841 -3.87304 0
M  V30 5862 H 543.29 -0.0509341 -4.96174 0
M  V30 5863 N 542.463 1.3308 -0.844243 0
M  V30 5864 C 543.709 1.97898 -0.443206 0
M  V30 5865 C 544.042 1.66699 0.99625 0
M  V30 5866 O 543.317 0.949704 1.69738 0
M  V30 5867 C 543.6 3.53801 -0.670606 0
M  V30 5868 C 543.453 3.94667 -2.15772 0
M  V30 5869 C 544.772 4.39936 -0.120226 0
M  V30 5870 H 541.891 0.718861 -0.162504 0
M  V30 5871 H 544.533 1.57633 -1.06075 0
M  V30 5872 H 542.683 3.88229 -0.14496 0
M  V30 5873 H 544.355 3.70469 -2.74865 0
M  V30 5874 H 542.598 3.44203 -2.6402 0
M  V30 5875 H 543.269 5.03275 -2.26757 0
M  V30 5876 H 545.745 4.12183 -0.5696 0
M  V30 5877 H 544.621 5.4803 -0.308984 0
M  V30 5878 H 544.882 4.31184 0.976347 0
M  V30 5879 N 543.941 0.601185 1.45683 0
M  V30 5880 C 544.888 -0.121396 2.30481 0
M  V30 5881 C 545.858 -0.866232 1.41724 0
M  V30 5882 O 547.043 -0.85324 1.70659 0
M  V30 5883 C 544.183 -1.11704 3.26521 0
M  V30 5884 C 543.296 -0.373741 4.3038 0
M  V30 5885 C 542.431 -1.35854 5.13534 0
M  V30 5886 C 541.47 -0.602689 6.09126 0
M  V30 5887 N 540.607 -1.53645 6.85082 0
M  V30 5888 H 545.447 0.607732 2.91737 0
M  V30 5889 H 542.984 0.311502 1.43764 0
M  V30 5890 H 544.942 -1.70735 3.80664 0
M  V30 5891 H 543.572 -1.81366 2.67032 0
M  V30 5892 H 542.624 0.331962 3.78949 0
M  V30 5893 H 543.936 0.2163 4.98331 0
M  V30 5894 H 543.09 -2.02111 5.72046 0
M  V30 5895 H 541.829 -1.98251 4.45587 0
M  V30 5896 H 540.834 0.0735482 5.49751 0
M  V30 5897 H 542.059 0.0161467 6.79098 0
M  V30 5898 H 540.005 -2.14819 6.1983 0
M  V30 5899 H 539.922 -0.999688 7.49361 0
M  V30 5900 H 541.19 -2.1888 7.48139 0
M  V30 5901 N 545.419 -1.53889 0.339982 0
M  V30 5902 C 546.649 -2.04973 -0.258738 0
M  V30 5903 C 547.057 -1.21485 -1.45045 0
M  V30 5904 O 546.4 -0.2422 -1.82096 0
M  V30 5905 C 546.462 -3.51783 -0.740853 0
M  V30 5906 C 546.126 -4.55802 0.330734 0
M  V30 5907 C 547.123 -5.06512 1.17226 0
M  V30 5908 C 544.808 -4.99966 0.483637 0
M  V30 5909 C 546.802 -5.99963 2.15227 0
M  V30 5910 C 544.489 -5.93229 1.46704 0
M  V30 5911 C 545.487 -6.43115 2.29981 0
M  V30 5912 O 545.175 -7.34545 3.26649 0
M  V30 5913 H 544.907 -0.673807 -0.0544037 0
M  V30 5914 H 547.461 -1.99492 0.489107 0
M  V30 5915 H 545.691 -3.54717 -1.53988 0
M  V30 5916 H 547.38 -3.85857 -1.25973 0
M  V30 5917 H 548.146 -4.73158 1.0652 0
M  V30 5918 H 544.025 -4.6074 -0.15471 0
M  V30 5919 H 547.569 -6.38825 2.80265 0
M  V30 5920 H 543.466 -6.25998 1.57468 0
M  V30 5921 H 544.234 -7.52468 3.22078 0
M  V30 5922 N 546.897 -0.0685191 -1.57451 0
M  V30 5923 C 548.143 0.596247 -1.94465 0
M  V30 5924 C 548.498 1.67417 -0.948117 0
M  V30 5925 O 547.791 1.91576 0.0301056 0
M  V30 5926 C 547.985 1.22051 -3.35914 0
M  V30 5927 C 547.814 0.204586 -4.49234 0
M  V30 5928 C 546.584 -0.20959 -5.04865 0
M  V30 5929 C 548.782 -0.556872 -5.11276 0
M  V30 5930 N 546.764 -1.21656 -6.01725 0
M  V30 5931 C 548.135 -1.41642 -6.03604 0
M  V30 5932 C 550.19 -0.613297 -4.94108 0
M  V30 5933 C 548.893 -2.32737 -6.80607 0
M  V30 5934 C 550.919 -1.51174 -5.71752 0
M  V30 5935 C 550.281 -2.35898 -6.63726 0
M  V30 5936 H 546.38 0.189307 -0.75874 0
M  V30 5937 H 548.964 -0.144899 -1.9416 0
M  V30 5938 H 547.135 1.9316 -3.36963 0
M  V30 5939 H 548.867 1.84548 -3.60172 0
M  V30 5940 H 545.622 0.172871 -4.73284 0
M  V30 5941 H 546.046 -1.71746 -6.54853 0
M  V30 5942 H 550.688 0.0275228 -4.22791 0
M  V30 5943 H 548.406 -2.97856 -7.51204 0
M  V30 5944 H 551.992 -1.5602 -5.6049 0
M  V30 5945 H 550.872 -3.04291 -7.22756 0
M  V30 5946 N 548.375 1.56261 0.205012 0
M  V30 5947 C 549.786 1.70056 0.770574 0
M  V30 5948 C 550.137 0.673398 1.84282 0
M  V30 5949 O 549.262 -0.172196 2.15714 0
M  V30 5950 C 549.857 3.08316 1.40451 0
M  V30 5951 C 548.416 3.2391 1.91727 0
M  V30 5952 C 547.563 2.66001 0.783516 0
M  V30 5953 H 550.514 1.58688 -0.019911 0
M  V30 5954 H 550.535 3.05094 2.27371 0
M  V30 5955 H 550.047 3.83053 0.623882 0
M  V30 5956 H 548.148 2.54072 2.7254 0
M  V30 5957 H 548.261 4.3131 2.08588 0
M  V30 5958 H 546.625 2.24915 1.19521 0
M  V30 5959 H 547.408 3.43297 0.0152883 0
M  V30 5960 N 549.853 -0.472356 1.50355 0
M  V30 5961 C 551.13 -1.23356 1.51798 0
M  V30 5962 C 551.51 -2.09469 0.26193 0
M  V30 5963 O 550.858 -2.15677 -0.754691 0
M  V30 5964 C 551.068 -2.06568 2.81302 0
M  V30 5965 C 552.416 -2.648 3.31913 0
M  V30 5966 O 553.44 -2.16812 2.82614 0
M  V30 5967 O 552.299 -3.52231 4.17846 0
M  V30 5968 H 549.393 -0.559707 0.608816 0
M  V30 5969 H 551.939 -0.48428 1.62643 0
M  V30 5970 H 550.711 -1.43103 3.64194 0
M  V30 5971 H 550.334 -2.88633 2.73454 0
M  V30 5972 N 551.331 -1.39911 -0.725443 0
M  V30 5973 C 552.241 -1.41688 -1.8698 0
M  V30 5974 C 553.257 -0.310579 -1.71206 0
M  V30 5975 O 554.433 -0.55359 -1.93642 0
M  V30 5976 C 551.498 -1.26811 -3.22676 0
M  V30 5977 C 550.559 -2.47497 -3.50776 0
M  V30 5978 C 549.792 -2.3332 -4.79997 0
M  V30 5979 O 550.015 -1.34175 -5.54394 0
M  V30 5980 O 548.949 -3.22498 -5.08211 0
M  V30 5981 H 552.775 -2.38171 -1.88436 0
M  V30 5982 H 550.36 -1.21128 -0.874548 0
M  V30 5983 H 552.242 -1.20684 -4.03749 0
M  V30 5984 H 550.917 -0.334289 -3.21969 0
M  V30 5985 H 549.824 -2.59201 -2.69751 0
M  V30 5986 H 551.157 -3.39606 -3.5627 0
M  V30 5987 N 552.809 0.956637 -1.25245 0
M  V30 5988 C 554.039 1.7332 -1.12445 0
M  V30 5989 C 554.447 1.86392 0.324732 0
M  V30 5990 O 553.79 1.35967 1.23526 0
M  V30 5991 C 553.852 3.16603 -1.70303 0
M  V30 5992 C 553.516 3.26966 -3.19284 0
M  V30 5993 C 554.513 3.11434 -4.16299 0
M  V30 5994 C 552.198 3.50851 -3.59456 0
M  V30 5995 C 554.192 3.1963 -5.51467 0
M  V30 5996 C 551.879 3.58684 -4.94761 0
M  V30 5997 C 552.877 3.43087 -5.90576 0
M  V30 5998 O 552.565 3.50598 -7.2342 0
M  V30 5999 H 552.297 0.549981 -0.393061 0
M  V30 6000 H 554.851 1.20892 -1.66055 0
M  V30 6001 H 553.081 3.70385 -1.11138 0
M  V30 6002 H 554.77 3.76109 -1.52632 0
M  V30 6003 H 555.536 2.92853 -3.86604 0
M  V30 6004 H 551.415 3.62053 -2.85375 0
M  V30 6005 H 554.959 3.07373 -6.26233 0
M  V30 6006 H 550.856 3.76782 -5.24124 0
M  V30 6007 H 551.624 3.67242 -7.31489 0
M  V30 6008 N 554.287 1.06798 1.15896 0
M  V30 6009 C 555.25 0.687328 2.18651 0
M  V30 6010 C 556.25 -0.269559 1.58524 0
M  V30 6011 O 557.44 -0.0512627 1.74125 0
M  V30 6012 C 554.572 0.0121642 3.40898 0
M  V30 6013 H 555.765 1.59701 2.53842 0
M  V30 6014 H 553.318 0.863828 1.3026 0
M  V30 6015 H 554.053 -0.910025 3.1127 0
M  V30 6016 H 553.838 0.700309 3.85795 0
M  V30 6017 H 555.328 -0.239703 4.16911 0
M  V30 6018 N 555.766 -1.3263 0.851289 0
M  V30 6019 C 556.696 -2.31449 0.308771 0
M  V30 6020 C 557.677 -1.59531 -0.590255 0
M  V30 6021 O 558.862 -1.87351 -0.511205 0
M  V30 6022 C 555.992 -3.43586 -0.506548 0
M  V30 6023 C 554.946 -4.26963 0.297753 0
M  V30 6024 C 554.272 -5.30831 -0.642094 0
M  V30 6025 C 555.572 -4.99643 1.52166 0
M  V30 6026 H 557.266 -2.77074 1.13447 0
M  V30 6027 H 554.812 -1.33207 0.546971 0
M  V30 6028 H 556.765 -4.11754 -0.896474 0
M  V30 6029 H 555.489 -2.96681 -1.36558 0
M  V30 6030 H 554.148 -3.60437 0.669391 0
M  V30 6031 H 553.796 -4.8018 -1.49788 0
M  V30 6032 H 553.496 -5.87501 -0.107968 0
M  V30 6033 H 555.02 -6.01862 -1.02927 0
M  V30 6034 H 556.434 -5.6051 1.20421 0
M  V30 6035 H 554.831 -5.66022 1.99347 0
M  V30 6036 H 555.901 -4.27701 2.28474 0
M  V30 6037 N 557.244 -0.608902 -1.45362 0
M  V30 6038 C 558.191 0.109172 -2.30542 0
M  V30 6039 C 559.161 0.858704 -1.42181 0
M  V30 6040 O 560.346 0.844178 -1.71109 0
M  V30 6041 C 557.486 1.09971 -3.27109 0
M  V30 6042 C 556.599 0.350911 -4.30572 0
M  V30 6043 C 555.734 1.33129 -5.14247 0
M  V30 6044 C 554.773 0.570377 -6.09437 0
M  V30 6045 N 553.91 1.5001 -6.85887 0
M  V30 6046 H 558.75 -0.623195 -2.91411 0
M  V30 6047 H 556.287 -0.319122 -1.43597 0
M  V30 6048 H 558.245 1.68714 -3.81564 0
M  V30 6049 H 556.875 1.79947 -2.67991 0
M  V30 6050 H 555.927 -0.352054 -3.78767 0
M  V30 6051 H 557.239 -0.242725 -4.98209 0
M  V30 6052 H 556.393 1.99074 -5.73109 0
M  V30 6053 H 555.132 1.95885 -4.46632 0
M  V30 6054 H 554.137 -0.102702 -5.49704 0
M  V30 6055 H 555.362 -0.0521607 -6.7908 0
M  V30 6056 H 553.308 2.11529 -6.2096 0
M  V30 6057 H 553.225 0.959934 -7.49881 0
M  V30 6058 H 554.493 2.14909 -7.49289 0
M  V30 6059 N 558.722 1.53707 -0.348139 0
M  V30 6060 C 559.632 2.28881 0.514857 0
M  V30 6061 C 560.648 1.34168 1.10793 0
M  V30 6062 O 561.824 1.6721 1.12262 0
M  V30 6063 C 558.889 3.05042 1.64774 0
M  V30 6064 C 557.95 4.15389 1.08398 0
M  V30 6065 C 557.183 4.87909 2.16287 0
M  V30 6066 O 557.406 4.60137 3.3709 0
M  V30 6067 O 556.34 5.74254 1.80323 0
M  V30 6068 H 560.166 3.03547 -0.0963699 0
M  V30 6069 H 557.751 1.48972 -0.113043 0
M  V30 6070 H 559.633 3.52656 2.30677 0
M  V30 6071 H 558.308 2.33228 2.24469 0
M  V30 6072 H 557.215 3.72068 0.389341 0
M  V30 6073 H 558.548 4.89318 0.531829 0
M  V30 6074 N 560.2 0.0768682 1.57412 0
M  V30 6075 C 561.43 -0.5991 1.97723 0
M  V30 6076 C 561.838 -1.63378 0.954166 0
M  V30 6077 O 561.181 -1.83578 -0.0668706 0
M  V30 6078 C 561.243 -1.32078 3.34358 0
M  V30 6079 C 560.907 -0.438985 4.54887 0
M  V30 6080 C 561.904 0.305492 5.19002 0
M  V30 6081 C 559.589 -0.362378 5.00991 0
M  V30 6082 C 561.583 1.11475 6.27576 0
M  V30 6083 C 559.27 0.450543 6.09437 0
M  V30 6084 C 560.268 1.18777 6.72593 0
M  V30 6085 O 559.956 1.98727 7.7895 0
M  V30 6086 H 559.688 -0.166725 0.655117 0
M  V30 6087 H 562.242 0.147337 2.04871 0
M  V30 6088 H 560.472 -2.1134 3.2384 0
M  V30 6089 H 562.161 -1.88949 3.5924 0
M  V30 6090 H 562.927 0.25593 4.84324 0
M  V30 6091 H 558.806 -0.925832 4.51608 0
M  V30 6092 H 562.35 1.69068 6.76803 0
M  V30 6093 H 558.247 0.501651 6.43548 0
M  V30 6094 H 559.015 1.91214 7.95851 0
M  V30 6095 N 561.678 -1.56367 -0.196722 0
M  V30 6096 C 562.926 -1.80172 -0.915554 0
M  V30 6097 C 563.247 -0.649649 -1.8386 0
M  V30 6098 O 562.517 0.332111 -1.93064 0
M  V30 6099 H 561.097 -0.664592 -0.341067 0
M  V30 6100 H 563.759 -1.93844 -0.202622 0
M  V30 6101 H 562.855 -2.7327 -1.50764 0
M  V30 6102 N 563.156 0.464375 -1.50603 0
M  V30 6103 C 564.402 1.21776 -1.62168 0
M  V30 6104 C 564.735 1.91476 -0.324154 0
M  V30 6105 O 564.01 1.8242 0.674782 0
M  V30 6106 C 564.293 2.25614 -2.80661 0
M  V30 6107 C 564.146 1.60175 -4.20314 0
M  V30 6108 C 565.465 3.26862 -2.94702 0
M  V30 6109 H 562.584 0.44137 -0.590222 0
M  V30 6110 H 565.226 0.510623 -1.8301 0
M  V30 6111 H 563.376 2.85923 -2.63021 0
M  V30 6112 H 565.048 1.03411 -4.4956 0
M  V30 6113 H 563.291 0.904697 -4.24261 0
M  V30 6114 H 563.962 2.35665 -4.99165 0
M  V30 6115 H 566.438 2.76582 -3.10872 0
M  V30 6116 H 565.314 3.96839 -3.79223 0
M  V30 6117 H 565.575 3.91382 -2.05603 0
M  V30 6118 N 564.634 1.40294 0.718013 0
M  V30 6119 C 565.567 1.34767 1.84155 0
M  V30 6120 C 566.545 0.218455 1.61126 0
M  V30 6121 O 567.729 0.401716 1.8417 0
M  V30 6122 C 564.856 1.09676 3.20451 0
M  V30 6123 C 563.902 2.25016 3.62312 0
M  V30 6124 S 564.735 3.87397 3.69707 0
M  V30 6125 C 565.891 3.64565 5.08766 0
M  V30 6126 H 566.124 2.29851 1.88562 0
M  V30 6127 H 563.657 1.2655 0.884555 0
M  V30 6128 H 565.615 0.95885 3.99144 0
M  V30 6129 H 564.276 0.162502 3.13679 0
M  V30 6130 H 563.469 2.03097 4.61268 0
M  V30 6131 H 563.071 2.35098 2.90869 0
M  V30 6132 H 565.363 3.22882 5.95612 0
M  V30 6133 H 566.306 4.63043 5.35721 0
M  V30 6134 H 566.714 2.98303 4.79245 0
M  V30 6135 N 566.112 -0.949982 1.2575 0
M  V30 6136 C 567.528 -1.22191 1.02672 0
M  V30 6137 C 567.728 -1.99898 -0.253588 0
M  V30 6138 O 566.784 -2.33329 -0.965076 0
M  V30 6139 C 568.097 -1.99175 2.25277 0
M  V30 6140 C 569.645 -2.12201 2.30087 0
M  V30 6141 C 570.12 -2.92586 3.5236 0
M  V30 6142 N 571.611 -3.00163 3.52784 0
M  V30 6143 C 572.346 -3.62766 4.44059 0
M  V30 6144 N 571.842 -4.26943 5.45611 0
M  V30 6145 N 573.635 -3.59953 4.3173 0
M  V30 6146 H 565.786 -0.430258 2.07996 0
M  V30 6147 H 568.049 -0.252844 0.91366 0
M  V30 6148 H 567.755 -1.49479 3.18354 0
M  V30 6149 H 567.629 -2.99868 2.28821 0
M  V30 6150 H 570.016 -2.61093 1.3753 0
M  V30 6151 H 570.097 -1.10799 2.30559 0
M  V30 6152 H 569.741 -2.44383 4.45241 0
M  V30 6153 H 569.671 -3.94224 3.49134 0
M  V30 6154 H 572.162 -2.54529 2.79327 0
M  V30 6155 H 572.475 -4.72583 6.11461 0
M  V30 6156 H 570.82 -4.25557 5.49478 0
M  V30 6157 H 574.011 -3.09003 3.51617 0
M  V30 6158 H 574.184 -4.08455 5.03059 0
M  V30 6159 N 567.59 -1.07411 -1.15328 0
M  V30 6160 C 568.836 -0.798831 -1.86404 0
M  V30 6161 C 569.169 0.673433 -1.8215 0
M  V30 6162 O 568.444 1.49428 -1.24505 0
M  V30 6163 C 568.727 -1.30846 -3.35487 0
M  V30 6164 C 568.58 -2.84532 -3.4837 0
M  V30 6165 C 569.899 -0.925486 -4.30259 0
M  V30 6166 H 567.018 -0.291659 -0.676834 0
M  V30 6167 H 569.66 -1.332 -1.35491 0
M  V30 6168 H 567.81 -0.854916 -3.78977 0
M  V30 6169 H 569.482 -3.3818 -3.13739 0
M  V30 6170 H 567.725 -3.22699 -2.8991 0
M  V30 6171 H 568.396 -3.15259 -4.53118 0
M  V30 6172 H 570.872 -1.3163 -3.94731 0
M  V30 6173 H 569.748 -1.3094 -5.33053 0
M  V30 6174 H 570.009 0.168525 -4.41779 0
M  V30 6175 N 569.068 1.32177 -0.85831 0
M  V30 6176 C 570.484 1.49873 -0.548656 0
M  V30 6177 C 570.684 1.79278 0.919874 0
M  V30 6178 O 569.74 1.86451 1.70271 0
M  V30 6179 C 571.053 2.64043 -1.4388 0
M  V30 6180 C 572.601 2.77928 -1.43961 0
M  V30 6181 C 573.076 3.95182 -2.31506 0
M  V30 6182 N 574.567 4.0245 -2.29321 0
M  V30 6183 C 575.302 4.9242 -2.93786 0
M  V30 6184 N 574.798 5.87373 -3.67376 0
M  V30 6185 N 576.591 4.85572 -2.83155 0
M  V30 6186 H 568.742 1.11357 -1.80868 0
M  V30 6187 H 571.005 0.549175 -0.772729 0
M  V30 6188 H 570.711 2.49055 -2.48324 0
M  V30 6189 H 570.585 3.59912 -1.12885 0
M  V30 6190 H 572.972 2.92338 -0.402813 0
M  V30 6191 H 573.053 1.82762 -1.78974 0
M  V30 6192 H 572.697 3.81531 -3.35256 0
M  V30 6193 H 572.627 4.89633 -1.93823 0
M  V30 6194 H 575.118 3.34507 -1.75822 0
M  V30 6195 H 575.431 6.52728 -4.13722 0
M  V30 6196 H 573.776 5.87388 -3.71484 0
M  V30 6197 H 576.967 4.10363 -2.25211 0
M  V30 6198 H 577.14 5.55486 -3.33676 0
M  V30 6199 N 570.547 0.616602 1.45037 0
M  V30 6200 C 571.495 -0.109318 2.32343 0
M  V30 6201 C 572.489 -0.850543 1.465 0
M  V30 6202 O 573.695 -0.765088 1.62931 0
M  V30 6203 H 570.07 -0.0541091 0.750051 0
M  V30 6204 H 572.041 0.645326 2.91338 0
M  V30 6205 C 570.79 -1.0872 3.30266 0
M  V30 6206 H 570.113 -0.526267 3.96321 0
M  V30 6207 H 571.553 -1.56489 3.94065 0
M  V30 6208 C 570.012 -2.16525 2.58105 0
M  V30 6209 O 570.542 -3.244 2.36913 0
M  V30 6210 N 568.748 -1.92057 2.18088 0
M  V30 6211 H 568.295 -1.04337 2.35524 0
M  V30 6212 H 568.253 -2.64391 1.70131 0
M  V30 6213 N 572.025 -1.5352 0.356285 0
M  V30 6214 C 573.271 -2.01414 -0.236653 0
M  V30 6215 C 573.604 -1.24339 -1.49176 0
M  V30 6216 O 572.879 -0.334496 -1.91602 0
M  V30 6217 C 573.162 -3.56059 -0.537982 0
M  V30 6218 C 573.015 -4.43835 0.730112 0
M  V30 6219 C 574.334 -4.19127 -1.34239 0
M  V30 6220 H 571.453 -0.732135 -0.0845386 0
M  V30 6221 H 574.095 -1.83854 0.479341 0
M  V30 6222 H 572.245 -3.71153 -1.14795 0
M  V30 6223 H 573.917 -4.40555 1.36782 0
M  V30 6224 H 572.16 -4.1218 1.3524 0
M  V30 6225 H 572.831 -5.49958 0.474358 0
M  V30 6226 H 575.307 -4.07809 -0.826498 0
M  V30 6227 H 574.183 -5.27378 -1.52198 0
M  V30 6228 H 574.444 -3.74581 -2.34822 0
M  V30 6229 N 573.503 -0.0852151 -1.57369 0
M  V30 6230 C 574.45 0.877268 -2.13478 0
M  V30 6231 C 575.42 1.28642 -1.05073 0
M  V30 6232 O 576.605 1.36992 -1.32808 0
M  V30 6233 C 573.745 2.13464 -2.71159 0
M  V30 6234 C 572.858 1.77691 -3.93764 0
M  V30 6235 C 571.993 2.98139 -4.39643 0
M  V30 6236 C 571.032 2.58447 -5.54862 0
M  V30 6237 N 570.169 3.71698 -5.95639 0
M  V30 6238 H 575.009 0.391933 -2.95411 0
M  V30 6239 H 572.546 0.181796 -1.45972 0
M  V30 6240 H 574.504 2.87086 -3.02717 0
M  V30 6241 H 573.134 2.59514 -1.91969 0
M  V30 6242 H 572.186 0.940768 -3.68583 0
M  V30 6243 H 573.498 1.44497 -4.77412 0
M  V30 6244 H 572.652 3.80026 -4.72933 0
M  V30 6245 H 571.391 3.34536 -3.54876 0
M  V30 6246 H 570.396 1.74984 -5.21211 0
M  V30 6247 H 571.621 2.23205 -6.41371 0
M  V30 6248 H 569.567 4.07831 -5.13819 0
M  V30 6249 H 569.484 3.42317 -6.74059 0
M  V30 6250 H 570.752 4.54123 -6.33555 0
M  V30 6251 N 574.981 1.5647 0.188427 0
M  V30 6252 C 575.891 1.98285 1.2538 0
M  V30 6253 C 576.907 0.891535 1.49424 0
M  V30 6254 O 578.083 1.19782 1.61908 0
M  V30 6255 C 575.148 2.31965 2.57669 0
M  V30 6256 C 574.209 3.54838 2.41638 0
M  V30 6257 C 573.442 3.86901 3.67618 0
M  V30 6258 O 573.665 3.20163 4.72072 0
M  V30 6259 O 572.599 4.80309 3.62749 0
M  V30 6260 H 576.425 2.89145 0.928912 0
M  V30 6261 H 574.01 1.44112 0.393955 0
M  V30 6262 H 575.892 2.54673 3.35737 0
M  V30 6263 H 574.567 1.44271 2.89771 0
M  V30 6264 H 573.474 3.37369 1.61658 0
M  V30 6265 H 574.807 4.43019 2.14465 0
M  V30 6266 N 576.459 -0.456382 1.50847 0
M  V30 6267 C 577.684 -1.2349 1.66628 0
M  V30 6268 C 578.109 -1.84715 0.355254 0
M  V30 6269 O 577.467 -1.67961 -0.682559 0
M  V30 6270 C 577.515 -2.30865 2.77009 0
M  V30 6271 O 576.619 -3.35882 2.39285 0
M  V30 6272 H 575.96 -0.36266 0.556214 0
M  V30 6273 H 578.49 -0.541374 1.97308 0
M  V30 6274 H 578.5 -2.75949 3.00526 0
M  V30 6275 H 577.175 -1.85677 3.72152 0
M  V30 6276 H 575.752 -2.96406 2.26269 0
M  V30 6277 N 577.937 -1.40673 -0.710563 0
M  V30 6278 C 578.9 -1.4108 -1.80635 0
M  V30 6279 C 579.9 -0.303783 -1.57904 0
M  V30 6280 O 581.09 -0.562937 -1.64853 0
M  V30 6281 C 578.222 -1.20748 -3.18799 0
M  V30 6282 H 579.415 -2.38612 -1.81671 0
M  V30 6283 H 576.968 -1.26595 -0.916704 0
M  V30 6284 H 577.703 -0.239964 -3.23411 0
M  V30 6285 H 577.488 -2.00941 -3.36698 0
M  V30 6286 H 578.978 -1.23833 -3.98817 0
M  V30 6287 N 579.415 0.9433 -1.26252 0
M  V30 6288 C 580.378 2.02326 -1.07689 0
M  V30 6289 C 581.378 1.60779 -0.0259174 0
M  V30 6290 O 582.568 1.72108 -0.269134 0
M  V30 6291 C 579.7 3.34886 -0.63752 0
M  V30 6292 H 580.893 2.20225 -2.0357 0
M  V30 6293 H 578.446 1.12197 -1.08819 0
M  V30 6294 H 579.181 3.22684 0.323377 0
M  V30 6295 H 578.966 3.66393 -1.39637 0
M  V30 6296 H 580.456 4.14231 -0.529418 0
M  V30 6297 N 580.893 1.08022 1.14757 0
M  V30 6298 C 581.843 0.676345 2.17737 0
M  V30 6299 C 582.827 -0.302018 1.5804 0
M  V30 6300 O 584.019 -0.11466 1.76628 0
M  V30 6301 C 581.148 0.082984 3.432 0
M  V30 6302 C 580.234 1.0869 4.09936 0
M  V30 6303 N 580.625 2.26891 4.52055 0
M  V30 6304 C 578.923 0.921768 4.36371 0
M  V30 6305 C 579.624 2.90636 5.0389 0
M  V30 6306 N 578.6 2.18266 4.97856 0
M  V30 6307 H 582.402 1.5765 2.4804 0
M  V30 6308 H 579.916 0.954374 1.31398 0
M  V30 6309 H 581.913 -0.224289 4.16296 0
M  V30 6310 H 580.573 -0.812206 3.14378 0
M  V30 6311 H 581.584 2.6457 4.45223 0
M  V30 6312 H 578.261 0.0800499 4.17423 0
M  V30 6313 H 579.651 3.9104 5.46386 0
M  V30 6314 N 582.371 -1.3172 0.865308 0
M  V30 6315 C 583.648 -1.91574 0.394789 0
M  V30 6316 C 584.028 -1.78769 -1.12271 0
M  V30 6317 O 583.376 -1.19245 -1.94918 0
M  V30 6318 C 583.586 -3.37957 0.870982 0
M  V30 6319 C 584.934 -4.15073 0.894384 0
M  V30 6320 O 585.958 -3.4672 0.816325 0
M  V30 6321 O 584.817 -5.37151 1.00651 0
M  V30 6322 H 581.911 -0.818649 0.117229 0
M  V30 6323 H 584.457 -1.4042 0.952913 0
M  V30 6324 H 583.229 -3.41269 1.91444 0
M  V30 6325 H 582.852 -3.96534 0.290907 0
M  V30 6326 N 583.85 -0.624285 -1.44708 0
M  V30 6327 C 585.08 -0.132726 -2.06173 0
M  V30 6328 C 585.488 1.19513 -1.46674 0
M  V30 6329 O 584.831 1.74254 -0.581491 0
M  V30 6330 C 584.893 0.0636732 -3.59444 0
M  V30 6331 C 584.557 -1.18496 -4.4137 0
M  V30 6332 C 585.553 -2.10706 -4.75288 0
M  V30 6333 C 583.239 -1.41846 -4.81856 0
M  V30 6334 C 585.233 -3.24582 -5.48567 0
M  V30 6335 C 582.92 -2.5602 -5.54885 0
M  V30 6336 C 583.918 -3.47215 -5.88159 0
M  V30 6337 O 583.606 -4.59399 -6.59703 0
M  V30 6338 H 583.338 -0.0737313 -0.671967 0
M  V30 6339 H 585.892 -0.856789 -1.86677 0
M  V30 6340 H 584.122 0.842809 -3.77404 0
M  V30 6341 H 585.811 0.508924 -4.02697 0
M  V30 6342 H 586.577 -1.93898 -4.44554 0
M  V30 6343 H 582.456 -0.717556 -4.55381 0
M  V30 6344 H 586 -3.95785 -5.74456 0
M  V30 6345 H 581.897 -2.72774 -5.85034 0
M  V30 6346 H 582.665 -4.58293 -6.78166 0
M  V30 6347 N 585.328 1.53329 -0.364422 0
M  V30 6348 C 586.556 2.05657 0.226424 0
M  V30 6349 C 586.971 1.23801 1.42544 0
M  V30 6350 O 586.328 0.27839 1.80364 0
M  V30 6351 C 586.379 3.56125 0.621056 0
M  V30 6352 O 586.1 4.34879 -0.530304 0
M  V30 6353 C 587.601 4.24706 1.27041 0
M  V30 6354 H 584.821 0.669806 0.0400056 0
M  V30 6355 H 587.365 1.97714 -0.522456 0
M  V30 6356 H 585.52 3.64223 1.31985 0
M  V30 6357 H 585.934 5.24073 -0.211546 0
M  V30 6358 H 587.408 5.3131 1.49711 0
M  V30 6359 H 587.885 3.78354 2.23036 0
M  V30 6360 H 588.491 4.20858 0.613079 0
M  V30 6361 N 586.806 0.0935595 1.57322 0
M  V30 6362 C 587.736 -0.863062 2.16964 0
M  V30 6363 C 588.717 -1.29528 1.10256 0
M  V30 6364 O 589.902 -1.36245 1.38387 0
M  V30 6365 C 587.032 -2.12276 2.74875 0
M  V30 6366 C 585.986 -1.82921 3.86942 0
M  V30 6367 C 585.312 -3.15707 4.31548 0
M  V30 6368 C 586.612 -1.11737 5.10208 0
M  V30 6369 H 588.306 -0.366145 2.97153 0
M  V30 6370 H 585.852 -0.174673 1.42937 0
M  V30 6371 H 587.805 -2.79634 3.1525 0
M  V30 6372 H 586.529 -2.64248 1.91938 0
M  V30 6373 H 585.188 -1.17961 3.47103 0
M  V30 6374 H 584.836 -3.65563 3.45504 0
M  V30 6375 H 584.536 -2.96849 5.07104 0
M  V30 6376 H 586.06 -3.84226 4.74555 0
M  V30 6377 H 587.474 -1.69203 5.47762 0
M  V30 6378 H 585.871 -1.03064 5.91183 0
M  V30 6379 H 586.941 -0.0998818 4.84797 0
M  V30 6380 N 588.284 -1.56567 -0.180126 0
M  V30 6381 C 589.7 -1.50488 -0.531559 0
M  V30 6382 C 589.9 -0.796267 -1.851 0
M  V30 6383 O 588.956 -0.352978 -2.50021 0
M  V30 6384 C 590.269 -2.95201 -0.572456 0
M  V30 6385 C 591.817 -3.05957 -0.660264 0
M  V30 6386 C 592.292 -4.5211 -0.732135 0
M  V30 6387 N 593.783 -4.56322 -0.795262 0
M  V30 6388 C 594.518 -5.66742 -0.871296 0
M  V30 6389 N 594.014 -6.86815 -0.908708 0
M  V30 6390 N 595.807 -5.54691 -0.909639 0
M  V30 6391 H 587.958 -2.01045 0.685165 0
M  V30 6392 H 590.221 -0.915536 0.245962 0
M  V30 6393 H 589.927 -3.50165 0.328208 0
M  V30 6394 H 589.801 -3.49369 -1.422 0
M  V30 6395 H 592.188 -2.51032 -1.55136 0
M  V30 6396 H 592.269 -2.54888 0.215783 0
M  V30 6397 H 591.913 -5.07664 0.154664 0
M  V30 6398 H 591.843 -5.00926 -1.6242 0
M  V30 6399 H 594.334 -3.69868 -0.77499 0
M  V30 6400 H 594.647 -7.66718 -0.967654 0
M  V30 6401 H 592.992 -6.89443 -0.877132 0
M  V30 6402 H 596.183 -4.59804 -0.877353 0
M  V30 6403 H 596.356 -6.40768 -0.965434 0
M  V30 6404 N 589.762 0.448376 -1.51087 0
M  V30 6405 C 590.672 1.56882 -1.74428 0
M  V30 6406 C 591.688 1.62268 -0.62809 0
M  V30 6407 O 592.864 1.79716 -0.909075 0
M  V30 6408 C 589.929 2.92947 -1.85426 0
M  V30 6409 C 588.99 2.97766 -3.09247 0
M  V30 6410 C 588.223 4.27341 -3.19711 0
M  V30 6411 O 588.446 5.19112 -2.36387 0
M  V30 6412 O 587.38 4.38219 -4.12611 0
M  V30 6413 H 591.206 1.40104 -2.69452 0
M  V30 6414 H 588.791 0.630247 -1.35456 0
M  V30 6415 H 590.673 3.73719 -1.94709 0
M  V30 6416 H 589.348 3.09876 -0.935887 0
M  V30 6417 H 588.255 2.15989 -3.0545 0
M  V30 6418 H 589.588 2.8578 -4.00738 0
M  V30 6419 N 591.24 1.41047 0.703093 0
M  V30 6420 C 592.17 1.45067 1.82969 0
M  V30 6421 C 593.151 0.31016 1.67248 0
M  V30 6422 O 594.336 0.520548 1.87093 0
M  V30 6423 C 591.466 1.32478 3.2104 0
M  V30 6424 C 590.42 2.44262 3.51454 0
M  V30 6425 C 589.746 2.16742 4.88801 0
M  V30 6426 C 591.046 3.86606 3.51189 0
M  V30 6427 H 592.74 2.39353 1.79863 0
M  V30 6428 H 590.286 1.15206 0.863919 0
M  V30 6429 H 592.239 1.33904 3.99559 0
M  V30 6430 H 590.963 0.346735 3.24754 0
M  V30 6431 H 589.622 2.42107 2.75282 0
M  V30 6432 H 589.27 1.17299 4.89132 0
M  V30 6433 H 588.97 2.91643 5.10116 0
M  V30 6434 H 590.494 2.19872 5.69639 0
M  V30 6435 H 591.908 3.90517 4.19725 0
M  V30 6436 H 590.305 4.61128 3.84033 0
M  V30 6437 H 591.375 4.15296 2.50315 0
M  V30 6438 N 592.718 -0.936591 1.26751 0
M  V30 6439 C 593.665 -2.03597 1.08706 0
M  V30 6440 C 594.635 -1.66097 -0.00926542 0
M  V30 6441 O 595.82 -1.90199 0.151377 0
M  V30 6442 C 592.96 -3.3727 0.73094 0
M  V30 6443 C 592.073 -3.87778 1.90399 0
M  V30 6444 C 591.208 -5.09859 1.49056 0
M  V30 6445 C 590.247 -5.5264 2.63164 0
M  V30 6446 N 589.384 -6.65921 2.22471 0
M  V30 6447 H 594.224 -2.18364 2.02784 0
M  V30 6448 H 591.761 -1.06985 1.00958 0
M  V30 6449 H 593.719 -4.14128 0.505328 0
M  V30 6450 H 592.349 -3.22337 -0.172868 0
M  V30 6451 H 591.401 -3.07279 2.2424 0
M  V30 6452 H 592.713 -4.15464 2.76028 0
M  V30 6453 H 591.867 -5.9419 1.22567 0
M  V30 6454 H 590.606 -4.8393 0.60524 0
M  V30 6455 H 589.611 -4.66863 2.90377 0
M  V30 6456 H 590.836 -5.80568 3.52303 0
M  V30 6457 H 588.782 -6.41667 1.36379 0
M  V30 6458 H 588.699 -6.93216 3.01641 0
M  V30 6459 H 589.967 -7.53616 1.99205 0
M  V30 6460 N 594.196 -1.08629 -1.14182 0
M  V30 6461 C 595.126 -0.740003 -2.21464 0
M  V30 6462 C 596.107 0.278591 -1.67803 0
M  V30 6463 O 597.292 0.148461 -1.93632 0
M  V30 6464 C 594.422 -0.150952 -3.46972 0
M  V30 6465 C 593.376 -1.09815 -4.13672 0
M  V30 6466 C 592.702 -0.3712 -5.3341 0
M  V30 6467 C 594.002 -2.43722 -4.61949 0
M  V30 6468 H 595.696 -1.63697 -2.50686 0
M  V30 6469 H 593.242 -0.788526 -1.20492 0
M  V30 6470 H 595.195 0.103325 -4.21273 0
M  V30 6471 H 593.919 0.781164 -3.1712 0
M  V30 6472 H 592.578 -1.33756 -3.41328 0
M  V30 6473 H 592.226 0.564792 -4.99819 0
M  V30 6474 H 591.926 -1.00267 -5.78982 0
M  V30 6475 H 593.45 -0.12503 -6.10472 0
M  V30 6476 H 594.864 -2.24034 -5.27714 0
M  V30 6477 H 593.261 -3.02582 -5.18232 0
M  V30 6478 H 594.331 -3.05082 -3.76899 0
M  V30 6479 N 595.674 1.31259 -0.872281 0
M  V30 6480 C 596.899 2.0133 -0.498099 0
M  V30 6481 C 597.324 1.65031 0.902568 0
M  V30 6482 O 596.682 0.860164 1.59596 0
M  V30 6483 C 596.73 3.54411 -0.665205 0
M  V30 6484 O 595.834 4.11347 0.294473 0
M  V30 6485 H 595.175 0.633844 -0.197832 0
M  V30 6486 H 597.705 1.67402 -1.17633 0
M  V30 6487 H 597.715 4.04147 -0.559373 0
M  V30 6488 H 596.39 3.80171 -1.68651 0
M  V30 6489 H 594.967 3.72624 0.143403 0
M  V30 6490 N 597.152 0.631951 1.44375 0
M  V30 6491 C 598.099 -0.0724807 2.30686 0
M  V30 6492 C 599.069 -0.835975 1.43529 0
M  V30 6493 O 600.254 -0.816849 1.7243 0
M  V30 6494 C 597.394 -1.04753 3.28817 0
M  V30 6495 C 596.507 -0.282367 4.31076 0
M  V30 6496 C 595.642 -1.2493 5.163 0
M  V30 6497 C 594.681 -0.473349 6.10267 0
M  V30 6498 N 593.818 -1.39079 6.88187 0
M  V30 6499 H 598.658 0.669477 2.90383 0
M  V30 6500 H 596.195 0.341927 1.43071 0
M  V30 6501 H 598.153 -1.62623 3.842 0
M  V30 6502 H 596.783 -1.75661 2.70819 0
M  V30 6503 H 595.835 0.412268 3.78159 0
M  V30 6504 H 597.147 0.321955 4.9776 0
M  V30 6505 H 596.301 -1.89931 5.76204 0
M  V30 6506 H 595.04 -1.88755 4.49692 0
M  V30 6507 H 594.045 0.190142 5.49471 0
M  V30 6508 H 595.27 0.16019 6.78911 0
M  V30 6509 H 593.216 -2.01623 6.24247 0
M  V30 6510 H 593.133 -0.840513 7.51313 0
M  V30 6511 H 594.401 -2.02961 7.52613 0
M  V30 6512 N 598.631 -1.53133 0.372548 0
M  V30 6513 C 599.877 -2.01654 -0.215277 0
M  V30 6514 C 600.21 -1.25914 -1.47849 0
M  V30 6515 O 599.485 -0.3548 -1.91237 0
M  V30 6516 C 599.768 -3.56609 -0.500187 0
M  V30 6517 C 599.621 -4.43036 0.777145 0
M  V30 6518 C 600.94 -4.20528 -1.29786 0
M  V30 6519 H 598.059 -0.732991 -0.0767686 0
M  V30 6520 H 600.701 -1.83335 0.498814 0
M  V30 6521 H 598.851 -3.7235 -1.10852 0
M  V30 6522 H 600.523 -4.39079 1.41447 0
M  V30 6523 H 598.766 -4.10723 1.39604 0
M  V30 6524 H 599.437 -5.49424 0.532662 0
M  V30 6525 H 601.913 -4.08663 -0.783198 0
M  V30 6526 H 600.789 -5.28962 -1.46596 0
M  V30 6527 H 601.05 -3.77051 -2.30836 0
M  V30 6528 N 600.109 -0.101901 -1.5727 0
M  V30 6529 C 601.357 0.559091 -1.94213 0
M  V30 6530 C 601.678 1.68297 -0.984948 0
M  V30 6531 O 600.948 1.95863 -0.0381975 0
M  V30 6532 H 599.528 0.20952 -0.717015 0
M  V30 6533 H 602.19 -0.166831 -1.94185 0
M  V30 6534 H 601.286 0.96485 -2.96811 0
M  V30 6535 N 601.587 1.56661 0.17182 0
M  V30 6536 C 602.519 1.92934 1.2373 0
M  V30 6537 C 603.532 0.822385 1.40502 0
M  V30 6538 O 604.721 1.10083 1.40514 0
M  V30 6539 C 601.821 2.16651 2.60607 0
M  V30 6540 C 600.994 3.47878 2.6514 0
M  V30 6541 C 600.053 3.60429 3.83377 0
M  V30 6542 O 599.079 4.33051 3.69398 0
M  V30 6543 N 600.281 2.95241 4.99813 0
M  V30 6544 H 603.046 2.84931 0.929205 0
M  V30 6545 H 600.607 1.5781 0.361588 0
M  V30 6546 H 602.599 2.22312 3.38171 0
M  V30 6547 H 601.169 1.3104 2.83809 0
M  V30 6548 H 600.389 3.53879 1.73675 0
M  V30 6549 H 601.677 4.34232 2.6518 0
M  V30 6550 H 601.075 2.3611 5.14071 0
M  V30 6551 H 599.632 3.06499 5.75241 0
M  V30 6552 N 603.065 -0.440357 1.51323 0
M  V30 6553 C 604.028 -1.51679 1.71832 0
M  V30 6554 C 605.028 -1.49648 0.588386 0
M  V30 6555 O 606.218 -1.51724 0.855891 0
M  V30 6556 C 603.35 -2.91228 1.77199 0
M  V30 6557 H 604.543 -1.34799 2.67898 0
M  V30 6558 H 602.096 -0.66883 1.41267 0
M  V30 6559 H 602.831 -3.13516 0.829363 0
M  V30 6560 H 602.616 -2.94107 2.59314 0
M  V30 6561 H 604.106 -3.69321 1.94915 0
M  V30 6562 N 604.543 -1.41418 -0.695603 0
M  V30 6563 C 605.473 -1.46035 -1.82197 0
M  V30 6564 C 606.454 -0.319025 -1.67082 0
M  V30 6565 O 607.639 -0.530462 -1.86815 0
M  V30 6566 C 604.769 -1.34179 -3.20333 0
M  V30 6567 C 603.723 -2.46123 -3.50154 0
M  V30 6568 C 603.049 -2.19332 -4.87645 0
M  V30 6569 C 604.349 -3.88463 -3.49133 0
M  V30 6570 H 606.043 -2.40303 -1.78591 0
M  V30 6571 H 603.589 -1.15663 -0.857797 0
M  V30 6572 H 605.542 -1.36021 -3.98844 0
M  V30 6573 H 604.266 -0.363952 -3.24566 0
M  V30 6574 H 602.925 -2.43563 -2.73994 0
M  V30 6575 H 602.573 -1.19891 -4.88503 0
M  V30 6576 H 602.273 -2.94344 -5.08562 0
M  V30 6577 H 603.797 -2.22889 -5.68465 0
M  V30 6578 H 605.211 -3.92738 -4.17648 0
M  V30 6579 H 603.608 -4.63158 -3.81582 0
M  V30 6580 H 604.678 -4.16617 -2.48109 0
M  V30 6581 N 606.021 0.929856 -1.27246 0
M  V30 6582 C 606.951 2.04722 -1.12299 0
M  V30 6583 C 607.932 1.70082 -0.0250464 0
M  V30 6584 O 609.117 1.93176 -0.199141 0
M  V30 6585 C 606.247 3.38721 -0.767145 0
M  V30 6586 C 605.201 3.87466 -1.81808 0
M  V30 6587 C 604.527 5.18246 -1.31626 0
M  V30 6588 C 605.827 4.11095 -3.22177 0
M  V30 6589 H 607.521 2.17485 -2.05769 0
M  V30 6590 H 605.067 1.04503 -0.990715 0
M  V30 6591 H 607.02 4.16366 -0.649413 0
M  V30 6592 H 605.744 3.25967 0.203259 0
M  V30 6593 H 604.403 3.12012 -1.92468 0
M  V30 6594 H 604.051 5.01881 -0.335378 0
M  V30 6595 H 603.751 5.51829 -2.01887 0
M  V30 6596 H 605.275 5.98462 -1.21143 0
M  V30 6597 H 606.689 4.79316 -3.1453 0
M  V30 6598 H 605.086 4.55982 -3.90129 0
M  V30 6599 H 606.156 3.16468 -3.67391 0
M  V30 6600 N 607.499 1.09233 1.13605 0
M  V30 6601 C 608.431 0.687794 2.18637 0
M  V30 6602 C 609.444 -0.26936 1.60556 0
M  V30 6603 O 610.633 -0.0557162 1.78413 0
M  V30 6604 C 607.733 -0.00751901 3.38899 0
M  V30 6605 C 606.906 0.97067 4.26494 0
M  V30 6606 C 605.965 0.309129 5.25291 0
M  V30 6607 O 604.991 0.956149 5.61112 0
M  V30 6608 N 606.193 -0.937555 5.72879 0
M  V30 6609 H 608.958 1.59141 2.53957 0
M  V30 6610 H 606.519 0.979515 1.28907 0
M  V30 6611 H 608.511 -0.461238 4.02063 0
M  V30 6612 H 607.081 -0.813353 3.01833 0
M  V30 6613 H 606.301 1.603 3.60135 0
M  V30 6614 H 607.589 1.63323 4.81875 0
M  V30 6615 H 606.987 -1.48281 5.4592 0
M  V30 6616 H 605.544 -1.33463 6.3799 0
M  V30 6617 N 608.977 -1.30795 0.87923 0
M  V30 6618 C 610.225 -1.95974 0.493809 0
M  V30 6619 C 610.546 -1.69787 -0.959021 0
M  V30 6620 O 609.816 -1.01832 -1.67353 0
M  V30 6621 H 608.396 -0.725083 0.179622 0
M  V30 6622 H 611.058 -1.59432 1.12105 0
M  V30 6623 H 610.154 -3.05058 0.659263 0
M  V30 6624 N 610.455 -0.639598 -1.44038 0
M  V30 6625 C 611.403 0.0723409 -2.32487 0
M  V30 6626 C 612.397 0.827129 -1.47834 0
M  V30 6627 O 613.603 0.73907 -1.64127 0
M  V30 6628 H 609.978 0.0421696 -0.750817 0
M  V30 6629 H 611.949 -0.691593 -2.90275 0
M  V30 6630 C 610.698 1.03452 -3.31953 0
M  V30 6631 H 610.021 0.46315 -3.97108 0
M  V30 6632 H 611.461 1.502 -3.96505 0
M  V30 6633 C 609.92 2.12392 -2.61518 0
M  V30 6634 O 610.45 3.2059 -2.42044 0
M  V30 6635 N 608.656 1.88563 -2.21116 0
M  V30 6636 H 608.203 1.00577 -2.37154 0
M  V30 6637 H 608.161 2.61651 -1.74316 0
M  V30 6638 N 611.933 1.52934 -0.380664 0
M  V30 6639 C 613.161 2.05886 0.204599 0
M  V30 6640 C 613.576 1.25305 1.41223 0
M  V30 6641 O 612.933 0.297504 1.80059 0
M  V30 6642 C 612.984 3.56764 0.583249 0
M  V30 6643 O 612.705 4.34292 -0.576398 0
M  V30 6644 C 614.206 4.2603 1.2253 0
M  V30 6645 H 611.426 0.670193 0.0328991 0
M  V30 6646 H 613.97 1.97148 -0.543397 0
M  V30 6647 H 612.125 3.65603 1.28115 0
M  V30 6648 H 612.539 5.23819 -0.267119 0
M  V30 6649 H 614.013 5.32868 1.44068 0
M  V30 6650 H 614.49 3.80698 2.19011 0
M  V30 6651 H 615.096 4.21485 0.568407 0
M  V30 6652 N 613.412 0.11024 1.57214 0
M  V30 6653 C 614.322 -0.857077 2.18383 0
M  V30 6654 C 615.338 -1.29915 1.1575 0
M  V30 6655 O 616.514 -1.36394 1.48184 0
M  V30 6656 C 613.579 -2.09264 2.76423 0
M  V30 6657 C 612.64 -1.70333 3.94063 0
M  V30 6658 C 611.873 -2.87999 4.49324 0
M  V30 6659 O 612.096 -4.0317 4.03497 0
M  V30 6660 O 611.03 -2.6559 5.40135 0
M  V30 6661 H 614.856 -0.366561 3.0148 0
M  V30 6662 H 612.441 -0.114914 1.48957 0
M  V30 6663 H 614.323 -2.81644 3.13456 0
M  V30 6664 H 612.998 -2.57339 1.96363 0
M  V30 6665 H 611.905 -0.950864 3.61814 0
M  V30 6666 H 613.238 -1.27007 4.75531 0
M  V30 6667 N 614.89 -1.56749 -0.16351 0
M  V30 6668 C 616.306 -1.51043 -0.515567 0
M  V30 6669 C 616.506 -0.815855 -1.84245 0
M  V30 6670 O 615.562 -0.379477 -2.49632 0
M  V30 6671 C 616.875 -2.95791 -0.541114 0
M  V30 6672 C 618.423 -3.0664 -0.627776 0
M  V30 6673 C 618.898 -4.52861 -0.684141 0
M  V30 6674 N 620.389 -4.5714 -0.746818 0
M  V30 6675 C 621.124 -5.67634 -0.811137 0
M  V30 6676 N 620.62 -6.8774 -0.835811 0
M  V30 6677 N 622.413 -5.55624 -0.850756 0
M  V30 6678 H 614.564 -2.00307 0.70645 0
M  V30 6679 H 616.827 -0.912876 0.255659 0
M  V30 6680 H 616.533 -3.49797 0.365329 0
M  V30 6681 H 616.407 -3.50858 -1.38487 0
M  V30 6682 H 618.794 -2.52663 -1.52464 0
M  V30 6683 H 618.875 -2.54645 0.242805 0
M  V30 6684 H 618.519 -5.07472 0.2085 0
M  V30 6685 H 618.449 -5.02621 -1.57098 0
M  V30 6686 H 620.94 -3.70669 -0.735717 0
M  V30 6687 H 621.253 -7.67701 -0.886279 0
M  V30 6688 H 619.598 -6.90334 -0.803958 0
M  V30 6689 H 622.789 -4.60709 -0.828535 0
M  V30 6690 H 622.962 -6.41756 -0.897418 0
M  V30 6691 N 616.368 0.432326 -1.51554 0
M  V30 6692 C 617.596 1.20364 -1.68286 0
M  V30 6693 C 618.011 1.84888 -0.38233 0
M  V30 6694 O 617.368 1.70924 0.639627 0
M  V30 6695 C 617.419 2.28398 -2.80208 0
M  V30 6696 O 617.14 1.66512 -4.05223 0
M  V30 6697 C 618.641 3.18584 -3.08251 0
M  V30 6698 H 615.861 0.36259 -0.564596 0
M  V30 6699 H 618.405 0.511647 -1.97996 0
M  V30 6700 H 616.56 2.93305 -2.53083 0
M  V30 6701 H 616.974 2.37951 -4.67418 0
M  V30 6702 H 618.448 3.90511 -3.90135 0
M  V30 6703 H 618.925 3.79628 -2.2086 0
M  V30 6704 H 619.531 2.59372 -3.37055 0
M  V30 6705 N 617.846 1.41785 0.688094 0
M  V30 6706 C 619.092 1.41753 1.4503 0
M  V30 6707 C 619.425 0.0290745 1.94178 0
M  V30 6708 O 618.7 -0.944456 1.7003 0
M  V30 6709 C 618.983 2.43069 2.65686 0
M  V30 6710 C 618.836 3.91053 2.22256 0
M  V30 6711 C 620.155 2.41543 3.67893 0
M  V30 6712 H 617.274 0.516202 0.526027 0
M  V30 6713 H 619.916 1.73111 0.783105 0
M  V30 6714 H 618.066 2.1646 3.2261 0
M  V30 6715 H 619.738 4.28594 1.70602 0
M  V30 6716 H 617.981 4.05559 1.53963 0
M  V30 6717 H 618.652 4.57501 3.08863 0
M  V30 6718 H 621.128 2.65175 3.20658 0
M  V30 6719 H 620.004 3.14434 4.49914 0
M  V30 6720 H 620.265 1.43666 4.18106 0
M  V30 6721 N 619.324 -0.923095 1.27737 0
M  V30 6722 C 620.57 -1.67409 1.15524 0
M  V30 6723 C 620.925 -1.90124 -0.295072 0
M  V30 6724 O 620.218 -1.48382 -1.21216 0
M  V30 6725 C 620.412 -3.04125 1.8773 0
M  V30 6726 C 620.241 -2.94752 3.39634 0
M  V30 6727 C 619.011 -2.96783 4.0896 0
M  V30 6728 C 621.209 -2.73524 4.35533 0
M  V30 6729 N 619.191 -2.779 5.47398 0
M  V30 6730 C 620.562 -2.63391 5.61271 0
M  V30 6731 C 622.617 -2.58447 4.2557 0
M  V30 6732 C 621.32 -2.3972 6.78179 0
M  V30 6733 C 623.346 -2.36154 5.42204 0
M  V30 6734 C 622.708 -2.26768 6.669 0
M  V30 6735 H 618.807 -0.619196 0.477619 0
M  V30 6736 H 621.391 -1.09094 1.61266 0
M  V30 6737 H 619.562 -3.60545 1.44436 0
M  V30 6738 H 621.294 -3.6819 1.67982 0
M  V30 6739 H 618.049 -3.07186 3.60463 0
M  V30 6740 H 618.473 -2.71576 6.20141 0
M  V30 6741 H 623.115 -2.6446 3.2988 0
M  V30 6742 H 620.833 -2.32447 7.73947 0
M  V30 6743 H 624.419 -2.25367 5.36378 0
M  V30 6744 H 623.299 -2.09751 7.55628 0
M  V30 6745 N 620.802 -1.09834 -1.13024 0
M  V30 6746 C 621.734 -0.699379 -2.18269 0
M  V30 6747 C 622.747 0.260841 -1.60697 0
M  V30 6748 O 623.936 0.0462538 -1.7844 0
M  V30 6749 C 621.036 -0.0104537 -3.38898 0
M  V30 6750 C 620.209 -0.993275 -4.25973 0
M  V30 6751 C 619.268 -0.336982 -5.2512 0
M  V30 6752 O 618.294 -0.985892 -5.60597 0
M  V30 6753 N 619.496 0.90716 -5.73368 0
M  V30 6754 H 622.261 -1.60486 -2.5311 0
M  V30 6755 H 619.822 -0.986337 -1.28386 0
M  V30 6756 H 621.814 0.43991 -4.02302 0
M  V30 6757 H 620.384 0.797335 -3.0226 0
M  V30 6758 H 619.604 -1.62208 -3.5928 0
M  V30 6759 H 620.892 -1.65876 -4.81002 0
M  V30 6760 H 620.29 1.45384 -5.46699 0
M  V30 6761 H 618.847 1.30077 -6.38689 0
M  V30 6762 N 622.28 1.30327 -0.886154 0
M  V30 6763 C 623.51 1.99964 -0.519421 0
M  V30 6764 C 623.918 1.66593 0.89686 0
M  V30 6765 O 623.261 0.899886 1.60149 0
M  V30 6766 C 623.323 3.54187 -0.615795 0
M  V30 6767 C 622.987 4.11078 -1.9966 0
M  V30 6768 C 623.984 4.26985 -2.96614 0
M  V30 6769 C 621.669 4.46429 -2.30231 0
M  V30 6770 C 623.663 4.77456 -4.22273 0
M  V30 6771 C 621.35 4.966 -3.56135 0
M  V30 6772 C 622.348 5.12066 -4.5197 0
M  V30 6773 O 622.036 5.61154 -5.7564 0
M  V30 6774 H 621.768 0.645979 -0.199217 0
M  V30 6775 H 624.322 1.67154 -1.19368 0
M  V30 6776 H 622.552 3.86528 0.115448 0
M  V30 6777 H 624.241 4.05065 -0.26017 0
M  V30 6778 H 625.007 3.99975 -2.74308 0
M  V30 6779 H 620.886 4.33658 -1.56404 0
M  V30 6780 H 624.43 4.89444 -4.97082 0
M  V30 6781 H 620.327 5.23045 -3.78277 0
M  V30 6782 H 621.095 5.79494 -5.78039 0
M  V30 6783 N 623.758 0.647228 1.43697 0
M  V30 6784 C 624.708 -0.0702191 2.27892 0
M  V30 6785 C 625.692 -0.800601 1.39568 0
M  V30 6786 O 626.884 -0.684055 1.63247 0
M  V30 6787 C 624.013 -1.04008 3.27165 0
M  V30 6788 C 623.099 -0.308484 4.22977 0
M  V30 6789 N 623.49 0.671721 5.0132 0
M  V30 6790 C 621.788 -0.550751 4.42586 0
M  V30 6791 C 622.489 1.10543 5.711 0
M  V30 6792 N 621.465 0.440903 5.41809 0
M  V30 6793 H 625.267 0.682031 2.85877 0
M  V30 6794 H 622.781 0.474022 1.55328 0
M  V30 6795 H 624.778 -1.56881 3.86256 0
M  V30 6796 H 623.438 -1.79246 2.70742 0
M  V30 6797 H 624.449 1.0502 5.0714 0
M  V30 6798 H 621.126 -1.28476 3.97241 0
M  V30 6799 H 622.516 1.91614 6.43998 0
M  V30 6800 N 625.236 -1.5273 0.388769 0
M  V30 6801 C 626.483 -2.01573 -0.19359 0
M  V30 6802 C 626.811 -1.27525 -1.46859 0
M  V30 6803 O 626.066 -0.363926 -1.92286 0
M  V30 6804 C 626.365 -3.53765 -0.508445 0
M  V30 6805 C 626.031 -4.4582 0.674947 0
M  V30 6806 C 624.693 -4.70703 0.999596 0
M  V30 6807 C 627.045 -5.00138 1.46666 0
M  V30 6808 C 624.373 -5.47155 2.11751 0
M  V30 6809 C 626.725 -5.77812 2.57518 0
M  V30 6810 C 625.389 -6.00975 2.90492 0
M  V30 6811 H 624.659 -0.737606 -0.0708397 0
M  V30 6812 H 627.306 -1.84134 0.526006 0
M  V30 6813 H 625.611 -3.69274 -1.30936 0
M  V30 6814 H 627.308 -3.8905 -0.971664 0
M  V30 6815 H 623.898 -4.26616 0.411906 0
M  V30 6816 H 628.082 -4.8084 1.22909 0
M  V30 6817 H 623.338 -5.63314 2.3767 0
M  V30 6818 H 627.512 -6.18904 3.19267 0
M  V30 6819 H 625.139 -6.59998 3.77236 0
M  V30 6820 N 626.714 -0.118576 -1.57153 0
M  V30 6821 C 628.13 0.238014 -1.57815 0
M  V30 6822 C 628.33 1.66747 -1.13127 0
M  V30 6823 O 627.386 2.38867 -0.818462 0
M  V30 6824 C 628.699 0.00508207 -3.007 0
M  V30 6825 C 630.247 0.0710139 -3.12919 0
M  V30 6826 C 630.722 -0.13422 -4.57803 0
M  V30 6827 N 632.213 -0.0801755 -4.63131 0
M  V30 6828 C 632.948 -0.213885 -5.73001 0
M  V30 6829 N 632.444 -0.403742 -6.91623 0
M  V30 6830 N 634.237 -0.15349 -5.6189 0
M  V30 6831 H 626.388 -1.05226 -1.84503 0
M  V30 6832 H 628.651 -0.414318 -0.852669 0
M  V30 6833 H 628.357 -0.983125 -3.3768 0
M  V30 6834 H 628.231 0.73714 -3.69927 0
M  V30 6835 H 630.618 1.04975 -2.75798 0
M  V30 6836 H 630.699 -0.692918 -2.46236 0
M  V30 6837 H 630.343 -1.10992 -4.95624 0
M  V30 6838 H 630.273 0.649692 -5.22577 0
M  V30 6839 H 632.764 0.0630689 -3.77847 0
M  V30 6840 H 633.077 -0.496645 -7.71202 0
M  V30 6841 H 631.422 -0.43971 -6.93608 0
M  V30 6842 H 634.613 -0.00613174 -4.681 0
M  V30 6843 H 634.786 -0.261138 -6.47474 0
M  V30 6844 N 628.193 1.56834 0.155195 0
M  V30 6845 C 629.421 1.87049 0.884326 0
M  V30 6846 C 629.836 0.705839 1.7511 0
M  V30 6847 O 629.193 -0.324641 1.79589 0
M  V30 6848 C 629.244 3.1644 1.74781 0
M  V30 6849 O 628.965 4.28417 0.915978 0
M  V30 6850 C 630.466 3.60113 2.58522 0
M  V30 6851 H 627.686 0.620196 0.25612 0
M  V30 6852 H 630.23 2.03946 0.150445 0
M  V30 6853 H 628.385 3.01321 2.43484 0
M  V30 6854 H 628.799 5.02353 1.50803 0
M  V30 6855 H 630.273 4.53508 3.14698 0
M  V30 6856 H 630.75 2.85005 3.34169 0
M  V30 6857 H 631.356 3.77898 1.95124 0
M  V30 6858 N 629.671 -0.424282 1.51781 0
M  V30 6859 C 630.917 -1.17117 1.66298 0
M  V30 6860 C 631.272 -1.88595 0.380767 0
M  V30 6861 O 630.565 -1.81151 -0.624094 0
M  V30 6862 C 630.759 -2.20418 2.81337 0
M  V30 6863 C 630.588 -1.59081 4.20622 0
M  V30 6864 C 629.358 -1.37007 4.86371 0
M  V30 6865 C 631.556 -1.05992 5.0326 0
M  V30 6866 N 629.538 -0.714049 6.09733 0
M  V30 6867 C 630.909 -0.529933 6.17731 0
M  V30 6868 C 632.964 -0.952927 4.88696 0
M  V30 6869 C 631.667 0.0965457 7.19235 0
M  V30 6870 C 633.693 -0.340325 5.9042 0
M  V30 6871 C 633.055 0.179057 7.04172 0
M  V30 6872 H 629.154 -0.41577 0.662314 0
M  V30 6873 H 631.738 -0.46579 1.89046 0
M  V30 6874 H 629.909 -2.8833 2.60231 0
M  V30 6875 H 631.641 -2.8736 2.84968 0
M  V30 6876 H 628.396 -1.63543 4.44467 0
M  V30 6877 H 628.82 -0.403101 6.75799 0
M  V30 6878 H 633.462 -1.34033 4.00993 0
M  V30 6879 H 631.18 0.496044 8.06576 0
M  V30 6880 H 634.766 -0.259266 5.81222 0
M  V30 6881 H 633.646 0.645626 7.81538 0
M  V30 6882 N 631.149 -1.42148 -0.680565 0
M  V30 6883 C 632.56 -1.3768 -1.26099 0
M  V30 6884 C 632.911 -0.0672348 -1.96085 0
M  V30 6885 O 632.036 0.834172 -1.99676 0
M  V30 6886 C 632.631 -2.49387 -2.29328 0
M  V30 6887 C 631.19 -2.4827 -2.82911 0
M  V30 6888 C 630.337 -2.2847 -1.57152 0
M  V30 6889 H 633.288 -1.51446 -0.474326 0
M  V30 6890 H 633.309 -2.19307 -3.10941 0
M  V30 6891 H 632.821 -3.44686 -1.78363 0
M  V30 6892 H 630.922 -1.56773 -3.38013 0
M  V30 6893 H 631.035 -3.45109 -3.3232 0
M  V30 6894 H 629.399 -1.76623 -1.83511 0
M  V30 6895 H 630.182 -3.25816 -1.0816 0
M  V30 6896 N 632.627 0.916307 -1.28225 0
M  V30 6897 C 633.904 1.64429 -1.05936 0
M  V30 6898 C 634.284 2.07234 0.402139 0
M  V30 6899 O 633.632 1.81535 1.3877 0
M  V30 6900 C 633.842 2.83773 -2.03159 0
M  V30 6901 C 635.19 3.54852 -2.33164 0
M  V30 6902 O 636.214 2.93918 -2.01223 0
M  V30 6903 O 635.073 4.64663 -2.87664 0
M  V30 6904 H 632.167 0.721221 -0.404683 0
M  V30 6905 H 634.713 0.965838 -1.39534 0
M  V30 6906 H 633.485 2.49217 -3.01673 0
M  V30 6907 H 633.108 3.59333 -1.70192 0
M  V30 6908 N 634.105 1.10431 1.1244 0
M  V30 6909 C 635.055 0.722378 2.16254 0
M  V30 6910 C 636.039 -0.268427 1.58645 0
M  V30 6911 O 637.231 -0.077169 1.76832 0
M  V30 6912 C 634.36 0.155763 3.42946 0
M  V30 6913 C 633.446 1.17361 4.07538 0
M  V30 6914 N 633.837 2.36429 4.47141 0
M  V30 6915 C 632.135 1.01412 4.34317 0
M  V30 6916 C 632.836 3.01259 4.97612 0
M  V30 6917 N 631.812 2.28777 4.93115 0
M  V30 6918 H 635.614 1.62876 2.4464 0
M  V30 6919 H 633.128 0.982031 1.29344 0
M  V30 6920 H 635.125 -0.135936 4.16678 0
M  V30 6921 H 633.785 -0.745339 3.1603 0
M  V30 6922 H 634.796 2.73954 4.39511 0
M  V30 6923 H 631.473 0.168574 4.1716 0
M  V30 6924 H 632.863 4.02541 5.37968 0
M  V30 6925 N 635.583 -1.29855 0.893053 0
M  V30 6926 C 636.831 -1.9544 0.514566 0
M  V30 6927 C 637.152 -1.70795 -0.940959 0
M  V30 6928 O 636.422 -1.03601 -1.66264 0
M  V30 6929 H 635.002 -0.723137 0.187302 0
M  V30 6930 H 637.664 -1.58234 1.13789 0
M  V30 6931 H 636.76 -3.04341 0.691581 0
M  V30 6932 N 637.061 -0.65484 -1.43351 0
M  V30 6933 C 638.307 -0.169142 -2.02093 0
M  V30 6934 C 638.64 1.21431 -1.51553 0
M  V30 6935 O 637.915 1.81105 -0.709317 0
M  V30 6936 C 638.198 -0.181775 -3.59641 0
M  V30 6937 C 638.051 -1.59926 -4.20409 0
M  V30 6938 C 639.37 0.480945 -4.37464 0
M  V30 6939 H 636.489 -0.0629371 -0.734308 0
M  V30 6940 H 639.131 -0.835833 -1.70628 0
M  V30 6941 H 637.281 0.385918 -3.86578 0
M  V30 6942 H 638.953 -2.21766 -4.04497 0
M  V30 6943 H 637.196 -2.14605 -3.76998 0
M  V30 6944 H 637.867 -1.55994 -5.295 0
M  V30 6945 H 640.343 -0.00208273 -4.161 0
M  V30 6946 H 639.219 0.441384 -5.47122 0
M  V30 6947 H 639.48 1.55533 -4.13838 0
M  V30 6948 N 638.539 1.52521 -0.396863 0
M  V30 6949 C 639.95 1.86547 0.0754868 0
M  V30 6950 C 640.301 1.31621 1.45501 0
M  V30 6951 O 639.426 0.650563 2.0639 0
M  V30 6952 C 640.021 3.38495 0.143754 0
M  V30 6953 C 638.58 3.72205 0.560413 0
M  V30 6954 C 637.727 2.75954 -0.272856 0
M  V30 6955 H 640.678 1.46323 -0.614434 0
M  V30 6956 H 640.699 3.68153 0.961425 0
M  V30 6957 H 640.211 3.78442 -0.860415 0
M  V30 6958 H 638.312 3.3783 1.57167 0
M  V30 6959 H 638.425 4.78074 0.313314 0
M  V30 6960 H 636.789 2.53339 0.263 0
M  V30 6961 H 637.572 3.1874 -1.27515 0
M  V30 6962 N 640.017 0.126909 1.57088 0
M  V30 6963 C 641.242 -0.53997 2.00248 0
M  V30 6964 C 641.667 -1.58927 1.00618 0
M  V30 6965 O 641.025 -1.81288 -0.0210131 0
M  V30 6966 C 641.073 -1.13565 3.4225 0
M  V30 6967 O 640.177 -2.25103 3.45547 0
M  V30 6968 H 639.518 -0.13412 0.650314 0
M  V30 6969 H 642.048 0.217718 2.03438 0
M  V30 6970 H 642.058 -1.46925 3.80627 0
M  V30 6971 H 640.733 -0.367122 4.14277 0
M  V30 6972 H 639.31 -1.93123 3.18995 0
M  V30 6973 N 641.495 -1.56914 -0.146875 0
M  V30 6974 C 642.772 -1.74273 -0.888165 0
M  V30 6975 C 643.152 -0.69496 -1.99333 0
M  V30 6976 O 642.5 0.286093 -2.26702 0
M  V30 6977 C 642.71 -3.18336 -1.43051 0
M  V30 6978 C 644.058 -3.80024 -1.89387 0
M  V30 6979 O 645.082 -3.21765 -1.52792 0
M  V30 6980 O 643.941 -4.82367 -2.56874 0
M  V30 6981 H 641.035 -0.712565 -0.419738 0
M  V30 6982 H 643.581 -1.6918 -0.132791 0
M  V30 6983 H 642.353 -3.86092 -0.636274 0
M  V30 6984 H 641.976 -3.27854 -2.24938 0
M  V30 6985 N 642.974 0.416227 -1.52004 0
M  V30 6986 C 644.385 0.995319 -1.57957 0
M  V30 6987 C 644.736 1.91744 -0.415754 0
M  V30 6988 O 643.861 2.11349 0.464808 0
M  V30 6989 C 644.456 1.81191 -2.86278 0
M  V30 6990 C 643.015 2.34115 -2.94732 0
M  V30 6991 C 642.162 1.139 -2.52828 0
M  V30 6992 H 645.113 0.196716 -1.57476 0
M  V30 6993 H 645.134 2.66859 -2.71231 0
M  V30 6994 H 644.646 1.14051 -3.70963 0
M  V30 6995 H 642.747 3.04647 -2.14525 0
M  V30 6996 H 642.86 2.65466 -3.98829 0
M  V30 6997 H 641.224 1.49081 -2.06511 0
M  V30 6998 H 642.007 0.483383 -3.3988 0
M  V30 6999 N 644.452 1.42507 0.673017 0
M  V30 7000 C 645.7 1.42789 1.43023 0
M  V30 7001 C 646.021 0.0459738 1.94946 0
M  V30 7002 O 645.291 -0.915765 1.73178 0
M  V30 7003 H 643.871 0.525657 0.530748 0
M  V30 7004 H 646.533 1.77944 0.795113 0
M  V30 7005 H 645.629 2.12872 2.28237 0
M  V30 7006 N 645.93 -0.909495 1.28709 0
M  V30 7007 C 647.178 -1.65577 1.15882 0
M  V30 7008 C 647.499 -1.928 -0.292108 0
M  V30 7009 O 646.769 -1.54716 -1.20166 0
M  V30 7010 H 645.349 -0.613714 0.425869 0
M  V30 7011 H 648.011 -1.09108 1.61498 0
M  V30 7012 H 647.107 -2.61634 1.70159 0
M  V30 7013 N 647.408 -1.11026 -1.11852 0
M  V30 7014 C 648.654 -0.857729 -1.83768 0
M  V30 7015 C 648.987 0.615143 -1.842 0
M  V30 7016 O 648.262 1.45391 -1.29196 0
M  V30 7017 C 648.545 -1.41453 -3.31154 0
M  V30 7018 C 648.398 -2.95471 -3.39142 0
M  V30 7019 C 649.717 -1.0619 -4.27097 0
M  V30 7020 H 646.836 -0.313044 -0.667212 0
M  V30 7021 H 649.478 -1.37443 -1.31185 0
M  V30 7022 H 647.628 -0.975052 -3.76065 0
M  V30 7023 H 649.3 -3.4799 -3.02821 0
M  V30 7024 H 647.543 -3.31759 -2.79497 0
M  V30 7025 H 648.214 -3.29515 -4.42859 0
M  V30 7026 H 650.69 -1.44122 -3.90344 0
M  V30 7027 H 649.566 -1.47832 -5.28618 0
M  V30 7028 H 649.827 0.0278912 -4.42091 0
M  V30 7029 N 648.886 1.2938 -0.899927 0
M  V30 7030 C 649.816 2.30144 -0.39446 0
M  V30 7031 C 650.797 1.61611 0.530639 0
M  V30 7032 O 651.982 1.89119 0.441319 0
M  V30 7033 C 649.112 3.45229 0.37868 0
M  V30 7034 C 648.066 4.25564 -0.456012 0
M  V30 7035 C 647.392 5.32848 0.444637 0
M  V30 7036 C 648.692 4.93651 -1.70605 0
M  V30 7037 H 650.386 2.72673 -1.23653 0
M  V30 7038 H 647.932 1.31086 -0.596034 0
M  V30 7039 H 649.885 4.14797 0.743037 0
M  V30 7040 H 648.609 3.01545 1.25453 0
M  V30 7041 H 647.268 3.57704 -0.802704 0
M  V30 7042 H 646.916 4.85408 1.31863 0
M  V30 7043 H 646.616 5.87497 -0.110154 0
M  V30 7044 H 648.14 6.05268 0.805182 0
M  V30 7045 H 649.554 5.55655 -1.41141 0
M  V30 7046 H 647.951 5.58233 -2.20217 0
M  V30 7047 H 649.021 4.18926 -2.4419 0
M  V30 7048 N 650.364 0.662433 1.43002 0
M  V30 7049 C 651.641 0.109096 1.95296 0
M  V30 7050 C 652.021 -1.37313 1.60338 0
M  V30 7051 O 651.369 -2.1032 0.893187 0
M  V30 7052 C 651.579 0.365096 3.47085 0
M  V30 7053 C 652.927 0.274964 4.23709 0
M  V30 7054 O 653.951 0.29816 3.5495 0
M  V30 7055 O 652.81 0.206549 5.4611 0
M  V30 7056 H 649.904 -0.00429724 0.826989 0
M  V30 7057 H 652.45 0.736308 1.52894 0
M  V30 7058 H 651.222 1.39237 3.65689 0
M  V30 7059 H 650.845 -0.294733 3.96506 0
M  V30 7060 N 651.842 -1.52309 0.404946 0
M  V30 7061 C 653.089 -2.01767 -0.1722 0
M  V30 7062 C 653.417 -1.29075 -1.45498 0
M  V30 7063 O 652.672 -0.3843 -1.9189 0
M  V30 7064 C 652.971 -3.54284 -0.470895 0
M  V30 7065 C 652.637 -4.45079 0.722194 0
M  V30 7066 C 651.299 -4.69617 1.04946 0
M  V30 7067 C 653.651 -4.98555 1.51962 0
M  V30 7068 C 650.979 -5.44878 2.17543 0
M  V30 7069 C 653.331 -5.75049 2.63632 0
M  V30 7070 C 651.995 -5.9786 2.9685 0
M  V30 7071 H 651.265 -0.738316 -0.0630125 0
M  V30 7072 H 653.912 -1.83566 0.545506 0
M  V30 7073 H 652.217 -3.70642 -1.27012 0
M  V30 7074 H 653.914 -3.90058 -0.930346 0
M  V30 7075 H 650.504 -4.26155 0.457131 0
M  V30 7076 H 654.688 -4.79509 1.28002 0
M  V30 7077 H 649.944 -5.60762 2.43631 0
M  V30 7078 H 654.118 -6.15483 3.25813 0
M  V30 7079 H 651.745 -6.5596 3.84215 0
M  V30 7080 N 653.32 -0.135238 -1.57019 0
M  V30 7081 C 654.25 0.805235 -2.19176 0
M  V30 7082 C 655.231 1.2656 -1.13651 0
M  V30 7083 O 656.416 1.32528 -1.4195 0
M  V30 7084 C 653.546 2.04914 -2.80406 0
M  V30 7085 C 652.5 1.72598 -3.91655 0
M  V30 7086 C 651.826 3.04154 -4.39766 0
M  V30 7087 C 653.126 0.981709 -5.12991 0
M  V30 7088 H 654.82 0.287232 -2.98019 0
M  V30 7089 H 652.366 0.136714 -1.4335 0
M  V30 7090 H 654.319 2.71178 -3.22553 0
M  V30 7091 H 653.043 2.59067 -1.98877 0
M  V30 7092 H 651.702 1.08717 -3.50109 0
M  V30 7093 H 651.35 3.56274 -3.55075 0
M  V30 7094 H 651.05 2.83299 -5.14796 0
M  V30 7095 H 652.574 3.71509 -4.84576 0
M  V30 7096 H 653.988 1.5462 -5.52056 0
M  V30 7097 H 652.385 0.873533 -5.93708 0
M  V30 7098 H 653.455 -0.0286887 -4.84892 0
M  V30 7099 N 654.798 1.5699 0.138552 0
M  V30 7100 C 655.708 2.02174 1.19008 0
M  V30 7101 C 656.724 0.938622 1.46512 0
M  V30 7102 O 657.9 1.24872 1.58016 0
M  V30 7103 C 654.965 2.40045 2.50159 0
M  V30 7104 C 654.026 3.62346 2.30226 0
M  V30 7105 C 653.259 3.98401 3.55123 0
M  V30 7106 O 653.482 3.35019 4.61647 0
M  V30 7107 O 652.416 4.91606 3.47285 0
M  V30 7108 H 656.242 2.91954 0.836452 0
M  V30 7109 H 653.827 1.45293 0.347907 0
M  V30 7110 H 655.709 2.65225 3.27465 0
M  V30 7111 H 654.384 1.53417 2.85035 0
M  V30 7112 H 653.291 3.42341 1.50843 0
M  V30 7113 H 654.624 4.49617 2.00262 0
M  V30 7114 N 656.276 -0.40816 1.52223 0
M  V30 7115 C 657.186 -1.52202 1.78526 0
M  V30 7116 C 658.202 -1.60546 0.670892 0
M  V30 7117 O 659.378 -1.77242 0.956404 0
M  V30 7118 C 656.443 -2.87928 1.93128 0
M  V30 7119 C 655.504 -2.89463 3.17033 0
M  V30 7120 C 654.737 -4.18715 3.30929 0
M  V30 7121 O 654.96 -5.12662 2.50067 0
M  V30 7122 O 653.894 -4.27125 4.24084 0
M  V30 7123 H 657.72 -1.32911 2.73072 0
M  V30 7124 H 655.305 -0.594112 1.37079 0
M  V30 7125 H 657.187 -3.68426 2.04549 0
M  V30 7126 H 655.862 -3.07285 1.01772 0
M  V30 7127 H 654.769 -2.07815 3.11069 0
M  V30 7128 H 656.102 -2.75055 4.08174 0
M  V30 7129 N 657.755 -1.42862 -0.66545 0
M  V30 7130 C 659.001 -1.44043 -1.42757 0
M  V30 7131 C 659.334 -0.0599629 -1.94107 0
M  V30 7132 O 658.609 0.917286 -1.71511 0
M  V30 7133 C 658.892 -2.47266 -2.61786 0
M  V30 7134 C 658.745 -3.94539 -2.16007 0
M  V30 7135 C 660.064 -2.47365 -3.64003 0
M  V30 7136 H 657.183 -0.524506 -0.517748 0
M  V30 7137 H 659.825 -1.74335 -0.755466 0
M  V30 7138 H 657.975 -2.21565 -3.19126 0
M  V30 7139 H 659.647 -4.31254 -1.63762 0
M  V30 7140 H 657.89 -4.07957 -1.47491 0
M  V30 7141 H 658.561 -4.62357 -3.01546 0
M  V30 7142 H 661.037 -2.70243 -3.16399 0
M  V30 7143 H 659.913 -3.21552 -4.44854 0
M  V30 7144 H 660.174 -1.50299 -4.15767 0
M  V30 7145 N 659.233 0.902656 -1.29189 0
M  V30 7146 C 660.183 1.99326 -1.10695 0
M  V30 7147 C 661.167 1.60877 -0.0272521 0
M  V30 7148 O 662.359 1.75245 -0.248635 0
M  V30 7149 C 659.488 3.34265 -0.78244 0
M  V30 7150 C 658.574 3.79081 -1.90153 0
M  V30 7151 N 658.965 3.96162 -3.14466 0
M  V30 7152 C 657.263 4.08333 -1.79389 0
M  V30 7153 C 657.964 4.3388 -3.87458 0
M  V30 7154 N 656.94 4.42759 -3.15381 0
M  V30 7155 H 660.742 2.10597 -2.05003 0
M  V30 7156 H 658.256 1.09127 -1.20271 0
M  V30 7157 H 660.253 4.12097 -0.630996 0
M  V30 7158 H 658.913 3.2434 0.152754 0
M  V30 7159 H 659.924 3.81775 -3.49954 0
M  V30 7160 H 656.601 4.06982 -0.931217 0
M  V30 7161 H 657.991 4.54965 -4.94425 0
M  V30 7162 N 660.711 1.11618 1.11262 0
M  V30 7163 C 661.661 0.745274 2.15475 0
M  V30 7164 C 662.645 -0.251585 1.58921 0
M  V30 7165 O 663.837 -0.0584093 1.76904 0
M  V30 7166 C 660.966 0.192128 3.42762 0
M  V30 7167 C 660.052 1.21676 4.0627 0
M  V30 7168 N 660.443 2.41158 4.44608 0
M  V30 7169 C 658.741 1.06013 4.33217 0
M  V30 7170 C 659.442 3.0652 4.94389 0
M  V30 7171 N 658.418 2.33994 4.9066 0
M  V30 7172 H 662.22 1.65462 2.42898 0
M  V30 7173 H 659.734 0.995695 1.28295 0
M  V30 7174 H 661.731 -0.0917339 4.16799 0
M  V30 7175 H 660.391 -0.711778 3.16802 0
M  V30 7176 H 661.402 2.786 4.3658 0
M  V30 7177 H 658.079 0.212809 4.16957 0
M  V30 7178 H 659.469 4.08225 5.33669 0
M  V30 7179 N 662.189 -1.289 0.906776 0
M  V30 7180 C 663.136 -2.2751 0.388313 0
M  V30 7181 C 664.106 -1.57301 -0.533439 0
M  V30 7182 O 665.291 -1.85243 -0.457148 0
M  V30 7183 C 662.431 -3.43091 -0.37181 0
M  V30 7184 C 661.544 -4.28066 0.581647 0
M  V30 7185 C 660.679 -5.30837 -0.19623 0
M  V30 7186 C 659.718 -6.07472 0.751294 0
M  V30 7187 N 658.855 -7.021 0.00737727 0
M  V30 7188 H 663.695 -2.71237 1.23428 0
M  V30 7189 H 661.232 -1.33397 0.619962 0
M  V30 7190 H 663.19 -4.08888 -0.828641 0
M  V30 7191 H 661.82 -3.00374 -1.18218 0
M  V30 7192 H 660.872 -3.62378 1.157 0
M  V30 7193 H 662.184 -4.81382 1.30665 0
M  V30 7194 H 661.338 -6.02485 -0.71394 0
M  V30 7195 H 660.077 -4.78272 -0.954324 0
M  V30 7196 H 659.082 -5.34682 1.28044 0
M  V30 7197 H 660.307 -6.62126 1.50883 0
M  V30 7198 H 658.253 -6.51894 -0.732854 0
M  V30 7199 H 658.17 -7.53004 0.672334 0
M  V30 7200 H 659.438 -7.77956 -0.490365 0
M  V30 7201 N 663.667 -0.670007 -1.42649 0
M  V30 7202 C 664.599 0.0501746 -2.29145 0
M  V30 7203 C 665.612 0.770331 -1.43422 0
M  V30 7204 O 666.801 0.625288 -1.6719 0
M  V30 7205 C 663.901 1.09463 -3.20735 0
M  V30 7206 C 663.074 0.44926 -4.35087 0
M  V30 7207 C 662.133 1.39285 -5.07431 0
M  V30 7208 O 661.159 0.894997 -5.6212 0
M  V30 7209 N 662.361 2.72631 -5.12496 0
M  V30 7210 H 665.126 -0.692312 -2.91594 0
M  V30 7211 H 662.687 -0.514056 -1.53522 0
M  V30 7212 H 664.679 1.72705 -3.65999 0
M  V30 7213 H 663.249 1.73891 -2.59771 0
M  V30 7214 H 662.469 -0.362573 -3.92529 0
M  V30 7215 H 663.757 -0.000544776 -5.088 0
M  V30 7216 H 663.155 3.15623 -4.69467 0
M  V30 7217 H 661.712 3.31132 -5.61422 0
M  V30 7218 N 665.145 1.52092 -0.413018 0
M  V30 7219 C 666.055 2.30858 0.417318 0
M  V30 7220 C 667.071 1.38746 1.05003 0
M  V30 7221 O 668.247 1.71821 1.05069 0
M  V30 7222 C 665.312 3.11756 1.51687 0
M  V30 7223 C 664.373 4.19613 0.906825 0
M  V30 7224 C 663.606 4.96644 1.95399 0
M  V30 7225 O 663.829 4.7402 3.17271 0
M  V30 7226 O 662.763 5.81385 1.55805 0
M  V30 7227 H 666.589 3.02865 -0.225028 0
M  V30 7228 H 664.174 1.48358 -0.176126 0
M  V30 7229 H 666.056 3.62122 2.15512 0
M  V30 7230 H 664.731 2.42539 2.14375 0
M  V30 7231 H 663.638 3.73385 0.231183 0
M  V30 7232 H 664.971 4.91134 0.323814 0
M  V30 7233 N 666.623 0.143563 1.56945 0
M  V30 7234 C 667.848 -0.518701 2.00809 0
M  V30 7235 C 668.273 -1.5785 1.02298 0
M  V30 7236 O 667.631 -1.813 -0.0017839 0
M  V30 7237 C 667.679 -1.09929 3.43436 0
M  V30 7238 O 666.783 -2.21425 3.47915 0
M  V30 7239 H 666.124 -0.127215 0.6517 0
M  V30 7240 H 668.654 0.239283 2.03196 0
M  V30 7241 H 668.664 -1.4288 3.82164 0
M  V30 7242 H 667.339 -0.323162 4.14643 0
M  V30 7243 H 665.916 -1.89728 3.21026 0
M  V30 7244 N 668.101 -1.57061 -0.130224 0
M  V30 7245 C 669.35 -1.83446 -0.838488 0
M  V30 7246 C 669.663 -0.727468 -1.81569 0
M  V30 7247 O 670.869 -0.877394 -2.56932 0
M  V30 7248 C 669.325 -3.25201 -1.54182 0
M  V30 7249 C 668.933 -4.4388 -0.606178 0
M  V30 7250 C 670.677 -3.60844 -2.23588 0
M  V30 7251 C 668.584 -5.76661 -1.31209 0
M  V30 7252 H 667.514 -0.684185 -0.316871 0
M  V30 7253 H 670.165 -1.83273 -0.0912059 0
M  V30 7254 H 668.547 -3.1981 -2.33533 0
M  V30 7255 H 669.721 -4.60545 0.153308 0
M  V30 7256 H 668.036 -4.16395 -0.0196705 0
M  V30 7257 H 670.633 -4.57313 -2.77072 0
M  V30 7258 H 670.976 -2.87724 -3.00867 0
M  V30 7259 H 671.509 -3.67971 -1.51137 0
M  V30 7260 H 668.248 -6.52922 -0.580823 0
M  V30 7261 H 667.768 -5.63902 -2.04387 0
M  V30 7262 H 669.447 -6.20035 -1.8484 0
M  V30 7263 N 669.579 0.400081 -1.52437 0
M  V30 7264 C 670.512 1.50929 -1.7116 0
M  V30 7265 C 671.49 1.52679 -0.559275 0
M  V30 7266 O 672.674 1.71251 -0.787735 0
M  V30 7267 C 669.801 2.89433 -1.75915 0
M  V30 7268 C 668.847 3.05556 -2.97553 0
M  V30 7269 S 669.68 2.77919 -4.57735 0
M  V30 7270 C 670.836 4.18636 -4.6529 0
M  V30 7271 H 671.069 1.3482 -2.64973 0
M  V30 7272 H 668.602 0.592245 -1.4259 0
M  V30 7273 H 670.56 3.69253 -1.7934 0
M  V30 7274 H 669.221 3.02877 -0.832137 0
M  V30 7275 H 668.414 4.0691 -2.97388 0
M  V30 7276 H 668.016 2.33615 -2.92062 0
M  V30 7277 H 670.308 5.12406 -4.43223 0
M  V30 7278 H 671.251 4.23821 -5.67258 0
M  V30 7279 H 671.659 4.04029 -3.94234 0
M  V30 7280 N 671.057 1.43213 0.657864 0
M  V30 7281 C 672.334 1.35063 1.41483 0
M  V30 7282 C 672.714 -0.0038314 2.111 0
M  V30 7283 O 672.062 -1.02018 2.04462 0
M  V30 7284 C 672.272 2.53061 2.40335 0
M  V30 7285 C 673.62 2.9594 3.04474 0
M  V30 7286 O 674.644 2.53074 2.50663 0
M  V30 7287 O 673.503 3.70184 4.02027 0
M  V30 7288 H 670.597 0.533517 0.631893 0
M  V30 7289 H 673.143 1.55253 0.685162 0
M  V30 7290 H 671.915 3.43283 1.87809 0
M  V30 7291 H 671.538 2.34945 3.20759 0
M  V30 7292 N 672.536 -0.895792 1.29666 0
M  V30 7293 C 673.499 -1.98189 1.15124 0
M  V30 7294 C 674.499 -1.60572 0.0855717 0
M  V30 7295 O 675.689 -1.70991 0.332826 0
M  V30 7296 C 672.821 -3.32289 0.761372 0
M  V30 7297 H 674.014 -2.12518 2.11603 0
M  V30 7298 H 671.567 -1.0808 1.12908 0
M  V30 7299 H 672.302 -3.23662 -0.203393 0
M  V30 7300 H 672.087 -3.60958 1.53139 0
M  V30 7301 H 673.577 -4.1198 0.682792 0
M  V30 7302 N 674.014 -1.12206 -1.10668 0
M  V30 7303 C 675.262 -0.874144 -1.82217 0
M  V30 7304 C 675.583 0.601736 -1.85484 0
M  V30 7305 O 674.853 1.43725 -1.33116 0
M  V30 7306 H 673.433 -0.320404 -0.674797 0
M  V30 7307 H 676.095 -1.41606 -1.33917 0
M  V30 7308 H 675.191 -1.25349 -2.85822 0
M  V30 7309 N 675.492 1.28418 -0.913599 0
M  V30 7310 C 676.903 1.77024 -0.593237 0
M  V30 7311 C 677.254 1.74779 0.891441 0
M  V30 7312 O 676.379 1.34237 1.69733 0
M  V30 7313 C 676.974 3.21456 -1.07011 0
M  V30 7314 C 675.533 3.67786 -0.800664 0
M  V30 7315 C 674.68 2.48185 -1.23691 0
M  V30 7316 H 677.631 1.14883 -1.09487 0
M  V30 7317 H 677.652 3.78269 -0.411481 0
M  V30 7318 H 677.164 3.23058 -2.1507 0
M  V30 7319 H 675.265 3.71644 0.266725 0
M  V30 7320 H 675.378 4.57934 -1.4083 0
M  V30 7321 H 673.742 2.46116 -0.655655 0
M  V30 7322 H 674.525 2.52506 -2.32585 0
M  V30 7323 N 676.97 0.677563 1.42291 0
M  V30 7324 C 678.216 0.201272 2.01799 0
M  V30 7325 C 678.549 -1.19004 1.53465 0
M  V30 7326 O 677.824 -1.79953 0.738039 0
M  V30 7327 C 678.107 0.238968 3.59306 0
M  V30 7328 C 677.96 1.66594 4.17812 0
M  V30 7329 C 679.279 -0.411287 4.38174 0
M  V30 7330 H 676.398 0.0746114 0.733214 0
M  V30 7331 H 679.04 0.862872 1.69276 0
M  V30 7332 H 677.19 -0.324368 3.87144 0
M  V30 7333 H 678.862 2.28173 4.00917 0
M  V30 7334 H 677.105 2.20576 3.73536 0
M  V30 7335 H 677.776 1.64398 5.26951 0
M  V30 7336 H 680.252 0.0682804 4.16044 0
M  V30 7337 H 679.128 -0.354286 5.47755 0
M  V30 7338 H 679.389 -1.4893 4.1626 0
M  V30 7339 N 678.448 -1.51871 0.421078 0
M  V30 7340 C 679.694 -2.02237 -0.151014 0
M  V30 7341 C 680.027 -1.30554 -1.43768 0
M  V30 7342 O 679.302 -0.41546 -1.90011 0
M  V30 7343 C 679.585 -3.5802 -0.386482 0
M  V30 7344 C 679.438 -4.40339 0.9177 0
M  V30 7345 C 680.757 -4.24444 -1.16342 0
M  V30 7346 H 677.876 -0.735062 -0.0534102 0
M  V30 7347 H 680.518 -1.81656 0.556888 0
M  V30 7348 H 678.668 -3.75688 -0.989494 0
M  V30 7349 H 680.34 -4.34357 1.55344 0
M  V30 7350 H 678.583 -4.06073 1.526 0
M  V30 7351 H 679.254 -5.47451 0.707187 0
M  V30 7352 H 681.73 -4.10948 -0.652788 0
M  V30 7353 H 680.606 -5.33358 -1.29693 0
M  V30 7354 H 680.867 -3.84204 -2.18724 0
M  V30 7355 N 679.926 -0.151884 -1.56866 0
M  V30 7356 C 681.172 0.498742 -1.96572 0
M  V30 7357 C 681.505 1.64194 -1.03702 0
M  V30 7358 O 680.78 1.94334 -0.0803432 0
M  V30 7359 C 681.063 1.00027 -3.45929 0
M  V30 7360 C 680.916 -0.141767 -4.49577 0
M  V30 7361 C 682.235 1.88044 -3.97904 0
M  V30 7362 H 679.354 0.17982 -0.714726 0
M  V30 7363 H 681.996 -0.234097 -1.88552 0
M  V30 7364 H 680.146 1.62476 -3.52894 0
M  V30 7365 H 681.818 -0.778269 -4.54687 0
M  V30 7366 H 680.061 -0.80019 -4.26356 0
M  V30 7367 H 680.732 0.250947 -5.51429 0
M  V30 7368 H 683.208 1.35416 -3.93449 0
M  V30 7369 H 682.084 2.20043 -5.02864 0
M  V30 7370 H 682.345 2.81916 -3.40552 0
M  V30 7371 N 681.404 1.57128 0.121893 0
M  V30 7372 C 682.354 1.96556 1.15541 0
M  V30 7373 C 683.338 0.840147 1.37224 0
M  V30 7374 O 684.53 1.10382 1.38365 0
M  V30 7375 C 681.659 2.37097 2.48274 0
M  V30 7376 C 680.745 3.56265 2.30078 0
M  V30 7377 N 681.136 4.72041 1.81688 0
M  V30 7378 C 679.434 3.61841 2.60744 0
M  V30 7379 C 680.135 5.54075 1.77132 0
M  V30 7380 N 679.111 4.96483 2.21371 0
M  V30 7381 H 682.913 2.83531 0.77378 0
M  V30 7382 H 680.427 1.59019 0.329672 0
M  V30 7383 H 682.424 2.6356 3.2302 0
M  V30 7384 H 681.084 1.51486 2.87197 0
M  V30 7385 H 682.095 4.95313 1.51278 0
M  V30 7386 H 678.772 2.8683 3.03373 0
M  V30 7387 H 680.162 6.56939 1.40998 0
M  V30 7388 N 682.882 -0.391992 1.52647 0
M  V30 7389 C 684.122 -1.1463 1.69232 0
M  V30 7390 C 684.486 -1.87312 0.421684 0
M  V30 7391 O 685.687 -2.64768 0.463852 0
M  V30 7392 C 683.958 -2.10088 2.89133 0
M  V30 7393 S 685.517 -2.93395 3.2629 0
M  V30 7394 H 682.335 -0.388076 0.59575 0
M  V30 7395 H 684.937 -0.431149 1.90687 0
M  V30 7396 H 683.641 -1.55408 3.79837 0
M  V30 7397 H 683.172 -2.86116 2.70003 0
M  V30 7398 H 685.187 -4.12193 2.76244 0
M  V30 7399 N 684.36 -1.4356 -0.65026 0
M  V30 7400 C 685.585 -1.48995 -1.44275 0
M  V30 7401 C 686.01 -0.109954 -1.87778 0
M  V30 7402 O 685.368 0.896926 -1.57559 0
M  V30 7403 C 685.416 -2.44341 -2.65198 0
M  V30 7404 O 684.52 -1.93172 -3.6436 0
M  V30 7405 H 683.861 -0.503852 -0.432469 0
M  V30 7406 H 686.391 -1.88504 -0.795446 0
M  V30 7407 H 686.401 -2.61743 -3.12977 0
M  V30 7408 H 685.076 -3.44588 -2.32877 0
M  V30 7409 H 683.653 -1.85445 -3.23519 0
M  V30 7410 N 685.838 0.888903 -1.30139 0
M  V30 7411 C 686.801 1.97576 -1.16174 0
M  V30 7412 C 687.801 1.60525 -0.094086 0
M  V30 7413 O 688.991 1.70812 -0.341889 0
M  V30 7414 C 686.123 3.3188 -0.778983 0
M  V30 7415 H 687.316 2.11393 -2.12728 0
M  V30 7416 H 684.869 1.0748 -1.1348 0
M  V30 7417 H 685.604 3.23765 0.186225 0
M  V30 7418 H 685.389 3.60141 -1.55051 0
M  V30 7419 H 686.879 4.11612 -0.704631 0
M  V30 7420 N 687.317 1.12792 1.10072 0
M  V30 7421 C 688.565 0.883796 1.81751 0
M  V30 7422 C 688.886 -0.591891 1.858 0
M  V30 7423 O 688.156 -1.43017 1.33876 0
M  V30 7424 H 686.736 0.323978 0.673088 0
M  V30 7425 H 689.398 1.42314 1.33164 0
M  V30 7426 H 688.494 1.26863 2.85153 0
M  V30 7427 N 688.795 -1.27931 0.920396 0
M  V30 7428 C 690.044 -1.93975 0.552867 0
M  V30 7429 C 690.357 -1.73193 -0.909035 0
M  V30 7430 O 691.563 -2.33515 -1.38502 0
M  V30 7431 C 690.019 -3.47463 0.937947 0
M  V30 7432 C 689.627 -3.77013 2.42003 0
M  V30 7433 C 691.371 -4.19628 0.64132 0
M  V30 7434 C 689.278 -5.23841 2.74489 0
M  V30 7435 H 688.208 -0.726146 0.203046 0
M  V30 7436 H 690.859 -1.45339 1.12022 0
M  V30 7437 H 689.241 -3.94867 0.299317 0
M  V30 7438 H 690.415 -3.40393 3.10595 0
M  V30 7439 H 688.73 -3.18035 2.6878 0
M  V30 7440 H 691.327 -5.27729 0.860622 0
M  V30 7441 H 691.67 -4.14164 -0.421168 0
M  V30 7442 H 692.203 -3.78022 1.23872 0
M  V30 7443 H 688.942 -5.34388 3.79618 0
M  V30 7444 H 688.462 -5.61634 2.1054 0
M  V30 7445 H 690.141 -5.91647 2.61845 0
M  V30 7446 N 690.273 -0.685099 -1.4193 0
M  V30 7447 C 691.521 -0.21124 -2.00993 0
M  V30 7448 C 691.842 1.18985 -1.54491 0
M  V30 7449 O 691.112 1.8009 -0.771 0
M  V30 7450 H 689.692 -0.0751059 -0.743215 0
M  V30 7451 H 692.354 -0.883915 -1.73704 0
M  V30 7452 H 691.45 -0.220513 -3.1132 0
M  V30 7453 N 691.751 1.51645 -0.429126 0
M  V30 7454 C 693.167 1.59394 -0.080994 0
M  V30 7455 C 693.367 1.44064 1.40882 0
M  V30 7456 O 692.423 1.27771 2.17786 0
M  V30 7457 C 693.736 2.94779 -0.593773 0
M  V30 7458 C 695.284 3.08067 -0.553494 0
M  V30 7459 C 695.759 4.45963 -1.04311 0
M  V30 7460 N 697.25 4.5226 -1.00076 0
M  V30 7461 C 697.985 5.57268 -1.35056 0
M  V30 7462 N 697.481 6.69734 -1.77282 0
M  V30 7463 N 699.274 5.47582 -1.26925 0
M  V30 7464 H 691.425 1.59856 -1.39857 0
M  V30 7465 H 693.688 0.753095 -0.575805 0
M  V30 7466 H 693.394 3.11342 -1.63583 0
M  V30 7467 H 693.268 3.77197 -0.0142202 0
M  V30 7468 H 695.655 2.91177 0.479556 0
M  V30 7469 H 695.736 2.27508 -1.16935 0
M  V30 7470 H 695.38 4.63598 -2.07459 0
M  V30 7471 H 695.31 5.25049 -0.403873 0
M  V30 7472 H 697.801 3.71537 -0.690564 0
M  V30 7473 H 698.114 7.4587 -2.02232 0
M  V30 7474 H 696.459 6.70963 -1.81202 0
M  V30 7475 H 699.65 4.58604 -0.93809 0
M  V30 7476 H 699.823 6.29308 -1.54516 0
M  V30 7477 N 693.229 0.160201 1.56784 0
M  V30 7478 C 694.457 -0.494165 2.00912 0
M  V30 7479 C 694.872 -1.57548 1.04038 0
M  V30 7480 O 694.229 -1.82457 0.0394581 0
M  V30 7481 C 694.28 -1.08271 3.44905 0
M  V30 7482 O 694.001 -0.0445704 4.38077 0
M  V30 7483 C 695.502 -1.8164 4.04378 0
M  V30 7484 H 692.722 -0.127498 0.658776 0
M  V30 7485 H 695.266 0.258665 2.02858 0
M  V30 7486 H 693.421 -1.78609 3.4377 0
M  V30 7487 H 693.835 -0.477544 5.22322 0
M  V30 7488 H 695.309 -2.18094 5.07089 0
M  V30 7489 H 695.786 -2.70727 3.45838 0
M  V30 7490 H 696.392 -1.15969 4.09184 0
M  V30 7491 N 694.707 -1.5719 -0.113559 0
M  V30 7492 C 695.955 -1.84772 -0.818761 0
M  V30 7493 C 696.276 -0.746196 -1.80158 0
M  V30 7494 O 695.546 0.229305 -1.94553 0
M  V30 7495 H 694.126 -0.681737 -0.305359 0
M  V30 7496 H 696.788 -1.94645 -0.0995845 0
M  V30 7497 H 695.884 -2.80878 -1.36067 0
M  V30 7498 N 696.185 0.383891 -1.52853 0
M  V30 7499 C 697.413 1.1495 -1.7203 0
M  V30 7500 C 697.828 1.83578 -0.440957 0
M  V30 7501 O 697.185 1.72872 0.584925 0
M  V30 7502 C 697.236 2.19368 -2.87333 0
M  V30 7503 O 696.957 1.53536 -4.10315 0
M  V30 7504 C 698.458 3.08616 -3.18231 0
M  V30 7505 H 695.678 0.344445 -0.575846 0
M  V30 7506 H 698.222 0.448397 -1.99524 0
M  V30 7507 H 696.377 2.85105 -2.62286 0
M  V30 7508 H 696.791 2.2296 -4.74752 0
M  V30 7509 H 698.265 3.77902 -4.02361 0
M  V30 7510 H 698.742 3.72409 -2.32826 0
M  V30 7511 H 699.348 2.48518 -3.45136 0
M  V30 7512 N 697.663 1.43903 0.642637 0
M  V30 7513 C 698.91 1.46079 1.40239 0
M  V30 7514 C 699.238 0.0890335 1.94296 0
M  V30 7515 O 698.493 -0.907533 1.73385 0
M  V30 7516 C 698.792 2.45907 2.59354 0
M  V30 7517 C 698.458 3.91522 2.23654 0
M  V30 7518 C 697.12 4.31179 2.1363 0
M  V30 7519 C 699.472 4.83242 1.95261 0
M  V30 7520 C 696.8 5.60495 1.73384 0
M  V30 7521 C 699.152 6.12933 1.56511 0
M  V30 7522 C 697.816 6.51556 1.4502 0
M  V30 7523 H 697.086 0.534542 0.513172 0
M  V30 7524 H 699.733 1.77047 0.72984 0
M  V30 7525 H 698.038 2.08381 3.3179 0
M  V30 7526 H 699.735 2.44842 3.17574 0
M  V30 7527 H 696.325 3.60142 2.32369 0
M  V30 7528 H 700.509 4.53367 2.0192 0
M  V30 7529 H 695.765 5.89249 1.63082 0
M  V30 7530 H 699.939 6.83469 1.33576 0
M  V30 7531 H 697.566 7.51663 1.13606 0
M  V30 7532 N 699.141 -0.881989 1.30609 0
M  V30 7533 C 700.39 -1.62878 1.18969 0
M  V30 7534 C 700.703 -1.93946 -0.253859 0
M  V30 7535 O 701.909 -2.67008 -0.491813 0
M  V30 7536 C 700.365 -2.93573 2.0819 0
M  V30 7537 C 699.973 -2.70034 3.57471 0
M  V30 7538 C 701.717 -3.71543 2.0532 0
M  V30 7539 C 699.624 -3.96563 4.38739 0
M  V30 7540 H 698.554 -0.611092 0.441682 0
M  V30 7541 H 701.205 -0.976201 1.55379 0
M  V30 7542 H 699.587 -3.6014 1.64666 0
M  V30 7543 H 700.761 -2.11949 4.09163 0
M  V30 7544 H 699.076 -2.05435 3.62195 0
M  V30 7545 H 701.673 -4.65386 2.63288 0
M  V30 7546 H 702.016 -4.03167 1.03739 0
M  V30 7547 H 702.549 -3.11842 2.46981 0
M  V30 7548 H 699.288 -3.70095 5.41027 0
M  V30 7549 H 698.808 -4.54142 3.9181 0
M  V30 7550 H 700.487 -4.64557 4.50329 0
M  V30 7551 N 700.619 -1.13374 -1.09472 0
M  V30 7552 C 701.865 -0.896516 -1.81908 0
M  V30 7553 C 702.198 0.575933 -1.85463 0
M  V30 7554 O 701.473 1.42618 -1.32251 0
M  V30 7555 C 701.756 -1.48445 -3.28079 0
M  V30 7556 C 701.609 -3.02598 -3.32798 0
M  V30 7557 C 702.928 -1.15226 -4.24748 0
M  V30 7558 H 700.047 -0.327127 -0.660422 0
M  V30 7559 H 702.689 -1.40195 -1.2824 0
M  V30 7560 H 700.839 -1.0546 -3.73912 0
M  V30 7561 H 702.511 -3.54335 -2.95372 0
M  V30 7562 H 700.754 -3.37613 -2.72397 0
M  V30 7563 H 701.425 -3.38835 -4.3577 0
M  V30 7564 H 703.901 -1.52369 -3.87199 0
M  V30 7565 H 702.777 -1.59012 -5.25363 0
M  V30 7566 H 703.038 -0.0658891 -4.42051 0
M  V30 7567 N 702.098 1.27442 -0.927168 0
M  V30 7568 C 703.347 1.93679 -0.563146 0
M  V30 7569 C 703.66 1.73673 0.899837 0
M  V30 7570 O 704.866 2.34247 1.37262 0
M  V30 7571 C 703.322 3.46961 -0.95636 0
M  V30 7572 C 702.93 3.75724 -2.43999 0
M  V30 7573 C 704.674 4.19282 -0.663565 0
M  V30 7574 C 702.581 5.22378 -2.77263 0
M  V30 7575 H 701.511 0.725059 -0.206894 0
M  V30 7576 H 704.162 1.44743 -1.12791 0
M  V30 7577 H 702.544 3.94703 -0.320254 0
M  V30 7578 H 703.718 3.38741 -3.12396 0
M  V30 7579 H 702.033 3.16605 -2.70463 0
M  V30 7580 H 704.63 5.27265 -0.888596 0
M  V30 7581 H 704.973 4.14382 0.399198 0
M  V30 7582 H 705.506 3.7736 -1.25875 0
M  V30 7583 H 702.245 5.32367 -3.82446 0
M  V30 7584 H 701.765 5.6051 -2.13516 0
M  V30 7585 H 703.444 5.9025 -2.64979 0
M  V30 7586 N 703.576 0.692616 1.41565 0
M  V30 7587 C 704.853 0.150496 1.9502 0
M  V30 7588 C 705.233 -1.33881 1.63215 0
M  V30 7589 O 704.581 -2.08378 0.937598 0
M  V30 7590 C 704.791 0.438636 3.46233 0
M  V30 7591 C 706.139 0.364777 4.2303 0
M  V30 7592 O 707.163 0.373383 3.54238 0
M  V30 7593 O 706.022 0.32234 5.45549 0
M  V30 7594 H 703.116 0.0132454 0.826894 0
M  V30 7595 H 705.662 0.768574 1.51298 0
M  V30 7596 H 704.434 1.46962 3.62654 0
M  V30 7597 H 704.057 -0.210562 3.97042 0
M  V30 7598 N 705.054 -1.51416 0.437162 0
M  V30 7599 C 706.303 -2.01275 -0.130865 0
M  V30 7600 C 706.616 -1.32593 -1.438 0
M  V30 7601 O 707.822 -1.7342 -2.08897 0
M  V30 7602 C 706.278 -3.5878 -0.283763 0
M  V30 7603 C 705.886 -4.36399 1.01293 0
M  V30 7604 C 707.63 -4.16786 -0.805569 0
M  V30 7605 C 705.537 -5.85608 0.825687 0
M  V30 7606 H 704.467 -0.752157 -0.0526818 0
M  V30 7607 H 707.118 -1.74524 0.566896 0
M  V30 7608 H 705.5 -3.81976 -1.04452 0
M  V30 7609 H 706.674 -4.24948 1.78201 0
M  V30 7610 H 704.989 -3.89843 1.46326 0
M  V30 7611 H 707.586 -5.25972 -0.962146 0
M  V30 7612 H 707.929 -3.75949 -1.78796 0
M  V30 7613 H 708.462 -3.97666 -0.103125 0
M  V30 7614 H 705.201 -6.30857 1.78045 0
M  V30 7615 H 704.721 -5.99723 0.0964029 0
M  V30 7616 H 706.4 -6.45226 0.478815 0
M  V30 7617 N 706.532 -0.168513 -1.56696 0
M  V30 7618 C 707.462 0.758563 -2.20835 0
M  V30 7619 C 708.443 1.24121 -1.1631 0
M  V30 7620 O 709.628 1.29487 -1.4473 0
M  V30 7621 C 706.758 1.9892 -2.8469 0
M  V30 7622 C 705.712 1.64252 -3.95228 0
M  V30 7623 C 705.038 2.94757 -4.46119 0
M  V30 7624 C 706.338 0.872675 -5.14958 0
M  V30 7625 H 708.032 0.223953 -2.98561 0
M  V30 7626 H 705.578 0.106277 -1.43607 0
M  V30 7627 H 707.531 2.64275 -3.28233 0
M  V30 7628 H 706.255 2.5479 -2.04327 0
M  V30 7629 H 704.914 1.01266 -3.52336 0
M  V30 7630 H 704.562 3.48662 -3.62552 0
M  V30 7631 H 704.262 2.72316 -5.2069 0
M  V30 7632 H 705.786 3.61147 -4.92347 0
M  V30 7633 H 707.2 1.42875 -5.55211 0
M  V30 7634 H 705.597 0.747402 -5.95428 0
M  V30 7635 H 706.667 -0.131535 -4.84722 0
M  V30 7636 N 708.01 1.57248 0.105221 0
M  V30 7637 C 709.259 1.84756 0.809198 0
M  V30 7638 C 709.572 0.756262 1.80389 0
M  V30 7639 O 710.778 0.918158 2.55504 0
M  V30 7640 C 709.234 3.27613 1.48989 0
M  V30 7641 C 708.842 4.44788 0.535484 0
M  V30 7642 C 710.586 3.64356 2.17819 0
M  V30 7643 C 708.493 5.78676 1.22019 0
M  V30 7644 H 707.423 0.689139 0.305946 0
M  V30 7645 H 710.074 1.83395 0.0620371 0
M  V30 7646 H 708.456 3.23485 2.28415 0
M  V30 7647 H 709.63 4.60243 -0.226557 0
M  V30 7648 H 707.945 4.16374 -0.0465769 0
M  V30 7649 H 710.542 4.61663 2.69761 0
M  V30 7650 H 710.885 2.92474 2.96251 0
M  V30 7651 H 711.418 3.70328 1.45264 0
M  V30 7652 H 708.157 6.53763 0.476875 0
M  V30 7653 H 707.677 5.67083 1.9539 0
M  V30 7654 H 709.356 6.22897 1.74952 0
M  V30 7655 N 709.488 -0.375779 1.53054 0
M  V30 7656 C 710.765 -1.13453 1.59336 0
M  V30 7657 C 711.145 -2.07379 0.394614 0
M  V30 7658 O 710.493 -2.2004 -0.616 0
M  V30 7659 C 710.703 -1.8826 2.93869 0
M  V30 7660 C 712.051 -2.43155 3.48081 0
M  V30 7661 O 713.075 -1.984 2.95831 0
M  V30 7662 O 711.934 -3.24944 4.39401 0
M  V30 7663 H 709.028 -0.519856 0.643179 0
M  V30 7664 H 711.574 -0.379865 1.65394 0
M  V30 7665 H 710.346 -1.19652 3.72558 0
M  V30 7666 H 709.969 -2.70658 2.91256 0
M  V30 7667 N 710.966 -1.44241 -0.634997 0
M  V30 7668 C 712.215 -1.46102 -1.39058 0
M  V30 7669 C 712.528 -0.0959909 -1.95364 0
M  V30 7670 O 713.734 0.00788751 -2.71499 0
M  V30 7671 C 712.19 -2.57195 -2.51751 0
M  V30 7672 C 711.798 -3.99888 -2.01974 0
M  V30 7673 C 713.542 -2.68272 -3.28984 0
M  V30 7674 C 711.449 -5.02412 -3.11987 0
M  V30 7675 H 710.379 -0.543556 -0.522554 0
M  V30 7676 H 713.03 -1.70294 -0.683538 0
M  V30 7677 H 711.412 -2.26237 -3.25012 0
M  V30 7678 H 712.586 -4.40396 -1.35604 0
M  V30 7679 H 710.901 -3.93019 -1.37568 0
M  V30 7680 H 713.498 -3.42042 -4.10988 0
M  V30 7681 H 713.841 -1.73957 -3.78212 0
M  V30 7682 H 714.374 -2.98622 -2.62812 0
M  V30 7683 H 711.113 -5.98342 -2.67707 0
M  V30 7684 H 710.633 -4.66501 -3.77011 0
M  V30 7685 H 712.312 -5.25939 -3.76825 0
M  V30 7686 N 712.444 0.87505 -1.31075 0
M  V30 7687 C 713.693 1.62245 -1.19831 0
M  V30 7688 C 714.006 1.94078 0.24357 0
M  V30 7689 O 715.212 2.67265 0.477646 0
M  V30 7690 C 713.668 2.92464 -2.09744 0
M  V30 7691 C 713.276 2.68134 -3.58898 0
M  V30 7692 C 715.02 3.70449 -2.07287 0
M  V30 7693 C 712.927 3.9423 -4.40836 0
M  V30 7694 H 711.857 0.608741 -0.444916 0
M  V30 7695 H 714.508 0.967947 -1.55894 0
M  V30 7696 H 712.89 3.59262 -1.66574 0
M  V30 7697 H 714.064 2.09776 -4.10281 0
M  V30 7698 H 712.379 2.03511 -3.6328 0
M  V30 7699 H 714.976 4.63983 -2.65752 0
M  V30 7700 H 715.319 4.02611 -1.05876 0
M  V30 7701 H 715.852 3.10528 -2.48631 0
M  V30 7702 H 712.591 3.67221 -5.42982 0
M  V30 7703 H 712.111 4.52058 -3.94213 0
M  V30 7704 H 713.79 4.62162 -4.52786 0
M  V30 7705 N 713.922 1.13953 1.08869 0
M  V30 7706 C 715.338 0.878924 1.33218 0
M  V30 7707 C 715.538 -0.482478 1.95638 0
M  V30 7708 O 714.594 -1.22778 2.2064 0
M  V30 7709 C 715.907 2.00798 2.23832 0
M  V30 7710 C 717.455 2.04073 2.37325 0
M  V30 7711 C 717.93 3.16258 3.31278 0
M  V30 7712 N 719.421 3.15805 3.38853 0
M  V30 7713 C 720.156 3.99249 4.11567 0
M  V30 7714 N 719.652 4.92721 4.87029 0
M  V30 7715 N 721.445 3.87327 4.0735 0
M  V30 7716 H 713.596 2.01645 0.66731 0
M  V30 7717 H 715.859 0.878395 0.356547 0
M  V30 7718 H 715.565 2.98986 1.85203 0
M  V30 7719 H 715.439 1.92704 3.24261 0
M  V30 7720 H 717.826 1.06495 2.75214 0
M  V30 7721 H 717.907 2.16239 1.36654 0
M  V30 7722 H 717.551 4.14079 2.9411 0
M  V30 7723 H 717.481 3.0133 4.31866 0
M  V30 7724 H 719.972 2.48102 2.8505 0
M  V30 7725 H 720.285 5.52867 5.39961 0
M  V30 7726 H 718.63 4.96723 4.86098 0
M  V30 7727 H 721.821 3.13627 3.475 0
M  V30 7728 H 721.994 4.52585 4.63757 0
M  V30 7729 N 715.4 -1.26948 0.933913 0
M  V30 7730 C 716.31 -2.30366 0.443671 0
M  V30 7731 C 717.326 -1.67284 -0.478745 0
M  V30 7732 O 718.502 -1.98156 -0.360043 0
M  V30 7733 C 715.567 -3.45485 -0.289974 0
M  V30 7734 C 714.628 -4.24069 0.668114 0
M  V30 7735 C 713.861 -5.33691 -0.0306138 0
M  V30 7736 O 714.084 -5.5656 -1.24888 0
M  V30 7737 O 713.018 -5.98441 0.644384 0
M  V30 7738 H 716.844 -2.74349 1.30254 0
M  V30 7739 H 714.429 -1.32012 0.699506 0
M  V30 7740 H 716.311 -4.15486 -0.70353 0
M  V30 7741 H 714.986 -3.03546 -1.12435 0
M  V30 7742 H 713.893 -3.56579 1.13147 0
M  V30 7743 H 715.226 -4.69739 1.46989 0
M  V30 7744 N 716.879 -0.700114 -1.41195 0
M  V30 7745 C 717.826 -0.0376652 -2.30769 0
M  V30 7746 C 718.796 0.766544 -1.47354 0
M  V30 7747 O 719.981 0.73365 -1.76131 0
M  V30 7748 C 717.121 0.889452 -3.33441 0
M  V30 7749 C 716.234 0.076373 -4.31932 0
M  V30 7750 C 715.369 1.00155 -5.21673 0
M  V30 7751 C 714.408 0.181644 -6.1183 0
M  V30 7752 N 713.545 1.06087 -6.94039 0
M  V30 7753 H 718.385 -0.80726 -2.86858 0
M  V30 7754 H 715.922 -0.409798 -1.41277 0
M  V30 7755 H 717.88 1.44107 -3.91522 0
M  V30 7756 H 716.51 1.6254 -2.78892 0
M  V30 7757 H 715.562 -0.592223 -3.75762 0
M  V30 7758 H 716.874 -0.559076 -4.95657 0
M  V30 7759 H 716.028 1.62223 -5.8461 0
M  V30 7760 H 714.767 1.67085 -4.58186 0
M  V30 7761 H 713.772 -0.452085 -5.47938 0
M  V30 7762 H 714.997 -0.483925 -6.77374 0
M  V30 7763 H 712.943 1.7161 -6.33156 0
M  V30 7764 H 712.86 0.481094 -7.54468 0
M  V30 7765 H 714.128 1.66822 -7.6144 0
M  V30 7766 N 718.357 1.51182 -0.445186 0
M  V30 7767 C 719.605 2.01753 0.11841 0
M  V30 7768 C 719.926 1.33087 1.42523 0
M  V30 7769 O 719.196 0.467891 1.9023 0
M  V30 7770 H 717.776 0.745536 0.0467492 0
M  V30 7771 H 720.438 1.85765 -0.589688 0
M  V30 7772 H 719.534 3.10762 0.288665 0
M  V30 7773 N 719.835 0.176821 1.56605 0
M  V30 7774 C 721.081 -0.467406 1.9734 0
M  V30 7775 C 721.414 -1.62523 1.06301 0
M  V30 7776 O 720.689 -1.94182 0.11125 0
M  V30 7777 C 720.972 -0.945106 3.47476 0
M  V30 7778 C 720.825 0.213273 4.49294 0
M  V30 7779 C 722.144 -1.8169 4.00845 0
M  V30 7780 H 719.263 -0.168426 0.717497 0
M  V30 7781 H 721.905 0.264065 1.88156 0
M  V30 7782 H 720.055 -1.56841 3.55434 0
M  V30 7783 H 721.727 0.850508 4.53392 0
M  V30 7784 H 719.97 0.867918 4.25029 0
M  V30 7785 H 720.641 -0.163187 5.51759 0
M  V30 7786 H 723.117 -1.29139 3.95553 0
M  V30 7787 H 721.993 -2.12015 5.06301 0
M  V30 7788 H 722.254 -2.76463 3.44994 0
M  V30 7789 N 721.313 -1.57302 -0.09688 0
M  V30 7790 C 722.59 -1.7701 -0.832272 0
M  V30 7791 C 722.97 -0.758025 -1.97021 0
M  V30 7792 O 722.318 0.213824 -2.27497 0
M  V30 7793 C 722.528 -3.22725 -1.32851 0
M  V30 7794 C 723.876 -3.85856 -1.772 0
M  V30 7795 O 724.9 -3.26464 -1.42478 0
M  V30 7796 O 723.759 -4.90295 -2.41398 0
M  V30 7797 H 720.853 -0.725558 -0.396856 0
M  V30 7798 H 723.399 -1.69516 -0.0789005 0
M  V30 7799 H 722.171 -3.87921 -0.51312 0
M  V30 7800 H 721.794 -3.34845 -2.14394 0
M  V30 7801 N 722.791 0.367657 -1.53252 0
M  V30 7802 C 724.031 1.11923 -1.71034 0
M  V30 7803 C 724.395 1.86618 -0.45143 0
M  V30 7804 O 725.596 2.63996 -0.505915 0
M  V30 7805 C 723.867 2.05461 -2.92439 0
M  V30 7806 S 725.426 2.88167 -3.30916 0
M  V30 7807 H 722.244 0.378549 -0.601848 0
M  V30 7808 H 724.846 0.400757 -1.91348 0
M  V30 7809 H 723.55 1.49346 -3.82262 0
M  V30 7810 H 723.081 2.81784 -2.7452 0
M  V30 7811 H 725.096 4.07746 -2.82767 0
M  V30 7812 N 724.269 1.44576 0.627338 0
M  V30 7813 C 725.546 1.38033 1.38586 0
M  V30 7814 C 725.926 0.0409468 2.1106 0
M  V30 7815 O 725.274 -0.976582 2.0658 0
M  V30 7816 C 725.484 2.58102 2.34913 0
M  V30 7817 C 726.832 3.02332 2.98129 0
M  V30 7818 O 727.856 2.58334 2.45238 0
M  V30 7819 O 726.715 3.78628 3.94085 0
M  V30 7820 H 723.809 0.546801 0.620434 0
M  V30 7821 H 726.355 1.56672 0.652077 0
M  V30 7822 H 725.127 3.4719 1.80485 0
M  V30 7823 H 724.75 2.41696 3.15703 0
M  V30 7824 N 725.747 -0.868086 1.31537 0
M  V30 7825 C 726.996 -1.61607 1.20689 0
M  V30 7826 C 727.309 -1.94204 -0.233275 0
M  V30 7827 O 728.515 -2.67515 -0.463465 0
M  V30 7828 C 726.971 -2.91348 2.11292 0
M  V30 7829 C 726.579 -2.66227 3.60315 0
M  V30 7830 C 728.323 -3.69344 2.09249 0
M  V30 7831 C 726.23 -3.91887 4.42921 0
M  V30 7832 H 725.16 -0.606373 0.448138 0
M  V30 7833 H 727.811 -0.959666 1.56405 0
M  V30 7834 H 726.193 -3.58374 1.68477 0
M  V30 7835 H 727.367 -2.07597 4.11388 0
M  V30 7836 H 725.682 -2.01582 3.64354 0
M  V30 7837 H 728.279 -4.62567 2.68209 0
M  V30 7838 H 728.622 -4.02044 1.0801 0
M  V30 7839 H 729.155 -3.09205 2.50274 0
M  V30 7840 H 725.894 -3.64336 5.44922 0
M  V30 7841 H 725.414 -4.49961 3.96605 0
M  V30 7842 H 727.093 -4.59754 4.55231 0
M  V30 7843 N 727.225 -1.14528 -1.08264 0
M  V30 7844 C 728.502 -0.825185 -1.77342 0
M  V30 7845 C 728.882 0.681037 -1.99813 0
M  V30 7846 O 728.23 1.62234 -1.60912 0
M  V30 7847 C 728.44 -1.62556 -3.08831 0
M  V30 7848 C 729.788 -1.82585 -3.83338 0
M  V30 7849 O 730.812 -1.59254 -3.18617 0
M  V30 7850 O 729.671 -2.21598 -4.99556 0
M  V30 7851 H 726.765 -0.302531 -0.769678 0
M  V30 7852 H 729.311 -1.25056 -1.14713 0
M  V30 7853 H 728.083 -2.64862 -2.88035 0
M  V30 7854 H 727.706 -1.1959 -3.79189 0
M  V30 7855 N 728.703 1.26451 -0.940633 0
M  V30 7856 C 729.949 1.94065 -0.58878 0
M  V30 7857 C 730.282 1.7363 0.869853 0
M  V30 7858 O 729.557 1.073 1.62225 0
M  V30 7859 C 729.84 3.47852 -0.931199 0
M  V30 7860 C 729.693 3.77575 -2.44453 0
M  V30 7861 C 731.012 4.37832 -0.446229 0
M  V30 7862 H 728.131 0.704827 -0.21538 0
M  V30 7863 H 730.773 1.4933 -1.17475 0
M  V30 7864 H 728.923 3.86085 -0.432539 0
M  V30 7865 H 730.595 3.49059 -3.01588 0
M  V30 7866 H 728.838 3.23671 -2.88825 0
M  V30 7867 H 729.509 4.85068 -2.63464 0
M  V30 7868 H 731.985 4.06822 -0.873778 0
M  V30 7869 H 730.861 5.44228 -0.714648 0
M  V30 7870 H 731.122 4.37239 0.653815 0
M  V30 7871 N 730.181 0.707592 1.40822 0
M  V30 7872 C 731.592 0.317011 1.83989 0
M  V30 7873 C 731.943 -1.14697 1.59182 0
M  V30 7874 O 731.068 -1.8818 1.06852 0
M  V30 7875 C 731.663 0.568593 3.33995 0
M  V30 7876 C 730.222 0.231804 3.75686 0
M  V30 7877 C 729.369 0.844933 2.64114 0
M  V30 7878 H 732.32 0.907349 1.30203 0
M  V30 7879 H 732.341 -0.168798 3.80125 0
M  V30 7880 H 731.853 1.63417 3.52018 0
M  V30 7881 H 729.954 -0.82903 3.6326 0
M  V30 7882 H 730.067 0.695219 4.74029 0
M  V30 7883 H 728.431 0.273588 2.53226 0
M  V30 7884 H 729.214 1.91462 2.84951 0
M  V30 7885 N 731.66 -1.50943 0.453197 0
M  V30 7886 C 732.607 -2.28128 -0.350197 0
M  V30 7887 C 733.577 -1.32398 -1.00299 0
M  V30 7888 O 734.762 -1.61319 -1.01887 0
M  V30 7889 C 731.902 -3.13782 -1.43649 0
M  V30 7890 C 731.015 -4.24523 -0.800255 0
M  V30 7891 C 730.15 -4.97462 -1.86293 0
M  V30 7892 C 729.189 -6.00102 -1.20598 0
M  V30 7893 N 728.326 -6.66387 -2.21071 0
M  V30 7894 H 733.166 -2.96337 0.31434 0
M  V30 7895 H 730.703 -1.46151 0.166863 0
M  V30 7896 H 732.661 -3.6178 -2.07776 0
M  V30 7897 H 731.291 -2.47655 -2.07044 0
M  V30 7898 H 730.343 -3.80371 -0.0468651 0
M  V30 7899 H 731.655 -4.98009 -0.280777 0
M  V30 7900 H 730.809 -5.49088 -2.58044 0
M  V30 7901 H 729.548 -4.23642 -2.41617 0
M  V30 7902 H 728.553 -5.47753 -0.474 0
M  V30 7903 H 729.778 -6.75887 -0.659859 0
M  V30 7904 H 727.724 -5.9537 -2.75446 0
M  V30 7905 H 727.641 -7.3569 -1.74058 0
M  V30 7906 H 728.909 -7.22638 -2.92257 0
M  V30 7907 N 733.138 -0.185124 -1.56509 0
M  V30 7908 C 734.366 0.462139 -2.01673 0
M  V30 7909 C 734.781 1.55873 -1.06532 0
M  V30 7910 O 734.138 1.82371 -0.0684805 0
M  V30 7911 C 734.189 1.0277 -3.46584 0
M  V30 7912 O 733.91 -0.0251296 -4.38093 0
M  V30 7913 C 735.411 1.75183 -4.07217 0
M  V30 7914 H 732.631 0.117001 -0.660721 0
M  V30 7915 H 735.175 -0.290905 -2.0242 0
M  V30 7916 H 733.33 1.73118 -3.46568 0
M  V30 7917 H 733.744 0.394387 -5.23015 0
M  V30 7918 H 735.218 2.09999 -5.10494 0
M  V30 7919 H 735.695 2.6519 -3.50101 0
M  V30 7920 H 736.301 1.09445 -4.10977 0
M  V30 7921 N 734.616 1.57351 0.0885366 0
M  V30 7922 C 735.865 1.85604 0.789556 0
M  V30 7923 C 736.178 0.775352 1.79576 0
M  V30 7924 O 737.384 0.945206 2.54515 0
M  V30 7925 C 735.84 3.29175 1.45506 0
M  V30 7926 C 735.448 4.45331 0.488278 0
M  V30 7927 C 737.192 3.66646 2.13942 0
M  V30 7928 C 735.099 5.79937 1.15874 0
M  V30 7929 H 734.029 0.692346 0.298619 0
M  V30 7930 H 736.68 1.83451 0.0425821 0
M  V30 7931 H 735.062 3.25889 2.24972 0
M  V30 7932 H 736.236 4.59977 -0.275359 0
M  V30 7933 H 734.551 4.16301 -0.0907363 0
M  V30 7934 H 737.148 4.64498 2.6485 0
M  V30 7935 H 737.491 2.956 2.93132 0
M  V30 7936 H 738.024 3.71848 1.41328 0
M  V30 7937 H 734.763 6.54232 0.407508 0
M  V30 7938 H 734.283 5.69123 1.89364 0
M  V30 7939 H 735.962 6.24718 1.68336 0
M  V30 7940 N 736.094 -0.359525 1.53444 0
M  V30 7941 C 737.026 -1.46098 1.76602 0
M  V30 7942 C 738.039 -1.49395 0.646912 0
M  V30 7943 O 739.228 -1.52765 0.923307 0
M  V30 7944 C 736.328 -2.84836 1.83635 0
M  V30 7945 C 735.501 -3.05164 3.13358 0
M  V30 7946 C 734.56 -4.24051 3.11556 0
M  V30 7947 O 733.586 -4.18935 3.85334 0
M  V30 7948 N 734.788 -5.31775 2.328 0
M  V30 7949 H 737.553 -1.2661 2.71643 0
M  V30 7950 H 735.114 -0.549294 1.52297 0
M  V30 7951 H 737.106 -3.62516 1.799 0
M  V30 7952 H 735.676 -2.97542 0.958509 0
M  V30 7953 H 734.896 -2.15091 3.30348 0
M  V30 7954 H 736.184 -3.15619 3.99076 0
M  V30 7955 H 735.582 -5.38796 1.7238 0
M  V30 7956 H 734.139 -6.0801 2.34877 0
M  V30 7957 N 737.572 -1.44907 -0.619662 0
M  V30 7958 C 738.505 -1.47133 -1.74434 0
M  V30 7959 C 739.483 -0.328933 -1.59238 0
M  V30 7960 O 740.667 -0.527632 -1.80965 0
M  V30 7961 C 737.794 -1.31491 -3.12134 0
M  V30 7962 C 736.84 -2.49441 -3.4595 0
M  V30 7963 S 737.673 -4.11945 -3.42142 0
M  V30 7964 C 738.829 -3.98747 -4.82443 0
M  V30 7965 H 739.062 -2.42295 -1.7228 0
M  V30 7966 H 736.595 -1.32343 -0.795276 0
M  V30 7967 H 738.553 -1.23153 -3.91591 0
M  V30 7968 H 737.214 -0.378203 -3.11815 0
M  V30 7969 H 736.407 -2.3439 -4.46181 0
M  V30 7970 H 736.009 -2.54577 -2.73982 0
M  V30 7971 H 738.301 -3.63145 -5.71954 0
M  V30 7972 H 739.244 -4.98848 -5.0255 0
M  V30 7973 H 739.652 -3.30608 -4.57557 0
M  V30 7974 N 739.05 0.861098 -1.31996 0
M  V30 7975 C 740.296 1.61721 -1.22369 0
M  V30 7976 C 740.629 1.93 0.215587 0
M  V30 7977 O 739.904 1.56789 1.15098 0
M  V30 7978 C 740.187 2.9417 -2.07691 0
M  V30 7979 C 740.04 2.69714 -3.59965 0
M  V30 7980 C 741.359 3.95372 -1.93312 0
M  V30 7981 H 738.478 0.586822 -0.44588 0
M  V30 7982 H 741.12 0.994788 -1.61876 0
M  V30 7983 H 739.27 3.47292 -1.74128 0
M  V30 7984 H 740.942 2.23196 -4.03709 0
M  V30 7985 H 739.185 2.03789 -3.82952 0
M  V30 7986 H 739.856 3.63996 -4.14983 0
M  V30 7987 H 742.332 3.51487 -2.22701 0
M  V30 7988 H 741.208 4.85916 -2.55298 0
M  V30 7989 H 741.469 4.32865 -0.898922 0
M  V30 7990 N 740.528 1.15101 1.07655 0
M  V30 7991 C 741.944 0.893004 1.32279 0
M  V30 7992 C 742.144 -0.461701 1.96139 0
M  V30 7993 O 741.2 -1.20431 2.21929 0
M  V30 7994 C 742.513 2.03161 2.21689 0
M  V30 7995 C 744.061 2.06579 2.35147 0
M  V30 7996 C 744.536 3.19754 3.27905 0
M  V30 7997 N 746.027 3.19382 3.35484 0
M  V30 7998 C 746.762 4.03592 4.07309 0
M  V30 7999 N 746.258 4.97859 4.81776 0
M  V30 8000 N 748.051 3.91626 4.03219 0
M  V30 8001 H 740.202 2.02341 0.645886 0
M  V30 8002 H 742.465 0.882127 0.347211 0
M  V30 8003 H 742.171 3.00934 1.82021 0
M  V30 8004 H 742.045 1.96132 3.22199 0
M  V30 8005 H 744.432 1.09408 2.74069 0
M  V30 8006 H 744.513 2.17676 1.34353 0
M  V30 8007 H 744.157 4.17175 2.89702 0
M  V30 8008 H 744.087 3.05893 4.28645 0
M  V30 8009 H 746.578 2.51112 2.82403 0
M  V30 8010 H 746.891 5.58563 5.34067 0
M  V30 8011 H 745.236 5.0185 4.80803 0
M  V30 8012 H 748.427 3.17295 3.44154 0
M  V30 8013 H 748.6 4.57479 4.5893 0
M  V30 8014 N 742.006 -1.2595 0.947325 0
M  V30 8015 C 743.231 -1.98083 0.614633 0
M  V30 8016 C 743.656 -1.70013 -0.804815 0
M  V30 8017 O 743.014 -0.95175 -1.54309 0
M  V30 8018 C 743.062 -3.4993 0.870706 0
M  V30 8019 O 742.166 -4.12364 -0.0541451 0
M  V30 8020 H 741.507 -0.621232 0.234451 0
M  V30 8021 H 744.037 -1.60259 1.27193 0
M  V30 8022 H 744.047 -4.00198 0.794051 0
M  V30 8023 H 742.722 -3.69691 1.90529 0
M  V30 8024 H 741.299 -3.72826 0.0740917 0
M  V30 8025 N 743.484 -0.715051 -1.40445 0
M  V30 8026 C 744.416 -0.0227516 -2.29189 0
M  V30 8027 C 745.429 0.724313 -1.458 0
M  V30 8028 O 746.618 0.571781 -1.69094 0
M  V30 8029 C 743.718 0.992038 -3.24055 0
M  V30 8030 C 742.891 0.310613 -4.36296 0
M  V30 8031 C 741.95 1.23071 -5.11605 0
M  V30 8032 O 740.976 0.71571 -5.64682 0
M  V30 8033 N 742.178 2.56188 -5.2091 0
M  V30 8034 H 744.943 -0.78473 -2.89244 0
M  V30 8035 H 742.504 -0.562637 -1.51809 0
M  V30 8036 H 744.496 1.60973 -3.71308 0
M  V30 8037 H 743.066 1.65538 -2.65171 0
M  V30 8038 H 742.286 -0.487269 -3.91177 0
M  V30 8039 H 743.574 -0.162415 -5.08541 0
M  V30 8040 H 742.972 3.00527 -4.7927 0
M  V30 8041 H 741.529 3.13103 -5.71673 0
M  V30 8042 N 744.962 1.50701 -0.461195 0
M  V30 8043 C 746.378 1.59187 -0.114786 0
M  V30 8044 C 746.578 1.4702 1.37794 0
M  V30 8045 O 745.634 1.32361 2.15027 0
M  V30 8046 C 746.947 2.93453 -0.656167 0
M  V30 8047 C 748.495 3.06824 -0.618715 0
M  V30 8048 C 748.97 4.4365 -1.13747 0
M  V30 8049 N 750.461 4.50035 -1.09646 0
M  V30 8050 C 751.196 5.54278 -1.46846 0
M  V30 8051 N 750.692 6.65822 -1.91448 0
M  V30 8052 N 752.485 5.44767 -1.38512 0
M  V30 8053 H 744.636 1.56853 -1.43216 0
M  V30 8054 H 746.899 0.740712 -0.59165 0
M  V30 8055 H 746.605 3.07802 -1.7015 0
M  V30 8056 H 746.479 3.77082 -0.0942261 0
M  V30 8057 H 748.866 2.92129 0.417685 0
M  V30 8058 H 748.947 2.24976 -1.21734 0
M  V30 8059 H 748.591 4.59093 -2.17245 0
M  V30 8060 H 748.521 5.24074 -0.515153 0
M  V30 8061 H 751.012 3.69988 -0.769217 0
M  V30 8062 H 751.325 7.41413 -2.18007 0
M  V30 8063 H 749.67 6.66968 -1.95393 0
M  V30 8064 H 752.861 4.56511 -1.03516 0
M  V30 8065 H 753.034 6.25889 -1.6783 0
M  V30 8066 N 746.441 0.193421 1.56409 0
M  V30 8067 C 747.666 -0.454552 2.02358 0
M  V30 8068 C 748.091 -1.54516 1.07268 0
M  V30 8069 O 747.449 -1.81214 0.0558962 0
M  V30 8070 C 747.497 -0.989469 3.46759 0
M  V30 8071 O 746.601 -2.10244 3.54783 0
M  V30 8072 H 745.942 -0.106417 0.655417 0
M  V30 8073 H 748.472 0.303807 2.02332 0
M  V30 8074 H 748.482 -1.30649 3.86516 0
M  V30 8075 H 747.157 -0.191083 4.15461 0
M  V30 8076 H 745.734 -1.79419 3.26899 0
M  V30 8077 N 747.919 -1.57396 -0.0801906 0
M  V30 8078 C 749.167 -1.86467 -0.779384 0
M  V30 8079 C 749.488 -0.784243 -1.78535 0
M  V30 8080 O 748.758 0.187986 -1.94996 0
M  V30 8081 H 747.338 -0.68806 -0.29083 0
M  V30 8082 H 750 -1.94813 -0.0582749 0
M  V30 8083 H 749.096 -2.83701 -1.30078 0
M  V30 8084 N 749.397 0.351382 -1.53633 0
M  V30 8085 C 750.33 1.45407 -1.75875 0
M  V30 8086 C 751.308 1.50822 -0.607566 0
M  V30 8087 O 752.492 1.68658 -0.841818 0
M  V30 8088 C 749.619 2.8369 -1.85034 0
M  V30 8089 C 748.665 2.95935 -3.07123 0
M  V30 8090 S 749.498 2.63215 -4.66345 0
M  V30 8091 C 750.654 4.03622 -4.78373 0
M  V30 8092 H 750.887 1.26322 -2.69128 0
M  V30 8093 H 748.42 0.546581 -1.44402 0
M  V30 8094 H 750.378 3.6336 -1.90996 0
M  V30 8095 H 749.039 3.00076 -0.928074 0
M  V30 8096 H 748.232 3.97243 -3.10183 0
M  V30 8097 H 747.834 2.24205 -2.99346 0
M  V30 8098 H 750.126 4.98046 -4.593 0
M  V30 8099 H 751.069 4.05559 -5.80454 0
M  V30 8100 H 751.477 3.91282 -4.06889 0
M  V30 8101 N 750.875 1.45233 0.611969 0
M  V30 8102 C 752.121 1.49242 1.37312 0
M  V30 8103 C 752.454 0.131963 1.93751 0
M  V30 8104 O 751.729 -0.852999 1.74798 0
M  V30 8105 C 752.012 2.56811 2.52428 0
M  V30 8106 C 751.865 4.02284 2.01215 0
M  V30 8107 C 753.184 2.60705 3.54572 0
M  V30 8108 H 750.303 0.54336 0.497925 0
M  V30 8109 H 752.945 1.77019 0.690242 0
M  V30 8110 H 751.095 2.33256 3.10683 0
M  V30 8111 H 752.767 4.37035 1.47643 0
M  V30 8112 H 751.01 4.1315 1.32248 0
M  V30 8113 H 751.681 4.7323 2.84178 0
M  V30 8114 H 754.157 2.81799 3.06151 0
M  V30 8115 H 753.033 3.37841 4.32614 0
M  V30 8116 H 753.294 1.65627 4.09903 0
M  V30 8117 N 752.353 -0.854086 1.3245 0
M  V30 8118 C 753.285 -1.96932 1.17262 0
M  V30 8119 C 754.298 -1.62445 0.107469 0
M  V30 8120 O 755.487 -1.74904 0.356481 0
M  V30 8121 C 752.587 -3.29971 0.772817 0
M  V30 8122 C 751.76 -3.92695 1.92638 0
M  V30 8123 C 750.819 -5.04068 1.51003 0
M  V30 8124 O 749.845 -5.24032 2.22213 0
M  V30 8125 N 751.047 -5.79076 0.406371 0
M  V30 8126 H 753.812 -2.10503 2.13327 0
M  V30 8127 H 751.373 -1.02897 1.24995 0
M  V30 8128 H 753.365 -4.01883 0.476684 0
M  V30 8129 H 751.935 -3.1245 -0.0967 0
M  V30 8130 H 751.155 -3.13563 2.38897 0
M  V30 8131 H 752.443 -4.31337 2.69863 0
M  V30 8132 H 751.841 -5.65393 -0.186302 0
M  V30 8133 H 750.398 -6.51579 0.169846 0
M  V30 8134 N 753.831 -1.1567 -1.07043 0
M  V30 8135 C 755.059 -0.957471 -1.83412 0
M  V30 8136 C 755.474 0.494271 -1.82215 0
M  V30 8137 O 754.831 1.34288 -1.23584 0
M  V30 8138 C 754.882 -1.46784 -3.30359 0
M  V30 8139 O 754.603 -2.86271 -3.31633 0
M  V30 8140 C 756.104 -1.31054 -4.23485 0
M  V30 8141 H 753.324 -0.33986 -0.578564 0
M  V30 8142 H 755.868 -1.53518 -1.35102 0
M  V30 8143 H 754.023 -0.932586 -3.76007 0
M  V30 8144 H 754.437 -3.0948 -4.23465 0
M  V30 8145 H 755.911 -1.71605 -5.24648 0
M  V30 8146 H 756.388 -0.255107 -4.38458 0
M  V30 8147 H 756.994 -1.83503 -3.83676 0
M  V30 8148 N 755.309 1.25446 -0.953992 0
M  V30 8149 C 756.219 2.29632 -0.480264 0
M  V30 8150 C 757.235 1.68025 0.452071 0
M  V30 8151 O 758.411 1.98703 0.328472 0
M  V30 8152 C 755.476 3.45903 0.234974 0
M  V30 8153 C 754.537 4.22953 -0.735495 0
M  V30 8154 C 753.77 5.33672 -0.0542957 0
M  V30 8155 O 753.993 5.58477 1.16018 0
M  V30 8156 O 752.927 5.9734 -0.739509 0
M  V30 8157 H 756.753 2.72242 -1.34602 0
M  V30 8158 H 754.338 1.30883 -0.720419 0
M  V30 8159 H 756.22 4.16552 0.637341 0
M  V30 8160 H 754.895 3.05296 1.07592 0
M  V30 8161 H 753.802 3.54734 -1.18806 0
M  V30 8162 H 755.135 4.67341 -1.54444 0
M  V30 8163 N 756.787 0.722489 1.40064 0
M  V30 8164 C 757.75 0.0830209 2.2905 0
M  V30 8165 C 758.75 -0.680208 1.45705 0
M  V30 8166 O 759.94 -0.511084 1.66534 0
M  V30 8167 C 757.072 -0.892092 3.29021 0
M  V30 8168 H 758.265 0.866848 2.87099 0
M  V30 8169 H 755.818 0.487556 1.48501 0
M  V30 8170 H 756.553 -1.70273 2.76003 0
M  V30 8171 H 756.338 -0.34761 3.90556 0
M  V30 8172 H 757.828 -1.33648 3.95636 0
M  V30 8173 N 758.265 -1.50454 0.469181 0
M  V30 8174 C 759.197 -2.26319 -0.362247 0
M  V30 8175 C 760.21 -1.31574 -0.958751 0
M  V30 8176 O 761.399 -1.57099 -0.847482 0
M  V30 8177 C 758.499 -3.02808 -1.52187 0
M  V30 8178 C 757.672 -4.24893 -1.03849 0
M  V30 8179 C 756.731 -4.83691 -2.07194 0
M  V30 8180 O 755.757 -5.44659 -1.65333 0
M  V30 8181 N 756.959 -4.70522 -3.39985 0
M  V30 8182 H 759.724 -2.98312 0.288124 0
M  V30 8183 H 757.285 -1.59099 0.299856 0
M  V30 8184 H 759.277 -3.39023 -2.21011 0
M  V30 8185 H 757.847 -2.33625 -2.07697 0
M  V30 8186 H 757.067 -3.93806 -0.176203 0
M  V30 8187 H 758.355 -5.04053 -0.693435 0
M  V30 8188 H 757.753 -4.2203 -3.76706 0
M  V30 8189 H 756.31 -5.11011 -4.04612 0
M  V30 8190 N 759.743 -0.201713 -1.56304 0
M  V30 8191 C 760.973 0.440084 -2.01858 0
M  V30 8192 C 761.381 1.55279 -1.08098 0
M  V30 8193 O 760.724 1.83529 -0.0792216 0
M  V30 8194 C 760.786 1.05091 -3.43797 0
M  V30 8195 C 760.45 0.0761208 -4.56937 0
M  V30 8196 C 761.447 -0.716951 -5.14933 0
M  V30 8197 C 759.132 -0.0368815 -5.02286 0
M  V30 8198 C 761.126 -1.60993 -6.16733 0
M  V30 8199 C 758.813 -0.933409 -6.03929 0
M  V30 8200 C 759.811 -1.71849 -6.61027 0
M  V30 8201 O 759.499 -2.59998 -7.60695 0
M  V30 8202 H 759.231 0.114139 -0.666294 0
M  V30 8203 H 761.785 -0.309672 -2.03052 0
M  V30 8204 H 760.015 1.84938 -3.3961 0
M  V30 8205 H 761.704 1.59804 -3.73118 0
M  V30 8206 H 762.47 -0.63999 -4.80759 0
M  V30 8207 H 758.349 0.564034 -4.57537 0
M  V30 8208 H 761.893 -2.22315 -6.61227 0
M  V30 8209 H 757.79 -1.01146 -6.37526 0
M  V30 8210 H 758.558 -2.53851 -7.7814 0
M  V30 8211 N 761.222 1.57436 0.0718424 0
M  V30 8212 C 762.638 1.53792 0.426628 0
M  V30 8213 C 762.838 0.921887 1.79174 0
M  V30 8214 O 761.894 0.524374 2.46995 0
M  V30 8215 C 763.207 2.98443 0.367739 0
M  V30 8216 C 764.755 3.09778 0.447928 0
M  V30 8217 C 765.23 4.5608 0.418946 0
M  V30 8218 N 766.721 4.60716 0.479022 0
M  V30 8219 C 767.456 5.71397 0.47881 0
M  V30 8220 N 766.952 6.91443 0.433417 0
M  V30 8221 N 768.745 5.59639 0.525364 0
M  V30 8222 H 760.896 1.95848 -0.822033 0
M  V30 8223 H 763.159 0.896418 -0.308447 0
M  V30 8224 H 762.865 3.47072 -0.56865 0
M  V30 8225 H 762.739 3.58335 1.17795 0
M  V30 8226 H 765.126 2.61122 1.37474 0
M  V30 8227 H 765.207 2.52796 -0.390857 0
M  V30 8228 H 764.851 5.05393 -0.504016 0
M  V30 8229 H 764.781 5.10925 1.27526 0
M  V30 8230 H 767.272 3.74328 0.518355 0
M  V30 8231 H 767.585 7.71562 0.43718 0
M  V30 8232 H 765.93 6.93847 0.400106 0
M  V30 8233 H 769.121 4.64756 0.558519 0
M  V30 8234 H 769.294 6.45896 0.52173 0
M  V30 8235 N 762.7 -0.34323 1.53817 0
M  V30 8236 C 763.947 -1.08344 1.71079 0
M  V30 8237 C 764.275 -1.88633 0.474133 0
M  V30 8238 O 763.53 -1.87984 -0.544116 0
M  V30 8239 C 763.829 -2.05195 2.92626 0
M  V30 8240 C 763.495 -1.41215 4.28216 0
M  V30 8241 C 762.157 -1.23495 4.65083 0
M  V30 8242 C 764.509 -0.951273 5.12445 0
M  V30 8243 C 761.837 -0.583065 5.83796 0
M  V30 8244 C 764.189 -0.313292 6.31824 0
M  V30 8245 C 762.853 -0.123779 6.67385 0
M  V30 8246 H 762.123 -0.396458 0.626021 0
M  V30 8247 H 764.77 -0.362689 1.88034 0
M  V30 8248 H 763.075 -2.83653 2.70275 0
M  V30 8249 H 764.772 -2.62462 3.03175 0
M  V30 8250 H 761.362 -1.56005 3.992 0
M  V30 8251 H 765.546 -1.07602 4.84495 0
M  V30 8252 H 760.802 -0.424854 6.09922 0
M  V30 8253 H 764.976 0.0519179 6.96381 0
M  V30 8254 H 762.603 0.383398 7.59233 0
M  V30 8255 N 764.178 -1.45556 -0.604258 0
M  V30 8256 C 765.427 -1.49019 -1.35928 0
M  V30 8257 C 765.74 -0.137409 -1.95117 0
M  V30 8258 O 766.946 -0.0497032 -2.71455 0
M  V30 8259 C 765.402 -2.62477 -2.46239 0
M  V30 8260 C 765.01 -4.04082 -1.93447 0
M  V30 8261 C 766.754 -2.7519 -3.23219 0
M  V30 8262 C 764.661 -5.08917 -3.0126 0
M  V30 8263 H 763.591 -0.554518 -0.510907 0
M  V30 8264 H 766.242 -1.71705 -0.647262 0
M  V30 8265 H 764.624 -2.3308 -3.2014 0
M  V30 8266 H 765.798 -4.43173 -1.26232 0
M  V30 8267 H 764.113 -3.95849 -1.29201 0
M  V30 8268 H 766.71 -3.50683 -4.0364 0
M  V30 8269 H 767.053 -1.81941 -3.74437 0
M  V30 8270 H 767.586 -3.04129 -2.56418 0
M  V30 8271 H 764.325 -6.03886 -2.54955 0
M  V30 8272 H 763.845 -4.74393 -3.67031 0
M  V30 8273 H 765.524 -5.33814 -3.65584 0
M  V30 8274 N 765.656 0.84705 -1.32902 0
M  V30 8275 C 766.886 1.63166 -1.26729 0
M  V30 8276 C 767.294 1.88474 0.165595 0
M  V30 8277 O 766.637 1.45947 1.11558 0
M  V30 8278 C 766.699 3.0103 -1.96522 0
M  V30 8279 C 766.363 2.9873 -3.45846 0
M  V30 8280 C 767.36 2.75032 -4.41196 0
M  V30 8281 C 765.045 3.19125 -3.87898 0
M  V30 8282 C 767.039 2.71743 -5.76571 0
M  V30 8283 C 764.726 3.15462 -5.2338 0
M  V30 8284 C 765.724 2.91801 -6.17528 0
M  V30 8285 O 765.412 2.88027 -7.5053 0
M  V30 8286 H 765.144 0.51469 -0.438258 0
M  V30 8287 H 767.698 1.06383 -1.75704 0
M  V30 8288 H 765.928 3.59634 -1.42128 0
M  V30 8289 H 767.617 3.61821 -1.83958 0
M  V30 8290 H 768.383 2.59034 -4.10032 0
M  V30 8291 H 764.262 3.36565 -3.15032 0
M  V30 8292 H 767.806 2.53194 -6.5003 0
M  V30 8293 H 763.703 3.31006 -5.54171 0
M  V30 8294 H 764.471 3.03927 -7.59981 0
M  V30 8295 N 767.134 1.16236 1.06428 0
M  V30 8296 C 768.067 0.81119 2.13295 0
M  V30 8297 C 769.045 -0.216555 1.61151 0
M  V30 8298 O 770.229 -0.100949 1.88229 0
M  V30 8299 C 767.356 0.207901 3.38061 0
M  V30 8300 C 766.402 1.20904 4.09004 0
M  V30 8301 S 767.235 2.75513 4.59187 0
M  V30 8302 C 768.391 2.1663 5.87216 0
M  V30 8303 H 768.624 1.71632 2.42755 0
M  V30 8304 H 766.157 0.985693 1.18842 0
M  V30 8305 H 768.115 -0.133715 4.10282 0
M  V30 8306 H 766.776 -0.67497 3.06762 0
M  V30 8307 H 765.969 0.735326 4.98607 0
M  V30 8308 H 765.571 1.49567 3.42791 0
M  V30 8309 H 767.863 1.53413 6.59902 0
M  V30 8310 H 768.806 3.04437 6.39315 0
M  V30 8311 H 769.214 1.60565 5.41183 0
M  V30 8312 N 768.612 -1.24939 0.960631 0
M  V30 8313 C 769.575 -2.239 0.49006 0
M  V30 8314 C 770.575 -1.55497 -0.409535 0
M  V30 8315 O 771.765 -1.72978 -0.205984 0
M  V30 8316 C 768.897 -3.39654 -0.291193 0
M  V30 8317 H 770.09 -2.67044 1.36482 0
M  V30 8318 H 767.643 -1.37429 0.744505 0
M  V30 8319 H 768.378 -3.01939 -1.18336 0
M  V30 8320 H 768.163 -3.90496 0.354276 0
M  V30 8321 H 769.653 -4.13125 -0.609693 0
M  V30 8322 N 770.09 -0.729906 -1.39679 0
M  V30 8323 C 771.336 -0.27603 -2.00913 0
M  V30 8324 C 771.669 1.13227 -1.57776 0
M  V30 8325 O 770.944 1.7709 -0.804319 0
M  V30 8326 C 771.227 -0.372157 -3.58172 0
M  V30 8327 C 771.08 -1.81986 -4.11341 0
M  V30 8328 C 772.399 0.248378 -4.39399 0
M  V30 8329 H 769.518 -0.101773 -0.729939 0
M  V30 8330 H 772.16 -0.925104 -1.65957 0
M  V30 8331 H 770.31 0.180459 -3.88081 0
M  V30 8332 H 771.982 -2.42896 -3.92172 0
M  V30 8333 H 770.225 -2.34287 -3.65092 0
M  V30 8334 H 770.896 -1.83842 -5.20486 0
M  V30 8335 H 773.372 -0.222645 -4.15504 0
M  V30 8336 H 772.248 0.150746 -5.48693 0
M  V30 8337 H 772.509 1.33378 -4.21501 0
M  V30 8338 N 771.568 1.50203 -0.477153 0
M  V30 8339 C 772.5 2.26508 0.350239 0
M  V30 8340 C 773.513 1.32081 0.95176 0
M  V30 8341 O 774.702 1.57546 0.839139 0
M  V30 8342 C 771.802 3.0361 1.50579 0
M  V30 8343 C 770.975 4.25438 1.01595 0
M  V30 8344 C 770.034 4.84783 2.04626 0
M  V30 8345 O 769.06 5.45528 1.62442 0
M  V30 8346 N 770.262 4.72318 3.37485 0
M  V30 8347 H 773.027 2.98155 -0.30394 0
M  V30 8348 H 770.588 1.58938 -0.308289 0
M  V30 8349 H 772.58 3.4019 2.1921 0
M  V30 8350 H 771.15 2.34724 2.06455 0
M  V30 8351 H 770.37 3.93894 0.155316 0
M  V30 8352 H 771.658 5.04413 0.666694 0
M  V30 8353 H 771.056 4.24022 3.74462 0
M  V30 8354 H 769.613 5.13149 4.01897 0
M  V30 8355 N 773.046 0.209999 1.56195 0
M  V30 8356 C 773.996 -0.717978 2.164 0
M  V30 8357 C 774.98 -1.16577 1.10899 0
M  V30 8358 O 776.172 -1.12169 1.3692 0
M  V30 8359 C 773.301 -1.93091 2.8385 0
M  V30 8360 C 772.387 -1.50333 3.96561 0
M  V30 8361 N 772.778 -0.787621 4.9963 0
M  V30 8362 C 771.076 -1.79151 4.08437 0
M  V30 8363 C 771.777 -0.571204 5.78889 0
M  V30 8364 N 770.753 -1.12444 5.31843 0
M  V30 8365 H 774.555 -0.162603 2.9345 0
M  V30 8366 H 772.069 0.0107928 1.62396 0
M  V30 8367 H 774.066 -2.60635 3.25384 0
M  V30 8368 H 772.726 -2.49087 2.08293 0
M  V30 8369 H 773.737 -0.441513 5.16015 0
M  V30 8370 H 770.414 -2.36549 3.44022 0
M  V30 8371 H 771.804 -0.00237941 6.719 0
M  V30 8372 N 774.524 -1.57472 -0.0634922 0
M  V30 8373 C 775.754 -1.91608 -0.772645 0
M  V30 8374 C 776.162 -0.805019 -1.71219 0
M  V30 8375 O 775.505 0.229941 -1.82255 0
M  V30 8376 C 775.567 -3.21281 -1.61304 0
M  V30 8377 C 775.231 -4.49177 -0.841973 0
M  V30 8378 C 776.228 -5.19661 -0.157494 0
M  V30 8379 C 773.913 -4.9578 -0.80669 0
M  V30 8380 C 775.907 -6.35006 0.551948 0
M  V30 8381 C 773.594 -6.11028 -0.0934812 0
M  V30 8382 C 774.592 -6.80493 0.58463 0
M  V30 8383 O 774.28 -7.93542 1.28633 0
M  V30 8384 H 774.012 -0.637685 -0.224352 0
M  V30 8385 H 776.566 -2.05369 -0.0355279 0
M  V30 8386 H 774.796 -3.03752 -2.39315 0
M  V30 8387 H 776.485 -3.41003 -2.20162 0
M  V30 8388 H 777.251 -4.84681 -0.176006 0
M  V30 8389 H 773.13 -4.41579 -1.32397 0
M  V30 8390 H 776.674 -6.89161 1.0818 0
M  V30 8391 H 772.571 -6.45459 -0.0729258 0
M  V30 8392 H 773.339 -8.09708 1.19646 0
M  V30 8393 N 776.003 0.335068 -1.53997 0
M  V30 8394 C 777.252 1.07182 -1.70865 0
M  V30 8395 C 777.565 1.89541 -0.483078 0
M  V30 8396 O 778.771 2.66219 -0.532879 0
M  V30 8397 C 777.227 1.95497 -3.02174 0
M  V30 8398 C 776.835 1.18304 -4.32097 0
M  V30 8399 C 778.579 2.68978 -3.28407 0
M  V30 8400 C 776.486 2.05699 -5.54474 0
M  V30 8401 H 775.416 0.403857 -0.636722 0
M  V30 8402 H 778.067 0.33076 -1.80494 0
M  V30 8403 H 776.449 2.73456 -2.86423 0
M  V30 8404 H 777.623 0.451969 -4.58578 0
M  V30 8405 H 775.938 0.565556 -4.12541 0
M  V30 8406 H 778.535 3.34651 -4.17029 0
M  V30 8407 H 778.878 3.36 -2.45784 0
M  V30 8408 H 779.411 1.98087 -3.44973 0
M  V30 8409 H 776.15 1.43204 -6.39666 0
M  V30 8410 H 775.67 2.76572 -5.32229 0
M  V30 8411 H 777.349 2.64554 -5.90441 0
M  V30 8412 N 777.481 1.45874 0.596531 0
M  V30 8413 C 778.391 1.57947 1.73464 0
M  V30 8414 C 779.407 0.463461 1.67714 0
M  V30 8415 O 780.583 0.725685 1.87872 0
M  V30 8416 C 777.648 1.55348 3.09948 0
M  V30 8417 C 776.709 2.78074 3.27068 0
M  V30 8418 C 775.942 2.75589 4.57041 0
M  V30 8419 O 776.165 1.83545 5.40063 0
M  V30 8420 O 775.099 3.66945 4.77111 0
M  V30 8421 H 778.925 2.54169 1.66228 0
M  V30 8422 H 776.51 1.2851 0.76194 0
M  V30 8423 H 778.392 1.56545 3.91244 0
M  V30 8424 H 777.067 0.622811 3.17652 0
M  V30 8425 H 775.974 2.82435 2.45319 0
M  V30 8426 H 777.307 3.70303 3.24248 0
M  V30 8427 N 778.959 -0.83999 1.33349 0
M  V30 8428 C 780.187 -1.62728 1.27778 0
M  V30 8429 C 780.602 -1.88191 -0.151505 0
M  V30 8430 O 779.959 -1.46128 -1.09329 0
M  V30 8431 C 780.01 -2.97813 2.04913 0
M  V30 8432 O 779.731 -2.73469 3.42266 0
M  V30 8433 C 781.232 -3.92245 2.0654 0
M  V30 8434 H 778.452 -0.506374 0.440257 0
M  V30 8435 H 780.996 -1.04637 1.75703 0
M  V30 8436 H 779.151 -3.52509 1.60674 0
M  V30 8437 H 779.565 -3.59483 3.81932 0
M  V30 8438 H 781.039 -4.84249 2.64966 0
M  V30 8439 H 781.516 -4.26332 1.05537 0
M  V30 8440 H 782.122 -3.43487 2.50793 0
M  V30 8441 N 780.437 -1.16799 -1.0581 0
M  V30 8442 C 781.367 -0.902241 -2.15364 0
M  V30 8443 C 782.348 0.153351 -1.69407 0
M  V30 8444 O 783.533 0.00442032 -1.94199 0
M  V30 8445 C 780.663 -0.407911 -3.44896 0
M  V30 8446 C 779.617 -1.40197 -4.04387 0
M  V30 8447 C 778.943 -0.765848 -5.29187 0
M  V30 8448 C 780.243 -2.77316 -4.42598 0
M  V30 8449 H 781.937 -1.81841 -2.37853 0
M  V30 8450 H 779.483 -0.875731 -1.14311 0
M  V30 8451 H 781.436 -0.20945 -4.20879 0
M  V30 8452 H 780.16 0.54378 -3.22041 0
M  V30 8453 H 778.819 -1.58707 -3.30466 0
M  V30 8454 H 778.467 0.192482 -5.02632 0
M  V30 8455 H 778.167 -1.42939 -5.69949 0
M  V30 8456 H 779.691 -0.577519 -6.07863 0
M  V30 8457 H 781.105 -2.62561 -5.09642 0
M  V30 8458 H 779.502 -3.4019 -4.94359 0
M  V30 8459 H 780.572 -3.32199 -3.53231 0
M  V30 8460 N 781.915 1.24427 -0.967243 0
M  V30 8461 C 782.847 2.24641 -0.454856 0
M  V30 8462 C 783.86 1.56849 0.436152 0
M  V30 8463 O 785.049 1.76846 0.242401 0
M  V30 8464 C 782.149 3.36954 0.362672 0
M  V30 8465 C 781.322 4.34318 -0.518324 0
M  V30 8466 C 780.381 5.25638 0.243122 0
M  V30 8467 O 779.407 5.68043 -0.362791 0
M  V30 8468 N 780.609 5.59897 1.53282 0
M  V30 8469 H 783.374 2.69238 -1.31648 0
M  V30 8470 H 780.935 1.38464 -0.839015 0
M  V30 8471 H 782.927 3.95014 0.880094 0
M  V30 8472 H 781.497 2.91646 1.12522 0
M  V30 8473 H 780.717 3.74953 -1.21672 0
M  V30 8474 H 782.005 4.96338 -1.11919 0
M  V30 8475 H 781.403 5.27373 2.04682 0
M  V30 8476 H 779.96 6.20488 1.99594 0
M  V30 8477 N 783.393 0.737304 1.3929 0
M  V30 8478 C 784.809 0.413132 1.5416 0
M  V30 8479 C 785.009 -1.07574 1.70382 0
M  V30 8480 O 784.065 -1.86185 1.70562 0
M  V30 8481 C 785.378 1.19817 2.75798 0
M  V30 8482 C 786.926 1.18662 2.89635 0
M  V30 8483 C 787.401 1.95427 4.14213 0
M  V30 8484 N 788.892 1.92605 4.21257 0
M  V30 8485 C 789.627 2.48808 5.16606 0
M  V30 8486 N 789.123 3.13659 6.1773 0
M  V30 8487 N 790.916 2.38829 5.08839 0
M  V30 8488 H 783.067 1.70243 1.27008 0
M  V30 8489 H 785.33 0.720802 0.61575 0
M  V30 8490 H 785.036 2.25179 2.70161 0
M  V30 8491 H 784.91 0.804144 3.68529 0
M  V30 8492 H 787.297 0.141112 2.94762 0
M  V30 8493 H 787.378 1.62003 1.97961 0
M  V30 8494 H 787.022 2.9998 4.09847 0
M  V30 8495 H 786.952 1.4949 5.04936 0
M  V30 8496 H 789.443 1.45362 3.48824 0
M  V30 8497 H 789.756 3.54006 6.8695 0
M  V30 8498 H 788.101 3.17749 6.1811 0
M  V30 8499 H 791.292 1.87806 4.28773 0
M  V30 8500 H 791.465 2.82929 5.82971 0
M  V30 8501 N 784.871 -1.49948 0.485112 0
M  V30 8502 C 786.287 -1.58984 0.140096 0
M  V30 8503 C 786.487 -1.49194 -1.35438 0
M  V30 8504 O 785.543 -1.35765 -2.12894 0
M  V30 8505 C 786.856 -2.92372 0.702769 0
M  V30 8506 C 788.404 -3.05801 0.66745 0
M  V30 8507 C 788.879 -4.41785 1.20791 0
M  V30 8508 N 790.37 -4.48234 1.16792 0
M  V30 8509 C 791.105 -5.51871 1.55646 0
M  V30 8510 N 790.601 -6.62692 2.02016 0
M  V30 8511 N 792.394 -5.42494 1.47161 0
M  V30 8512 H 784.545 -1.54555 1.45693 0
M  V30 8513 H 786.808 -0.731206 0.603359 0
M  V30 8514 H 786.514 -3.05056 1.75025 0
M  V30 8515 H 786.388 -3.76885 0.154205 0
M  V30 8516 H 788.775 -2.92757 -0.371157 0
M  V30 8517 H 788.856 -2.23011 1.25298 0
M  V30 8518 H 788.5 -4.55579 2.24522 0
M  V30 8519 H 788.43 -5.23188 0.598464 0
M  V30 8520 H 790.921 -3.68718 0.827982 0
M  V30 8521 H 791.234 -7.3785 2.29775 0
M  V30 8522 H 789.579 -6.63775 2.05979 0
M  V30 8523 H 792.77 -4.54806 1.10765 0
M  V30 8524 H 792.943 -6.2314 1.77766 0
M  V30 8525 N 786.349 -0.21828 -1.56081 0
M  V30 8526 C 787.598 0.414644 -1.97392 0
M  V30 8527 C 787.911 1.61132 -1.10887 0
M  V30 8528 O 789.117 2.31355 -1.42082 0
M  V30 8529 C 787.573 0.789099 -3.51143 0
M  V30 8530 C 787.181 -0.384578 -4.46346 0
M  V30 8531 C 788.925 1.38781 -4.01173 0
M  V30 8532 C 786.832 0.0121288 -5.91399 0
M  V30 8533 H 785.762 0.158691 -0.737111 0
M  V30 8534 H 788.413 -0.313974 -1.80794 0
M  V30 8535 H 786.795 1.57505 -3.6333 0
M  V30 8536 H 787.969 -1.16212 -4.45905 0
M  V30 8537 H 786.284 -0.896306 -4.06639 0
M  V30 8538 H 788.881 1.69746 -5.07041 0
M  V30 8539 H 789.224 2.30245 -3.46833 0
M  V30 8540 H 789.757 0.665364 -3.92196 0
M  V30 8541 H 786.496 -0.868917 -6.49715 0
M  V30 8542 H 786.016 0.754053 -5.95041 0
M  V30 8543 H 787.695 0.439949 -6.45502 0
M  V30 8544 N 787.827 1.57504 0.0551401 0
M  V30 8545 C 788.737 2.08198 1.08124 0
M  V30 8546 C 789.753 1.01496 1.41331 0
M  V30 8547 O 790.929 1.33073 1.51174 0
M  V30 8548 C 787.994 2.52968 2.37083 0
M  V30 8549 C 787.055 3.7404 2.10696 0
M  V30 8550 C 786.288 4.16665 3.33505 0
M  V30 8551 O 786.511 3.59019 4.4324 0
M  V30 8552 O 785.445 5.09324 3.20737 0
M  V30 8553 H 789.271 2.95977 0.680518 0
M  V30 8554 H 786.856 1.46933 0.270401 0
M  V30 8555 H 788.738 2.82211 3.12946 0
M  V30 8556 H 787.413 1.6831 2.76502 0
M  V30 8557 H 786.32 3.49855 1.32484 0
M  V30 8558 H 787.653 4.59601 1.76148 0
M  V30 8559 N 789.305 -0.326896 1.54172 0
M  V30 8560 C 790.215 -1.42525 1.86343 0
M  V30 8561 C 791.231 -1.56764 0.75505 0
M  V30 8562 O 792.407 -1.71924 1.04901 0
M  V30 8563 C 789.472 -2.77286 2.08119 0
M  V30 8564 C 788.533 -2.7225 3.31931 0
M  V30 8565 C 787.766 -4.00584 3.52659 0
M  V30 8566 O 787.989 -4.98686 2.76891 0
M  V30 8567 O 786.923 -4.04045 4.46129 0
M  V30 8568 H 790.749 -1.18249 2.79734 0
M  V30 8569 H 788.334 -0.520614 1.40036 0
M  V30 8570 H 790.216 -3.57065 2.23791 0
M  V30 8571 H 788.891 -3.01459 1.17917 0
M  V30 8572 H 787.798 -1.91033 3.21647 0
M  V30 8573 H 789.131 -2.53032 4.2218 0
M  V30 8574 N 790.784 -1.46188 -0.588786 0
M  V30 8575 C 791.694 -1.58865 -1.72624 0
M  V30 8576 C 792.71 -0.472348 -1.67466 0
M  V30 8577 O 793.886 -0.735638 -1.87484 0
M  V30 8578 C 790.951 -1.56989 -3.0912 0
M  V30 8579 C 790.012 -2.79804 -3.25589 0
M  V30 8580 C 789.245 -2.78009 -4.55573 0
M  V30 8581 O 789.468 -1.86406 -5.39082 0
M  V30 8582 O 788.402 -3.6947 -4.75159 0
M  V30 8583 H 792.228 -2.55047 -1.64878 0
M  V30 8584 H 789.813 -1.28912 -0.755115 0
M  V30 8585 H 791.695 -1.58618 -3.90408 0
M  V30 8586 H 790.37 -0.639648 -3.17317 0
M  V30 8587 H 789.277 -2.83732 -2.43818 0
M  V30 8588 H 790.61 -3.72017 -3.22279 0
M  V30 8589 N 792.262 0.832906 -1.33792 0
M  V30 8590 C 793.194 1.95042 -1.2038 0
M  V30 8591 C 794.207 1.62253 -0.133299 0
M  V30 8592 O 795.396 1.74315 -0.384261 0
M  V30 8593 C 792.496 3.287 -0.825215 0
M  V30 8594 C 791.669 3.89581 -1.98861 0
M  V30 8595 C 790.728 5.01602 -1.59003 0
M  V30 8596 O 789.754 5.20431 -2.30522 0
M  V30 8597 N 790.956 5.78356 -0.498446 0
M  V30 8598 H 793.721 2.07083 -2.16649 0
M  V30 8599 H 791.282 1.00896 -1.26616 0
M  V30 8600 H 793.274 4.01074 -0.540559 0
M  V30 8601 H 791.844 3.12565 0.0469796 0
M  V30 8602 H 791.064 3.09723 -2.43856 0
M  V30 8603 H 792.352 4.26989 -2.76691 0
M  V30 8604 H 791.75 5.65618 0.0963297 0
M  V30 8605 H 790.307 6.51226 -0.273485 0
M  V30 8606 N 793.74 1.17359 1.05189 0
M  V30 8607 C 794.687 0.890325 2.12936 0
M  V30 8608 C 795.657 -0.165779 1.65271 0
M  V30 8609 O 796.842 -0.0285672 1.90779 0
M  V30 8610 C 793.982 0.409793 3.42658 0
M  V30 8611 C 793.095 1.53002 4.03998 0
M  V30 8612 C 792.23 1.00336 5.21638 0
M  V30 8613 C 791.269 2.09903 5.74984 0
M  V30 8614 N 790.406 1.58714 6.83926 0
M  V30 8615 H 795.246 1.81299 2.36505 0
M  V30 8616 H 792.783 0.904249 1.16025 0
M  V30 8617 H 794.741 0.112743 4.17048 0
M  V30 8618 H 793.371 -0.475915 3.19272 0
M  V30 8619 H 792.423 1.9428 3.27047 0
M  V30 8620 H 793.735 2.3564 4.39631 0
M  V30 8621 H 792.889 0.660158 6.03098 0
M  V30 8622 H 791.628 0.14642 4.8748 0
M  V30 8623 H 790.633 2.45081 4.92154 0
M  V30 8624 H 791.858 2.96013 6.1119 0
M  V30 8625 H 789.804 0.752915 6.51665 0
M  V30 8626 H 789.721 2.34959 7.18561 0
M  V30 8627 H 790.989 1.27287 7.69037 0
M  V30 8628 N 795.218 -1.23913 0.973828 0
M  V30 8629 C 796.443 -1.96735 0.656511 0
M  V30 8630 C 796.868 -1.71682 -0.768571 0
M  V30 8631 O 796.226 -0.984267 -1.52256 0
M  V30 8632 C 796.274 -3.48004 0.944735 0
M  V30 8633 O 795.378 -4.12387 0.0333357 0
M  V30 8634 H 794.719 -0.616119 0.247575 0
M  V30 8635 H 797.249 -1.57525 1.30564 0
M  V30 8636 H 797.259 -3.98424 0.87876 0
M  V30 8637 H 795.934 -3.65567 1.98328 0
M  V30 8638 H 794.511 -3.72585 0.153157 0
M  V30 8639 N 796.696 -0.74468 -1.38897 0
M  V30 8640 C 797.643 -0.111064 -2.30533 0
M  V30 8641 C 798.613 0.719276 -1.49719 0
M  V30 8642 O 799.798 0.677244 -1.78376 0
M  V30 8643 C 796.938 0.78292 -3.36102 0
M  V30 8644 C 796.051 -0.0610817 -4.31957 0
M  V30 8645 C 795.186 0.835075 -5.24595 0
M  V30 8646 C 794.225 -0.0130974 -6.12099 0
M  V30 8647 N 793.362 0.839525 -6.97063 0
M  V30 8648 H 798.202 -0.898113 -2.84144 0
M  V30 8649 H 795.739 -0.454537 -1.39901 0
M  V30 8650 H 797.697 1.31578 -3.95908 0
M  V30 8651 H 796.327 1.53585 -2.83922 0
M  V30 8652 H 795.379 -0.711469 -3.73687 0
M  V30 8653 H 796.691 -0.716482 -4.93627 0
M  V30 8654 H 795.845 1.43542 -5.89475 0
M  V30 8655 H 794.584 1.52423 -4.63269 0
M  V30 8656 H 793.589 -0.626179 -5.46223 0
M  V30 8657 H 794.814 -0.699181 -6.75491 0
M  V30 8658 H 792.76 1.5138 -6.38295 0
M  V30 8659 H 792.677 0.240823 -7.55616 0
M  V30 8660 H 793.945 1.42513 -7.66362 0
M  V30 8661 N 798.174 1.49689 -0.493057 0
M  V30 8662 C 799.59 1.58907 -0.148526 0
M  V30 8663 C 799.79 1.4991 1.34645 0
M  V30 8664 O 798.846 1.36893 2.12171 0
M  V30 8665 C 800.159 2.91996 -0.718265 0
M  V30 8666 C 801.707 3.05443 -0.683658 0
M  V30 8667 C 802.182 4.41138 -1.23132 0
M  V30 8668 N 803.673 4.47608 -1.19167 0
M  V30 8669 C 804.408 5.51038 -1.5857 0
M  V30 8670 N 803.904 6.61612 -2.05528 0
M  V30 8671 N 805.697 5.41706 -1.50036 0
M  V30 8672 H 797.848 1.5378 -1.46511 0
M  V30 8673 H 800.111 0.727996 -0.607228 0
M  V30 8674 H 799.817 3.04123 -1.7664 0
M  V30 8675 H 799.691 3.76798 -0.17419 0
M  V30 8676 H 802.078 2.92949 0.355626 0
M  V30 8677 H 802.159 2.22344 -1.26479 0
M  V30 8678 H 801.803 4.54382 -2.26935 0
M  V30 8679 H 801.733 5.22864 -0.626201 0
M  V30 8680 H 804.224 3.68274 -0.847524 0
M  V30 8681 H 804.537 7.36622 -2.33685 0
M  V30 8682 H 802.882 6.62674 -2.09497 0
M  V30 8683 H 806.073 4.54212 -1.13176 0
M  V30 8684 H 806.246 6.22188 -1.81068 0
M  V30 8685 N 799.652 0.226554 1.55963 0
M  V30 8686 C 800.599 -0.681504 2.20509 0
M  V30 8687 C 801.569 -1.1866 1.16229 0
M  V30 8688 O 802.754 -1.24478 1.44602 0
M  V30 8689 C 799.894 -1.88183 2.89277 0
M  V30 8690 C 799.007 -1.41517 4.08163 0
M  V30 8691 C 798.142 -2.57346 4.647 0
M  V30 8692 C 797.181 -2.07441 5.75877 0
M  V30 8693 N 796.318 -3.16561 6.26685 0
M  V30 8694 H 801.158 -0.124372 2.9774 0
M  V30 8695 H 798.695 -0.0496333 1.47016 0
M  V30 8696 H 800.653 -2.58666 3.27335 0
M  V30 8697 H 799.283 -2.41177 2.14555 0
M  V30 8698 H 798.335 -0.605099 3.75557 0
M  V30 8699 H 799.647 -1.00928 4.88482 0
M  V30 8700 H 798.801 -3.35903 5.05227 0
M  V30 8701 H 797.54 -3.01227 3.83554 0
M  V30 8702 H 796.545 -1.27347 5.34848 0
M  V30 8703 H 797.77 -1.64554 6.58862 0
M  V30 8704 H 795.716 -3.59914 5.48451 0
M  V30 8705 H 795.633 -2.80239 7.02141 0
M  V30 8706 H 796.901 -3.95238 6.71868 0
M  V30 8707 N 801.13 -1.57531 -0.0467866 0
M  V30 8708 C 802.378 -1.88078 -0.739656 0
M  V30 8709 C 802.699 -0.821936 -1.76831 0
M  V30 8710 O 801.969 0.146582 -1.95351 0
M  V30 8711 H 800.549 -0.694075 -0.276169 0
M  V30 8712 H 803.211 -1.94893 -0.0169391 0
M  V30 8713 H 802.307 -2.86396 -1.24031 0
M  V30 8714 N 802.608 0.318715 -1.54344 0
M  V30 8715 C 803.558 1.39364 -1.80448 0
M  V30 8716 C 804.542 1.46708 -0.660728 0
M  V30 8717 O 805.734 1.51159 -0.920869 0
M  V30 8718 C 802.863 2.76144 -2.03959 0
M  V30 8719 C 801.949 2.73094 -3.24469 0
M  V30 8720 N 802.34 2.39663 -4.45416 0
M  V30 8721 C 800.638 3.04218 -3.2614 0
M  V30 8722 C 801.339 2.45469 -5.27371 0
M  V30 8723 N 800.315 2.82107 -4.64668 0
M  V30 8724 H 804.117 1.12453 -2.71535 0
M  V30 8725 H 801.631 0.527221 -1.53604 0
M  V30 8726 H 803.628 3.53627 -2.20802 0
M  V30 8727 H 802.288 3.03982 -1.14129 0
M  V30 8728 H 803.299 2.12424 -4.72331 0
M  V30 8729 H 799.976 3.37066 -2.4636 0
M  V30 8730 H 801.366 2.22571 -6.33965 0
M  V30 8731 N 804.086 1.46499 0.581025 0
M  V30 8732 C 804.996 1.59778 1.71779 0
M  V30 8733 C 806.012 0.481223 1.67213 0
M  V30 8734 O 807.188 0.74557 1.87091 0
M  V30 8735 C 804.253 1.58626 3.08283 0
M  V30 8736 C 803.314 2.81527 3.241 0
M  V30 8737 C 802.547 2.80421 4.54092 0
M  V30 8738 O 802.77 1.89262 5.38085 0
M  V30 8739 O 801.704 3.71984 4.73193 0
M  V30 8740 H 805.53 2.55918 1.63523 0
M  V30 8741 H 803.115 1.29311 0.748267 0
M  V30 8742 H 804.997 1.60686 3.89561 0
M  V30 8743 H 803.672 0.656467 3.16973 0
M  V30 8744 H 802.579 2.85021 2.42309 0
M  V30 8745 H 803.912 3.73721 3.20302 0
M  V30 8746 N 805.565 -0.825799 1.34232 0
M  V30 8747 C 806.795 -1.61129 1.29309 0
M  V30 8748 C 807.203 -1.88714 -0.135589 0
M  V30 8749 O 806.546 -1.47703 -1.09222 0
M  V30 8750 C 806.608 -2.97866 2.01287 0
M  V30 8751 C 806.272 -2.9319 3.50555 0
M  V30 8752 C 807.269 -2.67978 4.45515 0
M  V30 8753 C 804.954 -3.12913 3.92926 0
M  V30 8754 C 806.948 -2.62536 5.80822 0
M  V30 8755 C 804.635 -3.07096 5.28333 0
M  V30 8756 C 805.633 -2.8194 6.22092 0
M  V30 8757 O 805.321 -2.7605 7.55018 0
M  V30 8758 H 805.053 -0.507652 0.446391 0
M  V30 8759 H 807.607 -1.03575 1.77374 0
M  V30 8760 H 805.837 -3.57327 1.47832 0
M  V30 8761 H 807.526 -3.58848 1.89691 0
M  V30 8762 H 808.292 -2.52478 4.14101 0
M  V30 8763 H 804.171 -3.3151 3.20347 0
M  V30 8764 H 807.715 -2.42821 6.53975 0
M  V30 8765 H 803.612 -3.22148 5.59367 0
M  V30 8766 H 804.38 -2.91798 7.6472 0
M  V30 8767 N 807.043 -1.17915 -1.04565 0
M  V30 8768 C 808.271 -0.99616 -1.8134 0
M  V30 8769 C 808.686 0.455509 -1.83223 0
M  V30 8770 O 808.043 1.31636 -1.26405 0
M  V30 8771 C 808.094 -1.53758 -3.27171 0
M  V30 8772 O 807.815 -2.93241 -3.25486 0
M  V30 8773 C 809.316 -1.40007 -4.2061 0
M  V30 8774 H 806.536 -0.352055 -0.571225 0
M  V30 8775 H 809.08 -1.56349 -1.31815 0
M  V30 8776 H 807.235 -1.01213 -3.73945 0
M  V30 8777 H 807.649 -3.18392 -4.16805 0
M  V30 8778 H 809.123 -1.82695 -5.2089 0
M  V30 8779 H 809.6 -0.348054 -4.37819 0
M  V30 8780 H 810.206 -1.916 -3.79697 0
M  V30 8781 N 808.521 1.23394 -0.980386 0
M  V30 8782 C 809.469 2.26872 -0.513018 0
M  V30 8783 C 810.463 1.63853 0.429948 0
M  V30 8784 O 811.669 1.77417 0.303842 0
M  V30 8785 H 808.044 0.737398 -0.147473 0
M  V30 8786 H 810.015 2.63654 -1.39746 0
M  V30 8787 C 808.764 3.47289 0.168962 0
M  V30 8788 H 808.087 3.96033 -0.547546 0
M  V30 8789 H 809.527 4.21502 0.459616 0
M  V30 8790 C 807.986 3.06425 1.40019 0
M  V30 8791 O 808.516 3.14708 2.49643 0
M  V30 8792 N 806.722 2.61339 1.27084 0
M  V30 8793 H 806.269 2.54799 0.378872 0
M  V30 8794 H 806.227 2.34364 2.09573 0
M  V30 8795 N 809.999 0.752036 1.385 0
M  V30 8796 C 811.248 0.304294 1.99391 0
M  V30 8797 C 811.561 -1.11982 1.60373 0
M  V30 8798 O 812.767 -1.66795 2.14223 0
M  V30 8799 C 811.223 0.493101 3.56506 0
M  V30 8800 C 810.831 1.9262 4.04477 0
M  V30 8801 C 812.575 0.107994 4.24363 0
M  V30 8802 C 810.482 2.06365 5.54227 0
M  V30 8803 H 809.412 0.110024 0.745929 0
M  V30 8804 H 812.063 0.928355 1.58284 0
M  V30 8805 H 810.445 -0.20012 3.95494 0
M  V30 8806 H 811.619 2.65276 3.76783 0
M  V30 8807 H 809.934 2.26608 3.49339 0
M  V30 8808 H 812.531 0.189474 5.34364 0
M  V30 8809 H 812.874 -0.939165 4.05568 0
M  V30 8810 H 813.407 0.753011 3.90608 0
M  V30 8811 H 810.146 3.0933 5.77923 0
M  V30 8812 H 809.666 1.38167 5.83669 0
M  V30 8813 H 811.345 1.85286 6.19902 0
M  V30 8814 N 811.477 -1.49425 0.500989 0
M  V30 8815 C 812.424 -2.29126 -0.277443 0
M  V30 8816 C 813.394 -1.35522 -0.960363 0
M  V30 8817 O 814.579 -1.64479 -0.967027 0
M  V30 8818 C 811.719 -3.18193 -1.33593 0
M  V30 8819 C 810.832 -4.26854 -0.664791 0
M  V30 8820 C 809.967 -5.03137 -1.70372 0
M  V30 8821 C 809.006 -6.03635 -1.01445 0
M  V30 8822 N 808.143 -6.73083 -1.99758 0
M  V30 8823 H 812.983 -2.95187 0.408458 0
M  V30 8824 H 810.52 -1.45546 0.213275 0
M  V30 8825 H 812.478 -3.68207 -1.96161 0
M  V30 8826 H 811.108 -2.54116 -1.9906 0
M  V30 8827 H 810.16 -3.80328 0.0741708 0
M  V30 8828 H 811.472 -4.9865 -0.122197 0
M  V30 8829 H 810.626 -5.5702 -2.40445 0
M  V30 8830 H 809.365 -4.31114 -2.28017 0
M  V30 8831 H 808.37 -5.48984 -0.299496 0
M  V30 8832 H 809.595 -6.77644 -0.444497 0
M  V30 8833 H 807.541 -6.03832 -2.56365 0
M  V30 8834 H 807.458 -7.40855 -1.50565 0
M  V30 8835 H 808.726 -7.3157 -2.69119 0
M  V30 8836 N 812.955 -0.234822 -1.55841 0
M  V30 8837 C 814.185 0.397168 -2.02746 0
M  V30 8838 C 814.593 1.52951 -1.11367 0
M  V30 8839 O 813.936 1.8332 -0.118133 0
M  V30 8840 C 813.998 0.977748 -3.45948 0
M  V30 8841 C 813.662 -0.0208193 -4.56995 0
M  V30 8842 C 814.659 -0.826015 -5.13296 0
M  V30 8843 C 812.344 -0.143416 -5.02095 0
M  V30 8844 C 814.338 -1.74038 -6.1318 0
M  V30 8845 C 812.025 -1.0613 -6.01814 0
M  V30 8846 C 813.023 -1.85832 -6.57233 0
M  V30 8847 O 812.711 -2.76075 -7.55008 0
M  V30 8848 H 812.443 0.0999802 -0.668566 0
M  V30 8849 H 814.997 -0.352673 -2.0235 0
M  V30 8850 H 813.227 1.77693 -3.43456 0
M  V30 8851 H 814.916 1.51854 -3.76424 0
M  V30 8852 H 815.682 -0.741822 -4.79293 0
M  V30 8853 H 811.561 0.466857 -4.5863 0
M  V30 8854 H 815.105 -2.36291 -6.56363 0
M  V30 8855 H 811.002 -1.14646 -6.35237 0
M  V30 8856 H 811.77 -2.703 -7.7258 0
M  V30 8857 N 814.433 1.57553 0.0384317 0
M  V30 8858 C 815.658 1.93485 0.746872 0
M  V30 8859 C 816.083 0.834069 1.68597 0
M  V30 8860 O 815.441 -0.210902 1.80069 0
M  V30 8861 C 815.489 3.28463 1.4881 0
M  V30 8862 O 814.593 3.20051 2.60079 0
M  V30 8863 H 813.934 0.632675 0.201539 0
M  V30 8864 H 816.464 2.046 -0.00329815 0
M  V30 8865 H 816.474 3.63132 1.86009 0
M  V30 8866 H 815.149 4.08147 0.799297 0
M  V30 8867 H 813.726 2.96998 2.25492 0
M  V30 8868 N 815.911 -0.310526 1.54511 0
M  V30 8869 C 816.841 -1.38757 1.878 0
M  V30 8870 C 817.822 -1.53353 0.735991 0
M  V30 8871 O 819.007 -1.67018 0.990887 0
M  V30 8872 C 816.137 -2.75327 2.11689 0
M  V30 8873 C 815.091 -2.75506 3.27537 0
M  V30 8874 C 814.417 -4.15275 3.36824 0
M  V30 8875 C 815.717 -2.38093 4.64875 0
M  V30 8876 H 817.411 -1.11146 2.78005 0
M  V30 8877 H 814.957 -0.533232 1.33763 0
M  V30 8878 H 816.91 -3.50752 2.33562 0
M  V30 8879 H 815.634 -3.04443 1.18245 0
M  V30 8880 H 814.293 -2.02538 3.05572 0
M  V30 8881 H 813.941 -4.41553 2.40915 0
M  V30 8882 H 813.641 -4.16299 4.14692 0
M  V30 8883 H 815.165 -4.92493 3.60947 0
M  V30 8884 H 816.579 -3.03232 4.86542 0
M  V30 8885 H 814.976 -2.50345 5.45387 0
M  V30 8886 H 816.046 -1.33227 4.66239 0
M  V30 8887 N 817.389 -1.46805 -0.573248 0
M  V30 8888 C 818.352 -1.57655 -1.66366 0
M  V30 8889 C 819.352 -0.452905 -1.5429 0
M  V30 8890 O 820.542 -0.717502 -1.58737 0
M  V30 8891 C 817.674 -1.50584 -3.05839 0
M  V30 8892 H 818.867 -2.54842 -1.581 0
M  V30 8893 H 816.42 -1.34756 -0.791868 0
M  V30 8894 H 817.155 -0.547127 -3.19651 0
M  V30 8895 H 816.94 -2.32118 -3.16012 0
M  V30 8896 H 818.43 -1.61282 -3.85199 0
M  V30 8897 N 818.867 0.818669 -1.34668 0
M  V30 8898 C 820.144 1.56118 -1.17841 0
M  V30 8899 C 820.524 2.09646 0.24731 0
M  V30 8900 O 819.872 1.91329 1.24922 0
M  V30 8901 C 820.082 2.67922 -2.23649 0
M  V30 8902 C 821.43 3.36579 -2.58843 0
M  V30 8903 O 822.454 2.78182 -2.22471 0
M  V30 8904 O 821.313 4.42045 -3.21339 0
M  V30 8905 H 818.407 0.689216 -0.457067 0
M  V30 8906 H 820.953 0.859674 -1.46314 0
M  V30 8907 H 819.725 2.26153 -3.19328 0
M  V30 8908 H 819.348 3.45719 -1.96377 0
M  V30 8909 N 820.346 1.18468 1.03938 0
M  V30 8910 C 821.278 0.870615 2.12021 0
M  V30 8911 C 822.291 -0.132318 1.62261 0
M  V30 8912 O 823.48 0.0956901 1.78243 0
M  V30 8913 C 820.58 0.279727 3.37744 0
M  V30 8914 C 819.753 1.32863 4.16733 0
M  V30 8915 C 818.812 0.753204 5.20781 0
M  V30 8916 O 817.838 1.42825 5.5099 0
M  V30 8917 N 819.04 -0.448664 5.78764 0
M  V30 8918 H 821.805 1.80091 2.39556 0
M  V30 8919 H 819.366 1.08524 1.20142 0
M  V30 8920 H 821.358 -0.118829 4.04526 0
M  V30 8921 H 819.928 -0.554621 3.07641 0
M  V30 8922 H 819.148 1.90245 3.45254 0
M  V30 8923 H 820.436 2.03574 4.66299 0
M  V30 8924 H 819.834 -1.01481 5.56523 0
M  V30 8925 H 818.391 -0.789125 6.47005 0
M  V30 8926 N 821.824 -1.22873 0.986916 0
M  V30 8927 C 823.052 -1.95487 0.677663 0
M  V30 8928 C 823.467 -1.72978 -0.756572 0
M  V30 8929 O 822.824 -1.02517 -1.50985 0
M  V30 8930 C 822.875 -3.48337 0.966638 0
M  V30 8931 O 822.596 -3.70087 2.34451 0
M  V30 8932 C 824.097 -4.38142 0.674248 0
M  V30 8933 H 821.317 -0.622211 0.251185 0
M  V30 8934 H 823.861 -1.56187 1.32007 0
M  V30 8935 H 822.016 -3.85628 0.370137 0
M  V30 8936 H 822.43 -4.64332 2.43918 0
M  V30 8937 H 823.904 -5.44165 0.926759 0
M  V30 8938 H 824.381 -4.3745 -0.391728 0
M  V30 8939 H 824.987 -4.06469 1.25152 0
M  V30 8940 N 823.302 -0.75937 -1.38099 0
M  V30 8941 C 824.527 -0.327859 -2.04792 0
M  V30 8942 C 824.952 1.03752 -1.56899 0
M  V30 8943 O 824.31 1.66235 -0.723581 0
M  V30 8944 C 824.358 -0.366264 -3.58735 0
M  V30 8945 O 823.462 0.637697 -4.0744 0
M  V30 8946 H 822.803 -0.144092 -0.648177 0
M  V30 8947 H 825.333 -1.03211 -1.7666 0
M  V30 8948 H 825.343 -0.219179 -4.07411 0
M  V30 8949 H 824.018 -1.36243 -3.92951 0
M  V30 8950 H 822.595 0.454749 -3.70117 0
M  V30 8951 N 824.78 1.49157 -0.508906 0
M  V30 8952 C 826.028 2.02073 0.0327335 0
M  V30 8953 C 826.349 1.39012 1.3675 0
M  V30 8954 O 825.619 0.548153 1.88075 0
M  V30 8955 H 824.199 0.746848 0.0150864 0
M  V30 8956 H 826.861 1.83097 -0.667946 0
M  V30 8957 H 825.957 3.11707 0.1566 0
M  V30 8958 N 826.258 0.243083 1.55714 0
M  V30 8959 C 827.535 -0.432851 1.90751 0
M  V30 8960 C 827.915 -1.76153 1.16333 0
M  V30 8961 O 827.263 -2.26783 0.279565 0
M  V30 8962 C 827.473 -0.604685 3.43722 0
M  V30 8963 C 828.821 -0.90231 4.14902 0
M  V30 8964 O 829.845 -0.690689 3.49439 0
M  V30 8965 O 828.704 -1.3051 5.30688 0
M  V30 8966 H 825.798 -0.231835 0.79384 0
M  V30 8967 H 828.344 0.286867 1.67258 0
M  V30 8968 H 827.116 0.331655 3.89892 0
M  V30 8969 H 826.739 -1.37509 3.73065 0
M  V30 8970 N 827.736 -1.57571 -0.0300757 0
M  V30 8971 C 828.668 -2.0329 -1.05857 0
M  V30 8972 C 829.681 -0.945543 -1.32527 0
M  V30 8973 O 830.87 -1.22287 -1.30032 0
M  V30 8974 C 827.97 -2.39234 -2.40042 0
M  V30 8975 C 827.143 -3.70337 -2.32743 0
M  V30 8976 C 826.202 -3.93482 -3.49369 0
M  V30 8977 O 825.228 -4.64551 -3.28909 0
M  V30 8978 N 826.43 -3.39042 -4.71201 0
M  V30 8979 H 829.195 -2.9214 -0.668897 0
M  V30 8980 H 826.756 -1.60425 -0.218038 0
M  V30 8981 H 828.748 -2.51856 -3.16782 0
M  V30 8982 H 827.318 -1.5606 -2.70858 0
M  V30 8983 H 826.538 -3.68079 -1.41109 0
M  V30 8984 H 827.826 -4.56343 -2.25007 0
M  V30 8985 H 827.224 -2.81434 -4.90725 0
M  V30 8986 H 825.781 -3.57045 -5.45309 0
M  V30 8987 N 829.214 0.302327 -1.54673 0
M  V30 8988 C 830.439 1.06103 -1.78205 0
M  V30 8989 C 830.864 1.80204 -0.53926 0
M  V30 8990 O 830.222 1.73975 0.510142 0
M  V30 8991 C 830.27 2.01829 -2.98827 0
M  V30 8992 O 829.374 3.10108 -2.71858 0
M  V30 8993 H 828.715 0.30487 -0.589873 0
M  V30 8994 H 831.245 0.340153 -2.01753 0
M  V30 8995 H 831.255 2.44319 -3.2676 0
M  V30 8996 H 829.93 1.473 -3.88942 0
M  V30 8997 H 828.507 2.72142 -2.54937 0
M  V30 8998 N 830.692 1.47107 0.565454 0
M  V30 8999 C 832.103 1.47266 1.1476 0
M  V30 9000 C 832.454 0.222841 1.9493 0
M  V30 9001 O 831.579 -0.672862 2.05673 0
M  V30 9002 C 832.174 2.66822 2.08785 0
M  V30 9003 C 830.733 2.69967 2.62288 0
M  V30 9004 C 829.88 2.40236 1.38499 0
M  V30 9005 H 832.831 1.54736 0.352479 0
M  V30 9006 H 832.852 2.43323 2.92531 0
M  V30 9007 H 832.364 3.5777 1.50408 0
M  V30 9008 H 830.465 1.83137 3.24487 0
M  V30 9009 H 830.578 3.70426 3.03845 0
M  V30 9010 H 828.942 1.90648 1.68895 0
M  V30 9011 H 829.725 3.33381 0.819274 0
M  V30 9012 N 832.17 -0.811516 1.35101 0
M  V30 9013 C 833.1 -1.9378 1.30275 0
M  V30 9014 C 834.081 -1.69165 0.178075 0
M  V30 9015 O 835.266 -1.90599 0.372256 0
M  V30 9016 C 832.396 -3.30439 1.06899 0
M  V30 9017 C 831.35 -3.69523 2.15955 0
M  V30 9018 C 830.676 -5.0429 1.77751 0
M  V30 9019 C 831.976 -3.80419 3.57881 0
M  V30 9020 H 833.67 -1.98075 2.24514 0
M  V30 9021 H 831.216 -0.951586 1.08078 0
M  V30 9022 H 833.169 -4.08828 1.02164 0
M  V30 9023 H 831.893 -3.26473 0.0910462 0
M  V30 9024 H 830.552 -2.93416 2.19778 0
M  V30 9025 H 830.2 -4.96823 0.785876 0
M  V30 9026 H 829.9 -5.31411 2.5075 0
M  V30 9027 H 831.424 -5.85125 1.74533 0
M  V30 9028 H 832.838 -4.49051 3.56407 0
M  V30 9029 H 831.235 -4.19005 4.29598 0
M  V30 9030 H 832.305 -2.82105 3.94391 0
M  V30 9031 N 833.648 -1.19017 -1.03309 0
M  V30 9032 C 835.059 -0.993206 -1.5809 0
M  V30 9033 C 835.41 0.45505 -1.9085 0
M  V30 9034 O 834.535 1.33372 -1.70414 0
M  V30 9035 C 835.13 -1.79661 -2.87241 0
M  V30 9036 C 833.689 -1.64377 -3.38611 0
M  V30 9037 C 832.836 -1.78628 -2.12102 0
M  V30 9038 H 835.787 -1.3345 -0.858879 0
M  V30 9039 H 835.808 -1.29019 -3.57958 0
M  V30 9040 H 835.32 -2.85061 -2.63366 0
M  V30 9041 H 833.421 -0.615447 -3.67482 0
M  V30 9042 H 833.534 -2.44651 -4.11926 0
M  V30 9043 H 831.898 -1.21648 -2.23772 0
M  V30 9044 H 832.681 -2.8548 -1.90673 0
M  V30 9045 N 835.127 1.22348 -0.993418 0
M  V30 9046 C 836.538 1.72893 -0.704616 0
M  V30 9047 C 836.889 1.80095 0.778483 0
M  V30 9048 O 836.014 1.4476 1.60853 0
M  V30 9049 C 836.609 3.14 -1.27237 0
M  V30 9050 C 835.168 3.61949 -1.03294 0
M  V30 9051 C 834.315 2.39816 -1.39225 0
M  V30 9052 H 837.266 1.07688 -1.16572 0
M  V30 9053 H 837.287 3.74886 -0.651212 0
M  V30 9054 H 836.799 3.08727 -2.3518 0
M  V30 9055 H 834.9 3.72588 0.0298329 0
M  V30 9056 H 835.013 4.48051 -1.69668 0
M  V30 9057 H 833.377 2.41448 -0.810849 0
M  V30 9058 H 834.16 2.37203 -2.48172 0
M  V30 9059 N 836.605 0.766683 1.37694 0
M  V30 9060 C 837.845 0.333815 2.01656 0
M  V30 9061 C 838.209 -1.06813 1.59546 0
M  V30 9062 O 839.41 -1.60084 2.15932 0
M  V30 9063 C 837.681 0.467032 3.54335 0
M  V30 9064 S 839.24 0.118679 4.38639 0
M  V30 9065 H 836.058 0.128723 0.699251 0
M  V30 9066 H 838.66 1.00018 1.67978 0
M  V30 9067 H 837.364 1.48808 3.82471 0
M  V30 9068 H 836.895 -0.216066 3.92806 0
M  V30 9069 H 838.91 -1.08746 4.84137 0
M  V30 9070 N 838.083 -1.48885 0.516809 0
M  V30 9071 C 839.311 -2.06892 -0.0184017 0
M  V30 9072 C 839.726 -1.37511 -1.29368 0
M  V30 9073 O 839.083 -0.458409 -1.76649 0
M  V30 9074 C 839.134 -3.60566 -0.259673 0
M  V30 9075 O 838.855 -4.27338 0.965065 0
M  V30 9076 C 840.356 -4.35331 -0.836751 0
M  V30 9077 H 837.576 -0.670433 0.0275743 0
M  V30 9078 H 840.12 -1.91455 0.718689 0
M  V30 9079 H 838.275 -3.75653 -0.94678 0
M  V30 9080 H 838.689 -5.19287 0.737647 0
M  V30 9081 H 840.163 -5.43675 -0.955065 0
M  V30 9082 H 840.64 -3.9887 -1.83845 0
M  V30 9083 H 841.246 -4.2489 -0.186622 0
M  V30 9084 N 839.561 -0.251338 -1.55583 0
M  V30 9085 C 840.972 0.25098 -1.85005 0
M  V30 9086 C 841.323 1.57259 -1.17321 0
M  V30 9087 O 840.448 2.11603 -0.453136 0
M  V30 9088 C 841.043 0.462161 -3.35633 0
M  V30 9089 C 839.602 0.908737 -3.65266 0
M  V30 9090 C 838.749 -0.0115418 -2.77298 0
M  V30 9091 H 841.7 -0.473782 -1.51463 0
M  V30 9092 H 841.721 1.30415 -3.57452 0
M  V30 9093 H 841.233 -0.499886 -3.84867 0
M  V30 9094 H 839.334 1.8831 -3.21512 0
M  V30 9095 H 839.447 0.762526 -4.72993 0
M  V30 9096 H 837.811 0.500612 -2.49732 0
M  V30 9097 H 838.594 -0.969042 -3.29339 0
M  V30 9098 N 841.039 1.57585 0.0217189 0
M  V30 9099 C 842.267 1.93871 0.722619 0
M  V30 9100 C 842.682 0.851706 1.68498 0
M  V30 9101 O 842.039 -0.17127 1.81695 0
M  V30 9102 C 842.09 3.30114 1.47333 0
M  V30 9103 O 841.811 4.34639 0.549597 0
M  V30 9104 C 843.312 3.80727 2.27072 0
M  V30 9105 H 840.532 0.639671 0.202637 0
M  V30 9106 H 843.076 2.04487 -0.0229414 0
M  V30 9107 H 841.231 3.20872 2.17071 0
M  V30 9108 H 841.645 5.13326 1.07686 0
M  V30 9109 H 843.119 4.78547 2.75131 0
M  V30 9110 H 843.596 3.12301 3.08812 0
M  V30 9111 H 844.202 3.93075 1.62395 0
M  V30 9112 N 842.517 -0.29412 1.54831 0
M  V30 9113 C 843.928 -0.866651 1.65366 0
M  V30 9114 C 844.279 -1.87834 0.56681 0
M  V30 9115 O 843.404 -2.14374 -0.295389 0
M  V30 9116 C 843.999 -1.57869 2.99771 0
M  V30 9117 C 842.558 -2.09954 3.12404 0
M  V30 9118 C 841.705 -0.934492 2.6108 0
M  V30 9119 H 844.656 -0.0709551 1.58541 0
M  V30 9120 H 844.677 -2.44462 2.91579 0
M  V30 9121 H 844.189 -0.84212 3.78853 0
M  V30 9122 H 842.29 -2.86637 2.38055 0
M  V30 9123 H 842.403 -2.32934 4.18663 0
M  V30 9124 H 840.767 -1.32199 2.17705 0
M  V30 9125 H 841.55 -0.211768 3.42646 0
M  V30 9126 N 843.995 -1.47404 -0.557645 0
M  V30 9127 C 845.406 -1.47872 -1.13977 0
M  V30 9128 C 845.757 -0.233176 -1.94809 0
M  V30 9129 O 844.882 0.661945 -2.06027 0
M  V30 9130 C 845.477 -2.67926 -2.07368 0
M  V30 9131 C 844.036 -2.71354 -2.60852 0
M  V30 9132 C 843.183 -2.40967 -1.37223 0
M  V30 9133 H 846.134 -1.54921 -0.344268 0
M  V30 9134 H 846.155 -2.44871 -2.91236 0
M  V30 9135 H 845.667 -3.58562 -1.48509 0
M  V30 9136 H 843.768 -1.84855 -3.23511 0
M  V30 9137 H 843.881 -3.72032 -3.01876 0
M  V30 9138 H 842.245 -1.91541 -1.67882 0
M  V30 9139 H 843.028 -3.33811 -0.801583 0
M  V30 9140 N 845.473 0.80434 -1.35529 0
M  V30 9141 C 846.713 1.57489 -1.30295 0
M  V30 9142 C 847.077 1.91621 0.120528 0
M  V30 9143 O 848.278 2.67151 0.297265 0
M  V30 9144 C 846.549 2.82741 -2.18615 0
M  V30 9145 S 848.108 3.73125 -2.30918 0
M  V30 9146 H 844.926 0.539573 -0.463014 0
M  V30 9147 H 847.528 0.948601 -1.70944 0
M  V30 9148 H 846.232 2.55692 -3.21014 0
M  V30 9149 H 845.763 3.50353 -1.78931 0
M  V30 9150 H 847.778 4.73122 -1.49566 0
M  V30 9151 N 846.951 1.19563 1.02676 0
M  V30 9152 C 847.914 0.937182 2.09164 0
M  V30 9153 C 848.914 -0.0831927 1.60585 0
M  V30 9154 O 850.104 0.15178 1.73538 0
M  V30 9155 C 847.236 0.408912 3.38439 0
M  V30 9156 H 848.429 1.88164 2.33526 0
M  V30 9157 H 845.982 1.00959 1.19319 0
M  V30 9158 H 846.717 -0.541497 3.19747 0
M  V30 9159 H 846.502 1.14464 3.7502 0
M  V30 9160 H 847.992 0.247242 4.16867 0
M  V30 9161 N 848.429 -1.21819 0.999893 0
M  V30 9162 C 849.339 -2.27691 0.565159 0
M  V30 9163 C 850.355 -1.69587 -0.389398 0
M  V30 9164 O 851.531 -1.99786 -0.254499 0
M  V30 9165 C 848.596 -3.46537 -0.106432 0
M  V30 9166 C 847.657 -4.19932 0.891964 0
M  V30 9167 C 846.89 -5.33103 0.252327 0
M  V30 9168 O 847.113 -5.62398 -0.952103 0
M  V30 9169 O 846.047 -5.94184 0.960698 0
M  V30 9170 H 849.873 -2.67059 1.44613 0
M  V30 9171 H 847.458 -1.28119 0.768499 0
M  V30 9172 H 849.34 -4.18631 -0.482301 0
M  V30 9173 H 848.015 -3.09079 -0.961865 0
M  V30 9174 H 846.922 -3.5008 1.3189 0
M  V30 9175 H 848.255 -4.61287 1.71682 0
M  V30 9176 N 849.908 -0.773975 -1.37286 0
M  V30 9177 C 850.841 -0.108019 -2.27944 0
M  V30 9178 C 851.819 0.706737 -1.46438 0
M  V30 9179 O 853.003 0.681025 -1.75768 0
M  V30 9180 C 850.13 0.853199 -3.27778 0
M  V30 9181 C 849.176 0.122164 -4.26325 0
M  V30 9182 S 850.009 -1.19136 -5.22079 0
M  V30 9183 C 851.165 -0.233737 -6.25463 0
M  V30 9184 H 851.398 -0.876743 -2.84078 0
M  V30 9185 H 848.931 -0.567468 -1.43594 0
M  V30 9186 H 850.889 1.40238 -3.85803 0
M  V30 9187 H 849.55 1.59505 -2.70586 0
M  V30 9188 H 848.743 0.850926 -4.96765 0
M  V30 9189 H 848.345 -0.356079 -3.72301 0
M  V30 9190 H 850.637 0.59305 -6.74899 0
M  V30 9191 H 851.58 -0.906373 -7.02275 0
M  V30 9192 H 851.988 0.156048 -5.64284 0
M  V30 9193 N 851.386 1.48609 -0.524698 0
M  V30 9194 C 852.802 1.58557 -0.182199 0
M  V30 9195 C 853.002 1.52732 1.31435 0
M  V30 9196 O 852.058 1.41362 2.0922 0
M  V30 9197 C 853.371 2.90406 -0.78004 0
M  V30 9198 C 854.919 3.03924 -0.748293 0
M  V30 9199 C 855.394 4.38427 -1.32462 0
M  V30 9200 N 856.885 4.4498 -1.28635 0
M  V30 9201 C 857.62 5.47551 -1.70223 0
M  V30 9202 N 857.116 6.57103 -2.19515 0
M  V30 9203 N 858.909 5.38402 -1.61493 0
M  V30 9204 H 851.06 1.50638 -1.4974 0
M  V30 9205 H 853.323 0.714952 -0.622533 0
M  V30 9206 H 853.029 3.00308 -1.83052 0
M  V30 9207 H 852.903 3.76343 -0.254075 0
M  V30 9208 H 855.29 2.93638 0.293407 0
M  V30 9209 H 855.371 2.19611 -1.31167 0
M  V30 9210 H 855.015 4.49466 -2.36522 0
M  V30 9211 H 854.945 5.21418 -0.736967 0
M  V30 9212 H 857.436 3.66393 -0.92545 0
M  V30 9213 H 857.749 7.31499 -2.49257 0
M  V30 9214 H 856.094 6.58081 -2.23506 0
M  V30 9215 H 859.285 4.5171 -1.22785 0
M  V30 9216 H 859.458 6.18208 -1.94225 0
M  V30 9217 N 852.864 0.259585 1.55447 0
M  V30 9218 C 853.774 -0.645026 2.25558 0
M  V30 9219 C 854.79 -1.18291 1.27606 0
M  V30 9220 O 855.966 -1.21649 1.6051 0
M  V30 9221 C 853.031 -1.81964 2.9511 0
M  V30 9222 C 852.092 -1.31997 4.08504 0
M  V30 9223 C 851.325 -2.43861 4.74729 0
M  V30 9224 O 851.548 -3.62876 4.40088 0
M  V30 9225 O 850.482 -2.12898 5.6299 0
M  V30 9226 H 854.308 -0.0775399 3.03601 0
M  V30 9227 H 851.893 0.0275859 1.49375 0
M  V30 9228 H 853.775 -2.50485 3.38873 0
M  V30 9229 H 852.45 -2.37451 2.19997 0
M  V30 9230 H 851.357 -0.601676 3.6923 0
M  V30 9231 H 852.69 -0.811045 4.85472 0
M  V30 9232 N 854.342 -1.57594 -0.0133615 0
M  V30 9233 C 855.619 -1.81173 -0.737273 0
M  V30 9234 C 855.999 -0.861395 -1.92726 0
M  V30 9235 O 855.347 0.0929324 -2.28311 0
M  V30 9236 C 855.557 -3.29314 -1.15557 0
M  V30 9237 C 856.905 -3.94707 -1.56498 0
M  V30 9238 O 857.929 -3.33557 -1.24973 0
M  V30 9239 O 856.788 -5.02402 -2.15069 0
M  V30 9240 H 853.882 -0.745575 -0.357837 0
M  V30 9241 H 856.428 -1.69696 0.0110674 0
M  V30 9242 H 855.2 -3.90096 -0.30677 0
M  V30 9243 H 854.823 -3.45739 -1.96343 0
M  V30 9244 N 855.82 0.285905 -1.54985 0
M  V30 9245 C 857.045 1.04207 -1.7932 0
M  V30 9246 C 857.47 1.79622 -0.558343 0
M  V30 9247 O 856.828 1.74506 0.491661 0
M  V30 9248 C 856.876 1.98648 -3.0095 0
M  V30 9249 O 855.98 3.07207 -2.75132 0
M  V30 9250 H 855.321 0.298596 -0.593074 0
M  V30 9251 H 857.851 0.318736 -2.02102 0
M  V30 9252 H 857.861 2.4084 -3.29333 0
M  V30 9253 H 856.536 1.43167 -3.90482 0
M  V30 9254 H 855.113 2.69423 -2.57809 0
M  V30 9255 N 857.298 1.47698 0.54982 0
M  V30 9256 C 858.261 1.60282 1.63837 0
M  V30 9257 C 859.261 0.477394 1.5355 0
M  V30 9258 O 860.451 0.742665 1.57576 0
M  V30 9259 C 857.583 1.55431 3.03404 0
M  V30 9260 H 858.776 2.57325 1.54026 0
M  V30 9261 H 856.329 1.35999 0.770329 0
M  V30 9262 H 857.064 0.597912 3.1874 0
M  V30 9263 H 856.849 2.37116 3.12279 0
M  V30 9264 H 858.339 1.6739 3.82584 0
M  V30 9265 N 858.776 -0.797141 1.35954 0
M  V30 9266 C 860.192 -1.09408 1.16198 0
M  V30 9267 C 860.392 -2.01491 -0.0191682 0
M  V30 9268 O 859.448 -2.42977 -0.686902 0
M  V30 9269 C 860.761 -1.71597 2.46931 0
M  V30 9270 C 862.309 -1.83974 2.53224 0
M  V30 9271 C 862.784 -2.49579 3.84024 0
M  V30 9272 N 864.275 -2.57055 3.85327 0
M  V30 9273 C 865.01 -3.08608 4.83268 0
M  V30 9274 N 864.506 -3.60527 5.91601 0
M  V30 9275 N 866.299 -3.07249 4.70696 0
M  V30 9276 H 858.45 -0.185209 2.11591 0
M  V30 9277 H 860.713 -0.144768 0.936881 0
M  V30 9278 H 860.419 -1.11404 3.3359 0
M  V30 9279 H 860.293 -2.71193 2.62172 0
M  V30 9280 H 862.68 -2.43308 1.66988 0
M  V30 9281 H 862.761 -0.83207 2.41889 0
M  V30 9282 H 862.405 -1.90892 4.70662 0
M  V30 9283 H 862.335 -3.50902 3.92651 0
M  V30 9284 H 864.826 -2.20283 3.07057 0
M  V30 9285 H 865.139 -3.98192 6.62317 0
M  V30 9286 H 863.484 -3.587 5.95281 0
M  V30 9287 H 866.675 -2.65972 3.85197 0
M  V30 9288 H 866.848 -3.47119 5.47186 0
M  V30 9289 N 860.254 -1.20106 -1.0204 0
M  V30 9290 C 861.5 -1.01039 -1.75838 0
M  V30 9291 C 861.833 0.456819 -1.88751 0
M  V30 9292 O 861.108 1.33919 -1.41053 0
M  V30 9293 C 861.391 -1.69009 -3.17975 0
M  V30 9294 C 861.244 -3.2315 -3.1288 0
M  V30 9295 C 862.563 -1.42005 -4.16561 0
M  V30 9296 H 859.682 -0.368465 -0.638281 0
M  V30 9297 H 862.324 -1.48066 -1.19064 0
M  V30 9298 H 860.474 -1.29026 -3.66449 0
M  V30 9299 H 862.146 -3.72402 -2.72239 0
M  V30 9300 H 860.389 -3.54253 -2.50374 0
M  V30 9301 H 861.06 -3.65862 -4.13339 0
M  V30 9302 H 863.536 -1.76685 -3.76725 0
M  V30 9303 H 862.412 -1.92101 -5.14187 0
M  V30 9304 H 862.673 -0.346884 -4.40737 0
M  V30 9305 N 861.732 1.21287 -1.00634 0
M  V30 9306 C 862.962 1.94103 -0.70765 0
M  V30 9307 C 863.37 1.74382 0.733991 0
M  V30 9308 O 862.713 1.04843 1.50843 0
M  V30 9309 C 862.775 3.46705 -0.950581 0
M  V30 9310 C 862.439 3.90176 -2.37932 0
M  V30 9311 C 863.436 3.96769 -3.35961 0
M  V30 9312 C 861.121 4.22453 -2.71733 0
M  V30 9313 C 863.115 4.35034 -4.65858 0
M  V30 9314 C 860.802 4.60394 -4.01846 0
M  V30 9315 C 861.8 4.66656 -4.9872 0
M  V30 9316 O 861.488 5.03732 -6.26505 0
M  V30 9317 H 861.22 0.62405 -0.259881 0
M  V30 9318 H 863.774 1.55015 -1.34757 0
M  V30 9319 H 862.004 3.85868 -0.253492 0
M  V30 9320 H 863.693 4.00741 -0.645069 0
M  V30 9321 H 864.459 3.72009 -3.11182 0
M  V30 9322 H 860.338 4.16776 -1.97025 0
M  V30 9323 H 863.882 4.39836 -5.4147 0
M  V30 9324 H 859.779 4.84609 -4.26409 0
M  V30 9325 H 860.547 5.21761 -6.30641 0
M  V30 9326 N 863.21 0.781244 1.36873 0
M  V30 9327 C 864.12 0.174981 2.33947 0
M  V30 9328 C 865.136 -0.668512 1.60645 0
M  V30 9329 O 866.312 -0.586213 1.9268 0
M  V30 9330 C 863.377 -0.686557 3.39834 0
M  V30 9331 C 862.438 0.174489 4.28945 0
M  V30 9332 C 861.671 -0.646024 5.29776 0
M  V30 9333 O 861.894 -1.88254 5.38439 0
M  V30 9334 O 860.828 -0.0502214 6.01879 0
M  V30 9335 H 864.654 0.977382 2.87543 0
M  V30 9336 H 862.239 0.542559 1.392 0
M  V30 9337 H 864.121 -1.1781 4.04597 0
M  V30 9338 H 862.796 -1.46699 2.8855 0
M  V30 9339 H 861.703 0.712604 3.6725 0
M  V30 9340 H 863.036 0.918232 4.83559 0
M  V30 9341 N 864.689 -1.48329 0.532571 0
M  V30 9342 C 865.637 -2.31336 -0.242133 0
M  V30 9343 C 866.631 -1.41391 -0.933006 0
M  V30 9344 O 867.837 -1.58284 -0.857096 0
M  V30 9345 H 864.212 -0.745724 -0.0969536 0
M  V30 9346 H 866.183 -2.94555 0.477504 0
M  V30 9347 C 864.932 -3.23501 -1.27446 0
M  V30 9348 H 864.255 -3.92659 -0.752261 0
M  V30 9349 H 865.695 -3.84461 -1.78789 0
M  V30 9350 C 864.154 -2.45288 -2.30944 0
M  V30 9351 O 864.684 -2.17955 -3.37429 0
M  V30 9352 N 862.89 -2.06737 -2.04226 0
M  V30 9353 H 862.437 -2.29166 -1.17647 0
M  V30 9354 H 862.395 -1.54719 -2.73696 0
M  V30 9355 N 866.167 -0.267825 -1.55308 0
M  V30 9356 C 867.413 0.351556 -1.9973 0
M  V30 9357 C 867.746 1.56049 -1.15596 0
M  V30 9358 O 867.021 1.93203 -0.224274 0
M  V30 9359 C 867.304 0.74091 -3.52395 0
M  V30 9360 C 867.157 -0.474861 -4.47286 0
M  V30 9361 C 868.476 1.5801 -4.10756 0
M  V30 9362 H 865.595 0.126308 -0.726096 0
M  V30 9363 H 868.237 -0.373316 -1.86296 0
M  V30 9364 H 866.387 1.35851 -3.63973 0
M  V30 9365 H 868.059 -1.1134 -4.47662 0
M  V30 9366 H 866.302 -1.11425 -4.19246 0
M  V30 9367 H 866.973 -0.158782 -5.51772 0
M  V30 9368 H 869.449 1.05857 -4.0241 0
M  V30 9369 H 868.325 1.82135 -5.17801 0
M  V30 9370 H 868.586 2.55878 -3.60526 0
M  V30 9371 N 867.645 1.57599 0.00500368 0
M  V30 9372 C 868.893 1.89973 0.68953 0
M  V30 9373 C 869.214 0.868531 1.7459 0
M  V30 9374 O 868.484 -0.0947367 1.95671 0
M  V30 9375 H 867.064 0.701153 0.25767 0
M  V30 9376 H 869.726 1.94869 -0.0347392 0
M  V30 9377 H 868.822 2.89584 1.16394 0
M  V30 9378 N 869.123 -0.277682 1.55134 0
M  V30 9379 C 870.053 -1.34742 1.90701 0
M  V30 9380 C 871.034 -1.51757 0.768354 0
M  V30 9381 O 872.219 -1.64879 1.02609 0
M  V30 9382 C 869.349 -2.70775 2.17481 0
M  V30 9383 C 868.303 -2.68497 3.33307 0
M  V30 9384 C 867.629 -4.08037 3.45557 0
M  V30 9385 C 868.929 -2.28178 4.69821 0
M  V30 9386 H 870.623 -1.05224 2.803 0
M  V30 9387 H 868.169 -0.504738 1.34864 0
M  V30 9388 H 870.122 -3.45719 2.40949 0
M  V30 9389 H 868.846 -3.01867 1.24676 0
M  V30 9390 H 867.505 -1.9601 3.09799 0
M  V30 9391 H 867.153 -4.36344 2.50226 0
M  V30 9392 H 866.853 -4.07409 4.23429 0
M  V30 9393 H 868.377 -4.84726 3.71312 0
M  V30 9394 H 869.791 -2.92843 4.92865 0
M  V30 9395 H 868.188 -2.3872 5.50575 0
M  V30 9396 H 869.258 -1.23308 4.6896 0
M  V30 9397 N 870.601 -1.47988 -0.541979 0
M  V30 9398 C 871.534 -1.56172 -1.66389 0
M  V30 9399 C 872.512 -0.412879 -1.57271 0
M  V30 9400 O 873.696 -0.622816 -1.77914 0
M  V30 9401 C 870.823 -1.47851 -3.04726 0
M  V30 9402 C 869.869 -2.67428 -3.32242 0
M  V30 9403 S 870.702 -4.29502 -3.19825 0
M  V30 9404 C 871.858 -4.2376 -4.60628 0
M  V30 9405 H 872.091 -2.51086 -1.59195 0
M  V30 9406 H 869.624 -1.36373 -0.724005 0
M  V30 9407 H 871.582 -1.43738 -3.84512 0
M  V30 9408 H 870.243 -0.542958 -3.09372 0
M  V30 9409 H 869.436 -2.57711 -4.33129 0
M  V30 9410 H 869.038 -2.68743 -2.60103 0
M  V30 9411 H 871.33 -3.92953 -5.51901 0
M  V30 9412 H 872.273 -5.24786 -4.75401 0
M  V30 9413 H 872.681 -3.54398 -4.39389 0
M  V30 9414 N 872.079 0.78992 -1.36375 0
M  V30 9415 C 873.011 1.91113 -1.26524 0
M  V30 9416 C 874.024 1.61747 -0.184851 0
M  V30 9417 O 875.213 1.73004 -0.439524 0
M  V30 9418 C 872.313 3.25908 -0.92937 0
M  V30 9419 C 871.486 3.83057 -2.11154 0
M  V30 9420 C 870.545 4.96289 -1.74881 0
M  V30 9421 O 869.571 5.12834 -2.46962 0
M  V30 9422 N 870.773 5.76478 -0.682193 0
M  V30 9423 H 873.538 2.00085 -2.23128 0
M  V30 9424 H 871.099 0.968165 -1.29762 0
M  V30 9425 H 873.091 3.99151 -0.667884 0
M  V30 9426 H 871.661 3.12556 -0.0524843 0
M  V30 9427 H 870.881 3.01808 -2.53586 0
M  V30 9428 H 872.169 4.1797 -2.90135 0
M  V30 9429 H 871.567 5.65638 -0.0836661 0
M  V30 9430 H 870.124 6.50026 -0.480529 0
M  V30 9431 N 873.557 1.20646 1.01402 0
M  V30 9432 C 874.489 0.915392 2.10127 0
M  V30 9433 C 875.502 -0.0978705 1.62506 0
M  V30 9434 O 876.691 0.133477 1.78 0
M  V30 9435 C 873.791 0.351304 3.37074 0
M  V30 9436 C 872.964 1.41673 4.13821 0
M  V30 9437 C 872.023 0.8635 5.19067 0
M  V30 9438 O 871.049 1.54481 5.47836 0
M  V30 9439 N 872.251 -0.325799 5.79585 0
M  V30 9440 H 875.016 1.85132 2.35682 0
M  V30 9441 H 872.577 1.11048 1.17813 0
M  V30 9442 H 874.569 -0.032996 4.04687 0
M  V30 9443 H 873.139 -0.489242 3.08748 0
M  V30 9444 H 872.359 1.97526 3.41141 0
M  V30 9445 H 873.647 2.1342 4.61876 0
M  V30 9446 H 873.045 -0.896534 5.58551 0
M  V30 9447 H 871.602 -0.651708 6.48534 0
M  V30 9448 N 875.035 -1.20752 1.01276 0
M  V30 9449 C 875.967 -2.22798 0.537917 0
M  V30 9450 C 876.98 -1.5836 -0.377638 0
M  V30 9451 O 878.169 -1.77624 -0.176599 0
M  V30 9452 C 875.269 -3.38068 -0.237364 0
M  V30 9453 C 874.442 -4.32095 0.679161 0
M  V30 9454 C 873.501 -5.26178 -0.0478676 0
M  V30 9455 O 872.527 -5.66305 0.573366 0
M  V30 9456 N 873.729 -5.65201 -1.32396 0
M  V30 9457 H 876.494 -2.64166 1.4155 0
M  V30 9458 H 874.055 -1.35254 0.889826 0
M  V30 9459 H 876.047 -3.98009 -0.73288 0
M  V30 9460 H 874.617 -2.95622 -1.0162 0
M  V30 9461 H 873.837 -3.70179 1.35505 0
M  V30 9462 H 875.125 -4.91842 1.30263 0
M  V30 9463 H 874.523 -5.34606 -1.84968 0
M  V30 9464 H 873.08 -6.27468 -1.76428 0
M  V30 9465 N 876.513 -0.788492 -1.36457 0
M  V30 9466 C 877.46 -0.18435 -2.30063 0
M  V30 9467 C 878.43 0.67128 -1.51931 0
M  V30 9468 O 879.615 0.620152 -1.8044 0
M  V30 9469 C 876.755 0.675596 -3.38422 0
M  V30 9470 C 875.868 -0.198475 -4.31544 0
M  V30 9471 C 875.003 0.667757 -5.26986 0
M  V30 9472 C 874.042 -0.207825 -6.11747 0
M  V30 9473 N 873.179 0.617335 -6.99381 0
M  V30 9474 H 878.019 -0.988056 -2.81143 0
M  V30 9475 H 875.556 -0.498815 -1.38384 0
M  V30 9476 H 877.514 1.18916 -3.99894 0
M  V30 9477 H 876.144 1.44474 -2.88664 0
M  V30 9478 H 875.196 -0.829995 -3.71235 0
M  V30 9479 H 876.508 -0.873163 -4.91098 0
M  V30 9480 H 875.662 1.24716 -5.93743 0
M  V30 9481 H 874.401 1.37607 -4.67884 0
M  V30 9482 H 873.406 -0.799638 -5.43954 0
M  V30 9483 H 874.631 -0.913729 -6.72925 0
M  V30 9484 H 872.577 1.30996 -6.42788 0
M  V30 9485 H 872.494 0.000307255 -7.56 0
M  V30 9486 H 873.762 1.1806 -7.70508 0
M  V30 9487 N 877.991 1.48044 -0.54043 0
M  V30 9488 C 879.216 2.07396 -0.0124765 0
M  V30 9489 C 879.641 1.39288 1.26414 0
M  V30 9490 O 878.999 0.462252 1.75308 0
M  V30 9491 C 879.047 3.60131 0.18377 0
M  V30 9492 O 878.151 3.92995 1.25014 0
M  V30 9493 H 877.492 0.662554 -0.0438026 0
M  V30 9494 H 880.022 1.90306 -0.751327 0
M  V30 9495 H 880.032 4.06003 0.403197 0
M  V30 9496 H 878.707 4.09105 -0.74874 0
M  V30 9497 H 877.284 3.5889 1.01254 0
M  V30 9498 N 879.47 0.276058 1.55163 0
M  V30 9499 C 880.717 -0.340455 1.99618 0
M  V30 9500 C 881.045 -1.5579 1.16446 0
M  V30 9501 O 880.3 -1.94433 0.222359 0
M  V30 9502 C 880.599 -0.765744 3.491 0
M  V30 9503 C 880.265 0.347174 4.49561 0
M  V30 9504 C 878.927 0.65276 4.76752 0
M  V30 9505 C 881.279 1.09705 5.09523 0
M  V30 9506 C 878.607 1.71179 5.61173 0
M  V30 9507 C 880.959 2.14581 5.95095 0
M  V30 9508 C 879.623 2.45773 6.20606 0
M  V30 9509 H 878.893 -0.124581 0.730452 0
M  V30 9510 H 881.54 0.389966 1.87487 0
M  V30 9511 H 879.845 -1.57585 3.58712 0
M  V30 9512 H 881.542 -1.25352 3.80904 0
M  V30 9513 H 878.132 0.0988779 4.28486 0
M  V30 9514 H 882.316 0.874223 4.8854 0
M  V30 9515 H 877.572 1.95846 5.79184 0
M  V30 9516 H 881.746 2.7316 6.40591 0
M  V30 9517 H 879.373 3.27969 6.85813 0
M  V30 9518 N 880.948 -1.576 0.00335426 0
M  V30 9519 C 882.364 -1.55653 -0.352766 0
M  V30 9520 C 882.564 -1.00632 -1.74572 0
M  V30 9521 O 881.62 -0.641621 -2.44212 0
M  V30 9522 C 882.933 -2.99858 -0.224929 0
M  V30 9523 C 884.481 -3.11563 -0.299619 0
M  V30 9524 C 884.956 -4.57559 -0.200868 0
M  V30 9525 N 886.447 -4.62477 -0.258663 0
M  V30 9526 C 887.182 -5.73031 -0.205644 0
M  V30 9527 N 886.678 -6.92723 -0.103027 0
M  V30 9528 N 888.471 -5.61509 -0.257754 0
M  V30 9529 H 880.622 -1.91703 0.914539 0
M  V30 9530 H 882.885 -0.88068 0.350865 0
M  V30 9531 H 882.591 -3.43964 0.733595 0
M  V30 9532 H 882.465 -3.63547 -1.00564 0
M  V30 9533 H 884.852 -2.67384 -1.24859 0
M  V30 9534 H 884.933 -2.50644 0.511025 0
M  V30 9535 H 884.577 -5.02413 0.744572 0
M  V30 9536 H 884.507 -5.16428 -1.03004 0
M  V30 9537 H 886.998 -3.76375 -0.339168 0
M  V30 9538 H 887.311 -7.7277 -0.0685593 0
M  V30 9539 H 885.656 -6.94966 -0.0686069 0
M  V30 9540 H 888.847 -4.66892 -0.336142 0
M  V30 9541 H 889.02 -6.4765 -0.21297 0
M  V30 9542 O 882.465 0.13884 -1.60902 0
M  V30 9543 H 883.156 0.77224 -1.7764 0
M  V30 END ATOM
M  V30 BEGIN BOND
M  V30 END BOND
M  V30 END CTAB
M  END
$$$$
