drugbank_target|O24990 Enoyl-[acyl-carrier-protein] reductase [NADH] FabI (DB04393; DB08604)
 OpenBabel12092119593D

  0  0  0     0  0            999 V3000
M  V30 BEGIN CTAB
M  V30 COUNTS 4247 4285 0 0 0
M  V30 BEGIN ATOM
M  V30 1 H -0.908 1.98254 -0.117106 0
M  V30 2 N 0 1.576 0 0
M  V30 3 C 0.933 2.03868 1.02534 0
M  V30 4 C 1.911 0.928543 1.3348 0
M  V30 5 O 3.095 1.19667 1.45644 0
M  V30 6 C 0.222 2.43627 2.35294 0
M  V30 7 C -0.732 3.65373 2.2001 0
M  V30 8 S 0.101 5.13292 1.52614 0
M  V30 9 C 1.257 5.56322 2.86805 0
M  V30 10 H 1.49 2.90518 0.631377 0
M  V30 11 H -0.977 1.52953 0.210867 0
M  V30 12 H 0.981 2.67203 3.11629 0
M  V30 13 H -0.358 1.57376 2.7183 0
M  V30 14 H -1.165 3.90944 3.18086 0
M  V30 15 H -1.563 3.418 1.51819 0
M  V30 16 H 0.729 5.58782 3.83104 0
M  V30 17 H 1.672 6.56266 2.65933 0
M  V30 18 H 2.08 4.83886 2.90714 0
M  V30 19 N 1.4781 -0.272755 1.55222 0
M  V30 20 C 2.7261 -1.00234 1.75492 0
M  V30 21 C 3.0471 -1.8681 0.5592 0
M  V30 22 O 2.3171 -1.91215 -0.425882 0
M  V30 23 H 0.8971 -0.373076 0.647166 0
M  V30 24 H 3.5591 -0.296926 1.92625 0
M  V30 25 H 2.6551 -1.63913 2.65592 0
M  V30 26 N 2.9562 -1.48159 -0.537278 0
M  V30 27 C 4.2032 -1.55804 -1.29349 0
M  V30 28 C 4.5312 -0.228802 -1.9315 0
M  V30 29 O 3.7862 0.780242 -1.79473 0
M  V30 30 C 4.0852 -2.63956 -2.40961 0
M  V30 31 C 3.7512 -4.0662 -1.94861 0
M  V30 32 C 2.4132 -4.45452 -1.82006 0
M  V30 33 C 4.7652 -4.96055 -1.59933 0
M  V30 34 C 2.0932 -5.71531 -1.32547 0
M  V30 35 C 4.4452 -6.22617 -1.11939 0
M  V30 36 C 3.1092 -6.60312 -0.976951 0
M  V30 37 H 2.3792 -0.570129 -0.473322 0
M  V30 38 H 5.0262 -1.81845 -0.600372 0
M  V30 39 H 3.3312 -2.31747 -3.15912 0
M  V30 40 H 5.0282 -2.67089 -2.99107 0
M  V30 41 H 1.6182 -3.75949 -2.05815 0
M  V30 42 H 5.8022 -4.66738 -1.68728 0
M  V30 43 H 1.0582 -5.99468 -1.202 0
M  V30 44 H 5.2322 -6.91318 -0.839811 0
M  V30 45 H 2.8592 -7.57895 -0.591501 0
M  V30 46 N 4.4343 0.785586 -1.36625 0
M  V30 47 C 5.3643 1.91259 -1.33949 0
M  V30 48 C 6.3453 1.68795 -0.210325 0
M  V30 49 O 7.5303 1.89854 -0.408561 0
M  V30 50 C 4.6603 3.28339 -1.13186 0
M  V30 51 C 3.6143 3.65335 -2.22967 0
M  V30 52 C 2.9403 5.00806 -1.87342 0
M  V30 53 C 4.2403 3.7352 -3.65075 0
M  V30 54 H 5.9343 1.93755 -2.28253 0
M  V30 55 H 3.4803 0.930788 -1.09874 0
M  V30 56 H 5.4333 4.06804 -1.09948 0
M  V30 57 H 4.1573 3.2624 -0.153332 0
M  V30 58 H 2.8163 2.89169 -2.25337 0
M  V30 59 H 2.4643 4.95233 -0.880545 0
M  V30 60 H 2.1643 5.26529 -2.60846 0
M  V30 61 H 3.6883 5.81687 -1.85667 0
M  V30 62 H 5.1023 4.42168 -3.64911 0
M  V30 63 H 3.4993 4.10731 -4.37516 0
M  V30 64 H 4.5693 2.74527 -3.99703 0
M  V30 65 N 5.9124 1.20967 1.01018 0
M  V30 66 C 6.8594 0.964281 2.09691 0
M  V30 67 C 7.8294 -0.107853 1.65749 0
M  V30 68 O 9.0144 0.0381987 1.90762 0
M  V30 69 C 6.1544 0.52943 3.41015 0
M  V30 70 C 5.2674 1.67043 3.98398 0
M  V30 71 C 4.4024 1.18525 5.17808 0
M  V30 72 C 3.4414 2.29892 5.67288 0
M  V30 73 N 2.5784 1.82546 6.77954 0
M  V30 74 H 7.4184 1.89463 2.30017 0
M  V30 75 H 4.9554 0.944289 1.1279 0
M  V30 76 H 6.9134 0.258588 4.16398 0
M  V30 77 H 5.5434 -0.363919 3.20742 0
M  V30 78 H 4.5954 2.05603 3.20049 0
M  V30 79 H 5.9074 2.50877 4.31117 0
M  V30 80 H 5.0614 0.870762 6.00419 0
M  V30 81 H 3.8004 0.316887 4.86669 0
M  V30 82 H 2.8054 2.6215 4.83278 0
M  V30 83 H 4.0304 3.17216 6.00459 0
M  V30 84 H 1.9764 0.980454 6.48632 0
M  V30 85 H 1.8934 2.59956 7.09901 0
M  V30 86 H 3.1614 1.54115 7.64113 0
M  V30 87 N 7.3905 -1.2043 1.01659 0
M  V30 88 C 8.6385 -1.89423 0.704522 0
M  V30 89 C 8.9595 -1.79231 -0.768197 0
M  V30 90 O 8.2295 -1.1947 -1.55254 0
M  V30 91 H 6.8095 -0.701178 0.257602 0
M  V30 92 H 9.4715 -1.4626 1.28818 0
M  V30 93 H 8.5675 -2.96052 0.987916 0
M  V30 94 N 8.8686 -0.792821 -1.36206 0
M  V30 95 C 9.8156 -0.191653 -2.30003 0
M  V30 96 C 10.7856 0.666453 -1.52143 0
M  V30 97 O 11.9706 0.61442 -1.80636 0
M  V30 98 C 9.1106 0.664848 -3.38635 0
M  V30 99 C 8.2236 -0.212175 -4.31479 0
M  V30 100 C 7.3586 0.651022 -5.27196 0
M  V30 101 C 6.3976 -0.227247 -6.11678 0
M  V30 102 N 5.5346 0.595127 -6.99573 0
M  V30 103 H 10.3746 -0.996978 -2.80828 0
M  V30 104 H 7.9116 -0.503206 -1.38225 0
M  V30 105 H 9.8696 1.17645 -4.00269 0
M  V30 106 H 8.4996 1.43557 -2.89122 0
M  V30 107 H 7.5516 -0.841777 -3.70969 0
M  V30 108 H 8.8636 -0.888751 -4.90818 0
M  V30 109 H 8.0176 1.2283 -5.94136 0
M  V30 110 H 6.7566 1.36121 -4.68319 0
M  V30 111 H 5.7616 -0.816904 -5.43697 0
M  V30 112 H 6.9866 -0.93509 -6.72631 0
M  V30 113 H 4.9326 1.28955 -6.432 0
M  V30 114 H 4.8496 -0.0236952 -7.55996 0
M  V30 115 H 6.1176 1.15613 -7.70879 0
M  V30 116 N 10.3467 1.47872 -0.545128 0
M  V30 117 C 11.2937 2.29849 0.2093 0
M  V30 118 C 12.2637 1.38313 0.919707 0
M  V30 119 O 13.4487 1.67277 0.917772 0
M  V30 120 C 10.5887 3.22019 1.24088 0
M  V30 121 C 9.7017 4.2864 0.537778 0
M  V30 122 C 8.8367 5.07973 1.5536 0
M  V30 123 C 7.8757 6.06381 0.8348 0
M  V30 124 N 7.0127 6.78717 1.79688 0
M  V30 125 H 11.8527 2.93845 -0.49591 0
M  V30 126 H 9.3897 1.44848 -0.256389 0
M  V30 127 H 11.3477 3.73868 1.85144 0
M  V30 128 H 9.9777 2.59914 1.91428 0
M  V30 129 H 9.0297 3.7994 -0.187046 0
M  V30 130 H 10.3417 4.98793 -0.0258907 0
M  V30 131 H 9.4957 5.63912 2.23803 0
M  V30 132 H 8.2347 4.37693 2.15118 0
M  V30 133 H 7.2397 5.49631 0.136388 0
M  V30 134 H 8.4647 6.78665 0.24313 0
M  V30 135 H 6.4107 6.11177 2.38326 0
M  V30 136 H 6.3277 7.44998 1.28505 0
M  V30 137 H 7.5957 7.39237 2.47282 0
M  V30 138 N 11.8248 0.280983 1.55075 0
M  V30 139 C 13.0728 -0.333455 1.9933 0
M  V30 140 C 13.3938 -1.55937 1.17085 0
M  V30 141 O 12.6638 -1.94143 0.261805 0
M  V30 142 H 11.2438 -0.126197 0.736263 0
M  V30 143 H 13.9058 0.387678 1.91005 0
M  V30 144 H 13.0018 -0.619292 3.05894 0
M  V30 145 N 13.3029 -1.57598 0.00835791 0
M  V30 146 C 14.2329 -2.1198 -0.979113 0
M  V30 147 C 15.2139 -1.03091 -1.35301 0
M  V30 148 O 16.3989 -1.30818 -1.43528 0
M  V30 149 C 13.5289 -2.62995 -2.26828 0
M  V30 150 C 12.4829 -3.76485 -2.03576 0
M  V30 151 C 11.8089 -4.13846 -3.38579 0
M  V30 152 C 13.1089 -5.0342 -1.39161 0
M  V30 153 H 14.8029 -2.94738 -0.526281 0
M  V30 154 H 12.3489 -1.41783 -0.251704 0
M  V30 155 H 14.3019 -2.99669 -2.96271 0
M  V30 156 H 13.0259 -1.7737 -2.7424 0
M  V30 157 H 11.6849 -3.40217 -1.36557 0
M  V30 158 H 11.3329 -3.25232 -3.83709 0
M  V30 159 H 11.0329 -4.90312 -3.23834 0
M  V30 160 H 12.5569 -4.53086 -4.09323 0
M  V30 161 H 13.9709 -5.37812 -1.98573 0
M  V30 162 H 12.3679 -5.84746 -1.34878 0
M  V30 163 H 13.4379 -4.83548 -0.361868 0
M  V30 164 N 14.781 0.264519 -1.55364 0
M  V30 165 C 16.03 0.992812 -1.75574 0
M  V30 166 C 16.343 1.87142 -0.568979 0
M  V30 167 O 17.549 2.63513 -0.653682 0
M  V30 168 C 16.005 1.81519 -3.10771 0
M  V30 169 C 15.613 0.984839 -4.37041 0
M  V30 170 C 17.357 2.53727 -3.40327 0
M  V30 171 C 15.264 1.80209 -5.63275 0
M  V30 172 H 14.194 0.374412 -0.65447 0
M  V30 173 H 16.845 0.248138 -1.81815 0
M  V30 174 H 15.227 2.60115 -2.98591 0
M  V30 175 H 16.401 0.242455 -4.60162 0
M  V30 176 H 14.716 0.37691 -4.14691 0
M  V30 177 H 17.313 3.15292 -4.3185 0
M  V30 178 H 17.656 3.24447 -2.60845 0
M  V30 179 H 18.189 1.82156 -3.53644 0
M  V30 180 H 14.928 1.13896 -6.45529 0
M  V30 181 H 14.448 2.52022 -5.44284 0
M  V30 182 H 16.127 2.37364 -6.01887 0
M  V30 183 N 16.2591 1.48442 0.529413 0
M  V30 184 C 17.5051 1.5672 1.28711 0
M  V30 185 C 17.8381 0.2406 1.92704 0
M  V30 186 O 17.1131 -0.753454 1.79313 0
M  V30 187 C 17.3961 2.70587 2.37603 0
M  V30 188 C 17.2491 4.12953 1.78297 0
M  V30 189 C 18.5681 2.80212 3.39366 0
M  V30 190 H 15.6871 0.570474 0.466613 0
M  V30 191 H 18.3291 1.80617 0.589706 0
M  V30 192 H 16.4791 2.50342 2.97088 0
M  V30 193 H 18.1511 4.44639 1.22858 0
M  V30 194 H 16.3941 4.19927 1.0883 0
M  V30 195 H 17.0651 4.88448 2.57144 0
M  V30 196 H 19.5411 2.98553 2.89836 0
M  V30 197 H 18.4171 3.61611 4.12951 0
M  V30 198 H 18.6781 1.88393 3.99951 0
M  V30 199 N 17.7372 -0.778329 1.37039 0
M  V30 200 C 18.9852 -1.53361 1.31623 0
M  V30 201 C 19.3062 -1.94739 -0.100831 0
M  V30 202 O 18.5762 -1.65797 -1.04347 0
M  V30 203 H 17.1562 -0.568794 0.484234 0
M  V30 204 H 19.8182 -0.926742 1.71457 0
M  V30 205 H 18.9142 -2.43606 1.95096 0
M  V30 206 N 19.2153 -1.21501 -1.00376 0
M  V30 207 C 20.4613 -1.03452 -1.74429 0
M  V30 208 C 20.7943 0.430764 -1.89362 0
M  V30 209 O 20.0693 1.31962 -1.42886 0
M  V30 210 C 20.3523 -1.73375 -3.15615 0
M  V30 211 C 20.2053 -3.27431 -3.08397 0
M  V30 212 C 21.5243 -1.47732 -4.14564 0
M  V30 213 H 18.6433 -0.377226 -0.633143 0
M  V30 214 H 21.2853 -1.49693 -1.17013 0
M  V30 215 H 19.4353 -1.34064 -3.64636 0
M  V30 216 H 21.1073 -3.76119 -2.67081 0
M  V30 217 H 19.3503 -3.5767 -2.45468 0
M  V30 218 H 20.0213 -3.71524 -4.08258 0
M  V30 219 H 22.4973 -1.8186 -3.74254 0
M  V30 220 H 21.3733 -1.99169 -5.11491 0
M  V30 221 H 21.6343 -0.407589 -4.40217 0
M  V30 222 N 20.6934 1.19889 -1.02296 0
M  V30 223 C 21.6564 2.21116 -0.603351 0
M  V30 224 C 22.6564 1.5738 0.329884 0
M  V30 225 O 23.8464 1.73802 0.117702 0
M  V30 226 C 20.9784 3.40696 0.117992 0
M  V30 227 H 22.1714 2.59754 -1.49893 0
M  V30 228 H 19.7244 1.33463 -0.813468 0
M  V30 229 H 20.4594 3.07569 1.0282 0
M  V30 230 H 20.2444 3.88188 -0.552511 0
M  V30 231 H 21.7344 4.15692 0.398696 0
M  V30 232 N 22.1715 0.800033 1.35784 0
M  V30 233 C 23.1195 0.193851 2.31791 0
M  V30 234 C 24.1135 -0.652744 1.56319 0
M  V30 235 O 25.3195 -0.546641 1.71499 0
M  V30 236 H 21.6945 0.04392 0.750716 0
M  V30 237 H 23.6655 1.01883 2.80468 0
M  V30 238 C 22.4145 -0.648338 3.41602 0
M  V30 239 H 21.7375 -0.00624665 3.998 0
M  V30 240 H 23.1775 -1.03898 4.11073 0
M  V30 241 C 21.6365 -1.8111 2.84079 0
M  V30 242 O 22.1665 -2.90825 2.77099 0
M  V30 243 N 20.3725 -1.62056 2.41218 0
M  V30 244 H 19.9195 -0.728123 2.47095 0
M  V30 245 H 19.8775 -2.40013 2.03079 0
M  V30 246 N 23.6496 -1.47581 0.552962 0
M  V30 247 C 24.5976 -2.31648 -0.21023 0
M  V30 248 C 25.5916 -1.42663 -0.913432 0
M  V30 249 O 26.7976 -1.5945 -0.835201 0
M  V30 250 H 23.1726 -0.746989 -0.0866676 0
M  V30 251 H 25.1436 -2.93869 0.518051 0
M  V30 252 C 23.8926 -3.25226 -1.22976 0
M  V30 253 H 23.2156 -3.93658 -0.698077 0
M  V30 254 H 24.6556 -3.86889 -1.73473 0
M  V30 255 C 23.1146 -2.48448 -2.27542 0
M  V30 256 O 23.6446 -2.22585 -3.34393 0
M  V30 257 N 21.8506 -2.09532 -2.01357 0
M  V30 258 H 21.3976 -2.30765 -1.14478 0
M  V30 259 H 21.3556 -1.58476 -2.71538 0
M  V30 260 N 25.1277 -0.289203 -1.54924 0
M  V30 261 C 26.0747 0.592115 -2.23075 0
M  V30 262 C 27.0447 1.13881 -1.20915 0
M  V30 263 O 28.2297 1.18551 -1.495 0
M  V30 264 C 25.3697 1.76376 -2.96623 0
M  V30 265 C 24.4827 1.24959 -4.13533 0
M  V30 266 C 23.6177 2.38416 -4.74691 0
M  V30 267 C 22.6567 1.84072 -5.83767 0
M  V30 268 N 21.7937 2.91057 -6.38929 0
M  V30 269 H 26.6337 0.00432038 -2.98 0
M  V30 270 H 24.1707 -0.00963529 -1.47097 0
M  V30 271 H 26.1287 2.45268 -3.3749 0
M  V30 272 H 24.7587 2.32337 -2.24097 0
M  V30 273 H 23.8107 0.453307 -3.77689 0
M  V30 274 H 25.1227 0.811662 -4.92152 0
M  V30 275 H 24.2767 3.15276 -5.18349 0
M  V30 276 H 23.0157 2.8553 -3.95378 0
M  V30 277 H 22.0207 1.05697 -5.39545 0
M  V30 278 H 23.2457 1.37877 -6.64956 0
M  V30 279 H 21.1917 3.37526 -5.62505 0
M  V30 280 H 21.1087 2.51724 -7.12861 0
M  V30 281 H 22.3767 3.6785 -6.87246 0
M  V30 282 N 26.6058 1.57591 -0.0167156 0
M  V30 283 C 27.8308 1.9598 0.67872 0
M  V30 284 C 28.2558 0.892546 1.65575 0
M  V30 285 O 27.6138 -0.147772 1.80697 0
M  V30 286 C 27.6618 3.33468 1.37227 0
M  V30 287 O 26.7658 3.28954 2.48722 0
M  V30 288 H 26.1068 0.639339 0.17928 0
M  V30 289 H 28.6368 2.04463 -0.0748802 0
M  V30 290 H 28.6468 3.69417 1.7319 0
M  V30 291 H 27.3218 4.10694 0.656007 0
M  V30 292 H 25.8988 3.04705 2.14963 0
M  V30 293 N 28.0839 -0.256276 1.55502 0
M  V30 294 C 29.3329 -0.983486 1.76098 0
M  V30 295 C 29.6459 -1.86837 0.578896 0
M  V30 296 O 30.8519 -2.63163 0.667648 0
M  V30 297 C 29.3079 -1.79868 3.1173 0
M  V30 298 C 28.9159 -0.961648 4.37557 0
M  V30 299 C 30.6599 -2.51919 3.41668 0
M  V30 300 C 28.5669 -1.77219 5.64223 0
M  V30 301 H 27.4969 -0.370936 0.656447 0
M  V30 302 H 30.1479 -0.238492 1.81944 0
M  V30 303 H 28.5299 -2.58527 2.99966 0
M  V30 304 H 29.7039 -0.218048 4.60284 0
M  V30 305 H 28.0189 -0.354913 4.14885 0
M  V30 306 H 30.6159 -3.12998 4.33516 0
M  V30 307 H 30.9589 -3.23059 2.62562 0
M  V30 308 H 31.4919 -1.80278 3.54605 0
M  V30 309 H 28.2309 -1.10471 6.46124 0
M  V30 310 H 27.7509 -2.49132 5.45613 0
M  V30 311 H 29.4299 -2.34169 6.03137 0
M  V30 312 N 29.562 -1.4872 -0.521534 0
M  V30 313 C 30.525 -1.63379 -1.60748 0
M  V30 314 C 31.525 -0.50661 -1.52611 0
M  V30 315 O 32.715 -0.772601 -1.5613 0
M  V30 316 C 29.847 -1.61192 -3.00383 0
M  V30 317 H 31.04 -2.60217 -1.49087 0
M  V30 318 H 28.593 -1.37444 -0.744235 0
M  V30 319 H 29.328 -0.65863 -3.17541 0
M  V30 320 H 29.113 -2.43032 -3.07698 0
M  V30 321 H 30.603 -1.7466 -3.7932 0
M  V30 322 N 31.0401 0.771051 -1.3745 0
M  V30 323 C 32.2701 1.55789 -1.35696 0
M  V30 324 C 32.6781 1.89107 0.0594523 0
M  V30 325 O 32.0211 1.51984 1.03183 0
M  V30 326 C 32.0831 2.89515 -2.13123 0
M  V30 327 C 31.7471 2.78829 -3.62082 0
M  V30 328 C 32.7441 2.49812 -4.5595 0
M  V30 329 C 30.4291 2.9683 -4.05213 0
M  V30 330 C 32.4231 2.38923 -5.90927 0
M  V30 331 C 30.1101 2.85562 -5.40276 0
M  V30 332 C 31.1081 2.56649 -6.32946 0
M  V30 333 O 30.7961 2.45408 -7.65526 0
M  V30 334 H 30.5281 0.489257 -0.466481 0
M  V30 335 H 33.0821 0.963446 -1.81403 0
M  V30 336 H 31.3121 3.51081 -1.62107 0
M  V30 337 H 33.0011 3.50915 -2.03994 0
M  V30 338 H 33.7671 2.3559 -4.23937 0
M  V30 339 H 29.6461 3.18335 -3.33442 0
M  V30 340 H 33.1901 2.16277 -6.63227 0
M  V30 341 H 29.0871 2.99351 -5.71891 0
M  V30 342 H 29.8551 2.60753 -7.75855 0
M  V30 343 N 32.5182 1.22032 0.997298 0
M  V30 344 C 33.7662 1.04016 1.73278 0
M  V30 345 C 34.0872 -0.426255 1.90284 0
M  V30 346 O 33.3572 -1.30694 1.45931 0
M  V30 347 H 31.9372 0.381897 0.642 0
M  V30 348 H 34.5992 1.5347 1.20137 0
M  V30 349 H 33.6952 1.51441 2.72896 0
M  V30 350 N 33.9963 -1.19345 1.0293 0
M  V30 351 C 35.2453 -1.88363 0.721256 0
M  V30 352 C 35.5583 -1.80514 -0.753254 0
M  V30 353 O 36.7643 -2.44788 -1.17436 0
M  V30 354 C 35.2203 -3.37872 1.23978 0
M  V30 355 C 34.8283 -3.54278 2.74211 0
M  V30 356 C 36.5723 -4.12365 1.00775 0
M  V30 357 C 34.4793 -4.97682 3.19479 0
M  V30 358 H 33.4093 -0.705484 0.266098 0
M  V30 359 H 36.0603 -1.34928 1.24365 0
M  V30 360 H 34.4423 -3.90707 0.6453 0
M  V30 361 H 35.6163 -3.11769 3.39318 0
M  V30 362 H 33.9313 -2.93174 2.95699 0
M  V30 363 H 36.5283 -5.18119 1.32123 0
M  V30 364 H 36.8713 -4.16263 -0.0554308 0
M  V30 365 H 37.4043 -3.65668 1.56625 0
M  V30 366 H 34.1433 -4.98945 4.25128 0
M  V30 367 H 33.6633 -5.4095 2.591 0
M  V30 368 H 35.3423 -5.66337 3.12845 0
M  V30 369 N 35.4744 -0.807222 -1.35358 0
M  V30 370 C 36.4374 -0.223665 -2.28106 0
M  V30 371 C 37.4374 0.589354 -1.4961 0
M  V30 372 O 38.6274 0.407745 -1.69361 0
M  V30 373 C 35.7594 0.688149 -3.33882 0
M  V30 374 H 36.9524 -1.04169 -2.81227 0
M  V30 375 H 34.5054 -0.577921 -1.45223 0
M  V30 376 H 35.2404 1.52984 -2.85948 0
M  V30 377 H 35.0254 0.10687 -3.91954 0
M  V30 378 H 36.5154 1.09075 -4.03104 0
M  V30 379 N 36.9525 1.47285 -0.560781 0
M  V30 380 C 37.8845 2.28118 0.222438 0
M  V30 381 C 38.8975 1.37219 0.876056 0
M  V30 382 O 40.0865 1.62011 0.749307 0
M  V30 383 C 37.1865 3.1159 1.33285 0
M  V30 384 C 36.3595 4.30473 0.77534 0
M  V30 385 C 35.4185 4.95513 1.77069 0
M  V30 386 O 34.4445 5.53792 1.31539 0
M  V30 387 N 35.6465 4.90531 3.10418 0
M  V30 388 H 38.4115 2.95976 -0.470958 0
M  V30 389 H 35.9725 1.56955 -0.39709 0
M  V30 390 H 37.9645 3.51967 1.99752 0
M  V30 391 H 36.5345 2.45951 1.92943 0
M  V30 392 H 35.7545 3.94144 -0.0662113 0
M  V30 393 H 37.0425 5.07362 0.382272 0
M  V30 394 H 36.4405 4.44389 3.5005 0
M  V30 395 H 34.9975 5.34917 3.72434 0
M  V30 396 N 38.4306 0.297415 1.54768 0
M  V30 397 C 39.6556 -0.318435 2.04941 0
M  V30 398 C 40.0806 -1.4701 1.17345 0
M  V30 399 O 39.4386 -1.80436 0.176758 0
M  V30 400 C 39.4866 -0.755749 3.52592 0
M  V30 401 O 38.5906 -1.86088 3.68028 0
M  V30 402 H 37.9316 -0.062421 0.661059 0
M  V30 403 H 40.4616 0.438215 1.99852 0
M  V30 404 H 40.4716 -1.04552 3.94376 0
M  V30 405 H 39.1466 0.0867233 4.1581 0
M  V30 406 H 37.7236 -1.57193 3.38149 0
M  V30 407 N 39.9087 -1.5758 0.0250728 0
M  V30 408 C 41.1487 -1.93497 -0.65865 0
M  V30 409 C 41.5127 -0.901409 -1.69525 0
M  V30 410 O 42.7137 -1.14664 -2.43116 0
M  V30 411 C 40.9847 -3.34352 -1.26267 0
M  V30 412 S 42.5437 -3.92191 -1.96803 0
M  V30 413 H 39.3617 -0.67709 -0.216958 0
M  V30 414 H 41.9637 -1.95303 0.0877692 0
M  V30 415 H 40.6677 -4.07395 -0.495741 0
M  V30 416 H 40.1987 -3.3598 -2.04648 0
M  V30 417 H 42.2137 -3.75298 -3.24601 0
M  V30 418 N 41.3868 0.248026 -1.55636 0
M  V30 419 C 42.6338 0.976224 -1.77415 0
M  V30 420 C 42.9618 1.85361 -0.589193 0
M  V30 421 O 42.2168 1.90973 0.427529 0
M  V30 422 C 42.5158 1.86819 -3.04686 0
M  V30 423 C 42.1818 1.14625 -4.36087 0
M  V30 424 C 40.8438 0.946723 -4.71795 0
M  V30 425 C 43.1958 0.634463 -5.17324 0
M  V30 426 C 40.5238 0.223091 -5.86276 0
M  V30 427 C 42.8758 -0.0756959 -6.32555 0
M  V30 428 C 41.5398 -0.286711 -6.66884 0
M  V30 429 H 40.8098 0.357226 -0.649208 0
M  V30 430 H 43.4568 0.246415 -1.89908 0
M  V30 431 H 41.7618 2.66502 -2.872 0
M  V30 432 H 43.4588 2.43329 -3.18735 0
M  V30 433 H 40.0488 1.3117 -4.08035 0
M  V30 434 H 44.2328 0.77616 -4.90193 0
M  V30 435 H 39.4888 0.0491185 -6.1138 0
M  V30 436 H 43.6628 -0.479899 -6.94745 0
M  V30 437 H 41.2898 -0.849389 -7.5544 0
M  V30 438 N 42.8649 1.48995 0.513639 0
M  V30 439 C 43.8129 1.65199 1.63744 0
M  V30 440 C 44.8069 0.51809 1.61283 0
M  V30 441 O 46.0129 0.697335 1.65943 0
M  V30 442 H 42.3879 0.52069 0.542574 0
M  V30 443 H 44.3589 2.59552 1.47226 0
M  V30 444 C 43.1079 1.72409 3.01945 0
M  V30 445 H 42.4309 2.59029 3.04539 0
M  V30 446 H 43.8709 1.87785 3.80148 0
M  V30 447 C 42.3299 0.46618 3.33659 0
M  V30 448 O 42.8599 -0.413744 3.99564 0
M  V30 449 N 41.0659 0.332931 2.88687 0
M  V30 450 H 40.6129 1.04996 2.35231 0
M  V30 451 H 40.5709 -0.507665 3.10274 0
M  V30 452 N 44.343 -0.763751 1.37857 0
M  V30 453 C 45.275 -1.88664 1.30148 0
M  V30 454 C 46.288 -1.61365 0.215685 0
M  V30 455 O 47.477 -1.72134 0.472459 0
M  V30 456 C 44.577 -3.24075 0.991396 0
M  V30 457 C 43.75 -3.78958 2.18426 0
M  V30 458 C 42.809 -4.92862 1.8432 0
M  V30 459 O 41.835 -5.08027 2.56704 0
M  V30 460 N 43.037 -5.75071 0.792081 0
M  V30 461 H 45.802 -1.95791 2.26905 0
M  V30 462 H 43.363 -0.943226 1.31586 0
M  V30 463 H 45.355 -3.97804 0.743935 0
M  V30 464 H 43.925 -3.12399 0.112122 0
M  V30 465 H 43.145 -2.96913 2.59299 0
M  V30 466 H 44.433 -4.12357 2.98058 0
M  V30 467 H 43.831 -5.65375 0.191595 0
M  V30 468 H 42.388 -6.48991 0.60449 0
M  V30 469 N 45.8211 -1.22559 -0.990812 0
M  V30 470 C 47.0691 -1.04933 -1.72724 0
M  V30 471 C 47.3901 0.416158 -1.90508 0
M  V30 472 O 46.6601 1.29918 -1.46622 0
M  V30 473 H 45.2401 -0.385296 -0.639965 0
M  V30 474 H 47.9021 -1.54105 -1.19322 0
M  V30 475 H 46.9981 -1.52886 -2.72089 0
M  V30 476 N 47.2992 1.18797 -1.03562 0
M  V30 477 C 48.2622 2.20464 -0.626769 0
M  V30 478 C 49.2622 1.57721 0.313173 0
M  V30 479 O 50.4522 1.73917 0.0992615 0
M  V30 480 C 47.5842 3.40802 0.0818498 0
M  V30 481 H 48.7772 2.58149 -1.5264 0
M  V30 482 H 46.3302 1.32593 -0.827578 0
M  V30 483 H 47.0652 3.08642 0.995518 0
M  V30 484 H 46.8502 3.8758 -0.593652 0
M  V30 485 H 48.3402 4.16092 0.354584 0
M  V30 486 N 48.7773 0.814389 1.34928 0
M  V30 487 C 50.0053 0.411136 2.02774 0
M  V30 488 C 50.4203 -0.980316 1.61354 0
M  V30 489 O 49.7773 -1.63299 0.814847 0
M  V30 490 C 49.8283 0.493865 3.58111 0
M  V30 491 O 49.5493 1.83047 3.98027 0
M  V30 492 C 51.0503 0.0844174 4.4322 0
M  V30 493 H 48.2703 0.166037 0.650133 0
M  V30 494 H 50.8143 1.10018 1.72384 0
M  V30 495 H 48.9693 -0.147006 3.87121 0
M  V30 496 H 49.3833 1.79872 4.92693 0
M  V30 497 H 50.8573 0.193404 5.51661 0
M  V30 498 H 51.3343 -0.97113 4.28329 0
M  V30 499 H 51.9403 0.69875 4.19521 0
M  V30 500 N 50.2554 -1.46986 0.568584 0
M  V30 501 C 51.1854 -2.32946 -0.160753 0
M  V30 502 C 52.1664 -1.44487 -0.897631 0
M  V30 503 O 53.3514 -1.73327 -0.875867 0
M  V30 504 C 50.4814 -3.26494 -1.18403 0
M  V30 505 C 49.4354 -4.24282 -0.562895 0
M  V30 506 C 48.7614 -5.07236 -1.69163 0
M  V30 507 C 50.0614 -5.19989 0.490761 0
M  V30 508 H 51.7554 -2.94175 0.556916 0
M  V30 509 H 49.3014 -1.4146 0.26927 0
M  V30 510 H 51.2544 -3.85477 -1.70251 0
M  V30 511 H 49.9784 -2.63343 -1.93179 0
M  V30 512 H 48.6374 -3.66541 -0.0656164 0
M  V30 513 H 48.2854 -4.4048 -2.42871 0
M  V30 514 H 47.9854 -5.7345 -1.28174 0
M  V30 515 H 49.5094 -5.6908 -2.21314 0
M  V30 516 H 50.9234 -5.73271 0.0579047 0
M  V30 517 H 49.3204 -5.94469 0.820165 0
M  V30 518 H 50.3904 -4.64777 1.3824 0
M  V30 519 N 51.7335 -0.305618 -1.54608 0
M  V30 520 C 52.6965 0.555591 -2.22364 0
M  V30 521 C 53.6965 1.05768 -1.21119 0
M  V30 522 O 54.8865 0.952972 -1.45822 0
M  V30 523 C 52.0185 1.76974 -2.91364 0
M  V30 524 H 53.2115 -0.0364572 -2.99878 0
M  V30 525 H 50.7645 -0.0565007 -1.56198 0
M  V30 526 H 51.4995 2.40151 -2.17941 0
M  V30 527 H 51.2845 1.41732 -3.65588 0
M  V30 528 H 52.7745 2.38148 -3.43038 0
M  V30 529 N 53.2116 1.57565 -0.0334293 0
M  V30 530 C 54.4586 1.91978 0.644272 0
M  V30 531 C 54.7866 0.910231 1.71887 0
M  V30 532 O 54.0416 -0.0801961 1.95536 0
M  V30 533 C 54.3406 3.33112 1.29504 0
M  V30 534 C 54.0066 4.49537 0.350388 0
M  V30 535 C 52.6686 4.81115 0.0903974 0
M  V30 536 C 55.0206 5.20347 -0.298032 0
M  V30 537 C 52.3486 5.8086 -0.825746 0
M  V30 538 C 54.7006 6.2107 -1.20226 0
M  V30 539 C 53.3646 6.51088 -1.4711 0
M  V30 540 H 52.6346 0.702496 0.235756 0
M  V30 541 H 55.2816 1.91259 -0.0961176 0
M  V30 542 H 53.5866 3.30113 2.11028 0
M  V30 543 H 55.2836 3.57011 1.82603 0
M  V30 544 H 51.8736 4.24883 0.563205 0
M  V30 545 H 56.0576 4.96178 -0.110234 0
M  V30 546 H 51.3136 6.02461 -1.04169 0
M  V30 547 H 55.4876 6.75057 -1.71086 0
M  V30 548 H 53.1146 7.28193 -2.18264 0
M  V30 549 N 54.6897 -0.239769 1.55765 0
M  V30 550 C 55.9177 -0.98417 1.81994 0
M  V30 551 C 56.3327 -1.7867 0.610124 0
M  V30 552 O 55.6897 -1.77571 -0.421271 0
M  V30 553 C 55.7407 -1.91635 3.06526 0
M  V30 554 O 55.4617 -1.14629 4.22838 0
M  V30 555 C 56.9627 -2.77616 3.45607 0
M  V30 556 H 54.1827 -0.28928 0.605441 0
M  V30 557 H 56.7267 -0.260499 2.02834 0
M  V30 558 H 54.8817 -2.5942 2.87715 0
M  V30 559 H 55.2957 -1.77745 4.93464 0
M  V30 560 H 56.7697 -3.38759 4.35828 0
M  V30 561 H 57.2467 -3.4909 2.6652 0
M  V30 562 H 57.8527 -2.15271 3.66795 0
M  V30 563 N 56.1678 -1.49265 -0.50573 0
M  V30 564 C 57.3978 -1.61979 -1.28243 0
M  V30 565 C 57.8058 -0.288576 -1.86986 0
M  V30 566 O 57.1488 0.735408 -1.68337 0
M  V30 567 C 57.2108 -2.62632 -2.45489 0
M  V30 568 C 56.8748 -4.071 -2.07651 0
M  V30 569 C 57.8718 -4.94049 -1.61901 0
M  V30 570 C 55.5568 -4.52801 -2.17431 0
M  V30 571 C 57.5508 -6.24736 -1.26428 0
M  V30 572 C 55.2378 -5.83503 -1.8157 0
M  V30 573 C 56.2358 -6.69294 -1.36142 0
M  V30 574 O 55.9238 -7.9756 -1.00764 0
M  V30 575 H 55.6558 -0.54834 -0.395347 0
M  V30 576 H 58.2098 -1.96002 -0.614204 0
M  V30 577 H 56.4398 -2.2378 -3.15372 0
M  V30 578 H 58.1288 -2.64925 -3.07522 0
M  V30 579 H 58.8948 -4.5997 -1.53795 0
M  V30 580 H 54.7738 -3.86196 -2.51742 0
M  V30 581 H 58.3178 -6.91652 -0.908992 0
M  V30 582 H 54.2148 -6.17112 -1.89324 0
M  V30 583 H 54.9828 -8.10529 -1.13952 0
M  V30 584 N 57.6459 0.756429 -1.3826 0
M  V30 585 C 58.5759 1.88374 -1.37976 0
M  V30 586 C 59.5569 1.68311 -0.246082 0
M  V30 587 O 60.7419 1.88944 -0.44874 0
M  V30 588 C 57.8719 3.25864 -1.20125 0
M  V30 589 C 56.8259 3.60523 -2.30666 0
M  V30 590 C 56.1519 4.9672 -1.97923 0
M  V30 591 C 57.4519 3.65692 -3.72916 0
M  V30 592 H 59.1459 1.88869 -2.32312 0
M  V30 593 H 56.6919 0.907272 -1.11824 0
M  V30 594 H 58.6449 4.0438 -1.18552 0
M  V30 595 H 57.3689 3.25841 -0.222498 0
M  V30 596 H 56.0279 2.84324 -2.3142 0
M  V30 597 H 55.6759 4.93253 -0.985393 0
M  V30 598 H 55.3759 5.20878 -2.71955 0
M  V30 599 H 56.8999 5.77618 -1.97964 0
M  V30 600 H 58.3139 4.34328 -3.74208 0
M  V30 601 H 56.7109 4.01358 -4.4613 0
M  V30 602 H 57.7809 2.65987 -4.05436 0
M  V30 603 N 59.124 1.23083 0.984299 0
M  V30 604 C 60.072 1.00593 2.09723 0
M  V30 605 C 61.066 -0.0538014 1.69315 0
M  V30 606 O 62.272 0.0993719 1.79725 0
M  V30 607 H 58.647 0.30817 0.685956 0
M  V30 608 H 60.618 1.95012 2.2586 0
M  V30 609 C 59.367 0.609601 3.42314 0
M  V30 610 H 58.69 1.41675 3.73856 0
M  V30 611 H 60.13 0.491726 4.21139 0
M  V30 612 C 58.589 -0.681745 3.2993 0
M  V30 613 O 59.119 -1.73192 3.62446 0
M  V30 614 N 57.325 -0.656178 2.83095 0
M  V30 615 H 56.872 0.198759 2.56832 0
M  V30 616 H 56.83 -1.52044 2.75191 0
M  V30 617 N 60.6021 -1.18246 1.0419 0
M  V30 618 C 61.5121 -2.25574 0.644476 0
M  V30 619 C 62.5281 -1.70845 -0.329826 0
M  V30 620 O 63.7041 -2.00554 -0.184443 0
M  V30 621 C 60.7691 -3.46697 0.014877 0
M  V30 622 C 59.8301 -4.16554 1.03834 0
M  V30 623 C 59.0631 -5.31894 0.438692 0
M  V30 624 O 59.2861 -5.65385 -0.754752 0
M  V30 625 O 58.2201 -5.90459 1.168 0
M  V30 626 H 62.0461 -2.61836 1.53869 0
M  V30 627 H 59.6311 -1.25352 0.812854 0
M  V30 628 H 61.5131 -4.20062 -0.335538 0
M  V30 629 H 60.1881 -3.12255 -0.853138 0
M  V30 630 H 59.0951 -3.45251 1.44057 0
M  V30 631 H 60.4281 -4.54998 1.87716 0
M  V30 632 N 62.0802 -0.821533 -1.34494 0
M  V30 633 C 63.3052 -0.420873 -2.03085 0
M  V30 634 C 63.7302 0.964915 -1.61465 0
M  V30 635 O 63.0882 1.62763 -0.798607 0
M  V30 636 C 63.1362 -0.529414 -3.56693 0
M  V30 637 O 62.2402 0.451302 -4.09923 0
M  V30 638 H 61.5812 -0.173489 -0.640935 0
M  V30 639 H 64.1112 -1.11157 -1.71771 0
M  V30 640 H 64.1212 -0.404671 -4.05988 0
M  V30 641 H 62.7962 -1.54014 -3.86332 0
M  V30 642 H 61.3732 0.285558 -3.71805 0
M  V30 643 N 63.5583 1.46682 -0.576371 0
M  V30 644 C 64.4883 2.33028 0.148397 0
M  V30 645 C 65.4693 1.44961 0.889956 0
M  V30 646 O 66.6543 1.73789 0.866662 0
M  V30 647 C 63.7843 3.27117 1.1667 0
M  V30 648 C 62.7383 4.24575 0.540386 0
M  V30 649 C 62.0643 5.08126 1.6647 0
M  V30 650 C 63.3643 5.19722 -0.518331 0
M  V30 651 H 65.0583 2.93875 -0.572509 0
M  V30 652 H 62.6043 1.41315 -0.276768 0
M  V30 653 H 64.5573 3.86374 1.68204 0
M  V30 654 H 63.2813 2.64364 1.9178 0
M  V30 655 H 61.9403 3.66571 0.0461769 0
M  V30 656 H 61.5883 4.41762 2.40531 0
M  V30 657 H 61.2883 5.74122 1.25131 0
M  V30 658 H 62.8123 5.70246 2.18293 0
M  V30 659 H 64.2263 5.73232 -0.0883058 0
M  V30 660 H 62.6233 5.94026 -0.851679 0
M  V30 661 H 63.6933 4.64037 -1.40703 0
M  V30 662 N 65.0364 0.313813 1.54444 0
M  V30 663 C 65.9464 -0.565714 2.27677 0
M  V30 664 C 66.9624 -1.13754 1.31666 0
M  V30 665 O 68.1384 -1.15959 1.64668 0
M  V30 666 C 65.2034 -1.71528 3.01296 0
M  V30 667 C 64.2644 -1.17624 4.12872 0
M  V30 668 C 63.4974 -2.27102 4.8297 0
M  V30 669 O 63.7204 -3.47256 4.52514 0
M  V30 670 O 62.6544 -1.9307 5.70094 0
M  V30 671 H 66.4804 0.0287296 3.03686 0
M  V30 672 H 64.0654 0.0798312 1.49187 0
M  V30 673 H 65.9474 -2.38476 3.4743 0
M  V30 674 H 64.6224 -2.29608 2.2817 0
M  V30 675 H 63.5294 -0.472124 3.71109 0
M  V30 676 H 64.8624 -0.640695 4.88012 0
M  V30 677 N 66.5145 -1.57545 0.0417849 0
M  V30 678 C 67.4615 -2.10977 -0.935805 0
M  V30 679 C 68.4315 -1.01486 -1.31491 0
M  V30 680 O 69.6165 -1.2898 -1.40602 0
M  V30 681 C 66.7565 -2.65169 -2.2086 0
M  V30 682 C 65.8695 -3.88714 -1.88482 0
M  V30 683 C 65.0045 -4.31254 -3.1015 0
M  V30 684 C 64.0435 -5.47524 -2.7365 0
M  V30 685 N 63.1805 -5.85162 -3.87982 0
M  V30 686 H 68.0205 -2.94218 -0.473249 0
M  V30 687 H 65.5575 -1.45415 -0.221981 0
M  V30 688 H 67.5155 -2.94685 -2.95325 0
M  V30 689 H 66.1455 -1.8474 -2.64709 0
M  V30 690 H 65.1975 -3.65849 -1.04205 0
M  V30 691 H 66.5095 -4.73245 -1.57608 0
M  V30 692 H 65.6635 -4.62273 -3.92923 0
M  V30 693 H 64.4025 -3.45516 -3.44195 0
M  V30 694 H 63.4075 -5.16187 -1.89291 0
M  V30 695 H 64.6325 -6.34971 -2.40807 0
M  V30 696 H 62.5785 -5.02377 -4.21846 0
M  V30 697 H 62.4955 -6.64362 -3.60775 0
M  V30 698 H 63.7635 -6.20791 -4.71422 0
M  V30 699 N 67.9926 0.231505 -1.5589 0
M  V30 700 C 69.4086 0.580748 -1.48659 0
M  V30 701 C 69.6086 1.87617 -0.73498 0
M  V30 702 O 68.6646 2.51046 -0.270586 0
M  V30 703 C 69.9776 0.669202 -2.93159 0
M  V30 704 C 71.5256 0.760499 -3.03621 0
M  V30 705 C 72.0006 0.880383 -4.49459 0
M  V30 706 N 73.4916 0.944861 -4.53461 0
M  V30 707 C 74.2266 1.05716 -5.63571 0
M  V30 708 N 73.7226 1.13403 -6.83456 0
M  V30 709 N 75.5156 1.09152 -5.514 0
M  V30 710 H 67.6666 -0.618695 -2.03189 0
M  V30 711 H 69.9296 -0.215728 -0.923128 0
M  V30 712 H 69.6356 -0.212904 -3.51055 0
M  V30 713 H 69.5096 1.5361 -3.44505 0
M  V30 714 H 71.8966 1.63305 -2.45796 0
M  V30 715 H 71.9776 -0.131864 -2.5546 0
M  V30 716 H 71.6216 0.0123284 -5.07899 0
M  V30 717 H 71.5516 1.78802 -4.95316 0
M  V30 718 H 74.0426 0.896176 -3.6712 0
M  V30 719 H 74.3556 1.21921 -7.63122 0
M  V30 720 H 72.7006 1.10333 -6.86186 0
M  V30 721 H 75.8916 1.02805 -4.56671 0
M  V30 722 H 76.0646 1.17558 -6.37247 0
M  V30 723 N 69.4707 1.49531 0.497807 0
M  V30 724 C 70.7167 1.59415 1.25358 0
M  V30 725 C 71.0497 0.281422 1.9215 0
M  V30 726 O 70.3247 -0.715249 1.80871 0
M  V30 727 C 70.6077 2.75566 2.3181 0
M  V30 728 C 70.4607 4.16642 1.69498 0
M  V30 729 C 71.7797 2.87347 3.33346 0
M  V30 730 H 68.8987 0.580244 0.454408 0
M  V30 731 H 71.5407 1.81827 0.551262 0
M  V30 732 H 69.6907 2.56587 2.91711 0
M  V30 733 H 71.3627 4.47145 1.13399 0
M  V30 734 H 69.6057 4.22141 0.998978 0
M  V30 735 H 70.2767 4.93792 2.46725 0
M  V30 736 H 72.7527 3.04634 2.83438 0
M  V30 737 H 71.6287 3.70289 4.05188 0
M  V30 738 H 71.8897 1.96834 3.95865 0
M  V30 739 N 70.9488 -0.749086 1.3866 0
M  V30 740 C 72.3648 -1.05276 1.19955 0
M  V30 741 C 72.5648 -2.01435 0.05134 0
M  V30 742 O 71.6208 -2.45232 -0.60147 0
M  V30 743 C 72.9338 -1.62853 2.52783 0
M  V30 744 C 74.4818 -1.75002 2.59506 0
M  V30 745 C 74.9568 -2.35991 3.92521 0
M  V30 746 N 76.4478 -2.43416 3.94085 0
M  V30 747 C 77.1828 -2.91511 4.9377 0
M  V30 748 N 76.6788 -3.39608 6.03853 0
M  V30 749 N 78.4718 -2.90592 4.81157 0
M  V30 750 H 70.6228 -0.111066 2.12109 0
M  V30 751 H 72.8858 -0.111901 0.941373 0
M  V30 752 H 72.5918 -0.99664 3.37283 0
M  V30 753 H 72.4658 -2.61854 2.715 0
M  V30 754 H 74.8528 -2.37317 1.75398 0
M  V30 755 H 74.9338 -0.74693 2.44652 0
M  V30 756 H 74.5778 -1.74308 4.77053 0
M  V30 757 H 74.5078 -3.3695 4.04688 0
M  V30 758 H 76.9988 -2.09405 3.14576 0
M  V30 759 H 77.3118 -3.74775 6.75843 0
M  V30 760 H 75.6568 -3.37653 6.07466 0
M  V30 761 H 78.8478 -2.52332 3.94267 0
M  V30 762 H 79.0208 -3.27762 5.58996 0
M  V30 763 N 72.4269 -1.23603 -0.977757 0
M  V30 764 C 73.8379 -1.06424 -1.53398 0
M  V30 765 C 74.1889 0.367578 -1.92726 0
M  V30 766 O 73.3139 1.25465 -1.76316 0
M  V30 767 C 73.9089 -1.92568 -2.78753 0
M  V30 768 C 72.4679 -1.79642 -3.30765 0
M  V30 769 C 71.6149 -1.88111 -2.03739 0
M  V30 770 H 74.5659 -1.37227 -0.797152 0
M  V30 771 H 74.5869 -1.45203 -3.51705 0
M  V30 772 H 74.0989 -2.96771 -2.50098 0
M  V30 773 H 72.1999 -0.782325 -3.64294 0
M  V30 774 H 72.3129 -2.63174 -4.00345 0
M  V30 775 H 70.6769 -1.31723 -2.17994 0
M  V30 776 H 71.4599 -2.93875 -1.77461 0
M  V30 777 N 73.905 1.17692 -1.04816 0
M  V30 778 C 75.154 1.87192 -0.751132 0
M  V30 779 C 75.467 1.8169 0.724441 0
M  V30 780 O 76.673 2.46625 1.13527 0
M  V30 781 C 75.129 3.35857 -1.29338 0
M  V30 782 C 74.737 3.4987 -2.79812 0
M  V30 783 C 76.481 4.10709 -1.07322 0
M  V30 784 C 74.388 4.92536 -3.27356 0
M  V30 785 H 73.318 0.701162 -0.277288 0
M  V30 786 H 75.969 1.32932 -1.26496 0
M  V30 787 H 74.351 3.89631 -0.707376 0
M  V30 788 H 75.525 3.06332 -3.44235 0
M  V30 789 H 73.84 2.88433 -3.00325 0
M  V30 790 H 76.437 5.15952 -1.4035 0
M  V30 791 H 76.78 4.16299 -0.0108001 0
M  V30 792 H 77.313 3.6313 -1.62423 0
M  V30 793 H 74.052 4.92119 -4.33012 0
M  V30 794 H 73.572 5.3676 -2.67673 0
M  V30 795 H 75.251 5.61288 -3.21815 0
M  V30 796 N 75.3831 0.828654 1.34056 0
M  V30 797 C 76.3461 0.259927 2.27721 0
M  V30 798 C 77.3461 -0.565478 1.50529 0
M  V30 799 O 78.5361 -0.38075 1.69988 0
M  V30 800 C 75.6681 -0.634944 3.34935 0
M  V30 801 H 76.8611 1.0863 2.79534 0
M  V30 802 H 74.4141 0.600951 1.44285 0
M  V30 803 H 75.1491 -1.48416 2.88346 0
M  V30 804 H 74.9341 -0.0444999 3.92075 0
M  V30 805 H 76.4241 -1.02648 4.04788 0
M  V30 806 N 76.8612 -1.46375 0.584142 0
M  V30 807 C 77.7932 -2.28443 -0.186119 0
M  V30 808 C 78.8062 -1.38596 -0.854115 0
M  V30 809 O 79.9952 -1.63183 -0.723438 0
M  V30 810 C 77.0952 -3.13671 -1.28311 0
M  V30 811 C 76.2682 -4.31652 -0.706758 0
M  V30 812 C 75.3272 -4.98267 -1.69163 0
M  V30 813 O 74.3532 -5.55815 -1.22712 0
M  V30 814 N 75.5552 -4.95408 -3.02575 0
M  V30 815 H 78.3202 -2.9519 0.517986 0
M  V30 816 H 75.8812 -1.56303 0.42201 0
M  V30 817 H 77.8732 -3.55101 -1.94128 0
M  V30 818 H 76.4432 -2.48989 -1.89005 0
M  V30 819 H 75.6632 -3.93989 0.128908 0
M  V30 820 H 76.9512 -5.07906 -0.301506 0
M  V30 821 H 76.3492 -4.49902 -3.42936 0
M  V30 822 H 74.9062 -5.40774 -3.63877 0
M  V30 823 N 78.3393 -0.321999 -1.54275 0
M  V30 824 C 79.2493 0.553631 -2.27974 0
M  V30 825 C 80.2653 1.13054 -1.32268 0
M  V30 826 O 81.4413 1.15084 -1.6528 0
M  V30 827 C 78.5063 1.69927 -3.02201 0
M  V30 828 C 77.5673 1.15433 -4.1349 0
M  V30 829 C 76.8003 2.24537 -4.84168 0
M  V30 830 O 77.0233 3.44852 -4.5435 0
M  V30 831 O 75.9573 1.90044 -5.7111 0
M  V30 832 H 79.7833 -0.0448345 -3.03667 0
M  V30 833 H 77.3683 -0.0877418 -1.49142 0
M  V30 834 H 79.2503 2.3663 -3.48689 0
M  V30 835 H 77.9253 2.28395 -2.29385 0
M  V30 836 H 76.8323 0.452436 -3.71354 0
M  V30 837 H 78.1653 0.614805 -4.88345 0
M  V30 838 N 79.8174 1.5752 -0.0501392 0
M  V30 839 C 80.7474 2.14502 0.922566 0
M  V30 840 C 81.7284 1.06642 1.3252 0
M  V30 841 O 82.9134 1.34577 1.4001 0
M  V30 842 C 80.0434 2.68916 2.19776 0
M  V30 843 C 78.9974 3.8175 1.93523 0
M  V30 844 C 78.3234 4.22677 3.27487 0
M  V30 845 C 79.6234 5.06932 1.25765 0
M  V30 846 H 81.3174 2.9603 0.447952 0
M  V30 847 H 78.8634 1.42401 0.214024 0
M  V30 848 H 80.8164 3.07419 2.88222 0
M  V30 849 H 79.5404 1.84578 2.69441 0
M  V30 850 H 78.1994 3.43718 1.27489 0
M  V30 851 H 77.8474 3.35291 3.74952 0
M  V30 852 H 77.5474 4.98725 3.1072 0
M  V30 853 H 79.0714 4.63779 3.97166 0
M  V30 854 H 80.4854 5.42888 1.84244 0
M  V30 855 H 78.8824 5.88116 1.19328 0
M  V30 856 H 79.9524 4.84337 0.233536 0
M  V30 857 N 81.2955 -0.223234 1.56011 0
M  V30 858 C 82.2435 -1.29627 1.93131 0
M  V30 859 C 83.2375 -1.48608 0.813146 0
M  V30 860 O 84.4435 -1.49802 0.997966 0
M  V30 861 H 80.8185 -0.434563 0.613726 0
M  V30 862 H 82.7895 -0.955995 2.82672 0
M  V30 863 C 81.5385 -2.63983 2.26292 0
M  V30 864 H 80.8615 -2.50185 3.11846 0
M  V30 865 H 82.3015 -3.3788 2.56151 0
M  V30 866 C 80.7605 -3.18866 1.08747 0
M  V30 867 O 81.2905 -4.00192 0.347727 0
M  V30 868 N 79.4965 -2.77217 0.871743 0
M  V30 869 H 79.0435 -2.1119 1.47501 0
M  V30 870 H 79.0015 -3.1428 0.0869905 0
M  V30 871 N 82.7736 -1.49793 -0.48987 0
M  V30 872 C 83.9986 -1.63836 -1.27172 0
M  V30 873 C 84.4236 -0.31402 -1.8546 0
M  V30 874 O 83.7816 0.719803 -1.66399 0
M  V30 875 C 83.8296 -2.71797 -2.36978 0
M  V30 876 O 82.9336 -2.31744 -3.41128 0
M  V30 877 H 82.2746 -0.547997 -0.37496 0
M  V30 878 H 84.8046 -1.96053 -0.585191 0
M  V30 879 H 84.8146 -2.94305 -2.82575 0
M  V30 880 H 83.4896 -3.67923 -1.93921 0
M  V30 881 H 82.0666 -2.1961 -3.01373 0
M  V30 882 N 84.2517 0.741722 -1.39055 0
M  V30 883 C 85.6627 1.31966 -1.32068 0
M  V30 884 C 86.0137 1.96192 0.0180797 0
M  V30 885 O 85.1387 1.95861 0.920196 0
M  V30 886 C 85.7337 2.39954 -2.39181 0
M  V30 887 C 84.2927 2.93438 -2.35735 0
M  V30 888 C 83.4397 1.66936 -2.21422 0
M  V30 889 H 86.3907 0.539721 -1.4924 0
M  V30 890 H 86.4117 3.20182 -2.05581 0
M  V30 891 H 85.9237 1.9318 -3.36605 0
M  V30 892 H 84.0247 3.4451 -1.41929 0
M  V30 893 H 84.1377 3.4701 -3.30335 0
M  V30 894 H 82.5017 1.91016 -1.68478 0
M  V30 895 H 83.2847 1.22224 -3.20806 0
M  V30 896 N 85.7298 1.2412 0.971189 0
M  V30 897 C 86.9598 1.10415 1.7462 0
M  V30 898 C 87.3678 -0.346462 1.86001 0
M  V30 899 O 86.7108 -1.25104 1.34517 0
M  V30 900 C 86.7728 1.66596 3.18568 0
M  V30 901 C 86.4368 3.15446 3.3067 0
M  V30 902 C 87.4338 4.12636 3.16271 0
M  V30 903 C 85.1188 3.55337 3.55022 0
M  V30 904 C 87.1128 5.47699 3.26044 0
M  V30 905 C 84.7998 4.90542 3.64434 0
M  V30 906 C 85.7978 5.86532 3.49956 0
M  V30 907 O 85.4858 7.19279 3.59017 0
M  V30 908 H 85.2178 0.386616 0.55453 0
M  V30 909 H 87.7718 1.64633 1.22821 0
M  V30 910 H 86.0018 1.06808 3.71657 0
M  V30 911 H 87.6908 1.48232 3.77865 0
M  V30 912 H 88.4568 3.8316 2.97344 0
M  V30 913 H 84.3358 2.8113 3.65359 0
M  V30 914 H 87.8798 6.22603 3.14661 0
M  V30 915 H 83.7768 5.19691 3.82873 0
M  V30 916 H 84.5448 7.27153 3.75754 0
M  V30 917 N 87.2079 -1.17134 1.05439 0
M  V30 918 C 88.4539 -1.87733 0.767077 0
M  V30 919 C 88.7869 -1.8098 -0.704253 0
M  V30 920 O 88.0619 -1.21951 -1.5152 0
M  V30 921 C 88.3449 -3.37659 1.25133 0
M  V30 922 C 88.1979 -3.53149 2.78578 0
M  V30 923 C 89.5169 -4.31768 0.852324 0
M  V30 924 H 86.6359 -0.681687 0.280129 0
M  V30 925 H 89.2779 -1.37732 1.30881 0
M  V30 926 H 87.4279 -3.80373 0.790469 0
M  V30 927 H 89.0999 -3.19434 3.32806 0
M  V30 928 H 87.3429 -2.95345 3.17732 0
M  V30 929 H 88.0139 -4.58403 3.07523 0
M  V30 930 H 90.4899 -3.96909 1.24911 0
M  V30 931 H 89.3659 -5.35199 1.21873 0
M  V30 932 H 89.6269 -4.41429 -0.243485 0
M  V30 933 N 88.686 -0.835752 -1.33615 0
M  V30 934 C 89.916 -0.442701 -2.01801 0
M  V30 935 C 90.324 0.959807 -1.63047 0
M  V30 936 O 89.667 1.63468 -0.838088 0
M  V30 937 C 89.729 -0.480125 -3.56279 0
M  V30 938 C 89.393 -1.8382 -4.18401 0
M  V30 939 C 90.39 -2.80097 -4.37998 0
M  V30 940 C 88.075 -2.13019 -4.54894 0
M  V30 941 C 90.069 -4.03736 -4.9323 0
M  V30 942 C 87.756 -3.36916 -5.09834 0
M  V30 943 C 88.754 -4.32091 -5.28948 0
M  V30 944 O 88.442 -5.53797 -5.82721 0
M  V30 945 H 88.174 -0.17441 -0.653114 0
M  V30 946 H 90.728 -1.129 -1.71589 0
M  V30 947 H 88.958 0.262931 -3.85805 0
M  V30 948 H 90.647 -0.105335 -4.05763 0
M  V30 949 H 91.413 -2.58838 -4.10156 0
M  V30 950 H 87.292 -1.39733 -4.39313 0
M  V30 951 H 90.836 -4.78034 -5.08064 0
M  V30 952 H 86.733 -3.58033 -5.37106 0
M  V30 953 H 87.501 -5.55494 -6.0114 0
M  V30 954 N 90.1641 1.46063 -0.591896 0
M  V30 955 C 91.0741 2.34192 0.13831 0
M  V30 956 C 92.0901 1.50305 0.876608 0
M  V30 957 O 93.2661 1.8315 0.837728 0
M  V30 958 C 90.3311 3.27656 1.13326 0
M  V30 959 C 89.3921 4.27445 0.39863 0
M  V30 960 C 88.6251 5.16443 1.34618 0
M  V30 961 O 88.8481 5.08553 2.58321 0
M  V30 962 O 87.7821 5.95843 0.851768 0
M  V30 963 H 91.6081 2.98002 -0.58552 0
M  V30 964 H 89.1931 1.45188 -0.352239 0
M  V30 965 H 91.0751 3.85291 1.70671 0
M  V30 966 H 89.7501 2.6643 1.83839 0
M  V30 967 H 88.6571 3.73471 -0.216895 0
M  V30 968 H 89.9901 4.91482 -0.265709 0
M  V30 969 N 91.6422 0.330177 1.54103 0
M  V30 970 C 92.5722 -0.525353 2.27513 0
M  V30 971 C 93.5532 -1.11383 1.2856 0
M  V30 972 O 94.7382 -1.13773 1.57383 0
M  V30 973 C 91.8682 -1.6831 3.03791 0
M  V30 974 C 90.8222 -1.2236 4.10137 0
M  V30 975 C 90.1482 -2.46882 4.74293 0
M  V30 976 C 91.4482 -0.333697 5.21233 0
M  V30 977 H 93.1422 0.087013 2.99274 0
M  V30 978 H 90.6882 0.0432893 1.43935 0
M  V30 979 H 92.6412 -2.28795 3.5388 0
M  V30 980 H 91.3652 -2.32216 2.29659 0
M  V30 981 H 90.0242 -0.64165 3.60941 0
M  V30 982 H 89.6722 -3.09165 3.96769 0
M  V30 983 H 89.3722 -2.16825 5.46133 0
M  V30 984 H 90.8962 -3.08117 5.27159 0
M  V30 985 H 92.3102 -0.845013 5.67038 0
M  V30 986 H 90.7072 -0.125612 5.99969 0
M  V30 987 H 91.7772 0.633724 4.80741 0
M  V30 988 N 93.1203 -1.57491 0.0584922 0
M  V30 989 C 94.3973 -1.84346 -0.653918 0
M  V30 990 C 94.7773 -0.948355 -1.88599 0
M  V30 991 O 94.1253 -0.0112403 -2.28497 0
M  V30 992 C 94.3353 -3.34239 -1.00425 0
M  V30 993 C 95.6833 -4.01431 -1.38342 0
M  V30 994 O 96.7073 -3.38907 -1.09637 0
M  V30 995 O 95.5663 -5.11683 -1.91943 0
M  V30 996 H 92.6603 -0.761112 -0.323478 0
M  V30 997 H 95.2063 -1.6947 0.0884125 0
M  V30 998 H 93.9783 -3.91089 -0.128625 0
M  V30 999 H 93.6013 -3.54329 -1.80378 0
M  V30 1000 N 94.5984 0.214957 -1.56127 0
M  V30 1001 C 95.8444 0.939762 -1.79712 0
M  V30 1002 C 96.1774 1.83723 -0.629247 0
M  V30 1003 O 95.4524 1.90925 0.371197 0
M  V30 1004 C 95.7354 1.77306 -3.13424 0
M  V30 1005 C 95.5884 0.90164 -4.40671 0
M  V30 1006 C 96.9074 2.74956 -3.43638 0
M  V30 1007 H 94.0264 0.340214 -0.653776 0
M  V30 1008 H 96.6684 0.20824 -1.88855 0
M  V30 1009 H 94.8184 2.39673 -3.0576 0
M  V30 1010 H 96.4904 0.294206 -4.60361 0
M  V30 1011 H 94.7334 0.207368 -4.33304 0
M  V30 1012 H 95.4044 1.51923 -5.30682 0
M  V30 1013 H 97.8804 2.22724 -3.51473 0
M  V30 1014 H 96.7564 3.30358 -4.38355 0
M  V30 1015 H 97.0174 3.53023 -2.66134 0
M  V30 1016 N 96.0765 1.50051 0.48192 0
M  V30 1017 C 97.3015 1.64508 1.26301 0
M  V30 1018 C 97.7265 0.323851 1.85291 0
M  V30 1019 O 97.0845 -0.710969 1.66778 0
M  V30 1020 C 97.1325 2.7305 2.35533 0
M  V30 1021 O 96.2365 2.3355 3.39895 0
M  V30 1022 H 95.5775 0.549978 0.372048 0
M  V30 1023 H 98.1075 1.9636 0.574786 0
M  V30 1024 H 98.1175 2.95799 2.8101 0
M  V30 1025 H 96.7925 3.68946 1.91967 0
M  V30 1026 H 95.3695 2.21205 3.00204 0
M  V30 1027 N 97.5546 -0.734337 1.39446 0
M  V30 1028 C 98.5016 -1.84835 1.38219 0
M  V30 1029 C 99.4716 -1.64331 0.24179 0
M  V30 1030 O 100.657 -1.85728 0.437002 0
M  V30 1031 C 97.7966 -3.22355 1.23212 0
M  V30 1032 C 96.9096 -3.5456 2.46801 0
M  V30 1033 C 96.0446 -4.81485 2.24377 0
M  V30 1034 C 95.0836 -5.06536 3.43639 0
M  V30 1035 N 94.2206 -6.24665 3.20528 0
M  V30 1036 H 99.0606 -1.85219 2.33448 0
M  V30 1037 H 96.5976 -0.905039 1.15963 0
M  V30 1038 H 98.5556 -4.0174 1.12522 0
M  V30 1039 H 97.1856 -3.21248 0.316121 0
M  V30 1040 H 96.2376 -2.69872 2.68092 0
M  V30 1041 H 97.5496 -3.6899 3.3563 0
M  V30 1042 H 96.7036 -5.68852 2.10933 0
M  V30 1043 H 95.4426 -4.6923 1.32944 0
M  V30 1044 H 94.4476 -4.17632 3.5758 0
M  V30 1045 H 95.6726 -5.20676 4.35974 0
M  V30 1046 H 93.6186 -6.13696 2.3176 0
M  V30 1047 H 93.5356 -6.39685 4.02913 0
M  V30 1048 H 94.8036 -7.14868 3.10779 0
M  V30 1049 N 99.0327 -1.24633 -0.964593 0
M  V30 1050 C 99.9427 -1.05859 -2.09359 0
M  V30 1051 C 100.959 0.00148855 -1.74 0
M  V30 1052 O 102.135 -0.197346 -2.00431 0
M  V30 1053 C 99.1997 -0.668879 -3.40187 0
M  V30 1054 C 98.2607 -1.80578 -3.89474 0
M  V30 1055 C 97.4937 -1.43457 -5.14058 0
M  V30 1056 O 97.7167 -0.325775 -5.69469 0
M  V30 1057 O 96.6507 -2.2613 -5.57807 0
M  V30 1058 H 100.477 -2.00516 -2.28094 0
M  V30 1059 H 98.0617 -1.03481 -1.0776 0
M  V30 1060 H 99.9437 -0.463211 -4.18846 0
M  V30 1061 H 98.6187 0.248536 -3.22744 0
M  V30 1062 H 97.5257 -2.06623 -3.11862 0
M  V30 1063 H 98.8587 -2.70208 -4.11398 0
M  V30 1064 N 100.511 1.16574 -1.06058 0
M  V30 1065 C 101.421 2.2452 -0.680282 0
M  V30 1066 C 102.437 1.71348 0.302604 0
M  V30 1067 O 103.613 2.00822 0.152513 0
M  V30 1068 C 100.678 3.46629 -0.0700315 0
M  V30 1069 C 99.7388 4.14849 -1.10448 0
M  V30 1070 C 98.9718 5.31129 -0.523256 0
M  V30 1071 O 99.1948 5.66514 0.664709 0
M  V30 1072 O 98.1288 5.88526 -1.26179 0
M  V30 1073 H 101.955 2.59355 -1.58015 0
M  V30 1074 H 99.5398 1.24043 -0.832694 0
M  V30 1075 H 101.422 4.20543 0.268667 0
M  V30 1076 H 100.097 3.13573 0.803353 0
M  V30 1077 H 99.0038 3.42916 -1.49532 0
M  V30 1078 H 100.337 4.51954 -1.94931 0
M  V30 1079 N 101.989 0.842826 1.3317 0
M  V30 1080 C 102.939 0.250877 2.26616 0
M  V30 1081 C 103.923 -0.596427 1.49437 0
M  V30 1082 O 105.115 -0.447747 1.71243 0
M  V30 1083 C 102.244 -0.569779 3.38539 0
M  V30 1084 C 101.33 0.289254 4.23112 0
M  V30 1085 N 101.721 1.36987 4.86897 0
M  V30 1086 C 100.019 0.0769631 4.45934 0
M  V30 1087 C 100.72 1.89737 5.49886 0
M  V30 1088 N 99.6959 1.19827 5.30229 0
M  V30 1089 H 103.498 1.07718 2.73448 0
M  V30 1090 H 101.012 0.687693 1.47121 0
M  V30 1091 H 103.009 -1.01018 4.04476 0
M  V30 1092 H 101.669 -1.39401 2.93253 0
M  V30 1093 H 102.68 1.75277 4.87338 0
M  V30 1094 H 99.3569 -0.713507 4.11358 0
M  V30 1095 H 100.747 2.80253 6.10662 0
M  V30 1096 N 103.467 -1.45747 0.599634 0
M  V30 1097 C 104.714 -2.02292 0.0917284 0
M  V30 1098 C 105.042 -1.46906 -1.27472 0
M  V30 1099 O 104.297 -0.630652 -1.8526 0
M  V30 1100 C 104.596 -3.57399 -0.00602758 0
M  V30 1101 C 104.262 -4.31902 1.29503 0
M  V30 1102 C 102.924 -4.51974 1.65144 0
M  V30 1103 C 105.276 -4.74551 2.15525 0
M  V30 1104 C 102.604 -5.11949 2.86574 0
M  V30 1105 C 104.956 -5.35868 3.36196 0
M  V30 1106 C 103.62 -5.54165 3.72099 0
M  V30 1107 H 102.89 -0.740239 0.0335658 0
M  V30 1108 H 105.537 -1.7491 0.779661 0
M  V30 1109 H 103.842 -3.84014 -0.777183 0
M  V30 1110 H 105.539 -3.98846 -0.415038 0
M  V30 1111 H 102.129 -4.16588 1.00761 0
M  V30 1112 H 106.313 -4.58784 1.8929 0
M  V30 1113 H 101.569 -5.24305 3.14507 0
M  V30 1114 H 105.743 -5.6787 4.03109 0
M  V30 1115 H 103.37 -6.00406 4.6628 0
M  V30 1116 N 104.945 -0.338344 -1.53925 0
M  V30 1117 C 105.892 0.520845 -2.24846 0
M  V30 1118 C 106.862 1.09976 -1.24477 0
M  V30 1119 O 108.047 1.13735 -1.53196 0
M  V30 1120 C 105.187 1.6685 -3.02084 0
M  V30 1121 C 104.3 1.11739 -4.17299 0
M  V30 1122 C 103.435 2.23193 -4.82036 0
M  V30 1123 C 102.474 1.65407 -5.89328 0
M  V30 1124 N 101.611 2.70582 -6.47866 0
M  V30 1125 H 106.451 -0.0904881 -2.97863 0
M  V30 1126 H 103.988 -0.0564282 -1.46992 0
M  V30 1127 H 105.946 2.34407 -3.45122 0
M  V30 1128 H 104.576 2.2509 -2.31375 0
M  V30 1129 H 103.628 0.332919 -3.7894 0
M  V30 1130 H 104.94 0.654677 -4.94485 0
M  V30 1131 H 104.094 2.98626 -5.28117 0
M  V30 1132 H 102.833 2.72807 -4.04262 0
M  V30 1133 H 101.838 0.884779 -5.42634 0
M  V30 1134 H 103.063 1.16652 -6.69006 0
M  V30 1135 H 101.009 3.1946 -5.72959 0
M  V30 1136 H 100.926 2.28917 -7.20509 0
M  V30 1137 H 102.194 3.45799 -6.98601 0
M  V30 1138 N 106.423 1.57458 -0.0668435 0
M  V30 1139 C 107.648 1.9804 0.616027 0
M  V30 1140 C 108.073 0.944771 1.62652 0
M  V30 1141 O 107.431 -0.0902094 1.81075 0
M  V30 1142 C 107.479 3.37665 1.26549 0
M  V30 1143 O 106.583 3.36701 2.38131 0
M  V30 1144 H 105.924 0.644719 0.158849 0
M  V30 1145 H 108.454 2.04121 -0.139891 0
M  V30 1146 H 108.464 3.7474 1.6135 0
M  V30 1147 H 107.139 4.12573 0.525016 0
M  V30 1148 H 105.716 3.1139 2.0516 0
M  V30 1149 N 107.901 -0.206675 1.56239 0
M  V30 1150 C 108.831 -1.25909 1.96645 0
M  V30 1151 C 109.812 -1.48097 0.836734 0
M  V30 1152 O 110.997 -1.6003 1.10019 0
M  V30 1153 C 108.127 -2.6058 2.29599 0
M  V30 1154 C 107.081 -2.53024 3.452 0
M  V30 1155 C 106.407 -3.91861 3.63798 0
M  V30 1156 C 107.707 -2.06524 4.79734 0
M  V30 1157 H 109.401 -0.923369 2.84806 0
M  V30 1158 H 106.947 -0.442735 1.37025 0
M  V30 1159 H 108.9 -3.34375 2.56459 0
M  V30 1160 H 107.624 -2.95869 1.38307 0
M  V30 1161 H 106.283 -1.81684 3.18412 0
M  V30 1162 H 105.931 -4.24483 2.69857 0
M  V30 1163 H 105.631 -3.87683 4.4156 0
M  V30 1164 H 107.155 -4.67296 3.93022 0
M  V30 1165 H 108.569 -2.70072 5.05702 0
M  V30 1166 H 106.966 -2.13374 5.60885 0
M  V30 1167 H 108.036 -1.01802 4.74093 0
M  V30 1168 N 109.379 -1.50304 -0.473955 0
M  V30 1169 C 110.609 -1.64663 -1.24778 0
M  V30 1170 C 111.017 -0.328174 -1.86332 0
M  V30 1171 O 110.36 0.699536 -1.69859 0
M  V30 1172 C 110.422 -2.6778 -2.39863 0
M  V30 1173 C 110.086 -4.11413 -1.98969 0
M  V30 1174 C 111.083 -4.97372 -1.51385 0
M  V30 1175 C 108.768 -4.57312 -2.07777 0
M  V30 1176 C 110.762 -6.27277 -1.13148 0
M  V30 1177 C 108.449 -5.87223 -1.69152 0
M  V30 1178 C 109.447 -6.72031 -1.21915 0
M  V30 1179 O 109.135 -7.99518 -0.838237 0
M  V30 1180 H 108.867 -0.556602 -0.383627 0
M  V30 1181 H 111.421 -1.9726 -0.572491 0
M  V30 1182 H 109.651 -2.30419 -3.10554 0
M  V30 1183 H 111.34 -2.71388 -3.01833 0
M  V30 1184 H 112.106 -4.63128 -1.44004 0
M  V30 1185 H 107.985 -3.91449 -2.43493 0
M  V30 1186 H 111.529 -6.93425 -0.762077 0
M  V30 1187 H 107.426 -6.20989 -1.76191 0
M  V30 1188 H 108.194 -8.12764 -0.967339 0
M  V30 1189 N 110.857 0.726932 -1.39834 0
M  V30 1190 C 111.805 1.86235 -1.39353 0
M  V30 1191 C 112.799 1.67144 -0.275555 0
M  V30 1192 O 114.005 1.74387 -0.44601 0
M  V30 1193 H 110.38 0.613174 -0.43534 0
M  V30 1194 H 112.351 1.83756 -2.35109 0
M  V30 1195 C 111.1 3.23995 -1.26185 0
M  V30 1196 H 110.423 3.39285 -2.11484 0
M  V30 1197 H 111.863 4.03609 -1.29907 0
M  V30 1198 C 110.322 3.36888 0.0290018 0
M  V30 1199 O 110.852 3.89152 0.99619 0
M  V30 1200 N 109.058 2.90446 0.0947437 0
M  V30 1201 H 108.605 2.48102 -0.693035 0
M  V30 1202 H 108.563 2.99451 0.957932 0
M  V30 1203 N 112.336 1.25143 0.95797 0
M  V30 1204 C 113.561 1.12521 1.74223 0
M  V30 1205 C 113.986 -0.317402 1.85403 0
M  V30 1206 O 113.344 -1.2299 1.33204 0
M  V30 1207 C 113.392 1.78062 3.1357 0
M  V30 1208 O 112.496 1.058 3.98598 0
M  V30 1209 H 111.837 0.39304 0.535178 0
M  V30 1210 H 114.367 1.65641 1.201 0
M  V30 1211 H 114.377 1.84213 3.64046 0
M  V30 1212 H 113.052 2.83021 3.04749 0
M  V30 1213 H 111.629 1.07506 3.57067 0
M  V30 1214 N 113.814 -1.1601 1.06675 0
M  V30 1215 C 115.06 -1.86909 0.786945 0
M  V30 1216 C 115.393 -1.81717 -0.685018 0
M  V30 1217 O 114.668 -1.23551 -1.50218 0
M  V30 1218 C 114.951 -3.36313 1.28707 0
M  V30 1219 C 114.804 -3.50175 2.82308 0
M  V30 1220 C 116.123 -4.3084 0.898071 0
M  V30 1221 H 113.242 -0.678677 0.287343 0
M  V30 1222 H 115.884 -1.36336 1.32334 0
M  V30 1223 H 114.034 -3.79513 0.830768 0
M  V30 1224 H 115.706 -3.15886 3.36175 0
M  V30 1225 H 113.949 -2.91959 3.20847 0
M  V30 1226 H 114.62 -4.55116 3.12368 0
M  V30 1227 H 117.096 -3.95561 1.29114 0
M  V30 1228 H 115.972 -5.33876 1.27543 0
M  V30 1229 H 116.233 -4.41662 -0.196651 0
M  V30 1230 N 115.292 -0.849877 -1.32721 0
M  V30 1231 C 116.239 -0.289033 -2.28983 0
M  V30 1232 C 117.209 0.601324 -1.54833 0
M  V30 1233 O 118.394 0.537253 -1.8308 0
M  V30 1234 C 115.534 0.520623 -3.4115 0
M  V30 1235 C 114.647 -0.394989 -4.3019 0
M  V30 1236 C 113.782 0.426834 -5.29482 0
M  V30 1237 C 112.821 -0.486476 -6.10164 0
M  V30 1238 N 111.958 0.297879 -7.01468 0
M  V30 1239 H 116.798 -1.11519 -2.76347 0
M  V30 1240 H 114.335 -0.56138 -1.35967 0
M  V30 1241 H 116.293 1.00563 -4.04899 0
M  V30 1242 H 114.923 1.31165 -2.9495 0
M  V30 1243 H 113.975 -0.99836 -3.67065 0
M  V30 1244 H 115.287 -1.09612 -4.86607 0
M  V30 1245 H 114.441 0.975205 -5.98811 0
M  V30 1246 H 113.18 1.16136 -4.73671 0
M  V30 1247 H 112.185 -1.04677 -5.39743 0
M  V30 1248 H 113.41 -1.21953 -6.6806 0
M  V30 1249 H 111.356 1.01558 -6.48091 0
M  V30 1250 H 111.273 -0.344318 -7.55216 0
M  V30 1251 H 112.541 0.828131 -7.75089 0
M  V30 1252 N 116.77 1.45427 -0.607355 0
M  V30 1253 C 117.717 2.3053 0.111625 0
M  V30 1254 C 118.687 1.4209 0.860216 0
M  V30 1255 O 119.872 1.71019 0.845998 0
M  V30 1256 C 117.012 3.26992 1.10319 0
M  V30 1257 C 116.125 4.30535 0.355493 0
M  V30 1258 C 115.26 5.14105 1.33676 0
M  V30 1259 C 114.299 6.09376 0.576862 0
M  V30 1260 N 113.436 6.85727 1.5074 0
M  V30 1261 H 118.276 2.91477 -0.620093 0
M  V30 1262 H 115.813 1.43631 -0.317594 0
M  V30 1263 H 117.771 3.81385 1.6912 0
M  V30 1264 H 116.401 2.67799 1.80232 0
M  V30 1265 H 115.453 3.78805 -0.348023 0
M  V30 1266 H 116.765 4.98235 -0.237423 0
M  V30 1267 H 115.919 5.72897 1.99684 0
M  V30 1268 H 114.658 4.46423 1.9636 0
M  V30 1269 H 113.663 5.49715 -0.0968519 0
M  V30 1270 H 114.888 6.79085 -0.0449341 0
M  V30 1271 H 112.834 6.20735 2.12189 0
M  V30 1272 H 112.751 7.49778 0.967913 0
M  V30 1273 H 114.019 7.4906 2.15706 0
M  V30 1274 N 118.248 0.346503 1.53744 0
M  V30 1275 C 119.525 -0.304532 1.93215 0
M  V30 1276 C 119.905 -1.67993 1.27834 0
M  V30 1277 O 119.253 -2.24411 0.430352 0
M  V30 1278 C 119.463 -0.373852 3.46992 0
M  V30 1279 C 120.811 -0.62329 4.2 0
M  V30 1280 O 121.835 -0.455847 3.53271 0
M  V30 1281 O 120.694 -0.947879 5.38217 0
M  V30 1282 H 117.788 -0.178318 0.807547 0
M  V30 1283 H 120.334 0.397895 1.64969 0
M  V30 1284 H 119.106 0.591224 3.86808 0
M  V30 1285 H 118.729 -1.12294 3.81413 0
M  V30 1286 N 119.726 -1.57421 0.075193 0
M  V30 1287 C 120.656 -2.15942 -0.888324 0
M  V30 1288 C 121.637 -1.08737 -1.30806 0
M  V30 1289 O 122.822 -1.36787 -1.37851 0
M  V30 1290 C 119.952 -2.72379 -2.1547 0
M  V30 1291 C 118.906 -3.8478 -1.87425 0
M  V30 1292 C 118.232 -4.27834 -3.20721 0
M  V30 1293 C 119.532 -5.08869 -1.17684 0
M  V30 1294 H 121.226 -2.96705 -0.400799 0
M  V30 1295 H 118.772 -1.42723 -0.191342 0
M  V30 1296 H 120.725 -3.11965 -2.83295 0
M  V30 1297 H 119.449 -1.88841 -2.6647 0
M  V30 1298 H 118.108 -3.45703 -1.22004 0
M  V30 1299 H 117.756 -3.41214 -3.6957 0
M  V30 1300 H 117.456 -5.03605 -3.02746 0
M  V30 1301 H 118.98 -4.70039 -3.89738 0
M  V30 1302 H 120.394 -5.4575 -1.75584 0
M  V30 1303 H 118.791 -5.8994 -1.09956 0
M  V30 1304 H 119.861 -4.84648 -0.156453 0
M  V30 1305 N 121.204 0.198386 -1.56346 0
M  V30 1306 C 122.452 0.91747 -1.80075 0
M  V30 1307 C 122.773 1.83929 -0.647692 0
M  V30 1308 O 122.043 1.93029 0.334166 0
M  V30 1309 H 120.623 0.341774 -0.664228 0
M  V30 1310 H 123.285 0.204684 -1.93822 0
M  V30 1311 H 122.381 1.51055 -2.7311 0
M  V30 1312 N 122.682 1.50554 0.465978 0
M  V30 1313 C 123.907 1.65838 1.24549 0
M  V30 1314 C 124.332 0.343486 1.84937 0
M  V30 1315 O 123.69 -0.69324 1.67523 0
M  V30 1316 C 123.738 2.75533 2.32624 0
M  V30 1317 O 122.842 2.37142 3.37398 0
M  V30 1318 H 122.183 0.553893 0.366194 0
M  V30 1319 H 124.713 1.96959 0.553927 0
M  V30 1320 H 124.723 2.98763 2.77857 0
M  V30 1321 H 123.398 3.70962 1.88043 0
M  V30 1322 H 121.975 2.24377 2.97841 0
M  V30 1323 N 124.16 -0.719506 1.40217 0
M  V30 1324 C 125.09 -1.8465 1.42922 0
M  V30 1325 C 126.071 -1.67599 0.29062 0
M  V30 1326 O 127.256 -1.87688 0.498677 0
M  V30 1327 C 124.386 -3.22565 1.28722 0
M  V30 1328 C 123.34 -3.54281 2.40144 0
M  V30 1329 C 122.666 -4.91298 2.11023 0
M  V30 1330 C 123.966 -3.55676 3.82481 0
M  V30 1331 H 125.66 -1.82644 2.37237 0
M  V30 1332 H 123.206 -0.877305 1.1419 0
M  V30 1333 H 125.159 -4.01095 1.29232 0
M  V30 1334 H 123.883 -3.25137 0.308811 0
M  V30 1335 H 122.542 -2.78088 2.38877 0
M  V30 1336 H 122.19 -4.90468 1.11582 0
M  V30 1337 H 121.89 -5.13485 2.8567 0
M  V30 1338 H 123.414 -5.72166 2.13209 0
M  V30 1339 H 124.828 -4.24254 3.85592 0
M  V30 1340 H 123.225 -3.89388 4.56614 0
M  V30 1341 H 124.295 -2.55144 4.12346 0
M  V30 1342 N 125.638 -1.25649 -0.95132 0
M  V30 1343 C 126.915 -1.01361 -1.67288 0
M  V30 1344 C 127.295 0.459135 -2.06046 0
M  V30 1345 O 126.643 1.43723 -1.7764 0
M  V30 1346 C 126.853 -1.95256 -2.89268 0
M  V30 1347 C 128.201 -2.23289 -3.61147 0
M  V30 1348 O 129.225 -1.93041 -2.99355 0
M  V30 1349 O 128.084 -2.74741 -4.72419 0
M  V30 1350 H 125.178 -0.38464 -0.732107 0
M  V30 1351 H 127.724 -1.36817 -1.00395 0
M  V30 1352 H 126.496 -2.94685 -2.57442 0
M  V30 1353 H 126.119 -1.60218 -3.6389 0
M  V30 1354 N 127.117 1.15442 -1.07289 0
M  V30 1355 C 128.364 1.86213 -0.795668 0
M  V30 1356 C 128.692 1.82291 0.678238 0
M  V30 1357 O 127.947 1.24057 1.51355 0
M  V30 1358 C 128.246 3.3489 -1.24834 0
M  V30 1359 C 127.912 3.59007 -2.72809 0
M  V30 1360 C 126.574 3.65298 -3.13227 0
M  V30 1361 C 128.926 3.68762 -3.68326 0
M  V30 1362 C 126.254 3.78854 -4.4798 0
M  V30 1363 C 128.606 3.83842 -5.0284 0
M  V30 1364 C 127.27 3.88378 -5.4288 0
M  V30 1365 H 126.54 0.681403 -0.291155 0
M  V30 1366 H 129.187 1.36435 -1.34379 0
M  V30 1367 H 127.492 3.8687 -0.619595 0
M  V30 1368 H 129.189 3.88052 -1.01076 0
M  V30 1369 H 125.779 3.5475 -2.40521 0
M  V30 1370 H 129.963 3.63202 -3.38227 0
M  V30 1371 H 125.219 3.80623 -4.78472 0
M  V30 1372 H 129.393 3.90332 -5.76727 0
M  V30 1373 H 127.02 3.98635 -6.47298 0
M  V30 1374 N 128.595 0.856903 1.32268 0
M  V30 1375 C 129.844 0.457599 1.96441 0
M  V30 1376 C 130.157 -0.992426 1.68553 0
M  V30 1377 O 131.363 -1.49727 2.26482 0
M  V30 1378 C 129.819 0.767358 3.51624 0
M  V30 1379 C 129.427 2.23326 3.88367 0
M  V30 1380 C 131.171 0.435887 4.22256 0
M  V30 1381 C 129.078 2.48613 5.36606 0
M  V30 1382 H 128.008 0.167387 0.735185 0
M  V30 1383 H 130.659 1.048 1.5063 0
M  V30 1384 H 129.041 0.106367 3.95857 0
M  V30 1385 H 130.215 2.93623 3.55137 0
M  V30 1386 H 128.53 2.52948 3.30766 0
M  V30 1387 H 131.127 0.602202 5.31298 0
M  V30 1388 H 131.47 -0.622672 4.11617 0
M  V30 1389 H 132.003 1.05286 3.83614 0
M  V30 1390 H 128.742 3.53101 5.52268 0
M  V30 1391 H 128.262 1.82896 5.71235 0
M  V30 1392 H 129.941 2.32676 6.03714 0
M  V30 1393 N 130.073 -1.45103 0.615059 0
M  V30 1394 C 131.319 -2.02483 0.113347 0
M  V30 1395 C 131.652 -1.48146 -1.25564 0
M  V30 1396 O 130.927 -0.659104 -1.82992 0
M  V30 1397 C 131.21 -3.60005 0.0825278 0
M  V30 1398 C 131.063 -4.2466 1.48271 0
M  V30 1399 C 132.382 -4.35972 -0.601401 0
M  V30 1400 H 129.501 -0.735764 0.0426632 0
M  V30 1401 H 132.143 -1.72868 0.788461 0
M  V30 1402 H 130.293 -3.85367 -0.492378 0
M  V30 1403 H 131.965 -4.10458 2.10527 0
M  V30 1404 H 130.208 -3.82772 2.04127 0
M  V30 1405 H 130.879 -5.336 1.41332 0
M  V30 1406 H 133.355 -4.15947 -0.112666 0
M  V30 1407 H 132.231 -5.45697 -0.592097 0
M  V30 1408 H 132.492 -4.09391 -1.66887 0
M  V30 1409 N 131.551 -0.354651 -1.53558 0
M  V30 1410 C 132.501 0.513179 -2.2215 0
M  V30 1411 C 133.485 1.05734 -1.21281 0
M  V30 1412 O 134.677 0.989202 -1.46778 0
M  V30 1413 C 131.806 1.65798 -3.00609 0
M  V30 1414 C 130.892 1.12722 -4.08845 0
M  V30 1415 N 131.283 0.318563 -5.04796 0
M  V30 1416 C 129.581 1.40307 -4.23356 0
M  V30 1417 C 130.282 0.0292224 -5.81693 0
M  V30 1418 N 129.258 0.623891 -5.40008 0
M  V30 1419 H 133.06 -0.111586 -2.93688 0
M  V30 1420 H 130.574 -0.162091 -1.61589 0
M  V30 1421 H 132.571 2.29176 -3.48258 0
M  V30 1422 H 131.231 2.28591 -2.306 0
M  V30 1423 H 132.242 -0.0413091 -5.17884 0
M  V30 1424 H 128.919 2.03458 -3.6457 0
M  V30 1425 H 130.309 -0.623808 -6.68998 0
M  V30 1426 N 133.029 1.57378 -0.0835403 0
M  V30 1427 C 134.254 1.98682 0.594987 0
M  V30 1428 C 134.679 0.961969 1.61641 0
M  V30 1429 O 134.037 -0.0709989 1.81161 0
M  V30 1430 C 134.085 3.38988 1.2296 0
M  V30 1431 O 133.189 3.39208 2.34546 0
M  V30 1432 H 132.53 0.646368 0.152002 0
M  V30 1433 H 135.06 2.03961 -0.161533 0
M  V30 1434 H 135.07 3.76431 1.57366 0
M  V30 1435 H 133.745 4.13107 0.481228 0
M  V30 1436 H 132.322 3.13548 2.01846 0
M  V30 1437 N 134.507 -0.190092 1.56449 0
M  V30 1438 C 135.753 -0.911052 1.81184 0
M  V30 1439 C 136.086 -1.82699 0.658396 0
M  V30 1440 O 135.361 -1.91491 -0.340775 0
M  V30 1441 C 135.644 -1.72297 3.16205 0
M  V30 1442 C 135.497 -0.831419 4.42049 0
M  V30 1443 C 136.816 -2.69454 3.47969 0
M  V30 1444 H 133.935 -0.32977 0.659106 0
M  V30 1445 H 136.577 -0.178169 1.89163 0
M  V30 1446 H 134.727 -2.34778 3.09534 0
M  V30 1447 H 136.399 -0.220929 4.60771 0
M  V30 1448 H 134.642 -0.138406 4.33579 0
M  V30 1449 H 135.313 -1.43461 5.33032 0
M  V30 1450 H 137.789 -2.17104 3.54972 0
M  V30 1451 H 136.665 -3.23342 4.43555 0
M  V30 1452 H 136.926 -3.48744 2.71717 0
M  V30 1453 N 135.985 -1.50799 -0.457987 0
M  V30 1454 C 136.948 -1.7005 -1.53674 0
M  V30 1455 C 137.948 -0.570881 -1.50325 0
M  V30 1456 O 139.138 -0.838126 -1.52712 0
M  V30 1457 C 136.27 -1.73788 -2.93276 0
M  V30 1458 H 137.463 -2.66306 -1.37917 0
M  V30 1459 H 135.016 -1.40477 -0.685271 0
M  V30 1460 H 135.751 -0.792717 -3.14462 0
M  V30 1461 H 135.536 -2.55864 -2.97113 0
M  V30 1462 H 137.026 -1.90591 -3.71571 0
M  V30 1463 N 137.463 0.71206 -1.40597 0
M  V30 1464 C 138.71 1.47197 -1.39065 0
M  V30 1465 C 139.038 1.94499 0.00583891 0
M  V30 1466 O 138.293 1.68752 0.99102 0
M  V30 1467 C 138.592 2.71039 -2.32965 0
M  V30 1468 C 138.258 2.42484 -3.80148 0
M  V30 1469 C 136.92 2.34406 -4.20247 0
M  V30 1470 C 139.272 2.18598 -4.73143 0
M  V30 1471 C 136.6 2.00516 -5.51371 0
M  V30 1472 C 138.952 1.8622 -6.0457 0
M  V30 1473 C 137.616 1.76626 -6.43708 0
M  V30 1474 H 136.886 0.538634 -0.508876 0
M  V30 1475 H 139.533 0.815325 -1.73276 0
M  V30 1476 H 137.838 3.41558 -1.91951 0
M  V30 1477 H 139.535 3.29138 -2.29061 0
M  V30 1478 H 136.125 2.49659 -3.4838 0
M  V30 1479 H 140.309 2.23793 -4.42979 0
M  V30 1480 H 135.565 1.91628 -5.80593 0
M  V30 1481 H 139.739 1.66752 -6.76141 0
M  V30 1482 H 137.366 1.50133 -7.45228 0
M  V30 1483 N 138.941 1.26152 0.944643 0
M  V30 1484 C 139.904 1.07474 2.0244 0
M  V30 1485 C 140.904 0.0242064 1.60782 0
M  V30 1486 O 142.094 0.267302 1.72137 0
M  V30 1487 C 139.226 0.633956 3.34953 0
M  V30 1488 H 140.419 2.03336 2.20442 0
M  V30 1489 H 137.972 1.087 1.12312 0
M  V30 1490 H 138.707 -0.326811 3.22649 0
M  V30 1491 H 138.492 1.39247 3.66542 0
M  V30 1492 H 139.982 0.52501 4.14287 0
M  V30 1493 N 140.419 -1.14872 1.07899 0
M  V30 1494 C 141.83 -1.67367 0.827363 0
M  V30 1495 C 142.181 -1.85236 -0.646693 0
M  V30 1496 O 141.306 -1.55974 -1.50004 0
M  V30 1497 C 141.901 -3.04016 1.49532 0
M  V30 1498 C 140.46 -3.53566 1.29106 0
M  V30 1499 C 139.607 -2.29161 1.56143 0
M  V30 1500 H 142.558 -0.990083 1.24028 0
M  V30 1501 H 142.579 -3.69219 0.919643 0
M  V30 1502 H 142.091 -2.90978 2.56814 0
M  V30 1503 H 140.192 -3.71835 0.238713 0
M  V30 1504 H 140.305 -4.34661 2.01511 0
M  V30 1505 H 138.669 -2.34978 0.982717 0
M  V30 1506 H 139.452 -2.18705 2.64619 0
M  V30 1507 N 141.898 -0.863906 -1.31812 0
M  V30 1508 C 142.845 -0.313303 -2.28664 0
M  V30 1509 C 143.815 0.584868 -1.55462 0
M  V30 1510 O 145 0.517805 -1.83639 0
M  V30 1511 C 142.14 0.48441 -3.41683 0
M  V30 1512 C 141.253 -0.440594 -4.29747 0
M  V30 1513 C 140.388 0.370652 -5.29905 0
M  V30 1514 C 139.427 -0.551164 -6.09613 0
M  V30 1515 N 138.564 0.223462 -7.01744 0
M  V30 1516 H 143.404 -1.14444 -2.75148 0
M  V30 1517 H 140.941 -0.575769 -1.35364 0
M  V30 1518 H 142.899 0.962627 -4.05943 0
M  V30 1519 H 141.529 1.28029 -2.96325 0
M  V30 1520 H 140.581 -1.03724 -3.65986 0
M  V30 1521 H 141.893 -1.14767 -4.85417 0
M  V30 1522 H 141.047 0.911638 -5.99812 0
M  V30 1523 H 139.786 1.11105 -4.74876 0
M  V30 1524 H 138.791 -1.10396 -5.38603 0
M  V30 1525 H 140.016 -1.29032 -6.66729 0
M  V30 1526 H 137.962 0.946787 -6.49132 0
M  V30 1527 H 137.879 -0.424399 -7.54808 0
M  V30 1528 H 139.147 0.745876 -7.75923 0
M  V30 1529 N 143.376 1.44774 -0.622745 0
M  V30 1530 C 144.286 2.34433 0.0886031 0
M  V30 1531 C 145.302 1.52131 0.844529 0
M  V30 1532 O 146.478 1.84886 0.798691 0
M  V30 1533 C 143.543 3.29986 1.0635 0
M  V30 1534 C 142.604 4.28195 0.307873 0
M  V30 1535 C 141.837 5.19183 1.23633 0
M  V30 1536 O 142.06 5.13918 2.47476 0
M  V30 1537 O 140.994 5.97515 0.725189 0
M  V30 1538 H 144.82 2.96693 -0.648599 0
M  V30 1539 H 142.405 1.44408 -0.382957 0
M  V30 1540 H 144.287 3.88825 1.6246 0
M  V30 1541 H 142.962 2.70269 1.78146 0
M  V30 1542 H 141.869 3.72927 -0.296064 0
M  V30 1543 H 143.202 4.90808 -0.3699 0
M  V30 1544 N 144.854 0.36279 1.53368 0
M  V30 1545 C 145.817 -0.472679 2.24273 0
M  V30 1546 C 146.817 -1.012 1.24961 0
M  V30 1547 O 148.007 -0.898194 1.49259 0
M  V30 1548 C 145.139 -1.66039 2.97731 0
M  V30 1549 H 146.332 0.14773 2.99536 0
M  V30 1550 H 143.885 0.114434 1.55881 0
M  V30 1551 H 144.62 -2.31896 2.26704 0
M  V30 1552 H 144.405 -1.28066 3.70596 0
M  V30 1553 H 145.895 -2.25252 3.51641 0
M  V30 1554 N 146.332 -1.57332 0.0918853 0
M  V30 1555 C 147.262 -2.16872 -0.865371 0
M  V30 1556 C 148.243 -1.10118 -1.29646 0
M  V30 1557 O 149.428 -1.38242 -1.36392 0
M  V30 1558 C 146.558 -2.74649 -2.12569 0
M  V30 1559 C 145.512 -3.86747 -1.83333 0
M  V30 1560 C 144.838 -4.31212 -3.16166 0
M  V30 1561 C 146.138 -5.10089 -1.1228 0
M  V30 1562 H 147.832 -2.97114 -0.369307 0
M  V30 1563 H 145.378 -1.42918 -0.176194 0
M  V30 1564 H 147.331 -3.14952 -2.7997 0
M  V30 1565 H 146.055 -1.91657 -2.64452 0
M  V30 1566 H 144.714 -3.46978 -1.18331 0
M  V30 1567 H 144.362 -3.45115 -3.6593 0
M  V30 1568 H 144.062 -5.06788 -2.97388 0
M  V30 1569 H 145.586 -4.74146 -3.84731 0
M  V30 1570 H 147 -5.47582 -1.69785 0
M  V30 1571 H 145.397 -5.91073 -1.03693 0
M  V30 1572 H 146.467 -4.84786 -0.105041 0
M  V30 1573 N 147.81 0.181792 -1.56548 0
M  V30 1574 C 148.72 1.24538 -1.98815 0
M  V30 1575 C 149.736 1.49045 -0.897861 0
M  V30 1576 O 150.912 1.61399 -1.20467 0
M  V30 1577 C 147.977 2.56683 -2.33055 0
M  V30 1578 C 147.038 2.40131 -3.55859 0
M  V30 1579 C 146.271 3.65975 -3.88456 0
M  V30 1580 O 146.494 4.70711 -3.22161 0
M  V30 1581 O 145.428 3.6071 -4.81842 0
M  V30 1582 H 149.254 0.916647 -2.89536 0
M  V30 1583 H 146.839 0.387842 -1.44278 0
M  V30 1584 H 148.721 3.34655 -2.56094 0
M  V30 1585 H 147.396 2.89157 -1.45498 0
M  V30 1586 H 146.303 1.60226 -3.38051 0
M  V30 1587 H 147.636 2.12585 -4.43924 0
M  V30 1588 N 149.288 1.51039 0.449983 0
M  V30 1589 C 150.536 1.62759 1.19808 0
M  V30 1590 C 150.857 0.339981 1.92013 0
M  V30 1591 O 150.127 -0.643606 1.85026 0
M  V30 1592 H 148.707 0.599811 0.445237 0
M  V30 1593 H 151.369 1.87914 0.517138 0
M  V30 1594 H 150.465 2.44911 1.93455 0
M  V30 1595 N 150.766 -0.704594 1.40972 0
M  V30 1596 C 151.991 -1.49858 1.43378 0
M  V30 1597 C 152.416 -1.88061 0.038184 0
M  V30 1598 O 151.774 -1.5402 -0.956425 0
M  V30 1599 C 151.822 -2.74333 2.34038 0
M  V30 1600 O 150.926 -3.7147 1.7912 0
M  V30 1601 H 150.267 -0.45139 0.486974 0
M  V30 1602 H 152.797 -0.866832 1.8533 0
M  V30 1603 H 152.807 -3.22741 2.49604 0
M  V30 1604 H 151.482 -2.45863 3.35446 0
M  V30 1605 H 150.059 -3.30363 1.72958 0
M  V30 1606 N 152.244 -1.26651 -0.937939 0
M  V30 1607 C 153.174 -1.10993 -2.05433 0
M  V30 1608 C 154.155 -0.0142161 -1.70094 0
M  V30 1609 O 155.34 -0.186837 -1.93299 0
M  V30 1610 C 152.47 -0.745561 -3.39203 0
M  V30 1611 C 151.424 -1.79337 -3.88616 0
M  V30 1612 C 150.75 -1.28324 -5.19073 0
M  V30 1613 C 152.05 -3.19553 -4.13138 0
M  V30 1614 H 153.744 -2.0438 -2.1879 0
M  V30 1615 H 151.29 -0.984041 -1.05131 0
M  V30 1616 H 153.243 -0.622888 -4.16771 0
M  V30 1617 H 151.967 0.22401 -3.25831 0
M  V30 1618 H 150.626 -1.90477 -3.13231 0
M  V30 1619 H 150.274 -0.303414 -5.02084 0
M  V30 1620 H 149.974 -1.98369 -5.53103 0
M  V30 1621 H 151.498 -1.1733 -5.99221 0
M  V30 1622 H 152.912 -3.11471 -4.81309 0
M  V30 1623 H 151.309 -3.87218 -4.58457 0
M  V30 1624 H 152.379 -3.65368 -3.18801 0
M  V30 1625 N 153.722 1.14298 -1.08507 0
M  V30 1626 C 154.652 2.21542 -0.737646 0
M  V30 1627 C 155.633 1.67773 0.280377 0
M  V30 1628 O 156.818 1.93616 0.150521 0
M  V30 1629 C 153.948 3.46988 -0.147259 0
M  V30 1630 C 152.902 4.13789 -1.09374 0
M  V30 1631 C 152.228 5.33449 -0.365524 0
M  V30 1632 C 153.528 4.62208 -2.4323 0
M  V30 1633 H 155.222 2.5086 -1.6343 0
M  V30 1634 H 152.768 1.20576 -0.787243 0
M  V30 1635 H 154.721 4.21262 0.107808 0
M  V30 1636 H 153.445 3.17037 0.784538 0
M  V30 1637 H 152.104 3.4147 -1.33393 0
M  V30 1638 H 151.752 4.99759 0.57011 0
M  V30 1639 H 151.452 5.79088 -0.996512 0
M  V30 1640 H 152.976 6.10485 -0.118534 0
M  V30 1641 H 154.39 5.27952 -2.23472 0
M  V30 1642 H 152.787 5.18553 -3.02031 0
M  V30 1643 H 153.857 3.77224 -3.04681 0
M  V30 1644 N 155.201 0.870884 1.31352 0
M  V30 1645 C 156.111 0.330783 2.32256 0
M  V30 1646 C 157.127 -0.559767 1.6475 0
M  V30 1647 O 158.303 -0.456263 1.96164 0
M  V30 1648 C 155.368 -0.458137 3.4366 0
M  V30 1649 C 154.429 0.460482 4.26823 0
M  V30 1650 C 153.662 -0.290881 5.32907 0
M  V30 1651 O 153.885 -1.51885 5.49806 0
M  V30 1652 O 152.819 0.351732 6.00871 0
M  V30 1653 H 156.645 1.16718 2.80376 0
M  V30 1654 H 154.23 0.634285 1.35267 0
M  V30 1655 H 156.112 -0.905343 4.1156 0
M  V30 1656 H 154.787 -1.27106 2.97701 0
M  V30 1657 H 153.694 0.956207 3.61673 0
M  V30 1658 H 155.027 1.23903 4.7635 0
M  V30 1659 N 156.679 -1.44442 0.630414 0
M  V30 1660 C 157.907 -2.06414 0.141671 0
M  V30 1661 C 158.322 -1.47105 -1.18345 0
M  V30 1662 O 157.679 -0.593662 -1.72574 0
M  V30 1663 C 157.73 -3.61494 0.0199784 0
M  V30 1664 O 157.451 -4.18594 1.29269 0
M  V30 1665 C 158.952 -4.40499 -0.497544 0
M  V30 1666 H 156.172 -0.666292 0.0793452 0
M  V30 1667 H 158.716 -1.85323 0.864614 0
M  V30 1668 H 156.871 -3.8185 -0.653402 0
M  V30 1669 H 157.285 -5.12026 1.13707 0
M  V30 1670 H 158.759 -5.49433 -0.531708 0
M  V30 1671 H 159.236 -4.11895 -1.52445 0
M  V30 1672 H 159.842 -4.25061 0.142562 0
M  V30 1673 N 158.157 -0.370918 -1.53173 0
M  V30 1674 C 159.382 0.220293 -2.06227 0
M  V30 1675 C 159.807 1.41243 -1.24225 0
M  V30 1676 O 159.165 1.79387 -0.262645 0
M  V30 1677 C 159.213 0.586663 -3.55796 0
M  V30 1678 O 158.317 1.68317 -3.76488 0
M  V30 1679 H 157.658 0.0308099 -0.663285 0
M  V30 1680 H 160.188 -0.533068 -1.97534 0
M  V30 1681 H 160.198 0.85617 -3.98916 0
M  V30 1682 H 158.873 -0.285013 -4.14922 0
M  V30 1683 H 157.45 1.40881 -3.45264 0
M  V30 1684 N 159.635 1.57281 -0.100228 0
M  V30 1685 C 160.582 2.14305 0.856858 0
M  V30 1686 C 161.552 1.06296 1.27634 0
M  V30 1687 O 162.737 1.34109 1.35718 0
M  V30 1688 C 159.877 2.73184 2.10866 0
M  V30 1689 C 158.99 3.95442 1.73925 0
M  V30 1690 C 158.125 4.42468 2.93931 0
M  V30 1691 C 157.164 5.57303 2.5314 0
M  V30 1692 N 156.301 5.99158 3.65997 0
M  V30 1693 H 161.141 2.95772 0.363726 0
M  V30 1694 H 158.678 1.46139 0.167858 0
M  V30 1695 H 160.636 3.05442 2.84185 0
M  V30 1696 H 159.266 1.94437 2.57671 0
M  V30 1697 H 158.318 3.69464 0.905554 0
M  V30 1698 H 159.63 4.78769 1.39935 0
M  V30 1699 H 158.784 4.76537 3.75496 0
M  V30 1700 H 157.523 3.58052 3.31134 0
M  V30 1701 H 156.528 5.22857 1.70003 0
M  V30 1702 H 157.753 6.43471 2.17075 0
M  V30 1703 H 155.699 5.17687 4.02909 0
M  V30 1704 H 155.616 6.77295 3.35869 0
M  V30 1705 H 156.884 6.3786 4.48057 0
M  V30 1706 N 161.113 -0.173488 1.56642 0
M  V30 1707 C 162.338 -0.910149 1.86363 0
M  V30 1708 C 162.763 -1.75132 0.686318 0
M  V30 1709 O 162.121 -1.77595 -0.364643 0
M  V30 1710 C 162.169 -1.76447 3.14482 0
M  V30 1711 O 161.273 -2.86584 2.96553 0
M  V30 1712 H 160.614 -0.255086 0.613047 0
M  V30 1713 H 163.144 -0.172283 2.03873 0
M  V30 1714 H 163.154 -2.16483 3.45831 0
M  V30 1715 H 161.829 -1.14658 3.99783 0
M  V30 1716 H 160.406 -2.50146 2.76553 0
M  V30 1717 N 162.591 -1.51276 -0.441967 0
M  V30 1718 C 163.554 -1.7167 -1.51862 0
M  V30 1719 C 164.554 -0.586793 -1.49711 0
M  V30 1720 O 165.744 -0.854276 -1.51815 0
M  V30 1721 C 162.876 -1.76889 -2.91416 0
M  V30 1722 H 164.069 -2.67754 -1.35084 0
M  V30 1723 H 161.622 -1.41196 -0.670333 0
M  V30 1724 H 162.357 -0.826026 -3.13604 0
M  V30 1725 H 162.142 -2.59001 -2.94382 0
M  V30 1726 H 163.632 -1.94522 -3.69528 0
M  V30 1727 N 164.069 0.697108 -1.41344 0
M  V30 1728 C 165.316 1.45714 -1.40619 0
M  V30 1729 C 165.644 1.94494 -0.0147907 0
M  V30 1730 O 164.899 1.69794 0.973066 0
M  V30 1731 C 165.198 2.68553 -2.35826 0
M  V30 1732 C 164.864 2.38438 -3.82698 0
M  V30 1733 C 163.526 2.29936 -4.22709 0
M  V30 1734 C 165.878 2.13567 -4.75435 0
M  V30 1735 C 163.206 1.94656 -5.53467 0
M  V30 1736 C 165.558 1.79797 -6.06511 0
M  V30 1737 C 164.222 1.69789 -6.45545 0
M  V30 1738 H 163.492 0.533206 -0.51456 0
M  V30 1739 H 166.139 0.796901 -1.74131 0
M  V30 1740 H 164.444 3.39503 -1.95563 0
M  V30 1741 H 166.141 3.2669 -2.32539 0
M  V30 1742 H 162.731 2.4595 -3.51008 0
M  V30 1743 H 166.915 2.19082 -4.45328 0
M  V30 1744 H 162.171 1.8546 -5.82593 0
M  V30 1745 H 166.345 1.59572 -6.77872 0
M  V30 1746 H 163.972 1.4222 -7.46778 0
M  V30 1747 N 165.547 1.27147 0.931209 0
M  V30 1748 C 166.495 1.09398 2.05268 0
M  V30 1749 C 167.489 0.0180591 1.6939 0
M  V30 1750 O 168.695 0.17551 1.79142 0
M  V30 1751 H 165.07 0.336986 0.672268 0
M  V30 1752 H 167.041 2.04416 2.17386 0
M  V30 1753 C 165.79 0.75424 3.39421 0
M  V30 1754 H 165.113 1.57404 3.67511 0
M  V30 1755 H 166.553 0.669903 4.18674 0
M  V30 1756 C 165.012 -0.541197 3.32525 0
M  V30 1757 O 165.542 -1.57664 3.69466 0
M  V30 1758 N 163.748 -0.535517 2.85623 0
M  V30 1759 H 163.295 0.307511 2.55758 0
M  V30 1760 H 163.253 -1.40236 2.81392 0
M  V30 1761 N 167.025 -1.13721 1.09112 0
M  V30 1762 C 168.253 -1.88773 0.846899 0
M  V30 1763 C 168.668 -1.7896 -0.601572 0
M  V30 1764 O 168.025 -1.15394 -1.41388 0
M  V30 1765 C 168.076 -3.3849 1.26913 0
M  V30 1766 O 167.797 -3.48043 2.66079 0
M  V30 1767 C 169.298 -4.30518 1.05682 0
M  V30 1768 H 166.518 -0.59772 0.304914 0
M  V30 1769 H 169.062 -1.43977 1.45227 0
M  V30 1770 H 167.217 -3.80881 0.707723 0
M  V30 1771 H 167.631 -4.4109 2.83795 0
M  V30 1772 H 169.105 -5.3391 1.40156 0
M  V30 1773 H 169.582 -4.392 -0.00563416 0
M  V30 1774 H 170.188 -3.93893 1.60402 0
M  V30 1775 N 168.503 -0.877838 -1.30888 0
M  V30 1776 C 169.466 -0.344265 -2.266 0
M  V30 1777 C 170.466 0.50922 -1.52524 0
M  V30 1778 O 171.656 0.317398 -1.71284 0
M  V30 1779 C 168.788 0.510198 -3.37061 0
M  V30 1780 H 169.981 -1.1893 -2.7531 0
M  V30 1781 H 167.534 -0.654088 -1.41956 0
M  V30 1782 H 168.269 1.37612 -2.93655 0
M  V30 1783 H 168.054 -0.101047 -3.9197 0
M  V30 1784 H 169.544 0.875537 -4.08319 0
M  V30 1785 N 169.982 1.44106 -0.638065 0
M  V30 1786 C 170.915 2.27924 0.112161 0
M  V30 1787 C 171.893 1.38945 0.844574 0
M  V30 1788 O 173.077 1.68386 0.847248 0
M  V30 1789 C 170.204 3.18029 1.16512 0
M  V30 1790 C 169.25 4.23163 0.532458 0
M  V30 1791 S 170.083 5.31131 -0.682666 0
M  V30 1792 C 171.239 6.24805 0.37013 0
M  V30 1793 H 171.472 2.91205 -0.598887 0
M  V30 1794 H 169.005 1.48394 -0.426441 0
M  V30 1795 H 170.963 3.70492 1.76766 0
M  V30 1796 H 169.624 2.53955 1.8484 0
M  V30 1797 H 168.817 4.86252 1.32571 0
M  V30 1798 H 168.419 3.74 0.00437644 0
M  V30 1799 H 170.711 6.66042 1.24071 0
M  V30 1800 H 171.654 7.07741 -0.225349 0
M  V30 1801 H 172.062 5.60154 0.699141 0
M  V30 1802 N 171.46 0.379036 1.52974 0
M  V30 1803 C 172.37 -0.468639 2.29872 0
M  V30 1804 C 173.386 -1.08067 1.36373 0
M  V30 1805 O 174.562 -1.08871 1.69438 0
M  V30 1806 C 171.627 -1.58594 3.083 0
M  V30 1807 C 170.688 -1.00007 4.17489 0
M  V30 1808 C 169.921 -2.06413 4.92168 0
M  V30 1809 O 170.144 -3.27751 4.66835 0
M  V30 1810 O 169.078 -1.68717 5.7777 0
M  V30 1811 H 172.904 0.157508 3.03291 0
M  V30 1812 H 170.489 0.143035 1.48714 0
M  V30 1813 H 172.371 -2.23525 3.57232 0
M  V30 1814 H 171.046 -2.19724 2.37703 0
M  V30 1815 H 169.953 -0.314299 3.72777 0
M  V30 1816 H 171.286 -0.433135 4.90291 0
M  V30 1817 N 172.938 -1.57226 0.108567 0
M  V30 1818 C 174.187 -1.94008 -0.551703 0
M  V30 1819 C 174.5 -0.993442 -1.68494 0
M  V30 1820 O 175.706 -1.25551 -2.40726 0
M  V30 1821 C 174.162 -3.44763 -1.03279 0
M  V30 1822 C 173.77 -4.47943 0.0714193 0
M  V30 1823 C 175.514 -3.90483 -1.66503 0
M  V30 1824 C 173.421 -5.89865 -0.425779 0
M  V30 1825 H 172.351 -0.724206 -0.209863 0
M  V30 1826 H 175.002 -1.82547 0.186741 0
M  V30 1827 H 173.384 -3.51422 -1.82533 0
M  V30 1828 H 174.558 -4.52942 0.847365 0
M  V30 1829 H 172.873 -4.11913 0.609669 0
M  V30 1830 H 175.47 -4.93925 -2.04798 0
M  V30 1831 H 175.813 -3.29877 -2.53942 0
M  V30 1832 H 176.346 -3.86581 -0.938074 0
M  V30 1833 H 173.085 -6.54202 0.412316 0
M  V30 1834 H 172.605 -5.88309 -1.16843 0
M  V30 1835 H 174.284 -6.40844 -0.890397 0
M  V30 1836 N 174.416 0.165178 -1.56732 0
M  V30 1837 C 175.641 0.900253 -1.86843 0
M  V30 1838 C 176.066 1.74766 -0.695596 0
M  V30 1839 O 175.424 1.77786 0.35522 0
M  V30 1840 C 175.472 1.74777 -3.15413 0
M  V30 1841 O 174.576 2.85007 -2.98068 0
M  V30 1842 H 173.917 0.251832 -0.614391 0
M  V30 1843 H 176.447 0.161468 -2.03962 0
M  V30 1844 H 176.457 2.14646 -3.46974 0
M  V30 1845 H 175.132 1.12537 -4.00385 0
M  V30 1846 H 173.709 2.48676 -2.77875 0
M  V30 1847 N 175.894 1.51508 0.433938 0
M  V30 1848 C 177.14 1.64588 1.18484 0
M  V30 1849 C 177.473 0.362666 1.90784 0
M  V30 1850 O 176.748 -0.637892 1.83742 0
M  V30 1851 C 177.031 2.85149 2.19913 0
M  V30 1852 C 176.884 4.23456 1.51674 0
M  V30 1853 C 178.203 3.01227 3.20858 0
M  V30 1854 H 175.322 0.598994 0.429389 0
M  V30 1855 H 177.964 1.84002 0.473647 0
M  V30 1856 H 176.114 2.68729 2.80566 0
M  V30 1857 H 177.786 4.51552 0.943322 0
M  V30 1858 H 176.029 4.25998 0.819035 0
M  V30 1859 H 176.7 5.03812 2.2556 0
M  V30 1860 H 179.176 3.16382 2.70263 0
M  V30 1861 H 178.052 3.87141 3.89118 0
M  V30 1862 H 178.313 2.13447 3.8716 0
M  V30 1863 N 177.372 -0.689602 1.41712 0
M  V30 1864 C 178.602 -1.47613 1.44548 0
M  V30 1865 C 179.01 -1.89132 0.0509034 0
M  V30 1866 O 178.353 -1.57741 -0.94146 0
M  V30 1867 C 178.415 -2.76596 2.2964 0
M  V30 1868 C 178.079 -2.57245 3.77722 0
M  V30 1869 C 179.076 -2.22804 4.69739 0
M  V30 1870 C 176.761 -2.727 4.2183 0
M  V30 1871 C 178.755 -2.04064 6.03851 0
M  V30 1872 C 176.442 -2.53576 5.56006 0
M  V30 1873 C 177.44 -2.1931 6.46832 0
M  V30 1874 O 177.128 -2.00359 7.78532 0
M  V30 1875 H 176.86 -0.461227 0.494212 0
M  V30 1876 H 179.414 -0.856045 1.86711 0
M  V30 1877 H 177.644 -3.41033 1.82301 0
M  V30 1878 H 179.333 -3.38424 2.24107 0
M  V30 1879 H 180.099 -2.10473 4.36951 0
M  V30 1880 H 175.978 -2.98353 3.51435 0
M  V30 1881 H 179.522 -1.77241 6.74708 0
M  V30 1882 H 175.419 -2.65499 5.88371 0
M  V30 1883 H 176.187 -2.15075 7.89737 0
M  V30 1884 N 178.85 -1.27639 -0.924453 0
M  V30 1885 C 180.075 -1.17101 -1.71179 0
M  V30 1886 C 180.5 0.268134 -1.86179 0
M  V30 1887 O 179.858 1.19415 -1.36418 0
M  V30 1888 C 179.906 -1.86313 -3.08739 0
M  V30 1889 O 179.01 -1.16331 -3.95652 0
M  V30 1890 H 178.351 -0.407091 -0.524569 0
M  V30 1891 H 180.881 -1.68767 -1.15666 0
M  V30 1892 H 180.891 -1.938 -3.59034 0
M  V30 1893 H 179.566 -2.91001 -2.97138 0
M  V30 1894 H 178.143 -1.16935 -3.54091 0
M  V30 1895 N 180.328 1.1314 -1.09713 0
M  V30 1896 C 181.258 2.20748 -0.761102 0
M  V30 1897 C 182.239 1.68061 0.262566 0
M  V30 1898 O 183.424 1.93765 0.129977 0
M  V30 1899 C 180.554 3.46812 -0.184054 0
M  V30 1900 C 179.508 4.12606 -1.13757 0
M  V30 1901 C 178.834 5.33031 -0.422083 0
M  V30 1902 C 180.134 4.59603 -2.48118 0
M  V30 1903 H 181.828 2.49113 -1.66082 0
M  V30 1904 H 179.374 1.19734 -0.799987 0
M  V30 1905 H 181.327 4.21353 0.0631215 0
M  V30 1906 H 180.051 3.17851 0.750868 0
M  V30 1907 H 178.71 3.40036 -1.37007 0
M  V30 1908 H 178.358 5.00335 0.517072 0
M  V30 1909 H 178.058 5.77999 -1.05788 0
M  V30 1910 H 179.582 6.10325 -0.183277 0
M  V30 1911 H 180.996 5.25552 -2.29059 0
M  V30 1912 H 179.393 5.15321 -3.07514 0
M  V30 1913 H 180.463 3.73971 -3.08665 0
M  V30 1914 N 181.806 0.884767 1.30421 0
M  V30 1915 C 183.055 0.499164 1.95426 0
M  V30 1916 C 183.368 -0.95645 1.70621 0
M  V30 1917 O 184.574 -1.44889 2.29607 0
M  V30 1918 C 183.03 0.84177 3.49917 0
M  V30 1919 C 182.638 2.31514 3.83543 0
M  V30 1920 C 184.382 0.525355 4.21237 0
M  V30 1921 C 182.289 2.59939 5.31212 0
M  V30 1922 H 181.219 0.182944 0.73147 0
M  V30 1923 H 183.87 1.07971 1.48373 0
M  V30 1924 H 182.252 0.190311 3.95542 0
M  V30 1925 H 183.426 3.0109 3.48829 0
M  V30 1926 H 181.741 2.59907 3.25326 0
M  V30 1927 H 184.338 0.714762 5.29901 0
M  V30 1928 H 184.681 -0.535222 4.12845 0
M  V30 1929 H 185.214 1.134 3.81294 0
M  V30 1930 H 181.953 3.64736 5.44654 0
M  V30 1931 H 181.473 1.94972 5.67227 0
M  V30 1932 H 183.152 2.45429 5.98643 0
M  V30 1933 N 183.284 -1.43765 0.645699 0
M  V30 1934 C 184.194 -2.34544 -0.0512957 0
M  V30 1935 C 185.21 -1.53455 -0.82022 0
M  V30 1936 O 186.386 -1.86133 -0.769176 0
M  V30 1937 C 183.451 -3.31636 -1.01087 0
M  V30 1938 C 182.512 -4.2863 -0.239712 0
M  V30 1939 C 181.745 -5.21084 -1.15358 0
M  V30 1940 O 181.968 -5.1779 -2.39269 0
M  V30 1941 O 180.902 -5.98593 -0.630038 0
M  V30 1942 H 184.728 -2.95624 0.695718 0
M  V30 1943 H 182.313 -1.43781 0.405882 0
M  V30 1944 H 184.195 -3.9136 -1.56254 0
M  V30 1945 H 182.87 -2.73069 -1.73824 0
M  V30 1946 H 181.777 -3.72408 0.355356 0
M  V30 1947 H 183.11 -4.90157 0.447936 0
M  V30 1948 N 184.763 -0.387143 -1.52771 0
M  V30 1949 C 185.693 0.440551 -2.29306 0
M  V30 1950 C 186.674 1.06535 -1.32606 0
M  V30 1951 O 187.859 1.07853 -1.61497 0
M  V30 1952 C 184.989 1.56919 -3.09829 0
M  V30 1953 C 183.943 1.07054 -4.14395 0
M  V30 1954 C 183.269 2.29109 -4.83129 0
M  V30 1955 C 184.569 0.140015 -5.22112 0
M  V30 1956 H 186.263 -0.198026 -2.98744 0
M  V30 1957 H 183.809 -0.09668 -1.43675 0
M  V30 1958 H 185.762 2.15503 -3.62128 0
M  V30 1959 H 184.486 2.23532 -2.3812 0
M  V30 1960 H 183.145 0.507247 -3.63074 0
M  V30 1961 H 182.793 2.94227 -4.0797 0
M  V30 1962 H 182.493 1.96406 -5.53804 0
M  V30 1963 H 184.017 2.88339 -5.38231 0
M  V30 1964 H 185.431 0.633978 -5.69784 0
M  V30 1965 H 183.828 -0.0971485 -6.00021 0
M  V30 1966 H 184.898 -0.811711 -4.78058 0
M  V30 1967 N 186.241 1.57166 -0.116904 0
M  V30 1968 C 187.469 1.99473 0.549383 0
M  V30 1969 C 187.884 0.996541 1.60357 0
M  V30 1970 O 187.241 -0.0108731 1.82497 0
M  V30 1971 C 187.292 3.41788 1.17741 0
M  V30 1972 O 187.013 4.37788 0.165362 0
M  V30 1973 C 188.514 3.99216 1.92722 0
M  V30 1974 H 185.734 0.655009 0.145616 0
M  V30 1975 H 188.278 2.03494 -0.202625 0
M  V30 1976 H 186.433 3.38713 1.88021 0
M  V30 1977 H 186.847 5.20806 0.621403 0
M  V30 1978 H 188.321 5.00882 2.31995 0
M  V30 1979 H 188.798 3.3824 2.80161 0
M  V30 1980 H 189.404 4.0583 1.27209 0
M  V30 1981 N 187.719 -0.156864 1.56817 0
M  V30 1982 C 188.667 -1.21319 1.98455 0
M  V30 1983 C 189.661 -1.45025 0.875444 0
M  V30 1984 O 190.867 -1.45435 1.0606 0
M  V30 1985 H 187.242 -0.408142 0.631605 0
M  V30 1986 H 189.213 -0.835244 2.86472 0
M  V30 1987 C 187.962 -2.54148 2.37285 0
M  V30 1988 H 187.285 -2.36733 3.22176 0
M  V30 1989 H 188.725 -3.26712 2.70251 0
M  V30 1990 C 187.184 -3.13967 1.22173 0
M  V30 1991 O 187.714 -3.98357 0.517149 0
M  V30 1992 N 185.92 -2.7327 0.988536 0
M  V30 1993 H 185.467 -2.04744 1.56326 0
M  V30 1994 H 185.425 -3.13628 0.220209 0
M  V30 1995 N 189.197 -1.51736 -0.425897 0
M  V30 1996 C 190.425 -1.68794 -1.1965 0
M  V30 1997 C 190.84 -0.390164 -1.84725 0
M  V30 1998 O 190.197 0.632376 -1.71194 0
M  V30 1999 C 190.248 -2.81174 -2.27208 0
M  V30 2000 O 189.969 -4.05925 -1.64793 0
M  V30 2001 C 191.47 -3.09599 -3.17275 0
M  V30 2002 H 188.69 -0.566128 -0.360194 0
M  V30 2003 H 191.234 -1.98211 -0.503249 0
M  V30 2004 H 189.389 -2.54324 -2.9223 0
M  V30 2005 H 189.803 -4.68423 -2.35967 0
M  V30 2006 H 191.277 -3.91786 -3.88854 0
M  V30 2007 H 191.754 -2.22468 -3.78688 0
M  V30 2008 H 192.36 -3.38151 -2.57941 0
M  V30 2009 N 190.675 0.682077 -1.42076 0
M  V30 2010 C 191.605 1.80796 -1.47767 0
M  V30 2011 C 192.586 1.6677 -0.334954 0
M  V30 2012 O 193.771 1.863 -0.548264 0
M  V30 2013 C 190.901 3.19038 -1.37229 0
M  V30 2014 C 189.855 3.47789 -2.49453 0
M  V30 2015 C 189.181 4.8553 -2.23975 0
M  V30 2016 C 190.481 3.45411 -3.91776 0
M  V30 2017 H 192.175 1.7629 -2.41997 0
M  V30 2018 H 189.721 0.846721 -1.16476 0
M  V30 2019 H 191.674 3.97528 -1.39821 0
M  V30 2020 H 190.398 3.24204 -0.394907 0
M  V30 2021 H 189.057 2.71657 -2.46166 0
M  V30 2022 H 188.705 4.87337 -1.24547 0
M  V30 2023 H 188.405 5.0573 -2.99184 0
M  V30 2024 H 189.929 5.66312 -2.28304 0
M  V30 2025 H 191.343 4.13882 -3.96705 0
M  V30 2026 H 189.74 3.77145 -4.66778 0
M  V30 2027 H 190.81 2.44122 -4.18966 0
M  V30 2028 N 192.153 1.28127 0.917671 0
M  V30 2029 C 193.1 1.11717 2.0196 0
M  V30 2030 C 194.07 0.0153929 1.66093 0
M  V30 2031 O 195.255 0.179596 1.89953 0
M  V30 2032 C 192.395 0.780927 3.36148 0
M  V30 2033 C 191.508 1.96135 3.84909 0
M  V30 2034 C 190.643 1.56609 5.0759 0
M  V30 2035 C 189.682 2.71339 5.48673 0
M  V30 2036 N 188.819 2.32332 6.62545 0
M  V30 2037 H 193.659 2.06003 2.15329 0
M  V30 2038 H 191.196 1.02535 1.05475 0
M  V30 2039 H 193.154 0.56675 4.13333 0
M  V30 2040 H 191.784 -0.124998 3.22558 0
M  V30 2041 H 190.836 2.28777 3.03916 0
M  V30 2042 H 192.148 2.82165 4.1132 0
M  V30 2043 H 191.302 1.31374 5.92305 0
M  V30 2044 H 190.041 0.677014 4.82978 0
M  V30 2045 H 189.046 2.97276 4.62501 0
M  V30 2046 H 190.271 3.60882 5.75274 0
M  V30 2047 H 188.217 1.45889 6.39572 0
M  V30 2048 H 188.134 3.11899 6.88662 0
M  V30 2049 H 189.402 2.10371 7.50576 0
M  V30 2050 N 193.631 -1.12557 1.10312 0
M  V30 2051 C 195.042 -1.65574 0.862678 0
M  V30 2052 C 195.393 -1.86566 -0.607256 0
M  V30 2053 O 194.518 -1.59121 -1.46662 0
M  V30 2054 C 195.113 -3.00776 1.55947 0
M  V30 2055 C 193.672 -3.50748 1.36576 0
M  V30 2056 C 192.819 -2.25797 1.60968 0
M  V30 2057 H 195.77 -0.963552 1.26101 0
M  V30 2058 H 195.791 -3.67185 0.997753 0
M  V30 2059 H 195.303 -2.85465 2.62928 0
M  V30 2060 H 193.404 -3.71245 0.317531 0
M  V30 2061 H 193.517 -4.30289 2.10686 0
M  V30 2062 H 191.881 -2.32841 1.03234 0
M  V30 2063 H 192.664 -2.13043 2.69198 0
M  V30 2064 N 195.109 -0.891671 -1.2995 0
M  V30 2065 C 196.039 -0.379797 -2.30391 0
M  V30 2066 C 197.02 0.540919 -1.6127 0
M  V30 2067 O 198.205 0.453352 -1.88834 0
M  V30 2068 C 195.335 0.400654 -3.44981 0
M  V30 2069 C 194.289 -0.428905 -4.25846 0
M  V30 2070 C 193.615 0.478557 -5.32554 0
M  V30 2071 C 194.915 -1.67458 -4.94727 0
M  V30 2072 H 196.609 -1.21914 -2.73454 0
M  V30 2073 H 194.155 -0.587675 -1.31462 0
M  V30 2074 H 196.108 0.769434 -4.14316 0
M  V30 2075 H 194.832 1.27371 -3.0074 0
M  V30 2076 H 193.491 -0.779911 -3.58208 0
M  V30 2077 H 193.139 1.34951 -4.84559 0
M  V30 2078 H 192.839 -0.0727433 -5.87555 0
M  V30 2079 H 194.363 0.843705 -6.04743 0
M  V30 2080 H 195.777 -1.376 -5.56542 0
M  V30 2081 H 194.174 -2.16659 -5.59624 0
M  V30 2082 H 195.244 -2.41518 -4.20473 0
M  V30 2083 N 196.587 1.43421 -0.653314 0
M  V30 2084 C 197.517 2.33487 0.0246656 0
M  V30 2085 C 198.498 1.49475 0.811863 0
M  V30 2086 O 199.683 1.78139 0.773322 0
M  V30 2087 C 196.813 3.32841 0.99166 0
M  V30 2088 C 195.767 4.26842 0.314568 0
M  V30 2089 C 195.093 5.16236 1.39302 0
M  V30 2090 C 196.393 5.16243 -0.793095 0
M  V30 2091 H 198.087 2.90427 -0.727481 0
M  V30 2092 H 195.633 1.39649 -0.351287 0
M  V30 2093 H 197.586 3.94747 1.47487 0
M  V30 2094 H 196.31 2.74158 1.77497 0
M  V30 2095 H 194.969 3.663 -0.148199 0
M  V30 2096 H 194.617 4.53891 2.16776 0
M  V30 2097 H 194.317 5.79948 0.945223 0
M  V30 2098 H 195.841 5.81015 1.87759 0
M  V30 2099 H 197.255 5.71958 -0.392039 0
M  V30 2100 H 195.652 5.88676 -1.16536 0
M  V30 2101 H 196.722 4.55927 -1.65103 0
M  V30 2102 N 198.065 0.39524 1.52563 0
M  V30 2103 C 199.013 -0.451859 2.28169 0
M  V30 2104 C 200.007 -1.05792 1.32304 0
M  V30 2105 O 201.213 -0.997718 1.49818 0
M  V30 2106 H 197.588 -0.164481 0.733792 0
M  V30 2107 H 199.559 0.207199 2.9768 0
M  V30 2108 C 198.308 -1.56385 3.10546 0
M  V30 2109 H 197.631 -1.10682 3.84174 0
M  V30 2110 H 199.071 -2.13067 3.66577 0
M  V30 2111 C 197.53 -2.52328 2.23231 0
M  V30 2112 O 198.06 -3.5588 1.86312 0
M  V30 2113 N 196.266 -2.22209 1.87274 0
M  V30 2114 H 195.813 -1.38033 2.17496 0
M  V30 2115 H 195.771 -2.86652 1.29143 0
M  V30 2116 N 199.544 -1.57102 0.125237 0
M  V30 2117 C 200.492 -2.16905 -0.839927 0
M  V30 2118 C 201.486 -1.11998 -1.27094 0
M  V30 2119 O 202.692 -1.3029 -1.24195 0
M  V30 2120 H 199.067 -0.694252 -0.288995 0
M  V30 2121 H 201.038 -2.96774 -0.311115 0
M  V30 2122 C 199.787 -2.78795 -2.07771 0
M  V30 2123 H 199.11 -3.59221 -1.755 0
M  V30 2124 H 200.55 -3.2417 -2.73295 0
M  V30 2125 C 199.009 -1.76193 -2.87155 0
M  V30 2126 O 199.539 -1.21909 -3.82755 0
M  V30 2127 N 197.745 -1.45991 -2.51267 0
M  V30 2128 H 197.292 -1.90325 -1.73592 0
M  V30 2129 H 197.25 -0.775844 -3.04677 0
M  V30 2130 N 201.022 0.148545 -1.56898 0
M  V30 2131 C 202.27 0.859717 -1.82902 0
M  V30 2132 C 202.591 1.81775 -0.70588 0
M  V30 2133 O 201.861 1.93994 0.272586 0
M  V30 2134 H 200.441 0.320469 -0.674766 0
M  V30 2135 H 203.103 0.142918 -1.94375 0
M  V30 2136 H 202.199 1.4229 -2.77777 0
M  V30 2137 N 202.5 1.5196 0.417844 0
M  V30 2138 C 203.463 1.74065 1.49111 0
M  V30 2139 C 204.463 0.610537 1.48758 0
M  V30 2140 O 205.653 0.87832 1.50437 0
M  V30 2141 C 202.785 1.81502 2.88565 0
M  V30 2142 H 203.978 2.69869 1.30807 0
M  V30 2143 H 201.531 1.42244 0.647785 0
M  V30 2144 H 202.266 0.875813 3.1225 0
M  V30 2145 H 202.051 2.63651 2.90225 0
M  V30 2146 H 203.541 2.00376 3.66387 0
M  V30 2147 N 203.978 -0.674533 1.42435 0
M  V30 2148 C 205.203 -1.46784 1.46524 0
M  V30 2149 C 205.628 -1.87938 0.078066 0
M  V30 2150 O 204.986 -1.56014 -0.92354 0
M  V30 2151 C 205.034 -2.69307 2.39805 0
M  V30 2152 O 204.138 -3.67587 1.86959 0
M  V30 2153 H 203.479 -0.440959 0.496439 0
M  V30 2154 H 206.009 -0.827326 1.87127 0
M  V30 2155 H 206.019 -3.17374 2.56393 0
M  V30 2156 H 204.694 -2.38692 3.40586 0
M  V30 2157 H 203.271 -3.2662 1.79927 0
M  V30 2158 N 205.456 -1.28612 -0.910864 0
M  V30 2159 C 206.702 -1.16106 -1.66274 0
M  V30 2160 C 207.035 0.289113 -1.92036 0
M  V30 2161 O 206.31 1.21 -1.52281 0
M  V30 2162 C 206.593 -1.96309 -3.01885 0
M  V30 2163 C 206.446 -3.49405 -2.8326 0
M  V30 2164 C 207.765 -1.78076 -4.02463 0
M  V30 2165 H 204.884 -0.423152 -0.603417 0
M  V30 2166 H 207.526 -1.57961 -1.05586 0
M  V30 2167 H 205.676 -1.60742 -3.53687 0
M  V30 2168 H 207.348 -3.94894 -2.38446 0
M  V30 2169 H 205.591 -3.74893 -2.18261 0
M  V30 2170 H 206.262 -4.00784 -3.79574 0
M  V30 2171 H 208.738 -2.0912 -3.59733 0
M  V30 2172 H 207.614 -2.36561 -4.95308 0
M  V30 2173 H 207.875 -0.733008 -4.35981 0
M  V30 2174 N 206.934 1.1197 -1.10907 0
M  V30 2175 C 207.864 2.19928 -0.784473 0
M  V30 2176 C 208.845 1.6833 0.244726 0
M  V30 2177 O 210.03 1.93892 0.109418 0
M  V30 2178 C 207.16 3.46597 -0.220827 0
M  V30 2179 C 206.114 4.11376 -1.18127 0
M  V30 2180 C 205.44 5.32554 -0.478594 0
M  V30 2181 C 206.74 4.56945 -2.52979 0
M  V30 2182 H 208.434 2.47337 -1.68715 0
M  V30 2183 H 205.98 1.18879 -0.812642 0
M  V30 2184 H 207.933 4.21396 0.0184278 0
M  V30 2185 H 206.657 3.1863 0.717113 0
M  V30 2186 H 205.316 3.38564 -1.40606 0
M  V30 2187 H 204.964 5.00856 0.463976 0
M  V30 2188 H 204.664 5.76844 -1.11912 0
M  V30 2189 H 206.188 6.10096 -0.248 0
M  V30 2190 H 207.602 5.23093 -2.3462 0
M  V30 2191 H 205.999 5.1203 -3.12962 0
M  V30 2192 H 207.069 3.70676 -3.12614 0
M  V30 2193 N 208.412 0.89855 1.29475 0
M  V30 2194 C 209.64 0.539261 1.99749 0
M  V30 2195 C 210.055 -0.875716 1.67262 0
M  V30 2196 O 209.412 -1.57786 0.917049 0
M  V30 2197 C 209.463 0.72061 3.54245 0
M  V30 2198 O 209.184 2.07989 3.8558 0
M  V30 2199 C 210.685 0.366118 4.41786 0
M  V30 2200 H 207.905 0.207047 0.638258 0
M  V30 2201 H 210.449 1.20758 1.65039 0
M  V30 2202 H 208.604 0.0994862 3.87272 0
M  V30 2203 H 209.018 2.10841 4.80257 0
M  V30 2204 H 210.492 0.543848 5.49314 0
M  V30 2205 H 210.969 -0.696763 4.33638 0
M  V30 2206 H 211.575 0.964135 4.14228 0
M  V30 2207 N 209.89 -1.43072 0.660911 0
M  V30 2208 C 210.82 -2.33497 -0.0122829 0
M  V30 2209 C 211.801 -1.49903 -0.803925 0
M  V30 2210 O 212.986 -1.78546 -0.763864 0
M  V30 2211 C 210.116 -3.33363 -0.973994 0
M  V30 2212 C 209.07 -4.27003 -0.291928 0
M  V30 2213 C 208.396 -5.16967 -1.36562 0
M  V30 2214 C 209.696 -5.15816 0.820462 0
M  V30 2215 H 211.39 -2.90038 0.742873 0
M  V30 2216 H 208.936 -1.39461 0.358688 0
M  V30 2217 H 210.889 -3.95524 -1.45392 0
M  V30 2218 H 209.613 -2.75095 -1.7604 0
M  V30 2219 H 208.272 -3.66217 0.167623 0
M  V30 2220 H 207.92 -4.55034 -2.14366 0
M  V30 2221 H 207.62 -5.80441 -0.914454 0
M  V30 2222 H 209.144 -5.82003 -1.84675 0
M  V30 2223 H 210.558 -5.71742 0.422366 0
M  V30 2224 H 208.955 -5.8805 1.19656 0
M  V30 2225 H 210.025 -4.55045 1.67518 0
M  V30 2226 N 211.368 -0.403325 -1.52352 0
M  V30 2227 C 212.593 0.176499 -2.06648 0
M  V30 2228 C 213.018 1.38577 -1.27193 0
M  V30 2229 O 212.376 1.7879 -0.300637 0
M  V30 2230 C 212.424 0.511061 -3.5696 0
M  V30 2231 O 211.528 1.60294 -3.79973 0
M  V30 2232 H 210.869 0.0167337 -0.663789 0
M  V30 2233 H 213.399 -0.574848 -1.96359 0
M  V30 2234 H 213.409 0.771362 -4.00642 0
M  V30 2235 H 212.084 -0.37296 -4.14224 0
M  V30 2236 H 210.661 1.33526 -3.48174 0
M  V30 2237 N 212.846 1.57033 -0.133567 0
M  V30 2238 C 214.076 1.99754 0.527429 0
M  V30 2239 C 214.484 1.01245 1.59832 0
M  V30 2240 O 213.827 -0.000645496 1.837 0
M  V30 2241 C 213.889 3.38903 1.19939 0
M  V30 2242 C 213.553 4.56174 0.274709 0
M  V30 2243 C 214.55 5.17563 -0.492398 0
M  V30 2244 C 212.235 5.01972 0.18153 0
M  V30 2245 C 214.229 6.2315 -1.34027 0
M  V30 2246 C 211.916 6.07416 -0.669958 0
M  V30 2247 C 212.914 6.67874 -1.42947 0
M  V30 2248 O 212.602 7.71279 -2.2668 0
M  V30 2249 H 212.334 0.660702 0.142999 0
M  V30 2250 H 214.888 2.04207 -0.221099 0
M  V30 2251 H 213.118 3.31248 1.99528 0
M  V30 2252 H 214.807 3.65818 1.75875 0
M  V30 2253 H 215.573 4.83087 -0.430367 0
M  V30 2254 H 211.452 4.54652 0.762422 0
M  V30 2255 H 214.996 6.70268 -1.93357 0
M  V30 2256 H 210.893 6.41321 -0.73333 0
M  V30 2257 H 211.661 7.88441 -2.1978 0
M  V30 2258 N 214.325 -0.140222 1.56975 0
M  V30 2259 C 215.255 -1.17456 2.01808 0
M  V30 2260 C 216.236 -1.44415 0.898794 0
M  V30 2261 O 217.421 -1.5522 1.16707 0
M  V30 2262 C 214.551 -2.50607 2.40444 0
M  V30 2263 C 213.505 -2.38155 3.55621 0
M  V30 2264 C 212.831 -3.76078 3.80091 0
M  V30 2265 C 214.131 -1.85991 4.88062 0
M  V30 2266 H 215.825 -0.801743 2.88466 0
M  V30 2267 H 213.371 -0.38422 1.38779 0
M  V30 2268 H 215.324 -3.23197 2.7041 0
M  V30 2269 H 214.048 -2.89737 1.50732 0
M  V30 2270 H 212.707 -1.68016 3.25832 0
M  V30 2271 H 212.355 -4.12656 2.87618 0
M  V30 2272 H 212.055 -3.68606 4.57606 0
M  V30 2273 H 213.579 -4.50206 4.12488 0
M  V30 2274 H 214.993 -2.4838 5.16701 0
M  V30 2275 H 213.39 -1.89393 5.6943 0
M  V30 2276 H 214.46 -0.816023 4.77984 0
M  V30 2277 N 215.803 -1.52179 -0.40978 0
M  V30 2278 C 217.051 -1.65878 -1.15451 0
M  V30 2279 C 217.372 -0.390771 -1.91044 0
M  V30 2280 O 216.642 0.594323 -1.86667 0
M  V30 2281 H 215.222 -0.611405 -0.429177 0
M  V30 2282 H 217.884 -1.89219 -0.467134 0
M  V30 2283 H 216.98 -2.49954 -1.86894 0
M  V30 2284 N 217.281 0.66697 -1.42791 0
M  V30 2285 C 218.506 1.46004 -1.47301 0
M  V30 2286 C 218.931 1.87894 -0.0880317 0
M  V30 2287 O 218.289 1.56502 0.915253 0
M  V30 2288 C 218.337 2.68031 -2.41229 0
M  V30 2289 O 217.441 3.6659 -1.88906 0
M  V30 2290 H 216.782 0.43832 -0.49877 0
M  V30 2291 H 219.312 0.817391 -1.87563 0
M  V30 2292 H 219.322 3.1601 -2.58073 0
M  V30 2293 H 217.997 2.36883 -3.41847 0
M  V30 2294 H 216.574 3.25661 -1.81656 0
M  V30 2295 N 218.759 1.29093 0.90403 0
M  V30 2296 C 219.987 1.19689 1.68766 0
M  V30 2297 C 220.402 -0.243113 1.87228 0
M  V30 2298 O 219.759 -1.16326 1.40621 0
M  V30 2299 C 219.81 1.90144 3.07453 0
M  V30 2300 O 219.531 3.2852 2.89838 0
M  V30 2301 C 221.032 1.87162 4.01852 0
M  V30 2302 H 218.252 0.415035 0.527244 0
M  V30 2303 H 220.796 1.7039 1.13082 0
M  V30 2304 H 218.951 1.43289 3.59926 0
M  V30 2305 H 219.365 3.63944 3.77684 0
M  V30 2306 H 220.839 2.41032 4.96596 0
M  V30 2307 H 221.316 0.84617 4.30972 0
M  V30 2308 H 221.922 2.33741 3.5531 0
M  V30 2309 N 220.237 -1.11381 1.11499 0
M  V30 2310 C 221.184 -2.17439 0.773887 0
M  V30 2311 C 222.154 -1.64132 -0.254899 0
M  V30 2312 O 223.339 -1.90345 -0.13168 0
M  V30 2313 C 220.479 -3.44373 0.223917 0
M  V30 2314 C 219.592 -4.1168 1.30934 0
M  V30 2315 C 218.727 -5.263 0.71984 0
M  V30 2316 C 217.766 -5.85493 1.78507 0
M  V30 2317 N 216.903 -6.91507 1.21502 0
M  V30 2318 H 221.743 -2.45962 1.68246 0
M  V30 2319 H 219.28 -1.20744 0.840191 0
M  V30 2320 H 221.238 -4.17047 -0.112921 0
M  V30 2321 H 219.868 -3.16232 -0.647851 0
M  V30 2322 H 218.92 -3.37073 1.76312 0
M  V30 2323 H 220.232 -4.51729 2.11524 0
M  V30 2324 H 219.386 -6.05785 0.333094 0
M  V30 2325 H 218.125 -4.87559 -0.117377 0
M  V30 2326 H 217.13 -5.04686 2.18111 0
M  V30 2327 H 218.355 -6.26301 2.62533 0
M  V30 2328 H 216.301 -6.54783 0.399455 0
M  V30 2329 H 216.218 -7.30214 1.95763 0
M  V30 2330 H 217.486 -7.74795 0.855181 0
M  V30 2331 N 221.715 -0.905404 -1.28997 0
M  V30 2332 C 222.945 -0.549049 -1.99171 0
M  V30 2333 C 223.353 0.87203 -1.67906 0
M  V30 2334 O 222.696 1.58796 -0.923561 0
M  V30 2335 C 222.758 -0.668306 -3.53234 0
M  V30 2336 C 222.422 -2.0574 -4.08069 0
M  V30 2337 C 223.419 -3.0292 -4.22534 0
M  V30 2338 C 221.104 -2.36833 -4.42962 0
M  V30 2339 C 223.098 -4.29314 -4.71135 0
M  V30 2340 C 220.785 -3.63467 -4.91258 0
M  V30 2341 C 221.783 -4.59522 -5.053 0
M  V30 2342 O 221.471 -5.83907 -5.52546 0
M  V30 2343 H 221.203 -0.208784 -0.64295 0
M  V30 2344 H 223.757 -1.21836 -1.65363 0
M  V30 2345 H 221.987 0.0580547 -3.86656 0
M  V30 2346 H 223.676 -0.320273 -4.04634 0
M  V30 2347 H 224.442 -2.80216 -3.95859 0
M  V30 2348 H 220.321 -1.62824 -4.31288 0
M  V30 2349 H 223.865 -5.04293 -4.8201 0
M  V30 2350 H 219.762 -3.86 -5.17372 0
M  V30 2351 H 220.53 -5.86578 -5.70849 0
M  V30 2352 N 223.193 1.4272 -0.668489 0
M  V30 2353 C 224.126 2.28111 0.0637898 0
M  V30 2354 C 225.104 1.40705 0.814912 0
M  V30 2355 O 226.288 1.70146 0.81134 0
M  V30 2356 C 223.415 3.20429 1.0974 0
M  V30 2357 C 222.461 4.24197 0.442579 0
M  V30 2358 S 223.294 5.29563 -0.795173 0
M  V30 2359 C 224.45 6.25449 0.237516 0
M  V30 2360 H 224.683 2.8987 -0.660521 0
M  V30 2361 H 222.216 1.47456 -0.457821 0
M  V30 2362 H 224.174 3.74158 1.68868 0
M  V30 2363 H 222.835 2.57818 1.79411 0
M  V30 2364 H 222.028 4.88954 1.22227 0
M  V30 2365 H 221.63 3.73925 -0.0749554 0
M  V30 2366 H 223.922 6.68524 1.09915 0
M  V30 2367 H 224.865 7.07104 -0.375421 0
M  V30 2368 H 225.273 5.61511 0.580167 0
M  V30 2369 N 224.671 0.411399 1.52136 0
M  V30 2370 C 225.634 -0.401089 2.25663 0
M  V30 2371 C 226.634 -0.971732 1.28117 0
M  V30 2372 O 227.824 -0.850254 1.52041 0
M  V30 2373 C 224.956 -1.56483 3.02863 0
M  V30 2374 H 226.149 0.24295 2.98914 0
M  V30 2375 H 223.702 0.163968 1.55438 0
M  V30 2376 H 224.437 -2.24567 2.33967 0
M  V30 2377 H 224.222 -1.16211 3.74483 0
M  V30 2378 H 225.712 -2.13951 3.58629 0
M  V30 2379 N 226.149 -1.5696 0.141893 0
M  V30 2380 C 227.099 -2.13074 -0.811383 0
M  V30 2381 C 228.083 -1.05726 -1.21288 0
M  V30 2382 O 229.275 -1.31914 -1.18015 0
M  V30 2383 C 226.404 -2.75186 -2.0525 0
M  V30 2384 C 225.49 -3.8965 -1.67432 0
M  V30 2385 N 225.881 -4.95733 -1.0041 0
M  V30 2386 C 224.179 -4.00262 -1.96739 0
M  V30 2387 C 224.88 -5.75858 -0.822345 0
M  V30 2388 N 223.856 -5.26452 -1.3546 0
M  V30 2389 H 227.658 -2.92465 -0.290031 0
M  V30 2390 H 225.172 -1.6229 -0.0598218 0
M  V30 2391 H 227.169 -3.13745 -2.74535 0
M  V30 2392 H 225.829 -1.97266 -2.57907 0
M  V30 2393 H 226.84 -5.13607 -0.665441 0
M  V30 2394 H 223.517 -3.33412 -2.51282 0
M  V30 2395 H 224.907 -6.71254 -0.294496 0
M  V30 2396 N 227.627 0.131896 -1.57047 0
M  V30 2397 C 228.857 0.855219 -1.88068 0
M  V30 2398 C 229.265 1.74557 -0.729817 0
M  V30 2399 O 228.608 1.81083 0.308962 0
M  V30 2400 C 228.67 1.75119 -3.13964 0
M  V30 2401 C 228.334 1.03646 -4.45091 0
M  V30 2402 C 229.331 0.383276 -5.18485 0
M  V30 2403 C 227.016 1.02148 -4.91804 0
M  V30 2404 C 229.01 -0.275347 -6.36805 0
M  V30 2405 C 226.697 0.359047 -6.10044 0
M  V30 2406 C 227.695 -0.288222 -6.82392 0
M  V30 2407 O 227.383 -0.94011 -7.98384 0
M  V30 2408 H 227.115 0.251864 -0.627328 0
M  V30 2409 H 229.669 0.124782 -2.05021 0
M  V30 2410 H 227.899 2.52295 -2.9306 0
M  V30 2411 H 229.588 2.3478 -3.31109 0
M  V30 2412 H 230.354 0.386562 -4.83457 0
M  V30 2413 H 226.233 1.5147 -4.35405 0
M  V30 2414 H 229.777 -0.781148 -6.93213 0
M  V30 2415 H 225.674 0.35348 -6.44531 0
M  V30 2416 H 226.442 -0.84329 -8.14144 0
M  V30 2417 N 229.106 1.52395 0.401703 0
M  V30 2418 C 230.054 1.7689 1.51039 0
M  V30 2419 C 231.048 0.636298 1.56996 0
M  V30 2420 O 232.254 0.818507 1.60314 0
M  V30 2421 H 228.629 0.559502 0.502456 0
M  V30 2422 H 230.6 2.69757 1.27568 0
M  V30 2423 C 229.349 1.94331 2.88324 0
M  V30 2424 H 228.672 2.80905 2.84486 0
M  V30 2425 H 230.112 2.15466 3.65172 0
M  V30 2426 C 228.571 0.712396 3.29282 0
M  V30 2427 O 229.101 -0.116218 4.01532 0
M  V30 2428 N 227.307 0.546154 2.85422 0
M  V30 2429 H 226.854 1.22156 2.26794 0
M  V30 2430 H 226.812 -0.276113 3.13185 0
M  V30 2431 N 230.584 -0.659388 1.43143 0
M  V30 2432 C 231.83 -1.42145 1.44647 0
M  V30 2433 C 232.163 -1.9408 0.0681907 0
M  V30 2434 O 231.438 -1.71899 -0.910007 0
M  V30 2435 C 231.721 -2.60735 2.48373 0
M  V30 2436 C 231.574 -2.14332 3.95451 0
M  V30 2437 C 232.893 -3.62951 2.48906 0
M  V30 2438 H 230.012 -0.51552 0.526696 0
M  V30 2439 H 232.654 -0.748069 1.74654 0
M  V30 2440 H 230.804 -3.18184 2.22916 0
M  V30 2441 H 232.476 -1.61932 4.31944 0
M  V30 2442 H 230.719 -1.4576 4.08578 0
M  V30 2443 H 231.39 -2.99583 4.63631 0
M  V30 2444 H 233.866 -3.1525 2.71582 0
M  V30 2445 H 232.742 -4.43487 3.23435 0
M  V30 2446 H 233.003 -4.15126 1.52061 0
M  V30 2447 N 232.062 -1.29571 -0.897171 0
M  V30 2448 C 232.995 -1.0924 -2.00354 0
M  V30 2449 C 233.973 -0.00354011 -1.626 0
M  V30 2450 O 235.157 -0.15473 -1.87864 0
M  V30 2451 C 232.284 -0.66352 -3.32137 0
M  V30 2452 C 231.33 -1.75146 -3.88878 0
M  V30 2453 S 232.163 -3.35124 -4.17674 0
M  V30 2454 C 233.319 -2.9411 -5.52494 0
M  V30 2455 H 233.552 -2.02907 -2.17292 0
M  V30 2456 H 231.085 -1.13746 -1.04408 0
M  V30 2457 H 233.043 -0.422791 -4.08317 0
M  V30 2458 H 231.704 0.253588 -3.13075 0
M  V30 2459 H 230.897 -1.40337 -4.84068 0
M  V30 2460 H 230.499 -1.94584 -3.19395 0
M  V30 2461 H 232.791 -2.41312 -6.33068 0
M  V30 2462 H 233.734 -3.88161 -5.9223 0
M  V30 2463 H 234.142 -2.32332 -5.14473 0
M  V30 2464 N 233.54 1.10788 -1.12088 0
M  V30 2465 C 234.788 1.8231 -0.872205 0
M  V30 2466 C 235.109 1.85419 0.603709 0
M  V30 2467 O 234.379 1.32963 1.43867 0
M  V30 2468 H 232.959 0.675137 -0.319686 0
M  V30 2469 H 235.621 1.34068 -1.41463 0
M  V30 2470 H 234.717 2.85955 -1.25045 0
M  V30 2471 N 235.018 0.912232 1.28515 0
M  V30 2472 C 235.948 0.416403 2.29757 0
M  V30 2473 C 236.929 -0.515194 1.6211 0
M  V30 2474 O 238.114 -0.423253 1.89532 0
M  V30 2475 C 235.244 -0.34572 3.45575 0
M  V30 2476 C 234.198 0.496599 4.25109 0
M  V30 2477 C 233.524 -0.393771 5.33248 0
M  V30 2478 C 234.824 1.75307 4.92001 0
M  V30 2479 H 236.518 1.26249 2.7148 0
M  V30 2480 H 234.064 0.608515 1.30511 0
M  V30 2481 H 236.017 -0.703422 4.15488 0
M  V30 2482 H 234.741 -1.2257 3.02728 0
M  V30 2483 H 233.4 0.8368 3.56922 0
M  V30 2484 H 233.048 -1.27225 4.86644 0
M  V30 2485 H 232.748 0.166209 5.87365 0
M  V30 2486 H 234.272 -0.747389 6.06009 0
M  V30 2487 H 235.686 1.46437 5.54283 0
M  V30 2488 H 234.083 2.25534 5.56106 0
M  V30 2489 H 235.153 2.48176 4.16577 0
M  V30 2490 N 236.496 -1.42363 0.676048 0
M  V30 2491 C 237.459 -2.29199 0.00766941 0
M  V30 2492 C 238.459 -1.43389 -0.727745 0
M  V30 2493 O 239.649 -1.64764 -0.56556 0
M  V30 2494 C 236.781 -3.2591 -0.999785 0
M  V30 2495 H 237.974 -2.89794 0.771988 0
M  V30 2496 H 235.527 -1.50024 0.438468 0
M  V30 2497 H 236.262 -2.70256 -1.79255 0
M  V30 2498 H 236.047 -3.89202 -0.475829 0
M  V30 2499 H 237.537 -3.91028 -1.46583 0
M  V30 2500 N 237.974 -0.419461 -1.51915 0
M  V30 2501 C 238.921 0.400927 -2.27291 0
M  V30 2502 C 239.891 1.03224 -1.30131 0
M  V30 2503 O 241.076 1.05455 -1.59009 0
M  V30 2504 C 238.216 1.50603 -3.10504 0
M  V30 2505 C 237.329 0.89462 -4.22635 0
M  V30 2506 C 236.464 1.97328 -4.93189 0
M  V30 2507 C 235.503 1.33935 -5.97267 0
M  V30 2508 N 234.64 2.3586 -6.61298 0
M  V30 2509 H 239.48 -0.248251 -2.96964 0
M  V30 2510 H 237.017 -0.134266 -1.46486 0
M  V30 2511 H 238.975 2.15783 -3.57062 0
M  V30 2512 H 237.605 2.12509 -2.42981 0
M  V30 2513 H 236.657 0.131583 -3.80172 0
M  V30 2514 H 237.969 0.391641 -4.9726 0
M  V30 2515 H 237.123 2.70211 -5.43204 0
M  V30 2516 H 235.862 2.50994 -4.18155 0
M  V30 2517 H 234.867 0.595896 -5.46561 0
M  V30 2518 H 236.092 0.810252 -6.74249 0
M  V30 2519 H 234.038 2.88639 -5.89087 0
M  V30 2520 H 233.955 1.90403 -7.3163 0
M  V30 2521 H 235.223 3.08282 -7.15949 0
M  V30 2522 N 239.452 1.56882 -0.150215 0
M  V30 2523 C 240.415 2.1573 0.774157 0
M  V30 2524 C 241.415 1.0999 1.17298 0
M  V30 2525 O 242.605 1.35613 1.09338 0
M  V30 2526 C 239.737 2.72302 2.05096 0
M  V30 2527 H 240.93 2.98752 0.262201 0
M  V30 2528 H 238.483 1.55985 0.099248 0
M  V30 2529 H 239.218 1.92956 2.6065 0
M  V30 2530 H 239.003 3.49665 1.77416 0
M  V30 2531 H 240.493 3.17632 2.71109 0
M  V30 2532 N 240.93 -0.123565 1.57115 0
M  V30 2533 C 241.893 -1.13583 1.99076 0
M  V30 2534 C 242.893 -1.34564 0.880296 0
M  V30 2535 O 244.083 -1.31158 1.14644 0
M  V30 2536 C 241.215 -2.49128 2.32698 0
M  V30 2537 H 242.408 -0.775287 2.89706 0
M  V30 2538 H 239.961 -0.36771 1.51913 0
M  V30 2539 H 240.696 -2.90111 1.44934 0
M  V30 2540 H 240.481 -2.35255 3.13684 0
M  V30 2541 H 241.971 -3.2199 2.65918 0
M  V30 2542 N 242.408 -1.52605 -0.393616 0
M  V30 2543 C 243.338 -1.80022 -1.48709 0
M  V30 2544 C 244.319 -0.651995 -1.57108 0
M  V30 2545 O 245.504 -0.89913 -1.72132 0
M  V30 2546 C 242.634 -1.96492 -2.86371 0
M  V30 2547 C 241.588 -3.12161 -2.92813 0
M  V30 2548 C 240.914 -3.13877 -4.3288 0
M  V30 2549 C 242.214 -4.51322 -2.6288 0
M  V30 2550 H 243.908 -2.71589 -1.26015 0
M  V30 2551 H 241.454 -1.30684 -0.604778 0
M  V30 2552 H 243.407 -2.14255 -3.62867 0
M  V30 2553 H 242.131 -1.01611 -3.10391 0
M  V30 2554 H 240.79 -2.94173 -2.18764 0
M  V30 2555 H 240.438 -2.16687 -4.53933 0
M  V30 2556 H 240.138 -3.91576 -4.38112 0
M  V30 2557 H 241.662 -3.33789 -5.1129 0
M  V30 2558 H 243.076 -4.69435 -3.29096 0
M  V30 2559 H 241.473 -5.31053 -2.79468 0
M  V30 2560 H 242.543 -4.58353 -1.58242 0
M  V30 2561 N 243.887 0.651787 -1.4349 0
M  V30 2562 C 244.797 1.79368 -1.5121 0
M  V30 2563 C 245.813 1.69361 -0.399093 0
M  V30 2564 O 246.989 1.90505 -0.653431 0
M  V30 2565 C 244.054 3.15653 -1.43401 0
M  V30 2566 C 243.115 3.37446 -2.65384 0
M  V30 2567 C 242.348 4.67229 -2.57939 0
M  V30 2568 O 242.571 5.46676 -1.62792 0
M  V30 2569 O 241.505 4.90773 -3.48462 0
M  V30 2570 H 245.331 1.7581 -2.47638 0
M  V30 2571 H 242.916 0.810447 -1.25507 0
M  V30 2572 H 244.798 3.96935 -1.41494 0
M  V30 2573 H 243.473 3.19798 -0.501085 0
M  V30 2574 H 242.38 2.55923 -2.72863 0
M  V30 2575 H 243.713 3.38148 -3.57654 0
M  V30 2576 N 245.365 1.30045 0.890287 0
M  V30 2577 C 246.59 1.21598 1.68014 0
M  V30 2578 C 247.015 -0.218678 1.86825 0
M  V30 2579 O 246.373 -1.15756 1.39536 0
M  V30 2580 C 246.421 1.94434 3.03691 0
M  V30 2581 O 245.525 1.2678 3.92429 0
M  V30 2582 H 244.866 0.420856 0.513592 0
M  V30 2583 H 247.396 1.71775 1.11151 0
M  V30 2584 H 247.406 2.03251 3.5377 0
M  V30 2585 H 246.081 2.98777 2.89318 0
M  V30 2586 H 244.658 1.26282 3.50866 0
M  V30 2587 N 246.843 -1.10192 1.12674 0
M  V30 2588 C 247.806 -2.14786 0.799979 0
M  V30 2589 C 248.806 -1.59711 -0.18685 0
M  V30 2590 O 249.996 -1.74156 0.0392558 0
M  V30 2591 C 247.128 -3.40374 0.189228 0
M  V30 2592 H 248.321 -2.45203 1.72671 0
M  V30 2593 H 245.874 -1.25597 0.930326 0
M  V30 2594 H 246.609 -3.15577 -0.747107 0
M  V30 2595 H 246.394 -3.81637 0.899766 0
M  V30 2596 H 247.884 -4.17594 -0.0228143 0
M  V30 2597 N 248.321 -0.919034 -1.28029 0
M  V30 2598 C 249.567 -0.555757 -1.95036 0
M  V30 2599 C 249.9 0.899198 -1.72128 0
M  V30 2600 O 249.175 1.64023 -1.04531 0
M  V30 2601 C 249.458 -0.872024 -3.49382 0
M  V30 2602 C 249.311 -2.3801 -3.81669 0
M  V30 2603 C 250.63 -0.37185 -4.38526 0
M  V30 2604 H 247.749 -0.203386 -0.708381 0
M  V30 2605 H 250.391 -1.14924 -1.51303 0
M  V30 2606 H 248.541 -0.366946 -3.86763 0
M  V30 2607 H 250.213 -2.9562 -3.54128 0
M  V30 2608 H 248.456 -2.83289 -3.28526 0
M  V30 2609 H 249.127 -2.55192 -4.8947 0
M  V30 2610 H 251.603 -0.804602 -4.08247 0
M  V30 2611 H 250.479 -0.622173 -5.45362 0
M  V30 2612 H 250.74 0.727934 -4.36066 0
M  V30 2613 N 249.799 1.42003 -0.683588 0
M  V30 2614 C 251.215 1.55625 -0.353976 0
M  V30 2615 C 251.415 1.66151 1.14 0
M  V30 2616 O 250.471 1.63329 1.92561 0
M  V30 2617 C 251.784 2.80171 -1.092 0
M  V30 2618 C 253.332 2.93954 -1.07518 0
M  V30 2619 C 253.807 4.21372 -1.79471 0
M  V30 2620 N 255.298 4.28303 -1.76381 0
M  V30 2621 C 256.033 5.25729 -2.28904 0
M  V30 2622 N 255.529 6.29254 -2.89846 0
M  V30 2623 N 257.322 5.17586 -2.19228 0
M  V30 2624 H 249.473 1.33415 -1.6527 0
M  V30 2625 H 251.736 0.64282 -0.696769 0
M  V30 2626 H 251.442 2.78561 -2.14701 0
M  V30 2627 H 251.316 3.7133 -0.662862 0
M  V30 2628 H 253.703 2.95086 -0.028475 0
M  V30 2629 H 253.784 2.04002 -1.54328 0
M  V30 2630 H 253.428 4.21001 -2.84114 0
M  V30 2631 H 253.358 5.10275 -1.30104 0
M  V30 2632 H 255.849 3.54119 -1.31939 0
M  V30 2633 H 256.162 6.99964 -3.27522 0
M  V30 2634 H 254.507 6.29791 -2.93919 0
M  V30 2635 H 257.698 4.35631 -1.71299 0
M  V30 2636 H 257.871 5.93348 -2.60466 0
M  V30 2637 N 251.277 0.427512 1.51691 0
M  V30 2638 C 252.507 -0.140986 2.06118 0
M  V30 2639 C 252.915 -1.37854 1.29588 0
M  V30 2640 O 252.258 -1.80411 0.346036 0
M  V30 2641 C 252.32 -0.538276 3.55447 0
M  V30 2642 C 251.984 0.591095 4.53161 0
M  V30 2643 C 252.981 1.46027 4.98971 0
M  V30 2644 C 250.666 0.769028 4.96378 0
M  V30 2645 C 252.66 2.49216 5.8666 0
M  V30 2646 C 250.347 1.80421 5.83859 0
M  V30 2647 C 251.345 2.66417 6.28897 0
M  V30 2648 O 251.033 3.68159 7.14643 0
M  V30 2649 H 250.765 -0.0157455 0.675817 0
M  V30 2650 H 253.319 0.602495 1.96365 0
M  V30 2651 H 251.549 -1.33432 3.6295 0
M  V30 2652 H 253.238 -1.0368 3.92435 0
M  V30 2653 H 254.004 1.33429 4.66285 0
M  V30 2654 H 249.883 0.109273 4.6087 0
M  V30 2655 H 253.427 3.16372 6.21735 0
M  V30 2656 H 249.324 1.93042 6.15959 0
M  V30 2657 H 250.092 3.64622 7.32798 0
M  V30 2658 N 252.755 -1.56801 0.158532 0
M  V30 2659 C 253.685 -2.20347 -0.772609 0
M  V30 2660 C 254.666 -1.15518 -1.24859 0
M  V30 2661 O 255.851 -1.43902 -1.30406 0
M  V30 2662 C 252.981 -2.83417 -2.00729 0
M  V30 2663 C 251.935 -3.94174 -1.66765 0
M  V30 2664 C 251.261 -4.44233 -2.97592 0
M  V30 2665 C 252.561 -5.14392 -0.905447 0
M  V30 2666 H 254.255 -2.98413 -0.242959 0
M  V30 2667 H 251.801 -1.43537 -0.115419 0
M  V30 2668 H 253.754 -3.26543 -2.6636 0
M  V30 2669 H 252.478 -2.02701 -2.56086 0
M  V30 2670 H 251.137 -3.51684 -1.03508 0
M  V30 2671 H 250.785 -3.60325 -3.50963 0
M  V30 2672 H 250.485 -5.18945 -2.75626 0
M  V30 2673 H 252.009 -4.90037 -3.64274 0
M  V30 2674 H 253.423 -5.5429 -1.46408 0
M  V30 2675 H 251.82 -5.9494 -0.7853 0
M  V30 2676 H 252.89 -4.84795 0.100668 0
M  V30 2677 N 254.233 0.115231 -1.57178 0
M  V30 2678 C 255.196 1.12526 -1.99676 0
M  V30 2679 C 256.196 1.34095 -0.88742 0
M  V30 2680 O 257.386 1.30548 -1.15337 0
M  V30 2681 C 254.518 2.4789 -2.34015 0
M  V30 2682 H 255.711 0.759912 -2.90113 0
M  V30 2683 H 253.264 0.359648 -1.52106 0
M  V30 2684 H 253.999 2.89339 -1.4647 0
M  V30 2685 H 253.784 2.33588 -3.14927 0
M  V30 2686 H 255.274 3.20575 -2.67622 0
M  V30 2687 N 255.711 1.52812 0.385517 0
M  V30 2688 C 256.957 1.68275 1.13188 0
M  V30 2689 C 257.29 0.423179 1.89533 0
M  V30 2690 O 256.565 -0.579113 1.85679 0
M  V30 2691 C 256.848 2.92001 2.1073 0
M  V30 2692 C 256.701 4.28067 1.38125 0
M  V30 2693 C 258.02 3.11283 3.11113 0
M  V30 2694 H 255.139 0.612352 0.410115 0
M  V30 2695 H 257.781 1.85415 0.414869 0
M  V30 2696 H 255.931 2.77519 2.71874 0
M  V30 2697 H 257.603 4.54324 0.799187 0
M  V30 2698 H 255.846 4.28388 0.683092 0
M  V30 2699 H 256.517 5.10733 2.09417 0
M  V30 2700 H 258.993 3.2482 2.6006 0
M  V30 2701 H 257.869 3.99325 3.76605 0
M  V30 2702 H 258.13 2.25656 3.80173 0
M  V30 2703 N 257.189 -0.644168 1.43834 0
M  V30 2704 C 258.466 -1.40188 1.36406 0
M  V30 2705 C 258.846 -2.11094 0.0163124 0
M  V30 2706 O 258.194 -2.05426 -1.00062 0
M  V30 2707 C 258.404 -2.3791 2.55343 0
M  V30 2708 C 259.752 -3.01637 2.98832 0
M  V30 2709 O 260.776 -2.48237 2.55455 0
M  V30 2710 O 259.635 -3.98477 3.74003 0
M  V30 2711 H 256.729 -0.626773 0.539523 0
M  V30 2712 H 259.275 -0.670317 1.559 0
M  V30 2713 H 258.047 -1.84525 3.4506 0
M  V30 2714 H 257.67 -3.18503 2.37995 0
M  V30 2715 N 258.668 -1.30515 -0.883378 0
M  V30 2716 C 259.598 -1.19607 -2.00541 0
M  V30 2717 C 260.579 -0.086346 -1.69881 0
M  V30 2718 O 261.764 -0.268654 -1.92333 0
M  V30 2719 C 258.894 -0.888758 -3.35736 0
M  V30 2720 C 257.848 -1.95659 -3.8066 0
M  V30 2721 C 257.174 -1.50224 -5.13164 0
M  V30 2722 C 258.474 -3.36788 -3.99213 0
M  V30 2723 H 260.168 -2.13476 -2.09925 0
M  V30 2724 H 257.714 -1.02775 -1.00863 0
M  V30 2725 H 259.667 -0.799094 -4.13754 0
M  V30 2726 H 258.391 0.0856125 -3.26488 0
M  V30 2727 H 257.05 -2.03591 -3.04871 0
M  V30 2728 H 256.698 -0.516092 -5.00345 0
M  V30 2729 H 256.398 -2.2165 -5.44192 0
M  V30 2730 H 257.922 -1.42639 -5.93706 0
M  V30 2731 H 259.336 -3.31605 -4.67665 0
M  V30 2732 H 257.733 -4.06314 -4.41621 0
M  V30 2733 H 258.803 -3.78561 -3.03017 0
M  V30 2734 N 260.146 1.09593 -1.13257 0
M  V30 2735 C 261.394 1.81375 -0.891492 0
M  V30 2736 C 261.715 1.86049 0.584009 0
M  V30 2737 O 260.985 1.34481 1.42449 0
M  V30 2738 H 259.565 0.671708 -0.326828 0
M  V30 2739 H 262.227 1.3256 -1.42877 0
M  V30 2740 H 261.323 2.84612 -1.28071 0
M  V30 2741 N 261.624 0.925811 1.2754 0
M  V30 2742 C 262.571 0.422045 2.26908 0
M  V30 2743 C 263.541 -0.510029 1.58076 0
M  V30 2744 O 264.726 -0.429599 1.85901 0
M  V30 2745 C 261.866 -0.320837 3.43605 0
M  V30 2746 C 260.979 0.64513 4.27156 0
M  V30 2747 C 260.114 -0.117405 5.3107 0
M  V30 2748 C 259.153 0.841391 6.0629 0
M  V30 2749 N 258.29 0.111604 7.02011 0
M  V30 2750 H 263.13 1.27441 2.69375 0
M  V30 2751 H 260.667 0.639697 1.32462 0
M  V30 2752 H 262.625 -0.76785 4.10073 0
M  V30 2753 H 261.255 -1.13745 3.02096 0
M  V30 2754 H 260.307 1.21067 3.6062 0
M  V30 2755 H 261.619 1.37797 4.79389 0
M  V30 2756 H 260.773 -0.624422 6.03478 0
M  V30 2757 H 259.512 -0.883219 4.79636 0
M  V30 2758 H 258.517 1.35967 5.32722 0
M  V30 2759 H 259.742 1.60696 6.59813 0
M  V30 2760 H 257.688 -0.635999 6.5291 0
M  V30 2761 H 257.605 0.784044 7.51923 0
M  V30 2762 H 258.873 -0.374823 7.78598 0
M  V30 2763 N 263.102 -1.41638 0.69111 0
M  V30 2764 C 264.052 -2.28 -0.000107832 0
M  V30 2765 C 265.036 -1.41964 -0.757304 0
M  V30 2766 O 266.228 -1.65274 -0.633532 0
M  V30 2767 C 263.357 -3.30209 -0.938983 0
M  V30 2768 C 262.443 -4.23725 -0.17827 0
M  V30 2769 N 262.834 -4.99017 0.825563 0
M  V30 2770 C 261.132 -4.44071 -0.414392 0
M  V30 2771 C 261.833 -5.67431 1.28052 0
M  V30 2772 N 260.809 -5.40197 0.607304 0
M  V30 2773 H 264.611 -2.83644 0.769617 0
M  V30 2774 H 262.125 -1.53797 0.521562 0
M  V30 2775 H 264.122 -3.90898 -1.44929 0
M  V30 2776 H 262.782 -2.76126 -1.70836 0
M  V30 2777 H 263.793 -5.03671 1.20566 0
M  V30 2778 H 260.47 -4.01004 -1.162 0
M  V30 2779 H 261.86 -6.37801 2.11327 0
M  V30 2780 N 264.58 -0.43555 -1.51462 0
M  V30 2781 C 265.53 0.394701 -2.24558 0
M  V30 2782 C 266.514 0.99157 -1.26715 0
M  V30 2783 O 267.706 0.910007 -1.51815 0
M  V30 2784 C 264.835 1.4963 -3.08975 0
M  V30 2785 C 263.921 0.908912 -4.14246 0
M  V30 2786 N 264.312 0.0505335 -5.05775 0
M  V30 2787 C 262.61 1.17668 -4.30198 0
M  V30 2788 C 263.311 -0.279161 -5.8103 0
M  V30 2789 N 262.287 0.336767 -5.42556 0
M  V30 2790 H 266.089 -0.267106 -2.92684 0
M  V30 2791 H 263.603 -0.247518 -1.60503 0
M  V30 2792 H 265.6 2.10394 -3.59917 0
M  V30 2793 H 264.26 2.16046 -2.42393 0
M  V30 2794 H 265.271 -0.31577 -5.16936 0
M  V30 2795 H 261.948 1.83847 -3.74842 0
M  V30 2796 H 263.338 -0.977553 -6.64751 0
M  V30 2797 N 266.058 1.56714 -0.166846 0
M  V30 2798 C 267.307 1.95922 0.479318 0
M  V30 2799 C 267.62 1.05529 1.6469 0
M  V30 2800 O 268.826 1.34399 2.35901 0
M  V30 2801 C 267.282 3.48359 0.90412 0
M  V30 2802 C 266.89 4.47369 -0.237621 0
M  V30 2803 C 268.634 3.96394 1.51896 0
M  V30 2804 C 266.541 5.91039 0.206561 0
M  V30 2805 H 265.471 0.731495 0.18284 0
M  V30 2806 H 268.122 1.81728 -0.254363 0
M  V30 2807 H 266.504 3.57955 1.69365 0
M  V30 2808 H 267.678 4.49485 -1.01489 0
M  V30 2809 H 265.993 4.09366 -0.762128 0
M  V30 2810 H 268.59 5.01186 1.86325 0
M  V30 2811 H 268.933 3.39075 2.41524 0
M  V30 2812 H 269.466 3.89796 0.79395 0
M  V30 2813 H 266.205 6.52221 -0.654834 0
M  V30 2814 H 265.725 5.9224 0.949282 0
M  V30 2815 H 267.404 6.43707 0.651939 0
M  V30 2816 N 267.536 -0.106894 1.57237 0
M  V30 2817 C 268.952 -0.46078 1.52804 0
M  V30 2818 C 269.152 -1.81184 0.881746 0
M  V30 2819 O 268.208 -2.48102 0.469224 0
M  V30 2820 C 269.521 -0.434127 2.9755 0
M  V30 2821 C 271.069 -0.516821 3.08704 0
M  V30 2822 C 271.544 -0.520436 4.55033 0
M  V30 2823 N 273.035 -0.58153 4.59535 0
M  V30 2824 C 273.77 -0.605973 5.70189 0
M  V30 2825 N 273.266 -0.587331 6.90306 0
M  V30 2826 N 275.059 -0.649895 5.5833 0
M  V30 2827 H 267.21 0.778203 1.9763 0
M  V30 2828 H 269.473 0.288403 0.903066 0
M  V30 2829 H 269.179 0.491197 3.48253 0
M  V30 2830 H 269.053 -1.25748 3.55622 0
M  V30 2831 H 271.44 -1.43256 2.57995 0
M  V30 2832 H 271.521 0.334449 2.53604 0
M  V30 2833 H 271.165 0.391313 5.0639 0
M  V30 2834 H 271.095 -1.38876 5.07958 0
M  V30 2835 H 273.586 -0.60161 3.73081 0
M  V30 2836 H 273.899 -0.60894 7.70397 0
M  V30 2837 H 272.244 -0.554564 6.92784 0
M  V30 2838 H 275.435 -0.661907 4.63397 0
M  V30 2839 H 275.608 -0.665476 6.44574 0
M  V30 2840 N 269.014 -1.53014 -0.377408 0
M  V30 2841 C 270.26 -1.68872 -1.12294 0
M  V30 2842 C 270.593 -0.433224 -1.89306 0
M  V30 2843 O 269.868 0.569258 -1.85983 0
M  V30 2844 C 270.151 -2.93115 -2.09179 0
M  V30 2845 C 270.004 -4.28794 -1.35853 0
M  V30 2846 C 271.323 -3.12928 -3.09458 0
M  V30 2847 H 268.442 -0.614518 -0.406862 0
M  V30 2848 H 271.084 -1.85633 -0.40503 0
M  V30 2849 H 269.234 -2.78956 -2.70399 0
M  V30 2850 H 270.906 -4.54742 -0.775082 0
M  V30 2851 H 269.149 -4.28744 -0.660364 0
M  V30 2852 H 269.82 -5.11837 -2.06706 0
M  V30 2853 H 272.296 -3.26194 -2.58334 0
M  V30 2854 H 271.172 -4.01316 -3.74482 0
M  V30 2855 H 271.433 -2.27669 -3.78971 0
M  V30 2856 N 270.492 0.636531 -1.44174 0
M  V30 2857 C 271.44 1.76995 -1.50915 0
M  V30 2858 C 272.434 1.65053 -0.381295 0
M  V30 2859 O 273.64 1.71197 -0.55601 0
M  V30 2860 H 270.015 0.584247 -0.473455 0
M  V30 2861 H 271.986 1.68432 -2.4632 0
M  V30 2862 C 270.735 3.15314 -1.46534 0
M  V30 2863 H 270.058 3.25149 -2.32633 0
M  V30 2864 H 271.498 3.9453 -1.55312 0
M  V30 2865 C 269.957 3.3639 -0.185305 0
M  V30 2866 O 270.487 3.94699 0.746688 0
M  V30 2867 N 268.693 2.9046 -0.0901606 0
M  V30 2868 H 268.24 2.43193 -0.849416 0
M  V30 2869 H 268.198 3.04937 0.765553 0
M  V30 2870 N 271.97 1.30982 0.876444 0
M  V30 2871 C 272.933 1.18054 1.96459 0
M  V30 2872 C 273.933 0.109399 1.60427 0
M  V30 2873 O 275.123 0.358173 1.70478 0
M  V30 2874 C 272.255 0.810616 3.31122 0
M  V30 2875 H 273.448 2.14735 2.09354 0
M  V30 2876 H 271.001 1.145 1.06392 0
M  V30 2877 H 271.736 -0.155322 3.23928 0
M  V30 2878 H 271.521 1.58481 3.58645 0
M  V30 2879 H 273.011 0.743876 4.10921 0
M  V30 2880 N 273.449 -1.08991 1.13837 0
M  V30 2881 C 274.379 -2.17771 0.842507 0
M  V30 2882 C 275.36 -1.6892 -0.20001 0
M  V30 2883 O 276.545 -1.94113 -0.0579731 0
M  V30 2884 C 273.675 -3.4589 0.312644 0
M  V30 2885 C 272.629 -4.08099 1.28992 0
M  V30 2886 C 271.955 -5.31098 0.619623 0
M  V30 2887 C 273.255 -4.50077 2.65005 0
M  V30 2888 H 274.949 -2.42777 1.75213 0
M  V30 2889 H 272.495 -1.16682 0.843875 0
M  V30 2890 H 274.448 -4.21297 0.0933043 0
M  V30 2891 H 273.172 -3.20419 -0.632382 0
M  V30 2892 H 271.831 -3.34717 1.49533 0
M  V30 2893 H 271.479 -5.0191 -0.33102 0
M  V30 2894 H 271.179 -5.73674 1.27167 0
M  V30 2895 H 272.703 -6.09224 0.409669 0
M  V30 2896 H 274.117 -5.16688 2.48407 0
M  V30 2897 H 272.514 -5.03553 3.26427 0
M  V30 2898 H 273.584 -3.62257 3.22332 0
M  V30 2899 N 274.927 -0.932562 -1.27047 0
M  V30 2900 C 276.152 -0.591474 -1.98787 0
M  V30 2901 C 276.577 0.824601 -1.69062 0
M  V30 2902 O 275.935 1.5541 -0.933677 0
M  V30 2903 C 275.983 -0.829808 -3.50922 0
M  V30 2904 O 275.087 0.102266 -4.12273 0
M  V30 2905 H 274.428 -0.227185 -0.623926 0
M  V30 2906 H 276.958 -1.25314 -1.61733 0
M  V30 2907 H 276.968 -0.747292 -4.01098 0
M  V30 2908 H 275.643 -1.86201 -3.7189 0
M  V30 2909 H 274.22 -0.0305761 -3.72887 0
M  V30 2910 N 276.405 1.4127 -0.698611 0
M  V30 2911 C 277.368 2.29158 -0.044132 0
M  V30 2912 C 278.368 1.44529 0.704841 0
M  V30 2913 O 279.558 1.65643 0.539276 0
M  V30 2914 C 276.69 3.27459 0.947809 0
M  V30 2915 H 277.883 2.88529 -0.817994 0
M  V30 2916 H 275.436 1.49307 -0.46228 0
M  V30 2917 H 276.171 2.73073 1.74933 0
M  V30 2918 H 275.956 3.8991 0.41385 0
M  V30 2919 H 277.446 3.93311 1.40344 0
M  V30 2920 N 277.883 0.443576 1.51229 0
M  V30 2921 C 279.131 -0.120557 2.0174 0
M  V30 2922 C 279.452 -1.42665 1.32935 0
M  V30 2923 O 278.722 -1.9028 0.465866 0
M  V30 2924 H 277.302 -0.0475426 0.745486 0
M  V30 2925 H 279.964 0.587711 1.85828 0
M  V30 2926 H 279.06 -0.291972 3.10731 0
M  V30 2927 N 279.361 -1.56624 0.175154 0
M  V30 2928 C 280.772 -1.83561 -0.340916 0
M  V30 2929 C 281.123 -1.09511 -1.62794 0
M  V30 2930 O 280.248 -0.349389 -2.13561 0
M  V30 2931 C 280.843 -3.32979 -0.625313 0
M  V30 2932 C 279.402 -3.60399 -1.08581 0
M  V30 2933 C 278.549 -2.77024 -0.123722 0
M  V30 2934 H 281.5 -1.53593 0.399344 0
M  V30 2935 H 281.521 -3.50666 -1.47694 0
M  V30 2936 H 281.033 -3.86847 0.311575 0
M  V30 2937 H 279.134 -3.11945 -2.03767 0
M  V30 2938 H 279.247 -4.68711 -0.992317 0
M  V30 2939 H 277.611 -2.46993 -0.621821 0
M  V30 2940 H 278.394 -3.33674 0.807256 0
M  V30 2941 N 280.839 0.0985539 -1.57292 0
M  V30 2942 C 282.088 0.801358 -1.85098 0
M  V30 2943 C 282.401 1.80066 -0.763902 0
M  V30 2944 O 283.607 2.55112 -0.928981 0
M  V30 2945 C 282.063 1.47599 -3.28242 0
M  V30 2946 C 281.671 0.516624 -4.45011 0
M  V30 2947 C 283.415 2.16272 -3.65276 0
M  V30 2948 C 281.322 1.19564 -5.79188 0
M  V30 2949 H 280.252 0.303022 -0.69043 0
M  V30 2950 H 282.903 0.0542623 -1.8342 0
M  V30 2951 H 281.285 2.27042 -3.2445 0
M  V30 2952 H 282.459 -0.246065 -4.60143 0
M  V30 2953 H 280.774 -0.064227 -4.1635 0
M  V30 2954 H 283.371 2.67802 -4.62803 0
M  V30 2955 H 283.714 2.95009 -2.93727 0
M  V30 2956 H 284.247 1.43693 -3.70941 0
M  V30 2957 H 280.986 0.449157 -6.53959 0
M  V30 2958 H 280.506 1.92984 -5.67906 0
M  V30 2959 H 282.185 1.7231 -6.23633 0
M  V30 2960 N 282.317 1.53212 0.369288 0
M  V30 2961 C 283.733 1.42902 0.710712 0
M  V30 2962 C 283.933 0.565135 1.93413 0
M  V30 2963 O 282.989 0.0461484 2.52458 0
M  V30 2964 C 284.302 2.86042 0.927382 0
M  V30 2965 C 285.85 2.9565 1.02762 0
M  V30 2966 C 286.325 4.39843 1.27679 0
M  V30 2967 N 287.816 4.43256 1.34457 0
M  V30 2968 C 288.551 5.51929 1.55439 0
M  V30 2969 N 288.047 6.70655 1.73762 0
M  V30 2970 N 289.84 5.39502 1.57779 0
M  V30 2971 H 281.991 2.07888 -0.435457 0
M  V30 2972 H 284.254 0.938661 -0.132739 0
M  V30 2973 H 283.96 3.51557 0.100287 0
M  V30 2974 H 283.834 3.29472 1.83653 0
M  V30 2975 H 286.221 2.30291 1.84527 0
M  V30 2976 H 286.302 2.5562 0.0959504 0
M  V30 2977 H 285.946 5.05774 0.464175 0
M  V30 2978 H 285.876 4.77443 2.22162 0
M  V30 2979 H 288.367 3.5769 1.21926 0
M  V30 2980 H 288.68 7.49248 1.89335 0
M  V30 2981 H 287.025 6.73648 1.70948 0
M  V30 2982 H 290.216 4.45713 1.43029 0
M  V30 2983 H 290.389 6.2426 1.7379 0
M  V30 2984 N 283.795 -0.628877 1.44509 0
M  V30 2985 C 285.023 -1.41554 1.50897 0
M  V30 2986 C 285.438 -1.8832 0.134564 0
M  V30 2987 O 284.795 -1.60969 -0.859965 0
M  V30 2988 C 284.846 -2.63435 2.47556 0
M  V30 2989 O 284.567 -2.18619 3.79654 0
M  V30 2990 C 286.068 -3.56537 2.63431 0
M  V30 2991 H 283.288 -0.434044 0.511709 0
M  V30 2992 H 285.832 -0.768895 1.89495 0
M  V30 2993 H 283.987 -3.24187 2.12089 0
M  V30 2994 H 284.401 -2.97652 4.31861 0
M  V30 2995 H 285.875 -4.38657 3.35088 0
M  V30 2996 H 286.352 -4.05493 1.68738 0
M  V30 2997 H 286.958 -3.01653 2.9981 0
M  V30 2998 N 285.273 -1.31445 -0.869486 0
M  V30 2999 C 286.203 -1.21727 -1.99261 0
M  V30 3000 C 287.184 -0.104359 -1.6978 0
M  V30 3001 O 288.369 -0.289038 -1.92037 0
M  V30 3002 C 285.499 -0.924317 -3.34774 0
M  V30 3003 C 284.453 -1.99685 -3.78563 0
M  V30 3004 C 283.779 -1.55658 -5.11541 0
M  V30 3005 C 285.079 -3.41003 -3.95619 0
M  V30 3006 H 286.773 -2.1569 -2.07649 0
M  V30 3007 H 284.319 -1.03839 -0.997675 0
M  V30 3008 H 286.272 -0.842934 -4.12883 0
M  V30 3009 H 284.996 0.0509793 -3.2656 0
M  V30 3010 H 283.655 -2.06813 -3.02694 0
M  V30 3011 H 283.303 -0.569132 -4.9977 0
M  V30 3012 H 283.003 -2.27409 -5.41811 0
M  V30 3013 H 284.527 -1.48928 -5.92159 0
M  V30 3014 H 285.941 -3.36547 -4.64122 0
M  V30 3015 H 284.338 -4.10975 -4.37286 0
M  V30 3016 H 285.408 -3.81754 -2.98985 0
M  V30 3017 N 286.751 1.08385 -1.14413 0
M  V30 3018 C 287.714 2.13486 -0.834048 0
M  V30 3019 C 288.714 1.59988 0.161418 0
M  V30 3020 O 289.904 1.74071 -0.0669575 0
M  V30 3021 C 287.036 3.4003 -0.243354 0
M  V30 3022 H 288.229 2.42425 -1.7655 0
M  V30 3023 H 285.782 1.24101 -0.950189 0
M  V30 3024 H 286.517 3.16726 0.696807 0
M  V30 3025 H 286.302 3.80157 -0.960367 0
M  V30 3026 H 287.792 4.17577 -0.0436242 0
M  V30 3027 N 288.23 0.939286 1.26551 0
M  V30 3028 C 289.455 0.602008 1.98471 0
M  V30 3029 C 289.88 -0.815624 1.69497 0
M  V30 3030 O 289.238 -1.54912 0.941905 0
M  V30 3031 C 289.286 0.848407 3.50477 0
M  V30 3032 O 288.39 -0.0804009 4.12322 0
M  V30 3033 H 287.731 0.23049 0.622712 0
M  V30 3034 H 290.261 1.2617 1.61066 0
M  V30 3035 H 290.271 0.768553 4.00696 0
M  V30 3036 H 288.946 1.88171 3.70897 0
M  V30 3037 H 287.523 0.0503508 3.72866 0
M  V30 3038 N 289.708 -1.40897 0.706093 0
M  V30 3039 C 290.933 -2.05895 0.249435 0
M  V30 3040 C 291.358 -1.52823 -1.09666 0
M  V30 3041 O 290.716 -0.659589 -1.68876 0
M  V30 3042 C 290.764 -3.59872 0.22904 0
M  V30 3043 O 289.868 -4.04708 -0.792784 0
M  V30 3044 H 289.209 -0.653206 0.119241 0
M  V30 3045 H 291.739 -1.80471 0.96391 0
M  V30 3046 H 291.749 -4.07951 0.0634791 0
M  V30 3047 H 290.424 -3.97866 1.21141 0
M  V30 3048 H 289.001 -3.68111 -0.59572 0
M  V30 3049 N 291.186 -0.45159 -1.50991 0
M  V30 3050 C 292.434 0.109857 -2.01801 0
M  V30 3051 C 292.755 1.41958 -1.3369 0
M  V30 3052 O 292.025 1.9003 -0.475951 0
M  V30 3053 H 290.605 0.0435884 -0.745727 0
M  V30 3054 H 293.267 -0.597557 -1.85514 0
M  V30 3055 H 292.363 0.275489 -3.10882 0
M  V30 3056 N 292.664 1.56529 -0.183458 0
M  V30 3057 C 293.913 1.96419 0.458511 0
M  V30 3058 C 294.226 1.0727 1.63562 0
M  V30 3059 O 295.432 1.36893 2.34462 0
M  V30 3060 C 293.888 3.49298 0.867122 0
M  V30 3061 C 293.496 4.47092 -0.285057 0
M  V30 3062 C 295.24 3.97983 1.47683 0
M  V30 3063 C 293.147 5.91225 0.143862 0
M  V30 3064 H 292.077 0.733394 0.175071 0
M  V30 3065 H 294.728 1.81448 -0.273624 0
M  V30 3066 H 293.11 3.59731 1.65559 0
M  V30 3067 H 294.284 4.48383 -1.0625 0
M  V30 3068 H 292.599 4.08535 -0.805503 0
M  V30 3069 H 295.196 5.03134 1.80999 0
M  V30 3070 H 295.539 3.41618 2.37914 0
M  V30 3071 H 296.072 3.90617 0.752562 0
M  V30 3072 H 292.811 6.5149 -0.723974 0
M  V30 3073 H 292.331 5.93214 0.886413 0
M  V30 3074 H 294.01 6.44362 0.583628 0
M  V30 3075 N 294.142 -0.090211 1.57342 0
M  V30 3076 C 295.105 -1.09335 2.01441 0
M  V30 3077 C 296.105 -1.32666 0.908641 0
M  V30 3078 O 297.295 -1.28697 1.174 0
M  V30 3079 C 294.427 -2.44136 2.3793 0
M  V30 3080 H 295.62 -0.713662 2.91285 0
M  V30 3081 H 293.173 -0.335404 1.52659 0
M  V30 3082 H 293.908 -2.86972 1.51055 0
M  V30 3083 H 293.693 -2.28548 3.18603 0
M  V30 3084 H 295.183 -3.16277 2.72688 0
M  V30 3085 N 295.62 -1.53406 -0.361157 0
M  V30 3086 C 296.897 -1.60411 -1.11927 0
M  V30 3087 C 297.277 -0.414385 -2.06993 0
M  V30 3088 O 296.625 0.594976 -2.20618 0
M  V30 3089 C 296.835 -2.95652 -1.85448 0
M  V30 3090 C 298.183 -3.50386 -2.39823 0
M  V30 3091 O 299.207 -2.97711 -1.95568 0
M  V30 3092 O 298.066 -4.42482 -3.20737 0
M  V30 3093 H 295.16 -0.64811 -0.513695 0
M  V30 3094 H 297.706 -1.65749 -0.364065 0
M  V30 3095 H 296.478 -3.73682 -1.16091 0
M  V30 3096 H 296.101 -2.93825 -2.67866 0
M  V30 3097 N 297.098 0.621204 -1.44841 0
M  V30 3098 C 298.345 1.38055 -1.48145 0
M  V30 3099 C 298.673 1.94143 -0.117867 0
M  V30 3100 O 297.928 1.74713 0.881694 0
M  V30 3101 C 298.227 2.55675 -2.4973 0
M  V30 3102 C 297.893 2.17817 -3.94799 0
M  V30 3103 C 296.555 2.07205 -4.34303 0
M  V30 3104 C 298.907 1.88065 -4.86087 0
M  V30 3105 C 296.235 1.65045 -5.63007 0
M  V30 3106 C 298.587 1.47394 -6.15189 0
M  V30 3107 C 297.251 1.35331 -6.53637 0
M  V30 3108 H 296.521 0.505181 -0.542101 0
M  V30 3109 H 299.168 0.703477 -1.78111 0
M  V30 3110 H 297.473 3.2866 -2.13284 0
M  V30 3111 H 299.17 3.13904 -2.4953 0
M  V30 3112 H 295.76 2.26998 -3.63552 0
M  V30 3113 H 299.944 1.95168 -4.56315 0
M  V30 3114 H 295.2 1.54317 -5.91605 0
M  V30 3115 H 299.374 1.23415 -6.85377 0
M  V30 3116 H 297.001 1.02435 -7.53267 0
M  V30 3117 N 298.576 1.31904 0.862503 0
M  V30 3118 C 299.992 1.10724 1.14945 0
M  V30 3119 C 300.192 -0.117421 2.01158 0
M  V30 3120 O 299.248 -0.804595 2.39338 0
M  V30 3121 C 300.561 2.38267 1.83437 0
M  V30 3122 C 302.109 2.43949 1.96106 0
M  V30 3123 C 302.584 3.71394 2.68013 0
M  V30 3124 N 304.075 3.72331 2.75543 0
M  V30 3125 C 304.81 4.67641 3.31812 0
M  V30 3126 N 304.306 5.73313 3.88953 0
M  V30 3127 N 306.099 4.5515 3.29841 0
M  V30 3128 H 298.25 2.10436 0.288191 0
M  V30 3129 H 300.513 0.928705 0.190292 0
M  V30 3130 H 300.219 3.27759 1.27542 0
M  V30 3131 H 300.093 2.48633 2.83657 0
M  V30 3132 H 302.48 1.54922 2.51164 0
M  V30 3133 H 302.561 2.37543 0.949059 0
M  V30 3134 H 302.205 4.60791 2.13621 0
M  V30 3135 H 302.135 3.75069 3.69636 0
M  V30 3136 H 304.626 2.95947 2.34997 0
M  V30 3137 H 304.939 6.42107 4.30022 0
M  V30 3138 H 303.284 5.77077 3.87308 0
M  V30 3139 H 306.475 3.71766 2.84443 0
M  V30 3140 H 306.648 5.29604 3.73394 0
M  V30 3141 N 300.054 -1.07777 1.14986 0
M  V30 3142 C 300.987 -2.14228 0.786243 0
M  V30 3143 C 301.965 -1.60888 -0.235347 0
M  V30 3144 O 303.149 -1.88099 -0.122909 0
M  V30 3145 C 300.276 -3.38281 0.168433 0
M  V30 3146 C 299.322 -4.10387 1.16123 0
M  V30 3147 S 300.155 -4.62371 2.70135 0
M  V30 3148 C 301.311 -5.89704 2.09762 0
M  V30 3149 H 301.544 -2.44741 1.68787 0
M  V30 3150 H 299.077 -1.19984 0.971756 0
M  V30 3151 H 301.035 -4.10098 -0.181588 0
M  V30 3152 H 299.696 -3.05953 -0.710725 0
M  V30 3153 H 298.889 -4.99431 0.677086 0
M  V30 3154 H 298.491 -3.44513 1.45556 0
M  V30 3155 H 300.783 -6.61648 1.45701 0
M  V30 3156 H 301.726 -6.42824 2.96955 0
M  V30 3157 H 302.134 -5.4302 1.54239 0
M  V30 3158 N 301.532 -0.945985 -1.26051 0
M  V30 3159 C 302.781 -0.591836 -1.92822 0
M  V30 3160 C 303.094 0.873956 -1.7499 0
M  V30 3161 O 304.3 1.33769 -2.36259 0
M  V30 3162 C 302.756 -1.00776 -3.45503 0
M  V30 3163 C 302.364 -2.4955 -3.7206 0
M  V30 3164 C 304.108 -0.725735 -4.1825 0
M  V30 3165 C 302.015 -2.84988 -5.18205 0
M  V30 3166 H 300.945 -0.217635 -0.721908 0
M  V30 3167 H 303.596 -1.14927 -1.43052 0
M  V30 3168 H 301.978 -0.378812 -3.94184 0
M  V30 3169 H 303.152 -3.1739 -3.34066 0
M  V30 3170 H 301.467 -2.75133 -3.12555 0
M  V30 3171 H 304.064 -0.966771 -5.25887 0
M  V30 3172 H 304.407 0.337639 -4.14929 0
M  V30 3173 H 304.94 -1.31463 -3.7545 0
M  V30 3174 H 301.679 -3.90307 -5.26631 0
M  V30 3175 H 301.199 -2.21813 -5.57278 0
M  V30 3176 H 302.878 -2.73712 -5.86252 0
M  V30 3177 N 303.011 1.40521 -0.713556 0
M  V30 3178 C 303.941 2.33381 -0.0743864 0
M  V30 3179 C 304.922 1.52784 0.747735 0
M  V30 3180 O 306.107 1.81258 0.697071 0
M  V30 3181 C 303.237 3.36748 0.849598 0
M  V30 3182 C 302.191 4.27793 0.133247 0
M  V30 3183 C 301.517 5.21679 1.17281 0
M  V30 3184 C 302.817 5.12415 -1.01134 0
M  V30 3185 H 304.511 2.87081 -0.850007 0
M  V30 3186 H 302.057 1.38034 -0.410201 0
M  V30 3187 H 304.01 4.00648 1.30612 0
M  V30 3188 H 302.734 2.81439 1.65709 0
M  V30 3189 H 301.393 3.65342 -0.303426 0
M  V30 3190 H 301.041 4.62677 1.9733 0
M  V30 3191 H 300.741 5.83435 0.698397 0
M  V30 3192 H 302.265 5.88456 1.62947 0
M  V30 3193 H 303.679 5.69781 -0.634274 0
M  V30 3194 H 302.076 5.83203 -1.41399 0
M  V30 3195 H 303.146 4.48514 -1.84292 0
M  V30 3196 N 304.489 0.459591 1.5075 0
M  V30 3197 C 305.436 -0.340524 2.28274 0
M  V30 3198 C 306.406 -0.997371 1.32822 0
M  V30 3199 O 307.591 -1.01202 1.61749 0
M  V30 3200 C 304.731 -1.42317 3.14388 0
M  V30 3201 C 303.844 -0.782251 4.24859 0
M  V30 3202 C 302.979 -1.84182 4.98247 0
M  V30 3203 C 302.018 -1.18053 6.00608 0
M  V30 3204 N 301.155 -2.18244 6.67319 0
M  V30 3205 H 305.995 0.326899 2.96202 0
M  V30 3206 H 303.532 0.173057 1.46078 0
M  V30 3207 H 305.49 -2.06241 3.62658 0
M  V30 3208 H 304.12 -2.05992 2.4853 0
M  V30 3209 H 303.172 -0.0307404 3.80388 0
M  V30 3210 H 304.484 -0.259663 4.98124 0
M  V30 3211 H 303.638 -2.55714 5.50177 0
M  V30 3212 H 302.377 -2.39819 4.24662 0
M  V30 3213 H 301.382 -0.450776 5.47949 0
M  V30 3214 H 302.607 -0.631202 6.7616 0
M  V30 3215 H 300.553 -2.72919 5.96533 0
M  V30 3216 H 300.47 -1.70938 7.36421 0
M  V30 3217 H 301.738 -2.89191 7.23871 0
M  V30 3218 N 305.967 -1.56429 0.191757 0
M  V30 3219 C 307.213 -1.98541 -0.441943 0
M  V30 3220 C 307.568 -1.07646 -1.59468 0
M  V30 3221 O 306.861 -0.120191 -1.91223 0
M  V30 3222 C 307.055 -3.44449 -0.953384 0
M  V30 3223 C 306.884 -4.49456 0.148262 0
M  V30 3224 C 305.654 -5.01668 0.604781 0
M  V30 3225 C 307.852 -5.05336 0.95602 0
M  V30 3226 N 305.834 -5.90334 1.6846 0
M  V30 3227 C 307.205 -5.9064 1.88531 0
M  V30 3228 C 309.26 -4.87779 0.998811 0
M  V30 3229 C 307.963 -6.60264 2.85383 0
M  V30 3230 C 309.989 -5.58139 1.95537 0
M  V30 3231 C 309.351 -6.43187 2.8721 0
M  V30 3232 H 305.45 -0.771247 -0.129236 0
M  V30 3233 H 308.034 -1.92426 0.296682 0
M  V30 3234 H 306.205 -3.5107 -1.66146 0
M  V30 3235 H 307.937 -3.73533 -1.55741 0
M  V30 3236 H 304.692 -4.73183 0.198736 0
M  V30 3237 H 305.116 -6.39371 2.22561 0
M  V30 3238 H 309.758 -4.21705 0.304048 0
M  V30 3239 H 307.476 -7.25538 3.55837 0
M  V30 3240 H 311.062 -5.46532 1.99484 0
M  V30 3241 H 309.942 -6.96674 3.60022 0
M  V30 3242 N 307.445 0.0818655 -1.57387 0
M  V30 3243 C 308.393 1.11712 -2.04018 0
M  V30 3244 C 309.387 1.40683 -0.94364 0
M  V30 3245 O 310.593 1.40209 -1.12878 0
M  V30 3246 H 306.968 0.377542 -0.650358 0
M  V30 3247 H 308.939 0.697614 -2.90131 0
M  V30 3248 C 307.688 2.42537 -2.49141 0
M  V30 3249 H 307.011 2.21092 -3.33104 0
M  V30 3250 H 308.451 3.13446 -2.85531 0
M  V30 3251 C 306.91 3.0778 -1.37014 0
M  V30 3252 O 307.44 3.95436 -0.706621 0
M  V30 3253 N 305.646 2.68242 -1.11779 0
M  V30 3254 H 305.193 1.97052 -1.65917 0
M  V30 3255 H 305.151 3.1222 -0.369594 0
M  V30 3256 N 308.923 1.53595 0.353017 0
M  V30 3257 C 309.833 1.83897 1.45667 0
M  V30 3258 C 310.849 0.728334 1.58023 0
M  V30 3259 O 312.025 1.01968 1.73679 0
M  V30 3260 C 309.09 2.03383 2.80778 0
M  V30 3261 C 308.151 3.27262 2.77845 0
M  V30 3262 C 307.384 3.45809 4.06512 0
M  V30 3263 O 307.607 2.68387 5.03314 0
M  V30 3264 O 306.541 4.39207 4.11559 0
M  V30 3265 H 310.367 2.77686 1.2298 0
M  V30 3266 H 307.952 1.39132 0.544308 0
M  V30 3267 H 309.834 2.17698 3.60812 0
M  V30 3268 H 308.509 1.12783 3.03417 0
M  V30 3269 H 307.416 3.18359 1.96465 0
M  V30 3270 H 308.749 4.17824 2.60161 0
M  V30 3271 N 310.401 -0.613514 1.45168 0
M  V30 3272 C 311.65 -1.36874 1.4815 0
M  V30 3273 C 311.963 -1.952 0.124982 0
M  V30 3274 O 313.169 -2.71481 0.0324176 0
M  V30 3275 C 311.625 -2.47905 2.60904 0
M  V30 3276 C 311.233 -1.96016 4.02842 0
M  V30 3277 C 312.977 -3.24965 2.73126 0
M  V30 3278 C 310.884 -3.04494 5.06988 0
M  V30 3279 H 309.814 -0.514428 0.551253 0
M  V30 3280 H 312.465 -0.658182 1.7129 0
M  V30 3281 H 310.847 -3.21618 2.31037 0
M  V30 3282 H 312.021 -1.29051 4.4236 0
M  V30 3283 H 310.336 -1.31719 3.95018 0
M  V30 3284 H 312.933 -4.05865 3.48106 0
M  V30 3285 H 313.276 -3.75588 1.79553 0
M  V30 3286 H 313.809 -2.5835 3.0249 0
M  V30 3287 H 310.548 -2.58795 6.0225 0
M  V30 3288 H 310.068 -3.70044 4.72046 0
M  V30 3289 H 311.747 -3.68976 5.31475 0
M  V30 3290 N 311.879 -1.3236 -0.855495 0
M  V30 3291 C 312.827 -1.2118 -1.9854 0
M  V30 3292 C 313.821 -0.116788 -1.68997 0
M  V30 3293 O 315.027 -0.279657 -1.77814 0
M  V30 3294 H 311.402 -0.375608 -0.651477 0
M  V30 3295 H 313.373 -2.16743 -2.05098 0
M  V30 3296 C 312.122 -0.950849 -3.34446 0
M  V30 3297 H 311.445 -1.78563 -3.57708 0
M  V30 3298 H 312.885 -0.912863 -4.14057 0
M  V30 3299 C 311.344 0.346404 -3.35114 0
M  V30 3300 O 311.874 1.35855 -3.7803 0
M  V30 3301 N 310.08 0.36808 -2.88259 0
M  V30 3302 H 309.627 -0.456102 -2.5353 0
M  V30 3303 H 309.585 1.23591 -2.89089 0
M  V30 3304 N 313.357 1.07166 -1.15556 0
M  V30 3305 C 314.32 2.12589 -0.856644 0
M  V30 3306 C 315.32 1.6015 0.14444 0
M  V30 3307 O 316.51 1.7399 -0.0854163 0
M  V30 3308 C 313.642 3.39753 -0.279405 0
M  V30 3309 H 314.835 2.40539 -1.79112 0
M  V30 3310 H 312.388 1.23086 -0.963298 0
M  V30 3311 H 313.123 3.17447 0.663174 0
M  V30 3312 H 312.908 3.79117 -1.00063 0
M  V30 3313 H 314.398 4.17507 -0.0879113 0
M  V30 3314 N 314.835 0.952656 1.25548 0
M  V30 3315 C 316.246 0.647392 1.75116 0
M  V30 3316 C 316.597 -0.837274 1.77438 0
M  V30 3317 O 315.722 -1.65525 1.39393 0
M  V30 3318 C 316.317 1.16845 3.18014 0
M  V30 3319 C 314.876 0.913382 3.6515 0
M  V30 3320 C 314.023 1.31265 2.44264 0
M  V30 3321 H 316.974 1.12968 1.11462 0
M  V30 3322 H 316.995 0.527606 3.76824 0
M  V30 3323 H 316.507 2.24902 3.16292 0
M  V30 3324 H 314.608 -0.152316 3.72289 0
M  V30 3325 H 314.721 1.54845 4.53387 0
M  V30 3326 H 313.085 0.731028 2.43984 0
M  V30 3327 H 313.868 2.40239 2.45234 0
M  V30 3328 N 316.313 -1.40141 0.720998 0
M  V30 3329 C 317.243 -2.33339 0.0867621 0
M  V30 3330 C 318.224 -1.53178 -0.739622 0
M  V30 3331 O 319.409 -1.81625 -0.687449 0
M  V30 3332 C 316.539 -3.37194 -0.831728 0
M  V30 3333 C 315.493 -4.27857 -0.110558 0
M  V30 3334 C 314.819 -5.22294 -1.14513 0
M  V30 3335 C 316.119 -5.11872 1.0385 0
M  V30 3336 H 317.813 -2.86626 0.865219 0
M  V30 3337 H 315.359 -1.37814 0.417516 0
M  V30 3338 H 317.312 -4.01335 -1.28485 0
M  V30 3339 H 316.036 -2.82314 -1.64214 0
M  V30 3340 H 314.695 -3.65176 0.322797 0
M  V30 3341 H 314.343 -4.63717 -1.94874 0
M  V30 3342 H 314.043 -5.83797 -0.667446 0
M  V30 3343 H 315.567 -5.89312 -1.59824 0
M  V30 3344 H 316.981 -5.69436 0.664482 0
M  V30 3345 H 315.378 -5.82445 1.4449 0
M  V30 3346 H 316.448 -4.4753 1.86668 0
M  V30 3347 N 317.792 -0.46758 -1.50504 0
M  V30 3348 C 319.208 -0.121533 -1.59137 0
M  V30 3349 C 319.408 1.3717 -1.47603 0
M  V30 3350 O 318.464 2.14464 -1.33272 0
M  V30 3351 C 319.777 -0.6686 -2.93173 0
M  V30 3352 C 321.325 -0.631716 -3.06559 0
M  V30 3353 C 321.8 -1.15627 -4.43164 0
M  V30 3354 N 323.291 -1.11553 -4.49567 0
M  V30 3355 C 324.026 -1.49195 -5.5365 0
M  V30 3356 N 323.522 -1.94269 -6.65005 0
M  V30 3357 N 325.315 -1.4082 -5.44175 0
M  V30 3358 H 317.466 -1.4388 -1.56245 0
M  V30 3359 H 319.729 -0.594784 -0.738198 0
M  V30 3360 H 319.435 -1.71453 -3.07078 0
M  V30 3361 H 319.309 -0.11021 -3.77039 0
M  V30 3362 H 321.696 0.405297 -2.92304 0
M  V30 3363 H 321.777 -1.22687 -2.24458 0
M  V30 3364 H 321.421 -2.1919 -4.58168 0
M  V30 3365 H 321.351 -0.537365 -5.23851 0
M  V30 3366 H 323.842 -0.784895 -3.69659 0
M  V30 3367 H 324.155 -2.21148 -7.40482 0
M  V30 3368 H 322.5 -1.98219 -6.66134 0
M  V30 3369 H 325.691 -1.0545 -4.56068 0
M  V30 3370 H 325.864 -1.70481 -6.25172 0
M  V30 3371 N 319.27 1.56325 -0.20005 0
M  V30 3372 C 320.217 2.1932 0.718833 0
M  V30 3373 C 321.187 1.14198 1.20615 0
M  V30 3374 O 322.372 1.42469 1.26914 0
M  V30 3375 C 319.512 2.86041 1.93066 0
M  V30 3376 C 318.625 4.05702 1.48425 0
M  V30 3377 C 317.76 4.60266 2.65196 0
M  V30 3378 C 316.799 5.72273 2.17185 0
M  V30 3379 N 315.936 6.21221 3.27152 0
M  V30 3380 H 320.776 2.97486 0.17489 0
M  V30 3381 H 318.313 1.46911 0.0745794 0
M  V30 3382 H 320.271 3.22897 2.64184 0
M  V30 3383 H 318.901 2.1043 2.44783 0
M  V30 3384 H 317.953 3.74475 0.668755 0
M  V30 3385 H 319.265 4.86699 1.09204 0
M  V30 3386 H 318.419 4.99453 3.4443 0
M  V30 3387 H 317.158 3.78386 3.07693 0
M  V30 3388 H 316.163 5.3261 1.36407 0
M  V30 3389 H 317.388 6.55974 1.75713 0
M  V30 3390 H 315.334 5.42263 3.69171 0
M  V30 3391 H 315.251 6.97284 2.92116 0
M  V30 3392 H 316.519 6.65063 4.06585 0
M  V30 3393 N 320.748 -0.0735177 1.57428 0
M  V30 3394 C 321.696 -1.10628 2.04607 0
M  V30 3395 C 322.69 -1.40181 0.951088 0
M  V30 3396 O 323.896 -1.39608 1.1362 0
M  V30 3397 H 320.271 -0.374088 0.652351 0
M  V30 3398 H 322.242 -0.682218 2.90497 0
M  V30 3399 C 320.991 -2.41212 2.50423 0
M  V30 3400 H 320.314 -2.19322 3.34272 0
M  V30 3401 H 321.754 -3.11927 2.87189 0
M  V30 3402 C 320.213 -3.0705 1.38644 0
M  V30 3403 O 320.743 -3.95056 0.727582 0
M  V30 3404 N 318.949 -2.67645 1.132 0
M  V30 3405 H 318.496 -1.96169 1.66959 0
M  V30 3406 H 318.454 -3.1202 0.386147 0
M  V30 3407 N 322.226 -1.5378 -0.344866 0
M  V30 3408 C 323.472 -1.71216 -1.08687 0
M  V30 3409 C 323.805 -0.473281 -1.88345 0
M  V30 3410 O 323.08 0.52968 -1.87149 0
M  V30 3411 C 323.363 -2.97486 -2.02914 0
M  V30 3412 C 323.216 -4.31579 -1.26727 0
M  V30 3413 C 324.535 -3.19422 -3.0275 0
M  V30 3414 H 321.654 -0.62301 -0.393735 0
M  V30 3415 H 324.296 -1.8645 -0.365563 0
M  V30 3416 H 322.446 -2.84629 -2.64421 0
M  V30 3417 H 324.118 -4.56284 -0.67845 0
M  V30 3418 H 322.361 -4.30049 -0.569273 0
M  V30 3419 H 323.032 -5.16106 -1.95803 0
M  V30 3420 H 325.508 -3.316 -2.51357 0
M  V30 3421 H 324.384 -4.09169 -3.65885 0
M  V30 3422 H 324.645 -2.35656 -3.74057 0
M  V30 3423 N 323.704 0.605807 -1.45491 0
M  V30 3424 C 324.929 1.39625 -1.53361 0
M  V30 3425 C 325.354 1.87351 -0.167645 0
M  V30 3426 O 324.712 1.60243 0.848051 0
M  V30 3427 C 324.76 2.57559 -2.5238 0
M  V30 3428 O 323.864 3.58248 -2.04285 0
M  V30 3429 H 323.205 0.416771 -0.516912 0
M  V30 3430 H 325.735 0.737103 -1.90861 0
M  V30 3431 H 325.745 3.0478 -2.71244 0
M  V30 3432 H 324.42 2.22171 -3.51586 0
M  V30 3433 H 322.997 3.17664 -1.95305 0
M  V30 3434 N 325.182 1.32811 0.848464 0
M  V30 3435 C 326.112 1.24882 1.97299 0
M  V30 3436 C 327.093 0.131357 1.69592 0
M  V30 3437 O 328.278 0.319553 1.91553 0
M  V30 3438 C 325.408 0.97746 3.33261 0
M  V30 3439 C 324.362 2.05682 3.75338 0
M  V30 3440 C 323.688 1.63777 5.09 0
M  V30 3441 C 324.988 3.47254 3.90144 0
M  V30 3442 H 326.682 2.18966 2.04191 0
M  V30 3443 H 324.228 1.05413 0.981029 0
M  V30 3444 H 326.181 0.908513 4.1149 0
M  V30 3445 H 324.905 0.000980011 3.266 0
M  V30 3446 H 323.564 2.11603 2.99366 0
M  V30 3447 H 323.212 0.648569 4.98801 0
M  V30 3448 H 322.912 2.36 5.38124 0
M  V30 3449 H 324.436 1.5833 5.89715 0
M  V30 3450 H 325.85 3.43888 4.58709 0
M  V30 3451 H 324.247 4.1788 4.30693 0
M  V30 3452 H 325.317 3.86462 2.92874 0
M  V30 3453 N 326.66 -1.06551 1.16123 0
M  V30 3454 C 327.57 -2.17484 0.879662 0
M  V30 3455 C 328.586 -1.73377 -0.147104 0
M  V30 3456 O 329.762 -2.01379 0.0289128 0
M  V30 3457 C 326.827 -3.44591 0.381829 0
M  V30 3458 C 325.888 -4.0322 1.4735 0
M  V30 3459 C 325.121 -5.24261 0.999324 0
M  V30 3460 O 325.344 -5.70198 -0.151957 0
M  V30 3461 O 324.278 -5.74775 1.78653 0
M  V30 3462 H 328.104 -2.44075 1.80724 0
M  V30 3463 H 325.689 -1.16042 0.940992 0
M  V30 3464 H 327.571 -4.21254 0.111053 0
M  V30 3465 H 326.246 -3.19532 -0.51777 0
M  V30 3466 H 325.153 -3.2806 1.79798 0
M  V30 3467 H 326.486 -4.32568 2.34831 0
M  V30 3468 N 328.138 -0.959301 -1.25041 0
M  V30 3469 C 329.048 -0.489994 -2.29426 0
M  V30 3470 C 330.064 0.444944 -1.68215 0
M  V30 3471 O 331.24 0.320046 -1.98841 0
M  V30 3472 C 328.305 0.220309 -3.45999 0
M  V30 3473 C 327.366 -0.753418 -4.22637 0
M  V30 3474 C 326.599 -0.076918 -5.33645 0
M  V30 3475 O 326.822 1.13649 -5.58963 0
M  V30 3476 O 325.756 -0.764824 -5.97021 0
M  V30 3477 H 329.582 -1.35755 -2.71669 0
M  V30 3478 H 327.167 -0.725961 -1.30576 0
M  V30 3479 H 329.049 0.619677 -4.16819 0
M  V30 3480 H 327.724 1.06296 -3.0575 0
M  V30 3481 H 326.631 -1.20308 -3.54227 0
M  V30 3482 H 327.964 -1.56423 -4.66683 0
M  V30 3483 N 329.616 1.39756 -0.72842 0
M  V30 3484 C 330.862 2.00942 -0.273892 0
M  V30 3485 C 331.195 1.57656 1.13394 0
M  V30 3486 O 330.47 0.802434 1.77176 0
M  V30 3487 C 330.753 3.58211 -0.368346 0
M  V30 3488 C 330.606 4.11534 -1.81548 0
M  V30 3489 C 331.925 4.39372 0.253054 0
M  V30 3490 H 329.044 0.730047 -0.100996 0
M  V30 3491 H 331.686 1.66056 -0.923337 0
M  V30 3492 H 329.836 3.88061 0.184588 0
M  V30 3493 H 331.508 3.92431 -2.42478 0
M  V30 3494 H 329.751 3.65341 -2.33898 0
M  V30 3495 H 330.422 5.20682 -1.83288 0
M  V30 3496 H 332.898 4.15527 -0.218224 0
M  V30 3497 H 331.774 5.48677 0.156585 0
M  V30 3498 H 332.035 4.21358 1.33826 0
M  V30 3499 N 331.094 0.475555 1.50254 0
M  V30 3500 C 332.342 -0.077738 2.0195 0
M  V30 3501 C 332.663 -1.39813 1.35931 0
M  V30 3502 O 331.933 -1.89249 0.506123 0
M  V30 3503 H 330.513 -0.031719 0.746326 0
M  V30 3504 H 333.175 0.626995 1.84539 0
M  V30 3505 H 332.271 -0.225995 3.11281 0
M  V30 3506 N 332.573 -1.56217 0.208337 0
M  V30 3507 C 333.521 -2.21053 -0.723769 0
M  V30 3508 C 334.515 -1.18578 -1.20978 0
M  V30 3509 O 335.721 -1.36691 -1.17114 0
M  V30 3510 H 332.096 -0.708595 -0.251788 0
M  V30 3511 H 334.067 -2.98006 -0.153365 0
M  V30 3512 C 332.816 -2.89417 -1.927 0
M  V30 3513 H 332.139 -3.68019 -1.56212 0
M  V30 3514 H 333.579 -3.38201 -2.55727 0
M  V30 3515 C 332.038 -1.91166 -2.77411 0
M  V30 3516 O 332.568 -1.42026 -3.75754 0
M  V30 3517 N 330.774 -1.59105 -2.43175 0
M  V30 3518 H 330.321 -1.99259 -1.63259 0
M  V30 3519 H 330.279 -0.936255 -3.00136 0
M  V30 3520 N 334.051 0.0651679 -1.57465 0
M  V30 3521 C 335.014 1.06117 -2.03155 0
M  V30 3522 C 336.014 1.31204 -0.929632 0
M  V30 3523 O 337.204 1.26813 -1.19432 0
M  V30 3524 C 334.336 2.4032 -2.41783 0
M  V30 3525 H 335.529 0.667231 -2.92383 0
M  V30 3526 H 333.082 0.311075 -1.53173 0
M  V30 3527 H 333.817 2.84532 -1.55601 0
M  V30 3528 H 333.602 2.23451 -3.22199 0
M  V30 3529 H 335.092 3.11898 -2.77685 0
M  V30 3530 N 335.529 1.53961 0.336706 0
M  V30 3531 C 336.777 1.71197 1.07405 0
M  V30 3532 C 337.098 0.481475 1.88962 0
M  V30 3533 O 336.368 -0.504585 1.8929 0
M  V30 3534 H 334.948 0.631185 0.399517 0
M  V30 3535 H 337.61 1.91232 0.376323 0
M  V30 3536 H 336.706 2.58587 1.74755 0
M  V30 3537 N 337.007 -0.598083 1.45811 0
M  V30 3538 C 337.94 -1.7223 1.49706 0
M  V30 3539 C 338.918 -1.58732 0.352535 0
M  V30 3540 O 340.102 -1.80162 0.554438 0
M  V30 3541 C 337.229 -3.10148 1.3611 0
M  V30 3542 C 336.275 -3.42209 2.54549 0
M  V30 3543 S 337.108 -3.35989 4.16979 0
M  V30 3544 C 338.264 -4.76471 4.05865 0
M  V30 3545 H 338.497 -1.68665 2.44826 0
M  V30 3546 H 336.03 -0.775541 1.33509 0
M  V30 3547 H 337.988 -3.8972 1.28953 0
M  V30 3548 H 336.649 -3.11219 0.424451 0
M  V30 3549 H 335.842 -4.42652 2.40988 0
M  V30 3550 H 335.444 -2.70173 2.58617 0
M  V30 3551 H 337.736 -5.665 3.71596 0
M  V30 3552 H 338.679 -4.95089 5.06253 0
M  V30 3553 H 339.087 -4.52599 3.37364 0
M  V30 3554 N 338.485 -1.33259 -0.841409 0
M  V30 3555 C 339.715 -1.2742 -1.62628 0
M  V30 3556 C 340.123 0.157604 -1.88542 0
M  V30 3557 O 339.466 1.10938 -1.46419 0
M  V30 3558 C 339.528 -1.97797 -3.00194 0
M  V30 3559 C 339.192 -3.47109 -2.97261 0
M  V30 3560 C 340.189 -4.42358 -2.73159 0
M  V30 3561 C 337.874 -3.89247 -3.17478 0
M  V30 3562 C 339.868 -5.77718 -2.69296 0
M  V30 3563 C 337.555 -5.24713 -3.13241 0
M  V30 3564 C 338.553 -6.1876 -2.89181 0
M  V30 3565 O 338.241 -7.51745 -2.84843 0
M  V30 3566 H 337.973 -0.440436 -0.512827 0
M  V30 3567 H 340.527 -1.76153 -1.05638 0
M  V30 3568 H 338.757 -1.43652 -3.59028 0
M  V30 3569 H 340.446 -1.8549 -3.61038 0
M  V30 3570 H 341.212 -4.11127 -2.57294 0
M  V30 3571 H 337.091 -3.16456 -3.35226 0
M  V30 3572 H 340.635 -6.51097 -2.50436 0
M  V30 3573 H 336.532 -5.55569 -3.28654 0
M  V30 3574 H 337.3 -7.61262 -3.00702 0
M  V30 3575 N 339.963 1.05934 -1.16686 0
M  V30 3576 C 340.893 2.1546 -0.899949 0
M  V30 3577 C 341.874 1.69391 0.155154 0
M  V30 3578 O 343.059 1.94199 0.00648693 0
M  V30 3579 C 340.189 3.44939 -0.404241 0
M  V30 3580 C 339.143 4.04536 -1.39767 0
M  V30 3581 C 338.469 5.29268 -0.760216 0
M  V30 3582 C 339.769 4.42893 -2.76845 0
M  V30 3583 H 341.463 2.38046 -1.81588 0
M  V30 3584 H 339.009 1.14404 -0.874514 0
M  V30 3585 H 340.962 4.20901 -0.204971 0
M  V30 3586 H 339.686 3.21983 0.547206 0
M  V30 3587 H 338.345 3.30635 -1.58355 0
M  V30 3588 H 337.993 5.02611 0.197831 0
M  V30 3589 H 337.693 5.70101 -1.42332 0
M  V30 3590 H 339.217 6.07924 -0.57105 0
M  V30 3591 H 340.631 5.09921 -2.62019 0
M  V30 3592 H 339.028 4.94721 -3.39663 0
M  V30 3593 H 340.098 3.53584 -3.31823 0
M  V30 3594 N 341.441 0.965919 1.2453 0
M  V30 3595 C 342.371 0.513476 2.27784 0
M  V30 3596 C 343.352 -0.445974 1.6415 0
M  V30 3597 O 344.537 -0.342485 1.91156 0
M  V30 3598 C 341.667 -0.198839 3.4673 0
M  V30 3599 C 340.621 0.676456 4.2262 0
M  V30 3600 C 339.947 -0.167248 5.34438 0
M  V30 3601 C 341.247 1.96017 4.84123 0
M  V30 3602 H 342.941 1.3765 2.65881 0
M  V30 3603 H 340.487 0.663321 1.27813 0
M  V30 3604 H 342.44 -0.526567 4.18097 0
M  V30 3605 H 341.164 -1.0962 3.07654 0
M  V30 3606 H 339.823 0.98743 3.53052 0
M  V30 3607 H 339.471 -1.0647 4.91603 0
M  V30 3608 H 339.171 0.415181 5.86131 0
M  V30 3609 H 340.695 -0.489688 6.08633 0
M  V30 3610 H 342.109 1.69814 5.47573 0
M  V30 3611 H 340.506 2.48918 5.4604 0
M  V30 3612 H 341.576 2.65622 4.05676 0
M  V30 3613 N 342.919 -1.39368 0.735821 0
M  V30 3614 C 344.144 -2.05319 0.293052 0
M  V30 3615 C 344.569 -1.55115 -1.064 0
M  V30 3616 O 343.927 -0.695261 -1.67439 0
M  V30 3617 C 343.975 -3.59305 0.305323 0
M  V30 3618 O 343.079 -4.06299 -0.706761 0
M  V30 3619 H 342.42 -0.650529 0.13307 0
M  V30 3620 H 344.95 -1.78386 1.00197 0
M  V30 3621 H 344.96 -4.07724 0.149997 0
M  V30 3622 H 343.635 -3.95207 1.29553 0
M  V30 3623 H 342.212 -3.69292 -0.517504 0
M  V30 3624 N 344.397 -0.483516 -1.5 0
M  V30 3625 C 345.622 0.0667119 -2.07293 0
M  V30 3626 C 346.047 1.3164 -1.3436 0
M  V30 3627 O 345.405 1.76945 -0.394987 0
M  V30 3628 C 345.453 0.321126 -3.59167 0
M  V30 3629 O 344.557 1.39927 -3.87936 0
M  V30 3630 H 343.898 -0.0184758 -0.663743 0
M  V30 3631 H 346.428 -0.678125 -1.93035 0
M  V30 3632 H 346.438 0.557906 -4.04168 0
M  V30 3633 H 345.113 -0.592007 -4.11665 0
M  V30 3634 H 343.69 1.14882 -3.54763 0
M  V30 3635 N 345.875 1.56104 -0.216619 0
M  V30 3636 C 346.805 2.23063 0.690296 0
M  V30 3637 C 347.786 1.20072 1.20485 0
M  V30 3638 O 348.971 1.48643 1.24976 0
M  V30 3639 C 346.101 2.90672 1.90072 0
M  V30 3640 C 345.055 4.00092 1.5202 0
M  V30 3641 C 344.381 4.54972 2.80899 0
M  V30 3642 C 345.681 5.17398 0.71391 0
M  V30 3643 H 347.375 2.99109 0.132038 0
M  V30 3644 H 344.921 1.43866 0.0620664 0
M  V30 3645 H 346.874 3.36204 2.54057 0
M  V30 3646 H 345.598 2.12066 2.48386 0
M  V30 3647 H 344.257 3.55283 0.903839 0
M  V30 3648 H 343.905 3.73102 3.37348 0
M  V30 3649 H 343.605 5.28817 2.56176 0
M  V30 3650 H 345.129 5.0322 3.45836 0
M  V30 3651 H 346.543 5.59342 1.25735 0
M  V30 3652 H 344.94 5.97444 0.563951 0
M  V30 3653 H 346.01 4.84088 -0.280527 0
M  V30 3654 N 347.353 -0.0568162 1.57498 0
M  V30 3655 C 348.578 -0.769402 1.92601 0
M  V30 3656 C 349.003 -1.69559 0.814336 0
M  V30 3657 O 348.361 -1.79811 -0.231903 0
M  V30 3658 C 348.409 -1.52634 3.26704 0
M  V30 3659 O 347.513 -2.63797 3.16994 0
M  V30 3660 H 346.854 -0.208909 0.63028 0
M  V30 3661 H 349.384 -0.0205798 2.0459 0
M  V30 3662 H 349.394 -1.90234 3.60936 0
M  V30 3663 H 348.069 -0.846875 4.07186 0
M  V30 3664 H 346.646 -2.28943 2.94346 0
M  V30 3665 N 348.832 -1.54138 -0.328536 0
M  V30 3666 C 350.057 -1.76378 -1.09112 0
M  V30 3667 C 350.482 -0.508596 -1.81094 0
M  V30 3668 O 349.84 0.539598 -1.73084 0
M  V30 3669 C 349.888 -2.95358 -2.06872 0
M  V30 3670 O 348.992 -2.66556 -3.14677 0
M  V30 3671 H 348.333 -0.584614 -0.314838 0
M  V30 3672 H 350.863 -2.01146 -0.374348 0
M  V30 3673 H 350.873 -3.22566 -2.4983 0
M  V30 3674 H 349.548 -3.86385 -1.5388 0
M  V30 3675 H 348.125 -2.50282 -2.7643 0
M  V30 3676 N 350.31 0.590341 -1.46126 0
M  V30 3677 C 351.558 1.34616 -1.50742 0
M  V30 3678 C 351.879 1.94363 -0.157486 0
M  V30 3679 O 351.149 1.78136 0.815136 0
M  V30 3680 H 349.729 0.499789 -0.555175 0
M  V30 3681 H 352.391 0.691953 -1.82203 0
M  V30 3682 H 351.487 2.15678 -2.25587 0
M  V30 3683 N 351.788 1.33704 0.83433 0
M  V30 3684 C 353.034 1.25603 1.59222 0
M  V30 3685 C 353.367 -0.176659 1.93395 0
M  V30 3686 O 352.642 -1.11915 1.59076 0
M  V30 3687 C 352.925 2.13576 2.89926 0
M  V30 3688 C 352.778 3.65326 2.62406 0
M  V30 3689 C 354.097 2.01238 3.91397 0
M  V30 3690 H 351.216 0.457613 0.577719 0
M  V30 3691 H 353.858 1.63848 0.961972 0
M  V30 3692 H 352.008 1.8109 3.43713 0
M  V30 3693 H 353.68 4.08124 2.15017 0
M  V30 3694 H 351.923 3.8698 1.96033 0
M  V30 3695 H 352.594 4.22232 3.55562 0
M  V30 3696 H 355.07 2.29738 3.46929 0
M  V30 3697 H 353.946 2.65036 4.80673 0
M  V30 3698 H 354.207 0.985951 4.30966 0
M  V30 3699 N 353.266 -1.05314 1.17247 0
M  V30 3700 C 354.491 -1.82509 0.985148 0
M  V30 3701 C 354.916 -1.82343 -0.461788 0
M  V30 3702 O 354.274 -1.23151 -1.33055 0
M  V30 3703 C 354.322 -3.26566 1.52929 0
M  V30 3704 O 353.426 -4.05666 0.742225 0
M  V30 3705 H 352.767 -0.564347 0.349869 0
M  V30 3706 H 355.297 -1.32718 1.55715 0
M  V30 3707 H 355.307 -3.77369 1.55103 0
M  V30 3708 H 353.982 -3.26001 2.58256 0
M  V30 3709 H 352.559 -3.64397 0.791794 0
M  V30 3710 N 354.744 -0.972509 -1.24016 0
M  V30 3711 C 355.992 -0.635776 -1.91839 0
M  V30 3712 C 356.313 0.832312 -1.76345 0
M  V30 3713 O 355.583 1.5946 -1.13795 0
M  V30 3714 H 354.163 -0.232157 -0.710009 0
M  V30 3715 H 356.825 -1.23462 -1.50809 0
M  V30 3716 H 355.921 -0.880545 -2.99421 0
M  V30 3717 N 356.222 1.38976 -0.743202 0
M  V30 3718 C 357.132 2.3434 -0.110399 0
M  V30 3719 C 358.148 1.58741 0.712559 0
M  V30 3720 O 359.324 1.9099 0.639125 0
M  V30 3721 C 356.389 3.37812 0.780012 0
M  V30 3722 C 355.45 4.29263 -0.0561319 0
M  V30 3723 C 354.683 5.27793 0.791875 0
M  V30 3724 O 354.906 5.33043 2.03031 0
M  V30 3725 O 353.84 6.01512 0.216183 0
M  V30 3726 H 357.666 2.90129 -0.897714 0
M  V30 3727 H 355.251 1.40643 -0.503966 0
M  V30 3728 H 357.133 4.01194 1.28923 0
M  V30 3729 H 355.808 2.84395 1.546 0
M  V30 3730 H 354.715 3.69076 -0.611056 0
M  V30 3731 H 356.048 4.85907 -0.784531 0
M  V30 3732 N 357.7 0.491464 1.49741 0
M  V30 3733 C 358.946 -0.0565092 2.02721 0
M  V30 3734 C 359.279 -1.37522 1.37118 0
M  V30 3735 O 358.554 -1.87866 0.503645 0
M  V30 3736 C 358.837 -0.219051 3.59433 0
M  V30 3737 C 358.69 1.12211 4.35579 0
M  V30 3738 C 360.009 -0.964157 4.29409 0
M  V30 3739 H 357.128 -0.0190627 0.736753 0
M  V30 3740 H 359.77 0.641021 1.7886 0
M  V30 3741 H 357.92 -0.813165 3.79895 0
M  V30 3742 H 359.592 1.75437 4.26637 0
M  V30 3743 H 357.835 1.71377 3.98513 0
M  V30 3744 H 358.506 0.961794 5.43556 0
M  V30 3745 H 360.982 -0.460378 4.13545 0
M  V30 3746 H 359.858 -1.04671 5.38828 0
M  V30 3747 H 360.119 -2.00563 3.93988 0
M  V30 3748 N 359.178 -1.55987 0.224894 0
M  V30 3749 C 360.128 -2.17076 -0.697296 0
M  V30 3750 C 361.112 -1.12006 -1.15514 0
M  V30 3751 O 362.304 -1.37985 -1.10857 0
M  V30 3752 C 359.433 -2.85679 -1.90374 0
M  V30 3753 C 358.519 -3.97977 -1.46543 0
M  V30 3754 N 358.91 -5.00359 -0.739909 0
M  V30 3755 C 357.208 -4.10128 -1.75245 0
M  V30 3756 C 357.909 -5.79407 -0.515939 0
M  V30 3757 N 356.885 -5.32892 -1.07364 0
M  V30 3758 H 360.687 -2.93592 -0.134594 0
M  V30 3759 H 358.201 -1.62379 0.0262885 0
M  V30 3760 H 360.198 -3.27857 -2.57518 0
M  V30 3761 H 358.858 -2.1066 -2.47088 0
M  V30 3762 H 359.869 -5.16412 -0.392253 0
M  V30 3763 H 356.546 -3.46263 -2.33255 0
M  V30 3764 H 357.936 -6.71872 0.0617349 0
M  V30 3765 N 360.656 0.0484629 -1.57525 0
M  V30 3766 C 361.903 0.743125 -1.88372 0
M  V30 3767 C 362.231 1.76383 -0.819715 0
M  V30 3768 O 361.486 1.94855 0.181659 0
M  V30 3769 C 361.785 1.46632 -3.25935 0
M  V30 3770 C 361.451 0.583427 -4.4711 0
M  V30 3771 C 360.113 0.340191 -4.79996 0
M  V30 3772 C 362.465 -0.0273345 -5.21193 0
M  V30 3773 C 359.793 -0.522903 -5.84365 0
M  V30 3774 C 362.145 -0.878017 -6.26477 0
M  V30 3775 C 360.809 -1.1309 -6.5785 0
M  V30 3776 H 360.079 0.271929 -0.689301 0
M  V30 3777 H 362.726 0.00336166 -1.915 0
M  V30 3778 H 361.031 2.2789 -3.18706 0
M  V30 3779 H 362.728 2.00902 -3.47044 0
M  V30 3780 H 359.318 0.783151 -4.21384 0
M  V30 3781 H 363.502 0.147654 -4.9608 0
M  V30 3782 H 358.758 -0.727335 -6.07058 0
M  V30 3783 H 362.932 -1.35789 -6.83033 0
M  V30 3784 H 360.559 -1.80144 -7.38547 0
M  V30 3785 N 362.134 1.5431 0.320358 0
M  V30 3786 C 363.38 1.72924 1.05949 0
M  V30 3787 C 363.713 0.503185 1.87568 0
M  V30 3788 O 362.988 -0.499839 1.87968 0
M  V30 3789 C 363.271 3.00676 1.98156 0
M  V30 3790 C 363.124 4.3354 1.19845 0
M  V30 3791 C 364.443 3.24198 2.9763 0
M  V30 3792 H 361.562 0.629195 0.383774 0
M  V30 3793 H 364.204 1.87008 0.335854 0
M  V30 3794 H 362.354 2.888 2.59859 0
M  V30 3795 H 364.026 4.57305 0.605773 0
M  V30 3796 H 362.269 4.309 0.500784 0
M  V30 3797 H 362.94 5.19156 1.87567 0
M  V30 3798 H 365.416 3.35557 2.4605 0
M  V30 3799 H 364.292 4.14938 3.59329 0
M  V30 3800 H 364.553 2.41577 3.7026 0
M  V30 3801 N 363.613 -0.582584 1.46437 0
M  V30 3802 C 364.89 -1.34276 1.4223 0
M  V30 3803 C 365.27 -2.10835 0.10583 0
M  V30 3804 O 364.618 -2.09485 -0.912596 0
M  V30 3805 C 364.828 -2.26865 2.65204 0
M  V30 3806 C 366.176 -2.88691 3.11356 0
M  V30 3807 O 367.2 -2.37178 2.65753 0
M  V30 3808 O 366.059 -3.82255 3.90568 0
M  V30 3809 H 363.153 -0.603326 0.565621 0
M  V30 3810 H 365.699 -0.603591 1.58603 0
M  V30 3811 H 364.471 -1.69724 3.52576 0
M  V30 3812 H 364.094 -3.08122 2.5129 0
M  V30 3813 N 365.091 -1.34144 -0.827227 0
M  V30 3814 C 366.054 -1.25264 -1.91942 0
M  V30 3815 C 367.054 -0.168866 -1.59911 0
M  V30 3816 O 368.244 -0.421198 -1.69031 0
M  V30 3817 C 365.376 -0.932952 -3.27885 0
M  V30 3818 H 366.569 -2.22357 -2.0124 0
M  V30 3819 H 364.122 -1.1837 -1.0207 0
M  V30 3820 H 364.857 0.0349917 -3.24281 0
M  V30 3821 H 364.642 -1.71682 -3.52516 0
M  V30 3822 H 366.132 -0.895874 -4.07877 0
M  V30 3823 N 366.569 1.04691 -1.17803 0
M  V30 3824 C 367.817 1.7743 -0.967617 0
M  V30 3825 C 368.138 1.88359 0.504574 0
M  V30 3826 O 367.408 1.40402 1.36617 0
M  V30 3827 H 365.988 0.657242 -0.355024 0
M  V30 3828 H 368.65 1.2638 -1.48371 0
M  V30 3829 H 367.746 2.78924 -1.40027 0
M  V30 3830 N 368.047 0.979072 1.23499 0
M  V30 3831 C 369.277 0.664237 1.95631 0
M  V30 3832 C 369.685 -0.772653 1.72704 0
M  V30 3833 O 369.028 -1.53141 1.01457 0
M  V30 3834 C 369.09 0.873115 3.48736 0
M  V30 3835 C 368.754 2.29182 3.95379 0
M  V30 3836 C 369.751 3.2704 4.04155 0
M  V30 3837 C 367.436 2.62256 4.28401 0
M  V30 3838 C 369.43 4.56052 4.45304 0
M  V30 3839 C 367.117 3.91491 4.69231 0
M  V30 3840 C 368.115 4.88201 4.77649 0
M  V30 3841 O 367.803 6.15129 5.17563 0
M  V30 3842 H 367.535 0.245915 0.629684 0
M  V30 3843 H 370.089 1.3127 1.57979 0
M  V30 3844 H 368.319 0.167476 3.86337 0
M  V30 3845 H 370.008 0.555642 4.02079 0
M  V30 3846 H 370.774 3.02819 3.78848 0
M  V30 3847 H 366.653 1.87692 4.21061 0
M  V30 3848 H 370.197 5.31538 4.51789 0
M  V30 3849 H 366.094 4.15508 4.93987 0
M  V30 3850 H 366.862 6.18862 5.35679 0
M  V30 3851 N 369.525 -1.3858 0.750561 0
M  V30 3852 C 370.475 -2.27795 0.0965949 0
M  V30 3853 C 371.459 -1.45048 -0.696411 0
M  V30 3854 O 372.651 -1.67812 -0.562863 0
M  V30 3855 C 369.78 -3.33894 -0.798085 0
M  V30 3856 C 368.866 -4.241 0.0016067 0
M  V30 3857 N 369.257 -4.95067 1.03647 0
M  V30 3858 C 367.555 -4.45429 -0.225674 0
M  V30 3859 C 368.256 -5.61489 1.52004 0
M  V30 3860 N 367.232 -5.37135 0.835874 0
M  V30 3861 H 371.034 -2.80125 0.889228 0
M  V30 3862 H 368.548 -1.51446 0.586323 0
M  V30 3863 H 370.545 -3.96693 -1.28219 0
M  V30 3864 H 369.205 -2.83123 -1.5897 0
M  V30 3865 H 370.216 -4.98104 1.41819 0
M  V30 3866 H 366.893 -4.05571 -0.990872 0
M  V30 3867 H 368.283 -6.28264 2.38188 0
M  V30 3868 N 371.003 -0.499398 -1.49478 0
M  V30 3869 C 372.249 0.0457576 -2.02748 0
M  V30 3870 C 372.582 1.36793 -1.37846 0
M  V30 3871 O 371.857 1.87596 -0.513601 0
M  V30 3872 C 372.14 0.199986 -3.59544 0
M  V30 3873 C 371.993 -1.1452 -4.34977 0
M  V30 3874 C 373.312 0.94137 -4.29914 0
M  V30 3875 H 370.431 0.0151552 -0.736844 0
M  V30 3876 H 373.073 -0.650498 -1.78518 0
M  V30 3877 H 371.223 0.793007 -3.8032 0
M  V30 3878 H 372.895 -1.77697 -4.25701 0
M  V30 3879 H 371.138 -1.73488 -3.97598 0
M  V30 3880 H 371.809 -0.990607 -5.43039 0
M  V30 3881 H 374.285 0.43844 -4.13784 0
M  V30 3882 H 373.161 1.01812 -5.39375 0
M  V30 3883 H 373.422 1.98471 -3.95046 0
M  V30 3884 N 372.481 1.55866 -0.233164 0
M  V30 3885 C 373.414 2.16794 0.712442 0
M  V30 3886 C 374.392 1.1158 1.18273 0
M  V30 3887 O 375.576 1.39897 1.26337 0
M  V30 3888 C 372.703 2.75757 1.96661 0
M  V30 3889 C 371.749 3.93902 1.63533 0
M  V30 3890 S 372.582 5.30223 0.74995 0
M  V30 3891 C 373.738 5.92631 2.01343 0
M  V30 3892 H 373.971 2.96662 0.194617 0
M  V30 3893 H 371.504 1.5439 -0.0177425 0
M  V30 3894 H 373.462 3.10367 2.68668 0
M  V30 3895 H 372.123 1.9586 2.45556 0
M  V30 3896 H 371.316 4.33702 2.56747 0
M  V30 3897 H 370.918 3.60499 0.995804 0
M  V30 3898 H 373.21 6.09312 2.96219 0
M  V30 3899 H 374.153 6.88388 1.65915 0
M  V30 3900 H 374.561 5.21571 2.15925 0
M  V30 3901 N 373.959 -0.0401083 1.57549 0
M  V30 3902 C 375.207 -0.731677 1.8839 0
M  V30 3903 C 375.528 -1.76481 0.829425 0
M  V30 3904 O 374.798 -1.95411 -0.1383 0
M  V30 3905 H 373.378 -0.273225 0.695239 0
M  V30 3906 H 376.04 -0.00867725 1.94898 0
M  V30 3907 H 375.136 -1.22816 2.86919 0
M  V30 3908 N 375.437 -1.54477 -0.31217 0
M  V30 3909 C 376.37 -1.79519 -1.40884 0
M  V30 3910 C 377.348 -0.645753 -1.49227 0
M  V30 3911 O 378.532 -0.884468 -1.66461 0
M  V30 3912 C 375.659 -1.92194 -2.78889 0
M  V30 3913 C 374.705 -3.14555 -2.88023 0
M  V30 3914 S 375.538 -4.72893 -2.51262 0
M  V30 3915 C 376.694 -4.8849 -3.91317 0
M  V30 3916 H 376.927 -2.72256 -1.19432 0
M  V30 3917 H 374.46 -1.45746 -0.509654 0
M  V30 3918 H 376.418 -2.00182 -3.58382 0
M  V30 3919 H 375.079 -1.00414 -2.97617 0
M  V30 3920 H 374.272 -3.20193 -3.89221 0
M  V30 3921 H 373.874 -3.04955 -2.16514 0
M  V30 3922 H 376.166 -4.71826 -4.86196 0
M  V30 3923 H 377.109 -5.90588 -3.90656 0
M  V30 3924 H 377.517 -4.16715 -3.80801 0
M  V30 3925 N 376.915 0.57481 -1.46744 0
M  V30 3926 C 378.163 1.33009 -1.52161 0
M  V30 3927 C 378.484 1.94185 -0.178092 0
M  V30 3928 O 377.754 1.7899 0.796196 0
M  V30 3929 H 376.334 0.493873 -0.560445 0
M  V30 3930 H 378.996 0.672589 -1.82927 0
M  V30 3931 H 378.092 2.13273 -2.27862 0
M  V30 3932 N 378.394 1.34581 0.820102 0
M  V30 3933 C 379.357 1.2628 1.91275 0
M  V30 3934 C 380.357 0.177344 1.59819 0
M  V30 3935 O 381.547 0.430156 1.68806 0
M  V30 3936 C 378.679 0.950327 3.27386 0
M  V30 3937 H 379.872 2.23421 2.00057 0
M  V30 3938 H 377.425 1.1891 1.0144 0
M  V30 3939 H 378.16 -0.0177938 3.24295 0
M  V30 3940 H 377.945 1.73549 3.51601 0
M  V30 3941 H 379.435 0.917492 4.07396 0
M  V30 3942 N 379.872 -1.04064 1.18357 0
M  V30 3943 C 381.118 -1.77528 0.980397 0
M  V30 3944 C 381.451 -1.87948 -0.48879 0
M  V30 3945 O 380.726 -1.3876 -1.36293 0
M  V30 3946 C 381.009 -3.20797 1.63588 0
M  V30 3947 C 380.862 -3.1832 3.17793 0
M  V30 3948 C 382.181 -4.18911 1.34914 0
M  V30 3949 H 379.3 -0.644443 0.357578 0
M  V30 3950 H 381.942 -1.2156 1.46024 0
M  V30 3951 H 380.092 -3.68586 1.22788 0
M  V30 3952 H 381.764 -2.78521 3.67728 0
M  V30 3953 H 380.007 -2.56351 3.49952 0
M  V30 3954 H 380.678 -4.19489 3.58794 0
M  V30 3955 H 383.154 -3.7967 1.70265 0
M  V30 3956 H 382.03 -5.17374 1.83346 0
M  V30 3957 H 382.291 -4.41262 0.272027 0
M  V30 3958 N 381.35 -0.985608 -1.22978 0
M  V30 3959 C 382.26 -0.538548 -2.28335 0
M  V30 3960 C 383.276 0.409163 -1.69121 0
M  V30 3961 O 384.452 0.277797 -1.99475 0
M  V30 3962 C 381.517 0.146867 -3.46389 0
M  V30 3963 C 380.578 -0.842896 -4.20944 0
M  V30 3964 C 379.811 -0.190095 -5.33361 0
M  V30 3965 O 380.034 1.01767 -5.61248 0
M  V30 3966 O 378.968 -0.891289 -5.95264 0
M  V30 3967 H 382.794 -1.41487 -2.68729 0
M  V30 3968 H 380.379 -0.753495 -1.29007 0
M  V30 3969 H 382.261 0.531125 -4.1804 0
M  V30 3970 H 380.936 0.997871 -3.07935 0
M  V30 3971 H 379.843 -1.27795 -3.51595 0
M  V30 3972 H 381.176 -1.66287 -4.6326 0
M  V30 3973 N 382.828 1.3818 -0.7579 0
M  V30 3974 C 383.738 2.3421 -0.135247 0
M  V30 3975 C 384.754 1.59487 0.695683 0
M  V30 3976 O 385.93 1.91657 0.618832 0
M  V30 3977 C 382.995 3.3862 0.744139 0
M  V30 3978 C 382.056 4.2918 -0.101658 0
M  V30 3979 C 381.289 5.28603 0.735851 0
M  V30 3980 O 381.512 5.35166 1.97366 0
M  V30 3981 O 380.446 6.01707 0.152372 0
M  V30 3982 H 384.272 2.8916 -0.928436 0
M  V30 3983 H 381.857 1.40101 -0.518855 0
M  V30 3984 H 383.739 4.02539 1.2466 0
M  V30 3985 H 382.414 2.86019 1.51575 0
M  V30 3986 H 381.321 3.68407 -0.650167 0
M  V30 3987 H 382.654 4.85048 -0.836024 0
M  V30 3988 N 384.306 0.507319 1.49211 0
M  V30 3989 C 385.253 -0.267728 2.29242 0
M  V30 3990 C 386.223 -0.954609 1.35928 0
M  V30 3991 O 387.408 -0.960046 1.64887 0
M  V30 3992 C 384.548 -1.32243 3.18756 0
M  V30 3993 C 383.661 -0.64669 4.27132 0
M  V30 3994 C 382.796 -1.68238 5.03855 0
M  V30 3995 C 381.835 -0.98885 6.0406 0
M  V30 3996 N 380.972 -1.96903 6.73924 0
M  V30 3997 H 385.812 0.420968 2.95012 0
M  V30 3998 H 383.349 0.219443 1.45454 0
M  V30 3999 H 385.307 -1.94599 3.69036 0
M  V30 4000 H 383.937 -1.97981 2.54958 0
M  V30 4001 H 382.989 0.0902926 3.80293 0
M  V30 4002 H 384.301 -0.101058 4.98698 0
M  V30 4003 H 383.455 -2.38081 5.58034 0
M  V30 4004 H 382.194 -2.26187 4.32077 0
M  V30 4005 H 381.199 -0.276222 5.49106 0
M  V30 4006 H 382.424 -0.415767 6.77826 0
M  V30 4007 H 380.37 -2.53803 6.04913 0
M  V30 4008 H 380.287 -1.47423 7.41487 0
M  V30 4009 H 381.555 -2.66015 7.32705 0
M  V30 4010 N 385.784 -1.5574 0.241426 0
M  V30 4011 C 387.061 -1.90704 -0.434881 0
M  V30 4012 C 387.441 -1.16145 -1.76277 0
M  V30 4013 O 386.789 -0.277152 -2.26813 0
M  V30 4014 C 386.999 -3.43657 -0.608343 0
M  V30 4015 C 388.347 -4.14806 -0.906725 0
M  V30 4016 O 389.371 -3.49366 -0.694408 0
M  V30 4017 O 388.23 -5.30548 -1.31075 0
M  V30 4018 H 385.324 -0.793592 -0.23268 0
M  V30 4019 H 387.87 -1.67288 0.285086 0
M  V30 4020 H 386.642 -3.89927 0.327505 0
M  V30 4021 H 386.265 -3.72918 -1.37906 0
M  V30 4022 N 387.262 0.0317525 -1.57568 0
M  V30 4023 C 388.21 1.05165 -2.07468 0
M  V30 4024 C 389.204 1.3761 -0.98792 0
M  V30 4025 O 390.41 1.36546 -1.17282 0
M  V30 4026 H 386.785 0.35666 -0.66204 0
M  V30 4027 H 388.756 0.604958 -2.92203 0
M  V30 4028 C 387.505 2.34488 -2.56731 0
M  V30 4029 H 386.828 2.10383 -3.39969 0
M  V30 4030 H 388.268 3.04203 -2.95358 0
M  V30 4031 C 386.727 3.03266 -1.46736 0
M  V30 4032 O 387.257 3.92988 -0.832069 0
M  V30 4033 N 385.463 2.6455 -1.20256 0
M  V30 4034 H 385.01 1.91674 -1.72102 0
M  V30 4035 H 384.968 3.10886 -0.468737 0
M  V30 4036 N 388.74 1.54641 0.303973 0
M  V30 4037 C 389.687 1.85386 1.37479 0
M  V30 4038 C 390.657 0.702528 1.50512 0
M  V30 4039 O 391.842 0.950867 1.65418 0
M  V30 4040 C 388.982 2.10413 2.73533 0
M  V30 4041 C 388.095 3.38049 2.68974 0
M  V30 4042 C 387.23 3.52934 3.97002 0
M  V30 4043 C 386.269 4.74373 3.86829 0
M  V30 4044 N 385.406 4.8608 5.06627 0
M  V30 4045 H 390.246 2.76732 1.1056 0
M  V30 4046 H 387.783 1.37034 0.534805 0
M  V30 4047 H 389.741 2.22919 3.52652 0
M  V30 4048 H 388.371 1.22338 2.98719 0
M  V30 4049 H 387.423 3.3418 1.81736 0
M  V30 4050 H 388.735 4.27288 2.57346 0
M  V30 4051 H 387.889 3.65088 4.84557 0
M  V30 4052 H 386.628 2.61824 4.1146 0
M  V30 4053 H 385.633 4.62255 2.97658 0
M  V30 4054 H 386.858 5.66888 3.73918 0
M  V30 4055 H 384.804 3.97891 5.21554 0
M  V30 4056 H 384.721 5.69315 4.9741 0
M  V30 4057 H 385.989 5.02587 5.95841 0
M  V30 4058 N 390.218 -0.567019 1.47046 0
M  V30 4059 C 391.181 -1.65696 1.58359 0
M  V30 4060 C 392.181 -1.54097 0.459441 0
M  V30 4061 O 393.371 -1.58432 0.724225 0
M  V30 4062 C 390.503 -3.05197 1.51879 0
M  V30 4063 H 391.696 -1.57019 2.5551 0
M  V30 4064 H 389.249 -0.786148 1.3509 0
M  V30 4065 H 389.984 -3.19417 0.560673 0
M  V30 4066 H 389.769 -3.15025 2.33455 0
M  V30 4067 H 391.259 -3.84511 1.62913 0
M  V30 4068 N 391.696 -1.35014 -0.812953 0
M  V30 4069 C 392.924 -1.31031 -1.6012 0
M  V30 4070 C 393.339 0.113558 -1.88458 0
M  V30 4071 O 392.696 1.06363 -1.48301 0
M  V30 4072 C 392.747 -2.10872 -2.93624 0
M  V30 4073 O 392.468 -3.47706 -2.66518 0
M  V30 4074 C 393.969 -2.14401 -3.88004 0
M  V30 4075 H 391.189 -0.45037 -0.497401 0
M  V30 4076 H 393.733 -1.77775 -1.01076 0
M  V30 4077 H 391.888 -1.67744 -3.492 0
M  V30 4078 H 392.302 -3.89097 -3.51715 0
M  V30 4079 H 393.776 -2.74669 -4.78812 0
M  V30 4080 H 394.253 -1.14105 -4.24119 0
M  V30 4081 H 394.859 -2.57662 -3.38364 0
M  V30 4082 N 393.175 1.03435 -1.18907 0
M  V30 4083 C 394.105 2.13503 -0.945448 0
M  V30 4084 C 395.086 1.69682 0.119189 0
M  V30 4085 O 396.271 1.94169 -0.034707 0
M  V30 4086 C 393.401 3.44004 -0.477316 0
M  V30 4087 C 392.355 4.0148 -1.48316 0
M  V30 4088 C 391.681 5.27537 -0.872311 0
M  V30 4089 C 392.981 4.36921 -2.86177 0
M  V30 4090 H 394.675 2.34141 -1.86597 0
M  V30 4091 H 392.221 1.12523 -0.898584 0
M  V30 4092 H 394.174 4.20372 -0.294204 0
M  V30 4093 H 392.898 3.23072 0.478786 0
M  V30 4094 H 391.557 3.27201 -1.65332 0
M  V30 4095 H 391.205 5.02917 0.0911752 0
M  V30 4096 H 390.905 5.66954 -1.54393 0
M  V30 4097 H 392.429 6.06576 -0.699871 0
M  V30 4098 H 393.843 5.04248 -2.72776 0
M  V30 4099 H 392.24 4.87405 -3.50081 0
M  V30 4100 H 393.31 3.46466 -3.39248 0
M  V30 4101 N 394.653 0.992116 1.22453 0
M  V30 4102 C 395.583 0.561677 2.26644 0
M  V30 4103 C 396.564 -0.411055 1.65059 0
M  V30 4104 O 397.749 -0.301861 1.9184 0
M  V30 4105 C 394.879 -0.125247 3.47074 0
M  V30 4106 C 393.833 0.765948 4.21091 0
M  V30 4107 C 393.159 -0.0538484 5.34673 0
M  V30 4108 C 394.459 2.06242 4.79856 0
M  V30 4109 H 396.153 1.43259 2.62902 0
M  V30 4110 H 393.699 0.690283 1.26377 0
M  V30 4111 H 395.652 -0.437764 4.1912 0
M  V30 4112 H 394.376 -1.03069 3.0991 0
M  V30 4113 H 393.035 1.0621 3.50878 0
M  V30 4114 H 392.683 -0.960188 4.9375 0
M  V30 4115 H 392.383 0.539415 5.85119 0
M  V30 4116 H 393.907 -0.360477 6.09535 0
M  V30 4117 H 395.321 1.8139 5.43848 0
M  V30 4118 H 393.718 2.60444 5.40638 0
M  V30 4119 H 394.788 2.74167 3.99951 0
M  V30 4120 N 396.131 -1.37776 0.765217 0
M  V30 4121 C 397.377 -2.00604 0.336066 0
M  V30 4122 C 397.732 -1.59657 -1.07366 0
M  V30 4123 O 397.025 -0.829565 -1.7271 0
M  V30 4124 C 397.219 -3.5504 0.410053 0
M  V30 4125 C 397.048 -4.10985 1.82542 0
M  V30 4126 C 395.818 -4.42229 2.44461 0
M  V30 4127 C 398.016 -4.32438 2.78392 0
M  V30 4128 N 395.998 -4.8385 3.77839 0
M  V30 4129 C 397.369 -4.76596 3.96556 0
M  V30 4130 C 399.424 -4.14559 2.75764 0
M  V30 4131 C 398.127 -5.04748 5.12466 0
M  V30 4132 C 400.153 -4.43843 3.90842 0
M  V30 4133 C 399.515 -4.88235 5.07746 0
M  V30 4134 H 395.614 -0.763325 0.169881 0
M  V30 4135 H 398.198 -1.67197 0.997656 0
M  V30 4136 H 396.369 -3.87769 -0.221325 0
M  V30 4137 H 398.101 -4.0468 -0.0405285 0
M  V30 4138 H 394.856 -4.31079 1.96131 0
M  V30 4139 H 395.28 -5.08979 4.46396 0
M  V30 4140 H 399.922 -3.79415 1.86558 0
M  V30 4141 H 397.64 -5.38783 6.02277 0
M  V30 4142 H 401.226 -4.31603 3.90141 0
M  V30 4143 H 400.106 -5.10461 5.95315 0
M  V30 4144 N 397.609 -0.515225 -1.4894 0
M  V30 4145 C 398.886 0.0879088 -1.95402 0
M  V30 4146 C 399.266 1.52745 -1.45712 0
M  V30 4147 O 398.614 2.18238 -0.677093 0
M  V30 4148 C 398.824 -0.0141055 -3.48997 0
M  V30 4149 C 400.172 0.152646 -4.24326 0
M  V30 4150 O 401.196 0.0604025 -3.56149 0
M  V30 4151 O 400.055 0.34384 -5.45417 0
M  V30 4152 H 397.149 0.0874636 -0.822362 0
M  V30 4153 H 399.695 -0.578775 -1.59525 0
M  V30 4154 H 398.467 -1.01745 -3.77841 0
M  V30 4155 H 398.09 0.692091 -3.9153 0
M  V30 4156 N 399.087 1.5561 -0.249682 0
M  V30 4157 C 400.017 2.24477 0.642826 0
M  V30 4158 C 400.998 1.22601 1.17911 0
M  V30 4159 O 402.183 1.5126 1.21795 0
M  V30 4160 C 399.313 2.94638 1.83863 0
M  V30 4161 C 398.267 4.03227 1.435 0
M  V30 4162 C 397.593 4.60828 2.71186 0
M  V30 4163 C 398.893 5.18796 0.604002 0
M  V30 4164 H 400.587 2.99321 0.0685625 0
M  V30 4165 H 398.133 1.43965 0.0315363 0
M  V30 4166 H 400.086 3.41517 2.46868 0
M  V30 4167 H 398.81 2.17287 2.43832 0
M  V30 4168 H 397.469 3.57121 0.828275 0
M  V30 4169 H 397.117 3.80174 3.29358 0
M  V30 4170 H 396.817 5.34132 2.44901 0
M  V30 4171 H 398.341 5.10442 3.35084 0
M  V30 4172 H 399.755 5.61883 1.13842 0
M  V30 4173 H 398.152 5.98506 0.437097 0
M  V30 4174 H 399.222 4.83384 -0.383147 0
M  V30 4175 N 400.565 -0.0233959 1.57583 0
M  V30 4176 C 401.515 -1.03023 2.03397 0
M  V30 4177 C 402.499 -1.31701 0.924315 0
M  V30 4178 O 403.691 -1.31191 1.18819 0
M  V30 4179 C 400.82 -2.32961 2.52159 0
M  V30 4180 C 399.906 -2.07349 3.69956 0
M  V30 4181 N 400.297 -1.51814 4.82479 0
M  V30 4182 C 398.595 -2.37606 3.77438 0
M  V30 4183 C 399.296 -1.42136 5.64068 0
M  V30 4184 N 398.272 -1.89891 5.09355 0
M  V30 4185 H 402.074 -0.594962 2.87815 0
M  V30 4186 H 399.588 -0.229586 1.60769 0
M  V30 4187 H 401.585 -3.05906 2.83244 0
M  V30 4188 H 400.245 -2.77162 1.69149 0
M  V30 4189 H 401.256 -1.20008 5.03804 0
M  V30 4190 H 397.933 -2.84842 3.05239 0
M  V30 4191 H 399.323 -0.996405 6.64471 0
M  V30 4192 N 402.043 -1.548 -0.295768 0
M  V30 4193 C 402.99 -1.86113 -1.36494 0
M  V30 4194 C 403.96 -0.7105 -1.50137 0
M  V30 4195 O 405.145 -0.959626 -1.64912 0
M  V30 4196 C 402.285 -2.11861 -2.72413 0
M  V30 4197 C 401.398 -3.39471 -2.67177 0
M  V30 4198 C 400.533 -3.55035 -3.95125 0
M  V30 4199 C 399.572 -4.76418 -3.84308 0
M  V30 4200 N 398.709 -4.8876 -5.04042 0
M  V30 4201 H 403.549 -2.77314 -1.09091 0
M  V30 4202 H 401.086 -1.37315 -0.52753 0
M  V30 4203 H 403.044 -2.24786 -3.51464 0
M  V30 4204 H 401.674 -1.2392 -2.98066 0
M  V30 4205 H 400.726 -3.35139 -1.79962 0
M  V30 4206 H 402.038 -4.28646 -2.55076 0
M  V30 4207 H 401.192 -3.67653 -4.82614 0
M  V30 4208 H 399.931 -2.64002 -4.10066 0
M  V30 4209 H 398.936 -4.63827 -2.95202 0
M  V30 4210 H 400.161 -5.68863 -3.70906 0
M  V30 4211 H 398.107 -4.00652 -5.19436 0
M  V30 4212 H 398.024 -5.71945 -4.94384 0
M  V30 4213 H 399.292 -5.0574 -5.93167 0
M  V30 4214 N 403.521 0.559213 -1.47345 0
M  V30 4215 C 404.431 1.69388 -1.62311 0
M  V30 4216 C 405.447 1.6648 -0.505993 0
M  V30 4217 O 406.623 1.85964 -0.773262 0
M  V30 4218 C 403.688 3.05894 -1.63185 0
M  V30 4219 C 402.749 3.19885 -2.86307 0
M  V30 4220 C 401.982 4.49879 -2.87131 0
M  V30 4221 O 402.205 5.35217 -1.97229 0
M  V30 4222 O 401.139 4.67618 -3.78968 0
M  V30 4223 H 404.965 1.59706 -2.58317 0
M  V30 4224 H 402.55 0.728989 -1.30407 0
M  V30 4225 H 404.432 3.87133 -1.66451 0
M  V30 4226 H 403.107 3.15964 -0.70345 0
M  V30 4227 H 402.014 2.38052 -2.88587 0
M  V30 4228 H 403.347 3.14718 -3.78435 0
M  V30 4229 N 404.999 1.35443 0.805782 0
M  V30 4230 C 405.931 1.24285 1.92577 0
M  V30 4231 C 406.944 0.165962 1.61952 0
M  V30 4232 O 408.133 0.419303 1.73505 0
M  V30 4233 C 405.233 0.891272 3.2697 0
M  V30 4234 C 404.406 2.06669 3.85495 0
M  V30 4235 C 403.465 1.69077 4.98297 0
M  V30 4236 O 402.491 2.4096 5.15681 0
M  V30 4237 N 403.693 0.614869 5.77234 0
M  V30 4238 H 406.458 2.20777 2.02676 0
M  V30 4239 H 404.019 1.28623 0.983243 0
M  V30 4240 H 406.011 0.621256 3.99903 0
M  V30 4241 H 404.581 0.016004 3.12596 0
M  V30 4242 H 403.801 2.50046 3.04747 0
M  V30 4243 H 405.089 2.85237 4.21328 0
M  V30 4244 H 404.487 0.017648 5.65697 0
M  V30 4245 H 403.044 0.404636 6.50543 0
M  V30 4246 O 406.516 -0.944775 1.30982 0
M  V30 4247 H 407.207 -1.57432 1.12848 0
M  V30 END ATOM
M  V30 BEGIN BOND
M  V30 END BOND
M  V30 END CTAB
M  END
$$$$
