drugbank_target|P00403 Cytochrome c oxidase subunit 2 (DB02659; DB04464; DB05412)
 OpenBabel12092120313D

  0  0  0     0  0            999 V3000
M  V30 BEGIN CTAB
M  V30 COUNTS 3623 3670 0 0 0
M  V30 BEGIN ATOM
M  V30 1 H -0.908 1.98254 -0.117106 0
M  V30 2 N 0 1.576 0 0
M  V30 3 C 0.933 2.03868 1.02534 0
M  V30 4 C 1.911 0.928543 1.3348 0
M  V30 5 O 3.095 1.19667 1.45644 0
M  V30 6 C 0.222 2.43627 2.35294 0
M  V30 7 C -0.732 3.65373 2.2001 0
M  V30 8 S 0.101 5.13292 1.52614 0
M  V30 9 C 1.257 5.56322 2.86805 0
M  V30 10 H 1.49 2.90518 0.631377 0
M  V30 11 H -0.977 1.52953 0.210867 0
M  V30 12 H 0.981 2.67203 3.11629 0
M  V30 13 H -0.358 1.57376 2.7183 0
M  V30 14 H -1.165 3.90944 3.18086 0
M  V30 15 H -1.563 3.418 1.51819 0
M  V30 16 H 0.729 5.58782 3.83104 0
M  V30 17 H 1.672 6.56266 2.65933 0
M  V30 18 H 2.08 4.83886 2.90714 0
M  V30 19 N 1.4781 -0.272755 1.55222 0
M  V30 20 C 2.4411 -1.32041 1.87344 0
M  V30 21 C 3.4411 -1.42342 0.74803 0
M  V30 22 O 4.6311 -1.41488 1.0162 0
M  V30 23 C 1.7631 -2.70173 2.07893 0
M  V30 24 H 2.9561 -1.04789 2.80997 0
M  V30 25 H 0.5091 -0.51083 1.47717 0
M  V30 26 H 1.2441 -3.02605 1.16622 0
M  V30 27 H 1.0291 -2.64082 2.89833 0
M  V30 28 H 2.5191 -3.45869 2.34017 0
M  V30 29 N 2.9562 -1.48159 -0.537278 0
M  V30 30 C 3.9062 -1.5854 -1.63857 0
M  V30 31 C 4.8902 -0.442969 -1.54682 0
M  V30 32 O 6.0822 -0.69401 -1.62827 0
M  V30 33 C 3.2112 -1.62144 -3.02596 0
M  V30 34 C 2.2972 -2.81841 -3.16901 0
M  V30 35 N 2.6882 -4.06337 -3.01204 0
M  V30 36 C 0.9862 -2.79021 -3.47942 0
M  V30 37 C 1.6872 -4.86606 -3.18731 0
M  V30 38 N 0.6632 -4.19288 -3.45974 0
M  V30 39 H 4.4652 -2.5255 -1.50319 0
M  V30 40 H 1.9792 -1.4443 -0.742555 0
M  V30 41 H 3.9762 -1.67674 -3.81695 0
M  V30 42 H 2.6362 -0.69245 -3.17231 0
M  V30 43 H 3.6472 -4.36888 -2.78117 0
M  V30 44 H 0.3242 -1.95347 -3.6898 0
M  V30 45 H 1.7142 -5.95385 -3.11394 0
M  V30 46 N 4.4343 0.785586 -1.36625 0
M  V30 47 C 5.3973 1.87999 -1.31107 0
M  V30 48 C 6.3973 1.59316 -0.217959 0
M  V30 49 O 7.5873 1.67656 -0.472977 0
M  V30 50 C 4.7193 3.24861 -1.03334 0
M  V30 51 H 5.9123 1.94307 -2.2844 0
M  V30 52 H 3.4653 0.983813 -1.21453 0
M  V30 53 H 4.2003 3.24235 -0.0647432 0
M  V30 54 H 3.9853 3.4707 -1.82441 0
M  V30 55 H 5.4753 4.04929 -1.02088 0
M  V30 56 N 5.9124 1.20967 1.01018 0
M  V30 57 C 6.8754 0.965918 2.07853 0
M  V30 58 C 7.8754 -0.0610545 1.60684 0
M  V30 59 O 9.0654 0.175681 1.73312 0
M  V30 60 C 6.1974 0.455513 3.37843 0
M  V30 61 H 7.3904 1.91365 2.3091 0
M  V30 62 H 4.9434 1.02594 1.17916 0
M  V30 63 H 5.6784 -0.497381 3.20463 0
M  V30 64 H 5.4634 1.19622 3.73407 0
M  V30 65 H 6.9534 0.304667 4.16487 0
M  V30 66 N 7.3905 -1.2043 1.01659 0
M  V30 67 C 8.3225 -2.22626 0.544988 0
M  V30 68 C 9.3355 -1.58479 -0.372609 0
M  V30 69 O 10.5245 -1.77679 -0.170958 0
M  V30 70 C 7.6245 -3.38141 -0.22663 0
M  V30 71 C 6.7975 -4.31877 0.692876 0
M  V30 72 C 5.8565 -5.26191 -0.0311616 0
M  V30 73 O 4.8825 -5.6612 0.591343 0
M  V30 74 N 6.0845 -5.65618 -1.30601 0
M  V30 75 H 8.8495 -2.63716 1.42388 0
M  V30 76 H 6.4105 -1.34971 0.894116 0
M  V30 77 H 8.4025 -3.98239 -0.72024 0
M  V30 78 H 6.9725 -2.95943 -1.00681 0
M  V30 79 H 6.1925 -3.69746 1.36679 0
M  V30 80 H 7.4805 -4.91426 1.31824 0
M  V30 81 H 6.8785 -5.3519 -1.83269 0
M  V30 82 H 5.4355 -6.28025 -1.74435 0
M  V30 83 N 8.8686 -0.792821 -1.36206 0
M  V30 84 C 10.1146 -0.36733 -1.99446 0
M  V30 85 C 10.4476 1.05917 -1.62774 0
M  V30 86 O 9.7226 1.7324 -0.88421 0
M  V30 87 C 10.0056 -0.535044 -3.56103 0
M  V30 88 C 9.8586 -2.00548 -4.02617 0
M  V30 89 C 11.1776 0.0478191 -4.40074 0
M  V30 90 H 8.2966 -0.134941 -0.724541 0
M  V30 91 H 10.9386 -0.999794 -1.61568 0
M  V30 92 H 9.0886 0.00336329 -3.885 0
M  V30 93 H 10.7606 -2.60521 -3.80692 0
M  V30 94 H 9.0036 -2.50686 -3.54032 0
M  V30 95 H 9.6746 -2.07377 -5.11565 0
M  V30 96 H 12.1506 -0.411822 -4.14057 0
M  V30 97 H 11.0266 -0.0995336 -5.4881 0
M  V30 98 H 11.2876 1.14025 -4.27142 0
M  V30 99 N 10.3467 1.47872 -0.545128 0
M  V30 100 C 11.5947 2.02093 -0.016553 0
M  V30 101 C 11.9157 1.42305 1.3332 0
M  V30 102 O 11.1857 0.593853 1.86682 0
M  V30 103 H 9.7657 0.746993 -0.00313038 0
M  V30 104 H 12.4277 1.81414 -0.712397 0
M  V30 105 H 11.5237 3.11996 0.0805422 0
M  V30 106 N 11.8248 0.280983 1.55075 0
M  V30 107 C 12.7548 -0.597469 2.25727 0
M  V30 108 C 13.7358 -1.15417 1.24952 0
M  V30 109 O 14.9208 -1.18722 1.53684 0
M  V30 110 C 12.0508 -1.7789 2.98283 0
M  V30 111 C 11.0048 -1.35347 4.06036 0
M  V30 112 C 10.3308 -2.61846 4.66198 0
M  V30 113 C 11.6308 -0.499354 5.19907 0
M  V30 114 H 13.3248 -0.00824265 2.99399 0
M  V30 115 H 10.8708 -0.0025244 1.44 0
M  V30 116 H 12.8238 -2.39937 3.46422 0
M  V30 117 H 11.5478 -2.39405 2.22155 0
M  V30 118 H 10.2068 -0.756156 3.58717 0
M  V30 119 H 9.8548 -3.21632 3.86732 0
M  V30 120 H 9.5548 -2.3409 5.38958 0
M  V30 121 H 11.0788 -3.24732 5.1709 0
M  V30 122 H 12.4928 -1.02498 5.64063 0
M  V30 123 H 10.8898 -0.316424 5.99265 0
M  V30 124 H 11.9598 0.480459 4.82514 0
M  V30 125 N 13.3029 -1.57598 0.00835791 0
M  V30 126 C 14.2349 -2.05811 -1.00868 0
M  V30 127 C 15.2479 -0.977579 -1.30182 0
M  V30 128 O 16.4369 -1.25421 -1.27011 0
M  V30 129 C 13.5369 -2.45016 -2.34137 0
M  V30 130 C 12.7099 -3.75903 -2.23643 0
M  V30 131 C 11.7689 -4.01884 -3.3967 0
M  V30 132 O 10.7949 -4.72433 -3.17483 0
M  V30 133 N 11.9969 -3.50432 -4.62793 0
M  V30 134 H 14.7619 -2.93684 -0.597458 0
M  V30 135 H 12.3229 -1.60909 -0.178852 0
M  V30 136 H 14.3149 -2.59506 -3.10546 0
M  V30 137 H 12.8849 -1.62618 -2.66972 0
M  V30 138 H 12.1049 -3.7141 -1.32091 0
M  V30 139 H 13.3929 -4.61695 -2.13812 0
M  V30 140 H 12.7909 -2.93317 -4.83716 0
M  V30 141 H 11.3479 -3.70236 -5.3644 0
M  V30 142 N 14.781 0.264519 -1.55364 0
M  V30 143 C 16.058 1.01677 -1.67096 0
M  V30 144 C 16.438 2.03996 -0.543015 0
M  V30 145 O 15.786 2.23907 0.45585 0
M  V30 146 C 15.996 1.66596 -3.0667 0
M  V30 147 C 17.344 2.17442 -3.64697 0
M  V30 148 O 18.368 1.76568 -3.09358 0
M  V30 149 O 17.227 2.92439 -4.61673 0
M  V30 150 H 14.321 0.472161 -0.678965 0
M  V30 151 H 16.867 0.259703 -1.67701 0
M  V30 152 H 15.639 0.924962 -3.80211 0
M  V30 153 H 15.262 2.48968 -3.10001 0
M  V30 154 N 16.2591 1.48442 0.529413 0
M  V30 155 C 17.2221 1.62524 1.61612 0
M  V30 156 C 18.2221 0.498509 1.52877 0
M  V30 157 O 19.4121 0.76431 1.56537 0
M  V30 158 C 16.5441 1.59597 3.01233 0
M  V30 159 H 17.7371 2.59423 1.50465 0
M  V30 160 H 15.2901 1.37047 0.751514 0
M  V30 161 H 16.0251 0.641781 3.17886 0
M  V30 162 H 15.8101 2.41397 3.08982 0
M  V30 163 H 17.3001 1.72646 3.80241 0
M  V30 164 N 17.7372 -0.778329 1.37039 0
M  V30 165 C 18.9652 -1.56734 1.35063 0
M  V30 166 C 19.3802 -1.88686 -0.0655597 0
M  V30 167 O 18.7372 -1.5096 -1.02554 0
M  V30 168 C 18.7882 -2.88163 2.18276 0
M  V30 169 O 18.5092 -2.57583 3.54376 0
M  V30 170 C 20.0102 -3.82422 2.24206 0
M  V30 171 H 17.2302 -0.485778 0.462883 0
M  V30 172 H 19.7742 -0.965185 1.8029 0
M  V30 173 H 17.9292 -3.44818 1.76576 0
M  V30 174 H 18.3432 -3.41699 3.97922 0
M  V30 175 H 19.8172 -4.71667 2.86765 0
M  V30 176 H 20.2942 -4.21078 1.24861 0
M  V30 177 H 20.9002 -3.31697 2.6619 0
M  V30 178 N 19.2153 -1.21501 -1.00376 0
M  V30 179 C 20.4403 -1.05977 -1.78279 0
M  V30 180 C 20.8653 0.385994 -1.84097 0
M  V30 181 O 20.2233 1.27849 -1.28547 0
M  V30 182 C 20.2713 -1.66302 -3.19963 0
M  V30 183 O 19.3753 -0.909333 -4.0225 0
M  V30 184 H 18.7163 -0.372906 -0.549397 0
M  V30 185 H 21.2463 -1.6107 -1.26165 0
M  V30 186 H 21.2563 -1.70574 -3.70632 0
M  V30 187 H 19.9313 -2.71515 -3.15043 0
M  V30 188 H 18.5083 -0.941795 -3.60811 0
M  V30 189 N 20.6934 1.19889 -1.02296 0
M  V30 190 C 22.1044 1.71124 -0.746568 0
M  V30 191 C 22.4554 1.81939 0.734335 0
M  V30 192 O 21.5804 1.48639 1.57275 0
M  V30 193 C 22.1754 3.10804 -1.34857 0
M  V30 194 C 20.7344 3.59323 -1.1209 0
M  V30 195 C 19.8814 2.3635 -1.45031 0
M  V30 196 H 22.8324 1.04813 -1.19163 0
M  V30 197 H 22.8534 3.73186 -0.742437 0
M  V30 198 H 22.3654 3.029 -2.42638 0
M  V30 199 H 20.4664 3.7255 -0.0610337 0
M  V30 200 H 20.5794 4.4378 -1.80544 0
M  V30 201 H 18.9434 2.39399 -0.869487 0
M  V30 202 H 19.7264 2.31081 -2.53883 0
M  V30 203 N 22.1715 0.800033 1.35784 0
M  V30 204 C 23.4205 0.37387 1.98205 0
M  V30 205 C 23.7335 -1.06302 1.64193 0
M  V30 206 O 24.9395 -1.59198 2.19928 0
M  V30 207 C 23.3955 0.617532 3.54562 0
M  V30 208 C 23.0035 2.06654 3.9749 0
M  V30 209 C 24.7475 0.256401 4.23725 0
M  V30 210 C 22.6545 2.2563 5.46667 0
M  V30 211 H 21.5845 0.136055 0.741623 0
M  V30 212 H 24.2355 0.983166 1.54939 0
M  V30 213 H 22.6175 -0.0616248 3.95952 0
M  V30 214 H 23.7915 2.78296 3.67271 0
M  V30 215 H 22.1065 2.38691 3.41197 0
M  V30 216 H 24.7035 0.376318 5.33374 0
M  V30 217 H 25.0465 -0.796692 4.08606 0
M  V30 218 H 25.5795 0.889214 3.87734 0
M  V30 219 H 22.3185 3.2936 5.66747 0
M  V30 220 H 21.8385 1.58504 5.78478 0
M  V30 221 H 23.5175 2.06861 6.1304 0
M  V30 222 N 23.6496 -1.47581 0.552962 0
M  V30 223 C 24.5826 -2.26883 -0.244857 0
M  V30 224 C 25.5606 -1.33784 -0.924147 0
M  V30 225 O 26.7446 -1.6316 -0.943981 0
M  V30 226 C 23.8716 -3.10695 -1.34856 0
M  V30 227 C 22.9176 -4.19339 -0.778268 0
M  V30 228 S 23.7506 -5.34207 0.37184 0
M  V30 229 C 24.9066 -6.21584 -0.733779 0
M  V30 230 H 25.1396 -2.94202 0.428087 0
M  V30 231 H 22.6726 -1.50628 0.339197 0
M  V30 232 H 24.6306 -3.59555 -1.98066 0
M  V30 233 H 23.2916 -2.42746 -1.99332 0
M  V30 234 H 22.4846 -4.77695 -1.60696 0
M  V30 235 H 22.0866 -3.73338 -0.222422 0
M  V30 236 H 24.3786 -6.57676 -1.62692 0
M  V30 237 H 25.3216 -7.07851 -0.187668 0
M  V30 238 H 25.7296 -5.55125 -1.02454 0
M  V30 239 N 25.1277 -0.289203 -1.54924 0
M  V30 240 C 26.0377 0.601863 -2.26748 0
M  V30 241 C 27.0537 1.15834 -1.2984 0
M  V30 242 O 28.2297 1.18564 -1.62802 0
M  V30 243 C 25.2947 1.76299 -2.98529 0
M  V30 244 C 24.3557 1.24178 -4.10948 0
M  V30 245 C 23.5887 2.34757 -4.79296 0
M  V30 246 O 23.8117 3.54411 -4.46933 0
M  V30 247 O 22.7457 2.02115 -5.66951 0
M  V30 248 H 26.5717 0.0195879 -3.03694 0
M  V30 249 H 24.1567 -0.0560868 -1.49295 0
M  V30 250 H 26.0387 2.43973 -3.43592 0
M  V30 251 H 24.7137 2.33209 -2.24488 0
M  V30 252 H 23.6207 0.531104 -3.70311 0
M  V30 253 H 24.9537 0.718252 -4.86931 0
M  V30 254 N 26.6058 1.57591 -0.0167156 0
M  V30 255 C 27.5158 2.1291 0.98521 0
M  V30 256 C 28.5318 1.07834 1.36557 0
M  V30 257 O 29.7078 1.39826 1.44951 0
M  V30 258 C 26.7728 2.63512 2.25305 0
M  V30 259 C 25.8338 3.83256 1.93426 0
M  V30 260 C 25.0668 4.31435 3.14165 0
M  V30 261 O 25.2898 3.78851 4.26413 0
M  V30 262 O 24.2238 5.23416 2.97186 0
M  V30 263 H 28.0498 2.98772 0.544888 0
M  V30 264 H 25.6348 1.48012 0.203141 0
M  V30 265 H 27.5168 2.96183 2.99756 0
M  V30 266 H 26.1918 1.8074 2.68542 0
M  V30 267 H 25.0988 3.55531 1.16398 0
M  V30 268 H 26.4318 4.67153 1.55013 0
M  V30 269 N 28.0839 -0.256276 1.55502 0
M  V30 270 C 29.0139 -1.32102 1.92539 0
M  V30 271 C 29.9949 -1.50684 0.789194 0
M  V30 272 O 31.1799 -1.63449 1.04872 0
M  V30 273 C 28.3099 -2.67752 2.21192 0
M  V30 274 C 27.2639 -2.63878 3.36975 0
M  V30 275 C 26.5899 -4.03236 3.51147 0
M  V30 276 C 27.8899 -2.21682 4.72921 0
M  V30 277 H 29.5839 -1.01351 2.81724 0
M  V30 278 H 27.1299 -0.486105 1.35547 0
M  V30 279 H 29.0829 -3.42365 2.45691 0
M  V30 280 H 27.8069 -3.0012 1.28824 0
M  V30 281 H 26.4659 -1.91722 3.12471 0
M  V30 282 H 26.1139 -4.32854 2.56216 0
M  V30 283 H 25.8139 -4.01535 4.29003 0
M  V30 284 H 27.3379 -4.79563 3.77957 0
M  V30 285 H 28.7519 -2.86023 4.96854 0
M  V30 286 H 27.1489 -2.3111 5.53812 0
M  V30 287 H 28.2189 -1.16833 4.70615 0
M  V30 288 N 29.562 -1.4872 -0.521534 0
M  V30 289 C 30.811 -1.56419 -1.27341 0
M  V30 290 C 31.124 -0.246805 -1.94037 0
M  V30 291 O 32.33 -0.202122 -2.70747 0
M  V30 292 C 30.786 -2.75896 -2.31105 0
M  V30 293 C 30.394 -4.14311 -1.70441 0
M  V30 294 C 32.138 -2.92913 -3.07249 0
M  V30 295 C 30.045 -5.25038 -2.72194 0
M  V30 296 H 28.975 -0.582344 -0.478949 0
M  V30 297 H 31.626 -1.75071 -0.549779 0
M  V30 298 H 30.008 -2.50697 -3.06541 0
M  V30 299 H 31.182 -4.49564 -1.01136 0
M  V30 300 H 29.497 -4.02482 -1.06759 0
M  V30 301 H 32.094 -3.72805 -3.83302 0
M  V30 302 H 32.437 -2.02689 -3.63625 0
M  V30 303 H 32.97 -3.18054 -2.38928 0
M  V30 304 H 29.709 -6.17255 -2.20627 0
M  V30 305 H 29.229 -4.94263 -3.39801 0
M  V30 306 H 30.908 -5.53508 -3.35019 0
M  V30 307 N 31.0401 0.771051 -1.3745 0
M  V30 308 C 32.2681 1.56015 -1.35893 0
M  V30 309 C 32.6831 1.88718 0.0555523 0
M  V30 310 O 32.0401 1.51502 1.01752 0
M  V30 311 C 32.0911 2.87001 -2.19801 0
M  V30 312 O 31.8121 2.557 -3.55738 0
M  V30 313 C 33.3131 3.81228 -2.26231 0
M  V30 314 H 30.5331 0.483317 -0.465453 0
M  V30 315 H 33.0771 0.955611 -1.80799 0
M  V30 316 H 31.2321 3.43877 -1.78402 0
M  V30 317 H 31.6461 3.39584 -3.99729 0
M  V30 318 H 33.1201 4.70139 -2.89263 0
M  V30 319 H 33.5971 4.20409 -1.27093 0
M  V30 320 H 34.2031 3.30281 -2.67945 0
M  V30 321 N 32.5182 1.22032 0.997298 0
M  V30 322 C 33.7652 1.04222 1.73621 0
M  V30 323 C 34.0932 -0.423264 1.89839 0
M  V30 324 O 33.3482 -1.3302 1.43542 0
M  V30 325 C 33.6472 1.69345 3.14733 0
M  V30 326 C 33.3132 3.19226 3.18442 0
M  V30 327 C 31.9752 3.60124 3.19161 0
M  V30 328 C 34.3272 4.15181 3.15078 0
M  V30 329 C 31.6552 4.95467 3.14212 0
M  V30 330 C 34.0072 5.50495 3.1167 0
M  V30 331 C 32.6712 5.90779 3.10703 0
M  V30 332 H 31.9412 0.381374 0.635323 0
M  V30 333 H 34.5882 1.51732 1.16831 0
M  V30 334 H 32.8932 1.14147 3.74803 0
M  V30 335 H 34.5902 1.53059 3.7064 0
M  V30 336 H 31.1802 2.86659 3.18629 0
M  V30 337 H 35.3642 3.84605 3.13676 0
M  V30 338 H 30.6202 5.25916 3.11805 0
M  V30 339 H 34.7942 6.24576 3.08022 0
M  V30 340 H 32.4212 6.9562 3.06622 0
M  V30 341 N 33.9963 -1.19345 1.0293 0
M  V30 342 C 34.9463 -2.20472 0.58104 0
M  V30 343 C 35.9303 -1.56578 -0.370442 0
M  V30 344 O 37.1223 -1.75963 -0.191344 0
M  V30 345 C 34.2513 -3.43236 -0.066306 0
M  V30 346 C 33.3373 -4.14274 0.907642 0
M  V30 347 N 33.7283 -4.61492 2.07023 0
M  V30 348 C 32.0263 -4.39966 0.731177 0
M  V30 349 C 32.7273 -5.1605 2.68454 0
M  V30 350 N 31.7033 -5.06875 1.96414 0
M  V30 351 H 35.5053 -2.54659 1.46717 0
M  V30 352 H 33.0193 -1.35423 0.896345 0
M  V30 353 H 35.0163 -4.14927 -0.405068 0
M  V30 354 H 33.6763 -3.10549 -0.948118 0
M  V30 355 H 34.6873 -4.56304 2.44963 0
M  V30 356 H 31.3643 -4.17377 -0.101507 0
M  V30 357 H 32.7543 -5.6287 3.66915 0
M  V30 358 N 35.4744 -0.807222 -1.35358 0
M  V30 359 C 36.7514 -0.311126 -1.9311 0
M  V30 360 C 37.1314 1.19937 -1.73719 0
M  V30 361 O 36.4794 1.99918 -1.10657 0
M  V30 362 C 36.6894 -0.723226 -3.41424 0
M  V30 363 C 38.0374 -0.713078 -4.18569 0
M  V30 364 O 39.0614 -0.664811 -3.49941 0
M  V30 365 O 37.9204 -0.772022 -5.41019 0
M  V30 366 H 35.0144 -0.081526 -0.822972 0
M  V30 367 H 37.5604 -0.890962 -1.4443 0
M  V30 368 H 36.3324 -1.76426 -3.4927 0
M  V30 369 H 35.9554 -0.118232 -3.97424 0
M  V30 370 N 36.9525 1.47285 -0.560781 0
M  V30 371 C 37.9025 2.27073 0.205384 0
M  V30 372 C 38.8865 1.34569 0.882044 0
M  V30 373 O 40.0785 1.58899 0.77976 0
M  V30 374 C 37.2075 3.20414 1.23247 0
M  V30 375 C 36.2935 4.20399 0.559041 0
M  V30 376 N 36.6845 5.04423 -0.372927 0
M  V30 377 C 34.9825 4.38536 0.812522 0
M  V30 378 C 35.6835 5.76655 -0.764446 0
M  V30 379 N 34.6595 5.43471 -0.11848 0
M  V30 380 H 38.4615 2.89422 -0.511117 0
M  V30 381 H 35.9755 1.57868 -0.380975 0
M  V30 382 H 37.9725 3.76262 1.79534 0
M  V30 383 H 36.6325 2.59623 1.95002 0
M  V30 384 H 37.6435 5.1248 -0.747287 0
M  V30 385 H 34.3205 3.88913 1.51832 0
M  V30 386 H 35.7105 6.54238 -1.53045 0
M  V30 387 N 38.4306 0.297415 1.54768 0
M  V30 388 C 39.3936 -0.567375 2.22066 0
M  V30 389 C 40.3936 -1.06409 1.20556 0
M  V30 390 O 41.5836 -0.960691 1.45315 0
M  V30 391 C 38.7156 -1.78517 2.90421 0
M  V30 392 H 39.9086 0.0205534 2.99893 0
M  V30 393 H 37.4616 0.0482163 1.56226 0
M  V30 394 H 38.1966 -2.41303 2.16664 0
M  V30 395 H 37.9816 -1.43669 3.64831 0
M  V30 396 H 39.4716 -2.39964 3.41771 0
M  V30 397 N 39.9087 -1.5758 0.0250728 0
M  V30 398 C 40.8387 -2.13007 -0.956575 0
M  V30 399 C 41.8197 -1.0452 -1.342 0
M  V30 400 O 43.0047 -1.32332 -1.42133 0
M  V30 401 C 40.1347 -2.65386 -2.24026 0
M  V30 402 C 39.0887 -3.78623 -1.99571 0
M  V30 403 C 38.4147 -4.17414 -3.3417 0
M  V30 404 C 39.7147 -5.04867 -1.33814 0
M  V30 405 H 41.4087 -2.9528 -0.494991 0
M  V30 406 H 38.9547 -1.42042 -0.236651 0
M  V30 407 H 40.9077 -3.02794 -2.93076 0
M  V30 408 H 39.6317 -1.80268 -2.72343 0
M  V30 409 H 38.2907 -3.41646 -1.32941 0
M  V30 410 H 37.9387 -3.29284 -3.80238 0
M  V30 411 H 37.6387 -4.93719 -3.18615 0
M  V30 412 H 39.1627 -4.57402 -4.04495 0
M  V30 413 H 40.5767 -5.39888 -1.92857 0
M  V30 414 H 38.9737 -5.86144 -1.28669 0
M  V30 415 H 40.0437 -4.83904 -0.310561 0
M  V30 416 N 41.3868 0.248026 -1.55636 0
M  V30 417 C 42.3198 1.3334 -1.85191 0
M  V30 418 C 43.2978 1.46429 -0.706906 0
M  V30 419 O 44.4818 1.62662 -0.952544 0
M  V30 420 C 41.6088 2.70703 -2.03562 0
M  V30 421 C 40.6548 2.7477 -3.26196 0
M  V30 422 S 41.4878 2.31493 -4.82878 0
M  V30 423 C 42.6438 3.70783 -5.04253 0
M  V30 424 H 42.8768 1.08072 -2.76962 0
M  V30 425 H 40.4098 0.448952 -1.47729 0
M  V30 426 H 42.3678 3.49798 -2.1483 0
M  V30 427 H 41.0288 2.9321 -1.12635 0
M  V30 428 H 40.2218 3.75648 -3.36013 0
M  V30 429 H 39.8238 2.03719 -3.13647 0
M  V30 430 H 42.1158 4.6627 -4.91527 0
M  V30 431 H 43.0588 3.65901 -6.06236 0
M  V30 432 H 43.4668 3.63244 -4.32105 0
M  V30 433 N 42.8649 1.48995 0.513639 0
M  V30 434 C 44.1139 1.57093 1.2651 0
M  V30 435 C 44.4269 0.257091 1.93903 0
M  V30 436 O 45.6329 0.216478 2.70636 0
M  V30 437 C 44.0889 2.77118 2.29638 0
M  V30 438 C 43.6969 4.15209 1.68241 0
M  V30 439 C 45.4409 2.94538 3.05692 0
M  V30 440 C 43.3479 5.26474 2.69406 0
M  V30 441 H 42.2779 0.584876 0.475854 0
M  V30 442 H 44.9289 1.7536 0.540487 0
M  V30 443 H 43.3109 2.52319 3.05207 0
M  V30 444 H 44.4849 4.50094 0.987505 0
M  V30 445 H 42.7999 4.03042 1.04623 0
M  V30 446 H 45.3969 3.74832 3.8132 0
M  V30 447 H 45.7399 2.04614 3.62545 0
M  V30 448 H 46.2729 3.19316 2.37238 0
M  V30 449 H 43.0119 6.18417 2.17351 0
M  V30 450 H 42.5319 4.96058 3.37175 0
M  V30 451 H 44.2109 5.55277 3.32078 0
M  V30 452 N 44.343 -0.763751 1.37857 0
M  V30 453 C 45.592 -1.51789 1.32827 0
M  V30 454 C 45.905 -1.95426 -0.0823719 0
M  V30 455 O 47.111 -2.70298 -0.255172 0
M  V30 456 C 45.567 -2.74133 2.33193 0
M  V30 457 C 45.175 -2.37562 3.79827 0
M  V30 458 C 46.919 -3.52054 2.37188 0
M  V30 459 C 44.826 -3.56456 4.71904 0
M  V30 460 H 43.756 -0.569896 0.493695 0
M  V30 461 H 46.407 -0.835822 1.63359 0
M  V30 462 H 44.789 -3.4427 1.9569 0
M  V30 463 H 45.963 -1.75157 4.26212 0
M  V30 464 H 44.278 -1.72798 3.78853 0
M  V30 465 H 46.875 -4.40437 3.03182 0
M  V30 466 H 47.218 -3.92486 1.38782 0
M  V30 467 H 47.751 -2.88921 2.7344 0
M  V30 468 H 44.49 -3.21099 5.71468 0
M  V30 469 H 44.01 -4.17938 4.30218 0
M  V30 470 H 45.689 -4.23168 4.89426 0
M  V30 471 N 45.8211 -1.22559 -0.990812 0
M  V30 472 C 47.0681 -1.05141 -1.73065 0
M  V30 473 C 47.3961 0.413191 -1.9006 0
M  V30 474 O 46.6511 1.32257 -1.44245 0
M  V30 475 C 46.9501 -1.71011 -3.13831 0
M  V30 476 C 46.6161 -3.20911 -3.16745 0
M  V30 477 C 45.2781 -3.61812 -3.17247 0
M  V30 478 C 47.6301 -4.16846 -3.12872 0
M  V30 479 C 44.9581 -4.97127 -3.1158 0
M  V30 480 C 47.3101 -5.5214 -3.08746 0
M  V30 481 C 45.9741 -5.92419 -3.07565 0
M  V30 482 H 45.2441 -0.384738 -0.633291 0
M  V30 483 H 47.8911 -1.5235 -1.16025 0
M  V30 484 H 46.1961 -1.16133 -3.74193 0
M  V30 485 H 47.8931 -1.55023 -3.69823 0
M  V30 486 H 44.4831 -2.88344 -3.17105 0
M  V30 487 H 48.6671 -3.86263 -3.11632 0
M  V30 488 H 43.9231 -5.27562 -3.09012 0
M  V30 489 H 48.0971 -6.26201 -3.04705 0
M  V30 490 H 45.7241 -6.97236 -3.02929 0
M  V30 491 N 47.2992 1.18797 -1.03562 0
M  V30 492 C 48.2292 2.24472 -0.643019 0
M  V30 493 C 49.2102 1.66433 0.351283 0
M  V30 494 O 50.3952 1.92803 0.232505 0
M  V30 495 C 47.5252 3.473 4.24935e-05 0
M  V30 496 C 46.4792 4.18055 -0.917257 0
M  V30 497 C 45.8052 5.34519 -0.138941 0
M  V30 498 C 47.1052 4.72109 -2.23407 0
M  V30 499 H 48.7992 2.57566 -1.52643 0
M  V30 500 H 46.3452 1.23806 -0.735394 0
M  V30 501 H 48.2982 4.20426 0.286383 0
M  V30 502 H 47.0222 3.13424 0.918299 0
M  V30 503 H 45.6812 3.46821 -1.1879 0
M  V30 504 H 45.3292 4.96891 0.781562 0
M  V30 505 H 45.0292 5.82794 -0.750005 0
M  V30 506 H 46.5532 6.10438 0.1405 0
M  V30 507 H 47.9672 5.36955 -2.00879 0
M  V30 508 H 46.3642 5.30897 -2.79765 0
M  V30 509 H 47.4342 3.89807 -2.88407 0
M  V30 510 N 48.7773 0.814389 1.34928 0
M  V30 511 C 50.0263 0.394871 1.97797 0
M  V30 512 C 50.3393 -1.04555 1.65311 0
M  V30 513 O 51.5453 -1.56856 2.21604 0
M  V30 514 C 50.0013 0.655103 3.53888 0
M  V30 515 C 49.6093 2.10858 3.95276 0
M  V30 516 C 51.3533 0.301329 4.23429 0
M  V30 517 C 49.2603 2.31415 5.44244 0
M  V30 518 H 48.1903 0.143913 0.740139 0
M  V30 519 H 50.8413 0.999544 1.53888 0
M  V30 520 H 49.2233 -0.0196253 3.95995 0
M  V30 521 H 50.3973 2.82176 3.64298 0
M  V30 522 H 48.7123 2.42297 3.38646 0
M  V30 523 H 51.3093 0.432869 5.32945 0
M  V30 524 H 51.6523 -0.75331 4.09428 0
M  V30 525 H 52.1853 0.930288 3.86769 0
M  V30 526 H 48.9243 3.35353 5.63222 0
M  V30 527 H 48.4443 1.6463 5.76764 0
M  V30 528 H 50.1233 2.13352 6.10811 0
M  V30 529 N 50.2554 -1.46986 0.568584 0
M  V30 530 C 51.4954 -2.04336 0.0512999 0
M  V30 531 C 51.8594 -1.43214 -1.27881 0
M  V30 532 O 53.0604 -1.91679 -1.88448 0
M  V30 533 C 51.3314 -3.57389 -0.0282328 0
M  V30 534 S 52.8904 -4.36056 -0.489991 0
M  V30 535 H 49.7084 -0.71034 0.0306349 0
M  V30 536 H 52.3104 -1.80212 0.757891 0
M  V30 537 H 51.0144 -3.99395 0.944011 0
M  V30 538 H 50.5454 -3.86028 -0.75803 0
M  V30 539 H 52.5604 -4.6441 -1.74752 0
M  V30 540 N 51.7335 -0.305618 -1.54608 0
M  V30 541 C 52.9805 0.302298 -2.00231 0
M  V30 542 C 53.3085 1.5354 -1.19398 0
M  V30 543 O 52.5635 1.93973 -0.259423 0
M  V30 544 C 52.8625 0.698983 -3.50498 0
M  V30 545 C 52.5285 -0.432903 -4.48817 0
M  V30 546 C 51.1905 -0.743622 -4.75419 0
M  V30 547 C 53.5425 -1.19409 -5.07337 0
M  V30 548 C 50.8705 -1.81857 -5.57804 0
M  V30 549 C 53.2225 -2.25899 -5.90891 0
M  V30 550 C 51.8865 -2.57572 -6.15803 0
M  V30 551 H 51.1565 0.110619 -0.732697 0
M  V30 552 H 53.8035 -0.425674 -1.86709 0
M  V30 553 H 52.1085 1.50711 -3.61654 0
M  V30 554 H 53.8055 1.1806 -3.83227 0
M  V30 555 H 50.3955 -0.18063 -4.28219 0
M  V30 556 H 54.5795 -0.967295 -4.86782 0
M  V30 557 H 49.8355 -2.06864 -5.75341 0
M  V30 558 H 54.0095 -2.85335 -6.35261 0
M  V30 559 H 51.6365 -3.40998 -6.7943 0
M  V30 560 N 53.2116 1.57565 -0.0334293 0
M  V30 561 C 54.1416 2.13511 0.945265 0
M  V30 562 C 55.1226 1.05231 1.33643 0
M  V30 563 O 56.3076 1.33084 1.41429 0
M  V30 564 C 53.4376 2.6657 2.22616 0
M  V30 565 C 52.3916 3.79676 1.97561 0
M  V30 566 C 51.7176 4.1918 3.31952 0
M  V30 567 C 53.0176 5.0557 1.31135 0
M  V30 568 H 54.7116 2.95538 0.479325 0
M  V30 569 H 52.2576 1.42166 0.229115 0
M  V30 570 H 54.2106 3.04344 2.91466 0
M  V30 571 H 52.9346 1.8171 2.71384 0
M  V30 572 H 51.5936 3.42347 1.31127 0
M  V30 573 H 51.2416 3.31296 3.78487 0
M  V30 574 H 50.9416 4.95402 3.15992 0
M  V30 575 H 52.4656 4.59541 4.02063 0
M  V30 576 H 53.8796 5.40903 1.89992 0
M  V30 577 H 52.2766 5.86818 1.25559 0
M  V30 578 H 53.3466 4.84062 0.284894 0
M  V30 579 N 54.6897 -0.239769 1.55765 0
M  V30 580 C 55.9357 -0.968234 1.78194 0
M  V30 581 C 56.2687 -1.84701 0.599938 0
M  V30 582 O 55.5437 -1.9031 -0.401524 0
M  V30 583 C 55.8267 -1.8227 3.10564 0
M  V30 584 C 55.6797 -0.971633 4.3918 0
M  V30 585 C 56.9987 -2.80388 3.39221 0
M  V30 586 H 54.1177 -0.350572 0.648281 0
M  V30 587 H 56.7597 -0.238259 1.885 0
M  V30 588 H 54.9097 -2.44507 3.01908 0
M  V30 589 H 56.5817 -0.367408 4.59835 0
M  V30 590 H 54.8247 -0.276276 4.32919 0
M  V30 591 H 55.4957 -1.60346 5.28198 0
M  V30 592 H 57.9717 -2.28287 3.47885 0
M  V30 593 H 56.8477 -3.3729 4.33044 0
M  V30 594 H 57.1087 -3.57212 2.60484 0
M  V30 595 N 56.1678 -1.49265 -0.50573 0
M  V30 596 C 57.0978 -1.68495 -1.61653 0
M  V30 597 C 58.0788 -0.53366 -1.61512 0
M  V30 598 O 59.2638 -0.76897 -1.78327 0
M  V30 599 C 56.3938 -1.74709 -3.00157 0
M  V30 600 C 55.3478 -2.89581 -3.15162 0
M  V30 601 C 54.6738 -2.80903 -4.5497 0
M  V30 602 C 55.9738 -4.30578 -2.95634 0
M  V30 603 H 57.6678 -2.61493 -1.45814 0
M  V30 604 H 55.2138 -1.25838 -0.70005 0
M  V30 605 H 57.1668 -1.86748 -3.77761 0
M  V30 606 H 55.8908 -0.783067 -3.17074 0
M  V30 607 H 54.5498 -2.77136 -2.39982 0
M  V30 608 H 54.1978 -1.82419 -4.68756 0
M  V30 609 H 53.8978 -3.57999 -4.65951 0
M  V30 610 H 55.4218 -2.94944 -5.34641 0
M  V30 611 H 56.8358 -4.4373 -3.63011 0
M  V30 612 H 55.2328 -5.0886 -3.18091 0
M  V30 613 H 56.3028 -4.45352 -1.91806 0
M  V30 614 N 57.6459 0.756429 -1.3826 0
M  V30 615 C 58.8759 1.54341 -1.3734 0
M  V30 616 C 59.2839 1.89159 0.0393917 0
M  V30 617 O 58.6269 1.5307 1.01565 0
M  V30 618 C 58.6889 2.87238 -2.16182 0
M  V30 619 C 58.3529 2.74973 -3.65019 0
M  V30 620 C 59.3499 2.44962 -4.58574 0
M  V30 621 C 57.0349 2.92515 -4.08338 0
M  V30 622 C 59.0289 2.32642 -5.93428 0
M  V30 623 C 56.7159 2.79815 -5.43274 0
M  V30 624 C 57.7139 2.49921 -6.35632 0
M  V30 625 O 57.4019 2.37275 -7.68086 0
M  V30 626 H 57.1339 0.484281 -0.471643 0
M  V30 627 H 59.6879 0.944152 -1.82414 0
M  V30 628 H 57.9179 3.49342 -1.65822 0
M  V30 629 H 59.6069 3.48731 -2.07705 0
M  V30 630 H 60.3729 2.31081 -4.26412 0
M  V30 631 H 56.2519 3.14781 -3.368 0
M  V30 632 H 59.7959 2.0923 -6.65484 0
M  V30 633 H 55.6929 2.93269 -5.75034 0
M  V30 634 H 56.4609 2.52509 -7.78577 0
M  V30 635 N 59.124 1.23083 0.984299 0
M  V30 636 C 60.087 1.00979 2.05757 0
M  V30 637 C 61.087 -0.0269573 1.60777 0
M  V30 638 O 62.277 0.212403 1.729 0
M  V30 639 C 59.409 0.527072 3.36801 0
M  V30 640 H 60.602 1.9622 2.26799 0
M  V30 641 H 58.155 1.05072 1.15714 0
M  V30 642 H 58.89 -0.429294 3.21446 0
M  V30 643 H 58.675 1.27515 3.70786 0
M  V30 644 H 60.165 0.392942 4.15747 0
M  V30 645 N 60.6021 -1.18246 1.0419 0
M  V30 646 C 61.5321 -2.24127 0.654914 0
M  V30 647 C 62.5131 -1.66617 -0.342451 0
M  V30 648 O 63.6981 -1.92924 -0.222277 0
M  V30 649 C 60.8281 -3.47295 0.0183757 0
M  V30 650 C 59.7821 -4.17563 0.939414 0
M  V30 651 C 59.1081 -5.34438 0.167286 0
M  V30 652 C 60.4081 -4.70917 2.25908 0
M  V30 653 H 62.1021 -2.56753 1.54007 0
M  V30 654 H 59.6481 -1.23414 0.74195 0
M  V30 655 H 61.6011 -4.20572 -0.264082 0
M  V30 656 H 60.3251 -3.13907 -0.901664 0
M  V30 657 H 58.9841 -3.46186 1.20628 0
M  V30 658 H 58.6321 -4.97298 -0.7552 0
M  V30 659 H 58.3321 -5.82388 0.780901 0
M  V30 660 H 59.8561 -6.10504 -0.108125 0
M  V30 661 H 61.2701 -5.35882 2.03724 0
M  V30 662 H 59.6671 -5.29406 2.82577 0
M  V30 663 H 60.7371 -3.88272 2.9047 0
M  V30 664 N 62.0802 -0.821533 -1.34494 0
M  V30 665 C 63.3272 -0.408946 -1.98328 0
M  V30 666 C 63.6552 1.02764 -1.65136 0
M  V30 667 O 62.9102 1.73026 -0.914349 0
M  V30 668 C 63.2092 -0.556512 -3.53041 0
M  V30 669 C 62.8752 -1.95861 -4.0614 0
M  V30 670 C 61.5372 -2.34217 -4.20352 0
M  V30 671 C 63.8892 -2.87523 -4.34718 0
M  V30 672 C 61.2172 -3.63572 -4.6047 0
M  V30 673 C 63.5692 -4.1634 -4.76281 0
M  V30 674 C 62.2332 -4.54675 -4.88699 0
M  V30 675 H 61.5032 -0.149644 -0.725732 0
M  V30 676 H 64.1502 -1.04521 -1.6046 0
M  V30 677 H 62.4552 0.163148 -3.9146 0
M  V30 678 H 64.1522 -0.217826 -4.00408 0
M  V30 679 H 60.7422 -1.65066 -3.95539 0
M  V30 680 H 64.9262 -2.59133 -4.23277 0
M  V30 681 H 60.1822 -3.93101 -4.68275 0
M  V30 682 H 64.3562 -4.87455 -4.97354 0
M  V30 683 H 61.9832 -5.54959 -5.19542 0
M  V30 684 N 63.5583 1.46682 -0.576371 0
M  V30 685 C 64.4883 2.33028 0.148397 0
M  V30 686 C 65.4693 1.44961 0.889956 0
M  V30 687 O 66.6543 1.73789 0.866662 0
M  V30 688 C 63.7843 3.27117 1.1667 0
M  V30 689 C 62.7383 4.24575 0.540386 0
M  V30 690 C 62.0643 5.08126 1.6647 0
M  V30 691 C 63.3643 5.19722 -0.518331 0
M  V30 692 H 65.0583 2.93875 -0.572509 0
M  V30 693 H 62.6043 1.41315 -0.276768 0
M  V30 694 H 64.5573 3.86374 1.68204 0
M  V30 695 H 63.2813 2.64364 1.9178 0
M  V30 696 H 61.9403 3.66571 0.0461769 0
M  V30 697 H 61.5883 4.41762 2.40531 0
M  V30 698 H 61.2883 5.74122 1.25131 0
M  V30 699 H 62.8123 5.70246 2.18293 0
M  V30 700 H 64.2263 5.73232 -0.0883058 0
M  V30 701 H 62.6233 5.94026 -0.851679 0
M  V30 702 H 63.6933 4.64037 -1.40703 0
M  V30 703 N 65.0364 0.313813 1.54444 0
M  V30 704 C 66.2644 -0.293918 2.04802 0
M  V30 705 C 66.6794 -1.46537 1.19047 0
M  V30 706 O 66.0364 -1.81182 0.218939 0
M  V30 707 C 66.0874 -0.737806 3.53891 0
M  V30 708 O 65.8084 0.387038 4.36387 0
M  V30 709 C 67.3094 -1.40936 4.203 0
M  V30 710 H 64.5294 -0.0620057 0.668129 0
M  V30 711 H 67.0734 0.457169 1.99324 0
M  V30 712 H 65.2284 -1.43889 3.59687 0
M  V30 713 H 65.6424 0.0391274 5.24485 0
M  V30 714 H 67.1164 -1.67099 5.26101 0
M  V30 715 H 67.5934 -2.35355 3.70816 0
M  V30 716 H 68.1994 -0.751117 4.18615 0
M  V30 717 N 66.5145 -1.57545 0.0417849 0
M  V30 718 C 67.4445 -2.14009 -0.933929 0
M  V30 719 C 68.4255 -1.05938 -1.33083 0
M  V30 720 O 69.6105 -1.33833 -1.40721 0
M  V30 721 C 66.7405 -2.67747 -2.21199 0
M  V30 722 C 65.6945 -3.80718 -1.95544 0
M  V30 723 C 65.0205 -4.20935 -3.29724 0
M  V30 724 C 66.3205 -5.06258 -1.28452 0
M  V30 725 H 68.0145 -2.95788 -0.463645 0
M  V30 726 H 65.5605 -1.42285 -0.221573 0
M  V30 727 H 67.5135 -3.05886 -2.89848 0
M  V30 728 H 66.2375 -1.83147 -2.70416 0
M  V30 729 H 64.8965 -3.43037 -1.2931 0
M  V30 730 H 64.5445 -3.33298 -3.76724 0
M  V30 731 H 64.2445 -4.9707 -3.13361 0
M  V30 732 H 65.7685 -4.61666 -3.9962 0
M  V30 733 H 67.1825 -5.41903 -1.8712 0
M  V30 734 H 65.5795 -5.87475 -1.22445 0
M  V30 735 H 66.6495 -4.84207 -0.259219 0
M  V30 736 N 67.9926 0.231505 -1.5589 0
M  V30 737 C 69.2206 0.974505 -1.82513 0
M  V30 738 C 69.6356 1.78344 -0.619591 0
M  V30 739 O 68.9926 1.77792 0.411848 0
M  V30 740 C 69.0436 1.90007 -3.07538 0
M  V30 741 O 68.7646 1.12385 -4.2344 0
M  V30 742 C 70.2656 2.75779 -3.47075 0
M  V30 743 H 67.4856 0.286065 -0.606966 0
M  V30 744 H 70.0296 0.249739 -2.02969 0
M  V30 745 H 68.1846 2.57891 -2.89086 0
M  V30 746 H 68.5986 1.75125 -4.944 0
M  V30 747 H 70.0726 3.36443 -4.37619 0
M  V30 748 H 70.5496 3.47672 -2.68367 0
M  V30 749 H 71.1556 2.13323 -3.67931 0
M  V30 750 N 69.4707 1.49531 0.497807 0
M  V30 751 C 70.6987 1.62893 1.27567 0
M  V30 752 C 71.1137 0.301585 1.86376 0
M  V30 753 O 70.4707 -0.713335 1.67982 0
M  V30 754 C 70.5217 2.70013 2.40364 0
M  V30 755 O 70.2427 3.976 1.83972 0
M  V30 756 C 71.7437 2.94109 3.31685 0
M  V30 757 H 68.9637 0.548298 0.386794 0
M  V30 758 H 71.5077 1.95584 0.597245 0
M  V30 759 H 69.6627 2.40092 3.04031 0
M  V30 760 H 70.0767 4.56631 2.58047 0
M  V30 761 H 71.5507 3.72788 4.07104 0
M  V30 762 H 72.0277 2.04147 3.88871 0
M  V30 763 H 72.6337 3.2546 2.73781 0
M  V30 764 N 70.9488 -0.749086 1.3866 0
M  V30 765 C 71.8958 -1.86291 1.36251 0
M  V30 766 C 72.8658 -1.64578 0.224347 0
M  V30 767 O 74.0508 -1.86181 0.417279 0
M  V30 768 C 71.1908 -3.23644 1.19786 0
M  V30 769 C 70.3038 -3.57158 2.43027 0
M  V30 770 C 69.4388 -4.83838 2.19258 0
M  V30 771 C 68.4778 -5.10152 3.38247 0
M  V30 772 N 67.6148 -6.28029 3.13884 0
M  V30 773 H 72.4548 -1.87685 2.3147 0
M  V30 774 H 69.9918 -0.917287 1.14997 0
M  V30 775 H 71.9498 -4.0291 1.08254 0
M  V30 776 H 70.5798 -3.21566 0.282031 0
M  V30 777 H 69.6318 -2.72701 2.65214 0
M  V30 778 H 70.9438 -3.7253 3.31697 0
M  V30 779 H 70.0978 -5.71057 2.04888 0
M  V30 780 H 68.8368 -4.70614 1.2796 0
M  V30 781 H 67.8418 -4.21401 3.53131 0
M  V30 782 H 69.0668 -5.25271 4.30427 0
M  V30 783 H 67.0128 -6.1612 2.25238 0
M  V30 784 H 66.9298 -6.43922 3.96106 0
M  V30 785 H 68.1978 -7.18124 3.03179 0
M  V30 786 N 72.4269 -1.23603 -0.977757 0
M  V30 787 C 73.3569 -1.04401 -2.0886 0
M  V30 788 C 74.3379 0.0399052 -1.70053 0
M  V30 789 O 75.5229 -0.125246 -1.93796 0
M  V30 790 C 72.6529 -0.637269 -3.41403 0
M  V30 791 C 71.6069 -1.66883 -3.94124 0
M  V30 792 C 70.9329 -1.11745 -5.22893 0
M  V30 793 C 72.2329 -3.06247 -4.23096 0
M  V30 794 H 73.9269 -1.97316 -2.25182 0
M  V30 795 H 71.4729 -0.950096 -1.08209 0
M  V30 796 H 73.4259 -0.48998 -4.18542 0
M  V30 797 H 72.1499 0.327557 -3.24953 0
M  V30 798 H 70.8089 -1.80416 -3.19133 0
M  V30 799 H 70.4569 -0.143527 -5.02795 0
M  V30 800 H 70.1569 -1.80672 -5.59134 0
M  V30 801 H 71.6809 -0.982067 -6.02651 0
M  V30 802 H 73.0949 -2.96001 -4.90975 0
M  V30 803 H 71.4919 -3.72436 -4.70544 0
M  V30 804 H 72.5619 -3.55041 -3.30263 0
M  V30 805 N 73.905 1.17692 -1.04816 0
M  V30 806 C 75.133 1.91786 -0.776254 0
M  V30 807 C 75.548 1.76604 0.667577 0
M  V30 808 O 74.905 1.10067 1.45573 0
M  V30 809 C 74.956 3.42967 -1.14263 0
M  V30 810 O 74.677 3.57678 -2.52978 0
M  V30 811 C 76.178 4.34144 -0.896311 0
M  V30 812 H 73.398 0.608624 -0.282519 0
M  V30 813 H 75.942 1.49268 -1.39783 0
M  V30 814 H 74.097 3.83245 -0.565874 0
M  V30 815 H 74.511 4.51319 -2.67229 0
M  V30 816 H 75.985 5.38744 -1.20244 0
M  V30 817 H 76.462 4.38876 0.168636 0
M  V30 818 H 77.068 3.99574 -1.45672 0
M  V30 819 N 75.3831 0.828654 1.34056 0
M  V30 820 C 76.3311 0.242973 2.31327 0
M  V30 821 C 77.3251 -0.61944 1.57668 0
M  V30 822 O 78.5311 -0.51014 1.7262 0
M  V30 823 H 74.9061 0.059834 0.749616 0
M  V30 824 H 76.8771 1.07809 2.78244 0
M  V30 825 C 75.6261 -0.575733 3.429 0
M  V30 826 H 74.9491 0.0785582 3.99723 0
M  V30 827 H 76.3891 -0.951547 4.13185 0
M  V30 828 C 74.8481 -1.75044 2.87856 0
M  V30 829 O 75.3781 -2.84882 2.83205 0
M  V30 830 N 73.5841 -1.56903 2.44602 0
M  V30 831 H 73.1311 -0.675547 2.48584 0
M  V30 832 H 73.0891 -2.35652 2.08124 0
M  V30 833 N 76.8612 -1.46375 0.584142 0
M  V30 834 C 78.0892 -2.06761 0.0759296 0
M  V30 835 C 78.5042 -1.43266 -1.22965 0
M  V30 836 O 77.8612 -0.538458 -1.74376 0
M  V30 837 C 77.9122 -3.61375 -0.0950384 0
M  V30 838 O 77.6332 -4.22495 1.15887 0
M  V30 839 C 79.1342 -4.38693 -0.637434 0
M  V30 840 H 76.3542 -0.668479 0.0581075 0
M  V30 841 H 78.8982 -1.8798 0.805218 0
M  V30 842 H 77.0532 -3.79578 -0.774554 0
M  V30 843 H 77.4672 -5.15385 0.973598 0
M  V30 844 H 78.9412 -5.47464 -0.706237 0
M  V30 845 H 79.4182 -4.06836 -1.65472 0
M  V30 846 H 80.0242 -4.25299 0.00725967 0
M  V30 847 N 78.3393 -0.321999 -1.54275 0
M  V30 848 C 79.2873 0.560206 -2.25753 0
M  V30 849 C 80.2813 1.11984 -1.27106 0
M  V30 850 O 81.4873 1.06806 -1.44888 0
M  V30 851 H 77.8623 0.199304 -0.725108 0
M  V30 852 H 79.8333 -0.0649365 -2.98329 0
M  V30 853 C 78.5823 1.71023 -3.02731 0
M  V30 854 H 77.9053 1.28885 -3.78456 0
M  V30 855 H 79.3453 2.30314 -3.55993 0
M  V30 856 C 77.8043 2.62692 -2.10938 0
M  V30 857 O 78.3343 3.64364 -1.6912 0
M  V30 858 N 76.5403 2.30891 -1.76459 0
M  V30 859 H 76.0873 1.48253 -2.10663 0
M  V30 860 H 76.0453 2.92487 -1.1532 0
M  V30 861 N 79.8174 1.5752 -0.0501392 0
M  V30 862 C 81.0664 1.91827 0.623328 0
M  V30 863 C 81.3794 0.930222 1.72065 0
M  V30 864 O 82.5854 1.1653 2.4522 0
M  V30 865 C 81.0414 3.40692 1.16003 0
M  V30 866 C 80.6494 4.479 0.0948811 0
M  V30 867 C 82.3934 3.84034 1.80881 0
M  V30 868 C 80.3004 5.87879 0.644411 0
M  V30 869 H 79.2304 0.715918 0.236596 0
M  V30 870 H 81.8814 1.83115 -0.118861 0
M  V30 871 H 80.2634 3.44405 1.9545 0
M  V30 872 H 81.4374 4.55775 -0.678675 0
M  V30 873 H 79.7524 4.13892 -0.45637 0
M  V30 874 H 82.3494 4.85984 2.22988 0
M  V30 875 H 82.6924 3.20225 2.6601 0
M  V30 876 H 83.2254 3.82833 1.0809 0
M  V30 877 H 79.9644 6.55282 -0.169229 0
M  V30 878 H 79.4844 5.83567 1.38598 0
M  V30 879 H 81.1634 6.37098 1.12763 0
M  V30 880 N 81.2955 -0.223234 1.56011 0
M  V30 881 C 82.5205 -0.968978 1.83373 0
M  V30 882 C 82.9455 -1.77227 0.630254 0
M  V30 883 O 82.3035 -1.76345 -0.420959 0
M  V30 884 C 82.3515 -1.86363 3.08709 0
M  V30 885 O 81.4555 -2.95873 2.87285 0
M  V30 886 H 80.7965 -0.274461 0.604622 0
M  V30 887 H 83.3265 -0.237056 2.03222 0
M  V30 888 H 83.3365 -2.27376 3.38768 0
M  V30 889 H 82.0115 -1.27319 3.95933 0
M  V30 890 H 80.5885 -2.58818 2.68454 0
M  V30 891 N 82.7736 -1.49793 -0.48987 0
M  V30 892 C 84.0506 -1.50348 -1.25119 0
M  V30 893 C 84.4306 -0.237466 -2.0976 0
M  V30 894 O 83.7786 0.77981 -2.14782 0
M  V30 895 C 83.9886 -2.78872 -2.09837 0
M  V30 896 C 85.3366 -3.288 -2.68655 0
M  V30 897 O 86.3606 -2.80065 -2.20096 0
M  V30 898 O 85.2196 -4.13707 -3.57083 0
M  V30 899 H 82.3136 -0.602242 -0.566775 0
M  V30 900 H 84.8596 -1.62067 -0.503229 0
M  V30 901 H 83.6316 -3.62499 -1.47343 0
M  V30 902 H 83.2546 -2.70066 -2.91805 0
M  V30 903 N 84.2517 0.741722 -1.39055 0
M  V30 904 C 85.2147 1.83733 -1.37021 0
M  V30 905 C 86.2147 1.58542 -0.268534 0
M  V30 906 O 87.4047 1.66067 -0.526076 0
M  V30 907 C 84.5367 3.2141 -1.13617 0
M  V30 908 H 85.7297 1.86941 -2.34506 0
M  V30 909 H 83.2827 0.944676 -1.24521 0
M  V30 910 H 84.0177 3.23865 -0.167863 0
M  V30 911 H 83.8027 3.4109 -1.93391 0
M  V30 912 H 85.2927 4.01477 -1.14918 0
M  V30 913 N 85.7298 1.2412 0.971189 0
M  V30 914 C 86.6618 0.988349 2.06795 0
M  V30 915 C 87.6748 -0.0409541 1.62748 0
M  V30 916 O 88.8638 0.195673 1.77424 0
M  V30 917 C 85.9638 0.469023 3.35639 0
M  V30 918 C 85.1368 1.56065 4.08611 0
M  V30 919 C 84.1958 1.04458 5.15728 0
M  V30 920 O 83.2218 1.73553 5.42096 0
M  V30 921 N 84.4238 -0.122817 5.8037 0
M  V30 922 H 87.1888 1.93265 2.29061 0
M  V30 923 H 84.7498 1.15102 1.13856 0
M  V30 924 H 86.7418 0.108613 4.04554 0
M  V30 925 H 85.3118 -0.380919 3.1027 0
M  V30 926 H 84.5318 2.09341 3.34021 0
M  V30 927 H 85.8198 2.29449 4.54126 0
M  V30 928 H 85.2178 -0.700563 5.61345 0
M  V30 929 H 83.7748 -0.424404 6.50417 0
M  V30 930 N 87.2079 -1.17134 1.05439 0
M  V30 931 C 88.1179 -2.24878 0.668365 0
M  V30 932 C 89.1339 -1.71186 -0.311687 0
M  V30 933 O 90.3099 -2.00738 -0.163161 0
M  V30 934 C 87.3749 -3.46662 0.051648 0
M  V30 935 C 86.4359 -4.15429 1.08246 0
M  V30 936 C 85.6689 -5.31399 0.495082 0
M  V30 937 O 85.8919 -5.66153 -0.694743 0
M  V30 938 O 84.8259 -5.89187 1.23056 0
M  V30 939 H 88.6519 -2.60189 1.56637 0
M  V30 940 H 86.2369 -1.24482 0.826104 0
M  V30 941 H 88.1189 -4.20394 -0.290966 0
M  V30 942 H 86.7939 -3.13142 -0.819971 0
M  V30 943 H 85.7009 -3.43704 1.47711 0
M  V30 944 H 87.0339 -4.52982 1.92532 0
M  V30 945 N 88.686 -0.835752 -1.33615 0
M  V30 946 C 89.619 -0.211815 -2.27215 0
M  V30 947 C 90.597 0.639249 -1.49507 0
M  V30 948 O 91.781 0.600193 -1.78689 0
M  V30 949 C 88.908 0.702893 -3.31326 0
M  V30 950 C 87.954 -0.0723049 -4.26439 0
M  V30 951 S 88.787 -1.42811 -5.16106 0
M  V30 952 C 89.943 -0.518613 -6.23748 0
M  V30 953 H 90.176 -1.00533 -2.79786 0
M  V30 954 H 87.709 -0.632336 -1.40858 0
M  V30 955 H 89.667 1.22505 -3.91794 0
M  V30 956 H 88.328 1.47004 -2.77576 0
M  V30 957 H 87.521 0.62359 -5.00127 0
M  V30 958 H 87.123 -0.525424 -3.70291 0
M  V30 959 H 89.415 0.284778 -6.76901 0
M  V30 960 H 90.358 -1.22556 -6.97413 0
M  V30 961 H 90.766 -0.101344 -5.64409 0
M  V30 962 N 90.1641 1.46063 -0.591896 0
M  V30 963 C 91.0741 2.34192 0.13831 0
M  V30 964 C 92.0901 1.50305 0.876608 0
M  V30 965 O 93.2661 1.8315 0.837728 0
M  V30 966 C 90.3311 3.27656 1.13326 0
M  V30 967 C 89.3921 4.27445 0.39863 0
M  V30 968 C 88.6251 5.16443 1.34618 0
M  V30 969 O 88.8481 5.08553 2.58321 0
M  V30 970 O 87.7821 5.95843 0.851768 0
M  V30 971 H 91.6081 2.98002 -0.58552 0
M  V30 972 H 89.1931 1.45188 -0.352239 0
M  V30 973 H 91.0751 3.85291 1.70671 0
M  V30 974 H 89.7501 2.6643 1.83839 0
M  V30 975 H 88.6571 3.73471 -0.216895 0
M  V30 976 H 89.9901 4.91482 -0.265709 0
M  V30 977 N 91.6422 0.330177 1.54103 0
M  V30 978 C 92.8702 -0.272179 2.05102 0
M  V30 979 C 93.2852 -1.45267 1.20595 0
M  V30 980 O 92.6422 -1.8094 0.238144 0
M  V30 981 C 92.6932 -0.70023 3.54653 0
M  V30 982 O 92.4142 0.433301 4.35952 0
M  V30 983 C 93.9152 -1.3647 4.21771 0
M  V30 984 H 91.1352 -0.0549159 0.668749 0
M  V30 985 H 93.6792 0.478285 1.98828 0
M  V30 986 H 91.8342 -1.40066 3.61193 0
M  V30 987 H 92.2482 0.0947539 5.24414 0
M  V30 988 H 93.7222 -1.61509 5.27843 0
M  V30 989 H 94.1992 -2.31409 3.73292 0
M  V30 990 H 94.8052 -0.706675 4.19388 0
M  V30 991 N 93.1203 -1.57491 0.0584922 0
M  V30 992 C 94.3663 -1.93264 -0.614558 0
M  V30 993 C 94.6993 -0.937717 -1.7006 0
M  V30 994 O 93.9743 0.0351652 -1.94468 0
M  V30 995 C 94.2573 -3.3938 -1.20386 0
M  V30 996 C 94.1103 -4.49625 -0.125375 0
M  V30 997 C 95.4293 -3.86039 -2.11334 0
M  V30 998 H 92.5483 -0.702791 -0.221933 0
M  V30 999 H 95.1903 -1.8961 0.12175 0
M  V30 1000 H 93.3403 -3.42626 -1.83139 0
M  V30 1001 H 95.0123 -4.58506 0.506971 0
M  V30 1002 H 93.2553 -4.30354 0.545672 0
M  V30 1003 H 93.9263 -5.48967 -0.577861 0
M  V30 1004 H 96.4023 -3.84716 -1.58534 0
M  V30 1005 H 95.2783 -4.88914 -2.49507 0
M  V30 1006 H 95.5393 -3.23215 -3.01636 0
M  V30 1007 N 94.5984 0.214957 -1.56127 0
M  V30 1008 C 95.8444 0.935325 -1.80619 0
M  V30 1009 C 96.1994 1.81706 -0.632507 0
M  V30 1010 O 95.4924 1.87931 0.373182 0
M  V30 1011 C 95.6864 1.80314 -3.0858 0
M  V30 1012 C 95.5154 1.00691 -4.38282 0
M  V30 1013 C 94.2854 0.699211 -5.00439 0
M  V30 1014 C 96.4834 0.369057 -5.12974 0
M  V30 1015 N 94.4654 -0.117734 -6.13787 0
M  V30 1016 C 95.8364 -0.310981 -6.1922 0
M  V30 1017 C 97.8914 0.282759 -4.97096 0
M  V30 1018 C 96.5944 -1.06907 -7.11311 0
M  V30 1019 C 98.6204 -0.461881 -5.89594 0
M  V30 1020 C 97.9824 -1.13044 -6.9527 0
M  V30 1021 H 94.0814 0.322307 -0.71249 0
M  V30 1022 H 96.6654 0.205649 -1.93611 0
M  V30 1023 H 94.8364 2.50458 -2.96859 0
M  V30 1024 H 96.5684 2.46148 -3.21237 0
M  V30 1025 H 93.3234 1.01884 -4.62511 0
M  V30 1026 H 93.7474 -0.515235 -6.75037 0
M  V30 1027 H 98.3894 0.785292 -4.15443 0
M  V30 1028 H 96.1074 -1.5831 -7.92442 0
M  V30 1029 H 99.6934 -0.529746 -5.79383 0
M  V30 1030 H 98.5734 -1.69742 -7.65609 0
M  V30 1031 N 96.0765 1.50051 0.48192 0
M  V30 1032 C 97.3045 1.64237 1.25832 0
M  V30 1033 C 97.7195 0.321336 1.86045 0
M  V30 1034 O 97.0765 -0.695478 1.68729 0
M  V30 1035 C 97.1275 2.72548 2.37487 0
M  V30 1036 O 96.8485 3.99529 1.79745 0
M  V30 1037 C 98.3495 2.9761 3.28547 0
M  V30 1038 H 95.5695 0.55237 0.380957 0
M  V30 1039 H 98.1135 1.96207 0.576467 0
M  V30 1040 H 96.2685 2.43303 3.01467 0
M  V30 1041 H 96.6825 4.59342 2.5319 0
M  V30 1042 H 98.1565 3.77084 4.03127 0
M  V30 1043 H 98.6335 2.0826 3.86684 0
M  V30 1044 H 99.2395 3.28345 2.70314 0
M  V30 1045 N 97.5546 -0.734337 1.39446 0
M  V30 1046 C 98.8036 -1.48937 1.36017 0
M  V30 1047 C 99.1166 -1.95557 -0.0409005 0
M  V30 1048 O 100.323 -2.70779 -0.19778 0
M  V30 1049 C 98.7786 -2.69125 2.38955 0
M  V30 1050 C 98.3866 -2.29452 3.8478 0
M  V30 1051 C 100.131 -3.46944 2.44603 0
M  V30 1052 C 98.0376 -3.46366 4.79358 0
M  V30 1053 H 96.9676 -0.559296 0.505672 0
M  V30 1054 H 99.6186 -0.800983 1.65095 0
M  V30 1055 H 98.0006 -3.40041 2.02948 0
M  V30 1056 H 99.1746 -1.66077 4.29831 0
M  V30 1057 H 97.4896 -1.64723 3.82433 0
M  V30 1058 H 100.087 -4.33907 3.12456 0
M  V30 1059 H 100.43 -3.89454 1.47076 0
M  V30 1060 H 100.963 -2.83056 2.79507 0
M  V30 1061 H 97.7016 -3.08905 5.78151 0
M  V30 1062 H 97.2216 -4.08719 4.38986 0
M  V30 1063 H 98.9006 -4.12691 4.98292 0
M  V30 1064 N 99.0327 -1.24633 -0.964593 0
M  V30 1065 C 99.9627 -1.06611 -2.07741 0
M  V30 1066 C 100.944 0.0218666 -1.70086 0
M  V30 1067 O 102.129 -0.145793 -1.93652 0
M  V30 1068 C 99.2587 -0.673444 -3.40708 0
M  V30 1069 C 98.2127 -1.71054 -3.92332 0
M  V30 1070 C 97.5387 -1.17285 -5.21678 0
M  V30 1071 C 98.8387 -3.10718 -4.19824 0
M  V30 1072 H 100.533 -1.99693 -2.23076 0
M  V30 1073 H 98.0787 -0.96152 -1.07195 0
M  V30 1074 H 100.032 -0.534345 -4.17998 0
M  V30 1075 H 98.7557 0.293073 -3.25282 0
M  V30 1076 H 97.4147 -1.83791 -3.17201 0
M  V30 1077 H 97.0627 -0.196847 -5.02615 0
M  V30 1078 H 96.7627 -1.86592 -5.57187 0
M  V30 1079 H 98.2867 -1.04593 -6.01575 0
M  V30 1080 H 99.7007 -3.01192 -4.87808 0
M  V30 1081 H 98.0977 -3.77406 -4.66567 0
M  V30 1082 H 99.1677 -3.58524 -3.26479 0
M  V30 1083 N 100.511 1.16574 -1.06058 0
M  V30 1084 C 101.922 1.68662 -0.800632 0
M  V30 1085 C 102.273 1.84184 0.67608 0
M  V30 1086 O 101.398 1.53568 1.52466 0
M  V30 1087 C 101.993 3.06356 -1.44676 0
M  V30 1088 C 100.552 3.55575 -1.23465 0
M  V30 1089 C 99.6988 2.31616 -1.52477 0
M  V30 1090 H 102.65 1.00969 -1.22438 0
M  V30 1091 H 102.671 3.70636 -0.860788 0
M  V30 1092 H 102.183 2.95027 -2.52152 0
M  V30 1093 H 100.284 3.72167 -0.179527 0
M  V30 1094 H 100.397 4.37812 -1.94571 0
M  V30 1095 H 98.7608 2.36512 -0.945209 0
M  V30 1096 H 99.5438 2.22887 -2.61106 0
M  V30 1097 N 101.989 0.842826 1.3317 0
M  V30 1098 C 102.952 0.284065 2.27433 0
M  V30 1099 C 103.952 -0.54948 1.5112 0
M  V30 1100 O 105.142 -0.362699 1.70382 0
M  V30 1101 C 102.274 -0.599384 3.35589 0
M  V30 1102 H 103.467 1.11589 2.78366 0
M  V30 1103 H 101.02 0.616221 1.4364 0
M  V30 1104 H 101.755 -1.45349 2.89904 0
M  V30 1105 H 101.54 -0.00291266 3.921 0
M  V30 1106 H 103.03 -0.983488 4.05854 0
M  V30 1107 N 103.467 -1.45747 0.599634 0
M  V30 1108 C 104.716 -2.01502 0.0893511 0
M  V30 1109 C 105.029 -1.4748 -1.28488 0
M  V30 1110 O 106.235 -1.95161 -1.88745 0
M  V30 1111 C 104.691 -3.59735 0.109082 0
M  V30 1112 C 104.299 -4.22754 1.48267 0
M  V30 1113 C 106.043 -4.23085 -0.346374 0
M  V30 1114 C 103.95 -5.73115 1.45921 0
M  V30 1115 H 102.88 -0.753417 0.0296347 0
M  V30 1116 H 105.531 -1.67303 0.753788 0
M  V30 1117 H 103.913 -3.91087 -0.621854 0
M  V30 1118 H 105.087 -4.02987 2.23468 0
M  V30 1119 H 103.402 -3.71567 1.87955 0
M  V30 1120 H 105.999 -5.33327 -0.38298 0
M  V30 1121 H 106.342 -3.93201 -1.36743 0
M  V30 1122 H 106.875 -3.9642 0.331038 0
M  V30 1123 H 103.614 -6.07685 2.45762 0
M  V30 1124 H 103.134 -5.95097 0.749665 0
M  V30 1125 H 104.813 -6.3616 1.17941 0
M  V30 1126 N 104.945 -0.338344 -1.53925 0
M  V30 1127 C 106.194 0.260732 -2.00008 0
M  V30 1128 C 106.507 1.52073 -1.23017 0
M  V30 1129 O 107.713 2.19672 -1.5955 0
M  V30 1130 C 106.169 0.51515 -3.56194 0
M  V30 1131 C 105.777 -0.728645 -4.42035 0
M  V30 1132 C 107.521 1.07337 -4.10706 0
M  V30 1133 C 105.428 -0.445315 -5.89721 0
M  V30 1134 H 104.358 0.101205 -0.747177 0
M  V30 1135 H 107.009 -0.452866 -1.77824 0
M  V30 1136 H 105.391 1.28932 -3.74423 0
M  V30 1137 H 106.565 -1.50352 -4.35581 0
M  V30 1138 H 104.88 -1.20813 -3.98489 0
M  V30 1139 H 107.477 1.30022 -5.18651 0
M  V30 1140 H 107.82 2.0273 -3.63602 0
M  V30 1141 H 108.353 0.360034 -3.96167 0
M  V30 1142 H 105.092 -1.36883 -6.41049 0
M  V30 1143 H 104.612 0.291569 -5.99091 0
M  V30 1144 H 106.291 -0.0606218 -6.46972 0
M  V30 1145 N 106.423 1.57458 -0.0668435 0
M  V30 1146 C 107.353 2.15468 0.899764 0
M  V30 1147 C 108.334 1.08042 1.31381 0
M  V30 1148 O 109.519 1.36054 1.38574 0
M  V30 1149 C 106.649 2.71232 2.16911 0
M  V30 1150 C 105.603 3.83781 1.89463 0
M  V30 1151 C 104.929 4.26127 3.22986 0
M  V30 1152 C 106.229 5.08238 1.20381 0
M  V30 1153 H 107.923 2.96488 0.416529 0
M  V30 1154 H 105.469 1.4262 0.198908 0
M  V30 1155 H 107.422 3.10458 2.84945 0
M  V30 1156 H 106.146 1.87426 2.67468 0
M  V30 1157 H 104.805 3.45051 1.23836 0
M  V30 1158 H 104.453 3.39249 3.71374 0
M  V30 1159 H 104.153 5.01993 3.05413 0
M  V30 1160 H 105.677 4.67966 3.92225 0
M  V30 1161 H 107.091 5.44811 1.78475 0
M  V30 1162 H 105.488 5.89349 1.13083 0
M  V30 1163 H 106.558 4.84558 0.182153 0
M  V30 1164 N 107.901 -0.206675 1.56239 0
M  V30 1165 C 109.147 -0.930218 1.80208 0
M  V30 1166 C 109.48 -1.83387 0.638981 0
M  V30 1167 O 108.755 -1.91119 -0.361066 0
M  V30 1168 C 109.038 -1.75641 3.1436 0
M  V30 1169 C 108.891 -0.878257 4.41142 0
M  V30 1170 C 110.21 -2.73129 3.45092 0
M  V30 1171 H 107.329 -0.336742 0.655571 0
M  V30 1172 H 109.971 -0.198222 1.88963 0
M  V30 1173 H 108.121 -2.38048 3.07027 0
M  V30 1174 H 109.793 -0.269787 4.6051 0
M  V30 1175 H 108.036 -0.184385 4.33408 0
M  V30 1176 H 108.707 -1.49106 5.3148 0
M  V30 1177 H 111.183 -2.20856 3.52649 0
M  V30 1178 H 110.059 -3.28028 4.40101 0
M  V30 1179 H 110.32 -3.51606 2.68003 0
M  V30 1180 N 109.379 -1.50304 -0.473955 0
M  V30 1181 C 110.309 -1.71886 -1.58042 0
M  V30 1182 C 111.29 -0.567799 -1.60344 0
M  V30 1183 O 112.475 -0.806623 -1.76656 0
M  V30 1184 C 109.605 -1.81036 -2.96384 0
M  V30 1185 C 108.559 -2.962 -3.08949 0
M  V30 1186 C 107.885 -2.9049 -4.48909 0
M  V30 1187 C 109.185 -4.36752 -2.86434 0
M  V30 1188 H 110.879 -2.64527 -1.40234 0
M  V30 1189 H 108.425 -1.27295 -0.673201 0
M  V30 1190 H 110.378 -1.94719 -3.73714 0
M  V30 1191 H 109.102 -0.850147 -3.15341 0
M  V30 1192 H 107.761 -2.82164 -2.3405 0
M  V30 1193 H 107.409 -1.92321 -4.64781 0
M  V30 1194 H 107.109 -3.67802 -4.58253 0
M  V30 1195 H 108.633 -3.06218 -5.28264 0
M  V30 1196 H 110.047 -4.5133 -3.53517 0
M  V30 1197 H 108.444 -5.15493 -3.07225 0
M  V30 1198 H 109.514 -4.49321 -1.82316 0
M  V30 1199 N 110.857 0.726932 -1.39834 0
M  V30 1200 C 112.106 1.48214 -1.36805 0
M  V30 1201 C 112.419 1.95576 0.0305291 0
M  V30 1202 O 113.625 2.7088 0.183417 0
M  V30 1203 C 112.081 2.67854 -2.40379 0
M  V30 1204 C 111.689 2.27408 -3.85992 0
M  V30 1205 C 113.433 3.45641 -2.46439 0
M  V30 1206 C 111.34 3.43819 -4.81189 0
M  V30 1207 H 110.27 0.556606 -0.508631 0
M  V30 1208 H 112.921 0.792216 -1.65518 0
M  V30 1209 H 111.303 3.3896 -2.04749 0
M  V30 1210 H 112.477 1.63795 -4.30706 0
M  V30 1211 H 110.792 1.62692 -3.83302 0
M  V30 1212 H 113.389 4.32244 -3.14753 0
M  V30 1213 H 113.732 3.88669 -1.49139 0
M  V30 1214 H 114.265 2.8157 -2.81004 0
M  V30 1215 H 111.004 3.05834 -5.79781 0
M  V30 1216 H 110.524 4.06385 -4.41148 0
M  V30 1217 H 112.203 4.10043 -5.00474 0
M  V30 1218 N 112.336 1.25143 0.95797 0
M  V30 1219 C 113.299 1.05321 2.03569 0
M  V30 1220 C 114.299 0.007152 1.60798 0
M  V30 1221 O 115.489 0.24903 1.72411 0
M  V30 1222 C 112.621 0.598394 3.35607 0
M  V30 1223 H 113.814 2.00986 2.22586 0
M  V30 1224 H 111.367 1.07502 1.13459 0
M  V30 1225 H 112.102 -0.361014 3.22284 0
M  V30 1226 H 111.887 1.35351 3.67998 0
M  V30 1227 H 113.377 0.48104 4.1482 0
M  V30 1228 N 113.814 -1.1601 1.06675 0
M  V30 1229 C 114.744 -2.22688 0.702307 0
M  V30 1230 C 115.725 -1.67306 -0.307032 0
M  V30 1231 O 116.91 -1.93352 -0.181305 0
M  V30 1232 C 114.04 -3.47178 0.092038 0
M  V30 1233 C 112.994 -4.15477 1.02777 0
M  V30 1234 C 112.32 -5.33963 0.28061 0
M  V30 1235 C 113.62 -4.66019 2.35846 0
M  V30 1236 H 115.314 -2.53429 1.59419 0
M  V30 1237 H 112.86 -1.21813 0.767961 0
M  V30 1238 H 114.813 -4.21037 -0.174814 0
M  V30 1239 H 113.537 -3.15749 -0.834877 0
M  V30 1240 H 112.196 -3.43549 1.27944 0
M  V30 1241 H 111.844 -4.98788 -0.649545 0
M  V30 1242 H 111.544 -5.806 0.904258 0
M  V30 1243 H 113.068 -6.10596 0.021396 0
M  V30 1244 H 114.482 -5.3144 2.15045 0
M  V30 1245 H 112.879 -5.23293 2.93743 0
M  V30 1246 H 113.949 -3.82023 2.98641 0
M  V30 1247 N 115.292 -0.849877 -1.32721 0
M  V30 1248 C 116.703 -0.506188 -1.79707 0
M  V30 1249 C 117.054 0.975627 -1.70223 0
M  V30 1250 O 116.179 1.76078 -1.25799 0
M  V30 1251 C 116.774 -0.912044 -3.26293 0
M  V30 1252 C 115.333 -0.620326 -3.71253 0
M  V30 1253 C 114.48 -1.11439 -2.53922 0
M  V30 1254 H 117.431 -1.03754 -1.20087 0
M  V30 1255 H 117.452 -0.226493 -3.79825 0
M  V30 1256 H 116.964 -1.99057 -3.33164 0
M  V30 1257 H 115.065 0.447674 -3.69901 0
M  V30 1258 H 115.178 -1.18327 -4.64258 0
M  V30 1259 H 113.542 -0.534834 -2.49021 0
M  V30 1260 H 114.325 -2.19992 -2.6355 0
M  V30 1261 N 116.77 1.45427 -0.607355 0
M  V30 1262 C 117.995 2.07124 -0.107006 0
M  V30 1263 C 118.42 1.44906 1.19933 0
M  V30 1264 O 117.778 0.541687 1.73019 0
M  V30 1265 C 117.826 3.60595 0.0194119 0
M  V30 1266 O 116.93 3.98285 1.0697 0
M  V30 1267 H 116.271 0.659868 -0.0739597 0
M  V30 1268 H 118.801 1.86683 -0.837297 0
M  V30 1269 H 118.811 4.07419 0.2177 0
M  V30 1270 H 117.486 4.05266 -0.934453 0
M  V30 1271 H 116.063 3.63133 0.847889 0
M  V30 1272 N 118.248 0.346503 1.53744 0
M  V30 1273 C 119.178 -0.501193 2.28058 0
M  V30 1274 C 120.159 -1.10014 1.29734 0
M  V30 1275 O 121.344 -1.12097 1.58581 0
M  V30 1276 C 118.474 -1.65078 3.05559 0
M  V30 1277 C 117.428 -1.18003 4.11411 0
M  V30 1278 C 116.754 -2.41837 4.76884 0
M  V30 1279 C 118.054 -0.278394 5.21558 0
M  V30 1280 H 119.748 0.11875 2.99164 0
M  V30 1281 H 117.294 0.0585531 1.43881 0
M  V30 1282 H 119.247 -2.25028 3.56287 0
M  V30 1283 H 117.971 -2.29767 2.32109 0
M  V30 1284 H 116.63 -0.603331 3.61601 0
M  V30 1285 H 116.278 -3.0494 4.00026 0
M  V30 1286 H 115.978 -2.1102 5.48402 0
M  V30 1287 H 117.502 -3.02508 5.30397 0
M  V30 1288 H 118.916 -0.784823 5.67903 0
M  V30 1289 H 117.313 -0.0619707 6.00068 0
M  V30 1290 H 118.383 0.684677 4.80042 0
M  V30 1291 N 119.726 -1.57421 0.075193 0
M  V30 1292 C 121.142 -1.57099 -0.281444 0
M  V30 1293 C 121.342 -1.08486 -1.69803 0
M  V30 1294 O 120.398 -0.752279 -2.41033 0
M  V30 1295 C 121.711 -3.00571 -0.0880041 0
M  V30 1296 C 123.259 -3.12605 -0.157281 0
M  V30 1297 C 123.734 -4.57999 0.0079207 0
M  V30 1298 N 125.225 -4.63176 -0.0475725 0
M  V30 1299 C 125.96 -5.73373 0.0557876 0
M  V30 1300 N 125.456 -6.92473 0.21286 0
M  V30 1301 N 127.249 -5.621 -0.00152098 0
M  V30 1302 H 119.4 -1.87335 1.00098 0
M  V30 1303 H 121.663 -0.86377 0.390646 0
M  V30 1304 H 121.369 -3.40262 0.889629 0
M  V30 1305 H 121.243 -3.67754 -0.838875 0
M  V30 1306 H 123.63 -2.72798 -1.1254 0
M  V30 1307 H 123.711 -2.48053 0.62475 0
M  V30 1308 H 123.355 -4.98496 0.972824 0
M  V30 1309 H 123.285 -5.20586 -0.793556 0
M  V30 1310 H 125.776 -3.7753 -0.167244 0
M  V30 1311 H 126.089 -7.72279 0.283781 0
M  V30 1312 H 124.434 -6.94556 0.248267 0
M  V30 1313 H 127.625 -4.67938 -0.122958 0
M  V30 1314 H 127.798 -6.47948 0.0824844 0
M  V30 1315 N 121.204 0.198386 -1.56346 0
M  V30 1316 C 122.453 0.917451 -1.79627 0
M  V30 1317 C 122.766 1.8456 -0.64784 0
M  V30 1318 O 123.972 2.60504 -0.764859 0
M  V30 1319 C 122.428 1.68175 -3.18191 0
M  V30 1320 C 122.036 0.798589 -4.40825 0
M  V30 1321 C 123.78 2.39065 -3.50782 0
M  V30 1322 C 121.687 1.56157 -5.70411 0
M  V30 1323 H 120.617 0.346317 -0.669762 0
M  V30 1324 H 123.268 0.170801 -1.82703 0
M  V30 1325 H 121.65 2.47216 -3.09354 0
M  V30 1326 H 122.824 0.0470665 -4.60776 0
M  V30 1327 H 121.139 0.200686 -4.15916 0
M  V30 1328 H 123.736 2.96692 -4.44835 0
M  V30 1329 H 124.079 3.13091 -2.74371 0
M  V30 1330 H 124.612 1.66993 -3.61052 0
M  V30 1331 H 121.351 0.864142 -6.49779 0
M  V30 1332 H 120.871 2.2871 -5.54483 0
M  V30 1333 H 122.55 2.11622 -6.11412 0
M  V30 1334 N 122.682 1.50554 0.465978 0
M  V30 1335 C 123.612 1.72722 1.57128 0
M  V30 1336 C 124.593 0.576294 1.6004 0
M  V30 1337 O 125.778 0.81598 1.76225 0
M  V30 1338 C 122.908 1.82605 2.95419 0
M  V30 1339 C 121.862 2.97835 3.07373 0
M  V30 1340 C 121.188 2.92867 4.47363 0
M  V30 1341 C 122.488 4.38265 2.84114 0
M  V30 1342 H 124.182 2.65267 1.38829 0
M  V30 1343 H 121.728 1.2765 0.666441 0
M  V30 1344 H 123.681 1.96698 3.72677 0
M  V30 1345 H 122.405 0.866858 3.14886 0
M  V30 1346 H 121.064 2.83401 2.3255 0
M  V30 1347 H 120.712 1.94783 4.63755 0
M  V30 1348 H 120.412 3.70227 4.56296 0
M  V30 1349 H 121.936 3.09015 5.26633 0
M  V30 1350 H 123.35 4.53198 3.51118 0
M  V30 1351 H 121.747 5.17115 3.04487 0
M  V30 1352 H 122.817 4.50281 1.7993 0
M  V30 1353 N 124.16 -0.719506 1.40217 0
M  V30 1354 C 125.39 -1.50646 1.41384 0
M  V30 1355 C 125.798 -1.89197 0.0107743 0
M  V30 1356 O 125.141 -1.55709 -0.974708 0
M  V30 1357 C 125.203 -2.81405 2.23722 0
M  V30 1358 C 124.867 -2.65199 3.72181 0
M  V30 1359 C 125.864 -2.32717 4.64907 0
M  V30 1360 C 123.549 -2.81586 4.1595 0
M  V30 1361 C 125.543 -2.16827 5.99387 0
M  V30 1362 C 123.23 -2.65313 5.50502 0
M  V30 1363 C 124.228 -2.32981 6.42035 0
M  V30 1364 O 123.916 -2.16827 7.74107 0
M  V30 1365 H 123.648 -0.471606 0.484318 0
M  V30 1366 H 126.202 -0.895456 1.84853 0
M  V30 1367 H 124.432 -3.44823 1.75026 0
M  V30 1368 H 126.121 -3.43102 2.16878 0
M  V30 1369 H 126.887 -2.19694 4.32388 0
M  V30 1370 H 122.766 -3.0574 3.45027 0
M  V30 1371 H 126.31 -1.91513 6.70797 0
M  V30 1372 H 122.207 -2.7792 5.82607 0
M  V30 1373 H 122.975 -2.31778 7.84998 0
M  V30 1374 N 125.638 -1.25649 -0.95132 0
M  V30 1375 C 126.571 -1.00644 -2.04807 0
M  V30 1376 C 127.549 0.0654271 -1.62468 0
M  V30 1377 O 128.733 -0.074911 -1.88351 0
M  V30 1378 C 125.86 -0.522052 -3.34653 0
M  V30 1379 C 124.906 -1.58495 -3.95957 0
M  V30 1380 S 125.739 -3.17108 -4.31512 0
M  V30 1381 C 126.895 -2.70412 -5.64471 0
M  V30 1382 H 127.128 -1.93508 -2.25703 0
M  V30 1383 H 124.661 -1.09216 -1.09139 0
M  V30 1384 H 126.619 -0.24923 -4.09743 0
M  V30 1385 H 125.28 0.386146 -3.11717 0
M  V30 1386 H 124.473 -1.1968 -4.89584 0
M  V30 1387 H 124.075 -1.80862 -3.2736 0
M  V30 1388 H 126.367 -2.14245 -6.42733 0
M  V30 1389 H 127.31 -3.62693 -6.08161 0
M  V30 1390 H 127.718 -2.10302 -5.23864 0
M  V30 1391 N 127.117 1.15442 -1.07289 0
M  V30 1392 C 128.345 1.90096 -0.81676 0
M  V30 1393 C 128.76 1.7798 0.629966 0
M  V30 1394 O 128.117 1.1313 1.43206 0
M  V30 1395 C 128.168 3.40466 -1.21512 0
M  V30 1396 O 127.889 3.52232 -2.60508 0
M  V30 1397 C 129.39 4.32145 -0.988198 0
M  V30 1398 H 126.61 0.602495 -0.295366 0
M  V30 1399 H 129.154 1.4627 -1.42918 0
M  V30 1400 H 127.309 3.81958 -0.647039 0
M  V30 1401 H 127.723 4.45549 -2.76742 0
M  V30 1402 H 129.197 5.36072 -1.31645 0
M  V30 1403 H 129.674 4.39135 0.0755063 0
M  V30 1404 H 130.28 3.96395 -1.54115 0
M  V30 1405 N 128.595 0.856903 1.32268 0
M  V30 1406 C 129.872 0.382583 1.91822 0
M  V30 1407 C 130.252 -1.13407 1.78051 0
M  V30 1408 O 129.6 -1.95673 1.18001 0
M  V30 1409 C 129.81 0.849446 3.38505 0
M  V30 1410 C 131.158 0.867936 4.15634 0
M  V30 1411 O 132.182 0.794232 3.47232 0
M  V30 1412 O 131.041 0.972286 5.37781 0
M  V30 1413 H 128.135 0.112014 0.819379 0
M  V30 1414 H 130.681 0.943952 1.41024 0
M  V30 1415 H 129.453 1.89267 3.42482 0
M  V30 1416 H 129.076 0.265652 3.96712 0
M  V30 1417 N 130.073 -1.45103 0.615059 0
M  V30 1418 C 130.983 -2.34382 -0.101034 0
M  V30 1419 C 131.999 -1.51681 -0.852585 0
M  V30 1420 O 133.175 -1.8446 -0.808484 0
M  V30 1421 C 130.24 -3.29417 -1.08099 0
M  V30 1422 C 129.301 -4.28025 -0.330577 0
M  V30 1423 C 128.534 -5.1852 -1.26385 0
M  V30 1424 O 128.757 -5.12598 -2.50198 0
M  V30 1425 O 127.691 -5.97122 -0.756866 0
M  V30 1426 H 131.517 -2.97033 0.632855 0
M  V30 1427 H 129.102 -1.4461 0.375293 0
M  V30 1428 H 130.984 -3.87958 -1.6452 0
M  V30 1429 H 129.659 -2.69321 -1.79577 0
M  V30 1430 H 128.566 -3.73078 0.276283 0
M  V30 1431 H 129.899 -4.90997 0.343866 0
M  V30 1432 N 131.551 -0.354651 -1.53558 0
M  V30 1433 C 132.797 0.238797 -2.01389 0
M  V30 1434 C 133.13 1.49309 -1.2418 0
M  V30 1435 O 132.405 1.91638 -0.332457 0
M  V30 1436 C 132.688 0.541771 -3.56001 0
M  V30 1437 C 132.541 -0.725388 -4.43912 0
M  V30 1438 C 133.86 1.34685 -4.18984 0
M  V30 1439 H 130.979 0.0853177 -0.732045 0
M  V30 1440 H 133.621 -0.477384 -1.83905 0
M  V30 1441 H 131.771 1.15189 -3.71031 0
M  V30 1442 H 133.443 -1.36313 -4.407 0
M  V30 1443 H 131.686 -1.34801 -4.12324 0
M  V30 1444 H 132.357 -0.468505 -5.50008 0
M  V30 1445 H 134.833 0.830837 -4.07721 0
M  V30 1446 H 133.709 1.52759 -5.27215 0
M  V30 1447 H 133.97 2.35221 -3.74331 0
M  V30 1448 N 133.029 1.57378 -0.0835403 0
M  V30 1449 C 133.977 2.14602 0.89714 0
M  V30 1450 C 134.971 1.08589 1.30018 0
M  V30 1451 O 136.177 1.26952 1.27606 0
M  V30 1452 H 132.552 0.686346 0.3073 0
M  V30 1453 H 134.523 2.95845 0.38969 0
M  V30 1454 C 133.272 2.73188 2.15089 0
M  V30 1455 H 132.595 3.54442 1.84962 0
M  V30 1456 H 134.035 3.1681 2.81793 0
M  V30 1457 C 132.494 1.68517 2.91725 0
M  V30 1458 O 133.024 1.11718 3.85852 0
M  V30 1459 N 131.23 1.39277 2.55049 0
M  V30 1460 H 130.777 1.85655 1.78577 0
M  V30 1461 H 130.735 0.694791 3.06627 0
M  V30 1462 N 134.507 -0.190092 1.56449 0
M  V30 1463 C 135.784 -0.935886 1.71757 0
M  V30 1464 C 136.164 -2.01173 0.639726 0
M  V30 1465 O 135.512 -2.25827 -0.348502 0
M  V30 1466 C 135.722 -1.51775 3.1427 0
M  V30 1467 C 137.07 -1.99794 3.74656 0
M  V30 1468 O 138.094 -1.61607 3.1743 0
M  V30 1469 O 136.953 -2.70079 4.751 0
M  V30 1470 H 134.047 -0.439229 0.700719 0
M  V30 1471 H 136.593 -0.179395 1.68749 0
M  V30 1472 H 135.365 -0.742505 3.84191 0
M  V30 1473 H 134.988 -2.33894 3.21527 0
M  V30 1474 N 135.985 -1.50799 -0.457987 0
M  V30 1475 C 137.396 -1.55152 -1.0385 0
M  V30 1476 C 137.747 -0.362719 -1.92818 0
M  V30 1477 O 136.872 0.522915 -2.09987 0
M  V30 1478 C 137.467 -2.81173 -1.89017 0
M  V30 1479 C 136.026 -2.88164 -2.42154 0
M  V30 1480 C 135.173 -2.49591 -1.20829 0
M  V30 1481 H 138.124 -1.56874 -0.240068 0
M  V30 1482 H 138.145 -2.63769 -2.74238 0
M  V30 1483 H 137.657 -3.67677 -1.24238 0
M  V30 1484 H 135.758 -2.06042 -3.10447 0
M  V30 1485 H 135.871 -3.91356 -2.76364 0
M  V30 1486 H 134.235 -2.02322 -1.54719 0
M  V30 1487 H 135.018 -3.38418 -0.576927 0
M  V30 1488 N 137.463 0.71206 -1.40597 0
M  V30 1489 C 138.688 1.50617 -1.42581 0
M  V30 1490 C 139.113 1.88079 -0.0282102 0
M  V30 1491 O 138.471 1.53511 0.964579 0
M  V30 1492 C 138.519 2.7557 -2.3258 0
M  V30 1493 O 137.623 3.72414 -1.77148 0
M  V30 1494 H 136.964 0.453966 -0.484573 0
M  V30 1495 H 139.494 0.876649 -1.84868 0
M  V30 1496 H 139.504 3.2406 -2.47889 0
M  V30 1497 H 138.179 2.47639 -3.34138 0
M  V30 1498 H 136.756 3.31276 -1.71204 0
M  V30 1499 N 138.941 1.26152 0.944643 0
M  V30 1500 C 139.871 1.09902 2.06019 0
M  V30 1501 C 140.852 0.00519538 1.70099 0
M  V30 1502 O 142.037 0.176583 1.93396 0
M  V30 1503 C 139.167 0.727562 3.39594 0
M  V30 1504 C 138.121 1.77274 3.89561 0
M  V30 1505 C 137.447 1.25569 5.19747 0
M  V30 1506 C 138.747 3.17357 4.14827 0
M  V30 1507 H 140.441 2.03217 2.19871 0
M  V30 1508 H 137.987 0.978452 1.05652 0
M  V30 1509 H 139.94 0.600777 4.17095 0
M  V30 1510 H 138.664 -0.241287 3.25707 0
M  V30 1511 H 137.323 1.88814 3.14237 0
M  V30 1512 H 136.971 0.276783 5.02238 0
M  V30 1513 H 136.671 1.95433 5.54148 0
M  V30 1514 H 138.195 1.1415 5.99835 0
M  V30 1515 H 139.609 3.08914 4.82954 0
M  V30 1516 H 138.006 3.84781 4.60504 0
M  V30 1517 H 139.076 3.63673 3.20734 0
M  V30 1518 N 140.419 -1.14872 1.07899 0
M  V30 1519 C 141.647 -1.89661 0.82683 0
M  V30 1520 C 142.062 -1.78312 -0.620519 0
M  V30 1521 O 141.419 -1.13888 -1.42604 0
M  V30 1522 C 141.47 -3.39817 1.23316 0
M  V30 1523 O 141.191 -3.50845 2.62372 0
M  V30 1524 C 142.692 -4.31615 1.0111 0
M  V30 1525 H 139.912 -0.60092 0.298557 0
M  V30 1526 H 142.456 -1.4551 1.43691 0
M  V30 1527 H 140.611 -3.8161 0.667286 0
M  V30 1528 H 141.025 -4.44076 2.79101 0
M  V30 1529 H 142.499 -5.35367 1.34486 0
M  V30 1530 H 142.976 -4.39169 -0.0522168 0
M  V30 1531 H 143.582 -3.95572 1.56215 0
M  V30 1532 N 141.898 -0.863906 -1.31812 0
M  V30 1533 C 143.147 -0.46801 -1.96195 0
M  V30 1534 C 143.46 0.983474 -1.69077 0
M  V30 1535 O 144.666 1.48523 -2.27273 0
M  V30 1536 C 143.122 -0.785995 -3.51212 0
M  V30 1537 C 142.73 -2.25383 -3.87178 0
M  V30 1538 C 144.474 -0.458274 -4.22019 0
M  V30 1539 C 142.381 -2.51455 -5.3528 0
M  V30 1540 H 141.311 -0.171283 -0.734287 0
M  V30 1541 H 143.962 -1.05597 -1.50072 0
M  V30 1542 H 142.344 -0.127359 -3.95795 0
M  V30 1543 H 143.518 -2.95502 -3.53575 0
M  V30 1544 H 141.833 -2.54698 -3.2942 0
M  V30 1545 H 144.43 -0.630369 -5.30971 0
M  V30 1546 H 144.773 0.600834 -4.11941 0
M  V30 1547 H 145.306 -1.07319 -3.8305 0
M  V30 1548 H 142.045 -3.56025 -5.50387 0
M  V30 1549 H 141.565 -1.85923 -5.70257 0
M  V30 1550 H 143.244 -2.35874 -6.02472 0
M  V30 1551 N 143.376 1.44774 -0.622745 0
M  V30 1552 C 144.323 2.30635 0.0871679 0
M  V30 1553 C 145.293 1.42994 0.845097 0
M  V30 1554 O 146.478 1.71907 0.827812 0
M  V30 1555 C 143.618 3.28144 1.06844 0
M  V30 1556 C 142.731 4.30888 0.309809 0
M  V30 1557 C 141.866 5.15494 1.28215 0
M  V30 1558 C 140.905 6.09953 0.512198 0
M  V30 1559 N 140.042 6.87287 1.43458 0
M  V30 1560 H 144.882 2.90803 -0.650974 0
M  V30 1561 H 142.419 1.43286 -0.33281 0
M  V30 1562 H 144.377 3.83157 1.65066 0
M  V30 1563 H 143.007 2.69695 1.77382 0
M  V30 1564 H 142.059 3.78414 -0.388181 0
M  V30 1565 H 143.371 4.97955 -0.290254 0
M  V30 1566 H 142.525 5.74983 1.93596 0
M  V30 1567 H 141.264 4.48481 1.91614 0
M  V30 1568 H 140.269 5.49581 -0.155151 0
M  V30 1569 H 141.494 6.78999 -0.116958 0
M  V30 1570 H 139.44 6.2295 2.05594 0
M  V30 1571 H 139.357 7.50763 0.888335 0
M  V30 1572 H 140.625 7.51306 2.07749 0
M  V30 1573 N 144.854 0.36279 1.53368 0
M  V30 1574 C 146.079 -0.231226 2.06107 0
M  V30 1575 C 146.504 -1.419 1.23474 0
M  V30 1576 O 145.862 -1.79524 0.253128 0
M  V30 1577 C 145.91 -0.605523 3.5548 0
M  V30 1578 O 145.014 -1.70312 3.7559 0
M  V30 1579 H 144.355 -0.034327 0.663112 0
M  V30 1580 H 146.885 0.522584 1.97814 0
M  V30 1581 H 146.895 -0.877314 3.98456 0
M  V30 1582 H 145.57 0.263004 4.15068 0
M  V30 1583 H 144.147 -1.4271 3.44512 0
M  V30 1584 N 146.332 -1.57332 0.0918853 0
M  V30 1585 C 147.581 -1.93412 -0.572249 0
M  V30 1586 C 147.894 -0.975515 -1.69538 0
M  V30 1587 O 149.1 -1.22991 -2.42045 0
M  V30 1588 C 147.556 -3.43648 -1.0693 0
M  V30 1589 C 147.164 -4.47994 0.0239049 0
M  V30 1590 C 148.908 -3.88695 -1.70635 0
M  V30 1591 C 146.815 -5.89381 -0.488319 0
M  V30 1592 H 145.745 -0.721939 -0.217532 0
M  V30 1593 H 148.396 -1.82735 0.167369 0
M  V30 1594 H 146.778 -3.49466 -1.8625 0
M  V30 1595 H 147.952 -4.53815 0.799277 0
M  V30 1596 H 146.267 -4.12536 0.565946 0
M  V30 1597 H 148.864 -4.91725 -2.10025 0
M  V30 1598 H 149.207 -3.27166 -2.57426 0
M  V30 1599 H 149.74 -3.85564 -0.979023 0
M  V30 1600 H 146.479 -6.54602 0.342906 0
M  V30 1601 H 145.999 -5.87037 -1.23077 0
M  V30 1602 H 147.678 -6.39863 -0.958317 0
M  V30 1603 N 147.81 0.181792 -1.56548 0
M  V30 1604 C 149.058 0.89832 -1.81038 0
M  V30 1605 C 149.379 1.83232 -0.667164 0
M  V30 1606 O 148.649 1.93372 0.313673 0
M  V30 1607 H 147.229 0.33471 -0.667816 0
M  V30 1608 H 149.891 0.184116 -1.94028 0
M  V30 1609 H 148.987 1.4815 -2.74696 0
M  V30 1610 N 149.288 1.51039 0.449983 0
M  V30 1611 C 150.238 1.67824 1.54335 0
M  V30 1612 C 151.222 0.5324 1.51836 0
M  V30 1613 O 152.414 0.787762 1.58503 0
M  V30 1614 C 149.543 1.7951 2.92628 0
M  V30 1615 C 148.629 2.99838 2.9993 0
M  V30 1616 N 149.02 4.23207 2.77001 0
M  V30 1617 C 147.318 2.98832 3.31082 0
M  V30 1618 C 148.019 5.04361 2.89818 0
M  V30 1619 N 146.995 4.38746 3.2094 0
M  V30 1620 H 150.797 2.60884 1.35339 0
M  V30 1621 H 148.311 1.48513 0.657085 0
M  V30 1622 H 150.308 1.89642 3.7127 0
M  V30 1623 H 148.968 0.876227 3.12654 0
M  V30 1624 H 149.979 4.5236 2.52172 0
M  V30 1625 H 146.656 2.16527 3.56963 0
M  V30 1626 H 148.046 6.12528 2.76151 0
M  V30 1627 N 150.766 -0.704594 1.40972 0
M  V30 1628 C 151.698 -1.82974 1.38033 0
M  V30 1629 C 152.711 -1.60305 0.283931 0
M  V30 1630 O 153.9 -1.69975 0.545042 0
M  V30 1631 C 151 -3.19578 1.12795 0
M  V30 1632 C 150.173 -3.69352 2.34302 0
M  V30 1633 C 149.232 -4.84601 2.05058 0
M  V30 1634 O 148.258 -4.96682 2.7802 0
M  V30 1635 N 149.46 -5.71194 1.03528 0
M  V30 1636 H 152.225 -1.85991 2.35005 0
M  V30 1637 H 149.786 -0.886567 1.35468 0
M  V30 1638 H 151.778 -3.9429 0.911987 0
M  V30 1639 H 150.348 -3.11642 0.24452 0
M  V30 1640 H 149.568 -2.85649 2.71659 0
M  V30 1641 H 150.856 -3.99345 3.1528 0
M  V30 1642 H 150.254 -5.64054 0.431217 0
M  V30 1643 H 148.811 -6.45843 0.879205 0
M  V30 1644 N 152.244 -1.26651 -0.937939 0
M  V30 1645 C 153.49 -1.13562 -1.68746 0
M  V30 1646 C 153.845 0.317241 -1.89767 0
M  V30 1647 O 153.138 1.22939 -1.46957 0
M  V30 1648 C 153.332 -1.84168 -3.06295 0
M  V30 1649 C 153.161 -3.36171 -2.98696 0
M  V30 1650 C 151.931 -4.05468 -3.01535 0
M  V30 1651 C 154.129 -4.32312 -2.78588 0
M  V30 1652 N 152.111 -5.44118 -2.84269 0
M  V30 1653 C 153.482 -5.58159 -2.69924 0
M  V30 1654 C 155.537 -4.22524 -2.63396 0
M  V30 1655 C 154.24 -6.75335 -2.47618 0
M  V30 1656 C 156.266 -5.39411 -2.42466 0
M  V30 1657 C 155.628 -6.64208 -2.34536 0
M  V30 1658 H 151.727 -0.470361 -0.624728 0
M  V30 1659 H 154.311 -1.59982 -1.10968 0
M  V30 1660 H 152.482 -1.40219 -3.62206 0
M  V30 1661 H 154.214 -1.63674 -3.70126 0
M  V30 1662 H 150.969 -3.56854 -3.11372 0
M  V30 1663 H 151.393 -6.1693 -2.78795 0
M  V30 1664 H 156.035 -3.26771 -2.68292 0
M  V30 1665 H 153.753 -7.71182 -2.41463 0
M  V30 1666 H 157.339 -5.33711 -2.31611 0
M  V30 1667 H 156.219 -7.53129 -2.18555 0
M  V30 1668 N 153.722 1.14298 -1.08507 0
M  V30 1669 C 154.952 1.88945 -0.835663 0
M  V30 1670 C 155.36 1.78894 0.615928 0
M  V30 1671 O 154.703 1.1468 1.43506 0
M  V30 1672 C 154.765 3.39585 -1.17994 0
M  V30 1673 C 154.429 3.7342 -2.63451 0
M  V30 1674 C 155.426 3.73454 -3.61702 0
M  V30 1675 C 153.111 4.03368 -2.99332 0
M  V30 1676 C 155.105 4.02961 -4.93864 0
M  V30 1677 C 152.792 4.32538 -4.31687 0
M  V30 1678 C 153.79 4.32318 -5.28763 0
M  V30 1679 O 153.478 4.6078 -6.58739 0
M  V30 1680 H 153.21 0.605307 -0.300965 0
M  V30 1681 H 155.764 1.45673 -1.44806 0
M  V30 1682 H 153.994 3.83315 -0.51055 0
M  V30 1683 H 155.683 3.9554 -0.911182 0
M  V30 1684 H 156.449 3.50403 -3.35325 0
M  V30 1685 H 152.328 4.02692 -2.24411 0
M  V30 1686 H 155.872 4.02704 -5.69627 0
M  V30 1687 H 151.769 4.55059 -4.57812 0
M  V30 1688 H 152.537 4.78492 -6.64069 0
M  V30 1689 N 155.201 0.870884 1.31352 0
M  V30 1690 C 156.447 0.492314 1.97352 0
M  V30 1691 C 156.802 -0.945174 1.67583 0
M  V30 1692 O 156.095 -1.65674 0.962423 0
M  V30 1693 C 156.289 0.687157 3.50732 0
M  V30 1694 C 156.118 2.14203 3.95407 0
M  V30 1695 C 154.888 2.78382 4.21701 0
M  V30 1696 C 157.086 3.1144 4.09279 0
M  V30 1697 N 155.068 4.14611 4.52737 0
M  V30 1698 C 156.439 4.32702 4.44037 0
M  V30 1699 C 158.494 3.07418 3.91661 0
M  V30 1700 C 157.197 5.50463 4.63015 0
M  V30 1701 C 159.223 4.24438 4.11833 0
M  V30 1702 C 158.585 5.44463 4.46923 0
M  V30 1703 H 154.684 0.229206 0.747655 0
M  V30 1704 H 157.268 1.12568 1.5886 0
M  V30 1705 H 155.439 0.083384 3.8831 0
M  V30 1706 H 157.171 0.276883 4.03752 0
M  V30 1707 H 153.926 2.29326 4.14375 0
M  V30 1708 H 154.35 4.84928 4.72413 0
M  V30 1709 H 158.992 2.15732 3.6362 0
M  V30 1710 H 156.71 6.42666 4.89904 0
M  V30 1711 H 160.296 4.2278 3.99685 0
M  V30 1712 H 159.176 6.33504 4.62214 0
M  V30 1713 N 156.679 -1.44442 0.630414 0
M  V30 1714 C 157.907 -2.06414 0.141671 0
M  V30 1715 C 158.322 -1.47105 -1.18345 0
M  V30 1716 O 157.679 -0.593662 -1.72574 0
M  V30 1717 C 157.73 -3.61494 0.0199784 0
M  V30 1718 O 157.451 -4.18594 1.29269 0
M  V30 1719 C 158.952 -4.40499 -0.497544 0
M  V30 1720 H 156.172 -0.666292 0.0793452 0
M  V30 1721 H 158.716 -1.85323 0.864614 0
M  V30 1722 H 156.871 -3.8185 -0.653402 0
M  V30 1723 H 157.285 -5.12026 1.13707 0
M  V30 1724 H 158.759 -5.49433 -0.531708 0
M  V30 1725 H 159.236 -4.11895 -1.52445 0
M  V30 1726 H 159.842 -4.25061 0.142562 0
M  V30 1727 N 158.157 -0.370918 -1.53173 0
M  V30 1728 C 159.387 0.217389 -2.05453 0
M  V30 1729 C 159.795 1.42568 -1.24382 0
M  V30 1730 O 159.138 1.81571 -0.278839 0
M  V30 1731 C 159.2 0.669827 -3.53205 0
M  V30 1732 C 158.864 -0.4225 -4.55043 0
M  V30 1733 C 159.861 -1.27407 -5.04047 0
M  V30 1734 C 157.546 -0.58427 -4.9889 0
M  V30 1735 C 159.54 -2.27271 -5.95505 0
M  V30 1736 C 157.227 -1.58627 -5.90153 0
M  V30 1737 C 158.225 -2.42892 -6.38351 0
M  V30 1738 O 157.913 -3.41382 -7.27814 0
M  V30 1739 H 157.645 0.0408171 -0.674767 0
M  V30 1740 H 160.199 -0.5292 -1.98466 0
M  V30 1741 H 158.429 1.4681 -3.57748 0
M  V30 1742 H 160.118 1.18173 -3.88317 0
M  V30 1743 H 160.884 -1.16031 -4.70916 0
M  V30 1744 H 156.763 0.061851 -4.60959 0
M  V30 1745 H 160.307 -2.93079 -6.33049 0
M  V30 1746 H 156.204 -1.70048 -6.22699 0
M  V30 1747 H 156.972 -3.37173 -7.45826 0
M  V30 1748 N 159.635 1.57281 -0.100228 0
M  V30 1749 C 160.545 2.17833 0.870965 0
M  V30 1750 C 161.561 1.14921 1.30649 0
M  V30 1751 O 162.737 1.47313 1.37335 0
M  V30 1752 C 159.802 2.75085 2.1102 0
M  V30 1753 C 158.863 3.9297 1.72838 0
M  V30 1754 C 158.096 4.47482 2.90854 0
M  V30 1755 O 158.319 4.00922 4.05731 0
M  V30 1756 O 157.253 5.38433 2.69023 0
M  V30 1757 H 161.079 3.0124 0.38575 0
M  V30 1758 H 158.664 1.48881 0.124397 0
M  V30 1759 H 160.546 3.11656 2.83634 0
M  V30 1760 H 159.221 1.94721 2.58584 0
M  V30 1761 H 158.128 3.61201 0.973883 0
M  V30 1762 H 159.461 4.74713 1.30033 0
M  V30 1763 N 161.113 -0.173488 1.56642 0
M  V30 1764 C 162.343 -0.904781 1.85734 0
M  V30 1765 C 162.751 -1.76431 0.68328 0
M  V30 1766 O 162.094 -1.802 -0.356865 0
M  V30 1767 C 162.156 -1.83382 3.09211 0
M  V30 1768 C 161.82 -1.15411 4.42187 0
M  V30 1769 C 162.817 -0.520609 5.17287 0
M  V30 1770 C 160.502 -1.15151 4.88923 0
M  V30 1771 C 162.496 0.106412 6.37311 0
M  V30 1772 C 160.183 -0.520664 6.08878 0
M  V30 1773 C 161.181 0.107196 6.82916 0
M  V30 1774 O 160.869 0.728102 8.00596 0
M  V30 1775 H 160.601 -0.268408 0.62043 0
M  V30 1776 H 163.155 -0.179096 2.04618 0
M  V30 1777 H 161.385 -2.59976 2.86268 0
M  V30 1778 H 163.074 -2.43476 3.24768 0
M  V30 1779 H 163.84 -0.514606 4.82262 0
M  V30 1780 H 159.719 -1.62961 4.31236 0
M  V30 1781 H 163.263 0.597081 6.9504 0
M  V30 1782 H 159.16 -0.524242 6.43368 0
M  V30 1783 H 159.928 0.627138 8.16094 0
M  V30 1784 N 162.591 -1.51276 -0.441967 0
M  V30 1785 C 163.819 -1.67516 -1.21434 0
M  V30 1786 C 164.234 -0.37055 -1.85128 0
M  V30 1787 O 163.591 0.650498 -1.70513 0
M  V30 1788 C 163.642 -2.78748 -2.30177 0
M  V30 1789 O 163.363 -4.04154 -1.69089 0
M  V30 1790 C 164.864 -3.06217 -3.20541 0
M  V30 1791 H 162.084 -0.562276 -0.366178 0
M  V30 1792 H 164.628 -1.97666 -0.524244 0
M  V30 1793 H 162.783 -2.5121 -2.94911 0
M  V30 1794 H 163.197 -4.65894 -2.40922 0
M  V30 1795 H 164.671 -3.8764 -3.92987 0
M  V30 1796 H 165.148 -2.18439 -3.81026 0
M  V30 1797 H 165.754 -3.35397 -2.61513 0
M  V30 1798 N 164.069 0.697108 -1.41344 0
M  V30 1799 C 165.346 1.45154 -1.31109 0
M  V30 1800 C 165.726 2.11009 0.0620449 0
M  V30 1801 O 165.074 2.01571 1.07618 0
M  V30 1802 C 165.284 2.47223 -2.46337 0
M  V30 1803 C 166.632 3.1252 -2.87431 0
M  V30 1804 O 167.656 2.57547 -2.46065 0
M  V30 1805 O 166.515 4.12083 -3.58957 0
M  V30 1806 H 163.609 0.646365 -0.515889 0
M  V30 1807 H 166.155 0.727716 -1.53305 0
M  V30 1808 H 164.927 1.97204 -3.37974 0
M  V30 1809 H 164.55 3.27116 -2.2601 0
M  V30 1810 N 165.547 1.27147 0.931209 0
M  V30 1811 C 166.777 1.15914 1.71019 0
M  V30 1812 C 167.185 -0.287112 1.87009 0
M  V30 1813 O 166.528 -1.20761 1.38429 0
M  V30 1814 C 166.59 1.76647 3.13107 0
M  V30 1815 C 166.254 3.25807 3.20467 0
M  V30 1816 C 167.251 4.22489 3.02983 0
M  V30 1817 C 164.936 3.66452 3.43538 0
M  V30 1818 C 166.93 5.57794 3.08454 0
M  V30 1819 C 164.617 5.01888 3.48643 0
M  V30 1820 C 165.615 5.97369 3.31119 0
M  V30 1821 O 165.303 7.30337 3.35952 0
M  V30 1822 H 165.035 0.404062 0.54195 0
M  V30 1823 H 167.589 1.68457 1.17521 0
M  V30 1824 H 165.819 1.18578 3.68071 0
M  V30 1825 H 167.508 1.60179 3.72958 0
M  V30 1826 H 168.274 3.92425 2.85004 0
M  V30 1827 H 164.153 2.92611 3.5623 0
M  V30 1828 H 167.697 6.32298 2.94694 0
M  V30 1829 H 163.594 5.31609 3.66145 0
M  V30 1830 H 164.362 7.38739 3.5243 0
M  V30 1831 N 167.025 -1.13721 1.09112 0
M  V30 1832 C 168.273 -1.84559 0.823562 0
M  V30 1833 C 168.594 -1.83754 -0.652658 0
M  V30 1834 O 167.864 -1.29102 -1.47342 0
M  V30 1835 H 166.444 -0.683376 0.301673 0
M  V30 1836 H 169.106 -1.37771 1.37859 0
M  V30 1837 H 168.202 -2.8917 1.17419 0
M  V30 1838 N 168.503 -0.877838 -1.30888 0
M  V30 1839 C 169.751 -0.491723 -1.96027 0
M  V30 1840 C 170.072 0.960827 -1.69685 0
M  V30 1841 O 169.342 1.67462 -1.01654 0
M  V30 1842 H 167.922 -0.17885 -0.725273 0
M  V30 1843 H 170.584 -1.11935 -1.59551 0
M  V30 1844 H 169.68 -0.656016 -3.05128 0
M  V30 1845 N 169.982 1.44106 -0.638065 0
M  V30 1846 C 170.912 2.33448 0.0494287 0
M  V30 1847 C 171.893 1.48606 0.827672 0
M  V30 1848 O 173.078 1.77308 0.792173 0
M  V30 1849 C 170.208 3.31771 1.02691 0
M  V30 1850 C 169.162 4.26485 0.359823 0
M  V30 1851 C 168.488 5.14729 1.44769 0
M  V30 1852 C 169.788 5.17056 -0.738296 0
M  V30 1853 H 171.482 2.91183 -0.696636 0
M  V30 1854 H 169.028 1.40014 -0.336456 0
M  V30 1855 H 170.981 3.93161 1.51666 0
M  V30 1856 H 169.705 2.7226 1.80395 0
M  V30 1857 H 168.364 3.66437 -0.10934 0
M  V30 1858 H 168.012 4.51566 2.21578 0
M  V30 1859 H 167.712 5.78913 1.00668 0
M  V30 1860 H 169.236 5.78991 1.93911 0
M  V30 1861 H 170.65 5.72342 -0.331354 0
M  V30 1862 H 169.047 5.89879 -1.10286 0
M  V30 1863 H 170.117 4.57652 -1.60258 0
M  V30 1864 N 171.46 0.379036 1.52974 0
M  V30 1865 C 172.709 -0.207612 2.00629 0
M  V30 1866 C 173.022 -1.48758 1.27006 0
M  V30 1867 O 174.228 -2.15365 1.65318 0
M  V30 1868 C 172.684 -0.42053 3.57435 0
M  V30 1869 C 172.292 0.845587 4.39948 0
M  V30 1870 C 174.036 -0.964102 4.13407 0
M  V30 1871 C 171.943 0.601513 5.88333 0
M  V30 1872 H 170.873 -0.0813591 0.749598 0
M  V30 1873 H 173.524 0.499853 1.76561 0
M  V30 1874 H 171.906 -1.18959 3.7771 0
M  V30 1875 H 173.08 1.61848 4.31442 0
M  V30 1876 H 171.395 1.31336 3.95145 0
M  V30 1877 H 173.992 -1.16225 5.21916 0
M  V30 1878 H 174.335 -1.93019 3.68849 0
M  V30 1879 H 174.868 -0.25487 3.96983 0
M  V30 1880 H 171.607 1.53831 6.37194 0
M  V30 1881 H 171.127 -0.132628 5.99653 0
M  V30 1882 H 172.806 0.232134 6.46583 0
M  V30 1883 N 172.938 -1.57226 0.108567 0
M  V30 1884 C 174.185 -1.94833 -0.551943 0
M  V30 1885 C 174.513 -0.991204 -1.67348 0
M  V30 1886 O 173.768 -0.0131878 -1.95696 0
M  V30 1887 C 174.067 -3.38911 -1.13463 0
M  V30 1888 C 173.733 -4.50696 -0.135509 0
M  V30 1889 C 172.395 -4.80998 0.139252 0
M  V30 1890 C 174.747 -5.18333 0.545957 0
M  V30 1891 C 172.075 -5.76259 1.10194 0
M  V30 1892 C 174.427 -6.14627 1.49721 0
M  V30 1893 C 173.091 -6.43327 1.78006 0
M  V30 1894 H 172.361 -0.712944 -0.20197 0
M  V30 1895 H 175.008 -1.90582 0.18726 0
M  V30 1896 H 173.313 -3.39805 -1.95037 0
M  V30 1897 H 175.01 -3.65317 -1.65362 0
M  V30 1898 H 171.6 -4.27087 -0.359846 0
M  V30 1899 H 175.784 -4.95087 0.346842 0
M  V30 1900 H 171.04 -5.96804 1.32795 0
M  V30 1901 H 175.214 -6.66126 2.03099 0
M  V30 1902 H 172.841 -7.1695 2.52759 0
M  V30 1903 N 174.416 0.165178 -1.56732 0
M  V30 1904 C 175.364 1.22369 -1.97809 0
M  V30 1905 C 176.358 1.45488 -0.867741 0
M  V30 1906 O 177.564 1.45995 -1.05288 0
M  V30 1907 H 173.939 0.411486 -0.629431 0
M  V30 1908 H 175.91 0.850425 -2.86025 0
M  V30 1909 C 174.659 2.55403 -2.35934 0
M  V30 1910 H 173.982 2.38438 -3.20916 0
M  V30 1911 H 175.422 3.2814 -2.68514 0
M  V30 1912 C 173.881 3.14611 -1.20506 0
M  V30 1913 O 174.411 3.98626 -0.496016 0
M  V30 1914 N 172.617 2.7379 -0.97403 0
M  V30 1915 H 172.164 2.0557 -1.55238 0
M  V30 1916 H 172.122 3.1374 -0.203573 0
M  V30 1917 N 175.894 1.51508 0.433938 0
M  V30 1918 C 177.119 1.68443 1.21003 0
M  V30 1919 C 177.544 0.382636 1.84167 0
M  V30 1920 O 176.902 -0.65755 1.68956 0
M  V30 1921 C 176.95 2.80405 2.26727 0
M  V30 1922 O 176.054 2.44245 3.32292 0
M  V30 1923 H 175.395 0.561536 0.354363 0
M  V30 1924 H 177.925 1.9809 0.512024 0
M  V30 1925 H 177.935 3.0459 2.71457 0
M  V30 1926 H 176.61 3.74867 1.80132 0
M  V30 1927 H 175.187 2.30644 2.93015 0
M  V30 1928 N 177.372 -0.689602 1.41712 0
M  V30 1929 C 178.602 -1.47613 1.44548 0
M  V30 1930 C 179.01 -1.89132 0.0509034 0
M  V30 1931 O 178.353 -1.57741 -0.94146 0
M  V30 1932 C 178.415 -2.76596 2.2964 0
M  V30 1933 C 178.079 -2.57245 3.77722 0
M  V30 1934 C 179.076 -2.22804 4.69739 0
M  V30 1935 C 176.761 -2.727 4.2183 0
M  V30 1936 C 178.755 -2.04064 6.03851 0
M  V30 1937 C 176.442 -2.53576 5.56006 0
M  V30 1938 C 177.44 -2.1931 6.46832 0
M  V30 1939 O 177.128 -2.00359 7.78532 0
M  V30 1940 H 176.86 -0.461227 0.494212 0
M  V30 1941 H 179.414 -0.856045 1.86711 0
M  V30 1942 H 177.644 -3.41033 1.82301 0
M  V30 1943 H 179.333 -3.38424 2.24107 0
M  V30 1944 H 180.099 -2.10473 4.36951 0
M  V30 1945 H 175.978 -2.98353 3.51435 0
M  V30 1946 H 179.522 -1.77241 6.74708 0
M  V30 1947 H 175.419 -2.65499 5.88371 0
M  V30 1948 H 176.187 -2.15075 7.89737 0
M  V30 1949 N 178.85 -1.27639 -0.924453 0
M  V30 1950 C 179.783 -1.04966 -2.02626 0
M  V30 1951 C 180.761 0.0309505 -1.62571 0
M  V30 1952 O 181.945 -0.114846 -1.8815 0
M  V30 1953 C 179.072 -0.59292 -3.3347 0
M  V30 1954 C 178.118 -1.66858 -3.92506 0
M  V30 1955 S 178.951 -3.2619 -4.24689 0
M  V30 1956 C 180.107 -2.82325 -5.58609 0
M  V30 1957 H 180.34 -1.98252 -2.21547 0
M  V30 1958 H 177.873 -1.11506 -1.06798 0
M  V30 1959 H 179.831 -0.336086 -4.09122 0
M  V30 1960 H 178.492 0.319939 -3.12466 0
M  V30 1961 H 177.685 -1.30038 -4.86935 0
M  V30 1962 H 177.287 -1.87766 -3.2345 0
M  V30 1963 H 179.579 -2.2783 -6.38044 0
M  V30 1964 H 180.522 -3.75511 -6.00331 0
M  V30 1965 H 180.93 -2.21367 -5.19285 0
M  V30 1966 N 180.328 1.1314 -1.09713 0
M  V30 1967 C 181.258 2.20748 -0.761102 0
M  V30 1968 C 182.239 1.68061 0.262566 0
M  V30 1969 O 183.424 1.93765 0.129977 0
M  V30 1970 C 180.554 3.46812 -0.184054 0
M  V30 1971 C 179.508 4.12606 -1.13757 0
M  V30 1972 C 178.834 5.33031 -0.422083 0
M  V30 1973 C 180.134 4.59603 -2.48118 0
M  V30 1974 H 181.828 2.49113 -1.66082 0
M  V30 1975 H 179.374 1.19734 -0.799987 0
M  V30 1976 H 181.327 4.21353 0.0631215 0
M  V30 1977 H 180.051 3.17851 0.750868 0
M  V30 1978 H 178.71 3.40036 -1.37007 0
M  V30 1979 H 178.358 5.00335 0.517072 0
M  V30 1980 H 178.058 5.77999 -1.05788 0
M  V30 1981 H 179.582 6.10325 -0.183277 0
M  V30 1982 H 180.996 5.25552 -2.29059 0
M  V30 1983 H 179.393 5.15321 -3.07514 0
M  V30 1984 H 180.463 3.73971 -3.08665 0
M  V30 1985 N 181.806 0.884767 1.30421 0
M  V30 1986 C 183.217 0.553656 1.78302 0
M  V30 1987 C 183.568 -0.930153 1.7275 0
M  V30 1988 O 182.693 -1.72681 1.30423 0
M  V30 1989 C 183.288 0.998234 3.2376 0
M  V30 1990 C 181.847 0.71854 3.69478 0
M  V30 1991 C 180.994 1.18132 2.50879 0
M  V30 1992 H 183.945 1.06901 1.17294 0
M  V30 1993 H 183.966 0.327118 3.79091 0
M  V30 1994 H 183.478 2.0782 3.27769 0
M  V30 1995 H 181.579 -0.349444 3.70958 0
M  V30 1996 H 181.692 1.30595 4.60958 0
M  V30 1997 H 180.056 0.600669 2.47516 0
M  V30 1998 H 180.839 2.26902 2.57624 0
M  V30 1999 N 183.284 -1.43765 0.645699 0
M  V30 2000 C 184.695 -1.85193 0.236719 0
M  V30 2001 C 185.046 -1.54045 -1.21509 0
M  V30 2002 O 184.171 -0.985694 -1.92647 0
M  V30 2003 C 184.766 -3.36151 0.422845 0
M  V30 2004 C 183.325 -3.76338 0.0682492 0
M  V30 2005 C 182.472 -2.67538 0.729306 0
M  V30 2006 H 185.423 -1.34025 0.849883 0
M  V30 2007 H 185.444 -3.79032 -0.333904 0
M  V30 2008 H 184.956 -3.5879 1.47958 0
M  V30 2009 H 183.057 -3.59312 -0.986179 0
M  V30 2010 H 183.17 -4.76603 0.488469 0
M  V30 2011 H 181.534 -2.54176 0.163235 0
M  V30 2012 H 182.317 -2.93006 1.78892 0
M  V30 2013 N 184.763 -0.387143 -1.52771 0
M  V30 2014 C 185.693 0.440551 -2.29306 0
M  V30 2015 C 186.674 1.06535 -1.32606 0
M  V30 2016 O 187.859 1.07853 -1.61497 0
M  V30 2017 C 184.989 1.56919 -3.09829 0
M  V30 2018 C 183.943 1.07054 -4.14395 0
M  V30 2019 C 183.269 2.29109 -4.83129 0
M  V30 2020 C 184.569 0.140015 -5.22112 0
M  V30 2021 H 186.263 -0.198026 -2.98744 0
M  V30 2022 H 183.809 -0.09668 -1.43675 0
M  V30 2023 H 185.762 2.15503 -3.62128 0
M  V30 2024 H 184.486 2.23532 -2.3812 0
M  V30 2025 H 183.145 0.507247 -3.63074 0
M  V30 2026 H 182.793 2.94227 -4.0797 0
M  V30 2027 H 182.493 1.96406 -5.53804 0
M  V30 2028 H 184.017 2.88339 -5.38231 0
M  V30 2029 H 185.431 0.633978 -5.69784 0
M  V30 2030 H 183.828 -0.0971485 -6.00021 0
M  V30 2031 H 184.898 -0.811711 -4.78058 0
M  V30 2032 N 186.241 1.57166 -0.116904 0
M  V30 2033 C 187.488 1.95123 0.541603 0
M  V30 2034 C 187.816 1.00006 1.6682 0
M  V30 2035 O 187.071 0.0235658 1.95686 0
M  V30 2036 C 187.37 3.39508 1.11664 0
M  V30 2037 C 187.036 4.50762 0.111606 0
M  V30 2038 C 185.698 4.80918 -0.164758 0
M  V30 2039 C 188.05 5.18036 -0.573438 0
M  V30 2040 C 185.378 5.75666 -1.13249 0
M  V30 2041 C 187.73 6.13824 -1.52978 0
M  V30 2042 C 186.394 6.42374 -1.81415 0
M  V30 2043 H 185.664 0.714005 0.198187 0
M  V30 2044 H 188.311 1.9048 -0.197365 0
M  V30 2045 H 186.616 3.40835 1.93232 0
M  V30 2046 H 188.313 3.66189 1.63422 0
M  V30 2047 H 184.903 4.27272 0.337192 0
M  V30 2048 H 189.087 4.94896 -0.373092 0
M  V30 2049 H 184.343 5.96092 -1.35958 0
M  V30 2050 H 188.517 6.65039 -2.06629 0
M  V30 2051 H 186.144 7.15599 -2.56557 0
M  V30 2052 N 187.719 -0.156864 1.56817 0
M  V30 2053 C 188.649 -1.19589 2.00551 0
M  V30 2054 C 189.63 -1.4536 0.883426 0
M  V30 2055 O 190.815 -1.56449 1.15054 0
M  V30 2056 C 187.945 -2.53143 2.37773 0
M  V30 2057 C 186.899 -2.41913 3.53075 0
M  V30 2058 C 186.225 -3.80088 3.76081 0
M  V30 2059 C 187.525 -1.91157 4.86062 0
M  V30 2060 H 189.219 -0.832293 2.87599 0
M  V30 2061 H 186.765 -0.398918 1.38364 0
M  V30 2062 H 188.718 -3.26047 2.66967 0
M  V30 2063 H 187.442 -2.91319 1.4765 0
M  V30 2064 H 186.101 -1.71462 3.24031 0
M  V30 2065 H 185.749 -4.15683 2.83225 0
M  V30 2066 H 185.449 -3.73439 4.53671 0
M  V30 2067 H 186.973 -4.54556 4.0769 0
M  V30 2068 H 188.387 -2.53846 5.14038 0
M  V30 2069 H 186.784 -1.95422 5.67389 0
M  V30 2070 H 187.854 -0.866673 4.77092 0
M  V30 2071 N 189.197 -1.51736 -0.425897 0
M  V30 2072 C 190.107 -1.76738 -1.54275 0
M  V30 2073 C 191.123 -0.65211 -1.61318 0
M  V30 2074 O 192.299 -0.935654 -1.78346 0
M  V30 2075 C 189.364 -1.89755 -2.90162 0
M  V30 2076 C 188.425 -3.13633 -2.93143 0
M  V30 2077 C 187.658 -3.2602 -4.22548 0
M  V30 2078 O 187.881 -2.44067 -5.15546 0
M  V30 2079 O 186.815 -4.19071 -4.32046 0
M  V30 2080 H 190.641 -2.71502 -1.36089 0
M  V30 2081 H 188.226 -1.36376 -0.610069 0
M  V30 2082 H 190.108 -2.00236 -3.70788 0
M  V30 2083 H 188.783 -0.981785 -3.08452 0
M  V30 2084 H 187.69 -3.08622 -2.11431 0
M  V30 2085 H 189.023 -4.04936 -2.798 0
M  V30 2086 N 190.675 0.682077 -1.42076 0
M  V30 2087 C 192.086 1.26246 -1.37546 0
M  V30 2088 C 192.437 1.96092 -0.0651481 0
M  V30 2089 O 191.562 1.99587 0.836297 0
M  V30 2090 C 192.157 2.29594 -2.49143 0
M  V30 2091 C 190.716 2.83175 -2.47969 0
M  V30 2092 C 189.863 1.57395 -2.28303 0
M  V30 2093 H 192.814 0.475937 -1.51395 0
M  V30 2094 H 192.835 3.11175 -2.18976 0
M  V30 2095 H 192.347 1.78729 -3.44496 0
M  V30 2096 H 190.448 3.3818 -1.56413 0
M  V30 2097 H 190.561 3.32687 -3.44755 0
M  V30 2098 H 188.925 1.83699 -1.76428 0
M  V30 2099 H 189.708 1.08507 -3.25701 0
M  V30 2100 N 192.153 1.28127 0.917671 0
M  V30 2101 C 193.401 1.14825 1.66312 0
M  V30 2102 C 193.722 -0.304379 1.9261 0
M  V30 2103 O 192.992 -1.21149 1.53947 0
M  V30 2104 H 191.572 0.421953 0.616413 0
M  V30 2105 H 194.234 1.608 1.10134 0
M  V30 2106 H 193.33 1.68489 2.62712 0
M  V30 2107 N 193.631 -1.12557 1.10312 0
M  V30 2108 C 194.908 -1.80363 0.756878 0
M  V30 2109 C 195.288 -1.97067 -0.756824 0
M  V30 2110 O 194.636 -1.54601 -1.68259 0
M  V30 2111 C 194.846 -3.14812 1.50647 0
M  V30 2112 C 196.194 -3.90029 1.67817 0
M  V30 2113 O 197.218 -3.24464 1.46974 0
M  V30 2114 O 196.077 -5.07652 2.02365 0
M  V30 2115 H 193.171 -0.780667 0.272926 0
M  V30 2116 H 195.717 -1.19404 1.20586 0
M  V30 2117 H 194.489 -2.97936 2.53672 0
M  V30 2118 H 194.112 -3.83478 1.05026 0
M  V30 2119 N 195.109 -0.891671 -1.2995 0
M  V30 2120 C 196.039 -0.379797 -2.30391 0
M  V30 2121 C 197.02 0.540919 -1.6127 0
M  V30 2122 O 198.205 0.453352 -1.88834 0
M  V30 2123 C 195.335 0.400654 -3.44981 0
M  V30 2124 C 194.289 -0.428905 -4.25846 0
M  V30 2125 C 193.615 0.478557 -5.32554 0
M  V30 2126 C 194.915 -1.67458 -4.94727 0
M  V30 2127 H 196.609 -1.21914 -2.73454 0
M  V30 2128 H 194.155 -0.587675 -1.31462 0
M  V30 2129 H 196.108 0.769434 -4.14316 0
M  V30 2130 H 194.832 1.27371 -3.0074 0
M  V30 2131 H 193.491 -0.779911 -3.58208 0
M  V30 2132 H 193.139 1.34951 -4.84559 0
M  V30 2133 H 192.839 -0.0727433 -5.87555 0
M  V30 2134 H 194.363 0.843705 -6.04743 0
M  V30 2135 H 195.777 -1.376 -5.56542 0
M  V30 2136 H 194.174 -2.16659 -5.59624 0
M  V30 2137 H 195.244 -2.41518 -4.20473 0
M  V30 2138 N 196.587 1.43421 -0.653314 0
M  V30 2139 C 198.003 1.56341 -0.320886 0
M  V30 2140 C 198.203 1.63696 1.17499 0
M  V30 2141 O 197.259 1.59208 1.95982 0
M  V30 2142 C 198.572 2.82424 -1.03233 0
M  V30 2143 C 200.12 2.96168 -1.01259 0
M  V30 2144 C 200.595 4.25084 -1.70492 0
M  V30 2145 N 202.086 4.31948 -1.67257 0
M  V30 2146 C 202.821 5.30466 -2.17701 0
M  V30 2147 N 202.317 6.35261 -2.76434 0
M  V30 2148 N 204.11 5.2212 -2.082 0
M  V30 2149 H 196.261 1.3689 -1.62403 0
M  V30 2150 H 198.524 0.657455 -0.682977 0
M  V30 2151 H 198.23 2.83053 -2.08744 0
M  V30 2152 H 198.104 3.72653 -0.583948 0
M  V30 2153 H 200.491 2.9508 0.0341235 0
M  V30 2154 H 200.572 2.07229 -1.49966 0
M  V30 2155 H 200.216 4.26932 -2.7512 0
M  V30 2156 H 200.146 5.1292 -1.19251 0
M  V30 2157 H 202.637 3.56838 -1.24398 0
M  V30 2158 H 202.95 7.06754 -3.12601 0
M  V30 2159 H 201.295 6.35884 -2.80495 0
M  V30 2160 H 204.486 4.39166 -1.62021 0
M  V30 2161 H 204.659 5.98739 -2.47822 0
M  V30 2162 N 198.065 0.39524 1.52563 0
M  V30 2163 C 198.995 -0.428384 2.29537 0
M  V30 2164 C 199.976 -1.05831 1.33169 0
M  V30 2165 O 201.161 -1.06995 1.62067 0
M  V30 2166 C 198.291 -1.55274 3.10656 0
M  V30 2167 C 197.245 -1.04855 4.14957 0
M  V30 2168 C 196.571 -2.26543 4.84337 0
M  V30 2169 C 197.871 -0.112324 5.22179 0
M  V30 2170 H 199.565 0.213867 2.98635 0
M  V30 2171 H 197.111 0.104298 1.43622 0
M  V30 2172 H 199.064 -2.1358 3.63265 0
M  V30 2173 H 197.788 -2.22266 2.39302 0
M  V30 2174 H 196.447 -0.487985 3.63338 0
M  V30 2175 H 196.095 -2.92059 4.09525 0
M  V30 2176 H 195.795 -1.93466 5.54837 0
M  V30 2177 H 197.319 -2.85481 5.39753 0
M  V30 2178 H 198.733 -0.603752 5.70112 0
M  V30 2179 H 197.13 0.128968 5.99961 0
M  V30 2180 H 198.2 0.837052 4.77621 0
M  V30 2181 N 199.544 -1.57102 0.125237 0
M  V30 2182 C 200.474 -2.18659 -0.819174 0
M  V30 2183 C 201.455 -1.12843 -1.27281 0
M  V30 2184 O 202.64 -1.41104 -1.33429 0
M  V30 2185 C 199.77 -2.79096 -2.06695 0
M  V30 2186 C 198.724 -3.90548 -1.75088 0
M  V30 2187 C 198.05 -4.37821 -3.06948 0
M  V30 2188 C 199.35 -5.12356 -1.01435 0
M  V30 2189 H 201.044 -2.9783 -0.306202 0
M  V30 2190 H 198.59 -1.4326 -0.145839 0
M  V30 2191 H 200.543 -3.2082 -2.73226 0
M  V30 2192 H 199.267 -1.97223 -2.60328 0
M  V30 2193 H 197.926 -3.49409 -1.10944 0
M  V30 2194 H 197.574 -3.52799 -3.58527 0
M  V30 2195 H 197.274 -5.12982 -2.86571 0
M  V30 2196 H 198.798 -4.822 -3.74587 0
M  V30 2197 H 200.212 -5.5106 -1.58132 0
M  V30 2198 H 198.609 -5.9314 -0.911319 0
M  V30 2199 H 199.679 -4.849 -0.00218681 0
M  V30 2200 N 201.022 0.148545 -1.56898 0
M  V30 2201 C 202.299 0.890019 -1.74178 0
M  V30 2202 C 202.679 1.99407 -0.692839 0
M  V30 2203 O 202.027 2.26671 0.288505 0
M  V30 2204 C 202.237 1.43389 -3.18183 0
M  V30 2205 C 203.585 1.89791 -3.79822 0
M  V30 2206 O 204.609 1.53134 -3.21603 0
M  V30 2207 O 203.468 2.57387 -4.82093 0
M  V30 2208 H 200.562 0.420496 -0.712118 0
M  V30 2209 H 203.108 0.134591 -1.69165 0
M  V30 2210 H 201.88 0.640383 -3.86024 0
M  V30 2211 H 201.503 2.25287 -3.27615 0
M  V30 2212 N 202.5 1.5196 0.417844 0
M  V30 2213 C 203.746 1.65836 1.16732 0
M  V30 2214 C 204.079 0.382881 1.90388 0
M  V30 2215 O 203.354 -0.618368 1.84408 0
M  V30 2216 C 203.637 2.87466 2.16876 0
M  V30 2217 C 203.49 4.25041 1.47174 0
M  V30 2218 C 204.809 3.04613 3.17646 0
M  V30 2219 H 201.928 0.603515 0.423011 0
M  V30 2220 H 204.57 1.84494 0.454105 0
M  V30 2221 H 202.72 2.71689 2.777 0
M  V30 2222 H 204.392 4.52527 0.895376 0
M  V30 2223 H 202.635 4.26843 0.773806 0
M  V30 2224 H 203.306 5.06176 2.20204 0
M  V30 2225 H 205.782 3.1923 2.66892 0
M  V30 2226 H 204.658 3.91247 3.8499 0
M  V30 2227 H 204.919 2.17541 3.84874 0
M  V30 2228 N 203.978 -0.674533 1.42435 0
M  V30 2229 C 205.255 -1.4305 1.33402 0
M  V30 2230 C 205.635 -2.11081 -0.0284674 0
M  V30 2231 O 204.983 -2.03257 -1.04397 0
M  V30 2232 C 205.193 -2.43272 2.50239 0
M  V30 2233 C 206.541 -3.07907 2.92367 0
M  V30 2234 O 207.565 -2.53599 2.50132 0
M  V30 2235 O 206.424 -4.0632 3.65467 0
M  V30 2236 H 203.518 -0.638076 0.526106 0
M  V30 2237 H 206.064 -0.703235 1.54443 0
M  V30 2238 H 204.836 -1.91803 3.41068 0
M  V30 2239 H 204.459 -3.23479 2.31186 0
M  V30 2240 N 205.456 -1.28612 -0.910864 0
M  V30 2241 C 206.404 -1.1265 -2.03501 0
M  V30 2242 C 207.398 -0.0450054 -1.6934 0
M  V30 2243 O 208.604 -0.203988 -1.7884 0
M  V30 2244 H 204.979 -0.347639 -0.666822 0
M  V30 2245 H 206.95 -2.07849 -2.14106 0
M  V30 2246 C 205.699 -0.808143 -3.38178 0
M  V30 2247 H 205.022 -1.63231 -3.6496 0
M  V30 2248 H 206.462 -0.736426 -4.17556 0
M  V30 2249 C 204.921 0.488226 -3.33344 0
M  V30 2250 O 205.451 1.51766 -3.71927 0
M  V30 2251 N 203.657 0.490009 -2.86439 0
M  V30 2252 H 203.204 -0.348161 -2.55236 0
M  V30 2253 H 203.162 1.35741 -2.83587 0
M  V30 2254 N 206.934 1.1197 -1.10907 0
M  V30 2255 C 208.35 1.35591 -0.841852 0
M  V30 2256 C 208.55 1.94233 0.536246 0
M  V30 2257 O 207.606 2.1717 1.28816 0
M  V30 2258 C 208.919 2.29284 -1.94549 0
M  V30 2259 C 210.467 2.42862 -1.97451 0
M  V30 2260 C 210.942 3.39873 -3.07002 0
M  V30 2261 N 212.433 3.47433 -3.06341 0
M  V30 2262 C 213.168 4.22421 -3.87748 0
M  V30 2263 N 212.664 5.00432 -4.79103 0
M  V30 2264 N 214.457 4.17876 -3.75946 0
M  V30 2265 H 206.608 0.722664 -1.99728 0
M  V30 2266 H 208.871 0.380635 -0.868229 0
M  V30 2267 H 208.577 1.93378 -2.93765 0
M  V30 2268 H 208.451 3.29452 -1.83688 0
M  V30 2269 H 210.838 2.78046 -0.988645 0
M  V30 2270 H 210.919 1.42566 -2.12388 0
M  V30 2271 H 210.563 3.05417 -4.05811 0
M  V30 2272 H 210.493 4.40011 -2.89306 0
M  V30 2273 H 212.984 2.91784 -2.40147 0
M  V30 2274 H 213.297 5.55002 -5.37766 0
M  V30 2275 H 211.642 4.99612 -4.83128 0
M  V30 2276 H 214.833 3.56016 -3.03924 0
M  V30 2277 H 215.006 4.76061 -4.39624 0
M  V30 2278 N 208.412 0.89855 1.29475 0
M  V30 2279 C 209.658 0.524658 1.95896 0
M  V30 2280 C 209.991 -0.926468 1.70676 0
M  V30 2281 O 209.266 -1.65665 1.01908 0
M  V30 2282 C 209.549 0.81633 3.50725 0
M  V30 2283 C 209.402 2.31907 3.85408 0
M  V30 2284 C 210.721 0.302038 4.39062 0
M  V30 2285 H 207.84 0.19209 0.711527 0
M  V30 2286 H 210.482 1.12502 1.53112 0
M  V30 2287 H 208.632 0.305369 3.87298 0
M  V30 2288 H 210.304 2.89949 3.58786 0
M  V30 2289 H 208.547 2.78027 3.32992 0
M  V30 2290 H 209.218 2.47373 4.93468 0
M  V30 2291 H 211.694 0.739551 4.09475 0
M  V30 2292 H 210.57 0.535331 5.46283 0
M  V30 2293 H 210.831 -0.797216 4.34853 0
M  V30 2294 N 209.89 -1.43072 0.660911 0
M  V30 2295 C 211.136 -2.0202 0.177708 0
M  V30 2296 C 211.469 -1.52066 -1.20787 0
M  V30 2297 O 210.744 -0.716987 -1.80802 0
M  V30 2298 C 211.027 -3.59561 0.197019 0
M  V30 2299 C 210.88 -4.19727 1.61706 0
M  V30 2300 C 212.199 -4.37664 -0.462396 0
M  V30 2301 H 209.318 -0.734034 0.0660494 0
M  V30 2302 H 211.96 -1.70272 0.843058 0
M  V30 2303 H 210.11 -3.86739 -0.369527 0
M  V30 2304 H 211.782 -4.03553 2.23479 0
M  V30 2305 H 210.025 -3.76084 2.16201 0
M  V30 2306 H 210.696 -5.28834 1.58237 0
M  V30 2307 H 213.172 -4.16095 0.0197215 0
M  V30 2308 H 212.048 -5.47305 -0.418188 0
M  V30 2309 H 212.309 -4.14493 -1.53778 0
M  V30 2310 N 211.368 -0.403325 -1.52352 0
M  V30 2311 C 212.298 0.416205 -2.29761 0
M  V30 2312 C 213.279 1.05123 -1.33728 0
M  V30 2313 O 214.464 1.06134 -1.62632 0
M  V30 2314 C 211.594 1.53624 -3.11475 0
M  V30 2315 C 210.548 1.02653 -4.15507 0
M  V30 2316 C 209.874 2.23971 -4.85532 0
M  V30 2317 C 211.174 0.08463 -5.22231 0
M  V30 2318 H 212.868 -0.229701 -2.98518 0
M  V30 2319 H 210.414 -0.111913 -1.43564 0
M  V30 2320 H 212.367 2.1165 -3.64393 0
M  V30 2321 H 211.091 2.20994 -2.40477 0
M  V30 2322 H 209.75 0.46871 -3.63591 0
M  V30 2323 H 209.398 2.89883 -4.11068 0
M  V30 2324 H 209.098 1.90521 -5.55856 0
M  V30 2325 H 210.622 2.82614 -5.41259 0
M  V30 2326 H 212.036 0.573509 -5.70424 0
M  V30 2327 H 210.433 -0.160783 -5.99885 0
M  V30 2328 H 211.503 -0.86237 -4.7717 0
M  V30 2329 N 212.846 1.57033 -0.133567 0
M  V30 2330 C 214.257 1.82593 0.389464 0
M  V30 2331 C 214.608 1.05156 1.6564 0
M  V30 2332 O 213.733 0.292644 2.14412 0
M  V30 2333 C 214.328 3.31204 0.713377 0
M  V30 2334 C 212.887 3.57393 1.18098 0
M  V30 2335 C 212.034 2.76598 0.197126 0
M  V30 2336 H 214.985 1.54598 -0.358481 0
M  V30 2337 H 215.006 3.46627 1.56939 0
M  V30 2338 H 214.518 3.87537 -0.2089 0
M  V30 2339 H 212.619 3.06433 2.11966 0
M  V30 2340 H 212.732 4.65915 1.11624 0
M  V30 2341 H 211.096 2.45257 0.687088 0
M  V30 2342 H 211.879 3.35697 -0.718504 0
M  V30 2343 N 214.325 -0.140222 1.56975 0
M  V30 2344 C 215.574 -0.850152 1.82908 0
M  V30 2345 C 215.887 -1.82028 0.715892 0
M  V30 2346 O 217.093 -2.57485 0.861016 0
M  V30 2347 C 215.549 -1.5625 3.24213 0
M  V30 2348 C 215.157 -0.63443 4.43485 0
M  V30 2349 C 216.901 -2.25881 3.59413 0
M  V30 2350 C 214.808 -1.34879 5.75814 0
M  V30 2351 H 213.738 -0.321221 0.682153 0
M  V30 2352 H 216.389 -0.102874 1.83211 0
M  V30 2353 H 214.771 -2.35565 3.18316 0
M  V30 2354 H 215.945 0.12398 4.60633 0
M  V30 2355 H 214.26 -0.0461836 4.16374 0
M  V30 2356 H 216.857 -2.79978 4.5554 0
M  V30 2357 H 217.2 -3.02693 2.85802 0
M  V30 2358 H 217.733 -1.53477 3.67001 0
M  V30 2359 H 214.472 -0.622385 6.52539 0
M  V30 2360 H 213.992 -2.07974 5.6259 0
M  V30 2361 H 215.671 -1.88784 6.18845 0
M  V30 2362 N 215.803 -1.52179 -0.40978 0
M  V30 2363 C 216.713 -1.78364 -1.52392 0
M  V30 2364 C 217.729 -0.669183 -1.60617 0
M  V30 2365 O 218.905 -0.954518 -1.77344 0
M  V30 2366 C 215.97 -1.92822 -2.88133 0
M  V30 2367 C 215.031 -3.16725 -2.898 0
M  V30 2368 C 214.264 -3.30483 -4.19067 0
M  V30 2369 O 214.487 -2.49522 -5.12928 0
M  V30 2370 O 213.421 -4.2363 -4.27576 0
M  V30 2371 H 217.247 -2.72931 -1.33201 0
M  V30 2372 H 214.832 -1.37016 -0.59557 0
M  V30 2373 H 216.714 -2.04157 -3.68643 0
M  V30 2374 H 215.389 -1.01444 -3.07393 0
M  V30 2375 H 214.296 -3.10848 -2.08146 0
M  V30 2376 H 215.629 -4.07881 -2.75489 0
M  V30 2377 N 217.281 0.66697 -1.42791 0
M  V30 2378 C 218.244 1.76211 -1.46568 0
M  V30 2379 C 219.244 1.56896 -0.352196 0
M  V30 2380 O 220.434 1.63044 -0.613364 0
M  V30 2381 C 217.566 3.14935 -1.30494 0
M  V30 2382 H 218.759 1.74247 -2.44086 0
M  V30 2383 H 216.312 0.877342 -1.29354 0
M  V30 2384 H 217.047 3.2252 -0.339301 0
M  V30 2385 H 216.832 3.30359 -2.11199 0
M  V30 2386 H 218.322 3.94821 -1.36038 0
M  V30 2387 N 218.759 1.29093 0.90403 0
M  V30 2388 C 220.17 1.15186 1.46932 0
M  V30 2389 C 220.521 -0.254587 1.94541 0
M  V30 2390 O 219.646 -1.14972 1.83332 0
M  V30 2391 C 220.241 2.08492 2.67051 0
M  V30 2392 C 218.8 1.98621 3.19729 0
M  V30 2393 C 217.947 1.9967 1.92425 0
M  V30 2394 H 220.898 1.41641 0.715789 0
M  V30 2395 H 220.919 1.65461 3.42641 0
M  V30 2396 H 220.431 3.10847 2.3237 0
M  V30 2397 H 218.532 0.993389 3.59114 0
M  V30 2398 H 218.645 2.86068 3.8432 0
M  V30 2399 H 217.009 1.44208 2.09943 0
M  V30 2400 H 217.792 3.03721 1.60026 0
M  V30 2401 N 220.237 -1.11381 1.11499 0
M  V30 2402 C 221.486 -1.82494 0.858993 0
M  V30 2403 C 221.799 -1.85605 -0.617278 0
M  V30 2404 O 223.005 -2.52824 -0.989552 0
M  V30 2405 C 221.461 -3.27745 1.48699 0
M  V30 2406 C 221.069 -3.32961 2.99735 0
M  V30 2407 C 222.813 -4.03754 1.31085 0
M  V30 2408 C 220.72 -4.72612 3.55516 0
M  V30 2409 H 219.65 -0.683802 0.317696 0
M  V30 2410 H 222.301 -1.25331 1.34031 0
M  V30 2411 H 220.683 -3.84844 0.933339 0
M  V30 2412 H 221.857 -2.85741 3.61509 0
M  V30 2413 H 220.172 -2.70433 3.16631 0
M  V30 2414 H 222.769 -5.06891 1.70192 0
M  V30 2415 H 223.112 -4.15527 0.253496 0
M  V30 2416 H 223.645 -3.53043 1.83318 0
M  V30 2417 H 220.384 -4.66036 4.60967 0
M  V30 2418 H 219.904 -5.2024 2.98513 0
M  V30 2419 H 221.583 -5.4157 3.53992 0
M  V30 2420 N 221.715 -0.905404 -1.28997 0
M  V30 2421 C 223.131 -0.60233 -1.47798 0
M  V30 2422 C 223.331 0.854645 -1.82478 0
M  V30 2423 O 222.387 1.63439 -1.92468 0
M  V30 2424 C 223.7 -1.53306 -2.58685 0
M  V30 2425 C 225.248 -1.53887 -2.72558 0
M  V30 2426 C 225.723 -2.45602 -3.86579 0
M  V30 2427 N 227.214 -2.43681 -3.93921 0
M  V30 2428 C 227.949 -3.11347 -4.81509 0
M  V30 2429 N 227.445 -3.88313 -5.73746 0
M  V30 2430 N 229.238 -3.00476 -4.75048 0
M  V30 2431 H 221.389 -1.84765 -1.04764 0
M  V30 2432 H 223.652 -0.792025 -0.520961 0
M  V30 2433 H 223.358 -2.57141 -2.39941 0
M  V30 2434 H 223.232 -1.25787 -3.55609 0
M  V30 2435 H 225.619 -0.507941 -2.90696 0
M  V30 2436 H 225.7 -1.85447 -1.76191 0
M  V30 2437 H 225.344 -3.48792 -3.69197 0
M  V30 2438 H 225.274 -2.11349 -4.82327 0
M  V30 2439 H 227.765 -1.87767 -3.27951 0
M  V30 2440 H 228.078 -4.36985 -6.37389 0
M  V30 2441 H 226.423 -3.92419 -5.73614 0
M  V30 2442 H 229.614 -2.39858 -4.01977 0
M  V30 2443 H 229.787 -3.53485 -5.43095 0
M  V30 2444 N 223.193 1.4272 -0.668489 0
M  V30 2445 C 224.126 2.28111 0.0637898 0
M  V30 2446 C 225.104 1.40705 0.814912 0
M  V30 2447 O 226.288 1.70146 0.81134 0
M  V30 2448 C 223.415 3.20429 1.0974 0
M  V30 2449 C 222.461 4.24197 0.442579 0
M  V30 2450 S 223.294 5.29563 -0.795173 0
M  V30 2451 C 224.45 6.25449 0.237516 0
M  V30 2452 H 224.683 2.8987 -0.660521 0
M  V30 2453 H 222.216 1.47456 -0.457821 0
M  V30 2454 H 224.174 3.74158 1.68868 0
M  V30 2455 H 222.835 2.57818 1.79411 0
M  V30 2456 H 222.028 4.88954 1.22227 0
M  V30 2457 H 221.63 3.73925 -0.0749554 0
M  V30 2458 H 223.922 6.68524 1.09915 0
M  V30 2459 H 224.865 7.07104 -0.375421 0
M  V30 2460 H 225.273 5.61511 0.580167 0
M  V30 2461 N 224.671 0.411399 1.52136 0
M  V30 2462 C 225.604 -0.457614 2.23565 0
M  V30 2463 C 226.582 -1.04613 1.24478 0
M  V30 2464 O 227.766 -1.09356 1.53536 0
M  V30 2465 C 224.893 -1.6354 2.96602 0
M  V30 2466 C 223.939 -1.17005 4.10137 0
M  V30 2467 S 224.772 -0.13333 5.35334 0
M  V30 2468 C 225.928 -1.31638 6.119 0
M  V30 2469 H 226.161 0.148883 2.96927 0
M  V30 2470 H 223.694 0.195713 1.53155 0
M  V30 2471 H 225.652 -2.31074 3.39286 0
M  V30 2472 H 224.313 -2.21324 2.22878 0
M  V30 2473 H 223.506 -2.05005 4.60422 0
M  V30 2474 H 223.108 -0.573319 3.6958 0
M  V30 2475 H 225.4 -2.23957 6.39413 0
M  V30 2476 H 226.343 -0.854014 7.02931 0
M  V30 2477 H 226.751 -1.54321 5.42997 0
M  V30 2478 N 226.149 -1.5696 0.141893 0
M  V30 2479 C 227.398 -1.95135 -0.510427 0
M  V30 2480 C 227.711 -1.02896 -1.66348 0
M  V30 2481 O 228.917 -1.30629 -2.38009 0
M  V30 2482 C 227.373 -3.46876 -0.959427 0
M  V30 2483 C 226.981 -4.47691 0.166419 0
M  V30 2484 C 228.725 -3.93927 -1.58183 0
M  V30 2485 C 226.632 -5.90636 -0.300565 0
M  V30 2486 H 225.562 -0.728494 -0.194454 0
M  V30 2487 H 228.213 -1.8211 0.22542 0
M  V30 2488 H 226.595 -3.55215 -1.75038 0
M  V30 2489 H 227.769 -4.51043 0.94325 0
M  V30 2490 H 226.084 -4.10527 0.696905 0
M  V30 2491 H 228.681 -4.98158 -1.94275 0
M  V30 2492 H 229.024 -3.3519 -2.46888 0
M  V30 2493 H 229.557 -3.88484 -0.855863 0
M  V30 2494 H 226.296 -6.5318 0.550989 0
M  V30 2495 H 225.816 -5.90655 -1.04338 0
M  V30 2496 H 227.495 -6.42588 -0.754265 0
M  V30 2497 N 227.627 0.131896 -1.57047 0
M  V30 2498 C 228.855 0.856461 -1.88341 0
M  V30 2499 C 229.27 1.74042 -0.731757 0
M  V30 2500 O 228.627 1.80051 0.297945 0
M  V30 2501 C 228.678 1.70064 -3.18999 0
M  V30 2502 O 228.399 0.852278 -4.2973 0
M  V30 2503 C 229.9 2.53148 -3.63911 0
M  V30 2504 H 227.12 0.246885 -0.62393 0
M  V30 2505 H 229.664 0.120152 -2.04147 0
M  V30 2506 H 227.819 2.38984 -3.04902 0
M  V30 2507 H 228.233 1.43329 -5.04537 0
M  V30 2508 H 229.707 3.07931 -4.58129 0
M  V30 2509 H 230.184 3.29901 -2.89935 0
M  V30 2510 H 230.79 1.89492 -3.80753 0
M  V30 2511 N 229.106 1.52395 0.401703 0
M  V30 2512 C 230.331 1.70972 1.17403 0
M  V30 2513 C 230.756 0.421615 1.83314 0
M  V30 2514 O 230.114 -0.621564 1.70312 0
M  V30 2515 C 230.162 2.85151 2.20728 0
M  V30 2516 O 229.266 2.51238 3.27037 0
M  V30 2517 H 228.607 0.568927 0.342372 0
M  V30 2518 H 231.137 1.99131 0.469891 0
M  V30 2519 H 231.147 3.10279 2.64936 0
M  V30 2520 H 229.822 3.78603 1.7214 0
M  V30 2521 H 228.399 2.36808 2.88057 0
M  V30 2522 N 230.584 -0.659388 1.43143 0
M  V30 2523 C 231.516 -1.7849 1.43784 0
M  V30 2524 C 232.529 -1.5932 0.334787 0
M  V30 2525 O 233.718 -1.68155 0.598842 0
M  V30 2526 C 230.818 -3.15828 1.22906 0
M  V30 2527 C 229.991 -3.61711 2.45934 0
M  V30 2528 C 229.05 -4.77831 2.20371 0
M  V30 2529 O 228.076 -4.87586 2.93681 0
M  V30 2530 N 229.278 -5.67611 1.21647 0
M  V30 2531 H 232.043 -1.7842 2.40803 0
M  V30 2532 H 229.604 -0.84302 1.3822 0
M  V30 2533 H 231.596 -3.91189 1.03697 0
M  V30 2534 H 230.166 -3.10707 0.343542 0
M  V30 2535 H 229.386 -2.76861 2.80609 0
M  V30 2536 H 230.674 -3.89112 3.27825 0
M  V30 2537 H 230.072 -5.62397 0.610449 0
M  V30 2538 H 228.629 -6.42719 1.08423 0
M  V30 2539 N 232.062 -1.29571 -0.897171 0
M  V30 2540 C 233.339 -1.08365 -1.62839 0
M  V30 2541 C 233.719 0.371331 -2.07808 0
M  V30 2542 O 233.067 1.3606 -1.83576 0
M  V30 2543 C 233.277 -2.0735 -2.80726 0
M  V30 2544 C 234.625 -2.38406 -3.51351 0
M  V30 2545 O 235.649 -2.05564 -2.90898 0
M  V30 2546 O 234.508 -2.9453 -4.60341 0
M  V30 2547 H 231.602 -0.415345 -0.715134 0
M  V30 2548 H 234.148 -1.40952 -0.945018 0
M  V30 2549 H 232.92 -3.05339 -2.44711 0
M  V30 2550 H 232.543 -1.75507 -3.56767 0
M  V30 2551 N 233.54 1.10788 -1.12088 0
M  V30 2552 C 234.786 1.82942 -0.875226 0
M  V30 2553 C 235.119 1.84779 0.597538 0
M  V30 2554 O 234.394 1.30578 1.44152 0
M  V30 2555 C 234.677 3.29789 -1.44606 0
M  V30 2556 C 234.53 3.36307 -2.98693 0
M  V30 2557 C 235.849 4.26064 -1.10261 0
M  V30 2558 H 232.968 0.664195 -0.319397 0
M  V30 2559 H 235.61 1.29867 -1.38689 0
M  V30 2560 H 233.76 3.75118 -1.01089 0
M  V30 2561 H 235.432 2.99487 -3.50864 0
M  V30 2562 H 233.675 2.76318 -3.34411 0
M  V30 2563 H 234.346 4.39694 -3.33726 0
M  V30 2564 H 236.822 3.88951 -1.4784 0
M  V30 2565 H 235.698 5.27183 -1.52869 0
M  V30 2566 H 235.959 4.42098 -0.0142953 0
M  V30 2567 N 235.018 0.912232 1.28515 0
M  V30 2568 C 235.948 0.416403 2.29757 0
M  V30 2569 C 236.929 -0.515194 1.6211 0
M  V30 2570 O 238.114 -0.423253 1.89532 0
M  V30 2571 C 235.244 -0.34572 3.45575 0
M  V30 2572 C 234.198 0.496599 4.25109 0
M  V30 2573 C 233.524 -0.393771 5.33248 0
M  V30 2574 C 234.824 1.75307 4.92001 0
M  V30 2575 H 236.518 1.26249 2.7148 0
M  V30 2576 H 234.064 0.608515 1.30511 0
M  V30 2577 H 236.017 -0.703422 4.15488 0
M  V30 2578 H 234.741 -1.2257 3.02728 0
M  V30 2579 H 233.4 0.8368 3.56922 0
M  V30 2580 H 233.048 -1.27225 4.86644 0
M  V30 2581 H 232.748 0.166209 5.87365 0
M  V30 2582 H 234.272 -0.747389 6.06009 0
M  V30 2583 H 235.686 1.46437 5.54283 0
M  V30 2584 H 234.083 2.25534 5.56106 0
M  V30 2585 H 235.153 2.48176 4.16577 0
M  V30 2586 N 236.496 -1.42363 0.676048 0
M  V30 2587 C 237.446 -2.27987 -0.0242903 0
M  V30 2588 C 238.43 -1.41153 -0.772319 0
M  V30 2589 O 239.622 -1.64592 -0.651025 0
M  V30 2590 C 236.751 -3.29195 -0.973953 0
M  V30 2591 C 235.837 -4.23512 -0.223202 0
M  V30 2592 N 236.228 -4.99865 0.772589 0
M  V30 2593 C 234.526 -4.43606 -0.461469 0
M  V30 2594 C 235.227 -5.68757 1.22027 0
M  V30 2595 N 234.203 -5.40811 0.549975 0
M  V30 2596 H 238.005 -2.84445 0.73949 0
M  V30 2597 H 235.519 -1.54341 0.50522 0
M  V30 2598 H 237.516 -3.89339 -1.49067 0
M  V30 2599 H 236.176 -2.74298 -1.73755 0
M  V30 2600 H 237.187 -5.04921 1.15217 0
M  V30 2601 H 233.864 -3.99749 -1.20446 0
M  V30 2602 H 235.254 -6.40007 2.0455 0
M  V30 2603 N 237.974 -0.419461 -1.51915 0
M  V30 2604 C 239.199 0.154572 -2.06823 0
M  V30 2605 C 239.624 1.3722 -1.28656 0
M  V30 2606 O 238.982 1.78461 -0.319583 0
M  V30 2607 C 239.03 0.473172 -3.57482 0
M  V30 2608 O 238.134 1.56255 -3.81652 0
M  V30 2609 H 237.475 0.0096924 -0.663929 0
M  V30 2610 H 240.005 -0.595642 -1.95738 0
M  V30 2611 H 240.015 0.728825 -4.01438 0
M  V30 2612 H 238.69 -0.416873 -4.13805 0
M  V30 2613 H 237.267 1.29825 -3.49571 0
M  V30 2614 N 239.452 1.56882 -0.150215 0
M  V30 2615 C 240.698 1.97299 0.494427 0
M  V30 2616 C 241.053 1.0338 1.62266 0
M  V30 2617 O 240.346 0.0694497 1.91474 0
M  V30 2618 C 240.54 3.41801 1.04437 0
M  V30 2619 C 240.369 4.49691 -0.0290451 0
M  V30 2620 C 239.139 5.03095 -0.47156 0
M  V30 2621 C 241.337 5.07693 -0.821703 0
M  V30 2622 N 239.319 5.94593 -1.52749 0
M  V30 2623 C 240.69 5.95431 -1.72805 0
M  V30 2624 C 242.745 4.90256 -0.869134 0
M  V30 2625 C 241.448 6.67599 -2.67777 0
M  V30 2626 C 243.474 5.63127 -1.8067 0
M  V30 2627 C 242.836 6.50576 -2.70057 0
M  V30 2628 H 238.935 0.76755 0.149639 0
M  V30 2629 H 241.519 1.93145 -0.24556 0
M  V30 2630 H 239.69 3.46541 1.75396 0
M  V30 2631 H 241.422 3.69272 1.6559 0
M  V30 2632 H 238.177 4.73543 -0.0732101 0
M  V30 2633 H 238.601 6.45047 -2.05531 0
M  V30 2634 H 243.243 4.22363 -0.192134 0
M  V30 2635 H 240.961 7.34717 -3.36476 0
M  V30 2636 H 244.547 5.51629 -1.84924 0
M  V30 2637 H 243.427 7.05974 -3.41424 0
M  V30 2638 N 240.93 -0.123565 1.57115 0
M  V30 2639 C 241.893 -1.13583 1.99076 0
M  V30 2640 C 242.893 -1.34564 0.880296 0
M  V30 2641 O 244.083 -1.31158 1.14644 0
M  V30 2642 C 241.215 -2.49128 2.32698 0
M  V30 2643 H 242.408 -0.775287 2.89706 0
M  V30 2644 H 239.961 -0.36771 1.51913 0
M  V30 2645 H 240.696 -2.90111 1.44934 0
M  V30 2646 H 240.481 -2.35255 3.13684 0
M  V30 2647 H 241.971 -3.2199 2.65918 0
M  V30 2648 N 242.408 -1.52605 -0.393616 0
M  V30 2649 C 243.654 -1.67672 -1.14079 0
M  V30 2650 C 243.987 -0.413121 -1.89755 0
M  V30 2651 O 243.262 0.588952 -1.85369 0
M  V30 2652 C 243.545 -2.9088 -2.12276 0
M  V30 2653 C 243.398 -4.27329 -1.40394 0
M  V30 2654 C 244.717 -3.09628 -3.12759 0
M  V30 2655 H 241.836 -0.610168 -0.413356 0
M  V30 2656 H 244.478 -1.85193 -0.424696 0
M  V30 2657 H 242.628 -2.76073 -2.73342 0
M  V30 2658 H 244.3 -4.53894 -0.82327 0
M  V30 2659 H 242.543 -4.2802 -0.705801 0
M  V30 2660 H 243.214 -5.09615 -2.12123 0
M  V30 2661 H 245.69 -3.23436 -2.61779 0
M  V30 2662 H 244.566 -3.97322 -3.78717 0
M  V30 2663 H 244.827 -2.23637 -3.81365 0
M  V30 2664 N 243.887 0.651787 -1.4349 0
M  V30 2665 C 245.298 1.233 -1.40193 0
M  V30 2666 C 245.649 1.9591 -0.106727 0
M  V30 2667 O 244.774 2.01316 0.793773 0
M  V30 2668 C 245.369 2.24257 -2.53957 0
M  V30 2669 C 243.928 2.77852 -2.5392 0
M  V30 2670 C 243.075 1.52517 -2.3159 0
M  V30 2671 H 246.026 0.443717 -1.52371 0
M  V30 2672 H 246.047 3.0646 -2.25528 0
M  V30 2673 H 245.559 1.71382 -3.4821 0
M  V30 2674 H 243.66 3.34786 -1.63551 0
M  V30 2675 H 243.773 3.25299 -3.51735 0
M  V30 2676 H 242.137 1.79915 -1.80285 0
M  V30 2677 H 242.92 1.01574 -3.27929 0
M  V30 2678 N 245.365 1.30045 0.890287 0
M  V30 2679 C 246.593 1.21472 1.67487 0
M  V30 2680 C 247.008 -0.223241 1.87476 0
M  V30 2681 O 246.365 -1.14828 1.41847 0
M  V30 2682 C 246.416 1.93394 3.05419 0
M  V30 2683 O 246.137 3.31576 2.86337 0
M  V30 2684 C 247.638 1.91414 3.99844 0
M  V30 2685 H 244.858 0.420604 0.522813 0
M  V30 2686 H 247.402 1.7158 1.11268 0
M  V30 2687 H 245.557 1.47099 3.58386 0
M  V30 2688 H 245.971 3.67929 3.73802 0
M  V30 2689 H 247.445 2.46285 4.94012 0
M  V30 2690 H 247.922 0.891833 4.3005 0
M  V30 2691 H 248.528 2.37496 3.52811 0
M  V30 2692 N 246.843 -1.10192 1.12674 0
M  V30 2693 C 247.773 -2.18652 0.819362 0
M  V30 2694 C 248.754 -1.68698 -0.217915 0
M  V30 2695 O 249.939 -1.94041 -0.0785581 0
M  V30 2696 C 247.069 -3.46202 0.27594 0
M  V30 2697 C 246.023 -4.09444 1.24656 0
M  V30 2698 C 245.349 -5.31725 0.563258 0
M  V30 2699 C 246.649 -4.52863 2.60217 0
M  V30 2700 H 248.343 -2.44622 1.72628 0
M  V30 2701 H 245.889 -1.17571 0.831451 0
M  V30 2702 H 247.842 -4.21372 0.0486149 0
M  V30 2703 H 246.566 -3.1973 -0.666331 0
M  V30 2704 H 245.225 -3.36284 1.45974 0
M  V30 2705 H 244.873 -5.0153 -0.384235 0
M  V30 2706 H 244.573 -5.74991 1.21075 0
M  V30 2707 H 246.097 -6.09624 0.34503 0
M  V30 2708 H 247.511 -5.19294 2.42913 0
M  V30 2709 H 245.908 -5.06986 3.21068 0
M  V30 2710 H 246.978 -3.65656 3.18471 0
M  V30 2711 N 248.321 -0.919034 -1.28029 0
M  V30 2712 C 249.569 -0.553838 -1.94363 0
M  V30 2713 C 249.89 0.906357 -1.72656 0
M  V30 2714 O 249.16 1.64143 -1.0693 0
M  V30 2715 H 247.74 -0.201834 -0.719216 0
M  V30 2716 H 250.402 -1.16954 -1.55909 0
M  V30 2717 H 249.498 -0.752758 -3.02886 0
M  V30 2718 N 249.799 1.42003 -0.683588 0
M  V30 2719 C 250.729 2.33487 -0.024866 0
M  V30 2720 C 251.71 1.51163 0.779975 0
M  V30 2721 O 252.895 1.79739 0.735362 0
M  V30 2722 C 250.025 3.3487 0.920836 0
M  V30 2723 C 248.979 4.27414 0.223958 0
M  V30 2724 C 248.305 5.19074 1.2832 0
M  V30 2725 C 249.605 5.14445 -0.90242 0
M  V30 2726 H 251.299 2.88819 -0.788921 0
M  V30 2727 H 248.845 1.38873 -0.38083 0
M  V30 2728 H 250.798 3.97787 1.39081 0
M  V30 2729 H 249.522 2.77861 1.71642 0
M  V30 2730 H 248.181 3.65904 -0.225864 0
M  V30 2731 H 247.829 4.58387 2.071 0
M  V30 2732 H 247.529 5.81822 0.821995 0
M  V30 2733 H 249.053 5.84867 1.75392 0
M  V30 2734 H 250.467 5.70998 -0.513272 0
M  V30 2735 H 248.864 5.86072 -1.28997 0
M  V30 2736 H 249.934 4.52322 -1.74737 0
M  V30 2737 N 251.277 0.427512 1.51691 0
M  V30 2738 C 252.224 -0.388867 2.275 0
M  V30 2739 C 253.194 -1.02532 1.30677 0
M  V30 2740 O 254.379 -1.0461 1.59566 0
M  V30 2741 C 251.519 -1.48954 3.11298 0
M  V30 2742 C 250.632 -0.872194 4.23104 0
M  V30 2743 C 249.767 -1.94709 4.94228 0
M  V30 2744 C 248.806 -1.30766 5.97969 0
M  V30 2745 N 247.943 -2.32349 6.62539 0
M  V30 2746 H 252.783 0.263997 2.96828 0
M  V30 2747 H 250.32 0.142033 1.46413 0
M  V30 2748 H 252.278 -2.13887 3.58201 0
M  V30 2749 H 250.908 -2.11217 2.44105 0
M  V30 2750 H 249.96 -0.111419 3.80237 0
M  V30 2751 H 251.272 -0.365264 4.97461 0
M  V30 2752 H 250.426 -2.67327 5.44629 0
M  V30 2753 H 249.165 -2.48773 4.1948 0
M  V30 2754 H 248.17 -0.566902 5.4687 0
M  V30 2755 H 249.395 -0.774483 6.74669 0
M  V30 2756 H 247.341 -2.85511 5.90609 0
M  V30 2757 H 247.258 -1.8652 7.3263 0
M  V30 2758 H 248.526 -3.04481 7.17574 0
M  V30 2759 N 252.755 -1.56801 0.158532 0
M  V30 2760 C 253.983 -2.00859 -0.496303 0
M  V30 2761 C 254.398 -1.03871 -1.57659 0
M  V30 2762 O 253.755 -0.0375165 -1.82461 0
M  V30 2763 C 253.806 -3.4479 -1.08638 0
M  V30 2764 O 253.527 -4.38072 -0.0492322 0
M  V30 2765 C 255.028 -4.04185 -1.8207 0
M  V30 2766 H 252.248 -0.65864 -0.128199 0
M  V30 2767 H 254.792 -2.02885 0.256506 0
M  V30 2768 H 252.947 -3.43579 -1.78975 0
M  V30 2769 H 253.361 -5.2227 -0.483102 0
M  V30 2770 H 254.835 -5.06857 -2.18633 0
M  V30 2771 H 255.312 -3.45549 -2.71095 0
M  V30 2772 H 255.918 -4.0906 -1.16405 0
M  V30 2773 N 254.233 0.115231 -1.57178 0
M  V30 2774 C 255.51 0.852873 -1.76027 0
M  V30 2775 C 255.89 1.97892 -0.73498 0
M  V30 2776 O 255.238 2.27232 0.24036 0
M  V30 2777 C 255.448 1.36608 -3.21153 0
M  V30 2778 C 256.796 1.81692 -3.83762 0
M  V30 2779 O 257.82 1.46278 -3.24779 0
M  V30 2780 O 256.679 2.47104 -4.87444 0
M  V30 2781 H 253.773 0.405296 -0.720877 0
M  V30 2782 H 256.319 0.0986785 -1.69413 0
M  V30 2783 H 255.091 0.558357 -3.87296 0
M  V30 2784 H 254.714 2.18287 -3.3232 0
M  V30 2785 N 255.711 1.52812 0.385517 0
M  V30 2786 C 256.674 1.77188 1.45386 0
M  V30 2787 C 257.674 0.641953 1.4743 0
M  V30 2788 O 258.864 0.910033 1.4854 0
M  V30 2789 C 255.996 1.87582 2.8465 0
M  V30 2790 H 257.189 2.72583 1.25054 0
M  V30 2791 H 254.742 1.43586 0.617467 0
M  V30 2792 H 255.477 0.941849 3.10322 0
M  V30 2793 H 255.262 2.69748 2.84567 0
M  V30 2794 H 256.752 2.08102 3.62054 0
M  V30 2795 N 257.189 -0.644168 1.43834 0
M  V30 2796 C 258.438 -1.39985 1.45214 0
M  V30 2797 C 258.751 -1.95421 0.0835494 0
M  V30 2798 O 259.957 -2.71488 -0.0251748 0
M  V30 2799 C 258.413 -2.53384 2.55587 0
M  V30 2800 C 258.021 -2.04517 3.98594 0
M  V30 2801 C 259.765 -3.30685 2.66172 0
M  V30 2802 C 257.672 -3.1518 5.00416 0
M  V30 2803 H 256.602 -0.526005 0.540218 0
M  V30 2804 H 259.253 -0.694367 1.69855 0
M  V30 2805 H 257.635 -3.26446 2.24163 0
M  V30 2806 H 258.809 -1.38405 4.39523 0
M  V30 2807 H 257.124 -1.40068 3.92135 0
M  V30 2808 H 259.721 -4.13158 3.39418 0
M  V30 2809 H 260.064 -3.79312 1.71546 0
M  V30 2810 H 260.597 -2.64708 2.96942 0
M  V30 2811 H 257.336 -2.71511 5.96625 0
M  V30 2812 H 256.856 -3.79974 4.64091 0
M  V30 2813 H 258.535 -3.80166 5.23529 0
M  V30 2814 N 258.668 -1.30515 -0.883378 0
M  V30 2815 C 260.079 -1.17509 -1.45081 0
M  V30 2816 C 260.43 0.223605 -1.94922 0
M  V30 2817 O 259.555 1.12041 -1.85137 0
M  V30 2818 C 260.15 -2.12715 -2.63701 0
M  V30 2819 C 258.709 -2.03682 -3.16529 0
M  V30 2820 C 257.856 -2.02706 -1.89224 0
M  V30 2821 H 260.807 -1.42762 -0.693165 0
M  V30 2822 H 260.828 -1.70891 -3.39965 0
M  V30 2823 H 260.34 -3.14505 -2.27395 0
M  V30 2824 H 258.441 -1.05039 -3.57488 0
M  V30 2825 H 258.554 -2.92146 -3.7972 0
M  V30 2826 H 256.918 -1.4753 -2.07622 0
M  V30 2827 H 257.701 -3.06229 -1.55174 0
M  V30 2828 N 260.146 1.09593 -1.13257 0
M  V30 2829 C 261.394 1.81375 -0.891492 0
M  V30 2830 C 261.715 1.86049 0.584009 0
M  V30 2831 O 260.985 1.34481 1.42449 0
M  V30 2832 H 259.565 0.671708 -0.326828 0
M  V30 2833 H 262.227 1.3256 -1.42877 0
M  V30 2834 H 261.323 2.84612 -1.28071 0
M  V30 2835 N 261.624 0.925811 1.2754 0
M  V30 2836 C 263.04 0.625767 1.46821 0
M  V30 2837 C 263.24 -0.825506 1.83814 0
M  V30 2838 O 262.296 -1.60356 1.95044 0
M  V30 2839 C 263.609 1.57402 2.56213 0
M  V30 2840 C 265.157 1.58204 2.70075 0
M  V30 2841 C 265.632 2.51721 3.82623 0
M  V30 2842 N 267.123 2.49917 3.89994 0
M  V30 2843 C 267.858 3.18968 4.76494 0
M  V30 2844 N 267.354 3.97391 5.67496 0
M  V30 2845 N 269.147 3.07996 4.70208 0
M  V30 2846 H 261.298 1.86409 1.01811 0
M  V30 2847 H 263.561 0.800213 0.508295 0
M  V30 2848 H 263.267 2.60925 2.35819 0
M  V30 2849 H 263.141 1.31428 3.53563 0
M  V30 2850 H 265.528 0.554124 2.89851 0
M  V30 2851 H 265.609 1.88226 1.73218 0
M  V30 2852 H 265.253 3.54622 3.63601 0
M  V30 2853 H 265.183 2.18996 4.78903 0
M  V30 2854 H 267.674 1.9296 3.24923 0
M  V30 2855 H 267.987 4.4707 6.30356 0
M  V30 2856 H 266.332 4.01495 5.67298 0
M  V30 2857 H 269.523 2.46223 3.9811 0
M  V30 2858 H 269.696 3.6208 5.37403 0
M  V30 2859 N 263.102 -1.41638 0.69111 0
M  V30 2860 C 264.032 -2.3347 0.037248 0
M  V30 2861 C 265.013 -1.51575 -0.771947 0
M  V30 2862 O 266.198 -1.80126 -0.72582 0
M  V30 2863 C 263.328 -3.35354 -0.903064 0
M  V30 2864 C 262.282 -4.27526 -0.201288 0
M  V30 2865 C 261.608 -5.19747 -1.25565 0
M  V30 2866 C 262.908 -5.13959 0.929689 0
M  V30 2867 H 264.602 -2.88397 0.804227 0
M  V30 2868 H 262.148 -1.38669 0.388189 0
M  V30 2869 H 264.101 -3.98519 -1.36969 0
M  V30 2870 H 262.825 -2.78767 -1.70166 0
M  V30 2871 H 261.484 -3.65779 0.245265 0
M  V30 2872 H 261.132 -4.59479 -2.04666 0
M  V30 2873 H 260.832 -5.8225 -0.791128 0
M  V30 2874 H 262.356 -5.85789 -1.72288 0
M  V30 2875 H 263.77 -5.70718 0.543546 0
M  V30 2876 H 262.167 -5.85379 1.32103 0
M  V30 2877 H 263.237 -4.51389 1.77133 0
M  V30 2878 N 264.58 -0.43555 -1.51462 0
M  V30 2879 C 265.528 0.391205 -2.29287 0
M  V30 2880 C 266.522 1.02247 -1.35062 0
M  V30 2881 O 267.728 0.957646 -1.52411 0
M  V30 2882 H 264.103 0.144968 -0.737895 0
M  V30 2883 H 266.074 -0.286051 -2.97026 0
M  V30 2884 C 264.823 1.48096 -3.14583 0
M  V30 2885 H 264.146 1.00457 -3.86973 0
M  V30 2886 H 265.586 2.03273 -3.72097 0
M  V30 2887 C 264.045 2.46321 -2.29843 0
M  V30 2888 O 264.575 3.50815 -1.95682 0
M  V30 2889 N 262.781 2.17166 -1.931 0
M  V30 2890 H 262.328 1.32218 -2.21079 0
M  V30 2891 H 262.286 2.83127 -1.36698 0
M  V30 2892 N 266.058 1.56714 -0.166846 0
M  V30 2893 C 266.99 2.14914 0.796537 0
M  V30 2894 C 268.003 1.10357 1.19688 0
M  V30 2895 O 269.192 1.37561 1.13751 0
M  V30 2896 C 266.292 2.67326 2.08303 0
M  V30 2897 C 265.465 3.96493 1.84696 0
M  V30 2898 C 264.524 4.34014 2.97521 0
M  V30 2899 O 263.55 5.01973 2.6835 0
M  V30 2900 N 264.752 3.95208 4.25196 0
M  V30 2901 H 267.517 2.98205 0.299006 0
M  V30 2902 H 265.078 1.61892 0.0160839 0
M  V30 2903 H 267.07 2.89428 2.82867 0
M  V30 2904 H 265.64 1.88649 2.4926 0
M  V30 2905 H 264.86 3.82814 0.940602 0
M  V30 2906 H 266.148 4.8086 1.66285 0
M  V30 2907 H 265.546 3.40487 4.51758 0
M  V30 2908 H 264.103 4.2232 4.96477 0
M  V30 2909 N 267.536 -0.106894 1.57237 0
M  V30 2910 C 268.764 -0.826389 1.8968 0
M  V30 2911 C 269.179 -1.72856 0.759353 0
M  V30 2912 O 268.536 -1.80503 -0.269263 0
M  V30 2913 C 268.587 -1.64967 3.21665 0
M  V30 2914 O 268.308 -0.783804 4.31031 0
M  V30 2915 C 269.809 -2.47326 3.67892 0
M  V30 2916 H 267.029 -0.236927 0.627779 0
M  V30 2917 H 269.573 -0.0876593 2.04312 0
M  V30 2918 H 267.728 -2.34103 3.08666 0
M  V30 2919 H 268.142 -1.35284 5.06753 0
M  V30 2920 H 269.616 -3.00604 4.6297 0
M  V30 2921 H 270.093 -3.25247 2.95146 0
M  V30 2922 H 270.699 -1.83411 3.83719 0
M  V30 2923 N 269.014 -1.53014 -0.377408 0
M  V30 2924 C 270.242 -1.72515 -1.14219 0
M  V30 2925 C 270.657 -0.448735 -1.8339 0
M  V30 2926 O 270.014 0.577592 -1.73119 0
M  V30 2927 C 270.065 -2.8826 -2.18148 0
M  V30 2928 O 269.786 -4.10962 -1.51795 0
M  V30 2929 C 271.287 -3.19536 -3.07264 0
M  V30 2930 H 268.507 -0.577301 -0.342001 0
M  V30 2931 H 271.051 -1.99712 -0.439935 0
M  V30 2932 H 269.206 -2.63492 -2.83991 0
M  V30 2933 H 269.62 -4.75693 -2.20945 0
M  V30 2934 H 271.094 -4.03959 -3.76193 0
M  V30 2935 H 271.571 -2.34403 -3.71419 0
M  V30 2936 H 272.177 -3.46186 -2.47053 0
M  V30 2937 N 270.492 0.636531 -1.44174 0
M  V30 2938 C 271.739 1.39619 -1.46672 0
M  V30 2939 C 272.067 1.94257 -0.0972691 0
M  V30 2940 O 271.322 1.73768 0.900175 0
M  V30 2941 C 271.621 2.58309 -2.47005 0
M  V30 2942 C 271.287 2.21992 -3.92467 0
M  V30 2943 C 269.949 2.118 -4.32081 0
M  V30 2944 C 272.301 1.9321 -4.84065 0
M  V30 2945 C 269.629 1.71007 -5.61225 0
M  V30 2946 C 271.981 1.53911 -6.13591 0
M  V30 2947 C 270.645 1.42257 -6.52165 0
M  V30 2948 H 269.915 0.510902 -0.536712 0
M  V30 2949 H 272.562 0.722328 -1.77355 0
M  V30 2950 H 270.867 3.30903 -2.09786 0
M  V30 2951 H 272.564 3.16533 -2.46186 0
M  V30 2952 H 269.154 2.30841 -3.61124 0
M  V30 2953 H 273.338 1.99997 -4.54219 0
M  V30 2954 H 268.594 1.60583 -5.89935 0
M  V30 2955 H 272.768 1.30677 -6.8403 0
M  V30 2956 H 270.395 1.10419 -7.52138 0
M  V30 2957 N 271.97 1.30982 0.876444 0
M  V30 2958 C 273.198 1.23242 1.6619 0
M  V30 2959 C 273.613 -0.203345 1.87702 0
M  V30 2960 O 272.97 -1.13317 1.43057 0
M  V30 2961 C 273.021 1.96623 3.03351 0
M  V30 2962 O 272.742 3.34594 2.82804 0
M  V30 2963 C 274.243 1.95644 3.97792 0
M  V30 2964 H 271.463 0.426126 0.518322 0
M  V30 2965 H 274.007 1.7275 1.09442 0
M  V30 2966 H 272.162 1.50892 3.56806 0
M  V30 2967 H 272.576 3.71873 3.69879 0
M  V30 2968 H 274.05 2.51511 4.91372 0
M  V30 2969 H 274.527 0.937395 4.2908 0
M  V30 2970 H 275.133 2.41225 3.50272 0
M  V30 2971 N 273.449 -1.08991 1.13837 0
M  V30 2972 C 274.412 -2.13925 0.822715 0
M  V30 2973 C 275.412 -1.599 -0.1699 0
M  V30 2974 O 276.602 -1.74104 0.0577251 0
M  V30 2975 C 273.734 -3.40155 0.225318 0
M  V30 2976 H 274.927 -2.43358 1.75262 0
M  V30 2977 H 272.48 -1.24603 0.943594 0
M  V30 2978 H 273.215 -3.16352 -0.713594 0
M  V30 2979 H 273 -3.80661 0.940193 0
M  V30 2980 H 274.49 -4.17594 0.0214784 0
M  V30 2981 N 274.927 -0.932562 -1.27047 0
M  V30 2982 C 276.155 -0.592031 -1.98249 0
M  V30 2983 C 276.57 0.831062 -1.69525 0
M  V30 2984 O 275.927 1.55299 -0.958561 0
M  V30 2985 C 275.978 -0.814279 -3.5221 0
M  V30 2986 O 275.699 -2.18139 -3.7993 0
M  V30 2987 C 277.2 -0.483121 -4.4066 0
M  V30 2988 H 274.42 -0.223896 -0.632544 0
M  V30 2989 H 276.964 -1.25091 -1.61779 0
M  V30 2990 H 275.119 -0.20213 -3.86872 0
M  V30 2991 H 275.533 -2.235 -4.74498 0
M  V30 2992 H 277.007 -0.689298 -5.47679 0
M  V30 2993 H 277.484 0.581546 -4.35333 0
M  V30 2994 H 278.09 -1.07362 -4.11526 0
M  V30 2995 N 276.405 1.4127 -0.698611 0
M  V30 2996 C 277.821 1.55241 -0.370462 0
M  V30 2997 C 278.021 1.67351 1.12231 0
M  V30 2998 O 277.077 1.65363 1.90818 0
M  V30 2999 C 278.39 2.78997 -1.12165 0
M  V30 3000 C 279.938 2.92797 -1.1063 0
M  V30 3001 C 280.413 4.19445 -1.8393 0
M  V30 3002 N 281.904 4.26409 -1.80914 0
M  V30 3003 C 282.639 5.23271 -2.34467 0
M  V30 3004 N 282.135 6.26145 -2.96504 0
M  V30 3005 N 283.928 5.15232 -2.24706 0
M  V30 3006 H 276.079 1.31654 -1.66676 0
M  V30 3007 H 278.342 0.635393 -0.703548 0
M  V30 3008 H 278.048 2.76268 -2.17644 0
M  V30 3009 H 277.922 3.70606 -0.702209 0
M  V30 3010 H 280.309 2.95039 -0.0597713 0
M  V30 3011 H 280.39 2.02353 -1.56483 0
M  V30 3012 H 280.034 4.17964 -2.88563 0
M  V30 3013 H 279.964 5.08866 -1.35509 0
M  V30 3014 H 282.455 3.527 -1.35687 0
M  V30 3015 H 282.768 6.96451 -3.34927 0
M  V30 3016 H 281.113 6.26638 -3.00583 0
M  V30 3017 H 284.304 4.33789 -1.7591 0
M  V30 3018 H 284.477 5.90552 -2.66745 0
M  V30 3019 N 277.883 0.443576 1.51229 0
M  V30 3020 C 279.294 -0.0180867 1.86691 0
M  V30 3021 C 279.645 -1.41384 1.36033 0
M  V30 3022 O 278.77 -2.04291 0.713722 0
M  V30 3023 C 279.365 -0.039597 3.38777 0
M  V30 3024 C 277.924 -0.445692 3.73752 0
M  V30 3025 C 277.071 0.357584 2.74985 0
M  V30 3026 H 280.022 0.659138 1.44364 0
M  V30 3027 H 280.043 -0.847761 3.70936 0
M  V30 3028 H 279.555 0.976382 3.75617 0
M  V30 3029 H 277.656 -1.46704 3.42503 0
M  V30 3030 H 277.769 -0.166155 4.78812 0
M  V30 3031 H 276.133 -0.184973 2.54027 0
M  V30 3032 H 276.916 1.37256 3.14668 0
M  V30 3033 N 279.361 -1.56624 0.175154 0
M  V30 3034 C 280.609 -1.96609 -0.467885 0
M  V30 3035 C 280.93 -1.06238 -1.63519 0
M  V30 3036 O 280.2 -0.129523 -1.95471 0
M  V30 3037 H 278.78 -0.726008 -0.175845 0
M  V30 3038 H 281.442 -1.93195 0.257234 0
M  V30 3039 H 280.538 -3.00989 -0.825342 0
M  V30 3040 N 280.839 0.0985539 -1.57292 0
M  V30 3041 C 282.085 0.803867 -1.86188 0
M  V30 3042 C 282.418 1.78549 -0.763794 0
M  V30 3043 O 281.693 1.93153 0.22855 0
M  V30 3044 C 281.976 1.53568 -3.25713 0
M  V30 3045 C 281.829 0.572277 -4.46145 0
M  V30 3046 C 283.148 2.48708 -3.63087 0
M  V30 3047 H 280.267 0.290781 -0.677211 0
M  V30 3048 H 282.909 0.0675783 -1.8988 0
M  V30 3049 H 281.059 2.16332 -3.22696 0
M  V30 3050 H 282.731 -0.0480894 -4.61275 0
M  V30 3051 H 280.974 -0.114618 -4.33649 0
M  V30 3052 H 281.645 1.12139 -5.40489 0
M  V30 3053 H 284.121 1.96039 -3.67026 0
M  V30 3054 H 282.997 2.96932 -4.61652 0
M  V30 3055 H 283.258 3.32309 -2.91588 0
M  V30 3056 N 282.317 1.53212 0.369288 0
M  V30 3057 C 283.547 1.72868 1.13139 0
M  V30 3058 C 283.955 0.455754 1.83629 0
M  V30 3059 O 283.298 -0.580861 1.74275 0
M  V30 3060 C 283.36 2.83667 2.20847 0
M  V30 3061 C 283.024 4.24142 1.70155 0
M  V30 3062 C 284.021 5.06619 1.16763 0
M  V30 3063 C 281.706 4.70539 1.7578 0
M  V30 3064 C 283.7 6.33581 0.696678 0
M  V30 3065 C 281.387 5.97481 1.28297 0
M  V30 3066 C 282.385 6.78833 0.753307 0
M  V30 3067 O 282.073 8.03393 0.285475 0
M  V30 3068 H 281.805 0.581707 0.344373 0
M  V30 3069 H 284.359 2.00736 0.435243 0
M  V30 3070 H 282.589 2.51265 2.93944 0
M  V30 3071 H 284.278 2.91536 2.82421 0
M  V30 3072 H 285.044 4.71948 1.11758 0
M  V30 3073 H 280.923 4.07293 2.15949 0
M  V30 3074 H 284.467 6.97027 0.282581 0
M  V30 3075 H 280.364 6.31651 1.32994 0
M  V30 3076 H 281.132 8.17497 0.405145 0
M  V30 3077 N 283.795 -0.628877 1.44509 0
M  V30 3078 C 285.025 -1.41349 1.50678 0
M  V30 3079 C 285.433 -1.88745 0.131075 0
M  V30 3080 O 284.776 -1.61592 -0.87371 0
M  V30 3081 C 284.838 -2.66608 2.41165 0
M  V30 3082 C 284.502 -2.40993 3.88293 0
M  V30 3083 C 285.499 -2.0268 4.78766 0
M  V30 3084 C 283.184 -2.54563 4.33016 0
M  V30 3085 C 285.178 -1.78269 6.11963 0
M  V30 3086 C 282.865 -2.29766 5.6626 0
M  V30 3087 C 283.863 -1.91678 6.55552 0
M  V30 3088 O 283.551 -1.67158 7.86329 0
M  V30 3089 H 283.283 -0.439851 0.51333 0
M  V30 3090 H 285.837 -0.776084 1.90174 0
M  V30 3091 H 284.067 -3.32994 1.96601 0
M  V30 3092 H 285.756 -3.28615 2.38259 0
M  V30 3093 H 286.522 -1.91751 4.45485 0
M  V30 3094 H 282.401 -2.83179 3.63773 0
M  V30 3095 H 285.945 -1.48465 6.81619 0
M  V30 3096 H 281.842 -2.40306 5.99102 0
M  V30 3097 H 282.61 -1.81386 7.98149 0
M  V30 3098 N 285.273 -1.31445 -0.869486 0
M  V30 3099 C 286.521 -1.20918 -1.61936 0
M  V30 3100 C 286.842 0.232683 -1.93607 0
M  V30 3101 O 286.112 1.15352 -1.58338 0
M  V30 3102 H 284.692 -0.44454 -0.600328 0
M  V30 3103 H 287.354 -1.64776 -1.0409 0
M  V30 3104 H 286.45 -1.78124 -2.56278 0
M  V30 3105 N 286.751 1.08385 -1.14413 0
M  V30 3106 C 287.683 2.1519 -0.789036 0
M  V30 3107 C 288.696 1.61638 0.19417 0
M  V30 3108 O 289.885 1.78479 -0.0275711 0
M  V30 3109 C 286.985 3.38565 -0.15058 0
M  V30 3110 C 286.158 4.21501 -1.16857 0
M  V30 3111 C 285.217 5.23277 -0.553832 0
M  V30 3112 O 284.243 5.56041 -1.21686 0
M  V30 3113 N 285.445 5.76629 0.669296 0
M  V30 3114 H 288.21 2.46257 -1.70814 0
M  V30 3115 H 285.771 1.24198 -1.03858 0
M  V30 3116 H 287.763 4.03777 0.273181 0
M  V30 3117 H 286.333 3.05299 0.671667 0
M  V30 3118 H 285.553 3.52265 -1.76926 0
M  V30 3119 H 286.841 4.73731 -1.85624 0
M  V30 3120 H 286.239 5.52243 1.22654 0
M  V30 3121 H 284.796 6.43521 1.03556 0
M  V30 3122 N 288.23 0.939286 1.26551 0
M  V30 3123 C 289.47 0.5933 1.956 0
M  V30 3124 C 289.834 -0.851515 1.72085 0
M  V30 3125 O 291.035 -1.30634 2.34921 0
M  V30 3126 C 289.306 0.923996 3.45249 0
M  V30 3127 S 290.865 0.688269 4.33369 0
M  V30 3128 H 287.683 0.218591 0.676564 0
M  V30 3129 H 290.285 1.2102 1.5354 0
M  V30 3130 H 288.989 1.97297 3.59864 0
M  V30 3131 H 288.52 0.296746 3.92279 0
M  V30 3132 H 290.535 -0.448434 4.9417 0
M  V30 3133 N 289.708 -1.40897 0.706093 0
M  V30 3134 C 290.933 -2.05895 0.249435 0
M  V30 3135 C 291.358 -1.52823 -1.09666 0
M  V30 3136 O 290.716 -0.659589 -1.68876 0
M  V30 3137 C 290.764 -3.59872 0.22904 0
M  V30 3138 O 289.868 -4.04708 -0.792784 0
M  V30 3139 H 289.209 -0.653206 0.119241 0
M  V30 3140 H 291.739 -1.80471 0.96391 0
M  V30 3141 H 291.749 -4.07951 0.0634791 0
M  V30 3142 H 290.424 -3.97866 1.21141 0
M  V30 3143 H 289.001 -3.68111 -0.59572 0
M  V30 3144 N 291.186 -0.45159 -1.50991 0
M  V30 3145 C 292.096 0.358431 -2.31846 0
M  V30 3146 C 293.112 1.01438 -1.41373 0
M  V30 3147 O 294.288 1.00663 -1.74439 0
M  V30 3148 C 291.353 1.43704 -3.15515 0
M  V30 3149 C 290.414 0.799742 -4.21785 0
M  V30 3150 C 289.647 1.82696 -5.01456 0
M  V30 3151 O 289.87 3.05105 -4.81941 0
M  V30 3152 O 288.804 1.40958 -5.85162 0
M  V30 3153 H 292.63 -0.302032 -3.02194 0
M  V30 3154 H 290.215 -0.213825 -1.47862 0
M  V30 3155 H 292.097 2.06227 -3.67489 0
M  V30 3156 H 290.772 2.08133 -2.47916 0
M  V30 3157 H 289.679 0.136084 -3.73852 0
M  V30 3158 H 291.012 0.198718 -4.91799 0
M  V30 3159 N 292.664 1.56529 -0.183458 0
M  V30 3160 C 293.913 1.96419 0.458511 0
M  V30 3161 C 294.226 1.0727 1.63562 0
M  V30 3162 O 295.432 1.36893 2.34462 0
M  V30 3163 C 293.888 3.49298 0.867122 0
M  V30 3164 C 293.496 4.47092 -0.285057 0
M  V30 3165 C 295.24 3.97983 1.47683 0
M  V30 3166 C 293.147 5.91225 0.143862 0
M  V30 3167 H 292.077 0.733394 0.175071 0
M  V30 3168 H 294.728 1.81448 -0.273624 0
M  V30 3169 H 293.11 3.59731 1.65559 0
M  V30 3170 H 294.284 4.48383 -1.0625 0
M  V30 3171 H 292.599 4.08535 -0.805503 0
M  V30 3172 H 295.196 5.03134 1.80999 0
M  V30 3173 H 295.539 3.41618 2.37914 0
M  V30 3174 H 296.072 3.90617 0.752562 0
M  V30 3175 H 292.811 6.5149 -0.723974 0
M  V30 3176 H 292.331 5.93214 0.886413 0
M  V30 3177 H 294.01 6.44362 0.583628 0
M  V30 3178 N 294.142 -0.090211 1.57342 0
M  V30 3179 C 295.382 -0.798365 1.88163 0
M  V30 3180 C 295.746 -1.75662 0.775046 0
M  V30 3181 O 296.947 -2.50849 0.965816 0
M  V30 3182 C 295.218 -1.50376 3.24225 0
M  V30 3183 S 296.777 -2.24952 3.76752 0
M  V30 3184 H 293.595 -0.265883 0.659414 0
M  V30 3185 H 296.197 -0.055264 1.95422 0
M  V30 3186 H 294.901 -0.792286 4.0268 0
M  V30 3187 H 294.432 -2.28666 3.20118 0
M  V30 3188 H 296.447 -3.51173 3.5056 0
M  V30 3189 N 295.62 -1.53406 -0.361157 0
M  V30 3190 C 296.868 -1.69467 -1.10115 0
M  V30 3191 C 297.189 -0.451352 -1.89705 0
M  V30 3192 O 296.459 0.534636 -1.88463 0
M  V30 3193 H 295.039 -0.624749 -0.409508 0
M  V30 3194 H 297.701 -1.90609 -0.406699 0
M  V30 3195 H 296.797 -2.55774 -1.78847 0
M  V30 3196 N 297.098 0.621204 -1.44841 0
M  V30 3197 C 298.061 1.71459 -1.521 0
M  V30 3198 C 299.061 1.55696 -0.401933 0
M  V30 3199 O 300.251 1.61011 -0.664925 0
M  V30 3200 C 297.383 3.10624 -1.40447 0
M  V30 3201 H 298.576 1.66394 -2.49506 0
M  V30 3202 H 296.129 0.835745 -1.3208 0
M  V30 3203 H 296.864 3.21277 -0.441737 0
M  V30 3204 H 296.649 3.23473 -2.21602 0
M  V30 3205 H 298.139 3.90293 -1.4853 0
M  V30 3206 N 298.576 1.31904 0.862503 0
M  V30 3207 C 299.524 1.20125 1.9918 0
M  V30 3208 C 300.518 0.107824 1.69056 0
M  V30 3209 O 301.724 0.270223 1.7796 0
M  V30 3210 H 298.099 0.372148 0.65346 0
M  V30 3211 H 300.07 2.15652 2.06244 0
M  V30 3212 C 298.819 0.933099 3.34946 0
M  V30 3213 H 298.142 1.76664 3.5865 0
M  V30 3214 H 299.582 0.890892 4.14535 0
M  V30 3215 C 298.041 -0.364172 3.34926 0
M  V30 3216 O 298.571 -1.37858 3.77304 0
M  V30 3217 N 296.777 -0.383362 2.8806 0
M  V30 3218 H 296.324 0.442651 2.53768 0
M  V30 3219 H 296.282 -1.25123 2.8843 0
M  V30 3220 N 300.054 -1.07777 1.14986 0
M  V30 3221 C 301.004 -2.13082 0.811181 0
M  V30 3222 C 301.988 -1.59619 -0.202597 0
M  V30 3223 O 303.18 -1.77 -0.00398275 0
M  V30 3224 C 300.309 -3.42009 0.297439 0
M  V30 3225 C 299.395 -4.02337 1.34112 0
M  V30 3226 N 299.786 -4.36982 2.54716 0
M  V30 3227 C 298.084 -4.29752 1.19285 0
M  V30 3228 C 298.785 -4.84729 3.21578 0
M  V30 3229 N 297.761 -4.83233 2.48972 0
M  V30 3230 H 301.563 -2.37696 1.72853 0
M  V30 3231 H 299.077 -1.25173 1.03468 0
M  V30 3232 H 301.074 -4.16884 0.0364777 0
M  V30 3233 H 299.734 -3.18841 -0.614022 0
M  V30 3234 H 300.745 -4.27807 2.91894 0
M  V30 3235 H 297.422 -4.16106 0.340926 0
M  V30 3236 H 298.812 -5.20863 4.24442 0
M  V30 3237 N 301.532 -0.945985 -1.26051 0
M  V30 3238 C 302.757 -0.612525 -1.98149 0
M  V30 3239 C 303.182 0.806623 -1.69927 0
M  V30 3240 O 302.54 1.54411 -0.950108 0
M  V30 3241 C 302.588 -0.866981 -3.50023 0
M  V30 3242 O 301.692 0.0585333 -4.12358 0
M  V30 3243 H 301.033 -0.23379 -0.621481 0
M  V30 3244 H 303.563 -1.27023 -1.60395 0
M  V30 3245 H 303.573 -0.789792 -4.00283 0
M  V30 3246 H 302.248 -1.90135 -3.69894 0
M  V30 3247 H 300.825 -0.0701241 -3.72834 0
M  V30 3248 N 303.011 1.40521 -0.713556 0
M  V30 3249 C 304.258 2.00923 -0.25219 0
M  V30 3250 C 304.586 1.56571 1.15395 0
M  V30 3251 O 303.841 0.775874 1.79663 0
M  V30 3252 C 304.14 3.56317 -0.278 0
M  V30 3253 C 303.806 4.20246 -1.63415 0
M  V30 3254 C 302.468 4.37422 -2.00538 0
M  V30 3255 C 304.82 4.55923 -2.52554 0
M  V30 3256 C 302.148 4.87558 -3.2635 0
M  V30 3257 C 304.5 5.07458 -3.77716 0
M  V30 3258 C 303.164 5.22843 -4.14959 0
M  V30 3259 H 302.434 0.735231 -0.0922829 0
M  V30 3260 H 305.081 1.68161 -0.916188 0
M  V30 3261 H 303.386 3.88976 0.469567 0
M  V30 3262 H 305.083 4.00883 0.0967819 0
M  V30 3263 H 301.673 4.07263 -1.33546 0
M  V30 3264 H 305.857 4.42291 -2.25149 0
M  V30 3265 H 301.113 4.97654 -3.55176 0
M  V30 3266 H 305.287 5.34041 -4.4696 0
M  V30 3267 H 302.914 5.61454 -5.12516 0
M  V30 3268 N 304.489 0.459591 1.5075 0
M  V30 3269 C 305.422 -0.386257 2.24907 0
M  V30 3270 C 306.4 -1.006 1.27744 0
M  V30 3271 O 307.584 -1.04416 1.56938 0
M  V30 3272 C 304.711 -1.54021 3.01654 0
M  V30 3273 C 303.757 -1.03898 4.13651 0
M  V30 3274 S 304.59 0.0370501 5.35487 0
M  V30 3275 C 305.746 -1.12105 6.15779 0
M  V30 3276 H 305.979 0.243272 2.96303 0
M  V30 3277 H 303.512 0.244339 1.52454 0
M  V30 3278 H 305.47 -2.20163 3.46466 0
M  V30 3279 H 304.131 -2.14121 2.29806 0
M  V30 3280 H 303.324 -1.90254 4.66711 0
M  V30 3281 H 302.926 -0.45545 3.71216 0
M  V30 3282 H 305.218 -2.03501 6.46215 0
M  V30 3283 H 306.161 -0.62995 7.05292 0
M  V30 3284 H 306.569 -1.36967 5.47631 0
M  V30 3285 N 305.967 -1.56429 0.191757 0
M  V30 3286 C 307.378 -1.83912 -0.321428 0
M  V30 3287 C 307.729 -1.11231 -1.61623 0
M  V30 3288 O 306.854 -0.37202 -2.13178 0
M  V30 3289 C 307.449 -3.33624 -0.589961 0
M  V30 3290 C 306.008 -3.6153 -1.04753 0
M  V30 3291 C 305.155 -2.7714 -0.0943327 0
M  V30 3292 H 308.106 -1.53161 0.415612 0
M  V30 3293 H 308.127 -3.52213 -1.43966 0
M  V30 3294 H 307.639 -3.86495 0.352588 0
M  V30 3295 H 305.74 -3.14089 -2.00447 0
M  V30 3296 H 305.853 -4.69737 -0.942549 0
M  V30 3297 H 304.217 -2.47638 -0.595589 0
M  V30 3298 H 305 -3.32799 0.842601 0
M  V30 3299 N 307.445 0.0818655 -1.57387 0
M  V30 3300 C 308.694 0.781681 -1.85937 0
M  V30 3301 C 309.007 1.79246 -0.782957 0
M  V30 3302 O 310.213 2.54112 -0.955987 0
M  V30 3303 C 308.669 1.44109 -3.29789 0
M  V30 3304 C 308.277 0.469396 -4.45534 0
M  V30 3305 C 310.021 2.12386 -3.67549 0
M  V30 3306 C 307.928 1.13415 -5.80423 0
M  V30 3307 H 306.858 0.295682 -0.693605 0
M  V30 3308 H 309.509 0.0348051 -1.83467 0
M  V30 3309 H 307.891 2.23588 -3.2684 0
M  V30 3310 H 309.065 -0.294856 -4.59856 0
M  V30 3311 H 307.38 -0.108383 -4.16259 0
M  V30 3312 H 309.977 2.62878 -4.65617 0
M  V30 3313 H 310.32 2.91877 -2.96839 0
M  V30 3314 H 310.853 1.39751 -3.72444 0
M  V30 3315 H 307.592 0.379771 -6.54399 0
M  V30 3316 H 307.112 1.8695 -5.69921 0
M  V30 3317 H 308.791 1.65686 -6.25426 0
M  V30 3318 N 308.923 1.53595 0.353017 0
M  V30 3319 C 310.169 1.70638 1.09593 0
M  V30 3320 C 310.502 0.463286 1.88593 0
M  V30 3321 O 309.777 -0.539597 1.86865 0
M  V30 3322 C 310.06 2.96406 2.04489 0
M  V30 3323 C 309.913 4.30901 1.29014 0
M  V30 3324 C 311.232 3.17812 3.0444 0
M  V30 3325 H 308.351 0.620913 0.397034 0
M  V30 3326 H 310.993 1.86254 0.375446 0
M  V30 3327 H 309.143 2.83223 2.65927 0
M  V30 3328 H 310.815 4.55917 0.702638 0
M  V30 3329 H 309.058 4.29741 0.592071 0
M  V30 3330 H 309.729 5.1506 1.98537 0
M  V30 3331 H 312.205 3.30263 2.53112 0
M  V30 3332 H 311.081 4.07223 3.6805 0
M  V30 3333 H 311.342 2.33669 3.75301 0
M  V30 3334 N 310.401 -0.613514 1.45168 0
M  V30 3335 C 311.331 -1.7354 1.56225 0
M  V30 3336 C 312.312 -1.64981 0.41414 0
M  V30 3337 O 313.497 -1.83472 0.636526 0
M  V30 3338 C 310.627 -3.12128 1.52295 0
M  V30 3339 C 309.581 -3.35491 2.65762 0
M  V30 3340 C 308.907 -4.74291 2.46885 0
M  V30 3341 C 310.207 -3.26325 4.0781 0
M  V30 3342 H 311.901 -1.64543 2.50132 0
M  V30 3343 H 309.447 -0.790185 1.20383 0
M  V30 3344 H 311.4 -3.90404 1.58628 0
M  V30 3345 H 310.124 -3.2195 0.549139 0
M  V30 3346 H 308.783 -2.59603 2.58847 0
M  V30 3347 H 308.431 -4.80839 1.47657 0
M  V30 3348 H 308.131 -4.9088 3.22972 0
M  V30 3349 H 309.655 -5.54775 2.55063 0
M  V30 3350 H 311.069 -3.94483 4.16 0
M  V30 3351 H 309.466 -3.54445 4.8424 0
M  V30 3352 H 310.536 -2.23855 4.30136 0
M  V30 3353 N 311.879 -1.3236 -0.855495 0
M  V30 3354 C 312.789 -1.23221 -1.99634 0
M  V30 3355 C 313.805 -0.145983 -1.73387 0
M  V30 3356 O 314.981 -0.366502 -1.98037 0
M  V30 3357 C 312.046 -0.954782 -3.33294 0
M  V30 3358 C 311.107 -2.12937 -3.72769 0
M  V30 3359 C 310.34 -1.86508 -5.00051 0
M  V30 3360 O 310.563 -0.807231 -5.64659 0
M  V30 3361 O 309.497 -2.72591 -5.36636 0
M  V30 3362 H 313.323 -2.19126 -2.1028 0
M  V30 3363 H 310.908 -1.12241 -0.986018 0
M  V30 3364 H 312.79 -0.816519 -4.13414 0
M  V30 3365 H 311.465 -0.0258854 -3.2369 0
M  V30 3366 H 310.372 -2.3231 -2.93228 0
M  V30 3367 H 311.705 -3.04102 -3.87018 0
M  V30 3368 N 313.357 1.07166 -1.15556 0
M  V30 3369 C 314.287 2.16403 -0.877046 0
M  V30 3370 C 315.268 1.69217 0.173111 0
M  V30 3371 O 316.453 1.94181 0.027084 0
M  V30 3372 C 313.583 3.45349 -0.367632 0
M  V30 3373 C 312.537 4.05995 -1.35468 0
M  V30 3374 C 311.863 5.30045 -0.704038 0
M  V30 3375 C 313.163 4.45804 -2.72132 0
M  V30 3376 H 314.857 2.39959 -1.79053 0
M  V30 3377 H 312.403 1.15325 -0.862331 0
M  V30 3378 H 314.356 4.21095 -0.160317 0
M  V30 3379 H 313.08 3.21385 0.581326 0
M  V30 3380 H 311.739 3.32296 -1.54839 0
M  V30 3381 H 311.387 5.02373 0.251128 0
M  V30 3382 H 311.087 5.71579 -1.36277 0
M  V30 3383 H 312.611 6.08495 -0.50654 0
M  V30 3384 H 314.025 5.12671 -2.56595 0
M  V30 3385 H 312.422 4.98296 -3.34397 0
M  V30 3386 H 313.492 3.57083 -3.28054 0
M  V30 3387 N 314.835 0.952656 1.25548 0
M  V30 3388 C 316.084 0.602053 1.92505 0
M  V30 3389 C 316.397 -0.864663 1.75451 0
M  V30 3390 O 317.603 -1.32514 2.36965 0
M  V30 3391 C 316.059 1.02607 3.44963 0
M  V30 3392 C 315.667 2.51519 3.70732 0
M  V30 3393 C 317.411 0.747905 4.1786 0
M  V30 3394 C 315.318 2.87732 5.16686 0
M  V30 3395 H 314.248 0.22146 0.720744 0
M  V30 3396 H 316.899 1.15684 1.42441 0
M  V30 3397 H 315.281 0.399712 3.93978 0
M  V30 3398 H 316.455 3.19157 3.32378 0
M  V30 3399 H 314.77 2.76786 3.11092 0
M  V30 3400 H 317.367 0.994647 5.25367 0
M  V30 3401 H 317.71 -0.315629 4.15102 0
M  V30 3402 H 318.243 1.33452 3.74747 0
M  V30 3403 H 314.982 3.93095 5.24554 0
M  V30 3404 H 314.502 2.24765 5.56094 0
M  V30 3405 H 316.181 2.76817 5.84792 0
M  V30 3406 N 316.313 -1.40141 0.720998 0
M  V30 3407 C 317.724 -1.83678 0.334553 0
M  V30 3408 C 318.075 -1.6027 -1.13173 0
M  V30 3409 O 317.2 -1.08643 -1.87152 0
M  V30 3410 C 317.795 -3.33437 0.600437 0
M  V30 3411 C 316.354 -3.75447 0.267642 0
M  V30 3412 C 315.501 -2.63296 0.870097 0
M  V30 3413 H 318.452 -1.29331 0.919732 0
M  V30 3414 H 318.473 -3.80269 -0.132517 0
M  V30 3415 H 317.985 -3.50442 1.66768 0
M  V30 3416 H 316.086 -3.64035 -0.794329 0
M  V30 3417 H 316.199 -4.73344 0.74042 0
M  V30 3418 H 314.563 -2.52954 0.297739 0
M  V30 3419 H 315.346 -2.83112 1.94172 0
M  V30 3420 N 317.792 -0.46758 -1.50504 0
M  V30 3421 C 318.722 0.318381 -2.31319 0
M  V30 3422 C 319.703 0.993564 -1.38066 0
M  V30 3423 O 320.888 0.991411 -1.66987 0
M  V30 3424 C 318.018 1.40275 -3.17711 0
M  V30 3425 C 316.972 0.849373 -4.19487 0
M  V30 3426 C 316.298 2.03177 -4.94594 0
M  V30 3427 C 317.598 -0.136942 -5.2212 0
M  V30 3428 H 319.292 -0.356106 -2.97275 0
M  V30 3429 H 316.838 -0.172703 -1.42961 0
M  V30 3430 H 318.791 1.96004 -3.73042 0
M  V30 3431 H 317.515 2.10596 -2.49634 0
M  V30 3432 H 316.174 0.314076 -3.65252 0
M  V30 3433 H 315.822 2.72187 -4.22993 0
M  V30 3434 H 315.522 1.66774 -5.63436 0
M  V30 3435 H 317.046 2.59403 -5.52759 0
M  V30 3436 H 318.46 0.331056 -5.72343 0
M  V30 3437 H 316.857 -0.41507 -5.98663 0
M  V30 3438 H 317.927 -1.06398 -4.73083 0
M  V30 3439 N 319.27 1.56325 -0.20005 0
M  V30 3440 C 320.217 2.1932 0.718833 0
M  V30 3441 C 321.187 1.14198 1.20615 0
M  V30 3442 O 322.372 1.42469 1.26914 0
M  V30 3443 C 319.512 2.86041 1.93066 0
M  V30 3444 C 318.625 4.05702 1.48425 0
M  V30 3445 C 317.76 4.60266 2.65196 0
M  V30 3446 C 316.799 5.72273 2.17185 0
M  V30 3447 N 315.936 6.21221 3.27152 0
M  V30 3448 H 320.776 2.97486 0.17489 0
M  V30 3449 H 318.313 1.46911 0.0745794 0
M  V30 3450 H 320.271 3.22897 2.64184 0
M  V30 3451 H 318.901 2.1043 2.44783 0
M  V30 3452 H 317.953 3.74475 0.668755 0
M  V30 3453 H 319.265 4.86699 1.09204 0
M  V30 3454 H 318.419 4.99453 3.4443 0
M  V30 3455 H 317.158 3.78386 3.07693 0
M  V30 3456 H 316.163 5.3261 1.36407 0
M  V30 3457 H 317.388 6.55974 1.75713 0
M  V30 3458 H 315.334 5.42263 3.69171 0
M  V30 3459 H 315.251 6.97284 2.92116 0
M  V30 3460 H 316.519 6.65063 4.06585 0
M  V30 3461 N 320.748 -0.0735177 1.57428 0
M  V30 3462 C 321.997 -0.771809 1.86349 0
M  V30 3463 C 322.31 -1.78828 0.792452 0
M  V30 3464 O 323.516 -2.53602 0.96945 0
M  V30 3465 C 321.972 -1.42358 3.30548 0
M  V30 3466 C 321.58 -0.445761 4.45777 0
M  V30 3467 C 323.324 -2.10434 3.6867 0
M  V30 3468 C 321.231 -1.10335 5.81016 0
M  V30 3469 H 320.161 -0.291999 0.695164 0
M  V30 3470 H 322.812 -0.0250749 1.83483 0
M  V30 3471 H 321.194 -2.21852 3.28021 0
M  V30 3472 H 322.368 0.319239 4.59693 0
M  V30 3473 H 320.683 0.130457 4.16196 0
M  V30 3474 H 323.28 -2.60405 4.67004 0
M  V30 3475 H 323.623 -2.90298 2.98383 0
M  V30 3476 H 324.156 -1.37773 3.7318 0
M  V30 3477 H 320.895 -0.345061 6.54591 0
M  V30 3478 H 320.415 -1.83925 5.70904 0
M  V30 3479 H 322.094 -1.62367 6.26295 0
M  V30 3480 N 322.226 -1.5378 -0.344866 0
M  V30 3481 C 323.473 -1.70963 -1.08526 0
M  V30 3482 C 323.801 -0.472126 -1.88683 0
M  V30 3483 O 323.056 0.546116 -1.87926 0
M  V30 3484 C 323.355 -2.92407 -2.05506 0
M  V30 3485 C 323.021 -4.28066 -1.41671 0
M  V30 3486 C 321.683 -4.64951 -1.2399 0
M  V30 3487 C 324.035 -5.12344 -0.956726 0
M  V30 3488 C 321.363 -5.83733 -0.589277 0
M  V30 3489 C 323.715 -6.3179 -0.320015 0
M  V30 3490 C 322.379 -6.67372 -0.130881 0
M  V30 3491 H 321.649 -0.625598 -0.397124 0
M  V30 3492 H 324.296 -1.87995 -0.36469 0
M  V30 3493 H 322.601 -2.69973 -2.8394 0
M  V30 3494 H 324.298 -3.02895 -2.62784 0
M  V30 3495 H 320.888 -3.99034 -1.56429 0
M  V30 3496 H 325.072 -4.8438 -1.08118 0
M  V30 3497 H 320.328 -6.09877 -0.431344 0
M  V30 3498 H 324.502 -6.96386 0.0445072 0
M  V30 3499 H 322.129 -7.59273 0.375318 0
M  V30 3500 N 323.704 0.605807 -1.45491 0
M  V30 3501 C 324.614 1.74466 -1.56839 0
M  V30 3502 C 325.63 1.68006 -0.452772 0
M  V30 3503 O 326.806 1.8833 -0.713708 0
M  V30 3504 C 323.871 3.10931 -1.53371 0
M  V30 3505 C 322.932 3.28832 -2.75986 0
M  V30 3506 C 322.165 4.58787 -2.72673 0
M  V30 3507 O 322.388 5.4122 -1.80102 0
M  V30 3508 O 321.322 4.79438 -3.63899 0
M  V30 3509 H 325.148 1.67843 -2.53106 0
M  V30 3510 H 322.733 0.770108 -1.28022 0
M  V30 3511 H 324.615 3.92233 -1.54051 0
M  V30 3512 H 323.29 3.18042 -0.602572 0
M  V30 3513 H 322.197 2.47112 -2.80867 0
M  V30 3514 H 323.53 3.26599 -3.68231 0
M  V30 3515 N 325.182 1.32811 0.848464 0
M  V30 3516 C 326.115 1.16601 1.96162 0
M  V30 3517 C 327.093 0.0638855 1.62474 0
M  V30 3518 O 328.277 0.224348 1.8716 0
M  V30 3519 C 325.404 0.786333 3.29446 0
M  V30 3520 C 324.45 1.89459 3.8211 0
M  V30 3521 S 325.283 3.50395 4.04949 0
M  V30 3522 C 326.439 3.14413 5.41198 0
M  V30 3523 H 326.672 2.10832 2.09612 0
M  V30 3524 H 324.205 1.17543 1.00115 0
M  V30 3525 H 326.163 0.574044 4.06466 0
M  V30 3526 H 324.824 -0.137218 3.138 0
M  V30 3527 H 324.017 1.58207 4.78526 0
M  V30 3528 H 323.619 2.06304 3.11953 0
M  V30 3529 H 325.911 2.64642 6.23675 0
M  V30 3530 H 326.854 4.09874 5.77416 0
M  V30 3531 H 327.262 2.51266 5.05495 0
M  V30 3532 N 326.66 -1.06551 1.16123 0
M  V30 3533 C 327.908 -1.78947 0.939267 0
M  V30 3534 C 328.229 -1.87532 -0.534476 0
M  V30 3535 O 327.499 -1.38211 -1.38833 0
M  V30 3536 H 326.079 -0.662807 0.344523 0
M  V30 3537 H 328.741 -1.28725 1.46342 0
M  V30 3538 H 327.837 -2.81117 1.35572 0
M  V30 3539 N 328.138 -0.959301 -1.25041 0
M  V30 3540 C 329.549 -0.65667 -1.74771 0
M  V30 3541 C 329.9 0.827852 -1.77879 0
M  V30 3542 O 329.025 1.64783 -1.40269 0
M  V30 3543 C 329.62 -1.1853 -3.1739 0
M  V30 3544 C 328.179 -0.932734 -3.6466 0
M  V30 3545 C 327.326 -1.32558 -2.43564 0
M  V30 3546 H 330.277 -1.13558 -1.10862 0
M  V30 3547 H 330.298 -0.547582 -3.76539 0
M  V30 3548 H 329.81 -2.26576 -3.15095 0
M  V30 3549 H 327.911 0.13257 -3.72364 0
M  V30 3550 H 328.024 -1.57248 -4.52559 0
M  V30 3551 H 326.388 -0.743956 -2.43593 0
M  V30 3552 H 327.171 -2.41537 -2.43957 0
M  V30 3553 N 329.616 1.39756 -0.72842 0
M  V30 3554 C 330.862 2.00942 -0.273892 0
M  V30 3555 C 331.195 1.57656 1.13394 0
M  V30 3556 O 330.47 0.802434 1.77176 0
M  V30 3557 C 330.753 3.58211 -0.368346 0
M  V30 3558 C 330.606 4.11534 -1.81548 0
M  V30 3559 C 331.925 4.39372 0.253054 0
M  V30 3560 H 329.044 0.730047 -0.100996 0
M  V30 3561 H 331.686 1.66056 -0.923337 0
M  V30 3562 H 329.836 3.88061 0.184588 0
M  V30 3563 H 331.508 3.92431 -2.42478 0
M  V30 3564 H 329.751 3.65341 -2.33898 0
M  V30 3565 H 330.422 5.20682 -1.83288 0
M  V30 3566 H 332.898 4.15527 -0.218224 0
M  V30 3567 H 331.774 5.48677 0.156585 0
M  V30 3568 H 332.035 4.21358 1.33826 0
M  V30 3569 N 331.094 0.475555 1.50254 0
M  V30 3570 C 332.341 -0.0778919 2.0235 0
M  V30 3571 C 332.669 -1.39319 1.35722 0
M  V30 3572 O 331.924 -1.89888 0.473395 0
M  V30 3573 C 332.223 -0.305114 3.56095 0
M  V30 3574 C 331.889 0.92903 4.41225 0
M  V30 3575 C 330.551 1.26739 4.6421 0
M  V30 3576 C 332.903 1.75054 4.90923 0
M  V30 3577 C 330.231 2.42724 5.34137 0
M  V30 3578 C 332.583 2.9017 5.62125 0
M  V30 3579 C 331.247 3.24416 5.83362 0
M  V30 3580 H 330.517 -0.0285027 0.740452 0
M  V30 3581 H 333.164 0.630543 1.80821 0
M  V30 3582 H 331.469 -1.09584 3.76163 0
M  V30 3583 H 333.166 -0.747377 3.93974 0
M  V30 3584 H 329.756 0.655428 4.23559 0
M  V30 3585 H 333.94 1.50231 4.73016 0
M  V30 3586 H 329.196 2.69525 5.48786 0
M  V30 3587 H 333.37 3.54169 5.99614 0
M  V30 3588 H 330.997 4.14396 6.37323 0
M  V30 3589 N 332.573 -1.56217 0.208337 0
M  V30 3590 C 333.801 -2.02337 -0.43215 0
M  V30 3591 C 334.216 -1.08834 -1.54275 0
M  V30 3592 O 333.573 -0.0955462 -1.8225 0
M  V30 3593 C 333.624 -3.48072 -0.976138 0
M  V30 3594 O 333.345 -4.38007 0.0901621 0
M  V30 3595 C 334.846 -4.09773 -1.69119 0
M  V30 3596 H 332.066 -0.662385 -0.10718 0
M  V30 3597 H 334.61 -2.01966 0.320923 0
M  V30 3598 H 332.765 -3.49099 -1.67954 0
M  V30 3599 H 333.179 -5.23543 -0.316701 0
M  V30 3600 H 334.653 -5.13556 -2.02397 0
M  V30 3601 H 335.13 -3.53999 -2.59964 0
M  V30 3602 H 335.736 -4.12556 -1.03332 0
M  V30 3603 N 334.051 0.0651679 -1.57465 0
M  V30 3604 C 334.981 1.07693 -2.07182 0
M  V30 3605 C 335.962 1.39962 -0.966673 0
M  V30 3606 O 337.147 1.49475 -1.2398 0
M  V30 3607 C 334.277 2.3885 -2.52127 0
M  V30 3608 C 333.231 2.20917 -3.66579 0
M  V30 3609 C 332.557 3.57515 -3.97601 0
M  V30 3610 C 333.857 1.62493 -4.9638 0
M  V30 3611 H 335.551 0.663199 -2.91962 0
M  V30 3612 H 333.097 0.317569 -1.40455 0
M  V30 3613 H 335.05 3.09928 -2.85522 0
M  V30 3614 H 333.774 2.82215 -1.64384 0
M  V30 3615 H 332.433 1.52279 -3.33477 0
M  V30 3616 H 332.081 3.98463 -3.06979 0
M  V30 3617 H 331.781 3.46353 -4.74672 0
M  V30 3618 H 333.305 4.30013 -4.33499 0
M  V30 3619 H 334.719 2.23445 -5.27963 0
M  V30 3620 H 333.116 1.62009 -5.77818 0
M  V30 3621 H 334.186 0.587041 -4.81333 0
M  V30 3622 O 335.568 1.60146 0.208664 0
M  V30 3623 H 336.259 1.74115 0.848742 0
M  V30 END ATOM
M  V30 BEGIN BOND
M  V30 END BOND
M  V30 END CTAB
M  END
$$$$
