drugbank_target|P07478 Trypsin-2 (DB01805; DB01973; DB02464; DB03127; DB03976; DB04325; DB04410)
 OpenBabel12092120543D

  0  0  0     0  0            999 V3000
M  V30 BEGIN CTAB
M  V30 COUNTS 3670 3710 0 0 0
M  V30 BEGIN ATOM
M  V30 1 H -0.908 1.98254 -0.117106 0
M  V30 2 N 0 1.576 0 0
M  V30 3 C 0.933 2.03868 1.02534 0
M  V30 4 C 1.911 0.928543 1.3348 0
M  V30 5 O 3.095 1.19667 1.45644 0
M  V30 6 C 0.222 2.43627 2.35294 0
M  V30 7 C -0.732 3.65373 2.2001 0
M  V30 8 S 0.101 5.13292 1.52614 0
M  V30 9 C 1.257 5.56322 2.86805 0
M  V30 10 H 1.49 2.90518 0.631377 0
M  V30 11 H -0.977 1.52953 0.210867 0
M  V30 12 H 0.981 2.67203 3.11629 0
M  V30 13 H -0.358 1.57376 2.7183 0
M  V30 14 H -1.165 3.90944 3.18086 0
M  V30 15 H -1.563 3.418 1.51819 0
M  V30 16 H 0.729 5.58782 3.83104 0
M  V30 17 H 1.672 6.56266 2.65933 0
M  V30 18 H 2.08 4.83886 2.90714 0
M  V30 19 N 1.4781 -0.272755 1.55222 0
M  V30 20 C 2.4261 -1.35705 1.88909 0
M  V30 21 C 3.4201 -1.5112 0.765456 0
M  V30 22 O 4.6261 -1.52901 0.949802 0
M  V30 23 H 1.0011 -0.453868 0.59959 0
M  V30 24 H 2.9721 -1.04544 2.79487 0
M  V30 25 C 1.7211 -2.71049 2.17779 0
M  V30 26 H 1.0441 -2.59979 3.03728 0
M  V30 27 H 2.4841 -3.45858 2.45272 0
M  V30 28 C 0.9431 -3.22165 0.985473 0
M  V30 29 O 1.4731 -4.01096 0.220233 0
M  V30 30 N -0.3209 -2.7985 0.783108 0
M  V30 31 H -0.7739 -2.15775 1.40708 0
M  V30 32 H -0.8159 -3.14397 -0.0130392 0
M  V30 33 N 2.9562 -1.48159 -0.537278 0
M  V30 34 C 3.8862 -1.65029 -1.6519 0
M  V30 35 C 4.8672 -0.499281 -1.62607 0
M  V30 36 O 6.0522 -0.730972 -1.79918 0
M  V30 37 C 3.1822 -1.68303 -3.03795 0
M  V30 38 C 2.1362 -2.8283 -3.21234 0
M  V30 39 C 1.4622 -2.71189 -4.60826 0
M  V30 40 C 2.7622 -4.24211 -3.04701 0
M  V30 41 H 4.4562 -2.58341 -1.51328 0
M  V30 42 H 2.0022 -1.24325 -0.726585 0
M  V30 43 H 3.9552 -1.78693 -3.81637 0
M  V30 44 H 2.6792 -0.715635 -3.18663 0
M  V30 45 H 1.3382 -2.71983 -2.45807 0
M  V30 46 H 0.9862 -1.72435 -4.7252 0
M  V30 47 H 0.6862 -3.48035 -4.7344 0
M  V30 48 H 2.2102 -2.83537 -5.40777 0
M  V30 49 H 3.6242 -4.3593 -3.72341 0
M  V30 50 H 2.0212 -5.01998 -3.28813 0
M  V30 51 H 3.0912 -4.41184 -2.01209 0
M  V30 52 N 4.4343 0.785586 -1.36625 0
M  V30 53 C 5.3643 1.91259 -1.33949 0
M  V30 54 C 6.3453 1.68795 -0.210325 0
M  V30 55 O 7.5303 1.89854 -0.408561 0
M  V30 56 C 4.6603 3.28339 -1.13186 0
M  V30 57 C 3.6143 3.65335 -2.22967 0
M  V30 58 C 2.9403 5.00806 -1.87342 0
M  V30 59 C 4.2403 3.7352 -3.65075 0
M  V30 60 H 5.9343 1.93755 -2.28253 0
M  V30 61 H 3.4803 0.930788 -1.09874 0
M  V30 62 H 5.4333 4.06804 -1.09948 0
M  V30 63 H 4.1573 3.2624 -0.153332 0
M  V30 64 H 2.8163 2.89169 -2.25337 0
M  V30 65 H 2.4643 4.95233 -0.880545 0
M  V30 66 H 2.1643 5.26529 -2.60846 0
M  V30 67 H 3.6883 5.81687 -1.85667 0
M  V30 68 H 5.1023 4.42168 -3.64911 0
M  V30 69 H 3.4993 4.10731 -4.37516 0
M  V30 70 H 4.5693 2.74527 -3.99703 0
M  V30 71 N 5.9124 1.20967 1.01018 0
M  V30 72 C 6.8424 0.988272 2.11555 0
M  V30 73 C 7.8234 -0.0849778 1.69888 0
M  V30 74 O 9.0084 0.0738202 1.9406 0
M  V30 75 C 6.1384 0.546528 3.42973 0
M  V30 76 C 5.0924 1.56375 3.9841 0
M  V30 77 C 4.4184 0.97842 5.25672 0
M  V30 78 C 5.7184 2.94922 4.31066 0
M  V30 79 H 7.4124 1.91276 2.30334 0
M  V30 80 H 4.9584 0.921073 1.1069 0
M  V30 81 H 6.9114 0.378839 4.19694 0
M  V30 82 H 5.6354 -0.413598 3.23971 0
M  V30 83 H 4.2944 1.71891 3.23804 0
M  V30 84 H 3.9424 0.0101688 5.02999 0
M  V30 85 H 3.6424 1.65784 5.63728 0
M  V30 86 H 5.1664 0.821939 6.05043 0
M  V30 87 H 6.5804 2.8288 4.9865 0
M  V30 88 H 4.9774 3.5983 4.80253 0
M  V30 89 H 6.0474 3.4616 3.39561 0
M  V30 90 N 7.3905 -1.2043 1.01659 0
M  V30 91 C 8.6395 -1.89118 0.701237 0
M  V30 92 C 8.9525 -1.79705 -0.772358 0
M  V30 93 O 10.1585 -2.43528 -1.20026 0
M  V30 94 C 8.6145 -3.39168 1.20388 0
M  V30 95 C 8.2225 -3.57166 2.70438 0
M  V30 96 C 9.9665 -4.1341 0.963953 0
M  V30 97 C 7.8735 -5.01042 3.14183 0
M  V30 98 H 6.8035 -0.708267 0.2586 0
M  V30 99 H 9.4545 -1.36239 1.22927 0
M  V30 100 H 7.8365 -3.91369 0.603824 0
M  V30 101 H 9.0105 -3.15351 3.35992 0
M  V30 102 H 7.3255 -2.96294 2.92572 0
M  V30 103 H 9.9225 -5.19491 1.26621 0
M  V30 104 H 10.2655 -4.16181 -0.099578 0
M  V30 105 H 10.7985 -3.67309 1.52738 0
M  V30 106 H 7.5375 -5.03426 4.19812 0
M  V30 107 H 7.0575 -5.43668 2.53348 0
M  V30 108 H 8.7365 -5.69623 3.0682 0
M  V30 109 N 8.8686 -0.792821 -1.36206 0
M  V30 110 C 9.7986 -0.207853 -2.32573 0
M  V30 111 C 10.7796 0.659055 -1.56813 0
M  V30 112 O 11.9646 0.592176 -1.84951 0
M  V30 113 C 9.0946 0.655449 -3.41059 0
M  V30 114 C 8.0486 -0.111842 -4.27854 0
M  V30 115 C 7.3746 0.872274 -5.27537 0
M  V30 116 C 8.6746 -1.30299 -5.05786 0
M  V30 117 H 10.3686 -1.01294 -2.81744 0
M  V30 118 H 7.9146 -0.48854 -1.3546 0
M  V30 119 H 9.8676 1.07464 -4.07467 0
M  V30 120 H 8.5916 1.49328 -2.90463 0
M  V30 121 H 7.2506 -0.512053 -3.63006 0
M  V30 122 H 6.8986 1.70523 -4.73214 0
M  V30 123 H 6.5986 0.363291 -5.86476 0
M  V30 124 H 8.1226 1.28996 -5.96818 0
M  V30 125 H 9.5366 -0.959379 -5.65216 0
M  V30 126 H 7.9336 -1.7455 -5.74154 0
M  V30 127 H 9.0036 -2.09663 -4.37229 0
M  V30 128 N 10.3467 1.47872 -0.545128 0
M  V30 129 C 11.5747 2.06889 -0.021084 0
M  V30 130 C 11.9897 1.39955 1.2672 0
M  V30 131 O 11.3467 0.492036 1.75742 0
M  V30 132 C 11.3977 3.60996 0.190817 0
M  V30 133 O 11.1187 4.25419 -1.04644 0
M  V30 134 C 12.6197 4.36849 0.753521 0
M  V30 135 H 9.8397 0.669785 -0.0403635 0
M  V30 136 H 12.3837 1.90049 -0.755095 0
M  V30 137 H 10.5387 3.77391 0.87492 0
M  V30 138 H 10.9527 5.17785 -0.836611 0
M  V30 139 H 12.4267 5.45399 0.851139 0
M  V30 140 H 12.9037 4.02306 1.762 0
M  V30 141 H 13.5097 4.25169 0.105503 0
M  V30 142 N 11.8248 0.280983 1.55075 0
M  V30 143 C 13.0718 -0.334115 1.99725 0
M  V30 144 C 13.3998 -1.5542 1.1694 0
M  V30 145 O 12.6548 -1.94361 0.228531 0
M  V30 146 C 12.9538 -0.754656 3.49342 0
M  V30 147 C 12.6198 0.361445 4.49449 0
M  V30 148 C 11.2818 0.667893 4.76542 0
M  V30 149 C 13.6338 1.11322 5.09173 0
M  V30 150 C 10.9618 1.7296 5.60626 0
M  V30 151 C 13.3138 2.1647 5.9441 0
M  V30 152 C 11.9778 2.47742 6.19822 0
M  V30 153 H 11.2478 -0.122261 0.730844 0
M  V30 154 H 13.8948 0.395917 1.87363 0
M  V30 155 H 12.1998 -1.56446 3.5921 0
M  V30 156 H 13.8968 -1.24142 3.813 0
M  V30 157 H 10.4868 0.112481 4.28452 0
M  V30 158 H 14.6708 0.88973 4.8826 0
M  V30 159 H 9.9268 1.97684 5.78559 0
M  V30 160 H 14.1008 2.75193 6.3972 0
M  V30 161 H 11.7278 3.30145 6.84769 0
M  V30 162 N 13.3029 -1.57598 0.00835791 0
M  V30 163 C 14.5489 -1.91211 -0.675732 0
M  V30 164 C 14.8819 -0.883139 -1.72958 0
M  V30 165 O 14.1569 0.097016 -1.94258 0
M  V30 166 C 14.4399 -3.35379 -1.31123 0
M  V30 167 C 14.2929 -4.48999 -0.268356 0
M  V30 168 C 15.6119 -3.7912 -2.23508 0
M  V30 169 H 12.7309 -0.695374 -0.244179 0
M  V30 170 H 15.3729 -1.89901 0.0613655 0
M  V30 171 H 13.5229 -3.36626 -1.93946 0
M  V30 172 H 15.1949 -4.59887 0.360844 0
M  V30 173 H 13.4379 -4.31873 0.408482 0
M  V30 174 H 14.1089 -5.46851 -0.752218 0
M  V30 175 H 16.5849 -3.79477 -1.70693 0
M  V30 176 H 15.4609 -4.80729 -2.64936 0
M  V30 177 H 15.7219 -3.13455 -3.11766 0
M  V30 178 N 14.781 0.264519 -1.55364 0
M  V30 179 C 15.744 1.31046 -1.88042 0
M  V30 180 C 16.744 1.41943 -0.755569 0
M  V30 181 O 17.934 1.40947 -1.02369 0
M  V30 182 C 15.066 2.69067 -2.09323 0
M  V30 183 H 16.259 1.03297 -2.81549 0
M  V30 184 H 13.812 0.502989 -1.47986 0
M  V30 185 H 14.547 3.01982 -1.18226 0
M  V30 186 H 14.332 2.62542 -2.91229 0
M  V30 187 H 15.822 3.44623 -2.35848 0
M  V30 188 N 16.2591 1.48442 0.529413 0
M  V30 189 C 17.2221 1.62524 1.61612 0
M  V30 190 C 18.2221 0.498509 1.52877 0
M  V30 191 O 19.4121 0.76431 1.56537 0
M  V30 192 C 16.5441 1.59597 3.01233 0
M  V30 193 H 17.7371 2.59423 1.50465 0
M  V30 194 H 15.2901 1.37047 0.751514 0
M  V30 195 H 16.0251 0.641781 3.17886 0
M  V30 196 H 15.8101 2.41397 3.08982 0
M  V30 197 H 17.3001 1.72646 3.80241 0
M  V30 198 N 17.7372 -0.778329 1.37039 0
M  V30 199 C 18.7002 -1.87301 1.32102 0
M  V30 200 C 19.7002 -1.59198 0.226405 0
M  V30 201 O 20.8902 -1.67403 0.481861 0
M  V30 202 C 18.0222 -3.24309 1.05055 0
M  V30 203 H 19.2152 -1.93093 2.29467 0
M  V30 204 H 16.7682 -0.977358 1.21973 0
M  V30 205 H 17.5032 -3.24196 0.0819373 0
M  V30 206 H 17.2882 -3.46098 1.84279 0
M  V30 207 H 18.7782 -4.04382 1.04234 0
M  V30 208 N 19.2153 -1.21501 -1.00376 0
M  V30 209 C 20.4613 -1.03452 -1.74429 0
M  V30 210 C 20.7943 0.430764 -1.89362 0
M  V30 211 O 20.0693 1.31962 -1.42886 0
M  V30 212 C 20.3523 -1.73375 -3.15615 0
M  V30 213 C 20.2053 -3.27431 -3.08397 0
M  V30 214 C 21.5243 -1.47732 -4.14564 0
M  V30 215 H 18.6433 -0.377226 -0.633143 0
M  V30 216 H 21.2853 -1.49693 -1.17013 0
M  V30 217 H 19.4353 -1.34064 -3.64636 0
M  V30 218 H 21.1073 -3.76119 -2.67081 0
M  V30 219 H 19.3503 -3.5767 -2.45468 0
M  V30 220 H 20.0213 -3.71524 -4.08258 0
M  V30 221 H 22.4973 -1.8186 -3.74254 0
M  V30 222 H 21.3733 -1.99169 -5.11491 0
M  V30 223 H 21.6343 -0.407589 -4.40217 0
M  V30 224 N 20.6934 1.19889 -1.02296 0
M  V30 225 C 21.6564 2.21116 -0.603351 0
M  V30 226 C 22.6564 1.5738 0.329884 0
M  V30 227 O 23.8464 1.73802 0.117702 0
M  V30 228 C 20.9784 3.40696 0.117992 0
M  V30 229 H 22.1714 2.59754 -1.49893 0
M  V30 230 H 19.7244 1.33463 -0.813468 0
M  V30 231 H 20.4594 3.07569 1.0282 0
M  V30 232 H 20.2444 3.88188 -0.552511 0
M  V30 233 H 21.7344 4.15692 0.398696 0
M  V30 234 N 22.1715 0.800033 1.35784 0
M  V30 235 C 23.1345 0.211565 2.28221 0
M  V30 236 C 24.1345 -0.59728 1.49296 0
M  V30 237 O 25.3245 -0.416721 1.69142 0
M  V30 238 C 22.4565 -0.705846 3.33513 0
M  V30 239 H 23.6495 1.02677 2.81776 0
M  V30 240 H 21.2025 0.570211 1.45528 0
M  V30 241 H 21.9375 -1.54498 2.85133 0
M  V30 242 H 21.7225 -0.127655 3.91892 0
M  V30 243 H 23.2125 -1.11211 4.02519 0
M  V30 244 N 23.6496 -1.47581 0.552962 0
M  V30 245 C 25.0606 -1.86324 0.118463 0
M  V30 246 C 25.4116 -1.46006 -1.3106 0
M  V30 247 O 24.5366 -0.861182 -1.98526 0
M  V30 248 C 25.1316 -3.3816 0.20821 0
M  V30 249 C 23.6906 -3.7601 -0.171226 0
M  V30 250 C 22.8376 -2.71634 0.557686 0
M  V30 251 H 25.7886 -1.39159 0.762928 0
M  V30 252 H 25.8096 -3.76141 -0.574278 0
M  V30 253 H 25.3216 -3.67473 1.24841 0
M  V30 254 H 23.4226 -3.52313 -1.21269 0
M  V30 255 H 23.5356 -4.78745 0.184379 0
M  V30 256 H 21.8996 -2.547 0.00125792 0
M  V30 257 H 22.6826 -3.0379 1.59896 0
M  V30 258 N 25.1277 -0.289203 -1.54924 0
M  V30 259 C 26.3747 0.323519 -1.99899 0
M  V30 260 C 26.7027 1.54797 -1.17762 0
M  V30 261 O 25.9577 1.94237 -0.238835 0
M  V30 262 C 26.2567 0.736119 -3.49737 0
M  V30 263 C 25.9227 -0.385276 -4.49251 0
M  V30 264 C 24.5847 -0.693156 -4.76181 0
M  V30 265 C 26.9367 -1.14021 -5.08575 0
M  V30 266 C 24.2647 -1.7593 -5.59701 0
M  V30 267 C 26.6167 -2.19619 -5.93254 0
M  V30 268 C 25.2807 -2.51026 -6.185 0
M  V30 269 H 24.5507 0.118384 -0.731482 0
M  V30 270 H 27.1977 -0.405847 -1.8715 0
M  V30 271 H 25.5027 1.54539 -3.60035 0
M  V30 272 H 27.1997 1.22118 -3.81953 0
M  V30 273 H 23.7897 -0.135202 -4.28387 0
M  V30 274 H 27.9737 -0.915611 -4.87781 0
M  V30 275 H 23.2297 -2.0075 -5.77503 0
M  V30 276 H 27.4037 -2.78581 -6.38252 0
M  V30 277 H 25.0307 -3.33772 -6.83008 0
M  V30 278 N 26.6058 1.57591 -0.0167156 0
M  V30 279 C 27.8828 1.82547 0.702564 0
M  V30 280 C 28.2628 0.898018 1.91047 0
M  V30 281 O 27.6108 -0.0493456 2.28447 0
M  V30 282 C 27.8208 3.31459 1.09251 0
M  V30 283 C 29.1688 3.97622 1.48937 0
M  V30 284 O 30.1928 3.35881 1.18584 0
M  V30 285 O 29.0518 5.06415 2.05442 0
M  V30 286 H 26.1458 0.752268 0.343544 0
M  V30 287 H 28.6918 1.69644 -0.0434495 0
M  V30 288 H 27.4638 3.9061 0.23227 0
M  V30 289 H 27.0868 3.49422 1.89709 0
M  V30 290 N 28.0839 -0.256276 1.55502 0
M  V30 291 C 29.3609 -1.00789 1.67633 0
M  V30 292 C 29.7409 -2.03706 0.553826 0
M  V30 293 O 29.0889 -2.24145 -0.443969 0
M  V30 294 C 29.2989 -1.64968 3.07549 0
M  V30 295 C 30.6469 -2.15505 3.65845 0
M  V30 296 O 31.6709 -1.74925 3.1029 0
M  V30 297 O 30.5299 -2.89986 4.63217 0
M  V30 298 H 27.6239 -0.468553 0.681459 0
M  V30 299 H 30.1699 -0.250806 1.67836 0
M  V30 300 H 28.9419 -0.904785 3.80696 0
M  V30 301 H 28.5649 -2.47321 3.11317 0
M  V30 302 N 29.562 -1.4872 -0.521534 0
M  V30 303 C 30.839 -1.4766 -1.2828 0
M  V30 304 C 31.219 -0.19292 -2.10217 0
M  V30 305 O 30.567 0.825193 -2.13079 0
M  V30 306 C 30.777 -2.74358 -2.15705 0
M  V30 307 C 32.125 -3.23028 -2.75569 0
M  V30 308 O 33.149 -2.75333 -2.25987 0
M  V30 309 O 32.008 -4.0604 -3.65778 0
M  V30 310 H 29.102 -0.590085 -0.579421 0
M  V30 311 H 31.648 -1.60963 -0.537492 0
M  V30 312 H 30.42 -3.59292 -1.54999 0
M  V30 313 H 30.043 -2.63816 -2.97467 0
M  V30 314 N 31.0401 0.771051 -1.3745 0
M  V30 315 C 32.3171 1.519 -1.23231 0
M  V30 316 C 32.6971 2.10383 0.173809 0
M  V30 317 O 32.0451 1.95583 1.18151 0
M  V30 318 C 32.2551 2.59933 -2.32886 0
M  V30 319 C 33.6031 3.27316 -2.70461 0
M  V30 320 O 34.6271 2.70228 -2.32068 0
M  V30 321 O 33.4861 4.30531 -3.36608 0
M  V30 322 H 30.5801 0.672803 -0.480901 0
M  V30 323 H 33.1261 0.807957 -1.49232 0
M  V30 324 H 31.8981 2.14842 -3.27045 0
M  V30 325 H 31.5211 3.38637 -2.08353 0
M  V30 326 N 32.5182 1.22032 0.997298 0
M  V30 327 C 33.4652 0.986467 2.08656 0
M  V30 328 C 34.4352 -0.0902671 1.65855 0
M  V30 329 O 35.6202 0.0584294 1.90711 0
M  V30 330 C 32.7602 0.565569 3.40434 0
M  V30 331 C 31.8732 1.71259 3.96604 0
M  V30 332 C 31.0082 1.24011 5.16522 0
M  V30 333 C 30.0472 2.35896 5.64818 0
M  V30 334 N 29.1842 1.89726 6.7598 0
M  V30 335 H 34.0242 1.91892 2.27994 0
M  V30 336 H 31.5612 0.956199 1.11782 0
M  V30 337 H 33.5192 0.302738 4.161 0
M  V30 338 H 32.1492 -0.329879 3.2111 0
M  V30 339 H 31.2012 2.08986 3.17851 0
M  V30 340 H 32.5132 2.55436 4.28432 0
M  V30 341 H 31.6672 0.934395 5.99461 0
M  V30 342 H 30.4062 0.368487 4.86306 0
M  V30 343 H 29.4112 2.67261 4.8047 0
M  V30 344 H 30.6362 3.23567 5.97061 0
M  V30 345 H 28.5822 1.0492 6.47555 0
M  V30 346 H 28.4992 2.67471 7.07103 0
M  V30 347 H 29.7672 1.62211 7.62435 0
M  V30 348 N 33.9963 -1.19345 1.0293 0
M  V30 349 C 35.2453 -1.88363 0.721256 0
M  V30 350 C 35.5583 -1.80514 -0.753254 0
M  V30 351 O 36.7643 -2.44788 -1.17436 0
M  V30 352 C 35.2203 -3.37872 1.23978 0
M  V30 353 C 34.8283 -3.54278 2.74211 0
M  V30 354 C 36.5723 -4.12365 1.00775 0
M  V30 355 C 34.4793 -4.97682 3.19479 0
M  V30 356 H 33.4093 -0.705484 0.266098 0
M  V30 357 H 36.0603 -1.34928 1.24365 0
M  V30 358 H 34.4423 -3.90707 0.6453 0
M  V30 359 H 35.6163 -3.11769 3.39318 0
M  V30 360 H 33.9313 -2.93174 2.95699 0
M  V30 361 H 36.5283 -5.18119 1.32123 0
M  V30 362 H 36.8713 -4.16263 -0.0554308 0
M  V30 363 H 37.4043 -3.65668 1.56625 0
M  V30 364 H 34.1433 -4.98945 4.25128 0
M  V30 365 H 33.6633 -5.4095 2.591 0
M  V30 366 H 35.3423 -5.66337 3.12845 0
M  V30 367 N 35.4744 -0.807222 -1.35358 0
M  V30 368 C 36.7204 -0.388463 -1.99045 0
M  V30 369 C 37.0534 1.04184 -1.63888 0
M  V30 370 O 36.3284 1.72292 -0.902535 0
M  V30 371 C 36.6114 -0.572783 -3.55515 0
M  V30 372 C 36.4644 -2.04807 -4.00468 0
M  V30 373 C 37.7834 0.00114064 -4.401 0
M  V30 374 H 34.9024 -0.142619 -0.723069 0
M  V30 375 H 37.5444 -1.01687 -1.60498 0
M  V30 376 H 35.6944 -0.0378425 -3.88482 0
M  V30 377 H 37.3664 -2.64544 -3.77908 0
M  V30 378 H 35.6094 -2.54427 -3.51353 0
M  V30 379 H 36.2804 -2.12792 -5.09337 0
M  V30 380 H 38.7564 -0.455716 -4.13597 0
M  V30 381 H 37.6324 -0.157737 -5.48673 0
M  V30 382 H 37.8934 1.09488 -4.28328 0
M  V30 383 N 36.9525 1.47285 -0.560781 0
M  V30 384 C 38.2005 2.02064 -0.0379868 0
M  V30 385 C 38.5215 1.43711 1.31803 0
M  V30 386 O 37.7915 0.61362 1.86042 0
M  V30 387 H 36.3715 0.746918 -0.0110531 0
M  V30 388 H 39.0335 1.80648 -0.731598 0
M  V30 389 H 38.1295 3.12064 0.0474463 0
M  V30 390 N 38.4306 0.297415 1.54768 0
M  V30 391 C 39.6786 -0.312295 1.99673 0
M  V30 392 C 39.9996 -1.54686 1.18732 0
M  V30 393 O 39.2696 -1.93854 0.282382 0
M  V30 394 H 37.8496 -0.118381 0.73756 0
M  V30 395 H 40.5116 0.407915 1.90583 0
M  V30 396 H 39.6076 -0.586813 3.06534 0
M  V30 397 N 39.9087 -1.5758 0.0250728 0
M  V30 398 C 41.1387 -1.95646 -0.663783 0
M  V30 399 C 41.5467 -0.899935 -1.66427 0
M  V30 400 O 40.8897 0.127191 -1.83259 0
M  V30 401 C 40.9517 -3.29835 -1.43 0
M  V30 402 C 40.6157 -4.53197 -0.588305 0
M  V30 403 C 41.6127 -5.19726 0.13469 0
M  V30 404 C 39.2977 -4.99529 -0.526897 0
M  V30 405 C 41.2917 -6.30902 0.90781 0
M  V30 406 C 38.9787 -6.10589 0.24993 0
M  V30 407 C 39.9767 -6.76134 0.965994 0
M  V30 408 O 39.6647 -7.85062 1.7301 0
M  V30 409 H 39.3967 -0.649282 -0.188174 0
M  V30 410 H 41.9507 -2.05245 0.0799006 0
M  V30 411 H 40.1807 -3.16716 -2.21873 0
M  V30 412 H 41.8697 -3.52833 -2.00658 0
M  V30 413 H 42.6357 -4.84904 0.0965562 0
M  V30 414 H 38.5147 -4.48319 -1.07381 0
M  V30 415 H 42.0587 -6.81995 1.46724 0
M  V30 416 H 37.9557 -6.44849 0.289795 0
M  V30 417 H 38.7237 -8.01708 1.64944 0
M  V30 418 N 41.3868 0.248026 -1.55636 0
M  V30 419 C 42.6358 0.974134 -1.76617 0
M  V30 420 C 42.9488 1.86528 -0.588796 0
M  V30 421 O 44.1548 2.62805 -0.681594 0
M  V30 422 C 42.6108 1.78213 -3.12679 0
M  V30 423 C 42.2188 0.93843 -4.38061 0
M  V30 424 C 43.9628 2.50104 -3.42999 0
M  V30 425 C 41.8698 1.74225 -5.65155 0
M  V30 426 H 40.7998 0.36745 -0.658405 0
M  V30 427 H 43.4508 0.22884 -1.82067 0
M  V30 428 H 41.8328 2.56933 -3.01333 0
M  V30 429 H 43.0068 0.193635 -4.60393 0
M  V30 430 H 41.3218 0.332905 -4.15067 0
M  V30 431 H 43.9188 3.10694 -4.3517 0
M  V30 432 H 44.2618 3.21662 -2.64271 0
M  V30 433 H 44.7948 1.78395 -3.55556 0
M  V30 434 H 41.5338 1.07043 -6.46701 0
M  V30 435 H 41.0538 2.46235 -5.46926 0
M  V30 436 H 42.7328 2.30967 -6.0437 0
M  V30 437 N 42.8649 1.48995 0.513639 0
M  V30 438 C 44.1049 1.59452 1.27885 0
M  V30 439 C 44.4689 0.269479 1.90099 0
M  V30 440 O 45.6699 0.249139 2.67643 0
M  V30 441 C 43.9409 2.71277 2.32688 0
M  V30 442 S 45.4999 3.01604 3.18717 0
M  V30 443 H 42.3179 0.562565 0.434789 0
M  V30 444 H 44.9199 1.86595 0.583301 0
M  V30 445 H 43.6239 3.66089 1.8549 0
M  V30 446 H 43.1549 2.46086 3.06929 0
M  V30 447 H 45.1699 2.42155 4.331 0
M  V30 448 N 44.343 -0.763751 1.37857 0
M  V30 449 C 45.253 -1.90817 1.36478 0
M  V30 450 C 46.269 -1.71997 0.263248 0
M  V30 451 O 47.445 -1.95095 0.499979 0
M  V30 452 C 44.51 -3.2605 1.17864 0
M  V30 453 C 43.571 -3.57467 2.3773 0
M  V30 454 C 42.804 -4.86249 2.19995 0
M  V30 455 O 43.027 -5.57884 1.18836 0
M  V30 456 O 41.961 -5.16911 3.08361 0
M  V30 457 H 45.787 -1.94933 2.32884 0
M  V30 458 H 43.372 -0.907619 1.1867 0
M  V30 459 H 45.254 -4.06924 1.09504 0
M  V30 460 H 43.929 -3.22769 0.245372 0
M  V30 461 H 42.836 -2.76796 2.51664 0
M  V30 462 H 44.169 -3.655 3.29652 0
M  V30 463 N 45.8211 -1.22559 -0.990812 0
M  V30 464 C 46.7311 -1.01394 -2.11557 0
M  V30 465 C 47.7471 0.0383962 -1.73958 0
M  V30 466 O 48.9231 -0.154787 -2.00804 0
M  V30 467 C 45.9881 -0.596569 -3.41529 0
M  V30 468 C 45.0491 -1.72276 -3.93217 0
M  V30 469 C 44.2821 -1.32521 -5.16985 0
M  V30 470 O 44.5051 -0.204909 -5.70032 0
M  V30 471 O 43.4391 -2.14247 -5.62478 0
M  V30 472 H 47.2651 -1.95633 -2.32296 0
M  V30 473 H 44.8501 -1.01172 -1.0993 0
M  V30 474 H 46.7321 -0.374263 -4.19735 0
M  V30 475 H 45.4071 0.316939 -3.22145 0
M  V30 476 H 44.3141 -1.99961 -3.16174 0
M  V30 477 H 45.6471 -2.61421 -4.17037 0
M  V30 478 N 47.2992 1.18797 -1.03562 0
M  V30 479 C 48.2472 2.24297 -0.615905 0
M  V30 480 C 49.2412 1.65643 0.354808 0
M  V30 481 O 50.4472 1.78618 0.22265 0
M  V30 482 H 46.8222 0.729909 -0.180934 0
M  V30 483 H 48.7932 2.5701 -1.5162 0
M  V30 484 C 47.5422 3.47698 0.0104735 0
M  V30 485 H 46.8652 3.93125 -0.727509 0
M  V30 486 H 48.3052 4.23159 0.266995 0
M  V30 487 C 46.7642 3.12489 1.25905 0
M  V30 488 O 47.2942 3.25761 2.35038 0
M  V30 489 N 45.5002 2.6686 1.15039 0
M  V30 490 H 45.0472 2.56261 0.262328 0
M  V30 491 H 45.0052 2.43674 1.98672 0
M  V30 492 N 48.7773 0.814389 1.34928 0
M  V30 493 C 50.0023 0.410097 2.03305 0
M  V30 494 C 50.4273 -0.973464 1.60951 0
M  V30 495 O 49.7853 -1.63185 0.789964 0
M  V30 496 C 49.8333 0.51049 3.56968 0
M  V30 497 O 48.9373 -0.473035 4.09678 0
M  V30 498 H 48.2783 0.170088 0.641846 0
M  V30 499 H 50.8083 1.10244 1.72358 0
M  V30 500 H 50.8183 0.383135 4.06197 0
M  V30 501 H 49.4933 1.51963 3.87144 0
M  V30 502 H 48.0703 -0.305272 3.71648 0
M  V30 503 N 50.2554 -1.46986 0.568584 0
M  V30 504 C 51.5014 -2.02741 0.0488709 0
M  V30 505 C 51.8344 -1.44077 -1.30214 0
M  V30 506 O 51.1094 -0.600552 -1.84996 0
M  V30 507 C 51.3924 -3.60086 -0.032047 0
M  V30 508 C 51.2454 -4.29162 1.34686 0
M  V30 509 C 52.5644 -4.33838 -0.739798 0
M  V30 510 H 49.6834 -0.736749 0.0192338 0
M  V30 511 H 52.3254 -1.75289 0.733065 0
M  V30 512 H 50.4754 -3.83606 -0.61473 0
M  V30 513 H 52.1474 -4.16948 1.97362 0
M  V30 514 H 50.3904 -3.89073 1.91846 0
M  V30 515 H 51.0614 -5.37826 1.24285 0
M  V30 516 H 53.5374 -4.15378 -0.244939 0
M  V30 517 H 52.4134 -5.43537 -0.765406 0
M  V30 518 H 52.6744 -4.03875 -1.79827 0
M  V30 519 N 51.7335 -0.305618 -1.54608 0
M  V30 520 C 53.1445 0.186098 -1.8577 0
M  V30 521 C 53.4955 1.53058 -1.22751 0
M  V30 522 O 52.6205 2.09888 -0.526893 0
M  V30 523 C 53.2155 0.344449 -3.37044 0
M  V30 524 C 51.7745 0.780384 -3.68221 0
M  V30 525 C 50.9215 -0.108554 -2.77087 0
M  V30 526 H 53.8725 -0.526485 -1.49712 0
M  V30 527 H 53.8935 1.17828 -3.61796 0
M  V30 528 H 53.4055 -0.634235 -3.82883 0
M  V30 529 H 51.5065 1.76945 -3.27904 0
M  V30 530 H 51.6195 0.596572 -4.75371 0
M  V30 531 H 49.9835 0.412931 -2.5133 0
M  V30 532 H 50.7665 -1.08368 -3.25747 0
M  V30 533 N 53.2116 1.57565 -0.0334293 0
M  V30 534 C 54.4416 1.95996 0.653398 0
M  V30 535 C 54.8496 0.908749 1.65947 0
M  V30 536 O 54.1926 -0.117471 1.83324 0
M  V30 537 C 54.2546 3.30589 1.41249 0
M  V30 538 C 53.9186 4.53503 0.564263 0
M  V30 539 C 54.9156 5.19647 -0.16225 0
M  V30 540 C 52.6006 4.99801 0.500398 0
M  V30 541 C 54.5946 6.30412 -0.941255 0
M  V30 542 C 52.2816 6.10448 -0.282308 0
M  V30 543 C 53.2796 6.75612 -1.00184 0
M  V30 544 O 52.9676 7.84134 -1.77171 0
M  V30 545 H 52.6996 0.65027 0.184728 0
M  V30 546 H 55.2536 2.05199 -0.0907841 0
M  V30 547 H 53.4836 3.17888 2.20191 0
M  V30 548 H 55.1726 3.53892 1.98784 0
M  V30 549 H 55.9386 4.84846 -0.12227 0
M  V30 550 H 51.8176 4.48883 1.05002 0
M  V30 551 H 55.3616 6.81208 -1.50339 0
M  V30 552 H 51.2586 6.44686 -0.323989 0
M  V30 553 H 52.0266 8.00822 -1.69194 0
M  V30 554 N 54.6897 -0.239769 1.55765 0
M  V30 555 C 55.6217 -1.32001 1.87372 0
M  V30 556 C 56.6347 -1.43944 0.760522 0
M  V30 557 O 57.8237 -1.45167 1.0387 0
M  V30 558 C 54.9237 -2.69779 2.05115 0
M  V30 559 C 54.0967 -2.80014 3.36022 0
M  V30 560 C 53.1557 -3.98684 3.4342 0
M  V30 561 O 52.1817 -3.87877 4.16582 0
M  V30 562 N 53.3837 -5.12176 2.73232 0
M  V30 563 H 56.1487 -1.0522 2.80622 0
M  V30 564 H 53.7097 -0.429857 1.56089 0
M  V30 565 H 55.7017 -3.47517 2.07399 0
M  V30 566 H 54.2717 -2.89237 1.18577 0
M  V30 567 H 53.4917 -1.88896 3.45994 0
M  V30 568 H 54.7797 -2.83808 4.22292 0
M  V30 569 H 54.1777 -5.2385 2.13536 0
M  V30 570 H 52.7347 -5.88022 2.81199 0
M  V30 571 N 56.1678 -1.49265 -0.50573 0
M  V30 572 C 57.4138 -1.58748 -1.26202 0
M  V30 573 C 57.7468 -0.271227 -1.92297 0
M  V30 574 O 57.0218 0.724831 -1.80489 0
M  V30 575 C 57.3048 -2.74332 -2.33268 0
M  V30 576 C 57.1578 -4.15737 -1.71705 0
M  V30 577 C 58.4768 -2.85576 -3.34865 0
M  V30 578 H 55.5958 -0.577826 -0.457478 0
M  V30 579 H 58.2378 -1.81532 -0.560897 0
M  V30 580 H 56.3878 -2.55036 -2.93068 0
M  V30 581 H 58.0598 -4.46537 -1.15769 0
M  V30 582 H 56.3028 -4.21605 -1.02135 0
M  V30 583 H 56.9738 -4.92477 -2.49341 0
M  V30 584 H 59.4498 -3.03127 -2.8505 0
M  V30 585 H 58.3258 -3.68135 -4.07146 0
M  V30 586 H 58.5868 -1.94732 -3.96903 0
M  V30 587 N 57.6459 0.756429 -1.3826 0
M  V30 588 C 58.8709 1.55077 -1.37717 0
M  V30 589 C 59.2959 1.88073 0.03164 0
M  V30 590 O 58.6539 1.50364 1.01293 0
M  V30 591 C 58.7019 2.8283 -2.23695 0
M  V30 592 O 57.8059 3.77862 -1.6521 0
M  V30 593 H 57.1469 0.469152 -0.469885 0
M  V30 594 H 59.6769 0.935019 -1.81985 0
M  V30 595 H 59.6869 3.31783 -2.37453 0
M  V30 596 H 58.3619 2.58144 -3.2609 0
M  V30 597 H 56.9389 3.36555 -1.60578 0
M  V30 598 N 59.124 1.23083 0.984299 0
M  V30 599 C 60.054 1.03292 2.09411 0
M  V30 600 C 61.035 -0.048923 1.7003 0
M  V30 601 O 62.22 0.114967 1.93859 0
M  V30 602 C 59.35 0.619155 3.41736 0
M  V30 603 C 58.304 1.64791 3.95004 0
M  V30 604 C 57.63 1.0897 5.23478 0
M  V30 605 C 58.93 3.03999 4.24714 0
M  V30 606 H 60.624 1.96119 2.26225 0
M  V30 607 H 58.17 0.944344 1.08711 0
M  V30 608 H 60.123 0.467777 4.18796 0
M  V30 609 H 58.847 -0.344786 3.24775 0
M  V30 610 H 57.506 1.78721 3.20085 0
M  V30 611 H 57.154 0.11686 5.02864 0
M  V30 612 H 56.854 1.77704 5.60085 0
M  V30 613 H 58.378 0.950093 6.03163 0
M  V30 614 H 59.792 2.93393 4.92538 0
M  V30 615 H 58.189 3.69936 4.72512 0
M  V30 616 H 59.259 3.53285 3.32142 0
M  V30 617 N 60.6021 -1.18246 1.0419 0
M  V30 618 C 61.5501 -2.23968 0.627792 0
M  V30 619 C 62.5441 -1.65828 -0.346019 0
M  V30 620 O 63.7501 -1.78733 -0.213175 0
M  V30 621 H 60.1251 -0.728939 0.184802 0
M  V30 622 H 62.0961 -2.56202 1.52981 0
M  V30 623 C 60.8451 -3.47699 0.00796591 0
M  V30 624 H 60.1681 -3.92734 0.748347 0
M  V30 625 H 61.6081 -4.23294 -0.24455 0
M  V30 626 C 60.0671 -3.13153 -1.24246 0
M  V30 627 O 60.5971 -3.27003 -2.33307 0
M  V30 628 N 58.8031 -2.67467 -1.13622 0
M  V30 629 H 58.3501 -2.56396 -0.248734 0
M  V30 630 H 58.3081 -2.44724 -1.97377 0
M  V30 631 N 62.0802 -0.821533 -1.34494 0
M  V30 632 C 63.3052 -0.420873 -2.03085 0
M  V30 633 C 63.7302 0.964915 -1.61465 0
M  V30 634 O 63.0882 1.62763 -0.798607 0
M  V30 635 C 63.1362 -0.529414 -3.56693 0
M  V30 636 O 62.2402 0.451302 -4.09923 0
M  V30 637 H 61.5812 -0.173489 -0.640935 0
M  V30 638 H 64.1112 -1.11157 -1.71771 0
M  V30 639 H 64.1212 -0.404671 -4.05988 0
M  V30 640 H 62.7962 -1.54014 -3.86332 0
M  V30 641 H 61.3732 0.285558 -3.71805 0
M  V30 642 N 63.5583 1.46682 -0.576371 0
M  V30 643 C 64.8063 2.02013 -0.0594163 0
M  V30 644 C 65.1273 1.45101 1.30271 0
M  V30 645 O 64.3973 0.633317 1.8538 0
M  V30 646 H 62.9773 0.746759 -0.0189745 0
M  V30 647 H 65.6393 1.79862 -0.750717 0
M  V30 648 H 64.7353 3.12097 0.014345 0
M  V30 649 N 65.0364 0.313813 1.54444 0
M  V30 650 C 66.2664 -0.293491 2.04505 0
M  V30 651 C 66.6744 -1.47086 1.19005 0
M  V30 652 O 66.0174 -1.82481 0.211257 0
M  V30 653 C 66.0794 -0.800455 3.50475 0
M  V30 654 C 65.7434 0.253322 4.56297 0
M  V30 655 C 66.7404 1.08612 5.08428 0
M  V30 656 C 64.4254 0.398708 5.00715 0
M  V30 657 C 66.4194 2.05013 6.0353 0
M  V30 658 C 64.1064 1.36614 5.95634 0
M  V30 659 C 65.1044 2.19033 6.46926 0
M  V30 660 O 64.7924 3.14134 7.39983 0
M  V30 661 H 64.5244 -0.0658325 0.672787 0
M  V30 662 H 67.0784 0.455177 2.00293 0
M  V30 663 H 65.3084 -1.59987 3.52053 0
M  V30 664 H 66.9974 -1.32504 3.83663 0
M  V30 665 H 67.7634 0.984736 4.74898 0
M  V30 666 H 63.6424 -0.23289 4.60411 0
M  V30 667 H 67.1864 2.69382 6.4349 0
M  V30 668 H 63.0834 1.4682 6.28581 0
M  V30 669 H 63.8514 3.0926 7.57826 0
M  V30 670 N 66.5145 -1.57545 0.0417849 0
M  V30 671 C 67.4645 -2.07483 -0.945247 0
M  V30 672 C 68.4485 -0.977983 -1.27767 0
M  V30 673 O 69.6405 -1.24142 -1.26166 0
M  V30 674 C 66.7695 -2.61576 -2.22335 0
M  V30 675 C 65.8555 -3.78213 -1.91874 0
M  V30 676 N 66.2465 -4.88344 -1.31733 0
M  V30 677 C 64.5445 -3.8694 -2.21796 0
M  V30 678 C 65.2455 -5.69462 -1.1869 0
M  V30 679 N 64.2215 -5.16771 -1.68666 0
M  V30 680 H 68.0235 -2.90029 -0.475441 0
M  V30 681 H 65.5375 -1.61581 -0.162911 0
M  V30 682 H 67.5345 -2.95651 -2.93932 0
M  V30 683 H 66.1945 -1.80465 -2.69931 0
M  V30 684 H 67.2055 -5.08335 -0.990729 0
M  V30 685 H 63.8825 -3.16757 -2.71977 0
M  V30 686 H 65.2725 -6.68023 -0.720793 0
M  V30 687 N 67.9926 0.231505 -1.5589 0
M  V30 688 C 69.2396 0.957352 -1.78441 0
M  V30 689 C 69.5676 1.84726 -0.60882 0
M  V30 690 O 68.8226 1.91416 0.40725 0
M  V30 691 C 69.1216 1.83577 -3.0665 0
M  V30 692 C 68.7876 1.09993 -4.37278 0
M  V30 693 C 67.4496 0.896629 -4.72773 0
M  V30 694 C 69.8016 0.579558 -5.17968 0
M  V30 695 C 67.1296 0.160896 -5.86479 0
M  V30 696 C 69.4816 -0.142783 -6.32439 0
M  V30 697 C 68.1456 -0.357427 -6.66542 0
M  V30 698 H 67.4156 0.35032 -0.65296 0
M  V30 699 H 70.0626 0.226259 -1.90159 0
M  V30 700 H 68.3676 2.63441 -2.90011 0
M  V30 701 H 70.0646 2.39934 -3.21298 0
M  V30 702 H 66.6546 1.26835 -4.09403 0
M  V30 703 H 70.8386 0.724125 -4.90989 0
M  V30 704 H 66.0946 -0.0157293 -6.11398 0
M  V30 705 H 70.2686 -0.553559 -6.94196 0
M  V30 706 H 67.8956 -0.929466 -7.54497 0
M  V30 707 N 69.4707 1.49531 0.497807 0
M  V30 708 C 70.7107 1.60799 1.26187 0
M  V30 709 C 71.0747 0.289627 1.89803 0
M  V30 710 O 72.2757 0.277512 2.67364 0
M  V30 711 C 70.5467 2.73729 2.29798 0
M  V30 712 S 72.1057 3.04968 3.155 0
M  V30 713 H 68.9237 0.567145 0.428798 0
M  V30 714 H 71.5257 1.87204 0.563477 0
M  V30 715 H 70.2297 3.68036 1.81597 0
M  V30 716 H 69.7607 2.49328 3.04301 0
M  V30 717 H 71.7757 2.46735 4.30507 0
M  V30 718 N 70.9488 -0.749086 1.3866 0
M  V30 719 C 72.1968 -1.50535 1.34847 0
M  V30 720 C 72.5178 -1.94909 -0.0595016 0
M  V30 721 O 71.7878 -1.67973 -1.00806 0
M  V30 722 H 70.3678 -0.558395 0.49619 0
M  V30 723 H 73.0298 -0.890165 1.73384 0
M  V30 724 H 72.1258 -2.39413 2.00219 0
M  V30 725 N 72.4269 -1.23603 -0.977757 0
M  V30 726 C 73.6749 -1.06759 -1.71601 0
M  V30 727 C 73.9959 0.395929 -1.90938 0
M  V30 728 O 73.2659 1.28356 -1.47992 0
M  V30 729 H 71.8459 -0.392062 -0.635843 0
M  V30 730 H 74.5079 -1.55362 -1.1768 0
M  V30 731 H 73.6039 -1.55763 -2.70452 0
M  V30 732 N 73.905 1.17692 -1.04816 0
M  V30 733 C 75.13 1.92327 -0.776207 0
M  V30 734 C 75.555 1.76082 0.661581 0
M  V30 735 O 74.913 1.076 1.45917 0
M  V30 736 C 74.961 3.41539 -1.15687 0
M  V30 737 O 74.065 4.11402 -0.286775 0
M  V30 738 H 73.406 0.599735 -0.284981 0
M  V30 739 H 75.936 1.49201 -1.4 0
M  V30 740 H 75.946 3.92269 -1.12202 0
M  V30 741 H 74.621 3.52684 -2.20425 0
M  V30 742 H 73.198 3.70939 -0.381903 0
M  V30 743 N 75.3831 0.828654 1.34056 0
M  V30 744 C 76.3131 0.269443 2.3194 0
M  V30 745 C 77.2941 -0.617247 1.58506 0
M  V30 746 O 78.4791 -0.542931 1.86456 0
M  V30 747 C 75.6091 -0.564793 3.42677 0
M  V30 748 C 74.5631 0.225241 4.27407 0
M  V30 749 C 73.8891 -0.7321 5.29664 0
M  V30 750 C 75.1891 1.43663 5.02154 0
M  V30 751 H 76.8831 1.08728 2.7896 0
M  V30 752 H 74.4291 0.524283 1.34117 0
M  V30 753 H 76.3821 -0.966233 4.10173 0
M  V30 754 H 75.1061 -1.41574 2.9432 0
M  V30 755 H 73.7651 0.608117 3.61521 0
M  V30 756 H 73.4131 -1.57916 4.77568 0
M  V30 757 H 73.1131 -0.20767 5.87233 0
M  V30 758 H 74.6371 -1.13128 6.00029 0
M  V30 759 H 76.0511 1.1089 5.62473 0
M  V30 760 H 74.4481 1.89711 5.69324 0
M  V30 761 H 75.5181 2.21181 4.31517 0
M  V30 762 N 76.8612 -1.46375 0.584142 0
M  V30 763 C 78.1102 -2.01585 0.0679741 0
M  V30 764 C 78.4232 -1.46109 -1.30045 0
M  V30 765 O 79.6292 -1.93148 -1.90804 0
M  V30 766 C 78.0852 -3.5983 0.0709207 0
M  V30 767 C 77.6932 -4.24303 1.43775 0
M  V30 768 C 79.4372 -4.22693 -0.391228 0
M  V30 769 C 77.3442 -5.74631 1.39834 0
M  V30 770 H 76.2742 -0.753689 0.0216421 0
M  V30 771 H 78.9252 -1.68093 0.736001 0
M  V30 772 H 77.3072 -3.90405 -0.663299 0
M  V30 773 H 78.4812 -4.05335 2.19181 0
M  V30 774 H 76.7962 -3.73539 1.84004 0
M  V30 775 H 79.3932 -5.3289 -0.439524 0
M  V30 776 H 79.7362 -3.91728 -1.40906 0
M  V30 777 H 80.2692 -3.96749 0.288974 0
M  V30 778 H 77.0082 -6.10258 2.39303 0
M  V30 779 H 76.5282 -5.95858 0.686505 0
M  V30 780 H 78.2072 -6.37375 1.11187 0
M  V30 781 N 78.3393 -0.321999 -1.54275 0
M  V30 782 C 79.5643 0.285791 -2.05422 0
M  V30 783 C 79.9893 1.45124 -1.19669 0
M  V30 784 O 79.3473 1.80132 -0.205441 0
M  V30 785 C 79.3953 0.69956 -3.53749 0
M  V30 786 O 78.4993 1.8021 -3.70942 0
M  V30 787 H 77.8403 0.0518962 -0.661969 0
M  V30 788 H 80.3703 -0.469954 -1.9913 0
M  V30 789 H 80.3803 0.982649 -3.9599 0
M  V30 790 H 79.0553 -0.152864 -4.15619 0
M  V30 791 H 77.6323 1.51794 -3.40607 0
M  V30 792 N 79.8174 1.5752 -0.0501392 0
M  V30 793 C 80.7274 2.14952 0.939827 0
M  V30 794 C 81.7434 1.10706 1.34239 0
M  V30 795 O 82.9194 1.42869 1.41952 0
M  V30 796 C 79.9844 2.68232 2.19665 0
M  V30 797 C 79.0454 3.87272 1.85253 0
M  V30 798 C 78.2784 4.38002 3.04943 0
M  V30 799 O 78.5014 3.87811 4.18281 0
M  V30 800 O 77.4354 5.29602 2.86017 0
M  V30 801 H 81.2614 2.9986 0.481392 0
M  V30 802 H 78.8464 1.4841 0.171699 0
M  V30 803 H 80.7284 3.02475 2.93406 0
M  V30 804 H 79.4034 1.86395 2.64648 0
M  V30 805 H 78.3104 3.5792 1.0883 0
M  V30 806 H 79.6434 4.70336 1.4507 0
M  V30 807 N 81.2955 -0.223234 1.56011 0
M  V30 808 C 82.2275 -1.30006 1.88762 0
M  V30 809 C 83.2405 -1.43129 0.775746 0
M  V30 810 O 84.4295 -1.44057 1.05403 0
M  V30 811 C 81.5295 -2.67589 2.07965 0
M  V30 812 C 80.7025 -2.76434 3.38973 0
M  V30 813 C 79.7615 -3.95019 3.47629 0
M  V30 814 O 78.7875 -3.83436 4.20672 0
M  V30 815 N 79.9895 -5.09249 2.78649 0
M  V30 816 H 82.7545 -1.02238 2.81722 0
M  V30 817 H 80.3155 -0.413278 1.56536 0
M  V30 818 H 82.3075 -3.45297 2.11073 0
M  V30 819 H 80.8775 -2.87964 1.21638 0
M  V30 820 H 80.0975 -1.85216 3.47978 0
M  V30 821 H 81.3855 -2.79313 4.25278 0
M  V30 822 H 80.7835 -5.21556 2.19081 0
M  V30 823 H 79.3405 -5.85007 2.8742 0
M  V30 824 N 82.7736 -1.49793 -0.48987 0
M  V30 825 C 84.0196 -1.61049 -1.24236 0
M  V30 826 C 84.3746 -0.298412 -1.90072 0
M  V30 827 O 83.6676 0.702262 -1.78266 0
M  V30 828 C 83.8616 -2.71488 -2.32441 0
M  V30 829 C 83.6906 -4.13308 -1.77218 0
M  V30 830 C 82.4606 -4.79955 -1.58023 0
M  V30 831 C 84.6586 -4.98176 -1.27772 0
M  V30 832 N 82.6406 -6.06052 -0.978465 0
M  V30 833 C 84.0116 -6.14843 -0.798 0
M  V30 834 C 86.0666 -4.84091 -1.16449 0
M  V30 835 C 84.7696 -7.18975 -0.216245 0
M  V30 836 C 86.7956 -5.88382 -0.596698 0
M  V30 837 C 86.1576 -7.04285 -0.127262 0
M  V30 838 H 82.2566 -0.643611 -0.444172 0
M  V30 839 H 84.8406 -1.86842 -0.54754 0
M  V30 840 H 83.0116 -2.47449 -2.99372 0
M  V30 841 H 84.7436 -2.72205 -2.99477 0
M  V30 842 H 81.4986 -4.36936 -1.82712 0
M  V30 843 H 81.9226 -6.73407 -0.696534 0
M  V30 844 H 86.5646 -3.94786 -1.5134 0
M  V30 845 H 84.2826 -8.0797 0.144903 0
M  V30 846 H 87.8686 -5.79545 -0.511716 0
M  V30 847 H 86.7486 -7.83606 0.30523 0
M  V30 848 N 84.2517 0.741722 -1.39055 0
M  V30 849 C 85.4977 1.50336 -1.36113 0
M  V30 850 C 85.8307 1.94148 0.0450796 0
M  V30 851 O 85.1057 1.66301 1.00868 0
M  V30 852 C 85.3887 2.74773 -2.32749 0
M  V30 853 C 85.2417 2.37023 -3.82283 0
M  V30 854 C 86.5607 3.76846 -2.27322 0
M  V30 855 H 83.6797 0.545351 -0.495743 0
M  V30 856 H 86.3217 0.848624 -1.69995 0
M  V30 857 H 84.4717 3.30639 -2.03986 0
M  V30 858 H 86.1437 1.8684 -4.21768 0
M  V30 859 H 84.3867 1.69334 -3.99385 0
M  V30 860 H 85.0577 3.26104 -4.45376 0
M  V30 861 H 87.5337 3.30548 -2.5274 0
M  V30 862 H 86.4097 4.6159 -2.97028 0
M  V30 863 H 86.6707 4.23286 -1.27599 0
M  V30 864 N 85.7298 1.2412 0.971189 0
M  V30 865 C 86.9758 1.08041 1.71625 0
M  V30 866 C 87.3088 -0.380407 1.90438 0
M  V30 867 O 86.5838 -1.28127 1.46334 0
M  V30 868 C 86.8668 1.81682 3.10908 0
M  V30 869 C 86.7198 3.35493 2.99608 0
M  V30 870 C 88.0388 1.58671 4.10501 0
M  V30 871 H 85.1578 0.39388 0.622919 0
M  V30 872 H 87.7998 1.52743 1.13003 0
M  V30 873 H 85.9498 1.43684 3.60953 0
M  V30 874 H 87.6218 3.83068 2.57015 0
M  V30 875 H 85.8648 3.64052 2.35899 0
M  V30 876 H 86.5358 3.82217 3.98264 0
M  V30 877 H 89.0118 1.91719 3.69301 0
M  V30 878 H 87.8878 2.1266 5.06031 0
M  V30 879 H 88.1488 0.524161 4.38982 0
M  V30 880 N 87.2079 -1.17134 1.05439 0
M  V30 881 C 88.4329 -1.91913 0.786396 0
M  V30 882 C 88.8579 -1.7643 -0.652234 0
M  V30 883 O 88.2159 -1.08372 -1.45345 0
M  V30 884 C 88.2639 -3.40921 1.17497 0
M  V30 885 O 87.3679 -4.11244 0.308589 0
M  V30 886 H 86.7089 -0.598215 0.288158 0
M  V30 887 H 89.2389 -1.48457 1.4079 0
M  V30 888 H 89.2489 -3.91668 1.14281 0
M  V30 889 H 87.9239 -3.5151 2.22292 0
M  V30 890 H 86.5009 -3.70731 0.40157 0
M  V30 891 N 88.686 -0.835752 -1.33615 0
M  V30 892 C 89.649 -0.272 -2.2758 0
M  V30 893 C 90.649 0.557487 -1.50827 0
M  V30 894 O 91.839 0.37173 -1.70188 0
M  V30 895 C 88.971 0.617173 -3.35267 0
M  V30 896 H 90.164 -1.10111 -2.78954 0
M  V30 897 H 87.717 -0.608594 -1.43965 0
M  V30 898 H 88.452 1.46884 -2.89129 0
M  V30 899 H 88.237 0.0237066 -3.92093 0
M  V30 900 H 89.727 1.005 -4.05326 0
M  V30 901 N 90.1641 1.46063 -0.591896 0
M  V30 902 C 91.4121 2.01938 -0.0808391 0
M  V30 903 C 91.7331 1.46475 1.28725 0
M  V30 904 O 91.0031 0.652944 1.84698 0
M  V30 905 H 89.5831 0.746516 -0.0268938 0
M  V30 906 H 92.2451 1.79055 -0.769752 0
M  V30 907 H 91.3411 3.12094 -0.0187578 0
M  V30 908 N 91.6422 0.330177 1.54103 0
M  V30 909 C 92.5922 -0.548456 2.21305 0
M  V30 910 C 93.5762 -1.07651 1.19583 0
M  V30 911 O 94.7682 -1.01243 1.45186 0
M  V30 912 C 91.8972 -1.70559 2.97934 0
M  V30 913 C 90.9832 -1.19212 4.07 0
M  V30 914 N 91.3742 -0.398831 5.04225 0
M  V30 915 C 89.6722 -1.47024 4.2107 0
M  V30 916 C 90.3732 -0.121761 5.81573 0
M  V30 917 N 89.3492 -0.709722 5.38947 0
M  V30 918 H 93.1512 0.0648483 2.93828 0
M  V30 919 H 90.6652 0.136363 1.61826 0
M  V30 920 H 92.6622 -2.34688 3.44568 0
M  V30 921 H 91.3222 -2.32231 2.26934 0
M  V30 922 H 92.3332 -0.0410869 5.17884 0
M  V30 923 H 89.0102 -2.09232 3.61287 0
M  V30 924 H 90.4002 0.517298 6.69906 0
M  V30 925 N 93.1203 -1.57491 0.0584922 0
M  V30 926 C 94.3603 -1.94851 -0.617458 0
M  V30 927 C 94.7243 -0.937165 -1.67575 0
M  V30 928 O 95.9253 -1.19795 -2.40629 0
M  V30 929 C 94.1963 -3.36955 -1.19147 0
M  V30 930 S 95.7553 -3.96277 -1.8844 0
M  V30 931 H 92.5733 -0.681539 -0.202547 0
M  V30 932 H 95.1753 -1.95073 0.129176 0
M  V30 933 H 93.8793 -4.08355 -0.409215 0
M  V30 934 H 93.4103 -3.40245 -1.97476 0
M  V30 935 H 95.4253 -3.82099 -3.16568 0
M  V30 936 N 94.5984 0.214957 -1.56127 0
M  V30 937 C 95.8284 0.953707 -1.8327 0
M  V30 938 C 96.2364 1.78181 -0.636262 0
M  V30 939 O 95.5794 1.79191 0.404516 0
M  V30 940 C 95.6414 1.91516 -3.0424 0
M  V30 941 C 95.3054 1.27094 -4.38972 0
M  V30 942 C 96.3024 0.657575 -5.15725 0
M  V30 943 C 93.9874 1.28073 -4.85698 0
M  V30 944 C 95.9814 0.0625968 -6.37369 0
M  V30 945 C 93.6684 0.681914 -6.07283 0
M  V30 946 C 94.6664 0.0739046 -6.8296 0
M  V30 947 O 94.3544 -0.515582 -8.02245 0
M  V30 948 H 94.0864 0.284764 -0.613095 0
M  V30 949 H 96.6404 0.233283 -2.04071 0
M  V30 950 H 94.8704 2.67475 -2.79274 0
M  V30 951 H 96.5594 2.52001 -3.18198 0
M  V30 952 H 97.3254 0.642288 -4.80728 0
M  V30 953 H 93.2044 1.74337 -4.26764 0
M  V30 954 H 96.7484 -0.412593 -6.96379 0
M  V30 955 H 92.6454 0.694636 -6.41752 0
M  V30 956 H 93.4134 -0.410544 -8.1747 0
M  V30 957 N 96.0765 1.50051 0.48192 0
M  V30 958 C 97.0235 1.68122 1.58125 0
M  V30 959 C 97.9935 0.522545 1.57666 0
M  V30 960 O 99.1785 0.751844 1.75362 0
M  V30 961 C 96.3185 1.77142 2.96167 0
M  V30 962 C 95.4315 3.0444 3.06497 0
M  V30 963 C 94.5665 3.04321 4.35387 0
M  V30 964 C 93.6055 4.26118 4.3942 0
M  V30 965 N 92.7425 4.238 5.59766 0
M  V30 966 H 97.5825 2.6198 1.42022 0
M  V30 967 H 95.1195 1.29877 0.690687 0
M  V30 968 H 97.0775 1.80352 3.76203 0
M  V30 969 H 95.7075 0.867329 3.1093 0
M  V30 970 H 94.7595 3.10752 2.19402 0
M  V30 971 H 96.0715 3.94426 3.05336 0
M  V30 972 H 95.2255 3.062 5.23762 0
M  V30 973 H 93.9645 2.12147 4.39141 0
M  V30 974 H 92.9695 4.24463 3.49444 0
M  V30 975 H 94.1945 5.19507 4.37366 0
M  V30 976 H 92.1405 3.34474 5.64326 0
M  V30 977 H 92.0575 5.07542 5.60301 0
M  V30 978 H 93.3255 4.2981 6.50295 0
M  V30 979 N 97.5546 -0.734337 1.39446 0
M  V30 980 C 98.7796 -1.52866 1.40167 0
M  V30 981 C 99.2046 -1.881 -0.00171513 0
M  V30 982 O 98.5626 -1.51957 -0.988879 0
M  V30 983 C 98.6106 -2.79235 2.28167 0
M  V30 984 O 97.7146 -3.75185 1.71201 0
M  V30 985 H 97.0556 -0.461618 0.477289 0
M  V30 986 H 99.5856 -0.905949 1.8345 0
M  V30 987 H 99.5956 -3.27963 2.42702 0
M  V30 988 H 98.2706 -2.52923 3.30156 0
M  V30 989 H 96.8476 -3.33958 1.65912 0
M  V30 990 N 99.0327 -1.24633 -0.964593 0
M  V30 991 C 100.449 -1.01239 -1.2338 0
M  V30 992 C 100.649 0.2769 -1.99588 0
M  V30 993 O 99.7047 0.992241 -2.32187 0
M  V30 994 C 101.018 -2.22937 -2.01791 0
M  V30 995 C 102.566 -2.27594 -2.14872 0
M  V30 996 C 103.041 -3.48921 -2.96678 0
M  V30 997 N 104.532 -3.49257 -3.04259 0
M  V30 998 C 105.267 -4.39795 -3.67924 0
M  V30 999 N 104.763 -5.40591 -4.33281 0
M  V30 1000 N 106.556 -4.275 -3.64966 0
M  V30 1001 H 98.7067 -2.0748 -0.454502 0
M  V30 1002 H 100.97 -0.910647 -0.26349 0
M  V30 1003 H 100.676 -3.16587 -1.53184 0
M  V30 1004 H 100.55 -2.25306 -3.02518 0
M  V30 1005 H 102.937 -1.34473 -2.6268 0
M  V30 1006 H 103.018 -2.2925 -1.13482 0
M  V30 1007 H 102.662 -4.42359 -2.49562 0
M  V30 1008 H 102.592 -3.4451 -3.98272 0
M  V30 1009 H 105.083 -2.76337 -2.57771 0
M  V30 1010 H 105.396 -6.05904 -4.79687 0
M  V30 1011 H 103.741 -5.44475 -4.3194 0
M  V30 1012 H 106.932 -3.47987 -3.13086 0
M  V30 1013 H 107.105 -4.98258 -4.14298 0
M  V30 1014 N 100.511 1.16574 -1.06058 0
M  V30 1015 C 101.76 1.86385 -0.770944 0
M  V30 1016 C 102.073 1.82448 0.705129 0
M  V30 1017 O 103.279 2.47815 1.10905 0
M  V30 1018 C 101.735 3.34466 -1.32893 0
M  V30 1019 C 101.343 3.46883 -2.83507 0
M  V30 1020 C 103.087 4.09548 -1.11672 0
M  V30 1021 C 100.994 4.89036 -3.32562 0
M  V30 1022 H 99.9238 0.698181 -0.284709 0
M  V30 1023 H 102.575 1.31583 -1.27899 0
M  V30 1024 H 100.957 3.88859 -0.748662 0
M  V30 1025 H 102.131 3.02663 -3.47465 0
M  V30 1026 H 100.446 2.85232 -3.03368 0
M  V30 1027 H 103.043 5.14434 -1.45814 0
M  V30 1028 H 103.386 4.16264 -0.0549535 0
M  V30 1029 H 103.919 3.61387 -1.66265 0
M  V30 1030 H 100.658 4.87499 -4.38207 0
M  V30 1031 H 100.178 5.3389 -2.73351 0
M  V30 1032 H 101.857 5.57843 -3.2775 0
M  V30 1033 N 101.989 0.842826 1.3317 0
M  V30 1034 C 102.921 0.236245 2.27979 0
M  V30 1035 C 103.934 -0.585282 1.51915 0
M  V30 1036 O 105.123 -0.411705 1.73687 0
M  V30 1037 C 102.223 -0.685717 3.3189 0
M  V30 1038 C 101.396 0.0973448 4.37292 0
M  V30 1039 C 100.455 -0.748565 5.20848 0
M  V30 1040 O 99.4809 -0.186339 5.68895 0
M  V30 1041 N 100.683 -2.06527 5.42519 0
M  V30 1042 H 103.448 1.05088 2.80672 0
M  V30 1043 H 101.009 0.701667 1.45905 0
M  V30 1044 H 103.001 -1.25669 3.84694 0
M  V30 1045 H 101.571 -1.40105 2.79445 0
M  V30 1046 H 100.791 0.849706 3.84933 0
M  V30 1047 H 102.079 0.635643 5.04814 0
M  V30 1048 H 101.477 -2.54554 5.05192 0
M  V30 1049 H 100.034 -2.58464 5.98364 0
M  V30 1050 N 103.467 -1.45747 0.599634 0
M  V30 1051 C 104.713 -2.02592 0.0918643 0
M  V30 1052 C 105.046 -1.46806 -1.27128 0
M  V30 1053 O 104.321 -0.639658 -1.83681 0
M  V30 1054 C 104.604 -3.60073 0.0443398 0
M  V30 1055 C 104.457 -4.26208 1.43759 0
M  V30 1056 C 105.776 -4.35309 -0.647608 0
M  V30 1057 H 102.895 -0.736175 0.034857 0
M  V30 1058 H 105.537 -1.73694 0.770081 0
M  V30 1059 H 103.687 -3.84823 -0.533224 0
M  V30 1060 H 105.359 -4.12668 2.06162 0
M  V30 1061 H 103.602 -3.84916 2.00056 0
M  V30 1062 H 104.273 -5.35069 1.35665 0
M  V30 1063 H 106.749 -4.15805 -0.156776 0
M  V30 1064 H 105.625 -5.45038 -0.649942 0
M  V30 1065 H 105.886 -4.07598 -1.71219 0
M  V30 1066 N 104.945 -0.338344 -1.53925 0
M  V30 1067 C 106.361 0.0137736 -1.59594 0
M  V30 1068 C 106.561 1.49186 -1.35447 0
M  V30 1069 O 105.617 2.24987 -1.14616 0
M  V30 1070 C 106.93 -0.41773 -2.97784 0
M  V30 1071 C 108.478 -0.369633 -3.1081 0
M  V30 1072 C 108.953 -0.776524 -4.51369 0
M  V30 1073 N 110.444 -0.730506 -4.57403 0
M  V30 1074 C 111.179 -1.01736 -5.64303 0
M  V30 1075 N 110.675 -1.3721 -6.79077 0
M  V30 1076 N 112.468 -0.941942 -5.54151 0
M  V30 1077 H 104.619 -1.3012 -1.67876 0
M  V30 1078 H 106.882 -0.530082 -0.78595 0
M  V30 1079 H 106.588 -1.44811 -3.20504 0
M  V30 1080 H 106.462 0.209729 -3.76616 0
M  V30 1081 H 108.849 0.651568 -2.87817 0
M  V30 1082 H 108.93 -1.03223 -2.34049 0
M  V30 1083 H 108.574 -1.79571 -4.75096 0
M  V30 1084 H 108.504 -0.0914649 -5.26521 0
M  V30 1085 H 110.995 -0.468783 -3.74981 0
M  V30 1086 H 111.308 -1.57597 -7.5656 0
M  V30 1087 H 109.653 -1.4105 -6.80536 0
M  V30 1088 H 112.844 -0.664184 -4.63364 0
M  V30 1089 H 113.017 -1.16884 -6.37371 0
M  V30 1090 N 106.423 1.57458 -0.0668435 0
M  V30 1091 C 107.353 2.15468 0.899764 0
M  V30 1092 C 108.334 1.08042 1.31381 0
M  V30 1093 O 109.519 1.36054 1.38574 0
M  V30 1094 C 106.649 2.71232 2.16911 0
M  V30 1095 C 105.603 3.83781 1.89463 0
M  V30 1096 C 104.929 4.26127 3.22986 0
M  V30 1097 C 106.229 5.08238 1.20381 0
M  V30 1098 H 107.923 2.96488 0.416529 0
M  V30 1099 H 105.469 1.4262 0.198908 0
M  V30 1100 H 107.422 3.10458 2.84945 0
M  V30 1101 H 106.146 1.87426 2.67468 0
M  V30 1102 H 104.805 3.45051 1.23836 0
M  V30 1103 H 104.453 3.39249 3.71374 0
M  V30 1104 H 104.153 5.01993 3.05413 0
M  V30 1105 H 105.677 4.67966 3.92225 0
M  V30 1106 H 107.091 5.44811 1.78475 0
M  V30 1107 H 105.488 5.89349 1.13083 0
M  V30 1108 H 106.558 4.84558 0.182153 0
M  V30 1109 N 107.901 -0.206675 1.56239 0
M  V30 1110 C 109.149 -0.927007 1.79586 0
M  V30 1111 C 109.47 -1.8427 0.637929 0
M  V30 1112 O 108.74 -1.92849 -0.344398 0
M  V30 1113 H 107.32 -0.345292 0.662407 0
M  V30 1114 H 109.982 -0.21496 1.93711 0
M  V30 1115 H 109.078 -1.52501 2.72305 0
M  V30 1116 N 109.379 -1.50304 -0.473955 0
M  V30 1117 C 110.289 -1.7174 -1.5982 0
M  V30 1118 C 111.305 -0.600457 -1.63311 0
M  V30 1119 O 112.481 -0.878441 -1.81233 0
M  V30 1120 C 109.546 -1.80427 -2.96052 0
M  V30 1121 C 108.607 -3.04148 -3.02972 0
M  V30 1122 C 107.84 -3.12411 -4.32706 0
M  V30 1123 O 108.063 -2.27542 -5.23049 0
M  V30 1124 O 106.997 -4.05113 -4.45159 0
M  V30 1125 H 110.823 -2.67035 -1.44657 0
M  V30 1126 H 108.408 -1.34366 -0.653148 0
M  V30 1127 H 110.29 -1.88338 -3.7697 0
M  V30 1128 H 108.965 -0.883156 -3.11419 0
M  V30 1129 H 107.872 -3.0174 -2.21142 0
M  V30 1130 H 109.205 -3.95829 -2.92541 0
M  V30 1131 N 110.857 0.726932 -1.39834 0
M  V30 1132 C 111.807 1.83232 -1.35683 0
M  V30 1133 C 112.791 1.59155 -0.236295 0
M  V30 1134 O 113.983 1.70522 -0.474488 0
M  V30 1135 C 111.112 3.21246 -1.21062 0
M  V30 1136 C 110.198 3.51125 -2.37849 0
M  V30 1137 N 110.589 3.51889 -3.63329 0
M  V30 1138 C 108.887 3.81527 -2.30982 0
M  V30 1139 C 109.588 3.79791 -4.40606 0
M  V30 1140 N 108.564 3.97971 -3.70297 0
M  V30 1141 H 112.366 1.8214 -2.30656 0
M  V30 1142 H 109.88 0.925545 -1.33444 0
M  V30 1143 H 111.877 4.00387 -1.16171 0
M  V30 1144 H 110.537 3.23572 -0.270458 0
M  V30 1145 H 111.548 3.33008 -3.96643 0
M  V30 1146 H 108.225 3.91411 -1.45272 0
M  V30 1147 H 109.615 3.86783 -5.49408 0
M  V30 1148 N 112.336 1.25143 0.95797 0
M  V30 1149 C 113.284 1.05019 2.07542 0
M  V30 1150 C 114.278 -0.0178751 1.69391 0
M  V30 1151 O 115.484 0.137472 1.79474 0
M  V30 1152 H 111.859 0.32265 0.679265 0
M  V30 1153 H 113.83 1.99759 2.21673 0
M  V30 1154 C 112.579 0.682074 3.40944 0
M  V30 1155 H 111.902 1.49573 3.70767 0
M  V30 1156 H 113.342 0.580945 4.20001 0
M  V30 1157 C 111.801 -0.611608 3.31302 0
M  V30 1158 O 112.331 -1.65465 3.66038 0
M  V30 1159 N 110.537 -0.595982 2.84423 0
M  V30 1160 H 110.084 0.253192 2.56353 0
M  V30 1161 H 110.042 -1.46173 2.78354 0
M  V30 1162 N 113.814 -1.1601 1.06675 0
M  V30 1163 C 115.063 -1.85973 0.780818 0
M  V30 1164 C 115.376 -1.82819 -0.695444 0
M  V30 1165 O 116.582 -2.484 -1.09589 0
M  V30 1166 C 115.038 -3.33757 1.34665 0
M  V30 1167 C 114.646 -3.45374 2.85343 0
M  V30 1168 C 116.39 -4.0895 1.13843 0
M  V30 1169 C 114.297 -4.87266 3.35151 0
M  V30 1170 H 113.227 -0.696661 0.288407 0
M  V30 1171 H 115.878 -1.30903 1.28595 0
M  V30 1172 H 114.26 -3.88456 0.769274 0
M  V30 1173 H 115.434 -3.00816 3.49065 0
M  V30 1174 H 113.749 -2.83619 3.04876 0
M  V30 1175 H 116.346 -5.13654 1.4854 0
M  V30 1176 H 116.689 -4.16229 0.0770282 0
M  V30 1177 H 117.222 -3.605 1.68179 0
M  V30 1178 H 113.961 -4.85168 4.40786 0
M  V30 1179 H 113.481 -5.32433 2.76179 0
M  V30 1180 H 115.16 -5.56097 3.30704 0
M  V30 1181 N 115.292 -0.849877 -1.32721 0
M  V30 1182 C 116.202 -0.293791 -2.32753 0
M  V30 1183 C 117.218 0.585906 -1.63839 0
M  V30 1184 O 118.394 0.487413 -1.95413 0
M  V30 1185 C 115.459 0.512752 -3.42887 0
M  V30 1186 C 114.52 -0.39252 -4.27502 0
M  V30 1187 C 113.753 0.375625 -5.32377 0
M  V30 1188 O 113.976 1.60613 -5.4732 0
M  V30 1189 O 112.91 -0.256094 -6.01355 0
M  V30 1190 H 116.736 -1.12242 -2.82197 0
M  V30 1191 H 114.321 -0.612685 -1.36259 0
M  V30 1192 H 116.203 0.970704 -4.10067 0
M  V30 1193 H 114.878 1.31826 -2.95641 0
M  V30 1194 H 113.785 -0.898547 -3.63149 0
M  V30 1195 H 115.118 -1.16309 -4.7826 0
M  V30 1196 N 116.77 1.45427 -0.607355 0
M  V30 1197 C 118.016 2.0254 -0.102607 0
M  V30 1198 C 118.349 1.47478 1.26348 0
M  V30 1199 O 117.624 0.64939 1.83339 0
M  V30 1200 C 117.907 3.60044 -0.0634347 0
M  V30 1201 C 117.76 4.2544 -1.46017 0
M  V30 1202 C 119.079 4.35646 0.624514 0
M  V30 1203 H 116.198 0.73598 -0.0387607 0
M  V30 1204 H 118.84 1.73284 -0.779282 0
M  V30 1205 H 116.99 3.85101 0.512808 0
M  V30 1206 H 118.662 4.11569 -2.08347 0
M  V30 1207 H 116.905 3.83849 -2.02094 0
M  V30 1208 H 117.576 5.34342 -1.385 0
M  V30 1209 H 120.052 4.15882 0.134723 0
M  V30 1210 H 118.928 5.45376 0.621028 0
M  V30 1211 H 119.189 4.08501 1.69055 0
M  V30 1212 N 118.248 0.346503 1.53744 0
M  V30 1213 C 119.178 -0.501193 2.28058 0
M  V30 1214 C 120.159 -1.10014 1.29734 0
M  V30 1215 O 121.344 -1.12097 1.58581 0
M  V30 1216 C 118.474 -1.65078 3.05559 0
M  V30 1217 C 117.428 -1.18003 4.11411 0
M  V30 1218 C 116.754 -2.41837 4.76884 0
M  V30 1219 C 118.054 -0.278394 5.21558 0
M  V30 1220 H 119.748 0.11875 2.99164 0
M  V30 1221 H 117.294 0.0585531 1.43881 0
M  V30 1222 H 119.247 -2.25028 3.56287 0
M  V30 1223 H 117.971 -2.29767 2.32109 0
M  V30 1224 H 116.63 -0.603331 3.61601 0
M  V30 1225 H 116.278 -3.0494 4.00026 0
M  V30 1226 H 115.978 -2.1102 5.48402 0
M  V30 1227 H 117.502 -3.02508 5.30397 0
M  V30 1228 H 118.916 -0.784823 5.67903 0
M  V30 1229 H 117.313 -0.0619707 6.00068 0
M  V30 1230 H 118.383 0.684677 4.80042 0
M  V30 1231 N 119.726 -1.57421 0.075193 0
M  V30 1232 C 120.636 -2.1642 -0.905511 0
M  V30 1233 C 121.652 -1.12828 -1.32461 0
M  V30 1234 O 122.828 -1.45109 -1.39661 0
M  V30 1235 C 119.893 -2.71693 -2.15369 0
M  V30 1236 C 118.954 -3.90171 -1.79068 0
M  V30 1237 C 118.187 -4.42798 -2.97936 0
M  V30 1238 O 118.41 -3.94416 -4.12058 0
M  V30 1239 O 117.344 -5.34085 -2.77555 0
M  V30 1240 H 121.17 -3.00588 -0.433626 0
M  V30 1241 H 118.755 -1.48664 -0.148067 0
M  V30 1242 H 120.637 -3.07104 -2.88557 0
M  V30 1243 H 119.312 -1.90582 -2.61649 0
M  V30 1244 H 118.219 -3.59606 -1.03122 0
M  V30 1245 H 119.552 -4.72584 -1.37569 0
M  V30 1246 N 121.204 0.198386 -1.56346 0
M  V30 1247 C 122.452 0.91747 -1.80075 0
M  V30 1248 C 122.773 1.83929 -0.647692 0
M  V30 1249 O 122.043 1.93029 0.334166 0
M  V30 1250 H 120.623 0.341774 -0.664228 0
M  V30 1251 H 123.285 0.204684 -1.93822 0
M  V30 1252 H 122.381 1.51055 -2.7311 0
M  V30 1253 N 122.682 1.50554 0.465978 0
M  V30 1254 C 123.63 1.70324 1.58406 0
M  V30 1255 C 124.624 0.569139 1.59553 0
M  V30 1256 O 125.83 0.749776 1.63641 0
M  V30 1257 H 122.205 0.537688 0.525734 0
M  V30 1258 H 124.176 2.64104 1.38894 0
M  V30 1259 C 122.925 1.81928 2.96307 0
M  V30 1260 H 122.248 2.68586 2.96144 0
M  V30 1261 H 123.688 1.99784 3.73982 0
M  V30 1262 C 122.147 0.572095 3.32007 0
M  V30 1263 O 122.677 -0.286416 4.00678 0
M  V30 1264 N 120.883 0.424606 2.87481 0
M  V30 1265 H 120.43 1.12427 2.31771 0
M  V30 1266 H 120.388 -0.408697 3.11732 0
M  V30 1267 N 124.16 -0.719506 1.40217 0
M  V30 1268 C 125.07 -1.86378 1.42479 0
M  V30 1269 C 126.086 -1.71073 0.317834 0
M  V30 1270 O 127.262 -1.93406 0.561794 0
M  V30 1271 C 124.327 -3.22136 1.28178 0
M  V30 1272 C 123.388 -3.49723 2.48982 0
M  V30 1273 C 122.621 -4.79004 2.35353 0
M  V30 1274 O 122.844 -5.53821 1.36524 0
M  V30 1275 O 121.778 -5.06839 3.2465 0
M  V30 1276 H 125.604 -1.87425 2.38968 0
M  V30 1277 H 123.189 -0.869405 1.21498 0
M  V30 1278 H 125.071 -4.03234 1.22395 0
M  V30 1279 H 123.746 -3.21825 0.347934 0
M  V30 1280 H 122.653 -2.6865 2.60342 0
M  V30 1281 H 123.986 -3.54828 3.41113 0
M  V30 1282 N 125.638 -1.25649 -0.95132 0
M  V30 1283 C 126.57 -1.02112 -2.05197 0
M  V30 1284 C 127.583 0.0150571 -1.62793 0
M  V30 1285 O 128.772 -0.223874 -1.77091 0
M  V30 1286 C 125.872 -0.522361 -3.3485 0
M  V30 1287 C 125.045 -1.62546 -4.06076 0
M  V30 1288 C 124.104 -1.12649 -5.14001 0
M  V30 1289 O 123.13 -1.82156 -5.39266 0
M  V30 1290 N 124.332 0.03047 -5.80492 0
M  V30 1291 H 127.097 -1.96885 -2.25957 0
M  V30 1292 H 124.658 -1.16899 -1.1201 0
M  V30 1293 H 126.65 -0.172961 -4.0433 0
M  V30 1294 H 125.22 0.33151 -3.10837 0
M  V30 1295 H 124.44 -2.14628 -3.30649 0
M  V30 1296 H 125.728 -2.36644 -4.50419 0
M  V30 1297 H 125.126 0.611169 -5.62389 0
M  V30 1298 H 123.683 0.320875 -6.5101 0
M  V30 1299 N 127.117 1.15442 -1.07289 0
M  V30 1300 C 128.364 1.86213 -0.795668 0
M  V30 1301 C 128.692 1.82291 0.678238 0
M  V30 1302 O 127.947 1.24057 1.51355 0
M  V30 1303 C 128.246 3.3489 -1.24834 0
M  V30 1304 C 127.912 3.59007 -2.72809 0
M  V30 1305 C 126.574 3.65298 -3.13227 0
M  V30 1306 C 128.926 3.68762 -3.68326 0
M  V30 1307 C 126.254 3.78854 -4.4798 0
M  V30 1308 C 128.606 3.83842 -5.0284 0
M  V30 1309 C 127.27 3.88378 -5.4288 0
M  V30 1310 H 126.54 0.681403 -0.291155 0
M  V30 1311 H 129.187 1.36435 -1.34379 0
M  V30 1312 H 127.492 3.8687 -0.619595 0
M  V30 1313 H 129.189 3.88052 -1.01076 0
M  V30 1314 H 125.779 3.5475 -2.40521 0
M  V30 1315 H 129.963 3.63202 -3.38227 0
M  V30 1316 H 125.219 3.80623 -4.78472 0
M  V30 1317 H 129.393 3.90332 -5.76727 0
M  V30 1318 H 127.02 3.98635 -6.47298 0
M  V30 1319 N 128.595 0.856903 1.32268 0
M  V30 1320 C 129.844 0.457599 1.96441 0
M  V30 1321 C 130.157 -0.992426 1.68553 0
M  V30 1322 O 131.363 -1.49727 2.26482 0
M  V30 1323 C 129.819 0.767358 3.51624 0
M  V30 1324 C 129.427 2.23326 3.88367 0
M  V30 1325 C 131.171 0.435887 4.22256 0
M  V30 1326 C 129.078 2.48613 5.36606 0
M  V30 1327 H 128.008 0.167387 0.735185 0
M  V30 1328 H 130.659 1.048 1.5063 0
M  V30 1329 H 129.041 0.106367 3.95857 0
M  V30 1330 H 130.215 2.93623 3.55137 0
M  V30 1331 H 128.53 2.52948 3.30766 0
M  V30 1332 H 131.127 0.602202 5.31298 0
M  V30 1333 H 131.47 -0.622672 4.11617 0
M  V30 1334 H 132.003 1.05286 3.83614 0
M  V30 1335 H 128.742 3.53101 5.52268 0
M  V30 1336 H 128.262 1.82896 5.71235 0
M  V30 1337 H 129.941 2.32676 6.03714 0
M  V30 1338 N 130.073 -1.45103 0.615059 0
M  V30 1339 C 131.021 -2.32331 -0.111791 0
M  V30 1340 C 132.015 -1.46409 -0.852102 0
M  V30 1341 O 133.221 -1.62849 -0.766821 0
M  V30 1342 H 129.596 -0.749993 -0.0549072 0
M  V30 1343 H 131.567 -2.91407 0.642225 0
M  V30 1344 C 130.316 -3.3015 -1.09071 0
M  V30 1345 H 129.639 -3.96265 -0.530485 0
M  V30 1346 H 131.079 -3.93898 -1.56908 0
M  V30 1347 C 129.538 -2.57875 -2.168 0
M  V30 1348 O 130.068 -2.36567 -3.24652 0
M  V30 1349 N 128.274 -2.17884 -1.92289 0
M  V30 1350 H 127.821 -2.35413 -1.04587 0
M  V30 1351 H 127.779 -1.6985 -2.64572 0
M  V30 1352 N 131.551 -0.354651 -1.53558 0
M  V30 1353 C 132.514 0.484566 -2.24019 0
M  V30 1354 C 133.514 1.01861 -1.24422 0
M  V30 1355 O 134.704 0.906097 -1.4878 0
M  V30 1356 C 131.836 1.67615 -2.96847 0
M  V30 1357 H 133.029 -0.131843 -2.9961 0
M  V30 1358 H 130.582 -0.106165 -1.55939 0
M  V30 1359 H 131.317 2.33095 -2.25471 0
M  V30 1360 H 131.102 1.30029 -3.69912 0
M  V30 1361 H 132.592 2.27114 -3.50441 0
M  V30 1362 N 133.029 1.57378 -0.0835403 0
M  V30 1363 C 133.992 2.12252 0.864959 0
M  V30 1364 C 134.992 1.04916 1.21858 0
M  V30 1365 O 136.182 1.30853 1.14991 0
M  V30 1366 C 133.314 2.63358 2.16461 0
M  V30 1367 H 134.507 2.97371 0.388676 0
M  V30 1368 H 132.06 1.55423 0.165317 0
M  V30 1369 H 132.795 1.81727 2.686 0
M  V30 1370 H 132.58 3.41826 1.92087 0
M  V30 1371 H 134.07 3.05847 2.84337 0
M  V30 1372 N 134.507 -0.190092 1.56449 0
M  V30 1373 C 135.454 -1.23557 1.94942 0
M  V30 1374 C 136.424 -1.44972 0.810696 0
M  V30 1375 O 137.609 -1.58023 1.06927 0
M  V30 1376 C 134.749 -2.57416 2.2985 0
M  V30 1377 C 133.862 -2.43537 3.5681 0
M  V30 1378 C 132.997 -3.70134 3.81017 0
M  V30 1379 C 132.036 -3.51109 5.01387 0
M  V30 1380 N 131.173 -4.6973 5.21822 0
M  V30 1381 H 136.013 -0.900304 2.84075 0
M  V30 1382 H 133.55 -0.43318 1.40577 0
M  V30 1383 H 135.508 -3.35409 2.48106 0
M  V30 1384 H 134.138 -2.88975 1.43852 0
M  V30 1385 H 133.19 -1.56816 3.46573 0
M  V30 1386 H 134.502 -2.25415 4.4496 0
M  V30 1387 H 133.656 -4.56566 3.9954 0
M  V30 1388 H 132.395 -3.91215 2.91207 0
M  V30 1389 H 131.4 -2.63063 4.82782 0
M  V30 1390 H 132.625 -3.31468 5.9271 0
M  V30 1391 H 130.571 -4.91065 4.34961 0
M  V30 1392 H 130.488 -4.54452 6.0416 0
M  V30 1393 H 131.756 -5.57499 5.44808 0
M  V30 1394 N 135.985 -1.50799 -0.457987 0
M  V30 1395 C 137.234 -1.6168 -1.20593 0
M  V30 1396 C 137.547 -0.32888 -1.92815 0
M  V30 1397 O 138.753 -0.316773 -2.69646 0
M  V30 1398 C 137.209 -2.8545 -2.19195 0
M  V30 1399 C 136.817 -4.21168 -1.52715 0
M  V30 1400 C 138.561 -3.05681 -2.94549 0
M  V30 1401 C 136.468 -5.3611 -2.4968 0
M  V30 1402 H 135.398 -0.602134 -0.453818 0
M  V30 1403 H 138.049 -1.77245 -0.475031 0
M  V30 1404 H 136.431 -2.63472 -2.95632 0
M  V30 1405 H 137.605 -4.53449 -0.819775 0
M  V30 1406 H 135.92 -4.06648 -0.895922 0
M  V30 1407 H 138.517 -3.88727 -3.67145 0
M  V30 1408 H 138.86 -2.17929 -3.54701 0
M  V30 1409 H 139.393 -3.27901 -2.25223 0
M  V30 1410 H 136.132 -6.26057 -1.94249 0
M  V30 1411 H 135.652 -5.0823 -3.18532 0
M  V30 1412 H 137.331 -5.6722 -3.11241 0
M  V30 1413 N 137.463 0.71206 -1.40597 0
M  V30 1414 C 138.712 1.46754 -1.38369 0
M  V30 1415 C 139.025 1.95598 0.0097839 0
M  V30 1416 O 140.231 2.71059 0.154677 0
M  V30 1417 C 138.687 2.65289 -2.43207 0
M  V30 1418 C 138.295 2.23301 -3.88382 0
M  V30 1419 C 140.039 3.43008 -2.50091 0
M  V30 1420 C 137.946 3.38696 -4.84808 0
M  V30 1421 H 136.876 0.55118 -0.514506 0
M  V30 1422 H 139.527 0.774616 -1.66349 0
M  V30 1423 H 137.909 3.36769 -2.08332 0
M  V30 1424 H 139.083 1.59218 -4.32419 0
M  V30 1425 H 137.398 1.58618 -3.85006 0
M  V30 1426 H 139.995 4.28881 -3.1932 0
M  V30 1427 H 140.338 3.87065 -1.53253 0
M  V30 1428 H 140.871 2.78574 -2.83974 0
M  V30 1429 H 137.61 2.99668 -5.82992 0
M  V30 1430 H 137.13 4.01683 -4.45433 0
M  V30 1431 H 138.809 4.04712 -5.04794 0
M  V30 1432 N 138.941 1.26152 0.944643 0
M  V30 1433 C 140.357 1.03189 1.21754 0
M  V30 1434 C 140.557 -0.245112 2.00004 0
M  V30 1435 O 139.613 -0.955176 2.33736 0
M  V30 1436 C 140.926 2.26119 1.98219 0
M  V30 1437 C 142.474 2.30984 2.11224 0
M  V30 1438 C 142.949 3.53597 2.91089 0
M  V30 1439 N 144.44 3.54053 2.98664 0
M  V30 1440 C 145.175 4.45593 3.60881 0
M  V30 1441 N 144.671 5.47416 4.24626 0
M  V30 1442 N 146.464 4.33252 3.58119 0
M  V30 1443 H 138.615 2.08177 0.421437 0
M  V30 1444 H 140.878 0.914723 0.248969 0
M  V30 1445 H 140.584 3.18984 1.48128 0
M  V30 1446 H 140.458 2.3009 2.98895 0
M  V30 1447 H 142.845 1.38635 2.60508 0
M  V30 1448 H 142.926 2.31026 1.09821 0
M  V30 1449 H 142.57 4.46273 2.42493 0
M  V30 1450 H 142.5 3.50802 3.92741 0
M  V30 1451 H 144.991 2.80403 2.53343 0
M  V30 1452 H 145.304 6.13459 4.69987 0
M  V30 1453 H 143.649 5.51278 4.23223 0
M  V30 1454 H 146.84 3.52924 3.0751 0
M  V30 1455 H 147.013 5.04786 4.06319 0
M  V30 1456 N 140.419 -1.14872 1.07899 0
M  V30 1457 C 141.369 -2.17809 0.674027 0
M  V30 1458 C 142.353 -1.58008 -0.303699 0
M  V30 1459 O 143.545 -1.76616 -0.11654 0
M  V30 1460 C 140.674 -3.43208 0.0793318 0
M  V30 1461 C 139.76 -4.10051 1.08253 0
M  V30 1462 N 140.151 -4.52296 2.2641 0
M  V30 1463 C 138.449 -4.36469 0.917124 0
M  V30 1464 C 139.15 -5.04199 2.901 0
M  V30 1465 N 138.126 -4.98088 2.17736 0
M  V30 1466 H 141.928 -2.48207 1.57386 0
M  V30 1467 H 139.442 -1.315 0.952976 0
M  V30 1468 H 141.439 -4.16272 -0.228719 0
M  V30 1469 H 140.099 -3.14291 -0.815551 0
M  V30 1470 H 141.11 -4.45504 2.64096 0
M  V30 1471 H 137.787 -4.17432 0.0756078 0
M  V30 1472 H 139.177 -5.46802 3.90458 0
M  V30 1473 N 141.898 -0.863906 -1.31812 0
M  V30 1474 C 143.309 -0.52522 -1.7916 0
M  V30 1475 C 143.66 0.957518 -1.71248 0
M  V30 1476 O 142.785 1.74734 -1.27659 0
M  V30 1477 C 143.38 -0.9466 -3.25307 0
M  V30 1478 C 141.939 -0.659668 -3.70574 0
M  V30 1479 C 141.086 -1.14126 -2.52726 0
M  V30 1480 H 144.037 -1.05022 -1.1898 0
M  V30 1481 H 144.058 -0.266766 -3.79564 0
M  V30 1482 H 143.57 -2.02579 -3.31034 0
M  V30 1483 H 141.671 0.408416 -3.70355 0
M  V30 1484 H 141.784 -1.23245 -4.62977 0
M  V30 1485 H 140.148 -0.561216 -2.4844 0
M  V30 1486 H 140.931 -2.22775 -2.61201 0
M  V30 1487 N 143.376 1.44774 -0.622745 0
M  V30 1488 C 144.323 2.30635 0.0871679 0
M  V30 1489 C 145.293 1.42994 0.845097 0
M  V30 1490 O 146.478 1.71907 0.827812 0
M  V30 1491 C 143.618 3.28144 1.06844 0
M  V30 1492 C 142.731 4.30888 0.309809 0
M  V30 1493 C 141.866 5.15494 1.28215 0
M  V30 1494 C 140.905 6.09953 0.512198 0
M  V30 1495 N 140.042 6.87287 1.43458 0
M  V30 1496 H 144.882 2.90803 -0.650974 0
M  V30 1497 H 142.419 1.43286 -0.33281 0
M  V30 1498 H 144.377 3.83157 1.65066 0
M  V30 1499 H 143.007 2.69695 1.77382 0
M  V30 1500 H 142.059 3.78414 -0.388181 0
M  V30 1501 H 143.371 4.97955 -0.290254 0
M  V30 1502 H 142.525 5.74983 1.93596 0
M  V30 1503 H 141.264 4.48481 1.91614 0
M  V30 1504 H 140.269 5.49581 -0.155151 0
M  V30 1505 H 141.494 6.78999 -0.116958 0
M  V30 1506 H 139.44 6.2295 2.05594 0
M  V30 1507 H 139.357 7.50763 0.888335 0
M  V30 1508 H 140.625 7.51306 2.07749 0
M  V30 1509 N 144.854 0.36279 1.53368 0
M  V30 1510 C 146.084 -0.228281 2.05335 0
M  V30 1511 C 146.492 -1.43226 1.23625 0
M  V30 1512 O 145.835 -1.81717 0.269206 0
M  V30 1513 C 145.897 -0.688549 3.52845 0
M  V30 1514 C 145.561 0.398362 4.5526 0
M  V30 1515 C 146.558 1.24732 5.04716 0
M  V30 1516 C 144.243 0.557805 4.99193 0
M  V30 1517 C 146.237 2.2411 5.96702 0
M  V30 1518 C 143.924 1.55495 5.90986 0
M  V30 1519 C 144.922 2.39503 6.39631 0
M  V30 1520 O 144.61 3.37517 7.29615 0
M  V30 1521 H 144.342 -0.044395 0.674541 0
M  V30 1522 H 146.896 0.518668 1.98744 0
M  V30 1523 H 145.126 -1.48706 3.56964 0
M  V30 1524 H 146.815 -1.20231 3.87685 0
M  V30 1525 H 147.581 1.13532 4.71525 0
M  V30 1526 H 143.46 -0.0862959 4.60919 0
M  V30 1527 H 147.004 2.89718 6.34594 0
M  V30 1528 H 142.901 1.66744 6.23592 0
M  V30 1529 H 143.669 3.33213 7.47604 0
M  V30 1530 N 146.332 -1.57332 0.0918853 0
M  V30 1531 C 147.28 -2.15075 -0.885747 0
M  V30 1532 C 148.274 -1.09277 -1.29441 0
M  V30 1533 O 149.48 -1.27627 -1.26931 0
M  V30 1534 H 145.855 -0.687966 -0.303656 0
M  V30 1535 H 147.826 -2.96047 -0.373995 0
M  V30 1536 C 146.575 -2.74325 -2.13638 0
M  V30 1537 H 145.898 -3.55418 -1.8308 0
M  V30 1538 H 147.338 -3.183 -2.80109 0
M  V30 1539 C 145.797 -1.70062 -2.90827 0
M  V30 1540 O 146.327 -1.13763 -3.85254 0
M  V30 1541 N 144.533 -1.40628 -2.54307 0
M  V30 1542 H 144.08 -1.866 -1.7759 0
M  V30 1543 H 144.038 -0.711043 -3.06254 0
M  V30 1544 N 147.81 0.181792 -1.56548 0
M  V30 1545 C 149.035 0.920019 -1.85877 0
M  V30 1546 C 149.46 1.75494 -0.677021 0
M  V30 1547 O 148.818 1.77399 0.374056 0
M  V30 1548 C 148.866 1.78112 -3.13542 0
M  V30 1549 O 147.97 2.88152 -2.95029 0
M  V30 1550 H 147.311 0.258334 -0.611686 0
M  V30 1551 H 149.841 0.183092 -2.03779 0
M  V30 1552 H 149.851 2.18314 -3.44678 0
M  V30 1553 H 148.526 1.16777 -3.99169 0
M  V30 1554 H 147.103 2.51609 -2.75222 0
M  V30 1555 N 149.288 1.51039 0.449983 0
M  V30 1556 C 150.704 1.38934 0.785462 0
M  V30 1557 C 150.904 0.461817 1.96136 0
M  V30 1558 O 149.96 -0.0877389 2.52348 0
M  V30 1559 C 151.273 2.80724 1.0777 0
M  V30 1560 C 152.821 2.89787 1.1829 0
M  V30 1561 C 153.296 4.32457 1.50815 0
M  V30 1562 N 154.787 4.35505 1.57764 0
M  V30 1563 C 155.522 5.42914 1.84477 0
M  V30 1564 N 155.018 6.60502 2.09068 0
M  V30 1565 N 156.811 5.3038 1.86155 0
M  V30 1566 H 148.962 2.09904 -0.324647 0
M  V30 1567 H 151.225 0.944378 -0.0827957 0
M  V30 1568 H 150.931 3.50531 0.286498 0
M  V30 1569 H 150.805 3.19273 2.00859 0
M  V30 1570 H 153.192 2.20186 1.96474 0
M  V30 1571 H 153.273 2.54752 0.231314 0
M  V30 1572 H 152.917 5.02603 0.731622 0
M  V30 1573 H 152.847 4.64995 2.47158 0
M  V30 1574 H 155.338 3.50724 1.40715 0
M  V30 1575 H 155.651 7.38158 2.28785 0
M  V30 1576 H 153.996 6.63639 2.06416 0
M  V30 1577 H 157.187 4.37505 1.66454 0
M  V30 1578 H 157.36 6.1417 2.06637 0
M  V30 1579 N 150.766 -0.704594 1.40972 0
M  V30 1580 C 151.994 -1.49354 1.43182 0
M  V30 1581 C 152.409 -1.88768 0.0345508 0
M  V30 1582 O 151.766 -1.56184 -0.944081 0
M  V30 1583 C 151.817 -2.76187 2.33244 0
M  V30 1584 O 151.538 -2.38436 3.67532 0
M  V30 1585 C 153.039 -3.7 2.44162 0
M  V30 1586 H 150.259 -0.460559 0.487982 0
M  V30 1587 H 152.803 -0.868261 1.85153 0
M  V30 1588 H 150.958 -3.34974 1.94606 0
M  V30 1589 H 151.372 -3.20126 4.15475 0
M  V30 1590 H 152.846 -4.55803 3.11364 0
M  V30 1591 H 153.323 -4.13867 1.47006 0
M  V30 1592 H 153.929 -3.17121 2.83398 0
M  V30 1593 N 152.244 -1.26651 -0.937939 0
M  V30 1594 C 153.174 -1.10993 -2.05433 0
M  V30 1595 C 154.155 -0.0142161 -1.70094 0
M  V30 1596 O 155.34 -0.186837 -1.93299 0
M  V30 1597 C 152.47 -0.745561 -3.39203 0
M  V30 1598 C 151.424 -1.79337 -3.88616 0
M  V30 1599 C 150.75 -1.28324 -5.19073 0
M  V30 1600 C 152.05 -3.19553 -4.13138 0
M  V30 1601 H 153.744 -2.0438 -2.1879 0
M  V30 1602 H 151.29 -0.984041 -1.05131 0
M  V30 1603 H 153.243 -0.622888 -4.16771 0
M  V30 1604 H 151.967 0.22401 -3.25831 0
M  V30 1605 H 150.626 -1.90477 -3.13231 0
M  V30 1606 H 150.274 -0.303414 -5.02084 0
M  V30 1607 H 149.974 -1.98369 -5.53103 0
M  V30 1608 H 151.498 -1.1733 -5.99221 0
M  V30 1609 H 152.912 -3.11471 -4.81309 0
M  V30 1610 H 151.309 -3.87218 -4.58457 0
M  V30 1611 H 152.379 -3.65368 -3.18801 0
M  V30 1612 N 153.722 1.14298 -1.08507 0
M  V30 1613 C 154.999 1.81544 -0.728088 0
M  V30 1614 C 155.379 1.95838 0.78808 0
M  V30 1615 O 154.727 1.51904 1.70697 0
M  V30 1616 C 154.937 3.17169 -1.45619 0
M  V30 1617 C 156.285 3.9265 -1.61591 0
M  V30 1618 O 157.309 3.26762 -1.41793 0
M  V30 1619 O 156.168 5.10807 -1.94263 0
M  V30 1620 H 153.262 0.78491 -0.260471 0
M  V30 1621 H 155.808 1.21307 -1.18671 0
M  V30 1622 H 154.58 3.01934 -2.489 0
M  V30 1623 H 154.203 3.851 -0.989124 0
M  V30 1624 N 155.201 0.870884 1.31352 0
M  V30 1625 C 156.149 0.316445 2.30437 0
M  V30 1626 C 157.143 -0.568965 1.59559 0
M  V30 1627 O 158.349 -0.454964 1.74155 0
M  V30 1628 H 154.724 0.0836521 0.747333 0
M  V30 1629 H 156.695 1.16606 2.74673 0
M  V30 1630 C 155.444 -0.46635 3.44558 0
M  V30 1631 H 154.767 0.205687 3.99271 0
M  V30 1632 H 156.207 -0.819614 4.16003 0
M  V30 1633 C 154.666 -1.65797 2.9328 0
M  V30 1634 O 155.196 -2.75728 2.92125 0
M  V30 1635 N 153.402 -1.49041 2.4947 0
M  V30 1636 H 152.949 -0.59612 2.50608 0
M  V30 1637 H 152.907 -2.28911 2.15516 0
M  V30 1638 N 156.679 -1.44442 0.630414 0
M  V30 1639 C 157.956 -1.9549 0.0655657 0
M  V30 1640 C 158.336 -1.5724 -1.40851 0
M  V30 1641 O 157.684 -0.846116 -2.12257 0
M  V30 1642 C 157.894 -3.47812 0.287691 0
M  V30 1643 C 159.242 -4.24216 0.180513 0
M  V30 1644 O 160.266 -3.55526 0.219019 0
M  V30 1645 O 159.125 -5.46434 0.0848493 0
M  V30 1646 H 156.219 -0.826688 -0.0227177 0
M  V30 1647 H 158.765 -1.54496 0.702068 0
M  V30 1648 H 157.537 -3.687 1.31056 0
M  V30 1649 H 157.16 -3.95751 -0.382984 0
M  V30 1650 N 158.157 -0.370918 -1.53173 0
M  V30 1651 C 159.406 0.218249 -2.00516 0
M  V30 1652 C 159.719 1.49429 -1.26215 0
M  V30 1653 O 160.925 2.16239 -1.64174 0
M  V30 1654 C 159.381 0.43948 -3.57207 0
M  V30 1655 C 158.989 -0.822244 -4.4039 0
M  V30 1656 C 160.733 0.986012 -4.1289 0
M  V30 1657 C 158.64 -0.570304 -5.88644 0
M  V30 1658 H 157.57 0.0853333 -0.749156 0
M  V30 1659 H 160.221 -0.490483 -1.76823 0
M  V30 1660 H 158.603 1.20961 -3.77074 0
M  V30 1661 H 159.777 -1.59557 -4.32294 0
M  V30 1662 H 158.092 -1.29238 -3.95836 0
M  V30 1663 H 160.689 1.18991 -5.21292 0
M  V30 1664 H 161.032 1.94972 -3.6782 0
M  V30 1665 H 161.565 0.27592 -3.96842 0
M  V30 1666 H 158.304 -1.50449 -6.38001 0
M  V30 1667 H 157.824 0.164427 -5.99575 0
M  V30 1668 H 159.503 -0.19784 -6.46697 0
M  V30 1669 N 159.635 1.57281 -0.100228 0
M  V30 1670 C 160.565 2.17328 0.853857 0
M  V30 1671 C 161.546 1.10804 1.2906 0
M  V30 1672 O 162.731 1.38963 1.35657 0
M  V30 1673 C 159.861 2.75772 2.11109 0
M  V30 1674 C 158.815 3.87713 1.81279 0
M  V30 1675 C 158.141 4.32882 3.13874 0
M  V30 1676 C 159.441 5.10677 1.09574 0
M  V30 1677 H 161.135 2.97305 0.353545 0
M  V30 1678 H 158.681 1.43009 0.168612 0
M  V30 1679 H 160.634 3.16433 2.78296 0
M  V30 1680 H 159.358 1.93057 2.63432 0
M  V30 1681 H 158.017 3.476 1.16489 0
M  V30 1682 H 157.665 3.47051 3.64095 0
M  V30 1683 H 157.365 5.08358 2.94696 0
M  V30 1684 H 158.889 4.7618 3.82211 0
M  V30 1685 H 160.303 5.48474 1.66879 0
M  V30 1686 H 158.7 5.91615 1.00557 0
M  V30 1687 H 159.77 4.84835 0.0793299 0
M  V30 1688 N 161.113 -0.173488 1.56642 0
M  V30 1689 C 162.043 -1.2171 1.99271 0
M  V30 1690 C 163.024 -1.46289 0.867959 0
M  V30 1691 O 164.209 -1.5766 1.13388 0
M  V30 1692 C 161.339 -2.55651 2.35074 0
M  V30 1693 C 160.293 -2.45645 3.50489 0
M  V30 1694 C 159.619 -3.84056 3.72028 0
M  V30 1695 C 160.919 -1.96302 4.84007 0
M  V30 1696 H 162.613 -0.86275 2.867 0
M  V30 1697 H 160.159 -0.413571 1.37933 0
M  V30 1698 H 162.112 -3.2886 2.63494 0
M  V30 1699 H 160.836 -2.92869 1.44552 0
M  V30 1700 H 159.495 -1.7489 3.22194 0
M  V30 1701 H 159.143 -4.18664 2.788 0
M  V30 1702 H 158.843 -3.7823 4.49684 0
M  V30 1703 H 160.367 -4.58854 4.02846 0
M  V30 1704 H 161.781 -2.59284 5.11317 0
M  V30 1705 H 160.178 -2.01429 5.65284 0
M  V30 1706 H 161.248 -0.917226 4.76146 0
M  V30 1707 N 162.591 -1.51276 -0.441967 0
M  V30 1708 C 163.84 -1.6295 -1.18871 0
M  V30 1709 C 164.153 -0.349312 -1.92456 0
M  V30 1710 O 165.359 -0.345355 -2.69295 0
M  V30 1711 C 163.815 -2.87759 -2.16155 0
M  V30 1712 C 163.423 -4.22764 -1.48239 0
M  V30 1713 C 165.167 -3.08788 -2.91291 0
M  V30 1714 C 163.074 -5.38728 -2.4398 0
M  V30 1715 H 162.004 -0.606913 -0.447406 0
M  V30 1716 H 164.655 -1.77739 -0.456205 0
M  V30 1717 H 163.037 -2.66593 -2.92821 0
M  V30 1718 H 164.211 -4.54293 -0.771635 0
M  V30 1719 H 162.526 -4.07575 -0.852741 0
M  V30 1720 H 165.123 -3.92599 -3.63002 0
M  V30 1721 H 165.466 -2.21679 -3.5237 0
M  V30 1722 H 165.999 -3.30272 -2.21733 0
M  V30 1723 H 162.738 -6.28082 -1.87598 0
M  V30 1724 H 162.258 -5.1158 -3.13123 0
M  V30 1725 H 163.937 -5.70489 -3.05207 0
M  V30 1726 N 164.069 0.697108 -1.41344 0
M  V30 1727 C 165.016 1.81106 -1.43071 0
M  V30 1728 C 165.986 1.63632 -0.285275 0
M  V30 1729 O 167.171 1.84504 -0.486091 0
M  V30 1730 C 164.311 3.18975 -1.31715 0
M  V30 1731 C 163.424 3.47892 -2.56115 0
M  V30 1732 C 162.559 4.75367 -2.37064 0
M  V30 1733 C 161.598 4.97247 -3.56948 0
M  V30 1734 N 160.735 6.15947 -3.36977 0
M  V30 1735 H 165.575 1.78965 -2.38276 0
M  V30 1736 H 163.112 0.873975 -1.18322 0
M  V30 1737 H 165.07 3.98615 -1.23133 0
M  V30 1738 H 163.7 3.20297 -0.401183 0
M  V30 1739 H 162.752 2.62669 -2.75153 0
M  V30 1740 H 164.064 3.59962 -3.45295 0
M  V30 1741 H 163.218 5.63059 -2.25941 0
M  V30 1742 H 161.957 4.65541 -1.45338 0
M  V30 1743 H 160.962 4.08004 -3.68527 0
M  V30 1744 H 162.187 5.08934 -4.49626 0
M  V30 1745 H 160.133 6.07336 -2.47949 0
M  V30 1746 H 160.05 6.28777 -4.19732 0
M  V30 1747 H 161.318 7.06377 -3.29623 0
M  V30 1748 N 165.547 1.27147 0.931209 0
M  V30 1749 C 166.477 1.12081 2.04842 0
M  V30 1750 C 167.458 0.0232364 1.70084 0
M  V30 1751 O 168.643 0.197085 1.93197 0
M  V30 1752 C 165.773 0.76354 3.38803 0
M  V30 1753 C 164.727 1.81396 3.87659 0
M  V30 1754 C 164.053 1.31075 5.18385 0
M  V30 1755 C 165.353 3.21739 4.11438 0
M  V30 1756 H 167.047 2.05537 2.17703 0
M  V30 1757 H 164.593 0.989603 1.04608 0
M  V30 1758 H 166.546 0.644982 4.16435 0
M  V30 1759 H 165.27 -0.206727 3.25945 0
M  V30 1760 H 163.929 1.92136 3.12217 0
M  V30 1761 H 163.577 0.330037 5.01916 0
M  V30 1762 H 163.277 2.013 5.52044 0
M  V30 1763 H 164.801 1.20506 5.98591 0
M  V30 1764 H 166.215 3.14019 4.79651 0
M  V30 1765 H 164.612 3.89644 4.56397 0
M  V30 1766 H 165.682 3.67054 3.16859 0
M  V30 1767 N 167.025 -1.13721 1.09112 0
M  V30 1768 C 168.25 -1.89314 0.847053 0
M  V30 1769 C 168.675 -1.78416 -0.595774 0
M  V30 1770 O 168.033 -1.12942 -1.41823 0
M  V30 1771 C 168.081 -3.3701 1.28284 0
M  V30 1772 O 167.185 -4.10054 0.439267 0
M  V30 1773 H 166.526 -0.588745 0.307044 0
M  V30 1774 H 169.056 -1.43902 1.45442 0
M  V30 1775 H 169.066 -3.87834 1.26683 0
M  V30 1776 H 167.741 -3.4426 2.33363 0
M  V30 1777 H 166.318 -3.69266 0.519312 0
M  V30 1778 N 168.503 -0.877838 -1.30888 0
M  V30 1779 C 169.728 -0.506629 -2.01117 0
M  V30 1780 C 170.153 0.895564 -1.65412 0
M  V30 1781 O 169.511 1.5923 -0.866922 0
M  V30 1782 C 169.559 -0.680223 -3.54126 0
M  V30 1783 O 168.663 0.277033 -4.11468 0
M  V30 1784 H 168.004 -0.200518 -0.633 0
M  V30 1785 H 170.534 -1.18342 -1.66902 0
M  V30 1786 H 170.544 -0.5765 -4.03907 0
M  V30 1787 H 169.219 -1.70261 -3.79452 0
M  V30 1788 H 167.796 0.127606 -3.72682 0
M  V30 1789 N 169.982 1.44106 -0.638065 0
M  V30 1790 C 171.393 1.85316 -0.226894 0
M  V30 1791 C 171.744 1.53399 1.22324 0
M  V30 1792 O 170.869 0.975463 1.93167 0
M  V30 1793 C 171.464 3.3637 -0.405013 0
M  V30 1794 C 170.023 3.76369 -0.0482902 0
M  V30 1795 C 169.17 2.67921 -0.715108 0
M  V30 1796 H 172.121 1.34474 -0.842764 0
M  V30 1797 H 172.142 3.7885 0.354 0
M  V30 1798 H 171.654 3.59569 -1.46053 0
M  V30 1799 H 169.755 3.58784 1.00522 0
M  V30 1800 H 169.868 4.76856 -0.463187 0
M  V30 1801 H 168.232 2.54259 -0.149753 0
M  V30 1802 H 169.015 2.93951 -1.77335 0
M  V30 1803 N 171.46 0.379036 1.52974 0
M  V30 1804 C 172.423 -0.448865 2.24762 0
M  V30 1805 C 173.423 -0.998689 1.26027 0
M  V30 1806 O 174.613 -0.882313 1.50203 0
M  V30 1807 C 171.745 -1.62872 2.99476 0
M  V30 1808 H 172.938 0.179491 2.99362 0
M  V30 1809 H 170.491 0.13096 1.5575 0
M  V30 1810 H 171.226 -2.29479 2.29151 0
M  V30 1811 H 171.011 -1.24128 3.71934 0
M  V30 1812 H 172.501 -2.2151 3.5401 0
M  V30 1813 N 172.938 -1.57226 0.108567 0
M  V30 1814 C 174.184 -1.95121 -0.552761 0
M  V30 1815 C 174.517 -0.991345 -1.66991 0
M  V30 1816 O 173.792 -0.0267211 -1.94482 0
M  V30 1817 C 174.075 -3.43039 -1.09528 0
M  V30 1818 C 173.928 -4.49797 0.0177332 0
M  V30 1819 C 175.247 -3.92567 -1.98945 0
M  V30 1820 H 172.366 -0.709496 -0.199461 0
M  V30 1821 H 175.008 -1.89126 0.182011 0
M  V30 1822 H 173.158 -3.48279 -1.72146 0
M  V30 1823 H 174.83 -4.56661 0.652584 0
M  V30 1824 H 173.073 -4.284 0.682309 0
M  V30 1825 H 173.744 -5.50528 -0.402919 0
M  V30 1826 H 176.22 -3.89565 -1.46214 0
M  V30 1827 H 175.096 -4.96605 -2.33827 0
M  V30 1828 H 175.357 -3.32648 -2.91201 0
M  V30 1829 N 174.416 0.165178 -1.56732 0
M  V30 1830 C 175.665 0.879143 -1.81532 0
M  V30 1831 C 175.978 1.83144 -0.686842 0
M  V30 1832 O 177.184 2.58823 -0.819944 0
M  V30 1833 C 175.64 1.61388 -3.21686 0
M  V30 1834 C 175.248 0.704904 -4.4242 0
M  V30 1835 C 176.992 2.3157 -3.55774 0
M  V30 1836 C 174.899 1.44022 -5.73595 0
M  V30 1837 H 173.829 0.332033 -0.676957 0
M  V30 1838 H 176.48 0.132008 -1.83025 0
M  V30 1839 H 174.862 2.40599 -3.14529 0
M  V30 1840 H 176.036 -0.0506815 -4.60772 0
M  V30 1841 H 174.351 0.112419 -4.16248 0
M  V30 1842 H 176.948 2.8719 -4.51028 0
M  V30 1843 H 177.291 3.07201 -2.8095 0
M  V30 1844 H 177.824 1.59297 -3.64513 0
M  V30 1845 H 174.563 0.72612 -6.51466 0
M  V30 1846 H 174.083 2.16898 -5.5921 0
M  V30 1847 H 175.762 1.98606 -6.15764 0
M  V30 1848 N 175.894 1.51508 0.433938 0
M  V30 1849 C 176.842 1.73646 1.54757 0
M  V30 1850 C 177.836 0.602854 1.5831 0
M  V30 1851 O 179.042 0.784318 1.62014 0
M  V30 1852 H 175.417 0.548718 0.51421 0
M  V30 1853 H 177.388 2.66991 1.33261 0
M  V30 1854 C 176.137 1.88172 2.92381 0
M  V30 1855 H 175.46 2.74808 2.90381 0
M  V30 1856 H 176.9 2.07672 3.6966 0
M  V30 1857 C 175.359 0.64239 3.30719 0
M  V30 1858 O 175.889 -0.201362 4.01195 0
M  V30 1859 N 174.095 0.485489 2.86516 0
M  V30 1860 H 173.642 1.17318 2.29334 0
M  V30 1861 H 173.6 -0.342482 3.12529 0
M  V30 1862 N 177.372 -0.689602 1.41712 0
M  V30 1863 C 178.597 -1.48329 1.44959 0
M  V30 1864 C 179.022 -1.8801 0.0581283 0
M  V30 1865 O 178.38 -1.55026 -0.940035 0
M  V30 1866 C 178.428 -2.71835 2.36935 0
M  V30 1867 O 177.532 -3.69549 1.8305 0
M  V30 1868 H 176.873 -0.446199 0.491734 0
M  V30 1869 H 179.403 -0.847127 1.86239 0
M  V30 1870 H 179.413 -3.20076 2.53013 0
M  V30 1871 H 178.088 -2.42291 3.38035 0
M  V30 1872 H 176.665 -3.2851 1.76452 0
M  V30 1873 N 178.85 -1.27639 -0.924453 0
M  V30 1874 C 180.266 -1.05113 -1.20097 0
M  V30 1875 C 180.466 0.213262 -2.00368 0
M  V30 1876 O 179.522 0.91787 -2.35226 0
M  V30 1877 C 180.835 -2.29244 -1.94596 0
M  V30 1878 C 182.383 -2.34315 -2.07522 0
M  V30 1879 C 182.858 -3.58183 -2.85427 0
M  V30 1880 N 184.349 -3.5876 -2.92994 0
M  V30 1881 C 185.084 -4.51277 -3.53746 0
M  V30 1882 N 184.58 -5.54102 -4.15863 0
M  V30 1883 N 186.373 -4.38894 -3.51181 0
M  V30 1884 H 178.524 -2.08821 -0.388264 0
M  V30 1885 H 180.787 -0.918568 -0.234385 0
M  V30 1886 H 180.493 -3.21301 -1.43034 0
M  V30 1887 H 180.367 -2.34816 -2.95197 0
M  V30 1888 H 182.754 -1.42762 -2.58269 0
M  V30 1889 H 182.835 -2.32744 -1.06131 0
M  V30 1890 H 182.479 -4.50074 -2.35363 0
M  V30 1891 H 182.409 -3.57006 -3.8711 0
M  V30 1892 H 184.9 -2.84398 -2.4885 0
M  V30 1893 H 185.213 -6.20859 -4.60168 0
M  V30 1894 H 183.558 -5.57941 -4.144 0
M  V30 1895 H 186.749 -3.57772 -3.01856 0
M  V30 1896 H 186.922 -5.11186 -3.98237 0
M  V30 1897 N 180.328 1.1314 -1.09713 0
M  V30 1898 C 181.574 1.84757 -0.836224 0
M  V30 1899 C 181.907 1.8347 0.636598 0
M  V30 1900 O 181.182 1.27491 1.46889 0
M  V30 1901 C 181.465 3.32782 -1.37578 0
M  V30 1902 C 181.318 3.42567 -2.91493 0
M  V30 1903 C 182.637 4.28307 -1.01198 0
M  V30 1904 H 179.756 0.67082 -0.305236 0
M  V30 1905 H 182.398 1.3278 -1.35903 0
M  V30 1906 H 180.548 3.77177 -0.931097 0
M  V30 1907 H 182.22 3.06862 -3.44432 0
M  V30 1908 H 180.463 2.83349 -3.28475 0
M  V30 1909 H 181.134 4.46674 -3.24324 0
M  V30 1910 H 183.61 3.91999 -1.39556 0
M  V30 1911 H 182.486 5.30307 -1.41653 0
M  V30 1912 H 182.747 4.42029 0.0794833 0
M  V30 1913 N 181.806 0.884767 1.30421 0
M  V30 1914 C 183.031 0.517288 2.00845 0
M  V30 1915 C 183.456 -0.886779 1.65885 0
M  V30 1916 O 182.814 -1.58768 0.875354 0
M  V30 1917 C 182.862 0.698994 3.5376 0
M  V30 1918 O 181.966 -0.255208 4.1161 0
M  V30 1919 H 181.307 0.203872 0.631927 0
M  V30 1920 H 183.837 1.19225 1.66272 0
M  V30 1921 H 183.847 0.597912 4.03595 0
M  V30 1922 H 182.522 1.72271 3.78544 0
M  V30 1923 H 181.099 -0.10784 3.72744 0
M  V30 1924 N 183.284 -1.43765 0.645699 0
M  V30 1925 C 184.247 -2.29163 -0.0409488 0
M  V30 1926 C 185.247 -1.41813 -0.757996 0
M  V30 1927 O 186.437 -1.63527 -0.600382 0
M  V30 1928 C 183.569 -3.23716 -1.06869 0
M  V30 1929 H 184.762 -2.91366 0.710345 0
M  V30 1930 H 182.315 -1.5092 0.406547 0
M  V30 1931 H 183.05 -2.66393 -1.84947 0
M  V30 1932 H 182.835 -3.88105 -0.558277 0
M  V30 1933 H 184.325 -3.87831 -1.54845 0
M  V30 1934 N 184.763 -0.387143 -1.52771 0
M  V30 1935 C 186.012 0.19697 -2.00736 0
M  V30 1936 C 186.325 1.48082 -1.27793 0
M  V30 1937 O 187.531 2.14485 -1.66458 0
M  V30 1938 C 185.987 0.401568 -3.57653 0
M  V30 1939 C 185.595 -0.868907 -4.39493 0
M  V30 1940 C 187.339 0.942164 -4.13912 0
M  V30 1941 C 185.246 -0.632705 -5.88006 0
M  V30 1942 H 184.176 0.0773827 -0.750019 0
M  V30 1943 H 186.827 -0.50921 -1.76293 0
M  V30 1944 H 185.209 1.16954 -3.78335 0
M  V30 1945 H 186.383 -1.64133 -4.30577 0
M  V30 1946 H 184.698 -1.33429 -3.94443 0
M  V30 1947 H 187.295 1.13455 -5.22525 0
M  V30 1948 H 187.638 1.9106 -3.69867 0
M  V30 1949 H 188.171 0.233814 -3.97112 0
M  V30 1950 H 184.91 -1.57208 -6.36369 0
M  V30 1951 H 184.43 0.100825 -5.99715 0
M  V30 1952 H 186.109 -0.26642 -6.46451 0
M  V30 1953 N 186.241 1.57166 -0.116904 0
M  V30 1954 C 187.466 1.999 0.55271 0
M  V30 1955 C 187.891 0.996039 1.59564 0
M  V30 1956 O 187.249 -0.032556 1.81271 0
M  V30 1957 C 187.297 3.4152 1.15742 0
M  V30 1958 O 186.401 3.44106 2.27299 0
M  V30 1959 H 185.742 0.649447 0.138258 0
M  V30 1960 H 188.272 2.03573 -0.204759 0
M  V30 1961 H 188.282 3.79684 1.49346 0
M  V30 1962 H 186.957 4.14034 0.393493 0
M  V30 1963 H 185.534 3.17759 1.9515 0
M  V30 1964 N 187.719 -0.156864 1.56817 0
M  V30 1965 C 188.649 -1.19589 2.00551 0
M  V30 1966 C 189.63 -1.4536 0.883426 0
M  V30 1967 O 190.815 -1.56449 1.15054 0
M  V30 1968 C 187.945 -2.53143 2.37773 0
M  V30 1969 C 186.899 -2.41913 3.53075 0
M  V30 1970 C 186.225 -3.80088 3.76081 0
M  V30 1971 C 187.525 -1.91157 4.86062 0
M  V30 1972 H 189.219 -0.832293 2.87599 0
M  V30 1973 H 186.765 -0.398918 1.38364 0
M  V30 1974 H 188.718 -3.26047 2.66967 0
M  V30 1975 H 187.442 -2.91319 1.4765 0
M  V30 1976 H 186.101 -1.71462 3.24031 0
M  V30 1977 H 185.749 -4.15683 2.83225 0
M  V30 1978 H 185.449 -3.73439 4.53671 0
M  V30 1979 H 186.973 -4.54556 4.0769 0
M  V30 1980 H 188.387 -2.53846 5.14038 0
M  V30 1981 H 186.784 -1.95422 5.67389 0
M  V30 1982 H 187.854 -0.866673 4.77092 0
M  V30 1983 N 189.197 -1.51736 -0.425897 0
M  V30 1984 C 190.608 -1.5732 -1.00536 0
M  V30 1985 C 190.959 -0.403537 -1.92005 0
M  V30 1986 O 190.084 0.478256 -2.11049 0
M  V30 1987 C 190.679 -2.85119 -1.8301 0
M  V30 1988 C 189.238 -2.93236 -2.35987 0
M  V30 1989 C 188.385 -2.52098 -1.15508 0
M  V30 1990 H 191.336 -1.57348 -0.206739 0
M  V30 1991 H 191.357 -2.69526 -2.68581 0
M  V30 1992 H 190.869 -3.7023 -1.16411 0
M  V30 1993 H 188.97 -2.12581 -3.06007 0
M  V30 1994 H 189.083 -3.9713 -2.68001 0
M  V30 1995 H 187.447 -2.05558 -1.50393 0
M  V30 1996 H 188.23 -3.39565 -0.505014 0
M  V30 1997 N 190.675 0.682077 -1.42076 0
M  V30 1998 C 191.903 1.47057 -1.4554 0
M  V30 1999 C 192.318 1.8869 -0.0645779 0
M  V30 2000 O 191.675 1.57666 0.919115 0
M  V30 2001 C 191.726 2.72442 -2.37609 0
M  V30 2002 O 191.447 2.32559 -3.71279 0
M  V30 2003 C 192.948 3.66069 -2.50017 0
M  V30 2004 H 190.168 0.452737 -0.495248 0
M  V30 2005 H 192.712 0.838695 -1.8651 0
M  V30 2006 H 190.867 3.31835 -1.9991 0
M  V30 2007 H 191.281 3.13475 -4.20516 0
M  V30 2008 H 192.755 4.50792 -3.18576 0
M  V30 2009 H 193.232 4.11476 -1.53572 0
M  V30 2010 H 193.838 3.12572 -2.88407 0
M  V30 2011 N 192.153 1.28127 0.917671 0
M  V30 2012 C 193.116 1.11744 2.00115 0
M  V30 2013 C 194.116 0.0583052 1.60694 0
M  V30 2014 O 195.306 0.303755 1.71531 0
M  V30 2015 C 192.438 0.704862 3.33533 0
M  V30 2016 H 193.631 2.07966 2.16079 0
M  V30 2017 H 191.184 1.11058 1.09981 0
M  V30 2018 H 191.919 -0.258299 3.2327 0
M  V30 2019 H 191.704 1.4699 3.63505 0
M  V30 2020 H 193.194 0.612768 4.1308 0
M  V30 2021 N 193.631 -1.12557 1.10312 0
M  V30 2022 C 195.042 -1.65574 0.862678 0
M  V30 2023 C 195.393 -1.86566 -0.607256 0
M  V30 2024 O 194.518 -1.59121 -1.46662 0
M  V30 2025 C 195.113 -3.00776 1.55947 0
M  V30 2026 C 193.672 -3.50748 1.36576 0
M  V30 2027 C 192.819 -2.25797 1.60968 0
M  V30 2028 H 195.77 -0.963552 1.26101 0
M  V30 2029 H 195.791 -3.67185 0.997753 0
M  V30 2030 H 195.303 -2.85465 2.62928 0
M  V30 2031 H 193.404 -3.71245 0.317531 0
M  V30 2032 H 193.517 -4.30289 2.10686 0
M  V30 2033 H 191.881 -2.32841 1.03234 0
M  V30 2034 H 192.664 -2.13043 2.69198 0
M  V30 2035 N 195.109 -0.891671 -1.2995 0
M  V30 2036 C 196.52 -0.563104 -1.78006 0
M  V30 2037 C 196.871 0.920978 -1.73241 0
M  V30 2038 O 195.996 1.71987 -1.31337 0
M  V30 2039 C 196.591 -1.01539 -3.23226 0
M  V30 2040 C 195.15 -0.738124 -3.69092 0
M  V30 2041 C 194.297 -1.19461 -2.50249 0
M  V30 2042 H 197.248 -1.07522 -1.16725 0
M  V30 2043 H 197.269 -0.347217 -3.78912 0
M  V30 2044 H 196.781 -2.09555 -3.26662 0
M  V30 2045 H 194.882 0.329766 -3.71138 0
M  V30 2046 H 194.995 -1.33037 -4.60259 0
M  V30 2047 H 193.359 -0.613787 -2.47194 0
M  V30 2048 H 194.142 -2.28265 -2.56417 0
M  V30 2049 N 196.587 1.43421 -0.653314 0
M  V30 2050 C 197.55 2.29182 0.0287951 0
M  V30 2051 C 198.55 1.42213 0.750465 0
M  V30 2052 O 199.74 1.63843 0.591701 0
M  V30 2053 C 196.872 3.24278 1.05151 0
M  V30 2054 H 198.065 2.90985 -0.725786 0
M  V30 2055 H 195.618 1.50702 -0.414545 0
M  V30 2056 H 196.353 2.6737 1.83532 0
M  V30 2057 H 196.138 3.88396 0.537687 0
M  V30 2058 H 197.628 3.88647 1.52786 0
M  V30 2059 N 198.065 0.39524 1.52563 0
M  V30 2060 C 199.028 -0.425001 2.25225 0
M  V30 2061 C 200.028 -0.985266 1.27079 0
M  V30 2062 O 201.218 -0.866332 1.5113 0
M  V30 2063 C 198.35 -1.59686 3.01186 0
M  V30 2064 H 199.543 0.211233 2.99155 0
M  V30 2065 H 197.096 0.147472 1.55603 0
M  V30 2066 H 197.831 -2.27035 2.31572 0
M  V30 2067 H 197.616 -1.20176 3.73229 0
M  V30 2068 H 199.106 -2.17743 3.5634 0
M  V30 2069 N 199.544 -1.57102 0.125237 0
M  V30 2070 C 200.792 -1.95021 -0.530198 0
M  V30 2071 C 201.113 -1.00982 -1.66816 0
M  V30 2072 O 200.383 -0.0672693 -1.95784 0
M  V30 2073 H 198.963 -0.720046 -0.198853 0
M  V30 2074 H 201.625 -1.93916 0.19564 0
M  V30 2075 H 200.721 -2.98211 -0.920681 0
M  V30 2076 N 201.022 0.148545 -1.56898 0
M  V30 2077 C 202.25 0.876389 -1.87422 0
M  V30 2078 C 202.665 1.74809 -0.713256 0
M  V30 2079 O 202.022 1.79725 0.317025 0
M  V30 2080 C 202.073 1.73438 -3.17178 0
M  V30 2081 O 201.794 0.897809 -4.28802 0
M  V30 2082 C 203.295 2.56993 -3.61205 0
M  V30 2083 H 200.515 0.253489 -0.621277 0
M  V30 2084 H 203.059 0.141798 -2.04008 0
M  V30 2085 H 201.214 2.42205 -3.0235 0
M  V30 2086 H 201.628 1.48672 -5.02988 0
M  V30 2087 H 203.102 3.12773 -4.54838 0
M  V30 2088 H 203.579 3.32958 -2.86419 0
M  V30 2089 H 204.185 1.9352 -3.78722 0
M  V30 2090 N 202.5 1.5196 0.417844 0
M  V30 2091 C 203.41 1.77554 1.53336 0
M  V30 2092 C 204.426 0.660655 1.6097 0
M  V30 2093 O 205.602 0.945099 1.77848 0
M  V30 2094 C 202.667 1.91291 2.89152 0
M  V30 2095 C 201.728 3.15183 2.91475 0
M  V30 2096 C 200.961 3.28256 4.20813 0
M  V30 2097 O 201.184 2.46798 5.14244 0
M  V30 2098 O 200.118 4.21356 4.29817 0
M  V30 2099 H 203.944 2.7222 1.34647 0
M  V30 2100 H 201.529 1.36698 0.602828 0
M  V30 2101 H 203.411 2.02199 3.69721 0
M  V30 2102 H 202.086 0.998129 3.07927 0
M  V30 2103 H 200.993 3.09739 2.09791 0
M  V30 2104 H 202.326 4.06414 2.77648 0
M  V30 2105 N 203.978 -0.674533 1.42435 0
M  V30 2106 C 205.203 -1.46784 1.46524 0
M  V30 2107 C 205.628 -1.87938 0.078066 0
M  V30 2108 O 204.986 -1.56014 -0.92354 0
M  V30 2109 C 205.034 -2.69307 2.39805 0
M  V30 2110 O 204.138 -3.67587 1.86959 0
M  V30 2111 H 203.479 -0.440959 0.496439 0
M  V30 2112 H 206.009 -0.827326 1.87127 0
M  V30 2113 H 206.019 -3.17374 2.56393 0
M  V30 2114 H 204.694 -2.38692 3.40586 0
M  V30 2115 H 203.271 -3.2662 1.79927 0
M  V30 2116 N 205.456 -1.28612 -0.910864 0
M  V30 2117 C 206.386 -1.15326 -2.03032 0
M  V30 2118 C 207.367 -0.0502924 -1.70026 0
M  V30 2119 O 208.552 -0.227797 -1.92859 0
M  V30 2120 C 205.682 -0.817343 -3.37545 0
M  V30 2121 C 204.636 -1.8754 -3.84724 0
M  V30 2122 C 203.962 -1.39305 -5.16235 0
M  V30 2123 C 205.262 -3.28244 -4.06267 0
M  V30 2124 H 206.956 -2.08975 -2.14406 0
M  V30 2125 H 204.502 -1.00612 -1.03021 0
M  V30 2126 H 206.455 -0.711151 -4.15356 0
M  V30 2127 H 205.179 0.154846 -3.26233 0
M  V30 2128 H 203.838 -1.97079 -3.09121 0
M  V30 2129 H 203.486 -0.409846 -5.01328 0
M  V30 2130 H 203.186 -2.10057 -5.48771 0
M  V30 2131 H 204.71 -1.30014 -5.96598 0
M  V30 2132 H 206.124 -3.21611 -4.74594 0
M  V30 2133 H 204.521 -3.96855 -4.5014 0
M  V30 2134 H 205.591 -3.72048 -3.10979 0
M  V30 2135 N 206.934 1.1197 -1.10907 0
M  V30 2136 C 208.183 1.82947 -0.849302 0
M  V30 2137 C 208.496 1.85275 0.627112 0
M  V30 2138 O 209.702 2.52296 1.00295 0
M  V30 2139 C 208.158 3.28529 -1.46959 0
M  V30 2140 C 207.766 3.34546 -2.97965 0
M  V30 2141 C 209.51 4.04443 -1.28942 0
M  V30 2142 C 207.417 4.74491 -3.53004 0
M  V30 2143 H 206.347 0.685477 -0.314065 0
M  V30 2144 H 208.998 1.2604 -1.33365 0
M  V30 2145 H 207.38 3.85333 -0.912917 0
M  V30 2146 H 208.554 2.87654 -3.59989 0
M  V30 2147 H 206.869 2.72108 -3.15192 0
M  V30 2148 H 209.466 5.07787 -1.67502 0
M  V30 2149 H 209.809 4.15656 -0.231456 0
M  V30 2150 H 210.342 3.5401 -1.81443 0
M  V30 2151 H 207.081 4.68474 -4.58489 0
M  V30 2152 H 206.601 5.21816 -2.9575 0
M  V30 2153 H 208.28 5.4344 -3.51115 0
M  V30 2154 N 208.412 0.89855 1.29475 0
M  V30 2155 C 209.637 0.538561 2.00285 0
M  V30 2156 C 210.062 -0.869135 1.66816 0
M  V30 2157 O 209.42 -1.57831 0.892145 0
M  V30 2158 C 209.468 0.736475 3.52999 0
M  V30 2159 O 208.572 -0.211537 4.11857 0
M  V30 2160 H 207.913 0.210563 0.62973 0
M  V30 2161 H 210.443 1.20982 1.64998 0
M  V30 2162 H 210.453 0.640685 4.02938 0
M  V30 2163 H 209.128 1.76276 3.76696 0
M  V30 2164 H 207.705 -0.0682991 3.72837 0
M  V30 2165 N 209.89 -1.43072 0.660911 0
M  V30 2166 C 211.138 -2.01323 0.177094 0
M  V30 2167 C 211.459 -1.5245 -1.2159 0
M  V30 2168 O 210.729 -0.740322 -1.81373 0
M  V30 2169 H 209.309 -0.744382 0.0624804 0
M  V30 2170 H 211.971 -1.75179 0.854305 0
M  V30 2171 H 211.067 -3.11649 0.167641 0
M  V30 2172 N 211.368 -0.403325 -1.52352 0
M  V30 2173 C 212.614 0.167015 -2.02713 0
M  V30 2174 C 212.969 1.43296 -1.28391 0
M  V30 2175 O 212.262 1.87796 -0.379885 0
M  V30 2176 C 212.456 0.474665 -3.54234 0
M  V30 2177 C 212.285 -0.759909 -4.43233 0
M  V30 2178 C 211.055 -1.28338 -4.88731 0
M  V30 2179 C 213.253 -1.63634 -4.87574 0
M  V30 2180 N 211.235 -2.47404 -5.6184 0
M  V30 2181 C 212.606 -2.67329 -5.59406 0
M  V30 2182 C 214.661 -1.65478 -4.69597 0
M  V30 2183 C 213.364 -3.72773 -6.15169 0
M  V30 2184 C 215.39 -2.69837 -5.26253 0
M  V30 2185 C 214.752 -3.72253 -5.98002 0
M  V30 2186 H 210.851 0.0228343 -0.781667 0
M  V30 2187 H 213.435 -0.556368 -1.86581 0
M  V30 2188 H 211.606 1.16709 -3.7045 0
M  V30 2189 H 213.338 1.03338 -3.91284 0
M  V30 2190 H 210.093 -0.842273 -4.6605 0
M  V30 2191 H 210.517 -3.07688 -6.0304 0
M  V30 2192 H 215.159 -0.876389 -4.13617 0
M  V30 2193 H 212.877 -4.51471 -6.70223 0
M  V30 2194 H 216.463 -2.72164 -5.14216 0
M  V30 2195 H 215.343 -4.51679 -6.41058 0
M  V30 2196 N 212.846 1.57033 -0.133567 0
M  V30 2197 C 214.094 1.953 0.519848 0
M  V30 2198 C 214.415 1.01866 1.66278 0
M  V30 2199 O 213.685 0.0776513 1.95746 0
M  V30 2200 H 212.265 0.721091 0.195032 0
M  V30 2201 H 214.927 1.93809 -0.205921 0
M  V30 2202 H 214.023 2.98695 0.904854 0
M  V30 2203 N 214.325 -0.140222 1.56975 0
M  V30 2204 C 215.273 -1.19207 1.99731 0
M  V30 2205 C 216.267 -1.44089 0.890777 0
M  V30 2206 O 217.473 -1.44301 1.07597 0
M  V30 2207 H 213.848 -0.40142 0.635898 0
M  V30 2208 H 215.819 -0.804813 2.87342 0
M  V30 2209 C 214.568 -2.51617 2.39967 0
M  V30 2210 H 213.891 -2.33303 3.24669 0
M  V30 2211 H 215.331 -3.23827 2.73701 0
M  V30 2212 C 213.79 -3.12654 1.25496 0
M  V30 2213 O 214.32 -3.97786 0.559371 0
M  V30 2214 N 212.526 -2.72206 1.01746 0
M  V30 2215 H 212.073 -2.03074 1.58489 0
M  V30 2216 H 212.031 -3.13377 0.253461 0
M  V30 2217 N 215.803 -1.52179 -0.40978 0
M  V30 2218 C 217.031 -1.70054 -1.17853 0
M  V30 2219 C 217.446 -0.409735 -1.843 0
M  V30 2220 O 216.803 0.614183 -1.71855 0
M  V30 2221 C 216.854 -2.83568 -2.24213 0
M  V30 2222 O 216.575 -4.0765 -1.60478 0
M  V30 2223 C 218.076 -3.12947 -3.13973 0
M  V30 2224 H 215.296 -0.569917 -0.354169 0
M  V30 2225 H 217.84 -1.98734 -0.482198 0
M  V30 2226 H 215.995 -2.57409 -2.89516 0
M  V30 2227 H 216.409 -4.70899 -2.30986 0
M  V30 2228 H 217.883 -3.95889 -3.84677 0
M  V30 2229 H 218.36 -2.26472 -3.76307 0
M  V30 2230 H 218.966 -3.40868 -2.5434 0
M  V30 2231 N 217.281 0.66697 -1.42791 0
M  V30 2232 C 218.211 1.79218 -1.49677 0
M  V30 2233 C 219.192 1.66405 -0.352623 0
M  V30 2234 O 220.377 1.85708 -0.567993 0
M  V30 2235 C 217.507 3.17565 -1.40605 0
M  V30 2236 C 216.461 3.45124 -2.53127 0
M  V30 2237 C 215.787 4.83127 -2.29112 0
M  V30 2238 C 217.087 3.41236 -3.95418 0
M  V30 2239 H 218.781 1.73713 -2.43853 0
M  V30 2240 H 216.327 0.83432 -1.17367 0
M  V30 2241 H 218.28 3.96022 -1.44029 0
M  V30 2242 H 217.004 3.23767 -0.429271 0
M  V30 2243 H 215.663 2.69031 -2.49034 0
M  V30 2244 H 215.311 4.85988 -1.29709 0
M  V30 2245 H 215.011 5.02528 -3.04531 0
M  V30 2246 H 216.535 5.63859 -2.34297 0
M  V30 2247 H 217.949 4.09651 -4.01073 0
M  V30 2248 H 216.346 3.72173 -4.70752 0
M  V30 2249 H 217.416 2.39665 -4.21532 0
M  V30 2250 N 218.759 1.29093 0.90403 0
M  V30 2251 C 219.984 1.19809 1.69294 0
M  V30 2252 C 220.409 -0.238481 1.86582 0
M  V30 2253 O 219.767 -1.1723 1.383 0
M  V30 2254 C 219.815 1.91202 3.05736 0
M  V30 2255 O 218.919 1.22611 3.93752 0
M  V30 2256 H 218.26 0.415385 0.518027 0
M  V30 2257 H 220.79 1.70586 1.12967 0
M  V30 2258 H 220.8 1.99487 3.55906 0
M  V30 2259 H 219.475 2.95692 2.92471 0
M  V30 2260 H 218.052 1.22554 3.52186 0
M  V30 2261 N 220.237 -1.11381 1.11499 0
M  V30 2262 C 221.462 -1.87475 0.887019 0
M  V30 2263 C 221.887 -1.79639 -0.557796 0
M  V30 2264 O 221.245 -1.15924 -1.39396 0
M  V30 2265 C 221.293 -3.34213 1.35403 0
M  V30 2266 O 220.397 -4.0903 0.526146 0
M  V30 2267 H 219.738 -0.582099 0.319463 0
M  V30 2268 H 222.268 -1.40785 1.48461 0
M  V30 2269 H 222.278 -3.8506 1.34881 0
M  V30 2270 H 220.953 -3.39232 2.40612 0
M  V30 2271 H 219.53 -3.68082 0.597522 0
M  V30 2272 N 221.715 -0.905404 -1.28997 0
M  V30 2273 C 222.963 -0.533192 -1.9494 0
M  V30 2274 C 223.284 0.924618 -1.71685 0
M  V30 2275 O 222.554 1.65268 -1.05183 0
M  V30 2276 H 221.134 -0.194194 -0.721317 0
M  V30 2277 H 223.796 -1.15294 -1.57141 0
M  V30 2278 H 222.892 -0.72059 -3.03667 0
M  V30 2279 N 223.193 1.4272 -0.668489 0
M  V30 2280 C 224.156 2.292 0.00448567 0
M  V30 2281 C 225.156 1.43001 0.735339 0
M  V30 2282 O 226.346 1.64461 0.57429 0
M  V30 2283 C 223.478 3.25375 1.01705 0
M  V30 2284 H 224.671 2.90199 -0.756608 0
M  V30 2285 H 222.224 1.50254 -0.430506 0
M  V30 2286 H 222.959 2.69301 1.80686 0
M  V30 2287 H 222.744 3.88944 0.496463 0
M  V30 2288 H 224.234 3.90245 1.48655 0
M  V30 2289 N 224.671 0.411399 1.52136 0
M  V30 2290 C 225.948 -0.222308 1.94333 0
M  V30 2291 C 226.328 -1.6242 1.34844 0
M  V30 2292 O 225.676 -2.22384 0.525145 0
M  V30 2293 C 225.886 -0.226345 3.48265 0
M  V30 2294 C 227.234 -0.444592 4.22266 0
M  V30 2295 O 228.258 -0.305602 3.54887 0
M  V30 2296 O 227.117 -0.718749 5.41753 0
M  V30 2297 H 224.211 -0.143907 0.814383 0
M  V30 2298 H 226.757 0.467506 1.63133 0
M  V30 2299 H 225.529 0.75475 3.83952 0
M  V30 2300 H 225.152 -0.960163 3.85832 0
M  V30 2301 N 226.149 -1.5696 0.141893 0
M  V30 2302 C 227.379 -2.00031 -0.516828 0
M  V30 2303 C 227.787 -1.02091 -1.59293 0
M  V30 2304 O 227.13 -0.00909657 -1.83698 0
M  V30 2305 C 227.192 -3.39534 -1.1814 0
M  V30 2306 C 226.856 -4.56313 -0.250513 0
M  V30 2307 C 227.853 -5.17295 0.519839 0
M  V30 2308 C 225.538 -5.02061 -0.154907 0
M  V30 2309 C 227.532 -6.2243 1.3733 0
M  V30 2310 C 225.219 -6.07053 0.702161 0
M  V30 2311 C 226.217 -6.67106 1.46487 0
M  V30 2312 O 225.905 -7.70066 2.30767 0
M  V30 2313 H 225.637 -0.661451 -0.139493 0
M  V30 2314 H 228.191 -2.04086 0.231926 0
M  V30 2315 H 226.421 -3.32302 -1.97769 0
M  V30 2316 H 228.11 -3.66745 -1.73933 0
M  V30 2317 H 228.876 -4.82852 0.45598 0
M  V30 2318 H 224.755 -4.5505 -0.7383 0
M  V30 2319 H 228.299 -6.69233 1.96909 0
M  V30 2320 H 224.196 -6.40923 0.76733 0
M  V30 2321 H 224.964 -7.87264 2.23959 0
M  V30 2322 N 227.627 0.131896 -1.57047 0
M  V30 2323 C 229.038 0.690407 -1.73465 0
M  V30 2324 C 229.389 1.8094 -0.758629 0
M  V30 2325 O 228.514 2.16282 0.0713813 0
M  V30 2326 C 229.109 1.25916 -3.14532 0
M  V30 2327 C 227.668 1.76409 -3.32501 0
M  V30 2328 C 226.815 0.658579 -2.69366 0
M  V30 2329 H 229.766 -0.0939144 -1.58422 0
M  V30 2330 H 229.787 2.12892 -3.15369 0
M  V30 2331 H 229.299 0.444515 -3.85546 0
M  V30 2332 H 227.4 2.60391 -2.66509 0
M  V30 2333 H 227.513 1.88241 -4.4057 0
M  V30 2334 H 225.877 1.08899 -2.30246 0
M  V30 2335 H 226.66 -0.14487 -3.42994 0
M  V30 2336 N 229.106 1.52395 0.401703 0
M  V30 2337 C 230.383 1.57387 1.16141 0
M  V30 2338 C 230.763 0.359359 2.08019 0
M  V30 2339 O 230.111 -0.65326 2.18963 0
M  V30 2340 C 230.321 2.90631 1.93221 0
M  V30 2341 C 231.669 3.43904 2.49028 0
M  V30 2342 O 232.693 2.92421 2.03393 0
M  V30 2343 O 231.552 4.33823 3.32356 0
M  V30 2344 H 228.646 0.634262 0.530698 0
M  V30 2345 H 231.192 1.64725 0.407883 0
M  V30 2346 H 229.964 3.70473 1.25958 0
M  V30 2347 H 229.587 2.8662 2.75563 0
M  V30 2348 N 230.584 -0.659388 1.43143 0
M  V30 2349 C 231.494 -1.80167 1.50256 0
M  V30 2350 C 232.51 -1.69571 0.390106 0
M  V30 2351 O 233.686 -1.90849 0.643319 0
M  V30 2352 C 230.751 -3.16409 1.41725 0
M  V30 2353 C 229.812 -3.38848 2.63591 0
M  V30 2354 C 229.045 -4.68591 2.55458 0
M  V30 2355 O 229.268 -5.47532 1.59891 0
M  V30 2356 O 228.202 -4.92614 3.45854 0
M  V30 2357 H 232.028 -1.77121 2.46702 0
M  V30 2358 H 229.613 -0.817092 1.25076 0
M  V30 2359 H 231.495 -3.9768 1.39387 0
M  V30 2360 H 230.17 -3.20059 0.484118 0
M  V30 2361 H 229.077 -2.57366 2.71502 0
M  V30 2362 H 230.41 -3.4004 3.55856 0
M  V30 2363 N 232.062 -1.29571 -0.897171 0
M  V30 2364 C 232.992 -1.17473 -2.01798 0
M  V30 2365 C 233.973 -0.068323 -1.69963 0
M  V30 2366 O 235.158 -0.248239 -1.92607 0
M  V30 2367 C 232.288 -0.853099 -3.36659 0
M  V30 2368 C 231.242 -1.9161 -3.82713 0
M  V30 2369 C 230.568 -1.44773 -5.14728 0
M  V30 2370 C 231.868 -3.32535 -4.02763 0
M  V30 2371 H 233.562 -2.11237 -2.12177 0
M  V30 2372 H 231.108 -1.01699 -1.01948 0
M  V30 2373 H 233.061 -0.755165 -4.14578 0
M  V30 2374 H 231.785 0.120236 -3.26379 0
M  V30 2375 H 230.444 -2.00346 -3.07013 0
M  V30 2376 H 230.092 -0.462995 -5.00865 0
M  V30 2377 H 229.792 -2.15865 -5.46513 0
M  V30 2378 H 231.316 -1.36334 -5.95185 0
M  V30 2379 H 232.73 -3.26626 -4.71156 0
M  V30 2380 H 231.127 -4.01607 -4.45905 0
M  V30 2381 H 232.197 -3.75326 -3.07016 0
M  V30 2382 N 233.54 1.10788 -1.12088 0
M  V30 2383 C 234.472 2.16816 -0.743213 0
M  V30 2384 C 235.485 1.6119 0.228412 0
M  V30 2385 O 236.674 1.78497 0.0102931 0
M  V30 2386 C 233.774 3.38809 -0.0787313 0
M  V30 2387 C 232.947 4.23885 -1.0789 0
M  V30 2388 C 232.006 5.24334 -0.442713 0
M  V30 2389 O 231.032 5.58497 -1.09864 0
M  V30 2390 N 232.234 5.75079 0.791457 0
M  V30 2391 H 234.999 2.49825 -1.65552 0
M  V30 2392 H 232.56 1.26373 -1.012 0
M  V30 2393 H 234.552 4.03107 0.358766 0
M  V30 2394 H 233.122 3.03805 0.736275 0
M  V30 2395 H 232.342 3.55939 -1.69414 0
M  V30 2396 H 233.63 4.77562 -1.75533 0
M  V30 2397 H 233.028 5.49517 1.3434 0
M  V30 2398 H 231.585 6.4118 1.17183 0
M  V30 2399 N 235.018 0.912232 1.28515 0
M  V30 2400 C 236.258 0.551677 1.96814 0
M  V30 2401 C 236.622 -0.887825 1.7024 0
M  V30 2402 O 237.823 -1.35588 2.32098 0
M  V30 2403 C 236.094 0.850555 3.47132 0
M  V30 2404 S 237.653 0.59619 4.34731 0
M  V30 2405 H 234.471 0.204191 0.681049 0
M  V30 2406 H 237.073 1.17736 1.56072 0
M  V30 2407 H 235.777 1.8962 3.63968 0
M  V30 2408 H 235.308 0.213471 3.9282 0
M  V30 2409 H 237.323 -0.553154 4.93107 0
M  V30 2410 N 236.496 -1.42363 0.676048 0
M  V30 2411 C 237.426 -2.33497 0.0124832 0
M  V30 2412 C 238.407 -1.50748 -0.787981 0
M  V30 2413 O 239.592 -1.79346 -0.744884 0
M  V30 2414 C 236.722 -3.34377 -0.938582 0
M  V30 2415 C 235.676 -4.27289 -0.246622 0
M  V30 2416 C 235.002 -5.18386 -1.31071 0
M  V30 2417 C 236.302 -5.14916 0.875125 0
M  V30 2418 H 237.996 -2.89233 0.773593 0
M  V30 2419 H 235.542 -1.39073 0.37346 0
M  V30 2420 H 237.495 -3.97044 -1.41188 0
M  V30 2421 H 236.219 -2.76947 -1.73113 0
M  V30 2422 H 234.878 -3.66018 0.206456 0
M  V30 2423 H 234.526 -4.57282 -2.09528 0
M  V30 2424 H 234.226 -5.81378 -0.852839 0
M  V30 2425 H 235.75 -5.83929 -1.78492 0
M  V30 2426 H 237.164 -5.71262 0.482983 0
M  V30 2427 H 235.561 -5.86747 1.25887 0
M  V30 2428 H 236.631 -4.53242 1.72335 0
M  V30 2429 N 237.974 -0.419461 -1.51915 0
M  V30 2430 C 239.251 0.211999 -1.94448 0
M  V30 2431 C 239.631 1.61703 -1.35703 0
M  V30 2432 O 238.979 2.22102 -0.536931 0
M  V30 2433 C 239.189 0.207872 -3.4838 0
M  V30 2434 C 240.537 0.422192 -4.22496 0
M  V30 2435 O 241.561 0.286778 -3.55044 0
M  V30 2436 O 240.42 0.690009 -5.42126 0
M  V30 2437 H 237.514 0.139586 -0.815135 0
M  V30 2438 H 240.06 -0.476151 -1.62883 0
M  V30 2439 H 238.832 -0.775102 -3.83546 0
M  V30 2440 H 238.455 0.939688 -3.86336 0
M  V30 2441 N 239.452 1.56882 -0.150215 0
M  V30 2442 C 240.415 2.1573 0.774157 0
M  V30 2443 C 241.415 1.0999 1.17298 0
M  V30 2444 O 242.605 1.35613 1.09338 0
M  V30 2445 C 239.737 2.72302 2.05096 0
M  V30 2446 H 240.93 2.98752 0.262201 0
M  V30 2447 H 238.483 1.55985 0.099248 0
M  V30 2448 H 239.218 1.92956 2.6065 0
M  V30 2449 H 239.003 3.49665 1.77416 0
M  V30 2450 H 240.493 3.17632 2.71109 0
M  V30 2451 N 240.93 -0.123565 1.57115 0
M  V30 2452 C 242.341 -0.681198 1.73829 0
M  V30 2453 C 242.692 -1.80535 0.768214 0
M  V30 2454 O 241.817 -2.16317 -0.0599103 0
M  V30 2455 C 242.412 -1.24246 3.15196 0
M  V30 2456 C 240.971 -1.74643 3.33432 0
M  V30 2457 C 240.118 -0.644284 2.69711 0
M  V30 2458 H 243.069 0.102315 1.5837 0
M  V30 2459 H 243.09 -2.11216 3.16493 0
M  V30 2460 H 242.602 -0.424062 3.85776 0
M  V30 2461 H 240.703 -2.58974 2.67886 0
M  V30 2462 H 240.816 -1.85902 4.41562 0
M  V30 2463 H 239.18 -1.07676 2.3082 0
M  V30 2464 H 239.963 0.163058 3.42913 0
M  V30 2465 N 242.408 -1.52605 -0.393616 0
M  V30 2466 C 243.654 -1.67672 -1.14079 0
M  V30 2467 C 243.987 -0.413121 -1.89755 0
M  V30 2468 O 243.262 0.588952 -1.85369 0
M  V30 2469 C 243.545 -2.9088 -2.12276 0
M  V30 2470 C 243.398 -4.27329 -1.40394 0
M  V30 2471 C 244.717 -3.09628 -3.12759 0
M  V30 2472 H 241.836 -0.610168 -0.413356 0
M  V30 2473 H 244.478 -1.85193 -0.424696 0
M  V30 2474 H 242.628 -2.76073 -2.73342 0
M  V30 2475 H 244.3 -4.53894 -0.82327 0
M  V30 2476 H 242.543 -4.2802 -0.705801 0
M  V30 2477 H 243.214 -5.09615 -2.12123 0
M  V30 2478 H 245.69 -3.23436 -2.61779 0
M  V30 2479 H 244.566 -3.97322 -3.78717 0
M  V30 2480 H 244.827 -2.23637 -3.81365 0
M  V30 2481 N 243.887 0.651787 -1.4349 0
M  V30 2482 C 244.817 1.77621 -1.51569 0
M  V30 2483 C 245.798 1.66022 -0.370253 0
M  V30 2484 O 246.983 1.85095 -0.587658 0
M  V30 2485 C 244.113 3.16056 -1.43966 0
M  V30 2486 C 243.067 3.4242 -2.56774 0
M  V30 2487 C 242.393 4.8067 -2.34223 0
M  V30 2488 C 243.693 3.37023 -3.99015 0
M  V30 2489 H 245.387 1.71117 -2.45681 0
M  V30 2490 H 242.933 0.821825 -1.18246 0
M  V30 2491 H 244.886 3.94472 -1.48221 0
M  V30 2492 H 243.61 3.23293 -0.463586 0
M  V30 2493 H 242.269 2.66375 -2.51873 0
M  V30 2494 H 241.917 4.84585 -1.34856 0
M  V30 2495 H 241.617 4.9927 -3.09844 0
M  V30 2496 H 243.141 5.61342 -2.40265 0
M  V30 2497 H 244.555 4.05374 -4.05395 0
M  V30 2498 H 242.952 3.67159 -4.74673 0
M  V30 2499 H 244.022 2.3518 -4.2405 0
M  V30 2500 N 245.365 1.30045 0.890287 0
M  V30 2501 C 246.59 1.21598 1.68014 0
M  V30 2502 C 247.015 -0.218678 1.86825 0
M  V30 2503 O 246.373 -1.15756 1.39536 0
M  V30 2504 C 246.421 1.94434 3.03691 0
M  V30 2505 O 245.525 1.2678 3.92429 0
M  V30 2506 H 244.866 0.420856 0.513592 0
M  V30 2507 H 247.396 1.71775 1.11151 0
M  V30 2508 H 247.406 2.03251 3.5377 0
M  V30 2509 H 246.081 2.98777 2.89318 0
M  V30 2510 H 244.658 1.26282 3.50866 0
M  V30 2511 N 246.843 -1.10192 1.12674 0
M  V30 2512 C 247.775 -2.16418 0.754701 0
M  V30 2513 C 248.788 -1.61309 -0.21986 0
M  V30 2514 O 249.977 -1.785 -0.000826841 0
M  V30 2515 C 247.077 -3.38762 0.096698 0
M  V30 2516 C 246.25 -4.23307 1.10136 0
M  V30 2517 C 245.309 -5.24092 0.470513 0
M  V30 2518 O 244.335 -5.57906 1.12824 0
M  V30 2519 N 245.537 -5.75491 -0.760948 0
M  V30 2520 H 248.302 -2.48943 1.66875 0
M  V30 2521 H 245.863 -1.25834 1.01869 0
M  V30 2522 H 247.855 -4.03291 -0.337384 0
M  V30 2523 H 246.425 -3.04192 -0.720153 0
M  V30 2524 H 245.645 -3.55036 1.71299 0
M  V30 2525 H 246.933 -4.76624 1.78064 0
M  V30 2526 H 246.331 -5.50222 -1.31424 0
M  V30 2527 H 244.888 -6.41792 -1.13781 0
M  V30 2528 N 248.321 -0.919034 -1.28029 0
M  V30 2529 C 249.284 -0.416182 -2.2539 0
M  V30 2530 C 250.284 0.460438 -1.54067 0
M  V30 2531 O 251.474 0.262744 -1.72207 0
M  V30 2532 C 248.606 0.402707 -3.38513 0
M  V30 2533 H 249.799 -1.27629 -2.71387 0
M  V30 2534 H 247.352 -0.698919 -1.39803 0
M  V30 2535 H 248.087 1.282 -2.97885 0
M  V30 2536 H 247.872 -0.225698 -3.9145 0
M  V30 2537 H 249.362 0.745191 -4.10897 0
M  V30 2538 N 249.799 1.42003 -0.683588 0
M  V30 2539 C 250.709 2.34597 -0.0109075 0
M  V30 2540 C 251.725 1.55576 0.779245 0
M  V30 2541 O 252.901 1.88107 0.719555 0
M  V30 2542 C 249.966 3.34199 0.922588 0
M  V30 2543 C 249.027 4.29115 0.125984 0
M  V30 2544 C 248.26 5.23959 1.01502 0
M  V30 2545 O 248.483 5.23952 2.25456 0
M  V30 2546 O 247.417 6.00053 0.47111 0
M  V30 2547 H 251.243 2.93675 -0.773853 0
M  V30 2548 H 248.828 1.42654 -0.443861 0
M  V30 2549 H 250.71 3.95365 1.45823 0
M  V30 2550 H 249.385 2.77582 1.66523 0
M  V30 2551 H 248.292 3.71335 -0.453969 0
M  V30 2552 H 249.625 4.88798 -0.577736 0
M  V30 2553 N 251.277 0.427512 1.51691 0
M  V30 2554 C 252.517 -0.141524 2.03909 0
M  V30 2555 C 252.881 -1.40811 1.30523 0
M  V30 2556 O 254.082 -2.05676 1.73063 0
M  V30 2557 C 252.353 -0.364962 3.55532 0
M  V30 2558 S 253.912 -0.898812 4.29496 0
M  V30 2559 H 250.73 -0.0364542 0.710065 0
M  V30 2560 H 253.332 0.584659 1.86553 0
M  V30 2561 H 252.036 0.56336 4.06515 0
M  V30 2562 H 251.567 -1.1185 3.77164 0
M  V30 2563 H 253.582 -2.17747 4.45871 0
M  V30 2564 N 252.755 -1.56801 0.158532 0
M  V30 2565 C 253.665 -2.20916 -0.789518 0
M  V30 2566 C 254.681 -1.1969 -1.26294 0
M  V30 2567 O 255.857 -1.52308 -1.31773 0
M  V30 2568 C 252.922 -2.82727 -2.00665 0
M  V30 2569 C 251.983 -3.99114 -1.58134 0
M  V30 2570 C 251.216 -4.57968 -2.74045 0
M  V30 2571 O 251.439 -4.15704 -3.90572 0
M  V30 2572 O 250.373 -5.48047 -2.48855 0
M  V30 2573 H 254.199 -3.02464 -0.273681 0
M  V30 2574 H 251.784 -1.4924 -0.0690548 0
M  V30 2575 H 253.666 -3.21968 -2.71872 0
M  V30 2576 H 252.341 -2.04184 -2.51179 0
M  V30 2577 H 251.248 -3.64567 -0.839155 0
M  V30 2578 H 252.581 -4.79212 -1.12325 0
M  V30 2579 N 254.233 0.115231 -1.57178 0
M  V30 2580 C 255.196 1.12526 -1.99676 0
M  V30 2581 C 256.196 1.34095 -0.88742 0
M  V30 2582 O 257.386 1.30548 -1.15337 0
M  V30 2583 C 254.518 2.4789 -2.34015 0
M  V30 2584 H 255.711 0.759912 -2.90113 0
M  V30 2585 H 253.264 0.359648 -1.52106 0
M  V30 2586 H 253.999 2.89339 -1.4647 0
M  V30 2587 H 253.784 2.33588 -3.14927 0
M  V30 2588 H 255.274 3.20575 -2.67622 0
M  V30 2589 N 255.711 1.52812 0.385517 0
M  V30 2590 C 256.936 1.72207 1.15583 0
M  V30 2591 C 257.361 0.441034 1.82857 0
M  V30 2592 O 256.719 -0.603465 1.70962 0
M  V30 2593 C 256.767 2.87476 2.17692 0
M  V30 2594 O 255.871 2.54693 3.24354 0
M  V30 2595 H 255.212 0.572526 0.336319 0
M  V30 2596 H 257.742 1.99618 0.448744 0
M  V30 2597 H 257.752 3.13072 2.6163 0
M  V30 2598 H 256.427 3.80408 1.68115 0
M  V30 2599 H 255.004 2.3985 2.85529 0
M  V30 2600 N 257.189 -0.644168 1.43834 0
M  V30 2601 C 258.419 -1.42939 1.49171 0
M  V30 2602 C 258.827 -1.88874 0.111048 0
M  V30 2603 O 258.17 -1.60656 -0.8908 0
M  V30 2604 C 258.232 -2.69151 2.38324 0
M  V30 2605 C 257.896 -2.45097 3.85715 0
M  V30 2606 C 258.893 -2.07747 4.76589 0
M  V30 2607 C 256.578 -2.59141 4.30292 0
M  V30 2608 C 258.572 -1.8475 6.10038 0
M  V30 2609 C 256.259 -2.35759 5.63792 0
M  V30 2610 C 257.257 -1.9862 6.53482 0
M  V30 2611 O 256.945 -1.75489 7.84512 0
M  V30 2612 H 256.677 -0.445271 0.508635 0
M  V30 2613 H 259.231 -0.79621 1.8934 0
M  V30 2614 H 257.461 -3.3506 1.93058 0
M  V30 2615 H 259.15 -3.31123 2.3476 0
M  V30 2616 H 259.916 -1.96465 4.43426 0
M  V30 2617 H 255.795 -2.87022 3.60749 0
M  V30 2618 H 259.339 -1.55686 6.80006 0
M  V30 2619 H 255.236 -2.46646 5.9652 0
M  V30 2620 H 256.004 -1.89841 7.9618 0
M  V30 2621 N 258.668 -1.30515 -0.883378 0
M  V30 2622 C 260.079 -1.17509 -1.45081 0
M  V30 2623 C 260.43 0.223605 -1.94922 0
M  V30 2624 O 259.555 1.12041 -1.85137 0
M  V30 2625 C 260.15 -2.12715 -2.63701 0
M  V30 2626 C 258.709 -2.03682 -3.16529 0
M  V30 2627 C 257.856 -2.02706 -1.89224 0
M  V30 2628 H 260.807 -1.42762 -0.693165 0
M  V30 2629 H 260.828 -1.70891 -3.39965 0
M  V30 2630 H 260.34 -3.14505 -2.27395 0
M  V30 2631 H 258.441 -1.05039 -3.57488 0
M  V30 2632 H 258.554 -2.92146 -3.7972 0
M  V30 2633 H 256.918 -1.4753 -2.07622 0
M  V30 2634 H 257.701 -3.06229 -1.55174 0
M  V30 2635 N 260.146 1.09593 -1.13257 0
M  V30 2636 C 261.394 1.81375 -0.891492 0
M  V30 2637 C 261.715 1.86049 0.584009 0
M  V30 2638 O 260.985 1.34481 1.42449 0
M  V30 2639 H 259.565 0.671708 -0.326828 0
M  V30 2640 H 262.227 1.3256 -1.42877 0
M  V30 2641 H 261.323 2.84612 -1.28071 0
M  V30 2642 N 261.624 0.925811 1.2754 0
M  V30 2643 C 262.571 0.422045 2.26908 0
M  V30 2644 C 263.541 -0.510029 1.58076 0
M  V30 2645 O 264.726 -0.429599 1.85901 0
M  V30 2646 C 261.866 -0.320837 3.43605 0
M  V30 2647 C 260.979 0.64513 4.27156 0
M  V30 2648 C 260.114 -0.117405 5.3107 0
M  V30 2649 C 259.153 0.841391 6.0629 0
M  V30 2650 N 258.29 0.111604 7.02011 0
M  V30 2651 H 263.13 1.27441 2.69375 0
M  V30 2652 H 260.667 0.639697 1.32462 0
M  V30 2653 H 262.625 -0.76785 4.10073 0
M  V30 2654 H 261.255 -1.13745 3.02096 0
M  V30 2655 H 260.307 1.21067 3.6062 0
M  V30 2656 H 261.619 1.37797 4.79389 0
M  V30 2657 H 260.773 -0.624422 6.03478 0
M  V30 2658 H 259.512 -0.883219 4.79636 0
M  V30 2659 H 258.517 1.35967 5.32722 0
M  V30 2660 H 259.742 1.60696 6.59813 0
M  V30 2661 H 257.688 -0.635999 6.5291 0
M  V30 2662 H 257.605 0.784044 7.51923 0
M  V30 2663 H 258.873 -0.374823 7.78598 0
M  V30 2664 N 263.102 -1.41638 0.69111 0
M  V30 2665 C 264.351 -2.00526 0.217318 0
M  V30 2666 C 264.664 -1.55353 -1.18848 0
M  V30 2667 O 265.87 -2.06769 -1.75951 0
M  V30 2668 C 264.326 -3.58313 0.337639 0
M  V30 2669 C 263.934 -4.12469 1.74852 0
M  V30 2670 C 265.678 -4.24431 -0.0766066 0
M  V30 2671 C 263.585 -5.62675 1.82074 0
M  V30 2672 H 262.515 -0.750008 0.0774893 0
M  V30 2673 H 265.166 -1.6217 0.858661 0
M  V30 2674 H 263.548 -3.9425 -0.371879 0
M  V30 2675 H 264.722 -3.8796 2.48644 0
M  V30 2676 H 263.037 -3.58861 2.11205 0
M  V30 2677 H 265.634 -5.34683 -0.0430284 0
M  V30 2678 H 265.977 -4.01101 -1.1146 0
M  V30 2679 H 266.51 -3.93512 0.582476 0
M  V30 2680 H 263.249 -5.90826 2.83911 0
M  V30 2681 H 262.769 -5.89124 1.12661 0
M  V30 2682 H 264.448 -6.27371 1.58159 0
M  V30 2683 N 264.58 -0.43555 -1.51462 0
M  V30 2684 C 265.808 0.130242 -2.0649 0
M  V30 2685 C 266.223 1.36614 -1.30315 0
M  V30 2686 O 265.58 1.78869 -0.362223 0
M  V30 2687 C 265.631 0.454253 -3.58635 0
M  V30 2688 O 265.352 -0.73259 -4.31931 0
M  V30 2689 C 266.853 1.07091 -4.3017 0
M  V30 2690 H 264.073 0.00871669 -0.670943 0
M  V30 2691 H 266.617 -0.614117 -1.95061 0
M  V30 2692 H 264.772 1.14851 -3.69984 0
M  V30 2693 H 265.186 -0.455787 -5.22516 0
M  V30 2694 H 266.66 1.24764 -5.37716 0
M  V30 2695 H 267.137 2.05144 -3.88346 0
M  V30 2696 H 267.743 0.416089 -4.2326 0
M  V30 2697 N 266.058 1.56714 -0.166846 0
M  V30 2698 C 267.006 2.19056 0.782123 0
M  V30 2699 C 268 1.15328 1.24079 0
M  V30 2700 O 269.206 1.33537 1.20697 0
M  V30 2701 H 265.581 0.70167 0.270486 0
M  V30 2702 H 267.552 2.97494 0.232322 0
M  V30 2703 C 266.301 2.84206 2.00306 0
M  V30 2704 H 265.624 3.63748 1.65914 0
M  V30 2705 H 267.064 3.31302 2.64604 0
M  V30 2706 C 265.523 1.83744 2.82382 0
M  V30 2707 O 266.053 1.32014 3.79388 0
M  V30 2708 N 264.259 1.52601 2.47308 0
M  V30 2709 H 263.806 1.9486 1.68485 0
M  V30 2710 H 263.764 0.856351 3.02513 0
M  V30 2711 N 267.536 -0.106894 1.57237 0
M  V30 2712 C 268.484 -1.14944 2.02215 0
M  V30 2713 C 269.478 -1.42167 0.92114 0
M  V30 2714 O 270.684 -1.41987 1.10634 0
M  V30 2715 H 267.059 -0.387841 0.64427 0
M  V30 2716 H 269.03 -0.743683 2.88984 0
M  V30 2717 C 267.779 -2.4647 2.4525 0
M  V30 2718 H 267.102 -2.26363 3.29545 0
M  V30 2719 H 268.542 -3.17948 2.80508 0
M  V30 2720 C 267.001 -3.09921 1.321 0
M  V30 2721 O 267.531 -3.9651 0.643622 0
M  V30 2722 N 265.737 -2.69986 1.07497 0
M  V30 2723 H 265.284 -1.99667 1.62761 0
M  V30 2724 H 265.242 -3.12769 0.319876 0
M  V30 2725 N 269.014 -1.53014 -0.377408 0
M  V30 2726 C 269.947 -1.73382 -1.48371 0
M  V30 2727 C 270.925 -0.581879 -1.51832 0
M  V30 2728 O 272.109 -0.81307 -1.70063 0
M  V30 2729 C 269.236 -1.80192 -2.8679 0
M  V30 2730 C 268.282 -3.02056 -3.01105 0
M  V30 2731 S 269.115 -4.61811 -2.71093 0
M  V30 2732 C 270.271 -4.71453 -4.11683 0
M  V30 2733 H 270.504 -2.66946 -1.30872 0
M  V30 2734 H 268.037 -1.43453 -0.571012 0
M  V30 2735 H 269.995 -1.84802 -3.6655 0
M  V30 2736 H 268.656 -0.877008 -3.01608 0
M  V30 2737 H 267.849 -3.03396 -4.02451 0
M  V30 2738 H 267.451 -2.95498 -2.29253 0
M  V30 2739 H 269.743 -4.50781 -5.0577 0
M  V30 2740 H 270.686 -5.73487 -4.15353 0
M  V30 2741 H 271.094 -4.00189 -3.98132 0
M  V30 2742 N 270.492 0.636531 -1.44174 0
M  V30 2743 C 271.739 1.39619 -1.46672 0
M  V30 2744 C 272.067 1.94257 -0.0972691 0
M  V30 2745 O 271.322 1.73768 0.900175 0
M  V30 2746 C 271.621 2.58309 -2.47005 0
M  V30 2747 C 271.287 2.21992 -3.92467 0
M  V30 2748 C 269.949 2.118 -4.32081 0
M  V30 2749 C 272.301 1.9321 -4.84065 0
M  V30 2750 C 269.629 1.71007 -5.61225 0
M  V30 2751 C 271.981 1.53911 -6.13591 0
M  V30 2752 C 270.645 1.42257 -6.52165 0
M  V30 2753 H 269.915 0.510902 -0.536712 0
M  V30 2754 H 272.562 0.722328 -1.77355 0
M  V30 2755 H 270.867 3.30903 -2.09786 0
M  V30 2756 H 272.564 3.16533 -2.46186 0
M  V30 2757 H 269.154 2.30841 -3.61124 0
M  V30 2758 H 273.338 1.99997 -4.54219 0
M  V30 2759 H 268.594 1.60583 -5.89935 0
M  V30 2760 H 272.768 1.30677 -6.8403 0
M  V30 2761 H 270.395 1.10419 -7.52138 0
M  V30 2762 N 271.97 1.30982 0.876444 0
M  V30 2763 C 273.21 1.21589 1.64303 0
M  V30 2764 C 273.574 -0.223962 1.90689 0
M  V30 2765 O 274.775 -0.44128 2.65153 0
M  V30 2766 C 273.046 2.03007 2.94148 0
M  V30 2767 S 274.605 2.10405 3.85065 0
M  V30 2768 H 271.423 0.433161 0.563819 0
M  V30 2769 H 274.025 1.65565 1.03964 0
M  V30 2770 H 272.729 3.06719 2.72675 0
M  V30 2771 H 272.26 1.59725 3.59515 0
M  V30 2772 H 274.275 1.23765 4.80517 0
M  V30 2773 N 273.449 -1.08991 1.13837 0
M  V30 2774 C 274.695 -1.81526 0.90422 0
M  V30 2775 C 275.028 -1.85706 -0.568066 0
M  V30 2776 O 274.303 -1.32855 -1.42056 0
M  V30 2777 C 274.586 -3.27447 1.49835 0
M  V30 2778 C 274.439 -3.31512 3.04006 0
M  V30 2779 C 275.758 -4.24256 1.17025 0
M  V30 2780 H 272.877 -0.659029 0.329923 0
M  V30 2781 H 275.519 -1.27644 1.40737 0
M  V30 2782 H 273.669 -3.73462 1.07044 0
M  V30 2783 H 275.341 -2.93867 3.55584 0
M  V30 2784 H 273.584 -2.70963 3.38765 0
M  V30 2785 H 274.255 -4.34329 3.40679 0
M  V30 2786 H 276.731 -3.86549 1.54009 0
M  V30 2787 H 275.607 -5.24684 1.61237 0
M  V30 2788 H 275.868 -4.42019 0.0846274 0
M  V30 2789 N 274.927 -0.932562 -1.27047 0
M  V30 2790 C 276.175 -0.574422 -1.93765 0
M  V30 2791 C 276.496 0.887993 -1.73608 0
M  V30 2792 O 275.766 1.62999 -1.08665 0
M  V30 2793 H 274.346 -0.209451 -0.717035 0
M  V30 2794 H 277.008 -1.18601 -1.5466 0
M  V30 2795 H 276.104 -0.784841 -3.02071 0
M  V30 2796 N 276.405 1.4127 -0.698611 0
M  V30 2797 C 277.652 2.0118 -0.230865 0
M  V30 2798 C 277.98 1.55338 1.17049 0
M  V30 2799 O 277.235 0.756775 1.80475 0
M  V30 2800 C 277.534 3.56592 -0.240192 0
M  V30 2801 C 277.2 4.21955 -1.58948 0
M  V30 2802 C 275.862 4.39524 -1.95887 0
M  V30 2803 C 278.214 4.58576 -2.47704 0
M  V30 2804 C 275.542 4.90992 -3.2116 0
M  V30 2805 C 277.894 5.11435 -3.72313 0
M  V30 2806 C 276.558 5.27215 -4.0939 0
M  V30 2807 H 275.828 0.736169 -0.0844796 0
M  V30 2808 H 278.475 1.69124 -0.8983 0
M  V30 2809 H 276.78 3.88456 0.510797 0
M  V30 2810 H 278.477 4.00758 0.139296 0
M  V30 2811 H 275.067 4.08657 -1.29219 0
M  V30 2812 H 279.251 4.44654 -2.20445 0
M  V30 2813 H 274.507 5.01393 -3.49878 0
M  V30 2814 H 278.681 5.38752 -4.4127 0
M  V30 2815 H 276.308 5.66859 -5.06533 0
M  V30 2816 N 277.883 0.443576 1.51229 0
M  V30 2817 C 278.813 -0.355142 2.30783 0
M  V30 2818 C 279.794 -1.0154 1.36468 0
M  V30 2819 O 280.979 -1.01785 1.65389 0
M  V30 2820 C 278.109 -1.45312 3.15439 0
M  V30 2821 C 277.063 -0.916002 4.18083 0
M  V30 2822 C 276.389 -2.1102 4.91299 0
M  V30 2823 C 277.689 0.0538602 5.22272 0
M  V30 2824 H 279.383 0.308767 2.97804 0
M  V30 2825 H 276.929 0.149937 1.43217 0
M  V30 2826 H 278.882 -2.01914 3.69876 0
M  V30 2827 H 277.606 -2.14541 2.46252 0
M  V30 2828 H 276.265 -0.372145 3.64706 0
M  V30 2829 H 275.913 -2.78882 4.18609 0
M  V30 2830 H 275.613 -1.75717 5.60712 0
M  V30 2831 H 277.137 -2.68164 5.48562 0
M  V30 2832 H 278.551 -0.422069 5.71744 0
M  V30 2833 H 276.948 0.319776 5.99247 0
M  V30 2834 H 278.018 0.98858 4.74716 0
M  V30 2835 N 279.361 -1.56624 0.175154 0
M  V30 2836 C 280.271 -2.21741 -0.766042 0
M  V30 2837 C 281.287 -1.21023 -1.25018 0
M  V30 2838 O 282.463 -1.53697 -1.3015 0
M  V30 2839 C 279.528 -2.84839 -1.97655 0
M  V30 2840 C 278.589 -4.00769 -1.53892 0
M  V30 2841 C 277.822 -4.60849 -2.69173 0
M  V30 2842 O 278.045 -4.19823 -3.86141 0
M  V30 2843 O 276.979 -5.50655 -2.43028 0
M  V30 2844 H 280.805 -3.02738 -0.241585 0
M  V30 2845 H 278.39 -1.49305 -0.053222 0
M  V30 2846 H 280.272 -3.24834 -2.68442 0
M  V30 2847 H 278.947 -2.06836 -2.48999 0
M  V30 2848 H 277.854 -3.65436 -0.80044 0
M  V30 2849 H 279.187 -4.80376 -1.07236 0
M  V30 2850 N 280.839 0.0985539 -1.57292 0
M  V30 2851 C 282.087 0.801092 -1.85545 0
M  V30 2852 C 282.408 1.79438 -0.763353 0
M  V30 2853 O 281.678 1.94763 0.21073 0
M  V30 2854 H 280.258 0.29884 -0.684619 0
M  V30 2855 H 282.92 0.0810064 -1.94732 0
M  V30 2856 H 282.016 1.3338 -2.82163 0
M  V30 2857 N 282.317 1.53212 0.369288 0
M  V30 2858 C 283.565 1.68881 1.11012 0
M  V30 2859 C 283.886 0.441285 1.89941 0
M  V30 2860 O 283.156 -0.544623 1.88177 0
M  V30 2861 H 281.736 0.622569 0.412816 0
M  V30 2862 H 284.398 1.90391 0.416802 0
M  V30 2863 H 283.494 2.54822 1.80201 0
M  V30 2864 N 283.795 -0.628877 1.44509 0
M  V30 2865 C 284.742 -1.74074 1.51549 0
M  V30 2866 C 285.712 -1.62084 0.363021 0
M  V30 2867 O 286.897 -1.81975 0.573567 0
M  V30 2868 C 284.037 -3.12328 1.46784 0
M  V30 2869 C 283.15 -3.35277 2.72422 0
M  V30 2870 C 282.285 -4.63515 2.59475 0
M  V30 2871 C 281.324 -4.7965 3.80266 0
M  V30 2872 N 280.461 -5.99168 3.65981 0
M  V30 2873 H 285.301 -1.67392 2.46544 0
M  V30 2874 H 282.838 -0.816527 1.22357 0
M  V30 2875 H 284.796 -3.92286 1.42012 0
M  V30 2876 H 283.426 -3.18018 0.553544 0
M  V30 2877 H 282.478 -2.49242 2.87372 0
M  V30 2878 H 283.79 -3.43078 3.62076 0
M  V30 2879 H 282.944 -5.51638 2.52548 0
M  V30 2880 H 281.683 -4.58076 1.67384 0
M  V30 2881 H 280.688 -3.89957 3.87574 0
M  V30 2882 H 281.913 -4.86902 4.73395 0
M  V30 2883 H 279.859 -5.94814 2.76644 0
M  V30 2884 H 279.776 -6.08035 4.49254 0
M  V30 2885 H 281.044 -6.89846 3.6295 0
M  V30 2886 N 285.273 -1.31445 -0.869486 0
M  V30 2887 C 286.55 -1.11795 -1.60503 0
M  V30 2888 C 286.93 0.327168 -2.08549 0
M  V30 2889 O 286.278 1.32135 -1.8642 0
M  V30 2890 C 286.488 -2.13258 -2.76265 0
M  V30 2891 C 287.836 -2.45805 -3.46215 0
M  V30 2892 O 288.86 -2.11688 -2.86473 0
M  V30 2893 O 287.719 -3.04228 -4.5399 0
M  V30 2894 H 284.813 -0.430421 -0.706163 0
M  V30 2895 H 287.359 -1.42925 -0.914907 0
M  V30 2896 H 286.131 -3.10461 -2.3818 0
M  V30 2897 H 285.754 -1.83035 -3.52964 0
M  V30 2898 N 286.751 1.08385 -1.14413 0
M  V30 2899 C 287.976 1.85057 -0.936413 0
M  V30 2900 C 288.401 1.81055 0.509971 0
M  V30 2901 O 287.759 1.1958 1.36273 0
M  V30 2902 C 287.807 3.30505 -1.44217 0
M  V30 2903 O 286.911 4.07491 -0.634409 0
M  V30 2904 H 286.252 0.573425 -0.334784 0
M  V30 2905 H 288.782 1.36799 -1.52142 0
M  V30 2906 H 288.792 3.81348 -1.45043 0
M  V30 2907 H 287.467 3.32734 -2.49522 0
M  V30 2908 H 286.044 3.66368 -0.694902 0
M  V30 2909 N 288.23 0.939286 1.26551 0
M  V30 2910 C 289.47 0.5933 1.956 0
M  V30 2911 C 289.834 -0.851515 1.72085 0
M  V30 2912 O 291.035 -1.30634 2.34921 0
M  V30 2913 C 289.306 0.923996 3.45249 0
M  V30 2914 S 290.865 0.688269 4.33369 0
M  V30 2915 H 287.683 0.218591 0.676564 0
M  V30 2916 H 290.285 1.2102 1.5354 0
M  V30 2917 H 288.989 1.97297 3.59864 0
M  V30 2918 H 288.52 0.296746 3.92279 0
M  V30 2919 H 290.535 -0.448434 4.9417 0
M  V30 2920 N 289.708 -1.40897 0.706093 0
M  V30 2921 C 290.64 -2.29199 0.00815776 0
M  V30 2922 C 291.653 -1.45336 -0.733582 0
M  V30 2923 O 292.842 -1.68727 -0.582537 0
M  V30 2924 C 289.942 -3.23417 -1.01265 0
M  V30 2925 C 289.115 -4.36089 -0.338387 0
M  V30 2926 C 288.174 -5.10811 -1.26326 0
M  V30 2927 O 287.2 -5.64215 -0.751651 0
M  V30 2928 N 288.402 -5.19269 -2.595 0
M  V30 2929 H 291.167 -2.89738 0.766297 0
M  V30 2930 H 288.728 -1.52164 0.55296 0
M  V30 2931 H 290.72 -3.70276 -1.63334 0
M  V30 2932 H 289.29 -2.64112 -1.67223 0
M  V30 2933 H 288.51 -3.91479 0.462352 0
M  V30 2934 H 289.798 -5.08634 0.130031 0
M  V30 2935 H 289.196 -4.77347 -3.03573 0
M  V30 2936 H 287.753 -5.69667 -3.16737 0
M  V30 2937 N 291.186 -0.45159 -1.50991 0
M  V30 2938 C 292.434 0.109857 -2.01801 0
M  V30 2939 C 292.755 1.41958 -1.3369 0
M  V30 2940 O 292.025 1.9003 -0.475951 0
M  V30 2941 H 290.605 0.0435884 -0.745727 0
M  V30 2942 H 293.267 -0.597557 -1.85514 0
M  V30 2943 H 292.363 0.275489 -3.10882 0
M  V30 2944 N 292.664 1.56529 -0.183458 0
M  V30 2945 C 293.941 1.88959 0.50536 0
M  V30 2946 C 294.321 1.09523 1.80466 0
M  V30 2947 O 293.669 0.19278 2.27685 0
M  V30 2948 C 293.879 3.41162 0.73547 0
M  V30 2949 C 295.227 4.11155 1.06005 0
M  V30 2950 O 296.251 3.46548 0.823594 0
M  V30 2951 O 295.11 5.25318 1.50675 0
M  V30 2952 H 292.204 0.78441 0.261973 0
M  V30 2953 H 294.75 1.68231 -0.222802 0
M  V30 2954 H 293.522 3.90874 -0.182561 0
M  V30 2955 H 293.145 3.67543 1.51651 0
M  V30 2956 N 294.142 -0.090211 1.57342 0
M  V30 2957 C 295.367 -0.810082 1.90925 0
M  V30 2958 C 295.792 -1.71248 0.778187 0
M  V30 2959 O 295.15 -1.79278 -0.269991 0
M  V30 2960 C 295.198 -1.59529 3.23393 0
M  V30 2961 O 294.302 -2.70461 3.11327 0
M  V30 2962 H 293.643 -0.222231 0.625707 0
M  V30 2963 H 296.173 -0.0639716 2.045 0
M  V30 2964 H 296.183 -1.97847 3.5682 0
M  V30 2965 H 294.858 -0.933055 4.05299 0
M  V30 2966 H 293.435 -2.35135 2.89423 0
M  V30 2967 N 295.62 -1.53406 -0.361157 0
M  V30 2968 C 296.868 -1.69467 -1.10115 0
M  V30 2969 C 297.189 -0.451352 -1.89705 0
M  V30 2970 O 296.459 0.534636 -1.88463 0
M  V30 2971 H 295.039 -0.624749 -0.409508 0
M  V30 2972 H 297.701 -1.90609 -0.406699 0
M  V30 2973 H 296.797 -2.55774 -1.78847 0
M  V30 2974 N 297.098 0.621204 -1.44841 0
M  V30 2975 C 298.346 1.37783 -1.47852 0
M  V30 2976 C 298.667 1.94653 -0.116224 0
M  V30 2977 O 297.937 1.76367 0.852737 0
M  V30 2978 H 296.517 0.511453 -0.544449 0
M  V30 2979 H 299.179 0.730446 -1.80694 0
M  V30 2980 H 298.275 2.20414 -2.20961 0
M  V30 2981 N 298.576 1.31904 0.862503 0
M  V30 2982 C 299.987 1.19803 1.43193 0
M  V30 2983 C 300.338 -0.192567 1.95253 0
M  V30 2984 O 299.463 -1.09081 1.86896 0
M  V30 2985 C 300.058 2.16883 2.60283 0
M  V30 2986 C 298.617 2.08692 3.13248 0
M  V30 2987 C 297.764 2.05691 1.85975 0
M  V30 2988 H 300.715 1.43846 0.670365 0
M  V30 2989 H 300.736 1.76278 3.37204 0
M  V30 2990 H 300.248 3.18083 2.22363 0
M  V30 2991 H 298.349 1.10713 3.55771 0
M  V30 2992 H 298.462 2.9815 3.75025 0
M  V30 2993 H 296.826 1.50814 2.05249 0
M  V30 2994 H 297.609 3.08659 1.50282 0
M  V30 2995 N 300.054 -1.07777 1.14986 0
M  V30 2996 C 301.3 -1.80557 0.923422 0
M  V30 2997 C 301.633 -1.86298 -0.548337 0
M  V30 2998 O 300.908 -1.34354 -1.40639 0
M  V30 2999 C 301.191 -3.25839 1.53299 0
M  V30 3000 C 301.044 -3.28269 3.07505 0
M  V30 3001 C 302.363 -4.22991 1.21518 0
M  V30 3002 H 299.482 -0.655493 0.336894 0
M  V30 3003 H 302.124 -1.26144 1.42083 0
M  V30 3004 H 300.274 -3.72306 1.10999 0
M  V30 3005 H 301.946 -2.90079 3.58681 0
M  V30 3006 H 300.189 -2.67355 3.4162 0
M  V30 3007 H 300.86 -4.30691 3.45266 0
M  V30 3008 H 303.336 -3.84894 1.581 0
M  V30 3009 H 302.212 -5.22945 1.66793 0
M  V30 3010 H 302.473 -4.41904 0.131505 0
M  V30 3011 N 301.532 -0.945985 -1.26051 0
M  V30 3012 C 302.778 -0.597002 -1.93814 0
M  V30 3013 C 303.111 0.862484 -1.73997 0
M  V30 3014 O 302.386 1.61769 -1.07986 0
M  V30 3015 C 302.669 -0.945937 -3.47454 0
M  V30 3016 C 302.522 -2.46052 -3.76535 0
M  V30 3017 C 303.841 -0.464785 -4.37639 0
M  V30 3018 H 300.96 -0.218366 -0.703907 0
M  V30 3019 H 303.602 -1.18107 -1.48831 0
M  V30 3020 H 301.752 -0.448902 -3.85898 0
M  V30 3021 H 303.424 -3.03065 -3.47778 0
M  V30 3022 H 301.667 -2.90194 -3.22444 0
M  V30 3023 H 302.338 -2.65517 -4.83947 0
M  V30 3024 H 304.814 -0.891016 -4.06448 0
M  V30 3025 H 303.69 -0.737712 -5.4392 0
M  V30 3026 H 303.951 0.635274 -4.37512 0
M  V30 3027 N 303.011 1.40521 -0.713556 0
M  V30 3028 C 304.236 2.05759 -0.26035 0
M  V30 3029 C 304.661 1.53403 1.08854 0
M  V30 3030 O 304.019 0.668535 1.68524 0
M  V30 3031 C 304.067 3.59745 -0.248122 0
M  V30 3032 O 303.171 4.05123 0.77131 0
M  V30 3033 H 302.512 0.652564 -0.122703 0
M  V30 3034 H 305.042 1.79958 -0.973467 0
M  V30 3035 H 305.052 4.07911 -0.0851129 0
M  V30 3036 H 303.727 3.97218 -1.2325 0
M  V30 3037 H 302.304 3.68422 0.57619 0
M  V30 3038 N 304.489 0.459591 1.5075 0
M  V30 3039 C 305.437 -0.354678 2.2988 0
M  V30 3040 C 306.431 -1.00086 1.36672 0
M  V30 3041 O 307.637 -0.933277 1.53915 0
M  V30 3042 H 304.012 -0.13321 0.740107 0
M  V30 3043 H 305.983 0.333269 2.96533 0
M  V30 3044 C 304.732 -1.43073 3.169 0
M  V30 3045 H 304.055 -0.942882 3.88523 0
M  V30 3046 H 305.495 -1.97328 3.75284 0
M  V30 3047 C 303.954 -2.42633 2.33732 0
M  V30 3048 O 304.484 -3.47658 2.01238 0
M  V30 3049 N 302.69 -2.14066 1.9653 0
M  V30 3050 H 302.237 -1.28685 2.23155 0
M  V30 3051 H 302.195 -2.80917 1.41185 0
M  V30 3052 N 305.967 -1.56429 0.191757 0
M  V30 3053 C 307.215 -1.97095 -0.447006 0
M  V30 3054 C 307.536 -1.07967 -1.62383 0
M  V30 3055 O 306.806 -0.150248 -1.95323 0
M  V30 3056 H 305.386 -0.727832 -0.168135 0
M  V30 3057 H 308.048 -1.92911 0.27771 0
M  V30 3058 H 307.144 -3.01848 -0.793371 0
M  V30 3059 N 307.445 0.0818655 -1.57387 0
M  V30 3060 C 308.355 1.11642 -2.06333 0
M  V30 3061 C 309.371 1.43033 -0.99083 0
M  V30 3062 O 310.547 1.53411 -1.30488 0
M  V30 3063 C 307.612 2.41342 -2.48907 0
M  V30 3064 C 306.673 2.17014 -3.7041 0
M  V30 3065 C 305.906 3.4053 -4.10944 0
M  V30 3066 O 306.129 4.4927 -3.51444 0
M  V30 3067 O 305.063 3.29336 -5.03807 0
M  V30 3068 H 308.889 0.730657 -2.9478 0
M  V30 3069 H 306.474 0.295301 -1.46452 0
M  V30 3070 H 308.356 3.17691 -2.76858 0
M  V30 3071 H 307.031 2.79319 -1.63593 0
M  V30 3072 H 305.938 1.38403 -3.47556 0
M  V30 3073 H 307.271 1.83923 -4.56545 0
M  V30 3074 N 308.923 1.53595 0.353017 0
M  V30 3075 C 309.853 1.83902 1.43883 0
M  V30 3076 C 310.834 0.693421 1.55324 0
M  V30 3077 O 312.019 0.944452 1.69687 0
M  V30 3078 C 309.149 2.04016 2.8106 0
M  V30 3079 C 308.103 3.19814 2.84434 0
M  V30 3080 C 307.429 3.25244 4.24406 0
M  V30 3081 C 308.729 4.58133 2.50822 0
M  V30 3082 H 310.423 2.74835 1.1877 0
M  V30 3083 H 307.969 1.32242 0.569917 0
M  V30 3084 H 309.922 2.238 3.57059 0
M  V30 3085 H 308.646 1.09804 3.07588 0
M  V30 3086 H 307.305 2.9987 2.10887 0
M  V30 3087 H 306.953 2.28646 4.48029 0
M  V30 3088 H 306.653 4.03054 4.27576 0
M  V30 3089 H 308.177 3.47228 5.0226 0
M  V30 3090 H 309.591 4.77995 3.16534 0
M  V30 3091 H 307.988 5.38276 2.6529 0
M  V30 3092 H 309.058 4.62387 1.46034 0
M  V30 3093 N 310.401 -0.613514 1.45168 0
M  V30 3094 C 311.333 -1.73825 1.4939 0
M  V30 3095 C 312.346 -1.58175 0.385304 0
M  V30 3096 O 313.535 -1.66165 0.652036 0
M  V30 3097 C 310.635 -3.11758 1.32891 0
M  V30 3098 C 309.808 -3.53704 2.57317 0
M  V30 3099 C 308.867 -4.70579 2.35462 0
M  V30 3100 O 307.893 -4.77996 3.09044 0
M  V30 3101 N 309.095 -5.63454 1.39644 0
M  V30 3102 H 311.86 -1.70669 2.46358 0
M  V30 3103 H 309.421 -0.79862 1.40832 0
M  V30 3104 H 311.413 -3.87692 1.1609 0
M  V30 3105 H 309.983 -3.09456 0.442218 0
M  V30 3106 H 309.203 -2.67794 2.89275 0
M  V30 3107 H 310.491 -3.78486 3.40038 0
M  V30 3108 H 309.889 -5.6017 0.789062 0
M  V30 3109 H 308.446 -6.38944 1.28816 0
M  V30 3110 N 311.879 -1.3236 -0.855495 0
M  V30 3111 C 313.127 -1.22629 -1.60644 0
M  V30 3112 C 313.448 0.212136 -1.93843 0
M  V30 3113 O 312.718 1.13666 -1.59552 0
M  V30 3114 H 311.298 -0.450882 -0.595579 0
M  V30 3115 H 313.96 -1.65871 -1.02337 0
M  V30 3116 H 313.056 -1.80832 -2.54374 0
M  V30 3117 N 313.357 1.07166 -1.15556 0
M  V30 3118 C 314.606 1.79181 -0.926132 0
M  V30 3119 C 314.919 1.87768 0.547967 0
M  V30 3120 O 316.125 2.56323 0.895036 0
M  V30 3121 C 314.581 3.22 -1.60761 0
M  V30 3122 C 314.189 3.21607 -3.11886 0
M  V30 3123 C 315.933 3.9861 -1.4598 0
M  V30 3124 C 313.84 4.59092 -3.72812 0
M  V30 3125 H 312.77 0.67154 -0.342856 0
M  V30 3126 H 315.421 1.2027 -1.3859 0
M  V30 3127 H 313.803 3.81115 -1.07553 0
M  V30 3128 H 314.977 2.72127 -3.71865 0
M  V30 3129 H 313.292 2.58495 -3.2645 0
M  V30 3130 H 315.889 5.00225 -1.88888 0
M  V30 3131 H 316.232 4.143 -0.407541 0
M  V30 3132 H 316.765 3.45996 -1.96295 0
M  V30 3133 H 313.504 4.48606 -4.77946 0
M  V30 3134 H 313.024 5.08803 -3.17616 0
M  V30 3135 H 314.703 5.28059 -3.73848 0
M  V30 3136 N 314.835 0.952656 1.25548 0
M  V30 3137 C 316.081 0.607272 1.93494 0
M  V30 3138 C 316.414 -0.853245 1.74452 0
M  V30 3139 O 315.689 -1.61194 1.08843 0
M  V30 3140 C 315.972 0.96435 3.46947 0
M  V30 3141 C 315.825 2.48045 3.75225 0
M  V30 3142 C 317.144 0.487987 4.37386 0
M  V30 3143 H 314.263 0.222096 0.702739 0
M  V30 3144 H 316.905 1.18895 1.48203 0
M  V30 3145 H 315.055 0.469361 3.85654 0
M  V30 3146 H 316.727 3.04905 3.46166 0
M  V30 3147 H 314.97 2.919 3.209 0
M  V30 3148 H 315.641 2.6808 4.82532 0
M  V30 3149 H 318.117 0.912558 4.0597 0
M  V30 3150 H 316.993 0.766547 5.43521 0
M  V30 3151 H 317.254 -0.612063 4.37843 0
M  V30 3152 N 316.313 -1.40141 0.720998 0
M  V30 3153 C 317.538 -2.05618 0.271258 0
M  V30 3154 C 317.963 -1.53978 -1.08039 0
M  V30 3155 O 317.321 -0.677463 -1.68167 0
M  V30 3156 C 317.369 -3.59609 0.267197 0
M  V30 3157 O 316.473 -4.05526 -0.749814 0
M  V30 3158 H 315.814 -0.651904 0.126162 0
M  V30 3159 H 318.344 -1.79439 0.982997 0
M  V30 3160 H 318.354 -4.0786 0.106744 0
M  V30 3161 H 317.029 -3.96559 1.25354 0
M  V30 3162 H 315.606 -3.68722 -0.556644 0
M  V30 3163 N 317.792 -0.46758 -1.50504 0
M  V30 3164 C 319.038 0.0808869 -2.03239 0
M  V30 3165 C 319.393 1.37721 -1.34353 0
M  V30 3166 O 318.686 1.86016 -0.459194 0
M  V30 3167 C 318.88 0.323995 -3.55928 0
M  V30 3168 C 318.709 -0.947215 -4.39611 0
M  V30 3169 C 317.479 -1.48951 -4.82848 0
M  V30 3170 C 319.677 -1.84166 -4.80195 0
M  V30 3171 N 317.659 -2.71011 -5.50842 0
M  V30 3172 C 319.03 -2.90815 -5.47564 0
M  V30 3173 C 321.085 -1.85246 -4.62156 0
M  V30 3174 C 319.788 -3.98529 -5.98805 0
M  V30 3175 C 321.814 -2.91914 -5.14335 0
M  V30 3176 C 321.176 -3.97282 -5.81676 0
M  V30 3177 H 317.275 -0.0103394 -0.781932 0
M  V30 3178 H 319.859 -0.635003 -1.84054 0
M  V30 3179 H 318.03 1.00892 -3.75067 0
M  V30 3180 H 319.762 0.866492 -3.95315 0
M  V30 3181 H 316.517 -1.03918 -4.62058 0
M  V30 3182 H 316.941 -3.32988 -5.89447 0
M  V30 3183 H 321.583 -1.05103 -4.09528 0
M  V30 3184 H 319.301 -4.79491 -6.50472 0
M  V30 3185 H 322.887 -2.93729 -5.0221 0
M  V30 3186 H 321.767 -4.78462 -6.21324 0
M  V30 3187 N 319.27 1.56325 -0.20005 0
M  V30 3188 C 320.518 1.97329 0.436547 0
M  V30 3189 C 320.839 1.08826 1.61808 0
M  V30 3190 O 320.109 0.160604 1.95241 0
M  V30 3191 H 318.689 0.728714 0.164272 0
M  V30 3192 H 321.351 1.92761 -0.287937 0
M  V30 3193 H 320.447 3.02264 0.777353 0
M  V30 3194 N 320.748 -0.0735177 1.57428 0
M  V30 3195 C 321.978 -0.78483 1.91112 0
M  V30 3196 C 322.386 -1.71729 0.7941 0
M  V30 3197 O 321.729 -1.82105 -0.241542 0
M  V30 3198 C 321.791 -1.63346 3.20247 0
M  V30 3199 C 321.455 -0.870557 4.48632 0
M  V30 3200 C 322.452 -0.19058 5.19551 0
M  V30 3201 C 320.137 -0.838242 4.95256 0
M  V30 3202 C 322.131 0.511503 6.35344 0
M  V30 3203 C 319.818 -0.132386 6.10957 0
M  V30 3204 C 320.816 0.541288 6.80852 0
M  V30 3205 O 320.504 1.23578 7.94345 0
M  V30 3206 H 320.236 -0.228408 0.636244 0
M  V30 3207 H 322.79 -0.0486039 2.05342 0
M  V30 3208 H 321.02 -2.41245 3.02222 0
M  V30 3209 H 322.709 -2.22329 3.39595 0
M  V30 3210 H 323.475 -0.206864 4.84559 0
M  V30 3211 H 319.354 -1.35206 4.40727 0
M  V30 3212 H 322.898 1.03789 6.89836 0
M  V30 3213 H 318.795 -0.114023 6.45399 0
M  V30 3214 H 319.563 1.14487 8.10454 0
M  V30 3215 N 322.226 -1.5378 -0.344866 0
M  V30 3216 C 323.474 -1.70625 -1.08311 0
M  V30 3217 C 323.795 -0.471447 -1.89215 0
M  V30 3218 O 323.065 0.514616 -1.8902 0
M  V30 3219 H 321.645 -0.629058 -0.402859 0
M  V30 3220 H 324.307 -1.9103 -0.386459 0
M  V30 3221 H 323.403 -2.57656 -1.76124 0
M  V30 3222 N 323.704 0.605807 -1.45491 0
M  V30 3223 C 324.944 1.37606 -1.51142 0
M  V30 3224 C 325.308 1.91413 -0.150075 0
M  V30 3225 O 326.509 2.68677 -0.0812828 0
M  V30 3226 C 324.78 2.49197 -2.56195 0
M  V30 3227 S 326.339 3.36953 -2.81083 0
M  V30 3228 H 323.157 0.469118 -0.534275 0
M  V30 3229 H 325.759 0.698845 -1.82583 0
M  V30 3230 H 324.463 2.0802 -3.53773 0
M  V30 3231 H 323.994 3.21717 -2.26411 0
M  V30 3232 H 326.009 4.47395 -2.14598 0
M  V30 3233 N 325.182 1.32811 0.848464 0
M  V30 3234 C 326.145 1.22194 1.9391 0
M  V30 3235 C 327.145 0.143404 1.60159 0
M  V30 3236 O 328.335 0.394253 1.6968 0
M  V30 3237 C 325.467 0.88067 3.29328 0
M  V30 3238 H 326.66 2.19127 2.04752 0
M  V30 3239 H 324.213 1.16731 1.0394 0
M  V30 3240 H 324.948 -0.0865776 3.24184 0
M  V30 3241 H 324.733 1.66052 3.55203 0
M  V30 3242 H 326.223 0.830871 4.09251 0
M  V30 3243 N 326.66 -1.06551 1.16123 0
M  V30 3244 C 327.592 -2.13908 0.823171 0
M  V30 3245 C 328.605 -1.61926 -0.16843 0
M  V30 3246 O 329.794 -1.78412 0.055962 0
M  V30 3247 C 326.894 -3.38283 0.204424 0
M  V30 3248 C 326.067 -4.19589 1.23548 0
M  V30 3249 C 325.126 -5.2233 0.637011 0
M  V30 3250 O 324.152 -5.54034 1.30516 0
M  V30 3251 N 325.354 -5.77621 -0.577474 0
M  V30 3252 H 328.119 -2.43508 1.74711 0
M  V30 3253 H 325.68 -1.2253 1.05821 0
M  V30 3254 H 327.672 -4.0416 -0.208909 0
M  V30 3255 H 326.242 -3.06329 -0.623012 0
M  V30 3256 H 325.462 -3.49406 1.82507 0
M  V30 3257 H 326.75 -4.70718 1.93137 0
M  V30 3258 H 326.148 -5.54125 -1.13853 0
M  V30 3259 H 324.705 -6.45087 -0.933053 0
M  V30 3260 N 328.138 -0.959301 -1.25041 0
M  V30 3261 C 329.085 -0.482057 -2.2571 0
M  V30 3262 C 330.055 0.467939 -1.59372 0
M  V30 3263 O 331.24 0.380159 -1.86974 0
M  V30 3264 C 328.38 0.229623 -3.44335 0
M  V30 3265 C 327.493 -0.758156 -4.25295 0
M  V30 3266 C 326.628 -0.0234403 -5.31195 0
M  V30 3267 C 325.667 -1.00184 -6.03846 0
M  V30 3268 N 324.804 -0.29769 -7.01469 0
M  V30 3269 H 329.644 -1.34538 -2.65901 0
M  V30 3270 H 327.181 -0.674592 -1.3072 0
M  V30 3271 H 329.139 0.658856 -4.11965 0
M  V30 3272 H 327.769 1.05696 -3.05005 0
M  V30 3273 H 326.821 -1.30586 -3.57284 0
M  V30 3274 H 328.133 -1.50458 -4.75567 0
M  V30 3275 H 327.287 0.464201 -6.04922 0
M  V30 3276 H 326.026 0.755741 -4.81809 0
M  V30 3277 H 325.031 -1.50044 -5.2893 0
M  V30 3278 H 326.256 -1.78133 -6.55321 0
M  V30 3279 H 324.202 0.462668 -6.54366 0
M  V30 3280 H 324.119 -0.983128 -7.4958 0
M  V30 3281 H 325.387 0.16826 -7.79318 0
M  V30 3282 N 329.616 1.39756 -0.72842 0
M  V30 3283 C 330.564 2.32485 -0.0731849 0
M  V30 3284 C 331.558 1.52717 0.733063 0
M  V30 3285 O 332.764 1.68428 0.634988 0
M  V30 3286 H 329.139 0.751984 -0.00486469 0
M  V30 3287 H 331.11 2.85382 -0.871761 0
M  V30 3288 C 329.859 3.37773 0.824908 0
M  V30 3289 H 329.182 3.99227 0.213915 0
M  V30 3290 H 330.622 4.05121 1.25111 0
M  V30 3291 C 329.081 2.74287 1.95622 0
M  V30 3292 O 329.611 2.61618 3.04826 0
M  V30 3293 N 327.817 2.32475 1.74367 0
M  V30 3294 H 327.364 2.4298 0.855494 0
M  V30 3295 H 327.322 1.90337 2.50238 0
M  V30 3296 N 331.094 0.475555 1.50254 0
M  V30 3297 C 332.51 0.12997 1.5907 0
M  V30 3298 C 332.71 -1.36385 1.48328 0
M  V30 3299 O 331.766 -2.13754 1.34407 0
M  V30 3300 C 333.079 0.684139 2.92814 0
M  V30 3301 C 334.627 0.647965 3.0622 0
M  V30 3302 C 335.102 1.17975 4.42545 0
M  V30 3303 N 336.593 1.13936 4.48969 0
M  V30 3304 C 337.328 1.52129 5.52851 0
M  V30 3305 N 336.824 1.97793 6.63965 0
M  V30 3306 N 338.617 1.43704 5.4342 0
M  V30 3307 H 330.768 1.44706 1.55479 0
M  V30 3308 H 333.031 0.598691 0.735033 0
M  V30 3309 H 332.737 1.73079 3.06164 0
M  V30 3310 H 332.611 0.130204 3.76975 0
M  V30 3311 H 334.998 -0.38979 2.92514 0
M  V30 3312 H 335.079 1.23876 2.23805 0
M  V30 3313 H 334.723 2.21616 4.57 0
M  V30 3314 H 334.653 0.565138 5.23559 0
M  V30 3315 H 337.144 0.804488 3.69238 0
M  V30 3316 H 337.457 2.25072 7.39299 0
M  V30 3317 H 335.802 2.01749 6.65073 0
M  V30 3318 H 338.993 1.07867 4.55502 0
M  V30 3319 H 339.166 1.73794 6.24259 0
M  V30 3320 N 332.573 -1.56217 0.208337 0
M  V30 3321 C 333.984 -1.84243 -0.301904 0
M  V30 3322 C 334.335 -1.12939 -1.60434 0
M  V30 3323 O 333.46 -0.39461 -2.12772 0
M  V30 3324 C 334.055 -3.34231 -0.554543 0
M  V30 3325 C 332.614 -3.62621 -1.00912 0
M  V30 3326 C 331.761 -2.77224 -0.064933 0
M  V30 3327 H 334.712 -1.52712 0.431833 0
M  V30 3328 H 334.733 -3.5372 -1.40223 0
M  V30 3329 H 334.245 -3.86099 0.393561 0
M  V30 3330 H 332.346 -3.16197 -1.97104 0
M  V30 3331 H 332.459 -4.7071 -0.892674 0
M  V30 3332 H 330.823 -2.48256 -0.56929 0
M  V30 3333 H 331.606 -3.31887 0.877851 0
M  V30 3334 N 334.051 0.0651679 -1.57465 0
M  V30 3335 C 335.299 0.761555 -1.87202 0
M  V30 3336 C 335.62 1.77778 -0.801243 0
M  V30 3337 O 334.89 1.95166 0.16937 0
M  V30 3338 H 333.47 0.284251 -0.690804 0
M  V30 3339 H 336.132 0.0396827 -1.9486 0
M  V30 3340 H 335.228 1.27365 -2.84929 0
M  V30 3341 N 335.529 1.53961 0.336706 0
M  V30 3342 C 336.775 1.7179 1.07777 0
M  V30 3343 C 337.108 0.483263 1.88091 0
M  V30 3344 O 336.383 -0.519747 1.87427 0
M  V30 3345 C 336.666 2.98558 2.01334 0
M  V30 3346 C 336.519 4.32245 1.24437 0
M  V30 3347 C 337.838 3.21023 3.01052 0
M  V30 3348 H 334.957 0.625089 0.390426 0
M  V30 3349 H 337.599 1.86641 0.35567 0
M  V30 3350 H 335.749 2.86028 2.62908 0
M  V30 3351 H 337.421 4.56637 0.654243 0
M  V30 3352 H 335.664 4.30344 0.546458 0
M  V30 3353 H 336.335 5.17137 1.93063 0
M  V30 3354 H 338.811 3.32929 2.49595 0
M  V30 3355 H 337.687 4.11104 3.6371 0
M  V30 3356 H 337.948 2.37637 3.72802 0
M  V30 3357 N 337.007 -0.598083 1.45811 0
M  V30 3358 C 338.237 -1.38121 1.53643 0
M  V30 3359 C 338.645 -1.88425 0.171081 0
M  V30 3360 O 337.988 -1.63409 -0.839237 0
M  V30 3361 C 338.05 -2.61432 2.46766 0
M  V30 3362 C 337.714 -2.32702 3.93318 0
M  V30 3363 C 338.711 -1.92479 4.82957 0
M  V30 3364 C 336.396 -2.45321 4.38318 0
M  V30 3365 C 338.39 -1.65248 6.15607 0
M  V30 3366 C 336.077 -2.17703 5.71007 0
M  V30 3367 C 337.075 -1.7773 6.5947 0
M  V30 3368 O 336.763 -1.50441 7.89698 0
M  V30 3369 H 336.495 -0.428863 0.522544 0
M  V30 3370 H 339.049 -0.73557 1.91777 0
M  V30 3371 H 337.279 -3.28749 2.0362 0
M  V30 3372 H 338.968 -3.23487 2.45175 0
M  V30 3373 H 339.734 -1.82258 4.49452 0
M  V30 3374 H 335.613 -2.75399 3.69697 0
M  V30 3375 H 339.157 -1.33973 6.84614 0
M  V30 3376 H 335.054 -2.27544 6.04065 0
M  V30 3377 H 335.822 -1.64415 8.01817 0
M  V30 3378 N 338.485 -1.33259 -0.841409 0
M  V30 3379 C 339.713 -1.27605 -1.62864 0
M  V30 3380 C 340.128 0.153507 -1.88175 0
M  V30 3381 O 339.485 1.09485 -1.46011 0
M  V30 3382 C 339.536 -2.04596 -2.98031 0
M  V30 3383 O 339.257 -3.41975 -2.73834 0
M  V30 3384 C 340.758 -2.06122 -3.92465 0
M  V30 3385 H 337.978 -0.439718 -0.506842 0
M  V30 3386 H 340.522 -1.75591 -1.04824 0
M  V30 3387 H 338.677 -1.60299 -3.5268 0
M  V30 3388 H 339.091 -3.81549 -3.59889 0
M  V30 3389 H 340.565 -2.64451 -4.84531 0
M  V30 3390 H 341.042 -1.05083 -4.26444 0
M  V30 3391 H 341.648 -2.50427 -3.43753 0
M  V30 3392 N 339.963 1.05934 -1.16686 0
M  V30 3393 C 340.91 2.13499 -0.876748 0
M  V30 3394 C 341.88 1.65162 0.176299 0
M  V30 3395 O 343.065 1.90757 0.0407143 0
M  V30 3396 C 340.205 3.42912 -0.387967 0
M  V30 3397 C 339.318 4.04964 -1.50426 0
M  V30 3398 C 338.453 5.22266 -0.970125 0
M  V30 3399 C 337.492 5.76309 -2.06238 0
M  V30 3400 N 336.629 6.84922 -1.54356 0
M  V30 3401 H 341.469 2.37654 -1.7979 0
M  V30 3402 H 339.006 1.16598 -0.896843 0
M  V30 3403 H 340.964 4.17111 -0.086186 0
M  V30 3404 H 339.594 3.18963 0.496235 0
M  V30 3405 H 338.646 3.28277 -1.92193 0
M  V30 3406 H 339.958 4.41122 -2.32836 0
M  V30 3407 H 339.112 6.03506 -0.621743 0
M  V30 3408 H 337.851 4.87564 -0.115377 0
M  V30 3409 H 336.856 4.93704 -2.41942 0
M  V30 3410 H 338.081 6.13062 -2.92115 0
M  V30 3411 H 336.027 6.52131 -0.711406 0
M  V30 3412 H 335.944 7.20043 -2.30379 0
M  V30 3413 H 337.212 7.69832 -1.22387 0
M  V30 3414 N 341.441 0.965919 1.2453 0
M  V30 3415 C 342.687 0.62776 1.92839 0
M  V30 3416 C 343.02 -0.834694 1.75347 0
M  V30 3417 O 342.295 -1.60031 1.10546 0
M  V30 3418 C 342.578 1.00109 3.45905 0
M  V30 3419 C 342.431 2.52011 3.72573 0
M  V30 3420 C 343.75 0.53435 4.36844 0
M  V30 3421 H 340.869 0.229537 0.700344 0
M  V30 3422 H 343.511 1.2046 1.46933 0
M  V30 3423 H 341.661 0.510238 3.85135 0
M  V30 3424 H 343.333 3.08559 3.42912 0
M  V30 3425 H 341.576 2.95287 3.17786 0
M  V30 3426 H 342.247 2.73183 4.79661 0
M  V30 3427 H 344.723 0.955565 4.04979 0
M  V30 3428 H 343.599 0.824152 5.42678 0
M  V30 3429 H 343.86 -0.565589 4.38467 0
M  V30 3430 N 342.919 -1.39368 0.735821 0
M  V30 3431 C 344.149 -2.04498 0.293967 0
M  V30 3432 C 344.557 -1.55593 -1.07645 0
M  V30 3433 O 343.9 -0.716324 -1.69158 0
M  V30 3434 C 343.962 -3.58836 0.218342 0
M  V30 3435 C 343.626 -4.30721 1.52736 0
M  V30 3436 C 344.623 -4.57305 2.47322 0
M  V30 3437 C 342.308 -4.69251 1.79189 0
M  V30 3438 C 344.302 -5.21429 3.66593 0
M  V30 3439 C 341.989 -5.33104 2.98737 0
M  V30 3440 C 342.987 -5.59125 3.9226 0
M  V30 3441 O 342.675 -6.21653 5.09708 0
M  V30 3442 H 342.407 -0.664118 0.126189 0
M  V30 3443 H 344.961 -1.79385 1.00051 0
M  V30 3444 H 343.191 -3.8285 -0.544314 0
M  V30 3445 H 344.88 -4.05447 -0.191626 0
M  V30 3446 H 345.646 -4.27983 2.28156 0
M  V30 3447 H 341.525 -4.48354 1.07239 0
M  V30 3448 H 345.069 -5.41656 4.39607 0
M  V30 3449 H 340.966 -5.61846 3.17803 0
M  V30 3450 H 341.734 -6.40146 5.10054 0
M  V30 3451 N 344.397 -0.483516 -1.5 0
M  V30 3452 C 345.345 0.318061 -2.30415 0
M  V30 3453 C 346.339 0.978988 -1.38247 0
M  V30 3454 O 347.545 0.908673 -1.55381 0
M  V30 3455 H 343.92 0.121419 -0.742133 0
M  V30 3456 H 345.891 -0.380403 -2.95965 0
M  V30 3457 C 344.64 1.38013 -3.19136 0
M  V30 3458 H 343.963 0.880952 -3.89973 0
M  V30 3459 H 345.403 1.91332 -3.78375 0
M  V30 3460 C 343.862 2.38884 -2.37563 0
M  V30 3461 O 344.392 3.44412 -2.06744 0
M  V30 3462 N 342.598 2.10912 -1.99911 0
M  V30 3463 H 342.145 1.25118 -2.25174 0
M  V30 3464 H 342.103 2.78635 -1.45636 0
M  V30 3465 N 345.875 1.56104 -0.216619 0
M  V30 3466 C 347.105 2.02269 0.420802 0
M  V30 3467 C 347.513 1.09575 1.5424 0
M  V30 3468 O 346.856 0.0967308 1.83445 0
M  V30 3469 C 346.918 3.44784 1.01806 0
M  V30 3470 C 346.582 4.56988 0.0325154 0
M  V30 3471 C 347.579 5.14225 -0.766055 0
M  V30 3472 C 345.264 5.02228 -0.0848092 0
M  V30 3473 C 347.258 6.15169 -1.6687 0
M  V30 3474 C 344.945 6.03011 -0.990994 0
M  V30 3475 C 345.943 6.59357 -1.78149 0
M  V30 3476 O 345.631 7.58179 -2.67245 0
M  V30 3477 H 345.363 0.667353 0.107776 0
M  V30 3478 H 347.917 2.02747 -0.329034 0
M  V30 3479 H 346.147 3.41359 1.81689 0
M  V30 3480 H 347.836 3.74626 1.56237 0
M  V30 3481 H 348.602 4.80126 -0.685836 0
M  V30 3482 H 344.481 4.58054 0.520349 0
M  V30 3483 H 348.025 6.59076 -2.28615 0
M  V30 3484 H 343.922 6.36532 -1.07225 0
M  V30 3485 H 344.69 7.75682 -2.61265 0
M  V30 3486 N 347.353 -0.0568162 1.57498 0
M  V30 3487 C 348.599 -0.75422 1.88253 0
M  V30 3488 C 348.932 -1.76461 0.810865 0
M  V30 3489 O 348.207 -1.93691 -0.177259 0
M  V30 3490 C 348.49 -1.44878 3.2967 0
M  V30 3491 C 348.343 -0.453789 4.47505 0
M  V30 3492 C 349.662 -2.38994 3.69554 0
M  V30 3493 H 346.781 -0.272724 0.684683 0
M  V30 3494 H 349.423 -0.0172113 1.89992 0
M  V30 3495 H 347.573 -2.077 3.28318 0
M  V30 3496 H 349.245 0.170371 4.60985 0
M  V30 3497 H 347.488 0.229552 4.33192 0
M  V30 3498 H 348.159 -0.977699 5.43273 0
M  V30 3499 H 350.635 -1.86239 3.72095 0
M  V30 3500 H 349.511 -2.84587 4.69363 0
M  V30 3501 H 349.772 -3.24461 3.00296 0
M  V30 3502 N 348.832 -1.54138 -0.328536 0
M  V30 3503 C 350.109 -1.62749 -1.08499 0
M  V30 3504 C 350.489 -0.458198 -2.06067 0
M  V30 3505 O 349.837 0.548046 -2.2183 0
M  V30 3506 C 350.047 -2.99519 -1.79135 0
M  V30 3507 C 351.395 -3.55394 -2.32337 0
M  V30 3508 O 352.419 -3.01792 -1.89209 0
M  V30 3509 O 351.278 -4.49186 -3.11279 0
M  V30 3510 H 348.372 -0.65886 -0.499832 0
M  V30 3511 H 350.918 -1.66484 -0.328826 0
M  V30 3512 H 349.69 -3.76061 -1.08139 0
M  V30 3513 H 349.313 -2.99441 -2.61574 0
M  V30 3514 N 350.31 0.590341 -1.46126 0
M  V30 3515 C 351.556 1.34874 -1.52252 0
M  V30 3516 C 351.911 1.91658 -0.168807 0
M  V30 3517 O 351.204 1.73093 0.821556 0
M  V30 3518 C 351.398 2.5032 -2.55097 0
M  V30 3519 C 351.227 2.04843 -4.00337 0
M  V30 3520 C 349.997 1.90213 -4.68132 0
M  V30 3521 C 352.195 1.61267 -4.88362 0
M  V30 3522 N 350.177 1.38727 -5.9802 0
M  V30 3523 C 351.548 1.21319 -6.08015 0
M  V30 3524 C 353.603 1.49015 -4.75078 0
M  V30 3525 C 352.306 0.7034 -7.15852 0
M  V30 3526 C 354.332 0.994401 -5.8298 0
M  V30 3527 C 353.694 0.604659 -7.018 0
M  V30 3528 H 349.793 0.486803 -0.612002 0
M  V30 3529 H 352.377 0.673007 -1.82698 0
M  V30 3530 H 350.548 3.15466 -2.26574 0
M  V30 3531 H 352.28 3.1725 -2.51266 0
M  V30 3532 H 349.035 2.11927 -4.23537 0
M  V30 3533 H 349.459 1.15168 -6.67132 0
M  V30 3534 H 354.101 1.77768 -3.83612 0
M  V30 3535 H 351.819 0.403446 -8.07092 0
M  V30 3536 H 355.405 0.903621 -5.7474 0
M  V30 3537 H 354.285 0.226963 -7.83871 0
M  V30 3538 N 351.788 1.33704 0.83433 0
M  V30 3539 C 353.037 1.24763 1.58484 0
M  V30 3540 C 353.35 -0.183775 1.94735 0
M  V30 3541 O 354.556 -0.395234 2.68608 0
M  V30 3542 C 353.012 2.18638 2.85876 0
M  V30 3543 C 352.62 3.66974 2.56971 0
M  V30 3544 C 354.364 2.18581 3.63899 0
M  V30 3545 C 352.271 4.5275 3.80488 0
M  V30 3546 H 351.201 0.463425 0.594772 0
M  V30 3547 H 353.852 1.58797 0.919551 0
M  V30 3548 H 352.234 1.77542 3.5397 0
M  V30 3549 H 353.408 4.16538 1.9706 0
M  V30 3550 H 351.723 3.69366 1.92244 0
M  V30 3551 H 354.32 2.79894 4.55591 0
M  V30 3552 H 354.663 1.18207 3.99165 0
M  V30 3553 H 355.196 2.58062 3.02735 0
M  V30 3554 H 351.935 5.54017 3.5035 0
M  V30 3555 H 351.455 4.07927 4.39722 0
M  V30 3556 H 353.134 4.66784 4.4802 0
M  V30 3557 N 353.266 -1.05314 1.17247 0
M  V30 3558 C 354.213 -2.13031 0.888058 0
M  V30 3559 C 355.183 -1.65253 -0.167537 0
M  V30 3560 O 356.368 -1.90775 -0.0305974 0
M  V30 3561 C 353.508 -3.42702 0.406147 0
M  V30 3562 C 352.621 -4.04161 1.52572 0
M  V30 3563 C 351.756 -5.21744 0.997808 0
M  V30 3564 C 350.795 -5.75207 2.09291 0
M  V30 3565 N 349.932 -6.84094 1.57986 0
M  V30 3566 H 354.772 -2.36698 1.81048 0
M  V30 3567 H 352.309 -1.16121 0.903013 0
M  V30 3568 H 354.267 -4.17059 0.108305 0
M  V30 3569 H 352.897 -3.19222 -0.479313 0
M  V30 3570 H 351.949 -3.27253 1.93931 0
M  V30 3571 H 353.261 -4.39881 2.35172 0
M  V30 3572 H 352.415 -6.03168 0.653739 0
M  V30 3573 H 351.154 -4.87495 0.141232 0
M  V30 3574 H 350.159 -4.92414 2.44557 0
M  V30 3575 H 351.384 -6.11505 2.95362 0
M  V30 3576 H 349.33 -6.51745 0.74598 0
M  V30 3577 H 349.247 -7.18811 2.34195 0
M  V30 3578 H 350.515 -7.69172 1.26468 0
M  V30 3579 N 354.744 -0.972509 -1.24016 0
M  V30 3580 C 356.021 -0.553733 -1.87598 0
M  V30 3581 C 356.401 0.969158 -1.87538 0
M  V30 3582 O 355.749 1.84255 -1.35139 0
M  V30 3583 C 355.959 -1.15076 -3.29482 0
M  V30 3584 C 357.307 -1.23862 -4.06132 0
M  V30 3585 O 358.331 -1.10363 -3.38672 0
M  V30 3586 O 357.19 -1.45252 -5.26844 0
M  V30 3587 H 354.284 -0.185331 -0.805966 0
M  V30 3588 H 356.83 -1.06709 -1.31952 0
M  V30 3589 H 355.602 -2.19333 -3.2405 0
M  V30 3590 H 355.225 -0.621746 -3.92709 0
M  V30 3591 N 356.222 1.38976 -0.743202 0
M  V30 3592 C 357.45 2.04636 -0.30525 0
M  V30 3593 C 357.865 1.56044 1.06281 0
M  V30 3594 O 357.222 0.728921 1.67311 0
M  V30 3595 C 357.273 3.60193 -0.307177 0
M  V30 3596 O 356.994 4.06998 -1.62124 0
M  V30 3597 C 358.495 4.4306 0.145928 0
M  V30 3598 H 355.715 0.65788 -0.132041 0
M  V30 3599 H 358.259 1.77866 -1.00915 0
M  V30 3600 H 356.414 3.85835 0.347898 0
M  V30 3601 H 356.828 5.01371 -1.54036 0
M  V30 3602 H 358.302 5.51921 0.0934183 0
M  V30 3603 H 358.779 4.22706 1.19231 0
M  V30 3604 H 359.385 4.22584 -0.479886 0
M  V30 3605 N 357.7 0.491464 1.49741 0
M  V30 3606 C 358.949 -0.0582189 2.01616 0
M  V30 3607 C 359.262 -1.38927 1.3769 0
M  V30 3608 O 360.468 -2.02509 1.80838 0
M  V30 3609 C 358.924 -0.154235 3.59569 0
M  V30 3610 C 358.532 1.1696 4.32463 0
M  V30 3611 C 360.276 -0.65479 4.1942 0
M  V30 3612 C 358.183 1.03627 5.8225 0
M  V30 3613 H 357.113 -0.0255317 0.753568 0
M  V30 3614 H 359.764 0.629445 1.72367 0
M  V30 3615 H 358.146 -0.906138 3.85493 0
M  V30 3616 H 359.32 1.93405 4.18248 0
M  V30 3617 H 357.635 1.60285 3.84315 0
M  V30 3618 H 360.232 -0.771903 5.29099 0
M  V30 3619 H 360.575 -1.65127 3.8215 0
M  V30 3620 H 361.108 0.040304 3.9778 0
M  V30 3621 H 357.847 2.00672 6.24028 0
M  V30 3622 H 357.367 0.312546 5.98985 0
M  V30 3623 H 359.046 0.711114 6.4308 0
M  V30 3624 N 359.178 -1.55987 0.224894 0
M  V30 3625 C 360.141 -2.19178 -0.670348 0
M  V30 3626 C 361.141 -1.15461 -1.11917 0
M  V30 3627 O 362.331 -1.40675 -1.02743 0
M  V30 3628 C 359.463 -2.81777 -1.9187 0
M  V30 3629 H 360.656 -2.99662 -0.119364 0
M  V30 3630 H 358.209 -1.5628 -0.0247128 0
M  V30 3631 H 358.944 -2.05172 -2.51147 0
M  V30 3632 H 358.729 -3.57732 -1.60531 0
M  V30 3633 H 360.219 -3.30205 -2.55645 0
M  V30 3634 N 360.656 0.0484629 -1.57525 0
M  V30 3635 C 361.619 1.03956 -2.04269 0
M  V30 3636 C 362.619 1.30211 -0.943496 0
M  V30 3637 O 363.809 1.25539 -1.20771 0
M  V30 3638 C 360.941 2.37742 -2.44319 0
M  V30 3639 H 362.134 0.636182 -2.93075 0
M  V30 3640 H 359.687 0.294811 -1.53494 0
M  V30 3641 H 360.422 2.82866 -1.5861 0
M  V30 3642 H 360.207 2.20021 -3.24551 0
M  V30 3643 H 361.697 3.08936 -2.80978 0
M  V30 3644 N 362.134 1.5431 0.320358 0
M  V30 3645 C 363.082 1.84647 1.4145 0
M  V30 3646 C 364.076 0.718624 1.53402 0
M  V30 3647 O 365.282 0.902335 1.5575 0
M  V30 3648 H 361.657 0.585349 0.472091 0
M  V30 3649 H 363.628 2.7614 1.13089 0
M  V30 3650 C 362.377 2.09341 2.77617 0
M  V30 3651 H 361.7 2.9559 2.69196 0
M  V30 3652 H 363.14 2.3452 3.53237 0
M  V30 3653 C 361.599 0.885939 3.25043 0
M  V30 3654 O 362.129 0.0967891 4.01583 0
M  V30 3655 N 360.335 0.696682 2.82125 0
M  V30 3656 H 359.882 1.34006 2.2 0
M  V30 3657 H 359.84 -0.109712 3.14209 0
M  V30 3658 N 363.613 -0.582584 1.46437 0
M  V30 3659 C 364.838 -1.37168 1.55563 0
M  V30 3660 C 365.263 -1.87061 0.19743 0
M  V30 3661 O 364.621 -1.61572 -0.822451 0
M  V30 3662 C 364.669 -2.53511 2.56446 0
M  V30 3663 O 363.773 -3.54953 2.09958 0
M  V30 3664 H 363.114 -0.408494 0.523477 0
M  V30 3665 H 365.644 -0.706646 1.9201 0
M  V30 3666 H 365.654 -3.00426 2.76058 0
M  V30 3667 H 364.329 -2.16549 3.55076 0
M  V30 3668 H 362.906 -3.14516 2.00334 0
M  V30 3669 O 365.13 -1.44218 -0.726867 0
M  V30 3670 H 365.821 -1.36218 -1.37711 0
M  V30 END ATOM
M  V30 BEGIN BOND
M  V30 END BOND
M  V30 END CTAB
M  END
$$$$
