drugbank_drug|DB00015 DB00015 sequence
 OpenBabel12092119113D

  0  0  0     0  0            999 V3000
M  V30 BEGIN CTAB
M  V30 COUNTS 5449 5522 0 0 0
M  V30 BEGIN ATOM
M  V30 1 H -0.908 1.98254 -0.117106 0
M  V30 2 N 0 1.576 0 0
M  V30 3 C 1.225 1.95249 0.699468 0
M  V30 4 C 1.65 0.874934 1.66513 0
M  V30 5 O 1.008 -0.166929 1.8053 0
M  V30 6 C 1.056 3.31994 1.40756 0
M  V30 7 O 0.16 3.26298 2.52197 0
M  V30 8 H -0.499 0.637402 0.186051 0
M  V30 9 H 2.031 2.04531 -0.05319 0
M  V30 10 H 2.041 3.6756 1.77098 0
M  V30 11 H 0.716 4.09975 0.69953 0
M  V30 12 H -0.707 3.02408 2.18183 0
M  V30 13 N 1.4781 -0.272755 1.55222 0
M  V30 14 C 2.7081 -1.02107 1.79604 0
M  V30 15 C 3.1161 -1.80419 0.569693 0
M  V30 16 O 2.4591 -1.77566 -0.470743 0
M  V30 17 C 2.5211 -2.02675 2.96922 0
M  V30 18 C 2.1851 -1.43299 4.33952 0
M  V30 19 C 3.1821 -0.84853 5.12929 0
M  V30 20 C 0.8671 -1.46012 4.8061 0
M  V30 21 C 2.8611 -0.299109 6.36698 0
M  V30 22 C 0.5481 -0.906833 6.04334 0
M  V30 23 C 1.5461 -0.32733 6.82215 0
M  V30 24 O 1.2341 0.217479 8.03606 0
M  V30 25 H 0.9661 -0.307322 0.602104 0
M  V30 26 H 3.5201 -0.308862 2.03065 0
M  V30 27 H 1.7501 -2.77656 2.69155 0
M  V30 28 H 3.4391 -2.63637 3.08626 0
M  V30 29 H 4.2051 -0.820265 4.78013 0
M  V30 30 H 0.0841 -1.90056 4.2 0
M  V30 31 H 3.6281 0.153852 6.9743 0
M  V30 32 H -0.4749 -0.932339 6.38731 0
M  V30 33 H 0.2931 0.106863 8.1843 0
M  V30 34 N 2.9562 -1.48159 -0.537278 0
M  V30 35 C 3.8882 -1.58218 -1.65831 0
M  V30 36 C 4.9012 -0.466948 -1.5596 0
M  V30 37 O 6.0902 -0.73747 -1.62553 0
M  V30 38 C 3.1902 -1.48906 -3.04434 0
M  V30 39 C 2.3632 -2.75343 -3.3986 0
M  V30 40 C 1.4222 -2.59588 -4.57712 0
M  V30 41 O 0.4482 -3.33457 -4.61297 0
M  V30 42 N 1.6502 -1.68724 -5.55439 0
M  V30 43 H 4.4152 -2.54891 -1.57641 0
M  V30 44 H 1.9762 -1.4479 -0.724386 0
M  V30 45 H 3.9682 -1.36072 -3.81139 0
M  V30 46 H 2.5382 -0.602368 -3.06741 0
M  V30 47 H 1.7582 -3.02795 -2.52406 0
M  V30 48 H 3.0462 -3.5924 -3.60311 0
M  V30 49 H 2.4442 -1.07898 -5.55315 0
M  V30 50 H 1.0012 -1.61832 -6.3139 0
M  V30 51 N 4.4343 0.785586 -1.36625 0
M  V30 52 C 5.6823 1.54057 -1.30808 0
M  V30 53 C 6.0033 1.94683 0.111157 0
M  V30 54 O 5.2733 1.65241 1.05224 0
M  V30 55 H 3.8533 0.571354 -0.481211 0
M  V30 56 H 6.5153 0.935821 -1.70963 0
M  V30 57 H 5.6113 2.44637 -1.93801 0
M  V30 58 N 5.9124 1.20967 1.01018 0
M  V30 59 C 6.8604 0.961223 2.1181 0
M  V30 60 C 7.8544 -0.0897034 1.69162 0
M  V30 61 O 9.0604 0.0612271 1.79896 0
M  V30 62 H 5.4354 0.29355 0.692338 0
M  V30 63 H 7.4064 1.90178 2.29946 0
M  V30 64 C 6.1554 0.536854 3.4353 0
M  V30 65 H 5.4784 1.33713 3.76777 0
M  V30 66 H 6.9184 0.402286 4.22087 0
M  V30 67 C 5.3774 -0.751574 3.2841 0
M  V30 68 O 5.9074 -1.80841 3.58691 0
M  V30 69 N 4.1134 -0.716079 2.81639 0
M  V30 70 H 3.6604 0.144236 2.57196 0
M  V30 71 H 3.6184 -1.57847 2.71904 0
M  V30 72 N 7.3905 -1.2043 1.01659 0
M  V30 73 C 8.6155 -1.94318 0.724942 0
M  V30 74 C 9.0405 -1.74266 -0.708034 0
M  V30 75 O 8.3985 -1.03694 -1.48719 0
M  V30 76 C 8.4465 -3.44486 1.06591 0
M  V30 77 O 7.5505 -4.12017 0.177599 0
M  V30 78 H 6.8915 -0.60708 0.26898 0
M  V30 79 H 9.4215 -1.52861 1.35995 0
M  V30 80 H 9.4315 -3.95106 1.01762 0
M  V30 81 H 8.1065 -3.58404 2.10997 0
M  V30 82 H 6.6835 -3.71821 0.283421 0
M  V30 83 N 8.8686 -0.792821 -1.36206 0
M  V30 84 C 10.1456 -0.290627 -1.93429 0
M  V30 85 C 10.5256 1.21773 -1.72437 0
M  V30 86 O 9.8736 2.0108 -1.08531 0
M  V30 87 C 10.0836 -0.686973 -3.42172 0
M  V30 88 C 11.4316 -0.668643 -4.19302 0
M  V30 89 O 12.4556 -0.627658 -3.50626 0
M  V30 90 O 11.3146 -0.714597 -5.41808 0
M  V30 91 H 8.4086 -0.0727927 -0.82379 0
M  V30 92 H 10.9546 -0.875593 -1.45367 0
M  V30 93 H 9.7266 -1.72711 -3.51122 0
M  V30 94 H 9.3496 -0.0760733 -3.97527 0
M  V30 95 N 10.3467 1.47872 -0.545128 0
M  V30 96 C 11.5867 2.04391 -0.0187854 0
M  V30 97 C 11.9507 1.41162 1.30144 0
M  V30 98 O 13.1517 1.88656 1.91474 0
M  V30 99 C 11.4227 3.57299 0.0850867 0
M  V30 100 S 12.9817 4.35221 0.559302 0
M  V30 101 H 9.7997 0.710737 -0.0193301 0
M  V30 102 H 12.4017 1.81395 -0.729125 0
M  V30 103 H 11.1057 4.00847 -0.880351 0
M  V30 104 H 10.6367 3.84773 0.819348 0
M  V30 105 H 12.6517 4.61571 1.82118 0
M  V30 106 N 11.8248 0.280983 1.55075 0
M  V30 107 C 13.0548 -0.336804 2.03836 0
M  V30 108 C 13.4628 -1.49577 1.15859 0
M  V30 109 O 12.8058 -1.82888 0.172503 0
M  V30 110 C 12.8678 -0.874616 3.48699 0
M  V30 111 C 12.5318 0.156478 4.56732 0
M  V30 112 C 13.5288 0.978032 5.10618 0
M  V30 113 C 11.2138 0.292409 5.01448 0
M  V30 114 C 13.2078 1.92165 6.07743 0
M  V30 115 C 10.8948 1.23949 5.98398 0
M  V30 116 C 11.8928 2.05261 6.51427 0
M  V30 117 O 11.5808 2.98367 7.4648 0
M  V30 118 H 11.3128 -0.0800885 0.671239 0
M  V30 119 H 13.8668 0.412589 2.01213 0
M  V30 120 H 12.0968 -1.67418 3.4858 0
M  V30 121 H 13.7858 -1.40612 3.80766 0
M  V30 122 H 14.5518 0.883782 4.7688 0
M  V30 123 H 10.4308 -0.330498 4.59814 0
M  V30 124 H 13.9748 2.55672 6.49059 0
M  V30 125 H 9.8718 1.33454 6.31554 0
M  V30 126 H 10.6398 2.93116 7.64215 0
M  V30 127 N 13.3029 -1.57598 0.00835791 0
M  V30 128 C 14.5499 -1.90928 -0.674732 0
M  V30 129 C 14.8779 -0.88277 -1.73313 0
M  V30 130 O 14.1329 0.111294 -1.95383 0
M  V30 131 C 14.4319 -3.3101 -1.34787 0
M  V30 132 C 14.0979 -4.48922 -0.421861 0
M  V30 133 C 12.7599 -4.8091 -0.166927 0
M  V30 134 C 15.1119 -5.20755 0.215211 0
M  V30 135 C 12.4399 -5.821 0.733232 0
M  V30 136 C 14.7919 -6.22905 1.1033 0
M  V30 137 C 13.4559 -6.53346 1.36733 0
M  V30 138 H 12.7259 -0.698656 -0.246902 0
M  V30 139 H 15.3729 -1.91387 0.0656779 0
M  V30 140 H 13.6779 -3.26714 -2.16253 0
M  V30 141 H 15.3749 -3.54061 -1.8826 0
M  V30 142 H 11.9649 -4.23934 -0.630729 0
M  V30 143 H 16.1489 -4.9629 0.0312829 0
M  V30 144 H 11.4049 -6.04042 0.945712 0
M  V30 145 H 15.5789 -6.77694 1.60325 0
M  V30 146 H 13.2059 -7.31573 2.06652 0
M  V30 147 N 14.781 0.264519 -1.55364 0
M  V30 148 C 16.029 0.993021 -1.76021 0
M  V30 149 C 16.35 1.86511 -0.569099 0
M  V30 150 O 15.62 1.91438 0.415735 0
M  V30 151 H 14.2 0.369639 -0.649135 0
M  V30 152 H 16.862 0.286707 -1.9278 0
M  V30 153 H 15.958 1.62502 -2.66457 0
M  V30 154 N 16.2591 1.48442 0.529413 0
M  V30 155 C 17.2071 1.63452 1.65487 0
M  V30 156 C 18.2011 0.500955 1.61823 0
M  V30 157 O 19.4071 0.679695 1.66674 0
M  V30 158 H 15.7821 0.514905 0.548066 0
M  V30 159 H 17.7531 2.57975 1.49971 0
M  V30 160 C 16.5021 1.69196 3.03756 0
M  V30 161 H 15.8251 2.55784 3.07269 0
M  V30 162 H 17.2651 1.83743 3.82119 0
M  V30 163 C 15.7241 0.430765 3.34135 0
M  V30 164 O 16.2541 -0.4561 3.99102 0
M  V30 165 N 14.4601 0.302293 2.89023 0
M  V30 166 H 14.0071 1.02496 2.36331 0
M  V30 167 H 13.9651 -0.540546 3.09718 0
M  V30 168 N 17.7372 -0.778329 1.37039 0
M  V30 169 C 18.9852 -1.53361 1.31623 0
M  V30 170 C 19.3062 -1.94739 -0.100831 0
M  V30 171 O 18.5762 -1.65797 -1.04347 0
M  V30 172 H 17.1562 -0.568794 0.484234 0
M  V30 173 H 19.8182 -0.926742 1.71457 0
M  V30 174 H 18.9142 -2.43606 1.95096 0
M  V30 175 N 19.2153 -1.21501 -1.00376 0
M  V30 176 C 20.4403 -1.05977 -1.78279 0
M  V30 177 C 20.8653 0.385994 -1.84097 0
M  V30 178 O 20.2233 1.27849 -1.28547 0
M  V30 179 C 20.2713 -1.66302 -3.19963 0
M  V30 180 O 19.3753 -0.909333 -4.0225 0
M  V30 181 H 18.7163 -0.372906 -0.549397 0
M  V30 182 H 21.2463 -1.6107 -1.26165 0
M  V30 183 H 21.2563 -1.70574 -3.70632 0
M  V30 184 H 19.9313 -2.71515 -3.15043 0
M  V30 185 H 18.5083 -0.941795 -3.60811 0
M  V30 186 N 20.6934 1.19889 -1.02296 0
M  V30 187 C 21.6564 2.21116 -0.603351 0
M  V30 188 C 22.6564 1.5738 0.329884 0
M  V30 189 O 23.8464 1.73802 0.117702 0
M  V30 190 C 20.9784 3.40696 0.117992 0
M  V30 191 H 22.1714 2.59754 -1.49893 0
M  V30 192 H 19.7244 1.33463 -0.813468 0
M  V30 193 H 20.4594 3.07569 1.0282 0
M  V30 194 H 20.2444 3.88188 -0.552511 0
M  V30 195 H 21.7344 4.15692 0.398696 0
M  V30 196 N 22.1715 0.800033 1.35784 0
M  V30 197 C 23.4015 0.389041 2.02904 0
M  V30 198 C 23.8095 -1.0027 1.60445 0
M  V30 199 O 23.1525 -1.65633 0.794453 0
M  V30 200 C 23.2145 0.385495 3.57427 0
M  V30 201 C 22.8785 1.72662 4.23127 0
M  V30 202 C 23.8755 2.68385 4.4527 0
M  V30 203 C 21.5605 2.00883 4.60381 0
M  V30 204 C 23.5545 3.90517 5.03761 0
M  V30 205 C 21.2415 3.2328 5.18588 0
M  V30 206 C 22.2395 4.17915 5.40218 0
M  V30 207 O 21.9275 5.38153 5.97199 0
M  V30 208 H 21.6595 0.157032 0.657508 0
M  V30 209 H 24.2135 1.08311 1.74522 0
M  V30 210 H 22.4435 -0.365128 3.84972 0
M  V30 211 H 24.1325 -0.00228296 4.059 0
M  V30 212 H 24.8985 2.47872 4.16874 0
M  V30 213 H 20.7775 1.28037 4.42863 0
M  V30 214 H 24.3215 4.64395 5.2056 0
M  V30 215 H 20.2185 3.43667 5.4641 0
M  V30 216 H 20.9865 5.3936 6.15656 0
M  V30 217 N 23.6496 -1.47581 0.552962 0
M  V30 218 C 25.0656 -1.5818 0.212424 0
M  V30 219 C 25.2656 -1.55213 -1.28496 0
M  V30 220 O 24.3216 -1.45329 -2.06484 0
M  V30 221 C 25.6346 -2.88865 0.835318 0
M  V30 222 C 27.1826 -3.0244 0.806156 0
M  V30 223 C 27.6576 -4.35819 1.40804 0
M  V30 224 N 29.1486 -4.42444 1.37103 0
M  V30 225 C 29.8836 -5.44202 1.80641 0
M  V30 226 N 29.3796 -6.52795 2.32015 0
M  V30 227 N 31.1726 -5.35222 1.71738 0
M  V30 228 H 23.3236 -1.47753 1.52587 0
M  V30 229 H 25.5866 -0.702941 0.636064 0
M  V30 230 H 25.2926 -2.9676 1.88749 0
M  V30 231 H 25.1666 -3.7579 0.325848 0
M  V30 232 H 27.5536 -2.94144 -0.237317 0
M  V30 233 H 27.6346 -2.17068 1.35334 0
M  V30 234 H 27.2786 -4.44871 2.45056 0
M  V30 235 H 27.2086 -5.19916 0.836338 0
M  V30 236 H 29.6996 -3.6456 0.995202 0
M  V30 237 H 30.0126 -7.26609 2.63171 0
M  V30 238 H 28.3576 -6.53696 2.36023 0
M  V30 239 H 31.5486 -4.49284 1.31382 0
M  V30 240 H 31.7216 -6.14389 2.05987 0
M  V30 241 N 25.1277 -0.289203 -1.54924 0
M  V30 242 C 26.3757 0.322879 -1.99504 0
M  V30 243 C 26.6967 1.55313 -1.1791 0
M  V30 244 O 25.9667 1.94001 -0.272097 0
M  V30 245 H 24.5467 0.122291 -0.736922 0
M  V30 246 H 27.2087 -0.397802 -1.90797 0
M  V30 247 H 26.3047 0.603061 -3.06218 0
M  V30 248 N 26.6058 1.57591 -0.0167156 0
M  V30 249 C 27.8338 1.95575 0.675128 0
M  V30 250 C 28.2488 0.892542 1.6637 0
M  V30 251 O 27.6058 -0.126912 1.82058 0
M  V30 252 C 27.6568 3.33608 1.39239 0
M  V30 253 O 27.3778 4.3585 0.443444 0
M  V30 254 C 28.8788 3.86151 2.17721 0
M  V30 255 H 26.0988 0.644423 0.186978 0
M  V30 256 H 28.6428 2.0437 -0.0728 0
M  V30 257 H 26.7978 3.2607 2.09182 0
M  V30 258 H 27.2118 5.158 0.951358 0
M  V30 259 H 28.6858 4.85114 2.63379 0
M  V30 260 H 29.1628 3.19738 3.01105 0
M  V30 261 H 29.7688 3.96918 1.52761 0
M  V30 262 N 28.0839 -0.256276 1.55502 0
M  V30 263 C 29.0339 -1.31981 1.85916 0
M  V30 264 C 30.0179 -1.43927 0.719296 0
M  V30 265 O 31.2099 -1.47326 0.981019 0
M  V30 266 C 28.3389 -2.67703 2.14918 0
M  V30 267 C 27.4249 -2.59801 3.35208 0
M  V30 268 N 27.8159 -2.21524 4.54709 0
M  V30 269 C 26.1139 -2.90832 3.38131 0
M  V30 270 C 26.8149 -2.24024 5.36832 0
M  V30 271 N 25.7909 -2.63158 4.75656 0
M  V30 272 H 29.5929 -1.01423 2.75845 0
M  V30 273 H 27.1069 -0.464911 1.55603 0
M  V30 274 H 29.1039 -3.44445 2.34869 0
M  V30 275 H 27.7639 -2.99137 1.26282 0
M  V30 276 H 28.7749 -1.93223 4.80505 0
M  V30 277 H 25.4519 -3.26867 2.59739 0
M  V30 278 H 26.8419 -1.9685 6.42417 0
M  V30 279 N 29.562 -1.4872 -0.521534 0
M  V30 280 C 30.787 -1.61101 -1.30618 0
M  V30 281 C 31.212 -0.274611 -1.86085 0
M  V30 282 O 30.57 0.754937 -1.64834 0
M  V30 283 C 30.618 -2.66709 -2.4269 0
M  V30 284 O 29.722 -2.24456 -3.45967 0
M  V30 285 H 29.063 -0.539921 -0.386499 0
M  V30 286 H 31.593 -1.94767 -0.626645 0
M  V30 287 H 31.603 -2.88245 -2.88754 0
M  V30 288 H 30.278 -3.63727 -2.01682 0
M  V30 289 H 28.855 -2.13168 -3.05964 0
M  V30 290 N 31.0401 0.771051 -1.3745 0
M  V30 291 C 31.9701 1.89827 -1.3597 0
M  V30 292 C 32.9511 1.68562 -0.228216 0
M  V30 293 O 34.1361 1.8941 -0.428675 0
M  V30 294 C 31.2661 3.2712 -1.16662 0
M  V30 295 C 30.2201 3.6295 -2.2683 0
M  V30 296 C 29.5461 4.98791 -1.92644 0
M  V30 297 C 30.8461 3.69627 -3.69017 0
M  V30 298 H 32.5401 1.91323 -2.30295 0
M  V30 299 H 30.0861 0.919082 -1.10855 0
M  V30 300 H 32.0391 4.05615 -1.14256 0
M  V30 301 H 30.7631 3.26059 -0.187926 0
M  V30 302 H 29.4221 2.86763 -2.28392 0
M  V30 303 H 29.0701 4.94271 -0.933021 0
M  V30 304 H 28.7701 5.23733 -2.66416 0
M  V30 305 H 30.2941 5.79685 -1.91826 0
M  V30 306 H 31.7081 4.38273 -3.69581 0
M  V30 307 H 30.1051 4.06067 -4.41848 0
M  V30 308 H 31.1751 2.70273 -4.02592 0
M  V30 309 N 32.5182 1.22032 0.997298 0
M  V30 310 C 33.7462 1.06841 1.7718 0
M  V30 311 C 34.1612 -0.381325 1.84909 0
M  V30 312 O 33.5182 -1.26437 1.31605 0
M  V30 313 C 33.5692 1.66814 3.20711 0
M  V30 314 O 33.2902 3.06116 3.13408 0
M  V30 315 C 34.7912 1.56838 4.14628 0
M  V30 316 H 32.0112 0.374782 0.556578 0
M  V30 317 H 34.5552 1.61532 1.2541 0
M  V30 318 H 32.7102 1.16196 3.69564 0
M  V30 319 H 33.1242 3.34926 4.0364 0
M  V30 320 H 34.5982 2.03532 5.13107 0
M  V30 321 H 35.0752 0.524155 4.36061 0
M  V30 322 H 35.6812 2.06741 3.7167 0
M  V30 323 N 33.9963 -1.19345 1.0293 0
M  V30 324 C 34.9063 -2.26245 0.620515 0
M  V30 325 C 35.9223 -1.70486 -0.347928 0
M  V30 326 O 37.0983 -2.00347 -0.205704 0
M  V30 327 C 34.1633 -3.46693 -0.0218957 0
M  V30 328 C 33.2243 -4.17632 0.994102 0
M  V30 329 C 32.4573 -5.32329 0.382253 0
M  V30 330 O 32.6803 -5.64552 -0.814676 0
M  V30 331 O 31.6143 -5.91664 1.10531 0
M  V30 332 H 35.4403 -2.63453 1.51083 0
M  V30 333 H 33.0253 -1.26207 0.799513 0
M  V30 334 H 34.9073 -4.19683 -0.380072 0
M  V30 335 H 33.5823 -3.11333 -0.886209 0
M  V30 336 H 32.4893 -3.4676 1.40387 0
M  V30 337 H 33.8223 -4.56964 1.8288 0
M  V30 338 N 35.4744 -0.807222 -1.35358 0
M  V30 339 C 36.6994 -0.399309 -2.0352 0
M  V30 340 C 37.1244 0.981986 -1.60433 0
M  V30 341 O 36.4824 1.63601 -0.781299 0
M  V30 342 C 36.5304 -0.491552 -3.57234 0
M  V30 343 O 35.6344 0.494754 -4.09421 0
M  V30 344 H 34.9754 -0.166682 -0.642739 0
M  V30 345 H 37.5054 -1.09328 -1.72941 0
M  V30 346 H 37.5154 -0.361588 -4.06395 0
M  V30 347 H 36.1904 -1.49907 -3.87944 0
M  V30 348 H 34.7674 0.324977 -3.71481 0
M  V30 349 N 36.9525 1.47285 -0.560781 0
M  V30 350 C 38.2005 2.02064 -0.0379868 0
M  V30 351 C 38.5215 1.43711 1.31803 0
M  V30 352 O 37.7915 0.61362 1.86042 0
M  V30 353 H 36.3715 0.746918 -0.0110531 0
M  V30 354 H 39.0335 1.80648 -0.731598 0
M  V30 355 H 38.1295 3.12064 0.0474463 0
M  V30 356 N 38.4306 0.297415 1.54768 0
M  V30 357 C 39.3936 -0.567375 2.22066 0
M  V30 358 C 40.3936 -1.06409 1.20556 0
M  V30 359 O 41.5836 -0.960691 1.45315 0
M  V30 360 C 38.7156 -1.78517 2.90421 0
M  V30 361 H 39.9086 0.0205534 2.99893 0
M  V30 362 H 37.4616 0.0482163 1.56226 0
M  V30 363 H 38.1966 -2.41303 2.16664 0
M  V30 364 H 37.9816 -1.43669 3.64831 0
M  V30 365 H 39.4716 -2.39964 3.41771 0
M  V30 366 N 39.9087 -1.5758 0.0250728 0
M  V30 367 C 41.1337 -1.96337 -0.668317 0
M  V30 368 C 41.5587 -0.901314 -1.651 0
M  V30 369 O 40.9167 0.138187 -1.80773 0
M  V30 370 C 40.9647 -3.34191 -1.35457 0
M  V30 371 O 40.0687 -3.30269 -2.46974 0
M  V30 372 H 39.4097 -0.640281 -0.175887 0
M  V30 373 H 41.9397 -2.0442 0.0857224 0
M  V30 374 H 41.9497 -3.70331 -1.71228 0
M  V30 375 H 40.6247 -4.11036 -0.634218 0
M  V30 376 H 39.2017 -3.05841 -2.13344 0
M  V30 377 N 41.3868 0.248026 -1.55636 0
M  V30 378 C 42.6268 0.983592 -1.79178 0
M  V30 379 C 42.9908 1.82567 -0.594414 0
M  V30 380 O 44.1918 2.59292 -0.708583 0
M  V30 381 C 42.4628 1.82228 -3.07454 0
M  V30 382 S 44.0218 2.61709 -3.52213 0
M  V30 383 H 40.8398 0.330866 -0.629324 0
M  V30 384 H 43.4418 0.251562 -1.93875 0
M  V30 385 H 42.1458 1.19333 -3.92668 0
M  V30 386 H 41.6768 2.59708 -2.95492 0
M  V30 387 H 43.6918 3.84655 -3.13457 0
M  V30 388 N 42.8649 1.48995 0.513639 0
M  V30 389 C 43.7949 1.67636 1.62544 0
M  V30 390 C 44.7759 0.525087 1.61793 0
M  V30 391 O 45.9609 0.759502 1.78732 0
M  V30 392 C 43.0909 1.73114 3.01079 0
M  V30 393 C 42.0449 2.87905 3.16693 0
M  V30 394 C 41.3709 2.78486 4.56453 0
M  V30 395 C 42.6709 4.29005 2.97913 0
M  V30 396 H 44.3649 2.60716 1.47198 0
M  V30 397 H 41.9109 1.25465 0.706714 0
M  V30 398 H 43.8639 1.84742 3.78746 0
M  V30 399 H 42.5879 0.766241 3.17484 0
M  V30 400 H 41.2469 2.75859 2.41448 0
M  V30 401 H 40.8949 1.7993 4.69717 0
M  V30 402 H 40.5949 3.55523 4.67843 0
M  V30 403 H 42.1189 2.92104 5.36197 0
M  V30 404 H 43.5329 4.41798 3.65359 0
M  V30 405 H 41.9299 5.07166 3.20785 0
M  V30 406 H 42.9999 4.44329 1.94165 0
M  V30 407 N 44.343 -0.763751 1.37857 0
M  V30 408 C 45.754 -1.3405 1.29952 0
M  V30 409 C 46.105 -1.96138 -0.0492898 0
M  V30 410 O 45.23 -1.94372 -0.951239 0
M  V30 411 C 45.825 -2.43729 2.35333 0
M  V30 412 C 44.384 -2.97151 2.31037 0
M  V30 413 C 43.531 -1.70438 2.18738 0
M  V30 414 H 46.482 -0.563396 1.48363 0
M  V30 415 H 46.503 -3.23412 2.00462 0
M  V30 416 H 46.015 -1.9851 3.33489 0
M  V30 417 H 44.116 -3.46724 1.3643 0
M  V30 418 H 44.229 -3.52221 3.24772 0
M  V30 419 H 42.593 -1.93673 1.65418 0
M  V30 420 H 43.376 -1.27312 3.18821 0
M  V30 421 N 45.8211 -1.22559 -0.990812 0
M  V30 422 C 47.0671 -1.06303 -1.73411 0
M  V30 423 C 47.4221 0.397442 -1.8825 0
M  V30 424 O 46.7151 1.29062 -1.41611 0
M  V30 425 C 46.9091 -1.71011 -3.13831 0
M  V30 426 C 46.7381 -3.232 -3.12685 0
M  V30 427 C 45.5081 -3.92314 -3.18461 0
M  V30 428 C 47.7061 -4.20107 -2.96673 0
M  V30 429 N 45.6881 -5.31571 -3.07091 0
M  V30 430 C 47.0591 -5.46208 -2.93354 0
M  V30 431 C 49.1141 -4.10973 -2.8108 0
M  V30 432 C 47.8171 -6.64225 -2.76039 0
M  V30 433 C 49.8431 -5.28642 -2.65126 0
M  V30 434 C 49.2051 -6.53663 -2.62496 0
M  V30 435 H 45.3041 -0.443441 -0.644115 0
M  V30 436 H 47.8881 -1.55131 -1.17654 0
M  V30 437 H 46.0591 -1.2473 -3.67827 0
M  V30 438 H 47.7911 -1.47828 -3.76735 0
M  V30 439 H 44.5461 -3.43326 -3.26227 0
M  V30 440 H 44.9701 -6.0455 -3.0471 0
M  V30 441 H 49.6121 -3.15098 -2.8191 0
M  V30 442 H 47.3301 -7.60246 -2.73954 0
M  V30 443 H 50.9161 -5.23407 -2.54039 0
M  V30 444 H 49.7961 -7.43182 -2.50302 0
M  V30 445 N 47.2992 1.18797 -1.03562 0
M  V30 446 C 48.2472 2.24297 -0.615905 0
M  V30 447 C 49.2412 1.65643 0.354808 0
M  V30 448 O 50.4472 1.78618 0.22265 0
M  V30 449 H 46.8222 0.729909 -0.180934 0
M  V30 450 H 48.7932 2.5701 -1.5162 0
M  V30 451 C 47.5422 3.47698 0.0104735 0
M  V30 452 H 46.8652 3.93125 -0.727509 0
M  V30 453 H 48.3052 4.23159 0.266995 0
M  V30 454 C 46.7642 3.12489 1.25905 0
M  V30 455 O 47.2942 3.25761 2.35038 0
M  V30 456 N 45.5002 2.6686 1.15039 0
M  V30 457 H 45.0472 2.56261 0.262328 0
M  V30 458 H 45.0052 2.43674 1.98672 0
M  V30 459 N 48.7773 0.814389 1.34928 0
M  V30 460 C 50.0023 0.410097 2.03305 0
M  V30 461 C 50.4273 -0.973464 1.60951 0
M  V30 462 O 49.7853 -1.63185 0.789964 0
M  V30 463 C 49.8333 0.51049 3.56968 0
M  V30 464 O 48.9373 -0.473035 4.09678 0
M  V30 465 H 48.2783 0.170088 0.641846 0
M  V30 466 H 50.8083 1.10244 1.72358 0
M  V30 467 H 50.8183 0.383135 4.06197 0
M  V30 468 H 49.4933 1.51963 3.87144 0
M  V30 469 H 48.0703 -0.305272 3.71648 0
M  V30 470 N 50.2554 -1.46986 0.568584 0
M  V30 471 C 51.1884 -2.27129 -0.220779 0
M  V30 472 C 52.1664 -1.34757 -0.909905 0
M  V30 473 O 53.3504 -1.64152 -0.926622 0
M  V30 474 C 50.4774 -3.12108 -1.31553 0
M  V30 475 C 49.5234 -4.20141 -0.733748 0
M  V30 476 S 50.3564 -5.33783 0.428479 0
M  V30 477 C 51.5124 -6.22327 -0.667811 0
M  V30 478 H 51.7454 -2.93731 0.459267 0
M  V30 479 H 49.2784 -1.5026 0.355154 0
M  V30 480 H 51.2364 -3.61636 -1.94241 0
M  V30 481 H 49.8974 -2.44847 -1.96746 0
M  V30 482 H 49.0904 -4.79373 -1.5562 0
M  V30 483 H 48.6924 -3.73553 -0.182812 0
M  V30 484 H 50.9844 -6.59364 -1.55708 0
M  V30 485 H 51.9274 -7.0801 -0.11258 0
M  V30 486 H 52.3354 -5.5618 -0.965601 0
M  V30 487 N 51.7335 -0.305618 -1.54608 0
M  V30 488 C 52.9825 0.303098 -1.9941 0
M  V30 489 C 53.2955 1.54648 -1.19764 0
M  V30 490 O 54.5015 2.23007 -1.54855 0
M  V30 491 C 52.9575 0.590588 -3.55021 0
M  V30 492 C 52.5655 -0.634719 -4.43481 0
M  V30 493 C 54.3095 1.16025 -4.08336 0
M  V30 494 C 52.2165 -0.320126 -5.90533 0
M  V30 495 H 51.1465 0.117031 -0.744862 0
M  V30 496 H 53.7975 -0.415045 -1.78745 0
M  V30 497 H 52.1795 1.36845 -3.71604 0
M  V30 498 H 53.3535 -1.41079 -4.38672 0
M  V30 499 H 51.6685 -1.12333 -4.00962 0
M  V30 500 H 54.2655 1.40994 -5.15776 0
M  V30 501 H 54.6085 2.10397 -3.5922 0
M  V30 502 H 55.1415 0.443985 -3.95315 0
M  V30 503 H 51.8805 -1.23254 -6.43808 0
M  V30 504 H 51.4005 0.418579 -5.98338 0
M  V30 505 H 53.0795 0.0766241 -6.46955 0
M  V30 506 N 53.2116 1.57565 -0.0334293 0
M  V30 507 C 54.1416 2.13511 0.945265 0
M  V30 508 C 55.1226 1.05231 1.33643 0
M  V30 509 O 56.3076 1.33084 1.41429 0
M  V30 510 C 53.4376 2.6657 2.22616 0
M  V30 511 C 52.3916 3.79676 1.97561 0
M  V30 512 C 51.7176 4.1918 3.31952 0
M  V30 513 C 53.0176 5.0557 1.31135 0
M  V30 514 H 54.7116 2.95538 0.479325 0
M  V30 515 H 52.2576 1.42166 0.229115 0
M  V30 516 H 54.2106 3.04344 2.91466 0
M  V30 517 H 52.9346 1.8171 2.71384 0
M  V30 518 H 51.5936 3.42347 1.31127 0
M  V30 519 H 51.2416 3.31296 3.78487 0
M  V30 520 H 50.9416 4.95402 3.15992 0
M  V30 521 H 52.4656 4.59541 4.02063 0
M  V30 522 H 53.8796 5.40903 1.89992 0
M  V30 523 H 52.2766 5.86818 1.25559 0
M  V30 524 H 53.3466 4.84062 0.284894 0
M  V30 525 N 54.6897 -0.239769 1.55765 0
M  V30 526 C 55.9387 -0.964754 1.77131 0
M  V30 527 C 56.2517 -1.86213 0.59868 0
M  V30 528 O 57.4577 -2.6244 0.695522 0
M  V30 529 C 55.9137 -1.76552 3.1362 0
M  V30 530 C 55.5217 -0.915185 4.38553 0
M  V30 531 C 57.2657 -2.48281 3.44321 0
M  V30 532 C 55.1727 -1.71225 5.66071 0
M  V30 533 H 54.1027 -0.363953 0.660344 0
M  V30 534 H 56.7537 -0.219181 1.82186 0
M  V30 535 H 55.1357 -2.55331 3.02691 0
M  V30 536 H 56.3097 -0.169217 4.60489 0
M  V30 537 H 54.6247 -0.310889 4.15238 0
M  V30 538 H 57.2217 -3.08382 4.36812 0
M  V30 539 H 57.5647 -3.20256 2.65973 0
M  V30 540 H 58.0977 -1.76507 3.56497 0
M  V30 541 H 54.8367 -1.03612 6.4726 0
M  V30 542 H 54.3567 -2.43331 5.48224 0
M  V30 543 H 56.0357 -2.27758 6.05587 0
M  V30 544 N 56.1678 -1.49265 -0.50573 0
M  V30 545 C 57.4158 -1.582 -1.25766 0
M  V30 546 C 57.7368 -0.268482 -1.93143 0
M  V30 547 O 57.0068 0.711833 -1.8251 0
M  V30 548 H 55.5868 -0.582873 -0.467191 0
M  V30 549 H 58.2488 -1.85865 -0.586525 0
M  V30 550 H 57.3448 -2.37563 -2.02412 0
M  V30 551 N 57.6459 0.756429 -1.3826 0
M  V30 552 C 58.5929 1.87011 -1.35261 0
M  V30 553 C 59.5629 1.64695 -0.215616 0
M  V30 554 O 60.7479 1.864 -0.407399 0
M  V30 555 C 57.8879 3.24275 -1.18068 0
M  V30 556 C 57.0009 3.58442 -2.41129 0
M  V30 557 C 56.1359 4.84994 -2.16689 0
M  V30 558 C 55.1749 5.11939 -3.35537 0
M  V30 559 N 54.3119 6.29685 -3.10549 0
M  V30 560 H 59.1519 1.8891 -2.30472 0
M  V30 561 H 56.6889 0.923373 -1.14509 0
M  V30 562 H 58.6469 4.03479 -1.06116 0
M  V30 563 H 57.2769 3.21711 -0.264973 0
M  V30 564 H 56.3289 2.74103 -2.63764 0
M  V30 565 H 57.6409 3.74283 -3.29717 0
M  V30 566 H 56.7949 5.72135 -2.01857 0
M  V30 567 H 55.5339 4.71286 -1.25462 0
M  V30 568 H 54.5389 4.23268 -3.50891 0
M  V30 569 H 55.7639 5.27546 -4.27635 0
M  V30 570 H 53.7099 6.17306 -2.21967 0
M  V30 571 H 53.6269 6.46014 -3.92686 0
M  V30 572 H 54.8949 7.19722 -2.99367 0
M  V30 573 N 59.124 1.23083 0.984299 0
M  V30 574 C 60.37 1.06214 1.72761 0
M  V30 575 C 60.703 -0.400584 1.90024 0
M  V30 576 O 59.978 -1.29672 1.44967 0
M  V30 577 C 60.261 1.78375 3.12817 0
M  V30 578 C 60.114 3.32296 3.03149 0
M  V30 579 C 61.433 1.54309 4.12161 0
M  V30 580 H 58.552 0.387251 0.627061 0
M  V30 581 H 61.194 1.51536 1.14616 0
M  V30 582 H 59.344 1.39848 3.62457 0
M  V30 583 H 61.016 3.8032 2.61064 0
M  V30 584 H 59.259 3.6153 2.39747 0
M  V30 585 H 59.93 3.77972 4.02295 0
M  V30 586 H 62.406 1.87791 3.71314 0
M  V30 587 H 61.282 2.07281 5.08258 0
M  V30 588 H 61.543 0.477572 4.39513 0
M  V30 589 N 60.6021 -1.18246 1.0419 0
M  V30 590 C 61.8321 -1.91916 0.764961 0
M  V30 591 C 62.2401 -1.76485 -0.681898 0
M  V30 592 O 61.5831 -1.09275 -1.47664 0
M  V30 593 C 61.6451 -3.4373 1.05309 0
M  V30 594 C 61.3091 -3.8294 2.4941 0
M  V30 595 C 62.3061 -3.86621 3.47592 0
M  V30 596 C 59.9911 -4.142 2.84155 0
M  V30 597 C 61.9851 -4.21013 4.78568 0
M  V30 598 C 59.6721 -4.48262 4.15337 0
M  V30 599 C 60.6701 -4.51645 5.12353 0
M  V30 600 O 60.3581 -4.84911 6.41183 0
M  V30 601 H 60.0901 -0.61606 0.278292 0
M  V30 602 H 62.6441 -1.50947 1.39299 0
M  V30 603 H 60.8741 -3.84946 0.367933 0
M  V30 604 H 62.5631 -3.9865 0.763752 0
M  V30 605 H 63.3291 -3.62607 3.22089 0
M  V30 606 H 59.2081 -4.10743 2.09311 0
M  V30 607 H 62.7521 -4.23568 5.54289 0
M  V30 608 H 58.6491 -4.71737 4.40607 0
M  V30 609 H 59.4171 -5.02809 6.45852 0
M  V30 610 N 62.0802 -0.821533 -1.34494 0
M  V30 611 C 63.3082 -0.421884 -2.02553 0
M  V30 612 C 63.7232 0.971745 -1.61872 0
M  V30 613 O 63.0802 1.62864 -0.823496 0
M  V30 614 C 63.1312 -0.51285 -3.57844 0
M  V30 615 O 62.8522 -1.85155 -3.97051 0
M  V30 616 C 64.3532 -0.107921 -4.43169 0
M  V30 617 H 61.5732 -0.169482 -0.649243 0
M  V30 618 H 64.1172 -1.1093 -1.71798 0
M  V30 619 H 62.2722 0.126474 -3.87193 0
M  V30 620 H 62.6862 -1.82482 -4.91732 0
M  V30 621 H 64.1602 -0.222657 -5.51551 0
M  V30 622 H 64.6372 0.948401 -4.28838 0
M  V30 623 H 65.2432 -0.720989 -4.19144 0
M  V30 624 N 63.5583 1.46682 -0.576371 0
M  V30 625 C 64.5213 2.28707 0.150239 0
M  V30 626 C 65.5213 1.38035 0.824794 0
M  V30 627 O 66.7113 1.60476 0.677719 0
M  V30 628 C 63.8433 3.18248 1.22192 0
M  V30 629 H 65.0363 2.94423 -0.570521 0
M  V30 630 H 62.5893 1.52688 -0.334078 0
M  V30 631 H 63.3243 2.57265 1.97447 0
M  V30 632 H 63.1093 3.85 0.742812 0
M  V30 633 H 64.5993 3.80001 1.73172 0
M  V30 634 N 65.0364 0.313813 1.54444 0
M  V30 635 C 65.9684 -0.590425 2.21465 0
M  V30 636 C 66.9814 -1.08753 1.21147 0
M  V30 637 O 68.1704 -1.00278 1.4767 0
M  V30 638 C 65.2704 -1.82179 2.85769 0
M  V30 639 C 64.4434 -1.46502 4.12136 0
M  V30 640 C 63.5024 -2.55288 4.60124 0
M  V30 641 O 62.5284 -2.19842 5.25032 0
M  V30 642 N 63.7304 -3.86053 4.33525 0
M  V30 643 H 66.4954 -0.0166033 2.99695 0
M  V30 644 H 64.0564 0.136578 1.61323 0
M  V30 645 H 66.0484 -2.54328 3.14801 0
M  V30 646 H 64.6184 -2.30369 2.11303 0
M  V30 647 H 63.8384 -0.575595 3.89975 0
M  V30 648 H 65.1264 -1.20221 4.94393 0
M  V30 649 H 64.5244 -4.17654 3.81552 0
M  V30 650 H 63.0814 -4.54461 4.67235 0
M  V30 651 N 66.5145 -1.57545 0.0417849 0
M  V30 652 C 67.4625 -2.12148 -0.953723 0
M  V30 653 C 68.4565 -1.05104 -1.32852 0
M  V30 654 O 69.6625 -1.23524 -1.30927 0
M  V30 655 H 66.0375 -0.677957 -0.325389 0
M  V30 656 H 68.0085 -2.94707 -0.467991 0
M  V30 657 C 66.7575 -2.6739 -2.22257 0
M  V30 658 H 66.0805 -3.49413 -1.94295 0
M  V30 659 H 67.5205 -3.09227 -2.90094 0
M  V30 660 C 65.9795 -1.60723 -2.96091 0
M  V30 661 O 66.5095 -1.01449 -3.88679 0
M  V30 662 N 64.7155 -1.32466 -2.58652 0
M  V30 663 H 64.2625 -1.80856 -1.83437 0
M  V30 664 H 64.2205 -0.61325 -3.08361 0
M  V30 665 N 67.9926 0.231505 -1.5589 0
M  V30 666 C 69.4036 0.799327 -1.68724 0
M  V30 667 C 69.7546 1.85398 -0.642022 0
M  V30 668 O 68.8796 2.1539 0.208784 0
M  V30 669 C 69.4746 1.45664 -3.05888 0
M  V30 670 C 68.0336 1.97197 -3.20609 0
M  V30 671 C 67.1806 0.828552 -2.64632 0
M  V30 672 H 70.1316 0.00702616 -1.58698 0
M  V30 673 H 70.1526 2.32517 -3.01191 0
M  V30 674 H 69.6646 0.688808 -3.81939 0
M  V30 675 H 67.7656 2.76813 -2.4941 0
M  V30 676 H 67.8786 2.15878 -4.27707 0
M  V30 677 H 66.2426 1.23321 -2.22854 0
M  V30 678 H 67.0256 0.0735544 -3.43221 0
M  V30 679 N 69.4707 1.49531 0.497807 0
M  V30 680 C 70.6957 1.63159 1.28039 0
M  V30 681 C 71.1207 0.30418 1.85624 0
M  V30 682 O 70.4787 -0.728618 1.66015 0
M  V30 683 C 70.5267 2.70537 2.38416 0
M  V30 684 O 69.6307 2.29931 3.42353 0
M  V30 685 H 68.9717 0.546001 0.377861 0
M  V30 686 H 71.5017 1.9574 0.59558 0
M  V30 687 H 71.5117 2.92802 2.84132 0
M  V30 688 H 70.1867 3.6689 1.95869 0
M  V30 689 H 68.7637 2.18009 3.02533 0
M  V30 690 N 70.9488 -0.749086 1.3866 0
M  V30 691 C 71.9118 -1.84457 1.36045 0
M  V30 692 C 72.9118 -1.58682 0.260122 0
M  V30 693 O 74.1018 -1.66343 0.517261 0
M  V30 694 C 71.2338 -3.22008 1.11911 0
M  V30 695 H 72.4268 -1.88182 2.33512 0
M  V30 696 H 69.9798 -0.951266 1.24019 0
M  V30 697 H 70.7148 -3.2395 0.150686 0
M  V30 698 H 70.4998 -3.42111 1.91579 0
M  V30 699 H 71.9898 -4.0208 1.12788 0
M  V30 700 N 72.4269 -1.23603 -0.977757 0
M  V30 701 C 73.3589 -0.977369 -2.07317 0
M  V30 702 C 74.3719 0.0495845 -1.62724 0
M  V30 703 O 75.5609 -0.186261 -1.77526 0
M  V30 704 C 72.6609 -0.451216 -3.35883 0
M  V30 705 C 71.8339 -1.53896 -4.09432 0
M  V30 706 C 70.8929 -1.01721 -5.16274 0
M  V30 707 O 69.9189 -1.70676 -5.43009 0
M  V30 708 N 71.1209 0.153594 -5.80297 0
M  V30 709 H 73.8859 -1.92047 -2.30082 0
M  V30 710 H 71.4469 -1.14497 -1.14465 0
M  V30 711 H 73.4389 -0.0871574 -4.04606 0
M  V30 712 H 72.0089 0.397368 -3.10064 0
M  V30 713 H 71.2289 -2.07566 -3.35127 0
M  V30 714 H 72.5169 -2.27037 -4.55337 0
M  V30 715 H 71.9149 0.730323 -5.60966 0
M  V30 716 H 70.4719 0.458892 -6.50183 0
M  V30 717 N 73.905 1.17692 -1.04816 0
M  V30 718 C 74.868 2.19787 -0.650117 0
M  V30 719 C 75.868 1.58044 0.296427 0
M  V30 720 O 77.058 1.74012 0.0808097 0
M  V30 721 C 74.19 3.40869 0.0456987 0
M  V30 722 H 75.383 2.56516 -1.5537 0
M  V30 723 H 72.936 1.31708 -0.841594 0
M  V30 724 H 73.671 3.09681 0.962726 0
M  V30 725 H 73.456 3.86928 -0.634727 0
M  V30 726 H 74.946 4.16445 0.310432 0
M  V30 727 N 75.3831 0.828654 1.34056 0
M  V30 728 C 76.3131 0.269443 2.3194 0
M  V30 729 C 77.2941 -0.617247 1.58506 0
M  V30 730 O 78.4791 -0.542931 1.86456 0
M  V30 731 C 75.6091 -0.564793 3.42677 0
M  V30 732 C 74.5631 0.225241 4.27407 0
M  V30 733 C 73.8891 -0.7321 5.29664 0
M  V30 734 C 75.1891 1.43663 5.02154 0
M  V30 735 H 76.8831 1.08728 2.7896 0
M  V30 736 H 74.4291 0.524283 1.34117 0
M  V30 737 H 76.3821 -0.966233 4.10173 0
M  V30 738 H 75.1061 -1.41574 2.9432 0
M  V30 739 H 73.7651 0.608117 3.61521 0
M  V30 740 H 73.4131 -1.57916 4.77568 0
M  V30 741 H 73.1131 -0.20767 5.87233 0
M  V30 742 H 74.6371 -1.13128 6.00029 0
M  V30 743 H 76.0511 1.1089 5.62473 0
M  V30 744 H 74.4481 1.89711 5.69324 0
M  V30 745 H 75.5181 2.21181 4.31517 0
M  V30 746 N 76.8612 -1.46375 0.584142 0
M  V30 747 C 78.1092 -2.01978 0.0701287 0
M  V30 748 C 78.4302 -1.4579 -1.295 0
M  V30 749 O 77.7002 -0.64314 -1.85042 0
M  V30 750 H 76.2802 -0.746648 0.0229345 0
M  V30 751 H 78.9422 -1.79461 0.760245 0
M  V30 752 H 78.0382 -3.121 0.0022064 0
M  V30 753 N 78.3393 -0.321999 -1.54275 0
M  V30 754 C 79.2693 0.537411 -2.27231 0
M  V30 755 C 80.2503 1.12064 -1.27968 0
M  V30 756 O 81.4353 1.14606 -1.56777 0
M  V30 757 C 78.5653 1.69919 -3.02894 0
M  V30 758 C 77.5193 1.24534 -4.09482 0
M  V30 759 C 76.8453 2.49394 -4.72977 0
M  V30 760 C 78.1453 0.361335 -5.21049 0
M  V30 761 H 79.8393 -0.0711406 -2.99315 0
M  V30 762 H 77.3853 -0.0356555 -1.43956 0
M  V30 763 H 79.3383 2.30668 -3.52662 0
M  V30 764 H 78.0623 2.33431 -2.28424 0
M  V30 765 H 76.7213 0.660782 -3.60596 0
M  V30 766 H 76.3693 3.11265 -3.95124 0
M  V30 767 H 76.0693 2.19718 -5.44975 0
M  V30 768 H 77.5933 3.10908 -5.25517 0
M  V30 769 H 79.0073 0.875072 -5.66582 0
M  V30 770 H 77.4043 0.157428 -5.99893 0
M  V30 771 H 78.4743 -0.60822 -4.8107 0
M  V30 772 N 79.8174 1.5752 -0.0501392 0
M  V30 773 C 81.0654 1.9227 0.622642 0
M  V30 774 C 81.3864 0.929083 1.71444 0
M  V30 775 O 80.6564 -0.0262186 1.95882 0
M  V30 776 H 79.2364 0.709739 0.232981 0
M  V30 777 H 81.8984 1.94628 -0.102898 0
M  V30 778 H 80.9944 2.93479 1.06191 0
M  V30 779 N 81.2955 -0.223234 1.56011 0
M  V30 780 C 82.2425 -1.27664 1.92277 0
M  V30 781 C 83.2125 -1.46659 0.779763 0
M  V30 782 O 84.3975 -1.60256 1.03551 0
M  V30 783 C 81.5375 -2.62234 2.24338 0
M  V30 784 C 80.6505 -2.51051 3.51564 0
M  V30 785 C 79.7855 -3.78133 3.7308 0
M  V30 786 C 78.8245 -3.61665 4.93827 0
M  V30 787 N 77.9615 -4.80693 5.11741 0
M  V30 788 H 82.8015 -0.960358 2.82101 0
M  V30 789 H 80.3385 -0.462901 1.39627 0
M  V30 790 H 82.2965 -3.40596 2.40936 0
M  V30 791 H 80.9265 -2.91961 1.3769 0
M  V30 792 H 79.9785 -1.64132 3.43169 0
M  V30 793 H 81.2905 -2.34803 4.40079 0
M  V30 794 H 80.4445 -4.64938 3.89766 0
M  V30 795 H 79.1835 -3.97304 2.82844 0
M  V30 796 H 78.1885 -2.73244 4.77093 0
M  V30 797 H 79.4135 -3.43966 5.85546 0
M  V30 798 H 77.3595 -5.00181 4.24446 0
M  V30 799 H 77.2765 -4.67165 5.94384 0
M  V30 800 H 78.5445 -5.6893 5.3286 0
M  V30 801 N 82.7736 -1.49793 -0.48987 0
M  V30 802 C 83.7236 -1.63673 -1.5873 0
M  V30 803 C 84.7076 -0.491956 -1.53195 0
M  V30 804 O 85.8996 -0.745461 -1.60536 0
M  V30 805 C 83.0286 -1.71689 -2.97284 0
M  V30 806 C 82.1146 -2.91781 -3.07774 0
M  V30 807 N 82.5056 -4.15714 -2.88124 0
M  V30 808 C 80.8036 -2.89949 -3.38889 0
M  V30 809 C 81.5046 -4.965 -3.03088 0
M  V30 810 N 80.4806 -4.30083 -3.3246 0
M  V30 811 H 84.2826 -2.57204 -1.42208 0
M  V30 812 H 81.7966 -1.46719 -0.69623 0
M  V30 813 H 83.7936 -1.79732 -3.76168 0
M  V30 814 H 82.4536 -0.793024 -3.14867 0
M  V30 815 H 83.4646 -4.45515 -2.64077 0
M  V30 816 H 80.1416 -2.06987 -3.62578 0
M  V30 817 H 81.5316 -6.04991 -2.92294 0
M  V30 818 N 84.2517 0.741722 -1.39055 0
M  V30 819 C 85.1997 1.87702 -1.3737 0
M  V30 820 C 86.1937 1.67427 -0.257812 0
M  V30 821 O 87.3997 1.7485 -0.427489 0
M  V30 822 H 83.7747 0.617757 -0.428812 0
M  V30 823 H 85.7457 1.86239 -2.33147 0
M  V30 824 C 84.4947 3.25315 -1.22741 0
M  V30 825 H 83.8177 3.41509 -2.07873 0
M  V30 826 H 85.2577 4.04964 -1.25618 0
M  V30 827 C 83.7167 3.36838 0.0647316 0
M  V30 828 O 84.2467 3.88073 1.03741 0
M  V30 829 N 82.4527 2.90329 0.125544 0
M  V30 830 H 81.9997 2.48823 -0.666682 0
M  V30 831 H 81.9577 2.98418 0.989639 0
M  V30 832 N 85.7298 1.2412 0.971189 0
M  V30 833 C 86.9598 1.10415 1.7462 0
M  V30 834 C 87.3678 -0.346462 1.86001 0
M  V30 835 O 86.7108 -1.25104 1.34517 0
M  V30 836 C 86.7728 1.66596 3.18568 0
M  V30 837 C 86.4368 3.15446 3.3067 0
M  V30 838 C 87.4338 4.12636 3.16271 0
M  V30 839 C 85.1188 3.55337 3.55022 0
M  V30 840 C 87.1128 5.47699 3.26044 0
M  V30 841 C 84.7998 4.90542 3.64434 0
M  V30 842 C 85.7978 5.86532 3.49956 0
M  V30 843 O 85.4858 7.19279 3.59017 0
M  V30 844 H 85.2178 0.386616 0.55453 0
M  V30 845 H 87.7718 1.64633 1.22821 0
M  V30 846 H 86.0018 1.06808 3.71657 0
M  V30 847 H 87.6908 1.48232 3.77865 0
M  V30 848 H 88.4568 3.8316 2.97344 0
M  V30 849 H 84.3358 2.8113 3.65359 0
M  V30 850 H 87.8798 6.22603 3.14661 0
M  V30 851 H 83.7768 5.19691 3.82873 0
M  V30 852 H 84.5448 7.27153 3.75754 0
M  V30 853 N 87.2079 -1.17134 1.05439 0
M  V30 854 C 88.4479 -1.89137 0.77502 0
M  V30 855 C 88.8119 -1.79345 -0.685526 0
M  V30 856 O 90.0129 -2.46188 -1.0791 0
M  V30 857 C 88.2839 -3.35003 1.2453 0
M  V30 858 S 89.8429 -4.24952 1.09367 0
M  V30 859 H 86.6609 -0.652949 0.281387 0
M  V30 860 H 89.2629 -1.4145 1.34953 0
M  V30 861 H 87.9669 -3.39666 2.30338 0
M  V30 862 H 87.4979 -3.87736 0.665166 0
M  V30 863 H 89.5129 -4.96196 0.0193397 0
M  V30 864 N 88.686 -0.835752 -1.33615 0
M  V30 865 C 90.102 -0.523139 -1.50783 0
M  V30 866 C 90.302 0.950171 -1.77691 0
M  V30 867 O 89.358 1.73411 -1.83534 0
M  V30 868 C 90.671 -1.39378 -2.66448 0
M  V30 869 C 92.219 -1.39223 -2.80332 0
M  V30 870 C 92.694 -2.24765 -3.99055 0
M  V30 871 N 94.185 -2.22458 -4.06284 0
M  V30 872 C 94.92 -2.85386 -4.97336 0
M  V30 873 N 94.416 -3.57354 -5.93523 0
M  V30 874 N 96.209 -2.74872 -4.90308 0
M  V30 875 H 88.36 -1.78952 -1.14411 0
M  V30 876 H 90.623 -0.763297 -0.562212 0
M  V30 877 H 90.329 -2.44061 -2.53234 0
M  V30 878 H 90.203 -1.0676 -3.61776 0
M  V30 879 H 92.59 -0.353136 -2.92979 0
M  V30 880 H 92.671 -1.75846 -1.85773 0
M  V30 881 H 92.315 -3.28732 -3.87167 0
M  V30 882 H 92.245 -1.85485 -4.92852 0
M  V30 883 H 94.736 -1.70119 -3.37443 0
M  V30 884 H 95.049 -4.02584 -6.59656 0
M  V30 885 H 93.394 -3.61461 -5.93608 0
M  V30 886 H 96.585 -2.18213 -4.14126 0
M  V30 887 H 96.758 -3.24199 -5.61069 0
M  V30 888 N 90.1641 1.46063 -0.591896 0
M  V30 889 C 91.1121 2.32124 0.148739 0
M  V30 890 C 92.1061 1.45035 0.875286 0
M  V30 891 O 93.3121 1.61609 0.792632 0
M  V30 892 H 89.6871 0.749024 0.066832 0
M  V30 893 H 91.6581 2.92392 -0.595783 0
M  V30 894 C 90.4071 3.28373 1.1431 0
M  V30 895 H 89.7301 3.95371 0.59346 0
M  V30 896 H 91.1701 3.91352 1.63155 0
M  V30 897 C 89.6291 2.54393 2.20875 0
M  V30 898 O 90.1591 2.31373 3.28374 0
M  V30 899 N 88.3651 2.14797 1.95731 0
M  V30 900 H 87.9121 2.33719 1.08319 0
M  V30 901 H 87.8701 1.65619 2.67241 0
M  V30 902 N 91.6422 0.330177 1.54103 0
M  V30 903 C 93.0532 -0.15652 1.86043 0
M  V30 904 C 93.4042 -1.51086 1.2517 0
M  V30 905 O 92.5292 -2.09023 0.560217 0
M  V30 906 C 93.1242 -0.290784 3.3755 0
M  V30 907 C 91.6832 -0.721705 3.69416 0
M  V30 908 C 90.8302 0.152622 2.7688 0
M  V30 909 H 93.7812 0.550237 1.48856 0
M  V30 910 H 93.8022 -1.12058 3.63625 0
M  V30 911 H 93.3142 0.695068 3.81825 0
M  V30 912 H 91.4152 -1.71706 3.30678 0
M  V30 913 H 91.5282 -0.520869 4.7626 0
M  V30 914 H 89.8922 -0.372894 2.51956 0
M  V30 915 H 90.6752 1.13536 3.23982 0
M  V30 916 N 93.1203 -1.57491 0.0584922 0
M  V30 917 C 94.3973 -1.84346 -0.653918 0
M  V30 918 C 94.7773 -0.948355 -1.88599 0
M  V30 919 O 94.1253 -0.0112403 -2.28497 0
M  V30 920 C 94.3353 -3.34239 -1.00425 0
M  V30 921 C 95.6833 -4.01431 -1.38342 0
M  V30 922 O 96.7073 -3.38907 -1.09637 0
M  V30 923 O 95.5663 -5.11683 -1.91943 0
M  V30 924 H 92.6603 -0.761112 -0.323478 0
M  V30 925 H 95.2063 -1.6947 0.0884125 0
M  V30 926 H 93.9783 -3.91089 -0.128625 0
M  V30 927 H 93.6013 -3.54329 -1.80378 0
M  V30 928 N 94.5984 0.214957 -1.56127 0
M  V30 929 C 95.8464 0.936518 -1.79091 0
M  V30 930 C 96.1674 1.84606 -0.628148 0
M  V30 931 O 95.4374 1.92664 0.35462 0
M  V30 932 H 94.0174 0.3488 -0.660566 0
M  V30 933 H 96.6794 0.22523 -1.93594 0
M  V30 934 H 95.7754 1.53943 -2.71492 0
M  V30 935 N 96.0765 1.50051 0.48192 0
M  V30 936 C 97.3535 1.51009 1.2432 0
M  V30 937 C 97.7335 0.248587 2.09631 0
M  V30 938 O 97.0815 -0.768409 2.15192 0
M  V30 939 C 97.2915 2.79981 2.08355 0
M  V30 940 C 98.6395 3.3022 2.66908 0
M  V30 941 O 99.6635 2.81228 2.18607 0
M  V30 942 O 98.5225 4.15595 3.54884 0
M  V30 943 H 95.6165 0.605239 0.563573 0
M  V30 944 H 98.1625 1.62332 0.494627 0
M  V30 945 H 96.9345 3.63275 1.45419 0
M  V30 946 H 96.5575 2.7161 2.90368 0
M  V30 947 N 97.5546 -0.734337 1.39446 0
M  V30 948 C 98.5176 -1.83004 1.37994 0
M  V30 949 C 99.5176 -1.58397 0.276938 0
M  V30 950 O 100.708 -1.65785 0.534875 0
M  V30 951 C 97.8396 -3.20802 1.1532 0
M  V30 952 H 99.0326 -1.85694 2.35494 0
M  V30 953 H 96.5856 -0.938059 1.25021 0
M  V30 954 H 97.3206 -3.23772 0.185036 0
M  V30 955 H 97.1056 -3.4006 1.95197 0
M  V30 956 H 98.5956 -4.00862 1.17046 0
M  V30 957 N 99.0327 -1.24633 -0.964593 0
M  V30 958 C 99.9797 -1.04144 -2.05968 0
M  V30 959 C 100.95 0.046262 -1.66036 0
M  V30 960 O 102.135 -0.108972 -1.90489 0
M  V30 961 C 99.2747 -0.65563 -3.38815 0
M  V30 962 C 98.3877 -1.81714 -3.91923 0
M  V30 963 C 97.5227 -1.37662 -5.13052 0
M  V30 964 C 96.5617 -2.50788 -5.58365 0
M  V30 965 N 95.6987 -2.07582 -6.70712 0
M  V30 966 H 100.539 -1.9787 -2.22827 0
M  V30 967 H 98.0757 -0.9855 -1.09208 0
M  V30 968 H 100.034 -0.412954 -4.15151 0
M  V30 969 H 98.6637 0.244627 -3.21872 0
M  V30 970 H 97.7157 -2.1734 -3.12198 0
M  V30 971 H 99.0277 -2.66705 -4.21509 0
M  V30 972 H 98.1817 -1.093 -5.96773 0
M  V30 973 H 96.9207 -0.497293 -4.85158 0
M  V30 974 H 95.9257 -2.79906 -4.73215 0
M  V30 975 H 97.1507 -3.39283 -5.88272 0
M  V30 976 H 95.0967 -1.22051 -6.44546 0
M  V30 977 H 95.0137 -2.86125 -6.99763 0
M  V30 978 H 96.2817 -1.82369 -7.57867 0
M  V30 979 N 100.511 1.16574 -1.06058 0
M  V30 980 C 101.922 1.68662 -0.800632 0
M  V30 981 C 102.273 1.84184 0.67608 0
M  V30 982 O 101.398 1.53568 1.52466 0
M  V30 983 C 101.993 3.06356 -1.44676 0
M  V30 984 C 100.552 3.55575 -1.23465 0
M  V30 985 C 99.6988 2.31616 -1.52477 0
M  V30 986 H 102.65 1.00969 -1.22438 0
M  V30 987 H 102.671 3.70636 -0.860788 0
M  V30 988 H 102.183 2.95027 -2.52152 0
M  V30 989 H 100.284 3.72167 -0.179527 0
M  V30 990 H 100.397 4.37812 -1.94571 0
M  V30 991 H 98.7608 2.36512 -0.945209 0
M  V30 992 H 99.5438 2.22887 -2.61106 0
M  V30 993 N 101.989 0.842826 1.3317 0
M  V30 994 C 103.235 0.450342 1.98352 0
M  V30 995 C 103.59 -0.980508 1.65541 0
M  V30 996 O 102.883 -1.67678 0.927065 0
M  V30 997 C 103.077 0.612607 3.52111 0
M  V30 998 C 102.906 2.05768 3.99862 0
M  V30 999 C 101.676 2.69374 4.27511 0
M  V30 1000 C 103.874 3.02688 4.15794 0
M  V30 1001 N 101.856 4.04915 4.61429 0
M  V30 1002 C 103.227 4.23186 4.53115 0
M  V30 1003 C 105.282 2.99041 3.98094 0
M  V30 1004 C 103.985 5.40518 4.74587 0
M  V30 1005 C 106.011 4.15607 4.20743 0
M  V30 1006 C 105.373 5.3486 4.58371 0
M  V30 1007 H 101.472 0.213296 0.752349 0
M  V30 1008 H 104.056 1.09173 1.61212 0
M  V30 1009 H 102.227 0.000998822 3.884 0
M  V30 1010 H 103.959 0.191179 4.04248 0
M  V30 1011 H 100.714 2.20485 4.19146 0
M  V30 1012 H 101.138 4.74798 4.82593 0
M  V30 1013 H 105.78 2.0797 3.68114 0
M  V30 1014 H 103.498 6.3213 5.03425 0
M  V30 1015 H 107.084 4.14207 4.08563 0
M  V30 1016 H 105.964 6.23558 4.75547 0
M  V30 1017 N 103.467 -1.45747 0.599634 0
M  V30 1018 C 104.707 -2.04181 0.0946309 0
M  V30 1019 C 105.071 -1.45895 -1.24815 0
M  V30 1020 O 106.272 -1.95633 -1.8434 0
M  V30 1021 C 104.543 -3.57368 0.047581 0
M  V30 1022 S 106.102 -4.36997 -0.397387 0
M  V30 1023 H 102.92 -0.70953 0.0456954 0
M  V30 1024 H 105.522 -1.78564 0.795946 0
M  V30 1025 H 104.226 -3.97303 1.02852 0
M  V30 1026 H 103.757 -3.87549 -0.675977 0
M  V30 1027 H 105.772 -4.68012 -1.64862 0
M  V30 1028 N 104.945 -0.338344 -1.53925 0
M  V30 1029 C 105.895 0.536712 -2.21593 0
M  V30 1030 C 106.879 1.07015 -1.20153 0
M  V30 1031 O 108.071 1.00471 -1.45721 0
M  V30 1032 C 105.2 1.68977 -2.98834 0
M  V30 1033 C 104.286 1.17052 -4.07627 0
M  V30 1034 N 104.677 0.372085 -5.0443 0
M  V30 1035 C 102.975 1.44789 -4.21844 0
M  V30 1036 C 103.676 0.0909171 -5.81629 0
M  V30 1037 N 102.652 0.681131 -5.39316 0
M  V30 1038 H 106.454 -0.0804298 -2.9379 0
M  V30 1039 H 103.968 -0.144943 -1.61752 0
M  V30 1040 H 105.965 2.32857 -3.45808 0
M  V30 1041 H 104.625 2.31024 -2.28162 0
M  V30 1042 H 105.636 0.0136217 -5.17898 0
M  V30 1043 H 102.313 2.07313 -3.62391 0
M  V30 1044 H 103.703 -0.552817 -6.69622 0
M  V30 1045 N 106.423 1.57458 -0.0668435 0
M  V30 1046 C 107.669 1.93587 0.6043 0
M  V30 1047 C 108.002 0.946722 1.69561 0
M  V30 1048 O 107.277 -0.0248516 1.94484 0
M  V30 1049 C 107.56 3.40014 1.18585 0
M  V30 1050 C 107.413 4.49685 0.101529 0
M  V30 1051 C 108.732 3.87154 2.09284 0
M  V30 1052 H 105.851 0.703958 0.218202 0
M  V30 1053 H 108.493 1.89542 -0.131804 0
M  V30 1054 H 106.643 3.43592 1.81319 0
M  V30 1055 H 108.315 4.5823 -0.531279 0
M  V30 1056 H 106.558 4.30059 -0.568487 0
M  V30 1057 H 107.229 5.49266 0.54874 0
M  V30 1058 H 109.705 3.85551 1.56491 0
M  V30 1059 H 108.581 4.90231 2.46911 0
M  V30 1060 H 108.842 3.2481 2.99918 0
M  V30 1061 N 107.901 -0.206675 1.56239 0
M  V30 1062 C 108.831 -1.25909 1.96645 0
M  V30 1063 C 109.812 -1.48097 0.836734 0
M  V30 1064 O 110.997 -1.6003 1.10019 0
M  V30 1065 C 108.127 -2.6058 2.29599 0
M  V30 1066 C 107.081 -2.53024 3.452 0
M  V30 1067 C 106.407 -3.91861 3.63798 0
M  V30 1068 C 107.707 -2.06524 4.79734 0
M  V30 1069 H 109.401 -0.923369 2.84806 0
M  V30 1070 H 106.947 -0.442735 1.37025 0
M  V30 1071 H 108.9 -3.34375 2.56459 0
M  V30 1072 H 107.624 -2.95869 1.38307 0
M  V30 1073 H 106.283 -1.81684 3.18412 0
M  V30 1074 H 105.931 -4.24483 2.69857 0
M  V30 1075 H 105.631 -3.87683 4.4156 0
M  V30 1076 H 107.155 -4.67296 3.93022 0
M  V30 1077 H 108.569 -2.70072 5.05702 0
M  V30 1078 H 106.966 -2.13374 5.60885 0
M  V30 1079 H 108.036 -1.01802 4.74093 0
M  V30 1080 N 109.379 -1.50304 -0.473955 0
M  V30 1081 C 110.326 -1.68959 -1.57231 0
M  V30 1082 C 111.296 -0.530899 -1.57387 0
M  V30 1083 O 112.481 -0.761133 -1.74961 0
M  V30 1084 C 109.621 -1.7871 -2.95223 0
M  V30 1085 C 108.734 -3.06061 -3.04878 0
M  V30 1086 C 107.869 -3.06626 -4.33767 0
M  V30 1087 C 106.908 -4.28443 -4.37154 0
M  V30 1088 N 106.045 -4.26763 -5.5751 0
M  V30 1089 H 110.885 -2.6273 -1.40631 0
M  V30 1090 H 108.422 -1.30241 -0.683789 0
M  V30 1091 H 110.38 -1.82344 -3.75242 0
M  V30 1092 H 109.01 -0.883806 -3.10465 0
M  V30 1093 H 108.062 -3.11911 -2.17751 0
M  V30 1094 H 109.374 -3.96039 -3.0324 0
M  V30 1095 H 108.528 -3.08973 -5.22131 0
M  V30 1096 H 107.267 -2.14473 -4.3801 0
M  V30 1097 H 106.272 -4.2631 -3.47188 0
M  V30 1098 H 107.497 -5.2182 -4.34605 0
M  V30 1099 H 105.443 -3.37462 -5.62544 0
M  V30 1100 H 105.36 -5.10507 -5.57601 0
M  V30 1101 H 106.628 -4.33253 -6.48006 0
M  V30 1102 N 110.857 0.726932 -1.39834 0
M  V30 1103 C 111.805 1.86235 -1.39353 0
M  V30 1104 C 112.799 1.67144 -0.275555 0
M  V30 1105 O 114.005 1.74387 -0.44601 0
M  V30 1106 H 110.38 0.613174 -0.43534 0
M  V30 1107 H 112.351 1.83756 -2.35109 0
M  V30 1108 C 111.1 3.23995 -1.26185 0
M  V30 1109 H 110.423 3.39285 -2.11484 0
M  V30 1110 H 111.863 4.03609 -1.29907 0
M  V30 1111 C 110.322 3.36888 0.0290018 0
M  V30 1112 O 110.852 3.89152 0.99619 0
M  V30 1113 N 109.058 2.90446 0.0947437 0
M  V30 1114 H 108.605 2.48102 -0.693035 0
M  V30 1115 H 108.563 2.99451 0.957932 0
M  V30 1116 N 112.336 1.25143 0.95797 0
M  V30 1117 C 113.752 1.01892 1.22842 0
M  V30 1118 C 113.952 -0.266311 1.99732 0
M  V30 1119 O 113.008 -0.979913 2.3271 0
M  V30 1120 C 114.321 2.24004 2.00606 0
M  V30 1121 C 115.869 2.28731 2.13662 0
M  V30 1122 C 116.344 3.5049 2.94823 0
M  V30 1123 N 117.835 3.50866 3.02403 0
M  V30 1124 C 118.57 4.4174 3.65586 0
M  V30 1125 N 118.066 5.42882 4.30408 0
M  V30 1126 N 119.859 4.29429 3.62694 0
M  V30 1127 H 112.01 2.07718 0.443493 0
M  V30 1128 H 114.273 0.912031 0.258657 0
M  V30 1129 H 113.979 3.17395 1.51503 0
M  V30 1130 H 113.853 2.26907 3.01319 0
M  V30 1131 H 116.24 1.35865 2.61963 0
M  V30 1132 H 116.321 2.29848 1.12265 0
M  V30 1133 H 115.965 4.43676 2.47213 0
M  V30 1134 H 115.895 3.46617 3.96439 0
M  V30 1135 H 118.386 2.777 2.56302 0
M  V30 1136 H 118.699 6.0844 4.76467 0
M  V30 1137 H 117.044 5.46758 4.29047 0
M  V30 1138 H 120.235 3.49643 3.11236 0
M  V30 1139 H 120.408 5.00448 4.1165 0
M  V30 1140 N 113.814 -1.1601 1.06675 0
M  V30 1141 C 115.23 -1.38622 0.790948 0
M  V30 1142 C 115.43 -1.92109 -0.607965 0
M  V30 1143 O 114.486 -2.12239 -1.36787 0
M  V30 1144 C 115.799 -2.36347 1.85905 0
M  V30 1145 C 117.347 -2.50023 1.88301 0
M  V30 1146 C 117.822 -3.51033 2.94176 0
M  V30 1147 N 119.313 -3.58563 2.93235 0
M  V30 1148 C 120.048 -4.36521 3.71803 0
M  V30 1149 N 119.544 -5.17869 4.602 0
M  V30 1150 N 121.337 -4.31541 3.60178 0
M  V30 1151 H 113.488 -0.796294 1.96908 0
M  V30 1152 H 115.751 -0.412597 0.853503 0
M  V30 1153 H 115.457 -2.04147 2.86386 0
M  V30 1154 H 115.331 -3.36042 1.71334 0
M  V30 1155 H 117.718 -2.81524 0.884769 0
M  V30 1156 H 117.799 -1.5035 2.06951 0
M  V30 1157 H 117.443 -3.20268 3.94196 0
M  V30 1158 H 117.373 -4.50445 2.72776 0
M  V30 1159 H 119.864 -3.00496 2.29152 0
M  V30 1160 H 120.177 -5.74578 5.16797 0
M  V30 1161 H 118.522 -5.17199 4.64253 0
M  V30 1162 H 121.713 -3.67051 2.90502 0
M  V30 1163 H 121.886 -4.9205 4.21653 0
M  V30 1164 N 115.292 -0.849877 -1.32721 0
M  V30 1165 C 116.222 -0.306308 -2.31482 0
M  V30 1166 C 117.203 0.591952 -1.59468 0
M  V30 1167 O 118.388 0.513199 -1.87296 0
M  V30 1168 C 115.518 0.510204 -3.43532 0
M  V30 1169 C 114.472 -0.293209 -4.26994 0
M  V30 1170 C 113.798 0.647743 -5.30762 0
M  V30 1171 C 115.098 -1.51634 -4.99804 0
M  V30 1172 H 116.792 -1.13153 -2.77195 0
M  V30 1173 H 114.338 -0.545553 -1.33266 0
M  V30 1174 H 116.291 0.900856 -4.11658 0
M  V30 1175 H 115.015 1.36874 -2.96535 0
M  V30 1176 H 113.674 -0.665555 -3.60508 0
M  V30 1177 H 113.322 1.50299 -4.8002 0
M  V30 1178 H 113.022 0.11422 -5.87489 0
M  V30 1179 H 114.546 1.03567 -6.01753 0
M  V30 1180 H 115.96 -1.19824 -5.60638 0
M  V30 1181 H 114.357 -1.98745 -5.66234 0
M  V30 1182 H 115.427 -2.28018 -4.27943 0
M  V30 1183 N 116.77 1.45427 -0.607355 0
M  V30 1184 C 117.998 2.06614 -0.108814 0
M  V30 1185 C 118.413 1.45204 1.2067 0
M  V30 1186 O 117.77 0.566132 1.73497 0
M  V30 1187 C 117.821 3.61481 0.0375347 0
M  V30 1188 O 117.542 4.20598 -1.22593 0
M  V30 1189 C 119.043 4.39652 0.567561 0
M  V30 1190 H 116.263 0.66747 -0.0687351 0
M  V30 1191 H 118.807 1.86675 -0.835022 0
M  V30 1192 H 116.962 3.80762 0.714068 0
M  V30 1193 H 117.376 5.1377 -1.05547 0
M  V30 1194 H 118.85 5.48518 0.61905 0
M  V30 1195 H 119.327 4.09417 1.58978 0
M  V30 1196 H 119.933 4.25234 -0.0749202 0
M  V30 1197 N 118.248 0.346503 1.53744 0
M  V30 1198 C 119.494 -0.242135 2.01954 0
M  V30 1199 C 119.849 -1.47962 1.22984 0
M  V30 1200 O 119.142 -1.89077 0.309924 0
M  V30 1201 C 119.336 -0.605809 3.52228 0
M  V30 1202 C 119.165 0.594882 4.45748 0
M  V30 1203 C 117.935 1.1011 4.93157 0
M  V30 1204 C 120.133 1.45425 4.93311 0
M  V30 1205 N 118.115 2.26381 5.70636 0
M  V30 1206 C 119.486 2.46383 5.68942 0
M  V30 1207 C 121.541 1.47935 4.75415 0
M  V30 1208 C 120.244 3.49684 6.28581 0
M  V30 1209 C 122.27 2.50119 5.35905 0
M  V30 1210 C 121.632 3.49803 6.11406 0
M  V30 1211 H 117.731 -0.0518296 0.780281 0
M  V30 1212 H 120.315 0.486736 1.88518 0
M  V30 1213 H 118.486 -1.30378 3.65864 0
M  V30 1214 H 120.218 -1.17789 3.87179 0
M  V30 1215 H 116.973 0.668721 4.68855 0
M  V30 1216 H 117.397 2.85094 6.14044 0
M  V30 1217 H 122.039 0.722274 4.16585 0
M  V30 1218 H 119.757 4.26285 6.86518 0
M  V30 1219 H 123.343 2.52892 5.23963 0
M  V30 1220 H 122.223 4.27576 6.5738 0
M  V30 1221 N 119.726 -1.57421 0.075193 0
M  V30 1222 C 120.636 -2.1642 -0.905511 0
M  V30 1223 C 121.652 -1.12828 -1.32461 0
M  V30 1224 O 122.828 -1.45109 -1.39661 0
M  V30 1225 C 119.893 -2.71693 -2.15369 0
M  V30 1226 C 118.954 -3.90171 -1.79068 0
M  V30 1227 C 118.187 -4.42798 -2.97936 0
M  V30 1228 O 118.41 -3.94416 -4.12058 0
M  V30 1229 O 117.344 -5.34085 -2.77555 0
M  V30 1230 H 121.17 -3.00588 -0.433626 0
M  V30 1231 H 118.755 -1.48664 -0.148067 0
M  V30 1232 H 120.637 -3.07104 -2.88557 0
M  V30 1233 H 119.312 -1.90582 -2.61649 0
M  V30 1234 H 118.219 -3.59606 -1.03122 0
M  V30 1235 H 119.552 -4.72584 -1.37569 0
M  V30 1236 N 121.204 0.198386 -1.56346 0
M  V30 1237 C 122.434 0.934215 -1.84271 0
M  V30 1238 C 122.842 1.77496 -0.655125 0
M  V30 1239 O 122.185 1.7961 0.385488 0
M  V30 1240 C 122.247 1.88278 -3.06254 0
M  V30 1241 C 121.911 1.22431 -4.40295 0
M  V30 1242 C 122.908 0.602839 -5.16393 0
M  V30 1243 C 120.593 1.22915 -4.87029 0
M  V30 1244 C 122.587 -0.0050083 -6.374 0
M  V30 1245 C 120.274 0.617465 -6.07973 0
M  V30 1246 C 121.272 0.00146341 -6.83 0
M  V30 1247 O 120.96 -0.600642 -8.01653 0
M  V30 1248 H 120.692 0.278245 -0.616081 0
M  V30 1249 H 123.246 0.211626 -2.04307 0
M  V30 1250 H 121.476 2.64498 -2.82095 0
M  V30 1251 H 123.165 2.48612 -3.20853 0
M  V30 1252 H 123.931 0.591265 -4.81382 0
M  V30 1253 H 119.81 1.69801 -4.28589 0
M  V30 1254 H 123.354 -0.48643 -6.95902 0
M  V30 1255 H 119.251 0.62653 -6.42452 0
M  V30 1256 H 120.019 -0.497225 -8.16988 0
M  V30 1257 N 122.682 1.50554 0.465978 0
M  V30 1258 C 123.922 1.63439 1.22747 0
M  V30 1259 C 124.286 0.329822 1.89146 0
M  V30 1260 O 125.487 0.334161 2.66715 0
M  V30 1261 C 123.758 2.78542 2.2394 0
M  V30 1262 S 125.317 3.11591 3.0896 0
M  V30 1263 H 122.135 0.576113 0.416672 0
M  V30 1264 H 124.737 1.88357 0.523641 0
M  V30 1265 H 123.441 3.71805 1.7375 0
M  V30 1266 H 122.972 2.55726 2.98944 0
M  V30 1267 H 124.987 2.55811 4.25176 0
M  V30 1268 N 124.16 -0.719506 1.40217 0
M  V30 1269 C 125.437 -1.47221 1.28784 0
M  V30 1270 C 125.817 -2.10883 -0.0956067 0
M  V30 1271 O 125.165 -1.99833 -1.10811 0
M  V30 1272 C 125.375 -2.5111 2.42373 0
M  V30 1273 C 126.723 -3.17053 2.82423 0
M  V30 1274 O 127.747 -2.61429 2.41937 0
M  V30 1275 O 126.606 -4.17742 3.52355 0
M  V30 1276 H 123.7 -0.654491 0.50554 0
M  V30 1277 H 126.246 -0.752014 1.52128 0
M  V30 1278 H 125.018 -2.02556 3.34793 0
M  V30 1279 H 124.641 -3.3067 2.20778 0
M  V30 1280 N 125.638 -1.25649 -0.95132 0
M  V30 1281 C 126.884 -1.10757 -1.69884 0
M  V30 1282 C 127.217 0.350061 -1.91019 0
M  V30 1283 O 126.492 1.25783 -1.48354 0
M  V30 1284 C 126.775 -1.86606 -3.07978 0
M  V30 1285 C 126.628 -3.40217 -2.94232 0
M  V30 1286 C 127.947 -1.65182 -4.07925 0
M  V30 1287 H 125.066 -0.40374 -0.616574 0
M  V30 1288 H 127.708 -1.54521 -1.10558 0
M  V30 1289 H 125.858 -1.49409 -3.58621 0
M  V30 1290 H 127.53 -3.87108 -2.50889 0
M  V30 1291 H 125.773 -3.67759 -2.30078 0
M  V30 1292 H 126.444 -3.88505 -3.92133 0
M  V30 1293 H 128.92 -1.9757 -3.66204 0
M  V30 1294 H 127.796 -2.20683 -5.02583 0
M  V30 1295 H 128.057 -0.593933 -4.38092 0
M  V30 1296 N 127.117 1.15442 -1.07289 0
M  V30 1297 C 128.528 1.67803 -0.818475 0
M  V30 1298 C 128.879 1.8489 0.656507 0
M  V30 1299 O 128.004 1.55176 1.50829 0
M  V30 1300 C 128.599 3.04805 -1.47917 0
M  V30 1301 C 127.158 3.54245 -1.27229 0
M  V30 1302 C 126.305 2.29986 -1.54925 0
M  V30 1303 H 129.256 0.996646 -1.23502 0
M  V30 1304 H 129.277 3.69702 -0.90005 0
M  V30 1305 H 128.789 2.92336 -2.55267 0
M  V30 1306 H 126.89 3.71956 -0.21899 0
M  V30 1307 H 127.003 4.35723 -1.99203 0
M  V30 1308 H 125.367 2.35496 -0.970242 0
M  V30 1309 H 126.15 2.20105 -2.63455 0
M  V30 1310 N 128.595 0.856903 1.32268 0
M  V30 1311 C 129.82 0.474569 2.01897 0
M  V30 1312 C 130.245 -0.921766 1.63967 0
M  V30 1313 O 129.603 -1.60589 0.84148 0
M  V30 1314 C 129.651 0.623799 3.55164 0
M  V30 1315 O 128.755 -0.342459 4.10976 0
M  V30 1316 H 128.096 0.190422 0.63611 0
M  V30 1317 H 130.626 1.15672 1.68764 0
M  V30 1318 H 130.636 0.512169 4.04773 0
M  V30 1319 H 129.311 1.64202 3.82113 0
M  V30 1320 H 127.888 -0.18688 3.72431 0
M  V30 1321 N 130.073 -1.45103 0.615059 0
M  V30 1322 C 131.313 -2.04069 0.116282 0
M  V30 1323 C 131.677 -1.4721 -1.2326 0
M  V30 1324 O 132.878 -1.97577 -1.82255 0
M  V30 1325 C 131.149 -3.57298 0.085482 0
M  V30 1326 S 132.708 -4.37394 -0.351015 0
M  V30 1327 H 129.526 -0.709006 0.0532183 0
M  V30 1328 H 132.128 -1.77709 0.81484 0
M  V30 1329 H 130.832 -3.9619 1.0706 0
M  V30 1330 H 130.363 -3.88244 -0.634835 0
M  V30 1331 H 132.378 -4.69734 -1.59889 0
M  V30 1332 N 131.551 -0.354651 -1.53558 0
M  V30 1333 C 132.776 0.242153 -2.05981 0
M  V30 1334 C 133.201 1.42553 -1.2272 0
M  V30 1335 O 132.559 1.79656 -0.243604 0
M  V30 1336 C 132.607 0.624367 -3.55154 0
M  V30 1337 O 131.711 1.72301 -3.74681 0
M  V30 1338 H 131.052 0.0378432 -0.662921 0
M  V30 1339 H 133.582 -0.512087 -1.98088 0
M  V30 1340 H 133.592 0.898433 -3.97985 0
M  V30 1341 H 132.267 -0.240989 -4.15201 0
M  V30 1342 H 130.844 1.44535 -3.4375 0
M  V30 1343 N 133.029 1.57378 -0.0835403 0
M  V30 1344 C 134.257 1.98263 0.59157 0
M  V30 1345 C 134.672 0.962302 1.62435 0
M  V30 1346 O 134.029 -0.049581 1.82433 0
M  V30 1347 C 134.08 3.39214 1.24965 0
M  V30 1348 O 133.801 4.37339 0.258186 0
M  V30 1349 C 135.302 3.95038 2.01147 0
M  V30 1350 H 132.522 0.651773 0.159477 0
M  V30 1351 H 135.066 2.03878 -0.159415 0
M  V30 1352 H 133.221 3.34649 1.95164 0
M  V30 1353 H 133.635 5.19371 0.731734 0
M  V30 1354 H 135.109 4.95848 2.42567 0
M  V30 1355 H 135.586 3.32222 2.87272 0
M  V30 1356 H 136.192 4.0304 1.35789 0
M  V30 1357 N 134.507 -0.190092 1.56449 0
M  V30 1358 C 135.747 -0.916414 1.82705 0
M  V30 1359 C 136.111 -1.80235 0.661763 0
M  V30 1360 O 137.312 -2.56484 0.80433 0
M  V30 1361 C 135.583 -1.70691 3.14005 0
M  V30 1362 S 137.142 -2.48457 3.61683 0
M  V30 1363 H 133.96 -0.307281 0.64117 0
M  V30 1364 H 136.562 -0.179433 1.94675 0
M  V30 1365 H 135.266 -1.04677 3.96826 0
M  V30 1366 H 134.797 -2.48562 3.04927 0
M  V30 1367 H 136.812 -3.72756 3.27517 0
M  V30 1368 N 135.985 -1.50799 -0.457987 0
M  V30 1369 C 137.233 -1.62121 -1.2067 0
M  V30 1370 C 137.554 -0.329793 -1.92191 0
M  V30 1371 O 136.824 0.653409 -1.84682 0
M  V30 1372 H 135.404 -0.597441 -0.448411 0
M  V30 1373 H 138.066 -1.87637 -0.527096 0
M  V30 1374 H 137.162 -2.43882 -1.94751 0
M  V30 1375 N 137.463 0.71206 -1.40597 0
M  V30 1376 C 138.393 1.83889 -1.43899 0
M  V30 1377 C 139.374 1.67442 -0.299504 0
M  V30 1378 O 140.559 1.87421 -0.508624 0
M  V30 1379 C 137.689 3.21877 -1.30431 0
M  V30 1380 C 136.643 3.53002 -2.42019 0
M  V30 1381 C 135.969 4.90172 -2.13626 0
M  V30 1382 C 137.269 3.53643 -3.84362 0
M  V30 1383 H 138.963 1.81383 -2.38203 0
M  V30 1384 H 136.509 0.871237 -1.14654 0
M  V30 1385 H 138.462 4.00404 -1.31357 0
M  V30 1386 H 137.186 3.24968 -0.326049 0
M  V30 1387 H 135.845 2.76818 -2.40349 0
M  V30 1388 H 135.493 4.89869 -1.14182 0
M  V30 1389 H 135.193 5.11962 -2.88389 0
M  V30 1390 H 136.717 5.71028 -2.1624 0
M  V30 1391 H 138.131 4.22203 -3.87837 0
M  V30 1392 H 136.528 3.86961 -4.58673 0
M  V30 1393 H 137.598 2.52954 -4.13693 0
M  V30 1394 N 138.941 1.26152 0.944643 0
M  V30 1395 C 140.357 1.03189 1.21754 0
M  V30 1396 C 140.557 -0.245112 2.00004 0
M  V30 1397 O 139.613 -0.955176 2.33736 0
M  V30 1398 C 140.926 2.26119 1.98219 0
M  V30 1399 C 142.474 2.30984 2.11224 0
M  V30 1400 C 142.949 3.53597 2.91089 0
M  V30 1401 N 144.44 3.54053 2.98664 0
M  V30 1402 C 145.175 4.45593 3.60881 0
M  V30 1403 N 144.671 5.47416 4.24626 0
M  V30 1404 N 146.464 4.33252 3.58119 0
M  V30 1405 H 138.615 2.08177 0.421437 0
M  V30 1406 H 140.878 0.914723 0.248969 0
M  V30 1407 H 140.584 3.18984 1.48128 0
M  V30 1408 H 140.458 2.3009 2.98895 0
M  V30 1409 H 142.845 1.38635 2.60508 0
M  V30 1410 H 142.926 2.31026 1.09821 0
M  V30 1411 H 142.57 4.46273 2.42493 0
M  V30 1412 H 142.5 3.50802 3.92741 0
M  V30 1413 H 144.991 2.80403 2.53343 0
M  V30 1414 H 145.304 6.13459 4.69987 0
M  V30 1415 H 143.649 5.51278 4.23223 0
M  V30 1416 H 146.84 3.52924 3.0751 0
M  V30 1417 H 147.013 5.04786 4.06319 0
M  V30 1418 N 140.419 -1.14872 1.07899 0
M  V30 1419 C 141.351 -2.19425 0.662231 0
M  V30 1420 C 142.364 -1.60231 -0.288079 0
M  V30 1421 O 143.553 -1.78336 -0.076534 0
M  V30 1422 C 140.653 -3.38867 -0.0470695 0
M  V30 1423 C 139.826 -4.27597 0.920831 0
M  V30 1424 C 138.885 -5.25616 0.247805 0
M  V30 1425 O 137.911 -5.62189 0.890599 0
M  V30 1426 N 139.113 -5.71746 -1.00435 0
M  V30 1427 H 141.878 -2.55797 1.56166 0
M  V30 1428 H 139.439 -1.30042 0.964404 0
M  V30 1429 H 141.431 -4.01497 -0.50813 0
M  V30 1430 H 140.001 -3.00864 -0.848523 0
M  V30 1431 H 139.221 -3.61982 1.56087 0
M  V30 1432 H 140.509 -4.83748 1.57688 0
M  V30 1433 H 139.907 -5.44153 -1.54642 0
M  V30 1434 H 138.464 -6.36389 -1.40899 0
M  V30 1435 N 141.898 -0.863906 -1.31812 0
M  V30 1436 C 143.128 -0.485406 -2.00817 0
M  V30 1437 C 143.536 0.925007 -1.65046 0
M  V30 1438 O 142.879 1.61653 -0.872574 0
M  V30 1439 C 142.941 -0.555589 -3.55181 0
M  V30 1440 C 142.605 -1.92654 -4.14407 0
M  V30 1441 C 143.602 -2.89324 -4.31958 0
M  V30 1442 C 141.287 -2.2262 -4.50273 0
M  V30 1443 C 143.281 -4.14108 -4.84555 0
M  V30 1444 C 140.968 -3.47654 -5.02573 0
M  V30 1445 C 141.966 -4.43214 -5.19664 0
M  V30 1446 O 141.654 -5.66033 -5.70843 0
M  V30 1447 H 141.386 -0.188224 -0.649267 0
M  V30 1448 H 143.94 -1.16514 -1.69156 0
M  V30 1449 H 142.17 0.181037 -3.86276 0
M  V30 1450 H 143.859 -0.19138 -4.05449 0
M  V30 1451 H 144.625 -2.6748 -4.04573 0
M  V30 1452 H 140.504 -1.4902 -4.3625 0
M  V30 1453 H 144.048 -4.88703 -4.9781 0
M  V30 1454 H 139.945 -3.69345 -5.29391 0
M  V30 1455 H 140.713 -5.6812 -5.89222 0
M  V30 1456 N 143.376 1.44774 -0.622745 0
M  V30 1457 C 144.601 2.06999 -0.128968 0
M  V30 1458 C 145.026 1.4617 1.1839 0
M  V30 1459 O 144.384 0.560007 1.72434 0
M  V30 1460 C 144.432 3.60595 -0.0188351 0
M  V30 1461 O 143.536 3.99398 1.02739 0
M  V30 1462 H 142.877 0.659047 -0.0809544 0
M  V30 1463 H 145.407 1.85784 -0.85705 0
M  V30 1464 H 145.417 4.07627 0.174476 0
M  V30 1465 H 144.092 4.04252 -0.977384 0
M  V30 1466 H 142.669 3.64011 0.809326 0
M  V30 1467 N 144.854 0.36279 1.53368 0
M  V30 1468 C 145.786 -0.519668 2.23231 0
M  V30 1469 C 146.799 -1.04844 1.24546 0
M  V30 1470 O 147.988 -0.955296 1.50786 0
M  V30 1471 C 145.088 -1.72995 2.9142 0
M  V30 1472 C 144.261 -1.33316 4.16588 0
M  V30 1473 C 143.32 -2.40521 4.68013 0
M  V30 1474 O 142.346 -2.03027 5.3176 0
M  V30 1475 N 143.548 -3.72065 4.45587 0
M  V30 1476 H 146.313 0.078751 2.99597 0
M  V30 1477 H 143.874 0.187833 1.60807 0
M  V30 1478 H 145.866 -2.44184 3.22733 0
M  V30 1479 H 144.436 -2.2353 2.18525 0
M  V30 1480 H 143.656 -0.451236 3.91609 0
M  V30 1481 H 144.944 -1.04432 4.97967 0
M  V30 1482 H 144.342 -4.05304 3.94646 0
M  V30 1483 H 142.899 -4.39366 4.81457 0
M  V30 1484 N 146.332 -1.57332 0.0918853 0
M  V30 1485 C 147.743 -1.81496 -0.437739 0
M  V30 1486 C 148.094 -1.00727 -1.6837 0
M  V30 1487 O 147.219 -0.235694 -2.15113 0
M  V30 1488 C 147.814 -3.29197 -0.800939 0
M  V30 1489 C 146.373 -3.54136 -1.27532 0
M  V30 1490 C 145.52 -2.75979 -0.270392 0
M  V30 1491 H 148.471 -1.55494 0.317366 0
M  V30 1492 H 148.492 -3.42344 -1.66074 0
M  V30 1493 H 148.004 -3.87955 0.106078 0
M  V30 1494 H 146.105 -3.00705 -2.20016 0
M  V30 1495 H 146.218 -4.62792 -1.23938 0
M  V30 1496 H 144.582 -2.43349 -0.751872 0
M  V30 1497 H 145.365 -3.37484 0.629248 0
M  V30 1498 N 147.81 0.181792 -1.56548 0
M  V30 1499 C 148.742 1.24956 -1.92142 0
M  V30 1500 C 149.755 1.41022 -0.813422 0
M  V30 1501 O 150.944 1.41212 -1.09186 0
M  V30 1502 C 148.044 2.61981 -2.14987 0
M  V30 1503 C 147.217 2.6735 -3.46183 0
M  V30 1504 C 146.276 3.85664 -3.5798 0
M  V30 1505 O 145.302 3.72148 -4.30691 0
M  V30 1506 N 146.504 5.01683 -2.92053 0
M  V30 1507 H 149.269 0.947329 -2.84334 0
M  V30 1508 H 146.83 0.371629 -1.57577 0
M  V30 1509 H 148.822 3.3958 -2.20154 0
M  V30 1510 H 147.392 2.84637 -1.2923 0
M  V30 1511 H 146.612 1.75925 -3.52766 0
M  V30 1512 H 147.9 2.67939 -4.32534 0
M  V30 1513 H 147.298 5.15564 -2.32832 0
M  V30 1514 H 145.855 5.77181 -3.0283 0
M  V30 1515 N 149.288 1.51039 0.449983 0
M  V30 1516 C 150.535 1.63081 1.20045 0
M  V30 1517 C 150.863 0.341024 1.91487 0
M  V30 1518 O 150.118 -0.674276 1.83717 0
M  V30 1519 C 150.417 2.77556 2.25161 0
M  V30 1520 C 150.083 4.17289 1.70823 0
M  V30 1521 C 148.745 4.55305 1.55725 0
M  V30 1522 C 151.097 5.04536 1.3074 0
M  V30 1523 C 148.425 5.78287 0.989999 0
M  V30 1524 C 150.777 6.28085 0.754482 0
M  V30 1525 C 149.441 6.64885 0.590308 0
M  V30 1526 H 148.711 0.596755 0.439277 0
M  V30 1527 H 151.358 1.85037 0.49333 0
M  V30 1528 H 149.663 2.49771 3.01863 0
M  V30 1529 H 151.36 2.84073 2.83026 0
M  V30 1530 H 147.95 3.8731 1.83546 0
M  V30 1531 H 152.134 4.75782 1.41229 0
M  V30 1532 H 147.39 6.05456 0.850451 0
M  V30 1533 H 151.564 6.95038 0.435324 0
M  V30 1534 H 149.191 7.60055 0.14862 0
M  V30 1535 N 150.766 -0.704594 1.40972 0
M  V30 1536 C 152.182 -1.01406 1.23244 0
M  V30 1537 C 152.382 -2.01169 0.115399 0
M  V30 1538 O 151.438 -2.47021 -0.523147 0
M  V30 1539 C 152.751 -1.54728 2.57836 0
M  V30 1540 C 154.299 -1.66658 2.64942 0
M  V30 1541 C 154.774 -2.23383 3.9983 0
M  V30 1542 N 156.265 -2.30756 4.01629 0
M  V30 1543 C 157 -2.75655 5.02794 0
M  V30 1544 N 156.496 -3.20225 6.14352 0
M  V30 1545 N 158.289 -2.75138 4.90159 0
M  V30 1546 H 150.44 -0.0435285 2.12355 0
M  V30 1547 H 152.703 -0.0818951 0.944456 0
M  V30 1548 H 152.409 -0.888832 3.40283 0
M  V30 1549 H 152.283 -2.53084 2.79693 0
M  V30 1550 H 154.67 -2.31617 1.8286 0
M  V30 1551 H 154.751 -0.668717 2.46904 0
M  V30 1552 H 154.395 -1.59043 4.82357 0
M  V30 1553 H 154.325 -3.23904 4.15203 0
M  V30 1554 H 156.816 -1.99291 3.21079 0
M  V30 1555 H 157.129 -3.53084 6.87424 0
M  V30 1556 H 155.474 -3.18156 6.17901 0
M  V30 1557 H 158.665 -2.39661 4.02095 0
M  V30 1558 H 158.838 -3.09812 5.6914 0
M  V30 1559 N 152.244 -1.26651 -0.937939 0
M  V30 1560 C 153.493 -1.11775 -1.67897 0
M  V30 1561 C 153.806 0.33794 -1.92659 0
M  V30 1562 O 155.012 0.607434 -2.64618 0
M  V30 1563 C 153.468 -1.9523 -3.02346 0
M  V30 1564 C 153.076 -3.45393 -2.8532 0
M  V30 1565 C 154.82 -1.88972 -3.80118 0
M  V30 1566 C 152.727 -4.21083 -4.15263 0
M  V30 1567 H 151.657 -0.414696 -0.629717 0
M  V30 1568 H 154.308 -1.50988 -1.04283 0
M  V30 1569 H 152.69 -1.48853 -3.66959 0
M  V30 1570 H 153.864 -3.99561 -2.29537 0
M  V30 1571 H 152.179 -3.52921 -2.20988 0
M  V30 1572 H 154.776 -2.42805 -4.76392 0
M  V30 1573 H 155.119 -0.86113 -4.07296 0
M  V30 1574 H 155.652 -2.33189 -3.22285 0
M  V30 1575 H 152.391 -5.24425 -3.93267 0
M  V30 1576 H 151.911 -3.71695 -4.70747 0
M  V30 1577 H 153.59 -4.29706 -4.83696 0
M  V30 1578 N 153.722 1.14298 -1.08507 0
M  V30 1579 C 154.669 2.19414 -0.715965 0
M  V30 1580 C 155.639 1.63399 0.298326 0
M  V30 1581 O 156.824 1.89929 0.182101 0
M  V30 1582 C 153.964 3.44845 -0.132534 0
M  V30 1583 C 153.077 4.15007 -1.19973 0
M  V30 1584 C 152.212 5.28024 -0.580048 0
M  V30 1585 C 151.251 5.9002 -1.62921 0
M  V30 1586 N 150.388 6.94485 -1.03125 0
M  V30 1587 H 155.228 2.50336 -1.61666 0
M  V30 1588 H 152.765 1.2293 -0.807882 0
M  V30 1589 H 154.723 4.16601 0.223454 0
M  V30 1590 H 153.353 3.14403 0.731467 0
M  V30 1591 H 152.405 3.41629 -1.67313 0
M  V30 1592 H 153.717 4.57178 -1.99473 0
M  V30 1593 H 152.871 6.06455 -0.172364 0
M  V30 1594 H 151.61 4.87076 0.246603 0
M  V30 1595 H 150.615 5.10291 -2.04654 0
M  V30 1596 H 151.84 6.33042 -2.45835 0
M  V30 1597 H 149.786 6.55612 -0.225711 0
M  V30 1598 H 149.703 7.35148 -1.76334 0
M  V30 1599 H 150.971 7.7679 -0.649458 0
M  V30 1600 N 155.201 0.870884 1.31352 0
M  V30 1601 C 156.449 0.48132 1.96285 0
M  V30 1602 C 156.77 -0.969813 1.69173 0
M  V30 1603 O 156.04 -1.67998 1.00764 0
M  V30 1604 H 154.62 0.175002 0.726212 0
M  V30 1605 H 157.282 1.11087 1.60143 0
M  V30 1606 H 156.378 0.639825 3.05471 0
M  V30 1607 N 156.679 -1.44442 0.630414 0
M  V30 1608 C 157.927 -2.01653 0.134351 0
M  V30 1609 C 158.248 -1.49836 -1.24796 0
M  V30 1610 O 157.518 -0.701684 -1.82902 0
M  V30 1611 H 156.098 -0.74554 0.0466769 0
M  V30 1612 H 158.76 -1.76952 0.816955 0
M  V30 1613 H 157.856 -3.11935 0.101498 0
M  V30 1614 N 158.157 -0.370918 -1.53173 0
M  V30 1615 C 159.087 0.464847 -2.28826 0
M  V30 1616 C 160.068 1.07936 -1.31468 0
M  V30 1617 O 161.253 1.0956 -1.60344 0
M  V30 1618 C 158.383 1.60196 -3.08147 0
M  V30 1619 C 157.337 1.11443 -4.13237 0
M  V30 1620 C 156.663 2.3422 -4.80672 0
M  V30 1621 C 157.963 0.195384 -5.21934 0
M  V30 1622 H 159.657 -0.166329 -2.98938 0
M  V30 1623 H 157.203 -0.0814359 -1.4377 0
M  V30 1624 H 159.156 2.19332 -3.59822 0
M  V30 1625 H 157.88 2.26045 -2.35735 0
M  V30 1626 H 156.539 0.545727 -3.62515 0
M  V30 1627 H 156.187 2.98537 -4.04827 0
M  V30 1628 H 155.887 2.02269 -5.51689 0
M  V30 1629 H 157.411 2.94032 -5.35143 0
M  V30 1630 H 158.825 0.694375 -5.69079 0
M  V30 1631 H 157.222 -0.0335027 -6.00091 0
M  V30 1632 H 158.292 -0.760961 -4.78892 0
M  V30 1633 N 159.635 1.57281 -0.100228 0
M  V30 1634 C 160.882 1.94537 0.562268 0
M  V30 1635 C 161.21 0.982315 1.67871 0
M  V30 1636 O 160.465 0.00280936 1.957 0
M  V30 1637 C 160.764 3.38305 1.15259 0
M  V30 1638 C 160.43 4.50618 0.159409 0
M  V30 1639 C 159.092 4.81066 -0.113741 0
M  V30 1640 C 161.444 5.18615 -0.518461 0
M  V30 1641 C 158.772 5.76835 -1.07137 0
M  V30 1642 C 161.124 6.15412 -1.46459 0
M  V30 1643 C 159.788 6.44262 -1.74592 0
M  V30 1644 H 159.058 0.711863 0.205748 0
M  V30 1645 H 161.705 1.90679 -0.17715 0
M  V30 1646 H 160.01 3.38766 1.96836 0
M  V30 1647 H 161.707 3.64435 1.67297 0
M  V30 1648 H 158.297 4.2689 0.382491 0
M  V30 1649 H 162.481 4.95264 -0.320581 0
M  V30 1650 H 157.737 5.975 -1.29628 0
M  V30 1651 H 161.911 6.67194 -1.99564 0
M  V30 1652 H 159.538 7.1828 -2.48953 0
M  V30 1653 N 161.113 -0.173488 1.56642 0
M  V30 1654 C 162.076 -1.19859 1.95362 0
M  V30 1655 C 163.076 -1.37296 0.83704 0
M  V30 1656 O 164.266 -1.34739 1.10413 0
M  V30 1657 C 161.398 -2.56405 2.24654 0
M  V30 1658 H 162.591 -0.867062 2.87092 0
M  V30 1659 H 160.144 -0.415853 1.50666 0
M  V30 1660 H 160.879 -2.94576 1.35631 0
M  V30 1661 H 160.664 -2.45115 3.06041 0
M  V30 1662 H 162.154 -3.30287 2.5554 0
M  V30 1663 N 162.591 -1.51276 -0.441967 0
M  V30 1664 C 163.868 -1.54252 -1.20273 0
M  V30 1665 C 164.248 -0.30408 -2.08898 0
M  V30 1666 O 163.596 0.711084 -2.17154 0
M  V30 1667 C 163.806 -2.85406 -2.00859 0
M  V30 1668 C 165.154 -3.37181 -2.58059 0
M  V30 1669 O 166.178 -2.86925 -2.11074 0
M  V30 1670 O 165.037 -4.24858 -3.43741 0
M  V30 1671 H 162.131 -0.619969 -0.547328 0
M  V30 1672 H 164.677 -1.63586 -0.451413 0
M  V30 1673 H 163.449 -3.67003 -1.35736 0
M  V30 1674 H 163.072 -2.79213 -2.83065 0
M  V30 1675 N 164.069 0.697108 -1.41344 0
M  V30 1676 C 165.318 1.45279 -1.39918 0
M  V30 1677 C 165.631 1.95597 -0.0109624 0
M  V30 1678 O 166.837 2.71208 0.125919 0
M  V30 1679 C 165.293 2.62695 -2.46007 0
M  V30 1680 C 164.901 2.19169 -3.90729 0
M  V30 1681 C 166.645 3.40336 -2.53715 0
M  V30 1682 C 164.552 3.33535 -4.88373 0
M  V30 1683 H 163.482 0.545692 -0.520323 0
M  V30 1684 H 166.133 0.756929 -1.67161 0
M  V30 1685 H 164.515 3.34541 -2.11892 0
M  V30 1686 H 165.689 1.54623 -4.34083 0
M  V30 1687 H 164.004 1.54525 -3.86666 0
M  V30 1688 H 166.601 4.2547 -3.2385 0
M  V30 1689 H 166.944 3.85418 -1.5735 0
M  V30 1690 H 167.477 2.75546 -2.86913 0
M  V30 1691 H 164.216 2.93468 -5.86137 0
M  V30 1692 H 163.736 3.96936 -4.49668 0
M  V30 1693 H 165.415 3.99335 -5.09059 0
M  V30 1694 N 165.547 1.27147 0.931209 0
M  V30 1695 C 166.51 1.09615 2.01289 0
M  V30 1696 C 167.51 0.0412581 1.60747 0
M  V30 1697 O 168.7 0.285545 1.71844 0
M  V30 1698 C 165.832 0.669447 3.34262 0
M  V30 1699 H 167.025 2.05662 2.18273 0
M  V30 1700 H 164.578 1.09885 1.11153 0
M  V30 1701 H 165.313 -0.292572 3.22978 0
M  V30 1702 H 165.098 1.43127 3.65044 0
M  V30 1703 H 166.588 0.568921 4.13706 0
M  V30 1704 N 167.025 -1.13721 1.09112 0
M  V30 1705 C 168.25 -1.89314 0.847053 0
M  V30 1706 C 168.675 -1.78416 -0.595774 0
M  V30 1707 O 168.033 -1.12942 -1.41823 0
M  V30 1708 C 168.081 -3.3701 1.28284 0
M  V30 1709 O 167.185 -4.10054 0.439267 0
M  V30 1710 H 166.526 -0.588745 0.307044 0
M  V30 1711 H 169.056 -1.43902 1.45442 0
M  V30 1712 H 169.066 -3.87834 1.26683 0
M  V30 1713 H 167.741 -3.4426 2.33363 0
M  V30 1714 H 166.318 -3.69266 0.519312 0
M  V30 1715 N 168.503 -0.877838 -1.30888 0
M  V30 1716 C 169.453 -0.310872 -2.25871 0
M  V30 1717 C 170.437 0.556596 -1.50966 0
M  V30 1718 O 171.629 0.402187 -1.7237 0
M  V30 1719 C 168.758 0.479821 -3.3993 0
M  V30 1720 C 167.844 -0.401333 -4.22197 0
M  V30 1721 N 168.235 -1.49848 -4.83093 0
M  V30 1722 C 166.533 -0.195167 -4.45573 0
M  V30 1723 C 167.234 -2.0425 -5.44662 0
M  V30 1724 N 166.21 -1.33843 -5.26865 0
M  V30 1725 H 170.012 -1.1493 -2.70496 0
M  V30 1726 H 167.526 -0.726458 -1.45246 0
M  V30 1727 H 169.523 0.902582 -4.07012 0
M  V30 1728 H 168.183 1.31577 -2.96846 0
M  V30 1729 H 169.194 -1.88137 -4.82519 0
M  V30 1730 H 165.871 0.604192 -4.13105 0
M  V30 1731 H 167.261 -2.96345 -6.03017 0
M  V30 1732 N 169.982 1.44106 -0.638065 0
M  V30 1733 C 171.393 1.85316 -0.226894 0
M  V30 1734 C 171.744 1.53399 1.22324 0
M  V30 1735 O 170.869 0.975463 1.93167 0
M  V30 1736 C 171.464 3.3637 -0.405013 0
M  V30 1737 C 170.023 3.76369 -0.0482902 0
M  V30 1738 C 169.17 2.67921 -0.715108 0
M  V30 1739 H 172.121 1.34474 -0.842764 0
M  V30 1740 H 172.142 3.7885 0.354 0
M  V30 1741 H 171.654 3.59569 -1.46053 0
M  V30 1742 H 169.755 3.58784 1.00522 0
M  V30 1743 H 169.868 4.76856 -0.463187 0
M  V30 1744 H 168.232 2.54259 -0.149753 0
M  V30 1745 H 169.015 2.93951 -1.77335 0
M  V30 1746 N 171.46 0.379036 1.52974 0
M  V30 1747 C 172.706 -0.199244 2.02422 0
M  V30 1748 C 173.061 -1.4532 1.26095 0
M  V30 1749 O 172.354 -1.88377 0.34996 0
M  V30 1750 C 172.548 -0.53096 3.53434 0
M  V30 1751 C 172.377 0.689298 4.44386 0
M  V30 1752 C 171.147 1.20546 4.9071 0
M  V30 1753 C 173.345 1.55856 4.90116 0
M  V30 1754 N 171.327 2.38434 5.65705 0
M  V30 1755 C 172.698 2.58396 5.63588 0
M  V30 1756 C 174.753 1.57986 4.7217 0
M  V30 1757 C 173.456 3.62939 6.21022 0
M  V30 1758 C 175.482 2.6143 5.30479 0
M  V30 1759 C 174.844 3.62693 6.03849 0
M  V30 1760 H 170.943 -0.0352671 0.781204 0
M  V30 1761 H 173.527 0.526614 1.87443 0
M  V30 1762 H 171.698 -1.22588 3.68547 0
M  V30 1763 H 173.43 -1.0955 3.89591 0
M  V30 1764 H 170.185 0.768022 4.67331 0
M  V30 1765 H 170.609 2.98055 6.07859 0
M  V30 1766 H 175.251 0.810475 4.14959 0
M  V30 1767 H 172.969 4.40751 6.77321 0
M  V30 1768 H 176.555 2.63949 5.18481 0
M  V30 1769 H 175.435 4.41424 6.48163 0
M  V30 1770 N 172.938 -1.57226 0.108567 0
M  V30 1771 C 173.87 -2.11809 -0.875752 0
M  V30 1772 C 174.883 -1.05839 -1.23701 0
M  V30 1773 O 176.072 -1.33245 -1.18778 0
M  V30 1774 C 173.172 -2.59411 -2.18081 0
M  V30 1775 C 172.345 -3.89364 -1.99284 0
M  V30 1776 C 171.404 -4.22672 -3.13424 0
M  V30 1777 O 170.43 -4.91668 -2.86795 0
M  V30 1778 N 171.632 -3.79154 -4.3957 0
M  V30 1779 H 174.397 -2.9689 -0.409477 0
M  V30 1780 H 171.958 -1.61721 -0.076158 0
M  V30 1781 H 173.95 -2.7873 -2.93414 0
M  V30 1782 H 172.52 -1.79268 -2.5609 0
M  V30 1783 H 171.74 -3.79059 -1.08203 0
M  V30 1784 H 173.028 -4.74358 -1.84017 0
M  V30 1785 H 172.426 -3.23486 -4.64083 0
M  V30 1786 H 170.983 -4.03602 -5.11809 0
M  V30 1787 N 174.416 0.165178 -1.56732 0
M  V30 1788 C 175.379 1.18822 -1.95995 0
M  V30 1789 C 176.379 1.3685 -0.84431 0
M  V30 1790 O 177.569 1.34152 -1.11126 0
M  V30 1791 C 174.701 2.5521 -2.26011 0
M  V30 1792 H 175.894 0.851825 -2.87548 0
M  V30 1793 H 173.447 0.407857 -1.50885 0
M  V30 1794 H 174.182 2.93852 -1.37191 0
M  V30 1795 H 173.967 2.43489 -3.07336 0
M  V30 1796 H 175.457 3.28927 -2.57288 0
M  V30 1797 N 175.894 1.51508 0.433938 0
M  V30 1798 C 176.857 1.72473 1.50949 0
M  V30 1799 C 177.857 0.594725 1.49398 0
M  V30 1800 O 179.047 0.862315 1.5136 0
M  V30 1801 C 176.179 1.78431 2.90474 0
M  V30 1802 H 177.372 2.68467 1.33662 0
M  V30 1803 H 174.925 1.41549 0.662836 0
M  V30 1804 H 175.66 0.842645 3.13161 0
M  V30 1805 H 175.445 2.60558 2.93005 0
M  V30 1806 H 176.935 1.96479 3.68491 0
M  V30 1807 N 177.372 -0.689602 1.41712 0
M  V30 1808 C 178.621 -1.44534 1.40686 0
M  V30 1809 C 178.934 -1.95588 0.0213352 0
M  V30 1810 O 180.14 -2.71271 -0.111534 0
M  V30 1811 C 178.596 -2.61387 2.47396 0
M  V30 1812 C 178.204 -2.17094 3.91885 0
M  V30 1813 C 179.948 -3.38986 2.55517 0
M  V30 1814 C 177.855 -3.3094 4.90135 0
M  V30 1815 H 176.785 -0.542925 0.52321 0
M  V30 1816 H 179.436 -0.748054 1.6756 0
M  V30 1817 H 177.818 -3.33412 2.13664 0
M  V30 1818 H 178.992 -1.52318 4.34897 0
M  V30 1819 H 177.307 -1.52473 3.8748 0
M  V30 1820 H 179.904 -4.23747 3.26102 0
M  V30 1821 H 180.247 -3.84578 1.59391 0
M  V30 1822 H 180.78 -2.74021 2.8837 0
M  V30 1823 H 177.519 -2.90355 5.87685 0
M  V30 1824 H 177.039 -3.94546 4.51767 0
M  V30 1825 H 178.718 -3.9663 5.11169 0
M  V30 1826 N 178.85 -1.27639 -0.924453 0
M  V30 1827 C 180.097 -1.14167 -1.67249 0
M  V30 1828 C 180.425 0.311863 -1.91984 0
M  V30 1829 O 179.68 1.24425 -1.51053 0
M  V30 1830 C 179.979 -1.87407 -3.04325 0
M  V30 1831 C 179.645 -3.37249 -2.99289 0
M  V30 1832 C 178.307 -3.7812 -2.97622 0
M  V30 1833 C 180.659 -4.32845 -2.90336 0
M  V30 1834 C 177.987 -5.12944 -2.8479 0
M  V30 1835 C 180.339 -5.6773 -2.79045 0
M  V30 1836 C 179.003 -6.07889 -2.7573 0
M  V30 1837 H 178.273 -0.417766 -0.612007 0
M  V30 1838 H 180.92 -1.58286 -1.07786 0
M  V30 1839 H 179.225 -1.35805 -3.67511 0
M  V30 1840 H 180.922 -1.74408 -3.61086 0
M  V30 1841 H 177.512 -3.04748 -3.01374 0
M  V30 1842 H 181.696 -4.02239 -2.90719 0
M  V30 1843 H 176.952 -5.432 -2.80612 0
M  V30 1844 H 181.126 -6.41472 -2.71083 0
M  V30 1845 H 178.753 -7.12314 -2.65544 0
M  V30 1846 N 180.328 1.1314 -1.09713 0
M  V30 1847 C 181.291 2.16831 -0.742751 0
M  V30 1848 C 182.291 1.59159 0.229129 0
M  V30 1849 O 183.481 1.74199 0.00693237 0
M  V30 1850 C 180.613 3.40756 -0.0989168 0
M  V30 1851 H 181.806 2.49695 -1.66109 0
M  V30 1852 H 179.359 1.2802 -0.896699 0
M  V30 1853 H 180.094 3.13485 0.830514 0
M  V30 1854 H 179.879 3.83888 -0.798265 0
M  V30 1855 H 181.369 4.17386 0.133524 0
M  V30 1856 N 181.806 0.884767 1.30421 0
M  V30 1857 C 182.753 0.349642 2.28136 0
M  V30 1858 C 183.723 -0.560061 1.56373 0
M  V30 1859 O 184.908 -0.488524 1.8444 0
M  V30 1860 C 182.048 -0.42999 3.42411 0
M  V30 1861 C 181.161 0.508907 4.28992 0
M  V30 1862 C 180.296 -0.286301 5.30428 0
M  V30 1863 C 179.335 0.648079 6.08659 0
M  V30 1864 N 178.472 -0.111792 7.02011 0
M  V30 1865 H 183.312 1.18807 2.73293 0
M  V30 1866 H 180.849 0.597231 1.3443 0
M  V30 1867 H 182.807 -0.897923 4.07423 0
M  V30 1868 H 181.437 -1.23299 2.98324 0
M  V30 1869 H 180.489 1.09533 3.64289 0
M  V30 1870 H 181.801 1.22475 4.8353 0
M  V30 1871 H 180.955 -0.816098 6.01186 0
M  V30 1872 H 179.694 -1.03536 4.76583 0
M  V30 1873 H 178.699 1.18951 5.36778 0
M  V30 1874 H 179.924 1.39623 6.64592 0
M  V30 1875 H 177.87 -0.843395 6.50556 0
M  V30 1876 H 177.787 0.544429 7.54037 0
M  V30 1877 H 179.055 -0.622339 7.77012 0
M  V30 1878 N 183.284 -1.43765 0.645699 0
M  V30 1879 C 184.234 -2.27884 -0.0726442 0
M  V30 1880 C 185.218 -1.39483 -0.802086 0
M  V30 1881 O 186.41 -1.63174 -0.685791 0
M  V30 1882 C 183.539 -3.27055 -1.04356 0
M  V30 1883 C 182.625 -4.22944 -0.312985 0
M  V30 1884 N 183.016 -5.01391 0.666386 0
M  V30 1885 C 181.314 -4.42528 -0.55546 0
M  V30 1886 C 182.015 -5.71217 1.09935 0
M  V30 1887 N 180.991 -5.41856 0.435137 0
M  V30 1888 H 184.793 -2.85949 0.678988 0
M  V30 1889 H 182.307 -1.55378 0.472368 0
M  V30 1890 H 184.304 -3.86089 -1.57292 0
M  V30 1891 H 182.964 -2.70551 -1.79534 0
M  V30 1892 H 183.975 -5.07252 1.04481 0
M  V30 1893 H 180.652 -3.97104 -1.28899 0
M  V30 1894 H 182.042 -6.44202 1.90929 0
M  V30 1895 N 184.763 -0.387143 -1.52771 0
M  V30 1896 C 186.179 -0.037007 -1.59557 0
M  V30 1897 C 186.379 1.44801 -1.40124 0
M  V30 1898 O 185.435 2.21227 -1.21716 0
M  V30 1899 C 186.748 -0.512256 -2.96305 0
M  V30 1900 C 188.296 -0.468328 -3.09476 0
M  V30 1901 C 188.771 -0.919731 -4.4867 0
M  V30 1902 N 190.262 -0.875656 -4.54848 0
M  V30 1903 C 190.997 -1.19637 -5.6078 0
M  V30 1904 N 190.493 -1.58745 -6.74368 0
M  V30 1905 N 192.286 -1.11776 -5.50874 0
M  V30 1906 H 184.437 -1.35395 -1.63652 0
M  V30 1907 H 186.7 -0.554818 -0.768688 0
M  V30 1908 H 186.406 -1.54935 -3.15734 0
M  V30 1909 H 186.28 0.089805 -3.77093 0
M  V30 1910 H 188.667 0.559671 -2.89744 0
M  V30 1911 H 188.748 -1.10616 -2.30646 0
M  V30 1912 H 188.392 -1.94595 -4.69143 0
M  V30 1913 H 188.322 -0.258927 -5.25963 0
M  V30 1914 H 190.813 -0.587843 -3.733 0
M  V30 1915 H 191.126 -1.81586 -7.51163 0
M  V30 1916 H 189.471 -1.6263 -6.75705 0
M  V30 1917 H 192.662 -0.811264 -4.61016 0
M  V30 1918 H 192.835 -1.37103 -6.3333 0
M  V30 1919 N 186.241 1.57166 -0.116904 0
M  V30 1920 C 187.657 1.5779 0.239693 0
M  V30 1921 C 187.857 1.1295 1.66867 0
M  V30 1922 O 186.913 0.81592 2.38954 0
M  V30 1923 C 188.226 3.00699 0.00828202 0
M  V30 1924 C 189.774 3.12912 0.0743438 0
M  V30 1925 C 190.249 4.57817 -0.129348 0
M  V30 1926 N 191.74 4.63139 -0.075247 0
M  V30 1927 C 192.475 5.73023 -0.207788 0
M  V30 1928 N 191.971 6.91665 -0.396382 0
M  V30 1929 N 193.764 5.61906 -0.14751 0
M  V30 1930 H 185.915 1.84615 -1.05029 0
M  V30 1931 H 188.178 0.85311 -0.41341 0
M  V30 1932 H 187.884 3.37784 -0.979531 0
M  V30 1933 H 187.758 3.69848 0.741077 0
M  V30 1934 H 190.145 2.75686 1.05268 0
M  V30 1935 H 190.226 2.4631 -0.690297 0
M  V30 1936 H 189.87 4.95742 -1.10465 0
M  V30 1937 H 189.8 5.22507 0.655253 0
M  V30 1938 H 192.291 3.7784 0.0670898 0
M  V30 1939 H 192.604 7.71255 -0.488437 0
M  V30 1940 H 190.949 6.93654 -0.432329 0
M  V30 1941 H 194.14 4.681 -0.00115036 0
M  V30 1942 H 194.313 6.47501 -0.254247 0
M  V30 1943 N 187.719 -0.156864 1.56817 0
M  V30 1944 C 188.944 -0.890331 1.87318 0
M  V30 1945 C 189.369 -1.74394 0.704855 0
M  V30 1946 O 188.727 -1.77972 -0.345786 0
M  V30 1947 C 188.775 -1.73102 3.16336 0
M  V30 1948 O 187.879 -2.83422 2.99576 0
M  V30 1949 H 187.22 -0.24857 0.615718 0
M  V30 1950 H 189.75 -0.150649 2.04045 0
M  V30 1951 H 189.76 -2.12803 3.48107 0
M  V30 1952 H 188.435 -1.10412 4.00976 0
M  V30 1953 H 187.012 -2.47199 2.7919 0
M  V30 1954 N 189.197 -1.51736 -0.425897 0
M  V30 1955 C 190.608 -1.5732 -1.00536 0
M  V30 1956 C 190.959 -0.403537 -1.92005 0
M  V30 1957 O 190.084 0.478256 -2.11049 0
M  V30 1958 C 190.679 -2.85119 -1.8301 0
M  V30 1959 C 189.238 -2.93236 -2.35987 0
M  V30 1960 C 188.385 -2.52098 -1.15508 0
M  V30 1961 H 191.336 -1.57348 -0.206739 0
M  V30 1962 H 191.357 -2.69526 -2.68581 0
M  V30 1963 H 190.869 -3.7023 -1.16411 0
M  V30 1964 H 188.97 -2.12581 -3.06007 0
M  V30 1965 H 189.083 -3.9713 -2.68001 0
M  V30 1966 H 187.447 -2.05558 -1.50393 0
M  V30 1967 H 188.23 -3.39565 -0.505014 0
M  V30 1968 N 190.675 0.682077 -1.42076 0
M  V30 1969 C 191.923 1.4393 -1.41876 0
M  V30 1970 C 192.244 1.94971 -0.0335599 0
M  V30 1971 O 191.514 1.72591 0.926773 0
M  V30 1972 H 190.094 0.534085 -0.522267 0
M  V30 1973 H 192.756 0.806427 -1.77434 0
M  V30 1974 H 191.852 2.29588 -2.11414 0
M  V30 1975 N 192.153 1.28127 0.917671 0
M  V30 1976 C 193.063 1.13556 2.05286 0
M  V30 1977 C 194.079 0.0630914 1.73886 0
M  V30 1978 O 195.255 0.271598 1.9956 0
M  V30 1979 C 192.32 0.794676 3.3747 0
M  V30 1980 C 191.381 1.94909 3.82504 0
M  V30 1981 C 190.614 1.62437 5.0838 0
M  V30 1982 O 190.837 0.536905 5.67867 0
M  V30 1983 O 189.771 2.46677 5.4903 0
M  V30 1984 H 193.597 2.08844 2.20495 0
M  V30 1985 H 191.182 1.07409 1.03845 0
M  V30 1986 H 193.064 0.618344 4.16839 0
M  V30 1987 H 191.739 -0.128581 3.23445 0
M  V30 1988 H 190.646 2.18055 3.03978 0
M  V30 1989 H 191.979 2.85291 4.01086 0
M  V30 1990 N 193.631 -1.12557 1.10312 0
M  V30 1991 C 195.047 -1.36036 0.834649 0
M  V30 1992 C 195.247 -1.93946 -0.546539 0
M  V30 1993 O 194.303 -2.16484 -1.29966 0
M  V30 1994 C 195.616 -2.30312 1.9333 0
M  V30 1995 C 197.164 -2.43906 1.9616 0
M  V30 1996 C 197.639 -3.41496 3.05195 0
M  V30 1997 N 199.13 -3.49053 3.04494 0
M  V30 1998 C 199.865 -4.24471 3.85502 0
M  V30 1999 N 199.361 -5.02966 4.76442 0
M  V30 2000 N 201.154 -4.19864 3.73725 0
M  V30 2001 H 193.305 -0.733246 1.99342 0
M  V30 2002 H 195.568 -0.385234 0.866198 0
M  V30 2003 H 195.274 -1.94933 2.92735 0
M  V30 2004 H 195.148 -3.30421 1.81939 0
M  V30 2005 H 197.535 -2.78567 0.973886 0
M  V30 2006 H 197.616 -1.4369 2.11629 0
M  V30 2007 H 197.26 -3.07565 4.04186 0
M  V30 2008 H 197.19 -4.41539 2.86968 0
M  V30 2009 H 199.681 -2.93053 2.38596 0
M  V30 2010 H 199.994 -5.57846 5.34815 0
M  V30 2011 H 198.339 -5.02167 4.80472 0
M  V30 2012 H 201.53 -3.57623 3.02032 0
M  V30 2013 H 201.703 -4.78386 4.37093 0
M  V30 2014 N 195.109 -0.891671 -1.2995 0
M  V30 2015 C 196.356 -0.513501 -1.95881 0
M  V30 2016 C 196.684 0.938655 -1.70351 0
M  V30 2017 O 195.939 1.67936 -1.00478 0
M  V30 2018 C 196.238 -0.742868 -3.49594 0
M  V30 2019 C 195.904 -2.17114 -3.95186 0
M  V30 2020 C 194.566 -2.56169 -4.07346 0
M  V30 2021 C 196.918 -3.10162 -4.18866 0
M  V30 2022 C 194.246 -3.87469 -4.4055 0
M  V30 2023 C 196.598 -4.41001 -4.53542 0
M  V30 2024 C 195.262 -4.79941 -4.63911 0
M  V30 2025 H 194.532 -0.187903 -0.71678 0
M  V30 2026 H 197.179 -1.1288 -1.54694 0
M  V30 2027 H 195.484 -0.044586 -3.91775 0
M  V30 2028 H 197.181 -0.429767 -3.9869 0
M  V30 2029 H 193.771 -1.85801 -3.86233 0
M  V30 2030 H 197.955 -2.81206 -4.08946 0
M  V30 2031 H 193.211 -4.17371 -4.46779 0
M  V30 2032 H 197.385 -5.13133 -4.70815 0
M  V30 2033 H 195.012 -5.81719 -4.89395 0
M  V30 2034 N 196.587 1.43421 -0.653314 0
M  V30 2035 C 197.517 2.33487 0.0246656 0
M  V30 2036 C 198.498 1.49475 0.811863 0
M  V30 2037 O 199.683 1.78139 0.773322 0
M  V30 2038 C 196.813 3.32841 0.99166 0
M  V30 2039 C 195.767 4.26842 0.314568 0
M  V30 2040 C 195.093 5.16236 1.39302 0
M  V30 2041 C 196.393 5.16243 -0.793095 0
M  V30 2042 H 198.087 2.90427 -0.727481 0
M  V30 2043 H 195.633 1.39649 -0.351287 0
M  V30 2044 H 197.586 3.94747 1.47487 0
M  V30 2045 H 196.31 2.74158 1.77497 0
M  V30 2046 H 194.969 3.663 -0.148199 0
M  V30 2047 H 194.617 4.53891 2.16776 0
M  V30 2048 H 194.317 5.79948 0.945223 0
M  V30 2049 H 195.841 5.81015 1.87759 0
M  V30 2050 H 197.255 5.71958 -0.392039 0
M  V30 2051 H 195.652 5.88676 -1.16536 0
M  V30 2052 H 196.722 4.55927 -1.65103 0
M  V30 2053 N 198.065 0.39524 1.52563 0
M  V30 2054 C 199.305 -0.184744 2.03563 0
M  V30 2055 C 199.669 -1.43548 1.27507 0
M  V30 2056 O 200.87 -2.093 1.68662 0
M  V30 2057 C 199.141 -0.440294 3.54678 0
M  V30 2058 S 200.7 -0.989712 4.27493 0
M  V30 2059 H 197.518 -0.0515075 0.709132 0
M  V30 2060 H 200.12 0.544957 1.87751 0
M  V30 2061 H 198.824 0.477005 4.07618 0
M  V30 2062 H 198.355 -1.19825 3.74707 0
M  V30 2063 H 200.37 -2.27155 4.41152 0
M  V30 2064 N 199.544 -1.57102 0.125237 0
M  V30 2065 C 200.792 -1.95021 -0.530198 0
M  V30 2066 C 201.113 -1.00982 -1.66816 0
M  V30 2067 O 200.383 -0.0672693 -1.95784 0
M  V30 2068 H 198.963 -0.720046 -0.198853 0
M  V30 2069 H 201.625 -1.93916 0.19564 0
M  V30 2070 H 200.721 -2.98211 -0.920681 0
M  V30 2071 N 201.022 0.148545 -1.56898 0
M  V30 2072 C 202.27 0.859717 -1.82902 0
M  V30 2073 C 202.591 1.81775 -0.70588 0
M  V30 2074 O 201.861 1.93994 0.272586 0
M  V30 2075 H 200.441 0.320469 -0.674766 0
M  V30 2076 H 203.103 0.142918 -1.94375 0
M  V30 2077 H 202.199 1.4229 -2.77777 0
M  V30 2078 N 202.5 1.5196 0.417844 0
M  V30 2079 C 203.749 1.6482 1.16264 0
M  V30 2080 C 204.062 0.379886 1.91876 0
M  V30 2081 O 205.268 0.388154 2.68711 0
M  V30 2082 C 203.724 2.91161 2.1155 0
M  V30 2083 C 203.332 4.25068 1.41495 0
M  V30 2084 C 205.076 3.13383 2.86341 0
M  V30 2085 C 202.983 5.42541 2.35379 0
M  V30 2086 H 201.913 0.613954 0.437694 0
M  V30 2087 H 204.564 1.78442 0.427871 0
M  V30 2088 H 202.946 2.71218 2.88543 0
M  V30 2089 H 204.12 4.55463 0.699263 0
M  V30 2090 H 202.435 4.0888 0.787792 0
M  V30 2091 H 205.032 3.98324 3.5671 0
M  V30 2092 H 205.375 2.27256 3.48798 0
M  V30 2093 H 205.908 3.33757 2.1645 0
M  V30 2094 H 202.647 6.30987 1.77582 0
M  V30 2095 H 202.167 5.16497 3.04945 0
M  V30 2096 H 203.846 5.75272 2.96093 0
M  V30 2097 N 203.978 -0.674533 1.42435 0
M  V30 2098 C 204.908 -1.80009 1.48724 0
M  V30 2099 C 205.889 -1.6659 0.343793 0
M  V30 2100 O 207.074 -1.86007 0.558137 0
M  V30 2101 C 204.204 -3.18306 1.38919 0
M  V30 2102 C 203.158 -3.46461 2.51294 0
M  V30 2103 C 202.484 -4.84335 2.26547 0
M  V30 2104 C 203.784 -3.43328 3.93603 0
M  V30 2105 H 205.478 -1.75004 2.42928 0
M  V30 2106 H 203.024 -0.840533 1.16923 0
M  V30 2107 H 204.977 -3.9678 1.41927 0
M  V30 2108 H 203.701 -3.2399 0.412094 0
M  V30 2109 H 202.36 -2.70348 2.47604 0
M  V30 2110 H 202.008 -4.86669 1.2713 0
M  V30 2111 H 201.708 -5.04136 3.01861 0
M  V30 2112 H 203.232 -5.65094 2.31304 0
M  V30 2113 H 204.646 -4.11772 3.98894 0
M  V30 2114 H 203.043 -3.74664 4.68771 0
M  V30 2115 H 204.113 -2.41897 4.20255 0
M  V30 2116 N 205.456 -1.28612 -0.910864 0
M  V30 2117 C 206.705 -1.15311 -1.65488 0
M  V30 2118 C 207.018 0.296999 -1.93332 0
M  V30 2119 O 208.224 0.551168 -2.65847 0
M  V30 2120 C 206.68 -2.01599 -2.98137 0
M  V30 2121 C 206.288 -3.51367 -2.7793 0
M  V30 2122 C 208.032 -1.96993 -3.76024 0
M  V30 2123 C 205.939 -4.29797 -4.06237 0
M  V30 2124 H 204.869 -0.42796 -0.620779 0
M  V30 2125 H 207.52 -1.53166 -1.01057 0
M  V30 2126 H 205.902 -1.56603 -3.63719 0
M  V30 2127 H 207.076 -4.0434 -2.21011 0
M  V30 2128 H 205.391 -3.57529 -2.13452 0
M  V30 2129 H 207.988 -2.52856 -4.71135 0
M  V30 2130 H 208.331 -0.94733 -4.05378 0
M  V30 2131 H 208.864 -2.39973 -3.17266 0
M  V30 2132 H 205.603 -5.32648 -3.82055 0
M  V30 2133 H 205.123 -3.81596 -4.62757 0
M  V30 2134 H 206.802 -4.39869 -4.74473 0
M  V30 2135 N 206.934 1.1197 -1.10907 0
M  V30 2136 C 208.159 1.87942 -0.877064 0
M  V30 2137 C 208.584 1.79341 0.567314 0
M  V30 2138 O 207.942 1.15184 1.40009 0
M  V30 2139 C 207.99 3.34926 -1.33629 0
M  V30 2140 O 207.094 4.09303 -0.504447 0
M  V30 2141 H 206.435 0.583785 -0.316371 0
M  V30 2142 H 208.965 1.4157 -1.47712 0
M  V30 2143 H 208.975 3.8577 -1.32837 0
M  V30 2144 H 207.65 3.40504 -2.3881 0
M  V30 2145 H 206.227 3.68393 -0.577993 0
M  V30 2146 N 208.412 0.89855 1.29475 0
M  V30 2147 C 209.637 0.538561 2.00285 0
M  V30 2148 C 210.062 -0.869135 1.66816 0
M  V30 2149 O 209.42 -1.57831 0.892145 0
M  V30 2150 C 209.468 0.736475 3.52999 0
M  V30 2151 O 208.572 -0.211537 4.11857 0
M  V30 2152 H 207.913 0.210563 0.62973 0
M  V30 2153 H 210.443 1.20982 1.64998 0
M  V30 2154 H 210.453 0.640685 4.02938 0
M  V30 2155 H 209.128 1.76276 3.76696 0
M  V30 2156 H 207.705 -0.0682991 3.72837 0
M  V30 2157 N 209.89 -1.43072 0.660911 0
M  V30 2158 C 211.13 -2.03596 0.181146 0
M  V30 2159 C 211.494 -1.51057 -1.18515 0
M  V30 2160 O 212.695 -2.03275 -1.75877 0
M  V30 2161 C 210.966 -3.56845 0.19911 0
M  V30 2162 S 212.525 -4.38289 -0.211684 0
M  V30 2163 H 209.343 -0.706954 0.0757479 0
M  V30 2164 H 211.945 -1.75027 0.870965 0
M  V30 2165 H 210.649 -3.92583 1.1961 0
M  V30 2166 H 210.18 -3.90067 -0.510996 0
M  V30 2167 H 212.195 -4.74583 -1.44863 0
M  V30 2168 N 211.368 -0.403325 -1.52352 0
M  V30 2169 C 212.614 0.167015 -2.02713 0
M  V30 2170 C 212.969 1.43296 -1.28391 0
M  V30 2171 O 212.262 1.87796 -0.379885 0
M  V30 2172 C 212.456 0.474665 -3.54234 0
M  V30 2173 C 212.285 -0.759909 -4.43233 0
M  V30 2174 C 211.055 -1.28338 -4.88731 0
M  V30 2175 C 213.253 -1.63634 -4.87574 0
M  V30 2176 N 211.235 -2.47404 -5.6184 0
M  V30 2177 C 212.606 -2.67329 -5.59406 0
M  V30 2178 C 214.661 -1.65478 -4.69597 0
M  V30 2179 C 213.364 -3.72773 -6.15169 0
M  V30 2180 C 215.39 -2.69837 -5.26253 0
M  V30 2181 C 214.752 -3.72253 -5.98002 0
M  V30 2182 H 210.851 0.0228343 -0.781667 0
M  V30 2183 H 213.435 -0.556368 -1.86581 0
M  V30 2184 H 211.606 1.16709 -3.7045 0
M  V30 2185 H 213.338 1.03338 -3.91284 0
M  V30 2186 H 210.093 -0.842273 -4.6605 0
M  V30 2187 H 210.517 -3.07688 -6.0304 0
M  V30 2188 H 215.159 -0.876389 -4.13617 0
M  V30 2189 H 212.877 -4.51471 -6.70223 0
M  V30 2190 H 216.463 -2.72164 -5.14216 0
M  V30 2191 H 215.343 -4.51679 -6.41058 0
M  V30 2192 N 212.846 1.57033 -0.133567 0
M  V30 2193 C 214.095 1.94861 0.520768 0
M  V30 2194 C 214.408 1.02012 1.66892 0
M  V30 2195 O 215.614 1.29365 2.38699 0
M  V30 2196 C 214.07 3.46362 0.977809 0
M  V30 2197 C 213.678 4.47773 -0.142674 0
M  V30 2198 C 215.422 3.93083 1.60269 0
M  V30 2199 C 213.329 5.90468 0.331883 0
M  V30 2200 H 212.259 0.727453 0.198315 0
M  V30 2201 H 214.91 1.82227 -0.215759 0
M  V30 2202 H 213.292 3.54282 1.7692 0
M  V30 2203 H 214.466 4.51536 -0.919317 0
M  V30 2204 H 212.781 4.10891 -0.675124 0
M  V30 2205 H 215.378 4.97121 1.96914 0
M  V30 2206 H 215.721 3.33876 2.48662 0
M  V30 2207 H 216.254 3.88025 0.876453 0
M  V30 2208 H 212.993 6.53463 -0.516341 0
M  V30 2209 H 212.513 5.90094 1.07469 0
M  V30 2210 H 214.192 6.42179 0.788332 0
M  V30 2211 N 214.325 -0.140222 1.56975 0
M  V30 2212 C 215.255 -1.17456 2.01808 0
M  V30 2213 C 216.236 -1.44415 0.898794 0
M  V30 2214 O 217.421 -1.5522 1.16707 0
M  V30 2215 C 214.551 -2.50607 2.40444 0
M  V30 2216 C 213.505 -2.38155 3.55621 0
M  V30 2217 C 212.831 -3.76078 3.80091 0
M  V30 2218 C 214.131 -1.85991 4.88062 0
M  V30 2219 H 215.825 -0.801743 2.88466 0
M  V30 2220 H 213.371 -0.38422 1.38779 0
M  V30 2221 H 215.324 -3.23197 2.7041 0
M  V30 2222 H 214.048 -2.89737 1.50732 0
M  V30 2223 H 212.707 -1.68016 3.25832 0
M  V30 2224 H 212.355 -4.12656 2.87618 0
M  V30 2225 H 212.055 -3.68606 4.57606 0
M  V30 2226 H 213.579 -4.50206 4.12488 0
M  V30 2227 H 214.993 -2.4838 5.16701 0
M  V30 2228 H 213.39 -1.89393 5.6943 0
M  V30 2229 H 214.46 -0.816023 4.77984 0
M  V30 2230 N 215.803 -1.52179 -0.40978 0
M  V30 2231 C 217.028 -1.70347 -1.18308 0
M  V30 2232 C 217.453 -0.411887 -1.83535 0
M  V30 2233 O 216.811 0.630587 -1.6998 0
M  V30 2234 C 216.859 -2.83977 -2.22238 0
M  V30 2235 O 215.963 -2.495 -3.28365 0
M  V30 2236 H 215.304 -0.567103 -0.345384 0
M  V30 2237 H 217.834 -1.98879 -0.480445 0
M  V30 2238 H 217.844 -3.0887 -2.66577 0
M  V30 2239 H 216.519 -3.77685 -1.74146 0
M  V30 2240 H 215.096 -2.35277 -2.89308 0
M  V30 2241 N 217.281 0.66697 -1.42791 0
M  V30 2242 C 218.244 1.76211 -1.46568 0
M  V30 2243 C 219.244 1.56896 -0.352196 0
M  V30 2244 O 220.434 1.63044 -0.613364 0
M  V30 2245 C 217.566 3.14935 -1.30494 0
M  V30 2246 H 218.759 1.74247 -2.44086 0
M  V30 2247 H 216.312 0.877342 -1.29354 0
M  V30 2248 H 217.047 3.2252 -0.339301 0
M  V30 2249 H 216.832 3.30359 -2.11199 0
M  V30 2250 H 218.322 3.94821 -1.36038 0
M  V30 2251 N 218.759 1.29093 0.90403 0
M  V30 2252 C 219.722 1.1386 1.98919 0
M  V30 2253 C 220.722 0.0753457 1.60623 0
M  V30 2254 O 221.912 0.321931 1.71199 0
M  V30 2255 C 219.044 0.740198 3.32767 0
M  V30 2256 H 220.237 2.10246 2.13861 0
M  V30 2257 H 217.79 1.12218 1.08797 0
M  V30 2258 H 218.525 -0.223997 3.23525 0
M  V30 2259 H 218.31 1.50838 3.61926 0
M  V30 2260 H 219.8 0.656546 4.12407 0
M  V30 2261 N 220.237 -1.11381 1.11499 0
M  V30 2262 C 221.187 -2.15555 0.74298 0
M  V30 2263 C 222.171 -1.58894 -0.253276 0
M  V30 2264 O 223.363 -1.76897 -0.0602918 0
M  V30 2265 C 220.492 -3.42782 0.188481 0
M  V30 2266 C 219.578 -4.064 1.21244 0
M  V30 2267 N 219.969 -4.44864 2.40685 0
M  V30 2268 C 218.267 -4.3333 1.05552 0
M  V30 2269 C 218.968 -4.94715 3.05994 0
M  V30 2270 N 217.944 -4.90909 2.33472 0
M  V30 2271 H 221.746 -2.43074 1.65203 0
M  V30 2272 H 219.26 -1.28401 0.994329 0
M  V30 2273 H 221.257 -4.16789 -0.0961693 0
M  V30 2274 H 219.917 -3.16727 -0.715149 0
M  V30 2275 H 220.928 -4.36876 2.78136 0
M  V30 2276 H 217.605 -4.1698 0.208372 0
M  V30 2277 H 218.995 -5.34103 4.07656 0
M  V30 2278 N 221.715 -0.905404 -1.28997 0
M  V30 2279 C 222.955 -0.541232 -1.97104 0
M  V30 2280 C 223.319 0.896841 -1.69767 0
M  V30 2281 O 224.52 1.36817 -2.31375 0
M  V30 2282 C 222.791 -0.832134 -3.47578 0
M  V30 2283 S 224.35 -0.573127 -4.35041 0
M  V30 2284 H 221.168 -0.200576 -0.682122 0
M  V30 2285 H 223.77 -1.16906 -1.56694 0
M  V30 2286 H 222.474 -1.87687 -3.64968 0
M  V30 2287 H 222.005 -0.192636 -3.92928 0
M  V30 2288 H 224.02 0.579297 -4.92807 0
M  V30 2289 N 223.193 1.4272 -0.668489 0
M  V30 2290 C 224.44 2.01624 -0.18814 0
M  V30 2291 C 224.768 1.5282 1.20317 0
M  V30 2292 O 224.023 0.718323 1.8204 0
M  V30 2293 C 224.322 3.57021 -0.164499 0
M  V30 2294 C 223.988 4.25232 -1.49962 0
M  V30 2295 C 222.65 4.4358 -1.8652 0
M  V30 2296 C 225.002 4.63727 -2.37921 0
M  V30 2297 C 222.33 4.97694 -3.10674 0
M  V30 2298 C 224.682 5.19218 -3.6138 0
M  V30 2299 C 223.346 5.3578 -3.98115 0
M  V30 2300 H 222.616 0.737795 -0.0688454 0
M  V30 2301 H 225.263 1.70991 -0.862225 0
M  V30 2302 H 223.568 3.87285 0.593079 0
M  V30 2303 H 225.265 4.00372 0.224271 0
M  V30 2304 H 221.855 4.11306 -1.20522 0
M  V30 2305 H 226.039 4.4923 -2.10964 0
M  V30 2306 H 221.295 5.08702 -3.39164 0
M  V30 2307 H 225.469 5.4799 -4.29743 0
M  V30 2308 H 223.096 5.77475 -4.94395 0
M  V30 2309 N 224.671 0.411399 1.52136 0
M  V30 2310 C 225.603 -0.448386 2.24771 0
M  V30 2311 C 226.616 -1.00828 1.27818 0
M  V30 2312 O 227.805 -0.906841 1.53749 0
M  V30 2313 C 224.905 -1.63636 2.96777 0
M  V30 2314 C 224.078 -1.19995 4.20618 0
M  V30 2315 C 223.137 -2.25509 4.75428 0
M  V30 2316 O 222.163 -1.86007 5.3795 0
M  V30 2317 N 223.365 -3.577 4.57199 0
M  V30 2318 H 226.13 0.174025 2.99194 0
M  V30 2319 H 223.691 0.238897 1.60128 0
M  V30 2320 H 225.683 -2.33793 3.30338 0
M  V30 2321 H 224.253 -2.16465 2.25526 0
M  V30 2322 H 223.473 -0.326421 3.92846 0
M  V30 2323 H 224.761 -0.885365 5.01038 0
M  V30 2324 H 224.159 -3.92543 4.07341 0
M  V30 2325 H 222.716 -4.23827 4.95191 0
M  V30 2326 N 226.149 -1.5696 0.141893 0
M  V30 2327 C 227.059 -2.20066 -0.812905 0
M  V30 2328 C 228.075 -1.18344 -1.27557 0
M  V30 2329 O 229.251 -1.50902 -1.33381 0
M  V30 2330 C 226.316 -2.80583 -2.03652 0
M  V30 2331 C 225.377 -3.97414 -1.62359 0
M  V30 2332 C 224.61 -4.55036 -2.78887 0
M  V30 2333 O 224.833 -4.11538 -3.94959 0
M  V30 2334 O 223.767 -5.45376 -2.54653 0
M  V30 2335 H 227.593 -3.02157 -0.305746 0
M  V30 2336 H 225.178 -1.49159 -0.0848799 0
M  V30 2337 H 227.06 -3.19067 -2.75272 0
M  V30 2338 H 225.735 -2.01508 -2.5333 0
M  V30 2339 H 224.642 -3.63656 -0.877775 0
M  V30 2340 H 225.975 -4.77994 -1.17401 0
M  V30 2341 N 227.627 0.131896 -1.57047 0
M  V30 2342 C 229.043 0.485031 -1.52051 0
M  V30 2343 C 229.243 1.82563 -0.85281 0
M  V30 2344 O 228.299 2.48817 -0.429694 0
M  V30 2345 C 229.612 0.481409 -2.96821 0
M  V30 2346 C 231.16 0.565868 -3.07842 0
M  V30 2347 C 231.635 0.592762 -4.54148 0
M  V30 2348 N 233.126 0.654564 -4.58552 0
M  V30 2349 C 233.861 0.696608 -5.69153 0
M  V30 2350 N 233.357 0.697078 -6.89284 0
M  V30 2351 N 235.15 0.738639 -5.57226 0
M  V30 2352 H 227.301 -0.746664 -1.98843 0
M  V30 2353 H 229.564 -0.273999 -0.90754 0
M  V30 2354 H 229.27 -0.435731 -3.4899 0
M  V30 2355 H 229.144 1.3139 -3.53577 0
M  V30 2356 H 231.531 1.47343 -2.55684 0
M  V30 2357 H 231.612 -0.29406 -2.54104 0
M  V30 2358 H 231.256 -0.310701 -5.06949 0
M  V30 2359 H 231.186 1.46939 -5.05684 0
M  V30 2360 H 233.677 0.660887 -3.72076 0
M  V30 2361 H 233.99 0.731426 -7.69331 0
M  V30 2362 H 232.335 0.66471 -6.91814 0
M  V30 2363 H 235.526 0.735545 -4.62285 0
M  V30 2364 H 235.699 0.767938 -6.43434 0
M  V30 2365 N 229.106 1.52395 0.401703 0
M  V30 2366 C 230.353 1.66817 1.14796 0
M  V30 2367 C 230.681 0.401772 1.90305 0
M  V30 2368 O 229.936 -0.615487 1.85769 0
M  V30 2369 C 230.235 2.84578 2.16217 0
M  V30 2370 C 229.901 4.22513 1.5746 0
M  V30 2371 C 228.563 4.60029 1.41161 0
M  V30 2372 C 230.915 5.0844 1.14622 0
M  V30 2373 C 228.243 5.81144 0.80552 0
M  V30 2374 C 230.595 6.30167 0.55428 0
M  V30 2375 C 229.259 6.66426 0.378482 0
M  V30 2376 H 228.529 0.610428 0.420069 0
M  V30 2377 H 231.176 1.86512 0.434212 0
M  V30 2378 H 229.481 2.59248 2.93764 0
M  V30 2379 H 231.178 2.92933 2.73845 0
M  V30 2380 H 227.768 3.92953 1.71132 0
M  V30 2381 H 231.952 4.80034 1.26021 0
M  V30 2382 H 227.208 6.07855 0.657399 0
M  V30 2383 H 231.382 6.96071 0.213983 0
M  V30 2384 H 229.009 7.60143 -0.0932606 0
M  V30 2385 N 230.584 -0.659388 1.43143 0
M  V30 2386 C 231.995 -1.24041 1.39537 0
M  V30 2387 C 232.346 -1.95963 0.0963364 0
M  V30 2388 O 231.471 -2.00892 -0.804438 0
M  V30 2389 C 232.066 -2.25601 2.52764 0
M  V30 2390 C 230.625 -2.79195 2.52443 0
M  V30 2391 C 229.772 -1.53743 2.30778 0
M  V30 2392 H 232.723 -0.451792 1.52133 0
M  V30 2393 H 232.744 -3.07651 2.23899 0
M  V30 2394 H 232.256 -1.73226 3.47296 0
M  V30 2395 H 230.357 -3.35649 1.61773 0
M  V30 2396 H 230.47 -3.2716 3.50004 0
M  V30 2397 H 228.834 -1.80869 1.79328 0
M  V30 2398 H 229.617 -1.03312 3.27386 0
M  V30 2399 N 232.062 -1.29571 -0.897171 0
M  V30 2400 C 233.473 -1.15964 -1.46319 0
M  V30 2401 C 233.824 0.244267 -1.94674 0
M  V30 2402 O 232.949 1.13998 -1.83939 0
M  V30 2403 C 233.544 -2.09906 -2.65942 0
M  V30 2404 C 232.103 -2.00314 -3.18671 0
M  V30 2405 C 231.25 -2.00687 -1.91363 0
M  V30 2406 H 234.201 -1.42019 -0.708268 0
M  V30 2407 H 234.222 -1.67276 -3.41759 0
M  V30 2408 H 233.734 -3.12075 -2.30718 0
M  V30 2409 H 231.835 -1.01242 -3.58582 0
M  V30 2410 H 231.948 -2.88102 -3.82798 0
M  V30 2411 H 230.312 -1.45319 -2.09175 0
M  V30 2412 H 231.095 -3.04566 -1.58413 0
M  V30 2413 N 233.54 1.10788 -1.12088 0
M  V30 2414 C 234.49 2.15158 -0.754401 0
M  V30 2415 C 235.474 1.59026 0.244846 0
M  V30 2416 O 236.666 1.76927 0.0509097 0
M  V30 2417 C 233.795 3.42677 -0.206657 0
M  V30 2418 C 232.881 4.05751 -1.23398 0
M  V30 2419 N 233.272 4.43582 -2.43041 0
M  V30 2420 C 231.57 4.32764 -1.07848 0
M  V30 2421 C 232.271 4.93085 -3.08613 0
M  V30 2422 N 231.247 4.89664 -2.36072 0
M  V30 2423 H 235.049 2.42195 -1.6649 0
M  V30 2424 H 232.563 1.27872 -1.00112 0
M  V30 2425 H 234.56 4.16834 0.0740646 0
M  V30 2426 H 233.22 3.17101 0.698342 0
M  V30 2427 H 234.231 4.35395 -2.80449 0
M  V30 2428 H 230.908 4.16863 -0.230483 0
M  V30 2429 H 232.298 5.31933 -4.10483 0
M  V30 2430 N 235.018 0.912232 1.28515 0
M  V30 2431 C 235.968 0.370649 2.24967 0
M  V30 2432 C 236.952 -0.516375 1.52389 0
M  V30 2433 O 238.144 -0.356345 1.73376 0
M  V30 2434 C 235.273 -0.389526 3.41083 0
M  V30 2435 C 234.359 0.51313 4.20984 0
M  V30 2436 N 234.75 1.62604 4.78951 0
M  V30 2437 C 233.048 0.313235 4.44899 0
M  V30 2438 C 233.749 2.18619 5.39055 0
M  V30 2439 N 232.725 1.47765 5.23132 0
M  V30 2440 H 236.527 1.22061 2.67354 0
M  V30 2441 H 234.041 0.764712 1.43269 0
M  V30 2442 H 236.038 -0.794353 4.09262 0
M  V30 2443 H 234.698 -1.2366 3.0023 0
M  V30 2444 H 235.709 2.00864 4.77362 0
M  V30 2445 H 232.386 -0.494452 4.14562 0
M  V30 2446 H 233.776 3.12228 5.94948 0
M  V30 2447 N 236.496 -1.42363 0.676048 0
M  V30 2448 C 237.426 -2.33497 0.0124832 0
M  V30 2449 C 238.407 -1.50748 -0.787981 0
M  V30 2450 O 239.592 -1.79346 -0.744884 0
M  V30 2451 C 236.722 -3.34377 -0.938582 0
M  V30 2452 C 235.676 -4.27289 -0.246622 0
M  V30 2453 C 235.002 -5.18386 -1.31071 0
M  V30 2454 C 236.302 -5.14916 0.875125 0
M  V30 2455 H 237.996 -2.89233 0.773593 0
M  V30 2456 H 235.542 -1.39073 0.37346 0
M  V30 2457 H 237.495 -3.97044 -1.41188 0
M  V30 2458 H 236.219 -2.76947 -1.73113 0
M  V30 2459 H 234.878 -3.66018 0.206456 0
M  V30 2460 H 234.526 -4.57282 -2.09528 0
M  V30 2461 H 234.226 -5.81378 -0.852839 0
M  V30 2462 H 235.75 -5.83929 -1.78492 0
M  V30 2463 H 237.164 -5.71262 0.482983 0
M  V30 2464 H 235.561 -5.86747 1.25887 0
M  V30 2465 H 236.631 -4.53242 1.72335 0
M  V30 2466 N 237.974 -0.419461 -1.51915 0
M  V30 2467 C 239.202 0.152136 -2.0634 0
M  V30 2468 C 239.617 1.37988 -1.28859 0
M  V30 2469 O 238.974 1.79243 -0.343232 0
M  V30 2470 C 239.025 0.492266 -3.58133 0
M  V30 2471 O 238.746 -0.686736 -4.32684 0
M  V30 2472 C 240.247 1.11648 -4.2901 0
M  V30 2473 H 237.467 0.0158325 -0.670813 0
M  V30 2474 H 240.011 -0.593394 -1.95702 0
M  V30 2475 H 238.166 1.18769 -3.68745 0
M  V30 2476 H 238.58 -0.400341 -5.2297 0
M  V30 2477 H 240.054 1.3046 -5.36362 0
M  V30 2478 H 240.531 2.09251 -3.86148 0
M  V30 2479 H 241.137 0.460958 -4.22795 0
M  V30 2480 N 239.452 1.56882 -0.150215 0
M  V30 2481 C 240.698 1.96518 0.500834 0
M  V30 2482 C 241.031 1.03527 1.64304 0
M  V30 2483 O 240.306 0.0782751 1.94342 0
M  V30 2484 C 240.589 3.45822 1.00395 0
M  V30 2485 C 240.442 4.49591 -0.136983 0
M  V30 2486 C 241.761 3.97704 1.88467 0
M  V30 2487 H 238.88 0.714535 0.18058 0
M  V30 2488 H 241.522 1.88577 -0.232091 0
M  V30 2489 H 239.672 3.5272 1.62851 0
M  V30 2490 H 241.344 4.5477 -0.77343 0
M  V30 2491 H 239.587 4.26441 -0.795652 0
M  V30 2492 H 240.258 5.51402 0.256815 0
M  V30 2493 H 242.734 3.93304 1.35834 0
M  V30 2494 H 241.61 5.0263 2.20578 0
M  V30 2495 H 241.871 3.40252 2.82279 0
M  V30 2496 N 240.93 -0.123565 1.57115 0
M  V30 2497 C 242.179 -0.830704 1.83799 0
M  V30 2498 C 242.492 -1.81259 0.735158 0
M  V30 2499 O 243.698 -2.56558 0.888278 0
M  V30 2500 C 242.154 -1.52802 3.25852 0
M  V30 2501 C 241.762 -0.587356 4.44133 0
M  V30 2502 C 243.506 -2.22056 3.61789 0
M  V30 2503 C 241.413 -1.28764 5.77212 0
M  V30 2504 H 240.343 -0.313967 0.685522 0
M  V30 2505 H 242.994 -0.0834359 1.8331 0
M  V30 2506 H 241.376 -2.32175 3.20797 0
M  V30 2507 H 242.55 0.172829 4.60476 0
M  V30 2508 H 240.865 -0.00201892 4.164 0
M  V30 2509 H 243.462 -2.75131 4.58483 0
M  V30 2510 H 243.805 -2.99644 2.88997 0
M  V30 2511 H 244.338 -1.49576 3.68608 0
M  V30 2512 H 241.077 -0.55314 6.53162 0
M  V30 2513 H 240.597 -2.01995 5.64764 0
M  V30 2514 H 242.276 -1.8221 6.20813 0
M  V30 2515 N 242.408 -1.52605 -0.393616 0
M  V30 2516 C 243.338 -1.80022 -1.48709 0
M  V30 2517 C 244.319 -0.651995 -1.57108 0
M  V30 2518 O 245.504 -0.89913 -1.72132 0
M  V30 2519 C 242.634 -1.96492 -2.86371 0
M  V30 2520 C 241.588 -3.12161 -2.92813 0
M  V30 2521 C 240.914 -3.13877 -4.3288 0
M  V30 2522 C 242.214 -4.51322 -2.6288 0
M  V30 2523 H 243.908 -2.71589 -1.26015 0
M  V30 2524 H 241.454 -1.30684 -0.604778 0
M  V30 2525 H 243.407 -2.14255 -3.62867 0
M  V30 2526 H 242.131 -1.01611 -3.10391 0
M  V30 2527 H 240.79 -2.94173 -2.18764 0
M  V30 2528 H 240.438 -2.16687 -4.53933 0
M  V30 2529 H 240.138 -3.91576 -4.38112 0
M  V30 2530 H 241.662 -3.33789 -5.1129 0
M  V30 2531 H 243.076 -4.69435 -3.29096 0
M  V30 2532 H 241.473 -5.31053 -2.79468 0
M  V30 2533 H 242.543 -4.58353 -1.58242 0
M  V30 2534 N 243.887 0.651787 -1.4349 0
M  V30 2535 C 245.135 1.40888 -1.44897 0
M  V30 2536 C 245.456 1.94856 -0.0749086 0
M  V30 2537 O 244.726 1.74518 0.889956 0
M  V30 2538 H 243.306 0.522887 -0.533478 0
M  V30 2539 H 245.968 0.768609 -1.79104 0
M  V30 2540 H 245.064 2.25052 -2.16236 0
M  V30 2541 N 245.365 1.30045 0.890287 0
M  V30 2542 C 246.781 1.08261 1.17268 0
M  V30 2543 C 246.981 -0.160063 2.00863 0
M  V30 2544 O 246.037 -0.855181 2.37577 0
M  V30 2545 C 247.35 2.34323 1.8845 0
M  V30 2546 C 248.898 2.39735 2.01237 0
M  V30 2547 C 249.373 3.65625 2.7583 0
M  V30 2548 N 250.864 3.66402 2.83379 0
M  V30 2549 C 251.599 4.60498 3.41657 0
M  V30 2550 N 251.095 5.64933 4.01026 0
M  V30 2551 N 252.888 4.48051 3.39421 0
M  V30 2552 H 245.039 2.09777 0.332762 0
M  V30 2553 H 247.302 0.92446 0.209948 0
M  V30 2554 H 247.008 3.2498 1.34465 0
M  V30 2555 H 246.882 2.4256 2.88867 0
M  V30 2556 H 249.269 1.4956 2.54393 0
M  V30 2557 H 249.35 2.35476 0.999232 0
M  V30 2558 H 248.994 4.56156 2.23347 0
M  V30 2559 H 248.924 3.67144 3.77509 0
M  V30 2560 H 251.415 2.90896 2.41222 0
M  V30 2561 H 251.728 6.32841 4.43545 0
M  V30 2562 H 250.073 5.68732 3.99461 0
M  V30 2563 H 253.264 3.65649 2.92264 0
M  V30 2564 H 253.437 5.21565 3.84544 0
M  V30 2565 N 246.843 -1.10192 1.12674 0
M  V30 2566 C 248.071 -1.85983 0.906527 0
M  V30 2567 C 248.486 -1.80783 -0.544333 0
M  V30 2568 O 247.843 -1.19834 -1.37645 0
M  V30 2569 C 247.894 -3.34281 1.37618 0
M  V30 2570 O 247.615 -3.39401 2.77017 0
M  V30 2571 C 249.116 -4.26938 1.19325 0
M  V30 2572 H 246.336 -0.587716 0.323775 0
M  V30 2573 H 248.88 -1.39284 1.49734 0
M  V30 2574 H 247.035 -3.78436 0.828539 0
M  V30 2575 H 247.449 -4.31838 2.97684 0
M  V30 2576 H 248.923 -5.29181 1.57071 0
M  V30 2577 H 249.4 -4.38995 0.134097 0
M  V30 2578 H 250.006 -3.8859 1.72852 0
M  V30 2579 N 248.321 -0.919034 -1.28029 0
M  V30 2580 C 249.551 -0.570143 -1.98577 0
M  V30 2581 C 249.959 0.854172 -1.68821 0
M  V30 2582 O 249.302 1.57807 -0.940351 0
M  V30 2583 C 249.364 -0.705734 -3.52505 0
M  V30 2584 C 249.028 -2.10057 -4.05863 0
M  V30 2585 C 250.025 -3.07385 -4.19298 0
M  V30 2586 C 247.71 -2.41517 -4.40426 0
M  V30 2587 C 249.704 -4.34287 -4.66555 0
M  V30 2588 C 247.391 -3.68657 -4.87376 0
M  V30 2589 C 248.389 -4.64856 -5.00398 0
M  V30 2590 O 248.077 -5.89735 -5.46322 0
M  V30 2591 H 247.809 -0.215592 -0.6407 0
M  V30 2592 H 250.363 -1.23583 -1.64062 0
M  V30 2593 H 248.593 0.0170414 -3.86696 0
M  V30 2594 H 250.282 -0.363172 -4.04272 0
M  V30 2595 H 251.048 -2.84398 -3.92865 0
M  V30 2596 H 246.927 -1.67389 -4.29537 0
M  V30 2597 H 250.471 -5.09377 -4.76635 0
M  V30 2598 H 246.368 -3.91466 -5.13249 0
M  V30 2599 H 247.136 -5.92599 -5.64596 0
M  V30 2600 N 249.799 1.42003 -0.683588 0
M  V30 2601 C 251.215 1.55625 -0.353976 0
M  V30 2602 C 251.415 1.66151 1.14 0
M  V30 2603 O 250.471 1.63329 1.92561 0
M  V30 2604 C 251.784 2.80171 -1.092 0
M  V30 2605 C 253.332 2.93954 -1.07518 0
M  V30 2606 C 253.807 4.21372 -1.79471 0
M  V30 2607 N 255.298 4.28303 -1.76381 0
M  V30 2608 C 256.033 5.25729 -2.28904 0
M  V30 2609 N 255.529 6.29254 -2.89846 0
M  V30 2610 N 257.322 5.17586 -2.19228 0
M  V30 2611 H 249.473 1.33415 -1.6527 0
M  V30 2612 H 251.736 0.64282 -0.696769 0
M  V30 2613 H 251.442 2.78561 -2.14701 0
M  V30 2614 H 251.316 3.7133 -0.662862 0
M  V30 2615 H 253.703 2.95086 -0.028475 0
M  V30 2616 H 253.784 2.04002 -1.54328 0
M  V30 2617 H 253.428 4.21001 -2.84114 0
M  V30 2618 H 253.358 5.10275 -1.30104 0
M  V30 2619 H 255.849 3.54119 -1.31939 0
M  V30 2620 H 256.162 6.99964 -3.27522 0
M  V30 2621 H 254.507 6.29791 -2.93919 0
M  V30 2622 H 257.698 4.35631 -1.71299 0
M  V30 2623 H 257.871 5.93348 -2.60466 0
M  V30 2624 N 251.277 0.427512 1.51691 0
M  V30 2625 C 252.523 -0.142439 2.02299 0
M  V30 2626 C 252.856 -1.43214 1.31162 0
M  V30 2627 O 252.131 -1.89833 0.423511 0
M  V30 2628 C 252.414 -0.371301 3.58181 0
M  V30 2629 C 252.267 0.936358 4.39946 0
M  V30 2630 C 253.586 -1.14542 4.24933 0
M  V30 2631 H 250.705 -0.0502937 0.735282 0
M  V30 2632 H 253.347 0.564584 1.81418 0
M  V30 2633 H 251.497 -0.973559 3.76104 0
M  V30 2634 H 253.169 1.57184 4.33694 0
M  V30 2635 H 251.412 1.5432 4.05423 0
M  V30 2636 H 252.083 0.730388 5.47147 0
M  V30 2637 H 254.559 -0.635362 4.11221 0
M  V30 2638 H 253.435 -1.27431 5.33903 0
M  V30 2639 H 253.696 -2.17093 3.85127 0
M  V30 2640 N 252.755 -1.56801 0.158532 0
M  V30 2641 C 254.001 -1.96781 -0.490405 0
M  V30 2642 C 254.334 -1.04397 -1.63753 0
M  V30 2643 O 253.609 -0.0885805 -1.94298 0
M  V30 2644 C 253.892 -3.4635 -0.985594 0
M  V30 2645 C 253.745 -4.49512 0.160824 0
M  V30 2646 C 255.064 -3.98697 -1.86355 0
M  V30 2647 H 252.183 -0.715482 -0.176788 0
M  V30 2648 H 254.825 -1.88451 0.242088 0
M  V30 2649 H 252.975 -3.53579 -1.60978 0
M  V30 2650 H 254.647 -4.54353 0.797537 0
M  V30 2651 H 252.89 -4.26013 0.818256 0
M  V30 2652 H 253.561 -5.51531 -0.227569 0
M  V30 2653 H 256.037 -3.94019 -1.33746 0
M  V30 2654 H 254.913 -5.03792 -2.17909 0
M  V30 2655 H 255.174 -3.41744 -2.8047 0
M  V30 2656 N 254.233 0.115231 -1.57178 0
M  V30 2657 C 255.644 0.67197 -1.74188 0
M  V30 2658 C 255.995 1.80125 -0.777777 0
M  V30 2659 O 255.12 2.16346 0.0484376 0
M  V30 2660 C 255.715 1.22573 -3.1585 0
M  V30 2661 C 254.274 1.72872 -3.34353 0
M  V30 2662 C 253.421 0.629972 -2.70049 0
M  V30 2663 H 256.372 -0.110712 -1.58313 0
M  V30 2664 H 256.393 2.09535 -3.17609 0
M  V30 2665 H 255.905 0.403598 -3.85996 0
M  V30 2666 H 254.006 2.5755 -2.69256 0
M  V30 2667 H 254.119 1.83557 -4.42542 0
M  V30 2668 H 252.483 1.0645 -2.31388 0
M  V30 2669 H 253.266 -0.181241 -3.42821 0
M  V30 2670 N 255.711 1.52812 0.385517 0
M  V30 2671 C 256.959 1.67694 1.12797 0
M  V30 2672 C 257.28 0.421115 1.90399 0
M  V30 2673 O 256.55 -0.564551 1.87589 0
M  V30 2674 H 255.13 0.618155 0.419396 0
M  V30 2675 H 257.792 1.89938 0.436972 0
M  V30 2676 H 256.888 2.52896 1.82894 0
M  V30 2677 N 257.189 -0.644168 1.43834 0
M  V30 2678 C 258.099 -1.78563 1.52159 0
M  V30 2679 C 259.115 -1.69147 0.408069 0
M  V30 2680 O 260.291 -1.90156 0.663524 0
M  V30 2681 C 257.356 -3.14888 1.45073 0
M  V30 2682 C 256.417 -3.36034 2.6717 0
M  V30 2683 C 255.65 -4.65855 2.60413 0
M  V30 2684 O 255.873 -5.45805 1.65689 0
M  V30 2685 O 254.807 -4.88918 3.5106 0
M  V30 2686 H 258.633 -1.74494 2.48567 0
M  V30 2687 H 256.218 -0.80378 1.25935 0
M  V30 2688 H 258.1 -3.96179 1.43597 0
M  V30 2689 H 256.775 -3.19528 0.518037 0
M  V30 2690 H 255.682 -2.54472 2.74217 0
M  V30 2691 H 257.015 -3.36247 3.59442 0
M  V30 2692 N 258.668 -1.30515 -0.883378 0
M  V30 2693 C 259.578 -1.18959 -2.02203 0
M  V30 2694 C 260.594 -0.109172 -1.73657 0
M  V30 2695 O 261.77 -0.324413 -1.9877 0
M  V30 2696 C 258.835 -0.883871 -3.35244 0
M  V30 2697 C 257.896 -2.04982 -3.77201 0
M  V30 2698 C 257.129 -1.75859 -5.03894 0
M  V30 2699 O 257.352 -0.687276 -5.66244 0
M  V30 2700 O 256.286 -2.61146 -5.42297 0
M  V30 2701 H 260.112 -2.14616 -2.1488 0
M  V30 2702 H 257.697 -1.10124 -1.0096 0
M  V30 2703 H 259.579 -0.728644 -4.15053 0
M  V30 2704 H 258.254 0.0427798 -3.23672 0
M  V30 2705 H 257.161 -2.26038 -2.9809 0
M  V30 2706 H 258.494 -2.95825 -3.93381 0
M  V30 2707 N 260.146 1.09593 -1.13257 0
M  V30 2708 C 261.056 2.19739 -0.821691 0
M  V30 2709 C 262.072 1.72926 0.19302 0
M  V30 2710 O 263.248 2.01385 0.0244895 0
M  V30 2711 C 260.313 3.45482 -0.290333 0
M  V30 2712 C 259.374 4.06985 -1.36607 0
M  V30 2713 C 258.607 5.26726 -0.859975 0
M  V30 2714 O 258.83 5.69594 0.303082 0
M  V30 2715 O 257.764 5.7931 -1.63351 0
M  V30 2716 H 261.59 2.48781 -1.74189 0
M  V30 2717 H 259.175 1.18496 -0.909894 0
M  V30 2718 H 261.057 4.214 0.000674022 0
M  V30 2719 H 259.732 3.18047 0.602306 0
M  V30 2720 H 258.639 3.32712 -1.71037 0
M  V30 2721 H 259.972 4.38643 -2.23279 0
M  V30 2722 N 261.624 0.925811 1.2754 0
M  V30 2723 C 262.556 0.380753 2.26015 0
M  V30 2724 C 263.569 -0.487485 1.5533 0
M  V30 2725 O 264.758 -0.300413 1.75954 0
M  V30 2726 C 261.858 -0.473259 3.35579 0
M  V30 2727 C 261.031 0.375249 4.35787 0
M  V30 2728 C 260.09 -0.415809 5.24555 0
M  V30 2729 O 259.116 0.175834 5.68928 0
M  V30 2730 N 260.318 -1.71607 5.54555 0
M  V30 2731 H 263.083 1.22725 2.73421 0
M  V30 2732 H 260.644 0.793037 1.41147 0
M  V30 2733 H 262.636 -1.00949 3.91907 0
M  V30 2734 H 261.206 -1.2205 2.87789 0
M  V30 2735 H 260.426 1.09279 3.7875 0
M  V30 2736 H 261.714 0.955399 4.99749 0
M  V30 2737 H 261.112 -2.2191 5.20358 0
M  V30 2738 H 259.669 -2.19887 6.1359 0
M  V30 2739 N 263.102 -1.41638 0.69111 0
M  V30 2740 C 264.049 -2.30789 0.0229705 0
M  V30 2741 C 265.019 -1.46863 -0.775911 0
M  V30 2742 O 266.204 -1.75661 -0.74485 0
M  V30 2743 C 263.344 -3.32868 -0.910666 0
M  V30 2744 C 262.457 -4.31875 -0.103874 0
M  V30 2745 C 261.592 -5.21024 -1.03475 0
M  V30 2746 C 260.631 -6.11702 -0.220598 0
M  V30 2747 N 259.768 -6.93349 -1.10504 0
M  V30 2748 H 264.608 -2.87366 0.788978 0
M  V30 2749 H 262.145 -1.41535 0.400794 0
M  V30 2750 H 264.103 -3.90596 -1.46597 0
M  V30 2751 H 262.733 -2.77851 -1.64312 0
M  V30 2752 H 261.785 -3.76131 0.568285 0
M  V30 2753 H 263.097 -4.96003 0.527504 0
M  V30 2754 H 262.251 -5.83565 -1.65943 0
M  V30 2755 H 260.99 -4.57112 -1.69999 0
M  V30 2756 H 259.995 -5.48215 0.417187 0
M  V30 2757 H 261.22 -6.77668 0.440784 0
M  V30 2758 H 259.166 -6.3205 -1.75638 0
M  V30 2759 H 259.083 -7.54146 -0.529125 0
M  V30 2760 H 260.351 -7.60362 -1.71667 0
M  V30 2761 N 264.58 -0.43555 -1.51462 0
M  V30 2762 C 265.827 0.131514 -2.02072 0
M  V30 2763 C 266.155 1.42868 -1.31981 0
M  V30 2764 O 265.41 1.91076 -0.422883 0
M  V30 2765 C 265.709 0.39942 -3.55161 0
M  V30 2766 C 265.375 -0.81172 -4.43533 0
M  V30 2767 C 264.037 -1.14387 -4.67407 0
M  V30 2768 C 266.389 -1.61976 -4.95392 0
M  V30 2769 C 263.717 -2.28477 -5.40384 0
M  V30 2770 C 266.069 -2.75164 -5.6962 0
M  V30 2771 C 264.733 -3.08835 -5.91758 0
M  V30 2772 H 264.003 0.0481244 -0.739436 0
M  V30 2773 H 266.65 -0.58238 -1.8243 0
M  V30 2774 H 264.955 1.19519 -3.73125 0
M  V30 2775 H 266.652 0.85157 -3.91854 0
M  V30 2776 H 263.242 -0.542898 -4.25148 0
M  V30 2777 H 267.426 -1.37637 -4.76833 0
M  V30 2778 H 262.682 -2.5488 -5.55739 0
M  V30 2779 H 266.856 -3.38147 -6.08793 0
M  V30 2780 H 264.483 -3.97353 -6.48086 0
M  V30 2781 N 266.058 1.56714 -0.166846 0
M  V30 2782 C 266.968 2.21331 0.777791 0
M  V30 2783 C 267.984 1.20358 1.25658 0
M  V30 2784 O 269.16 1.53005 1.30964 0
M  V30 2785 C 266.225 2.83787 1.99163 0
M  V30 2786 C 265.286 3.99947 1.56016 0
M  V30 2787 C 264.519 4.59415 2.71613 0
M  V30 2788 O 264.742 4.17769 3.88362 0
M  V30 2789 O 263.676 5.49359 2.45945 0
M  V30 2790 H 267.502 3.02605 0.257636 0
M  V30 2791 H 265.087 1.49275 0.0611393 0
M  V30 2792 H 266.969 3.23405 2.70161 0
M  V30 2793 H 265.644 2.05513 2.50092 0
M  V30 2794 H 264.551 3.65007 0.819809 0
M  V30 2795 H 265.884 4.79801 1.09782 0
M  V30 2796 N 267.536 -0.106894 1.57237 0
M  V30 2797 C 268.782 -0.81373 1.85759 0
M  V30 2798 C 269.115 -1.78952 0.754315 0
M  V30 2799 O 268.39 -1.93029 -0.23879 0
M  V30 2800 C 268.673 -1.55293 3.24894 0
M  V30 2801 C 268.526 -0.595929 4.45835 0
M  V30 2802 C 269.845 -2.5063 3.61763 0
M  V30 2803 H 266.964 -0.294369 0.67566 0
M  V30 2804 H 269.606 -0.0776472 1.89841 0
M  V30 2805 H 267.756 -2.1804 3.21544 0
M  V30 2806 H 269.428 0.0236262 4.61294 0
M  V30 2807 H 267.671 0.0916191 4.33703 0
M  V30 2808 H 268.342 -1.15004 5.39887 0
M  V30 2809 H 270.818 -1.97982 3.65981 0
M  V30 2810 H 269.694 -2.99376 4.60071 0
M  V30 2811 H 269.955 -3.3385 2.89821 0
M  V30 2812 N 269.014 -1.53014 -0.377408 0
M  V30 2813 C 269.924 -1.81557 -1.48574 0
M  V30 2814 C 270.94 -0.703102 -1.59162 0
M  V30 2815 O 272.116 -0.99192 -1.75279 0
M  V30 2816 C 269.181 -1.9889 -2.83978 0
M  V30 2817 C 268.242 -3.22801 -2.83016 0
M  V30 2818 C 267.475 -3.39298 -4.11962 0
M  V30 2819 O 267.698 -2.60345 -5.0752 0
M  V30 2820 O 266.632 -4.32604 -4.18494 0
M  V30 2821 H 270.458 -2.75695 -1.27382 0
M  V30 2822 H 268.043 -1.38248 -0.566373 0
M  V30 2823 H 269.925 -2.11931 -3.6423 0
M  V30 2824 H 268.6 -1.07942 -3.05172 0
M  V30 2825 H 267.507 -3.15193 -2.01505 0
M  V30 2826 H 268.84 -4.13632 -2.66775 0
M  V30 2827 N 270.492 0.636531 -1.44174 0
M  V30 2828 C 271.439 1.74875 -1.50624 0
M  V30 2829 C 272.409 1.62275 -0.35442 0
M  V30 2830 O 273.594 1.82276 -0.563908 0
M  V30 2831 C 270.734 3.13102 -1.45125 0
M  V30 2832 C 269.847 3.36717 -2.7064 0
M  V30 2833 C 268.982 4.64885 -2.57013 0
M  V30 2834 C 268.021 4.8166 -3.77717 0
M  V30 2835 N 267.158 6.01101 -3.62798 0
M  V30 2836 H 271.998 1.68697 -2.45653 0
M  V30 2837 H 269.535 0.823004 -1.21922 0
M  V30 2838 H 271.493 3.93034 -1.39929 0
M  V30 2839 H 270.123 3.18308 -0.536671 0
M  V30 2840 H 269.175 2.50763 -2.86046 0
M  V30 2841 H 270.487 3.44993 -3.60252 0
M  V30 2842 H 269.641 5.52969 -2.49619 0
M  V30 2843 H 268.38 4.58957 -1.64953 0
M  V30 2844 H 267.385 3.92007 -3.85501 0
M  V30 2845 H 268.61 4.89406 -4.70807 0
M  V30 2846 H 266.556 5.96273 -2.73486 0
M  V30 2847 H 266.473 6.10409 -4.46023 0
M  V30 2848 H 267.741 6.91761 -3.59286 0
M  V30 2849 N 271.97 1.30982 0.876444 0
M  V30 2850 C 273.2 1.23063 1.65949 0
M  V30 2851 C 273.608 -0.207537 1.88058 0
M  V30 2852 O 272.951 -1.14781 1.43426 0
M  V30 2853 C 273.013 1.89768 3.05333 0
M  V30 2854 C 272.677 3.39106 3.0636 0
M  V30 2855 C 273.674 4.3496 2.84791 0
M  V30 2856 C 271.359 3.80693 3.27686 0
M  V30 2857 C 273.353 5.70375 2.84519 0
M  V30 2858 C 271.04 5.16223 3.27043 0
M  V30 2859 C 272.038 6.10875 3.05485 0
M  V30 2860 O 271.726 7.43928 3.04674 0
M  V30 2861 H 271.458 0.426685 0.524324 0
M  V30 2862 H 274.012 1.7329 1.10271 0
M  V30 2863 H 272.242 1.34082 3.6271 0
M  V30 2864 H 273.931 1.75853 3.65829 0
M  V30 2865 H 274.697 4.0416 2.68103 0
M  V30 2866 H 270.576 3.07457 3.43499 0
M  V30 2867 H 274.12 6.44228 2.67611 0
M  V30 2868 H 270.017 5.4666 3.43269 0
M  V30 2869 H 270.785 7.53022 3.2078 0
M  V30 2870 N 273.449 -1.08991 1.13837 0
M  V30 2871 C 274.698 -1.80631 0.897509 0
M  V30 2872 C 275.011 -1.86872 -0.57777 0
M  V30 2873 O 276.217 -2.54866 -0.935701 0
M  V30 2874 C 274.673 -3.24517 1.55618 0
M  V30 2875 C 274.281 -3.26529 3.0673 0
M  V30 2876 C 276.025 -4.00882 1.3962 0
M  V30 2877 C 273.932 -4.64965 3.65461 0
M  V30 2878 H 272.862 -0.67691 0.332129 0
M  V30 2879 H 275.513 -1.2246 1.3666 0
M  V30 2880 H 273.895 -3.82778 1.01476 0
M  V30 2881 H 275.069 -2.78008 3.67489 0
M  V30 2882 H 273.384 -2.63656 3.22296 0
M  V30 2883 H 275.981 -5.03167 1.80906 0
M  V30 2884 H 276.324 -4.14896 0.341578 0
M  V30 2885 H 276.857 -3.49075 1.90766 0
M  V30 2886 H 273.596 -4.56153 4.70749 0
M  V30 2887 H 273.116 -5.13792 3.09481 0
M  V30 2888 H 274.795 -5.3394 3.654 0
M  V30 2889 N 274.927 -0.932562 -1.27047 0
M  V30 2890 C 276.173 -0.576412 -1.94436 0
M  V30 2891 C 276.506 0.880891 -1.73072 0
M  V30 2892 O 275.781 1.62905 -1.06264 0
M  V30 2893 C 276.064 -0.909031 -3.48437 0
M  V30 2894 C 275.917 -2.42044 -3.79123 0
M  V30 2895 C 277.236 -0.418341 -4.38107 0
M  V30 2896 H 274.355 -0.210888 -0.706184 0
M  V30 2897 H 276.997 -1.16522 -1.50075 0
M  V30 2898 H 275.147 -0.407947 -3.86352 0
M  V30 2899 H 276.819 -2.99359 -3.50973 0
M  V30 2900 H 275.062 -2.86758 -3.25503 0
M  V30 2901 H 275.733 -2.6037 -4.86736 0
M  V30 2902 H 278.209 -0.847856 -4.0737 0
M  V30 2903 H 277.085 -0.679981 -5.44672 0
M  V30 2904 H 277.346 0.681642 -4.36814 0
M  V30 2905 N 276.405 1.4127 -0.698611 0
M  V30 2906 C 277.355 2.27997 -0.0119836 0
M  V30 2907 C 278.339 1.42363 0.749765 0
M  V30 2908 O 279.531 1.65607 0.624758 0
M  V30 2909 C 276.66 3.30702 0.921458 0
M  V30 2910 C 275.746 4.23814 0.155796 0
M  V30 2911 N 276.137 4.98572 -0.852015 0
M  V30 2912 C 274.435 4.44284 0.390836 0
M  V30 2913 C 275.136 5.66744 -1.3106 0
M  V30 2914 N 274.112 5.39867 -0.635944 0
M  V30 2915 H 277.914 2.83232 -0.784649 0
M  V30 2916 H 275.428 1.53518 -0.529711 0
M  V30 2917 H 277.425 3.91661 1.42854 0
M  V30 2918 H 276.085 2.77028 1.69369 0
M  V30 2919 H 277.096 5.03024 -1.23235 0
M  V30 2920 H 273.773 4.01614 1.14071 0
M  V30 2921 H 275.163 6.36672 -2.14707 0
M  V30 2922 N 277.883 0.443576 1.51229 0
M  V30 2923 C 278.83 -0.364716 2.279 0
M  V30 2924 C 279.8 -1.0114 1.31757 0
M  V30 2925 O 280.985 -1.02912 1.60667 0
M  V30 2926 C 278.125 -1.45644 3.12861 0
M  V30 2927 C 277.238 -0.827269 4.24005 0
M  V30 2928 C 276.373 -1.89456 4.96266 0
M  V30 2929 C 275.412 -1.24416 5.99322 0
M  V30 2930 N 274.549 -2.25309 6.64966 0
M  V30 2931 H 279.389 0.295464 2.96532 0
M  V30 2932 H 276.926 0.157554 1.46254 0
M  V30 2933 H 278.884 -2.10076 3.6045 0
M  V30 2934 H 277.514 -2.08616 2.46331 0
M  V30 2935 H 276.566 -0.0710839 3.80334 0
M  V30 2936 H 277.878 -0.312481 4.9782 0
M  V30 2937 H 277.032 -2.61535 5.47434 0
M  V30 2938 H 275.771 -2.4431 4.22095 0
M  V30 2939 H 274.776 -0.508868 5.4744 0
M  V30 2940 H 276.001 -0.702882 6.75453 0
M  V30 2941 H 273.947 -2.79231 5.93604 0
M  V30 2942 H 273.864 -1.78739 7.34567 0
M  V30 2943 H 275.132 -2.96853 7.20763 0
M  V30 2944 N 279.361 -1.56624 0.175154 0
M  V30 2945 C 280.271 -2.21741 -0.766042 0
M  V30 2946 C 281.287 -1.21023 -1.25018 0
M  V30 2947 O 282.463 -1.53697 -1.3015 0
M  V30 2948 C 279.528 -2.84839 -1.97655 0
M  V30 2949 C 278.589 -4.00769 -1.53892 0
M  V30 2950 C 277.822 -4.60849 -2.69173 0
M  V30 2951 O 278.045 -4.19823 -3.86141 0
M  V30 2952 O 276.979 -5.50655 -2.43028 0
M  V30 2953 H 280.805 -3.02738 -0.241585 0
M  V30 2954 H 278.39 -1.49305 -0.053222 0
M  V30 2955 H 280.272 -3.24834 -2.68442 0
M  V30 2956 H 278.947 -2.06836 -2.48999 0
M  V30 2957 H 277.854 -3.65436 -0.80044 0
M  V30 2958 H 279.187 -4.80376 -1.07236 0
M  V30 2959 N 280.839 0.0985539 -1.57292 0
M  V30 2960 C 282.086 0.802678 -1.85912 0
M  V30 2961 C 282.414 1.78901 -0.763186 0
M  V30 2962 O 281.669 1.94178 0.243559 0
M  V30 2963 C 281.968 1.56927 -3.21105 0
M  V30 2964 C 281.634 0.725376 -4.45027 0
M  V30 2965 C 280.296 0.492726 -4.78671 0
M  V30 2966 C 282.648 0.138493 -5.21016 0
M  V30 2967 C 279.976 -0.336727 -5.85733 0
M  V30 2968 C 282.328 -0.678264 -6.28953 0
M  V30 2969 C 280.992 -0.921039 -6.61115 0
M  V30 2970 H 280.262 0.293721 -0.680301 0
M  V30 2971 H 282.909 0.0642841 -1.91392 0
M  V30 2972 H 281.214 2.37914 -3.11294 0
M  V30 2973 H 282.911 2.11841 -3.40477 0
M  V30 2974 H 279.501 0.916815 -4.18679 0
M  V30 2975 H 283.685 0.305404 -4.95359 0
M  V30 2976 H 278.941 -0.533836 -6.09065 0
M  V30 2977 H 283.115 -1.1399 -6.87007 0
M  V30 2978 H 280.742 -1.56556 -7.43905 0
M  V30 2979 N 282.317 1.53212 0.369288 0
M  V30 2980 C 283.594 1.59815 1.12776 0
M  V30 2981 C 283.974 0.403402 2.0721 0
M  V30 2982 O 283.322 -0.606667 2.20299 0
M  V30 2983 C 283.532 2.94664 1.87013 0
M  V30 2984 C 284.88 3.49109 2.41677 0
M  V30 2985 O 285.904 2.96669 1.97144 0
M  V30 2986 O 284.763 4.40775 3.23079 0
M  V30 2987 H 281.857 0.645376 0.517125 0
M  V30 2988 H 284.403 1.65553 0.37285 0
M  V30 2989 H 283.175 3.73061 1.18071 0
M  V30 2990 H 282.798 2.92401 2.69421 0
M  V30 2991 N 283.795 -0.628877 1.44509 0
M  V30 2992 C 285.072 -1.38733 1.37886 0
M  V30 2993 C 285.452 -2.11065 0.0387008 0
M  V30 2994 O 284.8 -2.06476 -0.97878 0
M  V30 2995 C 285.01 -2.35188 2.57852 0
M  V30 2996 C 286.358 -2.9845 3.02014 0
M  V30 2997 O 287.382 -2.45513 2.58073 0
M  V30 2998 O 286.241 -3.94487 3.78209 0
M  V30 2999 H 283.335 -0.621015 0.54614 0
M  V30 3000 H 285.881 -0.653744 1.56602 0
M  V30 3001 H 284.653 -1.80855 3.46998 0
M  V30 3002 H 284.276 -3.1596 2.4136 0
M  V30 3003 N 285.273 -1.31445 -0.869486 0
M  V30 3004 C 286.55 -1.11795 -1.60503 0
M  V30 3005 C 286.93 0.327168 -2.08549 0
M  V30 3006 O 286.278 1.32135 -1.8642 0
M  V30 3007 C 286.488 -2.13258 -2.76265 0
M  V30 3008 C 287.836 -2.45805 -3.46215 0
M  V30 3009 O 288.86 -2.11688 -2.86473 0
M  V30 3010 O 287.719 -3.04228 -4.5399 0
M  V30 3011 H 284.813 -0.430421 -0.706163 0
M  V30 3012 H 287.359 -1.42925 -0.914907 0
M  V30 3013 H 286.131 -3.10461 -2.3818 0
M  V30 3014 H 285.754 -1.83035 -3.52964 0
M  V30 3015 N 286.751 1.08385 -1.14413 0
M  V30 3016 C 287.979 1.84517 -0.936001 0
M  V30 3017 C 288.394 1.81626 0.515503 0
M  V30 3018 O 287.751 1.22008 1.35721 0
M  V30 3019 C 287.802 3.32049 -1.42918 0
M  V30 3020 O 287.523 3.34951 -2.82381 0
M  V30 3021 C 289.024 4.24986 -1.26103 0
M  V30 3022 H 286.244 0.582491 -0.333084 0
M  V30 3023 H 288.788 1.36885 -1.5193 0
M  V30 3024 H 286.943 3.7707 -0.888641 0
M  V30 3025 H 287.357 4.27048 -3.04517 0
M  V30 3026 H 288.831 5.26615 -1.6547 0
M  V30 3027 H 289.308 4.38726 -0.20392 0
M  V30 3028 H 289.914 3.85791 -1.79012 0
M  V30 3029 N 288.23 0.939286 1.26551 0
M  V30 3030 C 289.46 0.601663 1.97645 0
M  V30 3031 C 289.868 -0.827206 1.70159 0
M  V30 3032 O 289.211 -1.56291 0.965338 0
M  V30 3033 C 289.273 0.761725 3.51337 0
M  V30 3034 C 288.937 2.16487 4.0247 0
M  V30 3035 C 289.934 3.14016 4.14355 0
M  V30 3036 C 287.619 2.48494 4.36527 0
M  V30 3037 C 289.613 4.41654 4.59587 0
M  V30 3038 C 287.3 3.76364 4.81449 0
M  V30 3039 C 288.298 4.72758 4.92939 0
M  V30 3040 O 287.986 5.98352 5.36871 0
M  V30 3041 H 287.718 0.225758 0.637189 0
M  V30 3042 H 290.272 1.26178 1.62075 0
M  V30 3043 H 288.502 0.0444808 3.86674 0
M  V30 3044 H 290.191 0.427442 4.03643 0
M  V30 3045 H 290.957 2.90613 3.8829 0
M  V30 3046 H 286.836 1.74202 4.26819 0
M  V30 3047 H 290.38 5.16896 4.68471 0
M  V30 3048 H 286.277 3.99582 5.06956 0
M  V30 3049 H 287.045 6.01507 5.55096 0
M  V30 3050 N 289.708 -1.40897 0.706093 0
M  V30 3051 C 290.985 -1.94868 0.169099 0
M  V30 3052 C 291.365 -1.64485 -1.32318 0
M  V30 3053 O 290.713 -0.95744 -2.07474 0
M  V30 3054 C 290.923 -3.45798 0.471654 0
M  V30 3055 C 292.271 -4.22663 0.405127 0
M  V30 3056 O 293.295 -3.53865 0.407168 0
M  V30 3057 O 292.154 -5.45216 0.374383 0
M  V30 3058 H 289.248 -0.82673 0.0211352 0
M  V30 3059 H 291.794 -1.50558 0.782976 0
M  V30 3060 H 290.566 -3.61235 1.50416 0
M  V30 3061 H 290.189 -3.97225 -0.172666 0
M  V30 3062 N 291.186 -0.45159 -1.50991 0
M  V30 3063 C 292.134 0.366864 -2.29689 0
M  V30 3064 C 293.128 1.00809 -1.36139 0
M  V30 3065 O 294.334 0.941427 -1.53418 0
M  V30 3066 H 290.709 0.137133 -0.739391 0
M  V30 3067 H 292.68 -0.317538 -2.96706 0
M  V30 3068 C 291.429 1.44751 -3.16137 0
M  V30 3069 H 290.752 0.963473 -3.88017 0
M  V30 3070 H 292.192 1.99315 -3.74232 0
M  V30 3071 C 290.651 2.43869 -2.32442 0
M  V30 3072 O 291.181 3.4872 -1.99392 0
M  V30 3073 N 289.387 2.15105 -1.95392 0
M  V30 3074 H 288.934 1.29866 -2.22469 0
M  V30 3075 H 288.892 2.81661 -1.39693 0
M  V30 3076 N 292.664 1.56529 -0.183458 0
M  V30 3077 C 293.941 1.88959 0.50536 0
M  V30 3078 C 294.321 1.09523 1.80466 0
M  V30 3079 O 293.669 0.19278 2.27685 0
M  V30 3080 C 293.879 3.41162 0.73547 0
M  V30 3081 C 295.227 4.11155 1.06005 0
M  V30 3082 O 296.251 3.46548 0.823594 0
M  V30 3083 O 295.11 5.25318 1.50675 0
M  V30 3084 H 292.204 0.78441 0.261973 0
M  V30 3085 H 294.75 1.68231 -0.222802 0
M  V30 3086 H 293.522 3.90874 -0.182561 0
M  V30 3087 H 293.145 3.67543 1.51651 0
M  V30 3088 N 294.142 -0.090211 1.57342 0
M  V30 3089 C 295.391 -0.791531 1.8552 0
M  V30 3090 C 295.704 -1.79659 0.773441 0
M  V30 3091 O 296.91 -2.54616 0.942497 0
M  V30 3092 C 295.366 -1.45856 3.2902 0
M  V30 3093 C 294.974 -0.493017 4.45279 0
M  V30 3094 C 296.718 -2.14332 3.66418 0
M  V30 3095 C 294.625 -1.16491 5.79814 0
M  V30 3096 H 293.555 -0.299356 0.692027 0
M  V30 3097 H 296.206 -0.0445343 1.83446 0
M  V30 3098 H 294.588 -2.25318 3.2565 0
M  V30 3099 H 295.762 0.270464 4.60006 0
M  V30 3100 H 294.077 0.0863061 4.16311 0
M  V30 3101 H 296.674 -2.65344 4.64216 0
M  V30 3102 H 297.017 -2.93447 2.95287 0
M  V30 3103 H 297.55 -1.41724 3.71698 0
M  V30 3104 H 294.289 -0.41447 6.54188 0
M  V30 3105 H 293.809 -1.8997 5.68921 0
M  V30 3106 H 295.488 -1.69001 6.24538 0
M  V30 3107 N 295.62 -1.53406 -0.361157 0
M  V30 3108 C 296.583 -1.79479 -1.42548 0
M  V30 3109 C 297.583 -0.665327 -1.4639 0
M  V30 3110 O 298.773 -0.933549 -1.47073 0
M  V30 3111 C 295.905 -1.92087 -2.8163 0
M  V30 3112 H 297.098 -2.74538 -1.20701 0
M  V30 3113 H 294.651 -1.4455 -0.594546 0
M  V30 3114 H 295.386 -0.991099 -3.08784 0
M  V30 3115 H 295.171 -2.74241 -2.80239 0
M  V30 3116 H 296.661 -2.13836 -3.58697 0
M  V30 3117 N 297.098 0.621204 -1.44841 0
M  V30 3118 C 298.028 1.74366 -1.55303 0
M  V30 3119 C 299.009 1.65199 -0.405385 0
M  V30 3120 O 300.194 1.83807 -0.626787 0
M  V30 3121 C 297.324 3.12931 -1.50637 0
M  V30 3122 C 296.278 3.36896 -2.63979 0
M  V30 3123 C 295.604 4.75594 -2.44366 0
M  V30 3124 C 296.904 3.28483 -4.06074 0
M  V30 3125 H 298.598 1.65867 -2.49256 0
M  V30 3126 H 296.144 0.796558 -1.19962 0
M  V30 3127 H 298.097 3.9124 -1.56555 0
M  V30 3128 H 296.821 3.22237 -0.532057 0
M  V30 3129 H 295.48 2.60972 -2.57467 0
M  V30 3130 H 295.128 4.81616 -1.45105 0
M  V30 3131 H 294.828 4.92586 -3.20364 0
M  V30 3132 H 296.352 5.5612 -2.52117 0
M  V30 3133 H 297.766 3.96684 -4.13902 0
M  V30 3134 H 296.163 3.57008 -4.82354 0
M  V30 3135 H 297.233 2.26133 -4.28943 0
M  V30 3136 N 298.576 1.31904 0.862503 0
M  V30 3137 C 299.506 1.22782 1.98612 0
M  V30 3138 C 300.487 0.113362 1.69722 0
M  V30 3139 O 301.672 0.299218 1.91881 0
M  V30 3140 C 298.802 0.942058 3.34279 0
M  V30 3141 C 297.756 2.0169 3.77499 0
M  V30 3142 C 297.082 1.58369 5.10709 0
M  V30 3143 C 298.382 3.43096 3.93805 0
M  V30 3144 H 300.076 2.16788 2.06502 0
M  V30 3145 H 297.622 1.04366 0.992154 0
M  V30 3146 H 299.575 0.864818 4.1243 0
M  V30 3147 H 298.299 -0.0336603 3.26583 0
M  V30 3148 H 296.958 2.08416 3.01593 0
M  V30 3149 H 296.606 0.595628 4.99461 0
M  V30 3150 H 296.306 2.30279 5.40597 0
M  V30 3151 H 297.83 1.52067 5.91361 0
M  V30 3152 H 299.244 3.39003 4.62331 0
M  V30 3153 H 297.641 4.13288 4.35101 0
M  V30 3154 H 298.711 3.83334 2.96957 0
M  V30 3155 N 300.054 -1.07777 1.14986 0
M  V30 3156 C 300.986 -2.14769 0.800436 0
M  V30 3157 C 301.999 -1.61739 -0.185595 0
M  V30 3158 O 303.188 -1.78462 0.0370358 0
M  V30 3159 C 300.288 -3.38481 0.168533 0
M  V30 3160 C 299.461 -4.20876 1.1909 0
M  V30 3161 C 298.52 -5.22976 0.581575 0
M  V30 3162 O 297.546 -5.55388 1.24633 0
M  V30 3163 N 298.748 -5.76976 -0.638706 0
M  V30 3164 H 301.513 -2.45348 1.72118 0
M  V30 3165 H 299.074 -1.23645 1.04515 0
M  V30 3166 H 301.066 -4.03916 -0.251764 0
M  V30 3167 H 299.636 -3.05651 -0.655467 0
M  V30 3168 H 298.856 -3.51322 1.78791 0
M  V30 3169 H 300.144 -4.7274 1.88133 0
M  V30 3170 H 299.542 -5.52886 -1.19723 0
M  V30 3171 H 298.099 -6.44061 -1.00142 0
M  V30 3172 N 301.532 -0.945985 -1.26051 0
M  V30 3173 C 302.462 -0.477172 -2.28572 0
M  V30 3174 C 303.443 0.472032 -1.63419 0
M  V30 3175 O 304.628 0.372853 -1.90587 0
M  V30 3176 C 301.758 0.253975 -3.4637 0
M  V30 3177 C 300.712 -0.609135 -4.23643 0
M  V30 3178 C 300.038 0.252252 -5.34105 0
M  V30 3179 C 301.338 -1.8829 -4.8718 0
M  V30 3180 H 303.032 -1.33402 -2.68038 0
M  V30 3181 H 300.578 -0.642904 -1.28852 0
M  V30 3182 H 302.531 0.593016 -4.17207 0
M  V30 3183 H 301.255 1.145 -3.05871 0
M  V30 3184 H 299.914 -0.931138 -3.54578 0
M  V30 3185 H 299.562 1.14278 -4.89846 0
M  V30 3186 H 299.262 -0.32188 -5.86718 0
M  V30 3187 H 300.786 0.586454 -6.07777 0
M  V30 3188 H 302.2 -1.61081 -5.50205 0
M  V30 3189 H 300.597 -2.40199 -5.49931 0
M  V30 3190 H 301.667 -2.59134 -4.09851 0
M  V30 3191 N 303.011 1.40521 -0.713556 0
M  V30 3192 C 303.958 2.30723 -0.059684 0
M  V30 3193 C 304.928 1.48079 0.752448 0
M  V30 3194 O 306.113 1.76823 0.71681 0
M  V30 3195 C 303.253 3.34274 0.857594 0
M  V30 3196 C 302.366 4.31986 0.0351536 0
M  V30 3197 C 301.501 5.22605 0.951724 0
M  V30 3198 C 300.54 6.11976 0.123253 0
M  V30 3199 N 299.677 6.9502 0.99459 0
M  V30 3200 H 304.517 2.86074 -0.834596 0
M  V30 3201 H 302.054 1.40879 -0.42326 0
M  V30 3202 H 304.012 3.92879 1.40364 0
M  V30 3203 H 302.642 2.8043 1.59871 0
M  V30 3204 H 301.694 3.7518 -0.628052 0
M  V30 3205 H 303.006 4.95101 -0.606347 0
M  V30 3206 H 302.16 5.86131 1.56638 0
M  V30 3207 H 300.899 4.59759 1.62705 0
M  V30 3208 H 299.904 5.47482 -0.50435 0
M  V30 3209 H 301.129 6.76881 -0.548539 0
M  V30 3210 H 299.075 6.34764 1.6556 0
M  V30 3211 H 298.992 7.54892 0.40908 0
M  V30 3212 H 300.26 7.62997 1.59549 0
M  V30 3213 N 304.489 0.459591 1.5075 0
M  V30 3214 C 305.714 -0.0996819 2.0716 0
M  V30 3215 C 306.139 -1.33761 1.32249 0
M  V30 3216 O 305.497 -1.77551 0.366786 0
M  V30 3217 C 305.545 -0.378226 3.58611 0
M  V30 3218 O 304.649 -1.46081 3.85661 0
M  V30 3219 H 303.99 0.00791392 0.663953 0
M  V30 3220 H 306.52 0.647329 1.9409 0
M  V30 3221 H 306.53 -0.622135 4.03229 0
M  V30 3222 H 305.205 0.526439 4.12555 0
M  V30 3223 H 303.782 -1.20511 3.5289 0
M  V30 3224 N 305.967 -1.56429 0.191757 0
M  V30 3225 C 307.244 -1.89224 -0.495332 0
M  V30 3226 C 307.624 -1.10478 -1.79883 0
M  V30 3227 O 306.972 -0.204852 -2.2758 0
M  V30 3228 C 307.182 -3.41548 -0.717367 0
M  V30 3229 C 308.53 -4.11711 -1.03823 0
M  V30 3230 O 309.554 -3.4698 -0.805204 0
M  V30 3231 O 308.413 -5.2611 -1.47887 0
M  V30 3232 H 305.507 -0.785788 -0.25781 0
M  V30 3233 H 308.053 -1.68111 0.231721 0
M  V30 3234 H 306.825 -3.90772 0.203287 0
M  V30 3235 H 306.448 -3.68342 -1.497 0
M  V30 3236 N 307.445 0.0818655 -1.57387 0
M  V30 3237 C 308.67 0.799946 -1.91352 0
M  V30 3238 C 309.095 1.70833 -0.787258 0
M  V30 3239 O 308.453 1.79419 0.26048 0
M  V30 3240 C 308.501 1.57812 -3.24234 0
M  V30 3241 O 307.605 2.68806 -3.12757 0
M  V30 3242 H 306.946 0.21891 -0.626877 0
M  V30 3243 H 309.476 0.0531256 -2.04531 0
M  V30 3244 H 309.486 1.95952 -3.57864 0
M  V30 3245 H 308.161 0.911548 -4.05788 0
M  V30 3246 H 306.738 2.33597 -2.90666 0
M  V30 3247 N 308.923 1.53595 0.353017 0
M  V30 3248 C 310.148 1.7462 1.11904 0
M  V30 3249 C 310.573 0.479721 1.8188 0
M  V30 3250 O 309.931 -0.567066 1.72204 0
M  V30 3251 C 309.979 2.92029 2.11545 0
M  V30 3252 O 309.083 2.61516 3.18878 0
M  V30 3253 H 308.424 0.579531 0.324099 0
M  V30 3254 H 310.954 2.00525 0.406301 0
M  V30 3255 H 310.964 3.18551 2.5493 0
M  V30 3256 H 309.639 3.83888 1.60008 0
M  V30 3257 H 308.216 2.45852 2.80377 0
M  V30 3258 N 310.401 -0.613514 1.45168 0
M  V30 3259 C 311.817 -0.933629 1.29443 0
M  V30 3260 C 312.017 -2.00028 0.243101 0
M  V30 3261 O 311.073 -2.49848 -0.364992 0
M  V30 3262 C 312.386 -1.38018 2.67155 0
M  V30 3263 C 313.934 -1.49471 2.75004 0
M  V30 3264 C 314.409 -1.97503 4.13227 0
M  V30 3265 N 315.9 -2.04746 4.15491 0
M  V30 3266 C 316.635 -2.43121 5.19307 0
M  V30 3267 N 316.131 -2.80506 6.33473 0
M  V30 3268 N 317.924 -2.43408 5.06664 0
M  V30 3269 H 310.075 0.0916097 2.12202 0
M  V30 3270 H 312.338 -0.0216655 0.947752 0
M  V30 3271 H 312.044 -0.670625 3.45247 0
M  V30 3272 H 311.918 -2.34784 2.95222 0
M  V30 3273 H 314.305 -2.19519 1.9722 0
M  V30 3274 H 314.386 -0.510342 2.50657 0
M  V30 3275 H 314.03 -1.28045 4.91495 0
M  V30 3276 H 313.96 -2.96843 4.34962 0
M  V30 3277 H 316.451 -1.78468 3.33103 0
M  V30 3278 H 316.764 -3.08652 7.08487 0
M  V30 3279 H 315.109 -2.78216 6.36884 0
M  V30 3280 H 318.3 -2.13604 4.16523 0
M  V30 3281 H 318.473 -2.72989 5.87691 0
M  V30 3282 N 311.879 -1.3236 -0.855495 0
M  V30 3283 C 313.119 -1.24187 -1.62348 0
M  V30 3284 C 313.483 0.193597 -1.91021 0
M  V30 3285 O 314.684 0.39904 -2.65822 0
M  V30 3286 C 312.955 -2.07661 -2.90881 0
M  V30 3287 S 314.514 -2.16505 -3.81669 0
M  V30 3288 H 311.332 -0.442076 -0.556857 0
M  V30 3289 H 313.934 -1.67198 -1.01317 0
M  V30 3290 H 312.638 -3.11018 -2.67761 0
M  V30 3291 H 312.169 -1.65425 -3.56929 0
M  V30 3292 H 314.184 -1.31394 -4.78487 0
M  V30 3293 N 313.357 1.07166 -1.15556 0
M  V30 3294 C 314.32 2.12589 -0.856644 0
M  V30 3295 C 315.32 1.6015 0.14444 0
M  V30 3296 O 316.51 1.7399 -0.0854163 0
M  V30 3297 C 313.642 3.39753 -0.279405 0
M  V30 3298 H 314.835 2.40539 -1.79112 0
M  V30 3299 H 312.388 1.23086 -0.963298 0
M  V30 3300 H 313.123 3.17447 0.663174 0
M  V30 3301 H 312.908 3.79117 -1.00063 0
M  V30 3302 H 314.398 4.17507 -0.0879113 0
M  V30 3303 N 314.835 0.952656 1.25548 0
M  V30 3304 C 315.767 0.428609 2.25157 0
M  V30 3305 C 316.78 -0.454428 1.56329 0
M  V30 3306 O 317.969 -0.263023 1.76552 0
M  V30 3307 C 315.069 -0.401972 3.36508 0
M  V30 3308 C 314.242 0.467601 4.34893 0
M  V30 3309 C 313.301 -0.30445 5.25319 0
M  V30 3310 O 312.327 0.296473 5.68427 0
M  V30 3311 N 313.529 -1.59805 5.5807 0
M  V30 3312 H 316.294 1.28497 2.70756 0
M  V30 3313 H 313.855 0.822798 1.39433 0
M  V30 3314 H 315.847 -0.926134 3.9396 0
M  V30 3315 H 314.417 -1.15918 2.90313 0
M  V30 3316 H 313.637 1.17288 3.76347 0
M  V30 3317 H 314.925 1.06119 4.97611 0
M  V30 3318 H 314.323 -2.10823 5.24948 0
M  V30 3319 H 312.88 -2.06822 6.18116 0
M  V30 3320 N 316.313 -1.40141 0.720998 0
M  V30 3321 C 317.223 -2.34486 0.0731031 0
M  V30 3322 C 318.239 -1.57587 -0.737723 0
M  V30 3323 O 319.415 -1.89949 -0.669429 0
M  V30 3324 C 316.48 -3.36528 -0.833656 0
M  V30 3325 C 315.541 -4.29298 -0.0121673 0
M  V30 3326 C 314.774 -5.26466 -0.875742 0
M  V30 3327 O 314.997 -5.29745 -2.11485 0
M  V30 3328 O 313.931 -6.01092 -0.31185 0
M  V30 3329 H 317.757 -2.9152 0.851444 0
M  V30 3330 H 315.342 -1.41427 0.481527 0
M  V30 3331 H 317.224 -3.99093 -1.35289 0
M  V30 3332 H 315.899 -2.81899 -1.59105 0
M  V30 3333 H 314.806 -3.70001 0.552262 0
M  V30 3334 H 316.139 -4.87094 0.707129 0
M  V30 3335 N 317.792 -0.46758 -1.50504 0
M  V30 3336 C 319.017 0.0886943 -2.0721 0
M  V30 3337 C 319.442 1.33057 -1.32956 0
M  V30 3338 O 318.8 1.77354 -0.376197 0
M  V30 3339 C 318.848 0.359202 -3.58806 0
M  V30 3340 O 317.952 1.44034 -3.8643 0
M  V30 3341 H 317.293 -0.0114349 -0.663902 0
M  V30 3342 H 319.823 -0.657613 -1.93744 0
M  V30 3343 H 319.833 0.600742 -4.03553 0
M  V30 3344 H 318.508 -0.548311 -4.1227 0
M  V30 3345 H 317.085 1.18638 -3.53524 0
M  V30 3346 N 319.27 1.56325 -0.20005 0
M  V30 3347 C 320.495 2.02548 0.44597 0
M  V30 3348 C 320.92 1.07922 1.5406 0
M  V30 3349 O 320.278 0.0635775 1.81188 0
M  V30 3350 C 320.326 3.47175 0.974761 0
M  V30 3351 O 319.43 3.55671 2.08739 0
M  V30 3352 H 318.771 0.655862 0.103638 0
M  V30 3353 H 321.301 2.02201 -0.312381 0
M  V30 3354 H 321.311 3.87067 1.2901 0
M  V30 3355 H 319.986 4.15538 0.17347 0
M  V30 3356 H 318.563 3.27657 1.78032 0
M  V30 3357 N 320.748 -0.0735177 1.57428 0
M  V30 3358 C 321.994 -0.774145 1.87443 0
M  V30 3359 C 322.327 -1.77311 0.792103 0
M  V30 3360 O 321.602 -1.93492 -0.197793 0
M  V30 3361 C 321.885 -1.48367 3.28115 0
M  V30 3362 C 321.738 -0.501227 4.46999 0
M  V30 3363 C 323.057 -2.429 3.66998 0
M  V30 3364 H 320.176 -0.279971 0.681752 0
M  V30 3365 H 322.818 -0.0373616 1.89963 0
M  V30 3366 H 320.968 -2.11171 3.26097 0
M  V30 3367 H 322.64 0.121468 4.6114 0
M  V30 3368 H 320.883 0.183593 4.33411 0
M  V30 3369 H 321.554 -1.03526 5.42205 0
M  V30 3370 H 324.03 -1.90175 3.70098 0
M  V30 3371 H 322.906 -2.89549 4.66318 0
M  V30 3372 H 323.167 -3.27628 2.96837 0
M  V30 3373 N 322.226 -1.5378 -0.344866 0
M  V30 3374 C 323.472 -1.71216 -1.08687 0
M  V30 3375 C 323.805 -0.473281 -1.88345 0
M  V30 3376 O 323.08 0.52968 -1.87149 0
M  V30 3377 C 323.363 -2.97486 -2.02914 0
M  V30 3378 C 323.216 -4.31579 -1.26727 0
M  V30 3379 C 324.535 -3.19422 -3.0275 0
M  V30 3380 H 321.654 -0.62301 -0.393735 0
M  V30 3381 H 324.296 -1.8645 -0.365563 0
M  V30 3382 H 322.446 -2.84629 -2.64421 0
M  V30 3383 H 324.118 -4.56284 -0.67845 0
M  V30 3384 H 322.361 -4.30049 -0.569273 0
M  V30 3385 H 323.032 -5.16106 -1.95803 0
M  V30 3386 H 325.508 -3.316 -2.51357 0
M  V30 3387 H 324.384 -4.09169 -3.65885 0
M  V30 3388 H 324.645 -2.35656 -3.74057 0
M  V30 3389 N 323.704 0.605807 -1.45491 0
M  V30 3390 C 325.12 0.926751 -1.29936 0
M  V30 3391 C 325.32 1.99896 -0.253706 0
M  V30 3392 O 324.376 2.50038 0.351737 0
M  V30 3393 C 325.689 1.36599 -2.67883 0
M  V30 3394 C 327.237 1.4801 -2.75793 0
M  V30 3395 C 327.712 1.95309 -4.14268 0
M  V30 3396 N 329.203 2.0254 -4.16571 0
M  V30 3397 C 329.938 2.40363 -5.20589 0
M  V30 3398 N 329.434 2.77143 -6.34952 0
M  V30 3399 N 331.227 2.40718 -5.07948 0
M  V30 3400 H 323.378 -0.102862 -2.12151 0
M  V30 3401 H 325.641 0.016639 -0.947854 0
M  V30 3402 H 325.347 0.652306 -3.45598 0
M  V30 3403 H 325.221 2.33215 -2.96463 0
M  V30 3404 H 327.608 2.1847 -1.98381 0
M  V30 3405 H 327.689 0.497041 -2.50925 0
M  V30 3406 H 327.333 1.25436 -4.92167 0
M  V30 3407 H 327.263 2.94532 -4.3653 0
M  V30 3408 H 329.754 1.76699 -3.34045 0
M  V30 3409 H 330.067 3.0489 -7.10114 0
M  V30 3410 H 328.412 2.74834 -6.3835 0
M  V30 3411 H 331.603 2.11392 -4.1765 0
M  V30 3412 H 331.776 2.69869 -5.89131 0
M  V30 3413 N 325.182 1.32811 0.848464 0
M  V30 3414 C 326.41 1.26739 1.63538 0
M  V30 3415 C 326.825 -0.163484 1.88091 0
M  V30 3416 O 326.182 -1.10258 1.45429 0
M  V30 3417 C 326.233 2.03013 2.99112 0
M  V30 3418 O 325.954 3.40518 2.75643 0
M  V30 3419 C 327.455 2.04038 3.93552 0
M  V30 3420 H 324.675 0.437024 0.509167 0
M  V30 3421 H 327.219 1.75033 1.05753 0
M  V30 3422 H 325.374 1.58426 3.53525 0
M  V30 3423 H 325.788 3.79635 3.61908 0
M  V30 3424 H 327.262 2.61877 4.85926 0
M  V30 3425 H 327.739 1.0282 4.26995 0
M  V30 3426 H 328.345 2.486 3.45077 0
M  V30 3427 N 326.66 -1.06551 1.16123 0
M  V30 3428 C 327.906 -1.79567 0.94252 0
M  V30 3429 C 328.239 -1.86869 -0.528547 0
M  V30 3430 O 327.514 -1.35838 -1.39206 0
M  V30 3431 C 327.797 -3.24195 1.56747 0
M  V30 3432 C 327.65 -3.24989 3.10969 0
M  V30 3433 C 328.969 -4.21678 1.25998 0
M  V30 3434 H 326.088 -0.651883 0.343828 0
M  V30 3435 H 328.73 -1.2463 1.43413 0
M  V30 3436 H 326.88 -3.71107 1.14942 0
M  V30 3437 H 328.552 -2.86258 3.61737 0
M  V30 3438 H 326.795 -2.63716 3.44436 0
M  V30 3439 H 327.466 -4.27005 3.49815 0
M  V30 3440 H 329.942 -3.83196 1.62174 0
M  V30 3441 H 328.818 -5.21146 1.7233 0
M  V30 3442 H 329.079 -4.4174 0.178367 0
M  V30 3443 N 328.138 -0.959301 -1.25041 0
M  V30 3444 C 329.378 -0.624343 -1.94631 0
M  V30 3445 C 329.742 0.82403 -1.73418 0
M  V30 3446 O 330.943 1.26881 -2.3697 0
M  V30 3447 C 329.214 -0.978805 -3.43736 0
M  V30 3448 S 330.773 -0.757127 -4.32219 0
M  V30 3449 H 327.591 -0.229327 -0.673001 0
M  V30 3450 H 330.193 -1.23447 -1.51595 0
M  V30 3451 H 328.897 -2.02997 -3.56679 0
M  V30 3452 H 328.428 -0.359117 -3.91757 0
M  V30 3453 H 330.443 0.369759 -4.9482 0
M  V30 3454 N 329.616 1.39756 -0.72842 0
M  V30 3455 C 330.546 2.33289 -0.0991354 0
M  V30 3456 C 331.527 1.53568 0.731489 0
M  V30 3457 O 332.712 1.81987 0.677807 0
M  V30 3458 C 329.842 3.3763 0.813834 0
M  V30 3459 C 328.796 4.2791 0.0878663 0
M  V30 3460 C 328.122 5.22894 1.11741 0
M  V30 3461 C 329.422 5.11314 -1.06563 0
M  V30 3462 H 331.116 2.86163 -0.880408 0
M  V30 3463 H 328.662 1.37591 -0.424819 0
M  V30 3464 H 330.615 4.0201 1.26355 0
M  V30 3465 H 329.339 2.83181 1.62715 0
M  V30 3466 H 327.998 3.65 -0.342159 0
M  V30 3467 H 327.646 4.64744 1.92412 0
M  V30 3468 H 327.346 5.84143 0.636477 0
M  V30 3469 H 328.87 5.90151 1.56697 0
M  V30 3470 H 330.284 5.69076 -0.694671 0
M  V30 3471 H 328.681 5.81671 -1.47577 0
M  V30 3472 H 329.751 4.46534 -1.89038 0
M  V30 3473 N 331.094 0.475555 1.50254 0
M  V30 3474 C 332.505 0.0215174 1.86688 0
M  V30 3475 C 332.856 -1.38467 1.39001 0
M  V30 3476 O 331.981 -2.02732 0.756894 0
M  V30 3477 C 332.576 0.0322715 3.38785 0
M  V30 3478 C 331.135 -0.366314 3.74613 0
M  V30 3479 C 330.282 0.415832 2.74164 0
M  V30 3480 H 333.233 0.689612 1.42934 0
M  V30 3481 H 333.254 -0.76889 3.7265 0
M  V30 3482 H 332.766 1.05584 3.73462 0
M  V30 3483 H 330.867 -1.39406 3.45538 0
M  V30 3484 H 330.98 -0.064555 4.79057 0
M  V30 3485 H 329.344 -0.131048 2.54363 0
M  V30 3486 H 330.127 1.43899 3.11686 0
M  V30 3487 N 332.573 -1.56217 0.208337 0
M  V30 3488 C 333.984 -1.84243 -0.301904 0
M  V30 3489 C 334.335 -1.12939 -1.60434 0
M  V30 3490 O 333.46 -0.39461 -2.12772 0
M  V30 3491 C 334.055 -3.34231 -0.554543 0
M  V30 3492 C 332.614 -3.62621 -1.00912 0
M  V30 3493 C 331.761 -2.77224 -0.064933 0
M  V30 3494 H 334.712 -1.52712 0.431833 0
M  V30 3495 H 334.733 -3.5372 -1.40223 0
M  V30 3496 H 334.245 -3.86099 0.393561 0
M  V30 3497 H 332.346 -3.16197 -1.97104 0
M  V30 3498 H 332.459 -4.7071 -0.892674 0
M  V30 3499 H 330.823 -2.48256 -0.56929 0
M  V30 3500 H 331.606 -3.31887 0.877851 0
M  V30 3501 N 334.051 0.0651679 -1.57465 0
M  V30 3502 C 335.014 1.06117 -2.03155 0
M  V30 3503 C 336.014 1.31204 -0.929632 0
M  V30 3504 O 337.204 1.26813 -1.19432 0
M  V30 3505 C 334.336 2.4032 -2.41783 0
M  V30 3506 H 335.529 0.667231 -2.92383 0
M  V30 3507 H 333.082 0.311075 -1.53173 0
M  V30 3508 H 333.817 2.84532 -1.55601 0
M  V30 3509 H 333.602 2.23451 -3.22199 0
M  V30 3510 H 335.092 3.11898 -2.77685 0
M  V30 3511 N 335.529 1.53961 0.336706 0
M  V30 3512 C 336.806 1.62171 1.09361 0
M  V30 3513 C 337.186 0.447263 2.06307 0
M  V30 3514 O 336.534 -0.559802 2.21537 0
M  V30 3515 C 336.744 2.98565 1.80721 0
M  V30 3516 C 338.092 3.54157 2.34218 0
M  V30 3517 O 339.116 3.00784 1.90807 0
M  V30 3518 O 337.975 4.47528 3.13657 0
M  V30 3519 H 335.069 0.6562 0.503319 0
M  V30 3520 H 337.615 1.66307 0.33765 0
M  V30 3521 H 336.387 3.75482 1.10132 0
M  V30 3522 H 336.01 2.9805 2.63158 0
M  V30 3523 N 337.007 -0.598083 1.45811 0
M  V30 3524 C 337.937 -1.71873 1.58057 0
M  V30 3525 C 338.918 -1.64533 0.431615 0
M  V30 3526 O 340.103 -1.82787 0.65595 0
M  V30 3527 C 337.233 -3.10495 1.55597 0
M  V30 3528 C 336.187 -3.32654 2.69305 0
M  V30 3529 C 335.513 -4.71646 2.51902 0
M  V30 3530 C 336.813 -3.21981 4.11248 0
M  V30 3531 H 338.507 -1.61881 2.51863 0
M  V30 3532 H 336.053 -0.777372 1.21214 0
M  V30 3533 H 338.006 -3.88699 1.6276 0
M  V30 3534 H 336.73 -3.2135 0.583255 0
M  V30 3535 H 335.389 -2.56843 2.61586 0
M  V30 3536 H 335.037 -4.79246 1.52748 0
M  V30 3537 H 334.737 -4.87426 3.2816 0
M  V30 3538 H 336.261 -5.52038 2.60933 0
M  V30 3539 H 337.675 -3.90049 4.20161 0
M  V30 3540 H 336.072 -3.49289 4.87972 0
M  V30 3541 H 337.142 -2.1928 4.32486 0
M  V30 3542 N 338.485 -1.33259 -0.841409 0
M  V30 3543 C 339.417 -1.19136 -1.95804 0
M  V30 3544 C 340.43 -0.122965 -1.62335 0
M  V30 3545 O 341.619 -0.373154 -1.74556 0
M  V30 3546 C 338.719 -0.804268 -3.29218 0
M  V30 3547 C 337.892 -1.96376 -3.90839 0
M  V30 3548 C 336.951 -1.55806 -5.02604 0
M  V30 3549 O 335.977 -2.27203 -5.21888 0
M  V30 3550 N 337.179 -0.461609 -5.78662 0
M  V30 3551 H 339.944 -2.15326 -2.08458 0
M  V30 3552 H 337.505 -1.25971 -1.017 0
M  V30 3553 H 339.497 -0.51501 -4.0141 0
M  V30 3554 H 338.067 0.0668809 -3.12528 0
M  V30 3555 H 337.287 -2.41879 -3.11269 0
M  V30 3556 H 338.575 -2.73966 -4.28742 0
M  V30 3557 H 337.973 0.132343 -5.65545 0
M  V30 3558 H 336.53 -0.232013 -6.51387 0
M  V30 3559 N 339.963 1.05934 -1.16686 0
M  V30 3560 C 340.893 2.1546 -0.899949 0
M  V30 3561 C 341.874 1.69391 0.155154 0
M  V30 3562 O 343.059 1.94199 0.00648693 0
M  V30 3563 C 340.189 3.44939 -0.404241 0
M  V30 3564 C 339.143 4.04536 -1.39767 0
M  V30 3565 C 338.469 5.29268 -0.760216 0
M  V30 3566 C 339.769 4.42893 -2.76845 0
M  V30 3567 H 341.463 2.38046 -1.81588 0
M  V30 3568 H 339.009 1.14404 -0.874514 0
M  V30 3569 H 340.962 4.20901 -0.204971 0
M  V30 3570 H 339.686 3.21983 0.547206 0
M  V30 3571 H 338.345 3.30635 -1.58355 0
M  V30 3572 H 337.993 5.02611 0.197831 0
M  V30 3573 H 337.693 5.70101 -1.42332 0
M  V30 3574 H 339.217 6.07924 -0.57105 0
M  V30 3575 H 340.631 5.09921 -2.62019 0
M  V30 3576 H 339.028 4.94721 -3.39663 0
M  V30 3577 H 340.098 3.53584 -3.31823 0
M  V30 3578 N 341.441 0.965919 1.2453 0
M  V30 3579 C 342.852 0.665929 1.7442 0
M  V30 3580 C 343.203 -0.818407 1.78316 0
M  V30 3581 O 342.328 -1.64037 1.41141 0
M  V30 3582 C 342.923 1.20211 3.16757 0
M  V30 3583 C 341.482 0.952059 3.6416 0
M  V30 3584 C 340.629 1.33848 2.42858 0
M  V30 3585 H 343.58 1.14144 1.10258 0
M  V30 3586 H 343.601 0.567544 3.76244 0
M  V30 3587 H 343.113 2.28244 3.13889 0
M  V30 3588 H 341.214 -0.112821 3.72429 0
M  V30 3589 H 341.327 1.59645 4.51719 0
M  V30 3590 H 339.691 0.756864 2.43195 0
M  V30 3591 H 340.474 2.42827 2.42673 0
M  V30 3592 N 342.919 -1.39368 0.735821 0
M  V30 3593 C 344.196 -1.94465 0.210395 0
M  V30 3594 C 344.576 -1.67254 -1.28799 0
M  V30 3595 O 343.924 -1.00123 -2.05396 0
M  V30 3596 C 344.134 -3.4472 0.544897 0
M  V30 3597 C 345.482 -4.21708 0.494689 0
M  V30 3598 O 346.506 -3.52922 0.482136 0
M  V30 3599 O 345.365 -5.44299 0.489947 0
M  V30 3600 H 342.459 -0.826096 0.0386666 0
M  V30 3601 H 345.005 -1.48863 0.814735 0
M  V30 3602 H 343.777 -3.57963 1.58045 0
M  V30 3603 H 343.4 -3.97502 -0.08837 0
M  V30 3604 N 344.397 -0.483516 -1.5 0
M  V30 3605 C 345.643 0.0593261 -2.03313 0
M  V30 3606 C 345.998 1.36288 -1.35806 0
M  V30 3607 O 345.291 1.85519 -0.478897 0
M  V30 3608 C 345.485 0.286226 -3.56252 0
M  V30 3609 C 345.314 -0.993788 -4.38582 0
M  V30 3610 C 344.084 -1.54064 -4.81241 0
M  V30 3611 C 346.282 -1.89249 -4.78215 0
M  V30 3612 N 344.264 -2.76838 -5.47936 0
M  V30 3613 C 345.635 -2.96606 -5.44449 0
M  V30 3614 C 347.69 -1.90138 -4.60165 0
M  V30 3615 C 346.393 -4.04857 -5.94544 0
M  V30 3616 C 348.419 -2.97353 -5.1121 0
M  V30 3617 C 347.781 -4.03429 -5.77429 0
M  V30 3618 H 343.88 -0.0186322 -0.781778 0
M  V30 3619 H 346.464 -0.654489 -1.8337 0
M  V30 3620 H 344.635 0.969086 -3.76116 0
M  V30 3621 H 346.367 0.824515 -3.96212 0
M  V30 3622 H 343.122 -1.08813 -4.6093 0
M  V30 3623 H 343.546 -3.39221 -5.85882 0
M  V30 3624 H 348.188 -1.09441 -4.0839 0
M  V30 3625 H 345.906 -4.86363 -6.4535 0
M  V30 3626 H 349.492 -2.99039 -4.99066 0
M  V30 3627 H 348.372 -4.85025 -6.16214 0
M  V30 3628 N 345.875 1.56104 -0.216619 0
M  V30 3629 C 347.103 2.02563 0.421413 0
M  V30 3630 C 347.518 1.0965 1.53695 0
M  V30 3631 O 346.875 0.10521 1.82196 0
M  V30 3632 C 346.926 3.48584 0.957665 0
M  V30 3633 O 346.647 4.37953 -0.113389 0
M  V30 3634 C 348.148 4.10664 1.66943 0
M  V30 3635 H 345.368 0.662944 0.103665 0
M  V30 3636 H 347.912 2.01793 -0.331629 0
M  V30 3637 H 346.067 3.49985 1.661 0
M  V30 3638 H 346.481 5.23704 0.288932 0
M  V30 3639 H 347.955 5.14622 1.99671 0
M  V30 3640 H 348.432 3.55373 2.58083 0
M  V30 3641 H 349.038 4.13098 1.01142 0
M  V30 3642 N 347.353 -0.0568162 1.57498 0
M  V30 3643 C 348.263 -1.08346 2.08083 0
M  V30 3644 C 349.279 -1.41439 1.01346 0
M  V30 3645 O 350.455 -1.51316 1.32912 0
M  V30 3646 C 347.52 -2.37352 2.52715 0
M  V30 3647 C 346.581 -2.11093 3.73816 0
M  V30 3648 C 345.814 -3.33949 4.1631 0
M  V30 3649 O 346.037 -4.43622 3.58547 0
M  V30 3650 O 344.971 -3.21279 5.08983 0
M  V30 3651 H 348.797 -0.683667 2.95905 0
M  V30 3652 H 346.382 -0.271965 1.46904 0
M  V30 3653 H 348.264 -3.13246 2.81877 0
M  V30 3654 H 346.939 -2.76681 1.68016 0
M  V30 3655 H 345.846 -1.32856 3.49714 0
M  V30 3656 H 347.179 -1.76637 4.59413 0
M  V30 3657 N 348.832 -1.54138 -0.328536 0
M  V30 3658 C 350.072 -1.73827 -1.07534 0
M  V30 3659 C 350.436 -0.498777 -1.85408 0
M  V30 3660 O 351.637 -0.572937 -2.62623 0
M  V30 3661 C 349.908 -2.97573 -1.97952 0
M  V30 3662 S 351.467 -3.38143 -2.79652 0
M  V30 3663 H 348.285 -0.611287 -0.36311 0
M  V30 3664 H 350.887 -1.92306 -0.351931 0
M  V30 3665 H 349.591 -3.85939 -1.39569 0
M  V30 3666 H 349.122 -2.81603 -2.74706 0
M  V30 3667 H 351.137 -2.93052 -4.00418 0
M  V30 3668 N 350.31 0.590341 -1.46126 0
M  V30 3669 C 351.22 1.72793 -1.58681 0
M  V30 3670 C 352.236 1.67516 -0.470566 0
M  V30 3671 O 353.412 1.87562 -0.733642 0
M  V30 3672 C 350.477 3.09287 -1.5666 0
M  V30 3673 C 349.538 3.25886 -2.79458 0
M  V30 3674 C 348.771 4.55869 -2.77524 0
M  V30 3675 O 348.994 5.3928 -1.85832 0
M  V30 3676 O 347.928 4.75552 -3.68964 0
M  V30 3677 H 351.754 1.65149 -2.54872 0
M  V30 3678 H 349.339 0.756486 -1.28832 0
M  V30 3679 H 351.221 3.90577 -1.58202 0
M  V30 3680 H 349.896 3.17385 -0.636271 0
M  V30 3681 H 348.803 2.44119 -2.83472 0
M  V30 3682 H 350.136 3.22675 -3.71674 0
M  V30 3683 N 351.788 1.33704 0.83433 0
M  V30 3684 C 352.718 1.26967 1.95963 0
M  V30 3685 C 353.699 0.149337 1.69443 0
M  V30 3686 O 354.884 0.339852 1.91203 0
M  V30 3687 C 352.014 1.01275 3.32206 0
M  V30 3688 C 350.968 2.09652 3.73136 0
M  V30 3689 C 350.294 1.69166 5.07235 0
M  V30 3690 C 351.594 3.51372 3.86439 0
M  V30 3691 H 353.288 2.2112 2.01857 0
M  V30 3692 H 350.834 1.06447 0.969793 0
M  V30 3693 H 352.787 0.952106 4.10503 0
M  V30 3694 H 351.511 0.0356203 3.26581 0
M  V30 3695 H 350.17 2.14766 2.97104 0
M  V30 3696 H 349.818 0.701437 4.98085 0
M  V30 3697 H 349.518 2.41694 5.35591 0
M  V30 3698 H 351.042 1.64576 5.88003 0
M  V30 3699 H 352.456 3.48734 4.55036 0
M  V30 3700 H 350.853 4.22425 4.26236 0
M  V30 3701 H 351.923 3.89546 2.88759 0
M  V30 3702 N 353.266 -1.05314 1.17247 0
M  V30 3703 C 354.491 -1.82509 0.985148 0
M  V30 3704 C 354.916 -1.82343 -0.461788 0
M  V30 3705 O 354.274 -1.23151 -1.33055 0
M  V30 3706 C 354.322 -3.26566 1.52929 0
M  V30 3707 O 353.426 -4.05666 0.742225 0
M  V30 3708 H 352.767 -0.564347 0.349869 0
M  V30 3709 H 355.297 -1.32718 1.55715 0
M  V30 3710 H 355.307 -3.77369 1.55103 0
M  V30 3711 H 353.982 -3.26001 2.58256 0
M  V30 3712 H 352.559 -3.64397 0.791794 0
M  V30 3713 N 354.744 -0.972509 -1.24016 0
M  V30 3714 C 355.992 -0.635776 -1.91839 0
M  V30 3715 C 356.313 0.832312 -1.76345 0
M  V30 3716 O 355.583 1.5946 -1.13795 0
M  V30 3717 H 354.163 -0.232157 -0.710009 0
M  V30 3718 H 356.825 -1.23462 -1.50809 0
M  V30 3719 H 355.921 -0.880545 -2.99421 0
M  V30 3720 N 356.222 1.38976 -0.743202 0
M  V30 3721 C 357.452 2.04339 -0.304807 0
M  V30 3722 C 357.86 1.56162 1.06819 0
M  V30 3723 O 357.203 0.725284 1.68776 0
M  V30 3724 C 357.265 3.58716 -0.237369 0
M  V30 3725 C 356.929 4.29905 -1.55018 0
M  V30 3726 C 357.926 4.55987 -2.49744 0
M  V30 3727 C 355.611 4.68294 -1.81675 0
M  V30 3728 C 357.605 5.19478 -3.69353 0
M  V30 3729 C 355.292 5.31512 -3.0156 0
M  V30 3730 C 356.29 5.57037 -3.9522 0
M  V30 3731 O 355.978 6.18941 -5.12998 0
M  V30 3732 H 355.71 0.663439 -0.12971 0
M  V30 3733 H 358.264 1.78852 -1.01001 0
M  V30 3734 H 356.494 3.83133 0.524003 0
M  V30 3735 H 358.183 4.05543 0.170121 0
M  V30 3736 H 358.949 4.26767 -2.30423 0
M  V30 3737 H 354.828 4.47779 -1.09615 0
M  V30 3738 H 358.372 5.39318 -4.42473 0
M  V30 3739 H 354.269 5.60153 -3.20778 0
M  V30 3740 H 355.037 6.37433 -5.13441 0
M  V30 3741 N 357.7 0.491464 1.49741 0
M  V30 3742 C 358.948 -0.0563141 2.02022 0
M  V30 3743 C 359.269 -1.38363 1.37407 0
M  V30 3744 O 358.539 -1.88702 0.526166 0
M  V30 3745 H 357.119 -0.0238014 0.746621 0
M  V30 3746 H 359.781 0.646533 1.83864 0
M  V30 3747 H 358.877 -0.192967 3.11503 0
M  V30 3748 N 359.178 -1.55987 0.224894 0
M  V30 3749 C 360.125 -2.20436 -0.68385 0
M  V30 3750 C 361.095 -1.16102 -1.18783 0
M  V30 3751 O 362.28 -1.4447 -1.24632 0
M  V30 3752 C 359.42 -2.89076 -1.88491 0
M  V30 3753 C 358.533 -4.08012 -1.41951 0
M  V30 3754 C 357.668 -4.64426 -2.5784 0
M  V30 3755 C 356.707 -5.75656 -2.08053 0
M  V30 3756 N 355.844 -6.26347 -3.17227 0
M  V30 3757 H 360.684 -2.97727 -0.12754 0
M  V30 3758 H 358.221 -1.47011 -0.0511978 0
M  V30 3759 H 360.179 -3.27059 -2.59014 0
M  V30 3760 H 358.809 -2.14298 -2.41405 0
M  V30 3761 H 357.861 -3.75492 -0.609095 0
M  V30 3762 H 359.173 -4.88375 -1.01447 0
M  V30 3763 H 358.327 -5.04869 -3.3644 0
M  V30 3764 H 357.066 -3.83233 -3.01635 0
M  V30 3765 H 356.071 -5.34712 -1.27916 0
M  V30 3766 H 357.296 -6.58686 -1.65255 0
M  V30 3767 H 355.242 -5.48067 -3.60497 0
M  V30 3768 H 355.159 -7.01843 -2.80986 0
M  V30 3769 H 356.427 -6.71447 -3.95953 0
M  V30 3770 N 360.656 0.0484629 -1.57525 0
M  V30 3771 C 361.606 1.06246 -2.01732 0
M  V30 3772 C 362.59 1.33155 -0.903245 0
M  V30 3773 O 363.782 1.33065 -1.16717 0
M  V30 3774 C 360.911 2.36943 -2.48421 0
M  V30 3775 C 359.997 2.13208 -3.6661 0
M  V30 3776 N 360.388 1.5947 -4.80003 0
M  V30 3777 C 358.686 2.43581 -3.7361 0
M  V30 3778 C 359.387 1.51092 -5.61735 0
M  V30 3779 N 358.363 1.9797 -5.0627 0
M  V30 3780 H 362.165 0.640675 -2.86832 0
M  V30 3781 H 359.679 0.255134 -1.60383 0
M  V30 3782 H 361.676 3.10374 -2.78341 0
M  V30 3783 H 360.336 2.79818 -1.64718 0
M  V30 3784 H 361.347 1.28008 -5.01831 0
M  V30 3785 H 358.024 2.89662 -3.00669 0
M  V30 3786 H 359.414 1.10199 -6.62801 0
M  V30 3787 N 362.134 1.5431 0.320358 0
M  V30 3788 C 363.044 1.86946 1.41734 0
M  V30 3789 C 364.06 0.761689 1.56443 0
M  V30 3790 O 365.236 1.05629 1.71477 0
M  V30 3791 C 362.301 2.09293 2.76401 0
M  V30 3792 C 361.362 3.33082 2.70841 0
M  V30 3793 C 360.595 3.54353 3.99086 0
M  V30 3794 O 360.818 2.79002 4.97508 0
M  V30 3795 O 359.752 4.47838 4.0215 0
M  V30 3796 H 363.578 2.80232 1.17062 0
M  V30 3797 H 361.163 1.40255 0.514673 0
M  V30 3798 H 363.045 2.25303 3.56113 0
M  V30 3799 H 361.72 1.19194 3.00956 0
M  V30 3800 H 360.627 3.22454 1.89668 0
M  V30 3801 H 361.96 4.23249 2.5124 0
M  V30 3802 N 363.613 -0.582584 1.46437 0
M  V30 3803 C 364.576 -1.67366 1.56592 0
M  V30 3804 C 365.576 -1.54575 0.443072 0
M  V30 3805 O 366.766 -1.59191 0.707381 0
M  V30 3806 C 363.898 -3.06791 1.48634 0
M  V30 3807 H 365.091 -1.5972 2.5383 0
M  V30 3808 H 362.644 -0.800432 1.34249 0
M  V30 3809 H 363.379 -3.19993 0.526763 0
M  V30 3810 H 363.164 -3.17484 2.30101 0
M  V30 3811 H 364.654 -3.86218 1.58826 0
M  V30 3812 N 365.091 -1.34144 -0.827227 0
M  V30 3813 C 366.021 -1.28005 -1.95287 0
M  V30 3814 C 367.002 -0.158321 -1.69362 0
M  V30 3815 O 368.187 -0.349987 -1.9102 0
M  V30 3816 C 365.317 -1.03036 -3.31664 0
M  V30 3817 C 364.271 -2.11628 -3.72019 0
M  V30 3818 C 363.597 -1.71854 -5.0633 0
M  V30 3819 C 364.897 -3.53417 -3.8457 0
M  V30 3820 H 366.591 -2.22187 -2.00682 0
M  V30 3821 H 364.137 -1.0696 -0.964135 0
M  V30 3822 H 366.09 -0.973863 -4.09993 0
M  V30 3823 H 364.814 -0.0529391 -3.26557 0
M  V30 3824 H 363.473 -2.16339 -2.95961 0
M  V30 3825 H 363.121 -0.727841 -4.97706 0
M  V30 3826 H 362.821 -2.44531 -5.34302 0
M  V30 3827 H 364.345 -1.67692 -5.87122 0
M  V30 3828 H 365.759 -3.51142 -4.5318 0
M  V30 3829 H 364.156 -4.24679 -4.2399 0
M  V30 3830 H 365.226 -3.91072 -2.86689 0
M  V30 3831 N 366.569 1.04691 -1.17803 0
M  V30 3832 C 367.794 1.81984 -0.994813 0
M  V30 3833 C 368.219 1.82586 0.452112 0
M  V30 3834 O 367.577 1.23854 1.324 0
M  V30 3835 C 367.625 3.2575 -1.54659 0
M  V30 3836 O 366.729 4.05267 -0.763728 0
M  V30 3837 H 366.07 0.562483 -0.352857 0
M  V30 3838 H 368.6 1.3189 -1.56417 0
M  V30 3839 H 368.61 3.76541 -1.57102 0
M  V30 3840 H 367.285 3.24627 -2.59981 0
M  V30 3841 H 365.862 3.63972 -0.811108 0
M  V30 3842 N 368.047 0.979072 1.23499 0
M  V30 3843 C 369.458 0.684391 1.73704 0
M  V30 3844 C 369.809 -0.799448 1.79174 0
M  V30 3845 O 368.934 -1.62531 1.42873 0
M  V30 3846 C 369.529 1.23564 3.15464 0
M  V30 3847 C 368.088 0.99063 3.6313 0
M  V30 3848 C 367.235 1.36416 2.41425 0
M  V30 3849 H 370.186 1.15307 1.09041 0
M  V30 3850 H 370.207 0.607417 3.7562 0
M  V30 3851 H 369.719 2.31561 3.1145 0
M  V30 3852 H 367.82 -0.0733136 3.72528 0
M  V30 3853 H 367.933 1.64427 4.5 0
M  V30 3854 H 366.297 0.782616 2.42378 0
M  V30 3855 H 367.08 2.45387 2.40083 0
M  V30 3856 N 369.525 -1.3858 0.750561 0
M  V30 3857 C 370.772 -2.00184 0.305373 0
M  V30 3858 C 371.1 -1.59575 -1.11203 0
M  V30 3859 O 370.355 -0.823236 -1.77542 0
M  V30 3860 C 370.654 -3.55455 0.372373 0
M  V30 3861 C 370.32 -4.15765 1.745 0
M  V30 3862 C 368.982 -4.31951 2.12065 0
M  V30 3863 C 371.334 -4.49067 2.64553 0
M  V30 3864 C 368.662 -4.78734 3.39162 0
M  V30 3865 C 371.014 -4.97265 3.91038 0
M  V30 3866 C 369.678 -5.11658 4.28676 0
M  V30 3867 H 368.948 -0.732526 0.111744 0
M  V30 3868 H 371.595 -1.65673 0.960451 0
M  V30 3869 H 369.9 -3.90084 -0.366272 0
M  V30 3870 H 371.597 -4.00999 0.00953918 0
M  V30 3871 H 368.187 -4.03579 1.44297 0
M  V30 3872 H 372.371 -4.36166 2.36796 0
M  V30 3873 H 367.627 -4.88062 3.68246 0
M  V30 3874 H 371.801 -5.22003 4.60962 0
M  V30 3875 H 369.428 -5.47668 5.27222 0
M  V30 3876 N 371.003 -0.499398 -1.49478 0
M  V30 3877 C 372.233 0.0424839 -2.06556 0
M  V30 3878 C 372.641 1.31514 -1.36018 0
M  V30 3879 O 371.984 1.78555 -0.431718 0
M  V30 3880 C 372.046 0.368074 -3.57611 0
M  V30 3881 C 371.71 -0.806631 -4.49825 0
M  V30 3882 C 372.707 -1.69667 -4.91436 0
M  V30 3883 C 370.392 -1.00498 -4.92144 0
M  V30 3884 C 372.386 -2.76923 -5.74101 0
M  V30 3885 C 370.073 -2.08072 -5.74586 0
M  V30 3886 C 371.071 -2.96119 -6.15469 0
M  V30 3887 O 370.759 -4.01836 -6.96264 0
M  V30 3888 H 370.491 -0.0165165 -0.675798 0
M  V30 3889 H 373.045 -0.695497 -1.93267 0
M  V30 3890 H 371.275 1.15963 -3.68903 0
M  V30 3891 H 372.964 0.848381 -3.96935 0
M  V30 3892 H 373.73 -1.55524 -4.59388 0
M  V30 3893 H 369.609 -0.329036 -4.59824 0
M  V30 3894 H 373.153 -3.45676 -6.05932 0
M  V30 3895 H 369.05 -2.22211 -6.06047 0
M  V30 3896 H 369.818 -3.9917 -7.14567 0
M  V30 3897 N 372.481 1.55866 -0.233164 0
M  V30 3898 C 373.706 2.03449 0.402906 0
M  V30 3899 C 374.131 1.11166 1.51736 0
M  V30 3900 O 373.489 0.101996 1.81013 0
M  V30 3901 C 373.537 3.49165 0.9009 0
M  V30 3902 O 372.641 3.60019 2.01147 0
M  V30 3903 H 371.982 0.657913 0.0897025 0
M  V30 3904 H 374.512 2.01493 -0.355201 0
M  V30 3905 H 374.522 3.89716 1.2077 0
M  V30 3906 H 373.197 4.15813 0.0852889 0
M  V30 3907 H 371.774 3.3136 1.71042 0
M  V30 3908 N 373.959 -0.0401083 1.57549 0
M  V30 3909 C 374.869 -1.06133 2.0922 0
M  V30 3910 C 375.885 -1.40356 1.0284 0
M  V30 3911 O 377.061 -1.49897 1.34509 0
M  V30 3912 C 374.126 -2.34658 2.55218 0
M  V30 3913 C 373.187 -2.07117 3.76033 0
M  V30 3914 C 372.42 -3.29514 4.19829 0
M  V30 3915 O 372.643 -4.39794 3.63232 0
M  V30 3916 O 371.577 -3.15863 5.12362 0
M  V30 3917 H 375.403 -0.652244 2.96613 0
M  V30 3918 H 372.988 -0.256368 1.47184 0
M  V30 3919 H 374.87 -3.10239 2.85184 0
M  V30 3920 H 373.545 -2.74883 1.70941 0
M  V30 3921 H 372.452 -1.29139 3.51104 0
M  V30 3922 H 373.785 -1.71754 4.61261 0
M  V30 3923 N 375.437 -1.54477 -0.31217 0
M  V30 3924 C 376.853 -1.45442 -0.657185 0
M  V30 3925 C 377.053 -0.63653 -1.91182 0
M  V30 3926 O 376.109 -0.139815 -2.52113 0
M  V30 3927 C 377.422 -2.89287 -0.82058 0
M  V30 3928 C 378.97 -2.9926 -0.917188 0
M  V30 3929 C 379.445 -4.44279 -1.11267 0
M  V30 3930 N 380.936 -4.4794 -1.17914 0
M  V30 3931 C 381.671 -5.57318 -1.34848 0
M  V30 3932 N 381.167 -6.76642 -1.48752 0
M  V30 3933 N 382.96 -5.44986 -1.37647 0
M  V30 3934 H 375.111 -2.06129 0.512313 0
M  V30 3935 H 377.374 -0.933088 0.167485 0
M  V30 3936 H 377.08 -3.51687 0.0302604 0
M  V30 3937 H 376.954 -3.36061 -1.71298 0
M  V30 3938 H 379.341 -2.36981 -1.75852 0
M  V30 3939 H 379.422 -2.558 -0.00101257 0
M  V30 3940 H 379.066 -5.07149 -0.27614 0
M  V30 3941 H 378.996 -4.85359 -2.04289 0
M  V30 3942 H 381.487 -3.61969 -1.08567 0
M  V30 3943 H 381.8 -7.55758 -1.61397 0
M  V30 3944 H 380.145 -6.79529 -1.45828 0
M  V30 3945 H 383.336 -4.50715 -1.26388 0
M  V30 3946 H 383.509 -6.3028 -1.50501 0
M  V30 3947 N 376.915 0.57481 -1.46744 0
M  V30 3948 C 377.845 1.69337 -1.60771 0
M  V30 3949 C 378.826 1.63825 -0.457736 0
M  V30 3950 O 380.011 1.8172 -0.684947 0
M  V30 3951 C 377.141 3.0798 -1.60517 0
M  V30 3952 C 376.095 3.28327 -2.74564 0
M  V30 3953 C 375.421 4.67578 -2.59373 0
M  V30 3954 C 376.721 3.15398 -4.16319 0
M  V30 3955 H 378.415 1.57853 -2.54407 0
M  V30 3956 H 375.961 0.75799 -1.22436 0
M  V30 3957 H 377.914 3.86061 -1.68923 0
M  V30 3958 H 376.638 3.20381 -0.634305 0
M  V30 3959 H 375.297 2.52649 -2.65639 0
M  V30 3960 H 374.945 4.76755 -1.60353 0
M  V30 3961 H 374.645 4.82144 -3.35873 0
M  V30 3962 H 376.169 5.47817 -2.69682 0
M  V30 3963 H 377.583 3.83315 -4.26313 0
M  V30 3964 H 375.98 3.41482 -4.93468 0
M  V30 3965 H 377.05 2.12372 -4.3592 0
M  V30 3966 N 378.394 1.34581 0.820102 0
M  V30 3967 C 379.341 1.2639 1.93117 0
M  V30 3968 C 380.311 0.138554 1.65521 0
M  V30 3969 O 381.496 0.320004 1.88097 0
M  V30 3970 C 378.636 1.02812 3.29429 0
M  V30 3971 C 377.749 2.24146 3.693 0
M  V30 3972 C 376.884 1.93829 4.94574 0
M  V30 3973 C 375.923 3.1129 5.27034 0
M  V30 3974 N 375.06 2.80838 6.43486 0
M  V30 3975 H 379.9 2.21408 1.99455 0
M  V30 3976 H 377.437 1.10077 0.975784 0
M  V30 3977 H 379.395 0.871788 4.0799 0
M  V30 3978 H 378.025 0.114612 3.22596 0
M  V30 3979 H 377.077 2.50691 2.86109 0
M  V30 3980 H 378.389 3.11899 3.89257 0
M  V30 3981 H 377.543 1.74948 5.80929 0
M  V30 3982 H 376.282 1.03341 4.76626 0
M  V30 3983 H 375.287 3.30764 4.39175 0
M  V30 3984 H 376.512 4.02561 5.4692 0
M  V30 3985 H 374.458 1.92929 6.26988 0
M  V30 3986 H 374.375 3.62123 6.63629 0
M  V30 3987 H 375.643 2.65467 7.32903 0
M  V30 3988 N 379.872 -1.04064 1.18357 0
M  V30 3989 C 380.782 -2.15569 0.925596 0
M  V30 3990 C 381.798 -1.7365 -0.110295 0
M  V30 3991 O 382.974 -2.01273 0.0716218 0
M  V30 3992 C 380.039 -3.43704 0.454836 0
M  V30 3993 C 379.1 -4.00004 1.55869 0
M  V30 3994 C 378.333 -5.22023 1.1103 0
M  V30 3995 O 378.556 -5.70392 -0.0309756 0
M  V30 3996 O 377.49 -5.70856 1.90805 0
M  V30 3997 H 381.316 -2.40187 1.8586 0
M  V30 3998 H 378.901 -1.1402 0.965394 0
M  V30 3999 H 380.783 -4.20923 0.200382 0
M  V30 4000 H 379.458 -3.20559 -0.449876 0
M  V30 4001 H 378.365 -3.24172 1.86716 0
M  V30 4002 H 379.698 -4.2749 2.43953 0
M  V30 4003 N 381.35 -0.985608 -1.22978 0
M  V30 4004 C 382.313 -0.535071 -2.22867 0
M  V30 4005 C 383.313 0.378123 -1.56291 0
M  V30 4006 O 384.503 0.171092 -1.73358 0
M  V30 4007 C 381.635 0.222702 -3.40172 0
M  V30 4008 H 382.828 -1.41835 -2.6424 0
M  V30 4009 H 380.381 -0.772042 -1.35901 0
M  V30 4010 H 381.116 1.12229 -3.04262 0
M  V30 4011 H 380.901 -0.43288 -3.89703 0
M  V30 4012 H 382.391 0.526335 -4.1427 0
M  V30 4013 N 382.828 1.3818 -0.7579 0
M  V30 4014 C 383.778 2.27741 -0.108674 0
M  V30 4015 C 384.762 1.45415 0.688709 0
M  V30 4016 O 385.954 1.68108 0.553956 0
M  V30 4017 C 383.083 3.34313 0.780367 0
M  V30 4018 C 382.169 4.24093 -0.0240977 0
M  V30 4019 N 382.56 4.9451 -1.06271 0
M  V30 4020 C 380.858 4.45542 0.202049 0
M  V30 4021 C 381.559 5.60675 -1.54979 0
M  V30 4022 N 380.535 5.36684 -0.864348 0
M  V30 4023 H 384.337 2.79649 -0.904071 0
M  V30 4024 H 381.851 1.51133 -0.594346 0
M  V30 4025 H 383.848 3.97368 1.26114 0
M  V30 4026 H 382.508 2.83962 1.57467 0
M  V30 4027 H 383.519 4.97345 -1.44459 0
M  V30 4028 H 380.196 4.06091 0.96935 0
M  V30 4029 H 381.586 6.26992 -2.41517 0
M  V30 4030 N 384.306 0.507319 1.49211 0
M  V30 4031 C 385.552 -0.0350047 2.0277 0
M  V30 4032 C 385.885 -1.3606 1.38569 0
M  V30 4033 O 385.16 -1.87321 0.523542 0
M  V30 4034 C 385.443 -0.180916 3.59645 0
M  V30 4035 C 385.296 1.16825 4.34364 0
M  V30 4036 C 386.615 -0.918558 4.30407 0
M  V30 4037 H 383.734 -0.0112473 0.736914 0
M  V30 4038 H 386.376 0.659956 1.7817 0
M  V30 4039 H 384.526 -0.772826 3.80736 0
M  V30 4040 H 386.198 1.79952 4.24753 0
M  V30 4041 H 384.441 1.75594 3.96673 0
M  V30 4042 H 385.112 1.01939 5.42506 0
M  V30 4043 H 387.588 -0.41649 4.1401 0
M  V30 4044 H 386.464 -0.989505 5.39907 0
M  V30 4045 H 386.725 -1.96373 3.96093 0
M  V30 4046 N 385.784 -1.5574 0.241426 0
M  V30 4047 C 387.2 -1.59196 -0.113548 0
M  V30 4048 C 387.4 -1.25852 -1.57364 0
M  V30 4049 O 386.456 -1.00322 -2.31715 0
M  V30 4050 C 387.769 -2.99814 0.230695 0
M  V30 4051 C 389.317 -3.12513 0.174547 0
M  V30 4052 C 389.792 -4.55342 0.492744 0
M  V30 4053 N 391.283 -4.61076 0.443043 0
M  V30 4054 C 392.018 -5.6956 0.662484 0
M  V30 4055 N 391.514 -6.86328 0.944761 0
M  V30 4056 N 393.307 -5.58957 0.593564 0
M  V30 4057 H 385.458 -1.75685 1.19368 0
M  V30 4058 H 387.721 -0.81756 0.479896 0
M  V30 4059 H 387.427 -3.28932 1.24485 0
M  V30 4060 H 387.301 -3.74568 -0.444833 0
M  V30 4061 H 389.688 -2.83179 -0.830277 0
M  V30 4062 H 389.769 -2.40045 0.883845 0
M  V30 4063 H 389.413 -4.85396 1.4951 0
M  V30 4064 H 389.343 -5.26062 -0.23797 0
M  V30 4065 H 391.834 -3.77179 0.233374 0
M  V30 4066 H 392.147 -7.64935 1.09977 0
M  V30 4067 H 390.492 -6.88025 0.982175 0
M  V30 4068 H 393.683 -4.66611 0.373123 0
M  V30 4069 H 393.856 -6.43433 0.767981 0
M  V30 4070 N 387.262 0.0317525 -1.57568 0
M  V30 4071 C 388.192 1.03274 -2.0942 0
M  V30 4072 C 389.173 1.3788 -0.996143 0
M  V30 4073 O 390.358 1.46811 -1.27122 0
M  V30 4074 C 387.488 2.33448 -2.57137 0
M  V30 4075 C 386.442 2.13091 -3.71182 0
M  V30 4076 C 385.768 3.49001 -4.05095 0
M  V30 4077 C 387.068 1.51928 -4.99715 0
M  V30 4078 H 388.762 0.60112 -2.93303 0
M  V30 4079 H 386.308 0.287705 -1.41097 0
M  V30 4080 H 388.261 3.03802 -2.92032 0
M  V30 4081 H 386.985 2.78665 -1.70333 0
M  V30 4082 H 385.644 1.45171 -3.36632 0
M  V30 4083 H 385.292 3.91862 -3.15362 0
M  V30 4084 H 384.992 3.36207 -4.81911 0
M  V30 4085 H 386.516 4.20721 -4.42522 0
M  V30 4086 H 387.93 2.12196 -5.32584 0
M  V30 4087 H 386.327 1.49716 -5.81124 0
M  V30 4088 H 387.397 0.484811 -4.8247 0
M  V30 4089 N 388.74 1.54641 0.303973 0
M  V30 4090 C 389.97 1.77511 1.05705 0
M  V30 4091 C 390.378 0.533228 1.81531 0
M  V30 4092 O 389.721 -0.506423 1.76582 0
M  V30 4093 C 389.783 2.92779 2.08617 0
M  V30 4094 C 389.447 4.30977 1.52013 0
M  V30 4095 C 390.444 5.11115 0.9517 0
M  V30 4096 C 388.129 4.77571 1.55665 0
M  V30 4097 C 390.123 6.35966 0.427327 0
M  V30 4098 C 387.81 6.02384 1.02841 0
M  V30 4099 C 388.808 6.81417 0.464713 0
M  V30 4100 O 388.496 8.03881 -0.0555283 0
M  V30 4101 H 388.228 0.59579 0.319391 0
M  V30 4102 H 390.782 2.02401 0.349712 0
M  V30 4103 H 389.012 2.63506 2.83022 0
M  V30 4104 H 390.701 3.03252 2.69802 0
M  V30 4105 H 391.467 4.76264 0.916407 0
M  V30 4106 H 387.346 4.16085 1.9848 0
M  V30 4107 H 390.89 6.97599 -0.0133062 0
M  V30 4108 H 386.787 6.36723 1.06084 0
M  V30 4109 H 387.555 8.18479 0.0580522 0
M  V30 4110 N 390.218 -0.567019 1.47046 0
M  V30 4111 C 391.629 -1.14916 1.47143 0
M  V30 4112 C 391.98 -1.94954 0.220767 0
M  V30 4113 O 391.105 -2.05602 -0.67505 0
M  V30 4114 C 391.7 -2.09069 2.666 0
M  V30 4115 C 390.259 -2.62575 2.69687 0
M  V30 4116 C 389.406 -1.38755 2.40088 0
M  V30 4117 H 392.357 -0.354126 1.54699 0
M  V30 4118 H 392.378 -2.92789 2.43011 0
M  V30 4119 H 391.89 -1.50789 3.57609 0
M  V30 4120 H 389.991 -3.24681 1.82792 0
M  V30 4121 H 390.104 -3.04239 3.70102 0
M  V30 4122 H 388.468 -1.69098 1.90468 0
M  V30 4123 H 389.251 -0.822822 3.33293 0
M  V30 4124 N 391.696 -1.35014 -0.812953 0
M  V30 4125 C 392.921 -1.31187 -1.60639 0
M  V30 4126 C 393.346 0.109382 -1.87782 0
M  V30 4127 O 392.704 1.07424 -1.46047 0
M  V30 4128 C 392.752 -2.11809 -2.91838 0
M  V30 4129 O 391.856 -1.49444 -3.8437 0
M  V30 4130 H 391.197 -0.450084 -0.488181 0
M  V30 4131 H 393.727 -1.77963 -1.00947 0
M  V30 4132 H 393.737 -2.23531 -3.41318 0
M  V30 4133 H 392.412 -3.15137 -2.71407 0
M  V30 4134 H 390.989 -1.46524 -3.42907 0
M  V30 4135 N 393.175 1.03435 -1.18907 0
M  V30 4136 C 394.4 1.80919 -1.01406 0
M  V30 4137 C 394.825 1.83055 0.432721 0
M  V30 4138 O 394.183 1.25252 1.31079 0
M  V30 4139 C 394.231 3.24091 -1.58105 0
M  V30 4140 O 393.335 4.04434 -0.806669 0
M  V30 4141 H 392.676 0.558709 -0.358803 0
M  V30 4142 H 395.206 1.30223 -1.57807 0
M  V30 4143 H 395.216 3.74853 -1.61087 0
M  V30 4144 H 393.891 3.21851 -2.6341 0
M  V30 4145 H 392.468 3.63091 -0.849666 0
M  V30 4146 N 394.653 0.992116 1.22453 0
M  V30 4147 C 396.069 0.702713 1.43297 0
M  V30 4148 C 396.269 -0.726909 1.87932 0
M  V30 4149 O 395.325 -1.49792 2.0327 0
M  V30 4150 C 396.638 1.70762 2.47509 0
M  V30 4151 C 398.186 1.72298 2.61309 0
M  V30 4152 C 398.661 2.71649 3.68742 0
M  V30 4153 N 400.152 2.70239 3.76199 0
M  V30 4154 C 400.887 3.43778 4.58917 0
M  V30 4155 N 400.383 4.26914 5.45633 0
M  V30 4156 N 402.176 3.32487 4.5322 0
M  V30 4157 H 394.327 1.91543 0.917871 0
M  V30 4158 H 396.59 0.826031 0.465162 0
M  V30 4159 H 396.296 2.73059 2.21657 0
M  V30 4160 H 396.17 1.49985 3.46099 0
M  V30 4161 H 398.557 0.706989 2.86506 0
M  V30 4162 H 398.638 1.97143 1.62997 0
M  V30 4163 H 398.282 3.73397 3.44292 0
M  V30 4164 H 398.212 2.44074 4.66622 0
M  V30 4165 H 400.703 2.09912 3.14237 0
M  V30 4166 H 401.016 4.79855 6.05771 0
M  V30 4167 H 399.361 4.31002 5.45218 0
M  V30 4168 H 402.552 2.6698 3.84499 0
M  V30 4169 H 402.725 3.90058 5.17454 0
M  V30 4170 N 396.131 -1.37776 0.765217 0
M  V30 4171 C 397.371 -2.01691 0.331669 0
M  V30 4172 C 397.735 -1.59432 -1.06983 0
M  V30 4173 O 398.936 -2.15761 -1.60314 0
M  V30 4174 C 397.207 -3.54385 0.463261 0
M  V30 4175 S 398.766 -4.38652 0.114011 0
M  V30 4176 H 395.584 -0.699387 0.127979 0
M  V30 4177 H 398.186 -1.68084 0.998396 0
M  V30 4178 H 396.89 -3.82629 1.48401 0
M  V30 4179 H 396.421 -3.92783 -0.220246 0
M  V30 4180 H 398.436 -4.84021 -1.09261 0
M  V30 4181 N 397.609 -0.515225 -1.4894 0
M  V30 4182 C 398.837 0.0206034 -2.0689 0
M  V30 4183 C 399.252 1.29514 -1.37374 0
M  V30 4184 O 398.609 1.76698 -0.456529 0
M  V30 4185 C 398.66 0.26351 -3.60538 0
M  V30 4186 O 398.381 -0.960517 -4.27441 0
M  V30 4187 C 399.882 0.841383 -4.35242 0
M  V30 4188 H 397.102 -0.0268608 -0.670462 0
M  V30 4189 H 399.646 -0.716651 -1.91532 0
M  V30 4190 H 397.801 0.950777 -3.75552 0
M  V30 4191 H 398.215 -0.73212 -5.19365 0
M  V30 4192 H 399.689 0.96085 -5.43573 0
M  V30 4193 H 400.166 1.8427 -3.98674 0
M  V30 4194 H 400.772 0.191143 -4.2487 0
M  V30 4195 N 399.087 1.5561 -0.249682 0
M  V30 4196 C 400.312 2.03865 0.381305 0
M  V30 4197 C 400.737 1.12769 1.50548 0
M  V30 4198 O 400.095 0.121189 1.80895 0
M  V30 4199 C 400.143 3.50101 0.863816 0
M  V30 4200 O 399.247 3.62132 1.97318 0
M  V30 4201 H 398.588 0.658827 0.0827194 0
M  V30 4202 H 401.118 2.01105 -0.376552 0
M  V30 4203 H 401.128 3.90975 1.1663 0
M  V30 4204 H 399.803 4.1588 0.0411816 0
M  V30 4205 H 398.38 3.33155 1.67517 0
M  V30 4206 N 400.565 -0.0233959 1.57583 0
M  V30 4207 C 401.497 -1.04994 2.03737 0
M  V30 4208 C 402.51 -1.32125 0.951152 0
M  V30 4209 O 403.699 -1.29512 1.22837 0
M  V30 4210 C 400.799 -2.39026 2.40249 0
M  V30 4211 C 399.972 -2.31171 3.7132 0
M  V30 4212 C 399.031 -3.47698 3.94959 0
M  V30 4213 O 398.057 -3.26937 4.65941 0
M  V30 4214 N 399.259 -4.6976 3.41037 0
M  V30 4215 H 402.024 -0.656507 2.92421 0
M  V30 4216 H 399.585 -0.211235 1.60516 0
M  V30 4217 H 401.577 -3.15712 2.53196 0
M  V30 4218 H 400.147 -2.70194 1.57207 0
M  V30 4219 H 399.367 -1.39547 3.68674 0
M  V30 4220 H 400.655 -2.23071 4.57293 0
M  V30 4221 H 400.053 -4.89528 2.83512 0
M  V30 4222 H 398.61 -5.43791 3.59353 0
M  V30 4223 N 402.043 -1.548 -0.295768 0
M  V30 4224 C 402.993 -1.82497 -1.3667 0
M  V30 4225 C 403.977 -0.682434 -1.45711 0
M  V30 4226 O 405.169 -0.943207 -1.49775 0
M  V30 4227 C 402.298 -2.08036 -2.73086 0
M  V30 4228 C 401.384 -3.28488 -2.68247 0
M  V30 4229 N 401.775 -4.48924 -2.33025 0
M  V30 4230 C 400.073 -3.3062 -2.99343 0
M  V30 4231 C 400.774 -5.30956 -2.37613 0
M  V30 4232 N 399.75 -4.68805 -2.75178 0
M  V30 4233 H 403.552 -2.73175 -1.0841 0
M  V30 4234 H 401.066 -1.5437 -0.504361 0
M  V30 4235 H 403.063 -2.26027 -3.5031 0
M  V30 4236 H 401.723 -1.18629 -3.02254 0
M  V30 4237 H 402.734 -4.75432 -2.05389 0
M  V30 4238 H 399.411 -2.51336 -3.33371 0
M  V30 4239 H 400.801 -6.37199 -2.13135 0
M  V30 4240 N 403.521 0.559213 -1.47345 0
M  V30 4241 C 404.451 1.67622 -1.62558 0
M  V30 4242 C 405.432 1.63331 -0.475087 0
M  V30 4243 O 406.617 1.80983 -0.704182 0
M  V30 4244 C 403.747 3.0626 -1.63774 0
M  V30 4245 C 402.701 3.25397 -2.7803 0
M  V30 4246 C 402.027 4.64801 -2.64318 0
M  V30 4247 C 403.327 3.10965 -4.19641 0
M  V30 4248 H 405.021 1.55146 -2.56067 0
M  V30 4249 H 402.567 0.744961 -1.23233 0
M  V30 4250 H 404.52 3.84247 -1.73008 0
M  V30 4251 H 403.244 3.1969 -0.66825 0
M  V30 4252 H 401.903 2.49817 -2.68304 0
M  V30 4253 H 401.551 4.75028 -1.65401 0
M  V30 4254 H 401.251 4.78555 -3.40968 0
M  V30 4255 H 402.775 5.44926 -2.75478 0
M  V30 4256 H 404.189 3.78772 -4.30354 0
M  V30 4257 H 402.586 3.36229 -4.97062 0
M  V30 4258 H 403.656 2.07736 -4.38148 0
M  V30 4259 N 404.999 1.35443 0.805782 0
M  V30 4260 C 405.929 1.31095 1.93226 0
M  V30 4261 C 406.91 0.185244 1.69088 0
M  V30 4262 O 408.095 0.380332 1.90439 0
M  V30 4263 C 405.225 1.08299 3.29983 0
M  V30 4264 C 404.179 2.17519 3.68605 0
M  V30 4265 C 403.505 1.79887 5.03532 0
M  V30 4266 C 404.805 3.5949 3.78898 0
M  V30 4267 H 406.499 2.25352 1.97122 0
M  V30 4268 H 404.045 1.0848 0.946996 0
M  V30 4269 H 405.998 1.03897 4.08391 0
M  V30 4270 H 404.722 0.104885 3.26432 0
M  V30 4271 H 403.381 2.2102 2.92482 0
M  V30 4272 H 403.029 0.80693 4.96485 0
M  V30 4273 H 402.729 2.53001 5.30344 0
M  V30 4274 H 404.253 1.77011 5.84379 0
M  V30 4275 H 405.667 3.58307 4.47536 0
M  V30 4276 H 404.064 4.31371 4.1718 0
M  V30 4277 H 405.134 3.95584 2.80431 0
M  V30 4278 N 406.477 -1.02803 1.19454 0
M  V30 4279 C 407.425 -2.13213 0.929673 0
M  V30 4280 C 408.419 -1.69011 -0.114806 0
M  V30 4281 O 409.625 -1.79967 0.0345147 0
M  V30 4282 H 406 -0.69662 0.28324 0
M  V30 4283 H 407.971 -2.32744 1.86743 0
M  V30 4284 C 406.72 -3.4429 0.485797 0
M  V30 4285 H 406.043 -3.7872 1.28105 0
M  V30 4286 H 407.483 -4.22638 0.339582 0
M  V30 4287 C 405.942 -3.27258 -0.800244 0
M  V30 4288 O 406.472 -3.55967 -1.86146 0
M  V30 4289 N 404.678 -2.80545 -0.75781 0
M  V30 4290 H 404.225 -2.57382 0.106039 0
M  V30 4291 H 404.183 -2.6953 -1.61867 0
M  V30 4292 N 407.956 -0.998596 -1.21925 0
M  V30 4293 C 409.372 -0.710303 -1.42923 0
M  V30 4294 C 409.572 0.716933 -1.88314 0
M  V30 4295 O 408.628 1.48712 -2.04062 0
M  V30 4296 C 409.941 -1.72072 -2.466 0
M  V30 4297 C 411.489 -1.73681 -2.60392 0
M  V30 4298 C 411.964 -2.73601 -3.67296 0
M  V30 4299 N 413.455 -2.7223 -3.7476 0
M  V30 4300 C 414.19 -3.46206 -4.57087 0
M  V30 4301 N 413.686 -4.29802 -5.43362 0
M  V30 4302 N 415.479 -3.34886 -4.51451 0
M  V30 4303 H 407.63 -1.92028 -0.9077 0
M  V30 4304 H 409.893 -0.828487 -0.460775 0
M  V30 4305 H 409.599 -2.74231 -2.20206 0
M  V30 4306 H 409.473 -1.51818 -3.45299 0
M  V30 4307 H 411.86 -0.722173 -2.86127 0
M  V30 4308 H 411.941 -1.98005 -1.61949 0
M  V30 4309 H 411.585 -3.75217 -3.42307 0
M  V30 4310 H 411.515 -2.46545 -4.65321 0
M  V30 4311 H 414.006 -2.11576 -3.1312 0
M  V30 4312 H 414.319 -4.83061 -6.03218 0
M  V30 4313 H 412.664 -4.33887 -5.42925 0
M  V30 4314 H 415.855 -2.69015 -3.83078 0
M  V30 4315 H 416.028 -3.92796 -5.15379 0
M  V30 4316 N 409.434 1.37368 -0.772513 0
M  V30 4317 C 410.662 2.03942 -0.348588 0
M  V30 4318 C 411.077 1.58264 1.02947 0
M  V30 4319 O 410.434 0.764246 1.65727 0
M  V30 4320 C 410.485 3.5946 -0.38351 0
M  V30 4321 O 410.206 4.03468 -1.70721 0
M  V30 4322 C 411.707 4.4327 0.0519152 0
M  V30 4323 H 408.927 0.654931 -0.145966 0
M  V30 4324 H 411.471 1.75686 -1.04665 0
M  V30 4325 H 409.626 3.86486 0.265978 0
M  V30 4326 H 410.04 4.97991 -1.64636 0
M  V30 4327 H 411.514 5.51995 -0.0236733 0
M  V30 4328 H 411.991 4.2514 1.10238 0
M  V30 4329 H 412.597 4.21471 -0.569415 0
M  V30 4330 N 410.912 0.523116 1.48665 0
M  V30 4331 C 412.158 -0.0134963 2.02796 0
M  V30 4332 C 412.491 -1.34582 1.40004 0
M  V30 4333 O 411.766 -1.86756 0.543381 0
M  V30 4334 C 412.049 -0.14276 3.59817 0
M  V30 4335 C 411.902 1.21425 4.331 0
M  V30 4336 C 413.221 -0.872856 4.31357 0
M  V30 4337 H 410.34 -0.00343074 0.736992 0
M  V30 4338 H 412.982 0.678816 1.7746 0
M  V30 4339 H 411.132 -0.732401 3.81534 0
M  V30 4340 H 412.804 1.84447 4.2282 0
M  V30 4341 H 411.047 1.79791 3.94788 0
M  V30 4342 H 411.718 1.07687 5.41394 0
M  V30 4343 H 414.194 -0.372555 4.14429 0
M  V30 4344 H 413.07 -0.932185 5.40927 0
M  V30 4345 H 413.331 -1.92161 3.98154 0
M  V30 4346 N 412.39 -1.55475 0.257931 0
M  V30 4347 C 413.618 -2.03609 -0.367559 0
M  V30 4348 C 414.033 -1.13687 -1.50734 0
M  V30 4349 O 413.39 -0.153479 -1.81853 0
M  V30 4350 C 413.441 -3.51001 -0.864908 0
M  V30 4351 O 413.162 -4.37499 0.229465 0
M  V30 4352 C 414.663 -4.14946 -1.55997 0
M  V30 4353 H 411.883 -0.665459 -0.0860521 0
M  V30 4354 H 414.427 -2.00843 0.385014 0
M  V30 4355 H 412.582 -3.54266 -1.56762 0
M  V30 4356 H 412.996 -5.24286 -0.14998 0
M  V30 4357 H 414.47 -5.19735 -1.85956 0
M  V30 4358 H 414.947 -3.6209 -2.4857 0
M  V30 4359 H 415.553 -4.15635 -0.901543 0
M  V30 4360 N 413.868 0.0150385 -1.57593 0
M  V30 4361 C 415.145 0.7392 -1.81094 0
M  V30 4362 C 415.525 1.92817 -0.859344 0
M  V30 4363 O 414.873 2.28301 0.095362 0
M  V30 4364 C 415.083 1.15907 -3.29191 0
M  V30 4365 C 416.431 1.56918 -3.9454 0
M  V30 4366 O 417.455 1.25328 -3.33424 0
M  V30 4367 O 416.314 2.15604 -5.02173 0
M  V30 4368 H 413.408 0.358631 -0.745193 0
M  V30 4369 H 415.954 -0.00926156 -1.69697 0
M  V30 4370 H 414.726 0.310921 -3.90063 0
M  V30 4371 H 414.349 1.96711 -3.45529 0
M  V30 4372 N 415.346 1.54954 0.287554 0
M  V30 4373 C 416.294 1.87606 1.37502 0
M  V30 4374 C 417.288 0.751001 1.51843 0
M  V30 4375 O 418.494 0.935169 1.53801 0
M  V30 4376 H 414.869 0.595231 0.459569 0
M  V30 4377 H 416.84 2.78477 1.07206 0
M  V30 4378 C 415.589 2.15183 2.73115 0
M  V30 4379 H 414.912 3.01234 2.62866 0
M  V30 4380 H 416.352 2.4196 3.48183 0
M  V30 4381 C 414.811 0.954686 3.2309 0
M  V30 4382 O 415.341 0.181949 4.01288 0
M  V30 4383 N 413.547 0.756368 2.80584 0
M  V30 4384 H 413.094 1.38643 2.17108 0
M  V30 4385 H 413.052 -0.0430391 3.14371 0
M  V30 4386 N 416.824 -0.551391 1.4764 0
M  V30 4387 C 417.757 -1.6738 1.5511 0
M  V30 4388 C 418.735 -1.5753 0.402856 0
M  V30 4389 O 419.919 -1.78307 0.611475 0
M  V30 4390 C 417.046 -3.05661 1.45908 0
M  V30 4391 C 416.092 -3.33938 2.65307 0
M  V30 4392 S 416.925 -3.22553 4.27457 0
M  V30 4393 C 418.081 -4.63317 4.20818 0
M  V30 4394 H 418.314 -1.6079 2.50068 0
M  V30 4395 H 415.847 -0.732674 1.35909 0
M  V30 4396 H 417.805 -3.8542 1.41286 0
M  V30 4397 H 416.466 -3.09711 0.523248 0
M  V30 4398 H 415.659 -4.34761 2.54948 0
M  V30 4399 H 415.261 -2.61809 2.67081 0
M  V30 4400 H 417.553 -5.54391 3.89431 0
M  V30 4401 H 418.496 -4.78732 5.21748 0
M  V30 4402 H 418.904 -4.41636 3.51593 0
M  V30 4403 N 418.302 -1.35869 -0.798587 0
M  V30 4404 C 419.232 -1.32118 -1.92528 0
M  V30 4405 C 420.213 -0.194209 -1.68988 0
M  V30 4406 O 421.398 -0.390426 -1.90235 0
M  V30 4407 C 418.528 -1.10047 -3.29404 0
M  V30 4408 C 417.482 -2.19471 -3.67446 0
M  V30 4409 C 416.808 -1.82555 -5.02571 0
M  V30 4410 C 418.108 -3.61495 -3.76987 0
M  V30 4411 H 419.802 -2.26394 -1.95924 0
M  V30 4412 H 417.348 -1.08981 -0.94123 0
M  V30 4413 H 419.301 -1.06061 -4.07835 0
M  V30 4414 H 418.025 -0.122195 -3.26371 0
M  V30 4415 H 416.684 -2.22568 -2.91306 0
M  V30 4416 H 416.332 -0.833249 -4.9605 0
M  V30 4417 H 416.032 -2.5581 -5.28995 0
M  V30 4418 H 417.556 -1.80108 -5.83432 0
M  V30 4419 H 418.97 -3.60676 -4.4563 0
M  V30 4420 H 417.367 -4.33577 -4.14887 0
M  V30 4421 H 418.437 -3.97065 -2.78329 0
M  V30 4422 N 419.78 1.02168 -1.19998 0
M  V30 4423 C 421.02 1.77232 -1.01825 0
M  V30 4424 C 421.384 1.86833 0.442428 0
M  V30 4425 O 422.585 2.58293 0.744189 0
M  V30 4426 C 420.856 3.15601 -1.67722 0
M  V30 4427 S 422.415 4.06765 -1.64584 0
M  V30 4428 H 419.233 0.610021 -0.365233 0
M  V30 4429 H 421.835 1.22368 -1.52467 0
M  V30 4430 H 420.539 3.06235 -2.73218 0
M  V30 4431 H 420.07 3.7554 -1.17189 0
M  V30 4432 H 422.085 4.91586 -0.67511 0
M  V30 4433 N 421.258 1.00505 1.21394 0
M  V30 4434 C 422.221 0.570459 2.21987 0
M  V30 4435 C 423.221 -0.353211 1.56873 0
M  V30 4436 O 424.411 -0.14349 1.73608 0
M  V30 4437 C 421.543 -0.168555 3.40483 0
M  V30 4438 H 422.736 1.46021 2.6195 0
M  V30 4439 H 420.289 0.793565 1.34656 0
M  V30 4440 H 421.024 -1.07374 3.06009 0
M  V30 4441 H 420.809 0.494823 3.88965 0
M  V30 4442 H 422.299 -0.460362 4.15055 0
M  V30 4443 N 422.737 -1.36956 0.779787 0
M  V30 4444 C 423.985 -1.99097 0.347079 0
M  V30 4445 C 424.306 -1.62206 -1.08232 0
M  V30 4446 O 423.576 -0.891373 -1.74446 0
M  V30 4447 H 422.156 -0.736409 0.125342 0
M  V30 4448 H 424.818 -1.67308 0.999696 0
M  V30 4449 H 423.914 -3.09107 0.431162 0
M  V30 4450 N 424.215 -0.530993 -1.48385 0
M  V30 4451 C 425.492 0.0671788 -1.95485 0
M  V30 4452 C 425.872 1.51191 -1.47324 0
M  V30 4453 O 425.22 2.17507 -0.700202 0
M  V30 4454 C 425.43 -0.0511206 -3.48963 0
M  V30 4455 C 426.778 0.107632 -4.24464 0
M  V30 4456 O 427.802 0.0226248 -3.56193 0
M  V30 4457 O 426.661 0.285972 -5.45751 0
M  V30 4458 H 423.755 0.0787365 -0.823243 0
M  V30 4459 H 426.301 -0.595662 -1.58902 0
M  V30 4460 H 425.073 -1.05747 -3.7674 0
M  V30 4461 H 424.696 0.650525 -3.92242 0
M  V30 4462 N 425.693 1.55336 -0.266172 0
M  V30 4463 C 426.921 2.03801 0.356756 0
M  V30 4464 C 427.336 1.14485 1.50129 0
M  V30 4465 O 426.693 0.163121 1.8177 0
M  V30 4466 C 426.744 3.51455 0.846281 0
M  V30 4467 O 426.465 4.37371 -0.252663 0
M  V30 4468 C 427.966 4.15767 1.53794 0
M  V30 4469 H 425.186 0.665906 0.0825218 0
M  V30 4470 H 427.73 2.00636 -0.39566 0
M  V30 4471 H 425.885 3.55092 1.54881 0
M  V30 4472 H 426.299 5.24358 0.122173 0
M  V30 4473 H 427.773 5.20714 1.83198 0
M  V30 4474 H 428.25 3.63404 2.46646 0
M  V30 4475 H 428.856 4.16107 0.879488 0
M  V30 4476 N 427.171 -0.0066808 1.57599 0
M  V30 4477 C 428.587 -0.36267 1.55425 0
M  V30 4478 C 428.787 -1.75209 0.995187 0
M  V30 4479 O 427.843 -2.44616 0.626058 0
M  V30 4480 C 429.156 -0.244017 2.99708 0
M  V30 4481 C 430.704 -0.319451 3.11366 0
M  V30 4482 C 431.179 -0.229998 4.57422 0
M  V30 4483 N 432.67 -0.288105 4.62303 0
M  V30 4484 C 433.405 -0.242127 5.72889 0
M  V30 4485 N 432.901 -0.147133 6.92644 0
M  V30 4486 N 434.694 -0.293502 5.61333 0
M  V30 4487 H 426.845 0.902314 1.92281 0
M  V30 4488 H 429.108 0.34525 0.882896 0
M  V30 4489 H 428.814 0.711678 3.44424 0
M  V30 4490 H 428.688 -1.02877 3.629 0
M  V30 4491 H 431.075 -1.26559 2.66584 0
M  V30 4492 H 431.156 0.495055 2.50964 0
M  V30 4493 H 430.8 0.712566 5.02877 0
M  V30 4494 H 430.73 -1.0629 5.15761 0
M  V30 4495 H 433.221 -0.363126 3.76151 0
M  V30 4496 H 433.534 -0.117763 7.7271 0
M  V30 4497 H 431.879 -0.112857 6.94908 0
M  V30 4498 H 435.07 -0.365864 4.66668 0
M  V30 4499 H 435.243 -0.254204 6.47501 0
M  V30 4500 N 428.649 -1.55105 -0.279332 0
M  V30 4501 C 429.874 -1.7976 -1.03446 0
M  V30 4502 C 430.299 -0.565952 -1.79384 0
M  V30 4503 O 429.657 0.484259 -1.74713 0
M  V30 4504 C 429.705 -3.0179 -1.97371 0
M  V30 4505 O 428.809 -2.76432 -3.06038 0
M  V30 4506 H 428.15 -0.594334 -0.29608 0
M  V30 4507 H 430.68 -2.02235 -0.310165 0
M  V30 4508 H 430.69 -3.30351 -2.39441 0
M  V30 4509 H 429.365 -3.91085 -1.4151 0
M  V30 4510 H 427.942 -2.58949 -2.68328 0
M  V30 4511 N 430.127 0.543554 -1.4793 0
M  V30 4512 C 431.375 1.29752 -1.54948 0
M  V30 4513 C 431.696 1.93764 -0.219242 0
M  V30 4514 O 430.966 1.80639 0.75805 0
M  V30 4515 H 429.546 0.481874 -0.570795 0
M  V30 4516 H 432.208 0.633636 -1.84312 0
M  V30 4517 H 431.304 2.08392 -2.32334 0
M  V30 4518 N 431.605 1.3629 0.791371 0
M  V30 4519 C 432.853 1.30154 1.5461 0
M  V30 4520 C 433.174 -0.119409 1.94634 0
M  V30 4521 O 432.444 -1.05924 1.64794 0
M  V30 4522 H 431.024 0.478784 0.573389 0
M  V30 4523 H 433.686 1.70565 0.94306 0
M  V30 4524 H 432.782 1.92762 2.45457 0
M  V30 4525 N 433.083 -1.0153 1.20538 0
M  V30 4526 C 434.494 -1.56598 1.01657 0
M  V30 4527 C 434.845 -1.91505 -0.426668 0
M  V30 4528 O 433.97 -1.72375 -1.30827 0
M  V30 4529 C 434.565 -2.84542 1.83905 0
M  V30 4530 C 433.124 -3.36133 1.69386 0
M  V30 4531 C 432.271 -2.09427 1.81757 0
M  V30 4532 H 435.222 -0.838974 1.34711 0
M  V30 4533 H 435.243 -3.56004 1.34319 0
M  V30 4534 H 434.755 -2.59105 2.8894 0
M  V30 4535 H 432.856 -3.66528 0.669933 0
M  V30 4536 H 432.969 -4.08248 2.50739 0
M  V30 4537 H 431.333 -2.21941 1.24957 0
M  V30 4538 H 432.116 -1.86414 2.88279 0
M  V30 4539 N 434.561 -1.01147 -1.20859 0
M  V30 4540 C 435.493 -0.535546 -2.22855 0
M  V30 4541 C 436.506 0.379323 -1.58319 0
M  V30 4542 O 437.695 0.178489 -1.77605 0
M  V30 4543 C 434.795 0.240962 -3.38042 0
M  V30 4544 C 433.968 -0.674562 -4.32167 0
M  V30 4545 C 433.027 0.053467 -5.26173 0
M  V30 4546 O 432.053 -0.567339 -5.66366 0
M  V30 4547 N 433.255 1.32997 -5.65059 0
M  V30 4548 H 436.02 -1.41268 -2.64317 0
M  V30 4549 H 433.581 -0.888386 -1.35349 0
M  V30 4550 H 435.573 0.737115 -3.97931 0
M  V30 4551 H 434.143 1.01935 -2.95513 0
M  V30 4552 H 433.363 -1.35111 -3.70322 0
M  V30 4553 H 434.651 -1.2974 -4.91981 0
M  V30 4554 H 434.049 1.85536 -5.34409 0
M  V30 4555 H 432.606 1.77095 -6.2728 0
M  V30 4556 N 436.039 1.36541 -0.78704 0
M  V30 4557 C 437.002 2.28413 -0.189778 0
M  V30 4558 C 438.002 1.48719 0.611499 0
M  V30 4559 O 439.192 1.68737 0.432842 0
M  V30 4560 C 436.324 3.32824 0.737638 0
M  V30 4561 H 437.517 2.82743 -0.999831 0
M  V30 4562 H 435.07 1.46065 -0.556298 0
M  V30 4563 H 435.805 2.83646 1.57212 0
M  V30 4564 H 435.59 3.91752 0.165044 0
M  V30 4565 H 437.08 4.0144 1.15047 0
M  V30 4566 N 437.518 0.538854 1.48102 0
M  V30 4567 C 438.466 -0.232325 2.31437 0
M  V30 4568 C 439.46 -0.927004 1.41785 0
M  V30 4569 O 440.666 -0.850378 1.58646 0
M  V30 4570 H 437.041 -0.0937916 0.746128 0
M  V30 4571 H 439.012 0.489986 2.9435 0
M  V30 4572 C 437.761 -1.26074 3.24038 0
M  V30 4573 H 437.084 -0.735609 3.92974 0
M  V30 4574 H 438.524 -1.77157 3.85216 0
M  V30 4575 C 436.983 -2.29902 2.46265 0
M  V30 4576 O 437.513 -3.36502 2.19384 0
M  V30 4577 N 435.719 -2.03348 2.07601 0
M  V30 4578 H 435.266 -1.16675 2.29662 0
M  V30 4579 H 435.224 -2.73038 1.55877 0
M  V30 4580 N 438.996 -1.55193 0.274407 0
M  V30 4581 C 439.926 -2.25471 -0.607032 0
M  V30 4582 C 440.907 -1.24461 -1.15946 0
M  V30 4583 O 442.092 -1.53179 -1.19373 0
M  V30 4584 C 439.222 -2.97526 -1.79153 0
M  V30 4585 C 438.176 -4.05459 -1.37067 0
M  V30 4586 C 437.502 -4.65084 -2.6382 0
M  V30 4587 C 438.802 -5.19691 -0.521389 0
M  V30 4588 H 440.496 -2.99393 -0.0209343 0
M  V30 4589 H 438.042 -1.43997 -0.00862866 0
M  V30 4590 H 439.995 -3.45402 -2.41404 0
M  V30 4591 H 438.719 -2.21138 -2.40344 0
M  V30 4592 H 437.378 -3.58393 -0.771355 0
M  V30 4593 H 437.026 -3.85365 -3.23268 0
M  V30 4594 H 436.726 -5.37961 -2.36372 0
M  V30 4595 H 438.25 -5.15708 -3.26921 0
M  V30 4596 H 439.664 -5.63623 -1.04889 0
M  V30 4597 H 438.061 -5.99126 -0.341825 0
M  V30 4598 H 439.131 -4.82713 0.46 0
M  V30 4599 N 440.474 -0.00167713 -1.576 0
M  V30 4600 C 441.424 0.997744 -2.0501 0
M  V30 4601 C 442.408 1.30214 -0.94515 0
M  V30 4602 O 443.6 1.29284 -1.20891 0
M  V30 4603 C 440.729 2.2892 -2.55833 0
M  V30 4604 C 439.815 2.01437 -3.73208 0
M  V30 4605 N 440.206 1.44119 -4.84833 0
M  V30 4606 C 438.504 2.31571 -3.8117 0
M  V30 4607 C 439.205 1.33145 -5.66257 0
M  V30 4608 N 438.181 1.81763 -5.12312 0
M  V30 4609 H 441.983 0.549098 -2.88725 0
M  V30 4610 H 439.497 0.20398 -1.61114 0
M  V30 4611 H 441.494 3.01361 -2.88075 0
M  V30 4612 H 440.154 2.74436 -1.73537 0
M  V30 4613 H 441.165 1.11978 -5.0565 0
M  V30 4614 H 437.842 2.7995 -3.09732 0
M  V30 4615 H 439.232 0.890567 -6.65972 0
M  V30 4616 N 441.952 1.55251 0.271103 0
M  V30 4617 C 443.229 1.66664 1.02384 0
M  V30 4618 C 443.609 0.534363 2.04225 0
M  V30 4619 O 442.957 -0.465337 2.23712 0
M  V30 4620 C 443.167 3.05961 1.67895 0
M  V30 4621 C 444.515 3.63772 2.18986 0
M  V30 4622 O 445.539 3.08606 1.77878 0
M  V30 4623 O 444.398 4.60429 2.94393 0
M  V30 4624 H 441.492 0.676957 0.475035 0
M  V30 4625 H 444.038 1.67589 0.26681 0
M  V30 4626 H 442.81 3.79815 0.941071 0
M  V30 4627 H 442.433 3.08943 2.5028 0
M  V30 4628 N 443.43 -0.535701 1.48216 0
M  V30 4629 C 444.393 -1.623 1.61838 0
M  V30 4630 C 445.393 -1.53087 0.492024 0
M  V30 4631 O 446.583 -1.5686 0.757668 0
M  V30 4632 C 443.715 -3.01907 1.58319 0
M  V30 4633 H 444.908 -1.51564 2.58783 0
M  V30 4634 H 442.461 -0.757317 1.36727 0
M  V30 4635 H 443.196 -3.18155 0.628299 0
M  V30 4636 H 442.981 -3.10003 2.40085 0
M  V30 4637 H 444.471 -3.80969 1.71033 0
M  V30 4638 N 444.908 -1.36708 -0.784132 0
M  V30 4639 C 446.148 -1.32618 -1.55537 0
M  V30 4640 C 446.512 0.0920681 -1.91779 0
M  V30 4641 O 447.713 0.257573 -2.67563 0
M  V30 4642 C 445.984 -2.22788 -2.79464 0
M  V30 4643 S 447.543 -2.36432 -3.69656 0
M  V30 4644 H 444.361 -0.470973 -0.53264 0
M  V30 4645 H 446.963 -1.72333 -0.92312 0
M  V30 4646 H 445.667 -3.24774 -2.50899 0
M  V30 4647 H 445.198 -1.84112 -3.47658 0
M  V30 4648 H 447.213 -1.56573 -4.7085 0
M  V30 4649 N 446.386 1.0089 -1.21074 0
M  V30 4650 C 447.318 2.09737 -0.924291 0
M  V30 4651 C 448.331 1.62546 0.0909809 0
M  V30 4652 O 449.52 1.77942 -0.141021 0
M  V30 4653 C 446.62 3.36922 -0.36559 0
M  V30 4654 C 445.793 4.13216 -1.43426 0
M  V30 4655 C 444.852 5.18696 -0.885496 0
M  V30 4656 O 443.878 5.47176 -1.56801 0
M  V30 4657 N 445.08 5.79718 0.301227 0
M  V30 4658 H 447.845 2.34895 -1.8613 0
M  V30 4659 H 445.406 1.17341 -1.11546 0
M  V30 4660 H 447.398 4.04697 0.0158407 0
M  V30 4661 H 445.968 3.08952 0.476149 0
M  V30 4662 H 445.188 3.40301 -1.9897 0
M  V30 4663 H 446.476 4.60967 -2.15376 0
M  V30 4664 H 445.874 5.58926 0.872849 0
M  V30 4665 H 444.431 6.48804 0.624211 0
M  V30 4666 N 447.864 1.01787 1.20321 0
M  V30 4667 C 449.112 0.706538 1.89347 0
M  V30 4668 C 449.433 -0.766289 1.79313 0
M  V30 4669 O 448.703 -1.55126 1.19635 0
M  V30 4670 H 447.283 0.258348 0.700903 0
M  V30 4671 H 449.945 1.28974 1.46122 0
M  V30 4672 H 449.041 0.991066 2.95946 0
M  V30 4673 N 449.342 -1.36122 0.79427 0
M  V30 4674 C 450.619 -1.93398 0.292685 0
M  V30 4675 C 450.999 -1.72567 -1.21589 0
M  V30 4676 O 450.347 -1.08745 -2.00965 0
M  V30 4677 C 450.557 -3.42099 0.690614 0
M  V30 4678 C 451.905 -4.19231 0.673105 0
M  V30 4679 O 452.929 -3.50559 0.631389 0
M  V30 4680 O 451.788 -5.41732 0.720362 0
M  V30 4681 H 448.882 -0.823712 0.0736693 0
M  V30 4682 H 451.428 -1.45273 0.87714 0
M  V30 4683 H 450.2 -3.50938 1.73085 0
M  V30 4684 H 449.823 -3.97519 0.0803036 0
M  V30 4685 N 450.82 -0.546701 -1.47814 0
M  V30 4686 C 452.045 -0.021268 -2.07389 0
M  V30 4687 C 452.47 1.25822 -1.39822 0
M  V30 4688 O 451.828 1.75111 -0.46968 0
M  V30 4689 C 451.876 0.168502 -3.60206 0
M  V30 4690 O 450.98 1.23347 -3.93522 0
M  V30 4691 H 450.321 -0.0466108 -0.662362 0
M  V30 4692 H 452.851 -0.759387 -1.89985 0
M  V30 4693 H 452.861 0.385982 -4.0617 0
M  V30 4694 H 451.536 -0.766075 -4.08784 0
M  V30 4695 H 450.113 0.997319 -3.59316 0
M  V30 4696 N 452.299 1.55045 -0.282633 0
M  V30 4697 C 453.547 1.99365 0.331334 0
M  V30 4698 C 453.868 1.1725 1.55812 0
M  V30 4699 O 453.138 0.263871 1.94115 0
M  V30 4700 H 451.718 0.736397 0.125414 0
M  V30 4701 H 454.38 1.90964 -0.389711 0
M  V30 4702 H 453.476 3.0596 0.616036 0
M  V30 4703 N 453.777 0.010035 1.57597 0
M  V30 4704 C 455.025 -0.671371 1.90623 0
M  V30 4705 C 455.346 -1.73753 0.885151 0
M  V30 4706 O 454.616 -1.95752 -0.0760611 0
M  V30 4707 H 453.196 -0.250968 0.703579 0
M  V30 4708 H 455.858 0.0533325 1.94827 0
M  V30 4709 H 454.954 -1.13626 2.90681 0
M  V30 4710 N 455.255 -1.55392 -0.262866 0
M  V30 4711 C 456.666 -1.67079 -0.833158 0
M  V30 4712 C 457.017 -0.604539 -1.86654 0
M  V30 4713 O 456.142 0.252138 -2.14926 0
M  V30 4714 C 456.737 -3.02891 -1.51797 0
M  V30 4715 C 455.296 -3.16571 -2.03617 0
M  V30 4716 C 454.443 -2.62909 -0.881701 0
M  V30 4717 H 457.394 -1.58652 -0.0389986 0
M  V30 4718 H 457.415 -2.96445 -2.38538 0
M  V30 4719 H 456.927 -3.80473 -0.765619 0
M  V30 4720 H 455.028 -2.43782 -2.81782 0
M  V30 4721 H 455.141 -4.23271 -2.24452 0
M  V30 4722 H 453.505 -2.20324 -1.27786 0
M  V30 4723 H 454.288 -3.43003 -0.14269 0
M  V30 4724 N 456.733 0.527833 -1.48498 0
M  V30 4725 C 457.663 1.64136 -1.66077 0
M  V30 4726 C 458.644 1.62286 -0.509625 0
M  V30 4727 O 459.829 1.79449 -0.742413 0
M  V30 4728 C 456.959 3.02717 -1.70234 0
M  V30 4729 C 455.913 3.19426 -2.8487 0
M  V30 4730 C 455.239 4.5909 -2.74118 0
M  V30 4731 C 456.539 3.01993 -4.26142 0
M  V30 4732 H 458.233 1.4968 -2.593 0
M  V30 4733 H 455.779 0.718654 -1.24785 0
M  V30 4734 H 457.732 3.80491 -1.8112 0
M  V30 4735 H 456.456 3.18201 -0.735911 0
M  V30 4736 H 455.115 2.4407 -2.73542 0
M  V30 4737 H 454.763 4.71413 -1.7544 0
M  V30 4738 H 454.463 4.71214 -3.51042 0
M  V30 4739 H 455.987 5.3896 -2.86974 0
M  V30 4740 H 457.401 3.69558 -4.38292 0
M  V30 4741 H 455.798 3.2561 -5.04082 0
M  V30 4742 H 456.868 1.98396 -4.42456 0
M  V30 4743 N 458.211 1.37122 0.776871 0
M  V30 4744 C 459.457 1.32243 1.53752 0
M  V30 4745 C 459.79 -0.0944745 1.9397 0
M  V30 4746 O 459.065 -1.05068 1.6368 0
M  V30 4747 C 459.348 2.25681 2.80607 0
M  V30 4748 C 459.201 3.76127 2.46676 0
M  V30 4749 C 460.52 2.17657 3.82509 0
M  V30 4750 H 457.639 0.481704 0.557791 0
M  V30 4751 H 460.281 1.6778 0.891612 0
M  V30 4752 H 458.431 1.95505 3.35723 0
M  V30 4753 H 460.103 4.16877 1.97513 0
M  V30 4754 H 458.346 3.94946 1.79443 0
M  V30 4755 H 459.017 4.36933 3.37333 0
M  V30 4756 H 461.493 2.44245 3.36873 0
M  V30 4757 H 460.369 2.85185 4.69 0
M  V30 4758 H 460.63 1.16785 4.26396 0
M  V30 4759 N 459.689 -1.00246 1.21608 0
M  V30 4760 C 460.929 -1.75589 1.04631 0
M  V30 4761 C 461.293 -1.87513 -0.412648 0
M  V30 4762 O 462.494 -2.59444 -0.703003 0
M  V30 4763 C 460.765 -3.12893 1.72722 0
M  V30 4764 S 462.324 -4.04095 1.71034 0
M  V30 4765 H 459.142 -0.604133 0.374892 0
M  V30 4766 H 461.744 -1.19927 1.54395 0
M  V30 4767 H 460.448 -3.0185 2.78055 0
M  V30 4768 H 459.979 -3.73628 1.23149 0
M  V30 4769 H 461.994 -4.9045 0.753231 0
M  V30 4770 N 461.167 -1.02423 -1.1978 0
M  V30 4771 C 462.097 -0.62157 -2.25075 0
M  V30 4772 C 463.078 0.367148 -1.6609 0
M  V30 4773 O 464.263 0.250892 -1.92573 0
M  V30 4774 C 461.393 0.0331826 -3.47284 0
M  V30 4775 C 460.347 -0.877323 -4.18912 0
M  V30 4776 C 459.673 -0.0879296 -5.34628 0
M  V30 4777 C 460.973 -2.18892 -4.74219 0
M  V30 4778 H 462.667 -1.50179 -2.59011 0
M  V30 4779 H 460.213 -0.723547 -1.24502 0
M  V30 4780 H 462.166 0.326488 -4.20133 0
M  V30 4781 H 460.89 0.948164 -3.12534 0
M  V30 4782 H 459.549 -1.15475 -3.47938 0
M  V30 4783 H 459.197 0.828941 -4.96123 0
M  V30 4784 H 458.897 -0.694359 -5.83483 0
M  V30 4785 H 460.421 0.198743 -6.10276 0
M  V30 4786 H 461.835 -1.95746 -5.38847 0
M  V30 4787 H 460.232 -2.74686 -5.33542 0
M  V30 4788 H 461.302 -2.84674 -3.92541 0
M  V30 4789 N 462.645 1.35699 -0.801477 0
M  V30 4790 C 463.593 2.3177 -0.196317 0
M  V30 4791 C 464.587 1.56388 0.651081 0
M  V30 4792 O 465.793 1.71557 0.544815 0
M  V30 4793 H 462.168 0.750669 -0.0447189 0
M  V30 4794 H 464.139 2.8036 -1.02181 0
M  V30 4795 C 462.888 3.41671 0.644702 0
M  V30 4796 H 462.211 3.998 0.0019921 0
M  V30 4797 H 463.651 4.11184 1.0346 0
M  V30 4798 C 462.11 2.84271 1.80808 0
M  V30 4799 O 462.64 2.77408 2.9053 0
M  V30 4800 N 460.846 2.41391 1.61799 0
M  V30 4801 H 460.393 2.47173 0.725493 0
M  V30 4802 H 460.351 2.03334 2.39797 0
M  V30 4803 N 464.123 0.554532 1.47522 0
M  V30 4804 C 465.4 -0.0360704 1.95567 0
M  V30 4805 C 465.78 -1.48828 1.49711 0
M  V30 4806 O 465.128 -2.16366 0.734717 0
M  V30 4807 C 465.338 0.106631 3.48837 0
M  V30 4808 C 466.686 -0.0400899 4.24581 0
M  V30 4809 O 467.71 0.0340453 3.56184 0
M  V30 4810 O 466.569 -0.199111 5.46137 0
M  V30 4811 H 463.663 -0.0656294 0.824392 0
M  V30 4812 H 466.209 0.620867 1.57935 0
M  V30 4813 H 464.981 1.11727 3.7501 0
M  V30 4814 H 464.604 -0.58804 3.93227 0
M  V30 4815 N 465.601 -1.54893 0.290851 0
M  V30 4816 C 466.849 -1.99538 -0.320756 0
M  V30 4817 C 467.17 -1.18075 -1.55188 0
M  V30 4818 O 466.44 -0.274162 -1.93972 0
M  V30 4819 H 465.02 -0.737052 -0.121507 0
M  V30 4820 H 467.682 -1.90755 0.399832 0
M  V30 4821 H 466.778 -3.06282 -0.599802 0
M  V30 4822 N 467.08 -0.0183926 -1.57589 0
M  V30 4823 C 468.496 0.337897 -1.55982 0
M  V30 4824 C 468.696 1.73604 -1.02294 0
M  V30 4825 O 467.752 2.43589 -0.664895 0
M  V30 4826 C 469.065 0.196305 -3.00059 0
M  V30 4827 C 470.613 0.269875 -3.11834 0
M  V30 4828 C 471.088 0.157197 -4.5773 0
M  V30 4829 N 472.579 0.214521 -4.62703 0
M  V30 4830 C 473.314 0.150955 -5.73201 0
M  V30 4831 N 472.81 0.0369212 -6.9279 0
M  V30 4832 N 474.603 0.204162 -5.61729 0
M  V30 4833 H 466.754 -0.93279 -1.90821 0
M  V30 4834 H 469.017 -0.359253 -0.877292 0
M  V30 4835 H 468.723 -0.766383 -3.43248 0
M  V30 4836 H 468.597 0.970908 -3.6449 0
M  V30 4837 H 470.984 1.22302 -2.68563 0
M  V30 4838 H 471.065 -0.534918 -2.50144 0
M  V30 4839 H 470.709 -0.792479 -5.01679 0
M  V30 4840 H 470.639 0.980717 -5.17387 0
M  V30 4841 H 473.13 0.303238 -3.76681 0
M  V30 4842 H 473.443 -0.00518321 -7.728 0
M  V30 4843 H 471.788 0.0022886 -6.95 0
M  V30 4844 H 474.979 0.291575 -4.67191 0
M  V30 4845 H 475.152 0.15116 -6.47824 0
M  V30 4846 N 468.558 1.5553 0.254621 0
M  V30 4847 C 469.491 1.84624 1.34124 0
M  V30 4848 C 470.469 0.700693 1.46728 0
M  V30 4849 O 471.653 0.94564 1.63064 0
M  V30 4850 C 468.78 2.02412 2.71564 0
M  V30 4851 C 467.826 3.25028 2.7615 0
M  V30 4852 S 468.659 4.81893 2.33538 0
M  V30 4853 C 469.815 5.02677 3.72917 0
M  V30 4854 H 470.048 2.76501 1.09245 0
M  V30 4855 H 467.581 1.47537 0.455211 0
M  V30 4856 H 469.539 2.13345 3.50705 0
M  V30 4857 H 468.2 1.11391 2.93685 0
M  V30 4858 H 467.393 3.34418 3.77069 0
M  V30 4859 H 466.995 3.12781 2.05046 0
M  V30 4860 H 469.287 4.89546 4.68349 0
M  V30 4861 H 470.23 6.0468 3.68467 0
M  V30 4862 H 470.638 4.30561 3.65072 0
M  V30 4863 N 470.036 -0.519951 1.48776 0
M  V30 4864 C 471.264 -1.29971 1.60982 0
M  V30 4865 C 471.679 -1.86803 0.273885 0
M  V30 4866 O 471.036 -1.66904 -0.738193 0
M  V30 4867 C 471.087 -2.44346 2.66415 0
M  V30 4868 O 470.808 -1.89855 3.94825 0
M  V30 4869 C 472.309 -3.36014 2.89153 0
M  V30 4870 H 469.529 -0.394891 0.542496 0
M  V30 4871 H 472.073 -0.626214 1.94676 0
M  V30 4872 H 470.228 -3.07562 2.35552 0
M  V30 4873 H 470.642 -2.64798 4.5275 0
M  V30 4874 H 472.116 -4.12593 3.66703 0
M  V30 4875 H 472.593 -3.91859 1.98351 0
M  V30 4876 H 473.199 -2.78582 3.21359 0
M  V30 4877 N 471.514 -1.37532 -0.769588 0
M  V30 4878 C 472.444 -1.36172 -1.89682 0
M  V30 4879 C 473.425 -0.23001 -1.68538 0
M  V30 4880 O 474.61 -0.43069 -1.89364 0
M  V30 4881 C 471.74 -1.1701 -3.26995 0
M  V30 4882 C 470.694 -2.27216 -3.62708 0
M  V30 4883 C 470.02 -1.93174 -4.98586 0
M  V30 4884 C 471.32 -3.6941 -3.69234 0
M  V30 4885 H 473.014 -2.30499 -1.91078 0
M  V30 4886 H 470.56 -1.10953 -0.917902 0
M  V30 4887 H 472.513 -1.14688 -4.05493 0
M  V30 4888 H 471.237 -0.191395 -3.26039 0
M  V30 4889 H 469.896 -2.28697 -2.86519 0
M  V30 4890 H 469.544 -0.938281 -4.94171 0
M  V30 4891 H 469.244 -2.66973 -5.23449 0
M  V30 4892 H 470.768 -1.92443 -5.79481 0
M  V30 4893 H 472.182 -3.70047 -4.37879 0
M  V30 4894 H 470.579 -4.4228 -4.05597 0
M  V30 4895 H 471.649 -4.0288 -2.69844 0
M  V30 4896 N 472.992 0.995999 -1.22138 0
M  V30 4897 C 474.238 1.73767 -1.04561 0
M  V30 4898 C 474.571 1.89633 0.418698 0
M  V30 4899 O 473.846 1.43723 1.3105 0
M  V30 4900 C 474.129 3.14505 -1.75382 0
M  V30 4901 C 473.982 3.06306 -3.29388 0
M  V30 4902 C 475.301 4.13615 -1.50369 0
M  V30 4903 H 472.42 0.630728 -0.38125 0
M  V30 4904 H 475.062 1.16057 -1.50435 0
M  V30 4905 H 473.212 3.63775 -1.36383 0
M  V30 4906 H 474.884 2.64681 -3.77812 0
M  V30 4907 H 473.127 2.43186 -3.59226 0
M  V30 4908 H 473.798 4.05884 -3.74116 0
M  V30 4909 H 476.274 3.73089 -1.84239 0
M  V30 4910 H 475.15 5.10212 -2.02421 0
M  V30 4911 H 475.411 4.39949 -0.435611 0
M  V30 4912 N 474.47 1.03057 1.19235 0
M  V30 4913 C 475.718 0.726581 1.88587 0
M  V30 4914 C 476.039 -0.747227 1.80115 0
M  V30 4915 O 475.309 -1.53849 1.21274 0
M  V30 4916 H 473.889 0.265768 0.698124 0
M  V30 4917 H 476.551 1.30516 1.44746 0
M  V30 4918 H 475.647 1.0224 2.94879 0
M  V30 4919 N 475.948 -1.35272 0.808662 0
M  V30 4920 C 477.197 -1.97963 0.386483 0
M  V30 4921 C 477.51 -1.64866 -1.05255 0
M  V30 4922 O 478.716 -2.20937 -1.57794 0
M  V30 4923 C 477.172 -3.54162 0.640096 0
M  V30 4924 C 476.78 -3.96166 2.0918 0
M  V30 4925 C 478.524 -4.23553 0.283376 0
M  V30 4926 C 476.431 -5.4522 2.29106 0
M  V30 4927 H 475.361 -0.740742 0.140774 0
M  V30 4928 H 478.012 -1.5431 0.993012 0
M  V30 4929 H 476.394 -3.95983 -0.0364117 0
M  V30 4930 H 477.568 -3.65491 2.80629 0
M  V30 4931 H 475.883 -3.3967 2.40859 0
M  V30 4932 H 478.48 -5.33124 0.410273 0
M  V30 4933 H 478.823 -4.09105 -0.770659 0
M  V30 4934 H 479.356 -3.8716 0.913884 0
M  V30 4935 H 476.095 -5.64638 3.32962 0
M  V30 4936 H 475.615 -5.77457 1.62184 0
M  V30 4937 H 477.294 -6.1171 2.1076 0
M  V30 4938 N 477.426 -0.562348 -1.47226 0
M  V30 4939 C 478.675 -0.038041 -2.01664 0
M  V30 4940 C 478.988 1.32199 -1.44162 0
M  V30 4941 O 480.194 1.9365 -1.90294 0
M  V30 4942 C 478.65 -0.0174958 -3.59896 0
M  V30 4943 C 478.258 -1.3746 -4.2639 0
M  V30 4944 C 480.002 0.453934 -4.22066 0
M  V30 4945 C 477.909 -1.31289 -5.76643 0
M  V30 4946 H 476.839 -0.0104511 -0.753928 0
M  V30 4947 H 479.49 -0.710966 -1.69167 0
M  V30 4948 H 477.872 0.721182 -3.89378 0
M  V30 4949 H 479.046 -2.1314 -4.08544 0
M  V30 4950 H 477.361 -1.78438 -3.7623 0
M  V30 4951 H 479.958 0.518584 -5.32179 0
M  V30 4952 H 480.301 1.46706 -3.89594 0
M  V30 4953 H 480.834 -0.230044 -3.97134 0
M  V30 4954 H 477.573 -2.30217 -6.13743 0
M  V30 4955 H 477.093 -0.597973 -5.96812 0
M  V30 4956 H 478.772 -1.01713 -6.38955 0
M  V30 4957 N 478.904 1.54736 -0.299062 0
M  V30 4958 C 480.129 2.04975 0.316254 0
M  V30 4959 C 480.554 1.17501 1.46885 0
M  V30 4960 O 479.912 0.178678 1.80417 0
M  V30 4961 C 479.96 3.52672 0.751997 0
M  V30 4962 O 479.064 3.68226 1.85697 0
M  V30 4963 H 478.405 0.661126 0.0617175 0
M  V30 4964 H 480.935 1.99805 -0.440341 0
M  V30 4965 H 480.945 3.94488 1.04133 0
M  V30 4966 H 479.62 4.158 -0.0911482 0
M  V30 4967 H 478.197 3.38316 1.56834 0
M  V30 4968 N 480.382 0.0267497 1.57577 0
M  V30 4969 C 481.628 -0.647596 1.92815 0
M  V30 4970 C 481.983 -1.69872 0.903396 0
M  V30 4971 O 481.276 -1.91429 -0.0808881 0
M  V30 4972 C 481.47 -1.30914 3.3256 0
M  V30 4973 C 481.299 -0.323621 4.48534 0
M  V30 4974 C 480.069 0.0756607 5.05243 0
M  V30 4975 C 482.267 0.42112 5.12573 0
M  V30 4976 N 480.249 1.0566 6.04739 0
M  V30 4977 C 481.62 1.25589 6.07147 0
M  V30 4978 C 483.675 0.482077 4.95561 0
M  V30 4979 C 482.378 2.1461 6.86538 0
M  V30 4980 C 484.404 1.35962 5.75559 0
M  V30 4981 C 483.766 2.18217 6.69747 0
M  V30 4982 H 479.865 -0.209357 0.753454 0
M  V30 4983 H 482.449 0.0933695 1.94476 0
M  V30 4984 H 480.62 -2.02026 3.31723 0
M  V30 4985 H 482.352 -1.94033 3.55153 0
M  V30 4986 H 479.107 -0.298294 4.7266 0
M  V30 4987 H 479.531 1.54324 6.59176 0
M  V30 4988 H 484.173 -0.139609 4.22569 0
M  V30 4989 H 481.891 2.77835 7.58837 0
M  V30 4990 H 485.477 1.41105 5.6443 0
M  V30 4991 H 484.357 2.85022 7.3057 0
M  V30 4992 N 481.861 -1.55662 -0.24637 0
M  V30 4993 C 483.109 -1.77168 -0.972411 0
M  V30 4994 C 483.43 -0.590827 -1.85834 0
M  V30 4995 O 482.7 0.393365 -1.9191 0
M  V30 4996 H 481.28 -0.653405 -0.362038 0
M  V30 4997 H 483.942 -1.93101 -0.264189 0
M  V30 4998 H 483.038 -2.68335 -1.59382 0
M  V30 4999 N 483.339 0.512053 -1.4905 0
M  V30 5000 C 484.269 1.62365 -1.67809 0
M  V30 5001 C 485.25 1.61737 -0.526809 0
M  V30 5002 O 486.435 1.78651 -0.761404 0
M  V30 5003 C 483.565 3.00895 -1.73435 0
M  V30 5004 C 482.519 3.16387 -2.88242 0
M  V30 5005 C 481.845 4.56157 -2.78971 0
M  V30 5006 C 483.145 2.97457 -4.29321 0
M  V30 5007 H 484.839 1.46921 -2.60873 0
M  V30 5008 H 482.385 0.705379 -1.2554 0
M  V30 5009 H 484.338 3.78549 -1.85145 0
M  V30 5010 H 483.062 3.17403 -0.769619 0
M  V30 5011 H 481.721 2.41155 -2.76116 0
M  V30 5012 H 481.369 4.69525 -1.8043 0
M  V30 5013 H 481.069 4.67465 -3.5602 0
M  V30 5014 H 482.593 5.35886 -2.92675 0
M  V30 5015 H 484.007 3.64888 -4.42187 0
M  V30 5016 H 482.404 3.20245 -5.07507 0
M  V30 5017 H 483.474 1.93692 -4.44535 0
M  V30 5018 N 484.817 1.37938 0.762283 0
M  V30 5019 C 486.065 1.33404 1.51815 0
M  V30 5020 C 486.386 -0.0780975 1.94844 0
M  V30 5021 O 485.656 -1.02405 1.67003 0
M  V30 5022 H 484.236 0.490839 0.563104 0
M  V30 5023 H 486.898 1.72527 0.906669 0
M  V30 5024 H 485.994 1.97926 2.41313 0
M  V30 5025 N 486.295 -0.989507 1.22664 0
M  V30 5026 C 487.535 -1.7447 1.06488 0
M  V30 5027 C 487.899 -1.8794 -0.392737 0
M  V30 5028 O 489.1 -2.60175 -0.675446 0
M  V30 5029 C 487.371 -3.11043 1.76031 0
M  V30 5030 S 488.93 -4.02258 1.7531 0
M  V30 5031 H 485.748 -0.600123 0.381278 0
M  V30 5032 H 488.35 -1.18283 1.55658 0
M  V30 5033 H 487.054 -2.98884 2.81241 0
M  V30 5034 H 486.585 -3.72301 1.27105 0
M  V30 5035 H 488.6 -4.89623 0.805208 0
M  V30 5036 N 487.773 -1.03688 -1.18687 0
M  V30 5037 C 489.021 -0.736572 -1.88199 0
M  V30 5038 C 489.342 0.737665 -1.80509 0
M  V30 5039 O 488.612 1.53204 -1.22088 0
M  V30 5040 H 487.192 -0.269466 -0.696704 0
M  V30 5041 H 489.854 -1.31282 -1.44052 0
M  V30 5042 H 488.95 -1.03802 -2.94332 0
M  V30 5043 N 489.251 1.34841 -0.815825 0
M  V30 5044 C 490.183 2.28409 -0.190265 0
M  V30 5045 C 491.196 1.50705 0.615771 0
M  V30 5046 O 492.385 1.72822 0.446616 0
M  V30 5047 C 489.485 3.30441 0.752446 0
M  V30 5048 C 488.658 4.37399 -0.00922152 0
M  V30 5049 C 487.717 5.19234 0.853351 0
M  V30 5050 O 486.743 5.68404 0.300919 0
M  V30 5051 N 487.945 5.38248 2.17416 0
M  V30 5052 H 490.71 2.82732 -0.994114 0
M  V30 5053 H 488.271 1.47289 -0.672129 0
M  V30 5054 H 490.263 3.82084 1.33394 0
M  V30 5055 H 488.833 2.76565 1.45707 0
M  V30 5056 H 488.053 3.86567 -0.771979 0
M  V30 5057 H 489.341 5.05992 -0.533807 0
M  V30 5058 H 488.739 4.99961 2.6468 0
M  V30 5059 H 487.296 5.93035 2.70467 0
M  V30 5060 N 490.729 0.570148 1.46925 0
M  V30 5061 C 491.676 -0.170257 2.30171 0
M  V30 5062 C 492.646 -0.896099 1.39855 0
M  V30 5063 O 493.831 -0.889248 1.68811 0
M  V30 5064 C 490.971 -1.18605 3.24079 0
M  V30 5065 C 490.084 -0.464947 4.29491 0
M  V30 5066 C 489.219 -1.46716 5.10537 0
M  V30 5067 C 488.258 -0.731758 6.0771 0
M  V30 5068 N 487.395 -1.68142 6.81669 0
M  V30 5069 H 492.235 0.545713 2.92961 0
M  V30 5070 H 489.772 0.280938 1.44392 0
M  V30 5071 H 491.73 -1.78771 3.76957 0
M  V30 5072 H 490.36 -1.86989 2.63125 0
M  V30 5073 H 489.412 0.251506 3.79568 0
M  V30 5074 H 490.724 0.110548 4.98677 0
M  V30 5075 H 489.878 -2.14199 5.6763 0
M  V30 5076 H 488.617 -2.07658 4.41282 0
M  V30 5077 H 487.622 -0.0430787 5.49783 0
M  V30 5078 H 488.847 -0.127904 6.7898 0
M  V30 5079 H 486.793 -2.27918 6.15134 0
M  V30 5080 H 486.71 -1.15841 7.47072 0
M  V30 5081 H 487.978 -2.347 7.43328 0
M  V30 5082 N 492.207 -1.54576 0.307264 0
M  V30 5083 C 493.484 -1.92377 -0.353605 0
M  V30 5084 C 493.864 -1.23517 -1.71192 0
M  V30 5085 O 493.212 -0.373101 -2.25433 0
M  V30 5086 C 493.422 -3.45928 -0.462039 0
M  V30 5087 C 494.77 -4.18278 -0.729975 0
M  V30 5088 O 495.794 -3.51997 -0.545605 0
M  V30 5089 O 494.653 -5.3563 -1.08454 0
M  V30 5090 H 491.747 -0.802747 -0.198812 0
M  V30 5091 H 494.293 -1.65929 0.355783 0
M  V30 5092 H 493.065 -3.88187 0.492592 0
M  V30 5093 H 492.688 -3.78431 -1.21965 0
M  V30 5094 N 493.685 -0.035106 -1.57561 0
M  V30 5095 C 494.931 0.64318 -1.92331 0
M  V30 5096 C 495.264 1.71434 -0.912368 0
M  V30 5097 O 494.539 1.94395 0.0640303 0
M  V30 5098 C 494.822 1.25411 -3.37556 0
M  V30 5099 C 494.675 0.192109 -4.4939 0
M  V30 5100 C 495.994 2.17041 -3.82859 0
M  V30 5101 H 493.113 0.232341 -0.699419 0
M  V30 5102 H 495.755 -0.0935889 -1.89769 0
M  V30 5103 H 493.905 1.88205 -3.39869 0
M  V30 5104 H 495.577 -0.438849 -4.59208 0
M  V30 5105 H 493.82 -0.481725 -4.31117 0
M  V30 5106 H 494.491 0.659292 -5.48049 0
M  V30 5107 H 496.967 1.64228 -3.8232 0
M  V30 5108 H 495.843 2.56738 -4.85157 0
M  V30 5109 H 496.104 3.06401 -3.18702 0
M  V30 5110 N 495.163 1.55791 0.238111 0
M  V30 5111 C 496.574 1.68383 0.806472 0
M  V30 5112 C 496.925 0.634157 1.85669 0
M  V30 5113 O 496.05 -0.217913 2.153 0
M  V30 5114 C 496.645 3.05268 1.46959 0
M  V30 5115 C 495.204 3.1977 1.98555 0
M  V30 5116 C 494.351 2.64279 0.839763 0
M  V30 5117 H 497.302 1.58694 0.0137535 0
M  V30 5118 H 497.323 3.00203 2.33792 0
M  V30 5119 H 496.835 3.81643 0.704993 0
M  V30 5120 H 494.936 2.48234 2.77868 0
M  V30 5121 H 495.049 4.26788 2.17689 0
M  V30 5122 H 493.413 2.22329 1.24265 0
M  V30 5123 H 494.196 3.43187 0.0881032 0
M  V30 5124 N 496.642 -0.504142 1.49319 0
M  V30 5125 C 497.89 -1.25598 1.58334 0
M  V30 5126 C 498.211 -1.93114 0.270538 0
M  V30 5127 O 497.481 -1.82585 -0.709891 0
M  V30 5128 H 496.061 -0.466571 0.58337 0
M  V30 5129 H 498.723 -0.584547 1.85928 0
M  V30 5130 H 497.819 -2.02159 2.37778 0
M  V30 5131 N 498.12 -1.38341 -0.754957 0
M  V30 5132 C 499.366 -1.34672 -1.51628 0
M  V30 5133 C 499.699 0.0636036 -1.94096 0
M  V30 5134 O 498.974 1.0245 -1.6533 0
M  V30 5135 C 499.257 -2.30116 -2.76981 0
M  V30 5136 C 499.11 -3.80003 -2.4066 0
M  V30 5137 C 500.429 -2.23715 -3.78998 0
M  V30 5138 H 497.548 -0.490517 -0.550056 0
M  V30 5139 H 500.19 -1.69178 -0.864807 0
M  V30 5140 H 498.34 -2.00821 -3.3257 0
M  V30 5141 H 500.012 -4.19966 -1.90856 0
M  V30 5142 H 498.255 -3.97751 -1.73137 0
M  V30 5143 H 498.926 -4.42244 -3.30339 0
M  V30 5144 H 501.402 -2.49574 -3.32945 0
M  V30 5145 H 500.278 -2.9261 -4.64403 0
M  V30 5146 H 500.539 -1.23554 -4.24484 0
M  V30 5147 N 499.598 0.982988 -1.23187 0
M  V30 5148 C 500.828 1.75666 -1.08743 0
M  V30 5149 C 501.236 1.85662 0.364195 0
M  V30 5150 O 500.579 1.33317 1.26382 0
M  V30 5151 C 500.641 3.20144 -1.63549 0
M  V30 5152 C 500.305 3.33665 -3.12277 0
M  V30 5153 C 501.302 3.20194 -4.096 0
M  V30 5154 C 498.987 3.58397 -3.51933 0
M  V30 5155 C 500.981 3.31256 -5.44563 0
M  V30 5156 C 498.668 3.69098 -4.87042 0
M  V30 5157 C 499.666 3.55537 -5.83166 0
M  V30 5158 O 499.354 3.65864 -7.1582 0
M  V30 5159 H 499.086 0.558194 -0.381307 0
M  V30 5160 H 501.64 1.24387 -1.63454 0
M  V30 5161 H 499.87 3.72659 -1.03256 0
M  V30 5162 H 501.559 3.79262 -1.4462 0
M  V30 5163 H 502.325 3.00987 -3.80305 0
M  V30 5164 H 498.204 3.68025 -2.77631 0
M  V30 5165 H 501.748 3.20588 -6.19572 0
M  V30 5166 H 497.645 3.87814 -5.16014 0
M  V30 5167 H 498.413 3.82675 -7.23534 0
M  V30 5168 N 501.076 1.04316 1.18135 0
M  V30 5169 C 502.304 0.768117 1.92113 0
M  V30 5170 C 502.719 -0.675057 1.76319 0
M  V30 5171 O 502.076 -1.46038 1.09449 0
M  V30 5172 C 502.127 1.12808 3.43448 0
M  V30 5173 O 501.848 2.5146 3.58747 0
M  V30 5174 C 503.349 0.8779 4.3452 0
M  V30 5175 H 500.569 0.279937 0.609817 0
M  V30 5176 H 503.113 1.39149 1.49859 0
M  V30 5177 H 501.268 0.549623 3.83481 0
M  V30 5178 H 501.682 2.65313 4.52448 0
M  V30 5179 H 503.156 1.17959 5.39249 0
M  V30 5180 H 503.633 -0.187239 4.38801 0
M  V30 5181 H 504.239 1.43977 4.00188 0
M  V30 5182 N 502.554 -1.34406 0.822964 0
M  V30 5183 C 503.501 -2.29519 0.24284 0
M  V30 5184 C 504.471 -1.5359 -0.632397 0
M  V30 5185 O 505.656 -1.8196 -0.57403 0
M  V30 5186 C 502.796 -3.40032 -0.58925 0
M  V30 5187 C 501.909 -4.30899 0.308236 0
M  V30 5188 C 501.044 -5.28515 -0.533425 0
M  V30 5189 C 500.083 -6.1102 0.363444 0
M  V30 5190 N 499.22 -7.00725 -0.439147 0
M  V30 5191 H 504.06 -2.78537 1.05929 0
M  V30 5192 H 501.597 -1.3707 0.533872 0
M  V30 5193 H 503.555 -4.0279 -1.087 0
M  V30 5194 H 502.185 -2.92248 -1.37081 0
M  V30 5195 H 501.237 -3.69002 0.924203 0
M  V30 5196 H 502.549 -4.88717 0.997862 0
M  V30 5197 H 501.703 -5.96725 -1.09565 0
M  V30 5198 H 500.442 -4.71235 -1.25656 0
M  V30 5199 H 499.447 -5.41743 0.937812 0
M  V30 5200 H 500.672 -6.70381 1.08469 0
M  V30 5201 H 498.618 -6.45913 -1.14595 0
M  V30 5202 H 498.535 -7.55756 0.19209 0
M  V30 5203 H 499.803 -7.73263 -0.984124 0
M  V30 5204 N 504.032 -0.577932 -1.46621 0
M  V30 5205 C 505.278 -0.0617793 -2.02706 0
M  V30 5206 C 505.611 1.29294 -1.44903 0
M  V30 5207 O 504.886 1.8461 -0.61232 0
M  V30 5208 C 505.169 0.00911824 -3.60099 0
M  V30 5209 C 505.022 -1.37416 -4.28295 0
M  V30 5210 C 506.341 0.712159 -4.343 0
M  V30 5211 H 503.46 -0.0239246 -0.736612 0
M  V30 5212 H 506.102 -0.744211 -1.74818 0
M  V30 5213 H 504.252 0.590292 -3.83989 0
M  V30 5214 H 505.924 -2.00013 -4.15683 0
M  V30 5215 H 504.167 -1.94319 -3.87843 0
M  V30 5216 H 504.838 -1.27707 -5.37024 0
M  V30 5217 H 507.314 0.218486 -4.15526 0
M  V30 5218 H 506.19 0.730782 -5.44014 0
M  V30 5219 H 506.451 1.77251 -4.05012 0
M  V30 5220 N 505.51 1.54411 -0.315457 0
M  V30 5221 C 506.738 2.04833 0.291738 0
M  V30 5222 C 507.153 1.19203 1.46411 0
M  V30 5223 O 506.51 0.220867 1.81159 0
M  V30 5224 C 506.561 3.53969 0.73404 0
M  V30 5225 O 506.282 4.36346 -0.391682 0
M  V30 5226 C 507.783 4.2045 1.40489 0
M  V30 5227 H 505.003 0.668195 0.0612947 0
M  V30 5228 H 507.547 1.99276 -0.45929 0
M  V30 5229 H 505.702 3.5984 1.43506 0
M  V30 5230 H 506.116 5.24481 -0.0447088 0
M  V30 5231 H 507.59 5.26278 1.66539 0
M  V30 5232 H 508.067 3.71067 2.3496 0
M  V30 5233 H 508.673 4.18694 0.746662 0
M  V30 5234 N 506.988 0.0434614 1.5754 0
M  V30 5235 C 507.936 -0.951465 2.1225 0
M  V30 5236 C 508.93 -1.3274 1.05245 0
M  V30 5237 O 510.136 -1.30795 1.23663 0
M  V30 5238 H 506.511 -0.324667 0.678303 0
M  V30 5239 H 508.482 -0.464855 2.94757 0
M  V30 5240 C 507.231 -2.21972 2.67626 0
M  V30 5241 H 506.554 -1.93923 3.4962 0
M  V30 5242 H 507.994 -2.89765 3.09536 0
M  V30 5243 C 506.453 -2.95919 1.61038 0
M  V30 5244 O 506.983 -3.8857 1.01862 0
M  V30 5245 N 505.189 -2.58511 1.32741 0
M  V30 5246 H 504.736 -1.83244 1.81051 0
M  V30 5247 H 504.694 -3.08296 0.616531 0
M  V30 5248 N 508.466 -1.55915 -0.229846 0
M  V30 5249 C 509.696 -1.82352 -0.971152 0
M  V30 5250 C 510.104 -0.619231 -1.7878 0
M  V30 5251 O 509.447 0.421597 -1.78797 0
M  V30 5252 C 509.509 -3.02399 -1.9441 0
M  V30 5253 C 509.173 -4.37739 -1.31277 0
M  V30 5254 C 510.17 -5.15074 -0.706757 0
M  V30 5255 C 507.855 -4.84454 -1.32702 0
M  V30 5256 C 509.849 -6.37281 -0.123413 0
M  V30 5257 C 507.536 -6.06605 -0.739831 0
M  V30 5258 C 508.534 -6.82858 -0.139071 0
M  V30 5259 O 508.222 -8.027 0.439007 0
M  V30 5260 H 507.954 -0.61035 -0.290601 0
M  V30 5261 H 510.508 -2.03839 -0.252746 0
M  V30 5262 H 508.738 -2.76709 -2.70128 0
M  V30 5263 H 510.427 -3.15779 -2.55026 0
M  V30 5264 H 511.193 -4.80093 -0.688131 0
M  V30 5265 H 507.072 -4.25081 -1.78402 0
M  V30 5266 H 510.616 -6.96741 0.346124 0
M  V30 5267 H 506.513 -6.4106 -0.755841 0
M  V30 5268 H 507.281 -8.17824 0.332521 0
M  V30 5269 N 509.944 0.496216 -1.49584 0
M  V30 5270 C 510.874 1.60576 -1.69521 0
M  V30 5271 C 511.855 1.61169 -0.543933 0
M  V30 5272 O 513.04 1.77834 -0.78031 0
M  V30 5273 C 510.17 2.99038 -1.76616 0
M  V30 5274 C 509.124 3.13312 -2.91581 0
M  V30 5275 C 508.45 4.53172 -2.83794 0
M  V30 5276 C 509.75 2.92886 -4.32452 0
M  V30 5277 H 511.444 1.44146 -2.62416 0
M  V30 5278 H 508.99 0.692024 -1.26282 0
M  V30 5279 H 510.943 3.76564 -1.8915 0
M  V30 5280 H 509.667 3.16568 -0.80324 0
M  V30 5281 H 508.326 2.38213 -2.78658 0
M  V30 5282 H 507.974 4.67585 -1.854 0
M  V30 5283 H 507.674 4.63662 -3.60958 0
M  V30 5284 H 509.198 5.32752 -2.98342 0
M  V30 5285 H 510.612 3.60178 -4.46032 0
M  V30 5286 H 509.009 3.14844 -5.10875 0
M  V30 5287 H 510.079 1.88966 -4.46565 0
M  V30 5288 N 511.423 1.38739 0.74761 0
M  V30 5289 C 512.7 1.25791 1.49786 0
M  V30 5290 C 513.08 -0.138075 2.10648 0
M  V30 5291 O 512.428 -1.14815 1.9756 0
M  V30 5292 C 512.638 2.37265 2.55942 0
M  V30 5293 C 513.986 2.75978 3.22679 0
M  V30 5294 O 515.01 2.36621 2.6625 0
M  V30 5295 O 513.869 3.43867 4.24756 0
M  V30 5296 H 510.963 0.492251 0.664543 0
M  V30 5297 H 513.509 1.50582 0.782511 0
M  V30 5298 H 512.281 3.30644 2.0926 0
M  V30 5299 H 511.904 2.14071 3.35051 0
M  V30 5300 N 512.901 -0.976442 1.23707 0
M  V30 5301 C 514.147 -1.72158 1.08319 0
M  V30 5302 C 514.502 -1.88701 -0.375445 0
M  V30 5303 O 513.795 -1.43107 -1.274 0
M  V30 5304 C 513.989 -3.11814 1.74662 0
M  V30 5305 C 513.818 -3.08892 3.26827 0
M  V30 5306 C 512.588 -3.13861 3.96004 0
M  V30 5307 C 514.786 -2.9175 4.2354 0
M  V30 5308 N 512.768 -3.00867 5.35119 0
M  V30 5309 C 514.139 -2.8696 5.49595 0
M  V30 5310 C 516.194 -2.76265 4.14225 0
M  V30 5311 C 514.897 -2.68268 6.67401 0
M  V30 5312 C 516.923 -2.58938 5.317 0
M  V30 5313 C 516.285 -2.54849 6.56682 0
M  V30 5314 H 512.384 -0.638896 0.450927 0
M  V30 5315 H 514.968 -1.15835 1.56494 0
M  V30 5316 H 513.139 -3.66347 1.29014 0
M  V30 5317 H 514.871 -3.74984 1.52215 0
M  V30 5318 H 511.626 -3.22198 3.4711 0
M  V30 5319 H 512.05 -2.97634 6.08065 0
M  V30 5320 H 516.692 -2.78213 3.18366 0
M  V30 5321 H 514.41 -2.65063 7.63392 0
M  V30 5322 H 517.996 -2.47914 5.26336 0
M  V30 5323 H 516.876 -2.41611 7.46052 0
M  V30 5324 N 514.379 -1.04941 -1.1758 0
M  V30 5325 C 515.628 -0.753124 -1.87112 0
M  V30 5326 C 515.941 0.722507 -1.81767 0
M  V30 5327 O 517.147 1.13265 -2.46746 0
M  V30 5328 C 515.603 -1.29695 -3.35719 0
M  V30 5329 C 515.211 -2.80184 -3.49572 0
M  V30 5330 C 516.955 -1.07759 -4.10595 0
M  V30 5331 C 514.862 -3.2788 -4.92187 0
M  V30 5332 H 513.792 -0.278034 -0.700866 0
M  V30 5333 H 516.443 -1.26637 -1.32798 0
M  V30 5334 H 514.825 -0.711522 -3.89555 0
M  V30 5335 H 515.999 -3.44561 -3.05965 0
M  V30 5336 H 514.314 -3.00632 -2.88113 0
M  V30 5337 H 516.911 -1.40899 -5.15802 0
M  V30 5338 H 517.254 -0.0152302 -4.16297 0
M  V30 5339 H 517.787 -1.62809 -3.62957 0
M  V30 5340 H 514.526 -4.33535 -4.91658 0
M  V30 5341 H 514.046 -2.68245 -5.36475 0
M  V30 5342 H 515.725 -3.22412 -5.60945 0
M  V30 5343 N 515.857 1.33968 -0.830081 0
M  V30 5344 C 517.273 1.51003 -0.516742 0
M  V30 5345 C 517.473 1.77286 0.957694 0
M  V30 5346 O 516.529 1.82797 1.74188 0
M  V30 5347 C 517.842 2.67036 -1.38247 0
M  V30 5348 C 519.39 2.80919 -1.38034 0
M  V30 5349 C 519.865 4.00004 -2.23071 0
M  V30 5350 N 521.356 4.07224 -2.20733 0
M  V30 5351 C 522.091 4.98541 -2.83275 0
M  V30 5352 N 521.587 5.95033 -3.54835 0
M  V30 5353 N 523.38 4.91469 -2.72791 0
M  V30 5354 H 515.531 1.15168 -1.78466 0
M  V30 5355 H 517.794 0.565443 -0.760906 0
M  V30 5356 H 517.5 2.54266 -2.42985 0
M  V30 5357 H 517.374 3.62226 -1.05225 0
M  V30 5358 H 519.761 2.93127 -0.340713 0
M  V30 5359 H 519.842 1.86517 -1.75057 0
M  V30 5360 H 519.486 3.88557 -3.27087 0
M  V30 5361 H 519.416 4.93634 -1.83394 0
M  V30 5362 H 521.907 3.38162 -1.68687 0
M  V30 5363 H 522.22 6.61357 -3.99784 0
M  V30 5364 H 520.565 5.95135 -3.58942 0
M  V30 5365 H 523.756 4.15048 -2.16456 0
M  V30 5366 H 523.929 5.62439 -3.21818 0
M  V30 5367 N 517.335 0.585699 1.46312 0
M  V30 5368 C 518.612 0.00542031 1.95599 0
M  V30 5369 C 518.992 -1.45619 1.52834 0
M  V30 5370 O 518.34 -2.14759 0.780446 0
M  V30 5371 C 518.55 0.180601 3.48532 0
M  V30 5372 C 519.898 0.049979 4.24571 0
M  V30 5373 O 520.922 0.109589 3.56031 0
M  V30 5374 O 519.781 -0.0832226 5.46437 0
M  V30 5375 H 516.875 -0.0481281 0.825598 0
M  V30 5376 H 519.421 0.654227 1.56582 0
M  V30 5377 H 518.193 1.19657 3.72556 0
M  V30 5378 H 517.816 -0.504498 3.94386 0
M  V30 5379 N 518.813 -1.54241 0.323641 0
M  V30 5380 C 519.761 -2.25813 -0.557804 0
M  V30 5381 C 520.755 -1.27225 -1.11849 0
M  V30 5382 O 521.961 -1.45001 -1.06652 0
M  V30 5383 H 518.336 -0.72532 -0.198532 0
M  V30 5384 H 520.307 -2.98322 0.0681112 0
M  V30 5385 C 519.056 -3.02913 -1.70701 0
M  V30 5386 H 518.379 -3.78593 -1.28482 0
M  V30 5387 H 519.819 -3.56238 -2.29935 0
M  V30 5388 C 518.278 -2.11217 -2.62467 0
M  V30 5389 O 518.808 -1.69508 -3.64184 0
M  V30 5390 N 517.014 -1.76704 -2.30703 0
M  V30 5391 H 516.561 -2.1082 -1.48029 0
M  V30 5392 H 516.519 -1.15631 -2.92364 0
M  V30 5393 N 520.291 -0.0518155 -1.57515 0
M  V30 5394 C 521.224 0.957758 -2.07129 0
M  V30 5395 C 522.202 1.30355 -0.971927 0
M  V30 5396 O 523.386 1.41631 -1.2439 0
M  V30 5397 C 520.513 2.27157 -2.51232 0
M  V30 5398 C 519.559 2.07879 -3.72409 0
M  V30 5399 S 520.392 1.35656 -5.18033 0
M  V30 5400 C 521.548 2.68359 -5.65451 0
M  V30 5401 H 521.781 0.53552 -2.92437 0
M  V30 5402 H 519.314 0.160465 -1.53564 0
M  V30 5403 H 521.272 3.02676 -2.77304 0
M  V30 5404 H 519.933 2.66509 -1.66228 0
M  V30 5405 H 519.126 3.05061 -4.01191 0
M  V30 5406 H 518.728 1.40499 -3.46606 0
M  V30 5407 H 521.02 3.64526 -5.71076 0
M  V30 5408 H 521.963 2.44213 -6.64654 0
M  V30 5409 H 522.371 2.74647 -4.93183 0
M  V30 5410 N 521.769 1.56035 0.221574 0
M  V30 5411 C 523.185 1.49026 0.571271 0
M  V30 5412 C 523.385 0.746912 1.87146 0
M  V30 5413 O 522.441 0.286566 2.50869 0
M  V30 5414 C 523.754 2.93579 0.650522 0
M  V30 5415 C 525.302 3.04099 0.741151 0
M  V30 5416 C 525.777 4.5001 0.851747 0
M  V30 5417 N 527.268 4.54053 0.915968 0
M  V30 5418 C 528.003 5.64232 1.02125 0
M  V30 5419 N 527.499 6.84164 1.09049 0
M  V30 5420 N 529.292 5.52084 1.05639 0
M  V30 5421 H 521.443 2.02791 -0.63162 0
M  V30 5422 H 523.706 0.921736 -0.221602 0
M  V30 5423 H 523.412 3.50912 -0.235253 0
M  V30 5424 H 523.286 3.45476 1.51413 0
M  V30 5425 H 525.673 2.4683 1.61737 0
M  V30 5426 H 525.754 2.55371 -0.148128 0
M  V30 5427 H 525.398 5.07896 -0.0200117 0
M  V30 5428 H 525.328 4.96444 1.75644 0
M  V30 5429 H 527.819 3.67683 0.872782 0
M  V30 5430 H 528.132 7.63883 1.1706 0
M  V30 5431 H 526.477 6.86875 1.05962 0
M  V30 5432 H 529.668 4.57317 0.998953 0
M  V30 5433 H 529.841 6.37983 1.13498 0
M  V30 5434 N 523.247 -0.488276 1.49845 0
M  V30 5435 C 524.658 -1.06955 1.53028 0
M  V30 5436 C 525.009 -1.9351 0.323797 0
M  V30 5437 O 524.134 -2.08891 -0.565116 0
M  V30 5438 C 524.729 -1.94643 2.77307 0
M  V30 5439 C 523.288 -2.4791 2.83227 0
M  V30 5440 C 522.435 -1.25833 2.47106 0
M  V30 5441 H 525.386 -0.271626 1.56358 0
M  V30 5442 H 525.407 -2.79496 2.5819 0
M  V30 5443 H 524.919 -1.31621 3.65099 0
M  V30 5444 H 523.02 -3.14535 1.99745 0
M  V30 5445 H 523.133 -2.84193 3.85709 0
M  V30 5446 H 521.497 -1.58764 1.99163 0
M  V30 5447 H 522.28 -0.644993 3.37186 0
M  V30 5448 O 524.764 -1.48549 -0.633678 0
M  V30 5449 H 525.455 -1.447 -1.28769 0
M  V30 END ATOM
M  V30 BEGIN BOND
M  V30 END BOND
M  V30 END CTAB
M  END
$$$$
