drugbank_target|P25021 Histamine H2 receptor (DB00272; DB00321; DB00408; DB00501; DB00585; DB00751; DB00768; DB00797; DB00863; DB00927; DB00940; DB00972; DB01069; DB01142; DB01238; DB05369; DB05381; DB06216; DB08805; DB08806)
 OpenBabel12092119243D

  0  0  0     0  0            999 V3000
M  V30 BEGIN CTAB
M  V30 COUNTS 5734 5791 0 0 0
M  V30 BEGIN ATOM
M  V30 1 H -0.908 1.98254 -0.117106 0
M  V30 2 N 0 1.576 0 0
M  V30 3 C 0.933 2.03868 1.02534 0
M  V30 4 C 1.911 0.928543 1.3348 0
M  V30 5 O 3.095 1.19667 1.45644 0
M  V30 6 C 0.222 2.43627 2.35294 0
M  V30 7 C -0.732 3.65373 2.2001 0
M  V30 8 S 0.101 5.13292 1.52614 0
M  V30 9 C 1.257 5.56322 2.86805 0
M  V30 10 H 1.49 2.90518 0.631377 0
M  V30 11 H -0.977 1.52953 0.210867 0
M  V30 12 H 0.981 2.67203 3.11629 0
M  V30 13 H -0.358 1.57376 2.7183 0
M  V30 14 H -1.165 3.90944 3.18086 0
M  V30 15 H -1.563 3.418 1.51819 0
M  V30 16 H 0.729 5.58782 3.83104 0
M  V30 17 H 1.672 6.56266 2.65933 0
M  V30 18 H 2.08 4.83886 2.90714 0
M  V30 19 N 1.4781 -0.272755 1.55222 0
M  V30 20 C 2.4411 -1.32041 1.87344 0
M  V30 21 C 3.4411 -1.42342 0.74803 0
M  V30 22 O 4.6311 -1.41488 1.0162 0
M  V30 23 C 1.7631 -2.70173 2.07893 0
M  V30 24 H 2.9561 -1.04789 2.80997 0
M  V30 25 H 0.5091 -0.51083 1.47717 0
M  V30 26 H 1.2441 -3.02605 1.16622 0
M  V30 27 H 1.0291 -2.64082 2.89833 0
M  V30 28 H 2.5191 -3.45869 2.34017 0
M  V30 29 N 2.9562 -1.48159 -0.537278 0
M  V30 30 C 4.3672 -1.49429 -1.11928 0
M  V30 31 C 4.7182 -0.26 -1.9447 0
M  V30 32 O 3.8432 0.633489 -2.0692 0
M  V30 33 C 4.4382 -2.70758 -2.03656 0
M  V30 34 C 2.9972 -2.74923 -2.57088 0
M  V30 35 C 2.1442 -2.42835 -1.3389 0
M  V30 36 H 5.0952 -1.55381 -0.322886 0
M  V30 37 H 5.1162 -2.48861 -2.87834 0
M  V30 38 H 4.6282 -3.60575 -1.43553 0
M  V30 39 H 2.7292 -1.89296 -3.20933 0
M  V30 40 H 2.8422 -3.76157 -2.9672 0
M  V30 41 H 1.2062 -1.93836 -1.65226 0
M  V30 42 H 1.9892 -3.34884 -0.755504 0
M  V30 43 N 4.4343 0.785586 -1.36625 0
M  V30 44 C 5.3823 1.91978 -1.31329 0
M  V30 45 C 6.3763 1.68162 -0.204416 0
M  V30 46 O 7.5823 1.76122 -0.371645 0
M  V30 47 H 3.9573 0.631087 -0.408942 0
M  V30 48 H 5.9283 1.93562 -2.27104 0
M  V30 49 C 4.6773 3.29055 -1.12329 0
M  V30 50 H 4.0003 3.4795 -1.96903 0
M  V30 51 H 5.4403 4.08756 -1.12671 0
M  V30 52 C 3.8993 3.36461 0.171861 0
M  V30 53 O 4.4293 3.84576 1.16035 0
M  V30 54 N 2.6353 2.89782 0.217846 0
M  V30 55 H 2.1823 2.50819 -0.587183 0
M  V30 56 H 2.1403 2.95119 1.08408 0
M  V30 57 N 5.9124 1.20967 1.01018 0
M  V30 58 C 7.1604 1.02172 1.74371 0
M  V30 59 C 7.4814 -0.446414 1.89821 0
M  V30 60 O 6.7514 -1.32234 1.44537 0
M  V30 61 H 5.3314 0.375066 0.646014 0
M  V30 62 H 7.9934 1.52187 1.21758 0
M  V30 63 H 7.0894 1.48538 2.74487 0
M  V30 64 N 7.3905 -1.2043 1.01659 0
M  V30 65 C 8.6185 -1.93777 0.725132 0
M  V30 66 C 9.0335 -1.74772 -0.714166 0
M  V30 67 O 8.3905 -1.06169 -1.4844 0
M  V30 68 C 8.4415 -3.45876 1.05129 0
M  V30 69 O 8.1625 -3.6426 2.43406 0
M  V30 70 C 9.6635 -4.36368 0.780891 0
M  V30 71 H 6.8835 -0.615901 0.266284 0
M  V30 72 H 9.4275 -1.52922 1.35776 0
M  V30 73 H 7.5825 -3.8461 0.464065 0
M  V30 74 H 7.9965 -4.58246 2.55169 0
M  V30 75 H 9.4705 -5.41743 1.05918 0
M  V30 76 H 9.9475 -4.38275 -0.284937 0
M  V30 77 H 10.5535 -4.03296 1.35027 0
M  V30 78 N 8.8686 -0.792821 -1.36206 0
M  V30 79 C 9.8316 -0.199459 -2.2833 0
M  V30 80 C 10.8316 0.605189 -1.48977 0
M  V30 81 O 12.0216 0.425685 -1.68919 0
M  V30 82 C 9.1536 0.723523 -3.33134 0
M  V30 83 H 10.3466 -1.01181 -2.82316 0
M  V30 84 H 7.8996 -0.562485 -1.45828 0
M  V30 85 H 8.6346 1.56008 -2.84309 0
M  V30 86 H 8.4196 0.148436 -3.91819 0
M  V30 87 H 9.9096 1.13344 -4.01924 0
M  V30 88 N 10.3467 1.47872 -0.545128 0
M  V30 89 C 11.5717 2.07391 -0.0190611 0
M  V30 90 C 11.9967 1.39688 1.25971 0
M  V30 91 O 11.3547 0.467816 1.7516 0
M  V30 92 C 11.4027 3.60188 0.172335 0
M  V30 93 O 10.5067 3.9339 1.23766 0
M  V30 94 H 9.8477 0.662411 -0.0459059 0
M  V30 95 H 12.3777 1.90066 -0.757365 0
M  V30 96 H 12.3877 4.06129 0.390305 0
M  V30 97 H 11.0627 4.08865 -0.761725 0
M  V30 98 H 9.6397 3.5921 1.00114 0
M  V30 99 N 11.8248 0.280983 1.55075 0
M  V30 100 C 13.0498 -0.340154 2.04592 0
M  V30 101 C 13.4748 -1.48246 1.15779 0
M  V30 102 O 12.8328 -1.80614 0.15761 0
M  V30 103 C 12.8808 -0.793104 3.5177 0
M  V30 104 O 11.9848 -1.89981 3.66034 0
M  V30 105 H 11.3258 -0.0694289 0.66036 0
M  V30 106 H 13.8558 0.416993 2.00306 0
M  V30 107 H 13.8658 -1.08729 3.93245 0
M  V30 108 H 12.5408 0.0426163 4.15878 0
M  V30 109 H 11.1178 -1.60771 3.36463 0
M  V30 110 N 13.3029 -1.57598 0.00835791 0
M  V30 111 C 14.5499 -1.90928 -0.674732 0
M  V30 112 C 14.8779 -0.88277 -1.73313 0
M  V30 113 O 14.1329 0.111294 -1.95383 0
M  V30 114 C 14.4319 -3.3101 -1.34787 0
M  V30 115 C 14.0979 -4.48922 -0.421861 0
M  V30 116 C 12.7599 -4.8091 -0.166927 0
M  V30 117 C 15.1119 -5.20755 0.215211 0
M  V30 118 C 12.4399 -5.821 0.733232 0
M  V30 119 C 14.7919 -6.22905 1.1033 0
M  V30 120 C 13.4559 -6.53346 1.36733 0
M  V30 121 H 12.7259 -0.698656 -0.246902 0
M  V30 122 H 15.3729 -1.91387 0.0656779 0
M  V30 123 H 13.6779 -3.26714 -2.16253 0
M  V30 124 H 15.3749 -3.54061 -1.8826 0
M  V30 125 H 11.9649 -4.23934 -0.630729 0
M  V30 126 H 16.1489 -4.9629 0.0312829 0
M  V30 127 H 11.4049 -6.04042 0.945712 0
M  V30 128 H 15.5789 -6.77694 1.60325 0
M  V30 129 H 13.2059 -7.31573 2.06652 0
M  V30 130 N 14.781 0.264519 -1.55364 0
M  V30 131 C 16.021 1.00254 -1.78125 0
M  V30 132 C 16.385 1.83187 -0.575017 0
M  V30 133 O 17.586 2.60029 -0.681042 0
M  V30 134 C 15.857 1.85478 -3.05504 0
M  V30 135 S 17.416 2.6543 -3.49417 0
M  V30 136 H 14.234 0.337522 -0.625779 0
M  V30 137 H 16.836 0.272111 -1.93597 0
M  V30 138 H 15.54 1.23491 -3.9138 0
M  V30 139 H 15.071 2.62827 -2.92721 0
M  V30 140 H 17.086 3.87958 -3.09359 0
M  V30 141 N 16.2591 1.48442 0.529413 0
M  V30 142 C 17.1891 1.65902 1.64313 0
M  V30 143 C 18.1701 0.507897 1.6234 0
M  V30 144 O 19.3551 0.740503 1.79528 0
M  V30 145 C 16.4851 1.69911 3.02898 0
M  V30 146 C 15.4391 2.8453 3.19729 0
M  V30 147 C 14.7651 2.73629 4.59381 0
M  V30 148 C 16.0651 4.25821 3.02447 0
M  V30 149 H 17.7591 2.5914 1.49955 0
M  V30 150 H 15.3051 1.24709 0.719982 0
M  V30 151 H 17.2581 1.80715 3.80684 0
M  V30 152 H 15.9821 0.732524 3.18279 0
M  V30 153 H 14.6411 2.73283 2.44361 0
M  V30 154 H 14.2891 1.74938 4.71599 0
M  V30 155 H 13.9891 3.50541 4.71588 0
M  V30 156 H 15.5131 2.86401 5.39265 0
M  V30 157 H 16.9271 4.37898 3.70024 0
M  V30 158 H 15.3241 5.03735 3.26146 0
M  V30 159 H 16.3941 4.42244 1.98867 0
M  V30 160 N 17.7372 -0.778329 1.37039 0
M  V30 161 C 19.0142 -1.52551 1.22424 0
M  V30 162 C 19.3942 -2.10288 -0.184964 0
M  V30 163 O 18.7422 -1.94953 -1.19187 0
M  V30 164 C 18.9522 -2.61164 2.31504 0
M  V30 165 C 20.3002 -3.28746 2.68721 0
M  V30 166 O 21.3242 -2.71455 2.30631 0
M  V30 167 O 20.1832 -4.3231 3.3432 0
M  V30 168 H 17.2772 -0.675343 0.477326 0
M  V30 169 H 19.8232 -0.815859 1.48801 0
M  V30 170 H 18.5952 -2.16574 3.25901 0
M  V30 171 H 18.2182 -3.39737 2.06554 0
M  V30 172 N 19.2153 -1.21501 -1.00376 0
M  V30 173 C 20.4403 -1.05977 -1.78279 0
M  V30 174 C 20.8653 0.385994 -1.84097 0
M  V30 175 O 20.2233 1.27849 -1.28547 0
M  V30 176 C 20.2713 -1.66302 -3.19963 0
M  V30 177 O 19.3753 -0.909333 -4.0225 0
M  V30 178 H 18.7163 -0.372906 -0.549397 0
M  V30 179 H 21.2463 -1.6107 -1.26165 0
M  V30 180 H 21.2563 -1.70574 -3.70632 0
M  V30 181 H 19.9313 -2.71515 -3.15043 0
M  V30 182 H 18.5083 -0.941795 -3.60811 0
M  V30 183 N 20.6934 1.19889 -1.02296 0
M  V30 184 C 21.9214 1.9339 -0.735399 0
M  V30 185 C 22.3364 1.75148 0.704887 0
M  V30 186 O 21.6934 1.06954 1.47875 0
M  V30 187 C 21.7444 3.45313 -1.06962 0
M  V30 188 O 21.4654 3.62964 -2.45334 0
M  V30 189 C 22.9664 4.35948 -0.804021 0
M  V30 190 H 20.1864 0.61448 -0.269546 0
M  V30 191 H 22.7304 1.522 -1.36585 0
M  V30 192 H 20.8854 3.84359 -0.484455 0
M  V30 193 H 21.2994 4.56886 -2.57595 0
M  V30 194 H 22.7734 5.41174 -1.0879 0
M  V30 195 H 23.2504 4.3842 0.261691 0
M  V30 196 H 23.8564 4.02574 -1.37164 0
M  V30 197 N 22.1715 0.800033 1.35784 0
M  V30 198 C 23.1345 0.211565 2.28221 0
M  V30 199 C 24.1345 -0.59728 1.49296 0
M  V30 200 O 25.3245 -0.416721 1.69142 0
M  V30 201 C 22.4565 -0.705846 3.33513 0
M  V30 202 H 23.6495 1.02677 2.81776 0
M  V30 203 H 21.2025 0.570211 1.45528 0
M  V30 204 H 21.9375 -1.54498 2.85133 0
M  V30 205 H 21.7225 -0.127655 3.91892 0
M  V30 206 H 23.2125 -1.11211 4.02519 0
M  V30 207 N 23.6496 -1.47581 0.552962 0
M  V30 208 C 24.8896 -2.04379 0.0296245 0
M  V30 209 C 25.2536 -1.4185 -1.29393 0
M  V30 210 O 26.4546 -1.89669 -1.90471 0
M  V30 211 C 24.7256 -3.57339 -0.0661371 0
M  V30 212 S 26.2846 -4.35511 -0.536213 0
M  V30 213 H 23.1026 -0.710625 0.0230991 0
M  V30 214 H 25.7046 -1.81005 0.738734 0
M  V30 215 H 24.4086 -4.00374 0.901596 0
M  V30 216 H 23.9396 -3.85202 -0.798931 0
M  V30 217 H 25.9546 -4.6253 -1.79668 0
M  V30 218 N 25.1277 -0.289203 -1.54924 0
M  V30 219 C 26.0747 0.592115 -2.23075 0
M  V30 220 C 27.0447 1.13881 -1.20915 0
M  V30 221 O 28.2297 1.18551 -1.495 0
M  V30 222 C 25.3697 1.76376 -2.96623 0
M  V30 223 C 24.4827 1.24959 -4.13533 0
M  V30 224 C 23.6177 2.38416 -4.74691 0
M  V30 225 C 22.6567 1.84072 -5.83767 0
M  V30 226 N 21.7937 2.91057 -6.38929 0
M  V30 227 H 26.6337 0.00432038 -2.98 0
M  V30 228 H 24.1707 -0.00963529 -1.47097 0
M  V30 229 H 26.1287 2.45268 -3.3749 0
M  V30 230 H 24.7587 2.32337 -2.24097 0
M  V30 231 H 23.8107 0.453307 -3.77689 0
M  V30 232 H 25.1227 0.811662 -4.92152 0
M  V30 233 H 24.2767 3.15276 -5.18349 0
M  V30 234 H 23.0157 2.8553 -3.95378 0
M  V30 235 H 22.0207 1.05697 -5.39545 0
M  V30 236 H 23.2457 1.37877 -6.64956 0
M  V30 237 H 21.1917 3.37526 -5.62505 0
M  V30 238 H 21.1087 2.51724 -7.12861 0
M  V30 239 H 22.3767 3.6785 -6.87246 0
M  V30 240 N 26.6058 1.57591 -0.0167156 0
M  V30 241 C 27.8548 1.90461 0.663877 0
M  V30 242 C 28.1678 0.893515 1.73999 0
M  V30 243 O 29.3738 1.11302 2.47637 0
M  V30 244 C 27.8298 3.38155 1.23204 0
M  V30 245 C 27.4378 4.47597 0.189866 0
M  V30 246 C 29.1818 3.80111 1.88986 0
M  V30 247 C 27.0888 5.86379 0.768964 0
M  V30 248 H 26.0188 0.710738 0.251729 0
M  V30 249 H 28.6698 1.83326 -0.0799926 0
M  V30 250 H 27.0518 3.40182 2.02712 0
M  V30 251 H 28.2258 4.57112 -0.581846 0
M  V30 252 H 26.5408 4.14766 -0.368475 0
M  V30 253 H 29.1378 4.81145 2.33247 0
M  V30 254 H 29.4808 3.14511 2.72743 0
M  V30 255 H 30.0138 3.80454 1.16187 0
M  V30 256 H 26.7528 6.55493 -0.0301957 0
M  V30 257 H 26.2728 5.80496 1.50945 0
M  V30 258 H 27.9518 6.34563 1.26251 0
M  V30 259 N 28.0839 -0.256276 1.55502 0
M  V30 260 C 29.3119 -1.00342 1.8094 0
M  V30 261 C 29.7269 -1.79307 0.59114 0
M  V30 262 O 29.0839 -1.77114 -0.440081 0
M  V30 263 C 29.1349 -1.94875 3.04476 0
M  V30 264 O 28.8559 -1.19107 4.21598 0
M  V30 265 C 30.3569 -2.81266 3.42644 0
M  V30 266 H 27.5769 -0.295685 0.602338 0
M  V30 267 H 30.1209 -0.281998 2.02546 0
M  V30 268 H 28.2759 -2.62457 2.84947 0
M  V30 269 H 28.6899 -1.82969 4.91551 0
M  V30 270 H 30.1639 -3.43362 4.32211 0
M  V30 271 H 30.6409 -3.51897 2.62802 0
M  V30 272 H 31.2469 -2.1915 3.64491 0
M  V30 273 N 29.562 -1.4872 -0.521534 0
M  V30 274 C 30.811 -1.56419 -1.27341 0
M  V30 275 C 31.124 -0.246805 -1.94037 0
M  V30 276 O 32.33 -0.202122 -2.70747 0
M  V30 277 C 30.786 -2.75896 -2.31105 0
M  V30 278 C 30.394 -4.14311 -1.70441 0
M  V30 279 C 32.138 -2.92913 -3.07249 0
M  V30 280 C 30.045 -5.25038 -2.72194 0
M  V30 281 H 28.975 -0.582344 -0.478949 0
M  V30 282 H 31.626 -1.75071 -0.549779 0
M  V30 283 H 30.008 -2.50697 -3.06541 0
M  V30 284 H 31.182 -4.49564 -1.01136 0
M  V30 285 H 29.497 -4.02482 -1.06759 0
M  V30 286 H 32.094 -3.72805 -3.83302 0
M  V30 287 H 32.437 -2.02689 -3.63625 0
M  V30 288 H 32.97 -3.18054 -2.38928 0
M  V30 289 H 29.709 -6.17255 -2.20627 0
M  V30 290 H 29.229 -4.94263 -3.39801 0
M  V30 291 H 30.908 -5.53508 -3.35019 0
M  V30 292 N 31.0401 0.771051 -1.3745 0
M  V30 293 C 32.2681 1.56015 -1.35893 0
M  V30 294 C 32.6831 1.88718 0.0555523 0
M  V30 295 O 32.0401 1.51502 1.01752 0
M  V30 296 C 32.0911 2.87001 -2.19801 0
M  V30 297 O 31.8121 2.557 -3.55738 0
M  V30 298 C 33.3131 3.81228 -2.26231 0
M  V30 299 H 30.5331 0.483317 -0.465453 0
M  V30 300 H 33.0771 0.955611 -1.80799 0
M  V30 301 H 31.2321 3.43877 -1.78402 0
M  V30 302 H 31.6461 3.39584 -3.99729 0
M  V30 303 H 33.1201 4.70139 -2.89263 0
M  V30 304 H 33.5971 4.20409 -1.27093 0
M  V30 305 H 34.2031 3.30281 -2.67945 0
M  V30 306 N 32.5182 1.22032 0.997298 0
M  V30 307 C 33.7642 1.04376 1.73878 0
M  V30 308 C 34.0972 -0.420716 1.89588 0
M  V30 309 O 33.3722 -1.31202 1.43583 0
M  V30 310 C 33.6552 1.75047 3.14691 0
M  V30 311 C 33.5082 3.29062 3.06656 0
M  V30 312 C 34.8272 1.49928 4.13775 0
M  V30 313 H 31.9462 0.380578 0.631133 0
M  V30 314 H 34.5882 1.50312 1.16217 0
M  V30 315 H 32.7382 1.35996 3.63919 0
M  V30 316 H 34.4102 3.7753 2.65083 0
M  V30 317 H 32.6532 3.58967 2.43568 0
M  V30 318 H 33.3242 3.73683 4.06282 0
M  V30 319 H 35.8002 1.83842 3.73285 0
M  V30 320 H 34.6762 2.01878 5.10428 0
M  V30 321 H 34.9372 0.430929 4.39995 0
M  V30 322 N 33.9963 -1.19345 1.0293 0
M  V30 323 C 35.2423 -1.89318 0.727083 0
M  V30 324 C 35.5753 -1.79446 -0.742483 0
M  V30 325 O 34.8503 -1.1871 -1.54072 0
M  V30 326 C 35.1333 -3.40238 1.17942 0
M  V30 327 C 34.9863 -3.58979 2.71024 0
M  V30 328 C 36.3053 -4.33479 0.760548 0
M  V30 329 H 33.4243 -0.687475 0.265606 0
M  V30 330 H 36.0663 -1.40477 1.2793 0
M  V30 331 H 34.2163 -3.81964 0.709608 0
M  V30 332 H 35.8883 -3.26421 3.25955 0
M  V30 333 H 34.1313 -3.02018 3.11396 0
M  V30 334 H 34.8023 -4.64823 2.9773 0
M  V30 335 H 37.2783 -3.99469 1.16464 0
M  V30 336 H 36.1543 -5.37664 1.10493 0
M  V30 337 H 36.4153 -4.40813 -0.337063 0
M  V30 338 N 35.4744 -0.807222 -1.35358 0
M  V30 339 C 36.4044 -0.232509 -2.3234 0
M  V30 340 C 37.3854 0.642386 -1.57504 0
M  V30 341 O 38.5704 0.572526 -1.85569 0
M  V30 342 C 35.7004 0.619238 -3.41735 0
M  V30 343 C 34.6544 -0.157215 -4.27711 0
M  V30 344 C 33.9804 0.816273 -5.28433 0
M  V30 345 C 35.2804 -1.35656 -5.04376 0
M  V30 346 H 36.9744 -1.04276 -2.80654 0
M  V30 347 H 34.5204 -0.50288 -1.34934 0
M  V30 348 H 36.4734 1.03137 -4.08584 0
M  V30 349 H 35.1974 1.46239 -2.92031 0
M  V30 350 H 33.8564 -0.550525 -3.62443 0
M  V30 351 H 33.5044 1.65494 -4.74996 0
M  V30 352 H 33.2044 0.301067 -5.86828 0
M  V30 353 H 34.7284 1.22659 -5.98153 0
M  V30 354 H 36.1424 -1.01927 -5.64166 0
M  V30 355 H 34.5394 -1.8063 -5.7227 0
M  V30 356 H 35.6094 -2.14288 -4.34981 0
M  V30 357 N 36.9525 1.47285 -0.560781 0
M  V30 358 C 37.9155 2.28535 0.174488 0
M  V30 359 C 38.9155 1.37153 0.839388 0
M  V30 360 O 40.1055 1.59748 0.694702 0
M  V30 361 C 37.2375 3.16934 1.25561 0
M  V30 362 H 38.4305 2.95012 -0.539262 0
M  V30 363 H 35.9835 1.53034 -0.317865 0
M  V30 364 H 36.7185 2.55157 2.00164 0
M  V30 365 H 36.5035 3.8419 0.783604 0
M  V30 366 H 37.9935 3.78143 1.77193 0
M  V30 367 N 38.4306 0.297415 1.54768 0
M  V30 368 C 39.6766 -0.313376 2.00364 0
M  V30 369 C 40.0096 -1.53815 1.18553 0
M  V30 370 O 39.2846 -1.92739 0.261103 0
M  V30 371 C 39.5676 -0.673525 3.53745 0
M  V30 372 C 39.4206 0.560133 4.46299 0
M  V30 373 C 40.7396 -1.50143 4.13697 0
M  V30 374 H 37.8586 -0.112428 0.728374 0
M  V30 375 H 40.5006 0.4088 1.8555 0
M  V30 376 H 38.6506 -1.28881 3.665 0
M  V30 377 H 40.3226 1.19863 4.45455 0
M  V30 378 H 38.5656 1.19405 4.17043 0
M  V30 379 H 39.2366 0.26405 5.51368 0
M  V30 380 H 41.7126 -0.981588 4.04356 0
M  V30 381 H 40.5886 -1.72221 5.21182 0
M  V30 382 H 40.8496 -2.48952 3.65343 0
M  V30 383 N 39.9087 -1.5758 0.0250728 0
M  V30 384 C 40.8387 -2.13007 -0.956575 0
M  V30 385 C 41.8197 -1.0452 -1.342 0
M  V30 386 O 43.0047 -1.32332 -1.42133 0
M  V30 387 C 40.1347 -2.65386 -2.24026 0
M  V30 388 C 39.0887 -3.78623 -1.99571 0
M  V30 389 C 38.4147 -4.17414 -3.3417 0
M  V30 390 C 39.7147 -5.04867 -1.33814 0
M  V30 391 H 41.4087 -2.9528 -0.494991 0
M  V30 392 H 38.9547 -1.42042 -0.236651 0
M  V30 393 H 40.9077 -3.02794 -2.93076 0
M  V30 394 H 39.6317 -1.80268 -2.72343 0
M  V30 395 H 38.2907 -3.41646 -1.32941 0
M  V30 396 H 37.9387 -3.29284 -3.80238 0
M  V30 397 H 37.6387 -4.93719 -3.18615 0
M  V30 398 H 39.1627 -4.57402 -4.04495 0
M  V30 399 H 40.5767 -5.39888 -1.92857 0
M  V30 400 H 38.9737 -5.86144 -1.28669 0
M  V30 401 H 40.0437 -4.83904 -0.310561 0
M  V30 402 N 41.3868 0.248026 -1.55636 0
M  V30 403 C 42.6358 0.974134 -1.76617 0
M  V30 404 C 42.9488 1.86528 -0.588796 0
M  V30 405 O 44.1548 2.62805 -0.681594 0
M  V30 406 C 42.6108 1.78213 -3.12679 0
M  V30 407 C 42.2188 0.93843 -4.38061 0
M  V30 408 C 43.9628 2.50104 -3.42999 0
M  V30 409 C 41.8698 1.74225 -5.65155 0
M  V30 410 H 40.7998 0.36745 -0.658405 0
M  V30 411 H 43.4508 0.22884 -1.82067 0
M  V30 412 H 41.8328 2.56933 -3.01333 0
M  V30 413 H 43.0068 0.193635 -4.60393 0
M  V30 414 H 41.3218 0.332905 -4.15067 0
M  V30 415 H 43.9188 3.10694 -4.3517 0
M  V30 416 H 44.2618 3.21662 -2.64271 0
M  V30 417 H 44.7948 1.78395 -3.55556 0
M  V30 418 H 41.5338 1.07043 -6.46701 0
M  V30 419 H 41.0538 2.46235 -5.46926 0
M  V30 420 H 42.7328 2.30967 -6.0437 0
M  V30 421 N 42.8649 1.48995 0.513639 0
M  V30 422 C 43.7949 1.67636 1.62544 0
M  V30 423 C 44.7759 0.525087 1.61793 0
M  V30 424 O 45.9609 0.759502 1.78732 0
M  V30 425 C 43.0909 1.73114 3.01079 0
M  V30 426 C 42.0449 2.87905 3.16693 0
M  V30 427 C 41.3709 2.78486 4.56453 0
M  V30 428 C 42.6709 4.29005 2.97913 0
M  V30 429 H 44.3649 2.60716 1.47198 0
M  V30 430 H 41.9109 1.25465 0.706714 0
M  V30 431 H 43.8639 1.84742 3.78746 0
M  V30 432 H 42.5879 0.766241 3.17484 0
M  V30 433 H 41.2469 2.75859 2.41448 0
M  V30 434 H 40.8949 1.7993 4.69717 0
M  V30 435 H 40.5949 3.55523 4.67843 0
M  V30 436 H 42.1189 2.92104 5.36197 0
M  V30 437 H 43.5329 4.41798 3.65359 0
M  V30 438 H 41.9299 5.07166 3.20785 0
M  V30 439 H 42.9999 4.44329 1.94165 0
M  V30 440 N 44.343 -0.763751 1.37857 0
M  V30 441 C 45.592 -1.51789 1.32827 0
M  V30 442 C 45.905 -1.95426 -0.0823719 0
M  V30 443 O 47.111 -2.70298 -0.255172 0
M  V30 444 C 45.567 -2.74133 2.33193 0
M  V30 445 C 45.175 -2.37562 3.79827 0
M  V30 446 C 46.919 -3.52054 2.37188 0
M  V30 447 C 44.826 -3.56456 4.71904 0
M  V30 448 H 43.756 -0.569896 0.493695 0
M  V30 449 H 46.407 -0.835822 1.63359 0
M  V30 450 H 44.789 -3.4427 1.9569 0
M  V30 451 H 45.963 -1.75157 4.26212 0
M  V30 452 H 44.278 -1.72798 3.78853 0
M  V30 453 H 46.875 -4.40437 3.03182 0
M  V30 454 H 47.218 -3.92486 1.38782 0
M  V30 455 H 47.751 -2.88921 2.7344 0
M  V30 456 H 44.49 -3.21099 5.71468 0
M  V30 457 H 44.01 -4.17938 4.30218 0
M  V30 458 H 45.689 -4.23168 4.89426 0
M  V30 459 N 45.8211 -1.22559 -0.990812 0
M  V30 460 C 47.0491 -1.07779 -1.76611 0
M  V30 461 C 47.4641 0.371513 -1.85109 0
M  V30 462 O 46.8211 1.25737 -1.32274 0
M  V30 463 C 46.8721 -1.68512 -3.19822 0
M  V30 464 O 46.5931 -3.07774 -3.1178 0
M  V30 465 C 48.0941 -1.59035 -4.13791 0
M  V30 466 H 45.3141 -0.377729 -0.554583 0
M  V30 467 H 47.8581 -1.62195 -1.24551 0
M  V30 468 H 46.0131 -1.18154 -3.68942 0
M  V30 469 H 46.4271 -3.37062 -4.01858 0
M  V30 470 H 47.9011 -2.0625 -5.1202 0
M  V30 471 H 48.3781 -0.547273 -4.35777 0
M  V30 472 H 48.9841 -2.08709 -3.70568 0
M  V30 473 N 47.2992 1.18797 -1.03562 0
M  V30 474 C 48.5452 1.8893 -0.737113 0
M  V30 475 C 48.8782 1.79837 0.732956 0
M  V30 476 O 48.1532 1.19525 1.5344 0
M  V30 477 C 48.4362 3.39607 -1.19745 0
M  V30 478 C 48.2892 3.57537 -2.72924 0
M  V30 479 C 49.6082 4.33069 -0.783526 0
M  V30 480 H 46.7272 0.686057 -0.269249 0
M  V30 481 H 49.3692 1.39797 -1.28673 0
M  V30 482 H 47.5192 3.81583 -0.729855 0
M  V30 483 H 49.1912 3.24688 -3.27682 0
M  V30 484 H 47.4342 3.00363 -3.12993 0
M  V30 485 H 48.1052 4.63238 -3.00191 0
M  V30 486 H 50.5812 3.98846 -1.18581 0
M  V30 487 H 49.4572 5.3707 -1.13343 0
M  V30 488 H 49.7182 4.40986 0.313681 0
M  V30 489 N 48.7773 0.814389 1.34928 0
M  V30 490 C 49.7403 0.235759 2.27984 0
M  V30 491 C 50.7403 -0.581412 1.49921 0
M  V30 492 O 51.9303 -0.398758 1.69575 0
M  V30 493 C 49.0623 -0.670433 3.34242 0
M  V30 494 H 50.2553 1.05659 2.80671 0
M  V30 495 H 47.8083 0.585614 1.44915 0
M  V30 496 H 48.5433 -1.51466 2.86755 0
M  V30 497 H 48.3283 -0.0860822 3.92005 0
M  V30 498 H 49.8183 -1.06935 4.03676 0
M  V30 499 N 50.2554 -1.46986 0.568584 0
M  V30 500 C 51.5034 -2.02041 0.0487022 0
M  V30 501 C 51.8244 -1.44408 -1.31039 0
M  V30 502 O 51.0944 -0.623477 -1.85714 0
M  V30 503 H 49.6744 -0.746849 0.015014 0
M  V30 504 H 52.3364 -1.80257 0.741168 0
M  V30 505 H 51.4324 -3.12085 -0.0308961 0
M  V30 506 N 51.7335 -0.305618 -1.54608 0
M  V30 507 C 52.6815 0.584119 -2.25146 0
M  V30 508 C 53.6755 1.13326 -1.25911 0
M  V30 509 O 54.8815 1.08337 -1.43747 0
M  V30 510 H 51.2565 0.206983 -0.722954 0
M  V30 511 H 53.2275 -0.033291 -2.98381 0
M  V30 512 C 51.9765 1.74225 -3.009 0
M  V30 513 H 51.2995 1.32892 -3.77067 0
M  V30 514 H 52.7395 2.34077 -3.53531 0
M  V30 515 C 51.1985 2.64914 -2.0814 0
M  V30 516 O 51.7285 3.66137 -1.65246 0
M  V30 517 N 49.9345 2.3275 -1.74 0
M  V30 518 H 49.4815 1.50479 -2.09078 0
M  V30 519 H 49.4395 2.93694 -1.12211 0
M  V30 520 N 53.2116 1.57565 -0.0334293 0
M  V30 521 C 54.4576 1.92262 0.645226 0
M  V30 522 C 54.7906 0.910543 1.71531 0
M  V30 523 O 54.0656 -0.066099 1.94388 0
M  V30 524 C 54.3486 3.37422 1.2577 0
M  V30 525 C 54.2016 4.49369 0.196891 0
M  V30 526 C 55.5206 3.82628 2.17449 0
M  V30 527 H 52.6396 0.699171 0.233085 0
M  V30 528 H 55.2816 1.89779 -0.0915694 0
M  V30 529 H 53.4316 3.39669 1.88566 0
M  V30 530 H 55.1036 4.59254 -0.433962 0
M  V30 531 H 53.3466 4.31168 -0.477137 0
M  V30 532 H 54.0176 5.47978 0.665124 0
M  V30 533 H 56.4936 3.82145 1.64634 0
M  V30 534 H 55.3696 4.84883 2.57254 0
M  V30 535 H 55.6306 3.18376 3.0674 0
M  V30 536 N 54.6897 -0.239769 1.55765 0
M  V30 537 C 55.9357 -0.968234 1.78194 0
M  V30 538 C 56.2687 -1.84701 0.599938 0
M  V30 539 O 55.5437 -1.9031 -0.401524 0
M  V30 540 C 55.8267 -1.8227 3.10564 0
M  V30 541 C 55.6797 -0.971633 4.3918 0
M  V30 542 C 56.9987 -2.80388 3.39221 0
M  V30 543 H 54.1177 -0.350572 0.648281 0
M  V30 544 H 56.7597 -0.238259 1.885 0
M  V30 545 H 54.9097 -2.44507 3.01908 0
M  V30 546 H 56.5817 -0.367408 4.59835 0
M  V30 547 H 54.8247 -0.276276 4.32919 0
M  V30 548 H 55.4957 -1.60346 5.28198 0
M  V30 549 H 57.9717 -2.28287 3.47885 0
M  V30 550 H 56.8477 -3.3729 4.33044 0
M  V30 551 H 57.1087 -3.57212 2.60484 0
M  V30 552 N 56.1678 -1.49265 -0.50573 0
M  V30 553 C 57.4138 -1.58748 -1.26202 0
M  V30 554 C 57.7468 -0.271227 -1.92297 0
M  V30 555 O 57.0218 0.724831 -1.80489 0
M  V30 556 C 57.3048 -2.74332 -2.33268 0
M  V30 557 C 57.1578 -4.15737 -1.71705 0
M  V30 558 C 58.4768 -2.85576 -3.34865 0
M  V30 559 H 55.5958 -0.577826 -0.457478 0
M  V30 560 H 58.2378 -1.81532 -0.560897 0
M  V30 561 H 56.3878 -2.55036 -2.93068 0
M  V30 562 H 58.0598 -4.46537 -1.15769 0
M  V30 563 H 56.3028 -4.21605 -1.02135 0
M  V30 564 H 56.9738 -4.92477 -2.49341 0
M  V30 565 H 59.4498 -3.03127 -2.8505 0
M  V30 566 H 58.3258 -3.68135 -4.07146 0
M  V30 567 H 58.5868 -1.94732 -3.96903 0
M  V30 568 N 57.6459 0.756429 -1.3826 0
M  V30 569 C 58.8859 1.52833 -1.35725 0
M  V30 570 C 59.2499 1.91926 0.0534106 0
M  V30 571 O 60.4509 2.68028 0.203613 0
M  V30 572 C 58.7219 2.74919 -2.28373 0
M  V30 573 S 60.2809 3.64817 -2.43832 0
M  V30 574 H 57.0989 0.523043 -0.481608 0
M  V30 575 H 59.7009 0.888212 -1.74158 0
M  V30 576 H 58.4049 2.44304 -3.29763 0
M  V30 577 H 57.9359 3.43878 -1.91079 0
M  V30 578 H 59.9509 4.676 -1.66027 0
M  V30 579 N 59.124 1.23083 0.984299 0
M  V30 580 C 60.054 1.03292 2.09411 0
M  V30 581 C 61.035 -0.048923 1.7003 0
M  V30 582 O 62.22 0.114967 1.93859 0
M  V30 583 C 59.35 0.619155 3.41736 0
M  V30 584 C 58.304 1.64791 3.95004 0
M  V30 585 C 57.63 1.0897 5.23478 0
M  V30 586 C 58.93 3.03999 4.24714 0
M  V30 587 H 60.624 1.96119 2.26225 0
M  V30 588 H 58.17 0.944344 1.08711 0
M  V30 589 H 60.123 0.467777 4.18796 0
M  V30 590 H 58.847 -0.344786 3.24775 0
M  V30 591 H 57.506 1.78721 3.20085 0
M  V30 592 H 57.154 0.11686 5.02864 0
M  V30 593 H 56.854 1.77704 5.60085 0
M  V30 594 H 58.378 0.950093 6.03163 0
M  V30 595 H 59.792 2.93393 4.92538 0
M  V30 596 H 58.189 3.69936 4.72512 0
M  V30 597 H 59.259 3.53285 3.32142 0
M  V30 598 N 60.6021 -1.18246 1.0419 0
M  V30 599 C 61.5651 -2.20128 0.638452 0
M  V30 600 C 62.5651 -1.57885 -0.304805 0
M  V30 601 O 63.7551 -1.73967 -0.0900369 0
M  V30 602 C 60.8871 -3.4084 -0.0637751 0
M  V30 603 H 62.0801 -2.57336 1.54007 0
M  V30 604 H 59.6331 -1.32152 0.834598 0
M  V30 605 H 60.3681 -3.09166 -0.979136 0
M  V30 606 H 60.1531 -3.8726 0.614198 0
M  V30 607 H 61.6431 -4.16274 -0.332512 0
M  V30 608 N 62.0802 -0.821533 -1.34494 0
M  V30 609 C 63.3262 -0.409552 -1.98622 0
M  V30 610 C 63.6592 1.0244 -1.64984 0
M  V30 611 O 62.9342 1.71325 -0.920758 0
M  V30 612 C 63.2172 -0.610458 -3.54888 0
M  V30 613 C 63.0702 -2.09043 -3.98273 0
M  V30 614 C 64.3892 -0.0455379 -4.40076 0
M  V30 615 H 61.5082 -0.15028 -0.721516 0
M  V30 616 H 64.1502 -1.03384 -1.59411 0
M  V30 617 H 62.3002 -0.079044 -3.8842 0
M  V30 618 H 63.9722 -2.68537 -3.75081 0
M  V30 619 H 62.2152 -2.58139 -3.48635 0
M  V30 620 H 62.8862 -2.18182 -5.07051 0
M  V30 621 H 65.3622 -0.499557 -4.1309 0
M  V30 622 H 64.2382 -0.215922 -5.48475 0
M  V30 623 H 64.4992 1.04939 -4.29465 0
M  V30 624 N 63.5583 1.46682 -0.576371 0
M  V30 625 C 64.8063 2.02013 -0.0594163 0
M  V30 626 C 65.1273 1.45101 1.30271 0
M  V30 627 O 64.3973 0.633317 1.8538 0
M  V30 628 H 62.9773 0.746759 -0.0189745 0
M  V30 629 H 65.6393 1.79862 -0.750717 0
M  V30 630 H 64.7353 3.12097 0.014345 0
M  V30 631 N 65.0364 0.313813 1.54444 0
M  V30 632 C 65.9664 -0.549454 2.26943 0
M  V30 633 C 66.9474 -1.12741 1.27372 0
M  V30 634 O 68.1324 -1.15436 1.56167 0
M  V30 635 C 65.2624 -1.71523 3.01989 0
M  V30 636 C 64.2164 -1.26703 4.08816 0
M  V30 637 C 63.5424 -2.51898 4.71647 0
M  V30 638 C 64.8424 -0.388962 5.2085 0
M  V30 639 H 66.5364 0.0552661 2.99349 0
M  V30 640 H 64.0824 0.0280207 1.43973 0
M  V30 641 H 66.0354 -2.32535 3.51433 0
M  V30 642 H 64.7594 -2.34639 2.27183 0
M  V30 643 H 63.4184 -0.679896 3.6024 0
M  V30 644 H 63.0664 -3.13356 3.93468 0
M  V30 645 H 62.7664 -2.22605 5.43802 0
M  V30 646 H 64.2904 -3.1369 5.23861 0
M  V30 647 H 65.7044 -0.905107 5.6611 0
M  V30 648 H 64.1014 -0.18924 5.99802 0
M  V30 649 H 65.1714 0.582699 4.81386 0
M  V30 650 N 66.5145 -1.57545 0.0417849 0
M  V30 651 C 67.4625 -2.12148 -0.953723 0
M  V30 652 C 68.4565 -1.05104 -1.32852 0
M  V30 653 O 69.6625 -1.23524 -1.30927 0
M  V30 654 H 66.0375 -0.677957 -0.325389 0
M  V30 655 H 68.0085 -2.94707 -0.467991 0
M  V30 656 C 66.7575 -2.6739 -2.22257 0
M  V30 657 H 66.0805 -3.49413 -1.94295 0
M  V30 658 H 67.5205 -3.09227 -2.90094 0
M  V30 659 C 65.9795 -1.60723 -2.96091 0
M  V30 660 O 66.5095 -1.01449 -3.88679 0
M  V30 661 N 64.7155 -1.32466 -2.58652 0
M  V30 662 H 64.2625 -1.80856 -1.83437 0
M  V30 663 H 64.2205 -0.61325 -3.08361 0
M  V30 664 N 67.9926 0.231505 -1.5589 0
M  V30 665 C 69.4086 0.580748 -1.48659 0
M  V30 666 C 69.6086 1.87617 -0.73498 0
M  V30 667 O 68.6646 2.51046 -0.270586 0
M  V30 668 C 69.9776 0.669202 -2.93159 0
M  V30 669 C 71.5256 0.760499 -3.03621 0
M  V30 670 C 72.0006 0.880383 -4.49459 0
M  V30 671 N 73.4916 0.944861 -4.53461 0
M  V30 672 C 74.2266 1.05716 -5.63571 0
M  V30 673 N 73.7226 1.13403 -6.83456 0
M  V30 674 N 75.5156 1.09152 -5.514 0
M  V30 675 H 67.6666 -0.618695 -2.03189 0
M  V30 676 H 69.9296 -0.215728 -0.923128 0
M  V30 677 H 69.6356 -0.212904 -3.51055 0
M  V30 678 H 69.5096 1.5361 -3.44505 0
M  V30 679 H 71.8966 1.63305 -2.45796 0
M  V30 680 H 71.9776 -0.131864 -2.5546 0
M  V30 681 H 71.6216 0.0123284 -5.07899 0
M  V30 682 H 71.5516 1.78802 -4.95316 0
M  V30 683 H 74.0426 0.896176 -3.6712 0
M  V30 684 H 74.3556 1.21921 -7.63122 0
M  V30 685 H 72.7006 1.10333 -6.86186 0
M  V30 686 H 75.8916 1.02805 -4.56671 0
M  V30 687 H 76.0646 1.17558 -6.37247 0
M  V30 688 N 69.4707 1.49531 0.497807 0
M  V30 689 C 70.8867 1.36365 0.829266 0
M  V30 690 C 71.0867 0.399184 1.97506 0
M  V30 691 O 70.1427 -0.167977 2.51941 0
M  V30 692 C 71.4557 2.77153 1.16647 0
M  V30 693 C 73.0037 2.85877 1.27449 0
M  V30 694 C 73.4787 4.2744 1.64497 0
M  V30 695 N 74.9697 4.30265 1.7154 0
M  V30 696 C 75.7047 5.3677 2.01656 0
M  V30 697 N 75.2007 6.53516 2.29976 0
M  V30 698 N 76.9937 5.24189 2.02934 0
M  V30 699 H 69.1447 2.10831 -0.257703 0
M  V30 700 H 71.4077 0.946534 -0.0527091 0
M  V30 701 H 71.1137 3.49442 0.397872 0
M  V30 702 H 70.9877 3.12722 2.10915 0
M  V30 703 H 73.3747 2.13824 2.0338 0
M  V30 704 H 73.4557 2.53887 0.312244 0
M  V30 705 H 73.0997 5.00021 0.891151 0
M  V30 706 H 73.0297 4.56896 2.61827 0
M  V30 707 H 75.5207 3.4607 1.51802 0
M  V30 708 H 75.8337 7.30506 2.52153 0
M  V30 709 H 74.1787 6.56737 2.27425 0
M  V30 710 H 77.3697 4.31988 1.80289 0
M  V30 711 H 77.5427 6.07286 2.26071 0
M  V30 712 N 70.9488 -0.749086 1.3866 0
M  V30 713 C 71.8788 -1.8764 1.38973 0
M  V30 714 C 72.8598 -1.68178 0.255004 0
M  V30 715 O 74.0448 -1.88704 0.458754 0
M  V30 716 C 71.1748 -3.25222 1.21851 0
M  V30 717 C 70.1288 -3.59295 2.32575 0
M  V30 718 C 69.4548 -4.95663 2.00555 0
M  V30 719 C 70.7548 -3.63709 3.7485 0
M  V30 720 H 72.4488 -1.87635 2.3331 0
M  V30 721 H 69.9948 -0.901329 1.12303 0
M  V30 722 H 71.9478 -4.03746 1.20695 0
M  V30 723 H 70.6718 -3.25719 0.239775 0
M  V30 724 H 69.3308 -2.83093 2.32925 0
M  V30 725 H 68.9788 -4.92724 1.01154 0
M  V30 726 H 68.6788 -5.19429 2.74714 0
M  V30 727 H 70.2028 -5.7656 2.01024 0
M  V30 728 H 71.6168 -4.32338 3.76506 0
M  V30 729 H 70.0138 -3.98986 4.48252 0
M  V30 730 H 71.0838 -2.63834 4.06841 0
M  V30 731 N 72.4269 -1.23603 -0.977757 0
M  V30 732 C 73.8429 -0.999251 -1.24447 0
M  V30 733 C 74.0429 0.298053 -1.99283 0
M  V30 734 O 73.0989 1.01681 -2.31122 0
M  V30 735 C 74.4119 -2.20784 -2.04144 0
M  V30 736 C 75.9599 -2.25303 -2.17273 0
M  V30 737 C 76.4349 -3.45755 -3.00362 0
M  V30 738 N 77.9259 -3.4601 -3.07947 0
M  V30 739 C 78.6609 -4.35868 -3.72568 0
M  V30 740 N 78.1569 -5.35966 -4.38991 0
M  V30 741 N 79.9499 -4.23605 -3.6948 0
M  V30 742 H 72.1009 -2.06986 -0.476483 0
M  V30 743 H 74.3639 -0.907801 -0.273134 0
M  V30 744 H 74.0699 -3.14945 -1.56533 0
M  V30 745 H 73.9439 -2.22085 -3.04891 0
M  V30 746 H 76.3309 -1.3168 -2.64092 0
M  V30 747 H 76.4119 -2.28033 -1.15907 0
M  V30 748 H 76.0559 -4.39687 -2.5424 0
M  V30 749 H 75.9859 -3.40266 -4.01904 0
M  V30 750 H 78.4769 -2.73588 -2.60688 0
M  V30 751 H 78.7899 -6.00783 -4.86086 0
M  V30 752 H 77.1349 -5.39863 -4.37691 0
M  V30 753 H 80.3259 -3.44647 -3.16759 0
M  V30 754 H 80.4989 -4.93836 -4.1956 0
M  V30 755 N 73.905 1.17692 -1.04816 0
M  V30 756 C 74.853 2.23632 -0.63966 0
M  V30 757 C 75.847 1.6601 0.337219 0
M  V30 758 O 77.053 1.78844 0.203693 0
M  V30 759 H 73.428 0.727949 -0.188665 0
M  V30 760 H 75.399 2.55387 -1.54337 0
M  V30 761 C 74.148 3.4769 -0.0264051 0
M  V30 762 H 73.471 3.92331 -0.769164 0
M  V30 763 H 74.911 4.23418 0.222098 0
M  V30 764 C 73.37 3.13807 1.22584 0
M  V30 765 O 73.9 3.28236 2.31569 0
M  V30 766 N 72.106 2.68065 1.12202 0
M  V30 767 H 71.653 2.56525 0.235133 0
M  V30 768 H 71.611 2.45767 1.96076 0
M  V30 769 N 75.3831 0.828654 1.34056 0
M  V30 770 C 76.3131 0.269443 2.3194 0
M  V30 771 C 77.2941 -0.617247 1.58506 0
M  V30 772 O 78.4791 -0.542931 1.86456 0
M  V30 773 C 75.6091 -0.564793 3.42677 0
M  V30 774 C 74.5631 0.225241 4.27407 0
M  V30 775 C 73.8891 -0.7321 5.29664 0
M  V30 776 C 75.1891 1.43663 5.02154 0
M  V30 777 H 76.8831 1.08728 2.7896 0
M  V30 778 H 74.4291 0.524283 1.34117 0
M  V30 779 H 76.3821 -0.966233 4.10173 0
M  V30 780 H 75.1061 -1.41574 2.9432 0
M  V30 781 H 73.7651 0.608117 3.61521 0
M  V30 782 H 73.4131 -1.57916 4.77568 0
M  V30 783 H 73.1131 -0.20767 5.87233 0
M  V30 784 H 74.6371 -1.13128 6.00029 0
M  V30 785 H 76.0511 1.1089 5.62473 0
M  V30 786 H 74.4481 1.89711 5.69324 0
M  V30 787 H 75.5181 2.21181 4.31517 0
M  V30 788 N 76.8612 -1.46375 0.584142 0
M  V30 789 C 78.0892 -2.06761 0.0759296 0
M  V30 790 C 78.5042 -1.43266 -1.22965 0
M  V30 791 O 77.8612 -0.538458 -1.74376 0
M  V30 792 C 77.9122 -3.61375 -0.0950384 0
M  V30 793 O 77.6332 -4.22495 1.15887 0
M  V30 794 C 79.1342 -4.38693 -0.637434 0
M  V30 795 H 76.3542 -0.668479 0.0581075 0
M  V30 796 H 78.8982 -1.8798 0.805218 0
M  V30 797 H 77.0532 -3.79578 -0.774554 0
M  V30 798 H 77.4672 -5.15385 0.973598 0
M  V30 799 H 78.9412 -5.47464 -0.706237 0
M  V30 800 H 79.4182 -4.06836 -1.65472 0
M  V30 801 H 80.0242 -4.25299 0.00725967 0
M  V30 802 N 78.3393 -0.321999 -1.54275 0
M  V30 803 C 79.2873 0.560206 -2.25753 0
M  V30 804 C 80.2813 1.11984 -1.27106 0
M  V30 805 O 81.4873 1.06806 -1.44888 0
M  V30 806 H 77.8623 0.199304 -0.725108 0
M  V30 807 H 79.8333 -0.0649365 -2.98329 0
M  V30 808 C 78.5823 1.71023 -3.02731 0
M  V30 809 H 77.9053 1.28885 -3.78456 0
M  V30 810 H 79.3453 2.30314 -3.55993 0
M  V30 811 C 77.8043 2.62692 -2.10938 0
M  V30 812 O 78.3343 3.64364 -1.6912 0
M  V30 813 N 76.5403 2.30891 -1.76459 0
M  V30 814 H 76.0873 1.48253 -2.10663 0
M  V30 815 H 76.0453 2.92487 -1.1532 0
M  V30 816 N 79.8174 1.5752 -0.0501392 0
M  V30 817 C 81.0574 1.94521 0.627783 0
M  V30 818 C 81.4214 0.928265 1.68069 0
M  V30 819 O 82.6224 1.18517 2.41261 0
M  V30 820 C 80.8934 3.36319 1.20932 0
M  V30 821 S 82.4524 3.95272 1.90539 0
M  V30 822 H 79.2704 0.680456 0.206158 0
M  V30 823 H 81.8724 1.95139 -0.118829 0
M  V30 824 H 80.5764 4.08132 0.430865 0
M  V30 825 H 80.1074 3.39193 1.99277 0
M  V30 826 H 82.1224 3.80415 3.18589 0
M  V30 827 N 81.2955 -0.223234 1.56011 0
M  V30 828 C 82.5425 -0.947875 1.78946 0
M  V30 829 C 82.8705 -1.844 0.618608 0
M  V30 830 O 82.1255 -1.91629 -0.397093 0
M  V30 831 C 82.4245 -1.81948 3.0762 0
M  V30 832 C 82.0905 -1.07672 4.37856 0
M  V30 833 C 80.7525 -0.871544 4.73242 0
M  V30 834 C 83.1045 -0.552081 5.18268 0
M  V30 835 C 80.4325 -0.129791 5.86556 0
M  V30 836 C 82.7845 0.17632 6.32354 0
M  V30 837 C 81.4485 0.39277 6.66343 0
M  V30 838 H 80.7185 -0.346852 0.654809 0
M  V30 839 H 83.3655 -0.216171 1.90276 0
M  V30 840 H 81.6705 -2.61899 2.91404 0
M  V30 841 H 83.3675 -2.38227 3.22566 0
M  V30 842 H 79.9575 -1.24662 4.1007 0
M  V30 843 H 84.1415 -0.698076 4.91366 0
M  V30 844 H 79.3975 0.048153 6.11381 0
M  V30 845 H 83.5715 0.590367 6.93893 0
M  V30 846 H 81.1985 0.969466 7.53993 0
M  V30 847 N 82.7736 -1.49793 -0.48987 0
M  V30 848 C 84.0226 -1.59085 -1.23995 0
M  V30 849 C 84.3356 -0.287907 -1.9347 0
M  V30 850 O 85.5416 -0.259506 -2.70257 0
M  V30 851 C 83.9976 -2.80736 -2.252 0
M  V30 852 C 83.6056 -4.17833 -1.61614 0
M  V30 853 C 85.3496 -2.99364 -3.00967 0
M  V30 854 C 83.2566 -5.30693 -2.60996 0
M  V30 855 H 82.1866 -0.592372 -0.466488 0
M  V30 856 H 84.8376 -1.76197 -0.51252 0
M  V30 857 H 83.2196 -2.57142 -3.01154 0
M  V30 858 H 84.3936 -4.51608 -0.915774 0
M  V30 859 H 82.7086 -4.04656 -0.981977 0
M  V30 860 H 85.3056 -3.80851 -3.75308 0
M  V30 861 H 85.6486 -2.10356 -3.59244 0
M  V30 862 H 86.1816 -3.2305 -2.32128 0
M  V30 863 H 82.9206 -6.21796 -2.07485 0
M  V30 864 H 82.4406 -5.01359 -3.2924 0
M  V30 865 H 84.1196 -5.6049 -3.23202 0
M  V30 866 N 84.2517 0.741722 -1.39055 0
M  V30 867 C 85.4977 1.50336 -1.36113 0
M  V30 868 C 85.8307 1.94148 0.0450796 0
M  V30 869 O 85.1057 1.66301 1.00868 0
M  V30 870 C 85.3887 2.74773 -2.32749 0
M  V30 871 C 85.2417 2.37023 -3.82283 0
M  V30 872 C 86.5607 3.76846 -2.27322 0
M  V30 873 H 83.6797 0.545351 -0.495743 0
M  V30 874 H 86.3217 0.848624 -1.69995 0
M  V30 875 H 84.4717 3.30639 -2.03986 0
M  V30 876 H 86.1437 1.8684 -4.21768 0
M  V30 877 H 84.3867 1.69334 -3.99385 0
M  V30 878 H 85.0577 3.26104 -4.45376 0
M  V30 879 H 87.5337 3.30548 -2.5274 0
M  V30 880 H 86.4097 4.6159 -2.97028 0
M  V30 881 H 86.6707 4.23286 -1.27599 0
M  V30 882 N 85.7298 1.2412 0.971189 0
M  V30 883 C 86.9548 1.10667 1.75407 0
M  V30 884 C 87.3798 -0.337048 1.85056 0
M  V30 885 O 86.7378 -1.24396 1.31892 0
M  V30 886 C 86.7858 1.74726 3.15441 0
M  V30 887 O 85.8898 1.01566 3.99697 0
M  V30 888 H 85.2308 0.387341 0.539317 0
M  V30 889 H 87.7608 1.64358 1.2185 0
M  V30 890 H 87.7708 1.80341 3.6598 0
M  V30 891 H 86.4458 2.79773 3.07734 0
M  V30 892 H 85.0228 1.03713 3.58187 0
M  V30 893 N 87.2079 -1.17134 1.05439 0
M  V30 894 C 88.1379 -2.2342 0.678649 0
M  V30 895 C 89.1189 -1.66971 -0.32476 0
M  V30 896 O 90.3039 -1.93149 -0.201802 0
M  V30 897 C 87.4339 -3.47256 0.0552099 0
M  V30 898 C 86.3879 -4.16543 0.98365 0
M  V30 899 C 85.7139 -5.34231 0.223961 0
M  V30 900 C 87.0139 -4.68495 2.3089 0
M  V30 901 H 88.7079 -2.55105 1.56722 0
M  V30 902 H 86.2539 -1.2262 0.754998 0
M  V30 903 H 88.2069 -4.20828 -0.21946 0
M  V30 904 H 86.9309 -3.14846 -0.868319 0
M  V30 905 H 85.5899 -3.44887 1.24293 0
M  V30 906 H 85.2379 -4.98071 -0.702412 0
M  V30 907 H 84.9379 -5.81527 0.842627 0
M  V30 908 H 86.4619 -6.10585 -0.0433671 0
M  V30 909 H 87.8759 -5.33691 2.09396 0
M  V30 910 H 86.2729 -5.26379 2.88176 0
M  V30 911 H 87.3429 -3.85169 2.94572 0
M  V30 912 N 88.686 -0.835752 -1.33615 0
M  V30 913 C 89.649 -0.272 -2.2758 0
M  V30 914 C 90.649 0.557487 -1.50827 0
M  V30 915 O 91.839 0.37173 -1.70188 0
M  V30 916 C 88.971 0.617173 -3.35267 0
M  V30 917 H 90.164 -1.10111 -2.78954 0
M  V30 918 H 87.717 -0.608594 -1.43965 0
M  V30 919 H 88.452 1.46884 -2.89129 0
M  V30 920 H 88.237 0.0237066 -3.92093 0
M  V30 921 H 89.727 1.005 -4.05326 0
M  V30 922 N 90.1641 1.46063 -0.591896 0
M  V30 923 C 91.4131 2.01547 -0.0786637 0
M  V30 924 C 91.7261 1.46796 1.29268 0
M  V30 925 O 92.9321 1.94157 1.89777 0
M  V30 926 C 91.3881 3.59787 -0.0900024 0
M  V30 927 C 90.9961 4.23534 -1.46023 0
M  V30 928 C 92.7401 4.22895 0.368806 0
M  V30 929 C 90.6471 5.73881 -1.4288 0
M  V30 930 H 89.5771 0.753564 -0.0256388 0
M  V30 931 H 92.2281 1.677 -0.744905 0
M  V30 932 H 90.6101 3.90752 0.642586 0
M  V30 933 H 91.7841 4.04167 -2.21328 0
M  V30 934 H 90.0991 3.72558 -1.85982 0
M  V30 935 H 92.6961 5.33116 0.411258 0
M  V30 936 H 93.0391 3.9247 1.38827 0
M  V30 937 H 93.5721 3.9659 -0.31001 0
M  V30 938 H 90.3111 6.0898 -2.42536 0
M  V30 939 H 89.8311 5.95486 -0.718095 0
M  V30 940 H 91.5101 6.36776 -1.14565 0
M  V30 941 N 91.6422 0.330177 1.54103 0
M  V30 942 C 92.8702 -0.272179 2.05102 0
M  V30 943 C 93.2852 -1.45267 1.20595 0
M  V30 944 O 92.6422 -1.8094 0.238144 0
M  V30 945 C 92.6932 -0.70023 3.54653 0
M  V30 946 O 92.4142 0.433301 4.35952 0
M  V30 947 C 93.9152 -1.3647 4.21771 0
M  V30 948 H 91.1352 -0.0549159 0.668749 0
M  V30 949 H 93.6792 0.478285 1.98828 0
M  V30 950 H 91.8342 -1.40066 3.61193 0
M  V30 951 H 92.2482 0.0947539 5.24414 0
M  V30 952 H 93.7222 -1.61509 5.27843 0
M  V30 953 H 94.1992 -2.31409 3.73292 0
M  V30 954 H 94.8052 -0.706675 4.19388 0
M  V30 955 N 93.1203 -1.57491 0.0584922 0
M  V30 956 C 94.3973 -1.84346 -0.653918 0
M  V30 957 C 94.7773 -0.948355 -1.88599 0
M  V30 958 O 94.1253 -0.0112403 -2.28497 0
M  V30 959 C 94.3353 -3.34239 -1.00425 0
M  V30 960 C 95.6833 -4.01431 -1.38342 0
M  V30 961 O 96.7073 -3.38907 -1.09637 0
M  V30 962 O 95.5663 -5.11683 -1.91943 0
M  V30 963 H 92.6603 -0.761112 -0.323478 0
M  V30 964 H 95.2063 -1.6947 0.0884125 0
M  V30 965 H 93.9783 -3.91089 -0.128625 0
M  V30 966 H 93.6013 -3.54329 -1.80378 0
M  V30 967 N 94.5984 0.214957 -1.56127 0
M  V30 968 C 95.5284 1.2695 -1.95974 0
M  V30 969 C 96.5094 1.48539 -0.828868 0
M  V30 970 O 97.6944 1.60611 -1.09168 0
M  V30 971 C 94.8244 2.61794 -2.28214 0
M  V30 972 C 93.7784 2.54851 -3.43853 0
M  V30 973 C 93.1044 3.93785 -3.61715 0
M  V30 974 C 94.4044 2.09065 -4.78632 0
M  V30 975 H 96.0984 0.93846 -2.84312 0
M  V30 976 H 93.6444 0.449996 -1.36788 0
M  V30 977 H 95.5974 3.35731 -2.54682 0
M  V30 978 H 94.3214 2.96599 -1.36736 0
M  V30 979 H 92.9804 1.8337 -3.17444 0
M  V30 980 H 92.6284 4.25908 -2.67602 0
M  V30 981 H 92.3284 3.90019 -4.39498 0
M  V30 982 H 93.8524 4.69374 -3.90539 0
M  V30 983 H 95.2664 2.7275 -5.04262 0
M  V30 984 H 93.6634 2.16346 -5.59745 0
M  V30 985 H 94.7334 1.04315 -4.73547 0
M  V30 986 N 96.0765 1.50051 0.48192 0
M  V30 987 C 97.0065 1.71046 1.58951 0
M  V30 988 C 97.9875 0.559288 1.60642 0
M  V30 989 O 99.1725 0.797243 1.77081 0
M  V30 990 C 96.3025 1.79462 2.97339 0
M  V30 991 C 95.2565 2.94558 3.10515 0
M  V30 992 C 94.5825 2.88105 4.50444 0
M  V30 993 C 95.8825 4.35227 2.88747 0
M  V30 994 H 97.5765 2.6378 1.41635 0
M  V30 995 H 95.1225 1.26936 0.679942 0
M  V30 996 H 97.0755 1.92734 3.74742 0
M  V30 997 H 95.7995 0.833412 3.15788 0
M  V30 998 H 94.4585 2.80918 2.35543 0
M  V30 999 H 94.1065 1.89853 4.65795 0
M  V30 1000 H 93.8065 3.65366 4.60197 0
M  V30 1001 H 95.3305 3.03412 5.29881 0
M  V30 1002 H 96.7445 4.49449 3.55905 0
M  V30 1003 H 95.1415 5.13856 3.09955 0
M  V30 1004 H 96.2115 4.48347 1.84696 0
M  V30 1005 N 97.5546 -0.734337 1.39446 0
M  V30 1006 C 98.4846 -1.86155 1.40955 0
M  V30 1007 C 99.4656 -1.67898 0.272827 0
M  V30 1008 O 100.651 -1.88207 0.478743 0
M  V30 1009 C 97.7806 -3.23912 1.25294 0
M  V30 1010 C 96.7346 -3.56808 2.36373 0
M  V30 1011 C 96.0606 -4.93508 2.058 0
M  V30 1012 C 97.3606 -3.59713 3.78687 0
M  V30 1013 H 99.0546 -1.8515 2.35287 0
M  V30 1014 H 96.6006 -0.889367 1.13253 0
M  V30 1015 H 98.5536 -4.02443 1.2497 0
M  V30 1016 H 97.2776 -3.25446 0.274308 0
M  V30 1017 H 95.9366 -2.80606 2.35914 0
M  V30 1018 H 95.5846 -4.91623 1.06374 0
M  V30 1019 H 95.2846 -5.16486 2.80208 0
M  V30 1020 H 96.8086 -5.74396 2.07128 0
M  V30 1021 H 98.2226 -4.2832 3.81071 0
M  V30 1022 H 96.6196 -3.94209 4.52459 0
M  V30 1023 H 97.6896 -2.59504 4.09617 0
M  V30 1024 N 99.0327 -1.24633 -0.964593 0
M  V30 1025 C 100.281 -1.08573 -1.70459 0
M  V30 1026 C 100.602 0.375655 -1.91347 0
M  V30 1027 O 99.8717 1.26779 -1.49345 0
M  V30 1028 H 98.4517 -0.398784 -0.631649 0
M  V30 1029 H 101.114 -1.56601 -1.16026 0
M  V30 1030 H 100.21 -1.58623 -2.68785 0
M  V30 1031 N 100.511 1.16574 -1.06058 0
M  V30 1032 C 101.441 2.23057 -0.690488 0
M  V30 1033 C 102.422 1.67141 0.315901 0
M  V30 1034 O 103.607 1.93253 0.191556 0
M  V30 1035 C 100.737 3.47222 -0.073625 0
M  V30 1036 C 99.6908 4.16016 -1.00573 0
M  V30 1037 C 99.0168 5.34104 -0.252289 0
M  V30 1038 C 100.317 4.67264 -2.33371 0
M  V30 1039 H 102.011 2.54271 -1.58072 0
M  V30 1040 H 99.5568 1.22218 -0.76149 0
M  V30 1041 H 101.51 4.20939 0.19714 0
M  V30 1042 H 100.234 3.15302 0.85161 0
M  V30 1043 H 98.8928 3.44223 -1.2612 0
M  V30 1044 H 98.5408 4.98437 0.675988 0
M  V30 1045 H 98.2408 5.81072 -0.873455 0
M  V30 1046 H 99.7648 6.10599 0.0109857 0
M  V30 1047 H 101.179 5.32573 -2.12223 0
M  V30 1048 H 99.5758 5.24843 -2.90963 0
M  V30 1049 H 100.646 3.83602 -2.96611 0
M  V30 1050 N 101.989 0.842826 1.3317 0
M  V30 1051 C 102.919 0.294028 2.31641 0
M  V30 1052 C 103.9 -0.600401 1.59151 0
M  V30 1053 O 105.085 -0.523124 1.87022 0
M  V30 1054 C 102.215 -0.528416 3.43257 0
M  V30 1055 C 101.169 0.27056 4.27144 0
M  V30 1056 C 100.495 -0.675881 5.30411 0
M  V30 1057 C 101.795 1.48981 5.00602 0
M  V30 1058 H 103.489 1.11681 2.77791 0
M  V30 1059 H 101.035 0.538478 1.33553 0
M  V30 1060 H 102.988 -0.922674 4.11175 0
M  V30 1061 H 101.712 -1.38445 2.95805 0
M  V30 1062 H 100.371 0.646427 3.60856 0
M  V30 1063 H 100.019 -1.52842 4.79216 0
M  V30 1064 H 99.7189 -0.145374 5.8742 0
M  V30 1065 H 101.243 -1.06757 6.01195 0
M  V30 1066 H 102.657 1.16849 5.61266 0
M  V30 1067 H 101.054 1.95739 5.6728 0
M  V30 1068 H 102.124 2.25746 4.29147 0
M  V30 1069 N 103.467 -1.45747 0.599634 0
M  V30 1070 C 104.713 -2.02592 0.0918643 0
M  V30 1071 C 105.046 -1.46806 -1.27128 0
M  V30 1072 O 104.321 -0.639658 -1.83681 0
M  V30 1073 C 104.604 -3.60073 0.0443398 0
M  V30 1074 C 104.457 -4.26208 1.43759 0
M  V30 1075 C 105.776 -4.35309 -0.647608 0
M  V30 1076 H 102.895 -0.736175 0.034857 0
M  V30 1077 H 105.537 -1.73694 0.770081 0
M  V30 1078 H 103.687 -3.84823 -0.533224 0
M  V30 1079 H 105.359 -4.12668 2.06162 0
M  V30 1080 H 103.602 -3.84916 2.00056 0
M  V30 1081 H 104.273 -5.35069 1.35665 0
M  V30 1082 H 106.749 -4.15805 -0.156776 0
M  V30 1083 H 105.625 -5.45038 -0.649942 0
M  V30 1084 H 105.886 -4.07598 -1.71219 0
M  V30 1085 N 104.945 -0.338344 -1.53925 0
M  V30 1086 C 105.875 0.51328 -2.27789 0
M  V30 1087 C 106.856 1.107 -1.29149 0
M  V30 1088 O 108.041 1.12937 -1.57984 0
M  V30 1089 C 105.171 1.66697 -3.04679 0
M  V30 1090 C 104.125 1.20183 -4.1078 0
M  V30 1091 C 103.451 2.44363 -4.75595 0
M  V30 1092 C 104.751 0.30605 -5.21403 0
M  V30 1093 H 106.445 -0.102883 -2.99223 0
M  V30 1094 H 103.991 -0.0509219 -1.4391 0
M  V30 1095 H 105.944 2.26915 -3.55088 0
M  V30 1096 H 104.668 2.30995 -2.30887 0
M  V30 1097 H 103.327 0.622499 -3.61276 0
M  V30 1098 H 102.975 3.07057 -3.98403 0
M  V30 1099 H 102.675 2.13925 -5.47275 0
M  V30 1100 H 104.199 3.05317 -5.28786 0
M  V30 1101 H 105.613 0.814929 -5.67478 0
M  V30 1102 H 104.01 0.0937929 -6.00027 0
M  V30 1103 H 105.08 -0.65921 -4.80398 0
M  V30 1104 N 106.423 1.57458 -0.0668435 0
M  V30 1105 C 107.834 1.80776 0.466558 0
M  V30 1106 C 108.185 0.980361 1.69951 0
M  V30 1107 O 107.31 0.201441 2.1546 0
M  V30 1108 C 107.905 3.27881 0.85321 0
M  V30 1109 C 106.464 3.52062 1.3315 0
M  V30 1110 C 105.611 2.75513 0.314264 0
M  V30 1111 H 108.562 1.5598 -0.292588 0
M  V30 1112 H 108.583 3.39659 1.715 0
M  V30 1113 H 108.095 3.88075 -0.0443439 0
M  V30 1114 H 106.196 2.97167 2.24772 0
M  V30 1115 H 106.309 4.60762 1.31285 0
M  V30 1116 H 104.673 2.42123 0.790492 0
M  V30 1117 H 105.456 3.38442 -0.575477 0
M  V30 1118 N 107.901 -0.206675 1.56239 0
M  V30 1119 C 109.148 -0.928842 1.79941 0
M  V30 1120 C 109.476 -1.83734 0.638131 0
M  V30 1121 O 108.731 -1.92039 -0.376746 0
M  V30 1122 C 109.03 -1.78675 3.09532 0
M  V30 1123 C 108.696 -1.03022 4.38973 0
M  V30 1124 C 107.358 -0.821302 4.74139 0
M  V30 1125 C 109.71 -0.497081 5.18824 0
M  V30 1126 C 107.038 -0.0675719 5.86661 0
M  V30 1127 C 109.39 0.24338 6.32132 0
M  V30 1128 C 108.054 0.463422 6.65889 0
M  V30 1129 H 107.324 -0.339887 0.658451 0
M  V30 1130 H 109.971 -0.195977 1.90495 0
M  V30 1131 H 108.276 -2.58794 2.94165 0
M  V30 1132 H 109.973 -2.34792 3.25075 0
M  V30 1133 H 106.563 -1.20306 4.11369 0
M  V30 1134 H 110.747 -0.645921 4.92079 0
M  V30 1135 H 106.003 0.112995 6.11296 0
M  V30 1136 H 110.177 0.66393 6.93228 0
M  V30 1137 H 107.804 1.04938 7.52922 0
M  V30 1138 N 109.379 -1.50304 -0.473955 0
M  V30 1139 C 110.604 -1.65175 -1.25427 0
M  V30 1140 C 111.029 -0.333673 -1.85117 0
M  V30 1141 O 110.387 0.702114 -1.67153 0
M  V30 1142 C 110.435 -2.74295 -2.34082 0
M  V30 1143 O 109.539 -2.35349 -3.38651 0
M  V30 1144 H 108.88 -0.551944 -0.369126 0
M  V30 1145 H 111.41 -1.96662 -0.564364 0
M  V30 1146 H 111.42 -2.97285 -2.79438 0
M  V30 1147 H 110.095 -3.69959 -1.90008 0
M  V30 1148 H 108.672 -2.22794 -2.99027 0
M  V30 1149 N 110.857 0.726932 -1.39834 0
M  V30 1150 C 111.82 1.82269 -1.38962 0
M  V30 1151 C 112.82 1.58248 -0.285334 0
M  V30 1152 O 114.01 1.65499 -0.54366 0
M  V30 1153 C 111.142 3.20186 -1.17019 0
M  V30 1154 H 112.335 1.84443 -2.36476 0
M  V30 1155 H 109.888 0.931416 -1.25516 0
M  V30 1156 H 110.623 3.23669 -0.202204 0
M  V30 1157 H 110.408 3.3902 -1.96998 0
M  V30 1158 H 111.898 4.00235 -1.1917 0
M  V30 1159 N 112.336 1.25143 0.95797 0
M  V30 1160 C 113.585 1.0909 1.69654 0
M  V30 1161 C 113.898 -0.368548 1.92097 0
M  V30 1162 O 115.104 -0.649455 2.63618 0
M  V30 1163 C 113.56 1.90395 3.05414 0
M  V30 1164 C 113.168 3.4081 2.90779 0
M  V30 1165 C 114.912 1.82901 3.83076 0
M  V30 1166 C 112.819 4.14423 4.21909 0
M  V30 1167 H 111.749 0.404625 0.636235 0
M  V30 1168 H 114.4 1.4931 1.06672 0
M  V30 1169 H 112.782 1.42996 3.69281 0
M  V30 1170 H 113.956 3.95859 2.35865 0
M  V30 1171 H 112.271 3.49361 2.26575 0
M  V30 1172 H 114.868 2.35196 4.80195 0
M  V30 1173 H 115.211 0.796224 4.08615 0
M  V30 1174 H 115.744 2.28033 3.25954 0
M  V30 1175 H 112.483 5.18102 4.01561 0
M  V30 1176 H 112.003 3.64159 4.76601 0
M  V30 1177 H 113.682 4.21956 4.90471 0
M  V30 1178 N 113.814 -1.1601 1.06675 0
M  V30 1179 C 115.044 -1.90251 0.805497 0
M  V30 1180 C 115.452 -1.77891 -0.64431 0
M  V30 1181 O 114.795 -1.12383 -1.45313 0
M  V30 1182 C 114.857 -3.41419 1.12576 0
M  V30 1183 C 114.521 -3.77564 2.57477 0
M  V30 1184 C 115.518 -3.79161 3.55715 0
M  V30 1185 C 113.203 -4.08079 2.92877 0
M  V30 1186 C 115.197 -4.10767 4.8739 0
M  V30 1187 C 112.884 -4.39351 4.24751 0
M  V30 1188 C 113.882 -4.40675 5.21818 0
M  V30 1189 O 113.57 -4.71202 6.51325 0
M  V30 1190 H 113.302 -0.610018 0.291297 0
M  V30 1191 H 115.856 -1.47958 1.4247 0
M  V30 1192 H 114.086 -3.84079 0.449503 0
M  V30 1193 H 115.775 -3.9694 0.84814 0
M  V30 1194 H 116.541 -3.55693 3.29708 0
M  V30 1195 H 112.42 -4.06211 2.17976 0
M  V30 1196 H 115.964 -4.11715 5.63148 0
M  V30 1197 H 111.861 -4.62285 4.50514 0
M  V30 1198 H 112.629 -4.88996 6.56373 0
M  V30 1199 N 115.292 -0.849877 -1.32721 0
M  V30 1200 C 116.224 -0.248332 -2.27851 0
M  V30 1201 C 117.237 0.577218 -1.52224 0
M  V30 1202 O 118.426 0.402489 -1.73903 0
M  V30 1203 C 115.526 0.668107 -3.32249 0
M  V30 1204 C 114.699 -0.120534 -4.37234 0
M  V30 1205 C 113.758 0.720932 -5.21238 0
M  V30 1206 O 112.784 0.156166 -5.68986 0
M  V30 1207 N 113.986 2.03647 -5.43607 0
M  V30 1208 H 116.751 -1.06575 -2.80111 0
M  V30 1209 H 114.312 -0.709395 -1.45531 0
M  V30 1210 H 116.304 1.23627 -3.85355 0
M  V30 1211 H 114.874 1.38621 -2.80184 0
M  V30 1212 H 114.094 -0.870108 -3.84477 0
M  V30 1213 H 115.382 -0.662406 -5.0447 0
M  V30 1214 H 114.78 2.51871 -5.06535 0
M  V30 1215 H 113.337 2.55287 -5.99727 0
M  V30 1216 N 116.77 1.45427 -0.607355 0
M  V30 1217 C 117.7 2.3329 0.0989352 0
M  V30 1218 C 118.681 1.46816 0.859007 0
M  V30 1219 O 119.866 1.75588 0.829604 0
M  V30 1220 C 116.996 3.29518 1.09705 0
M  V30 1221 C 115.95 4.25626 0.450206 0
M  V30 1222 C 115.276 5.11542 1.55655 0
M  V30 1223 C 116.576 5.18505 -0.628455 0
M  V30 1224 H 118.27 2.92595 -0.634716 0
M  V30 1225 H 115.816 1.40696 -0.306681 0
M  V30 1226 H 117.769 3.89855 1.59971 0
M  V30 1227 H 116.493 2.68372 1.86129 0
M  V30 1228 H 115.152 3.66586 -0.0315886 0
M  V30 1229 H 114.8 4.46765 2.31107 0
M  V30 1230 H 114.5 5.76647 1.12925 0
M  V30 1231 H 116.024 5.74748 2.06148 0
M  V30 1232 H 117.438 5.72916 -0.209877 0
M  V30 1233 H 115.835 5.92085 -0.977489 0
M  V30 1234 H 116.905 4.60948 -1.50514 0
M  V30 1235 N 118.248 0.346503 1.53744 0
M  V30 1236 C 119.473 -0.253074 2.0585 0
M  V30 1237 C 119.898 -1.43202 1.21962 0
M  V30 1238 O 119.256 -1.79783 0.234073 0
M  V30 1239 C 119.304 -0.643193 3.54817 0
M  V30 1240 O 118.408 -1.74286 3.73762 0
M  V30 1241 H 117.749 -0.0413583 0.662711 0
M  V30 1242 H 120.279 0.501574 1.98357 0
M  V30 1243 H 120.289 -0.919526 3.97503 0
M  V30 1244 H 118.964 0.218966 4.15323 0
M  V30 1245 H 117.541 -1.46356 3.42979 0
M  V30 1246 N 119.726 -1.57421 0.075193 0
M  V30 1247 C 120.966 -1.95495 -0.596757 0
M  V30 1248 C 121.33 -0.954886 -1.66571 0
M  V30 1249 O 122.531 -1.22341 -2.39345 0
M  V30 1250 C 120.802 -3.382 -1.15566 0
M  V30 1251 S 122.361 -3.98254 -1.84226 0
M  V30 1252 H 119.179 -0.683649 -0.195307 0
M  V30 1253 H 121.781 -1.94925 0.149859 0
M  V30 1254 H 120.485 -4.08766 -0.36588 0
M  V30 1255 H 120.016 -3.42321 -1.93856 0
M  V30 1256 H 122.031 -3.85435 -3.12497 0
M  V30 1257 N 121.204 0.198386 -1.56346 0
M  V30 1258 C 122.151 1.24589 -1.94284 0
M  V30 1259 C 123.121 1.454 -0.802997 0
M  V30 1260 O 124.306 1.58588 -1.06087 0
M  V30 1261 C 121.446 2.58631 -2.28482 0
M  V30 1262 C 120.559 2.45426 -3.55514 0
M  V30 1263 C 119.694 3.7215 -3.79049 0
M  V30 1264 C 118.733 3.53763 -4.99518 0
M  V30 1265 N 117.87 4.72491 -5.19323 0
M  V30 1266 H 122.71 0.915356 -2.83593 0
M  V30 1267 H 120.247 0.440629 -1.40346 0
M  V30 1268 H 122.205 3.3672 -2.46324 0
M  V30 1269 H 120.835 2.89734 -1.42317 0
M  V30 1270 H 119.887 1.58652 -3.45737 0
M  V30 1271 H 121.199 2.27772 -4.43758 0
M  V30 1272 H 120.353 4.58679 -3.97113 0
M  V30 1273 H 119.092 3.92754 -2.89129 0
M  V30 1274 H 118.097 2.65619 -4.8138 0
M  V30 1275 H 119.322 3.34607 -5.90944 0
M  V30 1276 H 117.268 4.93365 -4.3235 0
M  V30 1277 H 117.185 4.5765 -6.01741 0
M  V30 1278 H 118.453 5.6038 -5.41843 0
M  V30 1279 N 122.682 1.50554 0.465978 0
M  V30 1280 C 123.928 1.63006 1.21658 0
M  V30 1281 C 124.283 0.328613 1.89573 0
M  V30 1282 O 123.576 -0.673813 1.79361 0
M  V30 1283 C 123.77 2.75152 2.28093 0
M  V30 1284 C 123.599 4.16075 1.7062 0
M  V30 1285 C 122.369 4.82408 1.50368 0
M  V30 1286 C 124.567 5.00145 1.1983 0
M  V30 1287 N 122.549 6.07532 0.881924 0
M  V30 1288 C 123.92 6.16035 0.700083 0
M  V30 1289 C 125.975 4.85882 1.08733 0
M  V30 1290 C 124.678 7.19228 0.101835 0
M  V30 1291 C 126.704 5.89257 0.503016 0
M  V30 1292 C 126.066 7.04398 0.0152005 0
M  V30 1293 H 122.165 0.650596 0.433877 0
M  V30 1294 H 124.749 1.8769 0.517746 0
M  V30 1295 H 122.92 2.52181 2.95397 0
M  V30 1296 H 124.652 2.76935 2.95109 0
M  V30 1297 H 121.407 4.39788 1.75737 0
M  V30 1298 H 121.831 6.7443 0.589312 0
M  V30 1299 H 126.473 3.97144 1.4504 0
M  V30 1300 H 124.191 8.07637 -0.273426 0
M  V30 1301 H 127.777 5.80286 0.419451 0
M  V30 1302 H 126.657 7.83021 -0.429856 0
M  V30 1303 N 124.16 -0.719506 1.40217 0
M  V30 1304 C 125.385 -1.51371 1.4178 0
M  V30 1305 C 125.81 -1.88091 0.0182355 0
M  V30 1306 O 125.168 -1.52997 -0.972707 0
M  V30 1307 C 125.216 -2.768 2.31115 0
M  V30 1308 O 124.32 -3.73349 1.7517 0
M  V30 1309 H 123.661 -0.456529 0.482159 0
M  V30 1310 H 126.191 -0.88644 1.844 0
M  V30 1311 H 126.201 -3.25371 2.46167 0
M  V30 1312 H 124.876 -2.49407 3.3282 0
M  V30 1313 H 123.453 -3.32179 1.69444 0
M  V30 1314 N 125.638 -1.25649 -0.95132 0
M  V30 1315 C 126.885 -1.10594 -1.69633 0
M  V30 1316 C 127.213 0.352515 -1.91279 0
M  V30 1317 O 126.468 1.27601 -1.4838 0
M  V30 1318 C 126.767 -1.80909 -3.08231 0
M  V30 1319 C 126.433 -3.30825 -3.06375 0
M  V30 1320 C 125.095 -3.71722 -3.05576 0
M  V30 1321 C 127.447 -4.26589 -2.99452 0
M  V30 1322 C 124.775 -5.06788 -2.95606 0
M  V30 1323 C 127.127 -5.61683 -2.91024 0
M  V30 1324 C 125.791 -6.01904 -2.88562 0
M  V30 1325 H 125.061 -0.404691 -0.620731 0
M  V30 1326 H 127.708 -1.55964 -1.11119 0
M  V30 1327 H 126.013 -1.27979 -3.70309 0
M  V30 1328 H 127.71 -1.6671 -3.64704 0
M  V30 1329 H 124.3 -2.98287 -3.07771 0
M  V30 1330 H 128.484 -3.95982 -2.99185 0
M  V30 1331 H 123.74 -5.37126 -2.92071 0
M  V30 1332 H 127.914 -6.35578 -2.84629 0
M  V30 1333 H 125.541 -7.06521 -2.80593 0
M  V30 1334 N 127.117 1.15442 -1.07289 0
M  V30 1335 C 128.365 1.85845 -0.794096 0
M  V30 1336 C 128.686 1.82692 0.681809 0
M  V30 1337 O 127.956 1.26741 1.49377 0
M  V30 1338 H 126.536 0.688089 -0.290763 0
M  V30 1339 H 129.198 1.39947 -1.3565 0
M  V30 1340 H 128.294 2.91001 -1.12804 0
M  V30 1341 N 128.595 0.856903 1.32268 0
M  V30 1342 C 129.542 0.301172 2.28827 0
M  V30 1343 C 130.512 -0.593104 1.5515 0
M  V30 1344 O 131.697 -0.527537 1.83362 0
M  V30 1345 C 128.837 -0.502523 3.41422 0
M  V30 1346 C 127.95 0.417797 4.29975 0
M  V30 1347 C 127.085 -0.398749 5.29701 0
M  V30 1348 C 126.124 0.518827 6.09897 0
M  V30 1349 N 125.261 -0.260674 7.01616 0
M  V30 1350 H 130.101 1.12983 2.75751 0
M  V30 1351 H 127.638 0.568582 1.35667 0
M  V30 1352 H 129.596 -0.984141 4.05426 0
M  V30 1353 H 128.226 -1.29599 2.95642 0
M  V30 1354 H 127.278 1.01781 3.66531 0
M  V30 1355 H 128.59 1.12191 4.86019 0
M  V30 1356 H 127.744 -0.943435 5.9932 0
M  V30 1357 H 126.483 -1.13622 4.7428 0
M  V30 1358 H 125.488 1.07538 5.39181 0
M  V30 1359 H 126.713 1.25495 6.67404 0
M  V30 1360 H 124.659 -0.981198 6.4862 0
M  V30 1361 H 124.576 0.384364 7.55022 0
M  V30 1362 H 125.844 -0.787014 7.75517 0
M  V30 1363 N 130.073 -1.45103 0.615059 0
M  V30 1364 C 131.319 -2.02483 0.113347 0
M  V30 1365 C 131.652 -1.48146 -1.25564 0
M  V30 1366 O 130.927 -0.659104 -1.82992 0
M  V30 1367 C 131.21 -3.60005 0.0825278 0
M  V30 1368 C 131.063 -4.2466 1.48271 0
M  V30 1369 C 132.382 -4.35972 -0.601401 0
M  V30 1370 H 129.501 -0.735764 0.0426632 0
M  V30 1371 H 132.143 -1.72868 0.788461 0
M  V30 1372 H 130.293 -3.85367 -0.492378 0
M  V30 1373 H 131.965 -4.10458 2.10527 0
M  V30 1374 H 130.208 -3.82772 2.04127 0
M  V30 1375 H 130.879 -5.336 1.41332 0
M  V30 1376 H 133.355 -4.15947 -0.112666 0
M  V30 1377 H 132.231 -5.45697 -0.592097 0
M  V30 1378 H 132.492 -4.09391 -1.66887 0
M  V30 1379 N 131.551 -0.354651 -1.53558 0
M  V30 1380 C 132.798 0.238443 -2.01091 0
M  V30 1381 C 133.126 1.49663 -1.24222 0
M  V30 1382 O 132.381 1.93049 -0.321003 0
M  V30 1383 C 132.68 0.587121 -3.52545 0
M  V30 1384 C 132.346 -0.575472 -4.47213 0
M  V30 1385 C 131.008 -0.894497 -4.72813 0
M  V30 1386 C 133.36 -1.35489 -5.03281 0
M  V30 1387 C 130.688 -1.99511 -5.51736 0
M  V30 1388 C 133.04 -2.44583 -5.83405 0
M  V30 1389 C 131.704 -2.77033 -6.07296 0
M  V30 1390 H 130.974 0.0872526 -0.735845 0
M  V30 1391 H 133.621 -0.484859 -1.8526 0
M  V30 1392 H 131.926 1.39129 -3.66265 0
M  V30 1393 H 133.623 1.05809 -3.86789 0
M  V30 1394 H 130.213 -0.316774 -4.27428 0
M  V30 1395 H 134.397 -1.12167 -4.83459 0
M  V30 1396 H 129.653 -2.25063 -5.68469 0
M  V30 1397 H 133.827 -3.05401 -6.25862 0
M  V30 1398 H 131.454 -3.6244 -6.68237 0
M  V30 1399 N 133.029 1.57378 -0.0835403 0
M  V30 1400 C 134.269 1.95808 0.586381 0
M  V30 1401 C 134.633 0.963706 1.66062 0
M  V30 1402 O 135.834 1.23608 2.38693 0
M  V30 1403 C 134.105 3.38808 1.13771 0
M  V30 1404 S 135.664 3.99225 1.82112 0
M  V30 1405 H 132.482 0.684675 0.191679 0
M  V30 1406 H 135.084 1.94843 -0.160194 0
M  V30 1407 H 133.788 4.08954 0.344197 0
M  V30 1408 H 133.319 3.43344 1.92038 0
M  V30 1409 H 135.334 3.87087 3.10449 0
M  V30 1410 N 134.507 -0.190092 1.56449 0
M  V30 1411 C 135.455 -1.25501 1.95837 0
M  V30 1412 C 136.449 -1.4685 0.844485 0
M  V30 1413 O 137.655 -1.47651 1.02952 0
M  V30 1414 H 134.03 -0.421447 0.622805 0
M  V30 1415 H 136.001 -0.895821 2.84636 0
M  V30 1416 C 134.75 -2.59124 2.31841 0
M  V30 1417 H 134.073 -2.43514 3.17082 0
M  V30 1418 H 135.513 -3.32371 2.6326 0
M  V30 1419 C 133.972 -3.16488 1.15486 0
M  V30 1420 O 134.502 -3.99365 0.432535 0
M  V30 1421 N 132.708 -2.75305 0.930349 0
M  V30 1422 H 132.255 -2.08013 1.51948 0
M  V30 1423 H 132.213 -3.14024 0.153634 0
M  V30 1424 N 135.985 -1.50799 -0.457987 0
M  V30 1425 C 137.234 -1.6168 -1.20593 0
M  V30 1426 C 137.547 -0.32888 -1.92815 0
M  V30 1427 O 138.753 -0.316773 -2.69646 0
M  V30 1428 C 137.209 -2.8545 -2.19195 0
M  V30 1429 C 136.817 -4.21168 -1.52715 0
M  V30 1430 C 138.561 -3.05681 -2.94549 0
M  V30 1431 C 136.468 -5.3611 -2.4968 0
M  V30 1432 H 135.398 -0.602134 -0.453818 0
M  V30 1433 H 138.049 -1.77245 -0.475031 0
M  V30 1434 H 136.431 -2.63472 -2.95632 0
M  V30 1435 H 137.605 -4.53449 -0.819775 0
M  V30 1436 H 135.92 -4.06648 -0.895922 0
M  V30 1437 H 138.517 -3.88727 -3.67145 0
M  V30 1438 H 138.86 -2.17929 -3.54701 0
M  V30 1439 H 139.393 -3.27901 -2.25223 0
M  V30 1440 H 136.132 -6.26057 -1.94249 0
M  V30 1441 H 135.652 -5.0823 -3.18532 0
M  V30 1442 H 137.331 -5.6722 -3.11241 0
M  V30 1443 N 137.463 0.71206 -1.40597 0
M  V30 1444 C 138.693 1.49894 -1.42181 0
M  V30 1445 C 139.101 1.89189 -0.0208078 0
M  V30 1446 O 138.444 1.56223 0.966436 0
M  V30 1447 C 138.506 2.80215 -2.25211 0
M  V30 1448 C 138.17 2.63221 -3.73582 0
M  V30 1449 C 139.167 2.30249 -4.66135 0
M  V30 1450 C 136.852 2.79376 -4.17438 0
M  V30 1451 C 138.846 2.13645 -6.00529 0
M  V30 1452 C 136.533 2.6239 -5.51901 0
M  V30 1453 C 137.531 2.29573 -6.43262 0
M  V30 1454 O 137.219 2.12719 -7.75246 0
M  V30 1455 H 136.951 0.469031 -0.486812 0
M  V30 1456 H 139.505 0.88564 -1.85326 0
M  V30 1457 H 137.735 3.4389 -1.76852 0
M  V30 1458 H 139.424 3.41947 -2.18694 0
M  V30 1459 H 140.19 2.17398 -4.33547 0
M  V30 1460 H 136.069 3.03906 -3.46644 0
M  V30 1461 H 139.613 1.87953 -6.71803 0
M  V30 1462 H 135.51 2.74826 -5.84073 0
M  V30 1463 H 136.278 2.27611 -7.86216 0
M  V30 1464 N 138.941 1.26152 0.944643 0
M  V30 1465 C 140.169 1.14259 1.72489 0
M  V30 1466 C 140.584 -0.302555 1.8636 0
M  V30 1467 O 139.941 -1.20741 1.36849 0
M  V30 1468 C 139.992 1.80266 3.13347 0
M  V30 1469 O 139.713 3.19133 3.00143 0
M  V30 1470 C 141.214 1.74283 4.07603 0
M  V30 1471 H 138.434 0.398051 0.540181 0
M  V30 1472 H 140.978 1.66706 1.18446 0
M  V30 1473 H 139.133 1.31766 3.64303 0
M  V30 1474 H 139.547 3.51744 3.89071 0
M  V30 1475 H 141.021 2.25111 5.04013 0
M  V30 1476 H 141.498 0.708631 4.33446 0
M  V30 1477 H 142.104 2.22319 3.62567 0
M  V30 1478 N 140.419 -1.14872 1.07899 0
M  V30 1479 C 141.644 -1.90202 0.826926 0
M  V30 1480 C 142.069 -1.77774 -0.614664 0
M  V30 1481 O 141.427 -1.11431 -1.43013 0
M  V30 1482 C 141.475 -3.38352 1.24702 0
M  V30 1483 O 140.579 -4.10497 0.39575 0
M  V30 1484 H 139.92 -0.591968 0.300782 0
M  V30 1485 H 142.45 -1.45437 1.43907 0
M  V30 1486 H 142.46 -3.89156 1.22563 0
M  V30 1487 H 141.135 -3.46715 2.29698 0
M  V30 1488 H 139.712 -3.69796 0.480117 0
M  V30 1489 N 141.898 -0.863906 -1.31812 0
M  V30 1490 C 142.828 -0.330843 -2.31144 0
M  V30 1491 C 143.809 0.575005 -1.60087 0
M  V30 1492 O 144.994 0.493304 -1.8783 0
M  V30 1493 C 142.124 0.47374 -3.44054 0
M  V30 1494 C 141.078 -0.338481 -4.26659 0
M  V30 1495 C 140.404 0.591412 -5.31419 0
M  V30 1496 C 141.704 -1.56926 -4.98168 0
M  V30 1497 H 143.398 -1.16086 -2.75979 0
M  V30 1498 H 140.944 -0.559657 -1.32679 0
M  V30 1499 H 142.897 0.857143 -4.12591 0
M  V30 1500 H 141.621 1.33721 -2.9797 0
M  V30 1501 H 140.28 -0.703754 -3.59782 0
M  V30 1502 H 139.928 1.45199 -4.81587 0
M  V30 1503 H 139.628 0.0519022 -5.87577 0
M  V30 1504 H 141.152 0.97179 -6.02817 0
M  V30 1505 H 142.566 -1.25764 -5.59336 0
M  V30 1506 H 140.963 -2.04739 -5.64094 0
M  V30 1507 H 142.033 -2.32544 -4.25501 0
M  V30 1508 N 143.376 1.44774 -0.622745 0
M  V30 1509 C 144.653 1.95522 -0.0551974 0
M  V30 1510 C 145.033 1.5649 1.41683 0
M  V30 1511 O 144.381 0.834848 2.12703 0
M  V30 1512 C 144.591 3.4796 -0.269242 0
M  V30 1513 C 145.939 4.24306 -0.158014 0
M  V30 1514 O 146.963 3.55637 -0.200162 0
M  V30 1515 O 145.822 5.46471 -0.0558693 0
M  V30 1516 H 142.916 0.826556 0.0271015 0
M  V30 1517 H 145.462 1.54866 -0.693864 0
M  V30 1518 H 144.234 3.6939 -1.29099 0
M  V30 1519 H 143.857 3.95543 0.403966 0
M  V30 1520 N 144.854 0.36279 1.53368 0
M  V30 1521 C 146.1 -0.228113 2.01513 0
M  V30 1522 C 146.433 -1.48648 1.2497 0
M  V30 1523 O 145.708 -1.91459 0.342616 0
M  V30 1524 C 145.991 -0.522884 3.56284 0
M  V30 1525 C 145.844 0.74892 4.43521 0
M  V30 1526 C 147.163 -1.32461 4.19693 0
M  V30 1527 H 144.282 -0.0814343 0.732487 0
M  V30 1528 H 146.924 0.48713 1.83649 0
M  V30 1529 H 145.074 -1.1322 3.71636 0
M  V30 1530 H 146.746 1.38648 4.39971 0
M  V30 1531 H 144.989 1.36986 4.11603 0
M  V30 1532 H 145.66 0.497667 5.49752 0
M  V30 1533 H 148.136 -0.809203 4.08156 0
M  V30 1534 H 147.012 -1.49961 5.28018 0
M  V30 1535 H 147.273 -2.33232 3.75573 0
M  V30 1536 N 146.332 -1.57332 0.0918853 0
M  V30 1537 C 147.265 -2.09499 -0.904735 0
M  V30 1538 C 148.243 -1.00479 -1.27839 0
M  V30 1539 O 149.427 -1.27954 -1.38419 0
M  V30 1540 C 146.554 -2.56931 -2.2069 0
M  V30 1541 C 145.6 -3.77579 -1.98334 0
M  V30 1542 S 146.433 -5.21317 -1.22428 0
M  V30 1543 C 147.589 -5.72097 -2.53882 0
M  V30 1544 H 147.822 -2.93705 -0.460922 0
M  V30 1545 H 145.355 -1.53923 -0.121332 0
M  V30 1546 H 147.313 -2.84917 -2.95521 0
M  V30 1547 H 145.974 -1.72956 -2.62192 0
M  V30 1548 H 145.167 -4.08824 -2.94752 0
M  V30 1549 H 144.769 -3.5007 -1.31633 0
M  V30 1550 H 147.061 -5.80168 -3.49874 0
M  V30 1551 H 148.004 -6.70654 -2.27219 0
M  V30 1552 H 148.412 -5.00012 -2.62007 0
M  V30 1553 N 147.81 0.181792 -1.56548 0
M  V30 1554 C 148.74 1.22765 -1.98623 0
M  V30 1555 C 149.721 1.46747 -0.860189 0
M  V30 1556 O 150.906 1.58259 -1.12551 0
M  V30 1557 C 148.036 2.56894 -2.33715 0
M  V30 1558 C 146.99 2.475 -3.49182 0
M  V30 1559 C 146.316 3.86023 -3.69986 0
M  V30 1560 C 147.616 1.98866 -4.82959 0
M  V30 1561 H 149.31 0.877942 -2.86239 0
M  V30 1562 H 146.856 0.42088 -1.37712 0
M  V30 1563 H 148.809 3.30253 -2.61746 0
M  V30 1564 H 147.533 2.93632 -1.42997 0
M  V30 1565 H 146.192 1.76596 -3.21262 0
M  V30 1566 H 145.84 4.20136 -2.76576 0
M  V30 1567 H 145.54 3.80609 -4.47672 0
M  V30 1568 H 147.064 4.60984 -4.00407 0
M  V30 1569 H 148.478 2.61992 -5.09934 0
M  V30 1570 H 146.875 2.04424 -5.64208 0
M  V30 1571 H 147.945 0.942465 -4.75653 0
M  V30 1572 N 149.288 1.51039 0.449983 0
M  V30 1573 C 150.528 1.64732 1.21007 0
M  V30 1574 C 150.892 0.349865 1.88785 0
M  V30 1575 O 152.093 0.362431 2.66345 0
M  V30 1576 C 150.364 2.80902 2.20973 0
M  V30 1577 S 151.923 3.14851 3.05638 0
M  V30 1578 H 148.741 0.5805 0.410538 0
M  V30 1579 H 151.343 1.88901 0.503634 0
M  V30 1580 H 150.047 3.73627 1.69796 0
M  V30 1581 H 149.578 2.58882 2.96215 0
M  V30 1582 H 151.593 2.60306 4.22439 0
M  V30 1583 N 150.766 -0.704594 1.40972 0
M  V30 1584 C 151.994 -1.49354 1.43182 0
M  V30 1585 C 152.409 -1.88768 0.0345508 0
M  V30 1586 O 151.766 -1.56184 -0.944081 0
M  V30 1587 C 151.817 -2.76187 2.33244 0
M  V30 1588 O 151.538 -2.38436 3.67532 0
M  V30 1589 C 153.039 -3.7 2.44162 0
M  V30 1590 H 150.259 -0.460559 0.487982 0
M  V30 1591 H 152.803 -0.868261 1.85153 0
M  V30 1592 H 150.958 -3.34974 1.94606 0
M  V30 1593 H 151.372 -3.20126 4.15475 0
M  V30 1594 H 152.846 -4.55803 3.11364 0
M  V30 1595 H 153.323 -4.13867 1.47006 0
M  V30 1596 H 153.929 -3.17121 2.83398 0
M  V30 1597 N 152.244 -1.26651 -0.937939 0
M  V30 1598 C 153.207 -1.08546 -2.01867 0
M  V30 1599 C 154.207 -0.0327327 -1.60767 0
M  V30 1600 O 155.397 -0.276427 -1.71993 0
M  V30 1601 C 152.529 -0.651711 -3.34613 0
M  V30 1602 H 153.722 -2.04502 -2.1936 0
M  V30 1603 H 151.275 -1.09294 -1.11734 0
M  V30 1604 H 152.01 0.309696 -3.22818 0
M  V30 1605 H 151.795 -1.41189 -3.65798 0
M  V30 1606 H 153.285 -0.546973 -4.14002 0
M  V30 1607 N 153.722 1.14298 -1.08507 0
M  V30 1608 C 154.947 1.8976 -0.837001 0
M  V30 1609 C 155.372 1.78097 0.605228 0
M  V30 1610 O 154.73 1.12188 1.4242 0
M  V30 1611 C 154.778 3.37685 -1.26495 0
M  V30 1612 O 153.882 4.10281 -0.417514 0
M  V30 1613 H 153.223 0.590365 -0.303917 0
M  V30 1614 H 155.753 1.44672 -1.44676 0
M  V30 1615 H 155.763 3.88501 -1.24625 0
M  V30 1616 H 154.438 3.45492 -2.31534 0
M  V30 1617 H 153.015 3.69536 -0.499722 0
M  V30 1618 N 155.201 0.870884 1.31352 0
M  V30 1619 C 156.45 0.478408 1.95944 0
M  V30 1620 C 156.763 -0.974493 1.69597 0
M  V30 1621 O 157.969 -1.47316 2.28058 0
M  V30 1622 C 156.425 0.804609 3.50791 0
M  V30 1623 C 156.033 2.27433 3.85977 0
M  V30 1624 C 157.777 0.480648 4.2177 0
M  V30 1625 C 155.684 2.5429 5.33939 0
M  V30 1626 H 154.614 0.175175 0.733369 0
M  V30 1627 H 157.265 1.06391 1.4951 0
M  V30 1628 H 155.647 0.148347 3.95722 0
M  V30 1629 H 156.821 2.97373 3.52002 0
M  V30 1630 H 155.136 2.56442 3.28065 0
M  V30 1631 H 157.733 0.658519 5.30629 0
M  V30 1632 H 158.076 -0.578979 4.12254 0
M  V30 1633 H 158.609 1.09349 3.82476 0
M  V30 1634 H 155.348 3.58939 5.48491 0
M  V30 1635 H 154.868 1.88945 5.69263 0
M  V30 1636 H 156.547 2.39066 6.01212 0
M  V30 1637 N 156.679 -1.44442 0.630414 0
M  V30 1638 C 157.609 -2.33418 -0.0618083 0
M  V30 1639 C 158.59 -1.48165 -0.835541 0
M  V30 1640 O 159.775 -1.76886 -0.801564 0
M  V30 1641 C 156.905 -3.31222 -1.04449 0
M  V30 1642 C 155.859 -4.26288 -0.382436 0
M  V30 1643 C 155.185 -5.13954 -1.47497 0
M  V30 1644 C 156.485 -5.1744 0.710865 0
M  V30 1645 H 158.179 -2.91548 0.681184 0
M  V30 1646 H 155.725 -1.40191 0.329026 0
M  V30 1647 H 157.678 -3.92351 -1.53748 0
M  V30 1648 H 156.402 -2.71299 -1.81836 0
M  V30 1649 H 155.061 -3.6649 0.0899054 0
M  V30 1650 H 154.709 -4.50385 -2.2397 0
M  V30 1651 H 154.409 -5.7837 -1.03737 0
M  V30 1652 H 155.933 -5.77955 -1.96979 0
M  V30 1653 H 157.347 -5.72509 0.300996 0
M  V30 1654 H 155.744 -5.90455 1.07156 0
M  V30 1655 H 156.814 -4.58496 1.57829 0
M  V30 1656 N 158.157 -0.370918 -1.53173 0
M  V30 1657 C 159.105 0.488101 -2.27421 0
M  V30 1658 C 160.099 1.07884 -1.30604 0
M  V30 1659 O 161.305 1.02143 -1.48212 0
M  V30 1660 H 157.68 0.176134 -0.731082 0
M  V30 1661 H 159.651 -0.159815 -2.97972 0
M  V30 1662 C 158.4 1.61306 -3.08019 0
M  V30 1663 H 157.723 1.1678 -3.82364 0
M  V30 1664 H 159.163 2.18872 -3.63141 0
M  V30 1665 C 157.622 2.55848 -2.19188 0
M  V30 1666 O 158.152 3.58799 -1.80626 0
M  V30 1667 N 156.358 2.2516 -1.83715 0
M  V30 1668 H 155.905 1.41476 -2.15273 0
M  V30 1669 H 155.863 2.8867 -1.24567 0
M  V30 1670 N 159.635 1.57281 -0.100228 0
M  V30 1671 C 160.565 2.17328 0.853857 0
M  V30 1672 C 161.546 1.10804 1.2906 0
M  V30 1673 O 162.731 1.38963 1.35657 0
M  V30 1674 C 159.861 2.75772 2.11109 0
M  V30 1675 C 158.815 3.87713 1.81279 0
M  V30 1676 C 158.141 4.32882 3.13874 0
M  V30 1677 C 159.441 5.10677 1.09574 0
M  V30 1678 H 161.135 2.97305 0.353545 0
M  V30 1679 H 158.681 1.43009 0.168612 0
M  V30 1680 H 160.634 3.16433 2.78296 0
M  V30 1681 H 159.358 1.93057 2.63432 0
M  V30 1682 H 158.017 3.476 1.16489 0
M  V30 1683 H 157.665 3.47051 3.64095 0
M  V30 1684 H 157.365 5.08358 2.94696 0
M  V30 1685 H 158.889 4.7618 3.82211 0
M  V30 1686 H 160.303 5.48474 1.66879 0
M  V30 1687 H 158.7 5.91615 1.00557 0
M  V30 1688 H 159.77 4.84835 0.0793299 0
M  V30 1689 N 161.113 -0.173488 1.56642 0
M  V30 1690 C 162.36 -0.890465 1.81871 0
M  V30 1691 C 162.688 -1.82339 0.67696 0
M  V30 1692 O 161.943 -1.92795 -0.335926 0
M  V30 1693 C 162.242 -1.72069 3.13252 0
M  V30 1694 C 161.908 -0.936878 4.41059 0
M  V30 1695 C 160.57 -0.720545 4.75775 0
M  V30 1696 C 162.922 -0.386919 5.19762 0
M  V30 1697 C 160.25 0.0568829 5.86672 0
M  V30 1698 C 162.602 0.37741 6.31473 0
M  V30 1699 C 161.266 0.604563 6.64757 0
M  V30 1700 H 160.536 -0.325844 0.665512 0
M  V30 1701 H 163.183 -0.155527 1.90867 0
M  V30 1702 H 161.488 -2.52496 2.99588 0
M  V30 1703 H 163.185 -2.27844 3.29982 0
M  V30 1704 H 159.775 -1.11553 4.13828 0
M  V30 1705 H 163.959 -0.541398 4.93338 0
M  V30 1706 H 159.215 0.242635 6.10918 0
M  V30 1707 H 163.389 0.810825 6.91664 0
M  V30 1708 H 161.016 1.20885 7.50527 0
M  V30 1709 N 162.591 -1.51276 -0.441967 0
M  V30 1710 C 163.524 -1.66933 -1.55591 0
M  V30 1711 C 164.502 -0.516958 -1.54163 0
M  V30 1712 O 165.686 -0.740209 -1.73358 0
M  V30 1713 C 162.813 -1.67866 -2.94174 0
M  V30 1714 C 161.859 -2.89013 -3.13646 0
M  V30 1715 S 162.692 -4.49897 -2.90436 0
M  V30 1716 C 163.848 -4.53568 -4.31308 0
M  V30 1717 H 164.081 -2.61155 -1.42076 0
M  V30 1718 H 161.614 -1.40902 -0.631341 0
M  V30 1719 H 163.572 -1.69089 -3.74058 0
M  V30 1720 H 162.233 -0.748296 -3.05056 0
M  V30 1721 H 161.426 -2.86054 -4.14957 0
M  V30 1722 H 161.028 -2.85509 -2.4158 0
M  V30 1723 H 163.32 -4.28924 -5.24434 0
M  V30 1724 H 164.263 -5.55355 -4.39303 0
M  V30 1725 H 164.671 -3.82943 -4.14747 0
M  V30 1726 N 164.069 0.697108 -1.41344 0
M  V30 1727 C 165.318 1.45279 -1.39918 0
M  V30 1728 C 165.631 1.95597 -0.0109624 0
M  V30 1729 O 166.837 2.71208 0.125919 0
M  V30 1730 C 165.293 2.62695 -2.46007 0
M  V30 1731 C 164.901 2.19169 -3.90729 0
M  V30 1732 C 166.645 3.40336 -2.53715 0
M  V30 1733 C 164.552 3.33535 -4.88373 0
M  V30 1734 H 163.482 0.545692 -0.520323 0
M  V30 1735 H 166.133 0.756929 -1.67161 0
M  V30 1736 H 164.515 3.34541 -2.11892 0
M  V30 1737 H 165.689 1.54623 -4.34083 0
M  V30 1738 H 164.004 1.54525 -3.86666 0
M  V30 1739 H 166.601 4.2547 -3.2385 0
M  V30 1740 H 166.944 3.85418 -1.5735 0
M  V30 1741 H 167.477 2.75546 -2.86913 0
M  V30 1742 H 164.216 2.93468 -5.86137 0
M  V30 1743 H 163.736 3.96936 -4.49668 0
M  V30 1744 H 165.415 3.99335 -5.09059 0
M  V30 1745 N 165.547 1.27147 0.931209 0
M  V30 1746 C 166.772 1.16191 1.71797 0
M  V30 1747 C 167.197 -0.278004 1.86034 0
M  V30 1748 O 166.555 -1.20137 1.35782 0
M  V30 1749 C 166.603 1.84673 3.09723 0
M  V30 1750 O 165.707 1.14231 3.96264 0
M  V30 1751 H 165.048 0.404303 0.526721 0
M  V30 1752 H 167.578 1.68152 1.1656 0
M  V30 1753 H 167.588 1.91893 3.60057 0
M  V30 1754 H 166.263 2.89421 2.98677 0
M  V30 1755 H 164.84 1.15056 3.54706 0
M  V30 1756 N 167.025 -1.13721 1.09112 0
M  V30 1757 C 167.955 -2.21148 0.749385 0
M  V30 1758 C 168.936 -1.6792 -0.271475 0
M  V30 1759 O 170.121 -1.93693 -0.140251 0
M  V30 1760 C 167.251 -3.46905 0.165659 0
M  V30 1761 C 166.205 -4.13203 1.11567 0
M  V30 1762 C 165.531 -5.33248 0.393809 0
M  V30 1763 C 166.831 -4.60912 2.45678 0
M  V30 1764 H 168.525 -2.4999 1.64758 0
M  V30 1765 H 166.071 -1.20156 0.793626 0
M  V30 1766 H 168.024 -4.21313 -0.085466 0
M  V30 1767 H 166.748 -3.17449 -0.767714 0
M  V30 1768 H 165.407 -3.40758 1.35202 0
M  V30 1769 H 165.055 -5.00054 -0.543599 0
M  V30 1770 H 164.755 -5.78552 1.02721 0
M  V30 1771 H 166.279 -6.10413 0.150908 0
M  V30 1772 H 167.693 -5.26759 2.26269 0
M  V30 1773 H 166.09 -5.16944 3.04776 0
M  V30 1774 H 167.16 -3.75603 3.06677 0
M  V30 1775 N 168.503 -0.877838 -1.30888 0
M  V30 1776 C 169.78 -0.413052 -1.91189 0
M  V30 1777 C 170.16 1.1056 -1.79832 0
M  V30 1778 O 169.508 1.93771 -1.21099 0
M  V30 1779 C 169.718 -0.903191 -3.3711 0
M  V30 1780 C 171.066 -0.93395 -4.14201 0
M  V30 1781 O 172.09 -0.849373 -3.45925 0
M  V30 1782 O 170.949 -1.05772 -5.36167 0
M  V30 1783 H 168.043 -0.125035 -0.817493 0
M  V30 1784 H 170.589 -0.966269 -1.39504 0
M  V30 1785 H 169.361 -1.94692 -3.39427 0
M  V30 1786 H 168.984 -0.328732 -3.96239 0
M  V30 1787 N 169.982 1.44106 -0.638065 0
M  V30 1788 C 171.398 1.56672 -0.304286 0
M  V30 1789 C 171.598 1.6244 1.19228 0
M  V30 1790 O 170.654 1.57121 1.9766 0
M  V30 1791 C 171.967 2.83503 -1.00231 0
M  V30 1792 C 173.515 2.97226 -0.981116 0
M  V30 1793 C 173.99 4.26868 -1.65974 0
M  V30 1794 N 175.481 4.33698 -1.62666 0
M  V30 1795 C 176.216 5.32745 -2.12063 0
M  V30 1796 N 175.712 6.38157 -2.6968 0
M  V30 1797 N 177.505 5.24299 -2.02651 0
M  V30 1798 H 169.656 1.38605 -1.60942 0
M  V30 1799 H 171.919 0.664661 -0.675965 0
M  V30 1800 H 171.625 2.85251 -2.0573 0
M  V30 1801 H 171.499 3.73251 -0.54439 0
M  V30 1802 H 173.886 2.95027 0.0654188 0
M  V30 1803 H 173.967 2.08808 -1.47759 0
M  V30 1804 H 173.611 4.29826 -2.70576 0
M  V30 1805 H 173.541 5.14156 -1.13804 0
M  V30 1806 H 176.032 3.58138 -1.20606 0
M  V30 1807 H 176.345 7.10029 -3.05087 0
M  V30 1808 H 174.69 6.38823 -2.73734 0
M  V30 1809 H 177.881 4.4086 -1.57353 0
M  V30 1810 H 178.054 6.01334 -2.41457 0
M  V30 1811 N 171.46 0.379036 1.52974 0
M  V30 1812 C 172.69 -0.20649 2.05566 0
M  V30 1813 C 173.098 -1.41906 1.25137 0
M  V30 1814 O 172.441 -1.81421 0.288464 0
M  V30 1815 C 172.503 -0.651086 3.53555 0
M  V30 1816 C 172.167 0.446626 4.54812 0
M  V30 1817 C 173.164 1.30079 5.03364 0
M  V30 1818 C 170.849 0.610719 4.98573 0
M  V30 1819 C 172.843 2.30426 5.94292 0
M  V30 1820 C 170.53 1.61754 5.89304 0
M  V30 1821 C 171.528 2.46274 6.37054 0
M  V30 1822 O 171.216 3.45237 7.25994 0
M  V30 1823 H 170.948 -0.0372381 0.674974 0
M  V30 1824 H 173.502 0.539718 1.98182 0
M  V30 1825 H 171.732 -1.44911 3.58522 0
M  V30 1826 H 173.421 -1.16112 3.88938 0
M  V30 1827 H 174.187 1.18527 4.70294 0
M  V30 1828 H 170.066 -0.0374044 4.60985 0
M  V30 1829 H 173.61 2.96432 6.31485 0
M  V30 1830 H 169.507 1.73348 6.21788 0
M  V30 1831 H 170.275 3.41124 7.44027 0
M  V30 1832 N 172.938 -1.57226 0.108567 0
M  V30 1833 C 174.178 -1.96717 -0.555155 0
M  V30 1834 C 174.542 -0.990003 -1.64508 0
M  V30 1835 O 175.743 -1.2739 -2.36696 0
M  V30 1836 C 174.014 -3.40575 -1.08367 0
M  V30 1837 S 175.573 -4.02072 -1.75737 0
M  V30 1838 H 172.391 -0.687638 -0.180762 0
M  V30 1839 H 174.993 -1.94563 0.191172 0
M  V30 1840 H 173.697 -4.0945 -0.279092 0
M  V30 1841 H 173.228 -3.46356 -1.86551 0
M  V30 1842 H 175.243 -3.91977 -3.04251 0
M  V30 1843 N 174.416 0.165178 -1.56732 0
M  V30 1844 C 175.379 1.18822 -1.95995 0
M  V30 1845 C 176.379 1.3685 -0.84431 0
M  V30 1846 O 177.569 1.34152 -1.11126 0
M  V30 1847 C 174.701 2.5521 -2.26011 0
M  V30 1848 H 175.894 0.851825 -2.87548 0
M  V30 1849 H 173.447 0.407857 -1.50885 0
M  V30 1850 H 174.182 2.93852 -1.37191 0
M  V30 1851 H 173.967 2.43489 -3.07336 0
M  V30 1852 H 175.457 3.28927 -2.57288 0
M  V30 1853 N 175.894 1.51508 0.433938 0
M  V30 1854 C 177.14 1.64588 1.18484 0
M  V30 1855 C 177.473 0.362666 1.90784 0
M  V30 1856 O 176.748 -0.637892 1.83742 0
M  V30 1857 C 177.031 2.85149 2.19913 0
M  V30 1858 C 176.884 4.23456 1.51674 0
M  V30 1859 C 178.203 3.01227 3.20858 0
M  V30 1860 H 175.322 0.598994 0.429389 0
M  V30 1861 H 177.964 1.84002 0.473647 0
M  V30 1862 H 176.114 2.68729 2.80566 0
M  V30 1863 H 177.786 4.51552 0.943322 0
M  V30 1864 H 176.029 4.25998 0.819035 0
M  V30 1865 H 176.7 5.03812 2.2556 0
M  V30 1866 H 179.176 3.16382 2.70263 0
M  V30 1867 H 178.052 3.87141 3.89118 0
M  V30 1868 H 178.313 2.13447 3.8716 0
M  V30 1869 N 177.372 -0.689602 1.41712 0
M  V30 1870 C 178.305 -1.81403 1.3845 0
M  V30 1871 C 179.283 -1.60653 0.250874 0
M  V30 1872 O 180.467 -1.83323 0.43874 0
M  V30 1873 C 177.594 -3.18176 1.1611 0
M  V30 1874 C 176.64 -3.57705 2.3227 0
M  V30 1875 S 177.473 -3.61827 3.94767 0
M  V30 1876 C 178.629 -5.01318 3.74742 0
M  V30 1877 H 178.862 -1.83893 2.33603 0
M  V30 1878 H 176.395 -0.858878 1.28307 0
M  V30 1879 H 178.353 -3.97132 1.03907 0
M  V30 1880 H 177.014 -3.13288 0.225668 0
M  V30 1881 H 176.207 -4.57082 2.12349 0
M  V30 1882 H 175.809 -2.86073 2.40911 0
M  V30 1883 H 178.101 -5.88986 3.34817 0
M  V30 1884 H 179.044 -5.26283 4.73743 0
M  V30 1885 H 179.452 -4.73138 3.07898 0
M  V30 1886 N 178.85 -1.27639 -0.924453 0
M  V30 1887 C 180.127 -1.04887 -1.651 0
M  V30 1888 C 180.507 0.415327 -2.06974 0
M  V30 1889 O 179.855 1.39923 -1.80648 0
M  V30 1890 C 180.065 -2.01348 -2.85061 0
M  V30 1891 C 181.413 -2.30899 -3.56329 0
M  V30 1892 O 182.437 -1.99348 -2.95193 0
M  V30 1893 O 181.296 -2.84699 -4.66485 0
M  V30 1894 H 178.39 -0.400083 -0.723784 0
M  V30 1895 H 180.936 -1.38916 -0.974703 0
M  V30 1896 H 179.708 -3.0008 -2.51133 0
M  V30 1897 H 179.331 -1.679 -3.6041 0
M  V30 1898 N 180.328 1.1314 -1.09713 0
M  V30 1899 C 181.739 1.66029 -0.853885 0
M  V30 1900 C 182.09 1.86241 0.617142 0
M  V30 1901 O 181.215 1.5834 1.47503 0
M  V30 1902 C 181.81 3.01599 -1.5435 0
M  V30 1903 C 180.369 3.51467 -1.34714 0
M  V30 1904 C 179.516 2.26648 -1.59769 0
M  V30 1905 H 182.467 0.970226 -1.25588 0
M  V30 1906 H 182.488 3.67709 -0.978267 0
M  V30 1907 H 182 2.86856 -2.6141 0
M  V30 1908 H 180.101 3.71408 -0.297838 0
M  V30 1909 H 180.214 4.314 -2.08401 0
M  V30 1910 H 178.578 2.33385 -1.01998 0
M  V30 1911 H 179.361 2.14467 -2.68065 0
M  V30 1912 N 181.806 0.884767 1.30421 0
M  V30 1913 C 182.736 0.367574 2.30589 0
M  V30 1914 C 183.717 -0.549464 1.60981 0
M  V30 1915 O 184.902 -0.46336 1.88591 0
M  V30 1916 C 182.032 -0.418944 3.44764 0
M  V30 1917 C 180.986 0.406316 4.26067 0
M  V30 1918 C 180.312 -0.506793 5.32293 0
M  V30 1919 C 181.612 1.64832 4.95608 0
M  V30 1920 H 183.306 1.20462 2.74097 0
M  V30 1921 H 180.852 0.580695 1.31772 0
M  V30 1922 H 182.805 -0.791395 4.13902 0
M  V30 1923 H 181.529 -1.28964 3.0006 0
M  V30 1924 H 180.188 0.760903 3.58617 0
M  V30 1925 H 179.836 -1.37519 4.83836 0
M  V30 1926 H 179.536 0.0415828 5.87585 0
M  V30 1927 H 181.06 -0.875764 6.04287 0
M  V30 1928 H 182.474 1.34646 5.57264 0
M  V30 1929 H 180.871 2.13688 5.60765 0
M  V30 1930 H 181.941 2.39284 4.21748 0
M  V30 1931 N 183.284 -1.43765 0.645699 0
M  V30 1932 C 184.7 -1.56509 0.312591 0
M  V30 1933 C 184.9 -1.6307 -1.18365 0
M  V30 1934 O 183.956 -1.58167 -1.96824 0
M  V30 1935 C 185.269 -2.82968 1.01733 0
M  V30 1936 C 186.817 -2.96701 0.996865 0
M  V30 1937 C 187.292 -4.25982 1.68236 0
M  V30 1938 N 188.783 -4.32829 1.64964 0
M  V30 1939 C 189.518 -5.31613 2.14885 0
M  V30 1940 N 189.014 -6.36718 2.73061 0
M  V30 1941 N 190.807 -5.23217 2.05428 0
M  V30 1942 H 182.958 -1.3775 1.61675 0
M  V30 1943 H 185.221 -0.661067 0.679481 0
M  V30 1944 H 184.927 -2.84156 2.0724 0
M  V30 1945 H 184.801 -3.72957 0.564177 0
M  V30 1946 H 187.188 -2.95058 -0.0497719 0
M  V30 1947 H 187.269 -2.08022 1.48865 0
M  V30 1948 H 186.913 -4.28386 2.72852 0
M  V30 1949 H 186.843 -5.13545 1.16529 0
M  V30 1950 H 189.334 -3.57493 1.22503 0
M  V30 1951 H 189.647 -7.08401 3.08848 0
M  V30 1952 H 187.992 -6.37362 2.77118 0
M  V30 1953 H 191.183 -4.40019 1.59689 0
M  V30 1954 H 191.356 -6.00045 2.44643 0
M  V30 1955 N 184.763 -0.387143 -1.52771 0
M  V30 1956 C 185.993 0.195585 -2.05672 0
M  V30 1957 C 186.401 1.41241 -1.25887 0
M  V30 1958 O 185.744 1.81265 -0.298081 0
M  V30 1959 C 185.806 0.632327 -3.53895 0
M  V30 1960 C 185.47 -0.470739 -4.54569 0
M  V30 1961 C 186.467 -1.32746 -5.02667 0
M  V30 1962 C 184.152 -0.637151 -4.98243 0
M  V30 1963 C 186.146 -2.33574 -5.93061 0
M  V30 1964 C 183.833 -1.64877 -5.88438 0
M  V30 1965 C 184.831 -2.49649 -6.35739 0
M  V30 1966 O 184.519 -3.49082 -7.24153 0
M  V30 1967 H 184.251 0.033658 -0.675162 0
M  V30 1968 H 186.805 -0.550221 -1.97893 0
M  V30 1969 H 185.035 1.43008 -3.59285 0
M  V30 1970 H 186.724 1.14048 -3.89548 0
M  V30 1971 H 187.49 -1.21019 -4.69659 0
M  V30 1972 H 183.369 0.0129567 -4.60998 0
M  V30 1973 H 186.913 -2.99777 -6.29904 0
M  V30 1974 H 182.81 -1.76643 -6.2086 0
M  V30 1975 H 183.578 -3.45065 -7.42208 0
M  V30 1976 N 186.241 1.57166 -0.116904 0
M  V30 1977 C 187.652 1.82169 0.408809 0
M  V30 1978 C 188.003 1.03393 1.66746 0
M  V30 1979 O 187.128 0.269886 2.1471 0
M  V30 1980 C 187.723 3.30429 0.748466 0
M  V30 1981 C 186.282 3.5612 1.21882 0
M  V30 1982 C 185.429 2.76374 0.226452 0
M  V30 1983 H 188.38 1.5497 -0.342063 0
M  V30 1984 H 188.401 3.44943 1.60607 0
M  V30 1985 H 187.913 3.87737 -0.167784 0
M  V30 1986 H 186.014 3.04168 2.15204 0
M  V30 1987 H 186.127 4.64705 1.16559 0
M  V30 1988 H 184.491 2.44515 0.713063 0
M  V30 1989 H 185.274 3.3644 -0.682859 0
M  V30 1990 N 187.719 -0.156864 1.56817 0
M  V30 1991 C 188.965 -0.872416 1.83076 0
M  V30 1992 C 189.298 -1.81261 0.697001 0
M  V30 1993 O 188.573 -1.92171 -0.30008 0
M  V30 1994 C 188.856 -1.65551 3.19789 0
M  V30 1995 C 188.709 -0.737467 4.43713 0
M  V30 1996 C 190.028 -2.62012 3.53606 0
M  V30 1997 H 187.147 -0.315715 0.665953 0
M  V30 1998 H 189.789 -0.138004 1.89498 0
M  V30 1999 H 187.939 -2.28159 3.14445 0
M  V30 2000 H 189.611 -0.123143 4.61136 0
M  V30 2001 H 187.854 -0.0464067 4.33775 0
M  V30 2002 H 188.525 -1.32122 5.35955 0
M  V30 2003 H 191.001 -2.09525 3.59497 0
M  V30 2004 H 189.877 -3.13861 4.50314 0
M  V30 2005 H 190.138 -3.42902 2.79053 0
M  V30 2006 N 189.197 -1.51736 -0.425897 0
M  V30 2007 C 190.127 -1.76827 -1.52494 0
M  V30 2008 C 191.108 -0.618524 -1.58456 0
M  V30 2009 O 192.293 -0.862416 -1.74 0
M  V30 2010 C 189.423 -1.90374 -2.90474 0
M  V30 2011 C 188.377 -3.0588 -2.99369 0
M  V30 2012 C 187.703 -3.04625 -4.3944 0
M  V30 2013 C 189.003 -4.45644 -2.72394 0
M  V30 2014 H 190.697 -2.68855 -1.31748 0
M  V30 2015 H 188.243 -1.29372 -0.632362 0
M  V30 2016 H 190.196 -2.0651 -3.6733 0
M  V30 2017 H 188.92 -0.95004 -3.12477 0
M  V30 2018 H 187.579 -2.89467 -2.24954 0
M  V30 2019 H 187.227 -2.0701 -4.58428 0
M  V30 2020 H 186.927 -3.82195 -4.46319 0
M  V30 2021 H 188.451 -3.22869 -5.18255 0
M  V30 2022 H 189.865 -4.62348 -3.38979 0
M  V30 2023 H 188.262 -5.25006 -2.9067 0
M  V30 2024 H 189.332 -4.54893 -1.67929 0
M  V30 2025 N 190.675 0.682077 -1.42076 0
M  V30 2026 C 191.921 1.44428 -1.42367 0
M  V30 2027 C 192.254 1.94164 -0.0373056 0
M  V30 2028 O 191.529 1.70429 0.937239 0
M  V30 2029 C 191.812 2.64654 -2.44194 0
M  V30 2030 C 191.665 2.20596 -3.91991 0
M  V30 2031 C 192.984 3.66865 -2.431 0
M  V30 2032 H 190.103 0.523834 -0.518428 0
M  V30 2033 H 192.745 0.77576 -1.73442 0
M  V30 2034 H 190.895 3.2169 -2.17826 0
M  V30 2035 H 192.567 1.68783 -4.29313 0
M  V30 2036 H 190.81 1.52242 -4.06208 0
M  V30 2037 H 191.481 3.06921 -4.58807 0
M  V30 2038 H 193.957 3.19531 -2.66532 0
M  V30 2039 H 192.833 4.48577 -3.16339 0
M  V30 2040 H 193.094 4.17493 -1.45437 0
M  V30 2041 N 192.153 1.28127 0.917671 0
M  V30 2042 C 193.381 1.17892 1.70026 0
M  V30 2043 C 193.796 -0.262958 1.8696 0
M  V30 2044 O 193.153 -1.17811 1.3938 0
M  V30 2045 C 193.204 1.86872 3.09453 0
M  V30 2046 O 192.925 3.25428 2.93306 0
M  V30 2047 C 194.426 1.8289 4.03815 0
M  V30 2048 H 191.646 0.40942 0.531617 0
M  V30 2049 H 194.19 1.69181 1.14883 0
M  V30 2050 H 192.345 1.39464 3.61426 0
M  V30 2051 H 192.759 3.59918 3.81523 0
M  V30 2052 H 194.233 2.35751 4.99125 0
M  V30 2053 H 194.71 0.800412 4.31845 0
M  V30 2054 H 195.316 2.29959 3.57769 0
M  V30 2055 N 193.631 -1.12557 1.10312 0
M  V30 2056 C 195.042 -1.65574 0.862678 0
M  V30 2057 C 195.393 -1.86566 -0.607256 0
M  V30 2058 O 194.518 -1.59121 -1.46662 0
M  V30 2059 C 195.113 -3.00776 1.55947 0
M  V30 2060 C 193.672 -3.50748 1.36576 0
M  V30 2061 C 192.819 -2.25797 1.60968 0
M  V30 2062 H 195.77 -0.963552 1.26101 0
M  V30 2063 H 195.791 -3.67185 0.997753 0
M  V30 2064 H 195.303 -2.85465 2.62928 0
M  V30 2065 H 193.404 -3.71245 0.317531 0
M  V30 2066 H 193.517 -4.30289 2.10686 0
M  V30 2067 H 191.881 -2.32841 1.03234 0
M  V30 2068 H 192.664 -2.13043 2.69198 0
M  V30 2069 N 195.109 -0.891671 -1.2995 0
M  V30 2070 C 196.355 -0.514261 -1.96171 0
M  V30 2071 C 196.688 0.935506 -1.70182 0
M  V30 2072 O 195.963 1.66204 -1.01028 0
M  V30 2073 C 196.246 -0.797719 -3.51153 0
M  V30 2074 C 196.099 -2.2986 -3.86632 0
M  V30 2075 C 197.418 -0.278749 -4.39216 0
M  V30 2076 H 194.537 -0.188314 -0.712535 0
M  V30 2077 H 197.179 -1.11689 -1.53706 0
M  V30 2078 H 195.329 -0.284826 -3.87455 0
M  V30 2079 H 197.001 -2.88042 -3.60319 0
M  V30 2080 H 195.244 -2.76257 -3.34462 0
M  V30 2081 H 195.915 -2.44753 -4.94773 0
M  V30 2082 H 198.391 -0.717825 -4.09862 0
M  V30 2083 H 197.267 -0.506353 -5.46559 0
M  V30 2084 H 197.528 0.820266 -4.34424 0
M  V30 2085 N 196.587 1.43421 -0.653314 0
M  V30 2086 C 198.003 1.56341 -0.320886 0
M  V30 2087 C 198.203 1.63696 1.17499 0
M  V30 2088 O 197.259 1.59208 1.95982 0
M  V30 2089 C 198.572 2.82424 -1.03233 0
M  V30 2090 C 200.12 2.96168 -1.01259 0
M  V30 2091 C 200.595 4.25084 -1.70492 0
M  V30 2092 N 202.086 4.31948 -1.67257 0
M  V30 2093 C 202.821 5.30466 -2.17701 0
M  V30 2094 N 202.317 6.35261 -2.76434 0
M  V30 2095 N 204.11 5.2212 -2.082 0
M  V30 2096 H 196.261 1.3689 -1.62403 0
M  V30 2097 H 198.524 0.657455 -0.682977 0
M  V30 2098 H 198.23 2.83053 -2.08744 0
M  V30 2099 H 198.104 3.72653 -0.583948 0
M  V30 2100 H 200.491 2.9508 0.0341235 0
M  V30 2101 H 200.572 2.07229 -1.49966 0
M  V30 2102 H 200.216 4.26932 -2.7512 0
M  V30 2103 H 200.146 5.1292 -1.19251 0
M  V30 2104 H 202.637 3.56838 -1.24398 0
M  V30 2105 H 202.95 7.06754 -3.12601 0
M  V30 2106 H 201.295 6.35884 -2.80495 0
M  V30 2107 H 204.486 4.39166 -1.62021 0
M  V30 2108 H 204.659 5.98739 -2.47822 0
M  V30 2109 N 198.065 0.39524 1.52563 0
M  V30 2110 C 199.311 -0.185318 2.01952 0
M  V30 2111 C 199.644 -1.45964 1.28095 0
M  V30 2112 O 198.919 -1.90689 0.38315 0
M  V30 2113 C 199.202 -0.447193 3.57312 0
M  V30 2114 C 199.055 0.842828 4.41833 0
M  V30 2115 C 200.374 -1.23529 4.22408 0
M  V30 2116 H 197.493 -0.0658788 0.73405 0
M  V30 2117 H 200.135 0.525975 1.82575 0
M  V30 2118 H 198.285 -1.05312 3.73954 0
M  V30 2119 H 199.957 1.4795 4.36931 0
M  V30 2120 H 198.2 1.45686 4.08605 0
M  V30 2121 H 198.871 0.614165 5.48573 0
M  V30 2122 H 201.347 -0.722445 4.0978 0
M  V30 2123 H 200.223 -1.38727 5.3108 0
M  V30 2124 H 200.484 -2.25213 3.80436 0
M  V30 2125 N 199.544 -1.57102 0.125237 0
M  V30 2126 C 200.507 -2.14471 -0.80838 0
M  V30 2127 C 201.507 -1.0811 -1.19033 0
M  V30 2128 O 202.697 -1.33856 -1.11482 0
M  V30 2129 C 199.829 -2.69005 -2.09402 0
M  V30 2130 H 201.022 -2.98297 -0.309696 0
M  V30 2131 H 198.575 -1.55807 -0.124051 0
M  V30 2132 H 199.31 -1.88785 -2.63687 0
M  V30 2133 H 199.095 -3.46799 -1.82957 0
M  V30 2134 H 200.585 -3.13278 -2.76128 0
M  V30 2135 N 201.022 0.148545 -1.56898 0
M  V30 2136 C 202.271 0.85984 -1.82454 0
M  V30 2137 C 202.584 1.82406 -0.706229 0
M  V30 2138 O 203.79 2.57938 -0.847349 0
M  V30 2139 C 202.246 1.57967 -3.2338 0
M  V30 2140 C 201.854 0.65794 -4.43142 0
M  V30 2141 C 203.598 2.27784 -3.58211 0
M  V30 2142 C 201.505 1.3793 -5.75091 0
M  V30 2143 H 200.435 0.324834 -0.68044 0
M  V30 2144 H 203.086 0.112588 -1.83154 0
M  V30 2145 H 201.468 2.37249 -3.17063 0
M  V30 2146 H 202.642 -0.0995497 -4.60692 0
M  V30 2147 H 200.957 0.0682643 -4.16344 0
M  V30 2148 H 203.554 2.8239 -4.54048 0
M  V30 2149 H 203.897 3.04204 -2.84193 0
M  V30 2150 H 204.43 1.55421 -3.66182 0
M  V30 2151 H 201.169 0.656982 -6.52199 0
M  V30 2152 H 200.689 2.10954 -5.61479 0
M  V30 2153 H 202.368 1.92063 -6.17835 0
M  V30 2154 N 202.5 1.5196 0.417844 0
M  V30 2155 C 203.725 1.69717 1.1921 0
M  V30 2156 C 204.15 0.402148 1.83751 0
M  V30 2157 O 203.508 -0.639593 1.69643 0
M  V30 2158 C 203.556 2.82794 2.2374 0
M  V30 2159 O 202.66 2.47756 3.29683 0
M  V30 2160 H 202.001 0.565263 0.348387 0
M  V30 2161 H 204.531 1.98621 0.490985 0
M  V30 2162 H 204.541 3.07452 2.68212 0
M  V30 2163 H 203.216 3.76756 1.76146 0
M  V30 2164 H 201.793 2.33739 2.90552 0
M  V30 2165 N 203.978 -0.674533 1.42435 0
M  V30 2166 C 204.908 -1.80009 1.48724 0
M  V30 2167 C 205.889 -1.6659 0.343793 0
M  V30 2168 O 207.074 -1.86007 0.558137 0
M  V30 2169 C 204.204 -3.18306 1.38919 0
M  V30 2170 C 203.158 -3.46461 2.51294 0
M  V30 2171 C 202.484 -4.84335 2.26547 0
M  V30 2172 C 203.784 -3.43328 3.93603 0
M  V30 2173 H 205.478 -1.75004 2.42928 0
M  V30 2174 H 203.024 -0.840533 1.16923 0
M  V30 2175 H 204.977 -3.9678 1.41927 0
M  V30 2176 H 203.701 -3.2399 0.412094 0
M  V30 2177 H 202.36 -2.70348 2.47604 0
M  V30 2178 H 202.008 -4.86669 1.2713 0
M  V30 2179 H 201.708 -5.04136 3.01861 0
M  V30 2180 H 203.232 -5.65094 2.31304 0
M  V30 2181 H 204.646 -4.11772 3.98894 0
M  V30 2182 H 203.043 -3.74664 4.68771 0
M  V30 2183 H 204.113 -2.41897 4.20255 0
M  V30 2184 N 205.456 -1.28612 -0.910864 0
M  V30 2185 C 206.702 -1.16106 -1.66274 0
M  V30 2186 C 207.035 0.289113 -1.92036 0
M  V30 2187 O 206.31 1.21 -1.52281 0
M  V30 2188 C 206.593 -1.96309 -3.01885 0
M  V30 2189 C 206.446 -3.49405 -2.8326 0
M  V30 2190 C 207.765 -1.78076 -4.02463 0
M  V30 2191 H 204.884 -0.423152 -0.603417 0
M  V30 2192 H 207.526 -1.57961 -1.05586 0
M  V30 2193 H 205.676 -1.60742 -3.53687 0
M  V30 2194 H 207.348 -3.94894 -2.38446 0
M  V30 2195 H 205.591 -3.74893 -2.18261 0
M  V30 2196 H 206.262 -4.00784 -3.79574 0
M  V30 2197 H 208.738 -2.0912 -3.59733 0
M  V30 2198 H 207.614 -2.36561 -4.95308 0
M  V30 2199 H 207.875 -0.733008 -4.35981 0
M  V30 2200 N 206.934 1.1197 -1.10907 0
M  V30 2201 C 207.864 2.19928 -0.784473 0
M  V30 2202 C 208.845 1.6833 0.244726 0
M  V30 2203 O 210.03 1.93892 0.109418 0
M  V30 2204 C 207.16 3.46597 -0.220827 0
M  V30 2205 C 206.114 4.11376 -1.18127 0
M  V30 2206 C 205.44 5.32554 -0.478594 0
M  V30 2207 C 206.74 4.56945 -2.52979 0
M  V30 2208 H 208.434 2.47337 -1.68715 0
M  V30 2209 H 205.98 1.18879 -0.812642 0
M  V30 2210 H 207.933 4.21396 0.0184278 0
M  V30 2211 H 206.657 3.1863 0.717113 0
M  V30 2212 H 205.316 3.38564 -1.40606 0
M  V30 2213 H 204.964 5.00856 0.463976 0
M  V30 2214 H 204.664 5.76844 -1.11912 0
M  V30 2215 H 206.188 6.10096 -0.248 0
M  V30 2216 H 207.602 5.23093 -2.3462 0
M  V30 2217 H 205.999 5.1203 -3.12962 0
M  V30 2218 H 207.069 3.70676 -3.12614 0
M  V30 2219 N 208.412 0.89855 1.29475 0
M  V30 2220 C 209.661 0.519863 1.94885 0
M  V30 2221 C 209.974 -0.9383 1.71625 0
M  V30 2222 O 211.18 -1.42445 2.31131 0
M  V30 2223 C 209.636 0.878836 3.49005 0
M  V30 2224 C 209.244 2.35569 3.81066 0
M  V30 2225 C 210.988 0.570004 4.20656 0
M  V30 2226 C 208.895 2.65558 5.28425 0
M  V30 2227 H 207.825 0.190692 0.729488 0
M  V30 2228 H 210.476 1.09539 1.47219 0
M  V30 2229 H 208.858 0.232253 3.95318 0
M  V30 2230 H 210.032 3.04773 3.45616 0
M  V30 2231 H 208.347 2.63343 3.22552 0
M  V30 2232 H 210.944 0.770925 5.29113 0
M  V30 2233 H 211.287 -0.491404 4.1339 0
M  V30 2234 H 211.82 1.17438 3.8007 0
M  V30 2235 H 208.559 3.70493 5.40754 0
M  V30 2236 H 208.079 2.00977 5.65127 0
M  V30 2237 H 209.758 2.51765 5.96006 0
M  V30 2238 N 209.89 -1.43072 0.660911 0
M  V30 2239 C 211.136 -2.02545 0.186337 0
M  V30 2240 C 211.491 -1.51253 -1.18913 0
M  V30 2241 O 210.784 -0.699167 -1.78388 0
M  V30 2242 C 210.978 -3.57103 0.145563 0
M  V30 2243 C 210.807 -4.23393 1.51554 0
M  V30 2244 C 209.577 -4.59144 2.10984 0
M  V30 2245 C 211.775 -4.51897 2.45548 0
M  V30 2246 N 209.757 -5.10545 3.40907 0
M  V30 2247 C 211.128 -5.04698 3.6011 0
M  V30 2248 C 213.183 -4.33872 2.44253 0
M  V30 2249 C 211.886 -5.41371 4.73613 0
M  V30 2250 C 213.912 -4.71612 3.56842 0
M  V30 2251 C 213.274 -5.24553 4.70131 0
M  V30 2252 H 209.373 -0.773823 0.112792 0
M  V30 2253 H 211.957 -1.74137 0.870885 0
M  V30 2254 H 210.128 -3.85059 -0.508353 0
M  V30 2255 H 211.86 -4.03264 -0.340598 0
M  V30 2256 H 208.615 -4.4444 1.63615 0
M  V30 2257 H 209.039 -5.40689 4.07411 0
M  V30 2258 H 213.681 -3.92208 1.579 0
M  V30 2259 H 211.399 -5.81975 5.60652 0
M  V30 2260 H 214.985 -4.59354 3.57051 0
M  V30 2261 H 213.865 -5.53213 5.5581 0
M  V30 2262 N 211.368 -0.403325 -1.52352 0
M  V30 2263 C 212.614 0.174605 -2.02047 0
M  V30 2264 C 212.947 1.45282 -1.28867 0
M  V30 2265 O 212.222 1.90483 -0.393257 0
M  V30 2266 C 212.505 0.428238 -3.57545 0
M  V30 2267 C 212.358 -0.866248 -4.4138 0
M  V30 2268 C 213.677 1.21287 -4.23057 0
M  V30 2269 H 210.796 0.0619851 -0.734389 0
M  V30 2270 H 213.438 -0.53565 -1.82293 0
M  V30 2271 H 211.588 1.03327 -3.74507 0
M  V30 2272 H 213.26 -1.50265 -4.3614 0
M  V30 2273 H 211.503 -1.47851 -4.07827 0
M  V30 2274 H 212.174 -0.643249 -5.48239 0
M  V30 2275 H 214.65 0.700703 -4.10158 0
M  V30 2276 H 213.526 1.35909 -5.31808 0
M  V30 2277 H 213.787 2.23193 -3.81625 0
M  V30 2278 N 212.846 1.57033 -0.133567 0
M  V30 2279 C 214.095 1.94861 0.520768 0
M  V30 2280 C 214.408 1.02012 1.66892 0
M  V30 2281 O 215.614 1.29365 2.38699 0
M  V30 2282 C 214.07 3.46362 0.977809 0
M  V30 2283 C 213.678 4.47773 -0.142674 0
M  V30 2284 C 215.422 3.93083 1.60269 0
M  V30 2285 C 213.329 5.90468 0.331883 0
M  V30 2286 H 212.259 0.727453 0.198315 0
M  V30 2287 H 214.91 1.82227 -0.215759 0
M  V30 2288 H 213.292 3.54282 1.7692 0
M  V30 2289 H 214.466 4.51536 -0.919317 0
M  V30 2290 H 212.781 4.10891 -0.675124 0
M  V30 2291 H 215.378 4.97121 1.96914 0
M  V30 2292 H 215.721 3.33876 2.48662 0
M  V30 2293 H 216.254 3.88025 0.876453 0
M  V30 2294 H 212.993 6.53463 -0.516341 0
M  V30 2295 H 212.513 5.90094 1.07469 0
M  V30 2296 H 214.192 6.42179 0.788332 0
M  V30 2297 N 214.325 -0.140222 1.56975 0
M  V30 2298 C 215.55 -0.870414 1.88251 0
M  V30 2299 C 215.975 -1.73637 0.723312 0
M  V30 2300 O 215.333 -1.78329 -0.32689 0
M  V30 2301 C 215.381 -1.69737 3.18154 0
M  V30 2302 O 214.485 -2.80229 3.02565 0
M  V30 2303 H 213.826 -0.242025 0.61832 0
M  V30 2304 H 216.356 -0.128999 2.04193 0
M  V30 2305 H 216.366 -2.09099 3.50345 0
M  V30 2306 H 215.041 -1.06152 4.02125 0
M  V30 2307 H 213.618 -2.44224 2.81796 0
M  V30 2308 N 215.803 -1.52179 -0.40978 0
M  V30 2309 C 217.052 -1.65434 -1.15388 0
M  V30 2310 C 217.365 -0.390056 -1.91671 0
M  V30 2311 O 218.571 -0.402399 -2.68501 0
M  V30 2312 C 217.027 -2.92279 -2.10003 0
M  V30 2313 C 216.635 -4.25813 -1.39239 0
M  V30 2314 C 218.379 -3.14897 -2.84675 0
M  V30 2315 C 216.286 -5.43782 -2.32498 0
M  V30 2316 H 215.216 -0.616267 -0.434432 0
M  V30 2317 H 217.867 -1.78666 -0.418401 0
M  V30 2318 H 216.249 -2.72744 -2.871 0
M  V30 2319 H 217.423 -4.55828 -0.675099 0
M  V30 2320 H 215.738 -4.09292 -0.766097 0
M  V30 2321 H 218.335 -4.0021 -3.54593 0
M  V30 2322 H 218.678 -2.29103 -3.47588 0
M  V30 2323 H 219.211 -3.34901 -2.14677 0
M  V30 2324 H 215.95 -6.3192 -1.74233 0
M  V30 2325 H 215.47 -5.18106 -3.02201 0
M  V30 2326 H 217.149 -5.76834 -2.93038 0
M  V30 2327 N 217.281 0.66697 -1.42791 0
M  V30 2328 C 218.509 1.45505 -1.47091 0
M  V30 2329 C 218.924 1.8861 -0.0845873 0
M  V30 2330 O 218.281 1.58632 0.90234 0
M  V30 2331 C 218.332 2.69906 -2.40485 0
M  V30 2332 O 218.053 2.28608 -3.73725 0
M  V30 2333 C 219.554 3.63396 -2.53886 0
M  V30 2334 H 216.774 0.447459 -0.500022 0
M  V30 2335 H 219.318 0.818866 -1.8739 0
M  V30 2336 H 217.473 3.29696 -2.03419 0
M  V30 2337 H 217.887 3.08997 -4.23817 0
M  V30 2338 H 219.361 4.47387 -3.2334 0
M  V30 2339 H 219.838 4.09824 -1.57927 0
M  V30 2340 H 220.444 3.09495 -2.91706 0
M  V30 2341 N 218.759 1.29093 0.90403 0
M  V30 2342 C 219.689 1.16401 2.02418 0
M  V30 2343 C 220.67 0.0593085 1.69997 0
M  V30 2344 O 221.855 0.238021 1.92736 0
M  V30 2345 C 218.985 0.835233 3.37107 0
M  V30 2346 C 217.939 1.89578 3.83724 0
M  V30 2347 C 217.265 1.42041 5.15489 0
M  V30 2348 C 218.565 3.30394 4.04521 0
M  V30 2349 H 220.259 2.10109 2.13295 0
M  V30 2350 H 217.805 1.01157 1.02486 0
M  V30 2351 H 219.758 0.733169 4.14973 0
M  V30 2352 H 218.482 -0.137543 3.2631 0
M  V30 2353 H 217.141 1.98715 3.08071 0
M  V30 2354 H 216.789 0.436426 5.01103 0
M  V30 2355 H 216.489 2.12964 5.4765 0
M  V30 2356 H 218.013 1.33176 5.959 0
M  V30 2357 H 219.427 3.24123 4.72882 0
M  V30 2358 H 217.824 3.99237 4.48029 0
M  V30 2359 H 218.894 3.73692 3.09002 0
M  V30 2360 N 220.237 -1.11381 1.11499 0
M  V30 2361 C 221.462 -1.87475 0.887019 0
M  V30 2362 C 221.887 -1.79639 -0.557796 0
M  V30 2363 O 221.245 -1.15924 -1.39396 0
M  V30 2364 C 221.293 -3.34213 1.35403 0
M  V30 2365 O 220.397 -4.0903 0.526146 0
M  V30 2366 H 219.738 -0.582099 0.319463 0
M  V30 2367 H 222.268 -1.40785 1.48461 0
M  V30 2368 H 222.278 -3.8506 1.34881 0
M  V30 2369 H 220.953 -3.39232 2.40612 0
M  V30 2370 H 219.53 -3.68082 0.597522 0
M  V30 2371 N 221.715 -0.905404 -1.28997 0
M  V30 2372 C 222.962 -0.534248 -1.95325 0
M  V30 2373 C 223.29 0.920535 -1.71337 0
M  V30 2374 O 222.545 1.66861 -1.02254 0
M  V30 2375 C 222.844 -0.779906 -3.48787 0
M  V30 2376 C 222.51 -2.21293 -3.92861 0
M  V30 2377 C 221.172 -2.60475 -4.04606 0
M  V30 2378 C 223.524 -3.14587 -4.15553 0
M  V30 2379 C 220.852 -3.9212 -4.36416 0
M  V30 2380 C 223.204 -4.45787 -4.48839 0
M  V30 2381 C 221.868 -4.84834 -4.58794 0
M  V30 2382 H 221.138 -0.195495 -0.714747 0
M  V30 2383 H 223.785 -1.14514 -1.53488 0
M  V30 2384 H 222.09 -0.0861365 -3.91705 0
M  V30 2385 H 223.787 -0.472029 -3.98212 0
M  V30 2386 H 220.377 -1.89887 -3.84241 0
M  V30 2387 H 224.561 -2.85528 -4.0594 0
M  V30 2388 H 219.817 -4.22086 -4.42327 0
M  V30 2389 H 223.991 -5.18098 -4.65346 0
M  V30 2390 H 221.618 -5.86877 -4.83197 0
M  V30 2391 N 223.193 1.4272 -0.668489 0
M  V30 2392 C 224.123 2.335 -0.000100175 0
M  V30 2393 C 225.104 1.50328 0.795964 0
M  V30 2394 O 226.289 1.78949 0.754385 0
M  V30 2395 C 223.419 3.33874 0.956302 0
M  V30 2396 C 222.373 4.27152 0.269278 0
M  V30 2397 C 221.699 5.17684 1.33818 0
M  V30 2398 C 222.999 5.15373 -0.847805 0
M  V30 2399 H 224.693 2.89639 -0.758244 0
M  V30 2400 H 222.239 1.39269 -0.366079 0
M  V30 2401 H 224.192 3.9629 1.43292 0
M  V30 2402 H 222.916 2.76025 1.74579 0
M  V30 2403 H 221.575 3.66123 -0.187042 0
M  V30 2404 H 221.223 4.56165 2.1195 0
M  V30 2405 H 220.923 5.80918 0.883659 0
M  V30 2406 H 222.447 5.82974 1.81586 0
M  V30 2407 H 223.861 5.7151 -0.452681 0
M  V30 2408 H 222.258 5.87407 -1.22773 0
M  V30 2409 H 223.328 4.5415 -1.69929 0
M  V30 2410 N 224.671 0.411399 1.52136 0
M  V30 2411 C 225.896 -0.165538 2.06738 0
M  V30 2412 C 226.321 -1.379 1.27926 0
M  V30 2413 O 225.679 -1.78628 0.310114 0
M  V30 2414 C 225.727 -0.492124 3.57226 0
M  V30 2415 O 224.831 -1.58276 3.80818 0
M  V30 2416 H 224.172 -0.0132132 0.663869 0
M  V30 2417 H 226.702 0.585253 1.96051 0
M  V30 2418 H 226.712 -0.750104 4.01045 0
M  V30 2419 H 225.387 0.394922 4.14021 0
M  V30 2420 H 223.964 -1.31677 3.48877 0
M  V30 2421 N 226.149 -1.5696 0.141893 0
M  V30 2422 C 227.398 -1.95135 -0.510427 0
M  V30 2423 C 227.711 -1.02896 -1.66348 0
M  V30 2424 O 228.917 -1.30629 -2.38009 0
M  V30 2425 C 227.373 -3.46876 -0.959427 0
M  V30 2426 C 226.981 -4.47691 0.166419 0
M  V30 2427 C 228.725 -3.93927 -1.58183 0
M  V30 2428 C 226.632 -5.90636 -0.300565 0
M  V30 2429 H 225.562 -0.728494 -0.194454 0
M  V30 2430 H 228.213 -1.8211 0.22542 0
M  V30 2431 H 226.595 -3.55215 -1.75038 0
M  V30 2432 H 227.769 -4.51043 0.94325 0
M  V30 2433 H 226.084 -4.10527 0.696905 0
M  V30 2434 H 228.681 -4.98158 -1.94275 0
M  V30 2435 H 229.024 -3.3519 -2.46888 0
M  V30 2436 H 229.557 -3.88484 -0.855863 0
M  V30 2437 H 226.296 -6.5318 0.550989 0
M  V30 2438 H 225.816 -5.90655 -1.04338 0
M  V30 2439 H 227.495 -6.42588 -0.754265 0
M  V30 2440 N 227.627 0.131896 -1.57047 0
M  V30 2441 C 228.577 1.1679 -1.95816 0
M  V30 2442 C 229.561 1.37756 -0.831393 0
M  V30 2443 O 230.753 1.39065 -1.09499 0
M  V30 2444 C 227.882 2.49778 -2.35512 0
M  V30 2445 C 226.968 2.32342 -3.54793 0
M  V30 2446 N 227.359 1.8469 -4.70875 0
M  V30 2447 C 225.657 2.63043 -3.60173 0
M  V30 2448 C 226.358 1.80656 -5.52936 0
M  V30 2449 N 225.334 2.24528 -4.95064 0
M  V30 2450 H 229.136 0.791818 -2.83033 0
M  V30 2451 H 226.65 0.339791 -1.58805 0
M  V30 2452 H 228.647 3.24692 -2.61498 0
M  V30 2453 H 227.307 2.88156 -1.49654 0
M  V30 2454 H 228.318 1.54429 -4.9434 0
M  V30 2455 H 224.995 3.05193 -2.84892 0
M  V30 2456 H 226.385 1.45178 -6.56028 0
M  V30 2457 N 229.106 1.52395 0.401703 0
M  V30 2458 C 230.036 1.79231 1.49661 0
M  V30 2459 C 231.017 0.643654 1.57452 0
M  V30 2460 O 232.202 0.889989 1.72606 0
M  V30 2461 C 229.332 1.94971 2.87409 0
M  V30 2462 C 228.286 3.10604 2.94465 0
M  V30 2463 C 227.612 3.11577 4.34538 0
M  V30 2464 C 228.912 4.49921 2.6527 0
M  V30 2465 H 230.606 2.70917 1.27454 0
M  V30 2466 H 228.152 1.30362 0.6117 0
M  V30 2467 H 230.105 2.12328 3.63999 0
M  V30 2468 H 228.829 0.999632 3.10926 0
M  V30 2469 H 227.488 2.93009 2.20321 0
M  V30 2470 H 227.136 2.14277 4.55076 0
M  V30 2471 H 226.836 3.89247 4.40183 0
M  V30 2472 H 228.36 3.31073 5.13053 0
M  V30 2473 H 229.774 4.67683 3.31581 0
M  V30 2474 H 228.171 5.29564 2.82281 0
M  V30 2475 H 229.241 4.57507 1.60671 0
M  V30 2476 N 230.584 -0.659388 1.43143 0
M  V30 2477 C 231.832 -1.41654 1.44147 0
M  V30 2478 C 232.153 -1.94893 0.0645739 0
M  V30 2479 O 231.423 -1.74044 -0.899198 0
M  V30 2480 H 230.003 -0.525708 0.530697 0
M  V30 2481 H 232.665 -0.778097 1.78694 0
M  V30 2482 H 231.761 -2.26195 2.1504 0
M  V30 2483 N 232.062 -1.29571 -0.897171 0
M  V30 2484 C 233.308 -1.18873 -1.65048 0
M  V30 2485 C 233.663 0.256707 -1.9068 0
M  V30 2486 O 232.956 1.18202 -1.50794 0
M  V30 2487 C 233.15 -1.9382 -3.00281 0
M  V30 2488 C 232.979 -3.45503 -2.8785 0
M  V30 2489 C 231.749 -4.14856 -2.88483 0
M  V30 2490 C 233.947 -4.40956 -2.64693 0
M  V30 2491 N 231.929 -5.52886 -2.66815 0
M  V30 2492 C 233.3 -5.66464 -2.5203 0
M  V30 2493 C 235.355 -4.3069 -2.49821 0
M  V30 2494 C 234.058 -6.82871 -2.26008 0
M  V30 2495 C 236.084 -5.46852 -2.25182 0
M  V30 2496 C 235.446 -6.71333 -2.13286 0
M  V30 2497 H 231.545 -0.489998 -0.609447 0
M  V30 2498 H 234.129 -1.63431 -1.05822 0
M  V30 2499 H 232.3 -1.51671 -3.57562 0
M  V30 2500 H 234.032 -1.75366 -3.64731 0
M  V30 2501 H 230.787 -3.66579 -2.99861 0
M  V30 2502 H 231.211 -6.25487 -2.59027 0
M  V30 2503 H 235.853 -3.35141 -2.5776 0
M  V30 2504 H 233.571 -7.78473 -2.16806 0
M  V30 2505 H 237.157 -5.40809 -2.14515 0
M  V30 2506 H 236.037 -7.59701 -1.94485 0
M  V30 2507 N 233.54 1.10788 -1.12088 0
M  V30 2508 C 234.488 2.19111 -0.780587 0
M  V30 2509 C 235.482 1.67818 0.230961 0
M  V30 2510 O 236.688 1.79777 0.0895427 0
M  V30 2511 H 233.063 0.714477 -0.234578 0
M  V30 2512 H 235.034 2.45055 -1.70266 0
M  V30 2513 C 233.783 3.46818 -0.24747 0
M  V30 2514 H 233.106 3.86646 -1.01712 0
M  V30 2515 H 234.546 4.23973 -0.0476291 0
M  V30 2516 C 233.005 3.20968 1.02378 0
M  V30 2517 O 233.535 3.42298 2.10226 0
M  V30 2518 N 231.741 2.74658 0.949271 0
M  V30 2519 H 231.288 2.57501 0.0715173 0
M  V30 2520 H 231.246 2.57739 1.80049 0
M  V30 2521 N 235.018 0.912232 1.28515 0
M  V30 2522 C 236.243 0.559774 1.99703 0
M  V30 2523 C 236.668 -0.851393 1.67729 0
M  V30 2524 O 236.026 -1.56875 0.908834 0
M  V30 2525 C 236.074 0.773874 3.52198 0
M  V30 2526 O 235.178 -0.167842 4.12058 0
M  V30 2527 H 234.519 0.21723 0.627461 0
M  V30 2528 H 237.049 1.22725 1.63706 0
M  V30 2529 H 237.059 0.683386 4.02236 0
M  V30 2530 H 235.734 1.80261 3.74805 0
M  V30 2531 H 234.311 -0.0287509 3.72889 0
M  V30 2532 N 236.496 -1.42363 0.676048 0
M  V30 2533 C 237.912 -1.55811 0.345718 0
M  V30 2534 C 238.112 -1.65544 -1.14879 0
M  V30 2535 O 237.168 -1.62306 -1.93424 0
M  V30 2536 C 238.481 -2.80746 1.07713 0
M  V30 2537 C 240.029 -2.9452 1.05958 0
M  V30 2538 C 240.504 -4.22318 1.77233 0
M  V30 2539 N 241.995 -4.29233 1.74108 0
M  V30 2540 C 242.73 -5.26935 2.26113 0
M  V30 2541 N 242.226 -6.30783 2.86505 0
M  V30 2542 N 244.019 -5.18741 2.1648 0
M  V30 2543 H 236.17 -1.34289 1.6456 0
M  V30 2544 H 238.433 -0.646506 0.69335 0
M  V30 2545 H 238.139 -2.79696 2.13221 0
M  V30 2546 H 238.013 -3.71676 0.64316 0
M  V30 2547 H 240.4 -2.95097 0.0128255 0
M  V30 2548 H 240.481 -2.04817 1.53244 0
M  V30 2549 H 240.125 -4.22502 2.81877 0
M  V30 2550 H 240.055 -5.10958 1.27396 0
M  V30 2551 H 242.546 -3.54814 1.30059 0
M  V30 2552 H 242.859 -7.01691 3.23805 0
M  V30 2553 H 241.204 -6.31341 2.90575 0
M  V30 2554 H 244.395 -4.36533 1.68987 0
M  V30 2555 H 244.568 -5.94721 2.57316 0
M  V30 2556 N 237.974 -0.419461 -1.51915 0
M  V30 2557 C 238.922 0.415502 -2.28859 0
M  V30 2558 C 239.916 1.03674 -1.3397 0
M  V30 2559 O 241.122 0.973757 -1.51387 0
M  V30 2560 H 237.497 0.152786 -0.736315 0
M  V30 2561 H 239.468 -0.254531 -2.97312 0
M  V30 2562 C 238.217 1.51425 -3.12995 0
M  V30 2563 H 237.54 1.04556 -3.85886 0
M  V30 2564 H 238.98 2.07208 -3.6992 0
M  V30 2565 C 237.439 2.48745 -2.27217 0
M  V30 2566 O 237.969 3.52871 -1.9195 0
M  V30 2567 N 236.175 2.19202 -1.90785 0
M  V30 2568 H 235.722 1.34556 -2.19664 0
M  V30 2569 H 235.68 2.84561 -1.33687 0
M  V30 2570 N 239.452 1.56882 -0.150215 0
M  V30 2571 C 240.362 2.20494 0.801222 0
M  V30 2572 C 241.378 1.19019 1.26927 0
M  V30 2573 O 242.554 1.51607 1.32579 0
M  V30 2574 C 239.619 2.81659 2.02161 0
M  V30 2575 C 238.68 3.9827 1.60249 0
M  V30 2576 C 237.913 4.56508 2.7647 0
M  V30 2577 O 238.136 4.13627 3.92771 0
M  V30 2578 O 237.07 5.46719 2.51757 0
M  V30 2579 H 240.896 3.02315 0.289717 0
M  V30 2580 H 238.481 1.49202 0.0769684 0
M  V30 2581 H 240.363 3.20522 2.73576 0
M  V30 2582 H 239.038 2.02849 2.52258 0
M  V30 2583 H 237.945 3.64117 0.858477 0
M  V30 2584 H 239.278 4.78609 1.14864 0
M  V30 2585 N 240.93 -0.123565 1.57115 0
M  V30 2586 C 242.158 -0.846461 1.88793 0
M  V30 2587 C 242.573 -1.73652 0.740976 0
M  V30 2588 O 241.93 -1.80207 -0.288393 0
M  V30 2589 C 241.981 -1.6837 3.19897 0
M  V30 2590 O 241.702 -0.829477 4.30176 0
M  V30 2591 C 243.203 -2.51214 3.65248 0
M  V30 2592 H 240.423 -0.243573 0.625231 0
M  V30 2593 H 242.967 -0.109324 2.04208 0
M  V30 2594 H 241.122 -2.37364 3.06165 0
M  V30 2595 H 241.536 -1.40651 5.0529 0
M  V30 2596 H 243.01 -3.05497 4.59756 0
M  V30 2597 H 243.487 -3.28359 2.9168 0
M  V30 2598 H 244.093 -1.8747 3.81752 0
M  V30 2599 N 242.408 -1.52605 -0.393616 0
M  V30 2600 C 243.633 -1.71592 -1.16495 0
M  V30 2601 C 244.058 -0.43133 -1.83088 0
M  V30 2602 O 243.416 0.612523 -1.7064 0
M  V30 2603 C 243.464 -2.86318 -2.19213 0
M  V30 2604 O 242.568 -2.52969 -3.257 0
M  V30 2605 H 241.909 -0.570734 -0.33935 0
M  V30 2606 H 244.439 -1.99377 -0.459324 0
M  V30 2607 H 244.449 -3.1168 -2.63286 0
M  V30 2608 H 243.124 -3.79511 -1.7013 0
M  V30 2609 H 241.701 -2.38332 -2.86797 0
M  V30 2610 N 243.887 0.651787 -1.4349 0
M  V30 2611 C 244.834 1.76462 -1.4876 0
M  V30 2612 C 245.804 1.62641 -0.337189 0
M  V30 2613 O 246.989 1.82864 -0.544544 0
M  V30 2614 C 244.129 3.14623 -1.41796 0
M  V30 2615 C 243.242 3.39568 -2.67053 0
M  V30 2616 C 242.377 4.67585 -2.52068 0
M  V30 2617 C 241.416 4.85639 -3.72587 0
M  V30 2618 N 240.553 6.04915 -3.56402 0
M  V30 2619 H 245.393 1.71293 -2.43849 0
M  V30 2620 H 242.93 0.835889 -1.21043 0
M  V30 2621 H 244.888 3.94496 -1.35753 0
M  V30 2622 H 243.518 3.18859 -0.50288 0
M  V30 2623 H 242.57 2.53783 -2.8337 0
M  V30 2624 H 243.882 3.48795 -3.56572 0
M  V30 2625 H 243.036 5.55586 -2.4374 0
M  V30 2626 H 241.775 4.60681 -1.60075 0
M  V30 2627 H 240.78 3.96073 -3.81321 0
M  V30 2628 H 242.005 4.94372 -4.65589 0
M  V30 2629 H 239.951 5.9914 -2.67146 0
M  V30 2630 H 239.868 6.15106 -4.39524 0
M  V30 2631 H 241.136 6.95533 -3.51929 0
M  V30 2632 N 245.365 1.30045 0.890287 0
M  V30 2633 C 246.613 1.18327 1.63839 0
M  V30 2634 C 246.934 -0.263455 1.93212 0
M  V30 2635 O 246.204 -1.17856 1.56482 0
M  V30 2636 H 244.784 0.434933 0.607324 0
M  V30 2637 H 247.446 1.631 1.06698 0
M  V30 2638 H 246.542 1.74024 2.59079 0
M  V30 2639 N 246.843 -1.10192 1.12674 0
M  V30 2640 C 247.791 -2.18694 0.792196 0
M  V30 2641 C 248.785 -1.67938 -0.222058 0
M  V30 2642 O 249.991 -1.79822 -0.0800074 0
M  V30 2643 H 246.366 -0.713223 0.238364 0
M  V30 2644 H 248.337 -2.44149 1.71564 0
M  V30 2645 C 247.086 -3.46682 0.265859 0
M  V30 2646 H 246.409 -3.86101 1.03761 0
M  V30 2647 H 247.849 -4.23942 0.0701128 0
M  V30 2648 C 246.308 -3.21506 -1.00675 0
M  V30 2649 O 246.838 -3.43408 -2.08408 0
M  V30 2650 N 245.044 -2.75158 -0.934692 0
M  V30 2651 H 244.591 -2.57535 -0.0578604 0
M  V30 2652 H 244.549 -2.58691 -1.7868 0
M  V30 2653 N 248.321 -0.919034 -1.28029 0
M  V30 2654 C 249.271 -0.382574 -2.24767 0
M  V30 2655 C 250.255 0.508286 -1.52661 0
M  V30 2656 O 251.447 0.347145 -1.73562 0
M  V30 2657 C 248.576 0.371432 -3.41285 0
M  V30 2658 C 247.662 -0.535449 -4.20706 0
M  V30 2659 N 248.053 -1.65141 -4.78082 0
M  V30 2660 C 246.351 -0.336824 -4.44726 0
M  V30 2661 C 247.052 -2.21475 -5.37888 0
M  V30 2662 N 246.028 -1.50537 -5.22341 0
M  V30 2663 H 249.83 -1.23477 -2.66703 0
M  V30 2664 H 247.344 -0.772299 -1.42861 0
M  V30 2665 H 249.341 0.772638 -4.09678 0
M  V30 2666 H 248.001 1.22066 -3.00882 0
M  V30 2667 H 249.012 -2.03392 -4.7629 0
M  V30 2668 H 245.689 0.47246 -4.14818 0
M  V30 2669 H 247.079 -3.15379 -5.93284 0
M  V30 2670 N 249.799 1.42003 -0.683588 0
M  V30 2671 C 251.027 2.05746 -0.218182 0
M  V30 2672 C 251.442 1.51396 1.12804 0
M  V30 2673 O 250.799 0.657303 1.70252 0
M  V30 2674 C 250.85 3.61171 -0.154131 0
M  V30 2675 O 250.571 4.13508 -1.44716 0
M  V30 2676 C 252.072 4.42042 0.333713 0
M  V30 2677 H 249.292 0.662888 -0.10402 0
M  V30 2678 H 251.836 1.81987 -0.9328 0
M  V30 2679 H 249.991 3.84012 0.511231 0
M  V30 2680 H 250.405 5.07453 -1.32632 0
M  V30 2681 H 251.879 5.51028 0.327423 0
M  V30 2682 H 252.356 4.17269 1.37053 0
M  V30 2683 H 252.962 4.24239 -0.300222 0
M  V30 2684 N 251.277 0.427512 1.51691 0
M  V30 2685 C 252.505 -0.141191 2.06418 0
M  V30 2686 C 252.92 -1.37303 1.29589 0
M  V30 2687 O 252.277 -1.79059 0.352732 0
M  V30 2688 C 252.328 -0.473266 3.58389 0
M  V30 2689 O 252.049 0.709673 4.32314 0
M  V30 2690 C 253.55 -1.09371 4.29596 0
M  V30 2691 H 250.77 -0.0122747 0.670888 0
M  V30 2692 H 253.314 0.603764 1.95384 0
M  V30 2693 H 251.469 -1.16812 3.69369 0
M  V30 2694 H 251.883 0.42807 5.2275 0
M  V30 2695 H 253.357 -1.27613 5.37046 0
M  V30 2696 H 253.834 -2.072 3.87253 0
M  V30 2697 H 254.44 -0.43853 4.23033 0
M  V30 2698 N 252.755 -1.56801 0.158532 0
M  V30 2699 C 253.98 -2.01295 -0.499516 0
M  V30 2700 C 254.405 -1.03799 -1.56867 0
M  V30 2701 O 253.763 -0.0155162 -1.81293 0
M  V30 2702 C 253.811 -3.44469 -1.06647 0
M  V30 2703 O 252.915 -3.50012 -2.18095 0
M  V30 2704 H 252.256 -0.652884 -0.12099 0
M  V30 2705 H 254.786 -2.02958 0.258661 0
M  V30 2706 H 254.796 -3.8351 -1.39227 0
M  V30 2707 H 253.471 -4.14932 -0.283581 0
M  V30 2708 H 252.048 -3.22822 -1.86656 0
M  V30 2709 N 254.233 0.115231 -1.57178 0
M  V30 2710 C 255.18 1.14115 -2.00615 0
M  V30 2711 C 256.15 1.40939 -0.878941 0
M  V30 2712 O 257.335 1.52741 -1.14345 0
M  V30 2713 C 254.475 2.46156 -2.4187 0
M  V30 2714 C 253.588 2.26236 -3.68024 0
M  V30 2715 C 252.723 3.51534 -3.98243 0
M  V30 2716 C 251.762 3.26787 -5.17568 0
M  V30 2717 N 250.899 4.44298 -5.43639 0
M  V30 2718 H 255.739 0.763743 -2.88047 0
M  V30 2719 H 253.276 0.365615 -1.42484 0
M  V30 2720 H 255.234 3.23189 -2.63827 0
M  V30 2721 H 253.864 2.81783 -1.57475 0
M  V30 2722 H 252.916 1.40102 -3.5366 0
M  V30 2723 H 254.228 2.03929 -4.55208 0
M  V30 2724 H 253.382 4.36984 -4.20868 0
M  V30 2725 H 252.121 3.76876 -3.09541 0
M  V30 2726 H 251.126 2.39729 -4.94783 0
M  V30 2727 H 252.351 3.02812 -6.0785 0
M  V30 2728 H 250.297 4.69754 -4.57895 0
M  V30 2729 H 250.214 4.25109 -6.25154 0
M  V30 2730 H 251.482 5.3087 -5.70786 0
M  V30 2731 N 255.711 1.52812 0.385517 0
M  V30 2732 C 256.951 1.69716 1.13911 0
M  V30 2733 C 257.315 0.42962 1.87132 0
M  V30 2734 O 258.516 0.475071 2.64569 0
M  V30 2735 C 256.787 2.90021 2.0886 0
M  V30 2736 S 258.346 3.27531 2.92009 0
M  V30 2737 H 255.164 0.59739 0.385547 0
M  V30 2738 H 257.766 1.90868 0.423061 0
M  V30 2739 H 256.47 3.80493 1.53797 0
M  V30 2740 H 256.001 2.71213 2.84969 0
M  V30 2741 H 258.016 2.77989 4.11019 0
M  V30 2742 N 257.189 -0.644168 1.43834 0
M  V30 2743 C 258.136 -1.75671 1.49694 0
M  V30 2744 C 259.106 -1.6246 0.345809 0
M  V30 2745 O 260.291 -1.82573 0.554234 0
M  V30 2746 C 257.431 -3.13867 1.43463 0
M  V30 2747 C 256.544 -3.38147 2.6885 0
M  V30 2748 C 255.679 -4.66241 2.54544 0
M  V30 2749 C 254.718 -4.83657 3.75157 0
M  V30 2750 N 253.855 -6.03016 3.59605 0
M  V30 2751 H 258.695 -1.69998 2.44754 0
M  V30 2752 H 256.232 -0.829458 1.21484 0
M  V30 2753 H 258.19 -3.9377 1.37843 0
M  V30 2754 H 256.82 -3.18588 0.519783 0
M  V30 2755 H 255.872 -2.52276 2.84712 0
M  V30 2756 H 257.184 -3.46899 3.58417 0
M  V30 2757 H 256.338 -5.54285 2.46683 0
M  V30 2758 H 255.077 -4.59826 1.62516 0
M  V30 2759 H 254.082 -3.94046 3.83416 0
M  V30 2760 H 255.307 -4.91896 4.68204 0
M  V30 2761 H 253.253 -5.97715 2.7032 0
M  V30 2762 H 253.17 -6.12766 4.42779 0
M  V30 2763 H 254.438 -6.93657 3.55613 0
M  V30 2764 N 258.668 -1.30515 -0.883378 0
M  V30 2765 C 259.914 -1.19607 -1.63774 0
M  V30 2766 C 260.247 0.248314 -1.92606 0
M  V30 2767 O 259.522 1.17742 -1.54813 0
M  V30 2768 C 259.805 -2.02669 -2.97653 0
M  V30 2769 C 259.658 -3.55335 -2.75784 0
M  V30 2770 C 260.977 -1.86573 -3.98596 0
M  V30 2771 H 258.096 -0.435856 -0.594305 0
M  V30 2772 H 260.738 -1.60165 -1.02212 0
M  V30 2773 H 258.888 -1.68208 -3.50197 0
M  V30 2774 H 260.56 -3.99863 -2.30016 0
M  V30 2775 H 258.803 -3.79438 -2.1026 0
M  V30 2776 H 259.474 -4.08745 -3.70988 0
M  V30 2777 H 261.95 -2.16703 -3.55217 0
M  V30 2778 H 260.826 -2.47014 -4.90179 0
M  V30 2779 H 261.087 -0.825321 -4.34328 0
M  V30 2780 N 260.146 1.09593 -1.13257 0
M  V30 2781 C 261.078 2.16015 -0.766167 0
M  V30 2782 C 262.091 1.61423 0.211303 0
M  V30 2783 O 263.28 1.78498 -0.00863946 0
M  V30 2784 C 260.38 3.38706 -0.114662 0
M  V30 2785 C 259.553 4.22717 -1.12379 0
M  V30 2786 C 258.612 5.23835 -0.498301 0
M  V30 2787 O 257.638 5.573 -1.15781 0
M  V30 2788 N 258.84 5.75886 0.730417 0
M  V30 2789 H 261.605 2.48055 -1.68193 0
M  V30 2790 H 259.166 1.25292 -1.02535 0
M  V30 2791 H 261.158 4.03464 0.315991 0
M  V30 2792 H 259.728 3.04569 0.704011 0
M  V30 2793 H 258.948 3.54122 -1.73179 0
M  V30 2794 H 260.236 4.75673 -1.80589 0
M  V30 2795 H 259.634 5.50911 1.28504 0
M  V30 2796 H 258.191 6.42387 1.10376 0
M  V30 2797 N 261.624 0.925811 1.2754 0
M  V30 2798 C 262.87 0.566092 1.94739 0
M  V30 2799 C 263.203 -0.890057 1.72603 0
M  V30 2800 O 262.478 -1.63467 1.05399 0
M  V30 2801 C 262.761 0.89054 3.48915 0
M  V30 2802 C 262.614 2.4003 3.80402 0
M  V30 2803 C 263.933 0.395101 4.38323 0
M  V30 2804 H 261.052 0.20714 0.707292 0
M  V30 2805 H 263.694 1.15725 1.50691 0
M  V30 2806 H 261.844 0.387452 3.86563 0
M  V30 2807 H 263.516 2.97494 3.52555 0
M  V30 2808 H 261.759 2.85028 3.2702 0
M  V30 2809 H 262.43 2.57785 4.8811 0
M  V30 2810 H 264.906 0.826241 4.07814 0
M  V30 2811 H 263.782 0.651086 5.45025 0
M  V30 2812 H 264.043 -0.704798 4.36446 0
M  V30 2813 N 263.102 -1.41638 0.69111 0
M  V30 2814 C 264.05 -2.32597 0.0115199 0
M  V30 2815 C 265.044 -1.5072 -0.773296 0
M  V30 2816 O 266.25 -1.66685 -0.67942 0
M  V30 2817 H 262.625 -0.751849 -0.0150746 0
M  V30 2818 H 264.596 -2.87593 0.795791 0
M  V30 2819 C 263.345 -3.35467 -0.914172 0
M  V30 2820 H 262.668 -3.9852 -0.319687 0
M  V30 2821 H 264.108 -4.01662 -1.35808 0
M  V30 2822 C 262.567 -2.69004 -2.02826 0
M  V30 2823 O 263.097 -2.53444 -3.11655 0
M  V30 2824 N 261.303 -2.2777 -1.80469 0
M  V30 2825 H 260.85 -2.40626 -0.919615 0
M  V30 2826 H 260.808 -1.83635 -2.55197 0
M  V30 2827 N 264.58 -0.43555 -1.51462 0
M  V30 2828 C 265.49 0.383001 -2.31453 0
M  V30 2829 C 266.506 1.02931 -1.4029 0
M  V30 2830 O 267.682 1.02507 -1.73362 0
M  V30 2831 C 264.747 1.47043 -3.13973 0
M  V30 2832 C 263.808 0.844433 -4.20913 0
M  V30 2833 C 263.041 1.88004 -4.9949 0
M  V30 2834 O 263.264 3.10199 -4.78678 0
M  V30 2835 O 262.198 1.47157 -5.83634 0
M  V30 2836 H 266.024 -0.269964 -3.02498 0
M  V30 2837 H 263.609 -0.19813 -1.4808 0
M  V30 2838 H 265.491 2.10113 -3.65281 0
M  V30 2839 H 264.166 2.10751 -2.45695 0
M  V30 2840 H 263.073 0.175729 -3.73687 0
M  V30 2841 H 264.406 0.250869 -4.9156 0
M  V30 2842 N 266.058 1.56714 -0.166846 0
M  V30 2843 C 267.304 1.97039 0.479962 0
M  V30 2844 C 267.637 1.05264 1.63197 0
M  V30 2845 O 266.912 0.0988833 1.94248 0
M  V30 2846 C 267.195 3.46867 0.967212 0
M  V30 2847 C 267.048 4.49421 -0.18466 0
M  V30 2848 C 268.367 3.9968 1.84238 0
M  V30 2849 H 265.486 0.71641 0.172992 0
M  V30 2850 H 268.128 1.8832 -0.252079 0
M  V30 2851 H 266.278 3.54428 1.59101 0
M  V30 2852 H 267.95 4.53924 -0.821621 0
M  V30 2853 H 266.193 4.25573 -0.840837 0
M  V30 2854 H 266.864 5.51644 0.198317 0
M  V30 2855 H 269.34 3.94723 1.31655 0
M  V30 2856 H 268.216 5.04941 2.15234 0
M  V30 2857 H 268.477 3.43226 2.78654 0
M  V30 2858 N 267.536 -0.106894 1.57237 0
M  V30 2859 C 268.766 -0.825191 1.89405 0
M  V30 2860 C 269.174 -1.73374 0.757496 0
M  V30 2861 O 268.517 -1.81552 -0.280115 0
M  V30 2862 C 268.579 -1.70102 3.1671 0
M  V30 2863 C 268.243 -0.965523 4.46684 0
M  V30 2864 C 269.24 -0.300741 5.19029 0
M  V30 2865 C 266.925 -0.943105 4.93367 0
M  V30 2866 C 268.919 0.376622 6.36286 0
M  V30 2867 C 266.606 -0.261949 6.10538 0
M  V30 2868 C 267.604 0.396748 6.81847 0
M  V30 2869 O 267.292 1.06701 7.96787 0
M  V30 2870 H 267.024 -0.241852 0.631255 0
M  V30 2871 H 269.578 -0.0921491 2.05193 0
M  V30 2872 H 267.808 -2.47601 2.97036 0
M  V30 2873 H 269.497 -2.29483 3.34802 0
M  V30 2874 H 270.263 -0.309599 4.84011 0
M  V30 2875 H 266.142 -1.44524 4.3776 0
M  V30 2876 H 269.686 0.891334 6.91882 0
M  V30 2877 H 265.583 -0.250896 6.45012 0
M  V30 2878 H 266.351 0.972707 8.127 0
M  V30 2879 N 269.014 -1.53014 -0.377408 0
M  V30 2880 C 270.262 -1.6829 -1.11906 0
M  V30 2881 C 270.583 -0.431206 -1.90173 0
M  V30 2882 O 269.853 0.554595 -1.87886 0
M  V30 2883 H 268.433 -0.620371 -0.416112 0
M  V30 2884 H 271.095 -1.90167 -0.426893 0
M  V30 2885 H 270.191 -2.53862 -1.8155 0
M  V30 2886 N 270.492 0.636531 -1.44174 0
M  V30 2887 C 271.422 1.76003 -1.53444 0
M  V30 2888 C 272.403 1.65619 -0.387841 0
M  V30 2889 O 273.588 1.84461 -0.607257 0
M  V30 2890 C 270.718 3.14511 -1.4731 0
M  V30 2891 C 269.672 3.39677 -2.60391 0
M  V30 2892 C 268.998 4.78159 -2.39308 0
M  V30 2893 C 270.298 3.32772 -4.02567 0
M  V30 2894 H 271.992 1.68501 -2.47483 0
M  V30 2895 H 269.538 0.809237 -1.19111 0
M  V30 2896 H 271.491 3.92878 -1.52397 0
M  V30 2897 H 270.215 3.22783 -0.49785 0
M  V30 2898 H 268.874 2.63688 -2.54684 0
M  V30 2899 H 268.522 4.83128 -1.39988 0
M  V30 2900 H 268.222 4.95956 -3.15122 0
M  V30 2901 H 269.746 5.58762 -2.46205 0
M  V30 2902 H 271.16 4.01051 -4.09672 0
M  V30 2903 H 269.557 3.62104 -4.7854 0
M  V30 2904 H 270.627 2.30669 -4.2652 0
M  V30 2905 N 271.97 1.30982 0.876444 0
M  V30 2906 C 273.216 1.20474 1.63138 0
M  V30 2907 C 273.549 -0.238096 1.92735 0
M  V30 2908 O 272.824 -1.1692 1.55435 0
M  V30 2909 C 273.107 2.04244 2.96574 0
M  V30 2910 C 272.96 3.56793 2.73896 0
M  V30 2911 C 274.279 1.88684 3.97601 0
M  V30 2912 H 271.398 0.439001 0.591985 0
M  V30 2913 H 274.04 1.60704 1.01361 0
M  V30 2914 H 272.19 1.70063 3.493 0
M  V30 2915 H 273.862 4.01077 2.27892 0
M  V30 2916 H 272.105 3.80548 2.08245 0
M  V30 2917 H 272.776 4.10706 3.68815 0
M  V30 2918 H 275.252 2.18584 3.54062 0
M  V30 2919 H 274.128 2.4961 4.88862 0
M  V30 2920 H 274.389 0.848343 4.33884 0
M  V30 2921 N 273.449 -1.08991 1.13837 0
M  V30 2922 C 274.726 -1.77863 0.813876 0
M  V30 2923 C 275.106 -1.99375 -0.693746 0
M  V30 2924 O 274.454 -1.59875 -1.63255 0
M  V30 2925 C 274.664 -3.0986 1.60586 0
M  V30 2926 C 276.012 -3.84493 1.8014 0
M  V30 2927 O 277.036 -3.19624 1.57222 0
M  V30 2928 O 275.895 -5.00957 2.18413 0
M  V30 2929 H 272.989 -0.771589 0.297624 0
M  V30 2930 H 275.535 -1.15507 1.24323 0
M  V30 2931 H 274.307 -2.89715 2.63022 0
M  V30 2932 H 273.93 -3.79942 1.17173 0
M  V30 2933 N 274.927 -0.932562 -1.27047 0
M  V30 2934 C 276.175 -0.574422 -1.93765 0
M  V30 2935 C 276.496 0.887993 -1.73608 0
M  V30 2936 O 275.766 1.62999 -1.08665 0
M  V30 2937 H 274.346 -0.209451 -0.717035 0
M  V30 2938 H 277.008 -1.18601 -1.5466 0
M  V30 2939 H 276.104 -0.784841 -3.02071 0
M  V30 2940 N 276.405 1.4127 -0.698611 0
M  V30 2941 C 277.335 2.33447 -0.049629 0
M  V30 2942 C 278.316 1.51982 0.763898 0
M  V30 2943 O 279.501 1.80509 0.716257 0
M  V30 2944 C 276.631 3.35828 0.885267 0
M  V30 2945 C 275.585 4.27627 0.178613 0
M  V30 2946 C 274.911 5.20406 1.22807 0
M  V30 2947 C 276.211 5.13459 -0.956933 0
M  V30 2948 H 277.905 2.87966 -0.81951 0
M  V30 2949 H 275.451 1.38461 -0.395538 0
M  V30 2950 H 277.404 3.9924 1.34854 0
M  V30 2951 H 276.128 2.79666 1.68685 0
M  V30 2952 H 274.787 3.65643 -0.26466 0
M  V30 2953 H 274.435 4.60558 2.02226 0
M  V30 2954 H 274.135 5.82661 0.760239 0
M  V30 2955 H 275.659 5.86695 1.69179 0
M  V30 2956 H 277.073 5.70421 -0.573805 0
M  V30 2957 H 275.47 5.8467 -1.35205 0
M  V30 2958 H 276.54 4.50443 -1.79524 0
M  V30 2959 N 277.883 0.443576 1.51229 0
M  V30 2960 C 279.129 -0.120975 2.02439 0
M  V30 2961 C 279.462 -1.41815 1.32674 0
M  V30 2962 O 278.737 -1.89373 0.443622 0
M  V30 2963 C 279.02 -0.333291 3.58554 0
M  V30 2964 C 278.873 0.982968 4.38928 0
M  V30 2965 C 280.192 -1.10028 4.26124 0
M  V30 2966 H 277.311 -0.0424923 0.735774 0
M  V30 2967 H 279.953 0.583794 1.80809 0
M  V30 2968 H 278.103 -0.933614 3.77115 0
M  V30 2969 H 279.775 1.61775 4.32003 0
M  V30 2970 H 278.018 1.58611 4.03763 0
M  V30 2971 H 278.689 0.788379 5.46341 0
M  V30 2972 H 281.165 -0.591711 4.11871 0
M  V30 2973 H 280.041 -1.21761 5.35225 0
M  V30 2974 H 280.302 -2.12996 3.87408 0
M  V30 2975 N 279.361 -1.56624 0.175154 0
M  V30 2976 C 280.589 -2.01374 -0.474971 0
M  V30 2977 C 281.004 -1.05537 -1.56548 0
M  V30 2978 O 280.361 -0.0568668 -1.82411 0
M  V30 2979 C 280.412 -3.45923 -1.04975 0
M  V30 2980 O 280.133 -4.381 -0.00276605 0
M  V30 2981 C 281.634 -4.06093 -1.77773 0
M  V30 2982 H 278.854 -0.659962 -0.121206 0
M  V30 2983 H 281.398 -2.02601 0.27801 0
M  V30 2984 H 279.553 -3.45458 -1.75321 0
M  V30 2985 H 279.967 -5.22753 -0.427681 0
M  V30 2986 H 281.441 -5.09147 -2.13245 0
M  V30 2987 H 281.918 -3.48405 -2.67414 0
M  V30 2988 H 282.524 -4.10272 -1.12059 0
M  V30 2989 N 280.839 0.0985539 -1.57292 0
M  V30 2990 C 282.086 0.802678 -1.85912 0
M  V30 2991 C 282.414 1.78901 -0.763186 0
M  V30 2992 O 281.669 1.94178 0.243559 0
M  V30 2993 C 281.968 1.56927 -3.21105 0
M  V30 2994 C 281.634 0.725376 -4.45027 0
M  V30 2995 C 280.296 0.492726 -4.78671 0
M  V30 2996 C 282.648 0.138493 -5.21016 0
M  V30 2997 C 279.976 -0.336727 -5.85733 0
M  V30 2998 C 282.328 -0.678264 -6.28953 0
M  V30 2999 C 280.992 -0.921039 -6.61115 0
M  V30 3000 H 280.262 0.293721 -0.680301 0
M  V30 3001 H 282.909 0.0642841 -1.91392 0
M  V30 3002 H 281.214 2.37914 -3.11294 0
M  V30 3003 H 282.911 2.11841 -3.40477 0
M  V30 3004 H 279.501 0.916815 -4.18679 0
M  V30 3005 H 283.685 0.305404 -4.95359 0
M  V30 3006 H 278.941 -0.533836 -6.09065 0
M  V30 3007 H 283.115 -1.1399 -6.87007 0
M  V30 3008 H 280.742 -1.56556 -7.43905 0
M  V30 3009 N 282.317 1.53212 0.369288 0
M  V30 3010 C 283.547 1.72868 1.13139 0
M  V30 3011 C 283.955 0.455754 1.83629 0
M  V30 3012 O 283.298 -0.580861 1.74275 0
M  V30 3013 C 283.36 2.83667 2.20847 0
M  V30 3014 C 283.024 4.24142 1.70155 0
M  V30 3015 C 284.021 5.06619 1.16763 0
M  V30 3016 C 281.706 4.70539 1.7578 0
M  V30 3017 C 283.7 6.33581 0.696678 0
M  V30 3018 C 281.387 5.97481 1.28297 0
M  V30 3019 C 282.385 6.78833 0.753307 0
M  V30 3020 O 282.073 8.03393 0.285475 0
M  V30 3021 H 281.805 0.581707 0.344373 0
M  V30 3022 H 284.359 2.00736 0.435243 0
M  V30 3023 H 282.589 2.51265 2.93944 0
M  V30 3024 H 284.278 2.91536 2.82421 0
M  V30 3025 H 285.044 4.71948 1.11758 0
M  V30 3026 H 280.923 4.07293 2.15949 0
M  V30 3027 H 284.467 6.97027 0.282581 0
M  V30 3028 H 280.364 6.31651 1.32994 0
M  V30 3029 H 281.132 8.17497 0.405145 0
M  V30 3030 N 283.795 -0.628877 1.44509 0
M  V30 3031 C 284.725 -1.75187 1.54376 0
M  V30 3032 C 285.706 -1.65411 0.396618 0
M  V30 3033 O 286.891 -1.84137 0.617031 0
M  V30 3034 C 284.021 -3.13725 1.48976 0
M  V30 3035 C 282.975 -3.38291 2.62189 0
M  V30 3036 C 282.301 -4.76883 2.41841 0
M  V30 3037 C 283.601 -3.30632 4.04326 0
M  V30 3038 H 285.295 -1.67187 2.48373 0
M  V30 3039 H 282.841 -0.802909 1.19538 0
M  V30 3040 H 284.794 -3.92064 1.54478 0
M  V30 3041 H 283.518 -3.22515 0.514961 0
M  V30 3042 H 282.177 -2.62334 2.56079 0
M  V30 3043 H 281.825 -4.82378 1.42548 0
M  V30 3044 H 281.525 -4.94278 3.17747 0
M  V30 3045 H 283.049 -5.57449 2.49165 0
M  V30 3046 H 284.463 -3.98873 4.11793 0
M  V30 3047 H 282.86 -3.59561 4.80454 0
M  V30 3048 H 283.93 -2.28404 4.27738 0
M  V30 3049 N 285.273 -1.31445 -0.869486 0
M  V30 3050 C 286.684 -1.19042 -1.43826 0
M  V30 3051 C 287.035 0.202919 -1.95148 0
M  V30 3052 O 286.16 1.10071 -1.86315 0
M  V30 3053 C 286.755 -2.15499 -2.6143 0
M  V30 3054 C 285.314 -2.07028 -3.14351 0
M  V30 3055 C 284.461 -2.04701 -1.87063 0
M  V30 3056 H 287.412 -1.43489 -0.677984 0
M  V30 3057 H 287.433 -1.74488 -3.38134 0
M  V30 3058 H 286.945 -3.16899 -2.24046 0
M  V30 3059 H 285.046 -1.08825 -3.56354 0
M  V30 3060 H 285.159 -2.96157 -3.766 0
M  V30 3061 H 283.523 -1.49724 -2.06046 0
M  V30 3062 H 284.306 -3.07857 -1.51917 0
M  V30 3063 N 286.751 1.08385 -1.14413 0
M  V30 3064 C 287.681 2.17321 -0.854044 0
M  V30 3065 C 288.662 1.69024 0.191049 0
M  V30 3066 O 289.847 1.94141 0.0476779 0
M  V30 3067 C 286.977 3.45719 -0.330983 0
M  V30 3068 C 285.931 4.07409 -1.31155 0
M  V30 3069 C 285.257 5.30762 -0.64778 0
M  V30 3070 C 286.557 4.48665 -2.67388 0
M  V30 3071 H 288.251 2.41845 -1.76498 0
M  V30 3072 H 285.797 1.16233 -0.850051 0
M  V30 3073 H 287.75 4.21241 -0.115645 0
M  V30 3074 H 286.474 3.2075 0.615381 0
M  V30 3075 H 285.133 3.33919 -1.51306 0
M  V30 3076 H 284.781 5.02078 0.304398 0
M  V30 3077 H 284.481 5.72992 -1.30207 0
M  V30 3078 H 286.005 6.08998 -0.441972 0
M  V30 3079 H 287.419 5.15364 -2.51143 0
M  V30 3080 H 285.816 5.01814 -3.29093 0
M  V30 3081 H 286.886 3.60543 -3.24248 0
M  V30 3082 N 288.23 0.939286 1.26551 0
M  V30 3083 C 289.16 0.465044 2.28822 0
M  V30 3084 C 290.141 -0.480692 1.63167 0
M  V30 3085 O 291.326 -0.382955 1.90387 0
M  V30 3086 C 288.456 -0.27234 3.46231 0
M  V30 3087 C 287.41 0.58666 4.2396 0
M  V30 3088 C 286.736 -0.280573 5.33963 0
M  V30 3089 C 288.036 1.85704 4.88171 0
M  V30 3090 H 289.73 1.31979 2.68741 0
M  V30 3091 H 287.276 0.636061 1.29191 0
M  V30 3092 H 289.229 -0.615133 4.16886 0
M  V30 3093 H 287.953 -1.16121 3.0526 0
M  V30 3094 H 286.612 0.91232 3.55067 0
M  V30 3095 H 286.26 -1.16874 4.89234 0
M  V30 3096 H 285.96 0.29076 5.8688 0
M  V30 3097 H 287.484 -0.618678 6.07458 0
M  V30 3098 H 288.898 1.58161 5.51052 0
M  V30 3099 H 287.295 2.37279 5.51197 0
M  V30 3100 H 288.365 2.56957 4.11219 0
M  V30 3101 N 289.708 -1.40897 0.706093 0
M  V30 3102 C 290.957 -2.00284 0.238574 0
M  V30 3103 C 291.27 -1.56604 -1.17194 0
M  V30 3104 O 292.476 -2.08624 -1.73748 0
M  V30 3105 C 290.932 -3.57934 0.375623 0
M  V30 3106 C 290.54 -4.10591 1.79217 0
M  V30 3107 C 292.284 -4.24488 -0.0315857 0
M  V30 3108 C 290.191 -5.60712 1.88032 0
M  V30 3109 H 289.121 -0.749144 0.0854398 0
M  V30 3110 H 291.772 -1.61251 0.875813 0
M  V30 3111 H 290.154 -3.94622 -0.330042 0
M  V30 3112 H 291.328 -3.85301 2.52745 0
M  V30 3113 H 289.643 -3.56601 2.15 0
M  V30 3114 H 292.24 -5.34698 0.0136842 0
M  V30 3115 H 292.583 -4.02261 -1.072 0
M  V30 3116 H 293.116 -3.92873 0.624181 0
M  V30 3117 H 289.855 -5.87781 2.90161 0
M  V30 3118 H 289.375 -5.87896 1.18903 0
M  V30 3119 H 291.054 -6.25658 1.64805 0
M  V30 3120 N 291.186 -0.45159 -1.50991 0
M  V30 3121 C 292.119 0.398179 -2.24699 0
M  V30 3122 C 293.097 1.01276 -1.27208 0
M  V30 3123 O 294.281 1.05247 -1.56382 0
M  V30 3124 C 291.408 1.55618 -3.00833 0
M  V30 3125 C 290.454 1.0609 -4.13095 0
M  V30 3126 S 291.287 -0.00865136 -5.35499 0
M  V30 3127 C 292.443 1.15369 -6.15175 0
M  V30 3128 H 292.676 -0.227555 -2.96428 0
M  V30 3129 H 290.209 -0.236251 -1.52582 0
M  V30 3130 H 292.167 2.21997 -3.45293 0
M  V30 3131 H 290.828 2.15337 -2.28667 0
M  V30 3132 H 290.021 1.92726 -4.65696 0
M  V30 3133 H 289.623 0.47513 -3.7097 0
M  V30 3134 H 291.915 2.06925 -6.45126 0
M  V30 3135 H 292.858 0.667344 -7.04948 0
M  V30 3136 H 293.266 1.3987 -5.46897 0
M  V30 3137 N 292.664 1.56529 -0.183458 0
M  V30 3138 C 293.904 1.99141 0.460667 0
M  V30 3139 C 294.268 1.06736 1.59597 0
M  V30 3140 O 295.469 1.38538 2.30349 0
M  V30 3141 C 293.74 3.45358 0.919939 0
M  V30 3142 S 295.299 4.09999 1.56354 0
M  V30 3143 H 292.117 0.695479 0.147748 0
M  V30 3144 H 294.719 1.93429 -0.283782 0
M  V30 3145 H 293.423 4.10315 0.0834208 0
M  V30 3146 H 292.954 3.54862 1.69814 0
M  V30 3147 H 294.969 4.06046 2.85203 0
M  V30 3148 N 294.142 -0.090211 1.57342 0
M  V30 3149 C 295.391 -0.791531 1.8552 0
M  V30 3150 C 295.704 -1.79659 0.773441 0
M  V30 3151 O 296.91 -2.54616 0.942497 0
M  V30 3152 C 295.366 -1.45856 3.2902 0
M  V30 3153 C 294.974 -0.493017 4.45279 0
M  V30 3154 C 296.718 -2.14332 3.66418 0
M  V30 3155 C 294.625 -1.16491 5.79814 0
M  V30 3156 H 293.555 -0.299356 0.692027 0
M  V30 3157 H 296.206 -0.0445343 1.83446 0
M  V30 3158 H 294.588 -2.25318 3.2565 0
M  V30 3159 H 295.762 0.270464 4.60006 0
M  V30 3160 H 294.077 0.0863061 4.16311 0
M  V30 3161 H 296.674 -2.65344 4.64216 0
M  V30 3162 H 297.017 -2.93447 2.95287 0
M  V30 3163 H 297.55 -1.41724 3.71698 0
M  V30 3164 H 294.289 -0.41447 6.54188 0
M  V30 3165 H 293.809 -1.8997 5.68921 0
M  V30 3166 H 295.488 -1.69001 6.24538 0
M  V30 3167 N 295.62 -1.53406 -0.361157 0
M  V30 3168 C 296.848 -1.73717 -1.12383 0
M  V30 3169 C 297.263 -0.468161 -1.82904 0
M  V30 3170 O 296.62 0.559198 -1.73722 0
M  V30 3171 C 296.671 -2.90558 -2.15078 0
M  V30 3172 O 296.392 -4.12549 -1.47428 0
M  V30 3173 C 297.893 -3.22777 -3.03858 0
M  V30 3174 H 295.113 -0.580896 -0.335858 0
M  V30 3175 H 297.657 -2.00167 -0.418728 0
M  V30 3176 H 295.812 -2.66489 -2.8118 0
M  V30 3177 H 296.226 -4.78009 -2.15887 0
M  V30 3178 H 297.7 -4.07927 -3.71887 0
M  V30 3179 H 298.177 -2.38329 -3.68912 0
M  V30 3180 H 298.783 -3.48787 -2.43367 0
M  V30 3181 N 297.098 0.621204 -1.44841 0
M  V30 3182 C 298.328 1.40548 -1.51426 0
M  V30 3183 C 298.736 1.88673 -0.141083 0
M  V30 3184 O 298.079 1.62053 0.865128 0
M  V30 3185 C 298.141 2.65325 -2.42576 0
M  V30 3186 C 297.805 2.3893 -3.89566 0
M  V30 3187 C 298.802 2.00138 -4.79834 0
M  V30 3188 C 296.487 2.52263 -4.3436 0
M  V30 3189 C 298.481 1.75021 -6.129 0
M  V30 3190 C 296.168 2.2676 -5.67471 0
M  V30 3191 C 297.166 1.88199 -6.56559 0
M  V30 3192 O 296.854 1.62986 -7.87204 0
M  V30 3193 H 296.586 0.437122 -0.515655 0
M  V30 3194 H 299.14 0.765987 -1.90583 0
M  V30 3195 H 297.37 3.31947 -1.98364 0
M  V30 3196 H 299.059 3.27347 -2.39998 0
M  V30 3197 H 299.825 1.89386 -4.46495 0
M  V30 3198 H 295.704 2.81246 -3.65269 0
M  V30 3199 H 299.248 1.44848 -6.82396 0
M  V30 3200 H 295.145 2.37125 -6.00368 0
M  V30 3201 H 295.913 1.7715 -7.991 0
M  V30 3202 N 298.576 1.31904 0.862503 0
M  V30 3203 C 299.806 1.24817 1.64634 0
M  V30 3204 C 300.214 -0.187579 1.88268 0
M  V30 3205 O 299.557 -1.13253 1.44635 0
M  V30 3206 C 299.619 1.92996 3.03303 0
M  V30 3207 C 299.283 3.42336 3.02746 0
M  V30 3208 C 300.28 4.37956 2.80162 0
M  V30 3209 C 297.965 3.84147 3.2363 0
M  V30 3210 C 299.959 5.73361 2.78453 0
M  V30 3211 C 297.646 5.19663 3.21549 0
M  V30 3212 C 298.644 6.14081 2.98988 0
M  V30 3213 O 298.332 7.47118 2.96766 0
M  V30 3214 H 298.064 0.432222 0.519769 0
M  V30 3215 H 300.618 1.7445 1.08427 0
M  V30 3216 H 298.848 1.37922 3.61268 0
M  V30 3217 H 300.537 1.79723 3.63943 0
M  V30 3218 H 301.303 4.06981 2.63802 0
M  V30 3219 H 297.182 3.11083 3.40218 0
M  V30 3220 H 300.726 6.4703 2.60763 0
M  V30 3221 H 296.623 5.5027 3.37451 0
M  V30 3222 H 297.391 7.56382 3.12775 0
M  V30 3223 N 300.054 -1.07777 1.14986 0
M  V30 3224 C 301.47 -1.32373 0.891596 0
M  V30 3225 C 301.67 -1.9609 -0.463788 0
M  V30 3226 O 300.726 -2.21801 -1.20667 0
M  V30 3227 C 302.039 -2.21905 2.02925 0
M  V30 3228 C 303.587 -2.35367 2.06329 0
M  V30 3229 C 304.062 -3.28245 3.19405 0
M  V30 3230 N 305.553 -3.35824 3.19024 0
M  V30 3231 C 306.288 -4.07739 4.03158 0
M  V30 3232 N 305.784 -4.82306 4.97346 0
M  V30 3233 N 307.577 -4.03635 3.91197 0
M  V30 3234 H 299.728 -0.648039 2.02273 0
M  V30 3235 H 301.991 -0.348149 0.881757 0
M  V30 3236 H 301.697 -1.82342 3.0074 0
M  V30 3237 H 301.571 -3.22407 1.95789 0
M  V30 3238 H 303.958 -2.74186 1.09116 0
M  V30 3239 H 304.039 -1.34585 2.17533 0
M  V30 3240 H 303.683 -2.90146 4.16867 0
M  V30 3241 H 303.613 -4.28971 3.05437 0
M  V30 3242 H 306.104 -2.8267 2.50811 0
M  V30 3243 H 306.417 -5.34661 5.57994 0
M  V30 3244 H 304.762 -4.81337 5.01338 0
M  V30 3245 H 307.953 -3.44491 3.16928 0
M  V30 3246 H 308.126 -4.59417 4.5699 0
M  V30 3247 N 301.532 -0.945985 -1.26051 0
M  V30 3248 C 302.781 -0.591836 -1.92822 0
M  V30 3249 C 303.094 0.873956 -1.7499 0
M  V30 3250 O 304.3 1.33769 -2.36259 0
M  V30 3251 C 302.756 -1.00776 -3.45503 0
M  V30 3252 C 302.364 -2.4955 -3.7206 0
M  V30 3253 C 304.108 -0.725735 -4.1825 0
M  V30 3254 C 302.015 -2.84988 -5.18205 0
M  V30 3255 H 300.945 -0.217635 -0.721908 0
M  V30 3256 H 303.596 -1.14927 -1.43052 0
M  V30 3257 H 301.978 -0.378812 -3.94184 0
M  V30 3258 H 303.152 -3.1739 -3.34066 0
M  V30 3259 H 301.467 -2.75133 -3.12555 0
M  V30 3260 H 304.064 -0.966771 -5.25887 0
M  V30 3261 H 304.407 0.337639 -4.14929 0
M  V30 3262 H 304.94 -1.31463 -3.7545 0
M  V30 3263 H 301.679 -3.90307 -5.26631 0
M  V30 3264 H 301.199 -2.21813 -5.57278 0
M  V30 3265 H 302.878 -2.73712 -5.86252 0
M  V30 3266 N 303.011 1.40521 -0.713556 0
M  V30 3267 C 304.258 2.00923 -0.25219 0
M  V30 3268 C 304.586 1.56571 1.15395 0
M  V30 3269 O 303.841 0.775874 1.79663 0
M  V30 3270 C 304.14 3.56317 -0.278 0
M  V30 3271 C 303.806 4.20246 -1.63415 0
M  V30 3272 C 302.468 4.37422 -2.00538 0
M  V30 3273 C 304.82 4.55923 -2.52554 0
M  V30 3274 C 302.148 4.87558 -3.2635 0
M  V30 3275 C 304.5 5.07458 -3.77716 0
M  V30 3276 C 303.164 5.22843 -4.14959 0
M  V30 3277 H 302.434 0.735231 -0.0922829 0
M  V30 3278 H 305.081 1.68161 -0.916188 0
M  V30 3279 H 303.386 3.88976 0.469567 0
M  V30 3280 H 305.083 4.00883 0.0967819 0
M  V30 3281 H 301.673 4.07263 -1.33546 0
M  V30 3282 H 305.857 4.42291 -2.25149 0
M  V30 3283 H 301.113 4.97654 -3.55176 0
M  V30 3284 H 305.287 5.34041 -4.4696 0
M  V30 3285 H 302.914 5.61454 -5.12516 0
M  V30 3286 N 304.489 0.459591 1.5075 0
M  V30 3287 C 305.436 -0.340524 2.28274 0
M  V30 3288 C 306.406 -0.997371 1.32822 0
M  V30 3289 O 307.591 -1.01202 1.61749 0
M  V30 3290 C 304.731 -1.42317 3.14388 0
M  V30 3291 C 303.844 -0.782251 4.24859 0
M  V30 3292 C 302.979 -1.84182 4.98247 0
M  V30 3293 C 302.018 -1.18053 6.00608 0
M  V30 3294 N 301.155 -2.18244 6.67319 0
M  V30 3295 H 305.995 0.326899 2.96202 0
M  V30 3296 H 303.532 0.173057 1.46078 0
M  V30 3297 H 305.49 -2.06241 3.62658 0
M  V30 3298 H 304.12 -2.05992 2.4853 0
M  V30 3299 H 303.172 -0.0307404 3.80388 0
M  V30 3300 H 304.484 -0.259663 4.98124 0
M  V30 3301 H 303.638 -2.55714 5.50177 0
M  V30 3302 H 302.377 -2.39819 4.24662 0
M  V30 3303 H 301.382 -0.450776 5.47949 0
M  V30 3304 H 302.607 -0.631202 6.7616 0
M  V30 3305 H 300.553 -2.72919 5.96533 0
M  V30 3306 H 300.47 -1.70938 7.36421 0
M  V30 3307 H 301.738 -2.89191 7.23871 0
M  V30 3308 N 305.967 -1.56429 0.191757 0
M  V30 3309 C 307.213 -1.97777 -0.448554 0
M  V30 3310 C 307.546 -1.07847 -1.61501 0
M  V30 3311 O 306.821 -0.129774 -1.94067 0
M  V30 3312 C 307.104 -3.48362 -0.911906 0
M  V30 3313 C 306.957 -4.4907 0.256136 0
M  V30 3314 C 308.276 -4.02561 -1.77857 0
M  V30 3315 H 305.395 -0.719071 -0.161572 0
M  V30 3316 H 308.037 -1.87896 0.282007 0
M  V30 3317 H 306.187 -3.56914 -1.53442 0
M  V30 3318 H 307.859 -4.5256 0.893733 0
M  V30 3319 H 306.102 -4.24181 0.908436 0
M  V30 3320 H 306.773 -5.51889 -0.11053 0
M  V30 3321 H 309.249 -3.96767 -1.25359 0
M  V30 3322 H 308.125 -5.08301 -2.07174 0
M  V30 3323 H 308.386 -3.47616 -2.73158 0
M  V30 3324 N 307.445 0.0818655 -1.57387 0
M  V30 3325 C 308.408 1.08265 -2.02018 0
M  V30 3326 C 309.408 1.32183 -0.915664 0
M  V30 3327 O 310.598 1.28073 -1.18081 0
M  V30 3328 C 307.73 2.42871 -2.39221 0
M  V30 3329 H 308.923 0.698204 -2.91659 0
M  V30 3330 H 306.476 0.327303 -1.52835 0
M  V30 3331 H 307.211 2.86167 -1.52575 0
M  V30 3332 H 306.996 2.26855 -3.19811 0
M  V30 3333 H 308.486 3.14826 -2.74362 0
M  V30 3334 N 308.923 1.53595 0.353017 0
M  V30 3335 C 310.339 1.43648 0.695516 0
M  V30 3336 C 310.539 0.585617 1.92802 0
M  V30 3337 O 309.595 0.0729223 2.52395 0
M  V30 3338 C 310.908 2.8701 0.896991 0
M  V30 3339 C 312.456 2.96723 0.996209 0
M  V30 3340 C 312.931 4.41173 1.23007 0
M  V30 3341 N 314.422 4.44657 1.29749 0
M  V30 3342 C 315.157 5.53547 1.49577 0
M  V30 3343 N 314.653 6.72461 1.66639 0
M  V30 3344 N 316.446 5.41145 1.52048 0
M  V30 3345 H 308.597 2.07415 -0.457481 0
M  V30 3346 H 310.86 0.9372 -0.142687 0
M  V30 3347 H 310.566 3.51644 0.0629938 0
M  V30 3348 H 310.44 3.31401 1.80148 0
M  V30 3349 H 312.827 2.32235 1.82074 0
M  V30 3350 H 312.908 2.55707 0.0688331 0
M  V30 3351 H 312.552 5.06238 0.410505 0
M  V30 3352 H 312.482 4.79772 2.17086 0
M  V30 3353 H 314.973 3.58963 1.18126 0
M  V30 3354 H 315.286 7.51214 1.81378 0
M  V30 3355 H 313.631 6.75423 1.63794 0
M  V30 3356 H 316.822 4.47205 1.38294 0
M  V30 3357 H 316.995 6.26068 1.67159 0
M  V30 3358 N 310.401 -0.613514 1.45168 0
M  V30 3359 C 311.678 -1.37263 1.39349 0
M  V30 3360 C 312.058 -2.11012 0.0610848 0
M  V30 3361 O 311.406 -2.07502 -0.956825 0
M  V30 3362 C 311.616 -2.3244 2.60332 0
M  V30 3363 C 312.964 -2.9523 3.05163 0
M  V30 3364 O 313.988 -2.42762 2.60663 0
M  V30 3365 O 312.847 -3.90454 3.82372 0
M  V30 3366 H 309.941 -0.615188 0.552696 0
M  V30 3367 H 312.487 -0.637097 1.57287 0
M  V30 3368 H 311.259 -1.77164 3.48896 0
M  V30 3369 H 310.882 -3.13383 2.44698 0
M  V30 3370 N 311.879 -1.3236 -0.855495 0
M  V30 3371 C 312.811 -1.17052 -1.97057 0
M  V30 3372 C 313.824 -0.10574 -1.62456 0
M  V30 3373 O 315.013 -0.354619 -1.74942 0
M  V30 3374 C 312.113 -0.769305 -3.30053 0
M  V30 3375 C 311.286 -1.9222 -3.929 0
M  V30 3376 C 310.345 -1.50466 -5.04228 0
M  V30 3377 O 309.371 -2.21655 -5.24269 0
M  V30 3378 N 310.573 -0.400209 -5.79119 0
M  V30 3379 H 313.338 -2.13103 -2.1073 0
M  V30 3380 H 310.899 -1.24885 -1.0303 0
M  V30 3381 H 312.891 -0.472407 -4.01933 0
M  V30 3382 H 311.461 0.100025 -3.1244 0
M  V30 3383 H 310.681 -2.38563 -3.13817 0
M  V30 3384 H 311.969 -2.69403 -4.31624 0
M  V30 3385 H 311.367 0.192319 -5.65373 0
M  V30 3386 H 309.924 -0.162912 -6.51596 0
M  V30 3387 N 313.357 1.07166 -1.15556 0
M  V30 3388 C 314.32 2.12589 -0.856644 0
M  V30 3389 C 315.32 1.6015 0.14444 0
M  V30 3390 O 316.51 1.7399 -0.0854163 0
M  V30 3391 C 313.642 3.39753 -0.279405 0
M  V30 3392 H 314.835 2.40539 -1.79112 0
M  V30 3393 H 312.388 1.23086 -0.963298 0
M  V30 3394 H 313.123 3.17447 0.663174 0
M  V30 3395 H 312.908 3.79117 -1.00063 0
M  V30 3396 H 314.398 4.17507 -0.0879113 0
M  V30 3397 N 314.835 0.952656 1.25548 0
M  V30 3398 C 315.782 0.47008 2.25962 0
M  V30 3399 C 316.752 -0.476384 1.59122 0
M  V30 3400 O 317.937 -0.39007 1.8677 0
M  V30 3401 C 315.077 -0.247881 3.44209 0
M  V30 3402 C 314.19 0.735591 4.25691 0
M  V30 3403 C 313.325 -0.0047306 5.312 0
M  V30 3404 C 312.364 0.969805 6.04368 0
M  V30 3405 N 311.501 0.260486 7.01617 0
M  V30 3406 H 316.341 1.33126 2.66611 0
M  V30 3407 H 313.878 0.66765 1.31076 0
M  V30 3408 H 315.836 -0.680695 4.1161 0
M  V30 3409 H 314.466 -1.07312 3.0444 0
M  V30 3410 H 313.518 1.28689 3.57971 0
M  V30 3411 H 314.83 1.47934 4.76358 0
M  V30 3412 H 313.984 -0.496275 6.04667 0
M  V30 3413 H 312.723 -0.781282 4.81401 0
M  V30 3414 H 311.728 1.47237 5.29718 0
M  V30 3415 H 312.953 1.74655 6.56256 0
M  V30 3416 H 310.899 -0.497364 6.54112 0
M  V30 3417 H 310.816 0.943362 7.50091 0
M  V30 3418 H 312.084 -0.209587 7.79218 0
M  V30 3419 N 316.313 -1.40141 0.720998 0
M  V30 3420 C 317.729 -1.54632 0.395113 0
M  V30 3421 C 317.929 -1.69115 -1.09555 0
M  V30 3422 O 316.985 -1.68377 -1.88163 0
M  V30 3423 C 318.298 -2.77177 1.1659 0
M  V30 3424 C 319.846 -2.91 1.15274 0
M  V30 3425 C 320.321 -4.16465 1.90579 0
M  V30 3426 N 321.812 -4.23476 1.87675 0
M  V30 3427 C 322.547 -5.19475 2.42762 0
M  V30 3428 N 322.043 -6.21348 3.06428 0
M  V30 3429 N 323.836 -5.11592 2.32874 0
M  V30 3430 H 315.987 -1.28986 1.68749 0
M  V30 3431 H 318.25 -0.62412 0.713567 0
M  V30 3432 H 317.956 -2.72771 2.22011 0
M  V30 3433 H 317.83 -3.69442 0.76108 0
M  V30 3434 H 320.217 -2.94907 0.106702 0
M  V30 3435 H 320.298 -1.99838 1.59682 0
M  V30 3436 H 319.942 -4.1332 2.95176 0
M  V30 3437 H 319.872 -5.06646 1.43587 0
M  V30 3438 H 322.363 -3.50497 1.41281 0
M  V30 3439 H 322.676 -6.91034 3.45965 0
M  V30 3440 H 321.021 -6.21777 3.10514 0
M  V30 3441 H 324.212 -4.30936 1.82789 0
M  V30 3442 H 324.385 -5.86233 2.76106 0
M  V30 3443 N 317.792 -0.46758 -1.50504 0
M  V30 3444 C 319.041 0.0902868 -2.01498 0
M  V30 3445 C 319.354 1.411 -1.35463 0
M  V30 3446 O 320.56 2.0536 -1.77594 0
M  V30 3447 C 319.016 0.21142 -3.59278 0
M  V30 3448 C 318.624 -1.10065 -4.34269 0
M  V30 3449 C 320.368 0.721433 -4.18325 0
M  V30 3450 C 318.275 -0.943505 -5.83825 0
M  V30 3451 H 317.205 0.037517 -0.753066 0
M  V30 3452 H 319.856 -0.601943 -1.73346 0
M  V30 3453 H 318.238 0.967352 -3.84003 0
M  V30 3454 H 319.412 -1.86726 -4.21272 0
M  V30 3455 H 317.727 -1.5415 -3.86816 0
M  V30 3456 H 320.324 0.85598 -5.27804 0
M  V30 3457 H 320.667 1.71186 -3.79475 0
M  V30 3458 H 321.2 0.0229843 -3.97793 0
M  V30 3459 H 317.939 -1.90719 -6.27141 0
M  V30 3460 H 317.459 -0.217213 -5.99407 0
M  V30 3461 H 319.138 -0.608715 -6.4413 0
M  V30 3462 N 319.27 1.56325 -0.20005 0
M  V30 3463 C 320.218 2.20666 0.735482 0
M  V30 3464 C 321.212 1.17934 1.21605 0
M  V30 3465 O 322.418 1.36068 1.17837 0
M  V30 3466 H 318.793 0.70725 0.255542 0
M  V30 3467 H 320.764 2.9792 0.169166 0
M  V30 3468 C 319.513 2.88391 1.94232 0
M  V30 3469 H 318.836 3.67185 1.58161 0
M  V30 3470 H 320.276 3.3684 2.57517 0
M  V30 3471 C 318.735 1.89692 2.78421 0
M  V30 3472 O 319.265 1.40032 3.76502 0
M  V30 3473 N 317.471 1.57813 2.44015 0
M  V30 3474 H 317.018 1.9839 1.64314 0
M  V30 3475 H 316.976 0.920325 3.00628 0
M  V30 3476 N 320.748 -0.0735177 1.57428 0
M  V30 3477 C 321.698 -1.09442 2.00016 0
M  V30 3478 C 322.682 -1.34575 0.881947 0
M  V30 3479 O 323.874 -1.34905 1.14585 0
M  V30 3480 C 321.003 -2.40865 2.4462 0
M  V30 3481 C 320.089 -2.19014 3.63172 0
M  V30 3482 N 320.48 -1.67087 4.77405 0
M  V30 3483 C 318.778 -2.49494 3.69688 0
M  V30 3484 C 319.479 -1.6001 5.5926 0
M  V30 3485 N 318.455 -2.05999 5.03056 0
M  V30 3486 H 322.257 -0.686227 2.85776 0
M  V30 3487 H 319.771 -0.280617 1.59957 0
M  V30 3488 H 321.768 -3.14763 2.73368 0
M  V30 3489 H 320.428 -2.82403 1.60246 0
M  V30 3490 H 321.439 -1.35975 4.99731 0
M  V30 3491 H 318.116 -2.94409 2.96023 0
M  V30 3492 H 319.506 -1.2073 6.60964 0
M  V30 3493 N 322.226 -1.5378 -0.344866 0
M  V30 3494 C 323.475 -1.7018 -1.08267 0
M  V30 3495 C 323.788 -0.471 -1.89845 0
M  V30 3496 O 324.994 -0.515917 -2.66553 0
M  V30 3497 C 323.45 -3.00923 -1.97417 0
M  V30 3498 C 323.058 -4.31335 -1.21053 0
M  V30 3499 C 324.802 -3.26688 -2.71063 0
M  V30 3500 C 322.709 -5.53153 -2.09225 0
M  V30 3501 H 321.639 -0.634138 -0.407903 0
M  V30 3502 H 324.29 -1.8028 -0.342246 0
M  V30 3503 H 322.672 -2.84676 -2.75274 0
M  V30 3504 H 323.846 -4.58281 -0.481159 0
M  V30 3505 H 322.161 -4.12173 -0.591813 0
M  V30 3506 H 324.758 -4.1489 -3.37299 0
M  V30 3507 H 325.101 -2.43639 -3.37558 0
M  V30 3508 H 325.634 -3.43705 -2.0028 0
M  V30 3509 H 322.373 -6.38741 -1.47274 0
M  V30 3510 H 321.893 -5.30458 -2.79955 0
M  V30 3511 H 323.572 -5.88744 -2.68308 0
M  V30 3512 N 323.704 0.605807 -1.45491 0
M  V30 3513 C 324.929 1.39625 -1.53361 0
M  V30 3514 C 325.354 1.87351 -0.167645 0
M  V30 3515 O 324.712 1.60243 0.848051 0
M  V30 3516 C 324.76 2.57559 -2.5238 0
M  V30 3517 O 323.864 3.58248 -2.04285 0
M  V30 3518 H 323.205 0.416771 -0.516912 0
M  V30 3519 H 325.735 0.737103 -1.90861 0
M  V30 3520 H 325.745 3.0478 -2.71244 0
M  V30 3521 H 324.42 2.22171 -3.51586 0
M  V30 3522 H 322.997 3.17664 -1.95305 0
M  V30 3523 N 325.182 1.32811 0.848464 0
M  V30 3524 C 326.407 1.26882 1.6406 0
M  V30 3525 C 326.832 -0.15913 1.87426 0
M  V30 3526 O 326.19 -1.11258 1.43148 0
M  V30 3527 C 326.238 2.03997 2.97351 0
M  V30 3528 O 325.342 1.39201 3.88197 0
M  V30 3529 H 324.683 0.436982 0.499943 0
M  V30 3530 H 327.213 1.75224 1.0563 0
M  V30 3531 H 327.223 2.14403 3.47124 0
M  V30 3532 H 325.898 3.0783 2.79666 0
M  V30 3533 H 324.475 1.37381 3.46671 0
M  V30 3534 N 326.66 -1.06551 1.16123 0
M  V30 3535 C 327.906 -1.79719 0.952505 0
M  V30 3536 C 328.261 -1.85396 -0.514385 0
M  V30 3537 O 327.554 -1.33263 -1.37665 0
M  V30 3538 C 327.748 -3.23911 1.51052 0
M  V30 3539 C 327.577 -3.32284 3.03013 0
M  V30 3540 C 326.347 -3.42371 3.71632 0
M  V30 3541 C 328.545 -3.22363 4.00732 0
M  V30 3542 N 326.527 -3.39732 5.11327 0
M  V30 3543 C 327.898 -3.26937 5.26794 0
M  V30 3544 C 329.953 -3.0623 3.92591 0
M  V30 3545 C 328.656 -3.17035 6.45663 0
M  V30 3546 C 330.682 -2.97665 5.11028 0
M  V30 3547 C 330.044 -3.02858 6.35969 0
M  V30 3548 H 326.143 -0.670585 0.402293 0
M  V30 3549 H 328.727 -1.27125 1.4747 0
M  V30 3550 H 326.898 -3.74907 1.01484 0
M  V30 3551 H 328.63 -3.85242 1.2398 0
M  V30 3552 H 325.385 -3.47058 3.22254 0
M  V30 3553 H 325.809 -3.41919 5.84312 0
M  V30 3554 H 330.451 -3.01063 2.96852 0
M  V30 3555 H 328.169 -3.2096 7.41627 0
M  V30 3556 H 331.755 -2.86273 5.06497 0
M  V30 3557 H 330.635 -2.96286 7.26075 0
M  V30 3558 N 328.138 -0.959301 -1.25041 0
M  V30 3559 C 329.085 -0.482057 -2.2571 0
M  V30 3560 C 330.055 0.467939 -1.59372 0
M  V30 3561 O 331.24 0.380159 -1.86974 0
M  V30 3562 C 328.38 0.229623 -3.44335 0
M  V30 3563 C 327.493 -0.758156 -4.25295 0
M  V30 3564 C 326.628 -0.0234403 -5.31195 0
M  V30 3565 C 325.667 -1.00184 -6.03846 0
M  V30 3566 N 324.804 -0.29769 -7.01469 0
M  V30 3567 H 329.644 -1.34538 -2.65901 0
M  V30 3568 H 327.181 -0.674592 -1.3072 0
M  V30 3569 H 329.139 0.658856 -4.11965 0
M  V30 3570 H 327.769 1.05696 -3.05005 0
M  V30 3571 H 326.821 -1.30586 -3.57284 0
M  V30 3572 H 328.133 -1.50458 -4.75567 0
M  V30 3573 H 327.287 0.464201 -6.04922 0
M  V30 3574 H 326.026 0.755741 -4.81809 0
M  V30 3575 H 325.031 -1.50044 -5.2893 0
M  V30 3576 H 326.256 -1.78133 -6.55321 0
M  V30 3577 H 324.202 0.462668 -6.54366 0
M  V30 3578 H 324.119 -0.983128 -7.4958 0
M  V30 3579 H 325.387 0.16826 -7.79318 0
M  V30 3580 N 329.616 1.39756 -0.72842 0
M  V30 3581 C 330.579 2.29012 -0.0927297 0
M  V30 3582 C 331.579 1.45992 0.674025 0
M  V30 3583 O 332.769 1.66749 0.50402 0
M  V30 3584 C 329.901 3.29396 0.878137 0
M  V30 3585 H 331.094 2.86729 -0.879011 0
M  V30 3586 H 328.647 1.48293 -0.493847 0
M  V30 3587 H 329.382 2.76722 1.69101 0
M  V30 3588 H 329.167 3.907 0.331051 0
M  V30 3589 H 330.657 3.96199 1.3197 0
M  V30 3590 N 331.094 0.475555 1.50254 0
M  V30 3591 C 332.057 -0.305016 2.27161 0
M  V30 3592 C 333.057 -0.916519 1.32123 0
M  V30 3593 O 334.247 -0.785003 1.5551 0
M  V30 3594 C 331.379 -1.43496 3.09227 0
M  V30 3595 H 332.572 0.369511 2.97615 0
M  V30 3596 H 330.125 0.229747 1.54602 0
M  V30 3597 H 330.86 -2.14441 2.43281 0
M  V30 3598 H 330.645 -1.00223 3.79075 0
M  V30 3599 H 332.135 -1.98548 3.67381 0
M  V30 3600 N 332.573 -1.56217 0.208337 0
M  V30 3601 C 333.801 -2.02337 -0.43215 0
M  V30 3602 C 334.216 -1.08834 -1.54275 0
M  V30 3603 O 333.573 -0.0955462 -1.8225 0
M  V30 3604 C 333.624 -3.48072 -0.976138 0
M  V30 3605 O 333.345 -4.38007 0.0901621 0
M  V30 3606 C 334.846 -4.09773 -1.69119 0
M  V30 3607 H 332.066 -0.662385 -0.10718 0
M  V30 3608 H 334.61 -2.01966 0.320923 0
M  V30 3609 H 332.765 -3.49099 -1.67954 0
M  V30 3610 H 333.179 -5.23543 -0.316701 0
M  V30 3611 H 334.653 -5.13556 -2.02397 0
M  V30 3612 H 335.13 -3.53999 -2.59964 0
M  V30 3613 H 335.736 -4.12556 -1.03332 0
M  V30 3614 N 334.051 0.0651679 -1.57465 0
M  V30 3615 C 335.3 0.761916 -1.86756 0
M  V30 3616 C 335.613 1.78406 -0.801925 0
M  V30 3617 O 336.819 2.53084 -0.982885 0
M  V30 3618 C 335.275 1.40603 -3.31299 0
M  V30 3619 C 334.883 0.422115 -4.46007 0
M  V30 3620 C 336.627 2.08476 -3.69781 0
M  V30 3621 C 334.534 1.07252 -5.81593 0
M  V30 3622 H 333.464 0.288308 -0.696702 0
M  V30 3623 H 336.115 0.015344 -1.83494 0
M  V30 3624 H 334.497 2.20109 -3.29193 0
M  V30 3625 H 335.671 -0.343613 -4.59517 0
M  V30 3626 H 333.986 -0.152527 -4.16121 0
M  V30 3627 H 336.583 2.57925 -4.68379 0
M  V30 3628 H 336.926 2.88712 -2.99919 0
M  V30 3629 H 337.459 1.35792 -3.73905 0
M  V30 3630 H 334.198 0.310342 -6.54765 0
M  V30 3631 H 333.718 1.80895 -5.71872 0
M  V30 3632 H 335.397 1.59043 -6.27148 0
M  V30 3633 N 335.529 1.53961 0.336706 0
M  V30 3634 C 336.945 1.44378 0.680241 0
M  V30 3635 C 337.145 0.606034 1.9217 0
M  V30 3636 O 336.201 0.099688 2.52303 0
M  V30 3637 C 337.514 2.87945 0.8665 0
M  V30 3638 C 339.062 2.97763 0.964682 0
M  V30 3639 C 339.537 4.42453 1.18321 0
M  V30 3640 N 341.028 4.46008 1.25025 0
M  V30 3641 C 341.763 5.55102 1.43697 0
M  V30 3642 N 341.259 6.7419 1.59498 0
M  V30 3643 N 343.052 5.42727 1.463 0
M  V30 3644 H 335.203 2.06918 -0.479455 0
M  V30 3645 H 337.466 0.935634 -0.152619 0
M  V30 3646 H 337.172 3.51691 0.0256937 0
M  V30 3647 H 337.046 3.33293 1.76623 0
M  V30 3648 H 339.433 2.34153 1.796 0
M  V30 3649 H 339.514 2.55766 0.041708 0
M  V30 3650 H 339.158 5.06645 0.356788 0
M  V30 3651 H 339.088 4.82048 2.11985 0
M  V30 3652 H 341.579 3.60196 1.14312 0
M  V30 3653 H 341.892 7.53095 1.734 0
M  V30 3654 H 340.237 6.77123 1.56621 0
M  V30 3655 H 343.428 4.48647 1.33543 0
M  V30 3656 H 343.601 6.27806 1.6051 0
M  V30 3657 N 337.007 -0.598083 1.45811 0
M  V30 3658 C 337.917 -1.73632 1.57763 0
M  V30 3659 C 338.933 -1.67763 0.461676 0
M  V30 3660 O 340.109 -1.87949 0.723685 0
M  V30 3661 C 337.174 -3.10114 1.55018 0
M  V30 3662 C 336.235 -3.27364 2.77726 0
M  V30 3663 C 335.468 -4.57334 2.75102 0
M  V30 3664 O 335.691 -5.40258 1.8297 0
M  V30 3665 O 334.625 -4.77502 3.66437 0
M  V30 3666 H 338.451 -1.66498 2.53992 0
M  V30 3667 H 336.036 -0.763308 1.28429 0
M  V30 3668 H 337.918 -3.9141 1.56129 0
M  V30 3669 H 336.593 -3.17718 0.619431 0
M  V30 3670 H 335.5 -2.45619 2.82174 0
M  V30 3671 H 336.833 -3.24641 3.69958 0
M  V30 3672 N 338.485 -1.33259 -0.841409 0
M  V30 3673 C 339.435 -1.19872 -1.93945 0
M  V30 3674 C 340.419 -0.102269 -1.60575 0
M  V30 3675 O 341.611 -0.330114 -1.73894 0
M  V30 3676 C 338.74 -0.937517 -3.30251 0
M  V30 3677 C 337.826 -2.07629 -3.69799 0
M  V30 3678 N 338.217 -3.32604 -3.81062 0
M  V30 3679 C 336.515 -1.98242 -3.9952 0
M  V30 3680 C 337.216 -4.07275 -4.15333 0
M  V30 3681 N 336.192 -3.35691 -4.27566 0
M  V30 3682 H 339.994 -2.14604 -2.00805 0
M  V30 3683 H 337.508 -1.2523 -1.03398 0
M  V30 3684 H 339.505 -0.822545 -4.08705 0
M  V30 3685 H 338.165 0.00128798 -3.247 0
M  V30 3686 H 339.176 -3.67382 -3.65035 0
M  V30 3687 H 335.853 -1.12005 -4.02195 0
M  V30 3688 H 337.243 -5.1511 -4.31406 0
M  V30 3689 N 339.963 1.05934 -1.16686 0
M  V30 3690 C 340.91 2.13499 -0.876748 0
M  V30 3691 C 341.88 1.65162 0.176299 0
M  V30 3692 O 343.065 1.90757 0.0407143 0
M  V30 3693 C 340.205 3.42912 -0.387967 0
M  V30 3694 C 339.318 4.04964 -1.50426 0
M  V30 3695 C 338.453 5.22266 -0.970125 0
M  V30 3696 C 337.492 5.76309 -2.06238 0
M  V30 3697 N 336.629 6.84922 -1.54356 0
M  V30 3698 H 341.469 2.37654 -1.7979 0
M  V30 3699 H 339.006 1.16598 -0.896843 0
M  V30 3700 H 340.964 4.17111 -0.086186 0
M  V30 3701 H 339.594 3.18963 0.496235 0
M  V30 3702 H 338.646 3.28277 -1.92193 0
M  V30 3703 H 339.958 4.41122 -2.32836 0
M  V30 3704 H 339.112 6.03506 -0.621743 0
M  V30 3705 H 337.851 4.87564 -0.115377 0
M  V30 3706 H 336.856 4.93704 -2.41942 0
M  V30 3707 H 338.081 6.13062 -2.92115 0
M  V30 3708 H 336.027 6.52131 -0.711406 0
M  V30 3709 H 335.944 7.20043 -2.30379 0
M  V30 3710 H 337.212 7.69832 -1.22387 0
M  V30 3711 N 341.441 0.965919 1.2453 0
M  V30 3712 C 342.404 0.499547 2.2369 0
M  V30 3713 C 343.404 -0.40294 1.5567 0
M  V30 3714 O 344.594 -0.19865 1.73064 0
M  V30 3715 C 341.726 -0.276792 3.39774 0
M  V30 3716 H 342.919 1.37613 2.66463 0
M  V30 3717 H 340.472 0.750324 1.37112 0
M  V30 3718 H 341.207 -1.17055 3.02438 0
M  V30 3719 H 340.992 0.370826 3.90343 0
M  V30 3720 H 342.482 -0.592175 4.1338 0
M  V30 3721 N 342.919 -1.39368 0.735821 0
M  V30 3722 C 344.147 -2.04795 0.294393 0
M  V30 3723 C 344.562 -1.55478 -1.07107 0
M  V30 3724 O 343.919 -0.720038 -1.67695 0
M  V30 3725 C 343.97 -3.6035 0.288071 0
M  V30 3726 O 343.691 -4.07852 1.59963 0
M  V30 3727 C 345.192 -4.42976 -0.169422 0
M  V30 3728 H 342.412 -0.658571 0.128551 0
M  V30 3729 H 344.956 -1.78399 0.999701 0
M  V30 3730 H 343.111 -3.85645 -0.368355 0
M  V30 3731 H 343.525 -5.02181 1.51375 0
M  V30 3732 H 344.999 -5.51864 -0.122687 0
M  V30 3733 H 345.476 -4.22068 -1.21472 0
M  V30 3734 H 346.082 -4.22832 0.457469 0
M  V30 3735 N 344.397 -0.483516 -1.5 0
M  V30 3736 C 345.643 0.0672592 -2.02688 0
M  V30 3737 C 345.976 1.38247 -1.36387 0
M  V30 3738 O 345.251 1.88131 -0.493675 0
M  V30 3739 C 345.534 0.238109 -3.59312 0
M  V30 3740 C 345.387 -1.099 -4.36168 0
M  V30 3741 C 346.706 0.986916 -4.28892 0
M  V30 3742 H 343.825 0.0229696 -0.736642 0
M  V30 3743 H 346.467 -0.631527 -1.79197 0
M  V30 3744 H 344.617 0.8333 -3.79458 0
M  V30 3745 H 346.289 -1.73172 -4.27562 0
M  V30 3746 H 344.532 -1.69261 -3.99416 0
M  V30 3747 H 345.203 -0.932954 -5.44059 0
M  V30 3748 H 347.679 0.482302 -4.13295 0
M  V30 3749 H 346.555 1.07527 -5.38265 0
M  V30 3750 H 346.816 2.0265 -3.92919 0
M  V30 3751 N 345.875 1.56104 -0.216619 0
M  V30 3752 C 347.103 2.02563 0.421413 0
M  V30 3753 C 347.518 1.0965 1.53695 0
M  V30 3754 O 346.875 0.10521 1.82196 0
M  V30 3755 C 346.926 3.48584 0.957665 0
M  V30 3756 O 346.647 4.37953 -0.113389 0
M  V30 3757 C 348.148 4.10664 1.66943 0
M  V30 3758 H 345.368 0.662944 0.103665 0
M  V30 3759 H 347.912 2.01793 -0.331629 0
M  V30 3760 H 346.067 3.49985 1.661 0
M  V30 3761 H 346.481 5.23704 0.288932 0
M  V30 3762 H 347.955 5.14622 1.99671 0
M  V30 3763 H 348.432 3.55373 2.58083 0
M  V30 3764 H 349.038 4.13098 1.01142 0
M  V30 3765 N 347.353 -0.0568162 1.57498 0
M  V30 3766 C 348.283 -1.06593 2.0775 0
M  V30 3767 C 349.264 -1.39448 0.974082 0
M  V30 3768 O 350.449 -1.48815 1.24771 0
M  V30 3769 C 347.579 -2.37509 2.5339 0
M  V30 3770 C 346.533 -2.1897 3.67745 0
M  V30 3771 C 345.859 -3.55402 3.99492 0
M  V30 3772 C 347.159 -1.59859 4.97235 0
M  V30 3773 H 348.853 -0.647706 2.9231 0
M  V30 3774 H 346.399 -0.310116 1.40621 0
M  V30 3775 H 348.352 -3.08409 2.87162 0
M  V30 3776 H 347.076 -2.8134 1.65878 0
M  V30 3777 H 345.735 -1.50508 3.3428 0
M  V30 3778 H 345.383 -3.9683 3.09088 0
M  V30 3779 H 345.083 -3.43831 4.76502 0
M  V30 3780 H 346.607 -4.27708 4.35773 0
M  V30 3781 H 348.021 -2.20642 5.29141 0
M  V30 3782 H 346.418 -1.58942 5.78669 0
M  V30 3783 H 347.488 -0.561506 4.81638 0
M  V30 3784 N 348.832 -1.54138 -0.328536 0
M  V30 3785 C 349.795 -1.82462 -1.38709 0
M  V30 3786 C 350.795 -0.696229 -1.44946 0
M  V30 3787 O 351.985 -0.964535 -1.4506 0
M  V30 3788 C 349.117 -1.98018 -2.77492 0
M  V30 3789 H 350.31 -2.77037 -1.14851 0
M  V30 3790 H 347.863 -1.45779 -0.563751 0
M  V30 3791 H 348.598 -1.05637 -3.06613 0
M  V30 3792 H 348.383 -2.80124 -2.74359 0
M  V30 3793 H 349.873 -2.21396 -3.54081 0
M  V30 3794 N 350.31 0.590341 -1.46126 0
M  V30 3795 C 351.273 1.68194 -1.55703 0
M  V30 3796 C 352.273 1.54808 -0.434868 0
M  V30 3797 O 353.463 1.59564 -0.698928 0
M  V30 3798 C 350.595 3.07575 -1.47005 0
M  V30 3799 H 351.788 1.61064 -2.52979 0
M  V30 3800 H 349.341 0.807541 -1.33823 0
M  V30 3801 H 350.076 3.20268 -0.509785 0
M  V30 3802 H 349.861 3.187 -2.28414 0
M  V30 3803 H 351.351 3.87055 -1.56776 0
M  V30 3804 N 351.788 1.33704 0.83433 0
M  V30 3805 C 353.034 1.25603 1.59222 0
M  V30 3806 C 353.367 -0.176659 1.93395 0
M  V30 3807 O 352.642 -1.11915 1.59076 0
M  V30 3808 C 352.925 2.13576 2.89926 0
M  V30 3809 C 352.778 3.65326 2.62406 0
M  V30 3810 C 354.097 2.01238 3.91397 0
M  V30 3811 H 351.216 0.457613 0.577719 0
M  V30 3812 H 353.858 1.63848 0.961972 0
M  V30 3813 H 352.008 1.8109 3.43713 0
M  V30 3814 H 353.68 4.08124 2.15017 0
M  V30 3815 H 351.923 3.8698 1.96033 0
M  V30 3816 H 352.594 4.22232 3.55562 0
M  V30 3817 H 355.07 2.29738 3.46929 0
M  V30 3818 H 353.946 2.65036 4.80673 0
M  V30 3819 H 354.207 0.985951 4.30966 0
M  V30 3820 N 353.266 -1.05314 1.17247 0
M  V30 3821 C 354.199 -2.12512 0.831507 0
M  V30 3822 C 355.177 -1.61351 -0.201168 0
M  V30 3823 O 356.361 -1.88317 -0.0829831 0
M  V30 3824 C 353.488 -3.37848 0.24015 0
M  V30 3825 C 352.534 -4.07832 1.24801 0
M  V30 3826 S 353.367 -4.56537 2.79882 0
M  V30 3827 C 354.523 -5.85122 2.22223 0
M  V30 3828 H 354.756 -2.41106 1.7394 0
M  V30 3829 H 352.289 -1.17896 0.996988 0
M  V30 3830 H 354.247 -4.10391 -0.0945588 0
M  V30 3831 H 352.908 -3.07392 -0.645668 0
M  V30 3832 H 352.101 -4.97883 0.78287 0
M  V30 3833 H 351.703 -3.41348 1.52831 0
M  V30 3834 H 353.995 -6.58408 1.59703 0
M  V30 3835 H 354.938 -6.36381 3.10523 0
M  V30 3836 H 355.346 -5.39626 1.65722 0
M  V30 3837 N 354.744 -0.972509 -1.24016 0
M  V30 3838 C 355.992 -0.635776 -1.91839 0
M  V30 3839 C 356.313 0.832312 -1.76345 0
M  V30 3840 O 355.583 1.5946 -1.13795 0
M  V30 3841 H 354.163 -0.232157 -0.710009 0
M  V30 3842 H 356.825 -1.23462 -1.50809 0
M  V30 3843 H 355.921 -0.880545 -2.99421 0
M  V30 3844 N 356.222 1.38976 -0.743202 0
M  V30 3845 C 357.185 2.28901 -0.117014 0
M  V30 3846 C 358.185 1.46698 0.658503 0
M  V30 3847 O 359.375 1.67274 0.486305 0
M  V30 3848 C 356.507 3.30309 0.84315 0
M  V30 3849 H 357.7 2.8578 -0.909373 0
M  V30 3850 H 355.253 1.47761 -0.509547 0
M  V30 3851 H 355.988 2.785 1.66157 0
M  V30 3852 H 355.773 3.91029 0.289594 0
M  V30 3853 H 357.263 3.97577 1.2776 0
M  V30 3854 N 357.7 0.491464 1.49741 0
M  V30 3855 C 358.947 -0.0564256 2.02421 0
M  V30 3856 C 359.275 -1.37872 1.37192 0
M  V30 3857 O 358.53 -1.89375 0.493508 0
M  V30 3858 C 358.829 -0.267329 3.56399 0
M  V30 3859 C 358.495 0.975775 4.40215 0
M  V30 3860 C 357.157 1.31655 4.62839 0
M  V30 3861 C 359.509 1.80251 4.89039 0
M  V30 3862 C 356.837 2.48375 5.31532 0
M  V30 3863 C 359.189 2.96116 5.59015 0
M  V30 3864 C 357.853 3.30585 5.79888 0
M  V30 3865 H 357.123 -0.0206476 0.740712 0
M  V30 3866 H 359.77 0.649686 1.80143 0
M  V30 3867 H 358.075 -1.05588 3.77304 0
M  V30 3868 H 359.772 -0.705549 3.94744 0
M  V30 3869 H 356.362 0.700315 4.2284 0
M  V30 3870 H 360.546 1.55239 4.71396 0
M  V30 3871 H 355.802 2.7533 5.45897 0
M  V30 3872 H 359.976 3.60509 5.95824 0
M  V30 3873 H 357.603 4.21132 6.32892 0
M  V30 3874 N 359.178 -1.55987 0.224894 0
M  V30 3875 C 360.427 -1.97566 -0.406273 0
M  V30 3876 C 360.74 -1.11569 -1.6066 0
M  V30 3877 O 361.946 -1.43062 -2.3075 0
M  V30 3878 C 360.402 -3.51474 -0.774207 0
M  V30 3879 C 360.01 -4.46179 0.403496 0
M  V30 3880 C 361.754 -4.01758 -1.37079 0
M  V30 3881 C 359.661 -5.91399 0.0129412 0
M  V30 3882 H 358.591 -0.737777 -0.155565 0
M  V30 3883 H 361.242 -1.80659 0.321635 0
M  V30 3884 H 359.624 -3.63994 -1.55963 0
M  V30 3885 H 360.798 -4.45409 1.18101 0
M  V30 3886 H 359.113 -4.06255 0.913536 0
M  V30 3887 H 361.71 -5.07756 -1.67596 0
M  V30 3888 H 362.053 -3.47805 -2.28773 0
M  V30 3889 H 362.586 -3.92475 -0.648733 0
M  V30 3890 H 359.325 -6.49341 0.896451 0
M  V30 3891 H 358.845 -5.95356 -0.728821 0
M  V30 3892 H 360.524 -6.45683 -0.412582 0
M  V30 3893 N 360.656 0.0484629 -1.57525 0
M  V30 3894 C 361.905 0.742065 -1.87553 0
M  V30 3895 C 362.218 1.77545 -0.820802 0
M  V30 3896 O 363.424 2.52027 -1.00967 0
M  V30 3897 C 361.88 1.37081 -3.32771 0
M  V30 3898 C 361.488 0.374786 -4.4643 0
M  V30 3899 C 363.232 2.04542 -3.71972 0
M  V30 3900 C 361.139 1.01077 -5.82698 0
M  V30 3901 H 360.069 0.280903 -0.699721 0
M  V30 3902 H 362.72 -0.00411877 -1.835 0
M  V30 3903 H 361.102 2.16605 -3.31509 0
M  V30 3904 H 362.276 -0.392331 -4.59127 0
M  V30 3905 H 360.591 -0.196653 -4.15935 0
M  V30 3906 H 363.188 2.52943 -4.71088 0
M  V30 3907 H 363.531 2.85515 -3.02964 0
M  V30 3908 H 364.064 1.31819 -3.75325 0
M  V30 3909 H 360.803 0.240878 -6.55057 0
M  V30 3910 H 360.323 1.74819 -5.73758 0
M  V30 3911 H 362.002 1.52383 -6.28799 0
M  V30 3912 N 362.134 1.5431 0.320358 0
M  V30 3913 C 363.374 1.74395 1.0661 0
M  V30 3914 C 363.738 0.508602 1.85141 0
M  V30 3915 O 364.939 0.586856 2.62316 0
M  V30 3916 C 363.21 2.98619 1.96371 0
M  V30 3917 S 364.769 3.39621 2.77854 0
M  V30 3918 H 361.587 0.613204 0.359863 0
M  V30 3919 H 364.189 1.9249 0.341727 0
M  V30 3920 H 362.893 3.86673 1.3752 0
M  V30 3921 H 362.424 2.83055 2.73209 0
M  V30 3922 H 364.439 2.95172 3.98858 0
M  V30 3923 N 363.613 -0.582584 1.46437 0
M  V30 3924 C 364.859 -1.34064 1.52965 0
M  V30 3925 C 365.214 -1.91566 0.178968 0
M  V30 3926 O 364.507 -1.73526 -0.812365 0
M  V30 3927 C 364.701 -2.48964 2.56421 0
M  V30 3928 C 364.53 -2.02717 4.01417 0
M  V30 3929 C 363.3 -1.87728 4.69134 0
M  V30 3930 C 365.498 -1.58675 4.8921 0
M  V30 3931 N 363.48 -1.35554 5.98747 0
M  V30 3932 C 364.851 -1.18093 6.08649 0
M  V30 3933 C 366.906 -1.46494 4.75861 0
M  V30 3934 C 365.609 -0.665427 7.16215 0
M  V30 3935 C 367.635 -0.96347 5.83499 0
M  V30 3936 C 366.997 -0.567432 7.02111 0
M  V30 3937 H 363.096 -0.483551 0.614575 0
M  V30 3938 H 365.68 -0.663309 1.83053 0
M  V30 3939 H 363.851 -3.1426 2.28244 0
M  V30 3940 H 365.583 -3.15913 2.52944 0
M  V30 3941 H 362.338 -2.09678 4.24655 0
M  V30 3942 H 362.762 -1.11628 6.67734 0
M  V30 3943 H 367.404 -1.75731 3.8455 0
M  V30 3944 H 365.122 -0.360639 8.07295 0
M  V30 3945 H 368.708 -0.873129 5.75211 0
M  V30 3946 H 367.588 -0.185389 7.83981 0
M  V30 3947 N 365.091 -1.34144 -0.827227 0
M  V30 3948 C 366.338 -1.26258 -1.58319 0
M  V30 3949 C 366.666 0.168595 -1.93768 0
M  V30 3950 O 365.921 1.12877 -1.59866 0
M  V30 3951 C 366.22 -2.09464 -2.89585 0
M  V30 3952 C 365.886 -3.58521 -2.73448 0
M  V30 3953 C 364.548 -3.99155 -2.68754 0
M  V30 3954 C 366.9 -4.53189 -2.57428 0
M  V30 3955 C 364.228 -5.32656 -2.45957 0
M  V30 3956 C 366.58 -5.86864 -2.36163 0
M  V30 3957 C 365.244 -6.26667 -2.29879 0
M  V30 3958 H 364.514 -0.462013 -0.579332 0
M  V30 3959 H 367.161 -1.65845 -0.95748 0
M  V30 3960 H 365.466 -1.62692 -3.56425 0
M  V30 3961 H 367.163 -2.00712 -3.47154 0
M  V30 3962 H 363.753 -3.26264 -2.77939 0
M  V30 3963 H 367.937 -4.22696 -2.60081 0
M  V30 3964 H 363.193 -5.62519 -2.39546 0
M  V30 3965 H 367.367 -6.59813 -2.22754 0
M  V30 3966 H 364.994 -7.30049 -2.11975 0
M  V30 3967 N 366.569 1.04691 -1.17803 0
M  V30 3968 C 367.98 1.59238 -0.974689 0
M  V30 3969 C 368.331 1.90306 0.477292 0
M  V30 3970 O 367.456 1.68846 1.35352 0
M  V30 3971 C 368.051 2.89318 -1.76296 0
M  V30 3972 C 366.61 3.40506 -1.60414 0
M  V30 3973 C 365.757 2.14172 -1.76141 0
M  V30 3974 H 368.708 0.874395 -1.32439 0
M  V30 3975 H 368.729 3.5944 -1.24833 0
M  V30 3976 H 368.241 2.66675 -2.81968 0
M  V30 3977 H 366.342 3.68175 -0.572519 0
M  V30 3978 H 366.455 4.14753 -2.39827 0
M  V30 3979 H 364.819 2.25176 -1.19028 0
M  V30 3980 H 365.602 1.93992 -2.83235 0
M  V30 3981 N 368.047 0.979072 1.23499 0
M  V30 3982 C 369.277 0.664237 1.95631 0
M  V30 3983 C 369.685 -0.772653 1.72704 0
M  V30 3984 O 369.028 -1.53141 1.01457 0
M  V30 3985 C 369.09 0.873115 3.48736 0
M  V30 3986 C 368.754 2.29182 3.95379 0
M  V30 3987 C 369.751 3.2704 4.04155 0
M  V30 3988 C 367.436 2.62256 4.28401 0
M  V30 3989 C 369.43 4.56052 4.45304 0
M  V30 3990 C 367.117 3.91491 4.69231 0
M  V30 3991 C 368.115 4.88201 4.77649 0
M  V30 3992 O 367.803 6.15129 5.17563 0
M  V30 3993 H 367.535 0.245915 0.629684 0
M  V30 3994 H 370.089 1.3127 1.57979 0
M  V30 3995 H 368.319 0.167476 3.86337 0
M  V30 3996 H 370.008 0.555642 4.02079 0
M  V30 3997 H 370.774 3.02819 3.78848 0
M  V30 3998 H 366.653 1.87692 4.21061 0
M  V30 3999 H 370.197 5.31538 4.51789 0
M  V30 4000 H 366.094 4.15508 4.93987 0
M  V30 4001 H 366.862 6.18862 5.35679 0
M  V30 4002 N 369.525 -1.3858 0.750561 0
M  V30 4003 C 370.772 -2.00184 0.305373 0
M  V30 4004 C 371.1 -1.59575 -1.11203 0
M  V30 4005 O 370.355 -0.823236 -1.77542 0
M  V30 4006 C 370.654 -3.55455 0.372373 0
M  V30 4007 C 370.32 -4.15765 1.745 0
M  V30 4008 C 368.982 -4.31951 2.12065 0
M  V30 4009 C 371.334 -4.49067 2.64553 0
M  V30 4010 C 368.662 -4.78734 3.39162 0
M  V30 4011 C 371.014 -4.97265 3.91038 0
M  V30 4012 C 369.678 -5.11658 4.28676 0
M  V30 4013 H 368.948 -0.732526 0.111744 0
M  V30 4014 H 371.595 -1.65673 0.960451 0
M  V30 4015 H 369.9 -3.90084 -0.366272 0
M  V30 4016 H 371.597 -4.00999 0.00953918 0
M  V30 4017 H 368.187 -4.03579 1.44297 0
M  V30 4018 H 372.371 -4.36166 2.36796 0
M  V30 4019 H 367.627 -4.88062 3.68246 0
M  V30 4020 H 371.801 -5.22003 4.60962 0
M  V30 4021 H 369.428 -5.47668 5.27222 0
M  V30 4022 N 371.003 -0.499398 -1.49478 0
M  V30 4023 C 372.231 0.0425456 -2.06856 0
M  V30 4024 C 372.646 1.30964 -1.35992 0
M  V30 4025 O 372.003 1.77172 -0.437762 0
M  V30 4026 C 372.054 0.301735 -3.60239 0
M  V30 4027 O 371.775 -0.915127 -4.28436 0
M  V30 4028 C 373.276 0.887499 -4.34325 0
M  V30 4029 H 370.496 -0.0197482 -0.670709 0
M  V30 4030 H 373.04 -0.696297 -1.92281 0
M  V30 4031 H 371.195 0.990556 -3.74522 0
M  V30 4032 H 371.609 -0.676993 -5.20113 0
M  V30 4033 H 373.083 1.01845 -5.42523 0
M  V30 4034 H 373.56 1.88488 -3.96698 0
M  V30 4035 H 374.166 0.236196 -4.24644 0
M  V30 4036 N 372.481 1.55866 -0.233164 0
M  V30 4037 C 373.444 2.1953 0.658715 0
M  V30 4038 C 374.444 1.16053 1.11303 0
M  V30 4039 O 375.634 1.41218 1.01996 0
M  V30 4040 C 372.766 2.82791 1.90373 0
M  V30 4041 H 373.959 2.99721 0.10347 0
M  V30 4042 H 371.512 1.56291 0.0164245 0
M  V30 4043 H 372.247 2.06501 2.50056 0
M  V30 4044 H 372.032 3.58578 1.58632 0
M  V30 4045 H 373.522 3.31556 2.53891 0
M  V30 4046 N 373.959 -0.0401083 1.57549 0
M  V30 4047 C 375.206 -0.733125 1.88763 0
M  V30 4048 C 375.534 -1.75946 0.829058 0
M  V30 4049 O 374.789 -1.94949 -0.171323 0
M  V30 4050 C 375.088 -1.44902 3.26708 0
M  V30 4051 C 374.754 -0.559707 4.47413 0
M  V30 4052 C 373.416 -0.314731 4.8017 0
M  V30 4053 C 375.768 0.0549743 5.21171 0
M  V30 4054 C 373.096 0.553886 5.8408 0
M  V30 4055 C 375.448 0.911229 6.26003 0
M  V30 4056 C 374.112 1.16577 6.57241 0
M  V30 4057 H 373.382 -0.268269 0.690733 0
M  V30 4058 H 376.029 0.00679408 1.91499 0
M  V30 4059 H 374.334 -2.26197 3.1991 0
M  V30 4060 H 376.031 -1.99058 3.48105 0
M  V30 4061 H 372.621 -0.760793 4.21794 0
M  V30 4062 H 376.805 -0.121344 4.96152 0
M  V30 4063 H 372.061 0.759518 6.06664 0
M  V30 4064 H 376.235 1.3941 6.82303 0
M  V30 4065 H 373.862 1.84058 7.37582 0
M  V30 4066 N 375.437 -1.54477 -0.31217 0
M  V30 4067 C 376.683 -1.73483 -1.0503 0
M  V30 4068 C 377.016 -0.513125 -1.87298 0
M  V30 4069 O 376.291 0.489864 -1.8823 0
M  V30 4070 C 376.574 -3.01723 -1.96558 0
M  V30 4071 C 376.427 -4.3417 -1.17545 0
M  V30 4072 C 377.746 -3.25772 -2.95907 0
M  V30 4073 H 374.865 -0.631222 -0.380432 0
M  V30 4074 H 377.507 -1.87184 -0.325932 0
M  V30 4075 H 375.657 -2.90174 -2.58324 0
M  V30 4076 H 377.329 -4.5762 -0.581513 0
M  V30 4077 H 375.572 -4.31159 -0.477925 0
M  V30 4078 H 376.243 -5.20143 -1.84811 0
M  V30 4079 H 378.719 -3.36857 -2.44267 0
M  V30 4080 H 377.595 -4.16838 -3.57123 0
M  V30 4081 H 377.856 -2.43537 -3.68974 0
M  V30 4082 N 376.915 0.57481 -1.46744 0
M  V30 4083 C 378.145 1.35659 -1.55821 0
M  V30 4084 C 378.553 1.88129 -0.201036 0
M  V30 4085 O 377.896 1.64723 0.813134 0
M  V30 4086 C 377.958 2.57473 -2.50894 0
M  V30 4087 C 377.622 2.26415 -3.9697 0
M  V30 4088 C 378.619 1.84771 -4.85958 0
M  V30 4089 C 376.304 2.38316 -4.42166 0
M  V30 4090 C 378.298 1.55434 -6.18158 0
M  V30 4091 C 375.985 2.08591 -5.74398 0
M  V30 4092 C 376.983 1.67216 -6.62214 0
M  V30 4093 O 376.671 1.37859 -7.91991 0
M  V30 4094 H 376.403 0.420496 -0.529301 0
M  V30 4095 H 378.957 0.704967 -1.92923 0
M  V30 4096 H 377.187 3.25468 -2.08824 0
M  V30 4097 H 378.876 3.19546 -2.50291 0
M  V30 4098 H 379.642 1.75085 -4.52295 0
M  V30 4099 H 375.521 2.69483 -3.74032 0
M  V30 4100 H 379.065 1.23065 -6.86659 0
M  V30 4101 H 374.962 2.17905 -6.07608 0
M  V30 4102 H 375.73 1.51638 -8.04331 0
M  V30 4103 N 378.394 1.34581 0.820102 0
M  V30 4104 C 379.81 1.14325 1.11364 0
M  V30 4105 C 380.01 -0.0533648 2.01429 0
M  V30 4106 O 379.066 -0.728044 2.41776 0
M  V30 4107 C 380.379 2.43983 1.75764 0
M  V30 4108 C 381.927 2.50065 1.88246 0
M  V30 4109 C 382.402 3.79732 2.56061 0
M  V30 4110 N 383.893 3.80908 2.63558 0
M  V30 4111 C 384.628 4.77961 3.16766 0
M  V30 4112 N 384.124 5.85397 3.70517 0
M  V30 4113 N 385.917 4.65413 3.15194 0
M  V30 4114 H 378.068 2.11246 0.221096 0
M  V30 4115 H 380.331 0.934289 0.160649 0
M  V30 4116 H 380.037 3.31651 1.1705 0
M  V30 4117 H 379.911 2.57531 2.75604 0
M  V30 4118 H 382.298 1.62834 2.46108 0
M  V30 4119 H 382.379 2.40442 0.873006 0
M  V30 4120 H 382.023 4.67354 1.98853 0
M  V30 4121 H 381.953 3.86639 3.57516 0
M  V30 4122 H 384.444 3.03274 2.25463 0
M  V30 4123 H 384.757 6.55463 4.09376 0
M  V30 4124 H 383.102 5.89107 3.68752 0
M  V30 4125 H 386.293 3.80627 2.72471 0
M  V30 4126 H 386.466 5.41216 3.56356 0
M  V30 4127 N 379.872 -1.04064 1.18357 0
M  V30 4128 C 381.12 -1.76915 0.977013 0
M  V30 4129 C 381.441 -1.88624 -0.494577 0
M  V30 4130 O 380.711 -1.41125 -1.3587 0
M  V30 4131 H 379.291 -0.65535 0.358504 0
M  V30 4132 H 381.953 -1.25592 1.49039 0
M  V30 4133 H 381.049 -2.78178 1.41504 0
M  V30 4134 N 381.35 -0.985608 -1.22978 0
M  V30 4135 C 382.28 -0.549649 -2.26939 0
M  V30 4136 C 383.261 0.419803 -1.64838 0
M  V30 4137 O 384.446 0.31203 -1.91677 0
M  V30 4138 C 381.576 0.143652 -3.47003 0
M  V30 4139 C 380.53 -0.743606 -4.21491 0
M  V30 4140 C 379.856 0.0822027 -5.34637 0
M  V30 4141 C 381.156 -2.03694 -4.80943 0
M  V30 4142 H 382.85 -1.41862 -2.63658 0
M  V30 4143 H 380.396 -0.683571 -1.26741 0
M  V30 4144 H 382.349 0.459985 -4.18882 0
M  V30 4145 H 381.073 1.04711 -3.09359 0
M  V30 4146 H 379.732 -1.04347 -3.51436 0
M  V30 4147 H 379.38 0.986359 -4.93234 0
M  V30 4148 H 379.08 -0.508377 -5.85397 0
M  V30 4149 H 380.604 0.392797 -6.09335 0
M  V30 4150 H 382.018 -1.78504 -5.44802 0
M  V30 4151 H 380.415 -2.57573 -5.42011 0
M  V30 4152 H 381.485 -2.72042 -4.01399 0
M  V30 4153 N 382.828 1.3818 -0.7579 0
M  V30 4154 C 384.244 1.5353 -0.435972 0
M  V30 4155 C 384.444 1.71961 1.05032 0
M  V30 4156 O 383.5 1.73307 1.83633 0
M  V30 4157 C 384.813 2.73989 -1.23898 0
M  V30 4158 C 386.361 2.87841 -1.22949 0
M  V30 4159 C 386.836 4.11266 -2.01554 0
M  V30 4160 N 388.327 4.18352 -1.98837 0
M  V30 4161 C 389.062 5.12856 -2.5645 0
M  V30 4162 N 388.558 6.13005 -3.22794 0
M  V30 4163 N 390.351 5.05238 -2.46356 0
M  V30 4164 H 382.502 1.24467 -1.7211 0
M  V30 4165 H 384.765 0.604982 -0.729864 0
M  V30 4166 H 384.471 2.66789 -2.29165 0
M  V30 4167 H 384.345 3.67294 -0.858764 0
M  V30 4168 H 386.732 2.9452 -0.184854 0
M  V30 4169 H 386.813 1.95534 -1.64924 0
M  V30 4170 H 386.457 4.05349 -3.06031 0
M  V30 4171 H 386.387 5.02661 -1.5697 0
M  V30 4172 H 388.878 3.46628 -1.50524 0
M  V30 4173 H 389.191 6.81619 -3.64165 0
M  V30 4174 H 387.536 6.13325 -3.2689 0
M  V30 4175 H 390.727 4.25938 -1.9415 0
M  V30 4176 H 390.9 5.78707 -2.91552 0
M  V30 4177 N 384.306 0.507319 1.49211 0
M  V30 4178 C 385.554 -0.0348839 2.0207 0
M  V30 4179 C 385.875 -1.36898 1.38866 0
M  V30 4180 O 385.145 -1.88133 0.546151 0
M  V30 4181 H 383.725 -0.0158812 0.746831 0
M  V30 4182 H 386.387 0.665998 1.83168 0
M  V30 4183 H 385.483 -0.159917 3.1169 0
M  V30 4184 N 385.784 -1.5574 0.241426 0
M  V30 4185 C 387.061 -1.90704 -0.434881 0
M  V30 4186 C 387.441 -1.16145 -1.76277 0
M  V30 4187 O 386.789 -0.277152 -2.26813 0
M  V30 4188 C 386.999 -3.43657 -0.608343 0
M  V30 4189 C 388.347 -4.14806 -0.906725 0
M  V30 4190 O 389.371 -3.49366 -0.694408 0
M  V30 4191 O 388.23 -5.30548 -1.31075 0
M  V30 4192 H 385.324 -0.793592 -0.23268 0
M  V30 4193 H 387.87 -1.67288 0.285086 0
M  V30 4194 H 386.642 -3.89927 0.327505 0
M  V30 4195 H 386.265 -3.72918 -1.37906 0
M  V30 4196 N 387.262 0.0317525 -1.57568 0
M  V30 4197 C 388.539 0.758366 -1.803 0
M  V30 4198 C 388.919 1.93718 -0.838845 0
M  V30 4199 O 388.267 2.28187 0.119571 0
M  V30 4200 C 388.477 1.19392 -3.27943 0
M  V30 4201 C 389.825 1.61094 -3.92854 0
M  V30 4202 O 390.849 1.28857 -3.32076 0
M  V30 4203 O 389.708 2.20918 -4.99858 0
M  V30 4204 H 386.802 0.366514 -0.741348 0
M  V30 4205 H 389.348 0.00873765 -1.69698 0
M  V30 4206 H 388.12 0.352275 -3.89711 0
M  V30 4207 H 387.743 2.00365 -3.43424 0
M  V30 4208 N 388.74 1.54641 0.303973 0
M  V30 4209 C 389.703 1.84646 1.35789 0
M  V30 4210 C 390.703 0.7192 1.4382 0
M  V30 4211 O 391.893 0.987491 1.43507 0
M  V30 4212 C 389.025 2.02407 2.74307 0
M  V30 4213 H 390.218 2.78829 1.10429 0
M  V30 4214 H 387.771 1.46658 0.540487 0
M  V30 4215 H 388.506 1.10502 3.04893 0
M  V30 4216 H 388.291 2.84453 2.69868 0
M  V30 4217 H 389.781 2.27002 3.50514 0
M  V30 4218 N 390.218 -0.567019 1.47046 0
M  V30 4219 C 391.467 -1.32091 1.5243 0
M  V30 4220 C 391.78 -1.94704 0.187021 0
M  V30 4221 O 392.986 -2.7124 0.118771 0
M  V30 4222 C 391.442 -2.39479 2.68659 0
M  V30 4223 C 391.05 -1.831 4.08874 0
M  V30 4224 C 392.794 -3.16111 2.83327 0
M  V30 4225 C 390.701 -2.8821 5.16419 0
M  V30 4226 H 389.631 -0.496629 0.56734 0
M  V30 4227 H 392.282 -0.603354 1.73297 0
M  V30 4228 H 390.664 -3.14105 2.41152 0
M  V30 4229 H 391.838 -1.14913 4.46242 0
M  V30 4230 H 390.153 -1.19085 3.99008 0
M  V30 4231 H 392.75 -3.94585 3.60842 0
M  V30 4232 H 393.093 -3.69686 1.91411 0
M  V30 4233 H 393.626 -2.48595 3.10556 0
M  V30 4234 H 390.365 -2.39504 6.10179 0
M  V30 4235 H 389.885 -3.54839 4.8358 0
M  V30 4236 H 391.564 -3.51881 5.42945 0
M  V30 4237 N 391.696 -1.35014 -0.812953 0
M  V30 4238 C 392.644 -1.27435 -1.94585 0
M  V30 4239 C 393.638 -0.170494 -1.6854 0
M  V30 4240 O 394.844 -0.336085 -1.76835 0
M  V30 4241 H 391.219 -0.396144 -0.639198 0
M  V30 4242 H 393.19 -2.23158 -1.98098 0
M  V30 4243 C 391.939 -1.05677 -3.31252 0
M  V30 4244 H 391.262 -1.89853 -3.51846 0
M  V30 4245 H 392.702 -1.04413 -4.10943 0
M  V30 4246 C 391.161 0.239615 -3.36047 0
M  V30 4247 O 391.691 1.23759 -3.8216 0
M  V30 4248 N 389.897 0.276186 -2.89285 0
M  V30 4249 H 389.444 -0.53653 -2.51951 0
M  V30 4250 H 389.402 1.14332 -2.92875 0
M  V30 4251 N 393.175 1.03435 -1.18907 0
M  V30 4252 C 394.085 2.15075 -0.937015 0
M  V30 4253 C 395.101 1.73706 0.101085 0
M  V30 4254 O 396.277 2.01232 -0.0822948 0
M  V30 4255 C 393.342 3.43458 -0.473057 0
M  V30 4256 C 392.403 3.99172 -1.57989 0
M  V30 4257 C 391.636 5.21427 -1.13797 0
M  V30 4258 O 391.859 5.704 0.000725941 0
M  V30 4259 O 390.793 5.69837 -1.9383 0
M  V30 4260 H 394.619 2.39198 -1.87131 0
M  V30 4261 H 392.204 1.13506 -0.971427 0
M  V30 4262 H 394.086 4.20811 -0.222702 0
M  V30 4263 H 392.761 3.20793 0.432869 0
M  V30 4264 H 391.668 3.23178 -1.88433 0
M  V30 4265 H 393.001 4.2619 -2.46217 0
M  V30 4266 N 394.653 0.992116 1.22453 0
M  V30 4267 C 395.899 0.668523 1.91464 0
M  V30 4268 C 396.232 -0.797313 1.77078 0
M  V30 4269 O 395.507 -1.5765 1.13916 0
M  V30 4270 C 395.79 1.07424 3.43703 0
M  V30 4271 C 395.643 2.59857 3.67143 0
M  V30 4272 C 396.962 0.626891 4.35612 0
M  V30 4273 H 394.081 0.244341 0.695318 0
M  V30 4274 H 396.723 1.2355 1.44345 0
M  V30 4275 H 394.873 0.591816 3.83966 0
M  V30 4276 H 396.545 3.15764 3.3629 0
M  V30 4277 H 394.788 3.01961 3.11451 0
M  V30 4278 H 395.459 2.83296 4.73759 0
M  V30 4279 H 397.935 1.04125 4.02861 0
M  V30 4280 H 396.811 0.939076 5.40807 0
M  V30 4281 H 397.072 -0.472457 4.39568 0
M  V30 4282 N 396.131 -1.37776 0.765217 0
M  V30 4283 C 397.061 -2.32945 0.160953 0
M  V30 4284 C 398.042 -1.55454 -0.690516 0
M  V30 4285 O 399.227 -1.83721 -0.629318 0
M  V30 4286 C 396.357 -3.39669 -0.724031 0
M  V30 4287 C 395.311 -4.27992 0.0256173 0
M  V30 4288 C 394.637 -5.25673 -0.978383 0
M  V30 4289 C 395.937 -5.08309 1.20082 0
M  V30 4290 H 397.631 -2.83728 0.955969 0
M  V30 4291 H 395.177 -1.36416 0.461149 0
M  V30 4292 H 397.13 -4.05219 -1.15652 0
M  V30 4293 H 395.854 -2.87396 -1.5515 0
M  V30 4294 H 394.513 -3.63964 0.438812 0
M  V30 4295 H 394.161 -4.69682 -1.80022 0
M  V30 4296 H 393.861 -5.85625 -0.481378 0
M  V30 4297 H 395.385 -5.94098 -1.40995 0
M  V30 4298 H 396.799 -5.67034 0.845307 0
M  V30 4299 H 395.196 -5.77554 1.62947 0
M  V30 4300 H 396.266 -4.41365 2.00811 0
M  V30 4301 N 397.609 -0.515225 -1.4894 0
M  V30 4302 C 398.519 0.259774 -2.33157 0
M  V30 4303 C 399.535 0.953501 -1.45548 0
M  V30 4304 O 400.711 0.931735 -1.78552 0
M  V30 4305 C 397.776 1.30193 -3.21326 0
M  V30 4306 C 396.837 0.620129 -4.24797 0
M  V30 4307 C 396.07 1.61263 -5.08753 0
M  V30 4308 O 396.293 2.84389 -4.94448 0
M  V30 4309 O 395.227 1.16013 -5.90614 0
M  V30 4310 H 399.053 -0.429932 -3.00641 0
M  V30 4311 H 396.638 -0.276346 -1.46822 0
M  V30 4312 H 398.52 1.90455 -3.75905 0
M  V30 4313 H 397.195 1.97431 -2.56521 0
M  V30 4314 H 396.102 -0.0226019 -3.74093 0
M  V30 4315 H 397.435 -0.0100493 -4.92199 0
M  V30 4316 N 399.087 1.5561 -0.249682 0
M  V30 4317 C 400.05 2.20217 0.635394 0
M  V30 4318 C 401.05 1.17227 1.10066 0
M  V30 4319 O 402.24 1.42292 1.00492 0
M  V30 4320 C 399.372 2.84794 1.87363 0
M  V30 4321 H 400.565 2.99814 0.0716752 0
M  V30 4322 H 398.118 1.563 -0.000153234 0
M  V30 4323 H 398.853 2.09142 2.47851 0
M  V30 4324 H 398.638 3.60241 1.5482 0
M  V30 4325 H 400.128 3.3423 2.5036 0
M  V30 4326 N 400.565 -0.0233959 1.57583 0
M  V30 4327 C 401.814 -0.712133 1.8871 0
M  V30 4328 C 402.127 -1.76217 0.848944 0
M  V30 4329 O 403.333 -2.50389 1.04964 0
M  V30 4330 C 401.789 -1.3177 3.3491 0
M  V30 4331 C 401.397 -0.303715 4.46969 0
M  V30 4332 C 403.141 -1.98598 3.75179 0
M  V30 4333 C 401.048 -0.917945 5.84233 0
M  V30 4334 H 399.978 -0.269735 0.704101 0
M  V30 4335 H 402.629 0.0333114 1.8347 0
M  V30 4336 H 401.011 -2.11304 3.34913 0
M  V30 4337 H 402.185 0.465325 4.58445 0
M  V30 4338 H 400.5 0.2628 4.1557 0
M  V30 4339 H 403.097 -2.45416 4.75053 0
M  V30 4340 H 403.44 -2.80659 3.07468 0
M  V30 4341 H 403.973 -1.25831 3.77374 0
M  V30 4342 H 400.712 -0.136633 6.55358 0
M  V30 4343 H 400.232 -1.65669 5.76467 0
M  V30 4344 H 401.911 -1.4236 6.31144 0
M  V30 4345 N 402.043 -1.548 -0.295768 0
M  V30 4346 C 403.289 -1.74588 -1.03184 0
M  V30 4347 C 403.622 -0.532962 -1.86744 0
M  V30 4348 O 402.897 0.469872 -1.88739 0
M  V30 4349 C 403.18 -3.03791 -1.93347 0
M  V30 4350 C 403.033 -4.35392 -1.12933 0
M  V30 4351 C 404.352 -3.28892 -2.92435 0
M  V30 4352 H 401.471 -0.635221 -0.373715 0
M  V30 4353 H 404.113 -1.87519 -0.30606 0
M  V30 4354 H 402.263 -2.92898 -2.55232 0
M  V30 4355 H 403.935 -4.58211 -0.532943 0
M  V30 4356 H 402.178 -4.31642 -0.432168 0
M  V30 4357 H 402.849 -5.22074 -1.79284 0
M  V30 4358 H 405.325 -3.39429 -2.4068 0
M  V30 4359 H 404.201 -4.20603 -3.52682 0
M  V30 4360 H 404.462 -2.47437 -3.6637 0
M  V30 4361 N 403.521 0.559213 -1.47345 0
M  V30 4362 C 404.451 1.67622 -1.62558 0
M  V30 4363 C 405.432 1.63331 -0.475087 0
M  V30 4364 O 406.617 1.80983 -0.704182 0
M  V30 4365 C 403.747 3.0626 -1.63774 0
M  V30 4366 C 402.701 3.25397 -2.7803 0
M  V30 4367 C 402.027 4.64801 -2.64318 0
M  V30 4368 C 403.327 3.10965 -4.19641 0
M  V30 4369 H 405.021 1.55146 -2.56067 0
M  V30 4370 H 402.567 0.744961 -1.23233 0
M  V30 4371 H 404.52 3.84247 -1.73008 0
M  V30 4372 H 403.244 3.1969 -0.66825 0
M  V30 4373 H 401.903 2.49817 -2.68304 0
M  V30 4374 H 401.551 4.75028 -1.65401 0
M  V30 4375 H 401.251 4.78555 -3.40968 0
M  V30 4376 H 402.775 5.44926 -2.75478 0
M  V30 4377 H 404.189 3.78772 -4.30354 0
M  V30 4378 H 402.586 3.36229 -4.97062 0
M  V30 4379 H 403.656 2.07736 -4.38148 0
M  V30 4380 N 404.999 1.35443 0.805782 0
M  V30 4381 C 406.245 1.2996 1.56467 0
M  V30 4382 C 406.6 -0.124742 1.91995 0
M  V30 4383 O 405.893 -1.07533 1.58579 0
M  V30 4384 C 406.087 2.14045 2.86216 0
M  V30 4385 C 405.916 3.64512 2.63365 0
M  V30 4386 C 404.686 4.33744 2.59219 0
M  V30 4387 C 406.884 4.58142 2.33688 0
M  V30 4388 N 404.866 5.69953 2.28094 0
M  V30 4389 C 406.237 5.8248 2.12408 0
M  V30 4390 C 408.292 4.46877 2.19558 0
M  V30 4391 C 406.995 6.96818 1.78429 0
M  V30 4392 C 409.021 5.61065 1.86976 0
M  V30 4393 C 408.383 6.84431 1.66532 0
M  V30 4394 H 404.482 0.530817 0.574245 0
M  V30 4395 H 407.066 1.70333 0.943126 0
M  V30 4396 H 405.237 1.75942 3.46264 0
M  V30 4397 H 406.969 2.00075 3.51784 0
M  V30 4398 H 403.724 3.86365 2.73896 0
M  V30 4399 H 404.148 6.41845 2.15323 0
M  V30 4400 H 408.79 3.52102 2.34061 0
M  V30 4401 H 406.508 7.91559 1.62664 0
M  V30 4402 H 410.094 5.54302 1.7675 0
M  V30 4403 H 408.974 7.71294 1.41688 0
M  V30 4404 N 406.477 -1.02803 1.19454 0
M  V30 4405 C 407.407 -2.12999 0.956758 0
M  V30 4406 C 408.388 -1.69743 -0.110188 0
M  V30 4407 O 409.573 -1.94148 0.0450038 0
M  V30 4408 C 406.703 -3.43746 0.495553 0
M  V30 4409 C 405.657 -4.00688 1.50443 0
M  V30 4410 C 404.983 -5.27067 0.900275 0
M  V30 4411 C 406.283 -4.35397 2.8849 0
M  V30 4412 H 407.977 -2.33148 1.87836 0
M  V30 4413 H 405.523 -1.12045 0.904539 0
M  V30 4414 H 407.476 -4.2021 0.316493 0
M  V30 4415 H 406.2 -3.23321 -0.461646 0
M  V30 4416 H 404.859 -3.2632 1.67065 0
M  V30 4417 H 404.507 -5.02959 -0.064503 0
M  V30 4418 H 404.207 -5.66127 1.57397 0
M  V30 4419 H 405.731 -6.06196 0.73203 0
M  V30 4420 H 407.145 -5.02795 2.75446 0
M  V30 4421 H 405.542 -4.85541 3.52661 0
M  V30 4422 H 406.612 -3.44662 3.41081 0
M  V30 4423 N 407.956 -0.998596 -1.21925 0
M  V30 4424 C 409.204 -0.676325 -1.90448 0
M  V30 4425 C 409.525 0.794719 -1.78071 0
M  V30 4426 O 408.795 1.5701 -1.17152 0
M  V30 4427 H 407.375 -0.247165 -0.704925 0
M  V30 4428 H 410.037 -1.26633 -1.48156 0
M  V30 4429 H 409.133 -0.943858 -2.97486 0
M  V30 4430 N 409.434 1.37368 -0.772513 0
M  V30 4431 C 410.664 2.03647 -0.348082 0
M  V30 4432 C 411.072 1.58392 1.03482 0
M  V30 4433 O 410.415 0.760921 1.672 0
M  V30 4434 C 410.477 3.58131 -0.313404 0
M  V30 4435 C 410.141 4.2652 -1.64102 0
M  V30 4436 C 411.138 4.50587 -2.5936 0
M  V30 4437 C 408.823 4.64335 -1.91567 0
M  V30 4438 C 410.817 5.11526 -3.80289 0
M  V30 4439 C 408.504 5.24996 -3.12766 0
M  V30 4440 C 409.502 5.48529 -4.06946 0
M  V30 4441 O 409.19 6.07921 -5.26011 0
M  V30 4442 H 408.922 0.660538 -0.143753 0
M  V30 4443 H 411.476 1.76669 -1.04772 0
M  V30 4444 H 409.706 3.84159 0.442617 0
M  V30 4445 H 411.395 4.05813 0.0840613 0
M  V30 4446 H 412.161 4.21784 -2.39423 0
M  V30 4447 H 408.04 4.45353 -1.19088 0
M  V30 4448 H 411.584 5.29811 -4.53813 0
M  V30 4449 H 407.481 5.53223 -3.32588 0
M  V30 4450 H 408.249 6.26398 -5.26847 0
M  V30 4451 N 410.912 0.523116 1.48665 0
M  V30 4452 C 411.875 -0.232592 2.28017 0
M  V30 4453 C 412.875 -0.874021 1.34972 0
M  V30 4454 O 414.065 -0.735132 1.57929 0
M  V30 4455 C 411.197 -1.33586 3.13636 0
M  V30 4456 H 412.39 0.464008 2.96289 0
M  V30 4457 H 409.943 0.278816 1.53793 0
M  V30 4458 H 410.678 -2.06593 2.4998 0
M  V30 4459 H 410.463 -0.881125 3.82071 0
M  V30 4460 H 411.953 -1.86759 3.73511 0
M  V30 4461 N 412.39 -1.55475 0.257931 0
M  V30 4462 C 413.338 -2.23244 -0.653076 0
M  V30 4463 C 414.332 -1.22366 -1.17144 0
M  V30 4464 O 415.538 -1.40347 -1.12706 0
M  V30 4465 H 411.913 -0.716247 -0.229117 0
M  V30 4466 H 413.884 -2.98343 -0.0584788 0
M  V30 4467 C 412.633 -2.95401 -1.83395 0
M  V30 4468 H 411.956 -3.72802 -1.44424 0
M  V30 4469 H 413.396 -3.46165 -2.44838 0
M  V30 4470 C 411.855 -1.99895 -2.71189 0
M  V30 4471 O 412.385 -1.53909 -3.71046 0
M  V30 4472 N 410.591 -1.6676 -2.3799 0
M  V30 4473 H 410.138 -2.04352 -1.56837 0
M  V30 4474 H 410.096 -1.03127 -2.97005 0
M  V30 4475 N 413.868 0.0150385 -1.57593 0
M  V30 4476 C 415.093 0.718067 -1.94573 0
M  V30 4477 C 415.518 1.6734 -0.859005 0
M  V30 4478 O 414.876 1.80362 0.184147 0
M  V30 4479 C 414.924 1.43918 -3.30636 0
M  V30 4480 O 414.028 2.55299 -3.23876 0
M  V30 4481 H 413.369 0.192125 -0.635597 0
M  V30 4482 H 415.899 -0.0336708 -2.04572 0
M  V30 4483 H 415.909 1.80598 -3.65853 0
M  V30 4484 H 414.584 0.738619 -4.09289 0
M  V30 4485 H 413.161 2.21058 -3.00312 0
M  V30 4486 N 415.346 1.54954 0.287554 0
M  V30 4487 C 416.309 1.86076 1.33823 0
M  V30 4488 C 417.309 0.734414 1.43049 0
M  V30 4489 O 418.499 1.00266 1.42452 0
M  V30 4490 C 415.631 2.05305 2.72144 0
M  V30 4491 H 416.824 2.79984 1.07465 0
M  V30 4492 H 414.377 1.47223 0.524902 0
M  V30 4493 H 415.112 1.1373 3.03704 0
M  V30 4494 H 414.897 2.873 2.66836 0
M  V30 4495 H 416.387 2.30706 3.48087 0
M  V30 4496 N 416.824 -0.551391 1.4764 0
M  V30 4497 C 417.754 -1.66757 1.63445 0
M  V30 4498 C 418.735 -1.63077 0.483742 0
M  V30 4499 O 419.92 -1.80607 0.71377 0
M  V30 4500 C 417.05 -3.05387 1.65396 0
M  V30 4501 C 416.004 -3.23918 2.79752 0
M  V30 4502 C 415.33 -4.63393 2.66779 0
M  V30 4503 C 416.63 -3.08735 4.21284 0
M  V30 4504 H 418.324 -1.53786 2.56886 0
M  V30 4505 H 415.87 -0.738415 1.23626 0
M  V30 4506 H 417.823 -3.83325 1.75043 0
M  V30 4507 H 416.547 -3.19332 0.685195 0
M  V30 4508 H 415.206 -2.48391 2.69625 0
M  V30 4509 H 414.854 -4.74144 1.67918 0
M  V30 4510 H 414.554 -4.7674 3.43501 0
M  V30 4511 H 416.078 -5.43458 2.78364 0
M  V30 4512 H 417.492 -3.76484 4.32357 0
M  V30 4513 H 415.889 -3.33588 4.98838 0
M  V30 4514 H 416.959 -2.0541 4.39243 0
M  V30 4515 N 418.302 -1.35869 -0.798587 0
M  V30 4516 C 419.25 -1.29491 -1.93222 0
M  V30 4517 C 420.244 -0.18836 -1.6835 0
M  V30 4518 O 421.45 -0.354822 -1.76468 0
M  V30 4519 H 417.825 -0.402901 -0.63496 0
M  V30 4520 H 419.796 -2.25247 -1.9572 0
M  V30 4521 C 418.545 -1.09184 -3.30112 0
M  V30 4522 H 417.868 -1.93574 -3.49813 0
M  V30 4523 H 419.308 -1.08766 -4.09812 0
M  V30 4524 C 417.767 0.203959 -3.36282 0
M  V30 4525 O 418.297 1.19699 -3.83451 0
M  V30 4526 N 416.503 0.245488 -2.89561 0
M  V30 4527 H 416.05 -0.563223 -2.51367 0
M  V30 4528 H 416.008 1.11219 -2.94071 0
M  V30 4529 N 419.78 1.02168 -1.19998 0
M  V30 4530 C 421.191 1.57135 -1.00825 0
M  V30 4531 C 421.542 1.91276 0.436818 0
M  V30 4532 O 420.667 1.71679 1.3174 0
M  V30 4533 C 421.262 2.85514 -1.82393 0
M  V30 4534 C 419.821 3.37027 -1.67601 0
M  V30 4535 C 418.968 2.10388 -1.80644 0
M  V30 4536 H 421.919 0.846106 -1.34264 0
M  V30 4537 H 421.94 3.56711 -1.32429 0
M  V30 4538 H 421.452 2.60634 -2.87561 0
M  V30 4539 H 419.553 3.66878 -0.650485 0
M  V30 4540 H 419.666 4.09572 -2.4857 0
M  V30 4541 H 418.03 2.22601 -1.23778 0
M  V30 4542 H 418.813 1.8794 -2.87286 0
M  V30 4543 N 421.258 1.00505 1.21394 0
M  V30 4544 C 422.507 0.683159 1.89778 0
M  V30 4545 C 422.82 -0.789471 1.7896 0
M  V30 4546 O 424.026 -1.22344 2.42372 0
M  V30 4547 C 422.482 1.17146 3.40301 0
M  V30 4548 C 422.09 2.67017 3.5973 0
M  V30 4549 C 423.834 0.924461 4.14311 0
M  V30 4550 C 421.741 3.09387 5.04017 0
M  V30 4551 H 420.671 0.25183 0.710702 0
M  V30 4552 H 423.322 1.21622 1.37406 0
M  V30 4553 H 421.704 0.566451 3.91928 0
M  V30 4554 H 422.878 3.32968 3.18542 0
M  V30 4555 H 421.193 2.89732 2.99073 0
M  V30 4556 H 423.79 1.21658 5.20676 0
M  V30 4557 H 424.133 -0.139286 4.16067 0
M  V30 4558 H 424.666 1.49226 3.6875 0
M  V30 4559 H 421.405 4.14989 5.07409 0
M  V30 4560 H 420.925 2.48149 5.46061 0
M  V30 4561 H 422.604 3.01371 5.72525 0
M  V30 4562 N 422.737 -1.36956 0.779787 0
M  V30 4563 C 423.667 -2.32761 0.185651 0
M  V30 4564 C 424.648 -1.56177 -0.673989 0
M  V30 4565 O 425.833 -1.84378 -0.609797 0
M  V30 4566 C 422.963 -3.40418 -0.687964 0
M  V30 4567 C 421.917 -4.27941 0.0710102 0
M  V30 4568 C 421.243 -5.26681 -0.922573 0
M  V30 4569 C 422.543 -5.07006 1.25467 0
M  V30 4570 H 424.237 -2.82698 0.986008 0
M  V30 4571 H 421.783 -1.3592 0.475592 0
M  V30 4572 H 423.736 -4.06423 -1.11348 0
M  V30 4573 H 422.46 -2.89025 -1.52093 0
M  V30 4574 H 421.119 -3.63478 0.47739 0
M  V30 4575 H 420.767 -4.71565 -1.7503 0
M  V30 4576 H 420.467 -5.86103 -0.419237 0
M  V30 4577 H 421.991 -5.9556 -1.34686 0
M  V30 4578 H 423.405 -5.66105 0.905401 0
M  V30 4579 H 421.802 -5.75793 1.69063 0
M  V30 4580 H 422.872 -4.3921 2.05481 0
M  V30 4581 N 424.215 -0.530993 -1.48385 0
M  V30 4582 C 425.445 -0.00133928 -2.066 0
M  V30 4583 C 425.853 1.28599 -1.38777 0
M  V30 4584 O 425.196 1.77599 -0.469495 0
M  V30 4585 C 425.258 0.292137 -3.58311 0
M  V30 4586 C 424.922 -0.901864 -4.48013 0
M  V30 4587 C 425.919 -1.80053 -4.87726 0
M  V30 4588 C 423.604 -1.10915 -4.89901 0
M  V30 4589 C 425.598 -2.89038 -5.68098 0
M  V30 4590 C 423.285 -2.20213 -5.70043 0
M  V30 4591 C 424.283 -3.09107 -6.0905 0
M  V30 4592 O 423.971 -4.16514 -6.87583 0
M  V30 4593 H 423.703 -0.0308475 -0.675296 0
M  V30 4594 H 426.257 -0.736335 -1.91748 0
M  V30 4595 H 424.487 1.08112 -3.7128 0
M  V30 4596 H 426.176 0.763994 -3.98645 0
M  V30 4597 H 426.942 -1.65234 -4.55986 0
M  V30 4598 H 422.821 -0.426498 -4.59023 0
M  V30 4599 H 426.365 -3.58451 -5.98464 0
M  V30 4600 H 422.262 -2.35016 -6.01197 0
M  V30 4601 H 423.03 -4.14237 -7.05939 0
M  V30 4602 N 425.693 1.55336 -0.266172 0
M  V30 4603 C 426.656 2.20878 0.612001 0
M  V30 4604 C 427.656 1.18388 1.08816 0
M  V30 4605 O 428.846 1.4335 0.989774 0
M  V30 4606 C 425.978 2.86765 1.84332 0
M  V30 4607 H 427.171 2.99873 0.0398718 0
M  V30 4608 H 424.724 1.56291 -0.0167309 0
M  V30 4609 H 425.459 2.11759 2.45619 0
M  V30 4610 H 425.244 3.61862 1.5099 0
M  V30 4611 H 426.734 3.36867 2.46801 0
M  V30 4612 N 427.171 -0.0066808 1.57599 0
M  V30 4613 C 428.134 -0.985035 2.06953 0
M  V30 4614 C 429.134 -1.27663 0.977687 0
M  V30 4615 O 430.324 -1.22293 1.24057 0
M  V30 4616 C 427.456 -2.3118 2.50536 0
M  V30 4617 H 428.649 -0.558255 2.94658 0
M  V30 4618 H 426.202 -0.254011 1.54222 0
M  V30 4619 H 426.937 -2.78561 1.66054 0
M  V30 4620 H 426.722 -2.11338 3.3027 0
M  V30 4621 H 428.212 -3.01377 2.8907 0
M  V30 4622 N 428.649 -1.55105 -0.279332 0
M  V30 4623 C 429.579 -1.90557 -1.34945 0
M  V30 4624 C 430.56 -0.766738 -1.51839 0
M  V30 4625 O 431.745 -1.02434 -1.64988 0
M  V30 4626 C 428.875 -2.17193 -2.71006 0
M  V30 4627 C 427.829 -3.33021 -2.68851 0
M  V30 4628 C 427.155 -3.45123 -4.08405 0
M  V30 4629 C 428.455 -4.69578 -2.28678 0
M  V30 4630 H 430.149 -2.80188 -1.05522 0
M  V30 4631 H 427.695 -1.34811 -0.506173 0
M  V30 4632 H 429.648 -2.40581 -3.45975 0
M  V30 4633 H 428.372 -1.24355 -3.01999 0
M  V30 4634 H 427.031 -3.0959 -1.9634 0
M  V30 4635 H 426.679 -2.49762 -4.3661 0
M  V30 4636 H 426.379 -4.22995 -4.07859 0
M  V30 4637 H 427.903 -3.70796 -4.85121 0
M  V30 4638 H 429.317 -4.92553 -2.93368 0
M  V30 4639 H 427.714 -5.5032 -2.39306 0
M  V30 4640 H 428.784 -4.68828 -1.23807 0
M  V30 4641 N 430.127 0.543554 -1.4793 0
M  V30 4642 C 431.075 1.67039 -1.61866 0
M  V30 4643 C 432.069 1.62294 -0.48549 0
M  V30 4644 O 433.275 1.67315 -0.66376 0
M  V30 4645 H 429.65 0.552954 -0.509652 0
M  V30 4646 H 431.621 1.52426 -2.56533 0
M  V30 4647 C 430.37 3.05357 -1.6629 0
M  V30 4648 H 429.693 3.09696 -2.5284 0
M  V30 4649 H 431.133 3.83855 -1.80088 0
M  V30 4650 C 429.592 3.34531 -0.398861 0
M  V30 4651 O 430.122 3.98649 0.494162 0
M  V30 4652 N 428.328 2.89299 -0.2747 0
M  V30 4653 H 427.875 2.37298 -1.00236 0
M  V30 4654 H 427.833 3.09188 0.570075 0
M  V30 4655 N 431.605 1.3629 0.791371 0
M  V30 4656 C 433.021 1.16661 1.08914 0
M  V30 4657 C 433.221 -0.0106266 2.01497 0
M  V30 4658 O 432.277 -0.676596 2.43266 0
M  V30 4659 C 433.59 2.47656 1.70549 0
M  V30 4660 C 435.138 2.54002 1.82899 0
M  V30 4661 C 435.613 3.85078 2.47949 0
M  V30 4662 N 437.104 3.86413 2.5542 0
M  V30 4663 C 437.839 4.84572 3.06557 0
M  V30 4664 N 437.335 5.93124 3.58016 0
M  V30 4665 N 439.128 4.71994 3.05251 0
M  V30 4666 H 431.279 2.11668 0.176238 0
M  V30 4667 H 433.542 0.937486 0.140796 0
M  V30 4668 H 433.248 3.34059 1.09989 0
M  V30 4669 H 433.122 2.63319 2.70079 0
M  V30 4670 H 435.509 1.68018 2.42598 0
M  V30 4671 H 435.59 2.42239 0.821808 0
M  V30 4672 H 435.234 4.71467 1.88895 0
M  V30 4673 H 435.164 3.94135 3.49235 0
M  V30 4674 H 437.655 3.07988 2.18979 0
M  V30 4675 H 437.968 6.63999 3.95381 0
M  V30 4676 H 436.313 5.96796 3.56173 0
M  V30 4677 H 439.504 3.86321 2.64336 0
M  V30 4678 H 439.677 5.48653 3.44796 0
M  V30 4679 N 433.083 -1.0153 1.20538 0
M  V30 4680 C 434.36 -1.72327 0.925343 0
M  V30 4681 C 434.74 -2.03383 -0.565547 0
M  V30 4682 O 434.088 -1.69934 -1.52757 0
M  V30 4683 C 434.298 -2.9902 1.79967 0
M  V30 4684 C 435.646 -3.72258 2.04228 0
M  V30 4685 O 436.67 -3.08979 1.77231 0
M  V30 4686 O 435.529 -4.86053 2.4983 0
M  V30 4687 H 432.623 -0.751099 0.346092 0
M  V30 4688 H 435.169 -1.07366 1.31417 0
M  V30 4689 H 433.941 -2.72402 2.80915 0
M  V30 4690 H 433.564 -3.71721 1.41099 0
M  V30 4691 N 434.561 -1.01147 -1.20859 0
M  V30 4692 C 435.808 -0.697865 -1.90095 0
M  V30 4693 C 436.136 0.772014 -1.78522 0
M  V30 4694 O 435.391 1.57595 -1.16027 0
M  V30 4695 C 435.69 -1.0727 -3.40922 0
M  V30 4696 C 435.356 -2.53792 -3.72693 0
M  V30 4697 C 434.018 -2.93829 -3.81075 0
M  V30 4698 C 436.37 -3.48674 -3.87397 0
M  V30 4699 C 433.698 -4.27696 -4.01613 0
M  V30 4700 C 436.05 -4.82223 -4.09444 0
M  V30 4701 C 434.714 -5.21973 -4.16054 0
M  V30 4702 H 433.984 -0.255367 -0.695607 0
M  V30 4703 H 436.631 -1.27111 -1.43231 0
M  V30 4704 H 434.936 -0.417799 -3.89566 0
M  V30 4705 H 436.633 -0.807818 -3.92779 0
M  V30 4706 H 433.223 -2.21768 -3.66765 0
M  V30 4707 H 437.407 -3.18904 -3.80281 0
M  V30 4708 H 432.663 -4.58055 -4.04964 0
M  V30 4709 H 436.837 -5.55672 -4.19763 0
M  V30 4710 H 434.464 -6.25717 -4.31721 0
M  V30 4711 N 436.039 1.36541 -0.78704 0
M  V30 4712 C 437.455 1.52571 -0.46844 0
M  V30 4713 C 437.655 1.7415 1.01361 0
M  V30 4714 O 436.711 1.77163 1.79915 0
M  V30 4715 C 438.024 2.71299 -1.29682 0
M  V30 4716 C 439.572 2.85169 -1.29027 0
M  V30 4717 C 440.047 4.06898 -2.10233 0
M  V30 4718 N 441.538 4.1404 -2.07666 0
M  V30 4719 C 442.273 5.07301 -2.67271 0
M  V30 4720 N 441.769 6.06021 -3.35724 0
M  V30 4721 N 443.562 4.99898 -2.57018 0
M  V30 4722 H 435.713 1.20788 -1.74711 0
M  V30 4723 H 437.976 0.589364 -0.742532 0
M  V30 4724 H 437.682 2.61868 -2.34773 0
M  V30 4725 H 437.556 3.6539 -0.936479 0
M  V30 4726 H 439.943 2.94062 -0.247284 0
M  V30 4727 H 440.024 1.91992 -1.69035 0
M  V30 4728 H 439.668 3.98766 -3.1456 0
M  V30 4729 H 439.598 4.99218 -1.67597 0
M  V30 4730 H 442.089 3.43357 -1.57843 0
M  V30 4731 H 442.402 6.73741 -3.78541 0
M  V30 4732 H 440.747 6.06253 -3.39826 0
M  V30 4733 H 443.938 4.21724 -2.03142 0
M  V30 4734 H 444.111 5.72392 -3.03761 0
M  V30 4735 N 437.518 0.538854 1.48102 0
M  V30 4736 C 438.746 0.0123136 2.06896 0
M  V30 4737 C 439.161 -1.27312 1.39417 0
M  V30 4738 O 438.518 -1.75949 0.484582 0
M  V30 4739 C 438.569 -0.206118 3.60912 0
M  V30 4740 O 438.29 1.0284 4.25859 0
M  V30 4741 C 439.791 -0.772033 4.36526 0
M  V30 4742 H 437.011 0.0375239 0.66995 0
M  V30 4743 H 439.555 0.747032 1.90367 0
M  V30 4744 H 437.71 -0.89091 3.77017 0
M  V30 4745 H 438.124 0.814654 5.18135 0
M  V30 4746 H 439.598 -0.874251 5.45033 0
M  V30 4747 H 440.075 -1.77904 4.01555 0
M  V30 4748 H 440.681 -0.123526 4.25121 0
M  V30 4749 N 438.996 -1.55193 0.274407 0
M  V30 4750 C 440.244 -1.99187 -0.341902 0
M  V30 4751 C 440.565 -1.16422 -1.56431 0
M  V30 4752 O 439.835 -0.253573 -1.94252 0
M  V30 4753 H 438.415 -0.735721 -0.129317 0
M  V30 4754 H 441.077 -1.91168 0.379578 0
M  V30 4755 H 440.173 -3.05629 -0.632253 0
M  V30 4756 N 440.474 -0.00167713 -1.576 0
M  V30 4757 C 441.704 0.692754 -1.94639 0
M  V30 4758 C 442.112 1.67744 -0.87513 0
M  V30 4759 O 441.455 1.8305 0.154382 0
M  V30 4760 C 441.517 1.47881 -3.27676 0
M  V30 4761 C 441.181 0.655518 -4.52274 0
M  V30 4762 C 442.178 -0.0575214 -5.19868 0
M  V30 4763 C 439.863 0.600994 -4.98692 0
M  V30 4764 C 441.857 -0.814052 -6.3218 0
M  V30 4765 C 439.544 -0.15926 -6.10892 0
M  V30 4766 C 440.542 -0.865515 -6.77494 0
M  V30 4767 O 440.23 -1.61336 -7.87544 0
M  V30 4768 H 439.962 0.197792 -0.646417 0
M  V30 4769 H 442.516 -0.049423 -2.05341 0
M  V30 4770 H 440.746 2.2655 -3.13388 0
M  V30 4771 H 442.435 2.05874 -3.49816 0
M  V30 4772 H 443.201 -0.0245611 -4.84994 0
M  V30 4773 H 439.08 1.14025 -4.46676 0
M  V30 4774 H 442.624 -1.36584 -6.84098 0
M  V30 4775 H 438.521 -0.194035 -6.45208 0
M  V30 4776 H 439.289 -1.53025 -8.04068 0
M  V30 4777 N 441.952 1.55251 0.271103 0
M  V30 4778 C 442.884 1.84675 1.35749 0
M  V30 4779 C 443.897 0.731366 1.45447 0
M  V30 4780 O 445.086 1.00924 1.4723 0
M  V30 4781 C 442.186 1.99638 2.73857 0
M  V30 4782 C 441.359 3.30312 2.86727 0
M  V30 4783 C 440.418 3.35318 4.05522 0
M  V30 4784 O 439.444 4.08682 3.96191 0
M  V30 4785 N 440.646 2.62857 5.17577 0
M  V30 4786 H 443.411 2.78445 1.10853 0
M  V30 4787 H 440.972 1.55191 0.461218 0
M  V30 4788 H 442.964 2.00355 3.51625 0
M  V30 4789 H 441.534 1.12725 2.91568 0
M  V30 4790 H 440.754 3.42118 1.95829 0
M  V30 4791 H 442.042 4.16488 2.92258 0
M  V30 4792 H 441.44 2.02939 5.28046 0
M  V30 4793 H 439.997 2.69295 5.93568 0
M  V30 4794 N 443.43 -0.535701 1.48216 0
M  V30 4795 C 444.362 -1.65662 1.58394 0
M  V30 4796 C 445.375 -1.5591 0.468607 0
M  V30 4797 O 446.564 -1.62475 0.7392 0
M  V30 4798 C 443.664 -3.04276 1.4923 0
M  V30 4799 C 442.837 -3.39567 2.75705 0
M  V30 4800 C 441.896 -4.57436 2.60075 0
M  V30 4801 O 440.922 -4.60942 3.33948 0
M  V30 4802 N 442.124 -5.55259 1.69315 0
M  V30 4803 H 444.889 -1.5737 2.55058 0
M  V30 4804 H 442.45 -0.722845 1.44867 0
M  V30 4805 H 444.442 -3.80994 1.36477 0
M  V30 4806 H 443.012 -3.06677 0.605632 0
M  V30 4807 H 442.232 -2.52083 3.03064 0
M  V30 4808 H 443.52 -3.59929 3.59623 0
M  V30 4809 H 442.918 -5.552 1.08489 0
M  V30 4810 H 441.475 -6.31218 1.62504 0
M  V30 4811 N 444.908 -1.36708 -0.784132 0
M  V30 4812 C 445.838 -1.34153 -1.91116 0
M  V30 4813 C 446.819 -0.212121 -1.68772 0
M  V30 4814 O 448.004 -0.410581 -1.8981 0
M  V30 4815 C 445.134 -1.13535 -3.28218 0
M  V30 4816 C 444.088 -2.23356 -3.65097 0
M  V30 4817 C 443.414 -1.87875 -5.00607 0
M  V30 4818 C 444.714 -3.65473 -3.73131 0
M  V30 4819 H 446.408 -2.28459 -1.93512 0
M  V30 4820 H 443.954 -1.09973 -0.929618 0
M  V30 4821 H 445.907 -1.10381 -4.06687 0
M  V30 4822 H 444.631 -0.156804 -3.26223 0
M  V30 4823 H 443.29 -2.25645 -2.88929 0
M  V30 4824 H 442.938 -0.885814 -4.95139 0
M  V30 4825 H 442.638 -2.61406 -5.26252 0
M  V30 4826 H 444.162 -1.86286 -5.81489 0
M  V30 4827 H 445.576 -3.65382 -4.41779 0
M  V30 4828 H 443.973 -4.37953 -4.10265 0
M  V30 4829 H 445.043 -3.99995 -2.74102 0
M  V30 4830 N 446.386 1.0089 -1.21074 0
M  V30 4831 C 447.633 1.74607 -1.0256 0
M  V30 4832 C 447.961 1.89426 0.44136 0
M  V30 4833 O 447.216 1.42266 1.34384 0
M  V30 4834 C 447.515 3.16335 -1.66334 0
M  V30 4835 C 447.181 3.21474 -3.16173 0
M  V30 4836 C 445.843 3.22583 -3.57062 0
M  V30 4837 C 448.195 3.19025 -4.12156 0
M  V30 4838 C 445.523 3.18925 -4.92446 0
M  V30 4839 C 447.875 3.16909 -5.47496 0
M  V30 4840 C 446.539 3.16326 -5.87787 0
M  V30 4841 H 445.809 0.638933 -0.375294 0
M  V30 4842 H 448.456 1.18274 -1.50611 0
M  V30 4843 H 446.761 3.75876 -1.10566 0
M  V30 4844 H 448.458 3.72083 -1.49516 0
M  V30 4845 H 445.048 3.2135 -2.83605 0
M  V30 4846 H 449.232 3.17332 -3.81595 0
M  V30 4847 H 444.488 3.16809 -5.22917 0
M  V30 4848 H 448.662 3.13968 -6.21609 0
M  V30 4849 H 446.289 3.13246 -6.92662 0
M  V30 4850 N 447.864 1.01787 1.20321 0
M  V30 4851 C 449.104 0.716493 1.91431 0
M  V30 4852 C 449.468 -0.740352 1.77152 0
M  V30 4853 O 450.669 -1.1543 2.42754 0
M  V30 4854 C 448.94 1.14169 3.38674 0
M  V30 4855 S 450.499 0.962482 4.28114 0
M  V30 4856 H 447.317 0.261175 0.661293 0
M  V30 4857 H 449.919 1.30539 1.45533 0
M  V30 4858 H 448.623 2.19784 3.46588 0
M  V30 4859 H 448.154 0.545621 3.89598 0
M  V30 4860 H 450.169 -0.133253 4.96021 0
M  V30 4861 N 449.342 -1.36122 0.79427 0
M  V30 4862 C 450.582 -2.00942 0.374376 0
M  V30 4863 C 450.946 -1.61666 -1.03577 0
M  V30 4864 O 452.147 -2.19113 -1.55701 0
M  V30 4865 C 450.418 -3.53323 0.538327 0
M  V30 4866 S 451.977 -4.38311 0.20703 0
M  V30 4867 H 448.795 -0.696515 0.142785 0
M  V30 4868 H 451.397 -1.65929 1.03382 0
M  V30 4869 H 450.101 -3.79395 1.56484 0
M  V30 4870 H 449.632 -3.93162 -0.136882 0
M  V30 4871 H 451.647 -4.8623 -0.989695 0
M  V30 4872 N 450.82 -0.546701 -1.47814 0
M  V30 4873 C 452.236 -0.205717 -1.58269 0
M  V30 4874 C 452.436 1.29153 -1.54667 0
M  V30 4875 O 451.492 2.07098 -1.44453 0
M  V30 4876 C 452.805 -0.823065 -2.89216 0
M  V30 4877 C 454.353 -0.793328 -3.02779 0
M  V30 4878 C 454.828 -1.38955 -4.36412 0
M  V30 4879 N 456.319 -1.35227 -4.43021 0
M  V30 4880 C 457.054 -1.78333 -5.44963 0
M  V30 4881 N 456.55 -2.29246 -6.53772 0
M  V30 4882 N 458.343 -1.69467 -5.35945 0
M  V30 4883 H 450.494 -1.5196 -1.48398 0
M  V30 4884 H 452.757 -0.633078 -0.705632 0
M  V30 4885 H 452.463 -1.8749 -2.97558 0
M  V30 4886 H 452.337 -0.309915 -3.75925 0
M  V30 4887 H 454.724 0.249784 -2.94041 0
M  V30 4888 H 454.805 -1.34412 -2.17639 0
M  V30 4889 H 454.449 -2.43168 -4.45906 0
M  V30 4890 H 454.379 -0.814291 -5.20266 0
M  V30 4891 H 456.87 -0.979739 -3.64979 0
M  V30 4892 H 457.183 -2.60089 -7.27718 0
M  V30 4893 H 455.528 -2.3325 -6.5469 0
M  V30 4894 H 458.719 -1.29477 -4.49837 0
M  V30 4895 H 458.892 -2.03381 -6.15256 0
M  V30 4896 N 452.299 1.55045 -0.282633 0
M  V30 4897 C 453.229 2.2579 0.595066 0
M  V30 4898 C 454.21 1.25074 1.15284 0
M  V30 4899 O 455.395 1.5381 1.18559 0
M  V30 4900 C 452.525 2.98472 1.77572 0
M  V30 4901 C 451.479 4.0618 1.34914 0
M  V30 4902 C 450.805 4.66477 2.6135 0
M  V30 4903 C 452.105 5.1996 0.493821 0
M  V30 4904 H 453.799 2.994 0.00505653 0
M  V30 4905 H 451.345 1.44 0.000992001 0
M  V30 4906 H 453.298 3.46677 2.39568 0
M  V30 4907 H 452.022 2.2241 2.39168 0
M  V30 4908 H 450.681 3.58797 0.752338 0
M  V30 4909 H 450.329 3.87074 3.2122 0
M  V30 4910 H 450.029 5.39207 2.33516 0
M  V30 4911 H 451.553 5.17435 3.24181 0
M  V30 4912 H 452.967 5.64172 1.01898 0
M  V30 4913 H 451.364 5.99299 0.310047 0
M  V30 4914 H 452.434 4.82462 -0.485593 0
M  V30 4915 N 453.777 0.010035 1.57597 0
M  V30 4916 C 454.74 -0.963029 2.07986 0
M  V30 4917 C 455.74 -1.26619 0.991173 0
M  V30 4918 O 456.93 -1.2097 1.25347 0
M  V30 4919 C 454.062 -2.2851 2.52974 0
M  V30 4920 H 455.255 -0.526971 2.95234 0
M  V30 4921 H 452.808 -0.237639 1.54483 0
M  V30 4922 H 453.543 -2.76784 1.69 0
M  V30 4923 H 453.328 -2.07824 3.32493 0
M  V30 4924 H 454.818 -2.98294 2.9225 0
M  V30 4925 N 455.255 -1.55392 -0.262866 0
M  V30 4926 C 456.203 -1.8977 -1.345 0
M  V30 4927 C 457.197 -0.775063 -1.50629 0
M  V30 4928 O 458.403 -0.959519 -1.52293 0
M  V30 4929 H 454.778 -0.602467 -0.450041 0
M  V30 4930 H 456.749 -2.80147 -1.02762 0
M  V30 4931 C 455.498 -2.19501 -2.69657 0
M  V30 4932 H 454.821 -3.05378 -2.5804 0
M  V30 4933 H 456.261 -2.47469 -3.44289 0
M  V30 4934 C 454.72 -1.00597 -3.21531 0
M  V30 4935 O 455.25 -0.245768 -4.00947 0
M  V30 4936 N 453.456 -0.800911 -2.79345 0
M  V30 4937 H 453.003 -1.42079 -2.14875 0
M  V30 4938 H 452.961 -0.00697996 -3.14399 0
M  V30 4939 N 456.733 0.527833 -1.48498 0
M  V30 4940 C 458.149 0.856571 -1.34666 0
M  V30 4941 C 458.349 1.98271 -0.35931 0
M  V30 4942 O 457.405 2.51551 0.218703 0
M  V30 4943 C 458.718 1.22207 -2.74747 0
M  V30 4944 C 460.266 1.33183 -2.83251 0
M  V30 4945 C 460.741 1.73075 -4.24039 0
M  V30 4946 N 462.232 1.80174 -4.26722 0
M  V30 4947 C 462.967 2.1243 -5.32598 0
M  V30 4948 N 462.463 2.43096 -6.4875 0
M  V30 4949 N 464.256 2.13454 -5.19994 0
M  V30 4950 H 456.407 -0.215174 -2.11307 0
M  V30 4951 H 458.67 -0.0336281 -0.947403 0
M  V30 4952 H 458.376 0.468195 -3.4857 0
M  V30 4953 H 458.25 2.17173 -3.08409 0
M  V30 4954 H 460.637 2.07647 -2.09683 0
M  V30 4955 H 460.718 0.363333 -2.53206 0
M  V30 4956 H 460.362 0.991712 -4.98124 0
M  V30 4957 H 460.292 2.70979 -4.51529 0
M  V30 4958 H 462.783 1.58744 -3.42942 0
M  V30 4959 H 463.096 2.6682 -7.25277 0
M  V30 4960 H 461.441 2.40611 -6.52021 0
M  V30 4961 H 464.632 1.88956 -4.28268 0
M  V30 4962 H 464.805 2.38261 -6.02608 0
M  V30 4963 N 458.211 1.37122 0.776871 0
M  V30 4964 C 459.159 1.32549 1.91138 0
M  V30 4965 C 460.153 0.215119 1.68029 0
M  V30 4966 O 461.359 0.382852 1.75881 0
M  V30 4967 H 457.734 0.412952 0.62847 0
M  V30 4968 H 459.705 2.28332 1.92112 0
M  V30 4969 C 458.454 1.14422 3.28333 0
M  V30 4970 H 457.777 1.99115 3.46689 0
M  V30 4971 H 459.217 1.15272 4.0803 0
M  V30 4972 C 457.676 -0.150434 3.36564 0
M  V30 4973 O 458.206 -1.13584 3.85307 0
M  V30 4974 N 456.412 -0.19939 2.89915 0
M  V30 4975 H 455.959 0.603142 2.5044 0
M  V30 4976 H 455.917 -1.06526 2.95803 0
M  V30 4977 N 459.689 -1.00246 1.21608 0
M  V30 4978 C 460.914 -1.78167 1.06167 0
M  V30 4979 C 461.339 -1.84138 -0.384035 0
M  V30 4980 O 460.697 -1.28683 -1.27712 0
M  V30 4981 C 460.745 -3.19786 1.66642 0
M  V30 4982 O 459.849 -4.02153 0.913613 0
M  V30 4983 H 459.19 -0.549 0.37349 0
M  V30 4984 H 461.72 -1.25994 1.61204 0
M  V30 4985 H 461.73 -3.70451 1.70969 0
M  V30 4986 H 460.405 -3.14754 2.7185 0
M  V30 4987 H 458.982 -3.60711 0.945635 0
M  V30 4988 N 461.167 -1.02423 -1.1978 0
M  V30 4989 C 462.117 -0.571689 -2.20716 0
M  V30 4990 C 463.101 0.377077 -1.56419 0
M  V30 4991 O 464.293 0.198801 -1.7588 0
M  V30 4992 C 461.422 0.0808555 -3.43205 0
M  V30 4993 C 460.508 -0.890073 -4.14655 0
M  V30 4994 N 460.899 -2.05065 -4.62366 0
M  V30 4995 C 459.197 -0.71252 -4.40272 0
M  V30 4996 C 459.898 -2.66264 -5.17183 0
M  V30 4997 N 458.874 -1.94264 -5.07703 0
M  V30 4998 H 462.676 -1.45636 -2.55279 0
M  V30 4999 H 460.19 -0.890596 -1.35802 0
M  V30 5000 H 462.187 0.422654 -4.14752 0
M  V30 5001 H 460.847 0.961274 -3.10144 0
M  V30 5002 H 461.858 -2.43026 -4.57339 0
M  V30 5003 H 458.535 0.119199 -4.1733 0
M  V30 5004 H 459.925 -3.64526 -5.64421 0
M  V30 5005 N 462.645 1.35699 -0.801477 0
M  V30 5006 C 463.592 2.29876 -0.206294 0
M  V30 5007 C 464.562 1.52565 0.656752 0
M  V30 5008 O 465.747 1.81024 0.602906 0
M  V30 5009 C 462.887 3.39052 0.643272 0
M  V30 5010 C 462 4.31335 -0.239644 0
M  V30 5011 C 461.135 5.27599 0.61744 0
M  V30 5012 C 460.174 6.11521 -0.26619 0
M  V30 5013 N 459.311 6.99938 0.550571 0
M  V30 5014 H 464.151 2.80187 -1.01484 0
M  V30 5015 H 461.688 1.37902 -0.511997 0
M  V30 5016 H 463.646 4.0101 1.15094 0
M  V30 5017 H 462.276 2.9003 1.41713 0
M  V30 5018 H 461.328 3.70426 -0.865381 0
M  V30 5019 H 462.64 4.90243 -0.919985 0
M  V30 5020 H 461.794 5.94906 1.19045 0
M  V30 5021 H 460.533 4.69176 1.33137 0
M  V30 5022 H 459.538 5.43166 -0.851507 0
M  V30 5023 H 460.763 6.72022 -0.9779 0
M  V30 5024 H 458.709 6.44008 1.24856 0
M  V30 5025 H 458.626 7.55966 -0.071832 0
M  V30 5026 H 459.894 7.71599 1.10702 0
M  V30 5027 N 464.123 0.554532 1.47522 0
M  V30 5028 C 465.351 0.034257 2.06872 0
M  V30 5029 C 465.766 -1.25826 1.40759 0
M  V30 5030 O 465.123 -1.75425 0.503217 0
M  V30 5031 C 465.174 -0.167827 3.6111 0
M  V30 5032 O 464.895 1.07351 4.24744 0
M  V30 5033 C 466.396 -0.72569 4.3732 0
M  V30 5034 H 463.616 0.0446275 0.669514 0
M  V30 5035 H 466.16 0.767181 1.89564 0
M  V30 5036 H 464.315 -0.850872 3.7794 0
M  V30 5037 H 464.729 0.869563 5.17242 0
M  V30 5038 H 466.203 -0.816394 5.45929 0
M  V30 5039 H 466.68 -1.73635 4.0342 0
M  V30 5040 H 467.286 -0.0784292 4.25228 0
M  V30 5041 N 465.601 -1.54893 0.290851 0
M  V30 5042 C 466.826 -2.04804 -0.32712 0
M  V30 5043 C 467.251 -1.16721 -1.47506 0
M  V30 5044 O 466.609 -0.169107 -1.8051 0
M  V30 5045 C 466.657 -3.52268 -0.770689 0
M  V30 5046 O 465.761 -3.67236 -1.87647 0
M  V30 5047 H 465.102 -0.660789 -0.0652227 0
M  V30 5048 H 467.632 -2.00036 0.429739 0
M  V30 5049 H 467.642 -3.9393 -1.06223 0
M  V30 5050 H 466.317 -4.15843 0.069096 0
M  V30 5051 H 464.894 -3.37479 -1.58626 0
M  V30 5052 N 467.08 -0.0183926 -1.57589 0
M  V30 5053 C 468.01 0.965596 -2.12599 0
M  V30 5054 C 468.991 1.34641 -1.0395 0
M  V30 5055 O 470.176 1.42693 -1.31729 0
M  V30 5056 C 467.306 2.25149 -2.64434 0
M  V30 5057 C 466.26 2.01175 -3.77773 0
M  V30 5058 C 465.586 3.35937 -4.15994 0
M  V30 5059 C 466.886 1.35953 -5.04296 0
M  V30 5060 H 468.58 0.507504 -2.95067 0
M  V30 5061 H 466.126 0.242671 -1.41941 0
M  V30 5062 H 468.079 2.94357 -3.01549 0
M  V30 5063 H 466.803 2.73105 -1.79112 0
M  V30 5064 H 465.462 1.34388 -3.4108 0
M  V30 5065 H 465.11 3.81631 -3.27669 0
M  V30 5066 H 464.81 3.20705 -4.92364 0
M  V30 5067 H 466.334 4.0643 -4.55683 0
M  V30 5068 H 467.748 1.95144 -5.39065 0
M  V30 5069 H 466.145 1.31152 -5.85593 0
M  V30 5070 H 467.215 0.331071 -4.83768 0
M  V30 5071 N 468.558 1.5553 0.254621 0
M  V30 5072 C 469.974 1.4778 0.602753 0
M  V30 5073 C 470.174 0.707047 1.88688 0
M  V30 5074 O 469.23 0.233288 2.5142 0
M  V30 5075 C 470.543 2.92133 0.712648 0
M  V30 5076 C 472.091 3.02458 0.805488 0
M  V30 5077 C 472.566 4.48102 0.947009 0
M  V30 5078 N 474.057 4.52008 1.01207 0
M  V30 5079 C 474.792 5.61939 1.1407 0
M  V30 5080 N 474.288 6.81697 1.23536 0
M  V30 5081 N 476.081 5.49719 1.17325 0
M  V30 5082 H 468.232 2.04085 -0.588463 0
M  V30 5083 H 470.495 0.926229 -0.202001 0
M  V30 5084 H 470.201 3.51332 -0.160766 0
M  V30 5085 H 470.075 3.42187 1.58707 0
M  V30 5086 H 472.462 2.43344 1.66936 0
M  V30 5087 H 472.543 2.55627 -0.0939266 0
M  V30 5088 H 472.187 5.07824 0.087725 0
M  V30 5089 H 472.117 4.92607 1.86135 0
M  V30 5090 H 474.608 3.65749 0.950577 0
M  V30 5091 H 474.921 7.61228 1.33236 0
M  V30 5092 H 473.266 6.84473 1.20508 0
M  V30 5093 H 476.457 4.55095 1.09573 0
M  V30 5094 H 476.63 6.35432 1.27005 0
M  V30 5095 N 470.036 -0.519951 1.48776 0
M  V30 5096 C 471.261 -1.30447 1.6124 0
M  V30 5097 C 471.686 -1.86055 0.276591 0
M  V30 5098 O 471.044 -1.64915 -0.753183 0
M  V30 5099 C 471.092 -2.42406 2.66967 0
M  V30 5100 O 470.196 -3.45728 2.24824 0
M  V30 5101 H 469.537 -0.385924 0.540332 0
M  V30 5102 H 472.067 -0.624572 1.94834 0
M  V30 5103 H 472.077 -2.88447 2.88552 0
M  V30 5104 H 470.752 -2.01294 3.63941 0
M  V30 5105 H 469.329 -3.05737 2.13494 0
M  V30 5106 N 471.514 -1.37532 -0.769588 0
M  V30 5107 C 472.462 -1.33561 -1.90432 0
M  V30 5108 C 473.456 -0.224027 -1.67912 0
M  V30 5109 O 474.662 -0.392174 -1.75676 0
M  V30 5110 H 471.037 -0.416279 -0.626271 0
M  V30 5111 H 473.008 -2.29348 -1.90899 0
M  V30 5112 C 471.757 -1.16162 -3.27722 0
M  V30 5113 H 471.08 -2.00951 -3.45628 0
M  V30 5114 H 472.52 -1.17434 -4.07413 0
M  V30 5115 C 470.979 0.132583 -3.36639 0
M  V30 5116 O 471.509 1.11539 -3.85904 0
M  V30 5117 N 469.715 0.184013 -2.90017 0
M  V30 5118 H 469.262 -0.616415 -2.50116 0
M  V30 5119 H 469.22 1.04956 -2.96364 0
M  V30 5120 N 472.992 0.995999 -1.22138 0
M  V30 5121 C 473.955 2.06711 -0.990109 0
M  V30 5122 C 474.955 1.60744 0.0422978 0
M  V30 5123 O 476.145 1.73095 -0.195895 0
M  V30 5124 C 473.277 3.37288 -0.49491 0
M  V30 5125 H 474.47 2.28661 -1.94047 0
M  V30 5126 H 472.023 1.16711 -1.03963 0
M  V30 5127 H 472.758 3.21022 0.459948 0
M  V30 5128 H 472.543 3.71986 -1.23971 0
M  V30 5129 H 474.033 4.16103 -0.353253 0
M  V30 5130 N 474.47 1.03057 1.19235 0
M  V30 5131 C 475.695 0.74757 1.93458 0
M  V30 5132 C 476.12 -0.687648 1.7508 0
M  V30 5133 O 475.478 -1.47499 1.05422 0
M  V30 5134 C 475.526 1.10604 3.43219 0
M  V30 5135 O 474.63 0.225671 4.11782 0
M  V30 5136 H 473.971 0.276047 0.603899 0
M  V30 5137 H 476.501 1.3777 1.51263 0
M  V30 5138 H 476.511 1.06366 3.93891 0
M  V30 5139 H 475.186 2.15165 3.55917 0
M  V30 5140 H 473.763 0.326795 3.71465 0
M  V30 5141 N 475.948 -1.35272 0.808662 0
M  V30 5142 C 476.88 -2.28507 0.178149 0
M  V30 5143 C 477.893 -1.50377 -0.623754 0
M  V30 5144 O 479.082 -1.72583 -0.455774 0
M  V30 5145 C 476.182 -3.30038 -0.769959 0
M  V30 5146 C 475.355 -4.37398 -0.0139749 0
M  V30 5147 C 474.414 -5.18775 -0.880875 0
M  V30 5148 O 473.44 -5.68236 -0.331059 0
M  V30 5149 N 474.642 -5.37087 -2.20267 0
M  V30 5150 H 477.407 -2.83255 0.979106 0
M  V30 5151 H 474.968 -1.47643 0.664308 0
M  V30 5152 H 476.96 -3.81371 -1.35418 0
M  V30 5153 H 475.53 -2.75789 -1.47171 0
M  V30 5154 H 474.75 -3.86971 0.751468 0
M  V30 5155 H 476.038 -5.06268 0.506965 0
M  V30 5156 H 475.436 -4.9855 -2.67328 0
M  V30 5157 H 473.993 -5.91593 -2.73608 0
M  V30 5158 N 477.426 -0.562348 -1.47226 0
M  V30 5159 C 478.356 0.170627 -2.32876 0
M  V30 5160 C 479.337 0.903748 -1.44106 0
M  V30 5161 O 480.522 0.883206 -1.72954 0
M  V30 5162 C 477.652 1.19786 -3.25989 0
M  V30 5163 C 476.606 0.580875 -4.2404 0
M  V30 5164 C 475.932 1.71311 -5.06514 0
M  V30 5165 C 477.232 -0.468714 -5.20193 0
M  V30 5166 H 478.926 -0.544441 -2.94408 0
M  V30 5167 H 476.472 -0.263271 -1.41573 0
M  V30 5168 H 478.425 1.71884 -3.84752 0
M  V30 5169 H 477.149 1.94294 -2.62521 0
M  V30 5170 H 475.808 0.0811538 -3.6651 0
M  V30 5171 H 475.456 2.44736 -4.39447 0
M  V30 5172 H 475.156 1.30604 -5.72902 0
M  V30 5173 H 476.68 2.23725 -5.68137 0
M  V30 5174 H 478.094 -0.0336028 -5.7329 0
M  V30 5175 H 476.491 -0.794957 -5.94811 0
M  V30 5176 H 477.561 -1.36269 -4.65359 0
M  V30 5177 N 478.904 1.54736 -0.299062 0
M  V30 5178 C 480.129 2.04975 0.316254 0
M  V30 5179 C 480.554 1.17501 1.46885 0
M  V30 5180 O 479.912 0.178678 1.80417 0
M  V30 5181 C 479.96 3.52672 0.751997 0
M  V30 5182 O 479.064 3.68226 1.85697 0
M  V30 5183 H 478.405 0.661126 0.0617175 0
M  V30 5184 H 480.935 1.99805 -0.440341 0
M  V30 5185 H 480.945 3.94488 1.04133 0
M  V30 5186 H 479.62 4.158 -0.0911482 0
M  V30 5187 H 478.197 3.38316 1.56834 0
M  V30 5188 N 480.382 0.0267497 1.57577 0
M  V30 5189 C 481.798 -0.32962 1.56159 0
M  V30 5190 C 481.998 -1.73059 1.03213 0
M  V30 5191 O 481.054 -2.43233 0.677804 0
M  V30 5192 C 482.367 -0.18039 3.00158 0
M  V30 5193 C 483.915 -0.253334 3.11973 0
M  V30 5194 C 484.39 -0.132921 4.57807 0
M  V30 5195 N 485.881 -0.189979 4.6281 0
M  V30 5196 C 486.616 -0.120554 5.73273 0
M  V30 5197 N 486.112 -0.000180315 6.928 0
M  V30 5198 N 487.905 -0.174369 5.61829 0
M  V30 5199 H 480.056 0.942896 1.90324 0
M  V30 5200 H 482.319 0.3639 0.875375 0
M  V30 5201 H 482.025 0.784576 3.42837 0
M  V30 5202 H 481.899 -0.951565 3.65 0
M  V30 5203 H 484.286 -1.20876 2.69208 0
M  V30 5204 H 484.367 0.548177 2.49857 0
M  V30 5205 H 484.011 0.819073 5.01252 0
M  V30 5206 H 483.941 -0.953264 5.179 0
M  V30 5207 H 486.432 -0.283257 3.76837 0
M  V30 5208 H 486.745 0.0461666 7.72786 0
M  V30 5209 H 485.09 0.034569 6.94991 0
M  V30 5210 H 488.281 -0.266794 4.67339 0
M  V30 5211 H 488.454 -0.116802 6.47895 0
M  V30 5212 N 481.861 -1.55662 -0.24637 0
M  V30 5213 C 483.089 -1.81575 -0.991876 0
M  V30 5214 C 483.504 -0.602545 -1.78927 0
M  V30 5215 O 482.861 0.428795 -1.77391 0
M  V30 5216 C 482.912 -3.05711 -1.92933 0
M  V30 5217 O 482.633 -4.22348 -1.1642 0
M  V30 5218 C 484.134 -3.44428 -2.79078 0
M  V30 5219 H 481.354 -0.604209 -0.291844 0
M  V30 5220 H 483.898 -2.02722 -0.269095 0
M  V30 5221 H 482.053 -2.86612 -2.60638 0
M  V30 5222 H 482.467 -4.92706 -1.79835 0
M  V30 5223 H 483.941 -4.34388 -3.40603 0
M  V30 5224 H 484.418 -2.65037 -3.50217 0
M  V30 5225 H 485.024 -3.65879 -2.16824 0
M  V30 5226 N 483.339 0.512053 -1.4905 0
M  V30 5227 C 484.271 1.63121 -1.6101 0
M  V30 5228 C 485.284 1.55145 -0.493352 0
M  V30 5229 O 486.473 1.61278 -0.764955 0
M  V30 5230 C 483.573 3.01863 -1.54052 0
M  V30 5231 C 482.746 3.35138 -2.81072 0
M  V30 5232 C 481.805 4.5324 -2.67319 0
M  V30 5233 O 480.831 4.55571 -3.41238 0
M  V30 5234 N 482.033 5.52495 -1.78127 0
M  V30 5235 H 484.798 1.53292 -2.5753 0
M  V30 5236 H 482.359 0.699706 -1.45999 0
M  V30 5237 H 484.351 3.78774 -1.42521 0
M  V30 5238 H 482.921 3.05675 -0.654345 0
M  V30 5239 H 482.141 2.4723 -3.07036 0
M  V30 5240 H 483.429 3.54162 -3.65304 0
M  V30 5241 H 482.827 5.53403 -1.17308 0
M  V30 5242 H 481.384 6.28553 -1.72525 0
M  V30 5243 N 484.817 1.37938 0.762283 0
M  V30 5244 C 486.042 1.37059 1.55659 0
M  V30 5245 C 486.467 -0.0396123 1.88058 0
M  V30 5246 O 485.825 -1.01929 1.49934 0
M  V30 5247 C 485.873 2.22494 2.83776 0
M  V30 5248 O 484.977 1.63607 3.78559 0
M  V30 5249 H 484.318 0.467892 0.47114 0
M  V30 5250 H 486.848 1.81587 0.942725 0
M  V30 5251 H 486.858 2.36045 3.32786 0
M  V30 5252 H 485.533 3.24993 2.59524 0
M  V30 5253 H 484.11 1.5915 3.37233 0
M  V30 5254 N 486.295 -0.989507 1.22664 0
M  V30 5255 C 487.711 -1.25395 0.987331 0
M  V30 5256 C 487.911 -1.9899 -0.317056 0
M  V30 5257 O 486.967 -2.30141 -1.03882 0
M  V30 5258 C 488.28 -2.06242 2.18826 0
M  V30 5259 C 489.828 -2.19413 2.23219 0
M  V30 5260 C 490.303 -3.03648 3.42873 0
M  V30 5261 N 491.794 -3.11234 3.43056 0
M  V30 5262 C 492.529 -3.7671 4.32293 0
M  V30 5263 N 492.025 -4.44085 5.31752 0
M  V30 5264 N 493.818 -3.73505 4.2006 0
M  V30 5265 H 485.969 -0.496212 2.06522 0
M  V30 5266 H 488.232 -0.281784 0.905153 0
M  V30 5267 H 487.938 -1.59531 3.13437 0
M  V30 5268 H 487.812 -3.06996 2.19165 0
M  V30 5269 H 490.199 -2.65336 1.29154 0
M  V30 5270 H 490.28 -1.18078 2.26917 0
M  V30 5271 H 489.924 -2.58424 4.37241 0
M  V30 5272 H 489.854 -4.05132 3.36416 0
M  V30 5273 H 492.345 -2.63287 2.71088 0
M  V30 5274 H 492.658 -4.91797 5.96117 0
M  V30 5275 H 491.003 -4.42822 5.35662 0
M  V30 5276 H 494.194 -3.20033 3.41609 0
M  V30 5277 H 494.367 -4.24253 4.8981 0
M  V30 5278 N 487.773 -1.03688 -1.18687 0
M  V30 5279 C 488.683 -0.634908 -2.25845 0
M  V30 5280 C 489.699 0.337065 -1.70704 0
M  V30 5281 O 490.875 0.192943 -2.00474 0
M  V30 5282 C 487.94 -0.000180054 -3.467 0
M  V30 5283 C 487.001 -1.02067 -4.1699 0
M  V30 5284 C 486.234 -0.41614 -5.32075 0
M  V30 5285 O 486.457 0.778712 -5.65059 0
M  V30 5286 O 485.391 -1.14296 -5.90948 0
M  V30 5287 H 489.217 -1.52757 -2.62486 0
M  V30 5288 H 486.802 -0.807533 -1.25695 0
M  V30 5289 H 488.684 0.353342 -4.19916 0
M  V30 5290 H 487.359 0.866367 -3.11891 0
M  V30 5291 H 486.266 -1.42592 -3.45859 0
M  V30 5292 H 487.599 -1.85786 -4.5579 0
M  V30 5293 N 489.251 1.34841 -0.815825 0
M  V30 5294 C 490.662 1.80937 -0.46029 0
M  V30 5295 C 491.013 1.67685 1.01863 0
M  V30 5296 O 490.138 1.21277 1.79223 0
M  V30 5297 C 490.733 3.28509 -0.828708 0
M  V30 5298 C 489.292 3.72712 -0.525644 0
M  V30 5299 C 488.439 2.56676 -1.04941 0
M  V30 5300 H 491.39 1.22688 -1.00664 0
M  V30 5301 H 491.411 3.80279 -0.129757 0
M  V30 5302 H 490.923 3.38122 -1.90513 0
M  V30 5303 H 489.024 3.68642 0.541666 0
M  V30 5304 H 489.137 4.67119 -1.06474 0
M  V30 5305 H 487.501 2.50302 -0.471286 0
M  V30 5306 H 488.284 2.69063 -2.13214 0
M  V30 5307 N 490.729 0.570148 1.46925 0
M  V30 5308 C 492.145 0.23087 1.57921 0
M  V30 5309 C 492.345 -1.26676 1.56702 0
M  V30 5310 O 491.401 -2.04774 1.47729 0
M  V30 5311 C 492.714 0.868973 2.8787 0
M  V30 5312 C 494.262 0.841397 3.01479 0
M  V30 5313 C 494.737 1.45881 4.34146 0
M  V30 5314 N 496.228 1.42258 4.40814 0
M  V30 5315 C 496.963 1.8698 5.42057 0
M  V30 5316 N 496.459 2.39618 6.50042 0
M  V30 5317 N 498.252 1.77972 5.33181 0
M  V30 5318 H 490.403 1.54301 1.45962 0
M  V30 5319 H 492.666 0.644224 0.69547 0
M  V30 5320 H 492.372 1.922 2.94537 0
M  V30 5321 H 492.246 0.369682 3.75384 0
M  V30 5322 H 494.633 -0.202973 2.94401 0
M  V30 5323 H 494.714 1.37858 2.15474 0
M  V30 5324 H 494.358 2.50231 4.4198 0
M  V30 5325 H 494.288 0.896958 5.18905 0
M  V30 5326 H 496.779 1.03768 3.63374 0
M  V30 5327 H 497.092 2.71633 7.23488 0
M  V30 5328 H 495.437 2.43636 6.50897 0
M  V30 5329 H 498.628 1.36617 4.4772 0
M  V30 5330 H 498.801 2.13143 6.11943 0
M  V30 5331 N 492.207 -1.54576 0.307264 0
M  V30 5332 C 493.139 -2.21212 -0.599807 0
M  V30 5333 C 494.152 -1.20685 -1.09266 0
M  V30 5334 O 495.341 -1.47244 -1.00903 0
M  V30 5335 C 492.441 -2.84994 -1.83389 0
M  V30 5336 C 491.614 -4.11511 -1.48248 0
M  V30 5337 C 490.673 -4.59038 -2.57237 0
M  V30 5338 O 489.699 -5.24095 -2.22065 0
M  V30 5339 N 490.901 -4.31884 -3.87887 0
M  V30 5340 H 493.666 -2.99686 -0.0293075 0
M  V30 5341 H 491.227 -1.61379 0.129738 0
M  V30 5342 H 493.219 -3.1372 -2.5566 0
M  V30 5343 H 491.789 -2.10324 -2.31263 0
M  V30 5344 H 491.009 -3.89728 -0.592122 0
M  V30 5345 H 492.297 -4.93879 -1.22316 0
M  V30 5346 H 491.695 -3.79778 -4.19268 0
M  V30 5347 H 490.252 -4.65304 -4.56438 0
M  V30 5348 N 493.685 -0.035106 -1.57561 0
M  V30 5349 C 494.617 0.973604 -2.07494 0
M  V30 5350 C 495.63 1.28504 -0.999534 0
M  V30 5351 O 496.819 1.24864 -1.27559 0
M  V30 5352 C 493.919 2.29945 -2.48955 0
M  V30 5353 C 493.092 2.1723 -3.79644 0
M  V30 5354 C 492.151 3.328 -4.07592 0
M  V30 5355 O 491.177 3.09418 -4.77754 0
M  V30 5356 N 492.379 4.56779 -3.58236 0
M  V30 5357 H 495.144 0.547525 -2.94656 0
M  V30 5358 H 492.705 0.151515 -1.61189 0
M  V30 5359 H 494.697 3.06097 -2.64739 0
M  V30 5360 H 493.267 2.64173 -1.67126 0
M  V30 5361 H 492.487 1.25768 -3.73599 0
M  V30 5362 H 493.775 2.05945 -4.65257 0
M  V30 5363 H 493.173 4.78668 -3.01485 0
M  V30 5364 H 491.73 5.30079 -3.79288 0
M  V30 5365 N 495.163 1.55791 0.238111 0
M  V30 5366 C 496.073 1.94196 1.31625 0
M  V30 5367 C 497.089 0.843545 1.52185 0
M  V30 5368 O 498.265 1.1457 1.65637 0
M  V30 5369 C 495.33 2.2365 2.64918 0
M  V30 5370 C 494.391 3.46971 2.52804 0
M  V30 5371 C 493.624 3.7501 3.79741 0
M  V30 5372 O 493.847 3.04982 4.82019 0
M  V30 5373 O 492.781 4.68525 3.77846 0
M  V30 5374 H 496.607 2.86044 1.02043 0
M  V30 5375 H 494.192 1.42786 0.439603 0
M  V30 5376 H 496.074 2.43863 3.4367 0
M  V30 5377 H 494.749 1.34979 2.94215 0
M  V30 5378 H 493.656 3.32055 1.72309 0
M  V30 5379 H 494.989 4.35971 2.28451 0
M  V30 5380 N 496.642 -0.504142 1.49319 0
M  V30 5381 C 497.552 -1.63248 1.68486 0
M  V30 5382 C 498.568 -1.64488 0.567432 0
M  V30 5383 O 499.744 -1.82966 0.841749 0
M  V30 5384 C 496.809 -2.99627 1.74426 0
M  V30 5385 C 495.87 -3.09039 2.97982 0
M  V30 5386 C 495.103 -4.38913 3.0363 0
M  V30 5387 O 495.326 -5.27528 2.16958 0
M  V30 5388 O 494.26 -4.53231 3.96062 0
M  V30 5389 H 498.086 -1.50008 2.64067 0
M  V30 5390 H 495.671 -0.680086 1.33023 0
M  V30 5391 H 497.553 -3.80689 1.80705 0
M  V30 5392 H 496.228 -3.13136 0.820233 0
M  V30 5393 H 495.135 -2.27177 2.97223 0
M  V30 5394 H 496.468 -3.00456 3.89855 0
M  V30 5395 N 498.12 -1.38341 -0.754957 0
M  V30 5396 C 499.067 -1.3546 -1.86867 0
M  V30 5397 C 500.037 -0.217369 -1.64672 0
M  V30 5398 O 501.222 -0.409383 -1.86356 0
M  V30 5399 C 498.362 -1.18413 -3.24149 0
M  V30 5400 C 497.475 -2.41511 -3.58185 0
M  V30 5401 C 496.61 -2.17205 -4.84763 0
M  V30 5402 C 495.649 -3.36081 -5.11582 0
M  V30 5403 N 494.786 -3.11219 -6.29354 0
M  V30 5404 H 499.626 -2.30672 -1.88664 0
M  V30 5405 H 497.163 -1.14607 -0.922154 0
M  V30 5406 H 499.121 -1.06545 -4.03366 0
M  V30 5407 H 497.751 -0.268397 -3.21682 0
M  V30 5408 H 496.803 -2.64056 -2.73822 0
M  V30 5409 H 498.115 -3.30115 -3.73932 0
M  V30 5410 H 497.269 -2.02465 -5.7192 0
M  V30 5411 H 496.008 -1.25964 -4.71152 0
M  V30 5412 H 495.013 -3.51341 -4.22894 0
M  V30 5413 H 496.238 -4.28196 -5.27091 0
M  V30 5414 H 494.184 -2.22624 -6.17069 0
M  V30 5415 H 494.101 -3.93373 -6.45596 0
M  V30 5416 H 495.369 -3.00132 -7.19403 0
M  V30 5417 N 499.598 0.982988 -1.23187 0
M  V30 5418 C 501.009 1.53847 -1.05773 0
M  V30 5419 C 501.36 1.92568 0.375744 0
M  V30 5420 O 500.485 1.75783 1.26211 0
M  V30 5421 C 501.08 2.79567 -1.91384 0
M  V30 5422 C 499.639 3.31524 -1.78238 0
M  V30 5423 C 498.786 2.04534 -1.87246 0
M  V30 5424 H 501.737 0.802962 -1.36888 0
M  V30 5425 H 501.758 3.52317 -1.43711 0
M  V30 5426 H 501.27 2.51353 -2.95708 0
M  V30 5427 H 499.371 3.64623 -0.766875 0
M  V30 5428 H 499.484 4.01457 -2.61475 0
M  V30 5429 H 497.848 2.1855 -1.30797 0
M  V30 5430 H 498.631 1.78706 -2.9312 0
M  V30 5431 N 501.076 1.04316 1.18135 0
M  V30 5432 C 502.006 0.657299 2.24058 0
M  V30 5433 C 502.987 -0.340678 1.66654 0
M  V30 5434 O 504.172 -0.220223 1.92947 0
M  V30 5435 C 501.302 0.0220715 3.47293 0
M  V30 5436 C 500.256 0.943857 4.17463 0
M  V30 5437 C 499.582 0.172973 5.3442 0
M  V30 5438 C 500.882 2.26409 4.70677 0
M  V30 5439 H 502.576 1.5428 2.56589 0
M  V30 5440 H 500.122 0.743263 1.23335 0
M  V30 5441 H 502.075 -0.259607 4.206 0
M  V30 5442 H 500.799 -0.898323 3.14003 0
M  V30 5443 H 499.458 1.20996 3.46057 0
M  V30 5444 H 499.106 -0.749907 4.97379 0
M  V30 5445 H 498.806 0.787098 5.82304 0
M  V30 5446 H 500.33 -0.101628 6.10515 0
M  V30 5447 H 501.744 2.04294 5.35665 0
M  V30 5448 H 500.141 2.8314 5.29105 0
M  V30 5449 H 501.211 2.90883 3.87962 0
M  V30 5450 N 502.554 -1.34406 0.822964 0
M  V30 5451 C 503.501 -2.29519 0.24284 0
M  V30 5452 C 504.471 -1.5359 -0.632397 0
M  V30 5453 O 505.656 -1.8196 -0.57403 0
M  V30 5454 C 502.796 -3.40032 -0.58925 0
M  V30 5455 C 501.909 -4.30899 0.308236 0
M  V30 5456 C 501.044 -5.28515 -0.533425 0
M  V30 5457 C 500.083 -6.1102 0.363444 0
M  V30 5458 N 499.22 -7.00725 -0.439147 0
M  V30 5459 H 504.06 -2.78537 1.05929 0
M  V30 5460 H 501.597 -1.3707 0.533872 0
M  V30 5461 H 503.555 -4.0279 -1.087 0
M  V30 5462 H 502.185 -2.92248 -1.37081 0
M  V30 5463 H 501.237 -3.69002 0.924203 0
M  V30 5464 H 502.549 -4.88717 0.997862 0
M  V30 5465 H 501.703 -5.96725 -1.09565 0
M  V30 5466 H 500.442 -4.71235 -1.25656 0
M  V30 5467 H 499.447 -5.41743 0.937812 0
M  V30 5468 H 500.672 -6.70381 1.08469 0
M  V30 5469 H 498.618 -6.45913 -1.14595 0
M  V30 5470 H 498.535 -7.55756 0.19209 0
M  V30 5471 H 499.803 -7.73263 -0.984124 0
M  V30 5472 N 504.032 -0.577932 -1.46621 0
M  V30 5473 C 504.962 0.145917 -2.33044 0
M  V30 5474 C 505.943 0.888412 -1.45056 0
M  V30 5475 O 507.128 0.864812 -1.73881 0
M  V30 5476 C 504.258 1.16322 -3.27241 0
M  V30 5477 C 503.212 0.535868 -4.24632 0
M  V30 5478 C 502.538 1.65929 -5.08303 0
M  V30 5479 C 503.838 -0.523861 -5.19666 0
M  V30 5480 H 505.532 -0.575636 -2.93814 0
M  V30 5481 H 503.078 -0.278272 -1.41286 0
M  V30 5482 H 505.031 1.67793 -3.86553 0
M  V30 5483 H 503.755 1.91498 -2.64567 0
M  V30 5484 H 502.414 0.0422759 -3.66576 0
M  V30 5485 H 502.062 2.40061 -4.42018 0
M  V30 5486 H 501.762 1.2452 -5.74255 0
M  V30 5487 H 503.286 2.17686 -5.70478 0
M  V30 5488 H 504.7 -0.0944059 -5.73222 0
M  V30 5489 H 503.097 -0.858 -5.93935 0
M  V30 5490 H 504.167 -1.41197 -4.63887 0
M  V30 5491 N 505.51 1.54411 -0.315457 0
M  V30 5492 C 506.442 2.21527 0.588067 0
M  V30 5493 C 507.455 1.21263 1.08624 0
M  V30 5494 O 508.644 1.47777 1.00121 0
M  V30 5495 C 505.744 2.85963 1.81875 0
M  V30 5496 C 504.917 4.12291 1.46063 0
M  V30 5497 C 503.976 4.60396 2.54799 0
M  V30 5498 O 503.002 5.25265 2.19283 0
M  V30 5499 N 504.204 4.33935 3.85591 0
M  V30 5500 H 506.969 2.99697 0.013414 0
M  V30 5501 H 504.53 1.61308 -0.138295 0
M  V30 5502 H 506.522 3.15071 2.53993 0
M  V30 5503 H 505.092 2.11548 2.30144 0
M  V30 5504 H 504.312 3.90036 0.571445 0
M  V30 5505 H 505.6 4.9452 1.19695 0
M  V30 5506 H 504.998 3.81996 4.17248 0
M  V30 5507 H 503.555 4.67718 4.53964 0
M  V30 5508 N 506.988 0.0434614 1.5754 0
M  V30 5509 C 508.234 -0.632971 1.92669 0
M  V30 5510 C 508.567 -1.70947 0.921446 0
M  V30 5511 O 507.842 -1.94426 -0.0537202 0
M  V30 5512 C 508.125 -1.23619 3.38216 0
M  V30 5513 C 507.978 -0.168274 4.49485 0
M  V30 5514 C 509.297 -2.15008 3.84005 0
M  V30 5515 H 506.416 -0.228629 0.700641 0
M  V30 5516 H 509.058 0.103651 1.89717 0
M  V30 5517 H 507.208 -1.864 3.40863 0
M  V30 5518 H 508.88 0.463196 4.58969 0
M  V30 5519 H 507.123 0.504581 4.30855 0
M  V30 5520 H 507.794 -0.630218 5.48391 0
M  V30 5521 H 510.27 -1.62198 3.83185 0
M  V30 5522 H 509.146 -2.54161 4.86511 0
M  V30 5523 H 509.407 -3.04707 3.20322 0
M  V30 5524 N 508.466 -1.55915 -0.229846 0
M  V30 5525 C 509.712 -1.79718 -0.952517 0
M  V30 5526 C 510.067 -0.61514 -1.82301 0
M  V30 5527 O 509.36 0.391098 -1.87566 0
M  V30 5528 C 509.554 -3.06845 -1.8325 0
M  V30 5529 C 509.383 -4.37302 -1.04868 0
M  V30 5530 C 508.153 -4.99749 -0.746932 0
M  V30 5531 C 510.351 -5.12599 -0.417989 0
M  V30 5532 N 508.333 -6.13871 0.0591596 0
M  V30 5533 C 509.704 -6.19488 0.251879 0
M  V30 5534 C 511.759 -4.96804 -0.33018 0
M  V30 5535 C 510.462 -7.12299 1.00115 0
M  V30 5536 C 512.488 -5.90007 0.4056 0
M  V30 5537 C 511.85 -6.96317 1.06404 0
M  V30 5538 H 507.949 -0.709382 -0.329091 0
M  V30 5539 H 510.533 -1.93406 -0.224114 0
M  V30 5540 H 508.704 -2.94456 -2.53279 0
M  V30 5541 H 510.436 -3.18874 -2.49202 0
M  V30 5542 H 507.191 -4.61518 -1.06292 0
M  V30 5543 H 507.615 -6.75497 0.450798 0
M  V30 5544 H 512.257 -4.14675 -0.824898 0
M  V30 5545 H 509.975 -7.93916 1.50741 0
M  V30 5546 H 513.561 -5.79862 0.474436 0
M  V30 5547 H 512.441 -7.67194 1.62429 0
M  V30 5548 N 509.944 0.496216 -1.49584 0
M  V30 5549 C 511.169 1.27865 -1.63295 0
M  V30 5550 C 511.594 1.85592 -0.306156 0
M  V30 5551 O 510.952 1.66092 0.726851 0
M  V30 5552 C 511 2.38128 -2.7079 0
M  V30 5553 O 510.104 3.42108 -2.30296 0
M  V30 5554 H 509.445 0.377279 -0.546403 0
M  V30 5555 H 511.975 0.593497 -1.95803 0
M  V30 5556 H 511.985 2.8382 -2.93104 0
M  V30 5557 H 510.66 1.95479 -3.67098 0
M  V30 5558 H 509.237 3.02301 -2.18331 0
M  V30 5559 N 511.423 1.38739 0.74761 0
M  V30 5560 C 512.671 1.35007 1.50391 0
M  V30 5561 C 512.992 -0.0574274 1.94915 0
M  V30 5562 O 512.262 -1.00628 1.6808 0
M  V30 5563 H 510.842 0.496784 0.557866 0
M  V30 5564 H 513.504 1.73479 0.888319 0
M  V30 5565 H 512.6 2.00474 2.392 0
M  V30 5566 N 512.901 -0.976442 1.23707 0
M  V30 5567 C 514.129 -1.75341 1.09833 0
M  V30 5568 C 514.544 -1.8553 -0.349885 0
M  V30 5569 O 513.901 -1.33732 -1.24185 0
M  V30 5570 C 513.952 -3.17833 1.72233 0
M  V30 5571 O 513.673 -3.08167 3.11391 0
M  V30 5572 C 515.174 -4.11906 1.63853 0
M  V30 5573 H 512.394 -0.550137 0.384175 0
M  V30 5574 H 514.938 -1.2265 1.63638 0
M  V30 5575 H 513.093 -3.67538 1.22452 0
M  V30 5576 H 513.507 -3.97897 3.41729 0
M  V30 5577 H 514.981 -5.09579 2.12211 0
M  V30 5578 H 515.458 -4.35109 0.598092 0
M  V30 5579 H 516.064 -3.68107 2.13019 0
M  V30 5580 N 514.379 -1.04941 -1.1758 0
M  V30 5581 C 515.289 -0.658826 -2.25159 0
M  V30 5582 C 516.305 0.318941 -1.71052 0
M  V30 5583 O 517.481 0.171669 -2.00667 0
M  V30 5584 C 514.546 -0.0369522 -3.4668 0
M  V30 5585 C 513.607 -1.06484 -4.15884 0
M  V30 5586 C 512.84 -0.472551 -5.31604 0
M  V30 5587 O 513.063 0.718736 -5.65854 0
M  V30 5588 O 511.997 -1.20557 -5.89703 0
M  V30 5589 H 515.823 -1.55533 -2.60851 0
M  V30 5590 H 513.408 -0.820819 -1.24832 0
M  V30 5591 H 515.29 0.308784 -4.20267 0
M  V30 5592 H 513.965 0.833238 -3.12792 0
M  V30 5593 H 512.872 -1.46253 -3.44327 0
M  V30 5594 H 514.205 -1.9061 -4.53794 0
M  V30 5595 N 515.857 1.33968 -0.830081 0
M  V30 5596 C 517.103 1.98357 -0.422191 0
M  V30 5597 C 517.436 1.65633 1.01387 0
M  V30 5598 O 516.711 0.931648 1.70735 0
M  V30 5599 C 516.994 3.54492 -0.633043 0
M  V30 5600 C 516.847 3.96934 -2.11574 0
M  V30 5601 C 518.166 4.40039 -0.0735584 0
M  V30 5602 H 515.285 0.720544 -0.154871 0
M  V30 5603 H 517.927 1.58749 -1.04397 0
M  V30 5604 H 516.077 3.88361 -0.103775 0
M  V30 5605 H 517.749 3.73363 -2.7092 0
M  V30 5606 H 515.992 3.46984 -2.60354 0
M  V30 5607 H 516.663 5.05651 -2.21406 0
M  V30 5608 H 519.139 4.12764 -0.52585 0
M  V30 5609 H 518.015 5.48327 -0.250841 0
M  V30 5610 H 518.276 4.30124 1.02202 0
M  V30 5611 N 517.335 0.585699 1.46312 0
M  V30 5612 C 518.563 0.0781299 2.06752 0
M  V30 5613 C 518.978 -1.22812 1.43396 0
M  V30 5614 O 518.335 -1.74318 0.540314 0
M  V30 5615 C 518.386 -0.0911927 3.61385 0
M  V30 5616 O 518.107 1.16336 4.22371 0
M  V30 5617 C 519.608 -0.632765 4.38761 0
M  V30 5618 H 516.828 0.0588188 0.668417 0
M  V30 5619 H 519.372 0.807218 1.87894 0
M  V30 5620 H 517.527 -0.770514 3.7966 0
M  V30 5621 H 517.941 0.979082 5.15281 0
M  V30 5622 H 519.415 -0.70041 5.47538 0
M  V30 5623 H 519.892 -1.65039 4.07012 0
M  V30 5624 H 520.498 0.0117856 4.25298 0
M  V30 5625 N 518.813 -1.54241 0.323641 0
M  V30 5626 C 519.776 -2.22997 -0.529602 0
M  V30 5627 C 520.776 -1.22345 -1.04347 0
M  V30 5628 O 521.966 -1.46924 -0.935889 0
M  V30 5629 C 519.098 -2.93409 -1.73562 0
M  V30 5630 H 520.291 -2.99815 0.0714518 0
M  V30 5631 H 517.844 -1.56121 0.0747258 0
M  V30 5632 H 518.579 -2.20729 -2.37591 0
M  V30 5633 H 518.364 -3.67217 -1.37456 0
M  V30 5634 H 519.854 -3.45794 -2.34128 0
M  V30 5635 N 520.291 -0.0518155 -1.57515 0
M  V30 5636 C 521.702 0.483787 -1.80323 0
M  V30 5637 C 522.053 1.70879 -0.964099 0
M  V30 5638 O 521.178 2.15643 -0.180872 0
M  V30 5639 C 521.773 0.884459 -3.27052 0
M  V30 5640 C 520.332 1.36504 -3.50776 0
M  V30 5641 C 519.479 0.340539 -2.75201 0
M  V30 5642 H 522.43 -0.277691 -1.56252 0
M  V30 5643 H 522.451 1.74733 -3.38007 0
M  V30 5644 H 521.963 -0.00731093 -3.88099 0
M  V30 5645 H 520.064 2.27598 -2.95009 0
M  V30 5646 H 520.177 1.35675 -4.59488 0
M  V30 5647 H 518.541 0.81356 -2.41357 0
M  V30 5648 H 519.324 -0.543156 -3.38976 0
M  V30 5649 N 521.769 1.56035 0.221574 0
M  V30 5650 C 522.701 1.889 1.29805 0
M  V30 5651 C 523.714 0.777269 1.43047 0
M  V30 5652 O 524.903 1.05557 1.43945 0
M  V30 5653 C 522.003 2.0825 2.67367 0
M  V30 5654 C 521.176 3.39267 2.76073 0
M  V30 5655 C 520.235 3.48049 3.94649 0
M  V30 5656 O 519.261 4.2108 3.82988 0
M  V30 5657 N 520.463 2.79191 5.08953 0
M  V30 5658 H 523.228 2.81831 1.01938 0
M  V30 5659 H 520.789 1.5658 0.411612 0
M  V30 5660 H 522.781 2.11441 3.45072 0
M  V30 5661 H 521.351 1.21944 2.87834 0
M  V30 5662 H 520.571 3.48175 1.84846 0
M  V30 5663 H 521.859 4.25575 2.7886 0
M  V30 5664 H 521.257 2.19635 5.21322 0
M  V30 5665 H 519.814 2.88043 5.84701 0
M  V30 5666 N 523.247 -0.488276 1.49845 0
M  V30 5667 C 524.495 -1.23911 1.59657 0
M  V30 5668 C 524.816 -1.92816 0.291005 0
M  V30 5669 O 524.086 -1.83328 -0.690485 0
M  V30 5670 H 522.666 -0.460357 0.588286 0
M  V30 5671 H 525.328 -0.564794 1.86537 0
M  V30 5672 H 524.424 -1.99625 2.39909 0
M  V30 5673 N 524.725 -1.39134 -0.740242 0
M  V30 5674 C 525.688 -1.37217 -1.83587 0
M  V30 5675 C 526.688 -0.270221 -1.58513 0
M  V30 5676 O 527.878 -0.527843 -1.6601 0
M  V30 5677 C 525.01 -1.13959 -3.21288 0
M  V30 5678 H 526.203 -2.34705 -1.86691 0
M  V30 5679 H 523.756 -1.24622 -0.94335 0
M  V30 5680 H 524.491 -0.17131 -3.23847 0
M  V30 5681 H 524.276 -1.93754 -3.40884 0
M  V30 5682 H 525.766 -1.15346 -4.01354 0
M  V30 5683 N 526.204 0.969867 -1.24223 0
M  V30 5684 C 527.432 1.74756 -1.10761 0
M  V30 5685 C 527.847 1.85713 0.340041 0
M  V30 5686 O 527.204 1.34389 1.23474 0
M  V30 5687 C 527.255 3.16915 -1.73917 0
M  V30 5688 O 526.976 3.06511 -3.13021 0
M  V30 5689 C 528.477 4.11032 -1.66036 0
M  V30 5690 H 525.697 0.548092 -0.387087 0
M  V30 5691 H 528.241 1.2178 -1.64286 0
M  V30 5692 H 526.396 3.66884 -1.244 0
M  V30 5693 H 526.81 3.96079 -3.43834 0
M  V30 5694 H 528.284 5.08446 -2.14911 0
M  V30 5695 H 528.761 4.34785 -0.621159 0
M  V30 5696 H 529.367 3.66972 -2.14969 0
M  V30 5697 N 527.682 1.05563 1.17022 0
M  V30 5698 C 528.959 0.68165 1.83338 0
M  V30 5699 C 529.339 -0.837665 1.93769 0
M  V30 5700 O 528.687 -1.74507 1.47511 0
M  V30 5701 C 528.897 1.375 3.20772 0
M  V30 5702 C 530.245 1.51545 3.96635 0
M  V30 5703 O 531.269 1.33431 3.30264 0
M  V30 5704 O 530.128 1.812 5.15586 0
M  V30 5705 H 527.222 0.240412 0.791285 0
M  V30 5706 H 529.768 1.15545 1.24288 0
M  V30 5707 H 528.54 2.41135 3.08171 0
M  V30 5708 H 528.163 0.890798 3.87493 0
M  V30 5709 N 529.16 -1.33526 0.837174 0
M  V30 5710 C 530.576 -1.50727 0.524743 0
M  V30 5711 C 530.776 -1.77792 -0.948279 0
M  V30 5712 O 529.832 -1.83719 -1.73216 0
M  V30 5713 C 531.145 -2.66299 1.39661 0
M  V30 5714 C 532.693 -2.80183 1.39521 0
M  V30 5715 C 533.168 -3.98815 2.25189 0
M  V30 5716 N 534.659 -4.06047 2.2289 0
M  V30 5717 C 535.394 -4.97032 2.85915 0
M  V30 5718 N 534.89 -5.93143 3.57985 0
M  V30 5719 N 536.683 -4.90015 2.75394 0
M  V30 5720 H 528.834 -1.1422 1.79074 0
M  V30 5721 H 531.097 -0.561399 0.763894 0
M  V30 5722 H 530.803 -2.52974 2.4433 0
M  V30 5723 H 530.677 -3.61663 1.07145 0
M  V30 5724 H 533.064 -2.92942 0.356253 0
M  V30 5725 H 533.145 -1.85586 1.76044 0
M  V30 5726 H 532.789 -3.86817 3.29143 0
M  V30 5727 H 532.719 -4.92654 1.86009 0
M  V30 5728 H 535.21 -3.37262 1.70478 0
M  V30 5729 H 535.523 -6.59227 4.03286 0
M  V30 5730 H 533.868 -5.93223 3.62093 0
M  V30 5731 H 537.059 -4.13894 2.18654 0
M  V30 5732 H 537.232 -5.60724 3.24796 0
M  V30 5733 O 530.677 -0.734023 -1.43855 0
M  V30 5734 H 531.368 -0.285275 -1.91588 0
M  V30 END ATOM
M  V30 BEGIN BOND
M  V30 END BOND
M  V30 END CTAB
M  END
$$$$
