drugbank_target|Q9Y689 ADP-ribosylation factor-like protein 5A (DB04315)
 OpenBabel12092120293D

  0  0  0     0  0            999 V3000
M  V30 BEGIN CTAB
M  V30 COUNTS 2912 2939 0 0 0
M  V30 BEGIN ATOM
M  V30 1 H -0.908 1.98254 -0.117106 0
M  V30 2 N 0 1.576 0 0
M  V30 3 C 0.933 2.03868 1.02534 0
M  V30 4 C 1.911 0.928543 1.3348 0
M  V30 5 O 3.095 1.19667 1.45644 0
M  V30 6 C 0.222 2.43627 2.35294 0
M  V30 7 C -0.732 3.65373 2.2001 0
M  V30 8 S 0.101 5.13292 1.52614 0
M  V30 9 C 1.257 5.56322 2.86805 0
M  V30 10 H 1.49 2.90518 0.631377 0
M  V30 11 H -0.977 1.52953 0.210867 0
M  V30 12 H 0.981 2.67203 3.11629 0
M  V30 13 H -0.358 1.57376 2.7183 0
M  V30 14 H -1.165 3.90944 3.18086 0
M  V30 15 H -1.563 3.418 1.51819 0
M  V30 16 H 0.729 5.58782 3.83104 0
M  V30 17 H 1.672 6.56266 2.65933 0
M  V30 18 H 2.08 4.83886 2.90714 0
M  V30 19 N 1.4781 -0.272755 1.55222 0
M  V30 20 C 2.7261 -1.00234 1.75492 0
M  V30 21 C 3.0471 -1.8681 0.5592 0
M  V30 22 O 2.3171 -1.91215 -0.425882 0
M  V30 23 H 0.8971 -0.373076 0.647166 0
M  V30 24 H 3.5591 -0.296926 1.92625 0
M  V30 25 H 2.6551 -1.63913 2.65592 0
M  V30 26 N 2.9562 -1.48159 -0.537278 0
M  V30 27 C 4.2052 -1.5506 -1.28993 0
M  V30 28 C 4.5182 -0.226211 -1.94288 0
M  V30 29 O 5.7242 -0.173395 -2.70946 0
M  V30 30 C 4.1802 -2.73429 -2.34018 0
M  V30 31 C 3.7882 -4.1248 -1.74825 0
M  V30 32 C 5.5322 -2.89638 -3.10339 0
M  V30 33 C 3.4392 -5.22121 -2.77747 0
M  V30 34 H 2.3692 -0.577231 -0.485098 0
M  V30 35 H 5.0202 -1.74478 -0.568317 0
M  V30 36 H 3.4022 -2.47431 -3.09182 0
M  V30 37 H 4.5762 -4.48466 -1.05899 0
M  V30 38 H 2.8912 -4.01327 -1.11022 0
M  V30 39 H 5.4882 -3.68718 -3.87235 0
M  V30 40 H 5.8312 -1.9882 -3.65754 0
M  V30 41 H 6.3642 -3.15502 -2.42288 0
M  V30 42 H 3.1032 -6.1488 -2.27161 0
M  V30 43 H 2.6232 -4.90631 -3.45024 0
M  V30 44 H 4.3022 -5.49924 -3.4087 0
M  V30 45 N 4.4343 0.785586 -1.36625 0
M  V30 46 C 5.3643 1.91259 -1.33949 0
M  V30 47 C 6.3453 1.68795 -0.210325 0
M  V30 48 O 7.5303 1.89854 -0.408561 0
M  V30 49 C 4.6603 3.28339 -1.13186 0
M  V30 50 C 3.6143 3.65335 -2.22967 0
M  V30 51 C 2.9403 5.00806 -1.87342 0
M  V30 52 C 4.2403 3.7352 -3.65075 0
M  V30 53 H 5.9343 1.93755 -2.28253 0
M  V30 54 H 3.4803 0.930788 -1.09874 0
M  V30 55 H 5.4333 4.06804 -1.09948 0
M  V30 56 H 4.1573 3.2624 -0.153332 0
M  V30 57 H 2.8163 2.89169 -2.25337 0
M  V30 58 H 2.4643 4.95233 -0.880545 0
M  V30 59 H 2.1643 5.26529 -2.60846 0
M  V30 60 H 3.6883 5.81687 -1.85667 0
M  V30 61 H 5.1023 4.42168 -3.64911 0
M  V30 62 H 3.4993 4.10731 -4.37516 0
M  V30 63 H 4.5693 2.74527 -3.99703 0
M  V30 64 N 5.9124 1.20967 1.01018 0
M  V30 65 C 7.1594 1.02374 1.74716 0
M  V30 66 C 7.4874 -0.443375 1.89379 0
M  V30 67 O 6.7424 -1.34535 1.42123 0
M  V30 68 C 7.0414 1.65997 3.16512 0
M  V30 69 C 6.7074 3.15831 3.2181 0
M  V30 70 C 5.3694 3.56719 3.22963 0
M  V30 71 C 7.7214 4.11816 3.19464 0
M  V30 72 C 5.0494 4.92107 3.19449 0
M  V30 73 C 7.4014 5.47158 3.17491 0
M  V30 74 C 6.0654 5.87451 3.16951 0
M  V30 75 H 5.3354 0.374614 0.639332 0
M  V30 76 H 7.9824 1.50485 1.18434 0
M  V30 77 H 6.2874 1.10166 3.75993 0
M  V30 78 H 7.9844 1.49119 3.72242 0
M  V30 79 H 4.5744 2.83263 3.21652 0
M  V30 80 H 8.7584 3.81257 3.17737 0
M  V30 81 H 4.0144 5.22579 3.17366 0
M  V30 82 H 8.1884 6.21274 3.14629 0
M  V30 83 H 5.8154 6.92329 3.13983 0
M  V30 84 N 7.3905 -1.2043 1.01659 0
M  V30 85 C 8.6185 -1.93777 0.725132 0
M  V30 86 C 9.0335 -1.74772 -0.714166 0
M  V30 87 O 8.3905 -1.06169 -1.4844 0
M  V30 88 C 8.4415 -3.45876 1.05129 0
M  V30 89 O 8.1625 -3.6426 2.43406 0
M  V30 90 C 9.6635 -4.36368 0.780891 0
M  V30 91 H 6.8835 -0.615901 0.266284 0
M  V30 92 H 9.4275 -1.52922 1.35776 0
M  V30 93 H 7.5825 -3.8461 0.464065 0
M  V30 94 H 7.9965 -4.58246 2.55169 0
M  V30 95 H 9.4705 -5.41743 1.05918 0
M  V30 96 H 9.9475 -4.38275 -0.284937 0
M  V30 97 H 10.5535 -4.03296 1.35027 0
M  V30 98 N 8.8686 -0.792821 -1.36206 0
M  V30 99 C 10.2846 -0.474903 -1.52371 0
M  V30 100 C 10.4846 1.00622 -1.74578 0
M  V30 101 O 9.5406 1.79162 -1.77924 0
M  V30 102 C 10.8536 -1.3083 -2.70747 0
M  V30 103 C 12.4016 -1.30234 -2.84619 0
M  V30 104 C 12.8766 -2.11956 -4.06004 0
M  V30 105 N 14.3676 -2.09419 -4.13156 0
M  V30 106 C 15.1026 -2.69419 -5.06163 0
M  V30 107 N 14.5986 -3.3829 -6.04592 0
M  V30 108 N 16.3916 -2.59134 -4.98804 0
M  V30 109 H 8.5426 -1.75222 -1.20046 0
M  V30 110 H 10.8056 -0.745024 -0.586211 0
M  V30 111 H 10.5116 -2.35881 -2.6087 0
M  V30 112 H 10.3856 -0.95196 -3.6499 0
M  V30 113 H 12.7726 -0.259748 -2.93955 0
M  V30 114 H 12.8536 -1.69847 -1.91274 0
M  V30 115 H 12.4976 -3.16248 -3.97429 0
M  V30 116 H 12.4276 -1.69711 -4.98503 0
M  V30 117 H 14.9186 -1.59297 -3.42685 0
M  V30 118 H 15.2316 -3.81394 -6.7213 0
M  V30 119 H 13.5766 -3.42393 -6.04807 0
M  V30 120 H 16.7676 -2.04927 -4.20859 0
M  V30 121 H 16.9406 -3.06185 -5.711 0
M  V30 122 N 10.3467 1.47872 -0.545128 0
M  V30 123 C 11.5957 2.01695 -0.0145033 0
M  V30 124 C 11.9087 1.42609 1.33873 0
M  V30 125 O 13.1147 1.88021 1.95858 0
M  V30 126 C 11.5707 3.59892 0.0245068 0
M  V30 127 C 11.1787 4.27966 -1.32475 0
M  V30 128 C 12.9227 4.21507 0.50316 0
M  V30 129 C 10.8297 5.78136 -1.2455 0
M  V30 130 H 9.7597 0.753998 -0.00165172 0
M  V30 131 H 12.4107 1.69985 -0.691175 0
M  V30 132 H 10.7927 3.88509 0.766575 0
M  V30 133 H 11.9667 4.11003 -2.08357 0
M  V30 134 H 10.2817 3.78286 -1.74036 0
M  V30 135 H 12.8787 5.31538 0.580656 0
M  V30 136 H 13.2217 3.87855 1.51243 0
M  V30 137 H 13.7547 3.97376 -0.183681 0
M  V30 138 H 10.4937 6.16388 -2.23039 0
M  V30 139 H 10.0137 5.97469 -0.528282 0
M  V30 140 H 11.6927 6.40099 -0.942488 0
M  V30 141 N 11.8248 0.280983 1.55075 0
M  V30 142 C 13.0708 -0.327573 2.00745 0
M  V30 143 C 13.4258 -1.53045 1.16598 0
M  V30 144 O 12.7188 -1.90221 0.229451 0
M  V30 145 C 12.9128 -0.754656 3.49342 0
M  V30 146 C 12.7418 0.40529 4.4787 0
M  V30 147 C 11.5118 0.890947 4.97383 0
M  V30 148 C 13.7098 1.24371 4.99035 0
M  V30 149 N 11.6918 2.01975 5.79724 0
M  V30 150 C 13.0628 2.22031 5.7888 0
M  V30 151 C 15.1178 1.27638 4.81262 0
M  V30 152 C 13.8208 3.22709 6.42846 0
M  V30 153 C 15.8468 2.27164 5.46031 0
M  V30 154 C 15.2088 3.23556 6.25692 0
M  V30 155 H 11.3078 -0.0848774 0.77738 0
M  V30 156 H 13.8918 0.406342 1.90413 0
M  V30 157 H 12.0628 -1.45778 3.60005 0
M  V30 158 H 13.7948 -1.34105 3.81835 0
M  V30 159 H 10.5498 0.469262 4.71269 0
M  V30 160 H 10.9738 2.58794 6.25584 0
M  V30 161 H 15.6158 0.544936 4.19274 0
M  V30 162 H 13.3338 3.96784 7.0398 0
M  V30 163 H 16.9198 2.30441 5.34217 0
M  V30 164 H 15.7998 3.99309 6.74924 0
M  V30 165 N 13.3029 -1.57598 0.00835791 0
M  V30 166 C 14.7189 -1.55764 -0.347822 0
M  V30 167 C 14.9189 -1.01186 -1.74252 0
M  V30 168 O 13.9749 -0.649371 -2.44007 0
M  V30 169 C 15.2879 -2.99927 -0.215407 0
M  V30 170 C 16.8359 -3.11656 -0.289725 0
M  V30 171 C 17.3109 -4.57621 -0.18634 0
M  V30 172 N 18.8019 -4.62557 -0.243978 0
M  V30 173 C 19.5369 -5.73094 -0.18745 0
M  V30 174 N 19.0329 -6.92753 -0.0810331 0
M  V30 175 N 20.8259 -5.61588 -0.239925 0
M  V30 176 H 12.9769 -1.91411 0.92062 0
M  V30 177 H 15.2399 -0.879562 0.353659 0
M  V30 178 H 14.9459 -3.43729 0.744512 0
M  V30 179 H 14.8199 -3.63865 -0.994097 0
M  V30 180 H 17.2069 -2.67779 -1.24009 0
M  V30 181 H 17.2879 -2.5048 0.51898 0
M  V30 182 H 16.9319 -5.02174 0.760519 0
M  V30 183 H 16.8619 -5.16752 -1.01364 0
M  V30 184 H 19.3529 -3.76481 -0.327217 0
M  V30 185 H 19.6659 -7.72787 -0.0440241 0
M  V30 186 H 18.0109 -6.94984 -0.0465419 0
M  V30 187 H 21.2019 -4.66996 -0.321317 0
M  V30 188 H 21.3749 -6.47714 -0.192407 0
M  V30 189 N 14.781 0.264519 -1.55364 0
M  V30 190 C 15.711 1.33121 -1.91836 0
M  V30 191 C 16.692 1.51101 -0.781192 0
M  V30 192 O 17.877 1.64003 -1.04003 0
M  V30 193 C 15.007 2.68921 -2.19769 0
M  V30 194 C 13.961 2.65661 -3.35571 0
M  V30 195 C 13.287 4.05093 -3.49004 0
M  V30 196 C 14.587 2.24187 -4.71739 0
M  V30 197 H 16.281 1.02844 -2.81182 0
M  V30 198 H 13.827 0.493286 -1.35287 0
M  V30 199 H 15.78 3.43663 -2.43872 0
M  V30 200 H 14.504 3.00799 -1.27231 0
M  V30 201 H 13.163 1.93377 -3.1145 0
M  V30 202 H 12.811 4.34206 -2.53917 0
M  V30 203 H 12.511 4.03804 -4.26868 0
M  V30 204 H 14.035 4.81561 -3.75408 0
M  V30 205 H 15.449 2.88654 -4.9533 0
M  V30 206 H 13.846 2.34044 -5.52579 0
M  V30 207 H 14.916 1.19327 -4.69988 0
M  V30 208 N 16.2591 1.48442 0.529413 0
M  V30 209 C 17.5061 1.56488 1.28521 0
M  V30 210 C 17.8341 0.239042 1.93025 0
M  V30 211 O 17.0891 -0.770713 1.79885 0
M  V30 212 C 17.3881 2.6523 2.39558 0
M  V30 213 C 17.0541 4.07648 1.92702 0
M  V30 214 C 15.7161 4.46411 1.79641 0
M  V30 215 C 18.0681 4.96896 1.573 0
M  V30 216 C 15.3961 5.72226 1.29514 0
M  V30 217 C 17.7481 6.23202 1.08636 0
M  V30 218 C 16.4121 6.60821 0.941919 0
M  V30 219 H 15.6821 0.572631 0.470292 0
M  V30 220 H 18.3291 1.82161 0.59072 0
M  V30 221 H 16.6341 2.33419 3.14679 0
M  V30 222 H 18.3311 2.68671 2.97686 0
M  V30 223 H 14.9211 3.77036 2.03819 0
M  V30 224 H 19.1051 4.67626 1.66251 0
M  V30 225 H 14.3611 6.00097 1.17019 0
M  V30 226 H 18.5351 6.91753 0.803136 0
M  V30 227 H 16.1621 7.58198 0.5513 0
M  V30 228 N 17.7372 -0.778329 1.37039 0
M  V30 229 C 18.6852 -1.91278 1.32345 0
M  V30 230 C 19.6792 -1.68051 0.213331 0
M  V30 231 O 20.8852 -1.75922 0.38098 0
M  V30 232 H 17.2602 -0.628909 0.412283 0
M  V30 233 H 19.2312 -1.92355 2.28127 0
M  V30 234 C 17.9802 -3.28455 1.14073 0
M  V30 235 H 17.3032 -3.46901 1.98746 0
M  V30 236 H 18.7432 -4.08152 1.14837 0
M  V30 237 C 17.2022 -3.36548 -0.154015 0
M  V30 238 O 17.7322 -3.85186 -1.13993 0
M  V30 239 N 15.9382 -2.89894 -0.202475 0
M  V30 240 H 15.4852 -2.50504 0.600476 0
M  V30 241 H 15.4432 -2.9569 -1.06841 0
M  V30 242 N 19.2153 -1.21501 -1.00376 0
M  V30 243 C 20.1653 -0.942843 -2.07592 0
M  V30 244 C 21.1493 0.102384 -1.60574 0
M  V30 245 O 22.3413 -0.10671 -1.76678 0
M  V30 246 C 19.4703 -0.510729 -3.3948 0
M  V30 247 C 18.5563 -1.59009 -3.93163 0
M  V30 248 N 18.9473 -2.81544 -4.20198 0
M  V30 249 C 17.2453 -1.45925 -4.21452 0
M  V30 250 C 17.9463 -3.51261 -4.63671 0
M  V30 251 N 16.9223 -2.78703 -4.66718 0
M  V30 252 H 20.7243 -1.87378 -2.26421 0
M  V30 253 H 18.2383 -1.11093 -1.18458 0
M  V30 254 H 20.2353 -0.297101 -4.1584 0
M  V30 255 H 18.8953 0.413436 -3.22057 0
M  V30 256 H 19.9063 -3.18075 -4.08716 0
M  V30 257 H 16.5833 -0.600467 -4.13159 0
M  V30 258 H 17.9733 -4.56183 -4.93302 0
M  V30 259 N 20.6934 1.19889 -1.02296 0
M  V30 260 C 21.6254 2.22334 -0.556787 0
M  V30 261 C 22.6384 1.58674 0.364199 0
M  V30 262 O 23.8274 1.77768 0.161533 0
M  V30 263 C 20.9274 3.38257 0.208694 0
M  V30 264 C 20.1004 4.31504 -0.71577 0
M  V30 265 C 19.1594 5.262 0.00325597 0
M  V30 266 O 18.1854 5.65798 -0.621357 0
M  V30 267 N 19.3874 5.66303 1.27599 0
M  V30 268 H 22.1524 2.62957 -1.43784 0
M  V30 269 H 19.7134 1.34495 -0.901261 0
M  V30 270 H 21.7054 3.98616 0.699111 0
M  V30 271 H 20.2754 2.96472 0.991102 0
M  V30 272 H 19.4954 3.69016 -1.38638 0
M  V30 273 H 20.7834 4.9072 -1.34428 0
M  V30 274 H 20.1814 5.36155 1.80429 0
M  V30 275 H 18.7384 6.28942 1.71102 0
M  V30 276 N 22.1715 0.800033 1.35784 0
M  V30 277 C 23.0815 0.207204 2.33683 0
M  V30 278 C 24.0975 -0.64631 1.61551 0
M  V30 279 O 25.2735 -0.559604 1.93469 0
M  V30 280 C 22.3385 -0.639659 3.40748 0
M  V30 281 C 21.3995 0.233585 4.28664 0
M  V30 282 C 20.6325 -0.572954 5.30616 0
M  V30 283 O 20.8555 -1.80816 5.40982 0
M  V30 284 O 19.7895 0.0327285 6.01891 0
M  V30 285 H 23.6155 1.01692 2.86169 0
M  V30 286 H 21.2005 0.561691 1.38439 0
M  V30 287 H 23.0825 -1.12223 4.06182 0
M  V30 288 H 21.7575 -1.42708 2.90544 0
M  V30 289 H 20.6645 0.763147 3.66233 0
M  V30 290 H 21.9975 0.984784 4.82248 0
M  V30 291 N 23.6496 -1.47581 0.552962 0
M  V30 292 C 24.5996 -2.26961 -0.217423 0
M  V30 293 C 25.5836 -1.34099 -0.889168 0
M  V30 294 O 26.7756 -1.58483 -0.788176 0
M  V30 295 C 23.9046 -3.19756 -1.24944 0
M  V30 296 C 22.9906 -4.20097 -0.581327 0
M  V30 297 N 23.3816 -5.04614 0.346171 0
M  V30 298 C 21.6796 -4.38099 -0.835767 0
M  V30 299 C 22.3806 -5.77052 0.733854 0
M  V30 300 N 21.3566 -5.43526 0.0896567 0
M  V30 301 H 25.1586 -2.89688 0.495761 0
M  V30 302 H 22.6726 -1.58068 0.372597 0
M  V30 303 H 24.6696 -3.75305 -1.81527 0
M  V30 304 H 23.3296 -2.58585 -1.96376 0
M  V30 305 H 24.3406 -5.12869 0.720098 0
M  V30 306 H 21.0176 -3.88102 -1.53892 0
M  V30 307 H 22.4076 -6.5504 1.49574 0
M  V30 308 N 25.1277 -0.289203 -1.54924 0
M  V30 309 C 26.0747 0.592115 -2.23075 0
M  V30 310 C 27.0447 1.13881 -1.20915 0
M  V30 311 O 28.2297 1.18551 -1.495 0
M  V30 312 C 25.3697 1.76376 -2.96623 0
M  V30 313 C 24.4827 1.24959 -4.13533 0
M  V30 314 C 23.6177 2.38416 -4.74691 0
M  V30 315 C 22.6567 1.84072 -5.83767 0
M  V30 316 N 21.7937 2.91057 -6.38929 0
M  V30 317 H 26.6337 0.00432038 -2.98 0
M  V30 318 H 24.1707 -0.00963529 -1.47097 0
M  V30 319 H 26.1287 2.45268 -3.3749 0
M  V30 320 H 24.7587 2.32337 -2.24097 0
M  V30 321 H 23.8107 0.453307 -3.77689 0
M  V30 322 H 25.1227 0.811662 -4.92152 0
M  V30 323 H 24.2767 3.15276 -5.18349 0
M  V30 324 H 23.0157 2.8553 -3.95378 0
M  V30 325 H 22.0207 1.05697 -5.39545 0
M  V30 326 H 23.2457 1.37877 -6.64956 0
M  V30 327 H 21.1917 3.37526 -5.62505 0
M  V30 328 H 21.1087 2.51724 -7.12861 0
M  V30 329 H 22.3767 3.6785 -6.87246 0
M  V30 330 N 26.6058 1.57591 -0.0167156 0
M  V30 331 C 27.8518 1.91567 0.665582 0
M  V30 332 C 28.1848 0.892298 1.72487 0
M  V30 333 O 27.4598 -0.0867127 1.94307 0
M  V30 334 C 27.7428 3.36069 1.29342 0
M  V30 335 C 27.5958 4.49135 0.244541 0
M  V30 336 C 28.9148 3.803 2.21495 0
M  V30 337 H 26.0338 0.69666 0.240488 0
M  V30 338 H 28.6758 1.89866 -0.0714356 0
M  V30 339 H 26.8258 3.3765 1.92158 0
M  V30 340 H 28.4978 4.59689 -0.385228 0
M  V30 341 H 26.7408 4.3165 -0.431379 0
M  V30 342 H 27.4118 5.47242 0.723207 0
M  V30 343 H 29.8878 3.80377 1.68678 0
M  V30 344 H 28.7638 4.82127 2.62382 0
M  V30 345 H 29.0248 3.15104 3.101 0
M  V30 346 N 28.0839 -0.256276 1.55502 0
M  V30 347 C 29.3329 -0.983486 1.76098 0
M  V30 348 C 29.6459 -1.86837 0.578896 0
M  V30 349 O 30.8519 -2.63163 0.667648 0
M  V30 350 C 29.3079 -1.79868 3.1173 0
M  V30 351 C 28.9159 -0.961648 4.37557 0
M  V30 352 C 30.6599 -2.51919 3.41668 0
M  V30 353 C 28.5669 -1.77219 5.64223 0
M  V30 354 H 27.4969 -0.370936 0.656447 0
M  V30 355 H 30.1479 -0.238492 1.81944 0
M  V30 356 H 28.5299 -2.58527 2.99966 0
M  V30 357 H 29.7039 -0.218048 4.60284 0
M  V30 358 H 28.0189 -0.354913 4.14885 0
M  V30 359 H 30.6159 -3.12998 4.33516 0
M  V30 360 H 30.9589 -3.23059 2.62562 0
M  V30 361 H 31.4919 -1.80278 3.54605 0
M  V30 362 H 28.2309 -1.10471 6.46124 0
M  V30 363 H 27.7509 -2.49132 5.45613 0
M  V30 364 H 29.4299 -2.34169 6.03137 0
M  V30 365 N 29.562 -1.4872 -0.521534 0
M  V30 366 C 30.811 -1.56419 -1.27341 0
M  V30 367 C 31.124 -0.246805 -1.94037 0
M  V30 368 O 32.33 -0.202122 -2.70747 0
M  V30 369 C 30.786 -2.75896 -2.31105 0
M  V30 370 C 30.394 -4.14311 -1.70441 0
M  V30 371 C 32.138 -2.92913 -3.07249 0
M  V30 372 C 30.045 -5.25038 -2.72194 0
M  V30 373 H 28.975 -0.582344 -0.478949 0
M  V30 374 H 31.626 -1.75071 -0.549779 0
M  V30 375 H 30.008 -2.50697 -3.06541 0
M  V30 376 H 31.182 -4.49564 -1.01136 0
M  V30 377 H 29.497 -4.02482 -1.06759 0
M  V30 378 H 32.094 -3.72805 -3.83302 0
M  V30 379 H 32.437 -2.02689 -3.63625 0
M  V30 380 H 32.97 -3.18054 -2.38928 0
M  V30 381 H 29.709 -6.17255 -2.20627 0
M  V30 382 H 29.229 -4.94263 -3.39801 0
M  V30 383 H 30.908 -5.53508 -3.35019 0
M  V30 384 N 31.0401 0.771051 -1.3745 0
M  V30 385 C 32.2861 1.5319 -1.32894 0
M  V30 386 C 32.6191 1.94008 0.0862511 0
M  V30 387 O 31.8941 1.64124 1.04373 0
M  V30 388 C 32.1771 2.79648 -2.26868 0
M  V30 389 C 32.0301 2.45079 -3.77169 0
M  V30 390 C 33.3491 3.81583 -2.19277 0
M  V30 391 H 30.4681 0.555744 -0.484064 0
M  V30 392 H 33.1101 0.884492 -1.68157 0
M  V30 393 H 31.2601 3.34891 -1.96926 0
M  V30 394 H 32.9321 1.95745 -4.1771 0
M  V30 395 H 31.1751 1.77767 -3.95704 0
M  V30 396 H 31.8461 3.35478 -4.38359 0
M  V30 397 H 34.3221 3.35835 -2.45671 0
M  V30 398 H 33.1981 4.67787 -2.87171 0
M  V30 399 H 33.4591 4.25897 -1.18592 0
M  V30 400 N 32.5182 1.22032 0.997298 0
M  V30 401 C 33.7662 1.04016 1.73278 0
M  V30 402 C 34.0872 -0.426255 1.90284 0
M  V30 403 O 33.3572 -1.30694 1.45931 0
M  V30 404 H 31.9372 0.381897 0.642 0
M  V30 405 H 34.5992 1.5347 1.20137 0
M  V30 406 H 33.6952 1.51441 2.72896 0
M  V30 407 N 33.9963 -1.19345 1.0293 0
M  V30 408 C 34.9263 -2.2481 0.631105 0
M  V30 409 C 35.9073 -1.66245 -0.360104 0
M  V30 410 O 37.0923 -1.92677 -0.242726 0
M  V30 411 C 34.2223 -3.47295 -0.0184607 0
M  V30 412 C 33.1763 -4.18536 0.895073 0
M  V30 413 C 32.5023 -5.34586 0.110592 0
M  V30 414 C 33.8023 -4.73287 2.209 0
M  V30 415 H 35.4963 -2.58372 1.51275 0
M  V30 416 H 33.0423 -1.24194 0.728818 0
M  V30 417 H 34.9953 -4.20268 -0.308675 0
M  V30 418 H 33.7193 -3.12933 -0.934907 0
M  V30 419 H 32.3783 -3.47446 1.16949 0
M  V30 420 H 32.0263 -4.96469 -0.807902 0
M  V30 421 H 31.7263 -5.83183 0.719087 0
M  V30 422 H 33.2503 -6.10355 -0.172871 0
M  V30 423 H 34.6643 -5.38013 1.98028 0
M  V30 424 H 33.0613 -5.32373 2.76946 0
M  V30 425 H 34.1313 -3.91331 2.86336 0
M  V30 426 N 35.4744 -0.807222 -1.35358 0
M  V30 427 C 36.7514 -0.311126 -1.9311 0
M  V30 428 C 37.1314 1.19937 -1.73719 0
M  V30 429 O 36.4794 1.99918 -1.10657 0
M  V30 430 C 36.6894 -0.723226 -3.41424 0
M  V30 431 C 38.0374 -0.713078 -4.18569 0
M  V30 432 O 39.0614 -0.664811 -3.49941 0
M  V30 433 O 37.9204 -0.772022 -5.41019 0
M  V30 434 H 35.0144 -0.081526 -0.822972 0
M  V30 435 H 37.5604 -0.890962 -1.4443 0
M  V30 436 H 36.3324 -1.76426 -3.4927 0
M  V30 437 H 35.9554 -0.118232 -3.97424 0
M  V30 438 N 36.9525 1.47285 -0.560781 0
M  V30 439 C 37.9005 2.31756 0.197942 0
M  V30 440 C 38.8945 1.43146 0.905854 0
M  V30 441 O 40.1005 1.59891 0.826733 0
M  V30 442 H 36.4755 0.747438 0.0827049 0
M  V30 443 H 38.4465 2.9359 -0.533629 0
M  V30 444 C 37.1955 3.25874 1.21249 0
M  V30 445 H 36.5185 3.94023 0.67719 0
M  V30 446 H 37.9585 3.87803 1.71419 0
M  V30 447 C 36.4175 2.49651 2.26221 0
M  V30 448 O 36.9475 2.24355 3.33208 0
M  V30 449 N 35.1535 2.10597 2.00243 0
M  V30 450 H 34.7005 2.31369 1.13252 0
M  V30 451 H 34.6585 1.59913 2.70694 0
M  V30 452 N 38.4306 0.297415 1.54768 0
M  V30 453 C 39.3936 -0.567375 2.22066 0
M  V30 454 C 40.3936 -1.06409 1.20556 0
M  V30 455 O 41.5836 -0.960691 1.45315 0
M  V30 456 C 38.7156 -1.78517 2.90421 0
M  V30 457 H 39.9086 0.0205534 2.99893 0
M  V30 458 H 37.4616 0.0482163 1.56226 0
M  V30 459 H 38.1966 -2.41303 2.16664 0
M  V30 460 H 37.9816 -1.43669 3.64831 0
M  V30 461 H 39.4716 -2.39964 3.41771 0
M  V30 462 N 39.9087 -1.5758 0.0250728 0
M  V30 463 C 41.1567 -1.91255 -0.653151 0
M  V30 464 C 41.4777 -0.901691 -1.729 0
M  V30 465 O 40.7477 0.0573785 -1.95816 0
M  V30 466 H 39.3277 -0.705942 -0.244243 0
M  V30 467 H 41.9897 -1.94767 0.0719209 0
M  V30 468 H 41.0857 -2.91752 -1.10847 0
M  V30 469 N 41.3868 0.248026 -1.55636 0
M  V30 470 C 42.3338 1.30707 -1.90222 0
M  V30 471 C 43.3038 1.47881 -0.756332 0
M  V30 472 O 44.4888 1.61883 -1.00988 0
M  V30 473 C 41.6288 2.65769 -2.20138 0
M  V30 474 C 40.7418 2.56612 -3.47526 0
M  V30 475 C 39.8768 3.8402 -3.67017 0
M  V30 476 C 38.9158 3.69476 -4.8801 0
M  V30 477 N 38.0528 4.88774 -5.04029 0
M  V30 478 H 42.8928 1.00512 -2.80538 0
M  V30 479 H 40.4298 0.485055 -1.38873 0
M  V30 480 H 42.3878 3.44386 -2.35487 0
M  V30 481 H 41.0178 2.94115 -1.33027 0
M  V30 482 H 40.0698 1.69571 -3.40514 0
M  V30 483 H 41.3818 2.41774 -4.36287 0
M  V30 484 H 40.5358 4.7108 -3.8232 0
M  V30 485 H 39.2748 4.01754 -2.76487 0
M  V30 486 H 38.2798 2.80799 -4.72686 0
M  V30 487 H 39.5048 3.53238 -5.8 0
M  V30 488 H 37.4508 5.0687 -4.16435 0
M  V30 489 H 37.3678 4.76562 -5.86877 0
M  V30 490 H 38.6358 5.77335 -5.23741 0
M  V30 491 N 42.8649 1.48995 0.513639 0
M  V30 492 C 44.0929 1.61531 1.29288 0
M  V30 493 C 44.5079 0.281801 1.86685 0
M  V30 494 O 43.8649 -0.731111 1.67215 0
M  V30 495 C 43.9159 2.67449 2.43215 0
M  V30 496 O 43.6369 3.95626 1.88179 0
M  V30 497 C 45.1379 2.90575 3.34785 0
M  V30 498 H 42.3579 0.544165 0.392588 0
M  V30 499 H 44.9019 1.9494 0.617956 0
M  V30 500 H 43.0569 2.36853 3.0656 0
M  V30 501 H 43.4709 4.53868 2.62876 0
M  V30 502 H 44.9449 3.68449 4.11035 0
M  V30 503 H 45.4219 2.00011 3.91015 0
M  V30 504 H 46.0279 3.22538 2.77218 0
M  V30 505 N 44.343 -0.763751 1.37857 0
M  V30 506 C 45.571 -1.55293 1.36718 0
M  V30 507 C 45.986 -1.88745 -0.0455434 0
M  V30 508 O 45.343 -1.52039 -1.00947 0
M  V30 509 C 45.394 -2.85831 2.2132 0
M  V30 510 O 45.115 -2.5381 3.57089 0
M  V30 511 C 46.616 -3.80023 2.28249 0
M  V30 512 H 43.836 -0.480841 0.468009 0
M  V30 513 H 46.38 -0.946009 1.81303 0
M  V30 514 H 44.535 -3.42926 1.80223 0
M  V30 515 H 44.949 -3.37459 4.01524 0
M  V30 516 H 46.423 -4.68599 2.91752 0
M  V30 517 H 46.9 -4.1973 1.2932 0
M  V30 518 H 47.506 -3.28855 2.69693 0
M  V30 519 N 45.8211 -1.22559 -0.990812 0
M  V30 520 C 47.0701 -1.04553 -1.72486 0
M  V30 521 C 47.3831 0.419349 -1.91052 0
M  V30 522 O 48.5891 0.719121 -2.61803 0
M  V30 523 C 47.0451 -1.82231 -3.10355 0
M  V30 524 C 46.6531 -3.32981 -2.99713 0
M  V30 525 C 48.3971 -1.7268 -3.87791 0
M  V30 526 C 46.3041 -4.03091 -4.32748 0
M  V30 527 H 45.2341 -0.387614 -0.646739 0
M  V30 528 H 47.8851 -1.46429 -1.10593 0
M  V30 529 H 46.2671 -1.33155 -3.72942 0
M  V30 530 H 47.4411 -3.89466 -2.46278 0
M  V30 531 H 45.7561 -3.43231 -2.35758 0
M  V30 532 H 48.3531 -2.22381 -4.86262 0
M  V30 533 H 48.6961 -0.687607 -4.10582 0
M  V30 534 H 49.2291 -2.1931 -3.31885 0
M  V30 535 H 45.9681 -5.07273 -4.15156 0
M  V30 536 H 45.4881 -3.51394 -4.86089 0
M  V30 537 H 47.1671 -4.08804 -5.01486 0
M  V30 538 N 47.2992 1.18797 -1.03562 0
M  V30 539 C 48.2292 2.24472 -0.643019 0
M  V30 540 C 49.2102 1.66433 0.351283 0
M  V30 541 O 50.3952 1.92803 0.232505 0
M  V30 542 C 47.5252 3.473 4.24935e-05 0
M  V30 543 C 46.4792 4.18055 -0.917257 0
M  V30 544 C 45.8052 5.34519 -0.138941 0
M  V30 545 C 47.1052 4.72109 -2.23407 0
M  V30 546 H 48.7992 2.57566 -1.52643 0
M  V30 547 H 46.3452 1.23806 -0.735394 0
M  V30 548 H 48.2982 4.20426 0.286383 0
M  V30 549 H 47.0222 3.13424 0.918299 0
M  V30 550 H 45.6812 3.46821 -1.1879 0
M  V30 551 H 45.3292 4.96891 0.781562 0
M  V30 552 H 45.0292 5.82794 -0.750005 0
M  V30 553 H 46.5532 6.10438 0.1405 0
M  V30 554 H 47.9672 5.36955 -2.00879 0
M  V30 555 H 46.3642 5.30897 -2.79765 0
M  V30 556 H 47.4342 3.89807 -2.88407 0
M  V30 557 N 48.7773 0.814389 1.34928 0
M  V30 558 C 50.0073 0.41054 2.0248 0
M  V30 559 C 50.4153 -0.985625 1.61499 0
M  V30 560 O 49.7583 -1.64781 0.811976 0
M  V30 561 C 49.8203 0.423384 3.56998 0
M  V30 562 C 49.4843 1.77141 4.21272 0
M  V30 563 C 50.4813 2.73093 4.42398 0
M  V30 564 C 48.1663 2.05755 4.58225 0
M  V30 565 C 50.1603 3.95838 4.9959 0
M  V30 566 C 47.8473 3.28762 5.1513 0
M  V30 567 C 48.8453 4.23621 5.35755 0
M  V30 568 O 48.5333 5.44456 5.91458 0
M  V30 569 H 48.2653 0.163997 0.655806 0
M  V30 570 H 50.8193 1.10155 1.73364 0
M  V30 571 H 49.0493 -0.324276 3.85338 0
M  V30 572 H 50.7383 0.0407683 4.0588 0
M  V30 573 H 51.5043 2.5228 4.14222 0
M  V30 574 H 47.3833 1.32727 4.4148 0
M  V30 575 H 50.9273 4.69891 5.15605 0
M  V30 576 H 46.8243 3.49443 5.42734 0
M  V30 577 H 47.5923 5.4586 6.09901 0
M  V30 578 N 50.2554 -1.46986 0.568584 0
M  V30 579 C 51.1874 -2.28233 -0.210337 0
M  V30 580 C 52.2004 -1.37682 -0.868767 0
M  V30 581 O 53.3894 -1.62406 -0.740705 0
M  V30 582 C 50.4894 -3.12293 -1.3163 0
M  V30 583 C 49.6624 -4.30878 -0.7525 0
M  V30 584 C 48.7214 -4.96445 -1.74439 0
M  V30 585 O 47.7474 -5.54482 -1.286 0
M  V30 586 N 48.9494 -4.92171 -3.07812 0
M  V30 587 H 51.7144 -2.95723 0.486648 0
M  V30 588 H 49.2754 -1.56742 0.405409 0
M  V30 589 H 51.2674 -3.53022 -1.97883 0
M  V30 590 H 49.8374 -2.46971 -1.91636 0
M  V30 591 H 49.0574 -3.94104 0.0871128 0
M  V30 592 H 50.3454 -5.07558 -0.35536 0
M  V30 593 H 49.7434 -4.46239 -3.47688 0
M  V30 594 H 48.3004 -5.36884 -3.69592 0
M  V30 595 N 51.7335 -0.305618 -1.54608 0
M  V30 596 C 52.9805 0.302298 -2.00231 0
M  V30 597 C 53.3085 1.5354 -1.19398 0
M  V30 598 O 52.5635 1.93973 -0.259423 0
M  V30 599 C 52.8625 0.698983 -3.50498 0
M  V30 600 C 52.5285 -0.432903 -4.48817 0
M  V30 601 C 51.1905 -0.743622 -4.75419 0
M  V30 602 C 53.5425 -1.19409 -5.07337 0
M  V30 603 C 50.8705 -1.81857 -5.57804 0
M  V30 604 C 53.2225 -2.25899 -5.90891 0
M  V30 605 C 51.8865 -2.57572 -6.15803 0
M  V30 606 H 51.1565 0.110619 -0.732697 0
M  V30 607 H 53.8035 -0.425674 -1.86709 0
M  V30 608 H 52.1085 1.50711 -3.61654 0
M  V30 609 H 53.8055 1.1806 -3.83227 0
M  V30 610 H 50.3955 -0.18063 -4.28219 0
M  V30 611 H 54.5795 -0.967295 -4.86782 0
M  V30 612 H 49.8355 -2.06864 -5.75341 0
M  V30 613 H 54.0095 -2.85335 -6.35261 0
M  V30 614 H 51.6365 -3.40998 -6.7943 0
M  V30 615 N 53.2116 1.57565 -0.0334293 0
M  V30 616 C 54.4366 1.96689 0.657895 0
M  V30 617 C 54.8616 0.910057 1.64619 0
M  V30 618 O 54.2196 -0.128598 1.80843 0
M  V30 619 C 54.2676 3.34905 1.33683 0
M  V30 620 O 53.3716 3.31574 2.45219 0
M  V30 621 H 52.7126 0.641205 0.172489 0
M  V30 622 H 55.2426 2.04372 -0.0965621 0
M  V30 623 H 55.2526 3.71234 1.69262 0
M  V30 624 H 53.9276 4.11366 0.612411 0
M  V30 625 H 52.5046 3.06968 2.11719 0
M  V30 626 N 54.6897 -0.239769 1.55765 0
M  V30 627 C 55.6227 -1.32356 1.85895 0
M  V30 628 C 56.6007 -1.46053 0.714662 0
M  V30 629 O 57.7847 -1.62154 0.961157 0
M  V30 630 C 54.9117 -2.6962 2.04994 0
M  V30 631 C 53.9577 -2.73036 3.27648 0
M  V30 632 S 54.7907 -2.28929 4.84099 0
M  V30 633 C 55.9467 -3.68103 5.06212 0
M  V30 634 H 56.1797 -1.06601 2.77531 0
M  V30 635 H 53.7127 -0.441112 1.47965 0
M  V30 636 H 55.6707 -3.48653 2.16682 0
M  V30 637 H 54.3317 -2.92609 1.14188 0
M  V30 638 H 53.5247 -3.7386 3.38 0
M  V30 639 H 53.1267 -2.02052 3.14723 0
M  V30 640 H 55.4187 -4.63656 4.93993 0
M  V30 641 H 56.3617 -3.6268 6.08168 0
M  V30 642 H 56.7697 -3.60947 4.34025 0
M  V30 643 N 56.1678 -1.49265 -0.50573 0
M  V30 644 C 57.1158 -1.66065 -1.62866 0
M  V30 645 C 58.1098 -0.526636 -1.61006 0
M  V30 646 O 59.3158 -0.706126 -1.65571 0
M  V30 647 H 55.6908 -0.52356 -0.539805 0
M  V30 648 H 57.6618 -2.60329 -1.45848 0
M  V30 649 C 56.4108 -1.74008 -3.01026 0
M  V30 650 H 55.7338 -2.6064 -3.03161 0
M  V30 651 H 57.1738 -1.89798 -3.79147 0
M  V30 652 C 55.6328 -0.483868 -3.33407 0
M  V30 653 O 56.1628 0.392548 -3.99777 0
M  V30 654 N 54.3688 -0.348236 -2.88506 0
M  V30 655 H 53.9158 -1.06242 -2.34671 0
M  V30 656 H 53.8738 0.491204 -3.10539 0
M  V30 657 N 57.6459 0.756429 -1.3826 0
M  V30 658 C 58.5559 1.9009 -1.37488 0
M  V30 659 C 59.5719 1.71855 -0.272366 0
M  V30 660 O 60.7479 1.94827 -0.510318 0
M  V30 661 C 57.8129 3.25421 -1.19592 0
M  V30 662 C 56.8739 3.56202 -2.39622 0
M  V30 663 C 56.1069 4.85075 -2.2257 0
M  V30 664 O 56.3299 5.57246 -1.21793 0
M  V30 665 O 55.2639 5.15269 -3.11098 0
M  V30 666 H 59.0899 1.93695 -2.33914 0
M  V30 667 H 56.6749 0.901313 -1.1915 0
M  V30 668 H 58.5569 4.06337 -1.11661 0
M  V30 669 H 57.2319 3.22634 -0.262486 0
M  V30 670 H 56.1389 2.75458 -2.53128 0
M  V30 671 H 57.4719 3.63747 -3.31586 0
M  V30 672 N 59.124 1.23083 0.984299 0
M  V30 673 C 60.37 1.06214 1.72761 0
M  V30 674 C 60.703 -0.400584 1.90024 0
M  V30 675 O 59.978 -1.29672 1.44967 0
M  V30 676 C 60.261 1.78375 3.12817 0
M  V30 677 C 60.114 3.32296 3.03149 0
M  V30 678 C 61.433 1.54309 4.12161 0
M  V30 679 H 58.552 0.387251 0.627061 0
M  V30 680 H 61.194 1.51536 1.14616 0
M  V30 681 H 59.344 1.39848 3.62457 0
M  V30 682 H 61.016 3.8032 2.61064 0
M  V30 683 H 59.259 3.6153 2.39747 0
M  V30 684 H 59.93 3.77972 4.02295 0
M  V30 685 H 62.406 1.87791 3.71314 0
M  V30 686 H 61.282 2.07281 5.08258 0
M  V30 687 H 61.543 0.477572 4.39513 0
M  V30 688 N 60.6021 -1.18246 1.0419 0
M  V30 689 C 61.8481 -1.88536 0.747122 0
M  V30 690 C 62.1811 -1.80223 -0.723409 0
M  V30 691 O 61.4561 -1.20337 -1.52804 0
M  V30 692 C 61.7391 -3.38968 1.21544 0
M  V30 693 C 61.5921 -3.56084 2.74816 0
M  V30 694 C 62.9111 -4.32648 0.806482 0
M  V30 695 H 60.0301 -0.684619 0.272883 0
M  V30 696 H 62.6721 -1.39113 1.29413 0
M  V30 697 H 60.8221 -3.8119 0.750081 0
M  V30 698 H 62.4941 -3.22946 3.29399 0
M  V30 699 H 60.7371 -2.98699 3.14582 0
M  V30 700 H 61.4081 -4.61639 3.02644 0
M  V30 701 H 63.8841 -3.98211 1.20695 0
M  V30 702 H 62.7601 -5.36462 1.1619 0
M  V30 703 H 63.0211 -4.41146 -0.29029 0
M  V30 704 N 62.0802 -0.821533 -1.34494 0
M  V30 705 C 63.0302 -0.214793 -2.26986 0
M  V30 706 C 64.0142 0.620125 -1.4847 0
M  V30 707 O 65.2062 0.474933 -1.70509 0
M  V30 708 C 62.3352 0.623566 -3.37589 0
M  V30 709 C 61.4212 -0.221904 -4.23519 0
M  V30 710 N 61.8122 -1.29223 -4.89014 0
M  V30 711 C 60.1102 -0.00600922 -4.46 0
M  V30 712 C 60.8112 -1.80965 -5.52835 0
M  V30 713 N 59.7872 -1.11376 -5.32068 0
M  V30 714 H 63.5892 -1.03354 -2.75128 0
M  V30 715 H 61.1032 -0.6642 -1.48196 0
M  V30 716 H 63.1002 1.0744 -4.02818 0
M  V30 717 H 61.7602 1.44049 -2.90998 0
M  V30 718 H 62.7712 -1.67502 -4.90065 0
M  V30 719 H 59.4482 0.77886 -4.10171 0
M  V30 720 H 60.8382 -2.70502 -6.15043 0
M  V30 721 N 63.5583 1.46682 -0.576371 0
M  V30 722 C 64.7863 2.06798 -0.0649635 0
M  V30 723 C 65.2013 1.42612 1.23723 0
M  V30 724 O 64.5583 0.529203 1.74659 0
M  V30 725 C 64.6093 3.6132 0.114202 0
M  V30 726 O 64.3303 4.23104 -1.13644 0
M  V30 727 C 65.8313 4.38349 0.66069 0
M  V30 728 H 63.0513 0.668778 -0.0545616 0
M  V30 729 H 65.5953 1.88404 -0.795237 0
M  V30 730 H 63.7503 3.79162 0.794673 0
M  V30 731 H 64.1643 5.15894 -0.946253 0
M  V30 732 H 65.6383 5.47081 0.73526 0
M  V30 733 H 66.1153 4.05953 1.67627 0
M  V30 734 H 66.7213 4.25297 0.0152951 0
M  V30 735 N 65.0364 0.313813 1.54444 0
M  V30 736 C 66.2614 -0.296681 2.05267 0
M  V30 737 C 66.6864 -1.45757 1.18897 0
M  V30 738 O 66.0444 -1.80239 0.195886 0
M  V30 739 C 66.0924 -0.71831 3.53373 0
M  V30 740 O 65.1964 -1.82175 3.69981 0
M  V30 741 H 64.5374 -0.0554061 0.661684 0
M  V30 742 H 67.0674 0.459387 1.99376 0
M  V30 743 H 67.0774 -1.00364 3.95463 0
M  V30 744 H 65.7524 0.130821 4.15694 0
M  V30 745 H 64.3294 -1.53598 3.39797 0
M  V30 746 N 66.5145 -1.57545 0.0417849 0
M  V30 747 C 67.9255 -1.80011 -0.495259 0
M  V30 748 C 68.2765 -0.953199 -1.71489 0
M  V30 749 O 67.4015 -0.167138 -2.15754 0
M  V30 750 C 67.9965 -3.26482 -0.905265 0
M  V30 751 C 66.5555 -3.499 -1.38734 0
M  V30 752 C 65.7025 -2.74979 -0.358056 0
M  V30 753 H 68.6535 -1.56425 0.267736 0
M  V30 754 H 68.6745 -3.36887 -1.76882 0
M  V30 755 H 68.1865 -3.88096 -0.017401 0
M  V30 756 H 66.2875 -2.93553 -2.29471 0
M  V30 757 H 66.4005 -4.58615 -1.38598 0
M  V30 758 H 64.7645 -2.40834 -0.828912 0
M  V30 759 H 65.5475 -3.39315 0.521561 0
M  V30 760 N 67.9926 0.231505 -1.5589 0
M  V30 761 C 69.2206 0.974505 -1.82513 0
M  V30 762 C 69.6356 1.78344 -0.619591 0
M  V30 763 O 68.9926 1.77792 0.411848 0
M  V30 764 C 69.0436 1.90007 -3.07538 0
M  V30 765 O 68.7646 1.12385 -4.2344 0
M  V30 766 C 70.2656 2.75779 -3.47075 0
M  V30 767 H 67.4856 0.286065 -0.606966 0
M  V30 768 H 70.0296 0.249739 -2.02969 0
M  V30 769 H 68.1846 2.57891 -2.89086 0
M  V30 770 H 68.5986 1.75125 -4.944 0
M  V30 771 H 70.0726 3.36443 -4.37619 0
M  V30 772 H 70.5496 3.47672 -2.68367 0
M  V30 773 H 71.1556 2.13323 -3.67931 0
M  V30 774 N 69.4707 1.49531 0.497807 0
M  V30 775 C 70.7197 1.58426 1.24837 0
M  V30 776 C 71.0327 0.277643 1.93619 0
M  V30 777 O 72.2387 0.24517 2.70391 0
M  V30 778 C 70.6947 2.79538 2.26686 0
M  V30 779 C 70.3027 4.16971 1.63828 0
M  V30 780 C 72.0467 2.97764 3.0255 0
M  V30 781 C 69.9537 5.29301 2.63807 0
M  V30 782 H 68.8837 0.58989 0.469623 0
M  V30 783 H 71.5347 1.75923 0.521857 0
M  V30 784 H 69.9167 2.55542 3.02514 0
M  V30 785 H 71.0907 4.51116 0.939711 0
M  V30 786 H 69.4057 4.04129 1.00342 0
M  V30 787 H 72.0027 3.78856 3.77323 0
M  V30 788 H 72.3457 2.08448 3.60354 0
M  V30 789 H 72.8787 3.21815 2.33838 0
M  V30 790 H 69.6177 6.20687 2.10779 0
M  V30 791 H 69.1377 4.99606 3.31894 0
M  V30 792 H 70.8167 5.58768 3.2617 0
M  V30 793 N 70.9488 -0.749086 1.3866 0
M  V30 794 C 72.1968 -1.50535 1.34847 0
M  V30 795 C 72.5178 -1.94909 -0.0595016 0
M  V30 796 O 71.7878 -1.67973 -1.00806 0
M  V30 797 H 70.3678 -0.558395 0.49619 0
M  V30 798 H 73.0298 -0.890165 1.73384 0
M  V30 799 H 72.1258 -2.39413 2.00219 0
M  V30 800 N 72.4269 -1.23603 -0.977757 0
M  V30 801 C 73.6519 -1.09735 -1.75991 0
M  V30 802 C 74.0769 0.346858 -1.84874 0
M  V30 803 O 73.4349 1.25093 -1.3123 0
M  V30 804 C 73.4829 -1.73051 -3.16363 0
M  V30 805 O 72.5869 -0.994452 -4.0023 0
M  V30 806 H 71.9279 -0.384476 -0.541364 0
M  V30 807 H 74.4579 -1.6371 -1.2272 0
M  V30 808 H 74.4679 -1.78398 -3.66931 0
M  V30 809 H 73.1429 -2.78137 -3.09213 0
M  V30 810 H 71.7199 -1.01812 -3.58732 0
M  V30 811 N 73.905 1.17692 -1.04816 0
M  V30 812 C 74.853 2.23632 -0.63966 0
M  V30 813 C 75.847 1.6601 0.337219 0
M  V30 814 O 77.053 1.78844 0.203693 0
M  V30 815 H 73.428 0.727949 -0.188665 0
M  V30 816 H 75.399 2.55387 -1.54337 0
M  V30 817 C 74.148 3.4769 -0.0264051 0
M  V30 818 H 73.471 3.92331 -0.769164 0
M  V30 819 H 74.911 4.23418 0.222098 0
M  V30 820 C 73.37 3.13807 1.22584 0
M  V30 821 O 73.9 3.28236 2.31569 0
M  V30 822 N 72.106 2.68065 1.12202 0
M  V30 823 H 71.653 2.56525 0.235133 0
M  V30 824 H 71.611 2.45767 1.96076 0
M  V30 825 N 75.3831 0.828654 1.34056 0
M  V30 826 C 76.6291 0.42008 1.98402 0
M  V30 827 C 76.9621 -1.01564 1.65525 0
M  V30 828 O 76.2371 -1.70834 0.929831 0
M  V30 829 C 76.5201 0.62927 3.54559 0
M  V30 830 C 76.3731 2.11152 3.97159 0
M  V30 831 C 77.6921 0.0688756 4.40046 0
M  V30 832 H 74.8111 0.154104 0.720709 0
M  V30 833 H 77.4531 1.04228 1.5886 0
M  V30 834 H 75.6031 0.0996418 3.88372 0
M  V30 835 H 77.2751 2.70522 3.73651 0
M  V30 836 H 75.5181 2.59985 3.47261 0
M  V30 837 H 76.1891 2.20868 5.05887 0
M  V30 838 H 78.6651 0.521458 4.1282 0
M  V30 839 H 77.5411 0.245006 5.48353 0
M  V30 840 H 77.8021 -1.0266 4.30015 0
M  V30 841 N 76.8612 -1.46375 0.584142 0
M  V30 842 C 77.7712 -2.34115 -0.150728 0
M  V30 843 C 78.7872 -1.49838 -0.884567 0
M  V30 844 O 79.9632 -1.82704 -0.847429 0
M  V30 845 C 77.0282 -3.2705 -1.15062 0
M  V30 846 C 76.0892 -4.27228 -0.421293 0
M  V30 847 C 75.3222 -5.15722 -1.37355 0
M  V30 848 O 75.5452 -5.07176 -2.61014 0
M  V30 849 O 74.4792 -5.95383 -0.883355 0
M  V30 850 H 78.3052 -2.98309 0.569708 0
M  V30 851 H 75.8902 -1.45373 0.344535 0
M  V30 852 H 77.7722 -3.84381 -1.72712 0
M  V30 853 H 76.4472 -2.65451 -1.8525 0
M  V30 854 H 75.3542 -3.7358 0.197085 0
M  V30 855 H 76.6872 -4.91616 0.239641 0
M  V30 856 N 78.3393 -0.321999 -1.54275 0
M  V30 857 C 79.2493 0.553631 -2.27974 0
M  V30 858 C 80.2653 1.13054 -1.32268 0
M  V30 859 O 81.4413 1.15084 -1.6528 0
M  V30 860 C 78.5063 1.69927 -3.02201 0
M  V30 861 C 77.5673 1.15433 -4.1349 0
M  V30 862 C 76.8003 2.24537 -4.84168 0
M  V30 863 O 77.0233 3.44852 -4.5435 0
M  V30 864 O 75.9573 1.90044 -5.7111 0
M  V30 865 H 79.7833 -0.0448345 -3.03667 0
M  V30 866 H 77.3683 -0.0877418 -1.49142 0
M  V30 867 H 79.2503 2.3663 -3.48689 0
M  V30 868 H 77.9253 2.28395 -2.29385 0
M  V30 869 H 76.8323 0.452436 -3.71354 0
M  V30 870 H 78.1653 0.614805 -4.88345 0
M  V30 871 N 79.8174 1.5752 -0.0501392 0
M  V30 872 C 81.0664 1.91827 0.623328 0
M  V30 873 C 81.3794 0.930222 1.72065 0
M  V30 874 O 82.5854 1.1653 2.4522 0
M  V30 875 C 81.0414 3.40692 1.16003 0
M  V30 876 C 80.6494 4.479 0.0948811 0
M  V30 877 C 82.3934 3.84034 1.80881 0
M  V30 878 C 80.3004 5.87879 0.644411 0
M  V30 879 H 79.2304 0.715918 0.236596 0
M  V30 880 H 81.8814 1.83115 -0.118861 0
M  V30 881 H 80.2634 3.44405 1.9545 0
M  V30 882 H 81.4374 4.55775 -0.678675 0
M  V30 883 H 79.7524 4.13892 -0.45637 0
M  V30 884 H 82.3494 4.85984 2.22988 0
M  V30 885 H 82.6924 3.20225 2.6601 0
M  V30 886 H 83.2254 3.82833 1.0809 0
M  V30 887 H 79.9644 6.55282 -0.169229 0
M  V30 888 H 79.4844 5.83567 1.38598 0
M  V30 889 H 81.1634 6.37098 1.12763 0
M  V30 890 N 81.2955 -0.223234 1.56011 0
M  V30 891 C 82.5415 -0.949279 1.79211 0
M  V30 892 C 82.8745 -1.84054 0.619494 0
M  V30 893 O 82.1495 -1.90726 -0.381317 0
M  V30 894 C 82.4325 -1.78965 3.12479 0
M  V30 895 C 82.2855 -0.924997 4.40186 0
M  V30 896 C 83.6045 -2.76774 3.42175 0
M  V30 897 H 80.7235 -0.343676 0.651963 0
M  V30 898 H 83.3655 -0.218253 1.88742 0
M  V30 899 H 81.5155 -2.41291 3.04485 0
M  V30 900 H 83.1875 -0.318615 4.60198 0
M  V30 901 H 81.4305 -0.230344 4.33188 0
M  V30 902 H 82.1015 -1.54735 5.29869 0
M  V30 903 H 84.5775 -2.24584 3.50287 0
M  V30 904 H 83.4535 -3.32678 4.36597 0
M  V30 905 H 83.7145 -3.54429 2.64258 0
M  V30 906 N 82.7736 -1.49793 -0.48987 0
M  V30 907 C 84.0226 -1.59085 -1.23995 0
M  V30 908 C 84.3356 -0.287907 -1.9347 0
M  V30 909 O 85.5416 -0.259506 -2.70257 0
M  V30 910 C 83.9976 -2.80736 -2.252 0
M  V30 911 C 83.6056 -4.17833 -1.61614 0
M  V30 912 C 85.3496 -2.99364 -3.00967 0
M  V30 913 C 83.2566 -5.30693 -2.60996 0
M  V30 914 H 82.1866 -0.592372 -0.466488 0
M  V30 915 H 84.8376 -1.76197 -0.51252 0
M  V30 916 H 83.2196 -2.57142 -3.01154 0
M  V30 917 H 84.3936 -4.51608 -0.915774 0
M  V30 918 H 82.7086 -4.04656 -0.981977 0
M  V30 919 H 85.3056 -3.80851 -3.75308 0
M  V30 920 H 85.6486 -2.10356 -3.59244 0
M  V30 921 H 86.1816 -3.2305 -2.32128 0
M  V30 922 H 82.9206 -6.21796 -2.07485 0
M  V30 923 H 82.4406 -5.01359 -3.2924 0
M  V30 924 H 84.1196 -5.6049 -3.23202 0
M  V30 925 N 84.2517 0.741722 -1.39055 0
M  V30 926 C 85.1997 1.87702 -1.3737 0
M  V30 927 C 86.1937 1.67427 -0.257812 0
M  V30 928 O 87.3997 1.7485 -0.427489 0
M  V30 929 H 83.7747 0.617757 -0.428812 0
M  V30 930 H 85.7457 1.86239 -2.33147 0
M  V30 931 C 84.4947 3.25315 -1.22741 0
M  V30 932 H 83.8177 3.41509 -2.07873 0
M  V30 933 H 85.2577 4.04964 -1.25618 0
M  V30 934 C 83.7167 3.36838 0.0647316 0
M  V30 935 O 84.2467 3.88073 1.03741 0
M  V30 936 N 82.4527 2.90329 0.125544 0
M  V30 937 H 81.9997 2.48823 -0.666682 0
M  V30 938 H 81.9577 2.98418 0.989639 0
M  V30 939 N 85.7298 1.2412 0.971189 0
M  V30 940 C 86.6778 1.02812 2.08644 0
M  V30 941 C 87.6718 -0.0358403 1.69362 0
M  V30 942 O 88.8778 0.118429 1.7961 0
M  V30 943 H 85.2528 0.315428 0.682649 0
M  V30 944 H 87.2238 1.97397 2.23779 0
M  V30 945 C 85.9728 0.645874 3.41649 0
M  V30 946 H 85.2958 1.45632 3.72332 0
M  V30 947 H 86.7358 0.536366 4.20594 0
M  V30 948 C 85.1948 -0.646713 3.30635 0
M  V30 949 O 85.7248 -1.69338 3.64263 0
M  V30 950 N 83.9308 -0.626115 2.83775 0
M  V30 951 H 83.4778 0.225988 2.56607 0
M  V30 952 H 83.4358 -1.49117 2.76788 0
M  V30 953 N 87.2079 -1.17134 1.05439 0
M  V30 954 C 88.4359 -1.91372 0.786414 0
M  V30 955 C 88.8509 -1.76955 -0.658202 0
M  V30 956 O 88.2079 -1.10838 -1.44987 0
M  V30 957 C 88.2589 -3.42356 1.1608 0
M  V30 958 O 87.9799 -3.56332 2.54871 0
M  V30 959 C 89.4809 -4.33663 0.919322 0
M  V30 960 H 86.7009 -0.607118 0.285743 0
M  V30 961 H 89.2449 -1.48525 1.40572 0
M  V30 962 H 87.3999 -3.82939 0.586191 0
M  V30 963 H 87.8139 -4.49896 2.69618 0
M  V30 964 H 89.2879 -5.38099 1.231 0
M  V30 965 H 89.7649 -4.38959 -0.145359 0
M  V30 966 H 90.3709 -3.98796 1.47789 0
M  V30 967 N 88.686 -0.835752 -1.33615 0
M  V30 968 C 90.102 -0.523139 -1.50783 0
M  V30 969 C 90.302 0.950171 -1.77691 0
M  V30 970 O 89.358 1.73411 -1.83534 0
M  V30 971 C 90.671 -1.39378 -2.66448 0
M  V30 972 C 92.219 -1.39223 -2.80332 0
M  V30 973 C 92.694 -2.24765 -3.99055 0
M  V30 974 N 94.185 -2.22458 -4.06284 0
M  V30 975 C 94.92 -2.85386 -4.97336 0
M  V30 976 N 94.416 -3.57354 -5.93523 0
M  V30 977 N 96.209 -2.74872 -4.90308 0
M  V30 978 H 88.36 -1.78952 -1.14411 0
M  V30 979 H 90.623 -0.763297 -0.562212 0
M  V30 980 H 90.329 -2.44061 -2.53234 0
M  V30 981 H 90.203 -1.0676 -3.61776 0
M  V30 982 H 92.59 -0.353136 -2.92979 0
M  V30 983 H 92.671 -1.75846 -1.85773 0
M  V30 984 H 92.315 -3.28732 -3.87167 0
M  V30 985 H 92.245 -1.85485 -4.92852 0
M  V30 986 H 94.736 -1.70119 -3.37443 0
M  V30 987 H 95.049 -4.02584 -6.59656 0
M  V30 988 H 93.394 -3.61461 -5.93608 0
M  V30 989 H 96.585 -2.18213 -4.14126 0
M  V30 990 H 96.758 -3.24199 -5.61069 0
M  V30 991 N 90.1641 1.46063 -0.591896 0
M  V30 992 C 91.4111 2.02338 -0.0809991 0
M  V30 993 C 91.7391 1.46228 1.28249 0
M  V30 994 O 90.9941 0.620818 1.85592 0
M  V30 995 C 91.2931 3.57391 0.0249813 0
M  V30 996 C 90.9591 4.32583 -1.27211 0
M  V30 997 C 89.6211 4.52844 -1.62745 0
M  V30 998 C 91.9731 4.75687 -2.13005 0
M  V30 999 C 89.3011 5.13462 -2.83855 0
M  V30 1000 C 91.6531 5.37644 -3.3335 0
M  V30 1001 C 90.3171 5.5613 -3.69155 0
M  V30 1002 H 89.5871 0.740407 -0.0296397 0
M  V30 1003 H 92.2341 1.75321 -0.770374 0
M  V30 1004 H 90.5391 3.83597 0.797537 0
M  V30 1005 H 92.2361 3.98621 0.436184 0
M  V30 1006 H 88.8261 4.17116 -0.985499 0
M  V30 1007 H 93.0101 4.59782 -1.86855 0
M  V30 1008 H 88.2661 5.25965 -3.11722 0
M  V30 1009 H 92.4401 5.7 -4.00092 0
M  V30 1010 H 90.0671 6.0287 -4.63089 0
M  V30 1011 N 91.6422 0.330177 1.54103 0
M  V30 1012 C 92.5722 -0.525353 2.27513 0
M  V30 1013 C 93.5532 -1.11383 1.2856 0
M  V30 1014 O 94.7382 -1.13773 1.57383 0
M  V30 1015 C 91.8682 -1.6831 3.03791 0
M  V30 1016 C 90.8222 -1.2236 4.10137 0
M  V30 1017 C 90.1482 -2.46882 4.74293 0
M  V30 1018 C 91.4482 -0.333697 5.21233 0
M  V30 1019 H 93.1422 0.087013 2.99274 0
M  V30 1020 H 90.6882 0.0432893 1.43935 0
M  V30 1021 H 92.6412 -2.28795 3.5388 0
M  V30 1022 H 91.3652 -2.32216 2.29659 0
M  V30 1023 H 90.0242 -0.64165 3.60941 0
M  V30 1024 H 89.6722 -3.09165 3.96769 0
M  V30 1025 H 89.3722 -2.16825 5.46133 0
M  V30 1026 H 90.8962 -3.08117 5.27159 0
M  V30 1027 H 92.3102 -0.845013 5.67038 0
M  V30 1028 H 90.7072 -0.125612 5.99969 0
M  V30 1029 H 91.7772 0.633724 4.80741 0
M  V30 1030 N 93.1203 -1.57491 0.0584922 0
M  V30 1031 C 94.0533 -2.07533 -0.948969 0
M  V30 1032 C 95.0313 -0.977444 -1.29942 0
M  V30 1033 O 96.2153 -1.2499 -1.41102 0
M  V30 1034 C 93.3423 -2.52192 -2.2609 0
M  V30 1035 C 92.3883 -3.73287 -2.06298 0
M  V30 1036 S 93.2213 -5.18603 -1.33459 0
M  V30 1037 C 94.3773 -5.66583 -2.65959 0
M  V30 1038 H 94.6103 -2.92662 -0.523118 0
M  V30 1039 H 92.1433 -1.53631 -0.153954 0
M  V30 1040 H 94.1013 -2.78585 -3.01498 0
M  V30 1041 H 92.7623 -1.67356 -2.65802 0
M  V30 1042 H 91.9553 -4.0248 -3.03357 0
M  V30 1043 H 91.5573 -3.47199 -1.39029 0
M  V30 1044 H 93.8493 -5.72616 -3.62101 0
M  V30 1045 H 94.7923 -6.65684 -2.41393 0
M  V30 1046 H 95.2003 -4.94342 -2.72554 0
M  V30 1047 N 94.5984 0.214957 -1.56127 0
M  V30 1048 C 95.8444 0.935325 -1.80619 0
M  V30 1049 C 96.1994 1.81706 -0.632507 0
M  V30 1050 O 95.4924 1.87931 0.373182 0
M  V30 1051 C 95.6864 1.80314 -3.0858 0
M  V30 1052 C 95.5154 1.00691 -4.38282 0
M  V30 1053 C 94.2854 0.699211 -5.00439 0
M  V30 1054 C 96.4834 0.369057 -5.12974 0
M  V30 1055 N 94.4654 -0.117734 -6.13787 0
M  V30 1056 C 95.8364 -0.310981 -6.1922 0
M  V30 1057 C 97.8914 0.282759 -4.97096 0
M  V30 1058 C 96.5944 -1.06907 -7.11311 0
M  V30 1059 C 98.6204 -0.461881 -5.89594 0
M  V30 1060 C 97.9824 -1.13044 -6.9527 0
M  V30 1061 H 94.0814 0.322307 -0.71249 0
M  V30 1062 H 96.6654 0.205649 -1.93611 0
M  V30 1063 H 94.8364 2.50458 -2.96859 0
M  V30 1064 H 96.5684 2.46148 -3.21237 0
M  V30 1065 H 93.3234 1.01884 -4.62511 0
M  V30 1066 H 93.7474 -0.515235 -6.75037 0
M  V30 1067 H 98.3894 0.785292 -4.15443 0
M  V30 1068 H 96.1074 -1.5831 -7.92442 0
M  V30 1069 H 99.6934 -0.529746 -5.79383 0
M  V30 1070 H 98.5734 -1.69742 -7.65609 0
M  V30 1071 N 96.0765 1.50051 0.48192 0
M  V30 1072 C 97.3535 1.51009 1.2432 0
M  V30 1073 C 97.7335 0.248587 2.09631 0
M  V30 1074 O 97.0815 -0.768409 2.15192 0
M  V30 1075 C 97.2915 2.79981 2.08355 0
M  V30 1076 C 98.6395 3.3022 2.66908 0
M  V30 1077 O 99.6635 2.81228 2.18607 0
M  V30 1078 O 98.5225 4.15595 3.54884 0
M  V30 1079 H 95.6165 0.605239 0.563573 0
M  V30 1080 H 98.1625 1.62332 0.494627 0
M  V30 1081 H 96.9345 3.63275 1.45419 0
M  V30 1082 H 96.5575 2.7161 2.90368 0
M  V30 1083 N 97.5546 -0.734337 1.39446 0
M  V30 1084 C 98.8036 -1.48937 1.36017 0
M  V30 1085 C 99.1166 -1.95557 -0.0409005 0
M  V30 1086 O 100.323 -2.70779 -0.19778 0
M  V30 1087 C 98.7786 -2.69125 2.38955 0
M  V30 1088 C 98.3866 -2.29452 3.8478 0
M  V30 1089 C 100.131 -3.46944 2.44603 0
M  V30 1090 C 98.0376 -3.46366 4.79358 0
M  V30 1091 H 96.9676 -0.559296 0.505672 0
M  V30 1092 H 99.6186 -0.800983 1.65095 0
M  V30 1093 H 98.0006 -3.40041 2.02948 0
M  V30 1094 H 99.1746 -1.66077 4.29831 0
M  V30 1095 H 97.4896 -1.64723 3.82433 0
M  V30 1096 H 100.087 -4.33907 3.12456 0
M  V30 1097 H 100.43 -3.89454 1.47076 0
M  V30 1098 H 100.963 -2.83056 2.79507 0
M  V30 1099 H 97.7016 -3.08905 5.78151 0
M  V30 1100 H 97.2216 -4.08719 4.38986 0
M  V30 1101 H 98.9006 -4.12691 4.98292 0
M  V30 1102 N 99.0327 -1.24633 -0.964593 0
M  V30 1103 C 100.281 -1.08573 -1.70459 0
M  V30 1104 C 100.602 0.375655 -1.91347 0
M  V30 1105 O 99.8717 1.26779 -1.49345 0
M  V30 1106 H 98.4517 -0.398784 -0.631649 0
M  V30 1107 H 101.114 -1.56601 -1.16026 0
M  V30 1108 H 100.21 -1.58623 -2.68785 0
M  V30 1109 N 100.511 1.16574 -1.06058 0
M  V30 1110 C 101.759 1.86677 -0.77434 0
M  V30 1111 C 102.08 1.81959 0.701147 0
M  V30 1112 O 101.35 1.2515 1.50713 0
M  V30 1113 H 99.9298 0.691134 -0.283449 0
M  V30 1114 H 102.592 1.41378 -1.34158 0
M  V30 1115 H 101.688 2.92181 -1.09711 0
M  V30 1116 N 101.989 0.842826 1.3317 0
M  V30 1117 C 102.921 0.236245 2.27979 0
M  V30 1118 C 103.934 -0.585282 1.51915 0
M  V30 1119 O 105.123 -0.411705 1.73687 0
M  V30 1120 C 102.223 -0.685717 3.3189 0
M  V30 1121 C 101.396 0.0973448 4.37292 0
M  V30 1122 C 100.455 -0.748565 5.20848 0
M  V30 1123 O 99.4809 -0.186339 5.68895 0
M  V30 1124 N 100.683 -2.06527 5.42519 0
M  V30 1125 H 103.448 1.05088 2.80672 0
M  V30 1126 H 101.009 0.701667 1.45905 0
M  V30 1127 H 103.001 -1.25669 3.84694 0
M  V30 1128 H 101.571 -1.40105 2.79445 0
M  V30 1129 H 100.791 0.849706 3.84933 0
M  V30 1130 H 102.079 0.635643 5.04814 0
M  V30 1131 H 101.477 -2.54554 5.05192 0
M  V30 1132 H 100.034 -2.58464 5.98364 0
M  V30 1133 N 103.467 -1.45747 0.599634 0
M  V30 1134 C 104.377 -2.34262 -0.125888 0
M  V30 1135 C 105.393 -1.50768 -0.868625 0
M  V30 1136 O 106.569 -1.83592 -0.828003 0
M  V30 1137 C 103.634 -3.28252 -1.11587 0
M  V30 1138 C 102.695 -4.27651 -0.375956 0
M  V30 1139 C 101.928 -5.1715 -1.31877 0
M  V30 1140 O 102.151 -5.09916 -2.55621 0
M  V30 1141 O 101.085 -5.96286 -0.820157 0
M  V30 1142 H 104.911 -2.97688 0.601315 0
M  V30 1143 H 102.496 -1.44999 0.359934 0
M  V30 1144 H 104.378 -3.86191 -1.68626 0
M  V30 1145 H 103.053 -2.67401 -1.82424 0
M  V30 1146 H 101.96 -3.7335 0.236698 0
M  V30 1147 H 103.293 -4.91334 0.29177 0
M  V30 1148 N 104.945 -0.338344 -1.53925 0
M  V30 1149 C 106.17 0.263987 -2.05713 0
M  V30 1150 C 106.595 1.43847 -1.21201 0
M  V30 1151 O 105.953 1.79904 -0.224535 0
M  V30 1152 C 106.001 0.662 -3.54471 0
M  V30 1153 O 105.105 1.76265 -3.72833 0
M  V30 1154 H 104.446 0.0448722 -0.662482 0
M  V30 1155 H 106.976 -0.491048 -1.9862 0
M  V30 1156 H 106.986 0.940594 -3.9701 0
M  V30 1157 H 105.661 -0.196937 -4.15433 0
M  V30 1158 H 104.238 1.48173 -3.42198 0
M  V30 1159 N 106.423 1.57458 -0.0668435 0
M  V30 1160 C 107.353 2.15468 0.899764 0
M  V30 1161 C 108.334 1.08042 1.31381 0
M  V30 1162 O 109.519 1.36054 1.38574 0
M  V30 1163 C 106.649 2.71232 2.16911 0
M  V30 1164 C 105.603 3.83781 1.89463 0
M  V30 1165 C 104.929 4.26127 3.22986 0
M  V30 1166 C 106.229 5.08238 1.20381 0
M  V30 1167 H 107.923 2.96488 0.416529 0
M  V30 1168 H 105.469 1.4262 0.198908 0
M  V30 1169 H 107.422 3.10458 2.84945 0
M  V30 1170 H 106.146 1.87426 2.67468 0
M  V30 1171 H 104.805 3.45051 1.23836 0
M  V30 1172 H 104.453 3.39249 3.71374 0
M  V30 1173 H 104.153 5.01993 3.05413 0
M  V30 1174 H 105.677 4.67966 3.92225 0
M  V30 1175 H 107.091 5.44811 1.78475 0
M  V30 1176 H 105.488 5.89349 1.13083 0
M  V30 1177 H 106.558 4.84558 0.182153 0
M  V30 1178 N 107.901 -0.206675 1.56239 0
M  V30 1179 C 109.317 -0.557025 1.49564 0
M  V30 1180 C 109.517 -1.86424 0.764735 0
M  V30 1181 O 108.573 -2.50584 0.310491 0
M  V30 1182 C 109.886 -0.622478 2.94186 0
M  V30 1183 C 111.434 -0.712099 3.04792 0
M  V30 1184 C 111.909 -0.808767 4.50803 0
M  V30 1185 N 113.4 -0.8726 4.54907 0
M  V30 1186 C 114.135 -0.967365 5.65181 0
M  V30 1187 N 113.631 -1.02515 6.85173 0
M  V30 1188 N 115.424 -1.00366 5.53067 0
M  V30 1189 H 107.575 0.650943 2.02179 0
M  V30 1190 H 109.838 0.230387 0.919579 0
M  V30 1191 H 109.544 0.268727 3.50672 0
M  V30 1192 H 109.418 -1.4811 3.46905 0
M  V30 1193 H 111.805 -1.59374 2.48363 0
M  V30 1194 H 111.886 0.172489 2.55218 0
M  V30 1195 H 111.53 0.0684754 5.07854 0
M  V30 1196 H 111.46 -1.70899 4.98098 0
M  V30 1197 H 113.951 -0.837657 3.68499 0
M  V30 1198 H 114.264 -1.09765 7.64965 0
M  V30 1199 H 112.609 -0.994026 6.87855 0
M  V30 1200 H 115.8 -0.95527 4.58249 0
M  V30 1201 H 115.973 -1.07405 6.39037 0
M  V30 1202 N 109.379 -1.50304 -0.473955 0
M  V30 1203 C 110.604 -1.65175 -1.25427 0
M  V30 1204 C 111.029 -0.333673 -1.85117 0
M  V30 1205 O 110.387 0.702114 -1.67153 0
M  V30 1206 C 110.435 -2.74295 -2.34082 0
M  V30 1207 O 109.539 -2.35349 -3.38651 0
M  V30 1208 H 108.88 -0.551944 -0.369126 0
M  V30 1209 H 111.41 -1.96662 -0.564364 0
M  V30 1210 H 111.42 -2.97285 -2.79438 0
M  V30 1211 H 110.095 -3.69959 -1.90008 0
M  V30 1212 H 108.672 -2.22794 -2.99027 0
M  V30 1213 N 110.857 0.726932 -1.39834 0
M  V30 1214 C 112.082 1.52121 -1.40976 0
M  V30 1215 C 112.507 1.88098 -0.00826029 0
M  V30 1216 O 111.865 1.52479 0.980807 0
M  V30 1217 C 111.913 2.78021 -2.29644 0
M  V30 1218 O 111.017 3.74272 -1.73188 0
M  V30 1219 H 110.358 0.45908 -0.479731 0
M  V30 1220 H 112.888 0.896207 -1.83927 0
M  V30 1221 H 112.898 3.26671 -2.44438 0
M  V30 1222 H 111.573 2.51169 -3.31492 0
M  V30 1223 H 110.15 3.33073 -1.6768 0
M  V30 1224 N 112.336 1.25143 0.95797 0
M  V30 1225 C 113.582 1.10863 1.70531 0
M  V30 1226 C 113.937 -0.347391 1.89238 0
M  V30 1227 O 113.23 -1.25262 1.44983 0
M  V30 1228 C 113.424 1.79272 3.09187 0
M  V30 1229 C 113.253 3.31376 3.04006 0
M  V30 1230 C 112.023 4.0062 3.07948 0
M  V30 1231 C 114.221 4.27825 2.8543 0
M  V30 1232 N 112.203 5.39526 2.9289 0
M  V30 1233 C 113.574 5.53794 2.78769 0
M  V30 1234 C 115.629 4.1828 2.70085 0
M  V30 1235 C 114.332 6.7131 2.58331 0
M  V30 1236 C 116.358 5.35485 2.51017 0
M  V30 1237 C 115.72 6.60393 2.45073 0
M  V30 1238 H 111.819 0.460362 0.632132 0
M  V30 1239 H 114.403 1.58196 1.13499 0
M  V30 1240 H 112.574 1.34439 3.64391 0
M  V30 1241 H 114.306 1.57764 3.72683 0
M  V30 1242 H 111.061 3.51855 3.17009 0
M  V30 1243 H 111.485 6.12416 2.88574 0
M  V30 1244 H 116.127 3.22461 2.73457 0
M  V30 1245 H 113.845 7.67243 2.53701 0
M  V30 1246 H 117.431 5.29959 2.40073 0
M  V30 1247 H 116.311 7.49557 2.30509 0
M  V30 1248 N 113.814 -1.1601 1.06675 0
M  V30 1249 C 114.762 -2.22586 0.675157 0
M  V30 1250 C 115.756 -1.66525 -0.310766 0
M  V30 1251 O 116.962 -1.79145 -0.175215 0
M  V30 1252 H 113.337 -0.724855 0.200223 0
M  V30 1253 H 115.308 -2.52899 1.58381 0
M  V30 1254 C 114.057 -3.47604 0.0817162 0
M  V30 1255 H 113.38 -3.91058 0.831484 0
M  V30 1256 H 114.82 -4.23718 -0.154708 0
M  V30 1257 C 113.279 -3.15718 -1.17576 0
M  V30 1258 O 113.809 -3.31878 -2.26318 0
M  V30 1259 N 112.015 -2.69816 -1.07923 0
M  V30 1260 H 111.562 -2.56866 -0.194293 0
M  V30 1261 H 111.52 -2.48855 -1.92141 0
M  V30 1262 N 115.292 -0.849877 -1.32721 0
M  V30 1263 C 116.52 -0.464754 -2.01613 0
M  V30 1264 C 116.935 0.937191 -1.63897 0
M  V30 1265 O 116.292 1.61081 -0.857856 0
M  V30 1266 C 116.343 -0.588638 -3.56675 0
M  V30 1267 O 116.064 -1.93535 -3.93034 0
M  V30 1268 C 117.565 -0.2019 -4.4284 0
M  V30 1269 H 114.785 -0.183215 -0.645502 0
M  V30 1270 H 117.329 -1.1455 -1.69407 0
M  V30 1271 H 115.484 0.0443159 -3.87375 0
M  V30 1272 H 115.898 -1.92871 -4.87751 0
M  V30 1273 H 117.372 -0.339599 -5.50954 0
M  V30 1274 H 117.849 0.857224 -4.30753 0
M  V30 1275 H 118.455 -0.809733 -4.17521 0
M  V30 1276 N 116.77 1.45427 -0.607355 0
M  V30 1277 C 118 2.06314 -0.108656 0
M  V30 1278 C 118.408 1.45269 1.21217 0
M  V30 1279 O 117.751 0.561115 1.74921 0
M  V30 1280 C 117.813 3.59345 0.105618 0
M  V30 1281 C 117.477 4.42723 -1.13337 0
M  V30 1282 C 118.474 4.77715 -2.05145 0
M  V30 1283 C 116.159 4.83478 -1.36213 0
M  V30 1284 C 118.153 5.52317 -3.18158 0
M  V30 1285 C 115.84 5.57835 -2.49527 0
M  V30 1286 C 116.838 5.92171 -3.40327 0
M  V30 1287 O 116.526 6.65019 -4.51669 0
M  V30 1288 H 116.258 0.672782 -0.0658842 0
M  V30 1289 H 118.812 1.87664 -0.834945 0
M  V30 1290 H 117.042 3.76394 0.886796 0
M  V30 1291 H 118.731 4.02076 0.555886 0
M  V30 1292 H 119.497 4.46787 -1.88697 0
M  V30 1293 H 115.376 4.56188 -0.664362 0
M  V30 1294 H 118.92 5.79036 -3.89054 0
M  V30 1295 H 114.817 5.88177 -2.65928 0
M  V30 1296 H 115.585 6.83469 -4.50348 0
M  V30 1297 N 118.248 0.346503 1.53744 0
M  V30 1298 C 119.478 -0.250047 2.05081 0
M  V30 1299 C 119.886 -1.44529 1.22098 0
M  V30 1300 O 119.229 -1.81992 0.249917 0
M  V30 1301 C 119.291 -0.725934 3.52094 0
M  V30 1302 C 118.955 0.350053 4.55657 0
M  V30 1303 C 119.952 1.19372 5.0601 0
M  V30 1304 C 117.637 0.504827 4.99757 0
M  V30 1305 C 119.631 2.17768 5.99046 0
M  V30 1306 C 117.318 1.49218 5.92602 0
M  V30 1307 C 118.316 2.32706 6.42135 0
M  V30 1308 O 118.004 3.2976 7.33153 0
M  V30 1309 H 117.736 -0.0515469 0.674032 0
M  V30 1310 H 120.29 0.497559 1.99282 0
M  V30 1311 H 118.52 -1.52483 3.55367 0
M  V30 1312 H 120.209 -1.24336 3.86388 0
M  V30 1313 H 120.975 1.08525 4.72702 0
M  V30 1314 H 116.854 -0.135178 4.60802 0
M  V30 1315 H 120.398 2.82971 6.37631 0
M  V30 1316 H 116.295 1.6012 6.25325 0
M  V30 1317 H 117.063 3.25265 7.51096 0
M  V30 1318 N 119.726 -1.57421 0.075193 0
M  V30 1319 C 120.954 -1.97946 -0.602076 0
M  V30 1320 C 121.369 -0.953674 -1.62943 0
M  V30 1321 O 120.726 0.0592551 -1.82404 0
M  V30 1322 C 120.777 -3.38546 -1.26762 0
M  V30 1323 O 120.498 -4.37195 -0.281376 0
M  V30 1324 C 121.999 -3.93966 -2.03239 0
M  V30 1325 H 119.219 -0.650918 -0.162931 0
M  V30 1326 H 121.763 -2.03959 0.148601 0
M  V30 1327 H 119.918 -3.33609 -1.96936 0
M  V30 1328 H 120.332 -5.18975 -0.759267 0
M  V30 1329 H 121.806 -4.94555 -2.45193 0
M  V30 1330 H 122.283 -3.30693 -2.8903 0
M  V30 1331 H 122.889 -4.02315 -1.37924 0
M  V30 1332 N 121.204 0.198386 -1.56346 0
M  V30 1333 C 122.152 1.26538 -1.95169 0
M  V30 1334 C 123.146 1.47295 -0.836685 0
M  V30 1335 O 124.352 1.48195 -1.02167 0
M  V30 1336 H 120.727 0.424744 -0.620561 0
M  V30 1337 H 122.698 0.910904 -2.84157 0
M  V30 1338 C 121.447 2.6035 -2.30463 0
M  V30 1339 H 120.77 2.45192 -3.15786 0
M  V30 1340 H 122.21 3.33762 -2.61494 0
M  V30 1341 C 120.669 3.17096 -1.13806 0
M  V30 1342 O 121.199 3.99588 -0.41135 0
M  V30 1343 N 119.405 2.75795 -0.915736 0
M  V30 1344 H 118.952 2.08816 -1.50843 0
M  V30 1345 H 118.91 3.14101 -0.136979 0
M  V30 1346 N 122.682 1.50554 0.465978 0
M  V30 1347 C 123.91 1.65563 1.24083 0
M  V30 1348 C 124.325 0.341051 1.85694 0
M  V30 1349 O 123.682 -0.677543 1.69457 0
M  V30 1350 C 123.733 2.75051 2.34583 0
M  V30 1351 O 123.454 4.01413 1.75497 0
M  V30 1352 C 124.955 3.01078 3.25372 0
M  V30 1353 H 122.175 0.55638 0.375077 0
M  V30 1354 H 124.719 1.96807 0.555624 0
M  V30 1355 H 122.874 2.46486 2.9887 0
M  V30 1356 H 123.288 4.62002 2.48303 0
M  V30 1357 H 124.762 3.81339 3.99105 0
M  V30 1358 H 125.239 2.12349 3.84453 0
M  V30 1359 H 125.845 3.31194 2.66816 0
M  V30 1360 N 124.16 -0.719506 1.40217 0
M  V30 1361 C 125.07 -1.86378 1.42479 0
M  V30 1362 C 126.086 -1.71073 0.317834 0
M  V30 1363 O 127.262 -1.93406 0.561794 0
M  V30 1364 C 124.327 -3.22136 1.28178 0
M  V30 1365 C 123.388 -3.49723 2.48982 0
M  V30 1366 C 122.621 -4.79004 2.35353 0
M  V30 1367 O 122.844 -5.53821 1.36524 0
M  V30 1368 O 121.778 -5.06839 3.2465 0
M  V30 1369 H 125.604 -1.87425 2.38968 0
M  V30 1370 H 123.189 -0.869405 1.21498 0
M  V30 1371 H 125.071 -4.03234 1.22395 0
M  V30 1372 H 123.746 -3.21825 0.347934 0
M  V30 1373 H 122.653 -2.6865 2.60342 0
M  V30 1374 H 123.986 -3.54828 3.41113 0
M  V30 1375 N 125.638 -1.25649 -0.95132 0
M  V30 1376 C 126.885 -1.10594 -1.69633 0
M  V30 1377 C 127.213 0.352515 -1.91279 0
M  V30 1378 O 126.468 1.27601 -1.4838 0
M  V30 1379 C 126.767 -1.80909 -3.08231 0
M  V30 1380 C 126.433 -3.30825 -3.06375 0
M  V30 1381 C 125.095 -3.71722 -3.05576 0
M  V30 1382 C 127.447 -4.26589 -2.99452 0
M  V30 1383 C 124.775 -5.06788 -2.95606 0
M  V30 1384 C 127.127 -5.61683 -2.91024 0
M  V30 1385 C 125.791 -6.01904 -2.88562 0
M  V30 1386 H 125.061 -0.404691 -0.620731 0
M  V30 1387 H 127.708 -1.55964 -1.11119 0
M  V30 1388 H 126.013 -1.27979 -3.70309 0
M  V30 1389 H 127.71 -1.6671 -3.64704 0
M  V30 1390 H 124.3 -2.98287 -3.07771 0
M  V30 1391 H 128.484 -3.95982 -2.99185 0
M  V30 1392 H 123.74 -5.37126 -2.92071 0
M  V30 1393 H 127.914 -6.35578 -2.84629 0
M  V30 1394 H 125.541 -7.06521 -2.80593 0
M  V30 1395 N 127.117 1.15442 -1.07289 0
M  V30 1396 C 128.363 1.86489 -0.796846 0
M  V30 1397 C 128.696 1.82078 0.675371 0
M  V30 1398 O 127.971 1.24346 1.4956 0
M  V30 1399 C 128.254 3.35626 -1.30489 0
M  V30 1400 C 128.107 3.48673 -2.84161 0
M  V30 1401 C 129.426 4.30357 -0.920907 0
M  V30 1402 H 126.545 0.677144 -0.290939 0
M  V30 1403 H 129.187 1.35633 -1.33056 0
M  V30 1404 H 127.337 3.79068 -0.850883 0
M  V30 1405 H 129.009 3.14099 -3.37846 0
M  V30 1406 H 127.252 2.90253 -3.22391 0
M  V30 1407 H 127.923 4.53453 -3.14777 0
M  V30 1408 H 130.399 3.94871 -1.3121 0
M  V30 1409 H 129.275 5.33193 -1.30372 0
M  V30 1410 H 129.536 4.4176 0.173226 0
M  V30 1411 N 128.595 0.856903 1.32268 0
M  V30 1412 C 129.844 0.457599 1.96441 0
M  V30 1413 C 130.157 -0.992426 1.68553 0
M  V30 1414 O 131.363 -1.49727 2.26482 0
M  V30 1415 C 129.819 0.767358 3.51624 0
M  V30 1416 C 129.427 2.23326 3.88367 0
M  V30 1417 C 131.171 0.435887 4.22256 0
M  V30 1418 C 129.078 2.48613 5.36606 0
M  V30 1419 H 128.008 0.167387 0.735185 0
M  V30 1420 H 130.659 1.048 1.5063 0
M  V30 1421 H 129.041 0.106367 3.95857 0
M  V30 1422 H 130.215 2.93623 3.55137 0
M  V30 1423 H 128.53 2.52948 3.30766 0
M  V30 1424 H 131.127 0.602202 5.31298 0
M  V30 1425 H 131.47 -0.622672 4.11617 0
M  V30 1426 H 132.003 1.05286 3.83614 0
M  V30 1427 H 128.742 3.53101 5.52268 0
M  V30 1428 H 128.262 1.82896 5.71235 0
M  V30 1429 H 129.941 2.32676 6.03714 0
M  V30 1430 N 130.073 -1.45103 0.615059 0
M  V30 1431 C 131.319 -2.02483 0.113347 0
M  V30 1432 C 131.652 -1.48146 -1.25564 0
M  V30 1433 O 130.927 -0.659104 -1.82992 0
M  V30 1434 C 131.21 -3.60005 0.0825278 0
M  V30 1435 C 131.063 -4.2466 1.48271 0
M  V30 1436 C 132.382 -4.35972 -0.601401 0
M  V30 1437 H 129.501 -0.735764 0.0426632 0
M  V30 1438 H 132.143 -1.72868 0.788461 0
M  V30 1439 H 130.293 -3.85367 -0.492378 0
M  V30 1440 H 131.965 -4.10458 2.10527 0
M  V30 1441 H 130.208 -3.82772 2.04127 0
M  V30 1442 H 130.879 -5.336 1.41332 0
M  V30 1443 H 133.355 -4.15947 -0.112666 0
M  V30 1444 H 132.231 -5.45697 -0.592097 0
M  V30 1445 H 132.492 -4.09391 -1.66887 0
M  V30 1446 N 131.551 -0.354651 -1.53558 0
M  V30 1447 C 132.797 0.238797 -2.01389 0
M  V30 1448 C 133.13 1.49309 -1.2418 0
M  V30 1449 O 132.405 1.91638 -0.332457 0
M  V30 1450 C 132.688 0.541771 -3.56001 0
M  V30 1451 C 132.541 -0.725388 -4.43912 0
M  V30 1452 C 133.86 1.34685 -4.18984 0
M  V30 1453 H 130.979 0.0853177 -0.732045 0
M  V30 1454 H 133.621 -0.477384 -1.83905 0
M  V30 1455 H 131.771 1.15189 -3.71031 0
M  V30 1456 H 133.443 -1.36313 -4.407 0
M  V30 1457 H 131.686 -1.34801 -4.12324 0
M  V30 1458 H 132.357 -0.468505 -5.50008 0
M  V30 1459 H 134.833 0.830837 -4.07721 0
M  V30 1460 H 133.709 1.52759 -5.27215 0
M  V30 1461 H 133.97 2.35221 -3.74331 0
M  V30 1462 N 133.029 1.57378 -0.0835403 0
M  V30 1463 C 134.275 1.94217 0.583733 0
M  V30 1464 C 134.608 0.964653 1.68547 0
M  V30 1465 O 133.883 -0.00422258 1.945 0
M  V30 1466 C 134.166 3.41253 1.14972 0
M  V30 1467 C 134.019 4.49768 0.0538277 0
M  V30 1468 C 135.338 3.89352 2.05166 0
M  V30 1469 H 132.457 0.706233 0.210724 0
M  V30 1470 H 135.099 1.89392 -0.1519 0
M  V30 1471 H 133.249 3.45496 1.77665 0
M  V30 1472 H 134.921 4.57641 -0.579851 0
M  V30 1473 H 133.164 4.29432 -0.614068 0
M  V30 1474 H 133.835 5.49817 0.490452 0
M  V30 1475 H 136.311 3.87189 1.52393 0
M  V30 1476 H 135.187 4.92822 2.41698 0
M  V30 1477 H 135.448 3.27973 2.96456 0
M  V30 1478 N 134.507 -0.190092 1.56449 0
M  V30 1479 C 135.784 -0.935886 1.71757 0
M  V30 1480 C 136.164 -2.01173 0.639726 0
M  V30 1481 O 135.512 -2.25827 -0.348502 0
M  V30 1482 C 135.722 -1.51775 3.1427 0
M  V30 1483 C 137.07 -1.99794 3.74656 0
M  V30 1484 O 138.094 -1.61607 3.1743 0
M  V30 1485 O 136.953 -2.70079 4.751 0
M  V30 1486 H 134.047 -0.439229 0.700719 0
M  V30 1487 H 136.593 -0.179395 1.68749 0
M  V30 1488 H 135.365 -0.742505 3.84191 0
M  V30 1489 H 134.988 -2.33894 3.21527 0
M  V30 1490 N 135.985 -1.50799 -0.457987 0
M  V30 1491 C 137.21 -1.66496 -1.23668 0
M  V30 1492 C 137.635 -0.353288 -1.84752 0
M  V30 1493 O 136.993 0.684346 -1.67888 0
M  V30 1494 C 137.041 -2.76763 -2.3116 0
M  V30 1495 O 136.145 -2.38928 -3.36136 0
M  V30 1496 H 135.486 -0.555828 -0.363252 0
M  V30 1497 H 138.016 -1.9725 -0.543474 0
M  V30 1498 H 138.026 -3.00232 -2.76269 0
M  V30 1499 H 136.701 -3.71954 -1.86073 0
M  V30 1500 H 135.278 -2.25953 -2.96647 0
M  V30 1501 N 137.463 0.71206 -1.40597 0
M  V30 1502 C 138.691 1.50111 -1.42388 0
M  V30 1503 C 139.106 1.88784 -0.0245395 0
M  V30 1504 O 138.463 1.55681 0.952351 0
M  V30 1505 C 138.514 2.7742 -2.31776 0
M  V30 1506 O 138.235 2.40382 -3.66262 0
M  V30 1507 C 139.736 3.7129 -2.42196 0
M  V30 1508 H 136.956 0.46314 -0.485533 0
M  V30 1509 H 139.5 0.878068 -1.8469 0
M  V30 1510 H 137.655 3.36001 -1.92827 0
M  V30 1511 H 138.069 3.22324 -4.13772 0
M  V30 1512 H 139.543 4.57448 -3.08943 0
M  V30 1513 H 140.02 4.14641 -1.44809 0
M  V30 1514 H 140.626 3.18619 -2.81712 0
M  V30 1515 N 138.941 1.26152 0.944643 0
M  V30 1516 C 140.218 1.02247 1.66748 0
M  V30 1517 C 140.598 -0.448202 2.06287 0
M  V30 1518 O 139.946 -1.42779 1.78399 0
M  V30 1519 C 140.156 1.96788 2.88228 0
M  V30 1520 C 141.504 2.25201 3.59958 0
M  V30 1521 O 142.528 1.94626 2.98327 0
M  V30 1522 O 141.387 2.77242 4.70956 0
M  V30 1523 H 138.481 0.388517 0.730057 0
M  V30 1524 H 141.027 1.37348 0.99668 0
M  V30 1525 H 139.799 2.96047 2.55875 0
M  V30 1526 H 139.422 1.62145 3.63035 0
M  V30 1527 N 140.419 -1.14872 1.07899 0
M  V30 1528 C 141.835 -1.37776 0.805606 0
M  V30 1529 C 142.035 -1.92743 -0.587555 0
M  V30 1530 O 141.091 -2.13678 -1.34528 0
M  V30 1531 C 142.404 -2.34361 1.88402 0
M  V30 1532 C 143.952 -2.48012 1.90942 0
M  V30 1533 C 144.427 -3.47893 2.97883 0
M  V30 1534 N 145.918 -3.55433 2.97021 0
M  V30 1535 C 146.653 -4.32553 3.76412 0
M  V30 1536 N 146.149 -5.12959 4.65666 0
M  V30 1537 N 147.942 -4.27697 3.64735 0
M  V30 1538 H 140.093 -0.775365 1.97742 0
M  V30 1539 H 142.356 -0.403521 0.857831 0
M  V30 1540 H 142.062 -2.01098 2.88535 0
M  V30 1541 H 141.936 -3.34206 1.74889 0
M  V30 1542 H 144.323 -2.8057 0.914579 0
M  V30 1543 H 144.404 -1.48147 2.08534 0
M  V30 1544 H 144.048 -3.16069 3.97571 0
M  V30 1545 H 143.978 -4.47527 2.77538 0
M  V30 1546 H 146.469 -2.98048 2.32326 0
M  V30 1547 H 146.782 -5.69065 5.22862 0
M  V30 1548 H 145.127 -5.12245 4.69712 0
M  V30 1549 H 148.318 -3.63949 2.94378 0
M  V30 1550 H 148.491 -4.8755 4.26848 0
M  V30 1551 N 141.898 -0.863906 -1.31812 0
M  V30 1552 C 142.808 -0.318461 -2.32428 0
M  V30 1553 C 143.824 0.568496 -1.64451 0
M  V30 1554 O 145 0.46666 -1.95919 0
M  V30 1555 C 142.065 0.476355 -3.43412 0
M  V30 1556 C 141.126 -0.43784 -4.27061 0
M  V30 1557 C 140.359 0.319138 -5.32745 0
M  V30 1558 O 140.582 1.54799 -5.48993 0
M  V30 1559 O 139.516 -0.319861 -6.01049 0
M  V30 1560 H 143.342 -1.15229 -2.80991 0
M  V30 1561 H 140.927 -0.627103 -1.35602 0
M  V30 1562 H 142.809 0.927156 -4.11074 0
M  V30 1563 H 141.484 1.28683 -2.97022 0
M  V30 1564 H 140.391 -0.937013 -3.62175 0
M  V30 1565 H 141.724 -1.21375 -4.77 0
M  V30 1566 N 143.376 1.44774 -0.622745 0
M  V30 1567 C 144.792 1.56986 -0.287652 0
M  V30 1568 C 144.992 1.61167 1.20944 0
M  V30 1569 O 144.048 1.55015 1.99315 0
M  V30 1570 C 145.361 2.84551 -0.972188 0
M  V30 1571 C 146.909 2.9825 -0.949536 0
M  V30 1572 C 147.384 4.28605 -1.61437 0
M  V30 1573 N 148.875 4.35399 -1.58057 0
M  V30 1574 C 149.61 5.34964 -2.064 0
M  V30 1575 N 149.106 6.40981 -2.62897 0
M  V30 1576 N 150.899 5.26419 -1.97078 0
M  V30 1577 H 143.05 1.40304 -1.59463 0
M  V30 1578 H 145.313 0.671794 -0.668878 0
M  V30 1579 H 145.019 2.87417 -2.02693 0
M  V30 1580 H 144.893 3.73807 -0.504771 0
M  V30 1581 H 147.28 2.94941 0.0967067 0
M  V30 1582 H 147.361 2.10364 -1.45536 0
M  V30 1583 H 147.005 4.32672 -2.66002 0
M  V30 1584 H 146.935 5.15334 -1.08344 0
M  V30 1585 H 149.426 3.59397 -1.16801 0
M  V30 1586 H 149.739 7.13225 -2.97539 0
M  V30 1587 H 148.084 6.4169 -2.66943 0
M  V30 1588 H 151.275 4.42504 -1.52669 0
M  V30 1589 H 151.448 6.03861 -2.35066 0
M  V30 1590 N 144.854 0.36279 1.53368 0
M  V30 1591 C 146.103 -0.22888 2.00397 0
M  V30 1592 C 146.416 -1.50096 1.25421 0
M  V30 1593 O 147.622 -2.17106 1.63025 0
M  V30 1594 C 146.078 -0.458417 3.56969 0
M  V30 1595 C 145.686 0.798877 4.4082 0
M  V30 1596 C 147.43 -1.00789 4.12361 0
M  V30 1597 C 145.337 0.539078 5.88938 0
M  V30 1598 H 144.267 -0.089305 0.748693 0
M  V30 1599 H 146.918 0.481099 1.77081 0
M  V30 1600 H 145.3 -1.22959 3.76427 0
M  V30 1601 H 146.474 1.57262 4.33134 0
M  V30 1602 H 144.789 1.27137 3.96516 0
M  V30 1603 H 147.386 -1.21754 5.20653 0
M  V30 1604 H 147.729 -1.9692 3.66781 0
M  V30 1605 H 148.262 -0.296961 3.9669 0
M  V30 1606 H 145.001 1.47064 6.3879 0
M  V30 1607 H 144.521 -0.196222 5.99479 0
M  V30 1608 H 146.2 0.163542 6.46793 0
M  V30 1609 N 146.332 -1.57332 0.0918853 0
M  V30 1610 C 147.557 -1.98995 -0.584442 0
M  V30 1611 C 147.982 -0.970528 -1.61128 0
M  V30 1612 O 147.34 0.0613904 -1.81196 0
M  V30 1613 C 147.388 -3.39636 -1.21161 0
M  V30 1614 O 146.492 -3.40447 -2.32744 0
M  V30 1615 H 145.833 -0.647165 -0.148572 0
M  V30 1616 H 148.363 -2.03873 0.172347 0
M  V30 1617 H 148.373 -3.7726 -1.55367 0
M  V30 1618 H 147.048 -4.13356 -0.459313 0
M  V30 1619 H 145.625 -3.14614 -2.0018 0
M  V30 1620 N 147.81 0.181792 -1.56548 0
M  V30 1621 C 149.056 0.901431 -1.81665 0
M  V30 1622 C 149.389 1.82347 -0.668075 0
M  V30 1623 O 148.664 1.91669 0.330615 0
M  V30 1624 C 148.947 1.70618 -3.17115 0
M  V30 1625 C 148.8 0.807964 -4.42484 0
M  V30 1626 C 150.119 2.67605 -3.49393 0
M  V30 1627 H 147.238 0.32627 -0.660846 0
M  V30 1628 H 149.88 0.168134 -1.89255 0
M  V30 1629 H 148.03 2.33133 -3.10775 0
M  V30 1630 H 149.702 0.19649 -4.60881 0
M  V30 1631 H 147.945 0.115411 -4.33646 0
M  V30 1632 H 148.616 1.40632 -5.33785 0
M  V30 1633 H 151.092 2.15218 -3.56118 0
M  V30 1634 H 149.968 3.20985 -4.45264 0
M  V30 1635 H 150.229 3.47298 -2.73563 0
M  V30 1636 N 149.288 1.51039 0.449983 0
M  V30 1637 C 150.516 1.66869 1.2232 0
M  V30 1638 C 150.931 0.360727 1.85322 0
M  V30 1639 O 150.288 -0.659531 1.70166 0
M  V30 1640 C 150.339 2.77524 2.31652 0
M  V30 1641 O 150.06 4.03252 1.7123 0
M  V30 1642 C 151.561 3.04512 3.2216 0
M  V30 1643 H 148.781 0.560326 0.369155 0
M  V30 1644 H 151.325 1.97385 0.534719 0
M  V30 1645 H 149.48 2.49642 2.96239 0
M  V30 1646 H 149.894 4.64609 2.43389 0
M  V30 1647 H 151.368 3.85551 3.95038 0
M  V30 1648 H 151.845 2.16415 3.8218 0
M  V30 1649 H 152.451 3.34005 2.63288 0
M  V30 1650 N 150.766 -0.704594 1.40972 0
M  V30 1651 C 152.182 -1.01406 1.23244 0
M  V30 1652 C 152.382 -2.01169 0.115399 0
M  V30 1653 O 151.438 -2.47021 -0.523147 0
M  V30 1654 C 152.751 -1.54728 2.57836 0
M  V30 1655 C 154.299 -1.66658 2.64942 0
M  V30 1656 C 154.774 -2.23383 3.9983 0
M  V30 1657 N 156.265 -2.30756 4.01629 0
M  V30 1658 C 157 -2.75655 5.02794 0
M  V30 1659 N 156.496 -3.20225 6.14352 0
M  V30 1660 N 158.289 -2.75138 4.90159 0
M  V30 1661 H 150.44 -0.0435285 2.12355 0
M  V30 1662 H 152.703 -0.0818951 0.944456 0
M  V30 1663 H 152.409 -0.888832 3.40283 0
M  V30 1664 H 152.283 -2.53084 2.79693 0
M  V30 1665 H 154.67 -2.31617 1.8286 0
M  V30 1666 H 154.751 -0.668717 2.46904 0
M  V30 1667 H 154.395 -1.59043 4.82357 0
M  V30 1668 H 154.325 -3.23904 4.15203 0
M  V30 1669 H 156.816 -1.99291 3.21079 0
M  V30 1670 H 157.129 -3.53084 6.87424 0
M  V30 1671 H 155.474 -3.18156 6.17901 0
M  V30 1672 H 158.665 -2.39661 4.02095 0
M  V30 1673 H 158.838 -3.09812 5.6914 0
M  V30 1674 N 152.244 -1.26651 -0.937939 0
M  V30 1675 C 153.154 -1.10276 -2.07066 0
M  V30 1676 C 154.17 -0.0354197 -1.73964 0
M  V30 1677 O 155.346 -0.239816 -1.99967 0
M  V30 1678 C 152.411 -0.740887 -3.38691 0
M  V30 1679 C 151.472 -1.88799 -3.85556 0
M  V30 1680 C 150.705 -1.54329 -5.10899 0
M  V30 1681 O 150.928 -0.446494 -5.6865 0
M  V30 1682 O 149.862 -2.37911 -5.52885 0
M  V30 1683 H 153.688 -2.05309 -2.23789 0
M  V30 1684 H 151.273 -1.05743 -1.0554 0
M  V30 1685 H 153.155 -0.55195 -4.1777 0
M  V30 1686 H 151.83 0.180022 -3.23199 0
M  V30 1687 H 150.737 -2.13191 -3.07409 0
M  V30 1688 H 152.07 -2.78874 -4.05574 0
M  V30 1689 N 153.722 1.14298 -1.08507 0
M  V30 1690 C 154.632 2.23027 -0.727753 0
M  V30 1691 C 155.648 1.71952 0.26619 0
M  V30 1692 O 156.824 2.011 0.109882 0
M  V30 1693 C 153.889 3.46403 -0.143541 0
M  V30 1694 C 152.95 4.12413 -1.19223 0
M  V30 1695 C 152.183 5.29899 -0.635798 0
M  V30 1696 O 152.406 5.67796 0.544393 0
M  V30 1697 O 151.34 5.85717 -1.38634 0
M  V30 1698 H 155.166 2.55945 -1.63481 0
M  V30 1699 H 152.751 1.22248 -0.858817 0
M  V30 1700 H 154.633 4.21018 0.179404 0
M  V30 1701 H 153.308 3.15206 0.736659 0
M  V30 1702 H 152.215 3.39667 -1.56772 0
M  V30 1703 H 153.548 4.47718 -2.04474 0
M  V30 1704 N 155.201 0.870884 1.31352 0
M  V30 1705 C 156.131 0.343096 2.30966 0
M  V30 1706 C 157.112 -0.566507 1.60389 0
M  V30 1707 O 158.297 -0.483336 1.88089 0
M  V30 1708 C 155.427 -0.455487 3.443 0
M  V30 1709 C 154.381 0.361103 4.26474 0
M  V30 1710 C 153.707 -0.563221 5.31725 0
M  V30 1711 C 155.007 1.59566 4.97329 0
M  V30 1712 H 156.701 1.17548 2.75359 0
M  V30 1713 H 154.247 0.566686 1.32381 0
M  V30 1714 H 156.2 -0.83525 4.13039 0
M  V30 1715 H 154.924 -1.32139 2.98675 0
M  V30 1716 H 153.583 0.722825 3.59403 0
M  V30 1717 H 153.231 -1.42643 4.82351 0
M  V30 1718 H 152.931 -0.0207409 5.87596 0
M  V30 1719 H 154.455 -0.939808 6.03324 0
M  V30 1720 H 155.869 1.28728 5.58661 0
M  V30 1721 H 154.266 2.07728 5.63 0
M  V30 1722 H 155.336 2.34798 4.24262 0
M  V30 1723 N 156.679 -1.44442 0.630414 0
M  V30 1724 C 157.909 -2.06115 0.141465 0
M  V30 1725 C 158.317 -1.47179 -1.1889 0
M  V30 1726 O 157.66 -0.588873 -1.74006 0
M  V30 1727 C 157.722 -3.59467 -0.0484355 0
M  V30 1728 C 157.386 -4.40864 1.20366 0
M  V30 1729 C 158.383 -4.74391 2.12719 0
M  V30 1730 C 156.068 -4.8125 1.43887 0
M  V30 1731 C 158.062 -5.47186 3.26904 0
M  V30 1732 C 155.749 -5.53795 2.5837 0
M  V30 1733 C 156.747 -5.86682 3.49705 0
M  V30 1734 O 156.435 -6.57749 4.62191 0
M  V30 1735 H 156.167 -0.671648 0.0765792 0
M  V30 1736 H 158.721 -1.86312 0.864695 0
M  V30 1737 H 156.951 -3.77758 -0.826803 0
M  V30 1738 H 158.64 -4.02909 -0.491849 0
M  V30 1739 H 159.406 -4.43728 1.95781 0
M  V30 1740 H 155.285 -4.55073 0.736853 0
M  V30 1741 H 158.829 -5.72773 3.98217 0
M  V30 1742 H 154.726 -5.83872 2.75251 0
M  V30 1743 H 155.494 -6.76217 4.61164 0
M  V30 1744 N 158.157 -0.370918 -1.53173 0
M  V30 1745 C 159.104 0.473035 -2.259 0
M  V30 1746 C 160.074 1.07311 -1.26781 0
M  V30 1747 O 161.259 1.1046 -1.55574 0
M  V30 1748 C 158.399 1.60405 -3.05556 0
M  V30 1749 C 157.512 1.02863 -4.19575 0
M  V30 1750 C 156.647 2.12918 -4.86661 0
M  V30 1751 C 155.686 1.52869 -5.92704 0
M  V30 1752 N 154.823 2.56779 -6.53459 0
M  V30 1753 H 159.663 -0.153649 -2.97604 0
M  V30 1754 H 157.2 -0.0875946 -1.46839 0
M  V30 1755 H 159.158 2.27034 -3.50016 0
M  V30 1756 H 157.788 2.20131 -2.36097 0
M  V30 1757 H 156.84 0.252465 -3.79561 0
M  V30 1758 H 158.152 0.549642 -4.95762 0
M  V30 1759 H 157.306 2.87356 -5.34333 0
M  V30 1760 H 156.045 2.6417 -4.09958 0
M  V30 1761 H 155.05 0.769479 -5.44389 0
M  V30 1762 H 156.275 1.02435 -6.7133 0
M  V30 1763 H 154.221 3.07235 -5.79606 0
M  V30 1764 H 154.138 2.13583 -7.25202 0
M  V30 1765 H 155.406 3.30903 -7.05779 0
M  V30 1766 N 159.635 1.57281 -0.100228 0
M  V30 1767 C 160.568 2.09976 0.893612 0
M  V30 1768 C 161.546 1.01155 1.27304 0
M  V30 1769 O 162.73 1.28687 1.37739 0
M  V30 1770 C 159.857 2.58098 2.19324 0
M  V30 1771 C 158.903 3.78626 1.96328 0
M  V30 1772 S 159.736 5.21959 1.19662 0
M  V30 1773 C 160.892 5.73435 2.50844 0
M  V30 1774 H 161.125 2.93946 0.44534 0
M  V30 1775 H 158.658 1.53985 0.113167 0
M  V30 1776 H 160.616 2.8648 2.94005 0
M  V30 1777 H 159.277 1.74344 2.61272 0
M  V30 1778 H 158.47 4.10382 2.92579 0
M  V30 1779 H 158.072 3.50763 1.29775 0
M  V30 1780 H 160.364 5.82015 3.46792 0
M  V30 1781 H 161.307 6.7185 2.23659 0
M  V30 1782 H 161.715 5.01395 2.59352 0
M  V30 1783 N 161.113 -0.173488 1.56642 0
M  V30 1784 C 162.043 -1.2171 1.99271 0
M  V30 1785 C 163.024 -1.46289 0.867959 0
M  V30 1786 O 164.209 -1.5766 1.13388 0
M  V30 1787 C 161.339 -2.55651 2.35074 0
M  V30 1788 C 160.293 -2.45645 3.50489 0
M  V30 1789 C 159.619 -3.84056 3.72028 0
M  V30 1790 C 160.919 -1.96302 4.84007 0
M  V30 1791 H 162.613 -0.86275 2.867 0
M  V30 1792 H 160.159 -0.413571 1.37933 0
M  V30 1793 H 162.112 -3.2886 2.63494 0
M  V30 1794 H 160.836 -2.92869 1.44552 0
M  V30 1795 H 159.495 -1.7489 3.22194 0
M  V30 1796 H 159.143 -4.18664 2.788 0
M  V30 1797 H 158.843 -3.7823 4.49684 0
M  V30 1798 H 160.367 -4.58854 4.02846 0
M  V30 1799 H 161.781 -2.59284 5.11317 0
M  V30 1800 H 160.178 -2.01429 5.65284 0
M  V30 1801 H 161.248 -0.917226 4.76146 0
M  V30 1802 N 162.591 -1.51276 -0.441967 0
M  V30 1803 C 163.554 -1.7167 -1.51862 0
M  V30 1804 C 164.554 -0.586793 -1.49711 0
M  V30 1805 O 165.744 -0.854276 -1.51815 0
M  V30 1806 C 162.876 -1.76889 -2.91416 0
M  V30 1807 H 164.069 -2.67754 -1.35084 0
M  V30 1808 H 161.622 -1.41196 -0.670333 0
M  V30 1809 H 162.357 -0.826026 -3.13604 0
M  V30 1810 H 162.142 -2.59001 -2.94382 0
M  V30 1811 H 163.632 -1.94522 -3.69528 0
M  V30 1812 N 164.069 0.697108 -1.41344 0
M  V30 1813 C 165.019 1.80313 -1.39539 0
M  V30 1814 C 166.003 1.58618 -0.270001 0
M  V30 1815 O 167.195 1.69477 -0.510551 0
M  V30 1816 C 164.324 3.18606 -1.27848 0
M  V30 1817 C 163.41 3.46001 -2.45244 0
M  V30 1818 N 163.801 3.44103 -3.70711 0
M  V30 1819 C 162.099 3.76542 -2.39023 0
M  V30 1820 C 162.8 3.7036 -4.48563 0
M  V30 1821 N 161.776 3.90027 -3.78655 0
M  V30 1822 H 165.578 1.77207 -2.34468 0
M  V30 1823 H 163.092 0.897031 -1.35378 0
M  V30 1824 H 165.089 3.97833 -1.24637 0
M  V30 1825 H 163.749 3.22925 -0.339032 0
M  V30 1826 H 164.76 3.2452 -4.03618 0
M  V30 1827 H 161.437 3.88241 -1.53542 0
M  V30 1828 H 162.827 3.75042 -5.57488 0
M  V30 1829 N 165.547 1.27147 0.931209 0
M  V30 1830 C 166.457 1.11372 2.06478 0
M  V30 1831 C 167.473 0.044645 1.73943 0
M  V30 1832 O 168.649 0.250417 1.99837 0
M  V30 1833 C 165.714 0.758838 3.38294 0
M  V30 1834 C 164.775 1.90841 3.84549 0
M  V30 1835 C 164.008 1.57036 5.10074 0
M  V30 1836 O 164.231 0.476645 5.68405 0
M  V30 1837 O 163.165 2.40839 5.51616 0
M  V30 1838 H 166.991 2.06493 2.22698 0
M  V30 1839 H 164.576 1.06301 1.04978 0
M  V30 1840 H 166.458 0.574098 4.17471 0
M  V30 1841 H 165.133 -0.162879 3.2329 0
M  V30 1842 H 164.04 2.14819 3.06274 0
M  V30 1843 H 165.373 2.81021 4.04089 0
M  V30 1844 N 167.025 -1.13721 1.09112 0
M  V30 1845 C 168.302 -1.81155 0.737706 0
M  V30 1846 C 168.682 -1.96253 -0.777683 0
M  V30 1847 O 168.03 -1.52807 -1.69889 0
M  V30 1848 C 168.24 -3.16392 1.47299 0
M  V30 1849 C 169.588 -3.91787 1.63671 0
M  V30 1850 O 170.612 -3.26005 1.43524 0
M  V30 1851 O 169.471 -5.0977 1.96969 0
M  V30 1852 H 166.565 -0.783518 0.26463 0
M  V30 1853 H 169.111 -1.20676 1.19312 0
M  V30 1854 H 167.883 -3.0061 2.50498 0
M  V30 1855 H 167.506 -3.8457 1.00953 0
M  V30 1856 N 168.503 -0.877838 -1.30888 0
M  V30 1857 C 169.433 -0.35534 -2.3078 0
M  V30 1858 C 170.414 0.557994 -1.60687 0
M  V30 1859 O 171.599 0.473355 -1.88343 0
M  V30 1860 C 168.729 0.437221 -3.44537 0
M  V30 1861 C 167.683 -0.383715 -4.26276 0
M  V30 1862 C 167.009 0.535014 -5.32017 0
M  V30 1863 C 168.309 -1.62201 -4.96476 0
M  V30 1864 H 170.003 -1.19007 -2.74732 0
M  V30 1865 H 167.549 -0.573698 -1.32078 0
M  V30 1866 H 169.502 0.813334 -4.13477 0
M  V30 1867 H 168.226 1.30553 -2.99372 0
M  V30 1868 H 166.885 -0.741874 -3.59015 0
M  V30 1869 H 166.533 1.40083 -4.831 0
M  V30 1870 H 166.233 -0.0104211 -5.87599 0
M  V30 1871 H 167.757 0.907799 -6.03814 0
M  V30 1872 H 169.171 -1.31689 -5.5797 0
M  V30 1873 H 167.568 -2.10711 -5.61891 0
M  V30 1874 H 168.638 -2.37044 -4.23011 0
M  V30 1875 N 169.982 1.44106 -0.638065 0
M  V30 1876 C 171.398 1.56672 -0.304286 0
M  V30 1877 C 171.598 1.6244 1.19228 0
M  V30 1878 O 170.654 1.57121 1.9766 0
M  V30 1879 C 171.967 2.83503 -1.00231 0
M  V30 1880 C 173.515 2.97226 -0.981116 0
M  V30 1881 C 173.99 4.26868 -1.65974 0
M  V30 1882 N 175.481 4.33698 -1.62666 0
M  V30 1883 C 176.216 5.32745 -2.12063 0
M  V30 1884 N 175.712 6.38157 -2.6968 0
M  V30 1885 N 177.505 5.24299 -2.02651 0
M  V30 1886 H 169.656 1.38605 -1.60942 0
M  V30 1887 H 171.919 0.664661 -0.675965 0
M  V30 1888 H 171.625 2.85251 -2.0573 0
M  V30 1889 H 171.499 3.73251 -0.54439 0
M  V30 1890 H 173.886 2.95027 0.0654188 0
M  V30 1891 H 173.967 2.08808 -1.47759 0
M  V30 1892 H 173.611 4.29826 -2.70576 0
M  V30 1893 H 173.541 5.14156 -1.13804 0
M  V30 1894 H 176.032 3.58138 -1.20606 0
M  V30 1895 H 176.345 7.10029 -3.05087 0
M  V30 1896 H 174.69 6.38823 -2.73734 0
M  V30 1897 H 177.881 4.4086 -1.57353 0
M  V30 1898 H 178.054 6.01334 -2.41457 0
M  V30 1899 N 171.46 0.379036 1.52974 0
M  V30 1900 C 172.407 -0.461048 2.26148 0
M  V30 1901 C 173.377 -1.06637 1.27349 0
M  V30 1902 O 174.562 -1.09633 1.56157 0
M  V30 1903 C 171.702 -1.58782 3.06402 0
M  V30 1904 C 170.815 -1.00636 4.20115 0
M  V30 1905 C 169.95 -2.10334 4.87784 0
M  V30 1906 C 168.989 -1.49724 5.93506 0
M  V30 1907 N 168.126 -2.5331 6.54812 0
M  V30 1908 H 172.966 0.169429 2.97518 0
M  V30 1909 H 170.503 0.0953806 1.4679 0
M  V30 1910 H 172.461 -2.25174 3.51215 0
M  V30 1911 H 171.091 -2.18876 2.37261 0
M  V30 1912 H 170.143 -0.232332 3.7969 0
M  V30 1913 H 171.455 -0.523343 4.96047 0
M  V30 1914 H 170.609 -2.84519 5.35849 0
M  V30 1915 H 169.348 -2.61992 4.11353 0
M  V30 1916 H 168.353 -0.740598 5.44789 0
M  V30 1917 H 169.578 -0.988732 6.71864 0
M  V30 1918 H 167.524 -3.04156 5.81227 0
M  V30 1919 H 167.441 -2.09734 7.26325 0
M  V30 1920 H 168.709 -3.27155 7.07524 0
M  V30 1921 N 172.938 -1.57226 0.108567 0
M  V30 1922 C 173.901 -2.13602 -0.831082 0
M  V30 1923 C 174.901 -1.06841 -1.20173 0
M  V30 1924 O 176.091 -1.32666 -1.12895 0
M  V30 1925 C 173.223 -2.66769 -2.12243 0
M  V30 1926 H 174.416 -2.97951 -0.341317 0
M  V30 1927 H 171.969 -1.55667 -0.14057 0
M  V30 1928 H 172.704 -1.85977 -2.65675 0
M  V30 1929 H 172.489 -3.44839 -1.86625 0
M  V30 1930 H 173.979 -3.10332 -2.79435 0
M  V30 1931 N 174.416 0.165178 -1.56732 0
M  V30 1932 C 175.664 0.879068 -1.8198 0
M  V30 1933 C 175.985 1.82514 -0.686561 0
M  V30 1934 O 175.255 1.93694 0.293146 0
M  V30 1935 H 173.835 0.327608 -0.671329 0
M  V30 1936 H 176.497 0.163526 -1.94213 0
M  V30 1937 H 175.593 1.45228 -2.76252 0
M  V30 1938 N 175.894 1.51508 0.433938 0
M  V30 1939 C 176.824 1.76016 1.53429 0
M  V30 1940 C 177.805 0.610112 1.58782 0
M  V30 1941 O 178.99 0.853177 1.74455 0
M  V30 1942 C 176.12 1.88831 2.9148 0
M  V30 1943 C 175.074 3.04288 3.00987 0
M  V30 1944 C 174.4 3.0229 4.4105 0
M  V30 1945 C 175.7 4.44193 2.74754 0
M  V30 1946 H 177.394 2.68152 1.33171 0
M  V30 1947 H 174.94 1.29035 0.639214 0
M  V30 1948 H 176.893 2.04559 3.6842 0
M  V30 1949 H 175.617 0.933455 3.12976 0
M  V30 1950 H 174.276 2.8827 2.26486 0
M  V30 1951 H 173.924 2.04576 4.59519 0
M  V30 1952 H 173.624 3.79822 4.4834 0
M  V30 1953 H 175.148 3.20116 5.1996 0
M  V30 1954 H 176.562 4.60544 3.41426 0
M  V30 1955 H 174.959 5.23457 2.9345 0
M  V30 1956 H 176.029 4.53996 1.70339 0
M  V30 1957 N 177.372 -0.689602 1.41712 0
M  V30 1958 C 178.302 -1.81577 1.46806 0
M  V30 1959 C 179.283 -1.66945 0.326105 0
M  V30 1960 O 180.468 -1.86588 0.538377 0
M  V30 1961 C 177.598 -3.19762 1.35535 0
M  V30 1962 C 176.552 -3.49107 2.47605 0
M  V30 1963 C 175.878 -4.86711 2.21397 0
M  V30 1964 C 177.178 -3.47483 3.89939 0
M  V30 1965 H 178.872 -1.7757 2.41058 0
M  V30 1966 H 176.418 -0.852887 1.16025 0
M  V30 1967 H 178.371 -3.98263 1.3771 0
M  V30 1968 H 177.095 -3.24409 0.377708 0
M  V30 1969 H 175.754 -2.72959 2.44722 0
M  V30 1970 H 175.402 -4.8799 1.21961 0
M  V30 1971 H 175.102 -5.0731 2.96497 0
M  V30 1972 H 176.626 -5.67515 2.25297 0
M  V30 1973 H 178.04 -4.1598 3.94505 0
M  V30 1974 H 176.437 -3.79615 4.64771 0
M  V30 1975 H 177.507 -2.46341 4.17665 0
M  V30 1976 N 178.85 -1.27639 -0.924453 0
M  V30 1977 C 180.099 -1.13549 -1.66702 0
M  V30 1978 C 180.412 0.317487 -1.93006 0
M  V30 1979 O 181.618 0.579333 -2.65247 0
M  V30 1980 C 180.074 -1.98426 -3.00259 0
M  V30 1981 C 179.682 -3.484 -2.81641 0
M  V30 1982 C 181.426 -1.92993 -3.78092 0
M  V30 1983 C 179.333 -4.25464 -4.10773 0
M  V30 1984 H 178.263 -0.421351 -0.625283 0
M  V30 1985 H 180.914 -1.52085 -1.02676 0
M  V30 1986 H 179.296 -1.52736 -3.6536 0
M  V30 1987 H 180.47 -4.01973 -2.25287 0
M  V30 1988 H 178.785 -3.55245 -2.17232 0
M  V30 1989 H 181.382 -2.47844 -4.7379 0
M  V30 1990 H 181.725 -0.904281 -4.0636 0
M  V30 1991 H 182.258 -2.36595 -3.19793 0
M  V30 1992 H 178.997 -5.28566 -3.87683 0
M  V30 1993 H 178.517 -3.76667 -4.66779 0
M  V30 1994 H 180.196 -4.34812 -4.79111 0
M  V30 1995 N 180.328 1.1314 -1.09713 0
M  V30 1996 C 181.575 1.84484 -0.834987 0
M  V30 1997 C 181.903 1.83689 0.639418 0
M  V30 1998 O 181.158 1.2724 1.4869 0
M  V30 1999 C 181.457 3.32167 -1.3191 0
M  V30 2000 C 181.123 3.53139 -2.80363 0
M  V30 2001 C 179.785 3.58571 -3.20905 0
M  V30 2002 C 182.137 3.60866 -3.76065 0
M  V30 2003 C 179.465 3.69267 -4.55916 0
M  V30 2004 C 181.817 3.73089 -5.10869 0
M  V30 2005 C 180.481 3.76775 -5.50996 0
M  V30 2006 H 179.751 0.675073 -0.305544 0
M  V30 2007 H 182.398 1.33554 -1.37243 0
M  V30 2008 H 180.703 3.85469 -0.701517 0
M  V30 2009 H 182.4 3.85821 -1.09284 0
M  V30 2010 H 178.99 3.49569 -2.47991 0
M  V30 2011 H 183.174 3.55946 -3.45855 0
M  V30 2012 H 178.43 3.70388 -4.86438 0
M  V30 2013 H 182.604 3.78011 -5.84877 0
M  V30 2014 H 180.231 3.84815 -6.55608 0
M  V30 2015 N 181.806 0.884767 1.30421 0
M  V30 2016 C 182.769 0.356277 2.26414 0
M  V30 2017 C 183.769 -0.501124 1.52792 0
M  V30 2018 O 184.959 -0.30831 1.7145 0
M  V30 2019 C 182.091 -0.492316 3.37326 0
M  V30 2020 H 183.284 1.20389 2.74675 0
M  V30 2021 H 180.837 0.661607 1.41607 0
M  V30 2022 H 181.572 -1.36052 2.94381 0
M  V30 2023 H 181.357 0.121832 3.91911 0
M  V30 2024 H 182.847 -0.853871 4.08777 0
M  V30 2025 N 183.284 -1.43765 0.645699 0
M  V30 2026 C 184.232 -2.32516 -0.0624849 0
M  V30 2027 C 185.226 -1.48183 -0.820855 0
M  V30 2028 O 186.432 -1.64439 -0.732106 0
M  V30 2029 H 182.807 -0.750989 -0.0389864 0
M  V30 2030 H 184.778 -2.89979 0.703892 0
M  V30 2031 C 183.527 -3.32389 -1.02044 0
M  V30 2032 H 182.85 -3.97301 -0.446312 0
M  V30 2033 H 184.29 -3.97138 -1.48517 0
M  V30 2034 C 182.749 -2.62416 -2.11281 0
M  V30 2035 O 183.279 -2.434 -3.19561 0
M  V30 2036 N 181.485 -2.21913 -1.87624 0
M  V30 2037 H 181.032 -2.37578 -0.995703 0
M  V30 2038 H 180.99 -1.75424 -2.6091 0
M  V30 2039 N 184.763 -0.387143 -1.52771 0
M  V30 2040 C 185.71 0.449048 -2.26389 0
M  V30 2041 C 186.68 1.05961 -1.27912 0
M  V30 2042 O 187.865 1.08804 -1.56737 0
M  V30 2043 C 185.005 1.57155 -3.0724 0
M  V30 2044 C 184.118 0.984066 -4.20643 0
M  V30 2045 C 183.253 2.07745 -4.88892 0
M  V30 2046 C 182.292 1.46574 -5.94292 0
M  V30 2047 N 181.429 2.49834 -6.56146 0
M  V30 2048 H 186.269 -0.185205 -2.97424 0
M  V30 2049 H 183.806 -0.103164 -1.46738 0
M  V30 2050 H 185.764 2.23309 -3.52405 0
M  V30 2051 H 184.394 2.17615 -2.38419 0
M  V30 2052 H 183.446 0.212193 -3.79808 0
M  V30 2053 H 184.758 0.497029 -4.96318 0
M  V30 2054 H 183.912 2.81673 -5.3735 0
M  V30 2055 H 182.651 2.59807 -4.12737 0
M  V30 2056 H 181.656 0.711696 -5.45174 0
M  V30 2057 H 182.881 0.953088 -6.72379 0
M  V30 2058 H 180.827 3.0107 -5.82832 0
M  V30 2059 H 180.744 2.05879 -7.27427 0
M  V30 2060 H 182.012 3.23399 -7.09249 0
M  V30 2061 N 186.241 1.57166 -0.116904 0
M  V30 2062 C 187.173 2.12271 0.864507 0
M  V30 2063 C 188.186 1.06494 1.23138 0
M  V30 2064 O 189.375 1.33873 1.18069 0
M  V30 2065 C 186.475 2.60564 2.16702 0
M  V30 2066 C 185.648 3.90416 1.97216 0
M  V30 2067 C 184.707 4.24329 3.11178 0
M  V30 2068 O 183.733 4.93182 2.84184 0
M  V30 2069 N 184.935 3.8148 4.37554 0
M  V30 2070 H 187.7 2.97102 0.393726 0
M  V30 2071 H 185.261 1.61759 0.0675805 0
M  V30 2072 H 187.253 2.80282 2.91932 0
M  V30 2073 H 185.823 1.80623 2.55135 0
M  V30 2074 H 185.043 3.79627 1.06192 0
M  V30 2075 H 186.331 4.75327 1.81499 0
M  V30 2076 H 185.729 3.25943 4.62361 0
M  V30 2077 H 184.286 4.06311 5.09661 0
M  V30 2078 N 187.719 -0.156864 1.56817 0
M  V30 2079 C 188.996 -0.899244 1.73704 0
M  V30 2080 C 189.376 -1.99771 0.682254 0
M  V30 2081 O 188.724 -2.26515 -0.300522 0
M  V30 2082 C 188.934 -1.45075 3.17418 0
M  V30 2083 C 190.282 -1.91802 3.7881 0
M  V30 2084 O 191.306 -1.54838 3.20786 0
M  V30 2085 O 190.165 -2.5994 4.80722 0
M  V30 2086 H 187.259 -0.424267 0.709878 0
M  V30 2087 H 189.805 -0.143561 1.69092 0
M  V30 2088 H 188.577 -0.660846 3.85679 0
M  V30 2089 H 188.2 -2.27021 3.26416 0
M  V30 2090 N 189.197 -1.51736 -0.425897 0
M  V30 2091 C 190.443 -1.65214 -1.1761 0
M  V30 2092 C 190.776 -0.372778 -1.90589 0
M  V30 2093 O 190.051 0.628139 -1.84078 0
M  V30 2094 C 190.334 -2.86312 -2.18398 0
M  V30 2095 C 190.187 -4.24254 -1.49426 0
M  V30 2096 C 191.506 -3.02925 -3.19256 0
M  V30 2097 H 188.625 -0.601263 -0.426206 0
M  V30 2098 H 191.267 -1.8425 -0.463882 0
M  V30 2099 H 189.417 -2.70213 -2.79137 0
M  V30 2100 H 191.089 -4.52046 -0.919362 0
M  V30 2101 H 189.332 -4.26426 -0.796432 0
M  V30 2102 H 190.003 -5.05001 -2.22885 0
M  V30 2103 H 192.479 -3.1781 -2.68581 0
M  V30 2104 H 191.355 -3.89199 -3.8706 0
M  V30 2105 H 191.616 -2.15497 -3.86023 0
M  V30 2106 N 190.675 0.682077 -1.42076 0
M  V30 2107 C 191.622 1.79578 -1.44984 0
M  V30 2108 C 192.592 1.6332 -0.302614 0
M  V30 2109 O 193.777 1.83978 -0.505633 0
M  V30 2110 C 190.917 3.1756 -1.35091 0
M  V30 2111 C 190.03 3.45156 -2.59791 0
M  V30 2112 C 189.165 4.72826 -2.42093 0
M  V30 2113 C 188.204 4.93433 -3.62202 0
M  V30 2114 N 187.341 6.12338 -3.43491 0
M  V30 2115 H 192.181 1.76427 -2.40161 0
M  V30 2116 H 189.718 0.861376 -1.19242 0
M  V30 2117 H 191.676 3.97287 -1.27354 0
M  V30 2118 H 190.306 3.19854 -0.435133 0
M  V30 2119 H 189.358 2.59736 -2.77923 0
M  V30 2120 H 190.67 3.5628 -3.49094 0
M  V30 2121 H 189.824 5.60631 -2.319 0
M  V30 2122 H 188.563 4.63973 -1.50268 0
M  V30 2123 H 187.568 4.04073 -3.72834 0
M  V30 2124 H 188.793 5.04136 -4.54998 0
M  V30 2125 H 186.739 6.04672 -2.54377 0
M  V30 2126 H 186.656 6.2429 -4.26377 0
M  V30 2127 H 187.924 7.02841 -3.37097 0
M  V30 2128 N 192.153 1.28127 0.917671 0
M  V30 2129 C 193.063 1.13556 2.05286 0
M  V30 2130 C 194.079 0.0630914 1.73886 0
M  V30 2131 O 195.255 0.271598 1.9956 0
M  V30 2132 C 192.32 0.794676 3.3747 0
M  V30 2133 C 191.381 1.94909 3.82504 0
M  V30 2134 C 190.614 1.62437 5.0838 0
M  V30 2135 O 190.837 0.536905 5.67867 0
M  V30 2136 O 189.771 2.46677 5.4903 0
M  V30 2137 H 193.597 2.08844 2.20495 0
M  V30 2138 H 191.182 1.07409 1.03845 0
M  V30 2139 H 193.064 0.618344 4.16839 0
M  V30 2140 H 191.739 -0.128581 3.23445 0
M  V30 2141 H 190.646 2.18055 3.03978 0
M  V30 2142 H 191.979 2.85291 4.01086 0
M  V30 2143 N 193.631 -1.12557 1.10312 0
M  V30 2144 C 194.871 -1.8568 0.854543 0
M  V30 2145 C 195.235 -1.82091 -0.608843 0
M  V30 2146 O 196.436 -2.50544 -0.973717 0
M  V30 2147 C 194.707 -3.2942 1.38626 0
M  V30 2148 S 196.266 -4.19931 1.27293 0
M  V30 2149 H 193.084 -0.640427 0.308827 0
M  V30 2150 H 195.686 -1.35599 1.40831 0
M  V30 2151 H 194.39 -3.2959 2.44537 0
M  V30 2152 H 193.921 -3.84566 0.82902 0
M  V30 2153 H 195.936 -4.95668 0.229776 0
M  V30 2154 N 195.109 -0.891671 -1.2995 0
M  V30 2155 C 196.042 -0.307994 -2.26112 0
M  V30 2156 C 197.02 0.575262 -1.52084 0
M  V30 2157 O 198.204 0.523864 -1.81074 0
M  V30 2158 C 195.331 0.561734 -3.34009 0
M  V30 2159 C 194.377 -0.253107 -4.25748 0
M  V30 2160 S 195.21 -1.64572 -5.09584 0
M  V30 2161 C 196.366 -0.782699 -6.20987 0
M  V30 2162 H 196.599 -1.12309 -2.75271 0
M  V30 2163 H 194.132 -0.691509 -1.38049 0
M  V30 2164 H 196.09 1.05777 -3.96638 0
M  V30 2165 H 194.751 1.35099 -2.83561 0
M  V30 2166 H 193.944 0.410908 -5.02322 0
M  V30 2167 H 193.546 -0.682004 -3.67729 0
M  V30 2168 H 195.838 -0.00257476 -6.775 0
M  V30 2169 H 196.781 -1.52026 -6.91588 0
M  V30 2170 H 197.189 -0.340638 -5.63471 0
M  V30 2171 N 196.587 1.43421 -0.653314 0
M  V30 2172 C 197.815 2.06163 -0.174491 0
M  V30 2173 C 198.23 1.48969 1.1599 0
M  V30 2174 O 197.587 0.621042 1.71608 0
M  V30 2175 C 197.638 3.61417 -0.0774865 0
M  V30 2176 O 197.359 4.16485 -1.35912 0
M  V30 2177 C 198.86 4.41235 0.427402 0
M  V30 2178 H 196.08 0.664946 -0.0899353 0
M  V30 2179 H 198.624 1.83924 -0.893988 0
M  V30 2180 H 196.779 3.82841 0.59257 0
M  V30 2181 H 197.193 5.10153 -1.21839 0
M  V30 2182 H 198.667 5.5021 0.44423 0
M  V30 2183 H 199.144 4.14268 1.45873 0
M  V30 2184 H 199.75 4.2478 -0.210167 0
M  V30 2185 N 198.065 0.39524 1.52563 0
M  V30 2186 C 199.311 -0.185318 2.01952 0
M  V30 2187 C 199.644 -1.45964 1.28095 0
M  V30 2188 O 198.919 -1.90689 0.38315 0
M  V30 2189 C 199.202 -0.447193 3.57312 0
M  V30 2190 C 199.055 0.842828 4.41833 0
M  V30 2191 C 200.374 -1.23529 4.22408 0
M  V30 2192 H 197.493 -0.0658788 0.73405 0
M  V30 2193 H 200.135 0.525975 1.82575 0
M  V30 2194 H 198.285 -1.05312 3.73954 0
M  V30 2195 H 199.957 1.4795 4.36931 0
M  V30 2196 H 198.2 1.45686 4.08605 0
M  V30 2197 H 198.871 0.614165 5.48573 0
M  V30 2198 H 201.347 -0.722445 4.0978 0
M  V30 2199 H 200.223 -1.38727 5.3108 0
M  V30 2200 H 200.484 -2.25213 3.80436 0
M  V30 2201 N 199.544 -1.57102 0.125237 0
M  V30 2202 C 200.507 -2.14471 -0.80838 0
M  V30 2203 C 201.507 -1.0811 -1.19033 0
M  V30 2204 O 202.697 -1.33856 -1.11482 0
M  V30 2205 C 199.829 -2.69005 -2.09402 0
M  V30 2206 H 201.022 -2.98297 -0.309696 0
M  V30 2207 H 198.575 -1.55807 -0.124051 0
M  V30 2208 H 199.31 -1.88785 -2.63687 0
M  V30 2209 H 199.095 -3.46799 -1.82957 0
M  V30 2210 H 200.585 -3.13278 -2.76128 0
M  V30 2211 N 201.022 0.148545 -1.56898 0
M  V30 2212 C 201.932 1.20293 -2.01412 0
M  V30 2213 C 202.948 1.47107 -0.929273 0
M  V30 2214 O 204.124 1.58807 -1.23863 0
M  V30 2215 C 201.189 2.51682 -2.38447 0
M  V30 2216 C 200.25 2.32529 -3.60872 0
M  V30 2217 C 199.483 3.57653 -3.96132 0
M  V30 2218 O 199.706 4.63771 -3.32073 0
M  V30 2219 O 198.64 3.50408 -4.89385 0
M  V30 2220 H 202.466 0.855025 -2.91416 0
M  V30 2221 H 200.051 0.357151 -1.45068 0
M  V30 2222 H 201.933 3.29147 -2.63135 0
M  V30 2223 H 200.608 2.86006 -1.51599 0
M  V30 2224 H 199.515 1.53019 -3.41373 0
M  V30 2225 H 200.848 2.03121 -4.48333 0
M  V30 2226 N 202.5 1.5196 0.417844 0
M  V30 2227 C 203.749 1.6482 1.16264 0
M  V30 2228 C 204.062 0.379886 1.91876 0
M  V30 2229 O 205.268 0.388154 2.68711 0
M  V30 2230 C 203.724 2.91161 2.1155 0
M  V30 2231 C 203.332 4.25068 1.41495 0
M  V30 2232 C 205.076 3.13383 2.86341 0
M  V30 2233 C 202.983 5.42541 2.35379 0
M  V30 2234 H 201.913 0.613954 0.437694 0
M  V30 2235 H 204.564 1.78442 0.427871 0
M  V30 2236 H 202.946 2.71218 2.88543 0
M  V30 2237 H 204.12 4.55463 0.699263 0
M  V30 2238 H 202.435 4.0888 0.787792 0
M  V30 2239 H 205.032 3.98324 3.5671 0
M  V30 2240 H 205.375 2.27256 3.48798 0
M  V30 2241 H 205.908 3.33757 2.1645 0
M  V30 2242 H 202.647 6.30987 1.77582 0
M  V30 2243 H 202.167 5.16497 3.04945 0
M  V30 2244 H 203.846 5.75272 2.96093 0
M  V30 2245 N 203.978 -0.674533 1.42435 0
M  V30 2246 C 205.203 -1.46784 1.46524 0
M  V30 2247 C 205.628 -1.87938 0.078066 0
M  V30 2248 O 204.986 -1.56014 -0.92354 0
M  V30 2249 C 205.034 -2.69307 2.39805 0
M  V30 2250 O 204.138 -3.67587 1.86959 0
M  V30 2251 H 203.479 -0.440959 0.496439 0
M  V30 2252 H 206.009 -0.827326 1.87127 0
M  V30 2253 H 206.019 -3.17374 2.56393 0
M  V30 2254 H 204.694 -2.38692 3.40586 0
M  V30 2255 H 203.271 -3.2662 1.79927 0
M  V30 2256 N 205.456 -1.28612 -0.910864 0
M  V30 2257 C 206.388 -1.08589 -2.01844 0
M  V30 2258 C 207.401 -0.0367419 -1.62759 0
M  V30 2259 O 208.59 -0.280101 -1.76289 0
M  V30 2260 C 205.69 -0.628626 -3.33019 0
M  V30 2261 C 204.863 -1.75382 -4.00699 0
M  V30 2262 C 203.922 -1.28945 -5.10156 0
M  V30 2263 O 202.948 -1.9922 -5.33198 0
M  V30 2264 N 204.15 -0.154224 -5.80295 0
M  V30 2265 H 206.915 -2.03973 -2.19579 0
M  V30 2266 H 204.476 -1.20403 -1.08234 0
M  V30 2267 H 206.468 -0.301508 -4.03575 0
M  V30 2268 H 205.038 0.232451 -3.11735 0
M  V30 2269 H 204.258 -2.25039 -3.23653 0
M  V30 2270 H 205.546 -2.50854 -4.42662 0
M  V30 2271 H 204.944 0.43194 -5.64049 0
M  V30 2272 H 203.501 0.113599 -6.51701 0
M  V30 2273 N 206.934 1.1197 -1.10907 0
M  V30 2274 C 208.181 1.83588 -0.854507 0
M  V30 2275 C 208.509 1.84357 0.6199 0
M  V30 2276 O 207.764 1.28809 1.47332 0
M  V30 2277 C 208.063 3.30749 -1.35425 0
M  V30 2278 C 207.729 3.50146 -2.84093 0
M  V30 2279 C 206.391 3.55148 -3.2469 0
M  V30 2280 C 208.743 3.56857 -3.79872 0
M  V30 2281 C 206.071 3.6441 -4.59806 0
M  V30 2282 C 208.423 3.6765 -5.14797 0
M  V30 2283 C 207.087 3.7091 -5.54961 0
M  V30 2284 H 206.357 0.671795 -0.312686 0
M  V30 2285 H 209.004 1.32091 -1.38652 0
M  V30 2286 H 207.309 3.84703 -0.742361 0
M  V30 2287 H 209.006 3.8464 -1.1337 0
M  V30 2288 H 205.596 3.46919 -2.51685 0
M  V30 2289 H 209.78 3.52258 -3.49611 0
M  V30 2290 H 205.036 3.65208 -4.9034 0
M  V30 2291 H 209.21 3.71786 -5.88853 0
M  V30 2292 H 206.837 3.7784 -6.59652 0
M  V30 2293 N 208.412 0.89855 1.29475 0
M  V30 2294 C 209.342 0.39201 2.30186 0
M  V30 2295 C 210.323 -0.532359 1.61555 0
M  V30 2296 O 211.508 -0.443331 1.89072 0
M  V30 2297 C 208.638 -0.382353 3.45189 0
M  V30 2298 C 207.592 0.451483 4.25612 0
M  V30 2299 C 206.918 -0.450307 5.328 0
M  V30 2300 C 208.218 1.70079 4.93832 0
M  V30 2301 H 209.912 1.23362 2.72804 0
M  V30 2302 H 207.458 0.594638 1.31149 0
M  V30 2303 H 209.411 -0.747451 4.14718 0
M  V30 2304 H 208.135 -1.25774 3.01411 0
M  V30 2305 H 206.794 0.798897 3.57789 0
M  V30 2306 H 206.442 -1.32379 4.85268 0
M  V30 2307 H 206.142 0.103902 5.87508 0
M  V30 2308 H 207.666 -0.811623 6.05182 0
M  V30 2309 H 209.08 1.40549 5.55805 0
M  V30 2310 H 207.477 2.19623 5.58467 0
M  V30 2311 H 208.547 2.43744 4.19186 0
M  V30 2312 N 209.89 -1.43072 0.660911 0
M  V30 2313 C 210.837 -2.30785 -0.0259884 0
M  V30 2314 C 211.807 -1.45184 -0.806888 0
M  V30 2315 O 212.992 -1.74041 -0.781943 0
M  V30 2316 C 210.132 -3.30861 -0.981067 0
M  V30 2317 C 209.245 -4.31558 -0.195458 0
M  V30 2318 C 208.38 -5.18712 -1.14503 0
M  V30 2319 C 207.419 -6.11097 -0.350299 0
M  V30 2320 N 206.556 -6.90849 -1.25186 0
M  V30 2321 H 211.396 -2.88975 0.727846 0
M  V30 2322 H 208.933 -1.42353 0.370682 0
M  V30 2323 H 210.891 -3.87399 -1.54849 0
M  V30 2324 H 209.521 -2.74304 -1.70169 0
M  V30 2325 H 208.573 -3.77252 0.488374 0
M  V30 2326 H 209.885 -4.9701 0.422176 0
M  V30 2327 H 209.039 -5.79914 -1.78284 0
M  V30 2328 H 207.778 -4.53404 -1.79656 0
M  V30 2329 H 206.783 -5.48976 0.300808 0
M  V30 2330 H 208.008 -6.7845 0.296941 0
M  V30 2331 H 205.954 -6.28182 -1.89005 0
M  V30 2332 H 205.871 -7.52854 -0.688971 0
M  V30 2333 H 207.139 -7.5655 -1.87757 0
M  V30 2334 N 211.368 -0.403325 -1.52352 0
M  V30 2335 C 212.298 0.416205 -2.29761 0
M  V30 2336 C 213.279 1.05123 -1.33728 0
M  V30 2337 O 214.464 1.06134 -1.62632 0
M  V30 2338 C 211.594 1.53624 -3.11475 0
M  V30 2339 C 210.548 1.02653 -4.15507 0
M  V30 2340 C 209.874 2.23971 -4.85532 0
M  V30 2341 C 211.174 0.08463 -5.22231 0
M  V30 2342 H 212.868 -0.229701 -2.98518 0
M  V30 2343 H 210.414 -0.111913 -1.43564 0
M  V30 2344 H 212.367 2.1165 -3.64393 0
M  V30 2345 H 211.091 2.20994 -2.40477 0
M  V30 2346 H 209.75 0.46871 -3.63591 0
M  V30 2347 H 209.398 2.89883 -4.11068 0
M  V30 2348 H 209.098 1.90521 -5.55856 0
M  V30 2349 H 210.622 2.82614 -5.41259 0
M  V30 2350 H 212.036 0.573509 -5.70424 0
M  V30 2351 H 210.433 -0.160783 -5.99885 0
M  V30 2352 H 211.503 -0.86237 -4.7717 0
M  V30 2353 N 212.846 1.57033 -0.133567 0
M  V30 2354 C 214.074 2.00044 0.528195 0
M  V30 2355 C 214.489 1.01349 1.59291 0
M  V30 2356 O 213.846 0.00848369 1.82498 0
M  V30 2357 C 213.897 3.43018 1.1411 0
M  V30 2358 O 213.618 4.37939 0.11892 0
M  V30 2359 C 215.119 4.01237 1.88477 0
M  V30 2360 H 212.339 0.656517 0.138661 0
M  V30 2361 H 214.883 2.03267 -0.224196 0
M  V30 2362 H 213.038 3.40688 1.84418 0
M  V30 2363 H 213.452 5.21436 0.56613 0
M  V30 2364 H 214.926 5.03314 2.26669 0
M  V30 2365 H 215.403 3.41193 2.76558 0
M  V30 2366 H 216.009 4.07156 1.22898 0
M  V30 2367 N 214.325 -0.140222 1.56975 0
M  V30 2368 C 215.55 -0.870414 1.88251 0
M  V30 2369 C 215.975 -1.73637 0.723312 0
M  V30 2370 O 215.333 -1.78329 -0.32689 0
M  V30 2371 C 215.381 -1.69737 3.18154 0
M  V30 2372 O 214.485 -2.80229 3.02565 0
M  V30 2373 H 213.826 -0.242025 0.61832 0
M  V30 2374 H 216.356 -0.128999 2.04193 0
M  V30 2375 H 216.366 -2.09099 3.50345 0
M  V30 2376 H 215.041 -1.06152 4.02125 0
M  V30 2377 H 213.618 -2.44224 2.81796 0
M  V30 2378 N 215.803 -1.52179 -0.40978 0
M  V30 2379 C 217.052 -1.65434 -1.15388 0
M  V30 2380 C 217.365 -0.390056 -1.91671 0
M  V30 2381 O 218.571 -0.402399 -2.68501 0
M  V30 2382 C 217.027 -2.92279 -2.10003 0
M  V30 2383 C 216.635 -4.25813 -1.39239 0
M  V30 2384 C 218.379 -3.14897 -2.84675 0
M  V30 2385 C 216.286 -5.43782 -2.32498 0
M  V30 2386 H 215.216 -0.616267 -0.434432 0
M  V30 2387 H 217.867 -1.78666 -0.418401 0
M  V30 2388 H 216.249 -2.72744 -2.871 0
M  V30 2389 H 217.423 -4.55828 -0.675099 0
M  V30 2390 H 215.738 -4.09292 -0.766097 0
M  V30 2391 H 218.335 -4.0021 -3.54593 0
M  V30 2392 H 218.678 -2.29103 -3.47588 0
M  V30 2393 H 219.211 -3.34901 -2.14677 0
M  V30 2394 H 215.95 -6.3192 -1.74233 0
M  V30 2395 H 215.47 -5.18106 -3.02201 0
M  V30 2396 H 217.149 -5.76834 -2.93038 0
M  V30 2397 N 217.281 0.66697 -1.42791 0
M  V30 2398 C 218.228 1.7803 -1.4688 0
M  V30 2399 C 219.198 1.6299 -0.319919 0
M  V30 2400 O 220.383 1.83432 -0.525118 0
M  V30 2401 C 217.523 3.1611 -1.38451 0
M  V30 2402 C 216.636 3.42381 -2.63437 0
M  V30 2403 C 215.771 4.70232 -2.47094 0
M  V30 2404 C 214.81 4.89564 -3.67415 0
M  V30 2405 N 213.947 6.08661 -3.49966 0
M  V30 2406 H 218.787 1.7387 -2.42019 0
M  V30 2407 H 216.324 0.84868 -1.20149 0
M  V30 2408 H 218.282 3.95914 -1.31561 0
M  V30 2409 H 216.912 3.19374 -0.469033 0
M  V30 2410 H 215.964 2.56774 -2.80662 0
M  V30 2411 H 217.276 3.52557 -3.52853 0
M  V30 2412 H 216.43 5.5814 -2.37834 0
M  V30 2413 H 215.169 4.62353 -1.5518 0
M  V30 2414 H 214.174 4.00096 -3.77099 0
M  V30 2415 H 215.399 4.99282 -4.6032 0
M  V30 2416 H 213.345 6.0194 -2.60776 0
M  V30 2417 H 213.262 6.19733 -4.32975 0
M  V30 2418 H 214.53 6.99226 -3.44532 0
M  V30 2419 N 218.759 1.29093 0.90403 0
M  V30 2420 C 220.036 1.075 1.63411 0
M  V30 2421 C 220.416 -0.382346 2.07609 0
M  V30 2422 O 219.764 -1.37031 1.82851 0
M  V30 2423 C 219.974 2.05858 2.81822 0
M  V30 2424 C 221.322 2.36539 3.52611 0
M  V30 2425 O 222.346 2.04019 2.91984 0
M  V30 2426 O 221.205 2.92085 4.61897 0
M  V30 2427 H 218.299 0.411547 0.717327 0
M  V30 2428 H 220.845 1.40449 0.952479 0
M  V30 2429 H 219.617 3.04037 2.46327 0
M  V30 2430 H 219.24 1.73613 3.57693 0
M  V30 2431 N 220.237 -1.11381 1.11499 0
M  V30 2432 C 221.187 -2.15555 0.74298 0
M  V30 2433 C 222.171 -1.58894 -0.253276 0
M  V30 2434 O 223.363 -1.76897 -0.0602918 0
M  V30 2435 C 220.492 -3.42782 0.188481 0
M  V30 2436 C 219.578 -4.064 1.21244 0
M  V30 2437 N 219.969 -4.44864 2.40685 0
M  V30 2438 C 218.267 -4.3333 1.05552 0
M  V30 2439 C 218.968 -4.94715 3.05994 0
M  V30 2440 N 217.944 -4.90909 2.33472 0
M  V30 2441 H 221.746 -2.43074 1.65203 0
M  V30 2442 H 219.26 -1.28401 0.994329 0
M  V30 2443 H 221.257 -4.16789 -0.0961693 0
M  V30 2444 H 219.917 -3.16727 -0.715149 0
M  V30 2445 H 220.928 -4.36876 2.78136 0
M  V30 2446 H 217.605 -4.1698 0.208372 0
M  V30 2447 H 218.995 -5.34103 4.07656 0
M  V30 2448 N 221.715 -0.905404 -1.28997 0
M  V30 2449 C 222.647 -0.344748 -2.26592 0
M  V30 2450 C 223.66 0.512135 -1.54535 0
M  V30 2451 O 224.849 0.328368 -1.75454 0
M  V30 2452 C 221.949 0.526587 -3.34784 0
M  V30 2453 C 221.122 -0.305871 -4.36329 0
M  V30 2454 C 220.181 0.499209 -5.23827 0
M  V30 2455 O 219.207 -0.0853004 -5.69136 0
M  V30 2456 N 220.409 1.80408 -5.51755 0
M  V30 2457 H 223.174 -1.18359 -2.75338 0
M  V30 2458 H 220.735 -0.770481 -1.42391 0
M  V30 2459 H 222.727 1.07171 -3.90252 0
M  V30 2460 H 221.297 1.26613 -2.85811 0
M  V30 2461 H 220.517 -1.0324 -3.80441 0
M  V30 2462 H 221.805 -0.875773 -5.01206 0
M  V30 2463 H 221.203 2.3016 -5.16762 0
M  V30 2464 H 219.76 2.29621 -6.10014 0
M  V30 2465 N 223.193 1.4272 -0.668489 0
M  V30 2466 C 224.439 2.02443 -0.197076 0
M  V30 2467 C 224.794 1.51882 1.18109 0
M  V30 2468 O 224.087 0.708618 1.78015 0
M  V30 2469 C 224.281 3.57021 -0.164499 0
M  V30 2470 C 224.11 4.22583 -1.53797 0
M  V30 2471 C 222.88 4.58019 -2.13416 0
M  V30 2472 C 225.078 4.50588 -2.47941 0
M  V30 2473 N 223.06 5.08729 -3.4361 0
M  V30 2474 C 224.431 5.02782 -3.62782 0
M  V30 2475 C 226.486 4.32571 -2.46551 0
M  V30 2476 C 225.189 5.38852 -4.76478 0
M  V30 2477 C 227.215 4.69713 -3.59338 0
M  V30 2478 C 226.577 5.22053 -4.72906 0
M  V30 2479 H 222.676 0.773214 -0.116894 0
M  V30 2480 H 225.26 1.73673 -0.880108 0
M  V30 2481 H 223.431 3.85323 0.487925 0
M  V30 2482 H 225.163 4.03439 0.319207 0
M  V30 2483 H 221.918 4.43566 -1.65969 0
M  V30 2484 H 222.342 5.38521 -4.10273 0
M  V30 2485 H 226.984 3.91365 -1.59978 0
M  V30 2486 H 224.702 5.78993 -5.63731 0
M  V30 2487 H 228.288 4.57454 -3.59482 0
M  V30 2488 H 227.168 5.50258 -5.58736 0
M  V30 2489 N 224.671 0.411399 1.52136 0
M  V30 2490 C 225.621 -0.430376 2.23901 0
M  V30 2491 C 226.605 -1.0116 1.25121 0
M  V30 2492 O 227.797 -0.934044 1.50348 0
M  V30 2493 C 224.926 -1.54527 3.06556 0
M  V30 2494 C 224.012 -0.9747 4.12747 0
M  V30 2495 N 224.403 -0.130991 5.0563 0
M  V30 2496 C 222.701 -1.24497 4.28271 0
M  V30 2497 C 223.402 0.186689 5.814 0
M  V30 2498 N 222.378 -0.42304 5.41951 0
M  V30 2499 H 226.18 0.220509 2.93072 0
M  V30 2500 H 223.694 0.221952 1.60876 0
M  V30 2501 H 225.691 -2.16093 3.56524 0
M  V30 2502 H 224.351 -2.19875 2.38925 0
M  V30 2503 H 225.362 0.23349 5.17373 0
M  V30 2504 H 222.039 -1.89787 3.7187 0
M  V30 2505 H 223.429 0.871673 6.66222 0
M  V30 2506 N 226.149 -1.5696 0.141893 0
M  V30 2507 C 227.398 -1.95135 -0.510427 0
M  V30 2508 C 227.711 -1.02896 -1.66348 0
M  V30 2509 O 228.917 -1.30629 -2.38009 0
M  V30 2510 C 227.373 -3.46876 -0.959427 0
M  V30 2511 C 226.981 -4.47691 0.166419 0
M  V30 2512 C 228.725 -3.93927 -1.58183 0
M  V30 2513 C 226.632 -5.90636 -0.300565 0
M  V30 2514 H 225.562 -0.728494 -0.194454 0
M  V30 2515 H 228.213 -1.8211 0.22542 0
M  V30 2516 H 226.595 -3.55215 -1.75038 0
M  V30 2517 H 227.769 -4.51043 0.94325 0
M  V30 2518 H 226.084 -4.10527 0.696905 0
M  V30 2519 H 228.681 -4.98158 -1.94275 0
M  V30 2520 H 229.024 -3.3519 -2.46888 0
M  V30 2521 H 229.557 -3.88484 -0.855863 0
M  V30 2522 H 226.296 -6.5318 0.550989 0
M  V30 2523 H 225.816 -5.90655 -1.04338 0
M  V30 2524 H 227.495 -6.42588 -0.754265 0
M  V30 2525 N 227.627 0.131896 -1.57047 0
M  V30 2526 C 228.559 1.1878 -1.9602 0
M  V30 2527 C 229.572 1.38363 -0.857875 0
M  V30 2528 O 230.761 1.37666 -1.13623 0
M  V30 2529 C 227.861 2.55008 -2.23213 0
M  V30 2530 C 227.034 2.56201 -3.54513 0
M  V30 2531 C 226.093 3.7408 -3.70069 0
M  V30 2532 O 225.119 3.58258 -4.42312 0
M  V30 2533 N 226.321 4.92137 -3.07866 0
M  V30 2534 H 229.086 0.85639 -2.87204 0
M  V30 2535 H 226.647 0.321309 -1.5868 0
M  V30 2536 H 228.639 3.32404 -2.30846 0
M  V30 2537 H 227.209 2.80382 -1.3822 0
M  V30 2538 H 226.429 1.64613 -3.58185 0
M  V30 2539 H 227.717 2.54043 -4.4084 0
M  V30 2540 H 227.115 5.07895 -2.49116 0
M  V30 2541 H 225.672 5.67254 -3.21039 0
M  V30 2542 N 229.106 1.52395 0.401703 0
M  V30 2543 C 230.069 1.75636 1.47257 0
M  V30 2544 C 231.069 0.62628 1.48103 0
M  V30 2545 O 232.259 0.894227 1.49497 0
M  V30 2546 C 229.391 1.84553 2.86624 0
M  V30 2547 H 230.584 2.71241 1.27938 0
M  V30 2548 H 228.137 1.42923 0.632662 0
M  V30 2549 H 228.872 0.908882 3.11303 0
M  V30 2550 H 228.657 2.66715 2.87412 0
M  V30 2551 H 230.147 2.04251 3.64241 0
M  V30 2552 N 230.584 -0.659388 1.43143 0
M  V30 2553 C 231.824 -1.43121 1.45931 0
M  V30 2554 C 232.188 -1.91838 0.0789298 0
M  V30 2555 O 233.389 -2.68794 -0.018491 0
M  V30 2556 C 231.66 -2.58534 2.46769 0
M  V30 2557 S 233.219 -3.47154 2.68384 0
M  V30 2558 H 230.037 -0.488624 0.516496 0
M  V30 2559 H 232.639 -0.766128 1.79863 0
M  V30 2560 H 231.343 -2.21007 3.45809 0
M  V30 2561 H 230.874 -3.29898 2.14315 0
M  V30 2562 H 232.889 -4.55051 1.97845 0
M  V30 2563 N 232.062 -1.29571 -0.897171 0
M  V30 2564 C 233.302 -1.18959 -1.66217 0
M  V30 2565 C 233.666 0.254271 -1.90309 0
M  V30 2566 O 234.867 0.483407 -2.64417 0
M  V30 2567 C 233.138 -1.98302 -2.9734 0
M  V30 2568 S 234.697 -2.04253 -3.88364 0
M  V30 2569 H 231.515 -0.424137 -0.570639 0
M  V30 2570 H 234.117 -1.6389 -1.06585 0
M  V30 2571 H 232.821 -3.02342 -2.77521 0
M  V30 2572 H 232.352 -1.53986 -3.62011 0
M  V30 2573 H 234.367 -1.16105 -4.82425 0
M  V30 2574 N 233.54 1.10788 -1.12088 0
M  V30 2575 C 234.503 2.15207 -0.788577 0
M  V30 2576 C 235.503 1.59609 0.195317 0
M  V30 2577 O 236.693 1.74174 -0.0300193 0
M  V30 2578 C 233.825 3.4047 -0.171174 0
M  V30 2579 H 235.018 2.46116 -1.71368 0
M  V30 2580 H 232.571 1.26089 -0.923652 0
M  V30 2581 H 233.306 3.15176 0.763832 0
M  V30 2582 H 233.091 3.82109 -0.879514 0
M  V30 2583 H 234.581 4.17576 0.04496 0
M  V30 2584 N 235.018 0.912232 1.28515 0
M  V30 2585 C 235.948 0.416403 2.29757 0
M  V30 2586 C 236.929 -0.515194 1.6211 0
M  V30 2587 O 238.114 -0.423253 1.89532 0
M  V30 2588 C 235.244 -0.34572 3.45575 0
M  V30 2589 C 234.198 0.496599 4.25109 0
M  V30 2590 C 233.524 -0.393771 5.33248 0
M  V30 2591 C 234.824 1.75307 4.92001 0
M  V30 2592 H 236.518 1.26249 2.7148 0
M  V30 2593 H 234.064 0.608515 1.30511 0
M  V30 2594 H 236.017 -0.703422 4.15488 0
M  V30 2595 H 234.741 -1.2257 3.02728 0
M  V30 2596 H 233.4 0.8368 3.56922 0
M  V30 2597 H 233.048 -1.27225 4.86644 0
M  V30 2598 H 232.748 0.166209 5.87365 0
M  V30 2599 H 234.272 -0.747389 6.06009 0
M  V30 2600 H 235.686 1.46437 5.54283 0
M  V30 2601 H 234.083 2.25534 5.56106 0
M  V30 2602 H 235.153 2.48176 4.16577 0
M  V30 2603 N 236.496 -1.42363 0.676048 0
M  V30 2604 C 237.724 -2.05859 0.207268 0
M  V30 2605 C 238.139 -1.50796 -1.13605 0
M  V30 2606 O 237.496 -0.648265 -1.70598 0
M  V30 2607 C 237.547 -3.61248 0.134975 0
M  V30 2608 O 237.268 -4.1427 1.42521 0
M  V30 2609 C 238.769 -4.41859 -0.357151 0
M  V30 2610 H 235.989 -0.663431 0.100503 0
M  V30 2611 H 238.533 -1.82479 0.923136 0
M  V30 2612 H 236.688 -3.83735 -0.531588 0
M  V30 2613 H 237.102 -5.0815 1.29939 0
M  V30 2614 H 238.576 -5.50847 -0.356641 0
M  V30 2615 H 239.053 -4.16536 -1.39264 0
M  V30 2616 H 239.659 -4.24392 0.27772 0
M  V30 2617 N 237.974 -0.419461 -1.51915 0
M  V30 2618 C 239.222 0.152637 -2.01523 0
M  V30 2619 C 239.543 1.44762 -1.30649 0
M  V30 2620 O 238.813 1.90997 -0.435535 0
M  V30 2621 H 237.393 0.0593966 -0.744635 0
M  V30 2622 H 240.055 -0.558073 -1.86739 0
M  V30 2623 H 239.151 0.341369 -3.10227 0
M  V30 2624 N 239.452 1.56882 -0.150215 0
M  V30 2625 C 240.362 2.20494 0.801222 0
M  V30 2626 C 241.378 1.19019 1.26927 0
M  V30 2627 O 242.554 1.51607 1.32579 0
M  V30 2628 C 239.619 2.81659 2.02161 0
M  V30 2629 C 238.68 3.9827 1.60249 0
M  V30 2630 C 237.913 4.56508 2.7647 0
M  V30 2631 O 238.136 4.13627 3.92771 0
M  V30 2632 O 237.07 5.46719 2.51757 0
M  V30 2633 H 240.896 3.02315 0.289717 0
M  V30 2634 H 238.481 1.49202 0.0769684 0
M  V30 2635 H 240.363 3.20522 2.73576 0
M  V30 2636 H 239.038 2.02849 2.52258 0
M  V30 2637 H 237.945 3.64117 0.858477 0
M  V30 2638 H 239.278 4.78609 1.14864 0
M  V30 2639 N 240.93 -0.123565 1.57115 0
M  V30 2640 C 242.178 -0.83051 1.84247 0
M  V30 2641 C 242.499 -1.80629 0.73471 0
M  V30 2642 O 241.769 -1.94403 -0.241688 0
M  V30 2643 H 240.349 -0.309694 0.679778 0
M  V30 2644 H 243.011 -0.111976 1.94578 0
M  V30 2645 H 242.107 -1.37852 2.80006 0
M  V30 2646 N 242.408 -1.52605 -0.393616 0
M  V30 2647 C 243.338 -1.80022 -1.48709 0
M  V30 2648 C 244.319 -0.651995 -1.57108 0
M  V30 2649 O 245.504 -0.89913 -1.72132 0
M  V30 2650 C 242.634 -1.96492 -2.86371 0
M  V30 2651 C 241.588 -3.12161 -2.92813 0
M  V30 2652 C 240.914 -3.13877 -4.3288 0
M  V30 2653 C 242.214 -4.51322 -2.6288 0
M  V30 2654 H 243.908 -2.71589 -1.26015 0
M  V30 2655 H 241.454 -1.30684 -0.604778 0
M  V30 2656 H 243.407 -2.14255 -3.62867 0
M  V30 2657 H 242.131 -1.01611 -3.10391 0
M  V30 2658 H 240.79 -2.94173 -2.18764 0
M  V30 2659 H 240.438 -2.16687 -4.53933 0
M  V30 2660 H 240.138 -3.91576 -4.38112 0
M  V30 2661 H 241.662 -3.33789 -5.1129 0
M  V30 2662 H 243.076 -4.69435 -3.29096 0
M  V30 2663 H 241.473 -5.31053 -2.79468 0
M  V30 2664 H 242.543 -4.58353 -1.58242 0
M  V30 2665 N 243.887 0.651787 -1.4349 0
M  V30 2666 C 245.127 1.42345 -1.46688 0
M  V30 2667 C 245.491 1.91793 -0.0891023 0
M  V30 2668 O 246.692 2.688 0.00423594 0
M  V30 2669 C 244.963 2.57221 -2.48137 0
M  V30 2670 S 246.522 3.45725 -2.70221 0
M  V30 2671 H 243.34 0.485878 -0.51908 0
M  V30 2672 H 245.942 0.756578 -1.80267 0
M  V30 2673 H 244.646 2.1917 -3.46976 0
M  V30 2674 H 244.177 3.28757 -2.16061 0
M  V30 2675 H 246.192 4.53996 -2.00255 0
M  V30 2676 N 245.365 1.30045 0.890287 0
M  V30 2677 C 246.297 1.11786 2.00091 0
M  V30 2678 C 247.31 0.0626307 1.62679 0
M  V30 2679 O 248.499 0.308112 1.75821 0
M  V30 2680 C 245.599 0.681527 3.31977 0
M  V30 2681 C 244.772 1.81735 3.97858 0
M  V30 2682 C 243.831 1.37045 5.08041 0
M  V30 2683 O 242.857 2.07677 5.29961 0
M  V30 2684 N 244.059 0.246525 5.79976 0
M  V30 2685 H 246.824 2.07441 2.16306 0
M  V30 2686 H 244.385 1.2211 1.06305 0
M  V30 2687 H 246.377 0.365675 4.03045 0
M  V30 2688 H 244.947 -0.182828 3.12065 0
M  V30 2689 H 244.167 2.30159 3.20032 0
M  V30 2690 H 245.455 2.57865 4.38615 0
M  V30 2691 H 244.853 -0.34215 5.64664 0
M  V30 2692 H 243.41 -0.00990438 6.51799 0
M  V30 2693 N 246.843 -1.10192 1.12674 0
M  V30 2694 C 248.091 -1.81845 0.881861 0
M  V30 2695 C 248.412 -1.85737 -0.593867 0
M  V30 2696 O 247.682 -1.33724 -1.4316 0
M  V30 2697 H 246.262 -0.673432 0.323261 0
M  V30 2698 H 248.924 -1.33316 1.42172 0
M  V30 2699 H 248.02 -2.85288 1.2656 0
M  V30 2700 N 248.321 -0.919034 -1.28029 0
M  V30 2701 C 249.251 -0.428581 -2.29533 0
M  V30 2702 C 250.232 0.50659 -1.62381 0
M  V30 2703 O 251.417 0.413195 -1.89753 0
M  V30 2704 C 248.547 0.327388 -3.45753 0
M  V30 2705 C 247.501 -0.519137 -4.2484 0
M  V30 2706 C 246.827 0.365486 -5.33449 0
M  V30 2707 C 248.127 -1.77914 -4.91064 0
M  V30 2708 H 249.821 -1.27687 -2.70807 0
M  V30 2709 H 247.367 -0.615428 -1.30186 0
M  V30 2710 H 249.32 0.681378 -4.15855 0
M  V30 2711 H 248.044 1.20963 -3.03374 0
M  V30 2712 H 246.703 -0.855717 -3.56473 0
M  V30 2713 H 246.351 1.24642 -4.87312 0
M  V30 2714 H 246.051 -0.197356 -5.87268 0
M  V30 2715 H 247.575 0.715241 -6.06396 0
M  V30 2716 H 248.989 -1.49374 -5.53498 0
M  V30 2717 H 247.386 -2.2848 -5.54903 0
M  V30 2718 H 248.456 -2.50382 -4.15255 0
M  V30 2719 N 249.799 1.42003 -0.683588 0
M  V30 2720 C 250.709 2.34597 -0.0109075 0
M  V30 2721 C 251.725 1.55576 0.779245 0
M  V30 2722 O 252.901 1.88107 0.719555 0
M  V30 2723 C 249.966 3.34199 0.922588 0
M  V30 2724 C 249.027 4.29115 0.125984 0
M  V30 2725 C 248.26 5.23959 1.01502 0
M  V30 2726 O 248.483 5.23952 2.25456 0
M  V30 2727 O 247.417 6.00053 0.47111 0
M  V30 2728 H 251.243 2.93675 -0.773853 0
M  V30 2729 H 248.828 1.42654 -0.443861 0
M  V30 2730 H 250.71 3.95365 1.45823 0
M  V30 2731 H 249.385 2.77582 1.66523 0
M  V30 2732 H 248.292 3.71335 -0.453969 0
M  V30 2733 H 249.625 4.88798 -0.577736 0
M  V30 2734 N 251.277 0.427512 1.51691 0
M  V30 2735 C 252.523 -0.134744 2.02953 0
M  V30 2736 C 252.878 -1.41235 1.30654 0
M  V30 2737 O 252.171 -1.87168 0.409713 0
M  V30 2738 C 252.365 -0.418249 3.54944 0
M  V30 2739 C 252.194 0.830327 4.41968 0
M  V30 2740 C 250.964 1.36097 4.86627 0
M  V30 2741 C 253.162 1.7137 4.84909 0
M  V30 2742 N 251.144 2.56311 5.57833 0
M  V30 2743 C 252.515 2.76195 5.55082 0
M  V30 2744 C 254.57 1.72928 4.66905 0
M  V30 2745 C 253.273 3.82512 6.09161 0
M  V30 2746 C 255.299 2.78175 5.21894 0
M  V30 2747 C 254.661 3.8172 5.92004 0
M  V30 2748 H 250.76 -0.0103958 0.781931 0
M  V30 2749 H 253.344 0.585981 1.85673 0
M  V30 2750 H 251.515 -1.10801 3.7226 0
M  V30 2751 H 253.247 -0.970999 3.92879 0
M  V30 2752 H 250.002 0.916311 4.64651 0
M  V30 2753 H 250.426 3.17242 5.98069 0
M  V30 2754 H 255.068 0.942081 4.12171 0
M  V30 2755 H 252.786 4.62077 6.62956 0
M  V30 2756 H 256.372 2.8031 5.09821 0
M  V30 2757 H 255.252 4.61821 6.33791 0
M  V30 2758 N 252.755 -1.56801 0.158532 0
M  V30 2759 C 253.688 -2.13148 -0.815065 0
M  V30 2760 C 254.666 -1.0581 -1.23462 0
M  V30 2761 O 255.85 -1.3371 -1.32868 0
M  V30 2762 C 252.977 -2.6606 -2.09594 0
M  V30 2763 C 252.023 -3.85651 -1.82141 0
M  V30 2764 S 252.856 -5.26041 -1.00207 0
M  V30 2765 C 254.012 -5.8235 -2.29389 0
M  V30 2766 H 254.245 -2.95396 -0.335937 0
M  V30 2767 H 251.778 -1.54299 -0.0559391 0
M  V30 2768 H 253.736 -2.97195 -2.8317 0
M  V30 2769 H 252.397 -1.83921 -2.54621 0
M  V30 2770 H 251.59 -4.20958 -2.77147 0
M  V30 2771 H 251.192 -3.55338 -1.16667 0
M  V30 2772 H 253.484 -5.94485 -3.24952 0
M  V30 2773 H 254.427 -6.79688 -1.9857 0
M  V30 2774 H 254.835 -5.10675 -2.40564 0
M  V30 2775 N 254.233 0.115231 -1.57178 0
M  V30 2776 C 255.166 1.17166 -1.95825 0
M  V30 2777 C 256.144 1.39912 -0.828463 0
M  V30 2778 O 257.328 1.54004 -1.08697 0
M  V30 2779 C 254.455 2.52478 -2.25771 0
M  V30 2780 C 253.501 2.46136 -3.48309 0
M  V30 2781 S 254.334 1.89736 -5.0076 0
M  V30 2782 C 255.49 3.26713 -5.33863 0
M  V30 2783 H 255.723 0.842103 -2.85124 0
M  V30 2784 H 253.256 0.322136 -1.51002 0
M  V30 2785 H 255.214 3.30332 -2.43702 0
M  V30 2786 H 253.875 2.82609 -1.37079 0
M  V30 2787 H 253.068 3.45819 -3.66641 0
M  V30 2788 H 252.67 1.76404 -3.29784 0
M  V30 2789 H 254.962 4.22935 -5.29275 0
M  V30 2790 H 255.905 3.13205 -6.35065 0
M  V30 2791 H 256.313 3.25316 -4.61335 0
M  V30 2792 N 255.711 1.52812 0.385517 0
M  V30 2793 C 256.936 1.72207 1.15583 0
M  V30 2794 C 257.361 0.441034 1.82857 0
M  V30 2795 O 256.719 -0.603465 1.70962 0
M  V30 2796 C 256.767 2.87476 2.17692 0
M  V30 2797 O 255.871 2.54693 3.24354 0
M  V30 2798 H 255.212 0.572526 0.336319 0
M  V30 2799 H 257.742 1.99618 0.448744 0
M  V30 2800 H 257.752 3.13072 2.6163 0
M  V30 2801 H 256.427 3.80408 1.68115 0
M  V30 2802 H 255.004 2.3985 2.85529 0
M  V30 2803 N 257.189 -0.644168 1.43834 0
M  V30 2804 C 258.605 -0.960875 1.27434 0
M  V30 2805 C 258.805 -2.00499 0.200618 0
M  V30 2806 O 257.861 -2.49018 -0.417906 0
M  V30 2807 C 259.174 -1.43653 2.64167 0
M  V30 2808 C 260.722 -1.55271 2.71772 0
M  V30 2809 C 261.197 -2.06224 4.08944 0
M  V30 2810 N 262.688 -2.13513 4.11055 0
M  V30 2811 C 263.423 -2.54081 5.14033 0
M  V30 2812 N 262.919 -2.9388 6.27381 0
M  V30 2813 N 264.712 -2.54101 5.01387 0
M  V30 2814 H 256.863 0.0465779 2.12349 0
M  V30 2815 H 259.126 -0.0417638 0.94708 0
M  V30 2816 H 258.832 -0.743706 3.43747 0
M  V30 2817 H 258.706 -2.40993 2.90176 0
M  V30 2818 H 261.093 -2.23653 1.92519 0
M  V30 2819 H 261.174 -0.563395 2.49519 0
M  V30 2820 H 260.818 -1.38441 4.88668 0
M  V30 2821 H 260.748 -3.06003 4.28567 0
M  V30 2822 H 263.239 -1.85493 3.29242 0
M  V30 2823 H 263.552 -3.2361 7.01781 0
M  V30 2824 H 261.897 -2.91663 6.30839 0
M  V30 2825 H 265.088 -2.22391 4.11898 0
M  V30 2826 H 265.261 -2.85394 5.81768 0
M  V30 2827 N 258.668 -1.30515 -0.883378 0
M  V30 2828 C 259.598 -1.19607 -2.00541 0
M  V30 2829 C 260.579 -0.086346 -1.69881 0
M  V30 2830 O 261.764 -0.268654 -1.92333 0
M  V30 2831 C 258.894 -0.888758 -3.35736 0
M  V30 2832 C 257.848 -1.95659 -3.8066 0
M  V30 2833 C 257.174 -1.50224 -5.13164 0
M  V30 2834 C 258.474 -3.36788 -3.99213 0
M  V30 2835 H 260.168 -2.13476 -2.09925 0
M  V30 2836 H 257.714 -1.02775 -1.00863 0
M  V30 2837 H 259.667 -0.799094 -4.13754 0
M  V30 2838 H 258.391 0.0856125 -3.26488 0
M  V30 2839 H 257.05 -2.03591 -3.04871 0
M  V30 2840 H 256.698 -0.516092 -5.00345 0
M  V30 2841 H 256.398 -2.2165 -5.44192 0
M  V30 2842 H 257.922 -1.42639 -5.93706 0
M  V30 2843 H 259.336 -3.31605 -4.67665 0
M  V30 2844 H 257.733 -4.06314 -4.41621 0
M  V30 2845 H 258.803 -3.78561 -3.03017 0
M  V30 2846 N 260.146 1.09593 -1.13257 0
M  V30 2847 C 261.093 2.1618 -0.808381 0
M  V30 2848 C 262.063 1.64517 0.228754 0
M  V30 2849 O 263.248 1.9053 0.101381 0
M  V30 2850 C 260.388 3.43973 -0.278675 0
M  V30 2851 C 259.501 4.09545 -1.37466 0
M  V30 2852 C 258.636 5.25088 -0.803479 0
M  V30 2853 C 257.675 5.82579 -1.87799 0
M  V30 2854 N 256.812 6.89486 -1.32488 0
M  V30 2855 H 261.652 2.43254 -1.72138 0
M  V30 2856 H 259.189 1.19392 -0.859294 0
M  V30 2857 H 261.147 4.17174 0.0465583 0
M  V30 2858 H 259.777 3.17223 0.597459 0
M  V30 2859 H 258.829 3.34226 -1.81652 0
M  V30 2860 H 260.141 4.48307 -2.18684 0
M  V30 2861 H 259.295 6.05178 -0.429427 0
M  V30 2862 H 258.034 4.87684 0.0397956 0
M  V30 2863 H 257.039 5.01152 -2.26113 0
M  V30 2864 H 258.264 6.22045 -2.72463 0
M  V30 2865 H 256.21 6.54064 -0.503575 0
M  V30 2866 H 256.127 7.27007 -2.07355 0
M  V30 2867 H 257.395 7.73336 -0.978336 0
M  V30 2868 N 261.624 0.925811 1.2754 0
M  V30 2869 C 262.873 0.561084 1.93739 0
M  V30 2870 C 263.186 -0.901685 1.73577 0
M  V30 2871 O 264.392 -1.37511 2.34101 0
M  V30 2872 C 262.848 0.952668 3.47062 0
M  V30 2873 C 262.456 2.43599 3.75983 0
M  V30 2874 C 264.2 0.659103 4.19352 0
M  V30 2875 C 262.107 2.76707 5.22673 0
M  V30 2876 H 261.037 0.206122 0.725279 0
M  V30 2877 H 263.688 1.12637 1.44863 0
M  V30 2878 H 262.07 0.316053 3.94737 0
M  V30 2879 H 263.244 3.12035 3.39073 0
M  V30 2880 H 261.559 2.70125 3.16893 0
M  V30 2881 H 264.156 0.882985 5.27359 0
M  V30 2882 H 264.499 -0.403607 4.14339 0
M  V30 2883 H 265.032 1.25473 3.77494 0
M  V30 2884 H 261.771 3.8188 5.32774 0
M  V30 2885 H 261.291 2.12919 5.60737 0
M  V30 2886 H 262.97 2.6435 5.90532 0
M  V30 2887 N 263.102 -1.41638 0.69111 0
M  V30 2888 C 264.518 -1.55435 0.362224 0
M  V30 2889 C 264.718 -1.66754 -1.13117 0
M  V30 2890 O 263.774 -1.64348 -1.91692 0
M  V30 2891 C 265.087 -2.79588 1.10684 0
M  V30 2892 C 266.635 -2.9338 1.09075 0
M  V30 2893 C 267.11 -4.20414 1.81703 0
M  V30 2894 N 268.601 -4.27362 1.7865 0
M  V30 2895 C 269.336 -5.24507 2.31689 0
M  V30 2896 N 268.832 -6.27708 2.93179 0
M  V30 2897 N 270.625 -5.16416 2.2197 0
M  V30 2898 H 262.776 -1.32536 1.65976 0
M  V30 2899 H 265.039 -0.639115 0.700168 0
M  V30 2900 H 264.745 -2.77419 2.16175 0
M  V30 2901 H 264.619 -3.70973 0.682545 0
M  V30 2902 H 267.006 -2.95067 0.0441238 0
M  V30 2903 H 267.087 -2.0318 1.55407 0
M  V30 2904 H 266.731 -4.19488 2.86343 0
M  V30 2905 H 266.661 -5.09578 1.32808 0
M  V30 2906 H 269.152 -3.53415 1.33815 0
M  V30 2907 H 269.465 -6.98217 3.31229 0
M  V30 2908 H 267.81 -6.28223 2.97255 0
M  V30 2909 H 271.001 -4.34716 1.73607 0
M  V30 2910 H 271.174 -5.91958 2.63609 0
M  V30 2911 O 264.619 -0.577603 -1.50818 0
M  V30 2912 H 265.31 -0.0808444 -1.93531 0
M  V30 END ATOM
M  V30 BEGIN BOND
M  V30 END BOND
M  V30 END CTAB
M  END
$$$$
