drugbank_drug|DB14597 Heavy chain
 OpenBabel12092119133D

  0  0  0     0  0            999 V3000
M  V30 BEGIN CTAB
M  V30 COUNTS 6906 6998 0 0 0
M  V30 BEGIN ATOM
M  V30 1 H -0.908 1.98254 -0.117106 0
M  V30 2 N 0 1.576 0 0
M  V30 3 C 0.91 2.11853 1.00774 0
M  V30 4 C 1.926 1.06379 1.37693 0
M  V30 5 O 3.102 1.3828 1.46426 0
M  V30 6 C 0.167 2.61108 2.28087 0
M  V30 7 C -0.772 3.81183 1.9748 0
M  V30 8 C -1.539 4.28079 3.18723 0
M  V30 9 O -1.316 3.74307 4.30407 0
M  V30 10 O -2.382 5.20234 3.02721 0
M  V30 11 H 1.444 2.98177 0.576547 0
M  V30 12 H -0.971 1.47789 0.218828 0
M  V30 13 H 0.911 2.92987 3.0288 0
M  V30 14 H -0.414 1.77881 2.70444 0
M  V30 15 H -1.507 3.54277 1.20162 0
M  V30 16 H -0.174 4.65482 1.5996 0
M  V30 17 N 1.4781 -0.272755 1.55222 0
M  V30 18 C 2.7241 -1.00581 1.761 0
M  V30 19 C 3.0571 -1.85932 0.560625 0
M  V30 20 O 2.3321 -1.89416 -0.441801 0
M  V30 21 C 2.6151 -1.88816 3.06628 0
M  V30 22 C 2.4681 -1.06457 4.37021 0
M  V30 23 C 3.7871 -2.8752 3.33197 0
M  V30 24 H 0.9061 -0.364244 0.640699 0
M  V30 25 H 3.5481 -0.278189 1.87952 0
M  V30 26 H 1.6981 -2.50856 2.96654 0
M  V30 27 H 3.3701 -0.464863 4.58952 0
M  V30 28 H 1.6131 -0.368043 4.32236 0
M  V30 29 H 2.2841 -1.71514 5.24678 0
M  V30 30 H 4.7601 -2.35615 3.42965 0
M  V30 31 H 3.6361 -3.46399 4.25792 0
M  V30 32 H 3.8971 -3.62657 2.52849 0
M  V30 33 N 2.9562 -1.48159 -0.537278 0
M  V30 34 C 3.8882 -1.58218 -1.65831 0
M  V30 35 C 4.9012 -0.466948 -1.5596 0
M  V30 36 O 6.0902 -0.73747 -1.62553 0
M  V30 37 C 3.1902 -1.48906 -3.04434 0
M  V30 38 C 2.3632 -2.75343 -3.3986 0
M  V30 39 C 1.4222 -2.59588 -4.57712 0
M  V30 40 O 0.4482 -3.33457 -4.61297 0
M  V30 41 N 1.6502 -1.68724 -5.55439 0
M  V30 42 H 4.4152 -2.54891 -1.57641 0
M  V30 43 H 1.9762 -1.4479 -0.724386 0
M  V30 44 H 3.9682 -1.36072 -3.81139 0
M  V30 45 H 2.5382 -0.602368 -3.06741 0
M  V30 46 H 1.7582 -3.02795 -2.52406 0
M  V30 47 H 3.0462 -3.5924 -3.60311 0
M  V30 48 H 2.4442 -1.07898 -5.55315 0
M  V30 49 H 1.0012 -1.61832 -6.3139 0
M  V30 50 N 4.4343 0.785586 -1.36625 0
M  V30 51 C 5.3643 1.91259 -1.33949 0
M  V30 52 C 6.3453 1.68795 -0.210325 0
M  V30 53 O 7.5303 1.89854 -0.408561 0
M  V30 54 C 4.6603 3.28339 -1.13186 0
M  V30 55 C 3.6143 3.65335 -2.22967 0
M  V30 56 C 2.9403 5.00806 -1.87342 0
M  V30 57 C 4.2403 3.7352 -3.65075 0
M  V30 58 H 5.9343 1.93755 -2.28253 0
M  V30 59 H 3.4803 0.930788 -1.09874 0
M  V30 60 H 5.4333 4.06804 -1.09948 0
M  V30 61 H 4.1573 3.2624 -0.153332 0
M  V30 62 H 2.8163 2.89169 -2.25337 0
M  V30 63 H 2.4643 4.95233 -0.880545 0
M  V30 64 H 2.1643 5.26529 -2.60846 0
M  V30 65 H 3.6883 5.81687 -1.85667 0
M  V30 66 H 5.1023 4.42168 -3.64911 0
M  V30 67 H 3.4993 4.10731 -4.37516 0
M  V30 68 H 4.5693 2.74527 -3.99703 0
M  V30 69 N 5.9124 1.20967 1.01018 0
M  V30 70 C 6.8424 0.988272 2.11555 0
M  V30 71 C 7.8234 -0.0849778 1.69888 0
M  V30 72 O 9.0084 0.0738202 1.9406 0
M  V30 73 C 6.1384 0.546528 3.42973 0
M  V30 74 C 5.0924 1.56375 3.9841 0
M  V30 75 C 4.4184 0.97842 5.25672 0
M  V30 76 C 5.7184 2.94922 4.31066 0
M  V30 77 H 7.4124 1.91276 2.30334 0
M  V30 78 H 4.9584 0.921073 1.1069 0
M  V30 79 H 6.9114 0.378839 4.19694 0
M  V30 80 H 5.6354 -0.413598 3.23971 0
M  V30 81 H 4.2944 1.71891 3.23804 0
M  V30 82 H 3.9424 0.0101688 5.02999 0
M  V30 83 H 3.6424 1.65784 5.63728 0
M  V30 84 H 5.1664 0.821939 6.05043 0
M  V30 85 H 6.5804 2.8288 4.9865 0
M  V30 86 H 4.9774 3.5983 4.80253 0
M  V30 87 H 6.0474 3.4616 3.39561 0
M  V30 88 N 7.3905 -1.2043 1.01659 0
M  V30 89 C 8.3005 -2.2689 0.596484 0
M  V30 90 C 9.3165 -1.70107 -0.36599 0
M  V30 91 O 10.4925 -2.00117 -0.226942 0
M  V30 92 C 7.5575 -3.4665 -0.0586659 0
M  V30 93 C 6.6185 -4.18662 0.949751 0
M  V30 94 C 5.8515 -5.32705 0.32577 0
M  V30 95 O 6.0745 -5.63656 -0.874509 0
M  V30 96 O 5.0085 -5.92803 1.04249 0
M  V30 97 H 8.8345 -2.65041 1.4828 0
M  V30 98 H 6.4195 -1.27048 0.786082 0
M  V30 99 H 8.3015 -4.19256 -0.424564 0
M  V30 100 H 6.9765 -3.10375 -0.91918 0
M  V30 101 H 5.8835 -3.48229 1.36702 0
M  V30 102 H 7.2165 -4.58878 1.78023 0
M  V30 103 N 8.8686 -0.792821 -1.36206 0
M  V30 104 C 10.0936 -0.377701 -2.03932 0
M  V30 105 C 10.5186 0.998947 -1.59382 0
M  V30 106 O 9.8766 1.64421 -0.763903 0
M  V30 107 C 9.9246 -0.453635 -3.57735 0
M  V30 108 O 9.0286 0.538151 -4.08874 0
M  V30 109 H 8.3696 -0.159855 -0.644471 0
M  V30 110 H 10.8996 -1.07488 -1.7409 0
M  V30 111 H 10.9096 -0.318464 -4.06755 0
M  V30 112 H 9.5846 -1.45784 -3.89512 0
M  V30 113 H 8.1616 0.364359 -3.71116 0
M  V30 114 N 10.3467 1.47872 -0.545128 0
M  V30 115 C 11.5947 2.02093 -0.016553 0
M  V30 116 C 11.9157 1.42305 1.3332 0
M  V30 117 O 11.1857 0.593853 1.86682 0
M  V30 118 H 9.7657 0.746993 -0.00313038 0
M  V30 119 H 12.4277 1.81414 -0.712397 0
M  V30 120 H 11.5237 3.11996 0.0805422 0
M  V30 121 N 11.8248 0.280983 1.55075 0
M  V30 122 C 13.0728 -0.333455 1.9933 0
M  V30 123 C 13.3938 -1.55937 1.17085 0
M  V30 124 O 12.6638 -1.94143 0.261805 0
M  V30 125 H 11.2438 -0.126197 0.736263 0
M  V30 126 H 13.9058 0.387678 1.91005 0
M  V30 127 H 13.0018 -0.619292 3.05894 0
M  V30 128 N 13.3029 -1.57598 0.00835791 0
M  V30 129 C 14.5509 -1.90551 -0.6734 0
M  V30 130 C 14.8719 -0.883301 -1.73847 0
M  V30 131 O 14.1419 0.0781442 -1.95744 0
M  V30 132 H 12.7219 -0.703312 -0.251717 0
M  V30 133 H 15.3839 -1.94833 0.0512592 0
M  V30 134 H 14.4799 -2.9056 -1.13935 0
M  V30 135 N 14.781 0.264519 -1.55364 0
M  V30 136 C 15.711 1.33121 -1.91836 0
M  V30 137 C 16.692 1.51101 -0.781192 0
M  V30 138 O 17.877 1.64003 -1.04003 0
M  V30 139 C 15.007 2.68921 -2.19769 0
M  V30 140 C 13.961 2.65661 -3.35571 0
M  V30 141 C 13.287 4.05093 -3.49004 0
M  V30 142 C 14.587 2.24187 -4.71739 0
M  V30 143 H 16.281 1.02844 -2.81182 0
M  V30 144 H 13.827 0.493286 -1.35287 0
M  V30 145 H 15.78 3.43663 -2.43872 0
M  V30 146 H 14.504 3.00799 -1.27231 0
M  V30 147 H 13.163 1.93377 -3.1145 0
M  V30 148 H 12.811 4.34206 -2.53917 0
M  V30 149 H 12.511 4.03804 -4.26868 0
M  V30 150 H 14.035 4.81561 -3.75408 0
M  V30 151 H 15.449 2.88654 -4.9533 0
M  V30 152 H 13.846 2.34044 -5.52579 0
M  V30 153 H 14.916 1.19327 -4.69988 0
M  V30 154 N 16.2591 1.48442 0.529413 0
M  V30 155 C 17.5051 1.5672 1.28711 0
M  V30 156 C 17.8381 0.2406 1.92704 0
M  V30 157 O 17.1131 -0.753454 1.79313 0
M  V30 158 C 17.3961 2.70587 2.37603 0
M  V30 159 C 17.2491 4.12953 1.78297 0
M  V30 160 C 18.5681 2.80212 3.39366 0
M  V30 161 H 15.6871 0.570474 0.466613 0
M  V30 162 H 18.3291 1.80617 0.589706 0
M  V30 163 H 16.4791 2.50342 2.97088 0
M  V30 164 H 18.1511 4.44639 1.22858 0
M  V30 165 H 16.3941 4.19927 1.0883 0
M  V30 166 H 17.0651 4.88448 2.57144 0
M  V30 167 H 19.5411 2.98553 2.89836 0
M  V30 168 H 18.4171 3.61611 4.12951 0
M  V30 169 H 18.6781 1.88393 3.99951 0
M  V30 170 N 17.7372 -0.778329 1.37039 0
M  V30 171 C 18.6692 -1.90034 1.2814 0
M  V30 172 C 19.6822 -1.61585 0.198558 0
M  V30 173 O 20.8712 -1.72625 0.454175 0
M  V30 174 C 17.9712 -3.25108 0.956968 0
M  V30 175 C 17.1442 -3.81253 2.14394 0
M  V30 176 C 16.2032 -4.94789 1.79082 0
M  V30 177 O 15.2292 -5.10721 2.51301 0
M  V30 178 N 16.4312 -5.75878 0.731043 0
M  V30 179 H 19.1962 -1.98186 2.24816 0
M  V30 180 H 16.7572 -0.957129 1.30578 0
M  V30 181 H 18.7492 -3.9857 0.701701 0
M  V30 182 H 17.3192 -3.125 0.0789812 0
M  V30 183 H 16.5392 -2.99647 2.56135 0
M  V30 184 H 17.8272 -4.15495 2.93668 0
M  V30 185 H 17.2252 -5.65547 0.131618 0
M  V30 186 H 15.7822 -6.49596 0.535622 0
M  V30 187 N 19.2153 -1.21501 -1.00376 0
M  V30 188 C 20.6263 -1.03146 -1.55621 0
M  V30 189 C 20.9773 0.408375 -1.91903 0
M  V30 190 O 20.1023 1.29177 -1.73616 0
M  V30 191 C 20.6973 -1.86612 -2.82775 0
M  V30 192 C 19.2563 -1.72586 -3.34501 0
M  V30 193 C 18.4033 -1.83747 -2.07683 0
M  V30 194 H 21.3543 -1.35505 -0.826081 0
M  V30 195 H 21.3753 -1.3771 -3.54706 0
M  V30 196 H 20.8873 -2.91399 -2.56336 0
M  V30 197 H 18.9883 -0.704877 -3.65872 0
M  V30 198 H 19.1013 -2.54623 -4.05837 0
M  V30 199 H 17.4653 -1.27069 -2.20739 0
M  V30 200 H 18.2483 -2.90044 -1.83655 0
M  V30 201 N 20.6934 1.19889 -1.02296 0
M  V30 202 C 21.9414 1.89046 -0.714558 0
M  V30 203 C 22.2624 1.79636 0.758681 0
M  V30 204 O 21.5324 1.20292 1.54618 0
M  V30 205 H 20.1124 0.699802 -0.261317 0
M  V30 206 H 22.7744 1.45574 -1.29592 0
M  V30 207 H 21.8704 2.95524 -1.0036 0
M  V30 208 N 22.1715 0.800033 1.35784 0
M  V30 209 C 23.4195 0.376597 1.9856 0
M  V30 210 C 23.7405 -1.05812 1.63795 0
M  V30 211 O 23.0105 -1.73103 0.917171 0
M  V30 212 H 21.5905 0.136261 0.734467 0
M  V30 213 H 24.2525 1.02442 1.65806 0
M  V30 214 H 23.3485 0.477002 3.08433 0
M  V30 215 N 23.6496 -1.47581 0.552962 0
M  V30 216 C 24.8746 -2.07378 0.0300593 0
M  V30 217 C 25.2996 -1.40355 -1.25229 0
M  V30 218 O 24.6576 -0.477099 -1.7491 0
M  V30 219 C 24.7056 -3.60274 -0.153231 0
M  V30 220 O 23.8096 -3.94041 -1.21678 0
M  V30 221 H 23.1506 -0.662158 0.0494182 0
M  V30 222 H 25.6806 -1.89662 0.767434 0
M  V30 223 H 25.6906 -4.0633 -0.368761 0
M  V30 224 H 24.3656 -4.08455 0.783397 0
M  V30 225 H 22.9426 -3.59735 -0.982079 0
M  V30 226 N 25.1277 -0.289203 -1.54924 0
M  V30 227 C 26.0577 0.58549 -2.2604 0
M  V30 228 C 27.0387 1.14753 -1.25562 0
M  V30 229 O 28.2237 1.17906 -1.54311 0
M  V30 230 C 25.3537 1.76305 -2.99222 0
M  V30 231 C 24.3077 1.33191 -4.06748 0
M  V30 232 C 23.6337 2.5937 -4.6758 0
M  V30 233 C 24.9337 0.471775 -5.20165 0
M  V30 234 H 26.6277 -0.00763532 -2.99399 0
M  V30 235 H 24.1737 -0.00511229 -1.43999 0
M  V30 236 H 26.1267 2.38097 -3.47689 0
M  V30 237 H 24.8507 2.38223 -2.23422 0
M  V30 238 H 23.5097 0.737121 -3.59113 0
M  V30 239 H 23.1577 3.19576 -3.88433 0
M  V30 240 H 22.8577 2.31228 -5.40192 0
M  V30 241 H 24.3817 3.21985 -5.18804 0
M  V30 242 H 25.7957 0.995056 -5.64599 0
M  V30 243 H 24.1927 0.284639 -5.99425 0
M  V30 244 H 25.2627 -0.506041 -4.82252 0
M  V30 245 N 26.6058 1.57591 -0.0167156 0
M  V30 246 C 28.0218 1.55946 0.339557 0
M  V30 247 C 28.2218 1.02109 1.73713 0
M  V30 248 O 27.2778 0.662303 2.43659 0
M  V30 249 C 28.5908 3.00037 0.199499 0
M  V30 250 C 30.1388 3.11805 0.273193 0
M  V30 251 C 30.6138 4.57713 0.162068 0
M  V30 252 N 32.1048 4.6268 0.219444 0
M  V30 253 C 32.8398 5.73185 0.157054 0
M  V30 254 N 32.3358 6.92786 0.0442936 0
M  V30 255 N 34.1288 5.61707 0.21014 0
M  V30 256 H 26.2798 1.90921 -0.930758 0
M  V30 257 H 28.5428 0.877674 -0.358319 0
M  V30 258 H 28.2488 3.4333 -0.76273 0
M  V30 259 H 28.1228 3.64387 0.974786 0
M  V30 260 H 30.5098 2.68433 1.22587 0
M  V30 261 H 30.5908 2.50201 -0.532256 0
M  V30 262 H 30.2348 5.01763 -0.78714 0
M  V30 263 H 30.1648 5.17283 0.986222 0
M  V30 264 H 32.6558 3.76649 0.307246 0
M  V30 265 H 32.9688 7.728 0.00304069 0
M  V30 266 H 31.3138 6.94999 0.00968457 0
M  V30 267 H 34.5048 4.6716 0.296546 0
M  V30 268 H 34.6778 6.47807 0.158054 0
M  V30 269 N 28.0839 -0.256276 1.55502 0
M  V30 270 C 29.0139 -1.32102 1.92539 0
M  V30 271 C 29.9949 -1.50684 0.789194 0
M  V30 272 O 31.1799 -1.63449 1.04872 0
M  V30 273 C 28.3099 -2.67752 2.21192 0
M  V30 274 C 27.2639 -2.63878 3.36975 0
M  V30 275 C 26.5899 -4.03236 3.51147 0
M  V30 276 C 27.8899 -2.21682 4.72921 0
M  V30 277 H 29.5839 -1.01351 2.81724 0
M  V30 278 H 27.1299 -0.486105 1.35547 0
M  V30 279 H 29.0829 -3.42365 2.45691 0
M  V30 280 H 27.8069 -3.0012 1.28824 0
M  V30 281 H 26.4659 -1.91722 3.12471 0
M  V30 282 H 26.1139 -4.32854 2.56216 0
M  V30 283 H 25.8139 -4.01535 4.29003 0
M  V30 284 H 27.3379 -4.79563 3.77957 0
M  V30 285 H 28.7519 -2.86023 4.96854 0
M  V30 286 H 27.1489 -2.3111 5.53812 0
M  V30 287 H 28.2189 -1.16833 4.70615 0
M  V30 288 N 29.562 -1.4872 -0.521534 0
M  V30 289 C 30.787 -1.61101 -1.30618 0
M  V30 290 C 31.212 -0.274611 -1.86085 0
M  V30 291 O 30.57 0.754937 -1.64834 0
M  V30 292 C 30.618 -2.66709 -2.4269 0
M  V30 293 O 29.722 -2.24456 -3.45967 0
M  V30 294 H 29.063 -0.539921 -0.386499 0
M  V30 295 H 31.593 -1.94767 -0.626645 0
M  V30 296 H 31.603 -2.88245 -2.88754 0
M  V30 297 H 30.278 -3.63727 -2.01682 0
M  V30 298 H 28.855 -2.13168 -3.05964 0
M  V30 299 N 31.0401 0.771051 -1.3745 0
M  V30 300 C 32.2801 1.54264 -1.34096 0
M  V30 301 C 32.6441 1.91858 0.0737639 0
M  V30 302 O 33.8451 2.67797 0.23203 0
M  V30 303 C 32.1161 2.77326 -2.25445 0
M  V30 304 S 33.6751 3.67383 -2.39948 0
M  V30 305 H 30.4931 0.528122 -0.476034 0
M  V30 306 H 33.0951 0.906633 -1.73206 0
M  V30 307 H 31.7991 2.47788 -3.27153 0
M  V30 308 H 31.3301 3.45886 -1.87421 0
M  V30 309 H 33.3451 4.69334 -1.61059 0
M  V30 310 N 32.5182 1.22032 0.997298 0
M  V30 311 C 33.4812 0.987909 2.06816 0
M  V30 312 C 34.4812 -0.0440084 1.6074 0
M  V30 313 O 35.6712 0.194053 1.73116 0
M  V30 314 C 32.8032 0.49132 3.37341 0
M  V30 315 H 33.9962 1.93803 2.28868 0
M  V30 316 H 31.5492 1.03838 1.16822 0
M  V30 317 H 32.2842 -0.463364 3.20973 0
M  V30 318 H 32.0692 1.23575 3.72118 0
M  V30 319 H 33.5592 0.348824 4.16141 0
M  V30 320 N 33.9963 -1.19345 1.0293 0
M  V30 321 C 34.9593 -2.20793 0.615069 0
M  V30 322 C 35.9593 -1.57553 -0.321533 0
M  V30 323 O 37.1493 -1.73862 -0.108483 0
M  V30 324 C 34.2813 -3.40754 -0.0999222 0
M  V30 325 H 35.4743 -2.58955 1.51269 0
M  V30 326 H 33.0273 -1.3303 0.820534 0
M  V30 327 H 33.7623 -3.0811 -1.01187 0
M  V30 328 H 33.5473 -3.87889 0.57309 0
M  V30 329 H 35.0373 -4.15898 -0.376645 0
M  V30 330 N 35.4744 -0.807222 -1.35358 0
M  V30 331 C 36.6994 -0.399309 -2.0352 0
M  V30 332 C 37.1244 0.981986 -1.60433 0
M  V30 333 O 36.4824 1.63601 -0.781299 0
M  V30 334 C 36.5304 -0.491552 -3.57234 0
M  V30 335 O 35.6344 0.494754 -4.09421 0
M  V30 336 H 34.9754 -0.166682 -0.642739 0
M  V30 337 H 37.5054 -1.09328 -1.72941 0
M  V30 338 H 37.5154 -0.361588 -4.06395 0
M  V30 339 H 36.1904 -1.49907 -3.87944 0
M  V30 340 H 34.7674 0.324977 -3.71481 0
M  V30 341 N 36.9525 1.47285 -0.560781 0
M  V30 342 C 38.2005 2.02064 -0.0379868 0
M  V30 343 C 38.5215 1.43711 1.31803 0
M  V30 344 O 37.7915 0.61362 1.86042 0
M  V30 345 H 36.3715 0.746918 -0.0110531 0
M  V30 346 H 39.0335 1.80648 -0.731598 0
M  V30 347 H 38.1295 3.12064 0.0474463 0
M  V30 348 N 38.4306 0.297415 1.54768 0
M  V30 349 C 39.6776 -0.312913 2.00068 0
M  V30 350 C 40.0056 -1.54171 1.18582 0
M  V30 351 O 39.2606 -1.94108 0.249133 0
M  V30 352 C 39.5596 -0.717561 3.50123 0
M  V30 353 C 39.2256 0.409095 4.4904 0
M  V30 354 C 37.8876 0.718399 4.75807 0
M  V30 355 C 40.2396 1.16717 5.07963 0
M  V30 356 C 37.5676 1.78896 5.5876 0
M  V30 357 C 39.9196 2.22762 5.92081 0
M  V30 358 C 38.5836 2.54303 6.1716 0
M  V30 359 H 37.8536 -0.114503 0.7321 0
M  V30 360 H 40.5006 0.415767 1.86932 0
M  V30 361 H 38.8056 -1.52627 3.60849 0
M  V30 362 H 40.5026 -1.20091 3.82595 0
M  V30 363 H 37.0926 0.157918 4.28309 0
M  V30 364 H 41.2766 0.941466 4.87289 0
M  V30 365 H 36.5326 2.0381 5.7643 0
M  V30 366 H 40.7066 2.81962 6.36765 0
M  V30 367 H 38.3336 3.3739 6.81229 0
M  V30 368 N 39.9087 -1.5758 0.0250728 0
M  V30 369 C 41.1367 -1.9593 -0.664747 0
M  V30 370 C 41.5517 -0.901352 -1.65895 0
M  V30 371 O 40.9087 0.117255 -1.82123 0
M  V30 372 C 40.9597 -3.34342 -1.37468 0
M  V30 373 O 40.6807 -4.36079 -0.420324 0
M  V30 374 C 42.1817 -3.873 -2.1567 0
M  V30 375 H 39.4017 -0.645405 -0.183557 0
M  V30 376 H 41.9457 -2.04329 0.0836372 0
M  V30 377 H 40.1007 -3.27175 -2.0745 0
M  V30 378 H 40.5147 -5.16297 -0.923991 0
M  V30 379 H 41.9887 -4.86504 -2.60803 0
M  V30 380 H 42.4657 -3.21331 -2.99405 0
M  V30 381 H 43.0717 -3.97723 -1.50654 0
M  V30 382 N 41.3868 0.248026 -1.55636 0
M  V30 383 C 42.6338 0.976224 -1.77415 0
M  V30 384 C 42.9618 1.85361 -0.589193 0
M  V30 385 O 42.2168 1.90973 0.427529 0
M  V30 386 C 42.5158 1.86819 -3.04686 0
M  V30 387 C 42.1818 1.14625 -4.36087 0
M  V30 388 C 40.8438 0.946723 -4.71795 0
M  V30 389 C 43.1958 0.634463 -5.17324 0
M  V30 390 C 40.5238 0.223091 -5.86276 0
M  V30 391 C 42.8758 -0.0756959 -6.32555 0
M  V30 392 C 41.5398 -0.286711 -6.66884 0
M  V30 393 H 40.8098 0.357226 -0.649208 0
M  V30 394 H 43.4568 0.246415 -1.89908 0
M  V30 395 H 41.7618 2.66502 -2.872 0
M  V30 396 H 43.4588 2.43329 -3.18735 0
M  V30 397 H 40.0488 1.3117 -4.08035 0
M  V30 398 H 44.2328 0.77616 -4.90193 0
M  V30 399 H 39.4888 0.0491185 -6.1138 0
M  V30 400 H 43.6628 -0.479899 -6.94745 0
M  V30 401 H 41.2898 -0.849389 -7.5544 0
M  V30 402 N 42.8649 1.48995 0.513639 0
M  V30 403 C 44.0899 1.61792 1.29762 0
M  V30 404 C 44.5149 0.284475 1.85936 0
M  V30 405 O 43.8729 -0.746185 1.65232 0
M  V30 406 C 43.9209 2.67993 2.41272 0
M  V30 407 O 43.0249 2.26287 3.44772 0
M  V30 408 H 42.3659 0.541963 0.38363 0
M  V30 409 H 44.8959 1.95097 0.616307 0
M  V30 410 H 44.9059 2.89772 2.87221 0
M  V30 411 H 43.5809 3.64791 1.9975 0
M  V30 412 H 42.1579 2.14788 3.04829 0
M  V30 413 N 44.343 -0.763751 1.37857 0
M  V30 414 C 45.293 -1.86765 1.30777 0
M  V30 415 C 46.277 -1.59726 0.194015 0
M  V30 416 O 47.469 -1.7172 0.42911 0
M  V30 417 C 44.598 -3.24343 1.12502 0
M  V30 418 C 43.684 -3.57307 2.28456 0
M  V30 419 N 44.075 -3.61398 3.53871 0
M  V30 420 C 42.373 -3.87517 2.20786 0
M  V30 421 C 43.074 -3.91339 4.30382 0
M  V30 422 N 42.05 -4.07649 3.59615 0
M  V30 423 H 45.852 -1.88191 2.25746 0
M  V30 424 H 43.366 -0.9606 1.30944 0
M  V30 425 H 45.363 -4.03327 1.05514 0
M  V30 426 H 44.023 -3.24175 0.184574 0
M  V30 427 H 45.034 -3.43407 3.87675 0
M  V30 428 H 41.711 -3.95125 1.34844 0
M  V30 429 H 43.101 -4.01213 5.3896 0
M  V30 430 N 45.8211 -1.22559 -0.990812 0
M  V30 431 C 47.0511 -1.07623 -1.76355 0
M  V30 432 C 47.4591 0.37601 -1.85426 0
M  V30 433 O 46.8021 1.27228 -1.32509 0
M  V30 434 C 46.8641 -1.61507 -3.21179 0
M  V30 435 C 46.5281 -3.10146 -3.35646 0
M  V30 436 C 47.5251 -4.07553 -3.22796 0
M  V30 437 C 45.2101 -3.49644 -3.60631 0
M  V30 438 C 47.2041 -5.42442 -3.34716 0
M  V30 439 C 44.8911 -4.84682 -3.72192 0
M  V30 440 C 45.8891 -5.8089 -3.59243 0
M  V30 441 O 45.5771 -7.13476 -3.70415 0
M  V30 442 H 45.3091 -0.377745 -0.560611 0
M  V30 443 H 47.8631 -1.62658 -1.25425 0
M  V30 444 H 46.0931 -1.00881 -3.73309 0
M  V30 445 H 47.7821 -1.42202 -3.80175 0
M  V30 446 H 48.5481 -3.78381 -3.03403 0
M  V30 447 H 44.4271 -2.75282 -3.69785 0
M  V30 448 H 47.9711 -6.17518 -3.24526 0
M  V30 449 H 43.8681 -5.13534 -3.91092 0
M  V30 450 H 44.6361 -7.21083 -3.87275 0
M  V30 451 N 47.2992 1.18797 -1.03562 0
M  V30 452 C 48.5482 1.87978 -0.731235 0
M  V30 453 C 48.8612 1.80911 0.743671 0
M  V30 454 O 50.0672 2.45407 1.16137 0
M  V30 455 C 48.5232 3.3721 -1.25768 0
M  V30 456 C 48.1312 3.52818 -2.76085 0
M  V30 457 C 49.8752 4.11825 -1.0296 0
M  V30 458 C 47.7822 4.9598 -3.22114 0
M  V30 459 H 46.7122 0.704063 -0.269835 0
M  V30 460 H 49.3632 1.34266 -1.25079 0
M  V30 461 H 47.7452 3.90359 -0.666011 0
M  V30 462 H 48.9192 3.09965 -3.40966 0
M  V30 463 H 47.2342 2.91602 -2.97249 0
M  V30 464 H 49.8312 5.17411 -1.34869 0
M  V30 465 H 50.1742 4.16287 0.0333546 0
M  V30 466 H 50.7072 3.64833 -1.58562 0
M  V30 467 H 47.4462 4.96684 -4.27768 0
M  V30 468 H 46.9662 5.39569 -2.61965 0
M  V30 469 H 48.6452 5.6467 -3.15844 0
M  V30 470 N 48.7773 0.814389 1.34928 0
M  V30 471 C 49.7103 0.175641 2.27523 0
M  V30 472 C 50.6883 -0.662953 1.48471 0
M  V30 473 O 51.8723 -0.628545 1.77712 0
M  V30 474 C 48.9993 -0.755516 3.30166 0
M  V30 475 C 48.0453 0.00445305 4.265 0
M  V30 476 S 48.8783 1.34582 5.18313 0
M  V30 477 C 50.0343 0.419315 6.24494 0
M  V30 478 H 50.2673 0.960691 2.8135 0
M  V30 479 H 47.8003 0.609846 1.41846 0
M  V30 480 H 49.7583 -1.28723 3.89796 0
M  V30 481 H 48.4193 -1.51402 2.75202 0
M  V30 482 H 47.6123 -0.703077 4.99072 0
M  V30 483 H 47.2143 0.466447 3.7108 0
M  V30 484 H 49.5063 -0.392432 6.76362 0
M  V30 485 H 50.4493 1.11446 6.99275 0
M  V30 486 H 50.8573 0.0115389 5.64499 0
M  V30 487 N 50.2554 -1.46986 0.568584 0
M  V30 488 C 51.1884 -2.27129 -0.220779 0
M  V30 489 C 52.1664 -1.34757 -0.909905 0
M  V30 490 O 53.3504 -1.64152 -0.926622 0
M  V30 491 C 50.4774 -3.12108 -1.31553 0
M  V30 492 C 49.5234 -4.20141 -0.733748 0
M  V30 493 S 50.3564 -5.33783 0.428479 0
M  V30 494 C 51.5124 -6.22327 -0.667811 0
M  V30 495 H 51.7454 -2.93731 0.459267 0
M  V30 496 H 49.2784 -1.5026 0.355154 0
M  V30 497 H 51.2364 -3.61636 -1.94241 0
M  V30 498 H 49.8974 -2.44847 -1.96746 0
M  V30 499 H 49.0904 -4.79373 -1.5562 0
M  V30 500 H 48.6924 -3.73553 -0.182812 0
M  V30 501 H 50.9844 -6.59364 -1.55708 0
M  V30 502 H 51.9274 -7.0801 -0.11258 0
M  V30 503 H 52.3354 -5.5618 -0.965601 0
M  V30 504 N 51.7335 -0.305618 -1.54608 0
M  V30 505 C 52.9795 0.295595 -2.01241 0
M  V30 506 C 53.3345 1.51171 -1.19018 0
M  V30 507 O 52.6275 1.89832 -0.259684 0
M  V30 508 C 52.8215 0.698983 -3.50498 0
M  V30 509 C 52.6505 -0.476491 -4.47168 0
M  V30 510 C 51.4205 -0.969963 -4.95903 0
M  V30 511 C 53.6185 -1.32294 -4.96994 0
M  V30 512 N 51.6005 -2.11172 -5.76437 0
M  V30 513 C 52.9715 -2.31212 -5.75275 0
M  V30 514 C 55.0265 -1.35278 -4.7917 0
M  V30 515 C 53.7295 -3.32896 -6.37631 0
M  V30 516 C 55.7555 -2.35823 -5.42348 0
M  V30 517 C 55.1175 -3.33469 -6.20466 0
M  V30 518 H 51.2165 0.0724992 -0.778632 0
M  V30 519 H 53.8005 -0.436583 -1.89742 0
M  V30 520 H 51.9715 1.40032 -3.62278 0
M  V30 521 H 53.7035 1.28013 -3.8392 0
M  V30 522 H 50.4585 -0.544178 -4.70463 0
M  V30 523 H 50.8825 -2.68714 -6.21387 0
M  V30 524 H 55.5245 -0.61157 -4.18354 0
M  V30 525 H 53.2425 -4.07933 -6.97579 0
M  V30 526 H 56.8285 -2.38911 -5.30484 0
M  V30 527 H 55.7085 -4.09996 -6.68485 0
M  V30 528 N 53.2116 1.57565 -0.0334293 0
M  V30 529 C 54.4576 1.92262 0.645226 0
M  V30 530 C 54.7906 0.910543 1.71531 0
M  V30 531 O 54.0656 -0.066099 1.94388 0
M  V30 532 C 54.3486 3.37422 1.2577 0
M  V30 533 C 54.2016 4.49369 0.196891 0
M  V30 534 C 55.5206 3.82628 2.17449 0
M  V30 535 H 52.6396 0.699171 0.233085 0
M  V30 536 H 55.2816 1.89779 -0.0915694 0
M  V30 537 H 53.4316 3.39669 1.88566 0
M  V30 538 H 55.1036 4.59254 -0.433962 0
M  V30 539 H 53.3466 4.31168 -0.477137 0
M  V30 540 H 54.0176 5.47978 0.665124 0
M  V30 541 H 56.4936 3.82145 1.64634 0
M  V30 542 H 55.3696 4.84883 2.57254 0
M  V30 543 H 55.6306 3.18376 3.0674 0
M  V30 544 N 54.6897 -0.239769 1.55765 0
M  V30 545 C 56.1057 -0.588624 1.48349 0
M  V30 546 C 56.3057 -1.88005 0.72502 0
M  V30 547 O 55.3617 -2.51186 0.257269 0
M  V30 548 C 56.6747 -0.68474 2.928 0
M  V30 549 C 58.2227 -0.77659 3.03213 0
M  V30 550 C 58.6977 -0.904207 4.48986 0
M  V30 551 N 60.1887 -0.968896 4.52953 0
M  V30 552 C 60.9237 -1.08703 5.63002 0
M  V30 553 N 60.4197 -1.17026 6.82845 0
M  V30 554 N 62.2127 -1.12074 5.50814 0
M  V30 555 H 54.3637 0.607911 2.03515 0
M  V30 556 H 56.6267 0.21083 0.924259 0
M  V30 557 H 56.3327 0.194284 3.51163 0
M  V30 558 H 56.2067 -1.55435 3.43686 0
M  V30 559 H 58.5937 -1.64606 2.44926 0
M  V30 560 H 58.6747 0.118315 2.55526 0
M  V30 561 H 58.3187 -0.0392633 5.07885 0
M  V30 562 H 58.2487 -1.81426 4.9436 0
M  V30 563 H 60.7397 -0.915633 3.6664 0
M  V30 564 H 61.0527 -1.25966 7.62465 0
M  V30 565 H 59.3977 -1.13971 6.85591 0
M  V30 566 H 62.5887 -1.05226 4.5612 0
M  V30 567 H 62.7617 -1.20936 6.36615 0
M  V30 568 N 56.1678 -1.49265 -0.50573 0
M  V30 569 C 57.0998 -1.617 -1.62437 0
M  V30 570 C 58.1128 -0.499924 -1.54934 0
M  V30 571 O 59.3018 -0.771785 -1.60953 0
M  V30 572 C 56.4018 -1.5533 -3.01207 0
M  V30 573 C 55.5748 -2.8249 -3.33943 0
M  V30 574 C 54.6338 -2.69238 -4.52103 0
M  V30 575 O 53.6598 -3.43167 -4.5412 0
M  V30 576 N 54.8618 -1.80468 -5.51735 0
M  V30 577 H 57.6268 -2.58177 -1.52199 0
M  V30 578 H 55.1878 -1.46294 -0.693511 0
M  V30 579 H 57.1798 -1.44125 -3.78167 0
M  V30 580 H 55.7498 -0.667297 -3.05395 0
M  V30 581 H 54.9698 -3.08081 -2.45926 0
M  V30 582 H 56.2578 -3.66802 -3.5261 0
M  V30 583 H 55.6558 -1.19653 -5.52901 0
M  V30 584 H 54.2128 -1.75188 -6.27816 0
M  V30 585 N 57.6459 0.756429 -1.3826 0
M  V30 586 C 58.6089 1.85176 -1.35065 0
M  V30 587 C 59.6089 1.58818 -0.251703 0
M  V30 588 O 60.7989 1.66615 -0.508433 0
M  V30 589 C 57.9309 3.22596 -1.10201 0
M  V30 590 H 59.1239 1.89417 -2.3251 0
M  V30 591 H 56.6769 0.95783 -1.23512 0
M  V30 592 H 57.4119 3.24025 -0.133504 0
M  V30 593 H 57.1969 3.43122 -1.89762 0
M  V30 594 H 58.6869 4.02673 -1.10654 0
M  V30 595 N 59.124 1.23083 0.984299 0
M  V30 596 C 60.535 1.05609 1.5396 0
M  V30 597 C 60.886 -0.377793 1.92528 0
M  V30 598 O 60.011 -1.26398 1.75649 0
M  V30 599 C 60.606 1.91087 2.7977 0
M  V30 600 C 59.165 1.77885 3.31713 0
M  V30 601 C 58.312 1.87028 2.04733 0
M  V30 602 H 61.263 1.36802 0.804419 0
M  V30 603 H 61.284 1.43336 3.5247 0
M  V30 604 H 60.796 2.9544 2.51668 0
M  V30 605 H 58.897 0.762995 3.64704 0
M  V30 606 H 59.01 2.61047 4.01735 0
M  V30 607 H 57.374 1.30565 2.18689 0
M  V30 608 H 58.157 2.92929 1.79017 0
M  V30 609 N 60.6021 -1.18246 1.0419 0
M  V30 610 C 61.8501 -1.87886 0.744543 0
M  V30 611 C 62.1711 -1.8082 -0.730006 0
M  V30 612 O 61.4411 -1.22736 -1.52685 0
M  V30 613 H 60.0211 -0.695556 0.272417 0
M  V30 614 H 62.6831 -1.43494 1.31892 0
M  V30 615 H 61.7791 -2.9389 1.05049 0
M  V30 616 N 62.0802 -0.821533 -1.34494 0
M  V30 617 C 63.0272 -0.240397 -2.29545 0
M  V30 618 C 63.9972 0.634031 -1.53523 0
M  V30 619 O 65.1822 0.575966 -1.81899 0
M  V30 620 C 62.3222 0.592869 -3.39969 0
M  V30 621 C 61.4352 -0.30365 -4.30932 0
M  V30 622 C 60.5702 0.539049 -5.28458 0
M  V30 623 C 59.6092 -0.356942 -6.11058 0
M  V30 624 N 58.7462 0.446603 -7.00678 0
M  V30 625 H 63.5862 -1.05632 -2.7865 0
M  V30 626 H 61.1232 -0.532413 -1.37127 0
M  V30 627 H 63.0812 1.09129 -4.02675 0
M  V30 628 H 61.7112 1.37392 -2.92102 0
M  V30 629 H 60.7632 -0.920276 -3.691 0
M  V30 630 H 62.0752 -0.992661 -4.88823 0
M  V30 631 H 61.2292 1.102 -5.96608 0
M  V30 632 H 59.9682 1.26157 -4.71101 0
M  V30 633 H 58.9732 -0.932047 -5.41842 0
M  V30 634 H 60.1982 -1.07755 -6.70497 0
M  V30 635 H 58.1442 1.15282 -6.45791 0
M  V30 636 H 58.0612 -0.184048 -7.55776 0
M  V30 637 H 59.3292 0.992352 -7.73158 0
M  V30 638 N 63.5583 1.46682 -0.576371 0
M  V30 639 C 64.8063 2.02013 -0.0594163 0
M  V30 640 C 65.1273 1.45101 1.30271 0
M  V30 641 O 64.3973 0.633317 1.8538 0
M  V30 642 H 62.9773 0.746759 -0.0189745 0
M  V30 643 H 65.6393 1.79862 -0.750717 0
M  V30 644 H 64.7353 3.12097 0.014345 0
M  V30 645 N 65.0364 0.313813 1.54444 0
M  V30 646 C 65.9664 -0.549454 2.26943 0
M  V30 647 C 66.9474 -1.12741 1.27372 0
M  V30 648 O 68.1324 -1.15436 1.56167 0
M  V30 649 C 65.2624 -1.71523 3.01989 0
M  V30 650 C 64.2164 -1.26703 4.08816 0
M  V30 651 C 63.5424 -2.51898 4.71647 0
M  V30 652 C 64.8424 -0.388962 5.2085 0
M  V30 653 H 66.5364 0.0552661 2.99349 0
M  V30 654 H 64.0824 0.0280207 1.43973 0
M  V30 655 H 66.0354 -2.32535 3.51433 0
M  V30 656 H 64.7594 -2.34639 2.27183 0
M  V30 657 H 63.4184 -0.679896 3.6024 0
M  V30 658 H 63.0664 -3.13356 3.93468 0
M  V30 659 H 62.7664 -2.22605 5.43802 0
M  V30 660 H 64.2904 -3.1369 5.23861 0
M  V30 661 H 65.7044 -0.905107 5.6611 0
M  V30 662 H 64.1014 -0.18924 5.99802 0
M  V30 663 H 65.1714 0.582699 4.81386 0
M  V30 664 N 66.5145 -1.57545 0.0417849 0
M  V30 665 C 67.4245 -2.14451 -0.951213 0
M  V30 666 C 68.4405 -1.09992 -1.34825 0
M  V30 667 O 69.6165 -1.42114 -1.42708 0
M  V30 668 C 66.6815 -2.67063 -2.21084 0
M  V30 669 C 65.7425 -3.86284 -1.87304 0
M  V30 670 C 64.9755 -4.36378 -3.07261 0
M  V30 671 O 65.1985 -3.85587 -4.20332 0
M  V30 672 O 64.1325 -5.28077 -2.88822 0
M  V30 673 H 67.9585 -2.99601 -0.497287 0
M  V30 674 H 65.5435 -1.48317 -0.179567 0
M  V30 675 H 67.4255 -3.00914 -2.95006 0
M  V30 676 H 66.1005 -1.84989 -2.65633 0
M  V30 677 H 65.0075 -3.57338 -1.10727 0
M  V30 678 H 66.3405 -4.6956 -1.47562 0
M  V30 679 N 67.9926 0.231505 -1.5589 0
M  V30 680 C 69.2386 0.954429 -1.79617 0
M  V30 681 C 69.5936 1.82367 -0.613199 0
M  V30 682 O 68.8866 1.87524 0.393094 0
M  V30 683 C 69.0806 1.83577 -3.0665 0
M  V30 684 C 68.9096 1.05334 -4.3719 0
M  V30 685 C 67.6796 0.75225 -4.99669 0
M  V30 686 C 69.8776 0.423444 -5.12554 0
M  V30 687 N 67.8596 -0.052627 -6.13877 0
M  V30 688 C 69.2306 -0.245287 -6.19515 0
M  V30 689 C 71.2856 0.335466 -4.96769 0
M  V30 690 C 69.9886 -0.993566 -7.12405 0
M  V30 691 C 72.0146 -0.399321 -5.9005 0
M  V30 692 C 71.3766 -1.05663 -6.9643 0
M  V30 693 H 67.4756 0.329846 -0.709031 0
M  V30 694 H 70.0596 0.226172 -1.93382 0
M  V30 695 H 68.2306 2.53592 -2.94186 0
M  V30 696 H 69.9626 2.49541 -3.18608 0
M  V30 697 H 66.7176 1.06783 -4.61405 0
M  V30 698 H 67.1416 -0.443609 -6.75545 0
M  V30 699 H 71.7836 0.829311 -4.14587 0
M  V30 700 H 69.5016 -1.49896 -7.94076 0
M  V30 701 H 73.0876 -0.468265 -5.79913 0
M  V30 702 H 71.9676 -1.61612 -7.67366 0
M  V30 703 N 69.4707 1.49531 0.497807 0
M  V30 704 C 70.7167 1.59415 1.25358 0
M  V30 705 C 71.0497 0.281422 1.9215 0
M  V30 706 O 70.3247 -0.715249 1.80871 0
M  V30 707 C 70.6077 2.75566 2.3181 0
M  V30 708 C 70.4607 4.16642 1.69498 0
M  V30 709 C 71.7797 2.87347 3.33346 0
M  V30 710 H 68.8987 0.580244 0.454408 0
M  V30 711 H 71.5407 1.81827 0.551262 0
M  V30 712 H 69.6907 2.56587 2.91711 0
M  V30 713 H 71.3627 4.47145 1.13399 0
M  V30 714 H 69.6057 4.22141 0.998978 0
M  V30 715 H 70.2767 4.93792 2.46725 0
M  V30 716 H 72.7527 3.04634 2.83438 0
M  V30 717 H 71.6287 3.70289 4.05188 0
M  V30 718 H 71.8897 1.96834 3.95865 0
M  V30 719 N 70.9488 -0.749086 1.3866 0
M  V30 720 C 72.1738 -1.54344 1.38538 0
M  V30 721 C 72.5988 -1.88088 -0.0216655 0
M  V30 722 O 71.9568 -1.50899 -1.00494 0
M  V30 723 C 72.0048 -2.8164 2.25192 0
M  V30 724 O 71.1088 -3.7698 1.67212 0
M  V30 725 H 70.4498 -0.466654 0.472367 0
M  V30 726 H 72.9798 -0.925355 1.82478 0
M  V30 727 H 72.9898 -3.30519 2.3921 0
M  V30 728 H 71.6648 -2.56411 3.27454 0
M  V30 729 H 70.2418 -3.35699 1.6236 0
M  V30 730 N 72.4269 -1.23603 -0.977757 0
M  V30 731 C 73.6749 -1.06759 -1.71601 0
M  V30 732 C 73.9959 0.395929 -1.90938 0
M  V30 733 O 73.2659 1.28356 -1.47992 0
M  V30 734 H 71.8459 -0.392062 -0.635843 0
M  V30 735 H 74.5079 -1.55362 -1.1768 0
M  V30 736 H 73.6039 -1.55763 -2.70452 0
M  V30 737 N 73.905 1.17692 -1.04816 0
M  V30 738 C 75.154 1.87192 -0.751132 0
M  V30 739 C 75.467 1.8169 0.724441 0
M  V30 740 O 76.673 2.46625 1.13527 0
M  V30 741 C 75.129 3.35857 -1.29338 0
M  V30 742 C 74.737 3.4987 -2.79812 0
M  V30 743 C 76.481 4.10709 -1.07322 0
M  V30 744 C 74.388 4.92536 -3.27356 0
M  V30 745 H 73.318 0.701162 -0.277288 0
M  V30 746 H 75.969 1.32932 -1.26496 0
M  V30 747 H 74.351 3.89631 -0.707376 0
M  V30 748 H 75.525 3.06332 -3.44235 0
M  V30 749 H 73.84 2.88433 -3.00325 0
M  V30 750 H 76.437 5.15952 -1.4035 0
M  V30 751 H 76.78 4.16299 -0.0108001 0
M  V30 752 H 77.313 3.6313 -1.62423 0
M  V30 753 H 74.052 4.92119 -4.33012 0
M  V30 754 H 73.572 5.3676 -2.67673 0
M  V30 755 H 75.251 5.61288 -3.21815 0
M  V30 756 N 75.3831 0.828654 1.34056 0
M  V30 757 C 76.6131 0.431993 2.02033 0
M  V30 758 C 77.0211 -0.96844 1.62536 0
M  V30 759 O 76.3641 -1.6391 0.829408 0
M  V30 760 C 76.4261 0.461224 3.56529 0
M  V30 761 C 76.0901 1.81599 4.1937 0
M  V30 762 C 77.0871 2.7777 4.39477 0
M  V30 763 C 74.7721 2.10604 4.56017 0
M  V30 764 C 76.7661 4.01115 4.95364 0
M  V30 765 C 74.4531 3.34207 5.11614 0
M  V30 766 C 75.4511 4.2928 5.31232 0
M  V30 767 O 75.1391 5.50699 5.8565 0
M  V30 768 H 74.8711 0.170943 0.654029 0
M  V30 769 H 77.4251 1.11988 1.72185 0
M  V30 770 H 75.6551 -0.283388 3.8566 0
M  V30 771 H 77.3441 0.0838149 4.05813 0
M  V30 772 H 78.1101 2.56659 4.11523 0
M  V30 773 H 73.9891 1.37402 4.40047 0
M  V30 774 H 77.5331 4.75333 5.10592 0
M  V30 775 H 73.4301 3.55179 5.38997 0
M  V30 776 H 74.1981 5.52298 6.04077 0
M  V30 777 N 76.8612 -1.46375 0.584142 0
M  V30 778 C 78.0862 -2.07268 0.0740405 0
M  V30 779 C 78.5112 -1.42979 -1.22223 0
M  V30 780 O 77.8692 -0.514092 -1.73859 0
M  V30 781 C 77.9172 -3.60518 -0.0767769 0
M  V30 782 O 77.0212 -3.96533 -1.13292 0
M  V30 783 H 76.3622 -0.660961 0.0634524 0
M  V30 784 H 78.8922 -1.87991 0.807492 0
M  V30 785 H 78.9022 -4.07021 -0.282489 0
M  V30 786 H 77.5772 -4.06702 0.86986 0
M  V30 787 H 76.1542 -3.61738 -0.905553 0
M  V30 788 N 78.3393 -0.321999 -1.54275 0
M  V30 789 C 79.5643 0.285791 -2.05422 0
M  V30 790 C 79.9893 1.45124 -1.19669 0
M  V30 791 O 79.3473 1.80132 -0.205441 0
M  V30 792 C 79.3953 0.69956 -3.53749 0
M  V30 793 O 78.4993 1.8021 -3.70942 0
M  V30 794 H 77.8403 0.0518962 -0.661969 0
M  V30 795 H 80.3703 -0.469954 -1.9913 0
M  V30 796 H 80.3803 0.982649 -3.9599 0
M  V30 797 H 79.0553 -0.152864 -4.15619 0
M  V30 798 H 77.6323 1.51794 -3.40607 0
M  V30 799 N 79.8174 1.5752 -0.0501392 0
M  V30 800 C 81.0654 1.9227 0.622642 0
M  V30 801 C 81.3864 0.929083 1.71444 0
M  V30 802 O 80.6564 -0.0262186 1.95882 0
M  V30 803 H 79.2364 0.709739 0.232981 0
M  V30 804 H 81.8984 1.94628 -0.102898 0
M  V30 805 H 80.9944 2.93479 1.06191 0
M  V30 806 N 81.2955 -0.223234 1.56011 0
M  V30 807 C 82.5435 -0.946003 1.78592 0
M  V30 808 C 82.8645 -1.84936 0.618349 0
M  V30 809 O 82.1345 -1.92473 -0.364833 0
M  V30 810 H 80.7145 -0.352298 0.658707 0
M  V30 811 H 83.3765 -0.235494 1.93472 0
M  V30 812 H 82.4725 -1.55381 2.70672 0
M  V30 813 N 82.7736 -1.49793 -0.48987 0
M  V30 814 C 84.0226 -1.59085 -1.23995 0
M  V30 815 C 84.3356 -0.287907 -1.9347 0
M  V30 816 O 85.5416 -0.259506 -2.70257 0
M  V30 817 C 83.9976 -2.80736 -2.252 0
M  V30 818 C 83.6056 -4.17833 -1.61614 0
M  V30 819 C 85.3496 -2.99364 -3.00967 0
M  V30 820 C 83.2566 -5.30693 -2.60996 0
M  V30 821 H 82.1866 -0.592372 -0.466488 0
M  V30 822 H 84.8376 -1.76197 -0.51252 0
M  V30 823 H 83.2196 -2.57142 -3.01154 0
M  V30 824 H 84.3936 -4.51608 -0.915774 0
M  V30 825 H 82.7086 -4.04656 -0.981977 0
M  V30 826 H 85.3056 -3.80851 -3.75308 0
M  V30 827 H 85.6486 -2.10356 -3.59244 0
M  V30 828 H 86.1816 -3.2305 -2.32128 0
M  V30 829 H 82.9206 -6.21796 -2.07485 0
M  V30 830 H 82.4406 -5.01359 -3.2924 0
M  V30 831 H 84.1196 -5.6049 -3.23202 0
M  V30 832 N 84.2517 0.741722 -1.39055 0
M  V30 833 C 85.4797 1.53098 -1.39171 0
M  V30 834 C 85.8947 1.88794 0.0155099 0
M  V30 835 O 85.2517 1.53626 0.985159 0
M  V30 836 C 85.3027 2.82274 -2.2584 0
M  V30 837 O 85.0237 2.48097 -3.61081 0
M  V30 838 C 86.5247 3.76343 -2.34266 0
M  V30 839 H 83.7447 0.473335 -0.4756 0
M  V30 840 H 86.2887 0.917045 -1.82785 0
M  V30 841 H 84.4437 3.40015 -1.85656 0
M  V30 842 H 84.8577 3.31029 -4.06842 0
M  V30 843 H 86.3317 4.63898 -2.9917 0
M  V30 844 H 86.8087 4.17619 -1.35982 0
M  V30 845 H 87.4147 3.24523 -2.74891 0
M  V30 846 N 85.7298 1.2412 0.971189 0
M  V30 847 C 86.9758 1.08041 1.71625 0
M  V30 848 C 87.3088 -0.380407 1.90438 0
M  V30 849 O 86.5838 -1.28127 1.46334 0
M  V30 850 C 86.8668 1.81682 3.10908 0
M  V30 851 C 86.7198 3.35493 2.99608 0
M  V30 852 C 88.0388 1.58671 4.10501 0
M  V30 853 H 85.1578 0.39388 0.622919 0
M  V30 854 H 87.7998 1.52743 1.13003 0
M  V30 855 H 85.9498 1.43684 3.60953 0
M  V30 856 H 87.6218 3.83068 2.57015 0
M  V30 857 H 85.8648 3.64052 2.35899 0
M  V30 858 H 86.5358 3.82217 3.98264 0
M  V30 859 H 89.0118 1.91719 3.69301 0
M  V30 860 H 87.8878 2.1266 5.06031 0
M  V30 861 H 88.1488 0.524161 4.38982 0
M  V30 862 N 87.2079 -1.17134 1.05439 0
M  V30 863 C 88.4379 -1.91094 0.785274 0
M  V30 864 C 88.8459 -1.77198 -0.663142 0
M  V30 865 O 88.1889 -1.10835 -1.46497 0
M  V30 866 C 88.2509 -3.42594 1.08949 0
M  V30 867 C 87.9149 -3.80274 2.53458 0
M  V30 868 C 88.9119 -3.82912 3.51673 0
M  V30 869 C 86.5969 -4.11162 2.88532 0
M  V30 870 C 88.5909 -4.15913 4.83006 0
M  V30 871 C 86.2779 -4.43831 4.20068 0
M  V30 872 C 87.2759 -4.46185 5.17115 0
M  V30 873 O 86.9639 -4.78083 6.46291 0
M  V30 874 H 86.6959 -0.613073 0.284811 0
M  V30 875 H 89.2499 -1.49461 1.40893 0
M  V30 876 H 87.4799 -3.84534 0.408741 0
M  V30 877 H 89.1689 -3.97817 0.805991 0
M  V30 878 H 89.9349 -3.5917 3.25917 0
M  V30 879 H 85.8139 -4.085 2.13656 0
M  V30 880 H 89.3579 -4.17665 5.5875 0
M  V30 881 H 85.2549 -4.67037 4.45586 0
M  V30 882 H 86.0229 -4.9593 6.51149 0
M  V30 883 N 88.686 -0.835752 -1.33615 0
M  V30 884 C 89.649 -0.272 -2.2758 0
M  V30 885 C 90.649 0.557487 -1.50827 0
M  V30 886 O 91.839 0.37173 -1.70188 0
M  V30 887 C 88.971 0.617173 -3.35267 0
M  V30 888 H 90.164 -1.10111 -2.78954 0
M  V30 889 H 87.717 -0.608594 -1.43965 0
M  V30 890 H 88.452 1.46884 -2.89129 0
M  V30 891 H 88.237 0.0237066 -3.92093 0
M  V30 892 H 89.727 1.005 -4.05326 0
M  V30 893 N 90.1641 1.46063 -0.591896 0
M  V30 894 C 91.4411 1.95595 -0.0137119 0
M  V30 895 C 91.8211 1.5345 1.4497 0
M  V30 896 O 91.1691 0.789543 2.14426 0
M  V30 897 C 91.3791 3.48453 -0.195373 0
M  V30 898 C 92.7271 4.24546 -0.0679765 0
M  V30 899 O 93.7511 3.55982 -0.124681 0
M  V30 900 O 92.6101 5.46467 0.0600579 0
M  V30 901 H 89.7041 0.825795 0.0446279 0
M  V30 902 H 92.2501 1.56303 -0.660859 0
M  V30 903 H 91.0221 3.72045 -1.21235 0
M  V30 904 H 90.6451 3.94597 0.487775 0
M  V30 905 N 91.6422 0.330177 1.54103 0
M  V30 906 C 92.8672 -0.274893 2.0557 0
M  V30 907 C 93.2922 -1.44487 1.20437 0
M  V30 908 O 92.6502 -1.80021 0.214991 0
M  V30 909 C 92.6982 -0.68079 3.54115 0
M  V30 910 O 91.8022 -1.7824 3.71893 0
M  V30 911 H 91.1432 -0.0483849 0.662235 0
M  V30 912 H 93.6732 0.480508 1.98878 0
M  V30 913 H 93.6832 -0.961635 3.96505 0
M  V30 914 H 92.3582 0.174903 4.15532 0
M  V30 915 H 90.9352 -1.49985 3.41407 0
M  V30 916 N 93.1203 -1.57491 0.0584922 0
M  V30 917 C 94.3663 -1.93264 -0.614558 0
M  V30 918 C 94.6993 -0.937717 -1.7006 0
M  V30 919 O 93.9743 0.0351652 -1.94468 0
M  V30 920 C 94.2573 -3.3938 -1.20386 0
M  V30 921 C 94.1103 -4.49625 -0.125375 0
M  V30 922 C 95.4293 -3.86039 -2.11334 0
M  V30 923 H 92.5483 -0.702791 -0.221933 0
M  V30 924 H 95.1903 -1.8961 0.12175 0
M  V30 925 H 93.3403 -3.42626 -1.83139 0
M  V30 926 H 95.0123 -4.58506 0.506971 0
M  V30 927 H 93.2553 -4.30354 0.545672 0
M  V30 928 H 93.9263 -5.48967 -0.577861 0
M  V30 929 H 96.4023 -3.84716 -1.58534 0
M  V30 930 H 95.2783 -4.88914 -2.49507 0
M  V30 931 H 95.5393 -3.23215 -3.01636 0
M  V30 932 N 94.5984 0.214957 -1.56127 0
M  V30 933 C 95.5454 1.26642 -1.92952 0
M  V30 934 C 96.5154 1.46244 -0.78753 0
M  V30 935 O 97.7004 1.59704 -1.04399 0
M  V30 936 C 94.8404 2.6104 -2.25726 0
M  V30 937 C 93.9534 2.49183 -3.52891 0
M  V30 938 C 93.0884 3.76149 -3.7508 0
M  V30 939 C 92.1274 3.59041 -4.95738 0
M  V30 940 N 91.2644 4.77972 -5.14283 0
M  V30 941 H 96.1044 0.945384 -2.82607 0
M  V30 942 H 93.6414 0.455489 -1.3987 0
M  V30 943 H 95.5994 3.39313 -2.42739 0
M  V30 944 H 94.2294 2.91227 -1.39236 0
M  V30 945 H 93.2814 1.6231 -3.44034 0
M  V30 946 H 94.5934 2.32466 -4.41318 0
M  V30 947 H 93.7474 4.62865 -3.92226 0
M  V30 948 H 92.4864 3.95799 -2.84947 0
M  V30 949 H 91.4914 2.7071 -4.78535 0
M  V30 950 H 92.7164 3.40856 -5.87362 0
M  V30 951 H 90.6624 4.97923 -4.27093 0
M  V30 952 H 90.5794 4.64006 -5.96853 0
M  V30 953 H 91.8474 5.66096 -5.35869 0
M  V30 954 N 96.0765 1.50051 0.48192 0
M  V30 955 C 97.3245 1.60181 1.23234 0
M  V30 956 C 97.6455 0.299176 1.92691 0
M  V30 957 O 96.9155 -0.682708 1.83619 0
M  V30 958 H 95.4955 0.590232 0.457859 0
M  V30 959 H 98.1575 1.86775 0.556881 0
M  V30 960 H 97.2535 2.40753 1.98607 0
M  V30 961 N 97.5546 -0.734337 1.39446 0
M  V30 962 C 98.9706 -1.03997 1.21065 0
M  V30 963 C 99.1706 -2.01369 0.0727019 0
M  V30 964 O 98.2266 -2.45856 -0.575426 0
M  V30 965 C 99.5396 -1.60163 2.54496 0
M  V30 966 C 101.088 -1.7224 2.61347 0
M  V30 967 C 101.563 -2.31814 3.95002 0
M  V30 968 N 103.054 -2.39223 3.96644 0
M  V30 969 C 103.789 -2.86258 4.96834 0
M  V30 970 N 103.285 -3.33184 6.07421 0
M  V30 971 N 105.078 -2.85473 4.84213 0
M  V30 972 H 97.2286 -0.0885624 2.12215 0
M  V30 973 H 99.4916 -0.10191 0.942506 0
M  V30 974 H 99.1976 -0.960811 3.38321 0
M  V30 975 H 99.0716 -2.5896 2.74262 0
M  V30 976 H 101.459 -2.35443 1.77906 0
M  V30 977 H 101.54 -0.720939 2.4543 0
M  V30 978 H 101.184 -1.69238 4.78875 0
M  V30 979 H 101.114 -3.32638 4.08239 0
M  V30 980 H 103.605 -2.06057 3.16779 0
M  V30 981 H 103.918 -3.67586 6.7978 0
M  V30 982 H 102.263 -3.31191 6.11013 0
M  V30 983 H 105.454 -2.48136 3.96921 0
M  V30 984 H 105.627 -3.21814 5.62441 0
M  V30 985 N 99.0327 -1.24633 -0.964593 0
M  V30 986 C 100.28 -1.08788 -1.70796 0
M  V30 987 C 100.608 0.372783 -1.90894 0
M  V30 988 O 99.8627 1.29167 -1.47018 0
M  V30 989 C 100.162 -1.7763 -3.10133 0
M  V30 990 C 99.8277 -3.27557 -3.09866 0
M  V30 991 C 98.4897 -3.6846 -3.09501 0
M  V30 992 C 100.842 -4.23389 -3.03959 0
M  V30 993 C 98.1697 -5.03624 -3.00965 0
M  V30 994 C 100.522 -5.58565 -2.96965 0
M  V30 995 C 99.1857 -5.98809 -2.9493 0
M  V30 996 H 98.4557 -0.398084 -0.624988 0
M  V30 997 H 101.103 -1.54777 -1.12767 0
M  V30 998 H 99.4077 -1.24044 -3.71645 0
M  V30 999 H 101.105 -1.62832 -3.66451 0
M  V30 1000 H 97.6947 -2.95006 -3.10917 0
M  V30 1001 H 101.879 -3.92787 -3.03368 0
M  V30 1002 H 97.1347 -5.33998 -2.97752 0
M  V30 1003 H 101.309 -6.32523 -2.91354 0
M  V30 1004 H 98.9357 -7.03505 -2.88071 0
M  V30 1005 N 100.511 1.16574 -1.06058 0
M  V30 1006 C 101.739 1.90952 -0.796552 0
M  V30 1007 C 102.154 1.77302 0.648808 0
M  V30 1008 O 101.511 1.11605 1.44397 0
M  V30 1009 C 101.562 3.41736 -1.17894 0
M  V30 1010 O 101.283 3.54975 -2.56758 0
M  V30 1011 C 102.784 4.33169 -0.942308 0
M  V30 1012 H 100.004 0.605594 -0.288959 0
M  V30 1013 H 102.548 1.47777 -1.41358 0
M  V30 1014 H 100.703 3.82623 -0.606491 0
M  V30 1015 H 101.117 4.4846 -2.72 0
M  V30 1016 H 102.591 5.37439 -1.25952 0
M  V30 1017 H 103.068 4.3903 0.122078 0
M  V30 1018 H 103.674 3.98007 -1.49902 0
M  V30 1019 N 101.989 0.842826 1.3317 0
M  V30 1020 C 103.238 0.436738 1.96915 0
M  V30 1021 C 103.551 -1.01025 1.67491 0
M  V30 1022 O 104.757 -1.5212 2.24881 0
M  V30 1023 C 103.213 0.730021 3.52418 0
M  V30 1024 C 102.821 2.19195 3.90714 0
M  V30 1025 C 104.565 0.391076 4.22695 0
M  V30 1026 C 102.472 2.42907 5.39212 0
M  V30 1027 H 101.402 0.15958 0.736919 0
M  V30 1028 H 104.053 1.03196 1.51733 0
M  V30 1029 H 102.435 0.0643755 3.95948 0
M  V30 1030 H 103.609 2.8984 3.58231 0
M  V30 1031 H 101.924 2.49425 3.33431 0
M  V30 1032 H 104.521 0.545817 5.31907 0
M  V30 1033 H 104.864 -0.666294 4.10933 0
M  V30 1034 H 105.397 1.01212 3.84709 0
M  V30 1035 H 102.136 3.47224 5.55982 0
M  V30 1036 H 101.656 1.76827 5.73142 0
M  V30 1037 H 103.335 2.2626 6.06148 0
M  V30 1038 N 103.467 -1.45747 0.599634 0
M  V30 1039 C 104.692 -2.07178 0.0960198 0
M  V30 1040 C 105.117 -1.44268 -1.207 0
M  V30 1041 O 104.475 -0.532503 -1.73303 0
M  V30 1042 C 104.523 -3.60579 -0.0385348 0
M  V30 1043 O 103.627 -3.97713 -1.0908 0
M  V30 1044 H 102.968 -0.660251 0.0704593 0
M  V30 1045 H 105.498 -1.87124 0.827385 0
M  V30 1046 H 105.508 -4.07298 -0.239304 0
M  V30 1047 H 104.183 -4.05756 0.912947 0
M  V30 1048 H 102.76 -3.62678 -0.867135 0
M  V30 1049 N 104.945 -0.338344 -1.53925 0
M  V30 1050 C 106.361 0.0137736 -1.59594 0
M  V30 1051 C 106.561 1.49186 -1.35447 0
M  V30 1052 O 105.617 2.24987 -1.14616 0
M  V30 1053 C 106.93 -0.41773 -2.97784 0
M  V30 1054 C 108.478 -0.369633 -3.1081 0
M  V30 1055 C 108.953 -0.776524 -4.51369 0
M  V30 1056 N 110.444 -0.730506 -4.57403 0
M  V30 1057 C 111.179 -1.01736 -5.64303 0
M  V30 1058 N 110.675 -1.3721 -6.79077 0
M  V30 1059 N 112.468 -0.941942 -5.54151 0
M  V30 1060 H 104.619 -1.3012 -1.67876 0
M  V30 1061 H 106.882 -0.530082 -0.78595 0
M  V30 1062 H 106.588 -1.44811 -3.20504 0
M  V30 1063 H 106.462 0.209729 -3.76616 0
M  V30 1064 H 108.849 0.651568 -2.87817 0
M  V30 1065 H 108.93 -1.03223 -2.34049 0
M  V30 1066 H 108.574 -1.79571 -4.75096 0
M  V30 1067 H 108.504 -0.0914649 -5.26521 0
M  V30 1068 H 110.995 -0.468783 -3.74981 0
M  V30 1069 H 111.308 -1.57597 -7.5656 0
M  V30 1070 H 109.653 -1.4105 -6.80536 0
M  V30 1071 H 112.844 -0.664184 -4.63364 0
M  V30 1072 H 113.017 -1.16884 -6.37371 0
M  V30 1073 N 106.423 1.57458 -0.0668435 0
M  V30 1074 C 107.7 1.8469 0.644132 0
M  V30 1075 C 108.08 0.958343 1.88093 0
M  V30 1076 O 107.428 0.0233579 2.28488 0
M  V30 1077 C 107.638 3.34767 0.986509 0
M  V30 1078 C 108.986 4.02159 1.36212 0
M  V30 1079 O 110.01 3.39484 1.07839 0
M  V30 1080 O 108.869 5.12694 1.89227 0
M  V30 1081 H 105.963 0.762816 0.319437 0
M  V30 1082 H 108.509 1.6942 -0.0973986 0
M  V30 1083 H 107.281 3.91151 0.107883 0
M  V30 1084 H 106.904 3.55281 1.78497 0
M  V30 1085 N 107.901 -0.206675 1.56239 0
M  V30 1086 C 108.849 -1.27571 1.94495 0
M  V30 1087 C 109.843 -1.47737 0.828862 0
M  V30 1088 O 111.049 -1.48735 1.0138 0
M  V30 1089 H 107.424 -0.428029 0.6183 0
M  V30 1090 H 109.395 -0.925961 2.8367 0
M  V30 1091 C 108.144 -2.61568 2.29079 0
M  V30 1092 H 107.467 -2.46863 3.14482 0
M  V30 1093 H 108.907 -3.35144 2.5972 0
M  V30 1094 C 107.366 -3.17695 1.12123 0
M  V30 1095 O 107.896 -3.99801 0.390153 0
M  V30 1096 N 106.102 -2.76276 0.901097 0
M  V30 1097 H 105.649 -2.09613 1.49733 0
M  V30 1098 H 105.607 -3.1417 0.120319 0
M  V30 1099 N 109.379 -1.50304 -0.473955 0
M  V30 1100 C 110.604 -1.65175 -1.25427 0
M  V30 1101 C 111.029 -0.333673 -1.85117 0
M  V30 1102 O 110.387 0.702114 -1.67153 0
M  V30 1103 C 110.435 -2.74295 -2.34082 0
M  V30 1104 O 109.539 -2.35349 -3.38651 0
M  V30 1105 H 108.88 -0.551944 -0.369126 0
M  V30 1106 H 111.41 -1.96662 -0.564364 0
M  V30 1107 H 111.42 -2.97285 -2.79438 0
M  V30 1108 H 110.095 -3.69959 -1.90008 0
M  V30 1109 H 108.672 -2.22794 -2.99027 0
M  V30 1110 N 110.857 0.726932 -1.39834 0
M  V30 1111 C 111.804 1.841 -1.39197 0
M  V30 1112 C 112.774 1.642 -0.250502 0
M  V30 1113 O 113.959 1.85494 -0.446846 0
M  V30 1114 C 111.099 3.21697 -1.24919 0
M  V30 1115 C 110.212 3.53247 -2.48678 0
M  V30 1116 C 109.347 4.80289 -2.26928 0
M  V30 1117 C 108.386 5.04707 -3.4632 0
M  V30 1118 N 107.523 6.22956 -3.23836 0
M  V30 1119 H 112.363 1.83979 -2.34427 0
M  V30 1120 H 109.9 0.898876 -1.16442 0
M  V30 1121 H 111.858 4.01137 -1.1465 0
M  V30 1122 H 110.488 3.21076 -0.333153 0
M  V30 1123 H 109.54 2.68447 -2.69519 0
M  V30 1124 H 110.852 3.67205 -3.37582 0
M  V30 1125 H 110.006 5.67725 -2.13947 0
M  V30 1126 H 108.745 4.68519 -1.35431 0
M  V30 1127 H 107.75 4.1573 -3.5979 0
M  V30 1128 H 108.975 5.18357 -4.38729 0
M  V30 1129 H 106.921 6.12459 -2.35011 0
M  V30 1130 H 106.838 6.37539 -4.063 0
M  V30 1131 H 108.106 7.1321 -3.14566 0
M  V30 1132 N 112.336 1.25143 0.95797 0
M  V30 1133 C 113.284 1.05019 2.07542 0
M  V30 1134 C 114.278 -0.0178751 1.69391 0
M  V30 1135 O 115.484 0.137472 1.79474 0
M  V30 1136 H 111.859 0.32265 0.679265 0
M  V30 1137 H 113.83 1.99759 2.21673 0
M  V30 1138 C 112.579 0.682074 3.40944 0
M  V30 1139 H 111.902 1.49573 3.70767 0
M  V30 1140 H 113.342 0.580945 4.20001 0
M  V30 1141 C 111.801 -0.611608 3.31302 0
M  V30 1142 O 112.331 -1.65465 3.66038 0
M  V30 1143 N 110.537 -0.595982 2.84423 0
M  V30 1144 H 110.084 0.253192 2.56353 0
M  V30 1145 H 110.042 -1.46173 2.78354 0
M  V30 1146 N 113.814 -1.1601 1.06675 0
M  V30 1147 C 115.042 -1.90527 0.806667 0
M  V30 1148 C 115.457 -1.77643 -0.639396 0
M  V30 1149 O 114.814 -1.12369 -1.43803 0
M  V30 1150 C 114.865 -3.41106 1.19705 0
M  V30 1151 O 114.586 -3.53608 2.58636 0
M  V30 1152 C 116.087 -4.32663 0.965266 0
M  V30 1153 H 113.307 -0.604053 0.292166 0
M  V30 1154 H 115.851 -1.47026 1.4214 0
M  V30 1155 H 114.006 -3.82296 0.626774 0
M  V30 1156 H 114.42 -4.47011 2.74375 0
M  V30 1157 H 115.894 -5.36763 1.288 0
M  V30 1158 H 116.371 -4.39089 -0.0987936 0
M  V30 1159 H 116.977 -3.97206 1.52011 0
M  V30 1160 N 115.292 -0.849877 -1.32721 0
M  V30 1161 C 116.222 -0.306308 -2.31482 0
M  V30 1162 C 117.203 0.591952 -1.59468 0
M  V30 1163 O 118.388 0.513199 -1.87296 0
M  V30 1164 C 115.518 0.510204 -3.43532 0
M  V30 1165 C 114.472 -0.293209 -4.26994 0
M  V30 1166 C 113.798 0.647743 -5.30762 0
M  V30 1167 C 115.098 -1.51634 -4.99804 0
M  V30 1168 H 116.792 -1.13153 -2.77195 0
M  V30 1169 H 114.338 -0.545553 -1.33266 0
M  V30 1170 H 116.291 0.900856 -4.11658 0
M  V30 1171 H 115.015 1.36874 -2.96535 0
M  V30 1172 H 113.674 -0.665555 -3.60508 0
M  V30 1173 H 113.322 1.50299 -4.8002 0
M  V30 1174 H 113.022 0.11422 -5.87489 0
M  V30 1175 H 114.546 1.03567 -6.01753 0
M  V30 1176 H 115.96 -1.19824 -5.60638 0
M  V30 1177 H 114.357 -1.98745 -5.66234 0
M  V30 1178 H 115.427 -2.28018 -4.27943 0
M  V30 1179 N 116.77 1.45427 -0.607355 0
M  V30 1180 C 118 2.06314 -0.108656 0
M  V30 1181 C 118.408 1.45269 1.21217 0
M  V30 1182 O 117.751 0.561115 1.74921 0
M  V30 1183 C 117.813 3.59345 0.105618 0
M  V30 1184 C 117.477 4.42723 -1.13337 0
M  V30 1185 C 118.474 4.77715 -2.05145 0
M  V30 1186 C 116.159 4.83478 -1.36213 0
M  V30 1187 C 118.153 5.52317 -3.18158 0
M  V30 1188 C 115.84 5.57835 -2.49527 0
M  V30 1189 C 116.838 5.92171 -3.40327 0
M  V30 1190 O 116.526 6.65019 -4.51669 0
M  V30 1191 H 116.258 0.672782 -0.0658842 0
M  V30 1192 H 118.812 1.87664 -0.834945 0
M  V30 1193 H 117.042 3.76394 0.886796 0
M  V30 1194 H 118.731 4.02076 0.555886 0
M  V30 1195 H 119.497 4.46787 -1.88697 0
M  V30 1196 H 115.376 4.56188 -0.664362 0
M  V30 1197 H 118.92 5.79036 -3.89054 0
M  V30 1198 H 114.817 5.88177 -2.65928 0
M  V30 1199 H 115.585 6.83469 -4.50348 0
M  V30 1200 N 118.248 0.346503 1.53744 0
M  V30 1201 C 119.178 -0.501193 2.28058 0
M  V30 1202 C 120.159 -1.10014 1.29734 0
M  V30 1203 O 121.344 -1.12097 1.58581 0
M  V30 1204 C 118.474 -1.65078 3.05559 0
M  V30 1205 C 117.428 -1.18003 4.11411 0
M  V30 1206 C 116.754 -2.41837 4.76884 0
M  V30 1207 C 118.054 -0.278394 5.21558 0
M  V30 1208 H 119.748 0.11875 2.99164 0
M  V30 1209 H 117.294 0.0585531 1.43881 0
M  V30 1210 H 119.247 -2.25028 3.56287 0
M  V30 1211 H 117.971 -2.29767 2.32109 0
M  V30 1212 H 116.63 -0.603331 3.61601 0
M  V30 1213 H 116.278 -3.0494 4.00026 0
M  V30 1214 H 115.978 -2.1102 5.48402 0
M  V30 1215 H 117.502 -3.02508 5.30397 0
M  V30 1216 H 118.916 -0.784823 5.67903 0
M  V30 1217 H 117.313 -0.0619707 6.00068 0
M  V30 1218 H 118.383 0.684677 4.80042 0
M  V30 1219 N 119.726 -1.57421 0.075193 0
M  V30 1220 C 120.658 -2.09904 -0.920483 0
M  V30 1221 C 121.671 -1.03191 -1.25918 0
M  V30 1222 O 122.86 -1.30695 -1.21577 0
M  V30 1223 C 119.96 -2.54726 -2.23534 0
M  V30 1224 C 119.133 -3.8505 -2.07498 0
M  V30 1225 C 118.192 -4.15929 -3.22319 0
M  V30 1226 O 117.218 -4.85474 -2.9716 0
M  V30 1227 N 118.42 -3.69745 -4.47514 0
M  V30 1228 H 121.185 -2.95954 -0.472359 0
M  V30 1229 H 118.746 -1.61523 -0.110444 0
M  V30 1230 H 120.738 -2.72443 -2.9926 0
M  V30 1231 H 119.308 -1.73795 -2.59835 0
M  V30 1232 H 118.528 -3.76679 -1.16219 0
M  V30 1233 H 119.816 -4.70348 -1.94038 0
M  V30 1234 H 119.214 -3.13569 -4.7084 0
M  V30 1235 H 117.771 -3.92655 -5.20255 0
M  V30 1236 N 121.204 0.198386 -1.56346 0
M  V30 1237 C 122.137 1.27381 -1.89339 0
M  V30 1238 C 123.115 1.44106 -0.753134 0
M  V30 1239 O 124.299 1.59549 -1.00381 0
M  V30 1240 C 121.426 2.6409 -2.12071 0
M  V30 1241 C 120.472 2.64253 -3.34772 0
M  V30 1242 S 121.305 2.16013 -4.89999 0
M  V30 1243 C 122.461 3.54553 -5.15794 0
M  V30 1244 H 122.694 0.992058 -2.8026 0
M  V30 1245 H 120.227 0.401726 -1.49082 0
M  V30 1246 H 122.185 3.42786 -2.2585 0
M  V30 1247 H 120.846 2.89478 -1.21906 0
M  V30 1248 H 120.039 3.64768 -3.47794 0
M  V30 1249 H 119.641 1.93637 -3.1997 0
M  V30 1250 H 121.933 4.50396 -5.06112 0
M  V30 1251 H 122.876 3.46428 -6.1757 0
M  V30 1252 H 123.284 3.49313 -4.43442 0
M  V30 1253 N 122.682 1.50554 0.465978 0
M  V30 1254 C 123.63 1.70324 1.58406 0
M  V30 1255 C 124.624 0.569139 1.59553 0
M  V30 1256 O 125.83 0.749776 1.63641 0
M  V30 1257 H 122.205 0.537688 0.525734 0
M  V30 1258 H 124.176 2.64104 1.38894 0
M  V30 1259 C 122.925 1.81928 2.96307 0
M  V30 1260 H 122.248 2.68586 2.96144 0
M  V30 1261 H 123.688 1.99784 3.73982 0
M  V30 1262 C 122.147 0.572095 3.32007 0
M  V30 1263 O 122.677 -0.286416 4.00678 0
M  V30 1264 N 120.883 0.424606 2.87481 0
M  V30 1265 H 120.43 1.12427 2.31771 0
M  V30 1266 H 120.388 -0.408697 3.11732 0
M  V30 1267 N 124.16 -0.719506 1.40217 0
M  V30 1268 C 125.385 -1.51371 1.4178 0
M  V30 1269 C 125.81 -1.88091 0.0182355 0
M  V30 1270 O 125.168 -1.52997 -0.972707 0
M  V30 1271 C 125.216 -2.768 2.31115 0
M  V30 1272 O 124.32 -3.73349 1.7517 0
M  V30 1273 H 123.661 -0.456529 0.482159 0
M  V30 1274 H 126.191 -0.88644 1.844 0
M  V30 1275 H 126.201 -3.25371 2.46167 0
M  V30 1276 H 124.876 -2.49407 3.3282 0
M  V30 1277 H 123.453 -3.32179 1.69444 0
M  V30 1278 N 125.638 -1.25649 -0.95132 0
M  V30 1279 C 126.568 -1.08808 -2.06599 0
M  V30 1280 C 127.549 0.00382547 -1.701 0
M  V30 1281 O 128.734 -0.166325 -1.93486 0
M  V30 1282 C 125.864 -0.709542 -3.39975 0
M  V30 1283 C 124.818 -1.75206 -3.90496 0
M  V30 1284 C 124.144 -1.22811 -5.20405 0
M  V30 1285 C 125.444 -3.15153 -4.16504 0
M  V30 1286 H 127.138 -2.02048 -2.20946 0
M  V30 1287 H 124.684 -0.972835 -1.06169 0
M  V30 1288 H 126.637 -0.578649 -4.17408 0
M  V30 1289 H 125.361 0.258556 -3.25575 0
M  V30 1290 H 124.02 -1.87145 -3.15234 0
M  V30 1291 H 123.668 -0.250145 -5.02378 0
M  V30 1292 H 123.368 -1.92492 -5.55176 0
M  V30 1293 H 124.892 -1.10968 -6.00432 0
M  V30 1294 H 126.306 -3.06349 -4.84586 0
M  V30 1295 H 124.703 -3.82333 -4.62538 0
M  V30 1296 H 125.773 -3.61966 -3.22658 0
M  V30 1297 N 127.117 1.15442 -1.07289 0
M  V30 1298 C 128.533 1.38201 -0.798288 0
M  V30 1299 C 128.733 1.92429 0.597769 0
M  V30 1300 O 127.789 2.12962 1.3566 0
M  V30 1301 C 129.102 2.35357 -1.87156 0
M  V30 1302 C 130.65 2.49021 -1.89624 0
M  V30 1303 C 131.125 3.49468 -2.96034 0
M  V30 1304 N 132.616 3.57003 -2.95132 0
M  V30 1305 C 133.351 4.34543 -3.74112 0
M  V30 1306 N 132.847 5.15421 -4.6294 0
M  V30 1307 N 134.64 4.29625 -3.62462 0
M  V30 1308 H 126.791 0.78584 -1.97328 0
M  V30 1309 H 129.054 0.408065 -0.855679 0
M  V30 1310 H 128.76 2.02626 -2.87464 0
M  V30 1311 H 128.634 3.35129 -1.73114 0
M  V30 1312 H 131.021 2.81051 -0.899687 0
M  V30 1313 H 131.102 1.4925 -2.07745 0
M  V30 1314 H 130.746 3.18173 -3.95889 0
M  V30 1315 H 130.676 4.48992 -2.75161 0
M  V30 1316 H 133.167 2.99276 -2.30743 0
M  V30 1317 H 133.48 5.7183 -5.19837 0
M  V30 1318 H 131.825 5.14729 -4.66989 0
M  V30 1319 H 135.016 3.65505 -2.92444 0
M  V30 1320 H 135.189 4.89807 -4.24256 0
M  V30 1321 N 128.595 0.856903 1.32268 0
M  V30 1322 C 129.558 0.308171 2.27119 0
M  V30 1323 C 130.558 -0.533421 1.51695 0
M  V30 1324 O 131.748 -0.344607 1.70757 0
M  V30 1325 C 128.88 -0.563757 3.36206 0
M  V30 1326 H 130.073 1.14535 2.77167 0
M  V30 1327 H 127.626 0.631421 1.42978 0
M  V30 1328 H 128.361 -1.42266 2.91429 0
M  V30 1329 H 128.146 0.0386749 3.92081 0
M  V30 1330 H 129.636 -0.940386 4.06874 0
M  V30 1331 N 130.073 -1.45103 0.615059 0
M  V30 1332 C 130.983 -2.34382 -0.101034 0
M  V30 1333 C 131.999 -1.51681 -0.852585 0
M  V30 1334 O 133.175 -1.8446 -0.808484 0
M  V30 1335 C 130.24 -3.29417 -1.08099 0
M  V30 1336 C 129.301 -4.28025 -0.330577 0
M  V30 1337 C 128.534 -5.1852 -1.26385 0
M  V30 1338 O 128.757 -5.12598 -2.50198 0
M  V30 1339 O 127.691 -5.97122 -0.756866 0
M  V30 1340 H 131.517 -2.97033 0.632855 0
M  V30 1341 H 129.102 -1.4461 0.375293 0
M  V30 1342 H 130.984 -3.87958 -1.6452 0
M  V30 1343 H 129.659 -2.69321 -1.79577 0
M  V30 1344 H 128.566 -3.73078 0.276283 0
M  V30 1345 H 129.899 -4.90997 0.343866 0
M  V30 1346 N 131.551 -0.354651 -1.53558 0
M  V30 1347 C 132.828 0.294281 -1.93374 0
M  V30 1348 C 133.208 1.67313 -1.28723 0
M  V30 1349 O 132.556 2.24179 -0.442247 0
M  V30 1350 C 132.766 0.355445 -3.47185 0
M  V30 1351 C 134.114 0.601007 -4.20325 0
M  V30 1352 O 135.138 0.437106 -3.53508 0
M  V30 1353 O 133.997 0.919322 -5.38712 0
M  V30 1354 H 131.091 0.174033 -0.808481 0
M  V30 1355 H 133.637 -0.406638 -1.64756 0
M  V30 1356 H 132.409 -0.611729 -3.86489 0
M  V30 1357 H 132.032 1.1027 -3.82003 0
M  V30 1358 N 133.029 1.57378 -0.0835403 0
M  V30 1359 C 134.257 1.98263 0.59157 0
M  V30 1360 C 134.672 0.962302 1.62435 0
M  V30 1361 O 134.029 -0.049581 1.82433 0
M  V30 1362 C 134.08 3.39214 1.24965 0
M  V30 1363 O 133.801 4.37339 0.258186 0
M  V30 1364 C 135.302 3.95038 2.01147 0
M  V30 1365 H 132.522 0.651773 0.159477 0
M  V30 1366 H 135.066 2.03878 -0.159415 0
M  V30 1367 H 133.221 3.34649 1.95164 0
M  V30 1368 H 133.635 5.19371 0.731734 0
M  V30 1369 H 135.109 4.95848 2.42567 0
M  V30 1370 H 135.586 3.32222 2.87272 0
M  V30 1371 H 136.192 4.0304 1.35789 0
M  V30 1372 N 134.507 -0.190092 1.56449 0
M  V30 1373 C 135.47 -1.21925 1.9408 0
M  V30 1374 C 136.47 -1.38176 0.822431 0
M  V30 1375 O 137.66 -1.35903 1.08977 0
M  V30 1376 C 134.792 -2.58773 2.21922 0
M  V30 1377 H 135.985 -0.897464 2.86157 0
M  V30 1378 H 133.538 -0.43181 1.50217 0
M  V30 1379 H 134.273 -2.95998 1.32499 0
M  V30 1380 H 134.058 -2.48348 3.03424 0
M  V30 1381 H 135.548 -3.32978 2.52022 0
M  V30 1382 N 135.985 -1.50799 -0.457987 0
M  V30 1383 C 137.231 -1.62683 -1.21088 0
M  V30 1384 C 137.564 -0.332268 -1.91336 0
M  V30 1385 O 136.839 0.667043 -1.82704 0
M  V30 1386 C 137.122 -2.81615 -2.24422 0
M  V30 1387 C 136.975 -4.20989 -1.58392 0
M  V30 1388 C 138.294 -2.96085 -3.2561 0
M  V30 1389 H 135.413 -0.592087 -0.438864 0
M  V30 1390 H 138.055 -1.83225 -0.50286 0
M  V30 1391 H 136.205 -2.64231 -2.84806 0
M  V30 1392 H 137.877 -4.49994 -1.01504 0
M  V30 1393 H 136.12 -4.24641 -0.886704 0
M  V30 1394 H 136.791 -5.0016 -2.33547 0
M  V30 1395 H 139.267 -3.12042 -2.75262 0
M  V30 1396 H 138.143 -3.80902 -3.95228 0
M  V30 1397 H 138.404 -2.0726 -3.90507 0
M  V30 1398 N 137.463 0.71206 -1.40597 0
M  V30 1399 C 138.693 1.49894 -1.42181 0
M  V30 1400 C 139.101 1.89189 -0.0208078 0
M  V30 1401 O 138.444 1.56223 0.966436 0
M  V30 1402 C 138.506 2.80215 -2.25211 0
M  V30 1403 C 138.17 2.63221 -3.73582 0
M  V30 1404 C 139.167 2.30249 -4.66135 0
M  V30 1405 C 136.852 2.79376 -4.17438 0
M  V30 1406 C 138.846 2.13645 -6.00529 0
M  V30 1407 C 136.533 2.6239 -5.51901 0
M  V30 1408 C 137.531 2.29573 -6.43262 0
M  V30 1409 O 137.219 2.12719 -7.75246 0
M  V30 1410 H 136.951 0.469031 -0.486812 0
M  V30 1411 H 139.505 0.88564 -1.85326 0
M  V30 1412 H 137.735 3.4389 -1.76852 0
M  V30 1413 H 139.424 3.41947 -2.18694 0
M  V30 1414 H 140.19 2.17398 -4.33547 0
M  V30 1415 H 136.069 3.03906 -3.46644 0
M  V30 1416 H 139.613 1.87953 -6.71803 0
M  V30 1417 H 135.51 2.74826 -5.84073 0
M  V30 1418 H 136.278 2.27611 -7.86216 0
M  V30 1419 N 138.941 1.26152 0.944643 0
M  V30 1420 C 140.171 1.14094 1.72239 0
M  V30 1421 C 140.579 -0.306931 1.86694 0
M  V30 1422 O 139.922 -1.22222 1.3714 0
M  V30 1423 C 139.984 1.73316 3.14963 0
M  V30 1424 C 139.648 3.2239 3.23904 0
M  V30 1425 C 140.645 4.19252 3.07447 0
M  V30 1426 C 138.33 3.62788 3.47405 0
M  V30 1427 C 140.324 5.54491 3.14353 0
M  V30 1428 C 138.011 4.98162 3.53947 0
M  V30 1429 C 139.009 5.93823 3.37436 0
M  V30 1430 O 138.697 7.26732 3.43679 0
M  V30 1431 H 138.429 0.398292 0.546205 0
M  V30 1432 H 140.983 1.67201 1.19301 0
M  V30 1433 H 139.213 1.14667 3.69308 0
M  V30 1434 H 140.902 1.56214 3.74636 0
M  V30 1435 H 141.668 3.8938 2.8915 0
M  V30 1436 H 137.547 2.88816 3.59313 0
M  V30 1437 H 141.091 6.29137 3.01384 0
M  V30 1438 H 136.988 5.27695 3.71763 0
M  V30 1439 H 137.756 7.3496 3.60245 0
M  V30 1440 N 140.419 -1.14872 1.07899 0
M  V30 1441 C 141.659 -1.8745 0.814965 0
M  V30 1442 C 142.023 -1.80758 -0.64733 0
M  V30 1443 O 143.224 -2.48422 -1.02664 0
M  V30 1444 C 141.495 -3.32286 1.31607 0
M  V30 1445 S 143.054 -4.22537 1.18357 0
M  V30 1446 H 139.872 -0.646833 0.295174 0
M  V30 1447 H 142.474 -1.38555 1.37923 0
M  V30 1448 H 141.178 -3.34703 2.37491 0
M  V30 1449 H 140.709 -3.86238 0.747261 0
M  V30 1450 H 142.724 -4.96044 0.124586 0
M  V30 1451 N 141.898 -0.863906 -1.31812 0
M  V30 1452 C 142.861 -0.320212 -2.26952 0
M  V30 1453 C 143.861 0.525369 -1.51975 0
M  V30 1454 O 145.051 0.335547 -1.70938 0
M  V30 1455 C 142.183 0.545919 -3.365 0
M  V30 1456 H 143.376 -1.16004 -2.76556 0
M  V30 1457 H 140.929 -0.638995 -1.42641 0
M  V30 1458 H 141.664 1.40718 -2.92179 0
M  V30 1459 H 141.449 -0.0594674 -3.92055 0
M  V30 1460 H 142.939 0.918796 -4.07367 0
M  V30 1461 N 143.376 1.44774 -0.622745 0
M  V30 1462 C 144.606 2.06187 -0.130532 0
M  V30 1463 C 145.014 1.46547 1.19669 0
M  V30 1464 O 144.357 0.579636 1.74316 0
M  V30 1465 C 144.419 3.59437 0.0674983 0
M  V30 1466 C 144.083 4.41496 -1.18026 0
M  V30 1467 C 145.08 4.75512 -2.102 0
M  V30 1468 C 142.765 4.82007 -1.41333 0
M  V30 1469 C 144.759 5.48912 -3.23998 0
M  V30 1470 C 142.446 5.55157 -2.55429 0
M  V30 1471 C 143.444 5.88528 -3.46589 0
M  V30 1472 O 143.132 6.60191 -4.58697 0
M  V30 1473 H 142.864 0.672045 -0.0730162 0
M  V30 1474 H 145.418 1.86768 -0.854802 0
M  V30 1475 H 143.648 3.77314 0.846825 0
M  V30 1476 H 145.337 4.02642 0.513209 0
M  V30 1477 H 146.103 4.4476 -1.93425 0
M  V30 1478 H 141.982 4.55457 -0.712709 0
M  V30 1479 H 145.526 5.74877 -3.95174 0
M  V30 1480 H 141.423 5.85324 -2.72151 0
M  V30 1481 H 142.191 6.78654 -4.57571 0
M  V30 1482 N 144.854 0.36279 1.53368 0
M  V30 1483 C 146.27 0.0116182 1.59596 0
M  V30 1484 C 146.47 -1.47012 1.37803 0
M  V30 1485 O 145.526 -2.23136 1.18181 0
M  V30 1486 C 146.839 0.465052 2.97082 0
M  V30 1487 C 148.387 0.419033 3.10182 0
M  V30 1488 C 148.862 0.848235 4.50077 0
M  V30 1489 N 150.353 0.803183 4.56183 0
M  V30 1490 C 151.088 1.107 5.62613 0
M  V30 1491 N 150.584 1.47996 6.76808 0
M  V30 1492 N 152.377 1.02998 5.52583 0
M  V30 1493 H 144.528 1.32775 1.65785 0
M  V30 1494 H 146.791 0.542518 0.777417 0
M  V30 1495 H 146.497 1.49892 3.18159 0
M  V30 1496 H 146.371 -0.149786 3.76902 0
M  V30 1497 H 148.758 -0.605696 2.88817 0
M  V30 1498 H 148.839 1.06933 2.32377 0
M  V30 1499 H 148.483 1.87107 4.7218 0
M  V30 1500 H 148.413 0.175218 5.26308 0
M  V30 1501 H 150.904 0.52838 3.74188 0
M  V30 1502 H 151.217 1.69613 7.53957 0
M  V30 1503 H 149.562 1.51859 6.78206 0
M  V30 1504 H 152.753 0.737817 4.62249 0
M  V30 1505 H 152.926 1.2701 6.35431 0
M  V30 1506 N 146.332 -1.57332 0.0918853 0
M  V30 1507 C 147.748 -1.57389 -0.264766 0
M  V30 1508 C 147.948 -1.10281 -1.68643 0
M  V30 1509 O 147.004 -0.777801 -2.40222 0
M  V30 1510 C 148.317 -3.00648 -0.0561195 0
M  V30 1511 C 149.865 -3.12754 -0.124116 0
M  V30 1512 C 150.34 -4.57965 0.0564972 0
M  V30 1513 N 151.831 -4.632 0.00155611 0
M  V30 1514 C 152.566 -5.73281 0.116598 0
M  V30 1515 N 152.062 -6.92208 0.286294 0
M  V30 1516 N 153.855 -5.6207 0.0580973 0
M  V30 1517 H 146.006 -1.86262 1.02079 0
M  V30 1518 H 148.269 -0.859579 0.399786 0
M  V30 1519 H 147.975 -3.393 0.925669 0
M  V30 1520 H 147.849 -3.68623 -0.799823 0
M  V30 1521 H 150.236 -2.73976 -1.09641 0
M  V30 1522 H 150.317 -2.47377 0.651024 0
M  V30 1523 H 149.961 -4.97436 1.02564 0
M  V30 1524 H 149.891 -5.21399 -0.738297 0
M  V30 1525 H 152.382 -3.77686 -0.127192 0
M  V30 1526 H 152.695 -7.71934 0.365676 0
M  V30 1527 H 151.04 -6.94254 0.32192 0
M  V30 1528 H 154.231 -4.68043 -0.0733204 0
M  V30 1529 H 154.404 -6.47824 0.151203 0
M  V30 1530 N 147.81 0.181792 -1.56548 0
M  V30 1531 C 149.059 0.898348 -1.8059 0
M  V30 1532 C 149.372 1.83862 -0.667379 0
M  V30 1533 O 150.578 2.59678 -0.792446 0
M  V30 1534 C 149.034 1.64791 -3.19956 0
M  V30 1535 C 148.642 0.751789 -4.41647 0
M  V30 1536 C 150.386 2.35331 -3.53298 0
M  V30 1537 C 148.293 1.50098 -5.72035 0
M  V30 1538 H 147.223 0.339194 -0.673397 0
M  V30 1539 H 149.874 0.151413 -1.82874 0
M  V30 1540 H 148.256 2.43921 -3.11959 0
M  V30 1541 H 149.43 -0.0018076 -4.608 0
M  V30 1542 H 147.745 0.156562 -4.16106 0
M  V30 1543 H 150.342 2.91958 -4.47956 0
M  V30 1544 H 150.685 3.10164 -2.77676 0
M  V30 1545 H 151.218 1.63154 -3.62803 0
M  V30 1546 H 147.957 0.795175 -6.50659 0
M  V30 1547 H 147.477 2.22817 -5.56878 0
M  V30 1548 H 149.156 2.05125 -6.13622 0
M  V30 1549 N 149.288 1.51039 0.449983 0
M  V30 1550 C 150.536 1.62759 1.19808 0
M  V30 1551 C 150.857 0.339981 1.92013 0
M  V30 1552 O 150.127 -0.643606 1.85026 0
M  V30 1553 H 148.707 0.599811 0.445237 0
M  V30 1554 H 151.369 1.87914 0.517138 0
M  V30 1555 H 150.465 2.44911 1.93455 0
M  V30 1556 N 150.766 -0.704594 1.40972 0
M  V30 1557 C 152.012 -1.46675 1.40051 0
M  V30 1558 C 152.345 -1.94199 0.00641102 0
M  V30 1559 O 151.62 -1.68916 -0.964235 0
M  V30 1560 C 151.903 -2.68505 2.39952 0
M  V30 1561 C 151.756 -2.26805 3.88432 0
M  V30 1562 C 153.075 -3.70686 2.37233 0
M  V30 1563 H 150.194 -0.532015 0.510028 0
M  V30 1564 H 152.836 -0.803255 1.72185 0
M  V30 1565 H 150.986 -3.25114 2.1268 0
M  V30 1566 H 152.658 -1.75592 4.26574 0
M  V30 1567 H 150.901 -1.58685 4.03734 0
M  V30 1568 H 151.572 -3.14181 4.53866 0
M  V30 1569 H 154.048 -3.23731 2.61415 0
M  V30 1570 H 152.924 -4.53553 3.09162 0
M  V30 1571 H 153.185 -4.19754 1.38777 0
M  V30 1572 N 152.244 -1.26651 -0.937939 0
M  V30 1573 C 153.655 -1.1125 -1.49934 0
M  V30 1574 C 154.006 0.306077 -1.93798 0
M  V30 1575 O 153.131 1.19792 -1.80219 0
M  V30 1576 C 153.726 -2.01339 -2.72485 0
M  V30 1577 C 152.285 -1.90074 -3.24883 0
M  V30 1578 C 151.432 -1.94498 -1.97651 0
M  V30 1579 H 154.383 -1.39693 -0.753091 0
M  V30 1580 H 154.404 -1.56319 -3.46907 0
M  V30 1581 H 153.916 -3.04577 -2.40529 0
M  V30 1582 H 152.017 -0.897827 -3.61621 0
M  V30 1583 H 152.13 -2.75778 -3.9177 0
M  V30 1584 H 150.494 -1.38591 -2.13693 0
M  V30 1585 H 151.277 -2.99372 -1.68022 0
M  V30 1586 N 153.722 1.14298 -1.08507 0
M  V30 1587 C 155.138 1.37347 -0.812901 0
M  V30 1588 C 155.338 1.93052 0.577325 0
M  V30 1589 O 154.394 2.14389 1.33393 0
M  V30 1590 C 155.707 2.33359 -1.89642 0
M  V30 1591 C 157.255 2.46996 -1.92255 0
M  V30 1592 C 157.73 3.46309 -2.99724 0
M  V30 1593 N 159.221 3.53853 -2.98902 0
M  V30 1594 C 159.956 4.3055 -3.787 0
M  V30 1595 N 159.452 5.10482 -4.6838 0
M  V30 1596 N 161.245 4.25757 -3.66998 0
M  V30 1597 H 153.396 0.764867 -1.9815 0
M  V30 1598 H 155.659 0.398966 -0.859959 0
M  V30 1599 H 155.365 1.99565 -2.89597 0
M  V30 1600 H 155.239 3.33274 -1.76659 0
M  V30 1601 H 157.626 2.80081 -0.929445 0
M  V30 1602 H 157.707 1.47039 -2.09316 0
M  V30 1603 H 157.351 3.13957 -3.99241 0
M  V30 1604 H 157.281 4.46049 -2.79907 0
M  V30 1605 H 159.772 2.96812 -2.33904 0
M  V30 1606 H 160.085 5.66284 -5.25873 0
M  V30 1607 H 158.43 5.09747 -4.72422 0
M  V30 1608 H 161.621 3.62383 -2.96304 0
M  V30 1609 H 161.794 4.85279 -4.29427 0
M  V30 1610 N 155.201 0.870884 1.31352 0
M  V30 1611 C 156.617 0.562932 1.49343 0
M  V30 1612 C 156.817 -0.902725 1.80148 0
M  V30 1613 O 155.873 -1.68484 1.88067 0
M  V30 1614 C 157.186 1.46393 2.62659 0
M  V30 1615 C 158.734 1.46607 2.76542 0
M  V30 1616 C 159.209 2.35266 3.92955 0
M  V30 1617 N 160.7 2.33151 4.00243 0
M  V30 1618 C 161.435 2.98471 4.89594 0
M  V30 1619 N 160.931 3.72964 5.8384 0
M  V30 1620 N 162.724 2.87775 4.82848 0
M  V30 1621 H 154.875 1.81923 1.09626 0
M  V30 1622 H 157.138 0.777934 0.541777 0
M  V30 1623 H 156.844 2.50689 2.46674 0
M  V30 1624 H 156.718 1.16314 3.58819 0
M  V30 1625 H 159.105 0.43069 2.9194 0
M  V30 1626 H 159.186 1.8071 1.81046 0
M  V30 1627 H 158.83 3.38881 3.78315 0
M  V30 1628 H 158.76 1.98487 4.87761 0
M  V30 1629 H 161.251 1.79006 3.32814 0
M  V30 1630 H 161.564 4.19932 6.4875 0
M  V30 1631 H 159.909 3.77073 5.83816 0
M  V30 1632 H 163.1 2.29116 4.08195 0
M  V30 1633 H 163.273 3.38961 5.52277 0
M  V30 1634 N 156.679 -1.44442 0.630414 0
M  V30 1635 C 157.956 -1.9549 0.0655657 0
M  V30 1636 C 158.336 -1.5724 -1.40851 0
M  V30 1637 O 157.684 -0.846116 -2.12257 0
M  V30 1638 C 157.894 -3.47812 0.287691 0
M  V30 1639 C 159.242 -4.24216 0.180513 0
M  V30 1640 O 160.266 -3.55526 0.219019 0
M  V30 1641 O 159.125 -5.46434 0.0848493 0
M  V30 1642 H 156.219 -0.826688 -0.0227177 0
M  V30 1643 H 158.765 -1.54496 0.702068 0
M  V30 1644 H 157.537 -3.687 1.31056 0
M  V30 1645 H 157.16 -3.95751 -0.382984 0
M  V30 1646 N 158.157 -0.370918 -1.53173 0
M  V30 1647 C 159.067 0.480823 -2.2962 0
M  V30 1648 C 160.083 1.08789 -1.35798 0
M  V30 1649 O 161.259 1.09768 -1.68858 0
M  V30 1650 C 158.324 1.60227 -3.07454 0
M  V30 1651 C 157.385 1.0222 -4.16953 0
M  V30 1652 C 156.618 2.0902 -4.91066 0
M  V30 1653 O 156.841 3.30222 -4.65091 0
M  V30 1654 O 155.775 1.71778 -5.76867 0
M  V30 1655 H 159.601 -0.141421 -3.03371 0
M  V30 1656 H 157.186 -0.135146 -1.48787 0
M  V30 1657 H 159.068 2.25417 -3.56041 0
M  V30 1658 H 157.743 2.20982 -2.36535 0
M  V30 1659 H 156.65 0.334064 -3.72605 0
M  V30 1660 H 157.983 0.459131 -4.90054 0
M  V30 1661 N 159.635 1.57281 -0.100228 0
M  V30 1662 C 160.882 1.94537 0.562268 0
M  V30 1663 C 161.21 0.982315 1.67871 0
M  V30 1664 O 160.465 0.00280936 1.957 0
M  V30 1665 C 160.764 3.38305 1.15259 0
M  V30 1666 C 160.43 4.50618 0.159409 0
M  V30 1667 C 159.092 4.81066 -0.113741 0
M  V30 1668 C 161.444 5.18615 -0.518461 0
M  V30 1669 C 158.772 5.76835 -1.07137 0
M  V30 1670 C 161.124 6.15412 -1.46459 0
M  V30 1671 C 159.788 6.44262 -1.74592 0
M  V30 1672 H 159.058 0.711863 0.205748 0
M  V30 1673 H 161.705 1.90679 -0.17715 0
M  V30 1674 H 160.01 3.38766 1.96836 0
M  V30 1675 H 161.707 3.64435 1.67297 0
M  V30 1676 H 158.297 4.2689 0.382491 0
M  V30 1677 H 162.481 4.95264 -0.320581 0
M  V30 1678 H 157.737 5.975 -1.29628 0
M  V30 1679 H 161.911 6.67194 -1.99564 0
M  V30 1680 H 159.538 7.1828 -2.48953 0
M  V30 1681 N 161.113 -0.173488 1.56642 0
M  V30 1682 C 162.39 -0.917617 1.7274 0
M  V30 1683 C 162.77 -2.00484 0.661027 0
M  V30 1684 O 162.118 -2.26184 -0.32453 0
M  V30 1685 C 162.328 -1.48433 3.15862 0
M  V30 1686 C 163.676 -1.95809 3.76754 0
M  V30 1687 O 164.7 -1.58231 3.19126 0
M  V30 1688 O 163.559 -2.65024 4.77938 0
M  V30 1689 H 160.653 -0.431772 0.705338 0
M  V30 1690 H 163.199 -0.161487 1.6893 0
M  V30 1691 H 161.971 -0.701715 3.84957 0
M  V30 1692 H 161.594 -2.30471 3.23989 0
M  V30 1693 N 162.591 -1.51276 -0.441967 0
M  V30 1694 C 163.84 -1.6295 -1.18871 0
M  V30 1695 C 164.153 -0.349312 -1.92456 0
M  V30 1696 O 165.359 -0.345355 -2.69295 0
M  V30 1697 C 163.815 -2.87759 -2.16155 0
M  V30 1698 C 163.423 -4.22764 -1.48239 0
M  V30 1699 C 165.167 -3.08788 -2.91291 0
M  V30 1700 C 163.074 -5.38728 -2.4398 0
M  V30 1701 H 162.004 -0.606913 -0.447406 0
M  V30 1702 H 164.655 -1.77739 -0.456205 0
M  V30 1703 H 163.037 -2.66593 -2.92821 0
M  V30 1704 H 164.211 -4.54293 -0.771635 0
M  V30 1705 H 162.526 -4.07575 -0.852741 0
M  V30 1706 H 165.123 -3.92599 -3.63002 0
M  V30 1707 H 165.466 -2.21679 -3.5237 0
M  V30 1708 H 165.999 -3.30272 -2.21733 0
M  V30 1709 H 162.738 -6.28082 -1.87598 0
M  V30 1710 H 162.258 -5.1158 -3.13123 0
M  V30 1711 H 163.937 -5.70489 -3.05207 0
M  V30 1712 N 164.069 0.697108 -1.41344 0
M  V30 1713 C 165.315 1.45796 -1.41828 0
M  V30 1714 C 165.67 1.92382 -0.0261743 0
M  V30 1715 O 164.963 1.66522 0.947688 0
M  V30 1716 C 165.157 2.68553 -2.35826 0
M  V30 1717 C 164.986 2.33975 -3.84039 0
M  V30 1718 C 163.756 2.24414 -4.52732 0
M  V30 1719 C 165.954 1.97048 -4.75054 0
M  V30 1720 N 163.936 1.82705 -5.86082 0
M  V30 1721 C 165.307 1.66086 -5.9734 0
M  V30 1722 C 167.362 1.83845 -4.62715 0
M  V30 1723 C 166.065 1.23246 -7.08663 0
M  V30 1724 C 168.091 1.4241 -5.73998 0
M  V30 1725 C 167.453 1.12357 -6.95381 0
M  V30 1726 H 163.552 0.530859 -0.574206 0
M  V30 1727 H 166.136 0.806674 -1.77203 0
M  V30 1728 H 164.307 3.31404 -2.02549 0
M  V30 1729 H 166.039 3.35015 -2.2704 0
M  V30 1730 H 162.794 2.4276 -4.0665 0
M  V30 1731 H 163.218 1.64337 -6.56751 0
M  V30 1732 H 167.86 2.05734 -3.69369 0
M  V30 1733 H 165.578 1.00102 -8.01876 0
M  V30 1734 H 169.164 1.32746 -5.66454 0
M  V30 1735 H 168.044 0.807795 -7.80028 0
M  V30 1736 N 165.547 1.27147 0.931209 0
M  V30 1737 C 166.795 1.13055 1.6752 0
M  V30 1738 C 167.116 -0.324791 1.92276 0
M  V30 1739 O 166.386 -1.22775 1.52654 0
M  V30 1740 H 164.966 0.415391 0.620854 0
M  V30 1741 H 167.628 1.59623 1.11833 0
M  V30 1742 H 166.724 1.65694 2.64485 0
M  V30 1743 N 167.025 -1.13721 1.09112 0
M  V30 1744 C 167.957 -2.1871 0.685467 0
M  V30 1745 C 168.97 -1.60527 -0.271068 0
M  V30 1746 O 170.159 -1.78407 -0.0576148 0
M  V30 1747 C 167.259 -3.38898 -0.0111255 0
M  V30 1748 C 166.432 -4.26597 0.966131 0
M  V30 1749 C 165.491 -5.25324 0.303539 0
M  V30 1750 O 164.517 -5.61213 0.950177 0
M  V30 1751 N 165.719 -5.72779 -0.943651 0
M  V30 1752 H 168.484 -2.54126 1.58871 0
M  V30 1753 H 166.045 -1.29012 0.978143 0
M  V30 1754 H 168.037 -4.02014 -0.465517 0
M  V30 1755 H 166.607 -3.01747 -0.816565 0
M  V30 1756 H 165.827 -3.60306 1.59917 0
M  V30 1757 H 167.115 -4.82048 1.6281 0
M  V30 1758 H 166.513 -5.45762 -1.48862 0
M  V30 1759 H 165.07 -6.37847 -1.34142 0
M  V30 1760 N 168.503 -0.877838 -1.30888 0
M  V30 1761 C 169.751 -0.491723 -1.96027 0
M  V30 1762 C 170.072 0.960827 -1.69685 0
M  V30 1763 O 169.342 1.67462 -1.01654 0
M  V30 1764 H 167.922 -0.17885 -0.725273 0
M  V30 1765 H 170.584 -1.11935 -1.59551 0
M  V30 1766 H 169.68 -0.656016 -3.05128 0
M  V30 1767 N 169.982 1.44106 -0.638065 0
M  V30 1768 C 171.21 2.06336 -0.152615 0
M  V30 1769 C 171.625 1.47731 1.17563 0
M  V30 1770 O 170.982 0.602806 1.72257 0
M  V30 1771 C 171.033 3.61479 -0.0391491 0
M  V30 1772 O 170.754 4.17903 -1.31487 0
M  V30 1773 C 172.255 4.40757 0.474176 0
M  V30 1774 H 169.475 0.665862 -0.0828776 0
M  V30 1775 H 172.019 1.84862 -0.87443 0
M  V30 1776 H 170.174 3.82191 0.633142 0
M  V30 1777 H 170.588 5.11416 -1.16421 0
M  V30 1778 H 172.062 5.49707 0.502562 0
M  V30 1779 H 172.539 4.12697 1.50258 0
M  V30 1780 H 173.145 4.24979 -0.165102 0
M  V30 1781 N 171.46 0.379036 1.52974 0
M  V30 1782 C 172.393 -0.504932 2.22544 0
M  V30 1783 C 173.371 -1.0723 1.22231 0
M  V30 1784 O 174.555 -1.12589 1.51182 0
M  V30 1785 C 171.682 -1.69794 2.93066 0
M  V30 1786 C 170.728 -1.25678 4.07563 0
M  V30 1787 S 171.561 -0.246852 5.34931 0
M  V30 1788 C 172.717 -1.44588 6.08971 0
M  V30 1789 H 172.95 0.0858666 2.97176 0
M  V30 1790 H 170.483 0.163183 1.53535 0
M  V30 1791 H 172.441 -2.38219 3.34308 0
M  V30 1792 H 171.102 -2.26002 2.18133 0
M  V30 1793 H 170.295 -2.14725 4.5597 0
M  V30 1794 H 169.897 -0.651584 3.6828 0
M  V30 1795 H 172.189 -2.37469 6.34519 0
M  V30 1796 H 173.132 -1.00292 7.00962 0
M  V30 1797 H 173.54 -1.65804 5.39601 0
M  V30 1798 N 172.938 -1.57226 0.108567 0
M  V30 1799 C 174.184 -1.95121 -0.552761 0
M  V30 1800 C 174.517 -0.991345 -1.66991 0
M  V30 1801 O 173.792 -0.0267211 -1.94482 0
M  V30 1802 C 174.075 -3.43039 -1.09528 0
M  V30 1803 C 173.928 -4.49797 0.0177332 0
M  V30 1804 C 175.247 -3.92567 -1.98945 0
M  V30 1805 H 172.366 -0.709496 -0.199461 0
M  V30 1806 H 175.008 -1.89126 0.182011 0
M  V30 1807 H 173.158 -3.48279 -1.72146 0
M  V30 1808 H 174.83 -4.56661 0.652584 0
M  V30 1809 H 173.073 -4.284 0.682309 0
M  V30 1810 H 173.744 -5.50528 -0.402919 0
M  V30 1811 H 176.22 -3.89565 -1.46214 0
M  V30 1812 H 175.096 -4.96605 -2.33827 0
M  V30 1813 H 175.357 -3.32648 -2.91201 0
M  V30 1814 N 174.416 0.165178 -1.56732 0
M  V30 1815 C 175.644 0.896218 -1.86482 0
M  V30 1816 C 176.059 1.75555 -0.694675 0
M  V30 1817 O 175.416 1.79379 0.33607 0
M  V30 1818 C 175.467 1.76792 -3.1532 0
M  V30 1819 O 175.188 0.943239 -4.27825 0
M  V30 1820 C 176.689 2.6081 -3.58459 0
M  V30 1821 H 173.909 0.260064 -0.618553 0
M  V30 1822 H 176.453 0.163428 -2.03846 0
M  V30 1823 H 174.608 2.45398 -2.99764 0
M  V30 1824 H 175.022 1.53998 -5.01383 0
M  V30 1825 H 176.496 3.17579 -4.51495 0
M  V30 1826 H 176.973 3.35977 -2.82872 0
M  V30 1827 H 177.579 1.97526 -3.76648 0
M  V30 1828 N 175.894 1.51508 0.433938 0
M  V30 1829 C 177.14 1.64588 1.18484 0
M  V30 1830 C 177.473 0.362666 1.90784 0
M  V30 1831 O 176.748 -0.637892 1.83742 0
M  V30 1832 C 177.031 2.85149 2.19913 0
M  V30 1833 C 176.884 4.23456 1.51674 0
M  V30 1834 C 178.203 3.01227 3.20858 0
M  V30 1835 H 175.322 0.598994 0.429389 0
M  V30 1836 H 177.964 1.84002 0.473647 0
M  V30 1837 H 176.114 2.68729 2.80566 0
M  V30 1838 H 177.786 4.51552 0.943322 0
M  V30 1839 H 176.029 4.25998 0.819035 0
M  V30 1840 H 176.7 5.03812 2.2556 0
M  V30 1841 H 179.176 3.16382 2.70263 0
M  V30 1842 H 178.052 3.87141 3.89118 0
M  V30 1843 H 178.313 2.13447 3.8716 0
M  V30 1844 N 177.372 -0.689602 1.41712 0
M  V30 1845 C 178.597 -1.48329 1.44959 0
M  V30 1846 C 179.022 -1.8801 0.0581283 0
M  V30 1847 O 178.38 -1.55026 -0.940035 0
M  V30 1848 C 178.428 -2.71835 2.36935 0
M  V30 1849 O 177.532 -3.69549 1.8305 0
M  V30 1850 H 176.873 -0.446199 0.491734 0
M  V30 1851 H 179.403 -0.847127 1.86239 0
M  V30 1852 H 179.413 -3.20076 2.53013 0
M  V30 1853 H 178.088 -2.42291 3.38035 0
M  V30 1854 H 176.665 -3.2851 1.76452 0
M  V30 1855 N 178.85 -1.27639 -0.924453 0
M  V30 1856 C 180.075 -1.17101 -1.71179 0
M  V30 1857 C 180.5 0.268134 -1.86179 0
M  V30 1858 O 179.858 1.19415 -1.36418 0
M  V30 1859 C 179.906 -1.86313 -3.08739 0
M  V30 1860 O 179.01 -1.16331 -3.95652 0
M  V30 1861 H 178.351 -0.407091 -0.524569 0
M  V30 1862 H 180.881 -1.68767 -1.15666 0
M  V30 1863 H 180.891 -1.938 -3.59034 0
M  V30 1864 H 179.566 -2.91001 -2.97138 0
M  V30 1865 H 178.143 -1.16935 -3.54091 0
M  V30 1866 N 180.328 1.1314 -1.09713 0
M  V30 1867 C 181.291 2.16831 -0.742751 0
M  V30 1868 C 182.291 1.59159 0.229129 0
M  V30 1869 O 183.481 1.74199 0.00693237 0
M  V30 1870 C 180.613 3.40756 -0.0989168 0
M  V30 1871 H 181.806 2.49695 -1.66109 0
M  V30 1872 H 179.359 1.2802 -0.896699 0
M  V30 1873 H 180.094 3.13485 0.830514 0
M  V30 1874 H 179.879 3.83888 -0.798265 0
M  V30 1875 H 181.369 4.17386 0.133524 0
M  V30 1876 N 181.806 0.884767 1.30421 0
M  V30 1877 C 183.031 0.517288 2.00845 0
M  V30 1878 C 183.456 -0.886779 1.65885 0
M  V30 1879 O 182.814 -1.58768 0.875354 0
M  V30 1880 C 182.862 0.698994 3.5376 0
M  V30 1881 O 181.966 -0.255208 4.1161 0
M  V30 1882 H 181.307 0.203872 0.631927 0
M  V30 1883 H 183.837 1.19225 1.66272 0
M  V30 1884 H 183.847 0.597912 4.03595 0
M  V30 1885 H 182.522 1.72271 3.78544 0
M  V30 1886 H 181.099 -0.10784 3.72744 0
M  V30 1887 N 183.284 -1.43765 0.645699 0
M  V30 1888 C 184.512 -2.06253 0.163556 0
M  V30 1889 C 184.927 -1.48352 -1.16778 0
M  V30 1890 O 184.284 -0.611932 -1.71935 0
M  V30 1891 C 184.335 -3.61453 0.0583186 0
M  V30 1892 O 184.056 -4.172 1.33702 0
M  V30 1893 C 185.557 -4.41002 -0.450795 0
M  V30 1894 H 182.777 -0.665413 0.0864077 0
M  V30 1895 H 185.321 -1.84396 0.884222 0
M  V30 1896 H 183.476 -3.82522 -0.612865 0
M  V30 1897 H 183.89 -5.10791 1.19131 0
M  V30 1898 H 185.364 -5.49966 -0.473403 0
M  V30 1899 H 185.841 -4.13488 -1.48068 0
M  V30 1900 H 186.447 -4.24886 0.187637 0
M  V30 1901 N 184.763 -0.387143 -1.52771 0
M  V30 1902 C 185.71 0.449048 -2.26389 0
M  V30 1903 C 186.68 1.05961 -1.27912 0
M  V30 1904 O 187.865 1.08804 -1.56737 0
M  V30 1905 C 185.005 1.57155 -3.0724 0
M  V30 1906 C 184.118 0.984066 -4.20643 0
M  V30 1907 C 183.253 2.07745 -4.88892 0
M  V30 1908 C 182.292 1.46574 -5.94292 0
M  V30 1909 N 181.429 2.49834 -6.56146 0
M  V30 1910 H 186.269 -0.185205 -2.97424 0
M  V30 1911 H 183.806 -0.103164 -1.46738 0
M  V30 1912 H 185.764 2.23309 -3.52405 0
M  V30 1913 H 184.394 2.17615 -2.38419 0
M  V30 1914 H 183.446 0.212193 -3.79808 0
M  V30 1915 H 184.758 0.497029 -4.96318 0
M  V30 1916 H 183.912 2.81673 -5.3735 0
M  V30 1917 H 182.651 2.59807 -4.12737 0
M  V30 1918 H 181.656 0.711696 -5.45174 0
M  V30 1919 H 182.881 0.953088 -6.72379 0
M  V30 1920 H 180.827 3.0107 -5.82832 0
M  V30 1921 H 180.744 2.05879 -7.27427 0
M  V30 1922 H 182.012 3.23399 -7.09249 0
M  V30 1923 N 186.241 1.57166 -0.116904 0
M  V30 1924 C 187.489 1.94737 0.540533 0
M  V30 1925 C 187.81 1.00096 1.67349 0
M  V30 1926 O 187.08 0.0568854 1.95817 0
M  V30 1927 H 185.66 0.718981 0.202669 0
M  V30 1928 H 188.322 1.94017 -0.185353 0
M  V30 1929 H 187.418 2.97719 0.936483 0
M  V30 1930 N 187.719 -0.156864 1.56817 0
M  V30 1931 C 189.13 -0.717916 1.72345 0
M  V30 1932 C 189.481 -1.82124 0.729747 0
M  V30 1933 O 188.606 -2.16141 -0.105781 0
M  V30 1934 C 189.201 -1.30904 3.12489 0
M  V30 1935 C 187.76 -1.81676 3.29653 0
M  V30 1936 C 186.907 -0.701349 2.68284 0
M  V30 1937 H 189.858 0.0686989 1.58551 0
M  V30 1938 H 189.879 -2.17882 3.11942 0
M  V30 1939 H 189.391 -0.505796 3.8479 0
M  V30 1940 H 187.492 -2.64598 2.62333 0
M  V30 1941 H 187.605 -1.95226 4.3752 0
M  V30 1942 H 185.969 -1.12548 2.28484 0
M  V30 1943 H 186.752 0.0902846 3.43181 0
M  V30 1944 N 189.197 -1.51736 -0.425897 0
M  V30 1945 C 190.422 -1.69082 -1.20108 0
M  V30 1946 C 190.847 -0.392398 -1.83962 0
M  V30 1947 O 190.205 0.64858 -1.69302 0
M  V30 1948 C 190.253 -2.81604 -2.25237 0
M  V30 1949 O 189.357 -2.46004 -3.30992 0
M  V30 1950 H 188.698 -0.563408 -0.35138 0
M  V30 1951 H 191.228 -1.98358 -0.501512 0
M  V30 1952 H 191.238 -3.06025 -2.69838 0
M  V30 1953 H 189.913 -3.75817 -1.78142 0
M  V30 1954 H 188.49 -2.32195 -2.91787 0
M  V30 1955 N 190.675 0.682077 -1.42076 0
M  V30 1956 C 191.921 1.44428 -1.42367 0
M  V30 1957 C 192.254 1.94164 -0.0373056 0
M  V30 1958 O 191.529 1.70429 0.937239 0
M  V30 1959 C 191.812 2.64654 -2.44194 0
M  V30 1960 C 191.665 2.20596 -3.91991 0
M  V30 1961 C 192.984 3.66865 -2.431 0
M  V30 1962 H 190.103 0.523834 -0.518428 0
M  V30 1963 H 192.745 0.77576 -1.73442 0
M  V30 1964 H 190.895 3.2169 -2.17826 0
M  V30 1965 H 192.567 1.68783 -4.29313 0
M  V30 1966 H 190.81 1.52242 -4.06208 0
M  V30 1967 H 191.481 3.06921 -4.58807 0
M  V30 1968 H 193.957 3.19531 -2.66532 0
M  V30 1969 H 192.833 4.48577 -3.16339 0
M  V30 1970 H 193.094 4.17493 -1.45437 0
M  V30 1971 N 192.153 1.28127 0.917671 0
M  V30 1972 C 193.4 1.15052 1.66641 0
M  V30 1973 C 193.728 -0.301677 1.92146 0
M  V30 1974 O 192.983 -1.23622 1.51711 0
M  V30 1975 C 193.282 1.89018 3.03327 0
M  V30 1976 C 192.948 3.38832 2.97496 0
M  V30 1977 C 191.61 3.79693 2.95613 0
M  V30 1978 C 193.962 4.34378 2.88036 0
M  V30 1979 C 191.29 5.14447 2.82066 0
M  V30 1980 C 193.642 5.69201 2.7603 0
M  V30 1981 C 192.306 6.09343 2.72502 0
M  V30 1982 H 191.576 0.421006 0.609783 0
M  V30 1983 H 194.223 1.58855 1.06945 0
M  V30 1984 H 192.528 1.37752 3.66785 0
M  V30 1985 H 194.225 1.76321 3.60156 0
M  V30 1986 H 190.815 3.06342 2.99754 0
M  V30 1987 H 194.999 4.03775 2.88581 0
M  V30 1988 H 190.255 5.44681 2.77728 0
M  V30 1989 H 194.429 6.42901 2.67678 0
M  V30 1990 H 192.056 7.13712 2.61762 0
M  V30 1991 N 193.631 -1.12557 1.10312 0
M  V30 1992 C 195.042 -1.65574 0.862678 0
M  V30 1993 C 195.393 -1.86566 -0.607256 0
M  V30 1994 O 194.518 -1.59121 -1.46662 0
M  V30 1995 C 195.113 -3.00776 1.55947 0
M  V30 1996 C 193.672 -3.50748 1.36576 0
M  V30 1997 C 192.819 -2.25797 1.60968 0
M  V30 1998 H 195.77 -0.963552 1.26101 0
M  V30 1999 H 195.791 -3.67185 0.997753 0
M  V30 2000 H 195.303 -2.85465 2.62928 0
M  V30 2001 H 193.404 -3.71245 0.317531 0
M  V30 2002 H 193.517 -4.30289 2.10686 0
M  V30 2003 H 191.881 -2.32841 1.03234 0
M  V30 2004 H 192.664 -2.13043 2.69198 0
M  V30 2005 N 195.109 -0.891671 -1.2995 0
M  V30 2006 C 196.039 -0.379797 -2.30391 0
M  V30 2007 C 197.02 0.540919 -1.6127 0
M  V30 2008 O 198.205 0.453352 -1.88834 0
M  V30 2009 C 195.335 0.400654 -3.44981 0
M  V30 2010 C 194.289 -0.428905 -4.25846 0
M  V30 2011 C 193.615 0.478557 -5.32554 0
M  V30 2012 C 194.915 -1.67458 -4.94727 0
M  V30 2013 H 196.609 -1.21914 -2.73454 0
M  V30 2014 H 194.155 -0.587675 -1.31462 0
M  V30 2015 H 196.108 0.769434 -4.14316 0
M  V30 2016 H 194.832 1.27371 -3.0074 0
M  V30 2017 H 193.491 -0.779911 -3.58208 0
M  V30 2018 H 193.139 1.34951 -4.84559 0
M  V30 2019 H 192.839 -0.0727433 -5.87555 0
M  V30 2020 H 194.363 0.843705 -6.04743 0
M  V30 2021 H 195.777 -1.376 -5.56542 0
M  V30 2022 H 194.174 -2.16659 -5.59624 0
M  V30 2023 H 195.244 -2.41518 -4.20473 0
M  V30 2024 N 196.587 1.43421 -0.653314 0
M  V30 2025 C 197.55 2.29182 0.0287951 0
M  V30 2026 C 198.55 1.42213 0.750465 0
M  V30 2027 O 199.74 1.63843 0.591701 0
M  V30 2028 C 196.872 3.24278 1.05151 0
M  V30 2029 H 198.065 2.90985 -0.725786 0
M  V30 2030 H 195.618 1.50702 -0.414545 0
M  V30 2031 H 196.353 2.6737 1.83532 0
M  V30 2032 H 196.138 3.88396 0.537687 0
M  V30 2033 H 197.628 3.88647 1.52786 0
M  V30 2034 N 198.065 0.39524 1.52563 0
M  V30 2035 C 199.476 -0.0774719 1.86539 0
M  V30 2036 C 199.827 -1.45641 1.31466 0
M  V30 2037 O 198.952 -2.06459 0.648367 0
M  V30 2038 C 199.547 -0.147356 3.38479 0
M  V30 2039 C 198.106 -0.564373 3.72145 0
M  V30 2040 C 197.253 0.269919 2.75983 0
M  V30 2041 H 200.204 0.612876 1.46388 0
M  V30 2042 H 200.225 -0.965343 3.68051 0
M  V30 2043 H 199.737 0.856387 3.78534 0
M  V30 2044 H 197.838 -1.57527 3.37663 0
M  V30 2045 H 197.951 -0.318402 4.78041 0
M  V30 2046 H 196.315 -0.265696 2.5331 0
M  V30 2047 H 197.098 1.27175 3.18875 0
M  V30 2048 N 199.544 -1.57102 0.125237 0
M  V30 2049 C 200.769 -2.0019 -0.542101 0
M  V30 2050 C 201.194 -1.00449 -1.59034 0
M  V30 2051 O 200.552 0.0229423 -1.81285 0
M  V30 2052 C 200.6 -3.42129 -1.13929 0
M  V30 2053 O 199.704 -3.45307 -2.2547 0
M  V30 2054 H 199.045 -0.650171 -0.134812 0
M  V30 2055 H 201.575 -2.03461 0.215553 0
M  V30 2056 H 201.585 -3.80471 -1.4733 0
M  V30 2057 H 200.26 -4.14237 -0.371531 0
M  V30 2058 H 198.837 -3.1879 -1.93462 0
M  V30 2059 N 201.022 0.148545 -1.56898 0
M  V30 2060 C 202.247 0.880385 -1.87787 0
M  V30 2061 C 202.672 1.74018 -0.714093 0
M  V30 2062 O 202.03 1.78153 0.336343 0
M  V30 2063 C 202.078 1.71422 -3.17249 0
M  V30 2064 O 201.182 2.8183 -3.01074 0
M  V30 2065 H 200.523 0.245301 -0.617028 0
M  V30 2066 H 203.053 0.139826 -2.04122 0
M  V30 2067 H 203.063 2.10954 -3.49231 0
M  V30 2068 H 201.738 1.08284 -4.01556 0
M  V30 2069 H 200.315 2.45715 -2.80497 0
M  V30 2070 N 202.5 1.5196 0.417844 0
M  V30 2071 C 203.447 1.74678 1.50852 0
M  V30 2072 C 204.417 0.588947 1.55308 0
M  V30 2073 O 205.602 0.825544 1.72016 0
M  V30 2074 C 202.742 1.89544 2.88387 0
M  V30 2075 C 201.855 3.17166 2.93309 0
M  V30 2076 C 200.99 3.22513 4.22088 0
M  V30 2077 C 200.029 4.44372 4.20951 0
M  V30 2078 N 199.166 4.47161 5.41287 0
M  V30 2079 H 204.006 2.67768 1.30783 0
M  V30 2080 H 201.543 1.32689 0.63498 0
M  V30 2081 H 203.501 1.96146 3.68216 0
M  V30 2082 H 202.131 0.998424 3.06971 0
M  V30 2083 H 201.183 3.19778 2.06024 0
M  V30 2084 H 202.495 4.07021 2.88332 0
M  V30 2085 H 201.649 3.28139 5.10303 0
M  V30 2086 H 200.388 2.30581 4.29748 0
M  V30 2087 H 199.393 4.38902 3.31127 0
M  V30 2088 H 200.618 5.3759 4.14938 0
M  V30 2089 H 198.564 3.58108 5.49632 0
M  V30 2090 H 198.481 5.3085 5.3827 0
M  V30 2091 H 199.749 4.57005 6.3148 0
M  V30 2092 N 203.978 -0.674533 1.42435 0
M  V30 2093 C 205.203 -1.46784 1.46524 0
M  V30 2094 C 205.628 -1.87938 0.078066 0
M  V30 2095 O 204.986 -1.56014 -0.92354 0
M  V30 2096 C 205.034 -2.69307 2.39805 0
M  V30 2097 O 204.138 -3.67587 1.86959 0
M  V30 2098 H 203.479 -0.440959 0.496439 0
M  V30 2099 H 206.009 -0.827326 1.87127 0
M  V30 2100 H 206.019 -3.17374 2.56393 0
M  V30 2101 H 204.694 -2.38692 3.40586 0
M  V30 2102 H 203.271 -3.2662 1.79927 0
M  V30 2103 N 205.456 -1.28612 -0.910864 0
M  V30 2104 C 206.684 -1.18792 -1.69399 0
M  V30 2105 C 207.099 0.253039 -1.87097 0
M  V30 2106 O 206.456 1.17071 -1.40003 0
M  V30 2107 C 206.507 -1.88511 -3.08457 0
M  V30 2108 O 206.228 -3.26979 -2.91576 0
M  V30 2109 C 207.729 -1.85029 -4.02839 0
M  V30 2110 H 204.949 -0.412233 -0.529438 0
M  V30 2111 H 207.493 -1.69788 -1.13984 0
M  V30 2112 H 205.648 -1.41379 -3.60681 0
M  V30 2113 H 206.062 -3.61936 -3.79608 0
M  V30 2114 H 207.536 -2.38395 -4.97867 0
M  V30 2115 H 208.013 -0.823303 -4.31414 0
M  V30 2116 H 208.619 -2.31853 -3.56545 0
M  V30 2117 N 206.934 1.1197 -1.10907 0
M  V30 2118 C 208.159 1.87942 -0.877064 0
M  V30 2119 C 208.584 1.79341 0.567314 0
M  V30 2120 O 207.942 1.15184 1.40009 0
M  V30 2121 C 207.99 3.34926 -1.33629 0
M  V30 2122 O 207.094 4.09303 -0.504447 0
M  V30 2123 H 206.435 0.583785 -0.316371 0
M  V30 2124 H 208.965 1.4157 -1.47712 0
M  V30 2125 H 208.975 3.8577 -1.32837 0
M  V30 2126 H 207.65 3.40504 -2.3881 0
M  V30 2127 H 206.227 3.68393 -0.577993 0
M  V30 2128 N 208.412 0.89855 1.29475 0
M  V30 2129 C 209.66 0.522847 1.9522 0
M  V30 2130 C 209.981 -0.93371 1.71192 0
M  V30 2131 O 209.251 -1.65823 1.04305 0
M  V30 2132 H 207.831 0.190366 0.722336 0
M  V30 2133 H 210.493 1.14459 1.5775 0
M  V30 2134 H 209.589 0.704476 3.04045 0
M  V30 2135 N 209.89 -1.43072 0.660911 0
M  V30 2136 C 211.138 -2.01323 0.177094 0
M  V30 2137 C 211.459 -1.5245 -1.2159 0
M  V30 2138 O 210.729 -0.740322 -1.81373 0
M  V30 2139 H 209.309 -0.744382 0.0624804 0
M  V30 2140 H 211.971 -1.75179 0.854305 0
M  V30 2141 H 211.067 -3.11649 0.167641 0
M  V30 2142 N 211.368 -0.403325 -1.52352 0
M  V30 2143 C 212.596 0.174012 -2.06167 0
M  V30 2144 C 213.011 1.39347 -1.27388 0
M  V30 2145 O 212.368 1.79597 -0.324201 0
M  V30 2146 C 212.419 0.530223 -3.5759 0
M  V30 2147 O 212.14 -0.640806 -4.33388 0
M  V30 2148 C 213.641 1.16192 -4.27802 0
M  V30 2149 H 210.861 0.0229464 -0.670608 0
M  V30 2150 H 213.405 -0.572604 -1.9632 0
M  V30 2151 H 211.56 1.22673 -3.67464 0
M  V30 2152 H 211.974 -0.344851 -5.23365 0
M  V30 2153 H 213.448 1.36141 -5.34948 0
M  V30 2154 H 213.925 2.13335 -3.83907 0
M  V30 2155 H 214.531 0.505775 -4.22282 0
M  V30 2156 N 212.846 1.57033 -0.133567 0
M  V30 2157 C 213.809 2.14897 0.796995 0
M  V30 2158 C 214.809 1.0874 1.18458 0
M  V30 2159 O 215.999 1.34446 1.1077 0
M  V30 2160 C 213.131 2.70112 2.07973 0
M  V30 2161 H 214.324 2.98457 0.293873 0
M  V30 2162 H 211.877 1.55871 0.115787 0
M  V30 2163 H 212.612 1.9018 2.62682 0
M  V30 2164 H 212.397 3.47764 1.81115 0
M  V30 2165 H 213.887 3.14738 2.74462 0
M  V30 2166 N 214.325 -0.140222 1.56975 0
M  V30 2167 C 215.288 -1.15689 1.97861 0
M  V30 2168 C 216.288 -1.3549 0.865974 0
M  V30 2169 O 217.478 -1.32367 1.13246 0
M  V30 2170 C 214.61 -2.51582 2.30042 0
M  V30 2171 H 215.803 -0.805971 2.88867 0
M  V30 2172 H 213.356 -0.383801 1.51515 0
M  V30 2173 H 214.091 -2.91632 1.41849 0
M  V30 2174 H 213.876 -2.38569 3.11171 0
M  V30 2175 H 215.366 -3.24792 2.62488 0
M  V30 2176 N 215.803 -1.52179 -0.40978 0
M  V30 2177 C 216.733 -1.78435 -1.5061 0
M  V30 2178 C 217.714 -0.635295 -1.57791 0
M  V30 2179 O 218.899 -0.880823 -1.73076 0
M  V30 2180 C 216.029 -1.93444 -2.88439 0
M  V30 2181 C 214.983 -3.09038 -2.96108 0
M  V30 2182 C 214.309 -3.09268 -4.36185 0
M  V30 2183 C 215.609 -4.48508 -2.67652 0
M  V30 2184 H 217.303 -2.70237 -1.28889 0
M  V30 2185 H 214.849 -1.30036 -0.618605 0
M  V30 2186 H 216.802 -2.10394 -3.65119 0
M  V30 2187 H 215.526 -0.983129 -3.11452 0
M  V30 2188 H 214.185 -2.91837 -2.21872 0
M  V30 2189 H 213.833 -2.11861 -4.56206 0
M  V30 2190 H 213.533 -3.86907 -4.42241 0
M  V30 2191 H 215.057 -3.28348 -5.14801 0
M  V30 2192 H 216.471 -4.65918 -3.34056 0
M  V30 2193 H 214.868 -5.28059 -2.85085 0
M  V30 2194 H 215.938 -4.56649 -1.63095 0
M  V30 2195 N 217.281 0.66697 -1.42791 0
M  V30 2196 C 218.529 1.42417 -1.43394 0
M  V30 2197 C 218.85 1.94925 -0.0542373 0
M  V30 2198 O 218.12 1.73564 0.908415 0
M  V30 2199 H 216.7 0.528515 -0.527902 0
M  V30 2200 H 219.362 0.787562 -1.78279 0
M  V30 2201 H 218.458 2.27333 -2.13837 0
M  V30 2202 N 218.759 1.29093 0.90403 0
M  V30 2203 C 219.999 1.18076 1.66845 0
M  V30 2204 C 220.363 -0.26436 1.90171 0
M  V30 2205 O 221.564 -0.497423 2.64157 0
M  V30 2206 C 219.835 1.96722 2.98388 0
M  V30 2207 S 221.394 2.0219 3.89441 0
M  V30 2208 H 218.212 0.421104 0.572881 0
M  V30 2209 H 220.814 1.63322 1.07453 0
M  V30 2210 H 219.518 3.00866 2.7912 0
M  V30 2211 H 219.049 1.52064 3.62823 0
M  V30 2212 H 221.064 1.13545 4.83034 0
M  V30 2213 N 220.237 -1.11381 1.11499 0
M  V30 2214 C 221.167 -2.19509 0.796125 0
M  V30 2215 C 222.148 -1.68458 -0.235796 0
M  V30 2216 O 223.333 -1.93947 -0.0991344 0
M  V30 2217 C 220.463 -3.46475 0.239205 0
M  V30 2218 C 219.417 -4.10744 1.20307 0
M  V30 2219 C 218.743 -5.32293 0.50683 0
M  V30 2220 C 220.043 -4.55597 2.55399 0
M  V30 2221 H 221.737 -2.46439 1.70024 0
M  V30 2222 H 219.283 -1.18446 0.818935 0
M  V30 2223 H 221.236 -4.214 0.00392006 0
M  V30 2224 H 219.96 -3.19006 -0.700206 0
M  V30 2225 H 218.619 -3.37813 1.42399 0
M  V30 2226 H 218.267 -5.01095 -0.437408 0
M  V30 2227 H 217.967 -5.76243 1.1497 0
M  V30 2228 H 219.491 -6.09956 0.280351 0
M  V30 2229 H 220.905 -5.21841 2.37391 0
M  V30 2230 H 219.302 -5.10363 3.15673 0
M  V30 2231 H 220.372 -3.69013 3.14575 0
M  V30 2232 N 221.715 -0.905404 -1.28997 0
M  V30 2233 C 222.961 -0.535039 -1.95615 0
M  V30 2234 C 223.294 0.917404 -1.71165 0
M  V30 2235 O 222.569 1.65123 -1.02785 0
M  V30 2236 C 222.852 -0.834918 -3.50287 0
M  V30 2237 C 222.705 -2.33948 -3.84172 0
M  V30 2238 C 224.024 -0.325318 -4.38896 0
M  V30 2239 H 221.143 -0.195861 -0.710498 0
M  V30 2240 H 223.785 -1.13313 -1.52513 0
M  V30 2241 H 221.935 -0.325904 -3.87131 0
M  V30 2242 H 223.607 -2.91847 -3.57243 0
M  V30 2243 H 221.85 -2.79789 -3.31513 0
M  V30 2244 H 222.521 -2.49987 -4.92149 0
M  V30 2245 H 224.997 -0.761256 -4.09077 0
M  V30 2246 H 223.873 -0.564295 -5.45992 0
M  V30 2247 H 224.134 0.774144 -4.35269 0
M  V30 2248 N 223.193 1.4272 -0.668489 0
M  V30 2249 C 224.14 2.30796 0.0137489 0
M  V30 2250 C 225.11 1.4561 0.799177 0
M  V30 2251 O 226.295 1.74453 0.772702 0
M  V30 2252 C 223.435 3.31377 0.963507 0
M  V30 2253 C 222.548 4.31655 0.172569 0
M  V30 2254 C 221.683 5.19312 1.1175 0
M  V30 2255 C 220.722 6.11274 0.317886 0
M  V30 2256 N 219.859 6.91504 1.2152 0
M  V30 2257 H 224.699 2.88585 -0.743161 0
M  V30 2258 H 222.236 1.42154 -0.378226 0
M  V30 2259 H 224.194 3.88214 1.52792 0
M  V30 2260 H 222.824 2.75202 1.68712 0
M  V30 2261 H 221.876 3.76988 -0.508374 0
M  V30 2262 H 223.188 4.96779 -0.448527 0
M  V30 2263 H 222.342 5.80851 1.75206 0
M  V30 2264 H 221.081 4.5435 1.77249 0
M  V30 2265 H 220.086 5.48809 -0.329918 0
M  V30 2266 H 221.311 6.78283 -0.332917 0
M  V30 2267 H 219.257 6.29176 1.85671 0
M  V30 2268 H 219.174 7.53209 0.649036 0
M  V30 2269 H 220.442 7.57535 1.83742 0
M  V30 2270 N 224.671 0.411399 1.52136 0
M  V30 2271 C 225.948 -0.222308 1.94333 0
M  V30 2272 C 226.328 -1.6242 1.34844 0
M  V30 2273 O 225.676 -2.22384 0.525145 0
M  V30 2274 C 225.886 -0.226345 3.48265 0
M  V30 2275 C 227.234 -0.444592 4.22266 0
M  V30 2276 O 228.258 -0.305602 3.54887 0
M  V30 2277 O 227.117 -0.718749 5.41753 0
M  V30 2278 H 224.211 -0.143907 0.814383 0
M  V30 2279 H 226.757 0.467506 1.63133 0
M  V30 2280 H 225.529 0.75475 3.83952 0
M  V30 2281 H 225.152 -0.960163 3.85832 0
M  V30 2282 N 226.149 -1.5696 0.141893 0
M  V30 2283 C 227.379 -2.00031 -0.516828 0
M  V30 2284 C 227.787 -1.02091 -1.59293 0
M  V30 2285 O 227.13 -0.00909657 -1.83698 0
M  V30 2286 C 227.192 -3.39534 -1.1814 0
M  V30 2287 C 226.856 -4.56313 -0.250513 0
M  V30 2288 C 227.853 -5.17295 0.519839 0
M  V30 2289 C 225.538 -5.02061 -0.154907 0
M  V30 2290 C 227.532 -6.2243 1.3733 0
M  V30 2291 C 225.219 -6.07053 0.702161 0
M  V30 2292 C 226.217 -6.67106 1.46487 0
M  V30 2293 O 225.905 -7.70066 2.30767 0
M  V30 2294 H 225.637 -0.661451 -0.139493 0
M  V30 2295 H 228.191 -2.04086 0.231926 0
M  V30 2296 H 226.421 -3.32302 -1.97769 0
M  V30 2297 H 228.11 -3.66745 -1.73933 0
M  V30 2298 H 228.876 -4.82852 0.45598 0
M  V30 2299 H 224.755 -4.5505 -0.7383 0
M  V30 2300 H 228.299 -6.69233 1.96909 0
M  V30 2301 H 224.196 -6.40923 0.76733 0
M  V30 2302 H 224.964 -7.87264 2.23959 0
M  V30 2303 N 227.627 0.131896 -1.57047 0
M  V30 2304 C 228.874 0.841932 -1.84168 0
M  V30 2305 C 229.202 1.8048 -0.725066 0
M  V30 2306 O 228.457 1.93618 0.284692 0
M  V30 2307 C 228.756 1.63703 -3.17704 0
M  V30 2308 C 228.422 0.81961 -4.43388 0
M  V30 2309 C 227.084 0.594148 -4.77518 0
M  V30 2310 C 229.436 0.248977 -5.20605 0
M  V30 2311 C 226.764 -0.212409 -5.86315 0
M  V30 2312 C 229.116 -0.544701 -6.30251 0
M  V30 2313 C 227.78 -0.780599 -6.6292 0
M  V30 2314 H 227.05 0.308085 -0.673917 0
M  V30 2315 H 229.697 0.104867 -1.91213 0
M  V30 2316 H 228.002 2.44464 -3.06177 0
M  V30 2317 H 229.699 2.19015 -3.35907 0
M  V30 2318 H 226.289 1.00542 -4.16641 0
M  V30 2319 H 230.473 0.410408 -4.946 0
M  V30 2320 H 225.729 -0.404524 -6.1006 0
M  V30 2321 H 229.903 -0.993922 -6.89271 0
M  V30 2322 H 227.53 -1.40742 -7.47058 0
M  V30 2323 N 229.106 1.52395 0.401703 0
M  V30 2324 C 230.517 1.58899 0.980202 0
M  V30 2325 C 230.868 0.434032 1.91339 0
M  V30 2326 O 229.993 -0.444619 2.11783 0
M  V30 2327 C 230.588 2.87994 1.78451 0
M  V30 2328 C 229.147 2.96953 2.31292 0
M  V30 2329 C 228.294 2.53903 1.11483 0
M  V30 2330 H 231.245 1.57657 0.18168 0
M  V30 2331 H 231.266 2.73765 2.64259 0
M  V30 2332 H 230.778 3.72035 1.10506 0
M  V30 2333 H 228.879 2.17422 3.02586 0
M  V30 2334 H 228.992 4.01344 2.61649 0
M  V30 2335 H 227.356 2.07925 1.47104 0
M  V30 2336 H 228.139 3.40326 0.450928 0
M  V30 2337 N 230.584 -0.659388 1.43143 0
M  V30 2338 C 231.494 -1.80167 1.50256 0
M  V30 2339 C 232.51 -1.69571 0.390106 0
M  V30 2340 O 233.686 -1.90849 0.643319 0
M  V30 2341 C 230.751 -3.16409 1.41725 0
M  V30 2342 C 229.812 -3.38848 2.63591 0
M  V30 2343 C 229.045 -4.68591 2.55458 0
M  V30 2344 O 229.268 -5.47532 1.59891 0
M  V30 2345 O 228.202 -4.92614 3.45854 0
M  V30 2346 H 232.028 -1.77121 2.46702 0
M  V30 2347 H 229.613 -0.817092 1.25076 0
M  V30 2348 H 231.495 -3.9768 1.39387 0
M  V30 2349 H 230.17 -3.20059 0.484118 0
M  V30 2350 H 229.077 -2.57366 2.71502 0
M  V30 2351 H 230.41 -3.4004 3.55856 0
M  V30 2352 N 232.062 -1.29571 -0.897171 0
M  V30 2353 C 233.473 -1.15964 -1.46319 0
M  V30 2354 C 233.824 0.244267 -1.94674 0
M  V30 2355 O 232.949 1.13998 -1.83939 0
M  V30 2356 C 233.544 -2.09906 -2.65942 0
M  V30 2357 C 232.103 -2.00314 -3.18671 0
M  V30 2358 C 231.25 -2.00687 -1.91363 0
M  V30 2359 H 234.201 -1.42019 -0.708268 0
M  V30 2360 H 234.222 -1.67276 -3.41759 0
M  V30 2361 H 233.734 -3.12075 -2.30718 0
M  V30 2362 H 231.835 -1.01242 -3.58582 0
M  V30 2363 H 231.948 -2.88102 -3.82798 0
M  V30 2364 H 230.312 -1.45319 -2.09175 0
M  V30 2365 H 231.095 -3.04566 -1.58413 0
M  V30 2366 N 233.54 1.10788 -1.12088 0
M  V30 2367 C 234.786 1.82942 -0.875226 0
M  V30 2368 C 235.119 1.84779 0.597538 0
M  V30 2369 O 234.394 1.30578 1.44152 0
M  V30 2370 C 234.677 3.29789 -1.44606 0
M  V30 2371 C 234.53 3.36307 -2.98693 0
M  V30 2372 C 235.849 4.26064 -1.10261 0
M  V30 2373 H 232.968 0.664195 -0.319397 0
M  V30 2374 H 235.61 1.29867 -1.38689 0
M  V30 2375 H 233.76 3.75118 -1.01089 0
M  V30 2376 H 235.432 2.99487 -3.50864 0
M  V30 2377 H 233.675 2.76318 -3.34411 0
M  V30 2378 H 234.346 4.39694 -3.33726 0
M  V30 2379 H 236.822 3.88951 -1.4784 0
M  V30 2380 H 235.698 5.27183 -1.52869 0
M  V30 2381 H 235.959 4.42098 -0.0142953 0
M  V30 2382 N 235.018 0.912232 1.28515 0
M  V30 2383 C 236.246 0.560416 1.99166 0
M  V30 2384 C 236.661 -0.857927 1.68182 0
M  V30 2385 O 236.018 -1.56805 0.933733 0
M  V30 2386 C 236.069 0.758142 3.53461 0
M  V30 2387 O 235.79 2.12067 3.83352 0
M  V30 2388 C 237.291 0.412954 4.41372 0
M  V30 2389 H 234.511 0.213805 0.636026 0
M  V30 2390 H 237.055 1.22502 1.63749 0
M  V30 2391 H 235.21 0.140556 3.87145 0
M  V30 2392 H 235.624 2.15923 4.77993 0
M  V30 2393 H 237.098 0.60208 5.48707 0
M  V30 2394 H 237.575 -0.65073 4.34353 0
M  V30 2395 H 238.181 1.00802 4.13182 0
M  V30 2396 N 236.496 -1.42363 0.676048 0
M  V30 2397 C 237.742 -2.0182 0.199125 0
M  V30 2398 C 238.075 -1.53339 -1.19168 0
M  V30 2399 O 237.35 -0.736124 -1.80032 0
M  V30 2400 C 237.633 -3.59331 0.235144 0
M  V30 2401 C 237.486 -4.17989 1.66149 0
M  V30 2402 C 238.805 -4.3813 -0.41595 0
M  V30 2403 H 235.924 -0.733293 0.0738311 0
M  V30 2404 H 238.566 -1.69368 0.86107 0
M  V30 2405 H 236.716 -3.87109 -0.328487 0
M  V30 2406 H 238.388 -4.0116 2.27747 0
M  V30 2407 H 236.631 -3.7377 2.20178 0
M  V30 2408 H 237.302 -5.27126 1.63837 0
M  V30 2409 H 239.778 -4.16051 0.0638529 0
M  V30 2410 H 238.654 -5.47717 -0.360115 0
M  V30 2411 H 238.915 -4.16101 -1.49373 0
M  V30 2412 N 237.974 -0.419461 -1.51915 0
M  V30 2413 C 239.199 0.154572 -2.06823 0
M  V30 2414 C 239.624 1.3722 -1.28656 0
M  V30 2415 O 238.982 1.78461 -0.319583 0
M  V30 2416 C 239.03 0.473172 -3.57482 0
M  V30 2417 O 238.134 1.56255 -3.81652 0
M  V30 2418 H 237.475 0.0096924 -0.663929 0
M  V30 2419 H 240.005 -0.595642 -1.95738 0
M  V30 2420 H 240.015 0.728825 -4.01438 0
M  V30 2421 H 238.69 -0.416873 -4.13805 0
M  V30 2422 H 237.267 1.29825 -3.49571 0
M  V30 2423 N 239.452 1.56882 -0.150215 0
M  V30 2424 C 240.698 1.97299 0.494427 0
M  V30 2425 C 241.053 1.0338 1.62266 0
M  V30 2426 O 240.346 0.0694497 1.91474 0
M  V30 2427 C 240.54 3.41801 1.04437 0
M  V30 2428 C 240.369 4.49691 -0.0290451 0
M  V30 2429 C 239.139 5.03095 -0.47156 0
M  V30 2430 C 241.337 5.07693 -0.821703 0
M  V30 2431 N 239.319 5.94593 -1.52749 0
M  V30 2432 C 240.69 5.95431 -1.72805 0
M  V30 2433 C 242.745 4.90256 -0.869134 0
M  V30 2434 C 241.448 6.67599 -2.67777 0
M  V30 2435 C 243.474 5.63127 -1.8067 0
M  V30 2436 C 242.836 6.50576 -2.70057 0
M  V30 2437 H 238.935 0.76755 0.149639 0
M  V30 2438 H 241.519 1.93145 -0.24556 0
M  V30 2439 H 239.69 3.46541 1.75396 0
M  V30 2440 H 241.422 3.69272 1.6559 0
M  V30 2441 H 238.177 4.73543 -0.0732101 0
M  V30 2442 H 238.601 6.45047 -2.05531 0
M  V30 2443 H 243.243 4.22363 -0.192134 0
M  V30 2444 H 240.961 7.34717 -3.36476 0
M  V30 2445 H 244.547 5.51629 -1.84924 0
M  V30 2446 H 243.427 7.05974 -3.41424 0
M  V30 2447 N 240.93 -0.123565 1.57115 0
M  V30 2448 C 241.878 -1.17082 2.00984 0
M  V30 2449 C 242.872 -1.43136 0.906009 0
M  V30 2450 O 244.078 -1.43152 1.09121 0
M  V30 2451 H 240.453 -0.394653 0.64012 0
M  V30 2452 H 242.424 -0.774292 2.88179 0
M  V30 2453 C 241.173 -2.49057 2.42623 0
M  V30 2454 H 240.496 -2.29846 3.27125 0
M  V30 2455 H 241.936 -3.20906 2.7712 0
M  V30 2456 C 240.395 -3.11305 1.28805 0
M  V30 2457 O 240.925 -3.97171 0.60153 0
M  V30 2458 N 239.131 -2.71111 1.04628 0
M  V30 2459 H 238.678 -2.01382 1.60634 0
M  V30 2460 H 238.636 -3.1309 0.286685 0
M  V30 2461 N 242.408 -1.52605 -0.393616 0
M  V30 2462 C 243.633 -1.71592 -1.16495 0
M  V30 2463 C 244.058 -0.43133 -1.83088 0
M  V30 2464 O 243.416 0.612523 -1.7064 0
M  V30 2465 C 243.464 -2.86318 -2.19213 0
M  V30 2466 O 242.568 -2.52969 -3.257 0
M  V30 2467 H 241.909 -0.570734 -0.33935 0
M  V30 2468 H 244.439 -1.99377 -0.459324 0
M  V30 2469 H 244.449 -3.1168 -2.63286 0
M  V30 2470 H 243.124 -3.79511 -1.7013 0
M  V30 2471 H 241.701 -2.38332 -2.86797 0
M  V30 2472 N 243.887 0.651787 -1.4349 0
M  V30 2473 C 245.135 1.40888 -1.44897 0
M  V30 2474 C 245.456 1.94856 -0.0749086 0
M  V30 2475 O 244.726 1.74518 0.889956 0
M  V30 2476 H 243.306 0.522887 -0.533478 0
M  V30 2477 H 245.968 0.768609 -1.79104 0
M  V30 2478 H 245.064 2.25052 -2.16236 0
M  V30 2479 N 245.365 1.30045 0.890287 0
M  V30 2480 C 246.328 1.15963 1.977 0
M  V30 2481 C 247.328 0.0923777 1.60534 0
M  V30 2482 O 248.518 0.340071 1.70848 0
M  V30 2483 C 245.65 0.775451 3.31963 0
M  V30 2484 H 246.843 2.12502 2.11619 0
M  V30 2485 H 244.396 1.13366 1.07601 0
M  V30 2486 H 245.131 -0.189671 3.23745 0
M  V30 2487 H 244.916 1.54668 3.60306 0
M  V30 2488 H 246.406 0.700251 4.11687 0
M  V30 2489 N 246.843 -1.10192 1.12674 0
M  V30 2490 C 247.773 -2.18652 0.819362 0
M  V30 2491 C 248.754 -1.68698 -0.217915 0
M  V30 2492 O 249.939 -1.94041 -0.0785581 0
M  V30 2493 C 247.069 -3.46202 0.27594 0
M  V30 2494 C 246.023 -4.09444 1.24656 0
M  V30 2495 C 245.349 -5.31725 0.563258 0
M  V30 2496 C 246.649 -4.52863 2.60217 0
M  V30 2497 H 248.343 -2.44622 1.72628 0
M  V30 2498 H 245.889 -1.17571 0.831451 0
M  V30 2499 H 247.842 -4.21372 0.0486149 0
M  V30 2500 H 246.566 -3.1973 -0.666331 0
M  V30 2501 H 245.225 -3.36284 1.45974 0
M  V30 2502 H 244.873 -5.0153 -0.384235 0
M  V30 2503 H 244.573 -5.74991 1.21075 0
M  V30 2504 H 246.097 -6.09624 0.34503 0
M  V30 2505 H 247.511 -5.19294 2.42913 0
M  V30 2506 H 245.908 -5.06986 3.21068 0
M  V30 2507 H 246.978 -3.65656 3.18471 0
M  V30 2508 N 248.321 -0.919034 -1.28029 0
M  V30 2509 C 249.549 -0.570971 -1.98866 0
M  V30 2510 C 249.964 0.848996 -1.68634 0
M  V30 2511 O 249.321 1.56307 -0.942036 0
M  V30 2512 C 249.372 -0.776876 -3.53054 0
M  V30 2513 O 249.093 -2.14097 -3.82222 0
M  V30 2514 C 250.594 -0.436356 -4.41147 0
M  V30 2515 H 247.814 -0.217175 -0.634883 0
M  V30 2516 H 250.358 -1.23368 -1.63097 0
M  V30 2517 H 248.513 -0.161085 -3.87065 0
M  V30 2518 H 248.927 -2.18455 -4.76841 0
M  V30 2519 H 250.401 -0.63117 -5.4838 0
M  V30 2520 H 250.878 0.627686 -4.34692 0
M  V30 2521 H 251.484 -1.02991 -4.12641 0
M  V30 2522 N 249.799 1.42003 -0.683588 0
M  V30 2523 C 251.024 2.06265 -0.216647 0
M  V30 2524 C 251.449 1.51059 1.12083 0
M  V30 2525 O 250.807 0.632638 1.69904 0
M  V30 2526 C 250.855 3.60191 -0.171759 0
M  V30 2527 O 249.959 4.03396 0.857069 0
M  V30 2528 H 249.3 0.65502 -0.108834 0
M  V30 2529 H 251.83 1.81982 -0.935077 0
M  V30 2530 H 251.84 4.08 0.0014303 0
M  V30 2531 H 250.515 3.99743 -1.14796 0
M  V30 2532 H 249.092 3.67117 0.654208 0
M  V30 2533 N 251.277 0.427512 1.51691 0
M  V30 2534 C 252.525 -0.141948 2.01601 0
M  V30 2535 C 252.846 -1.44067 1.31414 0
M  V30 2536 O 252.116 -1.90763 0.445658 0
M  V30 2537 H 250.696 -0.0554468 0.744939 0
M  V30 2538 H 253.358 0.567968 1.86441 0
M  V30 2539 H 252.454 -0.324913 3.10404 0
M  V30 2540 N 252.755 -1.56801 0.158532 0
M  V30 2541 C 254.001 -1.96781 -0.490405 0
M  V30 2542 C 254.334 -1.04397 -1.63753 0
M  V30 2543 O 253.609 -0.0885805 -1.94298 0
M  V30 2544 C 253.892 -3.4635 -0.985594 0
M  V30 2545 C 253.745 -4.49512 0.160824 0
M  V30 2546 C 255.064 -3.98697 -1.86355 0
M  V30 2547 H 252.183 -0.715482 -0.176788 0
M  V30 2548 H 254.825 -1.88451 0.242088 0
M  V30 2549 H 252.975 -3.53579 -1.60978 0
M  V30 2550 H 254.647 -4.54353 0.797537 0
M  V30 2551 H 252.89 -4.26013 0.818256 0
M  V30 2552 H 253.561 -5.51531 -0.227569 0
M  V30 2553 H 256.037 -3.94019 -1.33746 0
M  V30 2554 H 254.913 -5.03792 -2.17909 0
M  V30 2555 H 255.174 -3.41744 -2.8047 0
M  V30 2556 N 254.233 0.115231 -1.57178 0
M  V30 2557 C 255.183 1.14707 -1.97044 0
M  V30 2558 C 256.167 1.36866 -0.845957 0
M  V30 2559 O 257.359 1.37895 -1.10968 0
M  V30 2560 C 254.488 2.47266 -2.38148 0
M  V30 2561 C 253.574 2.28566 -3.57237 0
M  V30 2562 N 253.965 1.79685 -4.72807 0
M  V30 2563 C 252.263 2.59208 -3.62943 0
M  V30 2564 C 252.964 1.74781 -5.54821 0
M  V30 2565 N 251.94 2.19264 -4.97417 0
M  V30 2566 H 255.742 0.761754 -2.83857 0
M  V30 2567 H 253.256 0.322928 -1.59157 0
M  V30 2568 H 255.253 3.219 -2.64927 0
M  V30 2569 H 253.913 2.86552 -1.52702 0
M  V30 2570 H 254.924 1.49177 -4.9595 0
M  V30 2571 H 251.601 3.02154 -2.88113 0
M  V30 2572 H 252.991 1.38212 -6.57531 0
M  V30 2573 N 255.711 1.52812 0.385517 0
M  V30 2574 C 256.939 1.71907 1.15133 0
M  V30 2575 C 257.354 0.439004 1.83625 0
M  V30 2576 O 256.711 -0.586765 1.7281 0
M  V30 2577 C 256.762 2.87099 2.19673 0
M  V30 2578 O 256.483 4.10151 1.53973 0
M  V30 2579 C 257.984 3.17902 3.08955 0
M  V30 2580 H 255.204 0.575479 0.345057 0
M  V30 2581 H 257.748 1.99476 0.45052 0
M  V30 2582 H 255.903 2.61982 2.85384 0
M  V30 2583 H 256.317 4.74514 2.23465 0
M  V30 2584 H 257.791 4.01959 3.7833 0
M  V30 2585 H 258.268 2.3243 3.72657 0
M  V30 2586 H 258.874 3.44871 2.48885 0
M  V30 2587 N 257.189 -0.644168 1.43834 0
M  V30 2588 C 258.436 -1.40395 1.4593 0
M  V30 2589 C 258.764 -1.94305 0.0869658 0
M  V30 2590 O 258.019 -1.73288 -0.909378 0
M  V30 2591 C 258.318 -2.59615 2.45631 0
M  V30 2592 C 257.984 -2.2407 3.91284 0
M  V30 2593 C 256.646 -2.14089 4.30952 0
M  V30 2594 C 258.998 -1.95775 4.83034 0
M  V30 2595 C 256.326 -1.73981 5.6031 0
M  V30 2596 C 258.678 -1.57163 6.12766 0
M  V30 2597 C 257.342 -1.45713 6.51402 0
M  V30 2598 H 256.612 -0.513741 0.533995 0
M  V30 2599 H 259.259 -0.731724 1.76969 0
M  V30 2600 H 257.564 -3.32011 2.08028 0
M  V30 2601 H 259.261 -3.17834 2.44504 0
M  V30 2602 H 255.851 -2.32753 3.59895 0
M  V30 2603 H 260.035 -2.02403 4.53152 0
M  V30 2604 H 255.291 -1.63709 5.89075 0
M  V30 2605 H 259.465 -1.34303 6.83327 0
M  V30 2606 H 257.092 -1.14406 7.51542 0
M  V30 2607 N 258.668 -1.30515 -0.883378 0
M  V30 2608 C 260.079 -1.17509 -1.45081 0
M  V30 2609 C 260.43 0.223605 -1.94922 0
M  V30 2610 O 259.555 1.12041 -1.85137 0
M  V30 2611 C 260.15 -2.12715 -2.63701 0
M  V30 2612 C 258.709 -2.03682 -3.16529 0
M  V30 2613 C 257.856 -2.02706 -1.89224 0
M  V30 2614 H 260.807 -1.42762 -0.693165 0
M  V30 2615 H 260.828 -1.70891 -3.39965 0
M  V30 2616 H 260.34 -3.14505 -2.27395 0
M  V30 2617 H 258.441 -1.05039 -3.57488 0
M  V30 2618 H 258.554 -2.92146 -3.7972 0
M  V30 2619 H 256.918 -1.4753 -2.07622 0
M  V30 2620 H 257.701 -3.06229 -1.55174 0
M  V30 2621 N 260.146 1.09593 -1.13257 0
M  V30 2622 C 261.109 2.14359 -0.811358 0
M  V30 2623 C 262.109 1.59808 0.178377 0
M  V30 2624 O 263.299 1.74132 -0.0484911 0
M  V30 2625 C 260.431 3.40269 -0.207276 0
M  V30 2626 H 261.624 2.44284 -1.73969 0
M  V30 2627 H 259.177 1.25102 -0.936973 0
M  V30 2628 H 259.912 3.15969 0.73036 0
M  V30 2629 H 259.697 3.81154 -0.919992 0
M  V30 2630 H 261.187 4.176 0.000667944 0
M  V30 2631 N 261.624 0.925811 1.2754 0
M  V30 2632 C 262.87 0.566092 1.94739 0
M  V30 2633 C 263.203 -0.890057 1.72603 0
M  V30 2634 O 262.478 -1.63467 1.05399 0
M  V30 2635 C 262.761 0.89054 3.48915 0
M  V30 2636 C 262.614 2.4003 3.80402 0
M  V30 2637 C 263.933 0.395101 4.38323 0
M  V30 2638 H 261.052 0.20714 0.707292 0
M  V30 2639 H 263.694 1.15725 1.50691 0
M  V30 2640 H 261.844 0.387452 3.86563 0
M  V30 2641 H 263.516 2.97494 3.52555 0
M  V30 2642 H 261.759 2.85028 3.2702 0
M  V30 2643 H 262.43 2.57785 4.8811 0
M  V30 2644 H 264.906 0.826241 4.07814 0
M  V30 2645 H 263.782 0.651086 5.45025 0
M  V30 2646 H 264.043 -0.704798 4.36446 0
M  V30 2647 N 263.102 -1.41638 0.69111 0
M  V30 2648 C 264.032 -2.3347 0.037248 0
M  V30 2649 C 265.013 -1.51575 -0.771947 0
M  V30 2650 O 266.198 -1.80126 -0.72582 0
M  V30 2651 C 263.328 -3.35354 -0.903064 0
M  V30 2652 C 262.282 -4.27526 -0.201288 0
M  V30 2653 C 261.608 -5.19747 -1.25565 0
M  V30 2654 C 262.908 -5.13959 0.929689 0
M  V30 2655 H 264.602 -2.88397 0.804227 0
M  V30 2656 H 262.148 -1.38669 0.388189 0
M  V30 2657 H 264.101 -3.98519 -1.36969 0
M  V30 2658 H 262.825 -2.78767 -1.70166 0
M  V30 2659 H 261.484 -3.65779 0.245265 0
M  V30 2660 H 261.132 -4.59479 -2.04666 0
M  V30 2661 H 260.832 -5.8225 -0.791128 0
M  V30 2662 H 262.356 -5.85789 -1.72288 0
M  V30 2663 H 263.77 -5.70718 0.543546 0
M  V30 2664 H 262.167 -5.85379 1.32103 0
M  V30 2665 H 263.237 -4.51389 1.77133 0
M  V30 2666 N 264.58 -0.43555 -1.51462 0
M  V30 2667 C 265.512 0.41257 -2.25456 0
M  V30 2668 C 266.525 0.987822 -1.29406 0
M  V30 2669 O 267.714 0.882266 -1.55172 0
M  V30 2670 C 264.814 1.58894 -2.99342 0
M  V30 2671 C 263.987 1.13288 -4.22474 0
M  V30 2672 C 263.046 2.17917 -4.78956 0
M  V30 2673 O 262.072 1.77425 -5.40841 0
M  V30 2674 N 263.274 3.50382 -4.62832 0
M  V30 2675 H 266.039 -0.221603 -2.9888 0
M  V30 2676 H 263.6 -0.264342 -1.59727 0
M  V30 2677 H 265.592 2.28508 -3.34015 0
M  V30 2678 H 264.162 2.12849 -2.28941 0
M  V30 2679 H 263.382 0.263881 -3.93316 0
M  V30 2680 H 264.67 0.805542 -5.02383 0
M  V30 2681 H 264.068 3.86013 -4.13534 0
M  V30 2682 H 262.625 4.15895 -5.01871 0
M  V30 2683 N 266.058 1.56714 -0.166846 0
M  V30 2684 C 267.283 2.01557 0.488833 0
M  V30 2685 C 267.708 1.0463 1.56314 0
M  V30 2686 O 267.066 0.0251304 1.81283 0
M  V30 2687 C 267.114 3.4503 1.04818 0
M  V30 2688 O 266.218 3.51163 2.16236 0
M  V30 2689 H 265.559 0.653516 0.117526 0
M  V30 2690 H 268.089 2.02818 -0.269421 0
M  V30 2691 H 268.099 3.84243 1.37191 0
M  V30 2692 H 266.774 4.15077 0.261572 0
M  V30 2693 H 265.351 3.23807 1.84942 0
M  V30 2694 N 267.536 -0.106894 1.57237 0
M  V30 2695 C 268.761 -0.830287 1.90055 0
M  V30 2696 C 269.186 -1.72064 0.75998 0
M  V30 2697 O 268.544 -1.78982 -0.288991 0
M  V30 2698 C 268.592 -1.6295 3.21683 0
M  V30 2699 O 267.696 -2.73748 3.08441 0
M  V30 2700 H 267.037 -0.228855 0.623315 0
M  V30 2701 H 269.567 -0.085658 2.04421 0
M  V30 2702 H 269.577 -2.01621 3.54701 0
M  V30 2703 H 268.252 -0.975989 4.04286 0
M  V30 2704 H 266.829 -2.38192 2.86913 0
M  V30 2705 N 269.014 -1.53014 -0.377408 0
M  V30 2706 C 270.262 -1.6829 -1.11906 0
M  V30 2707 C 270.583 -0.431206 -1.90173 0
M  V30 2708 O 269.853 0.554595 -1.87886 0
M  V30 2709 H 268.433 -0.620371 -0.416112 0
M  V30 2710 H 271.095 -1.90167 -0.426893 0
M  V30 2711 H 270.191 -2.53862 -1.8155 0
M  V30 2712 N 270.492 0.636531 -1.44174 0
M  V30 2713 C 271.422 1.76003 -1.53444 0
M  V30 2714 C 272.403 1.65619 -0.387841 0
M  V30 2715 O 273.588 1.84461 -0.607257 0
M  V30 2716 C 270.718 3.14511 -1.4731 0
M  V30 2717 C 269.672 3.39677 -2.60391 0
M  V30 2718 C 268.998 4.78159 -2.39308 0
M  V30 2719 C 270.298 3.32772 -4.02567 0
M  V30 2720 H 271.992 1.68501 -2.47483 0
M  V30 2721 H 269.538 0.809237 -1.19111 0
M  V30 2722 H 271.491 3.92878 -1.52397 0
M  V30 2723 H 270.215 3.22783 -0.49785 0
M  V30 2724 H 268.874 2.63688 -2.54684 0
M  V30 2725 H 268.522 4.83128 -1.39988 0
M  V30 2726 H 268.222 4.95956 -3.15122 0
M  V30 2727 H 269.746 5.58762 -2.46205 0
M  V30 2728 H 271.16 4.01051 -4.09672 0
M  V30 2729 H 269.557 3.62104 -4.7854 0
M  V30 2730 H 270.627 2.30669 -4.2652 0
M  V30 2731 N 271.97 1.30982 0.876444 0
M  V30 2732 C 273.2 1.23063 1.65949 0
M  V30 2733 C 273.608 -0.207537 1.88058 0
M  V30 2734 O 272.951 -1.14781 1.43426 0
M  V30 2735 C 273.013 1.89768 3.05333 0
M  V30 2736 C 272.677 3.39106 3.0636 0
M  V30 2737 C 273.674 4.3496 2.84791 0
M  V30 2738 C 271.359 3.80693 3.27686 0
M  V30 2739 C 273.353 5.70375 2.84519 0
M  V30 2740 C 271.04 5.16223 3.27043 0
M  V30 2741 C 272.038 6.10875 3.05485 0
M  V30 2742 O 271.726 7.43928 3.04674 0
M  V30 2743 H 271.458 0.426685 0.524324 0
M  V30 2744 H 274.012 1.7329 1.10271 0
M  V30 2745 H 272.242 1.34082 3.6271 0
M  V30 2746 H 273.931 1.75853 3.65829 0
M  V30 2747 H 274.697 4.0416 2.68103 0
M  V30 2748 H 270.576 3.07457 3.43499 0
M  V30 2749 H 274.12 6.44228 2.67611 0
M  V30 2750 H 270.017 5.4666 3.43269 0
M  V30 2751 H 270.785 7.53022 3.2078 0
M  V30 2752 N 273.449 -1.08991 1.13837 0
M  V30 2753 C 274.674 -1.85551 0.926585 0
M  V30 2754 C 275.099 -1.80782 -0.519566 0
M  V30 2755 O 274.457 -1.18855 -1.36906 0
M  V30 2756 C 274.505 -3.31266 1.42462 0
M  V30 2757 O 273.609 -4.07822 0.612789 0
M  V30 2758 H 272.95 -0.575192 0.331738 0
M  V30 2759 H 275.48 -1.37604 1.51414 0
M  V30 2760 H 275.49 -3.82112 1.43019 0
M  V30 2761 H 274.165 -3.34052 2.47754 0
M  V30 2762 H 272.742 -3.66731 0.675463 0
M  V30 2763 N 274.927 -0.932562 -1.27047 0
M  V30 2764 C 275.857 -0.452902 -2.29066 0
M  V30 2765 C 276.838 0.489338 -1.62909 0
M  V30 2766 O 278.023 0.393046 -1.90181 0
M  V30 2767 C 275.153 0.290698 -3.46081 0
M  V30 2768 C 274.107 -0.564168 -4.24265 0
M  V30 2769 C 273.433 0.308886 -5.33807 0
M  V30 2770 C 274.733 -1.83112 -4.89149 0
M  V30 2771 H 276.427 -1.30552 -2.69437 0
M  V30 2772 H 273.973 -0.629201 -1.29526 0
M  V30 2773 H 275.926 0.637233 -4.16554 0
M  V30 2774 H 274.65 1.17738 -3.0464 0
M  V30 2775 H 273.309 -0.893477 -3.55545 0
M  V30 2776 H 272.957 1.19467 -4.88607 0
M  V30 2777 H 272.657 -0.259633 -5.87026 0
M  V30 2778 H 274.181 0.650884 -6.07121 0
M  V30 2779 H 275.595 -1.55236 -5.51883 0
M  V30 2780 H 273.992 -2.34353 -5.52448 0
M  V30 2781 H 275.062 -2.54772 -4.12576 0
M  V30 2782 N 276.405 1.4127 -0.698611 0
M  V30 2783 C 277.63 2.06024 -0.238512 0
M  V30 2784 C 278.055 1.5224 1.10475 0
M  V30 2785 O 277.413 0.650623 1.69223 0
M  V30 2786 C 277.461 3.59988 -0.209952 0
M  V30 2787 O 276.565 4.04282 0.814235 0
M  V30 2788 H 275.906 0.653829 -0.115775 0
M  V30 2789 H 278.436 1.8098 -0.954326 0
M  V30 2790 H 278.446 4.07979 -0.0418436 0
M  V30 2791 H 277.121 3.98503 -1.1903 0
M  V30 2792 H 275.698 3.6779 0.615234 0
M  V30 2793 N 277.883 0.443576 1.51229 0
M  V30 2794 C 279.108 -0.121648 2.07043 0
M  V30 2795 C 279.533 -1.35156 1.30823 0
M  V30 2796 O 278.891 -1.7793 0.347934 0
M  V30 2797 C 278.939 -0.41624 3.5819 0
M  V30 2798 O 278.043 -1.50163 3.8409 0
M  V30 2799 H 277.384 0.000871367 0.663999 0
M  V30 2800 H 279.914 0.626706 1.94765 0
M  V30 2801 H 279.924 -0.664867 4.02546 0
M  V30 2802 H 278.599 0.482653 4.1309 0
M  V30 2803 H 277.176 -1.24248 3.51592 0
M  V30 2804 N 279.361 -1.56624 0.175154 0
M  V30 2805 C 280.607 -1.9729 -0.469506 0
M  V30 2806 C 280.94 -1.06128 -1.62636 0
M  V30 2807 O 280.215 -0.109183 -1.94193 0
M  V30 2808 C 280.498 -3.47375 -0.948804 0
M  V30 2809 C 280.351 -4.49317 0.208491 0
M  V30 2810 C 281.67 -4.00652 -1.82116 0
M  V30 2811 H 278.789 -0.717317 -0.16919 0
M  V30 2812 H 281.431 -1.88184 0.262062 0
M  V30 2813 H 279.581 -3.55267 -1.57219 0
M  V30 2814 H 281.253 -4.53482 0.845682 0
M  V30 2815 H 279.496 -4.25121 0.863395 0
M  V30 2816 H 280.167 -5.51741 -0.169059 0
M  V30 2817 H 282.643 -3.95416 -1.2956 0
M  V30 2818 H 281.519 -5.06075 -2.12554 0
M  V30 2819 H 281.78 -3.44699 -2.7683 0
M  V30 2820 N 280.839 0.0985539 -1.57292 0
M  V30 2821 C 282.085 0.803867 -1.86188 0
M  V30 2822 C 282.418 1.78549 -0.763794 0
M  V30 2823 O 281.693 1.93153 0.22855 0
M  V30 2824 C 281.976 1.53568 -3.25713 0
M  V30 2825 C 281.829 0.572277 -4.46145 0
M  V30 2826 C 283.148 2.48708 -3.63087 0
M  V30 2827 H 280.267 0.290781 -0.677211 0
M  V30 2828 H 282.909 0.0675783 -1.8988 0
M  V30 2829 H 281.059 2.16332 -3.22696 0
M  V30 2830 H 282.731 -0.0480894 -4.61275 0
M  V30 2831 H 280.974 -0.114618 -4.33649 0
M  V30 2832 H 281.645 1.12139 -5.40489 0
M  V30 2833 H 284.121 1.96039 -3.67026 0
M  V30 2834 H 282.997 2.96932 -4.61652 0
M  V30 2835 H 283.258 3.32309 -2.91588 0
M  V30 2836 N 282.317 1.53212 0.369288 0
M  V30 2837 C 283.545 1.73119 1.13303 0
M  V30 2838 C 283.96 0.458455 1.83149 0
M  V30 2839 O 283.317 -0.568403 1.73423 0
M  V30 2840 C 283.368 2.89413 2.16616 0
M  V30 2841 O 283.089 4.11761 1.49614 0
M  V30 2842 C 284.59 3.21161 3.05566 0
M  V30 2843 H 281.81 0.579107 0.338934 0
M  V30 2844 H 284.354 1.99942 0.429338 0
M  V30 2845 H 282.509 2.64994 2.82589 0
M  V30 2846 H 282.923 4.76858 2.18419 0
M  V30 2847 H 284.397 4.05949 3.74045 0
M  V30 2848 H 284.874 2.36369 3.70171 0
M  V30 2849 H 285.48 3.47492 2.45213 0
M  V30 2850 N 283.795 -0.628877 1.44509 0
M  V30 2851 C 285.041 -1.39045 1.47629 0
M  V30 2852 C 285.374 -1.93892 0.109343 0
M  V30 2853 O 284.649 -1.7379 -0.87334 0
M  V30 2854 C 284.932 -2.55408 2.53848 0
M  V30 2855 C 284.785 -2.05896 3.99909 0
M  V30 2856 C 286.104 -3.5759 2.56549 0
M  V30 2857 H 283.223 -0.504232 0.537512 0
M  V30 2858 H 285.865 -0.710854 1.76201 0
M  V30 2859 H 284.015 -3.13384 2.29615 0
M  V30 2860 H 285.687 -1.52734 4.35282 0
M  V30 2861 H 283.93 -1.37061 4.11578 0
M  V30 2862 H 284.601 -2.89681 4.69882 0
M  V30 2863 H 287.077 -3.09419 2.78207 0
M  V30 2864 H 285.953 -4.36527 3.32769 0
M  V30 2865 H 286.214 -4.11808 1.60832 0
M  V30 2866 N 285.273 -1.31445 -0.869486 0
M  V30 2867 C 286.684 -1.19042 -1.43826 0
M  V30 2868 C 287.035 0.202919 -1.95148 0
M  V30 2869 O 286.16 1.10071 -1.86315 0
M  V30 2870 C 286.755 -2.15499 -2.6143 0
M  V30 2871 C 285.314 -2.07028 -3.14351 0
M  V30 2872 C 284.461 -2.04701 -1.87063 0
M  V30 2873 H 287.412 -1.43489 -0.677984 0
M  V30 2874 H 287.433 -1.74488 -3.38134 0
M  V30 2875 H 286.945 -3.16899 -2.24046 0
M  V30 2876 H 285.046 -1.08825 -3.56354 0
M  V30 2877 H 285.159 -2.96157 -3.766 0
M  V30 2878 H 283.523 -1.49724 -2.06046 0
M  V30 2879 H 284.306 -3.07857 -1.51917 0
M  V30 2880 N 286.751 1.08385 -1.14413 0
M  V30 2881 C 287.976 1.85057 -0.936413 0
M  V30 2882 C 288.401 1.81055 0.509971 0
M  V30 2883 O 287.759 1.1958 1.36273 0
M  V30 2884 C 287.807 3.30505 -1.44217 0
M  V30 2885 O 286.911 4.07491 -0.634409 0
M  V30 2886 H 286.252 0.573425 -0.334784 0
M  V30 2887 H 288.782 1.36799 -1.52142 0
M  V30 2888 H 288.792 3.81348 -1.45043 0
M  V30 2889 H 287.467 3.32734 -2.49522 0
M  V30 2890 H 286.044 3.66368 -0.694902 0
M  V30 2891 N 288.23 0.939286 1.26551 0
M  V30 2892 C 289.455 0.602008 1.98471 0
M  V30 2893 C 289.88 -0.815624 1.69497 0
M  V30 2894 O 289.238 -1.54912 0.941905 0
M  V30 2895 C 289.286 0.848407 3.50477 0
M  V30 2896 O 288.39 -0.0804009 4.12322 0
M  V30 2897 H 287.731 0.23049 0.622712 0
M  V30 2898 H 290.261 1.2617 1.61066 0
M  V30 2899 H 290.271 0.768553 4.00696 0
M  V30 2900 H 288.946 1.88171 3.70897 0
M  V30 2901 H 287.523 0.0503508 3.72866 0
M  V30 2902 N 289.708 -1.40897 0.706093 0
M  V30 2903 C 290.933 -2.05895 0.249435 0
M  V30 2904 C 291.358 -1.52823 -1.09666 0
M  V30 2905 O 290.716 -0.659589 -1.68876 0
M  V30 2906 C 290.764 -3.59872 0.22904 0
M  V30 2907 O 289.868 -4.04708 -0.792784 0
M  V30 2908 H 289.209 -0.653206 0.119241 0
M  V30 2909 H 291.739 -1.80471 0.96391 0
M  V30 2910 H 291.749 -4.07951 0.0634791 0
M  V30 2911 H 290.424 -3.97866 1.21141 0
M  V30 2912 H 289.001 -3.68111 -0.59572 0
M  V30 2913 N 291.186 -0.45159 -1.50991 0
M  V30 2914 C 292.116 0.342898 -2.30969 0
M  V30 2915 C 293.097 1.00815 -1.37005 0
M  V30 2916 O 294.282 1.00907 -1.65926 0
M  V30 2917 C 291.412 1.43637 -3.16205 0
M  V30 2918 C 290.366 0.893818 -4.18563 0
M  V30 2919 C 289.692 2.08411 -4.92411 0
M  V30 2920 C 290.992 -0.0815568 -5.22236 0
M  V30 2921 H 292.686 -0.324556 -2.97636 0
M  V30 2922 H 290.232 -0.157531 -1.43136 0
M  V30 2923 H 292.185 1.9995 -3.70942 0
M  V30 2924 H 290.909 2.13232 -2.47386 0
M  V30 2925 H 289.568 0.352798 -3.64898 0
M  V30 2926 H 289.216 2.76658 -4.20082 0
M  V30 2927 H 288.916 1.72741 -5.61636 0
M  V30 2928 H 290.44 2.65251 -5.49976 0
M  V30 2929 H 291.854 0.391742 -5.7196 0
M  V30 2930 H 290.251 -0.351551 -5.99069 0
M  V30 2931 H 291.321 -1.01374 -4.74185 0
M  V30 2932 N 292.664 1.56529 -0.183458 0
M  V30 2933 C 293.912 1.96855 0.457452 0
M  V30 2934 C 294.233 1.07104 1.62953 0
M  V30 2935 O 293.503 0.139887 1.954 0
M  V30 2936 H 292.083 0.72693 0.171992 0
M  V30 2937 H 294.745 1.93056 -0.267476 0
M  V30 2938 H 293.841 3.01423 0.809368 0
M  V30 2939 N 294.142 -0.090211 1.57342 0
M  V30 2940 C 295.37 -0.806224 1.90546 0
M  V30 2941 C 295.785 -1.72041 0.777644 0
M  V30 2942 O 295.142 -1.80778 -0.250103 0
M  V30 2943 C 295.193 -1.61546 3.23396 0
M  V30 2944 O 294.914 -0.738043 4.31839 0
M  V30 2945 C 296.415 -2.4341 3.70495 0
M  V30 2946 H 293.635 -0.230256 0.630257 0
M  V30 2947 H 296.179 -0.0659843 2.04394 0
M  V30 2948 H 294.334 -2.30816 3.11131 0
M  V30 2949 H 294.748 -1.29901 5.08159 0
M  V30 2950 H 296.222 -2.95676 4.66133 0
M  V30 2951 H 296.699 -3.22098 2.98579 0
M  V30 2952 H 297.305 -1.79331 3.85643 0
M  V30 2953 N 295.62 -1.53406 -0.361157 0
M  V30 2954 C 296.552 -1.76446 -1.46286 0
M  V30 2955 C 297.565 -0.645322 -1.49464 0
M  V30 2956 O 298.754 -0.921681 -1.52864 0
M  V30 2957 C 295.854 -1.83332 -2.85031 0
M  V30 2958 C 295.027 -3.13033 -3.05498 0
M  V30 2959 C 294.086 -3.11104 -4.24383 0
M  V30 2960 O 293.112 -3.84888 -4.19344 0
M  V30 2961 N 294.314 -2.32234 -5.32022 0
M  V30 2962 H 297.079 -2.71508 -1.26899 0
M  V30 2963 H 294.64 -1.52238 -0.550915 0
M  V30 2964 H 296.632 -1.79514 -3.62708 0
M  V30 2965 H 295.202 -0.955342 -2.97644 0
M  V30 2966 H 294.422 -3.30119 -2.15442 0
M  V30 2967 H 295.71 -3.9874 -3.16044 0
M  V30 2968 H 295.108 -1.71807 -5.38979 0
M  V30 2969 H 293.665 -2.3423 -6.08259 0
M  V30 2970 N 297.098 0.621204 -1.44841 0
M  V30 2971 C 298.326 1.40752 -1.51646 0
M  V30 2972 C 298.741 1.88246 -0.144549 0
M  V30 2973 O 298.098 1.61422 0.851416 0
M  V30 2974 C 298.149 2.62119 -2.4895 0
M  V30 2975 O 297.87 2.16602 -3.80808 0
M  V30 2976 C 299.371 3.55135 -2.65319 0
M  V30 2977 H 296.591 0.431325 -0.514004 0
M  V30 2978 H 299.135 0.758835 -1.899 0
M  V30 2979 H 297.29 3.23058 -2.13805 0
M  V30 2980 H 297.704 2.95358 -4.33433 0
M  V30 2981 H 299.178 4.36874 -3.37409 0
M  V30 2982 H 299.655 4.04592 -1.70886 0
M  V30 2983 H 300.261 3.00058 -3.01405 0
M  V30 2984 N 298.576 1.31904 0.862503 0
M  V30 2985 C 299.806 1.24817 1.64634 0
M  V30 2986 C 300.214 -0.187579 1.88268 0
M  V30 2987 O 299.557 -1.13253 1.44635 0
M  V30 2988 C 299.619 1.92996 3.03303 0
M  V30 2989 C 299.283 3.42336 3.02746 0
M  V30 2990 C 300.28 4.37956 2.80162 0
M  V30 2991 C 297.965 3.84147 3.2363 0
M  V30 2992 C 299.959 5.73361 2.78453 0
M  V30 2993 C 297.646 5.19663 3.21549 0
M  V30 2994 C 298.644 6.14081 2.98988 0
M  V30 2995 O 298.332 7.47118 2.96766 0
M  V30 2996 H 298.064 0.432222 0.519769 0
M  V30 2997 H 300.618 1.7445 1.08427 0
M  V30 2998 H 298.848 1.37922 3.61268 0
M  V30 2999 H 300.537 1.79723 3.63943 0
M  V30 3000 H 301.303 4.06981 2.63802 0
M  V30 3001 H 297.182 3.11083 3.40218 0
M  V30 3002 H 300.726 6.4703 2.60763 0
M  V30 3003 H 296.623 5.5027 3.37451 0
M  V30 3004 H 297.391 7.56382 3.12775 0
M  V30 3005 N 300.054 -1.07777 1.14986 0
M  V30 3006 C 301.303 -1.79669 0.916617 0
M  V30 3007 C 301.616 -1.87474 -0.557917 0
M  V30 3008 O 302.822 -2.55845 -0.908617 0
M  V30 3009 C 301.278 -3.22848 1.59051 0
M  V30 3010 C 300.886 -3.23257 3.10176 0
M  V30 3011 C 302.63 -3.99379 1.43864 0
M  V30 3012 C 300.537 -4.61063 3.70372 0
M  V30 3013 H 299.467 -0.673349 0.33929 0
M  V30 3014 H 302.118 -1.21003 1.37951 0
M  V30 3015 H 300.5 -3.8168 1.0553 0
M  V30 3016 H 301.674 -2.74095 3.70417 0
M  V30 3017 H 299.989 -2.60222 3.25074 0
M  V30 3018 H 302.586 -5.0122 1.86232 0
M  V30 3019 H 302.929 -4.14511 0.385564 0
M  V30 3020 H 303.462 -3.47032 1.94457 0
M  V30 3021 H 300.201 -4.51135 4.7556 0
M  V30 3022 H 299.721 -5.1048 3.14913 0
M  V30 3023 H 301.4 -5.30034 3.71043 0
M  V30 3024 N 301.532 -0.945985 -1.26051 0
M  V30 3025 C 302.772 -0.603665 -1.95282 0
M  V30 3026 C 303.136 0.842377 -1.72534 0
M  V30 3027 O 304.337 1.29387 -2.35611 0
M  V30 3028 C 302.608 -0.942292 -3.44754 0
M  V30 3029 S 304.167 -0.711242 -4.32997 0
M  V30 3030 H 300.985 -0.222176 -0.675395 0
M  V30 3031 H 303.587 -1.21832 -1.52896 0
M  V30 3032 H 302.291 -1.99203 -3.58812 0
M  V30 3033 H 301.822 -0.317546 -3.92116 0
M  V30 3034 H 303.837 0.422221 -4.944 0
M  V30 3035 N 303.011 1.40521 -0.713556 0
M  V30 3036 C 303.959 2.32549 -0.0485227 0
M  V30 3037 C 304.953 1.51931 0.74922 0
M  V30 3038 O 306.159 1.67745 0.652816 0
M  V30 3039 H 302.534 0.751994 0.00311138 0
M  V30 3040 H 304.505 2.86291 -0.841443 0
M  V30 3041 C 303.254 3.36879 0.860687 0
M  V30 3042 H 302.577 3.98978 0.256246 0
M  V30 3043 H 304.017 4.03772 1.294 0
M  V30 3044 C 302.476 2.72197 1.9852 0
M  V30 3045 O 303.006 2.5837 3.07584 0
M  V30 3046 N 301.212 2.30612 1.76823 0
M  V30 3047 H 300.759 2.42059 0.881217 0
M  V30 3048 H 300.717 1.87672 2.52243 0
M  V30 3049 N 304.489 0.459591 1.5075 0
M  V30 3050 C 305.735 -0.0994966 2.02556 0
M  V30 3051 C 306.068 -1.40399 1.3417 0
M  V30 3052 O 305.343 -1.88892 0.463683 0
M  V30 3053 C 305.626 -0.295242 3.58888 0
M  V30 3054 C 305.479 1.02947 4.37861 0
M  V30 3055 C 306.798 -1.05502 4.27267 0
M  V30 3056 H 303.917 -0.034686 0.736183 0
M  V30 3057 H 306.559 0.602938 1.8018 0
M  V30 3058 H 304.709 -0.893563 3.78084 0
M  V30 3059 H 306.381 1.66348 4.30263 0
M  V30 3060 H 304.624 1.62885 4.02058 0
M  V30 3061 H 305.295 0.846281 5.45474 0
M  V30 3062 H 307.771 -0.547993 4.12476 0
M  V30 3063 H 306.647 -1.16077 5.36486 0
M  V30 3064 H 306.908 -2.08875 3.89645 0
M  V30 3065 N 305.967 -1.56429 0.191757 0
M  V30 3066 C 306.915 -2.20273 -0.747174 0
M  V30 3067 C 307.909 -1.17288 -1.22229 0
M  V30 3068 O 309.115 -1.35441 -1.18557 0
M  V30 3069 H 305.49 -0.705885 -0.259289 0
M  V30 3070 H 307.461 -2.97826 -0.184963 0
M  V30 3071 C 306.21 -2.87356 -1.95759 0
M  V30 3072 H 305.533 -3.66341 -1.60106 0
M  V30 3073 H 306.973 -3.3547 -2.59299 0
M  V30 3074 C 305.432 -1.88213 -2.79423 0
M  V30 3075 O 305.962 -1.38033 -3.7724 0
M  V30 3076 N 304.168 -1.56516 -2.44849 0
M  V30 3077 H 303.715 -1.97516 -1.65364 0
M  V30 3078 H 303.673 -0.904369 -3.01112 0
M  V30 3079 N 307.445 0.0818655 -1.57387 0
M  V30 3080 C 308.395 1.10501 -1.99433 0
M  V30 3081 C 309.379 1.35041 -0.874798 0
M  V30 3082 O 310.571 1.35511 -1.13868 0
M  V30 3083 C 307.7 2.42159 -2.43339 0
M  V30 3084 C 306.786 2.20937 -3.62005 0
M  V30 3085 N 307.177 1.69616 -4.76512 0
M  V30 3086 C 305.475 2.51451 -3.68359 0
M  V30 3087 C 306.176 1.62973 -5.58404 0
M  V30 3088 N 305.152 2.08664 -5.01956 0
M  V30 3089 H 308.954 0.701373 -2.85408 0
M  V30 3090 H 306.468 0.289096 -1.59806 0
M  V30 3091 H 308.465 3.16208 -2.71695 0
M  V30 3092 H 307.125 2.83249 -1.58746 0
M  V30 3093 H 308.136 1.38624 -4.99003 0
M  V30 3094 H 304.813 2.95975 -2.94457 0
M  V30 3095 H 306.203 1.24233 -6.60315 0
M  V30 3096 N 308.923 1.53595 0.353017 0
M  V30 3097 C 309.87 1.80919 1.43308 0
M  V30 3098 C 310.84 0.654288 1.5267 0
M  V30 3099 O 312.025 0.897759 1.6836 0
M  V30 3100 C 309.165 2.01605 2.80089 0
M  V30 3101 C 308.278 3.29321 2.79593 0
M  V30 3102 C 307.413 3.40125 4.0803 0
M  V30 3103 C 306.452 4.61826 4.01725 0
M  V30 3104 N 305.589 4.69716 5.21834 0
M  V30 3105 H 310.429 2.73074 1.19308 0
M  V30 3106 H 307.966 1.35263 0.578131 0
M  V30 3107 H 309.924 2.11586 3.59565 0
M  V30 3108 H 308.554 1.12772 3.0246 0
M  V30 3109 H 307.606 3.28229 1.92276 0
M  V30 3110 H 308.918 4.18884 2.70809 0
M  V30 3111 H 308.072 3.49488 4.95927 0
M  V30 3112 H 306.811 2.48601 4.19582 0
M  V30 3113 H 305.816 4.52552 3.12213 0
M  V30 3114 H 307.041 5.54705 3.91764 0
M  V30 3115 H 304.987 3.81097 5.33948 0
M  V30 3116 H 304.904 5.53202 5.1527 0
M  V30 3117 H 306.172 4.83376 6.11529 0
M  V30 3118 N 310.401 -0.613514 1.45168 0
M  V30 3119 C 311.812 -1.19539 1.43413 0
M  V30 3120 C 312.163 -1.95558 0.158632 0
M  V30 3121 O 311.288 -2.0335 -0.740119 0
M  V30 3122 C 311.883 -2.17445 2.59813 0
M  V30 3123 C 310.442 -2.71022 2.61197 0
M  V30 3124 C 309.589 -1.46323 2.35552 0
M  V30 3125 H 312.54 -0.403163 1.53494 0
M  V30 3126 H 312.561 -3.00373 2.33574 0
M  V30 3127 H 312.073 -1.62089 3.52631 0
M  V30 3128 H 310.174 -3.30332 1.7237 0
M  V30 3129 H 310.287 -3.15859 3.60236 0
M  V30 3130 H 308.651 -1.75072 1.84992 0
M  V30 3131 H 309.434 -0.92844 3.30507 0
M  V30 3132 N 311.879 -1.3236 -0.855495 0
M  V30 3133 C 313.104 -1.2601 -1.64731 0
M  V30 3134 C 313.529 0.169068 -1.87339 0
M  V30 3135 O 312.887 1.12016 -1.42556 0
M  V30 3136 C 312.935 -2.02417 -2.98429 0
M  V30 3137 O 312.039 -1.3714 -3.8893 0
M  V30 3138 H 311.38 -0.434325 -0.502253 0
M  V30 3139 H 313.91 -1.74661 -1.06558 0
M  V30 3140 H 313.92 -2.12559 -3.48257 0
M  V30 3141 H 312.595 -3.06343 -2.81295 0
M  V30 3142 H 311.172 -1.3554 -3.47395 0
M  V30 3143 N 313.357 1.07166 -1.15556 0
M  V30 3144 C 314.305 2.16517 -0.8499 0
M  V30 3145 C 315.299 1.68468 0.177454 0
M  V30 3146 O 316.505 1.79971 0.0323026 0
M  V30 3147 H 312.88 0.706652 -0.25719 0
M  V30 3148 H 314.851 2.39514 -1.77976 0
M  V30 3149 C 313.6 3.45855 -0.357682 0
M  V30 3150 H 312.923 3.83214 -1.13961 0
M  V30 3151 H 314.363 4.23607 -0.182489 0
M  V30 3152 C 312.822 3.24062 0.921152 0
M  V30 3153 O 313.352 3.48813 1.9923 0
M  V30 3154 N 311.558 2.77539 0.86141 0
M  V30 3155 H 311.105 2.57598 -0.0104408 0
M  V30 3156 H 311.063 2.63337 1.71758 0
M  V30 3157 N 314.835 0.952656 1.25548 0
M  V30 3158 C 316.063 0.623496 1.97282 0
M  V30 3159 C 316.478 -0.803987 1.70826 0
M  V30 3160 O 315.835 -1.53755 0.983147 0
M  V30 3161 C 315.886 0.870209 3.5087 0
M  V30 3162 O 315.607 2.24156 3.76412 0
M  V30 3163 C 317.108 0.553164 4.39835 0
M  V30 3164 H 314.328 0.233931 0.628902 0
M  V30 3165 H 316.872 1.27649 1.59768 0
M  V30 3166 H 315.027 0.263652 3.86502 0
M  V30 3167 H 315.441 2.31021 4.70882 0
M  V30 3168 H 316.915 0.776342 5.46513 0
M  V30 3169 H 317.392 -0.512215 4.36203 0
M  V30 3170 H 317.998 1.13896 4.09766 0
M  V30 3171 N 316.313 -1.40141 0.720998 0
M  V30 3172 C 317.26 -2.30688 0.071919 0
M  V30 3173 C 318.23 -1.48476 -0.744584 0
M  V30 3174 O 319.415 -1.77201 -0.707423 0
M  V30 3175 C 316.555 -3.34724 -0.839855 0
M  V30 3176 C 315.668 -4.31998 -0.0122438 0
M  V30 3177 C 314.803 -5.23102 -0.923995 0
M  V30 3178 C 313.842 -6.12033 -0.0907969 0
M  V30 3179 N 312.979 -6.95537 -0.957718 0
M  V30 3180 H 317.819 -2.85628 0.849755 0
M  V30 3181 H 315.356 -1.40653 0.430726 0
M  V30 3182 H 317.314 -3.93618 -1.38279 0
M  V30 3183 H 315.944 -2.81274 -1.58381 0
M  V30 3184 H 314.996 -3.74841 0.64794 0
M  V30 3185 H 316.308 -4.94772 0.632595 0
M  V30 3186 H 315.462 -5.86953 -1.53527 0
M  V30 3187 H 314.201 -4.60615 -1.60264 0
M  V30 3188 H 313.206 -5.47207 0.533377 0
M  V30 3189 H 314.431 -6.76581 0.584428 0
M  V30 3190 H 312.377 -6.35633 -1.62192 0
M  V30 3191 H 312.294 -7.55099 -0.36904 0
M  V30 3192 H 313.562 -7.63832 -1.555 0
M  V30 3193 N 317.792 -0.46758 -1.50504 0
M  V30 3194 C 319.038 0.0887532 -2.02606 0
M  V30 3195 C 319.371 1.39686 -1.34913 0
M  V30 3196 O 318.646 1.88644 -0.473694 0
M  V30 3197 C 318.929 0.276206 -3.59039 0
M  V30 3198 C 318.782 -1.05267 -4.37309 0
M  V30 3199 C 320.101 1.03235 -4.27821 0
M  V30 3200 H 317.22 0.0307814 -0.736357 0
M  V30 3201 H 319.862 -0.612485 -1.79857 0
M  V30 3202 H 318.012 0.8735 -3.78553 0
M  V30 3203 H 319.684 -1.68628 -4.29374 0
M  V30 3204 H 317.927 -1.65015 -4.01189 0
M  V30 3205 H 318.598 -0.875197 -5.45018 0
M  V30 3206 H 321.074 0.526111 -4.12761 0
M  V30 3207 H 319.95 1.1323 -5.37094 0
M  V30 3208 H 320.211 2.06806 -3.90748 0
M  V30 3209 N 319.27 1.56325 -0.20005 0
M  V30 3210 C 320.547 1.89484 0.48529 0
M  V30 3211 C 320.927 1.1143 1.79294 0
M  V30 3212 O 320.275 0.216919 2.27468 0
M  V30 3213 C 320.485 3.41923 0.699243 0
M  V30 3214 C 321.833 4.12256 1.01638 0
M  V30 3215 O 322.857 3.47402 0.786792 0
M  V30 3216 O 321.716 5.26887 1.45095 0
M  V30 3217 H 318.81 0.787144 0.253639 0
M  V30 3218 H 321.356 1.67985 -0.240633 0
M  V30 3219 H 320.128 3.90658 -0.224008 0
M  V30 3220 H 319.751 3.69131 1.47744 0
M  V30 3221 N 320.748 -0.0735177 1.57428 0
M  V30 3222 C 321.695 -1.08756 2.0357 0
M  V30 3223 C 322.665 -1.38559 0.916 0
M  V30 3224 O 323.85 -1.49656 1.18354 0
M  V30 3225 C 320.99 -2.39657 2.48311 0
M  V30 3226 C 320.103 -2.16399 3.73892 0
M  V30 3227 C 319.238 -3.40852 4.07423 0
M  V30 3228 C 318.277 -3.1295 5.2605 0
M  V30 3229 N 317.414 -4.29729 5.55228 0
M  V30 3230 H 322.254 -0.687104 2.8997 0
M  V30 3231 H 319.791 -0.327709 1.43403 0
M  V30 3232 H 321.749 -3.16081 2.72303 0
M  V30 3233 H 320.379 -2.77508 1.64891 0
M  V30 3234 H 319.431 -1.30676 3.57251 0
M  V30 3235 H 320.743 -1.91788 4.60455 0
M  V30 3236 H 319.897 -4.25671 4.32306 0
M  V30 3237 H 318.636 -3.68537 3.19425 0
M  V30 3238 H 317.641 -2.26526 5.00965 0
M  V30 3239 H 318.866 -2.86589 6.15665 0
M  V30 3240 H 316.812 -4.57448 4.70188 0
M  V30 3241 H 316.729 -4.08385 6.36206 0
M  V30 3242 H 317.997 -5.1555 5.84661 0
M  V30 3243 N 322.226 -1.5378 -0.344866 0
M  V30 3244 C 323.642 -1.44015 -0.687888 0
M  V30 3245 C 323.842 -0.595834 -1.92489 0
M  V30 3246 O 322.898 -0.0863064 -2.52352 0
M  V30 3247 C 324.211 -2.87481 -0.881758 0
M  V30 3248 C 325.759 -2.97247 -0.980459 0
M  V30 3249 C 326.234 -4.41819 -1.20665 0
M  V30 3250 N 327.725 -4.45339 -1.27389 0
M  V30 3251 C 328.46 -5.54333 -1.46639 0
M  V30 3252 N 327.956 -6.73335 -1.63071 0
M  V30 3253 N 329.749 -5.41944 -1.49176 0
M  V30 3254 H 321.9 -2.07169 0.468475 0
M  V30 3255 H 324.163 -0.93643 0.147655 0
M  V30 3256 H 323.869 -3.51672 -0.0443444 0
M  V30 3257 H 323.743 -3.32352 -1.78388 0
M  V30 3258 H 326.13 -2.33197 -1.8084 0
M  V30 3259 H 326.211 -2.5574 -0.0552713 0
M  V30 3260 H 325.855 -5.06449 -0.383652 0
M  V30 3261 H 325.785 -4.80917 -2.14539 0
M  V30 3262 H 328.276 -3.59585 -1.1622 0
M  V30 3263 H 328.589 -7.52165 -1.77391 0
M  V30 3264 H 326.934 -6.76282 -1.60209 0
M  V30 3265 H 330.125 -4.47932 -1.3592 0
M  V30 3266 H 330.298 -6.26946 -1.63837 0
M  V30 3267 N 323.704 0.605807 -1.45491 0
M  V30 3268 C 324.95 1.36679 -1.49823 0
M  V30 3269 C 325.283 1.93693 -0.140175 0
M  V30 3270 O 324.558 1.75158 0.845581 0
M  V30 3271 C 324.841 2.51337 -2.57879 0
M  V30 3272 C 324.694 1.99508 -4.03134 0
M  V30 3273 C 326.013 3.53463 -2.62205 0
M  V30 3274 H 323.132 0.495617 -0.545466 0
M  V30 3275 H 325.774 0.682732 -1.7731 0
M  V30 3276 H 323.924 3.09691 -2.34571 0
M  V30 3277 H 325.596 1.45789 -4.37656 0
M  V30 3278 H 323.839 1.30496 -4.13707 0
M  V30 3279 H 324.51 2.82169 -4.74431 0
M  V30 3280 H 326.986 3.04953 -2.83095 0
M  V30 3281 H 325.862 4.31178 -3.39672 0
M  V30 3282 H 326.123 4.09197 -1.67363 0
M  V30 3283 N 325.182 1.32811 0.848464 0
M  V30 3284 C 326.092 1.24278 1.98978 0
M  V30 3285 C 327.108 0.155176 1.73307 0
M  V30 3286 O 328.284 0.376999 1.9784 0
M  V30 3287 C 325.349 0.972444 3.32783 0
M  V30 3288 C 324.41 2.14911 3.71634 0
M  V30 3289 C 323.643 1.89157 4.99054 0
M  V30 3290 O 323.866 0.837165 5.64223 0
M  V30 3291 O 322.8 2.75433 5.35183 0
M  V30 3292 H 326.626 2.20238 2.09115 0
M  V30 3293 H 324.211 1.12762 0.980052 0
M  V30 3294 H 326.093 0.838432 4.12975 0
M  V30 3295 H 324.768 0.043051 3.23671 0
M  V30 3296 H 323.675 2.33862 2.91992 0
M  V30 3297 H 325.008 3.06151 3.85399 0
M  V30 3298 N 326.66 -1.06551 1.16123 0
M  V30 3299 C 328.071 -1.60768 0.949232 0
M  V30 3300 C 328.422 -1.89523 -0.507508 0
M  V30 3301 O 327.547 -1.66671 -1.38021 0
M  V30 3302 C 328.142 -2.92086 1.71671 0
M  V30 3303 C 326.701 -3.43015 1.54977 0
M  V30 3304 C 325.848 -2.16947 1.72711 0
M  V30 3305 H 328.799 -0.895354 1.31031 0
M  V30 3306 H 328.82 -3.6138 1.19099 0
M  V30 3307 H 328.332 -2.71127 2.7769 0
M  V30 3308 H 326.433 -3.69039 0.513873 0
M  V30 3309 H 326.546 -4.18516 2.33198 0
M  V30 3310 H 324.91 -2.27041 1.15431 0
M  V30 3311 H 325.693 -1.98473 2.80113 0
M  V30 3312 N 328.138 -0.959301 -1.25041 0
M  V30 3313 C 329.085 -0.482057 -2.2571 0
M  V30 3314 C 330.055 0.467939 -1.59372 0
M  V30 3315 O 331.24 0.380159 -1.86974 0
M  V30 3316 C 328.38 0.229623 -3.44335 0
M  V30 3317 C 327.493 -0.758156 -4.25295 0
M  V30 3318 C 326.628 -0.0234403 -5.31195 0
M  V30 3319 C 325.667 -1.00184 -6.03846 0
M  V30 3320 N 324.804 -0.29769 -7.01469 0
M  V30 3321 H 329.644 -1.34538 -2.65901 0
M  V30 3322 H 327.181 -0.674592 -1.3072 0
M  V30 3323 H 329.139 0.658856 -4.11965 0
M  V30 3324 H 327.769 1.05696 -3.05005 0
M  V30 3325 H 326.821 -1.30586 -3.57284 0
M  V30 3326 H 328.133 -1.50458 -4.75567 0
M  V30 3327 H 327.287 0.464201 -6.04922 0
M  V30 3328 H 326.026 0.755741 -4.81809 0
M  V30 3329 H 325.031 -1.50044 -5.2893 0
M  V30 3330 H 326.256 -1.78133 -6.55321 0
M  V30 3331 H 324.202 0.462668 -6.54366 0
M  V30 3332 H 324.119 -0.983128 -7.4958 0
M  V30 3333 H 325.387 0.16826 -7.79318 0
M  V30 3334 N 329.616 1.39756 -0.72842 0
M  V30 3335 C 330.841 2.05472 -0.282159 0
M  V30 3336 C 331.266 1.54549 1.07221 0
M  V30 3337 O 330.624 0.686372 1.67805 0
M  V30 3338 C 330.672 3.59462 -0.286264 0
M  V30 3339 O 329.776 4.05918 0.728298 0
M  V30 3340 H 329.117 0.651226 -0.129618 0
M  V30 3341 H 331.647 1.78915 -0.992499 0
M  V30 3342 H 331.657 4.07798 -0.128373 0
M  V30 3343 H 330.332 3.95889 -1.27456 0
M  V30 3344 H 328.909 3.69012 0.537081 0
M  V30 3345 N 331.094 0.475555 1.50254 0
M  V30 3346 C 332.334 -0.0765802 2.04256 0
M  V30 3347 C 332.698 -1.36587 1.34937 0
M  V30 3348 O 333.899 -2.00066 1.79519 0
M  V30 3349 C 332.17 -0.251668 3.56513 0
M  V30 3350 S 333.729 -0.761716 4.32138 0
M  V30 3351 H 330.547 -0.0138456 0.710865 0
M  V30 3352 H 333.149 0.643714 1.84598 0
M  V30 3353 H 331.853 0.692404 4.04517 0
M  V30 3354 H 331.384 -0.997946 3.80532 0
M  V30 3355 H 333.399 -2.03451 4.52573 0
M  V30 3356 N 332.573 -1.56217 0.208337 0
M  V30 3357 C 333.85 -1.89739 -0.475234 0
M  V30 3358 C 334.23 -1.1238 -1.78701 0
M  V30 3359 O 333.578 -0.228979 -2.2735 0
M  V30 3360 C 333.788 -3.42289 -0.681101 0
M  V30 3361 C 335.136 -4.12789 -0.994507 0
M  V30 3362 O 336.16 -3.47814 -0.768357 0
M  V30 3363 O 335.019 -5.27649 -1.42299 0
M  V30 3364 H 332.113 -0.788478 -0.249461 0
M  V30 3365 H 334.659 -1.67855 0.249538 0
M  V30 3366 H 333.431 -3.90534 0.244722 0
M  V30 3367 H 333.054 -3.69909 -1.45785 0
M  V30 3368 N 334.051 0.0651679 -1.57465 0
M  V30 3369 C 334.998 1.07675 -2.04144 0
M  V30 3370 C 335.968 1.38071 -0.923335 0
M  V30 3371 O 337.153 1.49026 -1.19146 0
M  V30 3372 C 334.293 2.38337 -2.49579 0
M  V30 3373 C 333.406 2.14413 -3.75035 0
M  V30 3374 C 332.541 3.38686 -4.09225 0
M  V30 3375 C 331.58 3.10156 -5.27702 0
M  V30 3376 N 330.717 4.26778 -5.57499 0
M  V30 3377 H 335.557 0.671716 -2.90331 0
M  V30 3378 H 333.094 0.3201 -1.43575 0
M  V30 3379 H 335.052 3.14632 -2.73975 0
M  V30 3380 H 333.682 2.7663 -1.6636 0
M  V30 3381 H 332.734 1.2878 -3.57939 0
M  V30 3382 H 334.046 1.89344 -4.61466 0
M  V30 3383 H 333.2 4.23373 -4.34558 0
M  V30 3384 H 331.939 3.66837 -3.21374 0
M  V30 3385 H 330.944 2.23866 -5.02159 0
M  V30 3386 H 332.169 2.8332 -6.17176 0
M  V30 3387 H 330.115 4.54948 -4.72608 0
M  V30 3388 H 330.032 4.05005 -6.38362 0
M  V30 3389 H 331.3 5.12443 -5.87386 0
M  V30 3390 N 335.529 1.53961 0.336706 0
M  V30 3391 C 336.757 1.75483 1.09605 0
M  V30 3392 C 337.172 0.4972 1.82136 0
M  V30 3393 O 336.529 -0.53149 1.74589 0
M  V30 3394 C 336.58 2.93943 2.10428 0
M  V30 3395 O 336.301 4.14842 1.40846 0
M  V30 3396 C 337.802 3.27571 2.98684 0
M  V30 3397 H 335.022 0.586166 0.326574 0
M  V30 3398 H 337.566 2.00808 0.38683 0
M  V30 3399 H 335.721 2.70929 2.76905 0
M  V30 3400 H 336.135 4.81383 2.08255 0
M  V30 3401 H 337.609 4.13791 3.6535 0
M  V30 3402 H 338.086 2.44168 3.65074 0
M  V30 3403 H 338.692 3.52615 2.37787 0
M  V30 3404 N 337.007 -0.598083 1.45811 0
M  V30 3405 C 337.957 -1.70272 1.51629 0
M  V30 3406 C 338.941 -1.56382 0.378629 0
M  V30 3407 O 340.133 -1.65557 0.626087 0
M  V30 3408 C 337.262 -3.09042 1.49493 0
M  V30 3409 C 336.348 -3.28284 2.68496 0
M  V30 3410 N 336.739 -3.17748 3.93535 0
M  V30 3411 C 335.037 -3.59182 2.64394 0
M  V30 3412 C 335.738 -3.38579 4.7301 0
M  V30 3413 N 334.714 -3.63016 4.04624 0
M  V30 3414 H 338.516 -1.60634 2.46118 0
M  V30 3415 H 336.03 -0.801642 1.41235 0
M  V30 3416 H 338.027 -3.88302 1.51747 0
M  V30 3417 H 336.687 -3.19823 0.560683 0
M  V30 3418 H 337.698 -2.95944 4.25014 0
M  V30 3419 H 334.375 -3.76742 1.79922 0
M  V30 3420 H 335.765 -3.35747 5.82 0
M  V30 3421 N 338.485 -1.33259 -0.841409 0
M  V30 3422 C 339.713 -1.27605 -1.62864 0
M  V30 3423 C 340.128 0.153507 -1.88175 0
M  V30 3424 O 339.485 1.09485 -1.46011 0
M  V30 3425 C 339.536 -2.04596 -2.98031 0
M  V30 3426 O 339.257 -3.41975 -2.73834 0
M  V30 3427 C 340.758 -2.06122 -3.92465 0
M  V30 3428 H 337.978 -0.439718 -0.506842 0
M  V30 3429 H 340.522 -1.75591 -1.04824 0
M  V30 3430 H 338.677 -1.60299 -3.5268 0
M  V30 3431 H 339.091 -3.81549 -3.59889 0
M  V30 3432 H 340.565 -2.64451 -4.84531 0
M  V30 3433 H 341.042 -1.05083 -4.26444 0
M  V30 3434 H 341.648 -2.50427 -3.43753 0
M  V30 3435 N 339.963 1.05934 -1.16686 0
M  V30 3436 C 341.203 1.80382 -0.961345 0
M  V30 3437 C 341.567 1.85331 0.501643 0
M  V30 3438 O 342.768 2.55795 0.825986 0
M  V30 3439 C 341.039 3.20777 -1.57596 0
M  V30 3440 S 342.598 4.11795 -1.51559 0
M  V30 3441 H 339.416 0.621332 -0.345641 0
M  V30 3442 H 342.018 1.27157 -1.48497 0
M  V30 3443 H 340.722 3.14773 -2.63337 0
M  V30 3444 H 340.253 3.79078 -1.05182 0
M  V30 3445 H 342.268 4.93485 -0.518374 0
M  V30 3446 N 341.441 0.965919 1.2453 0
M  V30 3447 C 342.852 0.665929 1.7442 0
M  V30 3448 C 343.203 -0.818407 1.78316 0
M  V30 3449 O 342.328 -1.64037 1.41141 0
M  V30 3450 C 342.923 1.20211 3.16757 0
M  V30 3451 C 341.482 0.952059 3.6416 0
M  V30 3452 C 340.629 1.33848 2.42858 0
M  V30 3453 H 343.58 1.14144 1.10258 0
M  V30 3454 H 343.601 0.567544 3.76244 0
M  V30 3455 H 343.113 2.28244 3.13889 0
M  V30 3456 H 341.214 -0.112821 3.72429 0
M  V30 3457 H 341.327 1.59645 4.51719 0
M  V30 3458 H 339.691 0.756864 2.43195 0
M  V30 3459 H 340.474 2.42827 2.42673 0
M  V30 3460 N 342.919 -1.39368 0.735821 0
M  V30 3461 C 344.33 -1.83313 0.354015 0
M  V30 3462 C 344.681 -1.61461 -1.11466 0
M  V30 3463 O 343.806 -1.10621 -1.85989 0
M  V30 3464 C 344.401 -3.32781 0.635769 0
M  V30 3465 C 342.96 -3.75142 0.307448 0
M  V30 3466 C 342.107 -2.62358 0.897974 0
M  V30 3467 H 345.058 -1.28349 0.933398 0
M  V30 3468 H 345.079 -3.80388 -0.0921773 0
M  V30 3469 H 344.591 -3.48654 1.70476 0
M  V30 3470 H 342.692 -3.64857 -0.755674 0
M  V30 3471 H 342.805 -4.72532 0.790583 0
M  V30 3472 H 341.169 -2.52624 0.324551 0
M  V30 3473 H 341.952 -2.81036 1.97164 0
M  V30 3474 N 344.397 -0.483516 -1.5 0
M  V30 3475 C 345.637 0.0657469 -2.04294 0
M  V30 3476 C 346.001 1.35869 -1.35659 0
M  V30 3477 O 347.202 1.99111 -1.80578 0
M  V30 3478 C 345.473 0.232758 -3.56641 0
M  V30 3479 S 347.032 0.738788 -4.32536 0
M  V30 3480 H 343.85 0.0100755 -0.710929 0
M  V30 3481 H 346.452 -0.653494 -1.84254 0
M  V30 3482 H 345.156 -0.713847 -4.04144 0
M  V30 3483 H 344.687 0.977751 -3.81056 0
M  V30 3484 H 346.702 2.01048 -4.53645 0
M  V30 3485 N 345.875 1.56104 -0.216619 0
M  V30 3486 C 347.286 1.844 0.292128 0
M  V30 3487 C 347.637 1.13788 1.59833 0
M  V30 3488 O 346.762 0.405888 2.12559 0
M  V30 3489 C 347.357 3.3452 0.53681 0
M  V30 3490 C 345.916 3.63151 0.989876 0
M  V30 3491 C 345.063 2.77255 0.0502302 0
M  V30 3492 H 348.014 1.52481 -0.439926 0
M  V30 3493 H 348.035 3.54459 1.38345 0
M  V30 3494 H 347.547 3.85885 -0.414031 0
M  V30 3495 H 345.648 3.17238 1.95425 0
M  V30 3496 H 345.761 4.71177 0.867698 0
M  V30 3497 H 344.125 2.48555 0.556117 0
M  V30 3498 H 344.908 3.31416 -0.89544 0
M  V30 3499 N 347.353 -0.0568162 1.57498 0
M  V30 3500 C 348.316 -1.05038 2.03715 0
M  V30 3501 C 349.316 -1.30709 0.936577 0
M  V30 3502 O 350.506 -1.26178 1.20103 0
M  V30 3503 C 347.638 -2.39034 2.43055 0
M  V30 3504 H 348.831 -0.651715 2.92733 0
M  V30 3505 H 346.384 -0.302947 1.53336 0
M  V30 3506 H 347.119 -2.83703 1.57108 0
M  V30 3507 H 346.904 -2.21739 3.2338 0
M  V30 3508 H 348.394 -3.10421 2.79336 0
M  V30 3509 N 348.832 -1.54138 -0.328536 0
M  V30 3510 C 350.243 -1.63395 -0.903272 0
M  V30 3511 C 350.594 -0.524828 -1.8905 0
M  V30 3512 O 349.719 0.343068 -2.13663 0
M  V30 3513 C 350.314 -2.9618 -1.64507 0
M  V30 3514 C 348.873 -3.0765 -2.1686 0
M  V30 3515 C 348.02 -2.58933 -0.992416 0
M  V30 3516 H 350.971 -1.58344 -0.106253 0
M  V30 3517 H 350.992 -2.86061 -2.50897 0
M  V30 3518 H 350.504 -3.76884 -0.926302 0
M  V30 3519 H 348.605 -2.31611 -2.91868 0
M  V30 3520 H 348.718 -4.1337 -2.42202 0
M  V30 3521 H 347.082 -2.14706 -1.37016 0
M  V30 3522 H 347.865 -3.42089 -0.288041 0
M  V30 3523 N 350.31 0.590341 -1.46126 0
M  V30 3524 C 351.22 1.72793 -1.58681 0
M  V30 3525 C 352.236 1.67516 -0.470566 0
M  V30 3526 O 353.412 1.87562 -0.733642 0
M  V30 3527 C 350.477 3.09287 -1.5666 0
M  V30 3528 C 349.538 3.25886 -2.79458 0
M  V30 3529 C 348.771 4.55869 -2.77524 0
M  V30 3530 O 348.994 5.3928 -1.85832 0
M  V30 3531 O 347.928 4.75552 -3.68964 0
M  V30 3532 H 351.754 1.65149 -2.54872 0
M  V30 3533 H 349.339 0.756486 -1.28832 0
M  V30 3534 H 351.221 3.90577 -1.58202 0
M  V30 3535 H 349.896 3.17385 -0.636271 0
M  V30 3536 H 348.803 2.44119 -2.83472 0
M  V30 3537 H 350.136 3.22675 -3.71674 0
M  V30 3538 N 351.788 1.33704 0.83433 0
M  V30 3539 C 352.718 1.26967 1.95963 0
M  V30 3540 C 353.699 0.149337 1.69443 0
M  V30 3541 O 354.884 0.339852 1.91203 0
M  V30 3542 C 352.014 1.01275 3.32206 0
M  V30 3543 C 350.968 2.09652 3.73136 0
M  V30 3544 C 350.294 1.69166 5.07235 0
M  V30 3545 C 351.594 3.51372 3.86439 0
M  V30 3546 H 353.288 2.2112 2.01857 0
M  V30 3547 H 350.834 1.06447 0.969793 0
M  V30 3548 H 352.787 0.952106 4.10503 0
M  V30 3549 H 351.511 0.0356203 3.26581 0
M  V30 3550 H 350.17 2.14766 2.97104 0
M  V30 3551 H 349.818 0.701437 4.98085 0
M  V30 3552 H 349.518 2.41694 5.35591 0
M  V30 3553 H 351.042 1.64576 5.88003 0
M  V30 3554 H 352.456 3.48734 4.55036 0
M  V30 3555 H 350.853 4.22425 4.26236 0
M  V30 3556 H 351.923 3.89546 2.88759 0
M  V30 3557 N 353.266 -1.05314 1.17247 0
M  V30 3558 C 354.196 -2.1498 0.911362 0
M  V30 3559 C 355.177 -1.69471 -0.146169 0
M  V30 3560 O 356.362 -1.942 0.003812 0
M  V30 3561 C 353.492 -3.4472 0.422528 0
M  V30 3562 C 352.446 -4.03789 1.4191 0
M  V30 3563 C 351.772 -5.28858 0.788274 0
M  V30 3564 C 353.072 -4.41418 2.7919 0
M  V30 3565 H 354.766 -2.3708 1.82848 0
M  V30 3566 H 352.312 -1.13938 0.880569 0
M  V30 3567 H 354.265 -4.20787 0.227289 0
M  V30 3568 H 352.989 -3.22269 -0.530123 0
M  V30 3569 H 351.648 -3.2979 1.60106 0
M  V30 3570 H 351.296 -5.02709 -0.171173 0
M  V30 3571 H 350.996 -5.69338 1.45353 0
M  V30 3572 H 352.52 -6.07612 0.603282 0
M  V30 3573 H 353.934 -5.08524 2.64719 0
M  V30 3574 H 352.331 -4.92913 3.42282 0
M  V30 3575 H 353.401 -3.51819 3.33693 0
M  V30 3576 N 354.744 -0.972509 -1.24016 0
M  V30 3577 C 355.992 -0.635776 -1.91839 0
M  V30 3578 C 356.313 0.832312 -1.76345 0
M  V30 3579 O 355.583 1.5946 -1.13795 0
M  V30 3580 H 354.163 -0.232157 -0.710009 0
M  V30 3581 H 356.825 -1.23462 -1.50809 0
M  V30 3582 H 355.921 -0.880545 -2.99421 0
M  V30 3583 N 356.222 1.38976 -0.743202 0
M  V30 3584 C 357.47 1.99948 -0.29417 0
M  V30 3585 C 357.791 1.59279 1.12495 0
M  V30 3586 O 357.061 0.844808 1.76748 0
M  V30 3587 H 355.641 0.739473 -0.105774 0
M  V30 3588 H 358.303 1.699 -0.954986 0
M  V30 3589 H 357.399 3.10142 -0.349056 0
M  V30 3590 N 357.7 0.491464 1.49741 0
M  V30 3591 C 359.111 0.0413169 1.86654 0
M  V30 3592 C 359.462 -1.36985 1.40462 0
M  V30 3593 O 358.587 -2.01917 0.778354 0
M  V30 3594 C 359.182 0.0682023 3.38731 0
M  V30 3595 C 357.741 -0.32656 3.74981 0
M  V30 3596 C 356.888 0.444888 2.73708 0
M  V30 3597 H 359.839 0.704733 1.42194 0
M  V30 3598 H 359.86 -0.729322 3.73445 0
M  V30 3599 H 359.372 1.09539 3.72321 0
M  V30 3600 H 357.473 -1.35734 3.46997 0
M  V30 3601 H 357.586 -0.013741 4.79098 0
M  V30 3602 H 355.95 -0.104062 2.54487 0
M  V30 3603 H 356.733 1.47197 3.10142 0
M  V30 3604 N 359.178 -1.55987 0.224894 0
M  V30 3605 C 360.403 -2.03232 -0.41369 0
M  V30 3606 C 360.828 -1.10359 -1.52323 0
M  V30 3607 O 360.186 -0.092395 -1.81064 0
M  V30 3608 C 360.234 -3.48682 -0.919405 0
M  V30 3609 O 359.338 -3.58947 -2.03054 0
M  V30 3610 H 358.679 -0.657428 -0.0931903 0
M  V30 3611 H 361.209 -2.01679 0.34451 0
M  V30 3612 H 361.219 -3.8907 -1.22835 0
M  V30 3613 H 359.894 -4.15761 -0.107339 0
M  V30 3614 H 358.471 -3.30448 -1.72796 0
M  V30 3615 N 360.656 0.0484629 -1.57525 0
M  V30 3616 C 361.902 0.744226 -1.88651 0
M  V30 3617 C 362.235 1.76029 -0.820212 0
M  V30 3618 O 361.51 1.93782 0.166985 0
M  V30 3619 C 361.793 1.43128 -3.30434 0
M  V30 3620 C 361.646 0.43005 -4.47739 0
M  V30 3621 C 362.965 2.37031 -3.70816 0
M  V30 3622 H 360.084 0.269089 -0.68612 0
M  V30 3623 H 362.726 0.00713532 -1.89999 0
M  V30 3624 H 360.876 2.05956 -3.29415 0
M  V30 3625 H 362.548 -0.194816 -4.60888 0
M  V30 3626 H 360.791 -0.252522 -4.33064 0
M  V30 3627 H 361.462 0.948874 -5.43783 0
M  V30 3628 H 363.938 1.84263 -3.73077 0
M  V30 3629 H 362.814 2.82094 -4.70865 0
M  V30 3630 H 363.075 3.22864 -3.02012 0
M  V30 3631 N 362.134 1.5431 0.320358 0
M  V30 3632 C 363.381 1.72668 1.05792 0
M  V30 3633 C 363.709 0.502084 1.87908 0
M  V30 3634 O 362.964 -0.516149 1.88771 0
M  V30 3635 C 363.263 2.95639 2.00828 0
M  V30 3636 C 362.929 4.30265 1.34843 0
M  V30 3637 C 361.591 4.66865 1.16578 0
M  V30 3638 C 363.943 5.13801 0.875095 0
M  V30 3639 C 361.271 5.84597 0.496336 0
M  V30 3640 C 363.623 6.32219 0.219463 0
M  V30 3641 C 362.287 6.67495 0.0246915 0
M  V30 3642 H 361.557 0.631837 0.387121 0
M  V30 3643 H 364.204 1.88552 0.334735 0
M  V30 3644 H 362.509 2.74456 2.79609 0
M  V30 3645 H 364.206 3.07038 2.57932 0
M  V30 3646 H 360.796 4.01472 1.50061 0
M  V30 3647 H 364.98 4.86039 1.00398 0
M  V30 3648 H 360.236 6.10486 0.334264 0
M  V30 3649 H 364.41 6.96227 -0.155291 0
M  V30 3650 H 362.037 7.5858 -0.496065 0
M  V30 3651 N 363.613 -0.582584 1.46437 0
M  V30 3652 C 364.543 -1.70187 1.59871 0
M  V30 3653 C 365.524 -1.64066 0.449042 0
M  V30 3654 O 366.709 -1.82081 0.6753 0
M  V30 3655 C 363.839 -3.08827 1.58881 0
M  V30 3656 C 362.793 -3.29779 2.72819 0
M  V30 3657 C 362.119 -4.68947 2.5689 0
M  V30 3658 C 363.419 -3.17601 4.1464 0
M  V30 3659 H 365.113 -1.592 2.53566 0
M  V30 3660 H 362.659 -0.764472 1.22032 0
M  V30 3661 H 364.612 -3.86951 1.66873 0
M  V30 3662 H 363.336 -3.20713 0.617306 0
M  V30 3663 H 361.995 -2.54054 2.64296 0
M  V30 3664 H 361.643 -4.77599 1.57823 0
M  V30 3665 H 361.343 -4.83919 3.33312 0
M  V30 3666 H 362.867 -5.4924 2.66773 0
M  V30 3667 H 364.281 -3.8557 4.24274 0
M  V30 3668 H 362.678 -3.44094 4.9165 0
M  V30 3669 H 363.748 -2.14681 4.34788 0
M  V30 3670 N 365.091 -1.34144 -0.827227 0
M  V30 3671 C 366.338 -1.26258 -1.58319 0
M  V30 3672 C 366.666 0.168595 -1.93768 0
M  V30 3673 O 365.921 1.12877 -1.59866 0
M  V30 3674 C 366.22 -2.09464 -2.89585 0
M  V30 3675 C 365.886 -3.58521 -2.73448 0
M  V30 3676 C 364.548 -3.99155 -2.68754 0
M  V30 3677 C 366.9 -4.53189 -2.57428 0
M  V30 3678 C 364.228 -5.32656 -2.45957 0
M  V30 3679 C 366.58 -5.86864 -2.36163 0
M  V30 3680 C 365.244 -6.26667 -2.29879 0
M  V30 3681 H 364.514 -0.462013 -0.579332 0
M  V30 3682 H 367.161 -1.65845 -0.95748 0
M  V30 3683 H 365.466 -1.62692 -3.56425 0
M  V30 3684 H 367.163 -2.00712 -3.47154 0
M  V30 3685 H 363.753 -3.26264 -2.77939 0
M  V30 3686 H 367.937 -4.22696 -2.60081 0
M  V30 3687 H 363.193 -5.62519 -2.39546 0
M  V30 3688 H 367.367 -6.59813 -2.22754 0
M  V30 3689 H 364.994 -7.30049 -2.11975 0
M  V30 3690 N 366.569 1.04691 -1.17803 0
M  V30 3691 C 367.98 1.59238 -0.974689 0
M  V30 3692 C 368.331 1.90306 0.477292 0
M  V30 3693 O 367.456 1.68846 1.35352 0
M  V30 3694 C 368.051 2.89318 -1.76296 0
M  V30 3695 C 366.61 3.40506 -1.60414 0
M  V30 3696 C 365.757 2.14172 -1.76141 0
M  V30 3697 H 368.708 0.874395 -1.32439 0
M  V30 3698 H 368.729 3.5944 -1.24833 0
M  V30 3699 H 368.241 2.66675 -2.81968 0
M  V30 3700 H 366.342 3.68175 -0.572519 0
M  V30 3701 H 366.455 4.14753 -2.39827 0
M  V30 3702 H 364.819 2.25176 -1.19028 0
M  V30 3703 H 365.602 1.93992 -2.83235 0
M  V30 3704 N 368.047 0.979072 1.23499 0
M  V30 3705 C 369.458 0.684391 1.73704 0
M  V30 3706 C 369.809 -0.799448 1.79174 0
M  V30 3707 O 368.934 -1.62531 1.42873 0
M  V30 3708 C 369.529 1.23564 3.15464 0
M  V30 3709 C 368.088 0.99063 3.6313 0
M  V30 3710 C 367.235 1.36416 2.41425 0
M  V30 3711 H 370.186 1.15307 1.09041 0
M  V30 3712 H 370.207 0.607417 3.7562 0
M  V30 3713 H 369.719 2.31561 3.1145 0
M  V30 3714 H 367.82 -0.0733136 3.72528 0
M  V30 3715 H 367.933 1.64427 4.5 0
M  V30 3716 H 366.297 0.782616 2.42378 0
M  V30 3717 H 367.08 2.45387 2.40083 0
M  V30 3718 N 369.525 -1.3858 0.750561 0
M  V30 3719 C 370.472 -2.30483 0.120835 0
M  V30 3720 C 371.442 -1.50022 -0.712923 0
M  V30 3721 O 372.627 -1.78662 -0.669676 0
M  V30 3722 C 369.767 -3.36431 -0.768666 0
M  V30 3723 C 368.88 -4.31927 0.0793922 0
M  V30 3724 C 368.015 -5.24944 -0.81283 0
M  V30 3725 C 367.054 -6.12088 0.0390447 0
M  V30 3726 N 366.191 -6.97412 -0.809969 0
M  V30 3727 H 371.031 -2.83761 0.91015 0
M  V30 3728 H 368.568 -1.39707 0.460463 0
M  V30 3729 H 370.526 -3.96462 -1.29898 0
M  V30 3730 H 369.156 -2.8457 -1.5238 0
M  V30 3731 H 368.208 -3.73382 0.727303 0
M  V30 3732 H 369.52 -4.93319 0.737401 0
M  V30 3733 H 368.674 -5.90078 -1.41042 0
M  V30 3734 H 367.413 -4.63911 -1.50458 0
M  V30 3735 H 366.418 -5.45952 0.649328 0
M  V30 3736 H 367.643 -6.75189 0.727809 0
M  V30 3737 H 365.589 -6.38931 -1.48672 0
M  V30 3738 H 365.506 -7.55712 -0.208789 0
M  V30 3739 H 366.774 -7.66959 -1.39263 0
M  V30 3740 N 371.003 -0.499398 -1.49478 0
M  V30 3741 C 372.414 -0.051215 -1.8663 0
M  V30 3742 C 372.765 1.36238 -1.41186 0
M  V30 3743 O 371.89 2.01502 -0.789051 0
M  V30 3744 C 372.485 -0.0861651 -3.3869 0
M  V30 3745 C 371.044 0.30667 -3.75149 0
M  V30 3746 C 370.191 -0.459397 -2.73468 0
M  V30 3747 H 373.142 -0.712264 -1.41818 0
M  V30 3748 H 373.163 0.709507 -3.73826 0
M  V30 3749 H 372.675 -1.11512 -3.71735 0
M  V30 3750 H 370.776 1.33892 -3.47712 0
M  V30 3751 H 370.889 -0.0116669 -4.79099 0
M  V30 3752 H 369.253 0.0905645 -2.54539 0
M  V30 3753 H 370.036 -1.4884 -3.09357 0
M  V30 3754 N 372.481 1.55866 -0.233164 0
M  V30 3755 C 373.428 2.20796 0.67215 0
M  V30 3756 C 374.398 1.16731 1.18166 0
M  V30 3757 O 375.583 1.45129 1.23864 0
M  V30 3758 C 372.723 2.90072 1.86955 0
M  V30 3759 C 371.836 4.08759 1.39786 0
M  V30 3760 C 370.971 4.65787 2.55374 0
M  V30 3761 C 370.01 5.76752 2.04998 0
M  V30 3762 N 369.147 6.28021 3.13901 0
M  V30 3763 H 373.987 2.9779 0.111749 0
M  V30 3764 H 371.524 1.47036 0.0434007 0
M  V30 3765 H 373.482 3.28428 2.57276 0
M  V30 3766 H 372.112 2.15575 2.40265 0
M  V30 3767 H 371.164 3.7581 0.589173 0
M  V30 3768 H 372.476 4.88906 0.98856 0
M  V30 3769 H 371.63 5.06646 3.33758 0
M  V30 3770 H 370.369 3.84828 2.99598 0
M  V30 3771 H 369.374 5.35383 1.25079 0
M  V30 3772 H 370.599 6.59553 1.61759 0
M  V30 3773 H 368.545 5.49971 3.57586 0
M  V30 3774 H 368.462 7.03323 2.7726 0
M  V30 3775 H 369.73 6.73538 3.92386 0
M  V30 3776 N 373.959 -0.0401083 1.57549 0
M  V30 3777 C 375.236 -0.767917 1.79896 0
M  V30 3778 C 375.616 -1.9416 0.82856 0
M  V30 3779 O 374.964 -2.2812 -0.131671 0
M  V30 3780 C 375.174 -1.2113 3.27305 0
M  V30 3781 C 376.522 -1.63175 3.91994 0
M  V30 3782 O 377.546 -1.30616 3.31388 0
M  V30 3783 O 376.405 -2.23565 4.98679 0
M  V30 3784 H 373.499 -0.370441 0.739393 0
M  V30 3785 H 376.045 -0.017737 1.69691 0
M  V30 3786 H 374.817 -0.372937 3.89519 0
M  V30 3787 H 374.44 -2.02183 3.42356 0
M  V30 3788 N 375.437 -1.54477 -0.31217 0
M  V30 3789 C 376.665 -1.77205 -1.068 0
M  V30 3790 C 377.08 -0.526114 -1.81321 0
M  V30 3791 O 376.437 0.503647 -1.75413 0
M  V30 3792 C 376.488 -2.97253 -2.05725 0
M  V30 3793 O 376.209 -4.1703 -1.34228 0
M  V30 3794 C 377.71 -3.32281 -2.93435 0
M  V30 3795 H 374.93 -0.591287 -0.317208 0
M  V30 3796 H 377.474 -2.01398 -0.354834 0
M  V30 3797 H 375.629 -2.753 -2.72559 0
M  V30 3798 H 376.043 -4.84636 -2.00571 0
M  V30 3799 H 377.517 -4.19551 -3.58721 0
M  V30 3800 H 377.994 -2.49945 -3.61143 0
M  V30 3801 H 378.6 -3.56353 -2.32147 0
M  V30 3802 N 376.915 0.57481 -1.46744 0
M  V30 3803 C 377.845 1.69337 -1.60771 0
M  V30 3804 C 378.826 1.63825 -0.457736 0
M  V30 3805 O 380.011 1.8172 -0.684947 0
M  V30 3806 C 377.141 3.0798 -1.60517 0
M  V30 3807 C 376.095 3.28327 -2.74564 0
M  V30 3808 C 375.421 4.67578 -2.59373 0
M  V30 3809 C 376.721 3.15398 -4.16319 0
M  V30 3810 H 378.415 1.57853 -2.54407 0
M  V30 3811 H 375.961 0.75799 -1.22436 0
M  V30 3812 H 377.914 3.86061 -1.68923 0
M  V30 3813 H 376.638 3.20381 -0.634305 0
M  V30 3814 H 375.297 2.52649 -2.65639 0
M  V30 3815 H 374.945 4.76755 -1.60353 0
M  V30 3816 H 374.645 4.82144 -3.35873 0
M  V30 3817 H 376.169 5.47817 -2.69682 0
M  V30 3818 H 377.583 3.83315 -4.26313 0
M  V30 3819 H 375.98 3.41482 -4.93468 0
M  V30 3820 H 377.05 2.12372 -4.3592 0
M  V30 3821 N 378.394 1.34581 0.820102 0
M  V30 3822 C 379.327 1.20735 1.93644 0
M  V30 3823 C 380.305 0.0983343 1.62302 0
M  V30 3824 O 381.489 0.263997 1.86642 0
M  V30 3825 C 378.616 0.856037 3.27704 0
M  V30 3826 C 377.662 1.97521 3.78005 0
M  V30 3827 S 378.495 3.58906 3.97425 0
M  V30 3828 C 379.651 3.25822 5.34407 0
M  V30 3829 H 379.884 2.15231 2.05093 0
M  V30 3830 H 377.417 1.1964 0.97599 0
M  V30 3831 H 379.375 0.660133 4.05157 0
M  V30 3832 H 378.036 -0.0706253 3.14021 0
M  V30 3833 H 377.229 1.68321 4.75062 0
M  V30 3834 H 376.831 2.12875 3.07507 0
M  V30 3835 H 379.123 2.77812 6.17922 0
M  V30 3836 H 380.066 4.22029 5.68592 0
M  V30 3837 H 380.474 2.61932 5.00052 0
M  V30 3838 N 379.872 -1.04064 1.18357 0
M  V30 3839 C 381.121 -1.76662 0.973313 0
M  V30 3840 C 381.434 -1.89154 -0.497991 0
M  V30 3841 O 382.64 -2.58606 -0.826762 0
M  V30 3842 C 381.096 -3.17624 1.69242 0
M  V30 3843 C 380.704 -3.13225 3.20303 0
M  V30 3844 C 382.448 -3.946 1.56497 0
M  V30 3845 C 380.355 -4.49046 3.84853 0
M  V30 3846 H 379.285 -0.662214 0.36054 0
M  V30 3847 H 381.936 -1.16553 1.41731 0
M  V30 3848 H 380.318 -3.78129 1.1762 0
M  V30 3849 H 381.492 -2.62172 3.78949 0
M  V30 3850 H 379.807 -2.49749 3.33189 0
M  V30 3851 H 382.404 -4.95042 2.02084 0
M  V30 3852 H 382.747 -4.13074 0.517243 0
M  V30 3853 H 383.28 -3.4067 2.05399 0
M  V30 3854 H 380.019 -4.35777 4.89672 0
M  V30 3855 H 379.539 -5.00203 3.30994 0
M  V30 3856 H 381.218 -5.17961 3.87718 0
M  V30 3857 N 381.35 -0.985608 -1.22978 0
M  V30 3858 C 382.575 -0.675254 -1.961 0
M  V30 3859 C 383 0.752154 -1.72407 0
M  V30 3860 O 382.358 1.5131 -0.998751 0
M  V30 3861 C 382.406 -0.977899 -3.47087 0
M  V30 3862 O 381.51 -0.072685 -4.12336 0
M  V30 3863 H 380.851 -0.253443 -0.613728 0
M  V30 3864 H 383.381 -1.32061 -1.56272 0
M  V30 3865 H 383.391 -0.916739 -3.97567 0
M  V30 3866 H 382.066 -2.01807 -3.63657 0
M  V30 3867 H 380.643 -0.188703 -3.72422 0
M  V30 3868 N 382.828 1.3818 -0.7579 0
M  V30 3869 C 384.244 1.5353 -0.435972 0
M  V30 3870 C 384.444 1.71961 1.05032 0
M  V30 3871 O 383.5 1.73307 1.83633 0
M  V30 3872 C 384.813 2.73989 -1.23898 0
M  V30 3873 C 386.361 2.87841 -1.22949 0
M  V30 3874 C 386.836 4.11266 -2.01554 0
M  V30 3875 N 388.327 4.18352 -1.98837 0
M  V30 3876 C 389.062 5.12856 -2.5645 0
M  V30 3877 N 388.558 6.13005 -3.22794 0
M  V30 3878 N 390.351 5.05238 -2.46356 0
M  V30 3879 H 382.502 1.24467 -1.7211 0
M  V30 3880 H 384.765 0.604982 -0.729864 0
M  V30 3881 H 384.471 2.66789 -2.29165 0
M  V30 3882 H 384.345 3.67294 -0.858764 0
M  V30 3883 H 386.732 2.9452 -0.184854 0
M  V30 3884 H 386.813 1.95534 -1.64924 0
M  V30 3885 H 386.457 4.05349 -3.06031 0
M  V30 3886 H 386.387 5.02661 -1.5697 0
M  V30 3887 H 388.878 3.46628 -1.50524 0
M  V30 3888 H 389.191 6.81619 -3.64165 0
M  V30 3889 H 387.536 6.13325 -3.2689 0
M  V30 3890 H 390.727 4.25938 -1.9415 0
M  V30 3891 H 390.9 5.78707 -2.91552 0
M  V30 3892 N 384.306 0.507319 1.49211 0
M  V30 3893 C 385.534 -0.0315749 2.06876 0
M  V30 3894 C 385.949 -1.30241 1.36685 0
M  V30 3895 O 385.306 -1.76937 0.447152 0
M  V30 3896 C 385.357 -0.282627 3.60393 0
M  V30 3897 O 385.078 0.937835 4.27944 0
M  V30 3898 C 386.579 -0.864453 4.3479 0
M  V30 3899 H 383.799 0.0233048 0.670595 0
M  V30 3900 H 386.343 0.706484 1.91909 0
M  V30 3901 H 384.498 -0.97068 3.75042 0
M  V30 3902 H 384.912 0.704567 5.19746 0
M  V30 3903 H 386.386 -0.989664 5.43056 0
M  V30 3904 H 386.863 -1.86382 3.97692 0
M  V30 3905 H 387.469 -0.213672 4.24763 0
M  V30 3906 N 385.784 -1.5574 0.241426 0
M  V30 3907 C 387.195 -1.84842 -0.262755 0
M  V30 3908 C 387.546 -1.16317 -1.58003 0
M  V30 3909 O 386.671 -0.439653 -2.11887 0
M  V30 3910 C 387.266 -3.35332 -0.483523 0
M  V30 3911 C 385.825 -3.6468 -0.931977 0
M  V30 3912 C 384.972 -2.77299 -0.0061151 0
M  V30 3913 H 387.923 -1.51761 0.464129 0
M  V30 3914 H 387.944 -3.56615 -1.32688 0
M  V30 3915 H 387.456 -3.85178 0.47537 0
M  V30 3916 H 385.557 -3.20307 -1.90353 0
M  V30 3917 H 385.67 -4.72498 -0.792628 0
M  V30 3918 H 384.034 -2.49408 -0.516503 0
M  V30 3919 H 384.817 -3.2995 0.948052 0
M  V30 3920 N 387.262 0.0317525 -1.57568 0
M  V30 3921 C 388.172 1.05021 -2.0978 0
M  V30 3922 C 389.188 1.39809 -1.03583 0
M  V30 3923 O 390.364 1.49182 -1.35302 0
M  V30 3924 C 387.429 2.33301 -2.56459 0
M  V30 3925 C 386.49 2.0512 -3.77127 0
M  V30 3926 C 385.723 3.27283 -4.2157 0
M  V30 3927 O 385.946 4.37861 -3.65559 0
M  V30 3928 O 384.88 3.13141 -5.14029 0
M  V30 3929 H 388.706 0.636505 -2.96955 0
M  V30 3930 H 386.291 0.248559 -1.47318 0
M  V30 3931 H 388.173 3.08722 -2.86825 0
M  V30 3932 H 386.848 2.73973 -1.72397 0
M  V30 3933 H 385.755 1.27276 -3.51784 0
M  V30 3934 H 387.088 1.69305 -4.62165 0
M  V30 3935 N 388.74 1.54641 0.303973 0
M  V30 3936 C 389.986 1.74038 1.04109 0
M  V30 3937 C 390.319 0.523051 1.87024 0
M  V30 3938 O 389.594 -0.479874 1.88487 0
M  V30 3939 C 389.877 3.02761 1.94955 0
M  V30 3940 C 389.73 4.34787 1.1524 0
M  V30 3941 C 391.049 3.27336 2.94175 0
M  V30 3942 H 388.168 0.63323 0.377079 0
M  V30 3943 H 390.81 1.87354 0.316001 0
M  V30 3944 H 388.96 2.9154 2.56782 0
M  V30 3945 H 390.632 4.57922 0.557236 0
M  V30 3946 H 388.875 4.31407 0.455053 0
M  V30 3947 H 389.546 5.21116 1.8205 0
M  V30 3948 H 392.022 3.38148 2.42477 0
M  V30 3949 H 390.898 4.18726 3.54908 0
M  V30 3950 H 391.159 2.45491 3.67677 0
M  V30 3951 N 390.218 -0.567019 1.47046 0
M  V30 3952 C 391.446 -1.35027 1.56765 0
M  V30 3953 C 391.861 -1.8758 0.214316 0
M  V30 3954 O 391.218 -1.64471 -0.790919 0
M  V30 3955 C 391.269 -2.52698 2.58507 0
M  V30 3956 O 390.99 -2.0232 3.88585 0
M  V30 3957 C 392.491 -3.45043 2.78316 0
M  V30 3958 H 389.711 -0.41195 0.529658 0
M  V30 3959 H 392.255 -0.687832 1.92585 0
M  V30 3960 H 390.41 -3.149 2.25648 0
M  V30 3961 H 390.824 -2.79068 4.44096 0
M  V30 3962 H 392.298 -4.2405 3.53391 0
M  V30 3963 H 392.775 -3.97971 1.85784 0
M  V30 3964 H 393.381 -2.88665 3.12334 0
M  V30 3965 N 391.696 -1.35014 -0.812953 0
M  V30 3966 C 392.936 -1.29289 -1.58315 0
M  V30 3967 C 393.3 0.132727 -1.91541 0
M  V30 3968 O 394.501 0.314269 -2.66957 0
M  V30 3969 C 392.772 -2.1681 -2.84127 0
M  V30 3970 S 394.331 -2.28538 -3.74588 0
M  V30 3971 H 391.149 -0.459569 -0.542511 0
M  V30 3972 H 393.751 -1.70336 -0.959467 0
M  V30 3973 H 392.455 -3.19379 -2.57731 0
M  V30 3974 H 391.986 -1.76697 -3.51485 0
M  V30 3975 H 394.001 -1.4655 -4.74065 0
M  V30 3976 N 393.175 1.03435 -1.18907 0
M  V30 3977 C 394.421 1.77005 -0.989798 0
M  V30 3978 C 394.754 1.88205 0.478816 0
M  V30 3979 O 394.029 1.39481 1.35556 0
M  V30 3980 C 394.312 3.19925 -1.65287 0
M  V30 3981 C 394.165 3.1663 -3.19477 0
M  V30 3982 C 395.484 4.18189 -1.37134 0
M  V30 3983 H 392.603 0.642538 -0.360991 0
M  V30 3984 H 395.245 1.20784 -1.46667 0
M  V30 3985 H 393.395 3.67929 -1.24741 0
M  V30 3986 H 395.067 2.76567 -3.692 0
M  V30 3987 H 393.31 2.54491 -3.51307 0
M  V30 3988 H 393.981 4.1758 -3.61013 0
M  V30 3989 H 396.457 3.78761 -1.72276 0
M  V30 3990 H 395.333 5.16394 -1.86087 0
M  V30 3991 H 395.594 4.41112 -0.295424 0
M  V30 3992 N 394.653 0.992116 1.22453 0
M  V30 3993 C 395.899 0.668523 1.91464 0
M  V30 3994 C 396.232 -0.797313 1.77078 0
M  V30 3995 O 395.507 -1.5765 1.13916 0
M  V30 3996 C 395.79 1.07424 3.43703 0
M  V30 3997 C 395.643 2.59857 3.67143 0
M  V30 3998 C 396.962 0.626891 4.35612 0
M  V30 3999 H 394.081 0.244341 0.695318 0
M  V30 4000 H 396.723 1.2355 1.44345 0
M  V30 4001 H 394.873 0.591816 3.83966 0
M  V30 4002 H 396.545 3.15764 3.3629 0
M  V30 4003 H 394.788 3.01961 3.11451 0
M  V30 4004 H 395.459 2.83296 4.73759 0
M  V30 4005 H 397.935 1.04125 4.02861 0
M  V30 4006 H 396.811 0.939076 5.40807 0
M  V30 4007 H 397.072 -0.472457 4.39568 0
M  V30 4008 N 396.131 -1.37776 0.765217 0
M  V30 4009 C 397.377 -2.00145 0.327072 0
M  V30 4010 C 397.71 -1.60607 -1.09175 0
M  V30 4011 O 396.985 -0.849127 -1.74986 0
M  V30 4012 C 397.268 -3.57109 0.46319 0
M  V30 4013 C 397.121 -4.06576 1.92395 0
M  V30 4014 C 398.44 -4.39888 -0.136473 0
M  V30 4015 H 395.559 -0.727113 0.120316 0
M  V30 4016 H 398.201 -1.63549 0.967039 0
M  V30 4017 H 396.351 -3.88414 -0.0816358 0
M  V30 4018 H 398.023 -3.85864 2.52798 0
M  V30 4019 H 396.266 -3.59011 2.43503 0
M  V30 4020 H 396.937 -5.15639 1.97028 0
M  V30 4021 H 399.413 -4.14803 0.328317 0
M  V30 4022 H 398.289 -5.48899 -0.0110582 0
M  V30 4023 H 398.55 -4.24758 -1.22608 0
M  V30 4024 N 397.609 -0.515225 -1.4894 0
M  V30 4025 C 398.886 0.0879088 -1.95402 0
M  V30 4026 C 399.266 1.52745 -1.45712 0
M  V30 4027 O 398.614 2.18238 -0.677093 0
M  V30 4028 C 398.824 -0.0141055 -3.48997 0
M  V30 4029 C 400.172 0.152646 -4.24326 0
M  V30 4030 O 401.196 0.0604025 -3.56149 0
M  V30 4031 O 400.055 0.34384 -5.45417 0
M  V30 4032 H 397.149 0.0874636 -0.822362 0
M  V30 4033 H 399.695 -0.578775 -1.59525 0
M  V30 4034 H 398.467 -1.01745 -3.77841 0
M  V30 4035 H 398.09 0.692091 -3.9153 0
M  V30 4036 N 399.087 1.5561 -0.249682 0
M  V30 4037 C 400.333 1.99306 0.374841 0
M  V30 4038 C 400.666 1.13767 1.57387 0
M  V30 4039 O 399.941 0.201711 1.93451 0
M  V30 4040 C 400.224 3.51507 0.781986 0
M  V30 4041 C 400.077 4.4781 -0.422629 0
M  V30 4042 C 401.396 4.08884 1.62793 0
M  V30 4043 H 398.515 0.724572 0.134773 0
M  V30 4044 H 401.157 1.86719 -0.351549 0
M  V30 4045 H 399.307 3.62363 1.4009 0
M  V30 4046 H 400.979 4.48931 -1.06108 0
M  V30 4047 H 399.222 4.20518 -1.06524 0
M  V30 4048 H 399.893 5.51919 -0.0943766 0
M  V30 4049 H 402.369 4.01147 1.10547 0
M  V30 4050 H 401.245 5.1564 1.88166 0
M  V30 4051 H 401.506 3.57515 2.60068 0
M  V30 4052 N 400.565 -0.0233959 1.57583 0
M  V30 4053 C 401.79 -0.728376 1.94189 0
M  V30 4054 C 402.215 -1.67793 0.850119 0
M  V30 4055 O 401.573 -1.80262 -0.19371 0
M  V30 4056 C 401.621 -1.45669 3.29868 0
M  V30 4057 O 400.725 -2.57013 3.22518 0
M  V30 4058 H 400.066 -0.195493 0.63457 0
M  V30 4059 H 402.596 0.0228214 2.04587 0
M  V30 4060 H 402.606 -1.82535 3.6489 0
M  V30 4061 H 401.281 -0.760314 4.08891 0
M  V30 4062 H 399.858 -2.22648 2.99136 0
M  V30 4063 N 402.043 -1.548 -0.295768 0
M  V30 4064 C 402.993 -1.82497 -1.3667 0
M  V30 4065 C 403.977 -0.682434 -1.45711 0
M  V30 4066 O 405.169 -0.943207 -1.49775 0
M  V30 4067 C 402.298 -2.08036 -2.73086 0
M  V30 4068 C 401.384 -3.28488 -2.68247 0
M  V30 4069 N 401.775 -4.48924 -2.33025 0
M  V30 4070 C 400.073 -3.3062 -2.99343 0
M  V30 4071 C 400.774 -5.30956 -2.37613 0
M  V30 4072 N 399.75 -4.68805 -2.75178 0
M  V30 4073 H 403.552 -2.73175 -1.0841 0
M  V30 4074 H 401.066 -1.5437 -0.504361 0
M  V30 4075 H 403.063 -2.26027 -3.5031 0
M  V30 4076 H 401.723 -1.18629 -3.02254 0
M  V30 4077 H 402.734 -4.75432 -2.05389 0
M  V30 4078 H 399.411 -2.51336 -3.33371 0
M  V30 4079 H 400.801 -6.37199 -2.13135 0
M  V30 4080 N 403.521 0.559213 -1.47345 0
M  V30 4081 C 404.431 1.69388 -1.62311 0
M  V30 4082 C 405.447 1.6648 -0.505993 0
M  V30 4083 O 406.623 1.85964 -0.773262 0
M  V30 4084 C 403.688 3.05894 -1.63185 0
M  V30 4085 C 402.749 3.19885 -2.86307 0
M  V30 4086 C 401.982 4.49879 -2.87131 0
M  V30 4087 O 402.205 5.35217 -1.97229 0
M  V30 4088 O 401.139 4.67618 -3.78968 0
M  V30 4089 H 404.965 1.59706 -2.58317 0
M  V30 4090 H 402.55 0.728989 -1.30407 0
M  V30 4091 H 404.432 3.87133 -1.66451 0
M  V30 4092 H 403.107 3.15964 -0.70345 0
M  V30 4093 H 402.014 2.38052 -2.88587 0
M  V30 4094 H 403.347 3.14718 -3.78435 0
M  V30 4095 N 404.999 1.35443 0.805782 0
M  V30 4096 C 406.276 1.19325 1.54987 0
M  V30 4097 C 406.656 -0.227294 2.09873 0
M  V30 4098 O 406.004 -1.2309 1.92512 0
M  V30 4099 C 406.214 2.26196 2.65775 0
M  V30 4100 C 407.562 2.62043 3.34094 0
M  V30 4101 O 408.586 2.25115 2.76046 0
M  V30 4102 O 407.445 3.25542 4.38958 0
M  V30 4103 H 404.539 0.463623 0.684823 0
M  V30 4104 H 407.085 1.47127 0.845674 0
M  V30 4105 H 405.857 3.21471 2.23096 0
M  V30 4106 H 405.48 1.99667 3.43829 0
M  V30 4107 N 406.477 -1.02803 1.19454 0
M  V30 4108 C 407.888 -1.57667 0.999899 0
M  V30 4109 C 408.239 -1.91041 -0.446956 0
M  V30 4110 O 407.364 -1.70978 -1.32648 0
M  V30 4111 C 407.959 -2.86477 1.80877 0
M  V30 4112 C 406.518 -3.37911 1.65811 0
M  V30 4113 C 405.665 -2.11343 1.79526 0
M  V30 4114 H 408.616 -0.853214 1.33813 0
M  V30 4115 H 408.637 -3.57408 1.30536 0
M  V30 4116 H 408.149 -2.62155 2.86175 0
M  V30 4117 H 406.25 -3.67218 0.63102 0
M  V30 4118 H 406.363 -4.10885 2.46395 0
M  V30 4119 H 404.727 -2.23254 1.22596 0
M  V30 4120 H 405.51 -1.89461 2.86285 0
M  V30 4121 N 407.956 -0.998596 -1.21925 0
M  V30 4122 C 408.866 -0.562736 -2.27751 0
M  V30 4123 C 409.882 0.391203 -1.69545 0
M  V30 4124 O 411.058 0.256625 -1.99758 0
M  V30 4125 C 408.123 0.11012 -3.46525 0
M  V30 4126 C 407.184 -0.887495 -4.20026 0
M  V30 4127 C 406.417 -0.246654 -5.3313 0
M  V30 4128 O 406.64 0.958088 -5.62296 0
M  V30 4129 O 405.574 -0.954374 -5.94286 0
M  V30 4130 H 409.4 -1.44329 -2.67213 0
M  V30 4131 H 406.985 -0.767135 -1.28201 0
M  V30 4132 H 408.867 0.486756 -4.18579 0
M  V30 4133 H 407.542 0.965154 -3.08976 0
M  V30 4134 H 406.449 -1.31517 -3.5022 0
M  V30 4135 H 407.782 -1.71191 -4.6147 0
M  V30 4136 N 409.434 1.37368 -0.772513 0
M  V30 4137 C 410.68 1.99969 -0.337681 0
M  V30 4138 C 411.013 1.61184 1.08321 0
M  V30 4139 O 410.288 0.858395 1.74533 0
M  V30 4140 C 410.571 3.56858 -0.482121 0
M  V30 4141 C 410.424 4.0555 -1.94549 0
M  V30 4142 C 411.743 4.39955 0.113143 0
M  V30 4143 H 408.862 0.726464 -0.124171 0
M  V30 4144 H 411.504 1.63034 -0.975699 0
M  V30 4145 H 409.654 3.88452 0.0610361 0
M  V30 4146 H 411.326 3.84518 -2.54841 0
M  V30 4147 H 409.569 3.57715 -2.45403 0
M  V30 4148 H 410.24 5.14587 -1.9976 0
M  V30 4149 H 412.716 4.14623 -0.35031 0
M  V30 4150 H 411.592 5.48897 -0.0180514 0
M  V30 4151 H 411.853 4.25403 1.20354 0
M  V30 4152 N 410.912 0.523116 1.48665 0
M  V30 4153 C 411.859 -0.243398 2.29513 0
M  V30 4154 C 412.829 -0.940139 1.36933 0
M  V30 4155 O 414.014 -0.942503 1.65896 0
M  V30 4156 C 411.154 -1.28855 3.20141 0
M  V30 4157 C 410.267 -0.60135 4.27794 0
M  V30 4158 C 409.402 -1.62884 5.05611 0
M  V30 4159 C 408.441 -0.924726 6.05075 0
M  V30 4160 N 407.578 -1.89744 6.75975 0
M  V30 4161 H 412.418 0.452234 2.94549 0
M  V30 4162 H 409.955 0.234858 1.45213 0
M  V30 4163 H 411.913 -1.90674 3.71079 0
M  V30 4164 H 410.543 -1.95266 2.57043 0
M  V30 4165 H 409.595 0.130623 3.80176 0
M  V30 4166 H 410.907 -0.0481585 4.98777 0
M  V30 4167 H 410.061 -2.32149 5.60528 0
M  V30 4168 H 408.8 -2.21592 4.34452 0
M  V30 4169 H 407.805 -0.217966 5.49368 0
M  V30 4170 H 409.03 -0.343851 6.78229 0
M  V30 4171 H 406.976 -2.47373 6.07571 0
M  V30 4172 H 406.893 -1.3955 7.43009 0
M  V30 4173 H 408.161 -2.58229 7.35485 0
M  V30 4174 N 412.39 -1.55475 0.257931 0
M  V30 4175 C 413.637 -1.99207 -0.363728 0
M  V30 4176 C 413.965 -1.1462 -1.57139 0
M  V30 4177 O 413.22 -0.199653 -1.94679 0
M  V30 4178 C 413.519 -3.48183 -0.806433 0
M  V30 4179 C 413.185 -4.49936 0.294684 0
M  V30 4180 C 411.847 -4.77481 0.597076 0
M  V30 4181 C 414.199 -5.10769 1.03751 0
M  V30 4182 C 411.527 -5.63132 1.64618 0
M  V30 4183 C 413.879 -5.97558 2.07622 0
M  V30 4184 C 412.543 -6.23432 2.38514 0
M  V30 4185 H 411.813 -0.728949 -0.133097 0
M  V30 4186 H 414.46 -1.8793 0.368059 0
M  V30 4187 H 412.765 -3.56848 -1.61761 0
M  V30 4188 H 414.462 -3.79415 -1.29789 0
M  V30 4189 H 411.052 -4.28572 0.0488649 0
M  V30 4190 H 415.236 -4.89527 0.817149 0
M  V30 4191 H 410.492 -5.8143 1.89074 0
M  V30 4192 H 414.666 -6.43735 2.65666 0
M  V30 4193 H 412.293 -6.89594 3.19943 0
M  V30 4194 N 413.868 0.0150385 -1.57593 0
M  V30 4195 C 414.816 1.02958 -2.08572 0
M  V30 4196 C 415.81 1.36554 -1.00246 0
M  V30 4197 O 417.016 1.35295 -1.18724 0
M  V30 4198 H 413.391 0.349619 -0.665786 0
M  V30 4199 H 415.362 0.573932 -2.92829 0
M  V30 4200 C 414.111 2.31752 -2.59203 0
M  V30 4201 H 413.434 2.06765 -3.42182 0
M  V30 4202 H 414.874 3.01053 -2.98568 0
M  V30 4203 C 413.333 3.01692 -1.49945 0
M  V30 4204 O 413.863 3.92083 -0.873704 0
M  V30 4205 N 412.069 2.6326 -1.23056 0
M  V30 4206 H 411.616 1.89838 -1.74125 0
M  V30 4207 H 411.574 3.10372 -0.501685 0
M  V30 4208 N 415.346 1.54954 0.287554 0
M  V30 4209 C 416.592 1.76059 1.01856 0
M  V30 4210 C 416.947 0.547056 1.84459 0
M  V30 4211 O 416.24 -0.460442 1.85985 0
M  V30 4212 C 416.434 2.99833 1.94512 0
M  V30 4213 C 416.263 4.33108 1.21026 0
M  V30 4214 C 415.033 4.96632 0.931896 0
M  V30 4215 C 417.231 5.10694 0.607949 0
M  V30 4216 N 415.213 6.13668 0.168716 0
M  V30 4217 C 416.584 6.19996 -0.0217865 0
M  V30 4218 C 418.639 4.95236 0.514338 0
M  V30 4219 C 417.342 7.15524 -0.736092 0
M  V30 4220 C 419.368 5.91106 -0.186343 0
M  V30 4221 C 418.73 6.99786 -0.804875 0
M  V30 4222 H 414.829 0.696679 0.355193 0
M  V30 4223 H 417.413 1.92441 0.295741 0
M  V30 4224 H 415.584 2.84853 2.64033 0
M  V30 4225 H 417.316 3.09405 2.60865 0
M  V30 4226 H 414.071 4.57255 1.23348 0
M  V30 4227 H 414.495 6.76705 -0.199781 0
M  V30 4228 H 419.137 4.11328 0.978234 0
M  V30 4229 H 416.855 7.98964 -1.21172 0
M  V30 4230 H 420.441 5.81224 -0.258897 0
M  V30 4231 H 419.321 7.72694 -1.33843 0
M  V30 4232 N 416.824 -0.551391 1.4764 0
M  V30 4233 C 418.054 -1.33163 1.57959 0
M  V30 4234 C 418.462 -1.87785 0.23094 0
M  V30 4235 O 417.805 -1.65996 -0.786825 0
M  V30 4236 C 417.867 -2.53449 2.54958 0
M  V30 4237 C 417.531 -2.20071 4.00522 0
M  V30 4238 C 418.528 -1.77017 4.88836 0
M  V30 4239 C 416.213 -2.31252 4.45901 0
M  V30 4240 C 418.207 -1.4558 6.20552 0
M  V30 4241 C 415.894 -1.99427 5.77644 0
M  V30 4242 C 416.892 -1.56659 6.64791 0
M  V30 4243 O 416.58 -1.25242 7.94084 0
M  V30 4244 H 416.312 -0.412022 0.535923 0
M  V30 4245 H 418.866 -0.674186 1.9402 0
M  V30 4246 H 417.096 -3.22104 2.13976 0
M  V30 4247 H 418.785 -3.15523 2.55343 0
M  V30 4248 H 419.551 -1.67867 4.55023 0
M  V30 4249 H 415.43 -2.63498 3.78272 0
M  V30 4250 H 418.974 -1.12125 6.8853 0
M  V30 4251 H 414.871 -2.08211 6.10998 0
M  V30 4252 H 415.639 -1.38822 8.06642 0
M  V30 4253 N 418.302 -1.35869 -0.798587 0
M  V30 4254 C 419.548 -1.2978 -1.55836 0
M  V30 4255 C 419.881 0.125322 -1.93795 0
M  V30 4256 O 419.156 1.07658 -1.61987 0
M  V30 4257 C 419.439 -2.21188 -2.84162 0
M  V30 4258 C 419.292 -3.72155 -2.52628 0
M  V30 4259 C 420.611 -2.11545 -3.85923 0
M  V30 4260 H 417.73 -0.472769 -0.565383 0
M  V30 4261 H 420.372 -1.66341 -0.918192 0
M  V30 4262 H 418.522 -1.90139 -3.38791 0
M  V30 4263 H 420.194 -4.13682 -2.04121 0
M  V30 4264 H 418.437 -3.92042 -1.85704 0
M  V30 4265 H 419.108 -4.31511 -3.44242 0
M  V30 4266 H 421.584 -2.38855 -3.40716 0
M  V30 4267 H 420.46 -2.77688 -4.73477 0
M  V30 4268 H 420.721 -1.09987 -4.282 0
M  V30 4269 N 419.78 1.02168 -1.19998 0
M  V30 4270 C 421.057 1.72816 -0.916191 0
M  V30 4271 C 421.437 2.03081 0.576325 0
M  V30 4272 O 420.785 1.69122 1.53656 0
M  V30 4273 C 420.995 2.9997 -1.78378 0
M  V30 4274 C 422.343 3.73336 -2.02251 0
M  V30 4275 O 423.367 3.09914 -1.75589 0
M  V30 4276 O 422.226 4.87371 -2.47249 0
M  V30 4277 H 419.32 0.752924 -0.342103 0
M  V30 4278 H 421.866 1.08062 -1.30846 0
M  V30 4279 H 420.638 2.73888 -2.79466 0
M  V30 4280 H 420.261 3.72464 -1.39126 0
M  V30 4281 N 421.258 1.00505 1.21394 0
M  V30 4282 C 422.506 0.686415 1.90086 0
M  V30 4283 C 422.827 -0.785264 1.7849 0
M  V30 4284 O 422.097 -1.56387 1.17983 0
M  V30 4285 H 420.677 0.2509 0.703604 0
M  V30 4286 H 423.339 1.27417 1.47482 0
M  V30 4287 H 422.435 0.959621 2.96981 0
M  V30 4288 N 422.737 -1.36956 0.779787 0
M  V30 4289 C 423.983 -1.99787 0.348281 0
M  V30 4290 C 424.316 -1.61756 -1.07465 0
M  V30 4291 O 423.591 -0.867639 -1.74075 0
M  V30 4292 C 423.874 -3.56597 0.50104 0
M  V30 4293 C 423.727 -4.04513 1.96697 0
M  V30 4294 C 425.046 -4.40008 -0.0898097 0
M  V30 4295 H 422.165 -0.725796 0.128022 0
M  V30 4296 H 424.807 -1.62514 0.984331 0
M  V30 4297 H 422.957 -3.88479 -0.0404347 0
M  V30 4298 H 424.629 -3.83161 2.56876 0
M  V30 4299 H 422.872 -3.56408 2.47297 0
M  V30 4300 H 423.543 -5.1352 2.02486 0
M  V30 4301 H 426.019 -4.14431 0.372293 0
M  V30 4302 H 424.895 -5.4888 0.0471605 0
M  V30 4303 H 425.156 -4.26035 -1.18096 0
M  V30 4304 N 424.215 -0.530993 -1.48385 0
M  V30 4305 C 425.125 0.23503 -2.3342 0
M  V30 4306 C 426.141 0.93801 -1.46552 0
M  V30 4307 O 427.317 0.912745 -1.7953 0
M  V30 4308 C 424.382 1.26778 -3.22689 0
M  V30 4309 C 423.443 0.575038 -4.25431 0
M  V30 4310 C 422.676 1.55858 -5.10435 0
M  V30 4311 O 422.899 2.79129 -4.97437 0
M  V30 4312 O 421.833 1.09742 -5.91811 0
M  V30 4313 H 425.659 -0.461794 -3.00169 0
M  V30 4314 H 423.244 -0.291903 -1.46521 0
M  V30 4315 H 425.126 1.86457 -3.77904 0
M  V30 4316 H 423.801 1.94699 -2.586 0
M  V30 4317 H 422.708 -0.0622782 -3.74048 0
M  V30 4318 H 424.041 -0.062253 -4.92161 0
M  V30 4319 N 425.693 1.55336 -0.266172 0
M  V30 4320 C 426.939 1.99692 0.353681 0
M  V30 4321 C 427.272 1.1543 1.56172 0
M  V30 4322 O 426.547 0.222218 1.93226 0
M  V30 4323 C 426.83 3.52316 0.74466 0
M  V30 4324 C 426.683 4.47337 -0.470101 0
M  V30 4325 C 428.002 4.10588 1.58447 0
M  V30 4326 H 425.121 0.725961 0.12708 0
M  V30 4327 H 427.763 1.86336 -0.371333 0
M  V30 4328 H 425.913 3.63829 1.36239 0
M  V30 4329 H 427.585 4.4778 -1.10864 0
M  V30 4330 H 425.828 4.19364 -1.10978 0
M  V30 4331 H 426.499 5.51788 -0.15291 0
M  V30 4332 H 428.975 4.02297 1.06286 0
M  V30 4333 H 427.851 5.17607 1.82686 0
M  V30 4334 H 428.112 3.60253 2.56262 0
M  V30 4335 N 427.171 -0.0066808 1.57599 0
M  V30 4336 C 428.121 -1.0086 2.04478 0
M  V30 4337 C 429.105 -1.30714 0.938231 0
M  V30 4338 O 430.297 -1.29924 1.20203 0
M  V30 4339 C 427.426 -2.30273 2.54615 0
M  V30 4340 C 426.512 -2.03413 3.72134 0
M  V30 4341 N 426.903 -1.46688 4.84062 0
M  V30 4342 C 425.201 -2.33589 3.79937 0
M  V30 4343 C 425.902 -1.36146 5.65543 0
M  V30 4344 N 424.878 -1.84477 5.1134 0
M  V30 4345 H 428.68 -0.564402 2.8843 0
M  V30 4346 H 426.194 -0.212521 1.61003 0
M  V30 4347 H 428.191 -3.02885 2.86472 0
M  V30 4348 H 426.851 -2.75352 1.72079 0
M  V30 4349 H 427.862 -1.14658 5.05049 0
M  V30 4350 H 424.539 -2.81589 3.08243 0
M  V30 4351 H 425.929 -0.925873 6.6549 0
M  V30 4352 N 428.649 -1.55105 -0.279332 0
M  V30 4353 C 429.597 -1.88333 -1.36505 0
M  V30 4354 C 430.591 -0.759043 -1.51443 0
M  V30 4355 O 431.797 -0.943312 -1.53302 0
M  V30 4356 H 428.172 -0.59766 -0.456406 0
M  V30 4357 H 430.143 -2.79041 -1.05728 0
M  V30 4358 C 428.892 -2.16628 -2.7197 0
M  V30 4359 H 428.215 -3.02624 -2.61264 0
M  V30 4360 H 429.655 -2.43803 -3.46895 0
M  V30 4361 C 428.114 -0.971807 -3.22579 0
M  V30 4362 O 428.644 -0.203228 -4.01186 0
M  V30 4363 N 426.85 -0.771238 -2.80179 0
M  V30 4364 H 426.397 -1.39792 -2.1637 0
M  V30 4365 H 426.355 0.0263667 -3.14389 0
M  V30 4366 N 430.127 0.543554 -1.4793 0
M  V30 4367 C 431.09 1.63156 -1.60975 0
M  V30 4368 C 432.09 1.53346 -0.483899 0
M  V30 4369 O 433.28 1.5726 -0.749339 0
M  V30 4370 C 430.412 3.02743 -1.56716 0
M  V30 4371 H 431.605 1.52934 -2.57975 0
M  V30 4372 H 429.158 0.764557 -1.36324 0
M  V30 4373 H 429.893 3.18484 -0.611418 0
M  V30 4374 H 429.678 3.11272 -2.38438 0
M  V30 4375 H 431.168 3.81871 -1.6901 0
M  V30 4376 N 431.605 1.3629 0.791371 0
M  V30 4377 C 432.552 1.30458 1.90393 0
M  V30 4378 C 433.522 0.173632 1.6519 0
M  V30 4379 O 434.707 0.35983 1.87376 0
M  V30 4380 C 431.847 1.09777 3.27174 0
M  V30 4381 C 430.96 2.31929 3.64462 0
M  V30 4382 C 430.095 2.04276 4.90352 0
M  V30 4383 C 429.134 3.224 5.20312 0
M  V30 4384 N 428.271 2.94424 6.37385 0
M  V30 4385 H 433.111 2.25589 1.94714 0
M  V30 4386 H 430.648 1.12122 0.952216 0
M  V30 4387 H 432.606 0.958133 4.06049 0
M  V30 4388 H 431.236 0.183014 3.22281 0
M  V30 4389 H 430.288 2.56703 2.80727 0
M  V30 4390 H 431.6 3.20085 3.82553 0
M  V30 4391 H 430.754 1.87231 5.77087 0
M  V30 4392 H 429.493 1.13428 4.74326 0
M  V30 4393 H 428.498 3.40005 4.32061 0
M  V30 4394 H 429.723 4.14071 5.38258 0
M  V30 4395 H 427.669 2.06185 6.22755 0
M  V30 4396 H 427.586 3.76118 6.55798 0
M  V30 4397 H 428.854 2.80953 7.27108 0
M  V30 4398 N 433.083 -1.0153 1.20538 0
M  V30 4399 C 434.311 -1.78746 1.04199 0
M  V30 4400 C 434.726 -1.84323 -0.408733 0
M  V30 4401 O 434.083 -1.29714 -1.28377 0
M  V30 4402 C 434.134 -3.23152 1.62035 0
M  V30 4403 O 433.855 -3.17918 3.0143 0
M  V30 4404 C 435.356 -4.16911 1.50666 0
M  V30 4405 H 432.576 -0.56208 0.366479 0
M  V30 4406 H 435.12 -1.27794 1.59653 0
M  V30 4407 H 433.275 -3.71248 1.10697 0
M  V30 4408 H 433.689 -4.08567 3.28897 0
M  V30 4409 H 435.163 -5.16072 1.95892 0
M  V30 4410 H 435.64 -4.36791 0.459363 0
M  V30 4411 H 436.246 -3.74698 2.01201 0
M  V30 4412 N 434.561 -1.01147 -1.20859 0
M  V30 4413 C 435.508 -0.577354 -2.23462 0
M  V30 4414 C 436.478 0.399922 -1.61214 0
M  V30 4415 O 437.663 0.300515 -1.88419 0
M  V30 4416 C 434.803 0.083372 -3.44999 0
M  V30 4417 C 433.916 -0.937856 -4.21697 0
M  V30 4418 C 433.051 -0.248717 -5.30617 0
M  V30 4419 C 432.09 -1.25705 -5.99053 0
M  V30 4420 N 431.227 -0.594939 -6.99575 0
M  V30 4421 H 436.067 -1.45695 -2.59956 0
M  V30 4422 H 433.604 -0.729428 -1.27741 0
M  V30 4423 H 435.562 0.483535 -4.14388 0
M  V30 4424 H 434.192 0.926645 -3.09214 0
M  V30 4425 H 433.244 -1.45622 -3.51423 0
M  V30 4426 H 434.556 -1.70493 -4.68757 0
M  V30 4427 H 433.71 0.207215 -6.06346 0
M  V30 4428 H 432.449 0.55071 -4.84581 0
M  V30 4429 H 431.454 -1.72343 -5.2209 0
M  V30 4430 H 432.679 -2.05767 -6.47176 0
M  V30 4431 H 430.625 0.184713 -6.5574 0
M  V30 4432 H 430.542 -1.30017 -7.44736 0
M  V30 4433 H 431.81 -0.162427 -7.79331 0
M  V30 4434 N 436.039 1.36541 -0.78704 0
M  V30 4435 C 437.45 1.81873 -0.421807 0
M  V30 4436 C 437.801 1.65487 1.05397 0
M  V30 4437 O 436.926 1.17448 1.81755 0
M  V30 4438 C 437.521 3.30192 -0.758841 0
M  V30 4439 C 436.08 3.73743 -0.446468 0
M  V30 4440 C 435.227 2.58844 -0.994728 0
M  V30 4441 H 438.178 1.24796 -0.98039 0
M  V30 4442 H 438.199 3.80468 -0.0490648 0
M  V30 4443 H 437.711 3.42087 -1.83299 0
M  V30 4444 H 435.812 3.6741 0.619739 0
M  V30 4445 H 435.925 4.69272 -0.965415 0
M  V30 4446 H 434.289 2.51245 -0.418087 0
M  V30 4447 H 435.072 2.73525 -2.07458 0
M  V30 4448 N 437.518 0.538854 1.48102 0
M  V30 4449 C 438.934 0.19732 1.58376 0
M  V30 4450 C 439.134 -1.29971 1.5398 0
M  V30 4451 O 438.19 -2.07861 1.43352 0
M  V30 4452 C 439.503 0.807716 2.89649 0
M  V30 4453 C 441.051 0.77726 3.03196 0
M  V30 4454 C 441.526 1.36639 4.37143 0
M  V30 4455 N 443.017 1.32875 4.43732 0
M  V30 4456 C 443.752 1.7544 5.45901 0
M  V30 4457 N 443.248 2.25776 6.54979 0
M  V30 4458 N 445.041 1.66623 5.36836 0
M  V30 4459 H 437.192 1.5117 1.49202 0
M  V30 4460 H 439.455 0.629327 0.708979 0
M  V30 4461 H 439.161 1.85909 2.98548 0
M  V30 4462 H 439.035 0.289975 3.76084 0
M  V30 4463 H 441.422 -0.265374 2.93904 0
M  V30 4464 H 441.503 1.33256 2.18349 0
M  V30 4465 H 441.147 2.408 4.47189 0
M  V30 4466 H 441.077 0.786689 5.20691 0
M  V30 4467 H 443.568 0.96037 3.65493 0
M  V30 4468 H 443.881 2.56226 7.29087 0
M  V30 4469 H 442.226 2.29775 6.55918 0
M  V30 4470 H 445.417 1.27089 4.50517 0
M  V30 4471 H 445.59 2.00115 6.16326 0
M  V30 4472 N 438.996 -1.55193 0.274407 0
M  V30 4473 C 439.906 -2.26164 -0.623473 0
M  V30 4474 C 440.922 -1.28729 -1.17068 0
M  V30 4475 O 442.098 -1.61663 -1.20112 0
M  V30 4476 C 439.163 -2.96833 -1.7914 0
M  V30 4477 C 438.224 -4.09745 -1.28093 0
M  V30 4478 C 437.457 -4.77034 -2.3932 0
M  V30 4479 O 437.68 -4.4353 -3.5866 0
M  V30 4480 O 436.614 -5.64996 -2.07516 0
M  V30 4481 H 440.44 -3.03661 -0.0485661 0
M  V30 4482 H 438.025 -1.49341 0.0418382 0
M  V30 4483 H 439.907 -3.41248 -2.4724 0
M  V30 4484 H 438.582 -2.22253 -2.35341 0
M  V30 4485 H 437.489 -3.69787 -0.566416 0
M  V30 4486 H 438.822 -4.86224 -0.764683 0
M  V30 4487 N 440.474 -0.00167713 -1.576 0
M  V30 4488 C 441.384 1.00548 -2.1196 0
M  V30 4489 C 442.4 1.3758 -1.06526 0
M  V30 4490 O 443.576 1.46278 -1.38436 0
M  V30 4491 C 440.641 2.27809 -2.6135 0
M  V30 4492 C 439.702 1.97074 -3.81393 0
M  V30 4493 C 438.935 3.18267 -4.28417 0
M  V30 4494 O 439.158 4.30009 -3.74765 0
M  V30 4495 O 438.092 3.02167 -5.20556 0
M  V30 4496 H 441.918 0.573373 -2.98238 0
M  V30 4497 H 439.503 0.217255 -1.47812 0
M  V30 4498 H 441.385 3.02568 -2.93309 0
M  V30 4499 H 440.06 2.70254 -1.78169 0
M  V30 4500 H 438.967 1.19785 -3.54404 0
M  V30 4501 H 440.3 1.59464 -4.65652 0
M  V30 4502 N 441.952 1.55251 0.271103 0
M  V30 4503 C 442.884 1.84675 1.35749 0
M  V30 4504 C 443.897 0.731366 1.45447 0
M  V30 4505 O 445.086 1.00924 1.4723 0
M  V30 4506 C 442.186 1.99638 2.73857 0
M  V30 4507 C 441.359 3.30312 2.86727 0
M  V30 4508 C 440.418 3.35318 4.05522 0
M  V30 4509 O 439.444 4.08682 3.96191 0
M  V30 4510 N 440.646 2.62857 5.17577 0
M  V30 4511 H 443.411 2.78445 1.10853 0
M  V30 4512 H 440.972 1.55191 0.461218 0
M  V30 4513 H 442.964 2.00355 3.51625 0
M  V30 4514 H 441.534 1.12725 2.91568 0
M  V30 4515 H 440.754 3.42118 1.95829 0
M  V30 4516 H 442.042 4.16488 2.92258 0
M  V30 4517 H 441.44 2.02939 5.28046 0
M  V30 4518 H 439.997 2.69295 5.93568 0
M  V30 4519 N 443.43 -0.535701 1.48216 0
M  V30 4520 C 444.66 -1.3148 1.59363 0
M  V30 4521 C 445.068 -1.8753 0.250844 0
M  V30 4522 O 444.411 -1.66821 -0.769174 0
M  V30 4523 C 444.473 -2.50731 2.57632 0
M  V30 4524 C 444.137 -2.15811 4.02833 0
M  V30 4525 C 445.134 -1.71822 4.90686 0
M  V30 4526 C 442.819 -2.26509 4.48329 0
M  V30 4527 C 444.813 -1.3899 6.22062 0
M  V30 4528 C 442.5 -1.93289 5.79726 0
M  V30 4529 C 443.498 -1.49599 6.66415 0
M  V30 4530 O 443.186 -1.16812 7.95368 0
M  V30 4531 H 442.918 -0.406315 0.540263 0
M  V30 4532 H 445.472 -0.653569 1.94725 0
M  V30 4533 H 443.702 -3.19817 2.1738 0
M  V30 4534 H 445.391 -3.12797 2.58675 0
M  V30 4535 H 446.157 -1.63031 4.56778 0
M  V30 4536 H 442.036 -2.59471 3.81045 0
M  V30 4537 H 445.58 -1.04816 6.89681 0
M  V30 4538 H 441.477 -2.01718 6.13172 0
M  V30 4539 H 442.245 -1.30259 8.08069 0
M  V30 4540 N 444.908 -1.36708 -0.784132 0
M  V30 4541 C 445.856 -1.31533 -1.91838 0
M  V30 4542 C 446.85 -0.206205 -1.6814 0
M  V30 4543 O 448.056 -0.373519 -1.76082 0
M  V30 4544 H 444.431 -0.409613 -0.630651 0
M  V30 4545 H 446.402 -2.2731 -1.9332 0
M  V30 4546 C 445.151 -1.12679 -3.28936 0
M  V30 4547 H 444.474 -1.97274 -3.4774 0
M  V30 4548 H 445.914 -1.13106 -4.08636 0
M  V30 4549 C 444.373 0.168281 -3.36479 0
M  V30 4550 O 444.903 1.15625 -3.84699 0
M  V30 4551 N 443.109 0.214762 -2.89805 0
M  V30 4552 H 442.656 -0.589852 -2.50756 0
M  V30 4553 H 442.614 1.08094 -2.95234 0
M  V30 4554 N 446.386 1.0089 -1.21074 0
M  V30 4555 C 447.611 1.78727 -1.05221 0
M  V30 4556 C 448.036 1.83932 0.393795 0
M  V30 4557 O 447.394 1.28004 1.28393 0
M  V30 4558 C 447.442 3.20665 -1.64944 0
M  V30 4559 O 446.546 4.02632 -0.892273 0
M  V30 4560 H 445.887 0.550973 -0.370574 0
M  V30 4561 H 448.417 1.26847 -1.60534 0
M  V30 4562 H 448.427 3.71352 -1.69002 0
M  V30 4563 H 447.102 3.16191 -2.70177 0
M  V30 4564 H 445.679 3.61207 -0.926492 0
M  V30 4565 N 447.864 1.01787 1.20321 0
M  V30 4566 C 449.092 0.727194 1.937 0
M  V30 4567 C 449.507 -0.712305 1.74848 0
M  V30 4568 O 448.864 -1.48327 1.06327 0
M  V30 4569 C 448.915 1.05497 3.45764 0
M  V30 4570 O 448.636 2.43794 3.64 0
M  V30 4571 C 450.137 0.785534 4.36285 0
M  V30 4572 H 447.357 0.266939 0.615617 0
M  V30 4573 H 449.901 1.35939 1.52777 0
M  V30 4574 H 448.056 0.468158 3.84561 0
M  V30 4575 H 448.47 2.55656 4.57974 0
M  V30 4576 H 449.944 1.06495 5.4163 0
M  V30 4577 H 450.421 -0.280273 4.38305 0
M  V30 4578 H 451.027 1.35456 4.03152 0
M  V30 4579 N 449.342 -1.36122 0.79427 0
M  V30 4580 C 450.572 -2.03067 0.380437 0
M  V30 4581 C 450.98 -1.60018 -1.00949 0
M  V30 4582 O 450.323 -0.787425 -1.65968 0
M  V30 4583 C 450.385 -3.57587 0.37034 0
M  V30 4584 C 450.049 -4.23855 1.70867 0
M  V30 4585 C 451.046 -4.46404 2.66496 0
M  V30 4586 C 448.731 -4.61229 1.9893 0
M  V30 4587 C 450.725 -5.05412 3.88378 0
M  V30 4588 C 448.412 -5.19953 3.21079 0
M  V30 4589 C 449.41 -5.41985 4.15621 0
M  V30 4590 O 449.098 -5.99475 5.35616 0
M  V30 4591 H 448.83 -0.658168 0.154243 0
M  V30 4592 H 451.384 -1.7498 1.0757 0
M  V30 4593 H 449.614 -3.84814 -0.381444 0
M  V30 4594 H 451.303 -4.05895 -0.0194894 0
M  V30 4595 H 452.069 -4.17921 2.46103 0
M  V30 4596 H 447.948 -4.43402 1.26158 0
M  V30 4597 H 451.492 -5.22524 4.62185 0
M  V30 4598 H 447.389 -5.47862 3.41347 0
M  V30 4599 H 448.157 -6.17937 5.36745 0
M  V30 4600 N 450.82 -0.546701 -1.47814 0
M  V30 4601 C 452.236 -0.205717 -1.58269 0
M  V30 4602 C 452.436 1.29153 -1.54667 0
M  V30 4603 O 451.492 2.07098 -1.44453 0
M  V30 4604 C 452.805 -0.823065 -2.89216 0
M  V30 4605 C 454.353 -0.793328 -3.02779 0
M  V30 4606 C 454.828 -1.38955 -4.36412 0
M  V30 4607 N 456.319 -1.35227 -4.43021 0
M  V30 4608 C 457.054 -1.78333 -5.44963 0
M  V30 4609 N 456.55 -2.29246 -6.53772 0
M  V30 4610 N 458.343 -1.69467 -5.35945 0
M  V30 4611 H 450.494 -1.5196 -1.48398 0
M  V30 4612 H 452.757 -0.633078 -0.705632 0
M  V30 4613 H 452.463 -1.8749 -2.97558 0
M  V30 4614 H 452.337 -0.309915 -3.75925 0
M  V30 4615 H 454.724 0.249784 -2.94041 0
M  V30 4616 H 454.805 -1.34412 -2.17639 0
M  V30 4617 H 454.449 -2.43168 -4.45906 0
M  V30 4618 H 454.379 -0.814291 -5.20266 0
M  V30 4619 H 456.87 -0.979739 -3.64979 0
M  V30 4620 H 457.183 -2.60089 -7.27718 0
M  V30 4621 H 455.528 -2.3325 -6.5469 0
M  V30 4622 H 458.719 -1.29477 -4.49837 0
M  V30 4623 H 458.892 -2.03381 -6.15256 0
M  V30 4624 N 452.299 1.55045 -0.282633 0
M  V30 4625 C 453.545 2.00056 0.332481 0
M  V30 4626 C 453.878 1.1708 1.54939 0
M  V30 4627 O 453.153 0.2427 1.9298 0
M  V30 4628 C 453.436 3.53086 0.70725 0
M  V30 4629 C 453.289 4.46813 -0.517521 0
M  V30 4630 C 454.608 4.12245 1.54084 0
M  V30 4631 H 451.727 0.727268 0.119373 0
M  V30 4632 H 454.369 1.85932 -0.391076 0
M  V30 4633 H 452.519 3.65253 1.32372 0
M  V30 4634 H 454.191 4.46579 -1.15607 0
M  V30 4635 H 452.434 4.18163 -1.1542 0
M  V30 4636 H 453.105 5.51595 -0.211426 0
M  V30 4637 H 455.581 4.03401 1.02013 0
M  V30 4638 H 454.457 5.19515 1.77186 0
M  V30 4639 H 454.718 3.62951 2.52427 0
M  V30 4640 N 453.777 0.010035 1.57597 0
M  V30 4641 C 455.023 -0.673697 1.91283 0
M  V30 4642 C 455.356 -1.72863 0.884979 0
M  V30 4643 O 454.631 -1.94268 -0.0949487 0
M  V30 4644 C 454.914 -1.30766 3.35518 0
M  V30 4645 C 454.767 -0.263578 4.49027 0
M  V30 4646 C 456.086 -2.23105 3.79358 0
M  V30 4647 H 453.205 -0.243439 0.695634 0
M  V30 4648 H 455.847 0.0633864 1.89894 0
M  V30 4649 H 453.997 -1.93588 3.36832 0
M  V30 4650 H 455.669 0.365738 4.59848 0
M  V30 4651 H 453.912 0.413077 4.31829 0
M  V30 4652 H 454.583 -0.746398 5.4693 0
M  V30 4653 H 457.059 -1.70289 3.79659 0
M  V30 4654 H 455.935 -2.64424 4.81011 0
M  V30 4655 H 456.196 -3.11433 3.13787 0
M  V30 4656 N 455.255 -1.55392 -0.262866 0
M  V30 4657 C 456.48 -1.80847 -1.01533 0
M  V30 4658 C 456.905 -0.584946 -1.78774 0
M  V30 4659 O 456.263 0.465701 -1.75217 0
M  V30 4660 C 456.311 -3.03866 -1.94159 0
M  V30 4661 O 455.415 -2.79662 -3.03089 0
M  V30 4662 H 454.756 -0.597441 -0.289759 0
M  V30 4663 H 457.286 -2.02553 -0.288698 0
M  V30 4664 H 457.296 -3.32872 -2.35924 0
M  V30 4665 H 455.971 -3.92564 -1.37354 0
M  V30 4666 H 454.548 -2.61781 -2.65566 0
M  V30 4667 N 456.733 0.527833 -1.48498 0
M  V30 4668 C 457.979 1.28545 -1.56857 0
M  V30 4669 C 458.312 1.92678 -0.242651 0
M  V30 4670 O 457.587 1.79394 0.751545 0
M  V30 4671 C 457.87 2.37314 -2.70839 0
M  V30 4672 C 457.723 1.77858 -4.13142 0
M  V30 4673 C 459.042 3.39068 -2.80573 0
M  V30 4674 H 456.161 0.466006 -0.570971 0
M  V30 4675 H 458.803 0.587784 -1.8068 0
M  V30 4676 H 456.953 2.96821 -2.50658 0
M  V30 4677 H 458.625 1.22385 -4.44769 0
M  V30 4678 H 456.868 1.08383 -4.20042 0
M  V30 4679 H 457.539 2.56624 -4.88721 0
M  V30 4680 H 460.015 2.89518 -2.98862 0
M  V30 4681 H 458.891 4.12566 -3.6205 0
M  V30 4682 H 459.152 3.9975 -1.88818 0
M  V30 4683 N 458.211 1.37122 0.776871 0
M  V30 4684 C 459.141 1.35164 1.90402 0
M  V30 4685 C 460.122 0.221069 1.68657 0
M  V30 4686 O 461.307 0.420642 1.8959 0
M  V30 4687 C 458.437 1.15274 3.27611 0
M  V30 4688 C 457.391 2.25289 3.63908 0
M  V30 4689 C 456.717 1.90527 4.99603 0
M  V30 4690 C 458.017 3.67446 3.71188 0
M  V30 4691 H 459.711 2.29482 1.92297 0
M  V30 4692 H 457.257 1.10465 0.923773 0
M  V30 4693 H 459.21 1.12536 4.06096 0
M  V30 4694 H 457.934 0.174102 3.26136 0
M  V30 4695 H 456.593 2.27174 2.87728 0
M  V30 4696 H 456.241 0.91206 4.94662 0
M  V30 4697 H 455.941 2.64193 5.24858 0
M  V30 4698 H 457.465 1.89367 5.80493 0
M  V30 4699 H 458.879 3.67719 4.39836 0
M  V30 4700 H 457.276 4.40123 4.07936 0
M  V30 4701 H 458.346 4.01443 2.71977 0
M  V30 4702 N 459.689 -1.00246 1.21608 0
M  V30 4703 C 460.917 -1.77631 1.06089 0
M  V30 4704 C 461.332 -1.84746 -0.38916 0
M  V30 4705 O 460.689 -1.31068 -1.26994 0
M  V30 4706 C 460.74 -3.21415 1.65453 0
M  V30 4707 O 460.461 -3.14703 3.04785 0
M  V30 4708 C 461.962 -4.15289 1.55079 0
M  V30 4709 H 459.182 -0.558162 0.37242 0
M  V30 4710 H 461.726 -1.26093 1.60999 0
M  V30 4711 H 459.881 -3.70053 1.14629 0
M  V30 4712 H 460.295 -4.05056 3.33212 0
M  V30 4713 H 461.769 -5.13965 2.01355 0
M  V30 4714 H 462.246 -4.36279 0.505665 0
M  V30 4715 H 462.852 -3.72543 2.05163 0
M  V30 4716 N 461.167 -1.02423 -1.1978 0
M  V30 4717 C 462.413 -0.719051 -1.89625 0
M  V30 4718 C 462.746 0.750083 -1.7913 0
M  V30 4719 O 462.021 1.54574 -1.18056 0
M  V30 4720 C 462.304 -1.16499 -3.40735 0
M  V30 4721 C 462.157 -2.695 -3.60125 0
M  V30 4722 C 463.476 -0.742166 -4.33797 0
M  V30 4723 H 460.595 -0.26269 -0.688595 0
M  V30 4724 H 463.237 -1.27333 -1.41018 0
M  V30 4725 H 461.387 -0.69341 -3.82262 0
M  V30 4726 H 463.059 -3.24569 -3.278 0
M  V30 4727 H 461.302 -3.10113 -3.03336 0
M  V30 4728 H 461.973 -2.95757 -4.66081 0
M  V30 4729 H 464.449 -1.1477 -3.99959 0
M  V30 4730 H 463.325 -1.08213 -5.38127 0
M  V30 4731 H 463.586 0.355747 -4.40666 0
M  V30 4732 N 462.645 1.35699 -0.801477 0
M  V30 4733 C 463.575 2.32436 -0.222658 0
M  V30 4734 C 464.556 1.5723 0.649057 0
M  V30 4735 O 465.741 1.85324 0.580387 0
M  V30 4736 C 462.871 3.41469 0.633719 0
M  V30 4737 C 461.825 4.27774 -0.139083 0
M  V30 4738 C 461.151 5.28082 0.838666 0
M  V30 4739 C 462.451 5.04946 -1.33517 0
M  V30 4740 H 464.145 2.81094 -1.03086 0
M  V30 4741 H 461.691 1.35146 -0.497155 0
M  V30 4742 H 463.644 4.08143 1.04868 0
M  V30 4743 H 462.368 2.91408 1.47475 0
M  V30 4744 H 461.027 3.62673 -0.535156 0
M  V30 4745 H 460.675 4.7429 1.67506 0
M  V30 4746 H 460.375 5.86695 0.32594 0
M  V30 4747 H 461.899 5.97628 1.25194 0
M  V30 4748 H 463.313 5.64593 -0.995349 0
M  V30 4749 H 461.71 5.7303 -1.78202 0
M  V30 4750 H 462.78 4.35886 -2.12442 0
M  V30 4751 N 464.123 0.554532 1.47522 0
M  V30 4752 C 465.073 -0.215008 2.26984 0
M  V30 4753 C 466.057 -0.88774 1.34194 0
M  V30 4754 O 467.249 -0.786489 1.58567 0
M  V30 4755 C 464.378 -1.24604 3.19889 0
M  V30 4756 C 463.464 -0.576857 4.20159 0
M  V30 4757 N 463.855 0.351541 5.04577 0
M  V30 4758 C 462.153 -0.831104 4.38188 0
M  V30 4759 C 462.854 0.739995 5.76974 0
M  V30 4760 N 461.83 0.0954407 5.43516 0
M  V30 4761 H 465.632 0.498843 2.89636 0
M  V30 4762 H 463.146 0.374279 1.58028 0
M  V30 4763 H 465.143 -1.81128 3.75498 0
M  V30 4764 H 463.803 -1.96101 2.58794 0
M  V30 4765 H 464.814 0.725556 5.12792 0
M  V30 4766 H 461.491 -1.53479 3.88266 0
M  V30 4767 H 462.881 1.50271 6.5488 0
M  V30 4768 N 465.601 -1.54893 0.290851 0
M  V30 4769 C 466.533 -2.20564 -0.623236 0
M  V30 4770 C 467.546 -1.19519 -1.1054 0
M  V30 4771 O 468.735 -1.46165 -1.02459 0
M  V30 4772 C 465.835 -2.83033 -1.86401 0
M  V30 4773 C 465.008 -4.09916 -1.52604 0
M  V30 4774 C 464.067 -4.56284 -2.62091 0
M  V30 4775 O 463.093 -5.2171 -2.27612 0
M  V30 4776 N 464.295 -4.27746 -3.92446 0
M  V30 4777 H 467.06 -2.99638 -0.0610915 0
M  V30 4778 H 464.621 -1.61508 0.112615 0
M  V30 4779 H 466.613 -3.1099 -2.58973 0
M  V30 4780 H 465.183 -2.0786 -2.33481 0
M  V30 4781 H 464.403 -3.89078 -0.633424 0
M  V30 4782 H 465.691 -4.92554 -1.27547 0
M  V30 4783 H 465.089 -3.7531 -4.23272 0
M  V30 4784 H 463.646 -4.60437 -4.61347 0
M  V30 4785 N 467.08 -0.0183926 -1.57589 0
M  V30 4786 C 468.357 0.700621 -1.82622 0
M  V30 4787 C 468.737 1.90951 -0.90005 0
M  V30 4788 O 468.085 2.28452 0.0469145 0
M  V30 4789 C 468.295 1.08899 -3.31575 0
M  V30 4790 C 469.643 1.48514 -3.9778 0
M  V30 4791 O 470.667 1.18227 -3.36007 0
M  V30 4792 O 469.526 2.04903 -5.06633 0
M  V30 4793 H 466.62 0.342743 -0.752633 0
M  V30 4794 H 469.166 -0.0452548 -1.6964 0
M  V30 4795 H 467.938 0.228113 -3.90635 0
M  V30 4796 H 467.561 1.89338 -3.49624 0
M  V30 4797 N 468.558 1.5553 0.254621 0
M  V30 4798 C 469.804 1.7818 0.980989 0
M  V30 4799 C 470.159 0.586059 1.83257 0
M  V30 4800 O 469.452 -0.420889 1.8692 0
M  V30 4801 C 469.646 3.03891 1.88109 0
M  V30 4802 C 469.475 4.35578 1.11812 0
M  V30 4803 C 468.245 4.98497 0.826343 0
M  V30 4804 C 470.443 5.11869 0.499486 0
M  V30 4805 N 468.425 6.13888 0.0385095 0
M  V30 4806 C 469.796 6.1981 -0.153292 0
M  V30 4807 C 471.851 4.96216 0.409175 0
M  V30 4808 C 470.554 7.13801 -0.8877 0
M  V30 4809 C 472.58 5.90578 -0.311683 0
M  V30 4810 C 471.942 6.97922 -0.953129 0
M  V30 4811 H 468.041 0.704057 0.340335 0
M  V30 4812 H 470.625 1.93025 0.254855 0
M  V30 4813 H 468.796 2.90389 2.57932 0
M  V30 4814 H 470.528 3.14869 2.54244 0
M  V30 4815 H 467.283 4.59769 1.13621 0
M  V30 4816 H 467.707 6.76129 -0.343275 0
M  V30 4817 H 472.349 4.1331 0.890765 0
M  V30 4818 H 470.067 7.96214 -1.38092 0
M  V30 4819 H 473.653 5.80544 -0.382125 0
M  V30 4820 H 472.533 7.69681 -1.50203 0
M  V30 4821 N 470.036 -0.519951 1.48776 0
M  V30 4822 C 470.966 -1.63253 1.66945 0
M  V30 4823 C 471.947 -1.62014 0.518224 0
M  V30 4824 O 473.132 -1.79053 0.751919 0
M  V30 4825 C 470.262 -3.0181 1.71836 0
M  V30 4826 C 469.216 -3.17911 2.8656 0
M  V30 4827 C 468.542 -4.5763 2.76548 0
M  V30 4828 C 469.842 -2.99729 4.27738 0
M  V30 4829 H 471.536 -1.48302 2.6009 0
M  V30 4830 H 469.082 -0.712026 1.25165 0
M  V30 4831 H 471.035 -3.79525 1.83135 0
M  V30 4832 H 469.759 -3.17806 0.752775 0
M  V30 4833 H 468.418 -2.42616 2.74833 0
M  V30 4834 H 468.066 -4.70476 1.77937 0
M  V30 4835 H 467.766 -4.69346 3.53536 0
M  V30 4836 H 469.29 -5.37431 2.89828 0
M  V30 4837 H 470.704 -3.67228 4.40246 0
M  V30 4838 H 469.101 -3.22932 5.05801 0
M  V30 4839 H 470.171 -1.96047 4.43502 0
M  V30 4840 N 471.514 -1.37532 -0.769588 0
M  V30 4841 C 472.462 -1.33561 -1.90432 0
M  V30 4842 C 473.456 -0.224027 -1.67912 0
M  V30 4843 O 474.662 -0.392174 -1.75676 0
M  V30 4844 H 471.037 -0.416279 -0.626271 0
M  V30 4845 H 473.008 -2.29348 -1.90899 0
M  V30 4846 C 471.757 -1.16162 -3.27722 0
M  V30 4847 H 471.08 -2.00951 -3.45628 0
M  V30 4848 H 472.52 -1.17434 -4.07413 0
M  V30 4849 C 470.979 0.132583 -3.36639 0
M  V30 4850 O 471.509 1.11539 -3.85904 0
M  V30 4851 N 469.715 0.184013 -2.90017 0
M  V30 4852 H 469.262 -0.616415 -2.50116 0
M  V30 4853 H 469.22 1.04956 -2.96364 0
M  V30 4854 N 472.992 0.995999 -1.22138 0
M  V30 4855 C 474.24 1.73167 -1.042 0
M  V30 4856 C 474.561 1.90329 0.42423 0
M  V30 4857 O 473.831 1.4607 1.30539 0
M  V30 4858 H 472.411 0.641593 -0.38258 0
M  V30 4859 H 475.073 1.19974 -1.53598 0
M  V30 4860 H 474.169 2.72734 -1.51731 0
M  V30 4861 N 474.47 1.03057 1.19235 0
M  V30 4862 C 475.417 0.612832 2.22515 0
M  V30 4863 C 476.387 -0.374224 1.61829 0
M  V30 4864 O 477.572 -0.270501 1.88873 0
M  V30 4865 C 474.712 -0.028475 3.45088 0
M  V30 4866 C 473.825 1.00483 4.20151 0
M  V30 4867 C 472.96 0.333102 5.30155 0
M  V30 4868 C 471.999 1.3522 5.96977 0
M  V30 4869 N 471.136 0.70616 6.9854 0
M  V30 4870 H 475.976 1.49812 2.57605 0
M  V30 4871 H 473.513 0.749658 1.26564 0
M  V30 4872 H 475.471 -0.417548 4.15105 0
M  V30 4873 H 474.101 -0.877334 3.10649 0
M  V30 4874 H 473.153 1.51194 3.49062 0
M  V30 4875 H 474.465 1.77929 4.65986 0
M  V30 4876 H 473.619 -0.110725 6.06599 0
M  V30 4877 H 472.358 -0.473547 4.85396 0
M  V30 4878 H 471.363 1.80627 5.19282 0
M  V30 4879 H 472.588 2.16037 6.4382 0
M  V30 4880 H 470.534 -0.0803667 6.55951 0
M  V30 4881 H 470.451 1.41848 7.42573 0
M  V30 4882 H 471.719 0.286391 7.78974 0
M  V30 4883 N 475.948 -1.35272 0.808662 0
M  V30 4884 C 476.858 -2.33546 0.222079 0
M  V30 4885 C 477.874 -1.6196 -0.636011 0
M  V30 4886 O 479.05 -1.93822 -0.547274 0
M  V30 4887 C 476.115 -3.41148 -0.61795 0
M  V30 4888 C 475.176 -4.28507 0.260875 0
M  V30 4889 C 474.409 -5.3097 -0.539156 0
M  V30 4890 O 474.632 -5.42123 -1.77367 0
M  V30 4891 O 473.566 -6.01858 0.0710526 0
M  V30 4892 H 477.392 -2.85515 1.03512 0
M  V30 4893 H 474.977 -1.38079 0.570495 0
M  V30 4894 H 476.859 -4.06889 -1.09634 0
M  V30 4895 H 475.534 -2.91447 -1.40855 0
M  V30 4896 H 474.441 -3.6574 0.786451 0
M  V30 4897 H 475.774 -4.81611 1.01547 0
M  V30 4898 N 477.426 -0.562348 -1.47226 0
M  V30 4899 C 478.656 -0.0451619 -2.06551 0
M  V30 4900 C 479.064 1.25626 -1.41473 0
M  V30 4901 O 478.407 1.76563 -0.507061 0
M  V30 4902 C 478.469 0.216068 -3.5885 0
M  V30 4903 C 478.133 -0.996691 -4.45999 0
M  V30 4904 C 479.13 -1.90358 -4.83797 0
M  V30 4905 C 476.815 -1.21281 -4.87438 0
M  V30 4906 C 478.809 -3.01023 -5.6184 0
M  V30 4907 C 476.496 -2.32255 -5.65244 0
M  V30 4908 C 477.494 -3.21956 -6.02356 0
M  V30 4909 O 477.182 -4.31005 -6.78594 0
M  V30 4910 H 476.914 -0.0451646 -0.67449 0
M  V30 4911 H 479.468 -0.776842 -1.90143 0
M  V30 4912 H 477.698 1.00212 -3.7349 0
M  V30 4913 H 479.387 0.679264 -4.00176 0
M  V30 4914 H 480.153 -1.74868 -4.52378 0
M  V30 4915 H 476.032 -0.523767 -4.58015 0
M  V30 4916 H 479.576 -3.71064 -5.90726 0
M  V30 4917 H 475.473 -2.47715 -5.96077 0
M  V30 4918 H 476.241 -4.29118 -6.96994 0
M  V30 4919 N 478.904 1.54736 -0.299062 0
M  V30 4920 C 479.851 2.23448 0.577899 0
M  V30 4921 C 480.821 1.21637 1.13109 0
M  V30 4922 O 482.006 1.50252 1.17597 0
M  V30 4923 C 479.146 2.9774 1.74484 0
M  V30 4924 C 478.259 4.1432 1.22323 0
M  V30 4925 C 477.394 4.76199 2.35388 0
M  V30 4926 C 476.433 5.84927 1.80351 0
M  V30 4927 N 475.57 6.4077 2.86982 0
M  V30 4928 H 480.41 2.97996 -0.0146545 0
M  V30 4929 H 477.947 1.47088 -0.0190013 0
M  V30 4930 H 479.905 3.39045 2.43114 0
M  V30 4931 H 478.535 2.25572 2.30905 0
M  V30 4932 H 477.587 3.7797 0.429249 0
M  V30 4933 H 478.899 4.92659 0.780309 0
M  V30 4934 H 478.053 5.20346 3.11969 0
M  V30 4935 H 476.792 3.97188 2.83006 0
M  V30 4936 H 475.797 5.40207 1.02259 0
M  V30 4937 H 477.022 6.65821 1.3364 0
M  V30 4938 H 474.968 5.64643 3.33938 0
M  V30 4939 H 474.885 7.1445 2.4718 0
M  V30 4940 H 476.153 6.89574 3.63466 0
M  V30 4941 N 480.382 0.0267497 1.57577 0
M  V30 4942 C 481.622 -0.65659 1.93567 0
M  V30 4943 C 481.986 -1.69429 0.903213 0
M  V30 4944 O 483.187 -2.42994 1.14923 0
M  V30 4945 C 481.458 -1.25912 3.34486 0
M  V30 4946 S 483.017 -1.96386 3.924 0
M  V30 4947 H 479.835 -0.216237 0.67732 0
M  V30 4948 H 482.437 0.0898475 1.95293 0
M  V30 4949 H 481.141 -0.491405 4.07447 0
M  V30 4950 H 480.672 -2.04291 3.36198 0
M  V30 4951 H 482.687 -3.24202 3.75643 0
M  V30 4952 N 481.861 -1.55662 -0.24637 0
M  V30 4953 C 482.808 -1.90361 -1.30504 0
M  V30 4954 C 483.778 -0.757905 -1.47801 0
M  V30 4955 O 484.963 -1.01161 -1.61775 0
M  V30 4956 C 482.103 -2.2042 -2.65535 0
M  V30 4957 C 481.216 -3.47799 -2.56242 0
M  V30 4958 C 480.351 -3.67426 -3.8363 0
M  V30 4959 C 479.39 -4.88403 -3.68956 0
M  V30 4960 N 478.527 -5.04548 -4.88237 0
M  V30 4961 H 483.367 -2.80645 -1.00213 0
M  V30 4962 H 480.904 -1.38924 -0.483577 0
M  V30 4963 H 482.862 -2.35853 -3.44135 0
M  V30 4964 H 481.492 -1.3334 -2.93973 0
M  V30 4965 H 480.544 -3.40694 -1.69208 0
M  V30 4966 H 481.856 -4.36544 -2.4131 0
M  V30 4967 H 481.01 -3.82821 -4.70673 0
M  V30 4968 H 479.749 -2.76914 -4.01459 0
M  V30 4969 H 478.754 -4.72984 -2.80296 0
M  V30 4970 H 479.979 -5.80375 -3.52621 0
M  V30 4971 H 477.925 -4.16974 -5.06427 0
M  V30 4972 H 477.842 -5.87384 -4.75937 0
M  V30 4973 H 479.11 -5.24355 -5.76777 0
M  V30 4974 N 483.339 0.512053 -1.4905 0
M  V30 4975 C 484.585 1.26874 -1.58212 0
M  V30 4976 C 484.918 1.9241 -0.263073 0
M  V30 4977 O 484.193 1.80181 0.732476 0
M  V30 4978 C 484.476 2.34428 -2.73341 0
M  V30 4979 C 484.329 1.73466 -4.15006 0
M  V30 4980 C 485.648 3.36073 -2.84154 0
M  V30 4981 H 482.767 0.459924 -0.575881 0
M  V30 4982 H 485.409 0.568587 -1.81293 0
M  V30 4983 H 483.559 2.94146 -2.53792 0
M  V30 4984 H 485.231 1.17661 -4.46042 0
M  V30 4985 H 483.474 1.03921 -4.21168 0
M  V30 4986 H 484.145 2.51426 -4.91415 0
M  V30 4987 H 486.621 2.86332 -3.01916 0
M  V30 4988 H 485.497 4.08703 -3.66406 0
M  V30 4989 H 485.758 3.97725 -1.93048 0
M  V30 4990 N 484.817 1.37938 0.762283 0
M  V30 4991 C 486.042 1.37059 1.55659 0
M  V30 4992 C 486.467 -0.0396123 1.88058 0
M  V30 4993 O 485.825 -1.01929 1.49934 0
M  V30 4994 C 485.873 2.22494 2.83776 0
M  V30 4995 O 484.977 1.63607 3.78559 0
M  V30 4996 H 484.318 0.467892 0.47114 0
M  V30 4997 H 486.848 1.81587 0.942725 0
M  V30 4998 H 486.858 2.36045 3.32786 0
M  V30 4999 H 485.533 3.24993 2.59524 0
M  V30 5000 H 484.11 1.5915 3.37233 0
M  V30 5001 N 486.295 -0.989507 1.22664 0
M  V30 5002 C 487.243 -2.10148 0.997035 0
M  V30 5003 C 488.237 -1.6929 -0.0609783 0
M  V30 5004 O 489.443 -1.79766 0.0917523 0
M  V30 5005 H 485.818 -0.687256 0.305259 0
M  V30 5006 H 487.789 -2.26685 1.94053 0
M  V30 5007 C 486.538 -3.4257 0.595085 0
M  V30 5008 H 485.861 -3.74453 1.40089 0
M  V30 5009 H 487.301 -4.21344 0.473869 0
M  V30 5010 C 485.76 -3.29638 -0.695725 0
M  V30 5011 O 486.29 -3.61709 -1.74727 0
M  V30 5012 N 484.496 -2.82814 -0.668173 0
M  V30 5013 H 484.043 -2.56914 0.18787 0
M  V30 5014 H 484.001 -2.74544 -1.5321 0
M  V30 5015 N 487.773 -1.03688 -1.18687 0
M  V30 5016 C 488.72 -0.624624 -2.22187 0
M  V30 5017 C 489.69 0.365636 -1.62026 0
M  V30 5018 O 490.875 0.260481 -1.89014 0
M  V30 5019 C 488.015 0.0101738 -3.45099 0
M  V30 5020 C 487.128 -1.02709 -4.19613 0
M  V30 5021 C 486.263 -0.361213 -5.2997 0
M  V30 5022 C 485.302 -1.38384 -5.96252 0
M  V30 5023 N 484.439 -0.743196 -6.98155 0
M  V30 5024 H 489.279 -1.51176 -2.56807 0
M  V30 5025 H 486.816 -0.75636 -1.26165 0
M  V30 5026 H 488.774 0.395528 -4.15321 0
M  V30 5027 H 487.404 0.860848 -3.1111 0
M  V30 5028 H 486.456 -1.53043 -3.48256 0
M  V30 5029 H 487.768 -1.80398 -4.65036 0
M  V30 5030 H 486.922 0.0785537 -6.06649 0
M  V30 5031 H 485.661 0.447799 -4.8564 0
M  V30 5032 H 484.666 -1.83378 -5.18317 0
M  V30 5033 H 485.891 -2.19448 -6.42666 0
M  V30 5034 H 483.837 0.0455789 -6.55984 0
M  V30 5035 H 483.754 -1.45784 -7.41811 0
M  V30 5036 H 485.022 -0.327698 -7.78811 0
M  V30 5037 N 489.251 1.34841 -0.815825 0
M  V30 5038 C 490.214 2.27959 -0.238185 0
M  V30 5039 C 491.214 1.49983 0.579816 0
M  V30 5040 O 492.404 1.69617 0.396953 0
M  V30 5041 C 489.536 3.34314 0.666876 0
M  V30 5042 H 490.729 2.80558 -1.05958 0
M  V30 5043 H 488.282 1.44852 -0.587156 0
M  V30 5044 H 489.017 2.86916 1.5116 0
M  V30 5045 H 488.802 3.92014 0.0819106 0
M  V30 5046 H 490.292 4.0379 1.06506 0
M  V30 5047 N 490.729 0.570148 1.46925 0
M  V30 5048 C 491.659 -0.158274 2.32963 0
M  V30 5049 C 492.64 -0.896093 1.44583 0
M  V30 5050 O 493.825 -0.874022 1.7342 0
M  V30 5051 C 490.955 -1.18055 3.26619 0
M  V30 5052 C 489.909 -0.558379 4.24342 0
M  V30 5053 C 489.235 -1.68623 5.07415 0
M  V30 5054 C 490.535 0.496295 5.19937 0
M  V30 5055 H 492.229 0.560046 2.94115 0
M  V30 5056 H 489.775 0.270775 1.41431 0
M  V30 5057 H 491.728 -1.69841 3.85658 0
M  V30 5058 H 490.452 -1.92899 2.63548 0
M  V30 5059 H 489.111 -0.0617157 3.66548 0
M  V30 5060 H 488.759 -2.42402 4.40738 0
M  V30 5061 H 488.459 -1.27564 5.73586 0
M  V30 5062 H 489.983 -2.20709 5.69315 0
M  V30 5063 H 491.397 0.0640052 5.73264 0
M  V30 5064 H 489.794 0.82649 5.94381 0
M  V30 5065 H 490.864 1.38735 4.6463 0
M  V30 5066 N 492.207 -1.54576 0.307264 0
M  V30 5067 C 493.618 -1.8579 -0.184121 0
M  V30 5068 C 493.969 -1.22914 -1.52927 0
M  V30 5069 O 493.094 -0.529126 -2.09831 0
M  V30 5070 C 493.689 -3.37081 -0.340862 0
M  V30 5071 C 492.248 -3.68304 -0.776465 0
M  V30 5072 C 491.395 -2.77076 0.111503 0
M  V30 5073 H 494.346 -1.49656 0.528078 0
M  V30 5074 H 494.367 -3.61922 -1.17443 0
M  V30 5075 H 493.879 -3.82815 0.638309 0
M  V30 5076 H 491.98 -3.28092 -1.76596 0
M  V30 5077 H 492.093 -4.75434 -0.591512 0
M  V30 5078 H 490.457 -2.51374 -0.410256 0
M  V30 5079 H 491.24 -3.25632 1.08714 0
M  V30 5080 N 493.685 -0.035106 -1.57561 0
M  V30 5081 C 494.648 0.929819 -2.09492 0
M  V30 5082 C 495.648 1.25026 -1.01119 0
M  V30 5083 O 496.838 1.18961 -1.27255 0
M  V30 5084 C 493.97 2.24457 -2.56577 0
M  V30 5085 H 495.163 0.479935 -2.96035 0
M  V30 5086 H 492.716 0.213033 -1.54841 0
M  V30 5087 H 493.451 2.74061 -1.73382 0
M  V30 5088 H 493.236 2.02508 -3.35757 0
M  V30 5089 H 494.726 2.93607 -2.96959 0
M  V30 5090 N 495.163 1.55791 0.238111 0
M  V30 5091 C 496.574 1.68383 0.806472 0
M  V30 5092 C 496.925 0.634157 1.85669 0
M  V30 5093 O 496.05 -0.217913 2.153 0
M  V30 5094 C 496.645 3.05268 1.46959 0
M  V30 5095 C 495.204 3.1977 1.98555 0
M  V30 5096 C 494.351 2.64279 0.839763 0
M  V30 5097 H 497.302 1.58694 0.0137535 0
M  V30 5098 H 497.323 3.00203 2.33792 0
M  V30 5099 H 496.835 3.81643 0.704993 0
M  V30 5100 H 494.936 2.48234 2.77868 0
M  V30 5101 H 495.049 4.26788 2.17689 0
M  V30 5102 H 493.413 2.22329 1.24265 0
M  V30 5103 H 494.196 3.43187 0.0881032 0
M  V30 5104 N 496.642 -0.504142 1.49319 0
M  V30 5105 C 497.891 -1.25507 1.57895 0
M  V30 5106 C 498.204 -1.93735 0.269433 0
M  V30 5107 O 499.41 -2.70492 0.233706 0
M  V30 5108 C 497.866 -2.27869 2.78574 0
M  V30 5109 C 497.474 -1.65594 4.16272 0
M  V30 5110 C 499.218 -3.0381 2.96479 0
M  V30 5111 C 497.125 -2.66048 5.28178 0
M  V30 5112 H 496.055 -0.47212 0.587894 0
M  V30 5113 H 498.706 -0.52931 1.757 0
M  V30 5114 H 497.088 -3.03594 2.54257 0
M  V30 5115 H 498.262 -0.958826 4.50714 0
M  V30 5116 H 496.577 -1.02055 4.037 0
M  V30 5117 H 499.174 -3.78925 3.77253 0
M  V30 5118 H 499.517 -3.61235 2.06918 0
M  V30 5119 H 500.05 -2.352 3.20821 0
M  V30 5120 H 496.789 -2.13408 6.19788 0
M  V30 5121 H 496.309 -3.34009 4.98195 0
M  V30 5122 H 497.988 -3.28536 5.57381 0
M  V30 5123 N 498.12 -1.38341 -0.754957 0
M  V30 5124 C 499.03 -1.3769 -1.89944 0
M  V30 5125 C 500.046 -0.274194 -1.71826 0
M  V30 5126 O 501.222 -0.512391 -1.94773 0
M  V30 5127 C 498.287 -1.19938 -3.25293 0
M  V30 5128 C 497.348 -2.40001 -3.55946 0
M  V30 5129 C 496.581 -2.23087 -4.84838 0
M  V30 5130 O 496.804 -1.22386 -5.57116 0
M  V30 5131 O 495.738 -3.11646 -5.14937 0
M  V30 5132 H 499.564 -2.3412 -1.93446 0
M  V30 5133 H 497.149 -1.19246 -0.900044 0
M  V30 5134 H 499.031 -1.12093 -4.06218 0
M  V30 5135 H 497.706 -0.265919 -3.22606 0
M  V30 5136 H 496.613 -2.53421 -2.75188 0
M  V30 5137 H 497.946 -3.31973 -3.63394 0
M  V30 5138 N 499.598 0.982988 -1.23187 0
M  V30 5139 C 500.545 2.07491 -1.01075 0
M  V30 5140 C 501.515 1.65949 0.070905 0
M  V30 5141 O 502.7 1.90629 -0.0806822 0
M  V30 5142 C 499.84 3.39751 -0.605261 0
M  V30 5143 C 498.953 3.94578 -1.75876 0
M  V30 5144 C 498.088 5.15039 -1.3003 0
M  V30 5145 C 497.127 5.62027 -2.42472 0
M  V30 5146 N 496.264 6.73719 -1.97602 0
M  V30 5147 H 501.104 2.25739 -1.9454 0
M  V30 5148 H 498.641 1.10659 -0.969179 0
M  V30 5149 H 500.599 4.15719 -0.351279 0
M  V30 5150 H 499.229 3.21473 0.292382 0
M  V30 5151 H 498.281 3.1539 -2.12681 0
M  V30 5152 H 499.593 4.25422 -2.60418 0
M  V30 5153 H 498.747 5.9833 -1.00429 0
M  V30 5154 H 497.486 4.85843 -0.425216 0
M  V30 5155 H 496.491 4.77318 -2.7285 0
M  V30 5156 H 497.716 5.93244 -3.30512 0
M  V30 5157 H 495.662 6.46287 -1.1247 0
M  V30 5158 H 495.579 7.03934 -2.75705 0
M  V30 5159 H 496.847 7.6049 -1.71098 0
M  V30 5160 N 501.076 1.04316 1.18135 0
M  V30 5161 C 502.304 0.768117 1.92113 0
M  V30 5162 C 502.719 -0.675057 1.76319 0
M  V30 5163 O 502.076 -1.46038 1.09449 0
M  V30 5164 C 502.127 1.12808 3.43448 0
M  V30 5165 O 501.848 2.5146 3.58747 0
M  V30 5166 C 503.349 0.8779 4.3452 0
M  V30 5167 H 500.569 0.279937 0.609817 0
M  V30 5168 H 503.113 1.39149 1.49859 0
M  V30 5169 H 501.268 0.549623 3.83481 0
M  V30 5170 H 501.682 2.65313 4.52448 0
M  V30 5171 H 503.156 1.17959 5.39249 0
M  V30 5172 H 503.633 -0.187239 4.38801 0
M  V30 5173 H 504.239 1.43977 4.00188 0
M  V30 5174 N 502.554 -1.34406 0.822964 0
M  V30 5175 C 503.803 -1.97542 0.407458 0
M  V30 5176 C 504.116 -1.65973 -1.035 0
M  V30 5177 O 505.322 -2.22598 -1.55442 0
M  V30 5178 C 503.778 -3.53463 0.677623 0
M  V30 5179 C 503.386 -3.93925 2.1337 0
M  V30 5180 C 505.13 -4.23229 0.328284 0
M  V30 5181 C 503.037 -5.42759 2.34876 0
M  V30 5182 H 501.967 -0.739207 0.148623 0
M  V30 5183 H 504.618 -1.53248 1.00932 0
M  V30 5184 H 503 -3.96 0.00558965 0
M  V30 5185 H 504.174 -3.62494 2.8449 0
M  V30 5186 H 502.489 -3.37097 2.44448 0
M  V30 5187 H 505.086 -5.32659 0.466794 0
M  V30 5188 H 505.429 -4.09899 -0.727224 0
M  V30 5189 H 505.962 -3.86169 0.954896 0
M  V30 5190 H 502.701 -5.61075 3.38932 0
M  V30 5191 H 502.221 -5.75704 1.68299 0
M  V30 5192 H 503.9 -6.0944 2.17236 0
M  V30 5193 N 504.032 -0.577932 -1.46621 0
M  V30 5194 C 505.257 -0.0652536 -2.07297 0
M  V30 5195 C 505.682 1.22828 -1.4246 0
M  V30 5196 O 505.04 1.74075 -0.506718 0
M  V30 5197 C 505.088 0.0920589 -3.60482 0
M  V30 5198 O 504.192 1.14972 -3.96049 0
M  V30 5199 H 503.533 -0.06065 -0.661224 0
M  V30 5200 H 506.063 -0.799515 -1.88332 0
M  V30 5201 H 506.073 0.299741 -4.06897 0
M  V30 5202 H 504.748 -0.852612 -4.07067 0
M  V30 5203 H 503.325 0.920879 -3.61351 0
M  V30 5204 N 505.51 1.54411 -0.315457 0
M  V30 5205 C 506.457 2.24048 0.554166 0
M  V30 5206 C 507.427 1.2283 1.11812 0
M  V30 5207 O 508.612 1.51491 1.15997 0
M  V30 5208 C 505.752 2.99574 1.71316 0
M  V30 5209 C 504.865 4.15594 1.17922 0
M  V30 5210 C 504 4.78669 2.30324 0
M  V30 5211 C 503.039 5.86807 1.74137 0
M  V30 5212 N 502.176 6.43777 2.8017 0
M  V30 5213 H 507.016 2.97964 -0.0462602 0
M  V30 5214 H 504.553 1.47059 -0.0346009 0
M  V30 5215 H 506.511 3.41604 2.39505 0
M  V30 5216 H 505.141 2.28008 2.285 0
M  V30 5217 H 504.193 3.78404 0.389136 0
M  V30 5218 H 505.505 4.93459 0.728012 0
M  V30 5219 H 504.659 5.23626 3.06433 0
M  V30 5220 H 503.398 4.00168 2.78778 0
M  V30 5221 H 502.403 5.41261 0.965236 0
M  V30 5222 H 503.628 6.67201 1.2657 0
M  V30 5223 H 501.574 5.68153 3.2793 0
M  V30 5224 H 501.491 7.17031 2.39588 0
M  V30 5225 H 502.759 6.9339 3.56132 0
M  V30 5226 N 506.988 0.0434614 1.5754 0
M  V30 5227 C 507.951 -0.918696 2.09982 0
M  V30 5228 C 508.951 -1.24488 1.01781 0
M  V30 5229 O 510.141 -1.18284 1.27885 0
M  V30 5230 C 507.273 -2.23093 2.57764 0
M  V30 5231 H 508.466 -0.464229 2.96285 0
M  V30 5232 H 506.019 -0.204818 1.54952 0
M  V30 5233 H 506.754 -2.73137 1.74832 0
M  V30 5234 H 506.539 -2.00724 3.36827 0
M  V30 5235 H 508.029 -2.92028 2.98512 0
M  V30 5236 N 508.466 -1.55915 -0.229846 0
M  V30 5237 C 509.413 -1.91734 -1.28478 0
M  V30 5238 C 510.383 -0.773539 -1.46988 0
M  V30 5239 O 511.568 -1.02871 -1.60693 0
M  V30 5240 C 508.708 -2.23224 -2.63182 0
M  V30 5241 C 507.821 -3.50497 -2.52539 0
M  V30 5242 C 506.956 -3.71474 -3.79711 0
M  V30 5243 C 505.995 -4.92289 -3.63755 0
M  V30 5244 N 505.132 -5.09698 -4.82858 0
M  V30 5245 H 509.972 -2.81692 -0.972308 0
M  V30 5246 H 507.509 -1.39429 -0.468815 0
M  V30 5247 H 509.467 -2.3949 -3.41614 0
M  V30 5248 H 508.097 -1.36451 -2.92542 0
M  V30 5249 H 507.149 -3.4247 -1.65585 0
M  V30 5250 H 508.461 -4.39079 -2.36666 0
M  V30 5251 H 507.615 -3.87791 -4.66586 0
M  V30 5252 H 506.354 -2.81157 -3.985 0
M  V30 5253 H 505.359 -4.7593 -2.75264 0
M  V30 5254 H 506.584 -5.84083 -3.46445 0
M  V30 5255 H 504.53 -4.22322 -5.01976 0
M  V30 5256 H 504.447 -5.92399 -4.69681 0
M  V30 5257 H 505.715 -5.30443 -5.71183 0
M  V30 5258 N 509.944 0.496216 -1.49584 0
M  V30 5259 C 511.192 1.24756 -1.58998 0
M  V30 5260 C 511.513 1.92968 -0.280775 0
M  V30 5261 O 510.783 1.82959 0.700198 0
M  V30 5262 H 509.363 0.463471 -0.585836 0
M  V30 5263 H 512.025 0.574678 -1.86235 0
M  V30 5264 H 511.121 2.00895 -2.38847 0
M  V30 5265 N 511.423 1.38739 0.74761 0
M  V30 5266 C 512.355 1.32341 1.87132 0
M  V30 5267 C 513.368 0.234502 1.61102 0
M  V30 5268 O 514.557 0.492516 1.71571 0
M  V30 5269 C 511.657 1.02915 3.22896 0
M  V30 5270 C 510.83 2.22834 3.76383 0
M  V30 5271 C 509.889 1.90059 4.90677 0
M  V30 5272 O 508.915 2.62615 5.04997 0
M  V30 5273 N 510.117 0.859141 5.74107 0
M  V30 5274 H 512.882 2.29175 1.93129 0
M  V30 5275 H 510.443 1.32678 0.927805 0
M  V30 5276 H 512.435 0.79031 3.96908 0
M  V30 5277 H 511.005 0.148572 3.12247 0
M  V30 5278 H 510.225 2.62747 2.93867 0
M  V30 5279 H 511.513 3.02851 4.08851 0
M  V30 5280 H 510.911 0.257564 5.65113 0
M  V30 5281 H 509.468 0.680189 6.48241 0
M  V30 5282 N 512.901 -0.976442 1.23707 0
M  V30 5283 C 514.312 -1.53284 1.06587 0
M  V30 5284 C 514.663 -1.92765 -0.365526 0
M  V30 5285 O 513.788 -1.7645 -1.25277 0
M  V30 5286 C 514.383 -2.78548 1.92864 0
M  V30 5287 C 512.942 -3.30574 1.79994 0
M  V30 5288 C 512.089 -2.03538 1.88328 0
M  V30 5289 H 515.04 -0.795692 1.37311 0
M  V30 5290 H 515.061 -3.5155 1.45577 0
M  V30 5291 H 514.573 -2.49782 2.97037 0
M  V30 5292 H 512.674 -3.64211 0.786202 0
M  V30 5293 H 512.787 -4.00065 2.636 0
M  V30 5294 H 511.151 -2.17853 1.31954 0
M  V30 5295 H 511.934 -1.77149 2.94063 0
M  V30 5296 N 514.379 -1.04941 -1.1758 0
M  V30 5297 C 515.795 -0.770282 -1.39781 0
M  V30 5298 C 515.995 0.636417 -1.91186 0
M  V30 5299 O 515.051 1.39923 -2.10185 0
M  V30 5300 C 516.364 -1.82376 -2.3908 0
M  V30 5301 C 517.912 -1.84569 -2.52791 0
M  V30 5302 C 518.387 -2.88933 -3.55361 0
M  V30 5303 N 519.878 -2.8788 -3.62877 0
M  V30 5304 C 520.613 -3.65282 -4.41992 0
M  V30 5305 N 520.109 -4.52461 -5.24643 0
M  V30 5306 N 521.902 -3.53732 -4.36841 0
M  V30 5307 H 514.053 -1.95705 -0.825438 0
M  V30 5308 H 516.316 -0.847284 -0.425222 0
M  V30 5309 H 516.022 -2.83323 -2.08376 0
M  V30 5310 H 515.896 -1.66327 -3.38549 0
M  V30 5311 H 518.283 -0.842879 -2.82807 0
M  V30 5312 H 518.364 -2.04696 -1.53406 0
M  V30 5313 H 518.008 -3.89398 -3.26085 0
M  V30 5314 H 517.938 -2.66059 -4.54445 0
M  V30 5315 H 520.429 -2.24666 -3.03864 0
M  V30 5316 H 520.742 -5.08211 -5.82187 0
M  V30 5317 H 519.087 -4.56524 -5.24033 0
M  V30 5318 H 522.278 -2.85021 -3.71323 0
M  V30 5319 H 522.451 -4.14302 -4.98255 0
M  V30 5320 N 515.857 1.33968 -0.830081 0
M  V30 5321 C 516.767 2.33164 -0.259207 0
M  V30 5322 C 517.783 1.62951 0.610164 0
M  V30 5323 O 518.959 1.94668 0.516369 0
M  V30 5324 C 516.024 3.42088 0.563598 0
M  V30 5325 C 515.085 4.28037 -0.329014 0
M  V30 5326 C 514.318 5.3176 0.454616 0
M  V30 5327 O 514.541 5.44876 1.6872 0
M  V30 5328 O 513.475 6.01669 -0.166794 0
M  V30 5329 H 517.301 2.83832 -1.08041 0
M  V30 5330 H 514.886 1.37154 -0.59239 0
M  V30 5331 H 516.768 4.08581 1.03147 0
M  V30 5332 H 515.443 2.93651 1.36201 0
M  V30 5333 H 514.35 3.64443 -0.844538 0
M  V30 5334 H 515.683 4.79934 -1.09196 0
M  V30 5335 N 517.335 0.585699 1.46312 0
M  V30 5336 C 518.746 0.159938 1.86014 0
M  V30 5337 C 519.097 -1.27775 1.48889 0
M  V30 5338 O 518.222 -1.96559 0.90519 0
M  V30 5339 C 518.817 0.283485 3.37612 0
M  V30 5340 C 517.376 -0.0874256 3.76298 0
M  V30 5341 C 516.523 0.618055 2.70325 0
M  V30 5342 H 519.474 0.793737 1.37425 0
M  V30 5343 H 519.495 -0.490348 3.77327 0
M  V30 5344 H 519.007 1.32995 3.64601 0
M  V30 5345 H 517.108 -1.13391 3.54927 0
M  V30 5346 H 517.221 0.290975 4.78216 0
M  V30 5347 H 515.585 0.057993 2.54634 0
M  V30 5348 H 516.368 1.66623 3.00153 0
M  V30 5349 N 518.813 -1.54241 0.323641 0
M  V30 5350 C 519.745 -2.21836 -0.576311 0
M  V30 5351 C 520.758 -1.21837 -1.07979 0
M  V30 5352 O 521.947 -1.48306 -0.99336 0
M  V30 5353 C 519.047 -2.86923 -1.80356 0
M  V30 5354 C 518.22 -4.1306 -1.43875 0
M  V30 5355 C 517.279 -4.6174 -2.52353 0
M  V30 5356 O 516.305 -5.26421 -2.16494 0
M  V30 5357 N 517.507 -4.35974 -3.83284 0
M  V30 5358 H 520.272 -2.997 0.00247987 0
M  V30 5359 H 517.833 -1.61233 0.146848 0
M  V30 5360 H 519.825 -3.16414 -2.52318 0
M  V30 5361 H 518.395 -2.12765 -2.29019 0
M  V30 5362 H 517.615 -3.90334 -0.550752 0
M  V30 5363 H 518.903 -4.95148 -1.17071 0
M  V30 5364 H 518.301 -3.84203 -4.15216 0
M  V30 5365 H 516.858 -4.70119 -4.51477 0
M  V30 5366 N 520.291 -0.0518155 -1.57515 0
M  V30 5367 C 521.537 0.622745 -1.93002 0
M  V30 5368 C 521.87 1.70456 -0.930499 0
M  V30 5369 O 521.145 1.94452 0.0434086 0
M  V30 5370 C 521.428 1.21824 -3.38867 0
M  V30 5371 C 521.281 0.144434 -4.49568 0
M  V30 5372 C 522.6 2.12968 -3.8514 0
M  V30 5373 H 519.719 0.22491 -0.701844 0
M  V30 5374 H 522.361 -0.113711 -1.89659 0
M  V30 5375 H 520.511 1.8459 -3.41846 0
M  V30 5376 H 522.183 -0.48753 -4.58717 0
M  V30 5377 H 520.426 -0.527424 -4.30582 0
M  V30 5378 H 521.097 0.601127 -5.48717 0
M  V30 5379 H 523.573 1.60163 -3.8404 0
M  V30 5380 H 522.449 2.51578 -4.87852 0
M  V30 5381 H 522.71 3.03004 -3.21934 0
M  V30 5382 N 521.769 1.56035 0.221574 0
M  V30 5383 C 522.999 1.82864 0.961468 0
M  V30 5384 C 523.407 0.628703 1.78449 0
M  V30 5385 O 522.75 -0.412109 1.79018 0
M  V30 5386 C 522.812 3.03425 1.92804 0
M  V30 5387 C 522.476 4.38429 1.28954 0
M  V30 5388 C 523.473 5.15441 0.679431 0
M  V30 5389 C 521.158 4.85151 1.30131 0
M  V30 5390 C 523.152 6.37337 0.0896148 0
M  V30 5391 C 520.839 6.06989 0.707651 0
M  V30 5392 C 521.837 6.82923 0.102855 0
M  V30 5393 O 521.525 8.02456 -0.48157 0
M  V30 5394 H 521.257 0.611883 0.28736 0
M  V30 5395 H 523.811 2.0397 0.241932 0
M  V30 5396 H 522.041 2.78138 2.68656 0
M  V30 5397 H 523.73 3.17127 2.53348 0
M  V30 5398 H 524.496 4.80452 0.662661 0
M  V30 5399 H 520.375 4.26021 1.76145 0
M  V30 5400 H 523.919 6.96547 -0.383069 0
M  V30 5401 H 519.816 6.41451 0.721834 0
M  V30 5402 H 520.584 8.17636 -0.375887 0
M  V30 5403 N 523.247 -0.488276 1.49845 0
M  V30 5404 C 524.475 -1.26527 1.63702 0
M  V30 5405 C 524.89 -1.8618 0.313447 0
M  V30 5406 O 524.247 -1.68432 -0.702624 0
M  V30 5407 C 524.298 -2.3864 2.71538 0
M  V30 5408 O 524.019 -1.81437 3.98763 0
M  V30 5409 C 525.52 -3.29805 2.96215 0
M  V30 5410 H 522.74 -0.383295 0.55075 0
M  V30 5411 H 525.284 -0.584779 1.95961 0
M  V30 5412 H 523.439 -3.02496 2.42023 0
M  V30 5413 H 523.853 -2.55135 4.58265 0
M  V30 5414 H 525.327 -4.04722 3.75372 0
M  V30 5415 H 525.804 -3.87563 2.06619 0
M  V30 5416 H 526.41 -2.71703 3.27196 0
M  V30 5417 N 524.725 -1.39134 -0.740242 0
M  V30 5418 C 525.655 -1.40165 -1.86751 0
M  V30 5419 C 526.636 -0.265708 -1.68012 0
M  V30 5420 O 527.821 -0.47076 -1.88408 0
M  V30 5421 C 524.951 -1.2392 -3.2444 0
M  V30 5422 C 523.905 -2.34858 -3.57807 0
M  V30 5423 C 523.231 -2.03707 -4.94376 0
M  V30 5424 C 524.531 -3.77159 -3.61315 0
M  V30 5425 H 526.225 -2.345 -1.86145 0
M  V30 5426 H 523.771 -1.12875 -0.89416 0
M  V30 5427 H 525.724 -1.23263 -4.02969 0
M  V30 5428 H 524.448 -0.26051 -3.25559 0
M  V30 5429 H 523.107 -2.34723 -2.81604 0
M  V30 5430 H 522.755 -1.04289 -4.9207 0
M  V30 5431 H 522.455 -2.78016 -5.17669 0
M  V30 5432 H 523.979 -2.04691 -5.75268 0
M  V30 5433 H 525.393 -3.79252 -4.29931 0
M  V30 5434 H 523.79 -4.50784 -3.96124 0
M  V30 5435 H 524.86 -4.08513 -2.61238 0
M  V30 5436 N 526.204 0.969867 -1.24223 0
M  V30 5437 C 527.615 1.52717 -1.07399 0
M  V30 5438 C 527.966 1.92956 0.355298 0
M  V30 5439 O 527.091 1.77112 1.2434 0
M  V30 5440 C 527.686 2.77521 -1.94339 0
M  V30 5441 C 526.245 3.29615 -1.81744 0
M  V30 5442 C 525.392 2.02537 -1.89405 0
M  V30 5443 H 528.343 0.788399 -1.37732 0
M  V30 5444 H 528.364 3.50773 -1.47439 0
M  V30 5445 H 527.876 2.48203 -2.98357 0
M  V30 5446 H 525.977 3.63789 -0.805505 0
M  V30 5447 H 526.09 3.98661 -2.65718 0
M  V30 5448 H 524.454 2.17151 -1.33108 0
M  V30 5449 H 525.237 1.75587 -2.94999 0
M  V30 5450 N 527.682 1.05563 1.17022 0
M  V30 5451 C 529.093 0.793475 1.69 0
M  V30 5452 C 529.444 -0.683882 1.83895 0
M  V30 5453 O 528.569 -1.53116 1.5292 0
M  V30 5454 C 529.164 1.43376 3.06967 0
M  V30 5455 C 527.723 1.21956 3.56095 0
M  V30 5456 C 526.87 1.51494 2.3226 0
M  V30 5457 H 529.821 1.22008 1.01487 0
M  V30 5458 H 529.842 0.845068 3.70997 0
M  V30 5459 H 529.354 2.50899 2.96093 0
M  V30 5460 H 527.455 0.163749 3.7224 0
M  V30 5461 H 527.568 1.92713 4.38633 0
M  V30 5462 H 525.932 0.935175 2.3691 0
M  V30 5463 H 526.715 2.60159 2.23992 0
M  V30 5464 N 529.16 -1.33526 0.837174 0
M  V30 5465 C 530.385 -2.0258 0.444545 0
M  V30 5466 C 530.81 -1.6258 -0.946006 0
M  V30 5467 O 530.168 -0.817548 -1.6182 0
M  V30 5468 C 530.216 -3.5605 0.571006 0
M  V30 5469 O 529.32 -4.10422 -0.403431 0
M  V30 5470 H 528.661 -0.638866 0.180958 0
M  V30 5471 H 531.191 -1.70462 1.13154 0
M  V30 5472 H 531.201 -4.05488 0.452024 0
M  V30 5473 H 529.876 -3.84509 1.58512 0
M  V30 5474 H 528.453 -3.72113 -0.242147 0
M  V30 5475 N 530.638 -0.59345 -1.46 0
M  V30 5476 C 532.054 -0.255965 -1.57534 0
M  V30 5477 C 532.254 1.24167 -1.58697 0
M  V30 5478 O 531.31 2.02398 -1.50968 0
M  V30 5479 C 532.623 -0.91466 -2.86451 0
M  V30 5480 C 534.171 -0.889253 -3.00102 0
M  V30 5481 C 534.646 -1.52769 -4.3177 0
M  V30 5482 N 536.137 -1.49253 -4.38495 0
M  V30 5483 C 536.872 -1.9558 -5.39014 0
M  V30 5484 N 536.368 -2.49929 -6.46148 0
M  V30 5485 N 538.161 -1.86432 -5.30282 0
M  V30 5486 H 530.312 -1.56604 -1.43489 0
M  V30 5487 H 532.575 -0.655207 -0.685133 0
M  V30 5488 H 532.281 -1.96861 -2.91442 0
M  V30 5489 H 532.155 -0.429356 -3.74748 0
M  V30 5490 H 534.542 0.156111 -2.94687 0
M  V30 5491 H 534.623 -1.41268 -2.13253 0
M  V30 5492 H 534.267 -2.57231 -4.37944 0
M  V30 5493 H 534.197 -0.979398 -5.17412 0
M  V30 5494 H 536.688 -1.09536 -3.61677 0
M  V30 5495 H 537.001 -2.83109 -7.19075 0
M  V30 5496 H 535.346 -2.53961 -6.46938 0
M  V30 5497 H 538.537 -1.43722 -4.4549 0
M  V30 5498 H 538.71 -2.22852 -6.08474 0
M  V30 5499 N 532.116 1.54067 -0.331816 0
M  V30 5500 C 533.026 2.28322 0.539104 0
M  V30 5501 C 534.042 1.32985 1.1221 0
M  V30 5502 O 535.218 1.6601 1.1403 0
M  V30 5503 C 532.283 3.03277 1.68 0
M  V30 5504 C 531.344 4.14216 1.12798 0
M  V30 5505 C 530.577 4.85588 2.2145 0
M  V30 5506 O 530.8 4.56536 3.41952 0
M  V30 5507 O 529.734 5.72309 1.86404 0
M  V30 5508 H 533.56 3.03632 -0.0641692 0
M  V30 5509 H 531.145 1.49083 -0.0972365 0
M  V30 5510 H 533.027 3.50189 2.34405 0
M  V30 5511 H 531.702 2.30834 2.2693 0
M  V30 5512 H 530.609 3.71635 0.428782 0
M  V30 5513 H 531.942 4.88727 0.583698 0
M  V30 5514 N 533.594 0.0601682 1.57485 0
M  V30 5515 C 534.504 -0.926121 2.15546 0
M  V30 5516 C 535.52 -1.33532 1.11558 0
M  V30 5517 O 536.696 -1.4104 1.4377 0
M  V30 5518 C 533.761 -2.17952 2.69625 0
M  V30 5519 C 532.822 -1.82783 3.88444 0
M  V30 5520 C 532.055 -3.02148 4.39935 0
M  V30 5521 O 532.278 -4.15803 3.90466 0
M  V30 5522 O 531.212 -2.82639 5.31412 0
M  V30 5523 H 535.038 -0.462289 3.00161 0
M  V30 5524 H 532.623 -0.162246 1.48516 0
M  V30 5525 H 534.505 -2.91474 3.04337 0
M  V30 5526 H 533.18 -2.63456 1.88077 0
M  V30 5527 H 532.087 -1.06549 3.58606 0
M  V30 5528 H 533.42 -1.42072 4.7125 0
M  V30 5529 N 535.072 -1.5615 -0.213296 0
M  V30 5530 C 536.005 -1.88115 -1.29182 0
M  V30 5531 C 536.983 -0.739348 -1.44819 0
M  V30 5532 O 538.167 -0.988541 -1.605 0
M  V30 5533 C 535.294 -2.09541 -2.66102 0
M  V30 5534 C 534.34 -3.32236 -2.67436 0
M  V30 5535 S 535.173 -4.87915 -2.20679 0
M  V30 5536 C 536.329 -5.12387 -3.59458 0
M  V30 5537 H 536.562 -2.793 -1.01876 0
M  V30 5538 H 534.095 -1.48692 -0.415934 0
M  V30 5539 H 536.053 -2.22568 -3.44925 0
M  V30 5540 H 534.714 -1.19138 -2.90628 0
M  V30 5541 H 533.907 -3.44297 -3.6807 0
M  V30 5542 H 533.509 -3.18108 -1.96681 0
M  V30 5543 H 535.801 -5.01791 -4.55205 0
M  V30 5544 H 536.744 -6.14236 -3.52306 0
M  V30 5545 H 537.152 -4.40089 -3.53528 0
M  V30 5546 N 536.55 0.480323 -1.50102 0
M  V30 5547 C 537.778 1.25657 -1.64371 0
M  V30 5548 C 538.193 1.86011 -0.323316 0
M  V30 5549 O 537.55 1.68803 0.693682 0
M  V30 5550 C 537.601 2.37197 -2.728 0
M  V30 5551 O 537.322 1.7932 -3.9972 0
M  V30 5552 C 538.823 3.2823 -2.9796 0
M  V30 5553 H 536.043 0.380369 -0.552775 0
M  V30 5554 H 538.587 0.574379 -1.96268 0
M  V30 5555 H 536.742 3.01208 -2.43623 0
M  V30 5556 H 537.156 2.52701 -4.59611 0
M  V30 5557 H 538.63 4.02725 -3.77513 0
M  V30 5558 H 539.107 3.86462 -2.08671 0
M  V30 5559 H 539.713 2.69964 -3.28633 0
M  V30 5560 N 538.028 1.39524 0.732853 0
M  V30 5561 C 538.975 1.38416 1.84688 0
M  V30 5562 C 539.945 0.243539 1.64305 0
M  V30 5563 O 541.13 0.438979 1.85681 0
M  V30 5564 C 538.27 1.23555 3.22224 0
M  V30 5565 C 537.383 2.47179 3.54298 0
M  V30 5566 C 536.518 2.2489 4.81246 0
M  V30 5567 C 535.557 3.44178 5.0617 0
M  V30 5568 N 534.694 3.21192 6.24323 0
M  V30 5569 H 539.534 2.33645 1.84971 0
M  V30 5570 H 537.071 1.16059 0.903804 0
M  V30 5571 H 539.029 1.12949 4.0162 0
M  V30 5572 H 537.659 0.31954 3.21215 0
M  V30 5573 H 536.711 2.68379 2.69587 0
M  V30 5574 H 538.023 3.36022 3.68633 0
M  V30 5575 H 537.177 2.11538 5.68627 0
M  V30 5576 H 535.916 1.33443 4.69089 0
M  V30 5577 H 534.921 3.58025 4.17251 0
M  V30 5578 H 536.146 4.36528 5.20212 0
M  V30 5579 H 534.092 2.32413 6.1345 0
M  V30 5580 H 534.009 4.03594 6.39256 0
M  V30 5581 H 535.277 3.1154 7.14537 0
M  V30 5582 N 539.506 -0.963266 1.24736 0
M  V30 5583 C 540.454 -2.07985 1.04139 0
M  V30 5584 C 541.448 -1.69381 -0.0250556 0
M  V30 5585 O 542.654 -1.79531 0.129863 0
M  V30 5586 H 539.029 -0.680627 0.319768 0
M  V30 5587 H 541 -2.22517 1.98818 0
M  V30 5588 C 539.749 -3.4123 0.667615 0
M  V30 5589 H 539.072 -3.71397 1.48 0
M  V30 5590 H 540.512 -4.20244 0.563136 0
M  V30 5591 C 538.971 -3.3104 -0.625647 0
M  V30 5592 O 539.501 -3.65334 -1.67016 0
M  V30 5593 N 537.707 -2.84168 -0.608033 0
M  V30 5594 H 537.254 -2.56458 0.242323 0
M  V30 5595 H 537.212 -2.77732 -1.47352 0
M  V30 5596 N 540.985 -1.06182 -1.16461 0
M  V30 5597 C 541.917 -0.629584 -2.20383 0
M  V30 5598 C 542.93 0.311834 -1.59786 0
M  V30 5599 O 544.119 0.103 -1.78203 0
M  V30 5600 C 541.219 0.0973695 -3.3876 0
M  V30 5601 C 540.392 -0.857252 -4.28917 0
M  V30 5602 C 539.451 -0.169749 -5.25926 0
M  V30 5603 O 538.477 -0.807044 -5.6345 0
M  V30 5604 N 539.679 1.08911 -5.70192 0
M  V30 5605 H 542.444 -1.52352 -2.58087 0
M  V30 5606 H 540.005 -0.944993 -1.31459 0
M  V30 5607 H 541.997 0.567676 -4.00699 0
M  V30 5608 H 540.567 0.893093 -2.99571 0
M  V30 5609 H 539.787 -1.50696 -3.64259 0
M  V30 5610 H 541.075 -1.50489 -4.86035 0
M  V30 5611 H 540.473 1.62703 -5.41797 0
M  V30 5612 H 539.03 1.50331 -6.34227 0
M  V30 5613 N 542.463 1.3308 -0.844243 0
M  V30 5614 C 543.709 1.97898 -0.443206 0
M  V30 5615 C 544.042 1.66699 0.99625 0
M  V30 5616 O 543.317 0.949704 1.69738 0
M  V30 5617 C 543.6 3.53801 -0.670606 0
M  V30 5618 C 543.453 3.94667 -2.15772 0
M  V30 5619 C 544.772 4.39936 -0.120226 0
M  V30 5620 H 541.891 0.718861 -0.162504 0
M  V30 5621 H 544.533 1.57633 -1.06075 0
M  V30 5622 H 542.683 3.88229 -0.14496 0
M  V30 5623 H 544.355 3.70469 -2.74865 0
M  V30 5624 H 542.598 3.44203 -2.6402 0
M  V30 5625 H 543.269 5.03275 -2.26757 0
M  V30 5626 H 545.745 4.12183 -0.5696 0
M  V30 5627 H 544.621 5.4803 -0.308984 0
M  V30 5628 H 544.882 4.31184 0.976347 0
M  V30 5629 N 543.941 0.601185 1.45683 0
M  V30 5630 C 545.166 0.0982245 2.07167 0
M  V30 5631 C 545.591 -1.20546 1.44396 0
M  V30 5632 O 544.949 -1.73247 0.534347 0
M  V30 5633 C 544.997 -0.0346976 3.60583 0
M  V30 5634 O 544.101 -1.08657 3.97828 0
M  V30 5635 H 543.442 0.0711618 0.660176 0
M  V30 5636 H 545.972 0.829376 1.87036 0
M  V30 5637 H 545.982 -0.234969 4.07323 0
M  V30 5638 H 544.657 0.917265 4.05659 0
M  V30 5639 H 543.234 -0.863275 3.6277 0
M  V30 5640 N 545.419 -1.53889 0.339982 0
M  V30 5641 C 546.349 -2.27843 -0.510856 0
M  V30 5642 C 547.33 -1.29267 -1.10563 0
M  V30 5643 O 548.515 -1.58104 -1.12768 0
M  V30 5644 C 545.645 -3.04857 -1.66372 0
M  V30 5645 C 544.599 -4.10907 -1.19746 0
M  V30 5646 C 543.925 -4.75855 -2.43857 0
M  V30 5647 C 545.225 -5.21435 -0.300501 0
M  V30 5648 H 546.919 -2.99212 0.106067 0
M  V30 5649 H 544.465 -1.43904 0.0524533 0
M  V30 5650 H 546.418 -3.5533 -2.26537 0
M  V30 5651 H 545.142 -2.31133 -2.30749 0
M  V30 5652 H 543.801 -3.61342 -0.618654 0
M  V30 5653 H 543.449 -3.9873 -3.06633 0
M  V30 5654 H 543.149 -5.47502 -2.13343 0
M  V30 5655 H 544.673 -5.2911 -3.04754 0
M  V30 5656 H 546.087 -5.67565 -0.80889 0
M  V30 5657 H 544.484 -6.00036 -0.0874076 0
M  V30 5658 H 545.554 -4.80328 0.664321 0
M  V30 5659 N 546.897 -0.0685191 -1.57451 0
M  V30 5660 C 548.125 0.610462 -1.97689 0
M  V30 5661 C 548.54 1.63346 -0.946758 0
M  V30 5662 O 547.897 1.82377 0.0669868 0
M  V30 5663 C 547.948 1.28196 -3.38006 0
M  V30 5664 O 547.669 0.299906 -4.37072 0
M  V30 5665 C 549.17 2.04907 -3.931 0
M  V30 5666 H 546.39 0.165689 -0.650222 0
M  V30 5667 H 548.934 -0.139953 -2.04021 0
M  V30 5668 H 547.089 1.98348 -3.32771 0
M  V30 5669 H 547.503 0.78126 -5.18649 0
M  V30 5670 H 548.977 2.47287 -4.93511 0
M  V30 5671 H 549.454 2.9043 -3.29465 0
M  V30 5672 H 550.06 1.39629 -4.01726 0
M  V30 5673 N 548.375 1.56261 0.205012 0
M  V30 5674 C 549.615 1.81823 0.933806 0
M  V30 5675 C 549.979 0.644534 1.80858 0
M  V30 5676 O 551.18 0.779819 2.5724 0
M  V30 5677 C 549.451 3.12362 1.7368 0
M  V30 5678 S 551.01 3.59296 2.51897 0
M  V30 5679 H 547.828 0.638209 0.313386 0
M  V30 5680 H 550.43 1.94495 0.198001 0
M  V30 5681 H 549.134 3.95809 1.08459 0
M  V30 5682 H 548.665 3.02542 2.5146 0
M  V30 5683 H 550.68 3.23945 3.75864 0
M  V30 5684 N 549.853 -0.472356 1.50355 0
M  V30 5685 C 550.783 -1.57859 1.72055 0
M  V30 5686 C 551.764 -1.60283 0.569505 0
M  V30 5687 O 552.949 -1.7657 0.808503 0
M  V30 5688 C 550.079 -2.96191 1.81351 0
M  V30 5689 C 549.033 -3.08633 2.96529 0
M  V30 5690 C 548.359 -4.486 2.90968 0
M  V30 5691 C 549.659 -2.85969 4.37057 0
M  V30 5692 H 551.353 -1.39953 2.64676 0
M  V30 5693 H 548.899 -0.671846 1.27367 0
M  V30 5694 H 550.852 -3.73507 1.95117 0
M  V30 5695 H 549.576 -3.15251 0.853502 0
M  V30 5696 H 548.235 -2.33749 2.82413 0
M  V30 5697 H 547.883 -4.64577 1.92815 0
M  V30 5698 H 547.583 -4.57861 3.68289 0
M  V30 5699 H 549.107 -5.27938 3.0678 0
M  V30 5700 H 550.521 -3.53036 4.51706 0
M  V30 5701 H 548.918 -3.06677 5.15819 0
M  V30 5702 H 549.988 -1.81838 4.49514 0
M  V30 5703 N 551.331 -1.39911 -0.725443 0
M  V30 5704 C 552.577 -1.37858 -1.48738 0
M  V30 5705 C 552.91 0.0224187 -1.94187 0
M  V30 5706 O 552.185 0.989204 -1.67466 0
M  V30 5707 C 552.468 -2.3594 -2.72038 0
M  V30 5708 C 552.321 -3.85023 -2.32546 0
M  V30 5709 C 553.64 -2.31704 -3.74167 0
M  V30 5710 H 550.759 -0.502074 -0.539528 0
M  V30 5711 H 553.401 -1.70974 -0.828728 0
M  V30 5712 H 551.551 -2.0783 -3.28236 0
M  V30 5713 H 553.223 -4.2392 -1.81905 0
M  V30 5714 H 551.466 -4.01334 -1.64661 0
M  V30 5715 H 552.137 -4.49152 -3.20884 0
M  V30 5716 H 554.613 -2.5658 -3.27576 0
M  V30 5717 H 553.489 -3.02395 -4.58092 0
M  V30 5718 H 553.75 -1.3253 -4.21768 0
M  V30 5719 N 552.809 0.956637 -1.25245 0
M  V30 5720 C 553.756 2.053 -1.05454 0
M  V30 5721 C 554.726 1.66062 0.0356889 0
M  V30 5722 O 555.911 1.90415 -0.121099 0
M  V30 5723 C 553.051 3.38391 -0.677191 0
M  V30 5724 C 552.164 3.90758 -1.84206 0
M  V30 5725 C 551.299 5.12165 -1.40926 0
M  V30 5726 C 550.338 5.56757 -2.54338 0
M  V30 5727 N 549.475 6.69376 -2.11848 0
M  V30 5728 H 554.315 2.21562 -1.99284 0
M  V30 5729 H 551.852 1.08578 -0.992434 0
M  V30 5730 H 553.81 4.1488 -0.43938 0
M  V30 5731 H 552.44 3.22021 0.224127 0
M  V30 5732 H 551.492 3.10808 -2.19323 0
M  V30 5733 H 552.804 4.19802 -2.69383 0
M  V30 5734 H 551.958 5.96065 -1.13098 0
M  V30 5735 H 550.697 4.84832 -0.528175 0
M  V30 5736 H 549.702 4.71423 -2.82913 0
M  V30 5737 H 550.927 5.861 -3.43022 0
M  V30 5738 H 548.873 6.43756 -1.26153 0
M  V30 5739 H 548.79 6.97927 -2.90574 0
M  V30 5740 H 550.058 7.5669 -1.87191 0
M  V30 5741 N 554.287 1.06798 1.15896 0
M  V30 5742 C 555.535 0.786211 1.8618 0
M  V30 5743 C 555.856 -0.689547 1.82401 0
M  V30 5744 O 555.126 -1.49913 1.26107 0
M  V30 5745 H 553.706 0.287843 0.689315 0
M  V30 5746 H 556.368 1.35055 1.40521 0
M  V30 5747 H 555.464 1.1157 2.91477 0
M  V30 5748 N 555.766 -1.3263 0.851289 0
M  V30 5749 C 557.013 -1.97368 0.453023 0
M  V30 5750 C 557.341 -1.67384 -0.990596 0
M  V30 5751 O 556.596 -0.952665 -1.70947 0
M  V30 5752 C 556.895 -3.51713 0.635015 0
M  V30 5753 C 556.561 -4.01676 2.04859 0
M  V30 5754 C 555.223 -4.15031 2.43522 0
M  V30 5755 C 557.575 -4.28206 2.97135 0
M  V30 5756 C 554.903 -4.52257 3.73739 0
M  V30 5757 C 557.255 -4.66889 4.26846 0
M  V30 5758 C 555.919 -4.7845 4.65448 0
M  V30 5759 H 555.189 -0.722219 0.165773 0
M  V30 5760 H 557.836 -1.58092 1.0807 0
M  V30 5761 H 556.141 -3.91726 -0.0759081 0
M  V30 5762 H 557.838 -3.99823 0.306964 0
M  V30 5763 H 554.428 -3.91764 1.73836 0
M  V30 5764 H 558.612 -4.174 2.68498 0
M  V30 5765 H 553.868 -4.59402 4.03435 0
M  V30 5766 H 558.042 -4.86372 4.98413 0
M  V30 5767 H 555.669 -5.07052 5.66395 0
M  V30 5768 N 557.244 -0.608902 -1.45362 0
M  V30 5769 C 558.474 -0.110852 -2.06302 0
M  V30 5770 C 558.882 1.21062 -1.45398 0
M  V30 5771 O 558.225 1.74861 -0.562976 0
M  V30 5772 C 558.287 0.101793 -3.59356 0
M  V30 5773 C 557.951 -1.13808 -4.42602 0
M  V30 5774 C 558.948 -2.05653 -4.77496 0
M  V30 5775 C 556.633 -1.36727 -4.83333 0
M  V30 5776 C 558.627 -3.18745 -5.51978 0
M  V30 5777 C 556.314 -2.5012 -5.57569 0
M  V30 5778 C 557.312 -3.40957 -5.91809 0
M  V30 5779 O 557 -4.52376 -6.64538 0
M  V30 5780 H 556.732 -0.0666001 -0.672711 0
M  V30 5781 H 559.286 -0.836942 -1.87575 0
M  V30 5782 H 557.516 0.88279 -3.76489 0
M  V30 5783 H 559.205 0.551607 -4.02134 0
M  V30 5784 H 559.971 -1.89172 -4.46586 0
M  V30 5785 H 555.85 -0.669216 -4.56117 0
M  V30 5786 H 559.394 -3.8967 -5.78622 0
M  V30 5787 H 555.291 -2.66553 -5.87894 0
M  V30 5788 H 556.059 -4.51075 -6.82989 0
M  V30 5789 N 558.722 1.53707 -0.348139 0
M  V30 5790 C 560.133 1.86213 0.134797 0
M  V30 5791 C 560.484 1.26925 1.49614 0
M  V30 5792 O 559.609 0.584573 2.08355 0
M  V30 5793 C 560.204 3.37866 0.251371 0
M  V30 5794 C 558.763 3.70233 0.678543 0
M  V30 5795 C 557.91 2.76683 -0.184925 0
M  V30 5796 H 560.861 1.48204 -0.567571 0
M  V30 5797 H 560.882 3.64908 1.07806 0
M  V30 5798 H 560.394 3.80988 -0.739581 0
M  V30 5799 H 558.495 3.32659 1.67835 0
M  V30 5800 H 558.608 4.76836 0.465251 0
M  V30 5801 H 556.972 2.52374 0.343465 0
M  V30 5802 H 557.755 3.22635 -1.1731 0
M  V30 5803 N 560.2 0.0768682 1.57412 0
M  V30 5804 C 561.425 -0.603404 1.98428 0
M  V30 5805 C 561.85 -1.62047 0.955108 0
M  V30 5806 O 561.208 -1.81129 -0.0786778 0
M  V30 5807 C 561.256 -1.24396 3.38464 0
M  V30 5808 O 560.36 -2.35982 3.3821 0
M  V30 5809 H 559.701 -0.154741 0.645718 0
M  V30 5810 H 562.231 0.152885 2.04028 0
M  V30 5811 H 562.241 -1.5896 3.7576 0
M  V30 5812 H 560.916 -0.498735 4.12899 0
M  V30 5813 H 559.493 -2.03173 3.1269 0
M  V30 5814 N 561.678 -1.56367 -0.196722 0
M  V30 5815 C 562.955 -1.71359 -0.943159 0
M  V30 5816 C 563.335 -0.631192 -2.01443 0
M  V30 5817 O 562.683 0.358071 -2.25677 0
M  V30 5818 C 562.893 -3.13623 -1.53106 0
M  V30 5819 C 564.241 -3.73806 -2.01381 0
M  V30 5820 O 565.265 -3.16742 -1.62951 0
M  V30 5821 O 564.124 -4.73951 -2.7209 0
M  V30 5822 H 561.218 -0.698851 -0.442195 0
M  V30 5823 H 563.764 -1.68672 -0.186547 0
M  V30 5824 H 562.536 -3.83873 -0.758785 0
M  V30 5825 H 562.159 -3.20532 -2.35255 0
M  V30 5826 N 563.156 0.464375 -1.50603 0
M  V30 5827 C 564.405 1.21277 -1.61167 0
M  V30 5828 C 564.718 1.92953 -0.320704 0
M  V30 5829 O 565.924 2.69778 -0.30534 0
M  V30 5830 C 564.38 2.20403 -2.84518 0
M  V30 5831 C 563.988 1.54499 -4.20516 0
M  V30 5832 C 565.732 2.95843 -3.0443 0
M  V30 5833 C 563.639 2.51951 -5.35047 0
M  V30 5834 H 562.569 0.456367 -0.600204 0
M  V30 5835 H 565.22 0.48254 -1.77042 0
M  V30 5836 H 563.602 2.96746 -2.62217 0
M  V30 5837 H 564.776 0.83899 -4.53098 0
M  V30 5838 H 563.091 0.913152 -4.06264 0
M  V30 5839 H 565.688 3.6879 -3.87167 0
M  V30 5840 H 566.031 3.55622 -2.16423 0
M  V30 5841 H 566.564 2.26611 -3.26944 0
M  V30 5842 H 563.303 1.96901 -6.25228 0
M  V30 5843 H 562.823 3.20683 -5.06875 0
M  V30 5844 H 564.502 3.13643 -5.65895 0
M  V30 5845 N 564.634 1.40294 0.718013 0
M  V30 5846 C 565.597 1.4012 1.81381 0
M  V30 5847 C 566.597 0.295405 1.58063 0
M  V30 5848 O 567.787 0.554187 1.6515 0
M  V30 5849 C 564.919 1.19056 3.19435 0
M  V30 5850 H 566.112 2.37645 1.82933 0
M  V30 5851 H 563.665 1.26107 0.923405 0
M  V30 5852 H 564.4 0.222809 3.23534 0
M  V30 5853 H 564.185 1.99152 3.37758 0
M  V30 5854 H 565.675 1.21716 3.99468 0
M  V30 5855 N 566.112 -0.949982 1.2575 0
M  V30 5856 C 567.358 -1.69766 1.10938 0
M  V30 5857 C 567.691 -1.91056 -0.348028 0
M  V30 5858 O 566.966 -1.48488 -1.25625 0
M  V30 5859 C 567.249 -3.07779 1.86933 0
M  V30 5860 C 567.102 -2.9387 3.4053 0
M  V30 5861 C 568.421 -4.07749 1.65616 0
M  V30 5862 H 565.54 -0.616144 0.404396 0
M  V30 5863 H 568.182 -1.10394 1.54639 0
M  V30 5864 H 566.332 -3.58462 1.4979 0
M  V30 5865 H 568.004 -2.50476 3.87375 0
M  V30 5866 H 566.247 -2.29686 3.68004 0
M  V30 5867 H 566.918 -3.91719 3.88922 0
M  V30 5868 H 569.394 -3.65994 1.97959 0
M  V30 5869 H 568.27 -5.02348 2.21218 0
M  V30 5870 H 568.531 -4.38029 0.598595 0
M  V30 5871 N 567.59 -1.07411 -1.15328 0
M  V30 5872 C 568.5 -0.706438 -2.23711 0
M  V30 5873 C 569.516 0.282586 -1.7169 0
M  V30 5874 O 570.692 0.129066 -2.00986 0
M  V30 5875 C 567.757 -0.11048 -3.46524 0
M  V30 5876 C 566.818 -1.15282 -4.13532 0
M  V30 5877 C 566.051 -0.585205 -5.30482 0
M  V30 5878 O 566.274 0.598549 -5.67251 0
M  V30 5879 O 565.208 -1.33039 -5.87013 0
M  V30 5880 H 569.034 -1.61031 -2.57493 0
M  V30 5881 H 566.619 -0.847113 -1.23062 0
M  V30 5882 H 568.501 0.21957 -4.20828 0
M  V30 5883 H 567.176 0.766703 -3.14489 0
M  V30 5884 H 566.083 -1.53523 -3.41147 0
M  V30 5885 H 567.416 -2.00192 -4.49649 0
M  V30 5886 N 569.068 1.32177 -0.85831 0
M  V30 5887 C 570.314 1.97813 -0.47346 0
M  V30 5888 C 570.669 1.66674 0.961122 0
M  V30 5889 O 569.962 0.94657 1.66585 0
M  V30 5890 C 570.156 3.51372 -0.653658 0
M  V30 5891 C 569.985 3.97433 -2.1042 0
M  V30 5892 C 568.755 4.24338 -2.74345 0
M  V30 5893 C 570.953 4.12233 -3.0752 0
M  V30 5894 N 568.935 4.56672 -4.10272 0
M  V30 5895 C 570.306 4.48146 -4.28445 0
M  V30 5896 C 572.361 3.94577 -3.03667 0
M  V30 5897 C 571.064 4.68246 -5.4602 0
M  V30 5898 C 573.09 4.15864 -4.20489 0
M  V30 5899 C 572.452 4.52098 -5.40173 0
M  V30 5900 H 568.551 0.749808 -0.222061 0
M  V30 5901 H 571.135 1.59927 -1.11047 0
M  V30 5902 H 569.306 3.88372 -0.0463267 0
M  V30 5903 H 571.038 4.03998 -0.238343 0
M  V30 5904 H 567.793 4.16544 -2.25362 0
M  V30 5905 H 568.217 4.77019 -4.80398 0
M  V30 5906 H 572.859 3.65662 -2.12252 0
M  V30 5907 H 570.577 4.96014 -6.37962 0
M  V30 5908 H 574.163 4.03702 -4.18947 0
M  V30 5909 H 573.043 4.68238 -6.29065 0
M  V30 5910 N 570.547 0.616602 1.45037 0
M  V30 5911 C 571.457 -0.0985401 2.34393 0
M  V30 5912 C 572.473 -0.850971 1.51771 0
M  V30 5913 O 573.649 -0.806521 1.84546 0
M  V30 5914 C 570.714 -1.07748 3.29532 0
M  V30 5915 C 569.775 -0.326022 4.2806 0
M  V30 5916 C 569.008 -1.25833 5.18654 0
M  V30 5917 O 569.231 -2.49652 5.12864 0
M  V30 5918 O 568.165 -0.750512 5.97203 0
M  V30 5919 H 571.991 0.636016 2.96966 0
M  V30 5920 H 569.576 0.376832 1.44569 0
M  V30 5921 H 571.458 -1.64107 3.88133 0
M  V30 5922 H 570.133 -1.79291 2.69512 0
M  V30 5923 H 569.04 0.280253 3.73049 0
M  V30 5924 H 570.373 0.349091 4.9096 0
M  V30 5925 N 572.025 -1.5352 0.356285 0
M  V30 5926 C 573.25 -2.06007 -0.239961 0
M  V30 5927 C 573.675 -1.22872 -1.42422 0
M  V30 5928 O 573.033 -0.245516 -1.7963 0
M  V30 5929 C 573.081 -3.5522 -0.620587 0
M  V30 5930 O 572.185 -3.74864 -1.71902 0
M  V30 5931 H 571.526 -0.662961 -0.0371377 0
M  V30 5932 H 574.056 -1.98033 0.514194 0
M  V30 5933 H 574.066 -3.98081 -0.894197 0
M  V30 5934 H 572.741 -4.15175 0.245407 0
M  V30 5935 H 571.318 -3.43904 -1.44169 0
M  V30 5936 N 573.503 -0.0852151 -1.57369 0
M  V30 5937 C 574.451 0.894856 -2.14698 0
M  V30 5938 C 575.445 1.29903 -1.08727 0
M  V30 5939 O 576.651 1.27471 -1.27088 0
M  V30 5940 H 573.026 0.306569 -0.686673 0
M  V30 5941 H 574.997 0.386542 -2.95886 0
M  V30 5942 C 573.746 2.14798 -2.73417 0
M  V30 5943 H 573.069 1.84585 -3.54638 0
M  V30 5944 H 574.509 2.81456 -3.1711 0
M  V30 5945 C 572.968 2.91546 -1.68828 0
M  V30 5946 O 573.498 3.85733 -1.12129 0
M  V30 5947 N 571.704 2.54901 -1.39549 0
M  V30 5948 H 571.251 1.7838 -1.85845 0
M  V30 5949 H 571.209 3.06553 -0.698054 0
M  V30 5950 N 574.981 1.5647 0.188427 0
M  V30 5951 C 576.229 1.80655 0.905986 0
M  V30 5952 C 576.55 0.659391 1.83513 0
M  V30 5953 O 575.82 -0.321868 1.93238 0
M  V30 5954 H 574.4 0.666391 0.337538 0
M  V30 5955 H 577.062 1.93949 0.192339 0
M  V30 5956 H 576.158 2.74066 1.49313 0
M  V30 5957 N 576.459 -0.456382 1.50847 0
M  V30 5958 C 577.391 -1.57033 1.66953 0
M  V30 5959 C 578.404 -1.53207 0.550593 0
M  V30 5960 O 579.593 -1.58328 0.824285 0
M  V30 5961 C 576.693 -2.95937 1.65149 0
M  V30 5962 C 575.866 -3.24475 2.93317 0
M  V30 5963 C 574.925 -4.43007 2.83957 0
M  V30 5964 O 573.951 -4.42592 3.57912 0
M  V30 5965 N 575.153 -5.45503 1.9851 0
M  V30 5966 H 577.918 -1.43629 2.63042 0
M  V30 5967 H 575.479 -0.645037 1.48495 0
M  V30 5968 H 577.471 -3.73224 1.56481 0
M  V30 5969 H 576.041 -3.03036 0.767343 0
M  V30 5970 H 575.261 -2.35664 3.16 0
M  V30 5971 H 576.549 -3.4036 3.78196 0
M  V30 5972 H 575.947 -5.48668 1.37766 0
M  V30 5973 H 574.504 -6.21716 1.95735 0
M  V30 5974 N 577.937 -1.40673 -0.710563 0
M  V30 5975 C 579.348 -1.34975 -1.28991 0
M  V30 5976 C 579.699 -0.0256272 -1.96183 0
M  V30 5977 O 578.824 0.876339 -1.97862 0
M  V30 5978 C 579.419 -2.44467 -2.34567 0
M  V30 5979 C 577.978 -2.42213 -2.88114 0
M  V30 5980 C 577.125 -2.25085 -1.61963 0
M  V30 5981 H 580.076 -1.50406 -0.506343 0
M  V30 5982 H 580.097 -2.12663 -3.15523 0
M  V30 5983 H 579.609 -3.40825 -1.85634 0
M  V30 5984 H 577.71 -1.49568 -3.41263 0
M  V30 5985 H 577.823 -3.37983 -3.39565 0
M  V30 5986 H 576.187 -1.72691 -1.87216 0
M  V30 5987 H 576.97 -3.23449 -1.15047 0
M  V30 5988 N 579.415 0.9433 -1.26252 0
M  V30 5989 C 580.325 2.07532 -1.09397 0
M  V30 5990 C 581.341 1.73977 -0.0280449 0
M  V30 5991 O 582.517 2.00067 -0.231337 0
M  V30 5992 C 579.582 3.39002 -0.726523 0
M  V30 5993 C 578.643 3.86353 -1.87163 0
M  V30 5994 C 577.876 5.11549 -1.52162 0
M  V30 5995 O 578.099 5.68834 -0.422385 0
M  V30 5996 O 577.033 5.53889 -2.35565 0
M  V30 5997 H 580.859 2.24658 -2.04359 0
M  V30 5998 H 578.444 1.05988 -1.05295 0
M  V30 5999 H 580.326 4.18 -0.534236 0
M  V30 6000 H 579.001 3.2312 0.193721 0
M  V30 6001 H 577.908 3.0831 -2.11886 0
M  V30 6002 H 579.241 4.06752 -2.77152 0
M  V30 6003 N 580.893 1.08022 1.14757 0
M  V30 6004 C 581.841 0.701088 2.21783 0
M  V30 6005 C 582.835 -0.291311 1.66876 0
M  V30 6006 O 584.041 -0.154296 1.79337 0
M  V30 6007 H 580.416 0.208668 0.722469 0
M  V30 6008 H 582.387 1.61321 2.51034 0
M  V30 6009 C 581.136 0.122278 3.47485 0
M  V30 6010 H 580.459 0.877065 3.90061 0
M  V30 6011 H 581.899 -0.105248 4.23869 0
M  V30 6012 C 580.358 -1.13883 3.17068 0
M  V30 6013 O 580.888 -2.22429 3.34497 0
M  V30 6014 N 579.094 -1.04767 2.71058 0
M  V30 6015 H 578.641 -0.164302 2.57075 0
M  V30 6016 H 578.599 -1.89224 2.51081 0
M  V30 6017 N 582.371 -1.3172 0.865308 0
M  V30 6018 C 583.319 -2.30569 0.306674 0
M  V30 6019 C 584.313 -1.59317 -0.575724 0
M  V30 6020 O 585.519 -1.73961 -0.462343 0
M  V30 6021 H 581.894 -0.747681 0.0804834 0
M  V30 6022 H 583.865 -2.75165 1.15441 0
M  V30 6023 C 582.614 -3.44358 -0.480952 0
M  V30 6024 H 581.937 -3.99354 0.18876 0
M  V30 6025 H 583.377 -4.15652 -0.837241 0
M  V30 6026 C 581.836 -2.92574 -1.67039 0
M  V30 6027 O 582.366 -2.90954 -2.76964 0
M  V30 6028 N 580.572 -2.48835 -1.50097 0
M  V30 6029 H 580.119 -2.50353 -0.606738 0
M  V30 6030 H 580.077 -2.14543 -2.29823 0
M  V30 6031 N 583.85 -0.624285 -1.44708 0
M  V30 6032 C 585.08 -0.132726 -2.06173 0
M  V30 6033 C 585.488 1.19513 -1.46674 0
M  V30 6034 O 584.831 1.74254 -0.581491 0
M  V30 6035 C 584.893 0.0636732 -3.59444 0
M  V30 6036 C 584.557 -1.18496 -4.4137 0
M  V30 6037 C 585.553 -2.10706 -4.75288 0
M  V30 6038 C 583.239 -1.41846 -4.81856 0
M  V30 6039 C 585.233 -3.24582 -5.48567 0
M  V30 6040 C 582.92 -2.5602 -5.54885 0
M  V30 6041 C 583.918 -3.47215 -5.88159 0
M  V30 6042 O 583.606 -4.59399 -6.59703 0
M  V30 6043 H 583.338 -0.0737313 -0.671967 0
M  V30 6044 H 585.892 -0.856789 -1.86677 0
M  V30 6045 H 584.122 0.842809 -3.77404 0
M  V30 6046 H 585.811 0.508924 -4.02697 0
M  V30 6047 H 586.577 -1.93898 -4.44554 0
M  V30 6048 H 582.456 -0.717556 -4.55381 0
M  V30 6049 H 586 -3.95785 -5.74456 0
M  V30 6050 H 581.897 -2.72774 -5.85034 0
M  V30 6051 H 582.665 -4.58293 -6.78166 0
M  V30 6052 N 585.328 1.53329 -0.364422 0
M  V30 6053 C 586.275 2.25698 0.482607 0
M  V30 6054 C 587.245 1.26325 1.07848 0
M  V30 6055 O 588.43 1.55104 1.11119 0
M  V30 6056 C 585.57 3.04873 1.61699 0
M  V30 6057 C 584.683 4.19135 1.0464 0
M  V30 6058 C 583.818 4.85754 2.14979 0
M  V30 6059 C 582.857 5.9205 1.5538 0
M  V30 6060 N 581.994 6.52365 2.59547 0
M  V30 6061 H 586.834 2.97666 -0.141032 0
M  V30 6062 H 584.371 1.46875 -0.0813692 0
M  V30 6063 H 586.329 3.49051 2.28516 0
M  V30 6064 H 584.959 2.35162 2.2113 0
M  V30 6065 H 584.011 3.79451 0.268553 0
M  V30 6066 H 585.323 4.95525 0.570653 0
M  V30 6067 H 584.477 5.3311 2.89619 0
M  V30 6068 H 583.216 4.08834 2.65906 0
M  V30 6069 H 582.221 5.44058 0.792549 0
M  V30 6070 H 583.446 6.7089 1.0528 0
M  V30 6071 H 581.392 5.78298 3.09689 0
M  V30 6072 H 581.309 7.2429 2.16655 0
M  V30 6073 H 582.577 7.0437 3.33892 0
M  V30 6074 N 586.806 0.0935595 1.57322 0
M  V30 6075 C 588.034 -0.578934 1.98635 0
M  V30 6076 C 588.449 -1.61819 0.972626 0
M  V30 6077 O 587.806 -1.82461 -0.0379638 0
M  V30 6078 C 587.857 -1.22802 3.40003 0
M  V30 6079 O 587.578 -0.230334 4.37494 0
M  V30 6080 C 589.079 -1.98627 3.96311 0
M  V30 6081 H 586.299 -0.155324 0.652775 0
M  V30 6082 H 588.843 0.172393 2.03772 0
M  V30 6083 H 586.998 -1.93029 3.35885 0
M  V30 6084 H 587.412 -0.698649 5.19826 0
M  V30 6085 H 588.886 -2.39405 4.97382 0
M  V30 6086 H 589.363 -2.85151 3.34044 0
M  V30 6087 H 589.969 -1.3322 4.03897 0
M  V30 6088 N 588.284 -1.56567 -0.180126 0
M  V30 6089 C 589.512 -1.85618 -0.913972 0
M  V30 6090 C 589.927 -0.677892 -1.7621 0
M  V30 6091 O 589.284 0.353171 -1.7905 0
M  V30 6092 C 589.335 -3.13619 -1.79793 0
M  V30 6093 O 589.056 -4.26906 -0.98402 0
M  V30 6094 C 590.557 -3.55954 -2.64219 0
M  V30 6095 H 587.777 -0.616043 -0.265954 0
M  V30 6096 H 590.321 -2.03681 -0.182872 0
M  V30 6097 H 588.476 -2.97409 -2.48247 0
M  V30 6098 H 588.89 -4.9989 -1.58776 0
M  V30 6099 H 590.364 -4.48444 -3.21873 0
M  V30 6100 H 590.841 -2.79653 -3.38661 0
M  V30 6101 H 591.447 -3.74746 -2.01111 0
M  V30 6102 N 589.762 0.448376 -1.51087 0
M  V30 6103 C 591.173 1.0286 -1.5581 0
M  V30 6104 C 591.524 1.92583 -0.374989 0
M  V30 6105 O 590.649 2.10316 0.509533 0
M  V30 6106 C 591.244 1.87223 -2.8237 0
M  V30 6107 C 589.803 2.40314 -2.897 0
M  V30 6108 C 588.95 1.19238 -2.50355 0
M  V30 6109 H 591.901 0.230075 -1.57023 0
M  V30 6110 H 591.922 2.72553 -2.6551 0
M  V30 6111 H 591.434 1.21894 -3.68461 0
M  V30 6112 H 589.535 3.09129 -2.08014 0
M  V30 6113 H 589.648 2.73866 -3.93108 0
M  V30 6114 H 588.012 1.53428 -2.03303 0
M  V30 6115 H 588.795 0.555367 -3.38778 0
M  V30 6116 N 591.24 1.41047 0.703093 0
M  V30 6117 C 592.651 1.35657 1.28274 0
M  V30 6118 C 593.002 0.0360309 1.96167 0
M  V30 6119 O 592.127 -0.865833 1.98324 0
M  V30 6120 C 592.722 2.45707 2.33267 0
M  V30 6121 C 591.281 2.43738 2.86825 0
M  V30 6122 C 590.428 2.25941 1.60767 0
M  V30 6123 H 593.379 1.50672 0.49836 0
M  V30 6124 H 593.4 2.14333 3.14391 0
M  V30 6125 H 592.912 3.41805 1.83824 0
M  V30 6126 H 591.013 1.51375 3.40465 0
M  V30 6127 H 591.126 3.39779 3.37768 0
M  V30 6128 H 589.49 1.73681 1.86298 0
M  V30 6129 H 590.273 3.24054 1.1333 0
M  V30 6130 N 592.718 -0.936591 1.26751 0
M  V30 6131 C 593.964 -1.6858 1.12733 0
M  V30 6132 C 594.297 -1.91414 -0.327745 0
M  V30 6133 O 593.572 -1.49812 -1.24043 0
M  V30 6134 C 593.855 -3.05779 1.90187 0
M  V30 6135 C 593.708 -2.90242 3.43627 0
M  V30 6136 C 595.027 -4.0597 1.69931 0
M  V30 6137 H 592.146 -0.61182 0.410908 0
M  V30 6138 H 594.788 -1.08747 1.55801 0
M  V30 6139 H 592.938 -3.56853 1.53584 0
M  V30 6140 H 594.61 -2.46354 3.9001 0
M  V30 6141 H 592.853 -2.2577 3.70419 0
M  V30 6142 H 593.524 -3.87572 3.93055 0
M  V30 6143 H 596 -3.63874 2.0183 0
M  V30 6144 H 594.876 -4.99974 2.26534 0
M  V30 6145 H 595.137 -4.37369 0.64502 0
M  V30 6146 N 594.196 -1.08629 -1.14182 0
M  V30 6147 C 595.126 -0.740003 -2.21464 0
M  V30 6148 C 596.107 0.278591 -1.67803 0
M  V30 6149 O 597.292 0.148461 -1.93632 0
M  V30 6150 C 594.422 -0.150952 -3.46972 0
M  V30 6151 C 593.376 -1.09815 -4.13672 0
M  V30 6152 C 592.702 -0.3712 -5.3341 0
M  V30 6153 C 594.002 -2.43722 -4.61949 0
M  V30 6154 H 595.696 -1.63697 -2.50686 0
M  V30 6155 H 593.242 -0.788526 -1.20492 0
M  V30 6156 H 595.195 0.103325 -4.21273 0
M  V30 6157 H 593.919 0.781164 -3.1712 0
M  V30 6158 H 592.578 -1.33756 -3.41328 0
M  V30 6159 H 592.226 0.564792 -4.99819 0
M  V30 6160 H 591.926 -1.00267 -5.78982 0
M  V30 6161 H 593.45 -0.12503 -6.10472 0
M  V30 6162 H 594.864 -2.24034 -5.27714 0
M  V30 6163 H 593.261 -3.02582 -5.18232 0
M  V30 6164 H 594.331 -3.05082 -3.76899 0
M  V30 6165 N 595.674 1.31259 -0.872281 0
M  V30 6166 C 596.951 1.91362 -0.404943 0
M  V30 6167 C 597.331 1.79362 1.11321 0
M  V30 6168 O 596.679 1.20277 1.94283 0
M  V30 6169 C 596.889 3.3749 -0.888893 0
M  V30 6170 C 598.237 4.14593 -0.916384 0
M  V30 6171 O 599.261 3.46282 -0.834701 0
M  V30 6172 O 598.12 5.3661 -1.03498 0
M  V30 6173 H 595.214 0.818016 -0.121569 0
M  V30 6174 H 597.76 1.39912 -0.960346 0
M  V30 6175 H 596.532 3.40249 -1.93251 0
M  V30 6176 H 596.155 3.96375 -0.311932 0
M  V30 6177 N 597.152 0.631951 1.44375 0
M  V30 6178 C 598.377 0.142146 2.06912 0
M  V30 6179 C 598.802 -1.17456 1.4692 0
M  V30 6180 O 598.16 -1.72074 0.570975 0
M  V30 6181 C 598.208 0.0417952 3.60576 0
M  V30 6182 O 597.312 -1.00194 4.00044 0
M  V30 6183 H 596.653 0.0851491 0.658518 0
M  V30 6184 H 599.183 0.868863 1.85235 0
M  V30 6185 H 599.193 -0.148517 4.0773 0
M  V30 6186 H 597.868 1.0031 4.03622 0
M  V30 6187 H 596.445 -0.786131 3.64519 0
M  V30 6188 N 598.631 -1.53133 0.372548 0
M  V30 6189 C 599.908 -1.93704 -0.271693 0
M  V30 6190 C 600.288 -1.30667 -1.65799 0
M  V30 6191 O 599.636 -0.46838 -2.23648 0
M  V30 6192 C 599.846 -3.47576 -0.314903 0
M  V30 6193 C 601.194 -4.20998 -0.551912 0
M  V30 6194 O 602.218 -3.53994 -0.39582 0
M  V30 6195 O 601.077 -5.39748 -0.85639 0
M  V30 6196 H 598.171 -0.810457 -0.164586 0
M  V30 6197 H 600.717 -1.6427 0.425838 0
M  V30 6198 H 599.489 -3.85749 0.656792 0
M  V30 6199 H 599.112 -3.83264 -1.05804 0
M  V30 6200 N 600.109 -0.101901 -1.5727 0
M  V30 6201 C 601.357 0.559091 -1.94213 0
M  V30 6202 C 601.678 1.68297 -0.984948 0
M  V30 6203 O 600.948 1.95863 -0.0381975 0
M  V30 6204 H 599.528 0.20952 -0.717015 0
M  V30 6205 H 602.19 -0.166831 -1.94185 0
M  V30 6206 H 601.286 0.96485 -2.96811 0
M  V30 6207 N 601.587 1.56661 0.17182 0
M  V30 6208 C 602.812 1.86459 0.908165 0
M  V30 6209 C 603.237 0.688181 1.75059 0
M  V30 6210 O 602.595 -0.362753 1.77634 0
M  V30 6211 C 602.643 3.14669 1.76112 0
M  V30 6212 O 601.747 2.96858 2.86268 0
M  V30 6213 H 601.088 0.613318 0.254434 0
M  V30 6214 H 603.618 2.03892 0.170113 0
M  V30 6215 H 603.628 3.46061 2.16115 0
M  V30 6216 H 602.303 3.99905 1.14233 0
M  V30 6217 H 600.88 2.76819 2.49852 0
M  V30 6218 N 603.065 -0.440357 1.51323 0
M  V30 6219 C 604.312 -1.19004 1.63842 0
M  V30 6220 C 604.64 -1.91266 0.35321 0
M  V30 6221 O 603.895 -1.84143 -0.662565 0
M  V30 6222 C 604.194 -2.2339 2.78984 0
M  V30 6223 C 603.86 -1.68162 4.18369 0
M  V30 6224 C 602.522 -1.52823 4.56288 0
M  V30 6225 C 604.874 -1.27524 5.05358 0
M  V30 6226 C 602.202 -0.953157 5.78906 0
M  V30 6227 C 604.554 -0.714474 6.28552 0
M  V30 6228 C 603.218 -0.547961 6.65247 0
M  V30 6229 H 602.488 -0.435468 0.59954 0
M  V30 6230 H 605.135 -0.481538 1.85347 0
M  V30 6231 H 603.44 -3.00267 2.51688 0
M  V30 6232 H 605.137 -2.81211 2.85869 0
M  V30 6233 H 601.727 -1.81077 3.8847 0
M  V30 6234 H 605.911 -1.38197 4.76671 0
M  V30 6235 H 601.167 -0.811882 6.05986 0
M  V30 6236 H 605.341 -0.391059 6.95301 0
M  V30 6237 H 602.968 -0.100222 7.60134 0
M  V30 6238 N 604.543 -1.41418 -0.695603 0
M  V30 6239 C 605.79 -1.40774 -1.45564 0
M  V30 6240 C 606.118 -0.0168604 -1.94493 0
M  V30 6241 O 605.373 0.971259 -1.69897 0
M  V30 6242 C 605.672 -2.36112 -2.68302 0
M  V30 6243 C 605.338 -3.82952 -2.38031 0
M  V30 6244 C 604 -4.22954 -2.29486 0
M  V30 6245 C 606.352 -4.75662 -2.13061 0
M  V30 6246 C 603.68 -5.53674 -1.94067 0
M  V30 6247 C 606.032 -6.06702 -1.79151 0
M  V30 6248 C 604.696 -6.45725 -1.69102 0
M  V30 6249 H 603.966 -0.515128 -0.532658 0
M  V30 6250 H 606.613 -1.74216 -0.795047 0
M  V30 6251 H 604.918 -1.95924 -3.39295 0
M  V30 6252 H 606.615 -2.32887 -3.26442 0
M  V30 6253 H 603.205 -3.5127 -2.45576 0
M  V30 6254 H 607.389 -4.45561 -2.18608 0
M  V30 6255 H 602.645 -5.8279 -1.8484 0
M  V30 6256 H 606.819 -6.78041 -1.5885 0
M  V30 6257 H 604.446 -7.46929 -1.41426 0
M  V30 6258 N 606.021 0.929856 -1.27246 0
M  V30 6259 C 606.951 2.04722 -1.12299 0
M  V30 6260 C 607.932 1.70082 -0.0250464 0
M  V30 6261 O 609.117 1.93176 -0.199141 0
M  V30 6262 C 606.247 3.38721 -0.767145 0
M  V30 6263 C 605.201 3.87466 -1.81808 0
M  V30 6264 C 604.527 5.18246 -1.31626 0
M  V30 6265 C 605.827 4.11095 -3.22177 0
M  V30 6266 H 607.521 2.17485 -2.05769 0
M  V30 6267 H 605.067 1.04503 -0.990715 0
M  V30 6268 H 607.02 4.16366 -0.649413 0
M  V30 6269 H 605.744 3.25967 0.203259 0
M  V30 6270 H 604.403 3.12012 -1.92468 0
M  V30 6271 H 604.051 5.01881 -0.335378 0
M  V30 6272 H 603.751 5.51829 -2.01887 0
M  V30 6273 H 605.275 5.98462 -1.21143 0
M  V30 6274 H 606.689 4.79316 -3.1453 0
M  V30 6275 H 605.086 4.55982 -3.90129 0
M  V30 6276 H 606.156 3.16468 -3.67391 0
M  V30 6277 N 607.499 1.09233 1.13605 0
M  V30 6278 C 608.729 0.847677 1.88409 0
M  V30 6279 C 609.137 -0.604524 1.79282 0
M  V30 6280 O 608.48 -1.42773 1.15592 0
M  V30 6281 C 608.542 1.20153 3.38827 0
M  V30 6282 C 608.206 2.65824 3.71735 0
M  V30 6283 C 609.203 3.64072 3.71143 0
M  V30 6284 C 606.888 3.01894 4.01454 0
M  V30 6285 C 608.882 4.96419 3.99808 0
M  V30 6286 C 606.569 4.34433 4.29781 0
M  V30 6287 C 607.567 5.31505 4.28942 0
M  V30 6288 O 607.255 6.61659 4.56576 0
M  V30 6289 H 606.987 0.304813 0.603378 0
M  V30 6290 H 609.541 1.4573 1.44748 0
M  V30 6291 H 607.771 0.534946 3.82982 0
M  V30 6292 H 609.46 0.936349 3.94952 0
M  V30 6293 H 610.226 3.37549 3.4826 0
M  V30 6294 H 606.105 2.26971 4.01255 0
M  V30 6295 H 609.649 5.7218 3.99069 0
M  V30 6296 H 605.546 4.607 4.52135 0
M  V30 6297 H 606.314 6.67102 4.74254 0
M  V30 6298 N 608.977 -1.30795 0.87923 0
M  V30 6299 C 610.202 -2.01063 0.508769 0
M  V30 6300 C 610.627 -1.65508 -0.893803 0
M  V30 6301 O 609.985 -0.868616 -1.59138 0
M  V30 6302 C 610.033 -3.54054 0.683991 0
M  V30 6303 O 609.137 -4.11498 -0.272654 0
M  V30 6304 H 608.478 -0.632786 0.201191 0
M  V30 6305 H 611.008 -1.66776 1.18519 0
M  V30 6306 H 611.018 -4.03845 0.580798 0
M  V30 6307 H 609.693 -3.79271 1.70665 0
M  V30 6308 H 608.27 -3.72695 -0.12364 0
M  V30 6309 N 610.455 -0.639598 -1.44038 0
M  V30 6310 C 611.402 0.0602458 -2.30721 0
M  V30 6311 C 612.372 0.828352 -1.43971 0
M  V30 6312 O 613.557 0.807693 -1.72861 0
M  V30 6313 C 610.697 1.03008 -3.29368 0
M  V30 6314 C 609.81 0.259502 -4.3122 0
M  V30 6315 C 608.945 1.22191 -5.16955 0
M  V30 6316 C 607.984 0.440978 -6.10509 0
M  V30 6317 N 607.121 1.35428 -6.88915 0
M  V30 6318 H 611.961 -0.684867 -2.90023 0
M  V30 6319 H 609.498 -0.349509 -1.42888 0
M  V30 6320 H 611.456 1.60583 -3.85057 0
M  V30 6321 H 610.086 1.74222 -2.71747 0
M  V30 6322 H 609.138 -0.432317 -3.77935 0
M  V30 6323 H 610.45 -0.348347 -4.97582 0
M  V30 6324 H 609.604 1.86873 -5.77203 0
M  V30 6325 H 608.343 1.86367 -4.50687 0
M  V30 6326 H 607.348 -0.219279 -5.49363 0
M  V30 6327 H 608.573 -0.196192 -6.78817 0
M  V30 6328 H 606.519 1.9831 -6.25307 0
M  V30 6329 H 606.436 0.800657 -7.51748 0
M  V30 6330 H 607.704 1.98967 -7.53679 0
M  V30 6331 N 611.933 1.52934 -0.380664 0
M  V30 6332 C 612.863 2.29118 0.450268 0
M  V30 6333 C 613.844 1.32153 1.07096 0
M  V30 6334 O 615.029 1.61038 1.08537 0
M  V30 6335 C 612.159 3.09161 1.58231 0
M  V30 6336 C 611.113 4.13938 1.0881 0
M  V30 6337 C 610.439 4.82153 2.31155 0
M  V30 6338 C 611.739 5.22048 0.162146 0
M  V30 6339 H 613.433 2.98826 -0.185361 0
M  V30 6340 H 610.979 1.43715 -0.0905886 0
M  V30 6341 H 612.932 3.61211 2.17036 0
M  V30 6342 H 611.656 2.3717 2.2454 0
M  V30 6343 H 610.315 3.62855 0.522633 0
M  V30 6344 H 609.963 4.06719 2.95953 0
M  V30 6345 H 609.663 5.52966 1.98752 0
M  V30 6346 H 611.187 5.37004 2.90618 0
M  V30 6347 H 612.601 5.6951 0.658126 0
M  V30 6348 H 610.998 6.00057 -0.0717122 0
M  V30 6349 H 612.068 4.78398 -0.791438 0
M  V30 6350 N 613.412 0.11024 1.57214 0
M  V30 6351 C 614.64 -0.557834 1.99238 0
M  V30 6352 C 615.055 -1.60778 0.989734 0
M  V30 6353 O 614.412 -1.82491 -0.0186092 0
M  V30 6354 C 614.463 -1.19189 3.41286 0
M  V30 6355 O 614.184 -0.183919 4.37714 0
M  V30 6356 C 615.685 -1.94413 3.98395 0
M  V30 6357 H 612.905 -0.148392 0.654386 0
M  V30 6358 H 615.449 0.193996 2.03578 0
M  V30 6359 H 613.604 -1.89456 3.37913 0
M  V30 6360 H 614.018 -0.643475 5.20538 0
M  V30 6361 H 615.492 -2.34116 4.99894 0
M  V30 6362 H 615.969 -2.81592 3.3705 0
M  V30 6363 H 616.575 -1.28928 4.05287 0
M  V30 6364 N 614.89 -1.56749 -0.16351 0
M  V30 6365 C 616.136 -1.82704 -0.880168 0
M  V30 6366 C 616.469 -0.689311 -1.81555 0
M  V30 6367 O 615.744 0.308224 -1.92042 0
M  V30 6368 C 616.027 -3.19084 -1.66905 0
M  V30 6369 C 615.88 -4.43397 -0.756269 0
M  V30 6370 C 617.199 -3.52493 -2.63509 0
M  V30 6371 H 614.318 -0.664608 -0.318535 0
M  V30 6372 H 616.96 -1.89438 -0.146036 0
M  V30 6373 H 615.11 -3.13475 -2.2949 0
M  V30 6374 H 616.782 -4.61079 -0.14269 0
M  V30 6375 H 615.025 -4.33752 -0.0647944 0
M  V30 6376 H 615.696 -5.3539 -1.34393 0
M  V30 6377 H 618.172 -3.58606 -2.11047 0
M  V30 6378 H 617.048 -4.48979 -3.15767 0
M  V30 6379 H 617.309 -2.77597 -3.44082 0
M  V30 6380 N 616.368 0.432326 -1.51554 0
M  V30 6381 C 617.645 1.19288 -1.55015 0
M  V30 6382 C 618.025 2.08701 -0.317375 0
M  V30 6383 O 617.373 2.17602 0.697243 0
M  V30 6384 C 617.583 1.99037 -2.86679 0
M  V30 6385 C 618.931 2.55907 -3.38817 0
M  V30 6386 O 619.955 2.09243 -2.88263 0
M  V30 6387 O 618.814 3.41029 -4.27038 0
M  V30 6388 H 615.908 0.543369 -0.623441 0
M  V30 6389 H 618.454 0.440988 -1.6387 0
M  V30 6390 H 617.226 1.33397 -3.6786 0
M  V30 6391 H 616.849 2.81281 -2.8101 0
M  V30 6392 N 617.846 1.41785 0.688094 0
M  V30 6393 C 618.793 1.44221 1.80191 0
M  V30 6394 C 619.763 0.295688 1.63447 0
M  V30 6395 O 620.948 0.49783 1.84191 0
M  V30 6396 C 618.088 1.33743 3.1813 0
M  V30 6397 C 617.201 2.58325 3.46254 0
M  V30 6398 C 616.336 2.40086 4.73848 0
M  V30 6399 C 615.375 3.60107 4.94964 0
M  V30 6400 N 614.512 3.40892 6.13789 0
M  V30 6401 H 619.352 2.39411 1.77444 0
M  V30 6402 H 616.889 1.18876 0.866423 0
M  V30 6403 H 618.847 1.25669 3.97823 0
M  V30 6404 H 617.477 0.42157 3.20035 0
M  V30 6405 H 616.529 2.7682 2.60912 0
M  V30 6406 H 617.841 3.4758 3.57756 0
M  V30 6407 H 616.995 2.29522 5.61609 0
M  V30 6408 H 615.734 1.483 4.64606 0
M  V30 6409 H 614.739 3.71118 4.05649 0
M  V30 6410 H 615.964 4.52857 5.06061 0
M  V30 6411 H 613.91 2.51812 6.05745 0
M  V30 6412 H 613.827 4.23727 6.26092 0
M  V30 6413 H 615.095 3.34114 7.04264 0
M  V30 6414 N 619.324 -0.923095 1.27737 0
M  V30 6415 C 620.549 -1.71054 1.17283 0
M  V30 6416 C 620.974 -1.86208 -0.266153 0
M  V30 6417 O 620.332 -1.36545 -1.1927 0
M  V30 6418 C 620.38 -3.0854 1.86642 0
M  V30 6419 O 619.484 -3.95528 1.16752 0
M  V30 6420 H 618.825 -0.524136 0.407649 0
M  V30 6421 H 621.355 -1.15487 1.6889 0
M  V30 6422 H 621.365 -3.58828 1.94182 0
M  V30 6423 H 620.04 -2.96828 2.91317 0
M  V30 6424 H 618.617 -3.53967 1.17312 0
M  V30 6425 N 620.802 -1.09834 -1.13024 0
M  V30 6426 C 622.218 -0.828875 -1.36388 0
M  V30 6427 C 622.418 0.554756 -1.93713 0
M  V30 6428 O 621.474 1.30882 -2.15931 0
M  V30 6429 C 622.787 -1.92352 -2.3113 0
M  V30 6430 C 624.335 -1.95124 -2.44735 0
M  V30 6431 C 624.81 -3.03745 -3.42787 0
M  V30 6432 N 626.301 -3.03012 -3.5034 0
M  V30 6433 C 627.036 -3.83699 -4.26101 0
M  V30 6434 N 626.532 -4.74306 -5.04981 0
M  V30 6435 N 628.325 -3.71942 -4.21445 0
M  V30 6436 H 620.476 -1.99029 -0.74169 0
M  V30 6437 H 622.739 -0.864557 -0.388903 0
M  V30 6438 H 622.445 -2.91906 -1.96172 0
M  V30 6439 H 622.319 -1.80536 -3.3119 0
M  V30 6440 H 624.706 -0.962069 -2.78977 0
M  V30 6441 H 624.787 -2.11018 -1.44586 0
M  V30 6442 H 624.431 -4.02878 -3.09276 0
M  V30 6443 H 624.361 -2.85094 -4.42752 0
M  V30 6444 H 626.852 -2.37352 -2.94062 0
M  V30 6445 H 627.165 -5.32446 -5.60108 0
M  V30 6446 H 625.51 -4.78339 -5.04199 0
M  V30 6447 H 628.701 -3.00513 -3.589 0
M  V30 6448 H 628.874 -4.35062 -4.80235 0
M  V30 6449 N 622.28 1.30327 -0.886154 0
M  V30 6450 C 623.526 1.96764 -0.515312 0
M  V30 6451 C 623.881 1.68675 0.925552 0
M  V30 6452 O 623.174 0.981693 1.6454 0
M  V30 6453 C 623.368 3.49906 -0.728042 0
M  V30 6454 C 623.197 3.92881 -2.18803 0
M  V30 6455 C 621.967 4.18424 -2.83284 0
M  V30 6456 C 624.165 4.05617 -3.16195 0
M  V30 6457 N 622.147 4.47867 -4.19867 0
M  V30 6458 C 623.518 4.38957 -4.37855 0
M  V30 6459 C 625.573 3.88047 -3.11968 0
M  V30 6460 C 624.276 4.56559 -5.55829 0
M  V30 6461 C 626.302 4.06851 -4.29215 0
M  V30 6462 C 625.664 4.40538 -5.49641 0
M  V30 6463 H 621.763 0.74493 -0.237916 0
M  V30 6464 H 624.347 1.57536 -1.14414 0
M  V30 6465 H 622.518 3.88187 -0.128696 0
M  V30 6466 H 624.25 4.03401 -0.323983 0
M  V30 6467 H 621.005 4.1167 -2.34146 0
M  V30 6468 H 621.429 4.66721 -4.90408 0
M  V30 6469 H 626.071 3.61078 -2.19961 0
M  V30 6470 H 623.789 4.8237 -6.4834 0
M  V30 6471 H 627.375 3.94724 -4.27416 0
M  V30 6472 H 626.255 4.54789 -6.38856 0
M  V30 6473 N 623.758 0.647228 1.43697 0
M  V30 6474 C 624.69 -0.0866232 2.29036 0
M  V30 6475 C 625.703 -0.793051 1.42178 0
M  V30 6476 O 626.892 -0.651807 1.66174 0
M  V30 6477 C 623.992 -1.14552 3.18953 0
M  V30 6478 C 623.165 -0.518422 4.34317 0
M  V30 6479 C 622.224 -1.4734 5.05151 0
M  V30 6480 O 621.25 -0.984312 5.60625 0
M  V30 6481 N 622.452 -2.8075 5.08094 0
M  V30 6482 H 625.217 0.645834 2.92659 0
M  V30 6483 H 622.778 0.489567 1.54321 0
M  V30 6484 H 624.77 -1.78505 3.63205 0
M  V30 6485 H 623.34 -1.78001 2.56971 0
M  V30 6486 H 622.56 0.300079 3.93056 0
M  V30 6487 H 623.848 -0.080401 5.08736 0
M  V30 6488 H 623.246 -3.23052 4.64386 0
M  V30 6489 H 621.803 -3.40022 5.56083 0
M  V30 6490 N 625.236 -1.5273 0.388769 0
M  V30 6491 C 626.168 -2.24081 -0.481704 0
M  V30 6492 C 627.181 -1.26307 -1.02715 0
M  V30 6493 O 628.37 -1.52386 -0.929565 0
M  V30 6494 C 625.47 -2.94315 -1.68024 0
M  V30 6495 C 624.643 -4.18791 -1.26226 0
M  V30 6496 C 623.702 -4.72028 -2.32542 0
M  V30 6497 O 622.728 -5.35129 -1.93972 0
M  V30 6498 N 623.93 -4.51838 -3.64448 0
M  V30 6499 H 626.695 -2.9942 0.129591 0
M  V30 6500 H 624.256 -1.60465 0.2151 0
M  V30 6501 H 626.248 -3.26831 -2.38671 0
M  V30 6502 H 624.818 -2.22287 -2.19789 0
M  V30 6503 H 624.038 -3.92318 -0.384703 0
M  V30 6504 H 625.326 -4.99668 -0.959647 0
M  V30 6505 H 624.724 -4.01468 -3.98547 0
M  V30 6506 H 623.281 -4.88845 -4.31131 0
M  V30 6507 N 626.714 -0.118576 -1.57153 0
M  V30 6508 C 627.962 0.538461 -1.94795 0
M  V30 6509 C 628.283 1.67243 -1.00274 0
M  V30 6510 O 627.553 1.95811 -0.0589692 0
M  V30 6511 H 626.133 0.201904 -0.719197 0
M  V30 6512 H 628.795 -0.187418 -1.93997 0
M  V30 6513 H 627.891 0.933315 -2.97818 0
M  V30 6514 N 628.193 1.56834 0.155195 0
M  V30 6515 C 629.141 1.98584 1.21107 0
M  V30 6516 C 630.135 0.876987 1.44932 0
M  V30 6517 O 631.341 1.06215 1.45322 0
M  V30 6518 H 627.716 0.632039 0.407469 0
M  V30 6519 H 629.687 2.86561 0.832195 0
M  V30 6520 C 628.436 2.37555 2.53895 0
M  V30 6521 H 627.759 3.22428 2.3639 0
M  V30 6522 H 629.199 2.70598 3.26424 0
M  V30 6523 C 627.658 1.22507 3.13837 0
M  V30 6524 O 628.188 0.521388 3.98302 0
M  V30 6525 N 626.394 0.991444 2.73164 0
M  V30 6526 H 625.941 1.56544 2.04577 0
M  V30 6527 H 625.899 0.223546 3.13604 0
M  V30 6528 N 629.671 -0.424282 1.51781 0
M  V30 6529 C 630.917 -1.17434 1.6534 0
M  V30 6530 C 631.25 -1.90549 0.374806 0
M  V30 6531 O 630.525 -1.84145 -0.626179 0
M  V30 6532 C 630.808 -2.18093 2.86544 0
M  V30 6533 C 630.661 -1.48975 4.24413 0
M  V30 6534 C 631.98 -3.18934 3.03264 0
M  V30 6535 H 629.099 -0.425566 0.601716 0
M  V30 6536 H 631.741 -0.461921 1.84299 0
M  V30 6537 H 629.891 -2.78849 2.7051 0
M  V30 6538 H 631.563 -0.914551 4.52143 0
M  V30 6539 H 629.806 -0.791893 4.26511 0
M  V30 6540 H 630.477 -2.22347 5.05238 0
M  V30 6541 H 632.953 -2.68243 3.18096 0
M  V30 6542 H 631.829 -3.86645 3.89611 0
M  V30 6543 H 632.09 -3.85793 2.15908 0
M  V30 6544 N 631.149 -1.42148 -0.680565 0
M  V30 6545 C 632.396 -1.4231 -1.44063 0
M  V30 6546 C 632.724 -0.037488 -1.94464 0
M  V30 6547 O 631.979 0.953184 -1.70918 0
M  V30 6548 C 632.278 -2.38945 -2.65782 0
M  V30 6549 C 631.944 -3.85455 -2.33956 0
M  V30 6550 C 630.606 -4.25364 -2.24987 0
M  V30 6551 C 632.958 -4.77895 -2.08004 0
M  V30 6552 C 630.286 -5.55701 -1.88184 0
M  V30 6553 C 632.638 -6.08568 -1.72706 0
M  V30 6554 C 631.302 -6.47482 -1.62244 0
M  V30 6555 H 630.572 -0.520748 -0.527164 0
M  V30 6556 H 633.219 -1.7505 -0.776524 0
M  V30 6557 H 631.524 -1.99511 -3.37198 0
M  V30 6558 H 633.221 -2.36336 -3.23954 0
M  V30 6559 H 629.811 -3.53855 -2.41836 0
M  V30 6560 H 633.995 -4.47854 -2.1387 0
M  V30 6561 H 629.251 -5.84718 -1.78648 0
M  V30 6562 H 633.425 -6.79688 -1.5165 0
M  V30 6563 H 631.052 -7.48387 -1.33496 0
M  V30 6564 N 632.627 0.916307 -1.28225 0
M  V30 6565 C 633.852 1.7043 -1.18188 0
M  V30 6566 C 634.277 1.86346 0.256274 0
M  V30 6567 O 633.635 1.37175 1.18544 0
M  V30 6568 C 633.683 3.07546 -1.88275 0
M  V30 6569 O 632.787 3.94904 -1.18848 0
M  V30 6570 H 632.128 0.521967 -0.410423 0
M  V30 6571 H 634.658 1.14589 -1.69501 0
M  V30 6572 H 634.668 3.57793 -1.96082 0
M  V30 6573 H 633.343 2.95279 -2.92887 0
M  V30 6574 H 631.92 3.53339 -1.19187 0
M  V30 6575 N 634.105 1.10431 1.1244 0
M  V30 6576 C 635.345 0.856518 1.85589 0
M  V30 6577 C 635.709 -0.606905 1.82156 0
M  V30 6578 O 636.91 -0.97105 2.50647 0
M  V30 6579 C 635.181 1.38977 3.29272 0
M  V30 6580 S 636.74 1.27739 4.19795 0
M  V30 6581 H 633.558 0.309509 0.640098 0
M  V30 6582 H 636.16 1.40975 1.35449 0
M  V30 6583 H 634.864 2.44887 3.2933 0
M  V30 6584 H 634.395 0.833112 3.84477 0
M  V30 6585 H 636.41 0.235051 4.95643 0
M  V30 6586 N 635.583 -1.29855 0.893053 0
M  V30 6587 C 636.808 -2.00512 0.530066 0
M  V30 6588 C 637.233 -1.66446 -0.876199 0
M  V30 6589 O 636.591 -0.885446 -1.58207 0
M  V30 6590 C 636.639 -3.53308 0.721505 0
M  V30 6591 O 635.743 -4.11764 -0.228994 0
M  V30 6592 H 635.084 -0.630617 0.207891 0
M  V30 6593 H 637.614 -1.6551 1.20282 0
M  V30 6594 H 637.624 -4.03206 0.623599 0
M  V30 6595 H 636.299 -3.77439 1.74678 0
M  V30 6596 H 634.876 -3.72805 -0.0841034 0
M  V30 6597 N 637.061 -0.65484 -1.43351 0
M  V30 6598 C 638.307 -0.169142 -2.02093 0
M  V30 6599 C 638.64 1.21431 -1.51553 0
M  V30 6600 O 637.915 1.81105 -0.709317 0
M  V30 6601 C 638.198 -0.181775 -3.59641 0
M  V30 6602 C 638.051 -1.59926 -4.20409 0
M  V30 6603 C 639.37 0.480945 -4.37464 0
M  V30 6604 H 636.489 -0.0629371 -0.734308 0
M  V30 6605 H 639.131 -0.835833 -1.70628 0
M  V30 6606 H 637.281 0.385918 -3.86578 0
M  V30 6607 H 638.953 -2.21766 -4.04497 0
M  V30 6608 H 637.196 -2.14605 -3.76998 0
M  V30 6609 H 637.867 -1.55994 -5.295 0
M  V30 6610 H 640.343 -0.00208273 -4.161 0
M  V30 6611 H 639.219 0.441384 -5.47122 0
M  V30 6612 H 639.48 1.55533 -4.13838 0
M  V30 6613 N 638.539 1.52521 -0.396863 0
M  V30 6614 C 639.472 2.23118 0.478926 0
M  V30 6615 C 640.45 1.23475 1.05796 0
M  V30 6616 O 641.634 1.52486 1.10817 0
M  V30 6617 C 638.761 2.95028 1.66362 0
M  V30 6618 C 637.807 4.09002 1.20913 0
M  V30 6619 S 638.64 5.35182 0.184407 0
M  V30 6620 C 639.796 6.10616 1.37471 0
M  V30 6621 H 640.029 2.97056 -0.120542 0
M  V30 6622 H 637.562 1.53334 -0.18109 0
M  V30 6623 H 639.52 3.37066 2.34301 0
M  V30 6624 H 638.181 2.20756 2.23441 0
M  V30 6625 H 637.374 4.58445 2.09389 0
M  V30 6626 H 636.976 3.69016 0.608559 0
M  V30 6627 H 639.268 6.37247 2.30048 0
M  V30 6628 H 640.211 7.02084 0.921051 0
M  V30 6629 H 640.619 5.41499 1.59495 0
M  V30 6630 N 640.017 0.126909 1.57088 0
M  V30 6631 C 640.967 -0.831678 2.1229 0
M  V30 6632 C 641.951 -1.22292 1.04564 0
M  V30 6633 O 643.143 -1.19269 1.30782 0
M  V30 6634 C 640.272 -2.07866 2.73215 0
M  V30 6635 C 639.358 -1.71143 3.88035 0
M  V30 6636 N 639.749 -1.05136 4.94753 0
M  V30 6637 C 638.047 -2.00549 3.98367 0
M  V30 6638 C 638.748 -0.877257 5.75047 0
M  V30 6639 N 637.724 -1.40477 5.25135 0
M  V30 6640 H 641.526 -0.317926 2.92175 0
M  V30 6641 H 639.04 -0.0753052 1.62225 0
M  V30 6642 H 641.037 -2.77516 3.11111 0
M  V30 6643 H 639.697 -2.59778 1.94796 0
M  V30 6644 H 640.708 -0.71442 5.12949 0
M  V30 6645 H 637.385 -2.54452 3.30999 0
M  V30 6646 H 638.775 -0.358536 6.70943 0
M  V30 6647 N 641.495 -1.56914 -0.146875 0
M  V30 6648 C 642.405 -2.0154 -1.20079 0
M  V30 6649 C 643.421 -0.930838 -1.47008 0
M  V30 6650 O 644.597 -1.24032 -1.58676 0
M  V30 6651 C 641.662 -2.38715 -2.51428 0
M  V30 6652 C 640.723 -3.6112 -2.32145 0
M  V30 6653 C 639.956 -3.96512 -3.57231 0
M  V30 6654 O 640.179 -3.32566 -4.63418 0
M  V30 6655 O 639.113 -4.89758 -3.49887 0
M  V30 6656 H 642.939 -2.91506 -0.851924 0
M  V30 6657 H 640.524 -1.45106 -0.355607 0
M  V30 6658 H 642.406 -2.63485 -3.28867 0
M  V30 6659 H 641.081 -1.51903 -2.85845 0
M  V30 6660 H 639.988 -3.41536 -1.52656 0
M  V30 6661 H 641.321 -4.48549 -2.02644 0
M  V30 6662 N 642.974 0.416227 -1.52004 0
M  V30 6663 C 643.937 1.48926 -1.74223 0
M  V30 6664 C 644.937 1.48693 -0.612119 0
M  V30 6665 O 646.127 1.50343 -0.879921 0
M  V30 6666 C 643.259 2.88372 -1.81809 0
M  V30 6667 H 644.452 1.3052 -2.70008 0
M  V30 6668 H 642.005 0.646271 -1.42313 0
M  V30 6669 H 642.74 3.12157 -0.879135 0
M  V30 6670 H 642.525 2.89944 -2.6396 0
M  V30 6671 H 644.015 3.66173 -2.00766 0
M  V30 6672 N 644.452 1.42507 0.673017 0
M  V30 6673 C 645.382 1.48916 1.79851 0
M  V30 6674 C 646.363 0.345566 1.66553 0
M  V30 6675 O 647.548 0.560116 1.85947 0
M  V30 6676 C 644.678 1.39258 3.18158 0
M  V30 6677 C 643.632 2.51662 3.46194 0
M  V30 6678 C 642.958 2.27062 4.84094 0
M  V30 6679 C 644.258 3.93968 3.42909 0
M  V30 6680 H 645.952 2.43114 1.74745 0
M  V30 6681 H 643.498 1.17013 0.839288 0
M  V30 6682 H 645.451 1.42349 3.96629 0
M  V30 6683 H 644.175 0.415542 3.23946 0
M  V30 6684 H 642.834 2.47891 2.70084 0
M  V30 6685 H 642.482 1.27648 4.86534 0
M  V30 6686 H 642.182 3.02398 5.03815 0
M  V30 6687 H 643.706 2.31905 5.64847 0
M  V30 6688 H 645.12 3.99332 4.11347 0
M  V30 6689 H 643.517 4.6917 3.74165 0
M  V30 6690 H 644.587 4.20512 2.41449 0
M  V30 6691 N 645.93 -0.909495 1.28709 0
M  V30 6692 C 646.88 -1.9991 1.09636 0
M  V30 6693 C 647.864 -1.60889 0.01872 0
M  V30 6694 O 649.056 -1.75374 0.239338 0
M  V30 6695 C 646.185 -3.34675 0.764702 0
M  V30 6696 C 645.271 -3.80085 1.8814 0
M  V30 6697 N 645.662 -3.97824 3.12361 0
M  V30 6698 C 643.96 -4.09278 1.77221 0
M  V30 6699 C 644.661 -4.35928 3.85151 0
M  V30 6700 N 643.637 -4.44426 3.13028 0
M  V30 6701 H 647.439 -2.11681 2.03883 0
M  V30 6702 H 644.953 -1.09763 1.1969 0
M  V30 6703 H 646.95 -4.12426 0.609132 0
M  V30 6704 H 645.61 -3.24255 -0.169952 0
M  V30 6705 H 646.621 -3.83626 3.47925 0
M  V30 6706 H 643.298 -4.0747 0.909621 0
M  V30 6707 H 644.688 -4.57581 4.92006 0
M  V30 6708 N 647.408 -1.11026 -1.11852 0
M  V30 6709 C 648.356 -0.759643 -2.19846 0
M  V30 6710 C 649.35 0.246964 -1.6759 0
M  V30 6711 O 650.556 0.106693 -1.79684 0
M  V30 6712 H 646.931 -0.22775 -0.716683 0
M  V30 6713 H 648.902 -1.6792 -2.46669 0
M  V30 6714 C 647.651 -0.214364 -3.47039 0
M  V30 6715 H 646.974 -0.980175 -3.87599 0
M  V30 6716 H 648.414 -0.00717047 -4.23999 0
M  V30 6717 C 646.873 1.05436 -3.19976 0
M  V30 6718 O 647.403 2.13483 -3.40276 0
M  V30 6719 N 645.609 0.975436 -2.7374 0
M  V30 6720 H 645.156 0.0960853 -2.57421 0
M  V30 6721 H 645.114 1.82501 -2.5601 0
M  V30 6722 N 648.886 1.2938 -0.899927 0
M  V30 6723 C 649.836 2.25311 -0.349165 0
M  V30 6724 C 650.82 1.51889 0.530892 0
M  V30 6725 O 652.012 1.73028 0.372872 0
M  V30 6726 C 649.141 3.40696 0.422055 0
M  V30 6727 C 648.227 4.21455 -0.472935 0
M  V30 6728 N 648.618 4.8048 -1.58026 0
M  V30 6729 C 646.916 4.45177 -0.270767 0
M  V30 6730 C 647.617 5.41117 -2.13465 0
M  V30 6731 N 646.593 5.24518 -1.42766 0
M  V30 6732 H 650.395 2.68507 -1.19505 0
M  V30 6733 H 647.909 1.43992 -0.751006 0
M  V30 6734 H 649.906 4.08486 0.833369 0
M  V30 6735 H 648.566 2.99037 1.2652 0
M  V30 6736 H 649.577 4.79257 -1.96299 0
M  V30 6737 H 646.254 4.14071 0.533988 0
M  V30 6738 H 647.644 5.979 -3.06537 0
M  V30 6739 N 650.364 0.662433 1.43002 0
M  V30 6740 C 651.594 0.187343 2.05749 0
M  V30 6741 C 652.002 -1.15582 1.49791 0
M  V30 6742 O 651.345 -1.72651 0.627487 0
M  V30 6743 C 651.407 0.0316493 3.59486 0
M  V30 6744 C 651.071 1.30156 4.38073 0
M  V30 6745 C 652.068 2.23234 4.69535 0
M  V30 6746 C 649.753 1.54572 4.77926 0
M  V30 6747 C 651.747 3.39012 5.39768 0
M  V30 6748 C 649.434 2.70641 5.47902 0
M  V30 6749 C 650.432 3.62687 5.78746 0
M  V30 6750 O 650.12 4.76728 6.47291 0
M  V30 6751 H 649.852 0.0915214 0.669776 0
M  V30 6752 H 652.406 0.905982 1.8434 0
M  V30 6753 H 650.636 -0.742451 3.79506 0
M  V30 6754 H 652.325 -0.401977 4.03905 0
M  V30 6755 H 653.091 2.05616 4.39257 0
M  V30 6756 H 648.97 0.83804 4.53319 0
M  V30 6757 H 652.514 4.10877 5.63761 0
M  V30 6758 H 648.411 2.88189 5.77596 0
M  V30 6759 H 649.179 4.76113 6.65777 0
M  V30 6760 N 651.842 -1.52309 0.404946 0
M  V30 6761 C 653.07 -2.06185 -0.171818 0
M  V30 6762 C 653.485 -1.27536 -1.39212 0
M  V30 6763 O 652.842 -0.326112 -1.79563 0
M  V30 6764 C 652.893 -3.57647 -0.526417 0
M  V30 6765 O 652.614 -4.3332 0.645417 0
M  V30 6766 C 654.115 -4.27925 -1.15736 0
M  V30 6767 H 651.335 -0.670632 -0.0222328 0
M  V30 6768 H 653.879 -1.96259 0.574692 0
M  V30 6769 H 652.034 -3.67595 -1.22282 0
M  V30 6770 H 652.448 -5.23328 0.35042 0
M  V30 6771 H 653.922 -5.35093 -1.35572 0
M  V30 6772 H 654.399 -3.84134 -2.12926 0
M  V30 6773 H 655.005 -4.22335 -0.501281 0
M  V30 6774 N 653.32 -0.135238 -1.57019 0
M  V30 6775 C 654.252 0.839675 -2.13265 0
M  V30 6776 C 655.265 1.21887 -1.07923 0
M  V30 6777 O 656.454 1.16499 -1.35241 0
M  V30 6778 C 653.554 2.13647 -2.63075 0
M  V30 6779 C 652.727 1.92646 -3.92691 0
M  V30 6780 C 651.786 3.06205 -4.27931 0
M  V30 6781 O 650.812 2.78409 -4.96465 0
M  V30 6782 N 652.014 4.33072 -3.86561 0
M  V30 6783 H 654.779 0.359026 -2.97542 0
M  V30 6784 H 652.34 0.0486979 -1.61827 0
M  V30 6785 H 654.332 2.88641 -2.8367 0
M  V30 6786 H 652.902 2.5301 -1.83588 0
M  V30 6787 H 652.122 1.01754 -3.80841 0
M  V30 6788 H 653.41 1.75939 -4.77413 0
M  V30 6789 H 652.808 4.58526 -3.31316 0
M  V30 6790 H 651.365 5.04885 -4.12231 0
M  V30 6791 N 654.798 1.5699 0.138552 0
M  V30 6792 C 655.745 1.98899 1.17081 0
M  V30 6793 C 656.715 0.857922 1.42228 0
M  V30 6794 O 657.9 1.12065 1.54422 0
M  V30 6795 C 655.04 2.38189 2.4972 0
M  V30 6796 C 654.153 3.64624 2.31674 0
M  V30 6797 C 653.288 3.9298 3.57407 0
M  V30 6798 C 652.327 5.1266 3.34435 0
M  V30 6799 N 651.464 5.36983 4.5232 0
M  V30 6800 H 656.304 2.86881 0.80642 0
M  V30 6801 H 653.841 1.41925 0.386727 0
M  V30 6802 H 655.799 2.59 3.2707 0
M  V30 6803 H 654.429 1.53275 2.84089 0
M  V30 6804 H 653.481 3.51542 1.45337 0
M  V30 6805 H 654.793 4.52131 2.10664 0
M  V30 6806 H 653.947 4.14335 4.43183 0
M  V30 6807 H 652.686 3.03912 3.8143 0
M  V30 6808 H 651.691 4.9117 2.47048 0
M  V30 6809 H 652.916 6.03288 3.11802 0
M  V30 6810 H 650.862 4.50871 4.76499 0
M  V30 6811 H 650.779 6.18775 4.34343 0
M  V30 6812 H 652.047 5.62842 5.39285 0
M  V30 6813 N 656.276 -0.40816 1.52223 0
M  V30 6814 C 657.501 -1.18127 1.70472 0
M  V30 6815 C 657.926 -1.83491 0.41384 0
M  V30 6816 O 657.284 -1.70047 -0.628778 0
M  V30 6817 C 657.332 -2.21935 2.84213 0
M  V30 6818 O 656.436 -3.28099 2.4985 0
M  V30 6819 H 655.777 -0.344781 0.56747 0
M  V30 6820 H 658.307 -0.478328 1.9893 0
M  V30 6821 H 658.317 -2.66248 3.09153 0
M  V30 6822 H 656.992 -1.73744 3.7787 0
M  V30 6823 H 655.569 -2.89058 2.35584 0
M  V30 6824 N 657.755 -1.42862 -0.66545 0
M  V30 6825 C 658.685 -1.49867 -1.79059 0
M  V30 6826 C 659.666 -0.354394 -1.66367 0
M  V30 6827 O 660.851 -0.569969 -1.85647 0
M  V30 6828 C 657.981 -1.40943 -3.17415 0
M  V30 6829 C 656.935 -2.53495 -3.44854 0
M  V30 6830 C 656.261 -2.29626 -4.82883 0
M  V30 6831 C 657.561 -3.95781 -3.40815 0
M  V30 6832 H 659.255 -2.44037 -1.73453 0
M  V30 6833 H 656.801 -1.17456 -0.833071 0
M  V30 6834 H 658.754 -1.4445 -3.95869 0
M  V30 6835 H 657.478 -0.432716 -3.23721 0
M  V30 6836 H 656.137 -2.4932 -2.68766 0
M  V30 6837 H 655.785 -1.30226 -4.8585 0
M  V30 6838 H 655.485 -3.05065 -5.02204 0
M  V30 6839 H 657.009 -2.34897 -5.63609 0
M  V30 6840 H 658.423 -4.01508 -4.09224 0
M  V30 6841 H 656.82 -4.71148 -3.71672 0
M  V30 6842 H 657.89 -4.21786 -2.39216 0
M  V30 6843 N 659.233 0.902656 -1.29189 0
M  V30 6844 C 660.458 1.69167 -1.19989 0
M  V30 6845 C 660.883 1.86607 0.236495 0
M  V30 6846 O 660.241 1.38425 1.17082 0
M  V30 6847 C 660.289 3.05532 -1.91527 0
M  V30 6848 O 659.393 3.93621 -1.2303 0
M  V30 6849 H 658.734 0.517584 -0.415936 0
M  V30 6850 H 661.264 1.12785 -1.70706 0
M  V30 6851 H 661.274 3.55693 -1.99866 0
M  V30 6852 H 659.949 2.92156 -2.96003 0
M  V30 6853 H 658.526 3.52055 -1.22928 0
M  V30 6854 N 660.711 1.11618 1.11262 0
M  V30 6855 C 661.641 0.79846 2.19424 0
M  V30 6856 C 662.622 -0.234003 1.68483 0
M  V30 6857 O 663.807 -0.0970704 1.93957 0
M  V30 6858 C 660.937 0.242892 3.4645 0
M  V30 6859 C 659.891 1.20744 4.10615 0
M  V30 6860 C 659.217 0.512494 5.32238 0
M  V30 6861 C 660.517 2.55884 4.55325 0
M  V30 6862 H 662.211 1.70286 2.46258 0
M  V30 6863 H 659.757 0.820195 1.18359 0
M  V30 6864 H 661.71 0.00840447 4.21399 0
M  V30 6865 H 660.434 -0.696811 3.1908 0
M  V30 6866 H 659.093 1.42759 3.37662 0
M  V30 6867 H 658.741 -0.432075 5.01141 0
M  V30 6868 H 658.441 1.15583 5.7612 0
M  V30 6869 H 659.965 0.286842 6.09926 0
M  V30 6870 H 661.379 2.37946 5.21588 0
M  V30 6871 H 659.776 3.16216 5.10027 0
M  V30 6872 H 660.846 3.14968 3.68678 0
M  V30 6873 N 662.189 -1.289 0.906776 0
M  V30 6874 C 663.414 -1.99939 0.551303 0
M  V30 6875 C 663.839 -1.67366 -0.858496 0
M  V30 6876 O 663.197 -0.902176 -1.57259 0
M  V30 6877 C 663.245 -3.52523 0.758937 0
M  V30 6878 O 662.349 -4.11983 -0.185308 0
M  V30 6879 H 661.69 -0.628376 0.214568 0
M  V30 6880 H 664.22 -1.64225 1.2203 0
M  V30 6881 H 664.23 -4.02522 0.666329 0
M  V30 6882 H 662.905 -3.75566 1.78671 0
M  V30 6883 H 661.482 -3.72873 -0.0445577 0
M  V30 6884 N 663.667 -0.670007 -1.42649 0
M  V30 6885 C 665.078 -0.268118 -1.84765 0
M  V30 6886 C 665.429 1.18877 -1.56086 0
M  V30 6887 O 664.554 1.90947 -1.01825 0
M  V30 6888 C 665.149 -0.47984 -3.35385 0
M  V30 6889 C 663.708 -0.132116 -3.76168 0
M  V30 6890 C 662.855 -0.774611 -2.66261 0
M  V30 6891 H 665.806 -0.872509 -1.32563 0
M  V30 6892 H 665.827 0.269522 -3.79544 0
M  V30 6893 H 665.339 -1.54026 -3.56227 0
M  V30 6894 H 663.44 0.92505 -3.60934 0
M  V30 6895 H 663.553 -0.569294 -4.75706 0
M  V30 6896 H 661.917 -0.206353 -2.53863 0
M  V30 6897 H 662.7 -1.83839 -2.89928 0
M  V30 6898 N 665.145 1.52092 -0.413018 0
M  V30 6899 C 666.393 2.01456 0.161178 0
M  V30 6900 C 666.714 1.30034 1.45314 0
M  V30 6901 O 665.984 0.427435 1.9118 0
M  V30 6902 H 664.564 0.744376 0.0625526 0
M  V30 6903 H 667.226 1.86974 -0.550151 0
M  V30 6904 H 666.322 3.1008 0.354517 0
M  V30 6905 O 666.662 0.284301 1.58978 0
M  V30 6906 H 667.353 -0.283792 1.9161 0
M  V30 END ATOM
M  V30 BEGIN BOND
M  V30 END BOND
M  V30 END CTAB
M  END
$$$$
