drugbank_target|P03952 Plasma kallikrein (DB01593; DB05311; DB06404; DB09228; DB12831; DB14487; DB14533; DB14548; DB14597; DB15982)
 OpenBabel12092120213D

  0  0  0     0  0            999 V3000
M  V30 BEGIN CTAB
M  V30 COUNTS 9906 10023 0 0 0
M  V30 BEGIN ATOM
M  V30 1 H -0.908 1.98254 -0.117106 0
M  V30 2 N 0 1.576 0 0
M  V30 3 C 0.933 2.03868 1.02534 0
M  V30 4 C 1.911 0.928543 1.3348 0
M  V30 5 O 3.095 1.19667 1.45644 0
M  V30 6 C 0.222 2.43627 2.35294 0
M  V30 7 C -0.732 3.65373 2.2001 0
M  V30 8 S 0.101 5.13292 1.52614 0
M  V30 9 C 1.257 5.56322 2.86805 0
M  V30 10 H 1.49 2.90518 0.631377 0
M  V30 11 H -0.977 1.52953 0.210867 0
M  V30 12 H 0.981 2.67203 3.11629 0
M  V30 13 H -0.358 1.57376 2.7183 0
M  V30 14 H -1.165 3.90944 3.18086 0
M  V30 15 H -1.563 3.418 1.51819 0
M  V30 16 H 0.729 5.58782 3.83104 0
M  V30 17 H 1.672 6.56266 2.65933 0
M  V30 18 H 2.08 4.83886 2.90714 0
M  V30 19 N 1.4781 -0.272755 1.55222 0
M  V30 20 C 2.7271 -1.00211 1.75045 0
M  V30 21 C 3.0401 -1.87441 0.559046 0
M  V30 22 O 4.2461 -2.63856 0.639698 0
M  V30 23 C 2.7021 -1.83165 3.09804 0
M  V30 24 C 2.3101 -1.008 4.36513 0
M  V30 25 C 4.0541 -2.55529 3.38977 0
M  V30 26 C 1.9611 -1.83194 5.62311 0
M  V30 27 H 0.8911 -0.377878 0.652476 0
M  V30 28 H 3.5421 -0.257776 1.8168 0
M  V30 29 H 1.9241 -2.61694 2.97207 0
M  V30 30 H 3.0981 -0.266855 4.60027 0
M  V30 31 H 1.4131 -0.398897 4.14485 0
M  V30 32 H 4.0101 -3.17578 4.30172 0
M  V30 33 H 4.3531 -3.25825 2.59121 0
M  V30 34 H 4.8861 -1.84029 3.52673 0
M  V30 35 H 1.6251 -1.17318 6.44916 0
M  V30 36 H 1.1451 -2.54905 5.4294 0
M  V30 37 H 2.8241 -2.40552 6.00619 0
M  V30 38 N 2.9562 -1.48159 -0.537278 0
M  V30 39 C 3.8862 -1.65029 -1.6519 0
M  V30 40 C 4.8672 -0.499281 -1.62607 0
M  V30 41 O 6.0522 -0.730972 -1.79918 0
M  V30 42 C 3.1822 -1.68303 -3.03795 0
M  V30 43 C 2.1362 -2.8283 -3.21234 0
M  V30 44 C 1.4622 -2.71189 -4.60826 0
M  V30 45 C 2.7622 -4.24211 -3.04701 0
M  V30 46 H 4.4562 -2.58341 -1.51328 0
M  V30 47 H 2.0022 -1.24325 -0.726585 0
M  V30 48 H 3.9552 -1.78693 -3.81637 0
M  V30 49 H 2.6792 -0.715635 -3.18663 0
M  V30 50 H 1.3382 -2.71983 -2.45807 0
M  V30 51 H 0.9862 -1.72435 -4.7252 0
M  V30 52 H 0.6862 -3.48035 -4.7344 0
M  V30 53 H 2.2102 -2.83537 -5.40777 0
M  V30 54 H 3.6242 -4.3593 -3.72341 0
M  V30 55 H 2.0212 -5.01998 -3.28813 0
M  V30 56 H 3.0912 -4.41184 -2.01209 0
M  V30 57 N 4.4343 0.785586 -1.36625 0
M  V30 58 C 5.6813 1.54362 -1.31067 0
M  V30 59 C 6.0093 1.94195 0.10893 0
M  V30 60 O 5.2643 1.63262 1.07908 0
M  V30 61 C 5.5633 2.83007 -2.1827 0
M  V30 62 C 5.2293 2.62294 -3.6676 0
M  V30 63 C 3.8913 2.56353 -4.0723 0
M  V30 64 C 6.2433 2.43371 -4.6089 0
M  V30 65 C 3.5713 2.29461 -5.39967 0
M  V30 66 C 5.9233 2.18005 -5.93849 0
M  V30 67 C 4.5873 2.105 -6.3344 0
M  V30 68 H 3.8573 0.564851 -0.479609 0
M  V30 69 H 6.5043 0.906028 -1.68711 0
M  V30 70 H 4.8093 3.51253 -1.73576 0
M  V30 71 H 6.5063 3.40817 -2.11292 0
M  V30 72 H 3.0963 2.67774 -3.34656 0
M  V30 73 H 7.2803 2.46959 -4.30494 0
M  V30 74 H 2.5363 2.22135 -5.69619 0
M  V30 75 H 6.7103 2.02359 -6.66351 0
M  V30 76 H 4.3373 1.89425 -7.36222 0
M  V30 77 N 5.9124 1.20967 1.01018 0
M  V30 78 C 6.8594 0.964281 2.09691 0
M  V30 79 C 7.8294 -0.107853 1.65749 0
M  V30 80 O 9.0144 0.0381987 1.90762 0
M  V30 81 C 6.1544 0.52943 3.41015 0
M  V30 82 C 5.2674 1.67043 3.98398 0
M  V30 83 C 4.4024 1.18525 5.17808 0
M  V30 84 C 3.4414 2.29892 5.67288 0
M  V30 85 N 2.5784 1.82546 6.77954 0
M  V30 86 H 7.4184 1.89463 2.30017 0
M  V30 87 H 4.9554 0.944289 1.1279 0
M  V30 88 H 6.9134 0.258588 4.16398 0
M  V30 89 H 5.5434 -0.363919 3.20742 0
M  V30 90 H 4.5954 2.05603 3.20049 0
M  V30 91 H 5.9074 2.50877 4.31117 0
M  V30 92 H 5.0614 0.870762 6.00419 0
M  V30 93 H 3.8004 0.316887 4.86669 0
M  V30 94 H 2.8054 2.6215 4.83278 0
M  V30 95 H 4.0304 3.17216 6.00459 0
M  V30 96 H 1.9764 0.980454 6.48632 0
M  V30 97 H 1.8934 2.59956 7.09901 0
M  V30 98 H 3.1614 1.54115 7.64113 0
M  V30 99 N 7.3905 -1.2043 1.01659 0
M  V30 100 C 8.3225 -2.22626 0.544988 0
M  V30 101 C 9.3355 -1.58479 -0.372609 0
M  V30 102 O 10.5245 -1.77679 -0.170958 0
M  V30 103 C 7.6245 -3.38141 -0.22663 0
M  V30 104 C 6.7975 -4.31877 0.692876 0
M  V30 105 C 5.8565 -5.26191 -0.0311616 0
M  V30 106 O 4.8825 -5.6612 0.591343 0
M  V30 107 N 6.0845 -5.65618 -1.30601 0
M  V30 108 H 8.8495 -2.63716 1.42388 0
M  V30 109 H 6.4105 -1.34971 0.894116 0
M  V30 110 H 8.4025 -3.98239 -0.72024 0
M  V30 111 H 6.9725 -2.95943 -1.00681 0
M  V30 112 H 6.1925 -3.69746 1.36679 0
M  V30 113 H 7.4805 -4.91426 1.31824 0
M  V30 114 H 6.8785 -5.3519 -1.83269 0
M  V30 115 H 5.4355 -6.28025 -1.74435 0
M  V30 116 N 8.8686 -0.792821 -1.36206 0
M  V30 117 C 9.8316 -0.199459 -2.2833 0
M  V30 118 C 10.8316 0.605189 -1.48977 0
M  V30 119 O 12.0216 0.425685 -1.68919 0
M  V30 120 C 9.1536 0.723523 -3.33134 0
M  V30 121 H 10.3466 -1.01181 -2.82316 0
M  V30 122 H 7.8996 -0.562485 -1.45828 0
M  V30 123 H 8.6346 1.56008 -2.84309 0
M  V30 124 H 8.4196 0.148436 -3.91819 0
M  V30 125 H 9.9096 1.13344 -4.01924 0
M  V30 126 N 10.3467 1.47872 -0.545128 0
M  V30 127 C 11.5747 2.06889 -0.021084 0
M  V30 128 C 11.9897 1.39955 1.2672 0
M  V30 129 O 11.3467 0.492036 1.75742 0
M  V30 130 C 11.3977 3.60996 0.190817 0
M  V30 131 O 11.1187 4.25419 -1.04644 0
M  V30 132 C 12.6197 4.36849 0.753521 0
M  V30 133 H 9.8397 0.669785 -0.0403635 0
M  V30 134 H 12.3837 1.90049 -0.755095 0
M  V30 135 H 10.5387 3.77391 0.87492 0
M  V30 136 H 10.9527 5.17785 -0.836611 0
M  V30 137 H 12.4267 5.45399 0.851139 0
M  V30 138 H 12.9037 4.02306 1.762 0
M  V30 139 H 13.5097 4.25169 0.105503 0
M  V30 140 N 11.8248 0.280983 1.55075 0
M  V30 141 C 13.0548 -0.336804 2.03836 0
M  V30 142 C 13.4628 -1.49577 1.15859 0
M  V30 143 O 12.8058 -1.82888 0.172503 0
M  V30 144 C 12.8678 -0.874616 3.48699 0
M  V30 145 C 12.5318 0.156478 4.56732 0
M  V30 146 C 13.5288 0.978032 5.10618 0
M  V30 147 C 11.2138 0.292409 5.01448 0
M  V30 148 C 13.2078 1.92165 6.07743 0
M  V30 149 C 10.8948 1.23949 5.98398 0
M  V30 150 C 11.8928 2.05261 6.51427 0
M  V30 151 O 11.5808 2.98367 7.4648 0
M  V30 152 H 11.3128 -0.0800885 0.671239 0
M  V30 153 H 13.8668 0.412589 2.01213 0
M  V30 154 H 12.0968 -1.67418 3.4858 0
M  V30 155 H 13.7858 -1.40612 3.80766 0
M  V30 156 H 14.5518 0.883782 4.7688 0
M  V30 157 H 10.4308 -0.330498 4.59814 0
M  V30 158 H 13.9748 2.55672 6.49059 0
M  V30 159 H 9.8718 1.33454 6.31554 0
M  V30 160 H 10.6398 2.93116 7.64215 0
M  V30 161 N 13.3029 -1.57598 0.00835791 0
M  V30 162 C 14.5499 -1.90928 -0.674732 0
M  V30 163 C 14.8779 -0.88277 -1.73313 0
M  V30 164 O 14.1329 0.111294 -1.95383 0
M  V30 165 C 14.4319 -3.3101 -1.34787 0
M  V30 166 C 14.0979 -4.48922 -0.421861 0
M  V30 167 C 12.7599 -4.8091 -0.166927 0
M  V30 168 C 15.1119 -5.20755 0.215211 0
M  V30 169 C 12.4399 -5.821 0.733232 0
M  V30 170 C 14.7919 -6.22905 1.1033 0
M  V30 171 C 13.4559 -6.53346 1.36733 0
M  V30 172 H 12.7259 -0.698656 -0.246902 0
M  V30 173 H 15.3729 -1.91387 0.0656779 0
M  V30 174 H 13.6779 -3.26714 -2.16253 0
M  V30 175 H 15.3749 -3.54061 -1.8826 0
M  V30 176 H 11.9649 -4.23934 -0.630729 0
M  V30 177 H 16.1489 -4.9629 0.0312829 0
M  V30 178 H 11.4049 -6.04042 0.945712 0
M  V30 179 H 15.5789 -6.77694 1.60325 0
M  V30 180 H 13.2059 -7.31573 2.06652 0
M  V30 181 N 14.781 0.264519 -1.55364 0
M  V30 182 C 16.03 0.992812 -1.75574 0
M  V30 183 C 16.343 1.87142 -0.568979 0
M  V30 184 O 17.549 2.63513 -0.653682 0
M  V30 185 C 16.005 1.81519 -3.10771 0
M  V30 186 C 15.613 0.984839 -4.37041 0
M  V30 187 C 17.357 2.53727 -3.40327 0
M  V30 188 C 15.264 1.80209 -5.63275 0
M  V30 189 H 14.194 0.374412 -0.65447 0
M  V30 190 H 16.845 0.248138 -1.81815 0
M  V30 191 H 15.227 2.60115 -2.98591 0
M  V30 192 H 16.401 0.242455 -4.60162 0
M  V30 193 H 14.716 0.37691 -4.14691 0
M  V30 194 H 17.313 3.15292 -4.3185 0
M  V30 195 H 17.656 3.24447 -2.60845 0
M  V30 196 H 18.189 1.82156 -3.53644 0
M  V30 197 H 14.928 1.13896 -6.45529 0
M  V30 198 H 14.448 2.52022 -5.44284 0
M  V30 199 H 16.127 2.37364 -6.01887 0
M  V30 200 N 16.2591 1.48442 0.529413 0
M  V30 201 C 17.4841 1.60406 1.31471 0
M  V30 202 C 17.9091 0.264738 1.86228 0
M  V30 203 O 17.2671 -0.763668 1.64432 0
M  V30 204 C 17.3151 2.65419 2.44101 0
M  V30 205 O 16.4191 2.22618 3.47153 0
M  V30 206 H 15.7601 0.537863 0.389357 0
M  V30 207 H 18.2901 1.94432 0.636965 0
M  V30 208 H 18.3001 2.86709 2.90279 0
M  V30 209 H 16.9751 3.62652 2.03608 0
M  V30 210 H 15.5521 2.11543 3.0709 0
M  V30 211 N 17.7372 -0.778329 1.37039 0
M  V30 212 C 18.6672 -1.90546 1.34962 0
M  V30 213 C 19.6482 -1.68681 0.219274 0
M  V30 214 O 20.8332 -1.89634 0.418624 0
M  V30 215 C 17.9632 -3.27734 1.14925 0
M  V30 216 C 16.9172 -3.64147 2.24902 0
M  V30 217 C 16.2432 -4.99806 1.89996 0
M  V30 218 C 17.5432 -3.71579 3.67051 0
M  V30 219 H 19.2372 -1.92541 2.29277 0
M  V30 220 H 16.7832 -0.924948 1.10366 0
M  V30 221 H 18.7362 -4.06215 1.12104 0
M  V30 222 H 17.4602 -3.26154 0.170631 0
M  V30 223 H 16.1192 -2.8797 2.26868 0
M  V30 224 H 15.7672 -4.94759 0.906796 0
M  V30 225 H 15.4672 -5.25139 2.63634 0
M  V30 226 H 16.9912 -5.80694 1.88749 0
M  V30 227 H 18.4052 -4.40227 3.67251 0
M  V30 228 H 16.8022 -4.08405 4.39688 0
M  V30 229 H 17.8722 -2.72404 4.01154 0
M  V30 230 N 19.2153 -1.21501 -1.00376 0
M  V30 231 C 20.4623 -1.03299 -1.74171 0
M  V30 232 C 20.7903 0.433326 -1.89612 0
M  V30 233 O 20.0453 1.33779 -1.42834 0
M  V30 234 C 20.3443 -1.67673 -3.15627 0
M  V30 235 C 20.0103 -3.17533 -3.2013 0
M  V30 236 C 18.6723 -3.58427 -3.21067 0
M  V30 237 C 21.0243 -4.13504 -3.17275 0
M  V30 238 C 18.3523 -4.93794 -3.16835 0
M  V30 239 C 20.7043 -5.48834 -3.14585 0
M  V30 240 C 19.3683 -5.89123 -3.13831 0
M  V30 241 H 18.6383 -0.377999 -0.637336 0
M  V30 242 H 21.2853 -1.51111 -1.17634 0
M  V30 243 H 19.5903 -1.12158 -3.75404 0
M  V30 244 H 21.2873 -1.51091 -3.71446 0
M  V30 245 H 17.8773 -2.84965 -3.20145 0
M  V30 246 H 22.0613 -3.82936 -3.15711 0
M  V30 247 H 17.3173 -5.24255 -3.1459 0
M  V30 248 H 21.4913 -6.22934 -3.1133 0
M  V30 249 H 19.1183 -6.93984 -3.10307 0
M  V30 250 N 20.6934 1.19889 -1.02296 0
M  V30 251 C 21.6564 2.21116 -0.603351 0
M  V30 252 C 22.6564 1.5738 0.329884 0
M  V30 253 O 23.8464 1.73802 0.117702 0
M  V30 254 C 20.9784 3.40696 0.117992 0
M  V30 255 H 22.1714 2.59754 -1.49893 0
M  V30 256 H 19.7244 1.33463 -0.813468 0
M  V30 257 H 20.4594 3.07569 1.0282 0
M  V30 258 H 20.2444 3.88188 -0.552511 0
M  V30 259 H 21.7344 4.15692 0.398696 0
M  V30 260 N 22.1715 0.800033 1.35784 0
M  V30 261 C 23.3995 0.389606 2.03199 0
M  V30 262 C 23.8145 -0.997375 1.60306 0
M  V30 263 O 23.1715 -1.64154 0.797481 0
M  V30 264 C 23.2225 0.455855 3.58614 0
M  V30 265 O 22.9435 1.78815 3.99946 0
M  V30 266 C 24.4445 0.0374032 4.43284 0
M  V30 267 H 21.6645 0.159132 0.651857 0
M  V30 268 H 24.2085 1.08183 1.73541 0
M  V30 269 H 22.3635 -0.188057 3.86943 0
M  V30 270 H 22.7775 1.74636 4.94573 0
M  V30 271 H 24.2515 0.134882 5.51835 0
M  V30 272 H 24.7285 -1.01651 4.27275 0
M  V30 273 H 25.3345 0.654215 4.20238 0
M  V30 274 N 23.6496 -1.47581 0.552962 0
M  V30 275 C 24.8956 -2.02782 0.0273648 0
M  V30 276 C 25.2286 -1.42687 -1.31734 0
M  V30 277 O 24.5036 -0.580897 -1.85623 0
M  V30 278 C 24.7866 -3.60031 -0.0702371 0
M  V30 279 C 24.6396 -4.30566 1.30126 0
M  V30 280 C 25.9586 -4.33028 -0.785771 0
M  V30 281 H 23.0776 -0.736912 0.0114185 0
M  V30 282 H 25.7196 -1.76056 0.714432 0
M  V30 283 H 23.8696 -3.82932 -0.655382 0
M  V30 284 H 25.5416 -4.19018 1.92929 0
M  V30 285 H 23.7846 -3.91086 1.87709 0
M  V30 286 H 24.4556 -5.39114 1.18573 0
M  V30 287 H 26.9316 -4.15095 -0.288982 0
M  V30 288 H 25.8076 -5.42695 -0.823013 0
M  V30 289 H 26.0686 -4.01945 -1.841 0
M  V30 290 N 25.1277 -0.289203 -1.54924 0
M  V30 291 C 26.3527 0.329299 -2.04769 0
M  V30 292 C 26.7777 1.4763 -1.16564 0
M  V30 293 O 26.1357 1.80527 -0.167186 0
M  V30 294 C 26.1837 0.774438 -3.52186 0
M  V30 295 O 25.2877 1.88038 -3.67036 0
M  V30 296 H 24.6287 0.0659259 -0.660719 0
M  V30 297 H 27.1587 -0.42761 -2.00082 0
M  V30 298 H 27.1687 1.06642 -3.93816 0
M  V30 299 H 25.8437 -0.0646707 -4.1585 0
M  V30 300 H 24.4207 1.58985 -3.3731 0
M  V30 301 N 26.6058 1.57591 -0.0167156 0
M  V30 302 C 27.8458 1.93145 0.668902 0
M  V30 303 C 28.2098 0.892406 1.7 0
M  V30 304 O 29.4108 1.13373 2.43721 0
M  V30 305 C 27.6818 3.33678 1.28039 0
M  V30 306 S 29.2408 3.91142 1.9888 0
M  V30 307 H 26.0588 0.67593 0.220545 0
M  V30 308 H 28.6608 1.95347 -0.0774105 0
M  V30 309 H 27.3648 4.07126 0.517339 0
M  V30 310 H 26.8958 3.3489 2.06427 0
M  V30 311 H 28.9108 3.73571 3.26587 0
M  V30 312 N 28.0839 -0.256276 1.55502 0
M  V30 313 C 29.3319 -0.983672 1.76545 0
M  V30 314 C 29.6529 -1.86206 0.578982 0
M  V30 315 O 28.9229 -1.91656 -0.405577 0
M  V30 316 H 27.5029 -0.366191 0.651086 0
M  V30 317 H 30.1649 -0.276479 1.92929 0
M  V30 318 H 29.2609 -1.61087 2.67315 0
M  V30 319 N 29.562 -1.4872 -0.521534 0
M  V30 320 C 30.802 -1.58771 -1.28729 0
M  V30 321 C 31.166 -0.259394 -1.9024 0
M  V30 322 O 32.367 -0.234942 -2.67771 0
M  V30 323 C 30.638 -2.70039 -2.34124 0
M  V30 324 S 32.197 -2.9991 -3.20312 0
M  V30 325 H 29.015 -0.560251 -0.437767 0
M  V30 326 H 31.617 -1.86283 -0.593188 0
M  V30 327 H 30.321 -3.65101 -1.87429 0
M  V30 328 H 29.852 -2.44455 -3.08229 0
M  V30 329 H 31.867 -2.39855 -4.34378 0
M  V30 330 N 31.0401 0.771051 -1.3745 0
M  V30 331 C 31.9701 1.89827 -1.3597 0
M  V30 332 C 32.9511 1.68562 -0.228216 0
M  V30 333 O 34.1361 1.8941 -0.428675 0
M  V30 334 C 31.2661 3.2712 -1.16662 0
M  V30 335 C 30.2201 3.6295 -2.2683 0
M  V30 336 C 29.5461 4.98791 -1.92644 0
M  V30 337 C 30.8461 3.69627 -3.69017 0
M  V30 338 H 32.5401 1.91323 -2.30295 0
M  V30 339 H 30.0861 0.919082 -1.10855 0
M  V30 340 H 32.0391 4.05615 -1.14256 0
M  V30 341 H 30.7631 3.26059 -0.187926 0
M  V30 342 H 29.4221 2.86763 -2.28392 0
M  V30 343 H 29.0701 4.94271 -0.933021 0
M  V30 344 H 28.7701 5.23733 -2.66416 0
M  V30 345 H 30.2941 5.79685 -1.91826 0
M  V30 346 H 31.7081 4.38273 -3.69581 0
M  V30 347 H 30.1051 4.06067 -4.41848 0
M  V30 348 H 31.1751 2.70273 -4.02592 0
M  V30 349 N 32.5182 1.22032 0.997298 0
M  V30 350 C 33.7462 1.06841 1.7718 0
M  V30 351 C 34.1612 -0.381325 1.84909 0
M  V30 352 O 33.5182 -1.26437 1.31605 0
M  V30 353 C 33.5692 1.66814 3.20711 0
M  V30 354 O 33.2902 3.06116 3.13408 0
M  V30 355 C 34.7912 1.56838 4.14628 0
M  V30 356 H 32.0112 0.374782 0.556578 0
M  V30 357 H 34.5552 1.61532 1.2541 0
M  V30 358 H 32.7102 1.16196 3.69564 0
M  V30 359 H 33.1242 3.34926 4.0364 0
M  V30 360 H 34.5982 2.03532 5.13107 0
M  V30 361 H 35.0752 0.524155 4.36061 0
M  V30 362 H 35.6812 2.06741 3.7167 0
M  V30 363 N 33.9963 -1.19345 1.0293 0
M  V30 364 C 34.9283 -2.22036 0.56857 0
M  V30 365 C 35.9413 -1.58865 -0.355779 0
M  V30 366 O 37.1303 -1.77851 -0.152103 0
M  V30 367 C 34.2303 -3.38363 -0.190752 0
M  V30 368 C 33.4033 -4.31118 0.738643 0
M  V30 369 C 32.4623 -5.26194 0.0246497 0
M  V30 370 O 31.4883 -5.65461 0.651354 0
M  V30 371 N 32.6903 -5.66971 -1.24594 0
M  V30 372 H 35.4553 -2.6219 1.45177 0
M  V30 373 H 33.0163 -1.34015 0.908381 0
M  V30 374 H 35.0083 -3.98981 -0.677961 0
M  V30 375 H 33.5783 -2.96994 -0.975366 0
M  V30 376 H 32.7983 -3.68276 1.40593 0
M  V30 377 H 34.0863 -4.90001 1.37029 0
M  V30 378 H 33.4843 -5.37104 -1.77583 0
M  V30 379 H 32.0413 -6.2984 -1.67764 0
M  V30 380 N 35.4744 -0.807222 -1.35358 0
M  V30 381 C 36.4044 -0.232509 -2.3234 0
M  V30 382 C 37.3854 0.642386 -1.57504 0
M  V30 383 O 38.5704 0.572526 -1.85569 0
M  V30 384 C 35.7004 0.619238 -3.41735 0
M  V30 385 C 34.6544 -0.157215 -4.27711 0
M  V30 386 C 33.9804 0.816273 -5.28433 0
M  V30 387 C 35.2804 -1.35656 -5.04376 0
M  V30 388 H 36.9744 -1.04276 -2.80654 0
M  V30 389 H 34.5204 -0.50288 -1.34934 0
M  V30 390 H 36.4734 1.03137 -4.08584 0
M  V30 391 H 35.1974 1.46239 -2.92031 0
M  V30 392 H 33.8564 -0.550525 -3.62443 0
M  V30 393 H 33.5044 1.65494 -4.74996 0
M  V30 394 H 33.2044 0.301067 -5.86828 0
M  V30 395 H 34.7284 1.22659 -5.98153 0
M  V30 396 H 36.1424 -1.01927 -5.64166 0
M  V30 397 H 34.5394 -1.8063 -5.7227 0
M  V30 398 H 35.6094 -2.14288 -4.34981 0
M  V30 399 N 36.9525 1.47285 -0.560781 0
M  V30 400 C 38.1825 2.06555 -0.0429638 0
M  V30 401 C 38.5905 1.41339 1.25777 0
M  V30 402 O 37.9335 0.505182 1.76617 0
M  V30 403 C 37.9955 3.58827 0.219887 0
M  V30 404 C 37.6595 4.46105 -0.991944 0
M  V30 405 C 38.6565 4.84 -1.89843 0
M  V30 406 C 36.3415 4.87567 -1.20762 0
M  V30 407 C 38.3355 5.6216 -3.00425 0
M  V30 408 C 36.0225 5.65491 -2.31653 0
M  V30 409 C 37.0205 6.02699 -3.21315 0
M  V30 410 O 36.7085 6.79052 -4.30283 0
M  V30 411 H 36.4405 0.674537 -0.0444468 0
M  V30 412 H 38.9945 1.90225 -0.774818 0
M  V30 413 H 37.2245 3.73383 1.00609 0
M  V30 414 H 38.9135 4.00103 0.683522 0
M  V30 415 H 39.6795 4.52564 -1.74387 0
M  V30 416 H 35.5585 4.5807 -0.518893 0
M  V30 417 H 39.1025 5.9112 -3.70436 0
M  V30 418 H 34.9995 5.9634 -2.47081 0
M  V30 419 H 35.7675 6.9745 -4.28376 0
M  V30 420 N 38.4306 0.297415 1.54768 0
M  V30 421 C 39.3406 -0.58983 2.27064 0
M  V30 422 C 40.3566 -1.15144 1.30453 0
M  V30 423 O 41.5326 -1.17699 1.63428 0
M  V30 424 C 38.5976 -1.74714 2.9946 0
M  V30 425 C 37.6586 -1.21997 4.11601 0
M  V30 426 C 36.8916 -2.32212 4.80535 0
M  V30 427 O 37.1146 -3.52036 4.48806 0
M  V30 428 O 36.0486 -1.99106 5.68014 0
M  V30 429 H 39.8746 -0.00348199 3.037 0
M  V30 430 H 37.4596 0.0640035 1.49263 0
M  V30 431 H 39.3416 -2.42147 3.44881 0
M  V30 432 H 38.0166 -2.32016 2.25722 0
M  V30 433 H 36.9236 -0.511458 3.70587 0
M  V30 434 H 38.2566 -0.692419 4.87305 0
M  V30 435 N 39.9087 -1.5758 0.0250728 0
M  V30 436 C 40.8567 -2.11125 -0.97617 0
M  V30 437 C 41.8507 -1.03689 -1.33959 0
M  V30 438 O 43.0567 -1.22128 -1.3223 0
M  V30 439 H 39.4317 -0.674468 -0.332561 0
M  V30 440 H 41.4027 -2.94194 -0.499223 0
M  V30 441 C 40.1517 -2.65017 -2.2508 0
M  V30 442 H 39.4747 -3.47333 -1.9799 0
M  V30 443 H 40.9147 -3.06133 -2.93357 0
M  V30 444 C 39.3737 -1.57574 -2.97779 0
M  V30 445 O 39.9037 -0.973203 -3.89733 0
M  V30 446 N 38.1097 -1.29716 -2.60043 0
M  V30 447 H 37.6567 -1.789 -1.85345 0
M  V30 448 H 37.6147 -0.58051 -3.08994 0
M  V30 449 N 41.3868 0.248026 -1.55636 0
M  V30 450 C 42.3498 1.29044 -1.89421 0
M  V30 451 C 43.3498 1.41134 -0.770581 0
M  V30 452 O 44.5398 1.39854 -1.03858 0
M  V30 453 C 41.6718 2.66831 -2.12165 0
M  V30 454 H 42.8648 1.00305 -2.82629 0
M  V30 455 H 40.4178 0.487265 -1.48511 0
M  V30 456 H 41.1528 3.00711 -1.21422 0
M  V30 457 H 40.9378 2.59438 -2.93997 0
M  V30 458 H 42.4278 3.42103 -2.3949 0
M  V30 459 N 42.8649 1.48995 0.513639 0
M  V30 460 C 44.1119 1.57843 1.26854 0
M  V30 461 C 44.4399 0.259501 1.92761 0
M  V30 462 O 43.6949 -0.75159 1.80692 0
M  V30 463 C 43.9939 2.67756 2.36731 0
M  V30 464 C 43.6599 4.09669 1.88368 0
M  V30 465 C 42.3219 4.48291 1.74896 0
M  V30 466 C 44.6739 4.98537 1.52021 0
M  V30 467 C 42.0019 5.73568 1.23438 0
M  V30 468 C 44.3539 6.24319 1.0202 0
M  V30 469 C 43.0179 6.61783 0.871778 0
M  V30 470 H 42.2879 0.577587 0.464192 0
M  V30 471 H 44.9349 1.82778 0.571366 0
M  V30 472 H 43.2399 2.36743 3.12185 0
M  V30 473 H 44.9369 2.71813 2.9482 0
M  V30 474 H 41.5269 3.79176 1.99808 0
M  V30 475 H 45.7109 4.69363 1.61281 0
M  V30 476 H 40.9669 6.01304 1.10648 0
M  V30 477 H 45.1409 6.92566 0.729722 0
M  V30 478 H 42.7679 7.5874 0.470852 0
M  V30 479 N 44.343 -0.763751 1.37857 0
M  V30 480 C 45.59 -1.52257 1.33506 0
M  V30 481 C 45.918 -1.94343 -0.078022 0
M  V30 482 O 45.173 -1.64958 -1.05297 0
M  V30 483 C 45.472 -2.79499 2.22745 0
M  V30 484 C 45.138 -2.56426 3.70886 0
M  V30 485 C 43.8 -2.49842 4.11257 0
M  V30 486 C 46.152 -2.36008 4.64704 0
M  V30 487 C 43.48 -2.20841 5.43549 0
M  V30 488 C 45.832 -2.0853 5.97242 0
M  V30 489 C 44.496 -2.00396 6.36709 0
M  V30 490 H 43.766 -0.557149 0.488534 0
M  V30 491 H 46.413 -0.879073 1.70131 0
M  V30 492 H 44.718 -3.48447 1.79142 0
M  V30 493 H 46.415 -3.37413 2.16688 0
M  V30 494 H 43.005 -2.62416 3.38874 0
M  V30 495 H 47.189 -2.40079 4.34368 0
M  V30 496 H 42.445 -2.13045 5.73081 0
M  V30 497 H 46.619 -1.91732 6.69486 0
M  V30 498 H 44.246 -1.77688 7.39142 0
M  V30 499 N 45.8211 -1.22559 -0.990812 0
M  V30 500 C 47.2371 -0.985996 -1.255 0
M  V30 501 C 47.4371 0.319173 -1.98956 0
M  V30 502 O 46.4931 1.04127 -2.3003 0
M  V30 503 C 47.8061 -2.18607 -2.06474 0
M  V30 504 C 49.3541 -2.22985 -2.19651 0
M  V30 505 C 49.8291 -3.4255 -3.04012 0
M  V30 506 N 51.3201 -3.42725 -3.11599 0
M  V30 507 C 52.0551 -4.31892 -3.7717 0
M  V30 508 N 51.5511 -5.31279 -4.44651 0
M  V30 509 N 53.3441 -4.19662 -3.73952 0
M  V30 510 H 45.4951 -2.06469 -0.49841 0
M  V30 511 H 47.7581 -0.904853 -0.282747 0
M  V30 512 H 47.4641 -3.13267 -1.59865 0
M  V30 513 H 47.3381 -2.18838 -3.07229 0
M  V30 514 H 49.7251 -1.28871 -2.65474 0
M  V30 515 H 49.8061 -2.26791 -1.18319 0
M  V30 516 H 49.4501 -4.36965 -2.58889 0
M  V30 517 H 49.3801 -3.35984 -4.0549 0
M  V30 518 H 51.8711 -2.70807 -2.63575 0
M  V30 519 H 52.1841 -5.95593 -4.92431 0
M  V30 520 H 50.5291 -5.3519 -4.43392 0
M  V30 521 H 53.7201 -3.41268 -3.20396 0
M  V30 522 H 53.8931 -4.89358 -4.24774 0
M  V30 523 N 47.2992 1.18797 -1.03562 0
M  V30 524 C 48.5472 1.88278 -0.734569 0
M  V30 525 C 48.8682 1.8043 0.739586 0
M  V30 526 O 48.1382 1.21925 1.53333 0
M  V30 527 H 46.7182 0.696991 -0.268725 0
M  V30 528 H 49.3802 1.44192 -1.31129 0
M  V30 529 H 48.4762 2.94443 -1.03489 0
M  V30 530 N 48.7773 0.814389 1.34928 0
M  V30 531 C 50.0253 0.397636 1.9815 0
M  V30 532 C 50.3463 -1.04069 1.64908 0
M  V30 533 O 49.6163 -1.72121 0.93548 0
M  V30 534 H 48.1963 0.144043 0.732981 0
M  V30 535 H 50.8583 1.04195 1.6471 0
M  V30 536 H 49.9543 0.509688 3.0791 0
M  V30 537 N 50.2554 -1.46986 0.568584 0
M  V30 538 C 51.5324 -1.95592 -0.0174074 0
M  V30 539 C 51.9124 -1.51124 -1.47393 0
M  V30 540 O 51.2604 -0.755329 -2.15655 0
M  V30 541 C 51.4704 -3.48719 0.139913 0
M  V30 542 C 52.8184 -4.246 0.000426376 0
M  V30 543 O 53.8424 -3.56135 0.0680316 0
M  V30 544 O 52.7014 -5.46302 -0.146988 0
M  V30 545 H 49.7954 -0.82498 -0.0577599 0
M  V30 546 H 52.3414 -1.57335 0.635909 0
M  V30 547 H 51.1134 -3.73927 1.15301 0
M  V30 548 H 50.7364 -3.93771 -0.550491 0
M  V30 549 N 51.7335 -0.305618 -1.54608 0
M  V30 550 C 52.9795 0.302746 -2.00528 0
M  V30 551 C 53.3125 1.53184 -1.19367 0
M  V30 552 O 52.5875 1.92598 -0.271321 0
M  V30 553 C 52.8705 0.654756 -3.54097 0
M  V30 554 C 52.7235 -0.583793 -4.45995 0
M  V30 555 C 54.0425 1.47947 -4.14487 0
M  V30 556 H 51.1615 0.108564 -0.72896 0
M  V30 557 H 53.8035 -0.418634 -1.85331 0
M  V30 558 H 51.9535 1.26935 -3.67178 0
M  V30 559 H 53.6255 -1.22224 -4.44814 0
M  V30 560 H 51.8685 -1.21615 -4.16404 0
M  V30 561 H 52.5395 -0.293287 -5.5122 0
M  V30 562 H 55.0155 0.96013 -4.04871 0
M  V30 563 H 53.8915 1.69454 -5.22088 0
M  V30 564 H 54.1525 2.47011 -3.66658 0
M  V30 565 N 53.2116 1.57565 -0.0334293 0
M  V30 566 C 54.1746 2.09393 0.932048 0
M  V30 567 C 55.1746 1.00986 1.25134 0
M  V30 568 O 56.3646 1.27129 1.19096 0
M  V30 569 C 53.4966 2.56338 2.2473 0
M  V30 570 H 54.6896 2.95984 0.483085 0
M  V30 571 H 52.2426 1.54819 0.21468 0
M  V30 572 H 52.9776 1.7309 2.74245 0
M  V30 573 H 52.7626 3.35542 2.02865 0
M  V30 574 H 54.2526 2.96646 2.93923 0
M  V30 575 N 54.6897 -0.239769 1.55765 0
M  V30 576 C 55.9147 -0.988373 1.82335 0
M  V30 577 C 56.3397 -1.77886 0.611421 0
M  V30 578 O 55.6977 -1.75889 -0.439639 0
M  V30 579 C 55.7457 -1.89627 3.06715 0
M  V30 580 O 54.8497 -2.98904 2.84131 0
M  V30 581 H 54.1907 -0.280858 0.601677 0
M  V30 582 H 56.7207 -0.258597 2.02959 0
M  V30 583 H 56.7307 -2.30957 3.36338 0
M  V30 584 H 55.4057 -1.31511 3.9456 0
M  V30 585 H 53.9827 -2.61651 2.65694 0
M  V30 586 N 56.1678 -1.49265 -0.50573 0
M  V30 587 C 57.1008 -1.60183 -1.62532 0
M  V30 588 C 58.0788 -0.451107 -1.56217 0
M  V30 589 O 59.2628 -0.666016 -1.76342 0
M  V30 590 C 56.3898 -1.55238 -3.01029 0
M  V30 591 C 55.4358 -2.7545 -3.25621 0
M  V30 592 S 56.2688 -4.37174 -3.09256 0
M  V30 593 C 57.4248 -4.34866 -4.50158 0
M  V30 594 H 57.6578 -2.54894 -1.53025 0
M  V30 595 H 55.1908 -1.38098 -0.690535 0
M  V30 596 H 57.1488 -1.53071 -3.80893 0
M  V30 597 H 55.8098 -0.618238 -3.07956 0
M  V30 598 H 55.0028 -2.68197 -4.26716 0
M  V30 599 H 54.6048 -2.75005 -2.53472 0
M  V30 600 H 56.8968 -4.06295 -5.42154 0
M  V30 601 H 57.8398 -5.36223 -4.62462 0
M  V30 602 H 58.2478 -3.65007 -4.30616 0
M  V30 603 N 57.6459 0.756429 -1.3826 0
M  V30 604 C 58.8759 1.54341 -1.3734 0
M  V30 605 C 59.2839 1.89159 0.0393917 0
M  V30 606 O 58.6269 1.5307 1.01565 0
M  V30 607 C 58.6889 2.87238 -2.16182 0
M  V30 608 C 58.3529 2.74973 -3.65019 0
M  V30 609 C 59.3499 2.44962 -4.58574 0
M  V30 610 C 57.0349 2.92515 -4.08338 0
M  V30 611 C 59.0289 2.32642 -5.93428 0
M  V30 612 C 56.7159 2.79815 -5.43274 0
M  V30 613 C 57.7139 2.49921 -6.35632 0
M  V30 614 O 57.4019 2.37275 -7.68086 0
M  V30 615 H 57.1339 0.484281 -0.471643 0
M  V30 616 H 59.6879 0.944152 -1.82414 0
M  V30 617 H 57.9179 3.49342 -1.65822 0
M  V30 618 H 59.6069 3.48731 -2.07705 0
M  V30 619 H 60.3729 2.31081 -4.26412 0
M  V30 620 H 56.2519 3.14781 -3.368 0
M  V30 621 H 59.7959 2.0923 -6.65484 0
M  V30 622 H 55.6929 2.93269 -5.75034 0
M  V30 623 H 56.4609 2.52509 -7.78577 0
M  V30 624 N 59.124 1.23083 0.984299 0
M  V30 625 C 60.352 1.08714 1.76037 0
M  V30 626 C 60.767 -0.361691 1.85303 0
M  V30 627 O 60.124 -1.25034 1.32939 0
M  V30 628 C 60.175 1.70206 3.18923 0
M  V30 629 O 59.896 3.09423 3.10144 0
M  V30 630 C 61.397 1.61227 4.12941 0
M  V30 631 H 58.617 0.380664 0.552572 0
M  V30 632 H 61.161 1.62853 1.23689 0
M  V30 633 H 59.316 1.20109 3.6831 0
M  V30 634 H 59.73 3.39188 4.00065 0
M  V30 635 H 61.204 2.08962 5.10919 0
M  V30 636 H 61.681 0.570375 4.35481 0
M  V30 637 H 62.287 2.10671 3.69456 0
M  V30 638 N 60.6021 -1.18246 1.0419 0
M  V30 639 C 62.0131 -1.69914 0.773698 0
M  V30 640 C 62.3641 -1.83085 -0.705297 0
M  V30 641 O 61.4891 -1.51123 -1.5489 0
M  V30 642 C 62.0841 -3.08619 1.39784 0
M  V30 643 C 60.6431 -3.57494 1.17792 0
M  V30 644 C 59.7901 -2.34013 1.48773 0
M  V30 645 H 62.7411 -1.02904 1.20816 0
M  V30 646 H 62.7621 -3.71958 0.801714 0
M  V30 647 H 62.2741 -2.99001 2.47426 0
M  V30 648 H 60.3751 -3.72406 0.120295 0
M  V30 649 H 60.4881 -4.40852 1.87581 0
M  V30 650 H 58.8521 -2.37986 0.907463 0
M  V30 651 H 59.6351 -2.27013 2.57527 0
M  V30 652 N 62.0802 -0.821533 -1.34494 0
M  V30 653 C 63.0282 -0.230702 -2.31453 0
M  V30 654 C 64.0222 0.627793 -1.57338 0
M  V30 655 O 65.2282 0.519288 -1.72347 0
M  V30 656 H 61.6032 -0.0558577 -0.749923 0
M  V30 657 H 63.5742 -1.06332 -2.78812 0
M  V30 658 C 62.3232 0.59391 -3.4259 0
M  V30 659 H 61.6462 -0.0573588 -3.99759 0
M  V30 660 H 63.0862 0.973446 -4.12674 0
M  V30 661 C 61.5452 1.76568 -2.86924 0
M  V30 662 O 62.0752 2.8638 -2.81691 0
M  V30 663 N 60.2812 1.58198 -2.43766 0
M  V30 664 H 59.8282 0.68872 -2.48222 0
M  V30 665 H 59.7862 2.36752 -2.06871 0
M  V30 666 N 63.5583 1.46682 -0.576371 0
M  V30 667 C 64.5213 2.28707 0.150239 0
M  V30 668 C 65.5213 1.38035 0.824794 0
M  V30 669 O 66.7113 1.60476 0.677719 0
M  V30 670 C 63.8433 3.18248 1.22192 0
M  V30 671 H 65.0363 2.94423 -0.570521 0
M  V30 672 H 62.5893 1.52688 -0.334078 0
M  V30 673 H 63.3243 2.57265 1.97447 0
M  V30 674 H 63.1093 3.85 0.742812 0
M  V30 675 H 64.5993 3.80001 1.73172 0
M  V30 676 N 65.0364 0.313813 1.54444 0
M  V30 677 C 65.9684 -0.590425 2.21465 0
M  V30 678 C 66.9814 -1.08753 1.21147 0
M  V30 679 O 68.1704 -1.00278 1.4767 0
M  V30 680 C 65.2704 -1.82179 2.85769 0
M  V30 681 C 64.4434 -1.46502 4.12136 0
M  V30 682 C 63.5024 -2.55288 4.60124 0
M  V30 683 O 62.5284 -2.19842 5.25032 0
M  V30 684 N 63.7304 -3.86053 4.33525 0
M  V30 685 H 66.4954 -0.0166033 2.99695 0
M  V30 686 H 64.0564 0.136578 1.61323 0
M  V30 687 H 66.0484 -2.54328 3.14801 0
M  V30 688 H 64.6184 -2.30369 2.11303 0
M  V30 689 H 63.8384 -0.575595 3.89975 0
M  V30 690 H 65.1264 -1.20221 4.94393 0
M  V30 691 H 64.5244 -4.17654 3.81552 0
M  V30 692 H 63.0814 -4.54461 4.67235 0
M  V30 693 N 66.5145 -1.57545 0.0417849 0
M  V30 694 C 67.7445 -1.96339 -0.642995 0
M  V30 695 C 68.1525 -0.917536 -1.65463 0
M  V30 696 O 67.4955 0.107747 -1.83384 0
M  V30 697 C 67.5575 -3.31333 -1.39494 0
M  V30 698 C 67.2215 -4.53796 -0.540204 0
M  V30 699 C 68.2185 -5.19553 0.189806 0
M  V30 700 C 65.9035 -5.0006 -0.473886 0
M  V30 701 C 67.8975 -6.29904 0.974674 0
M  V30 702 C 65.5845 -6.10289 0.314677 0
M  V30 703 C 66.5825 -6.75072 1.03765 0
M  V30 704 O 66.2705 -7.83183 1.81327 0
M  V30 705 H 66.0025 -0.651241 -0.181277 0
M  V30 706 H 68.5565 -2.05148 0.101665 0
M  V30 707 H 66.7865 -3.19052 -2.18502 0
M  V30 708 H 68.4755 -3.54942 -1.96904 0
M  V30 709 H 69.2415 -4.84774 0.147981 0
M  V30 710 H 65.1205 -4.49433 -1.0262 0
M  V30 711 H 68.6645 -6.80401 1.5395 0
M  V30 712 H 64.5615 -6.44506 0.358174 0
M  V30 713 H 65.3295 -7.99913 1.73438 0
M  V30 714 N 67.9926 0.231505 -1.5589 0
M  V30 715 C 69.2326 0.964533 -1.80211 0
M  V30 716 C 69.5966 1.81926 -0.613744 0
M  V30 717 O 70.7976 2.58526 -0.736045 0
M  V30 718 C 69.0686 1.78956 -3.09369 0
M  V30 719 S 70.6276 2.57959 -3.54969 0
M  V30 720 H 67.4456 0.324173 -0.632798 0
M  V30 721 H 70.0476 0.230985 -1.94131 0
M  V30 722 H 68.7516 1.15161 -3.93911 0
M  V30 723 H 68.2826 2.56559 -2.9823 0
M  V30 724 H 70.2976 3.81309 -3.17519 0
M  V30 725 N 69.4707 1.49531 0.497807 0
M  V30 726 C 70.4027 1.62559 1.61578 0
M  V30 727 C 71.4157 0.508134 1.54667 0
M  V30 728 O 72.6047 0.780309 1.60541 0
M  V30 729 C 69.7047 1.56925 3.00379 0
M  V30 730 C 68.8777 2.84257 3.3244 0
M  V30 731 C 67.9367 2.71632 4.50669 0
M  V30 732 O 66.9627 3.4557 4.52294 0
M  V30 733 N 68.1647 1.83391 5.5077 0
M  V30 734 H 70.9297 2.58981 1.50828 0
M  V30 735 H 68.4907 1.4666 0.685743 0
M  V30 736 H 70.4827 1.46129 3.77397 0
M  V30 737 H 69.0527 0.683483 3.05037 0
M  V30 738 H 68.2727 3.09381 2.44289 0
M  V30 739 H 69.5607 3.68666 3.5066 0
M  V30 740 H 68.9587 1.22583 5.52259 0
M  V30 741 H 67.5157 1.78515 6.26878 0
M  V30 742 N 70.9488 -0.749086 1.3866 0
M  V30 743 C 71.8818 -1.87111 1.30631 0
M  V30 744 C 72.8598 -1.61572 0.18251 0
M  V30 745 O 74.0438 -1.85019 0.360592 0
M  V30 746 C 71.1708 -3.22815 1.02511 0
M  V30 747 C 70.2168 -3.67234 2.1689 0
M  V30 748 S 71.0498 -3.78245 3.79066 0
M  V30 749 C 72.2058 -5.16761 3.53142 0
M  V30 750 H 72.4388 -1.93636 2.25594 0
M  V30 751 H 69.9718 -0.912525 1.24549 0
M  V30 752 H 71.9298 -4.01181 0.869701 0
M  V30 753 H 70.5908 -3.13964 0.0925884 0
M  V30 754 H 69.7838 -4.65677 1.92771 0
M  V30 755 H 69.3858 -2.96034 2.28561 0
M  V30 756 H 71.6778 -6.02656 3.09534 0
M  V30 757 H 72.6208 -5.45902 4.50995 0
M  V30 758 H 73.0288 -4.85771 2.87554 0
M  V30 759 N 72.4269 -1.23603 -0.977757 0
M  V30 760 C 73.8429 -0.999251 -1.24447 0
M  V30 761 C 74.0429 0.298053 -1.99283 0
M  V30 762 O 73.0989 1.01681 -2.31122 0
M  V30 763 C 74.4119 -2.20784 -2.04144 0
M  V30 764 C 75.9599 -2.25303 -2.17273 0
M  V30 765 C 76.4349 -3.45755 -3.00362 0
M  V30 766 N 77.9259 -3.4601 -3.07947 0
M  V30 767 C 78.6609 -4.35868 -3.72568 0
M  V30 768 N 78.1569 -5.35966 -4.38991 0
M  V30 769 N 79.9499 -4.23605 -3.6948 0
M  V30 770 H 72.1009 -2.06986 -0.476483 0
M  V30 771 H 74.3639 -0.907801 -0.273134 0
M  V30 772 H 74.0699 -3.14945 -1.56533 0
M  V30 773 H 73.9439 -2.22085 -3.04891 0
M  V30 774 H 76.3309 -1.3168 -2.64092 0
M  V30 775 H 76.4119 -2.28033 -1.15907 0
M  V30 776 H 76.0559 -4.39687 -2.5424 0
M  V30 777 H 75.9859 -3.40266 -4.01904 0
M  V30 778 H 78.4769 -2.73588 -2.60688 0
M  V30 779 H 78.7899 -6.00783 -4.86086 0
M  V30 780 H 77.1349 -5.39863 -4.37691 0
M  V30 781 H 80.3259 -3.44647 -3.16759 0
M  V30 782 H 80.4989 -4.93836 -4.1956 0
M  V30 783 N 73.905 1.17692 -1.04816 0
M  V30 784 C 75.145 1.89545 -0.764979 0
M  V30 785 C 75.509 1.78979 0.695028 0
M  V30 786 O 76.71 2.45613 1.09215 0
M  V30 787 C 74.981 3.35659 -1.22751 0
M  V30 788 S 76.54 4.25526 -1.07112 0
M  V30 789 H 73.358 0.654432 -0.27792 0
M  V30 790 H 75.96 1.42163 -1.34201 0
M  V30 791 H 74.664 3.40882 -2.28533 0
M  V30 792 H 74.195 3.88083 -0.644594 0
M  V30 793 H 76.21 4.962 0.00697508 0
M  V30 794 N 75.3831 0.828654 1.34056 0
M  V30 795 C 76.6111 0.43262 2.02326 0
M  V30 796 C 77.0261 -0.963147 1.62385 0
M  V30 797 O 76.3831 -1.62425 0.832121 0
M  V30 798 C 76.4341 0.53182 3.57567 0
M  V30 799 O 76.1551 1.87258 3.96063 0
M  V30 800 C 77.6561 0.131422 4.43105 0
M  V30 801 H 74.8761 0.172923 0.648335 0
M  V30 802 H 77.4201 1.1184 1.71208 0
M  V30 803 H 75.5751 -0.105938 3.87255 0
M  V30 804 H 75.9891 1.85087 4.90758 0
M  V30 805 H 77.4631 0.251904 5.51425 0
M  V30 806 H 77.9401 -0.925645 4.29335 0
M  V30 807 H 78.5461 0.743207 4.18756 0
M  V30 808 N 76.8612 -1.46375 0.584142 0
M  V30 809 C 78.1082 -2.02378 0.0702675 0
M  V30 810 C 78.4362 -1.45545 -1.29023 0
M  V30 811 O 77.6912 -0.610967 -1.85918 0
M  V30 812 C 77.9902 -3.57373 -0.0439342 0
M  V30 813 C 77.6562 -4.33252 1.24915 0
M  V30 814 C 76.3182 -4.53701 1.60341 0
M  V30 815 C 78.6702 -4.7681 2.1048 0
M  V30 816 C 75.9982 -5.1496 2.81128 0
M  V30 817 C 78.3502 -5.39404 3.30494 0
M  V30 818 C 77.0142 -5.5808 3.66201 0
M  V30 819 H 76.2842 -0.740554 0.0257127 0
M  V30 820 H 78.9312 -1.75727 0.761065 0
M  V30 821 H 77.2362 -3.83169 -0.817869 0
M  V30 822 H 78.9332 -3.98384 -0.457318 0
M  V30 823 H 75.5232 -4.17633 0.963364 0
M  V30 824 H 79.7072 -4.60766 1.84414 0
M  V30 825 H 74.9632 -5.27611 3.08928 0
M  V30 826 H 79.1372 -5.72114 3.97063 0
M  V30 827 H 76.7642 -6.05318 4.59885 0
M  V30 828 N 78.3393 -0.321999 -1.54275 0
M  V30 829 C 79.2893 0.560185 -2.21011 0
M  V30 830 C 80.2733 1.08283 -1.19011 0
M  V30 831 O 81.4653 1.02011 -1.44647 0
M  V30 832 C 78.5943 1.72137 -2.97025 0
M  V30 833 C 77.6803 1.21369 -4.06363 0
M  V30 834 N 78.0713 0.425566 -5.04007 0
M  V30 835 C 76.3693 1.49255 -4.20284 0
M  V30 836 C 77.0703 0.152601 -5.815 0
M  V30 837 N 76.0463 0.738294 -5.38563 0
M  V30 838 H 79.8483 -0.049265 -2.93859 0
M  V30 839 H 77.3623 -0.127779 -1.61897 0
M  V30 840 H 79.3593 2.36512 -3.43319 0
M  V30 841 H 78.0193 2.33431 -2.25699 0
M  V30 842 H 79.0303 0.068551 -5.17855 0
M  V30 843 H 75.7073 2.11145 -3.60172 0
M  V30 844 H 77.0973 -0.481764 -6.70171 0
M  V30 845 N 79.8174 1.5752 -0.0501392 0
M  V30 846 C 81.2284 1.80271 0.485705 0
M  V30 847 C 81.5794 0.96228 1.70981 0
M  V30 848 O 80.7044 0.178578 2.15662 0
M  V30 849 C 81.2994 3.26957 0.887938 0
M  V30 850 C 79.8584 3.5063 1.36877 0
M  V30 851 C 79.0054 2.75165 0.343468 0
M  V30 852 H 81.9564 1.56281 -0.276028 0
M  V30 853 H 81.9774 3.37821 1.75093 0
M  V30 854 H 81.4894 3.881 -0.0031809 0
M  V30 855 H 79.5904 2.94766 2.27911 0
M  V30 856 H 79.7034 4.59343 1.36164 0
M  V30 857 H 78.0674 2.4127 0.816128 0
M  V30 858 H 78.8504 3.39034 -0.539548 0
M  V30 859 N 81.2955 -0.223234 1.56011 0
M  V30 860 C 82.7115 -0.572856 1.48965 0
M  V30 861 C 82.9115 -1.87225 0.74492 0
M  V30 862 O 81.9675 -2.50899 0.283896 0
M  V30 863 C 83.2805 -0.653646 2.9351 0
M  V30 864 C 84.8285 -0.744386 3.0402 0
M  V30 865 C 85.3035 -0.856535 4.49919 0
M  V30 866 N 86.7945 -0.9208 4.53955 0
M  V30 867 C 87.5295 -1.02726 5.64123 0
M  V30 868 N 87.0255 -1.09777 6.84047 0
M  V30 869 N 88.8185 -1.06226 5.51971 0
M  V30 870 H 80.9695 0.629462 2.02858 0
M  V30 871 H 83.2325 0.220621 0.921971 0
M  V30 872 H 82.9385 0.231518 3.50937 0
M  V30 873 H 82.8125 -1.51781 3.45315 0
M  V30 874 H 85.1995 -1.61999 2.46658 0
M  V30 875 H 85.2805 0.14541 2.55386 0
M  V30 876 H 84.9245 0.0146069 5.07898 0
M  V30 877 H 84.8545 -1.76172 4.96257 0
M  V30 878 H 87.3455 -0.876694 3.6759 0
M  V30 879 H 87.6585 -1.17872 7.63758 0
M  V30 880 H 86.0035 -1.06693 6.86762 0
M  V30 881 H 89.1945 -1.00382 4.5721 0
M  V30 882 H 89.3675 -1.14177 6.37862 0
M  V30 883 N 82.7736 -1.49793 -0.48987 0
M  V30 884 C 84.0136 -1.61466 -1.25332 0
M  V30 885 C 84.3776 -0.299688 -1.89647 0
M  V30 886 O 85.5786 -0.291687 -2.67213 0
M  V30 887 C 83.8496 -2.74944 -2.28343 0
M  V30 888 S 85.4086 -3.06637 -3.13878 0
M  V30 889 H 82.2266 -0.569411 -0.425784 0
M  V30 890 H 84.8286 -1.875 -0.553541 0
M  V30 891 H 83.5326 -3.68994 -1.79643 0
M  V30 892 H 83.0636 -2.50938 -3.02975 0
M  V30 893 H 85.0786 -2.49015 -4.29192 0
M  V30 894 N 84.2517 0.741722 -1.39055 0
M  V30 895 C 85.1817 1.869 -1.39966 0
M  V30 896 C 86.1627 1.6804 -0.26392 0
M  V30 897 O 87.3477 1.88458 -0.468755 0
M  V30 898 C 84.4777 3.24572 -1.23574 0
M  V30 899 C 83.4317 3.58056 -2.34477 0
M  V30 900 C 82.7577 4.94593 -2.0318 0
M  V30 901 C 84.0577 3.61716 -3.76774 0
M  V30 902 H 85.7517 1.86395 -2.34302 0
M  V30 903 H 83.2977 0.895361 -1.1278 0
M  V30 904 H 85.2507 4.031 -1.22834 0
M  V30 905 H 83.9747 3.25587 -0.257045 0
M  V30 906 H 82.6337 2.81854 -2.34423 0
M  V30 907 H 82.2817 4.92181 -1.03765 0
M  V30 908 H 81.9817 5.17964 -2.77465 0
M  V30 909 H 83.5057 5.75486 -2.04079 0
M  V30 910 H 84.9197 4.30335 -3.78794 0
M  V30 911 H 83.3167 3.96603 -4.50362 0
M  V30 912 H 84.3867 2.61672 -4.08235 0
M  V30 913 N 85.7298 1.2412 0.971189 0
M  V30 914 C 86.6598 1.05508 2.08304 0
M  V30 915 C 87.6408 -0.0308864 1.70072 0
M  V30 916 O 88.8258 0.135521 1.93727 0
M  V30 917 C 85.9558 0.655365 3.4106 0
M  V30 918 C 84.9098 1.68971 3.93234 0
M  V30 919 C 84.2358 1.14516 5.22293 0
M  V30 920 C 85.5358 3.08487 4.21465 0
M  V30 921 H 87.2298 1.98507 2.24132 0
M  V30 922 H 84.7758 0.955821 1.07704 0
M  V30 923 H 86.7288 0.51217 4.18276 0
M  V30 924 H 85.4528 -0.31032 3.25122 0
M  V30 925 H 84.1118 1.82106 3.18171 0
M  V30 926 H 83.7598 0.170189 5.02712 0
M  V30 927 H 83.4598 1.83635 5.58168 0
M  V30 928 H 84.9838 1.01401 6.02121 0
M  V30 929 H 86.3978 2.98601 4.89398 0
M  V30 930 H 84.7948 3.74926 4.68562 0
M  V30 931 H 85.8648 3.56787 3.28376 0
M  V30 932 N 87.2079 -1.17134 1.05439 0
M  V30 933 C 88.4549 -1.87456 0.765942 0
M  V30 934 C 88.7829 -1.81189 -0.707153 0
M  V30 935 O 88.0379 -1.21633 -1.5331 0
M  V30 936 C 88.3369 -3.36833 1.19491 0
M  V30 937 C 88.0029 -3.63301 2.67063 0
M  V30 938 C 86.6649 -3.70234 3.07376 0
M  V30 939 C 89.0169 -3.74575 3.62413 0
M  V30 940 C 86.3449 -3.85933 4.41896 0
M  V30 941 C 88.6969 -3.91793 4.9667 0
M  V30 942 C 87.3609 -3.96966 5.36633 0
M  V30 943 H 86.6309 -0.685948 0.280278 0
M  V30 944 H 89.2779 -1.38556 1.32192 0
M  V30 945 H 87.5829 -3.87807 0.557969 0
M  V30 946 H 89.2799 -3.89611 0.948893 0
M  V30 947 H 85.8699 -3.58532 2.34846 0
M  V30 948 H 90.0539 -3.68537 3.32406 0
M  V30 949 H 85.3099 -3.88187 4.72357 0
M  V30 950 H 89.4839 -3.99458 5.70444 0
M  V30 951 H 87.1109 -4.08883 6.40874 0
M  V30 952 N 88.686 -0.835752 -1.33615 0
M  V30 953 C 89.911 -0.442389 -2.02627 0
M  V30 954 C 90.336 0.947735 -1.62479 0
M  V30 955 O 89.694 1.61907 -0.815826 0
M  V30 956 C 89.742 -0.567216 -3.56111 0
M  V30 957 O 88.846 0.407799 -4.10379 0
M  V30 958 H 88.187 -0.180278 -0.639059 0
M  V30 959 H 90.717 -1.12972 -1.70583 0
M  V30 960 H 90.727 -0.447708 -4.05536 0
M  V30 961 H 89.402 -1.58103 -3.84677 0
M  V30 962 H 87.979 0.246107 -3.72087 0
M  V30 963 N 90.1641 1.46063 -0.591896 0
M  V30 964 C 91.4111 2.02338 -0.0809991 0
M  V30 965 C 91.7391 1.46228 1.28249 0
M  V30 966 O 90.9941 0.620818 1.85592 0
M  V30 967 C 91.2931 3.57391 0.0249813 0
M  V30 968 C 90.9591 4.32583 -1.27211 0
M  V30 969 C 89.6211 4.52844 -1.62745 0
M  V30 970 C 91.9731 4.75687 -2.13005 0
M  V30 971 C 89.3011 5.13462 -2.83855 0
M  V30 972 C 91.6531 5.37644 -3.3335 0
M  V30 973 C 90.3171 5.5613 -3.69155 0
M  V30 974 H 89.5871 0.740407 -0.0296397 0
M  V30 975 H 92.2341 1.75321 -0.770374 0
M  V30 976 H 90.5391 3.83597 0.797537 0
M  V30 977 H 92.2361 3.98621 0.436184 0
M  V30 978 H 88.8261 4.17116 -0.985499 0
M  V30 979 H 93.0101 4.59782 -1.86855 0
M  V30 980 H 88.2661 5.25965 -3.11722 0
M  V30 981 H 92.4401 5.7 -4.00092 0
M  V30 982 H 90.0671 6.0287 -4.63089 0
M  V30 983 N 91.6422 0.330177 1.54103 0
M  V30 984 C 92.5722 -0.525353 2.27513 0
M  V30 985 C 93.5532 -1.11383 1.2856 0
M  V30 986 O 94.7382 -1.13773 1.57383 0
M  V30 987 C 91.8682 -1.6831 3.03791 0
M  V30 988 C 90.8222 -1.2236 4.10137 0
M  V30 989 C 90.1482 -2.46882 4.74293 0
M  V30 990 C 91.4482 -0.333697 5.21233 0
M  V30 991 H 93.1422 0.087013 2.99274 0
M  V30 992 H 90.6882 0.0432893 1.43935 0
M  V30 993 H 92.6412 -2.28795 3.5388 0
M  V30 994 H 91.3652 -2.32216 2.29659 0
M  V30 995 H 90.0242 -0.64165 3.60941 0
M  V30 996 H 89.6722 -3.09165 3.96769 0
M  V30 997 H 89.3722 -2.16825 5.46133 0
M  V30 998 H 90.8962 -3.08117 5.27159 0
M  V30 999 H 92.3102 -0.845013 5.67038 0
M  V30 1000 H 90.7072 -0.125612 5.99969 0
M  V30 1001 H 91.7772 0.633724 4.80741 0
M  V30 1002 N 93.1203 -1.57491 0.0584922 0
M  V30 1003 C 94.5313 -1.80526 -0.476138 0
M  V30 1004 C 94.8823 -0.971334 -1.70469 0
M  V30 1005 O 94.0073 -0.190012 -2.15564 0
M  V30 1006 C 94.6023 -3.27424 -0.870587 0
M  V30 1007 C 93.1613 -3.51351 -1.35015 0
M  V30 1008 C 92.3083 -2.75343 -0.32887 0
M  V30 1009 H 95.2593 -1.56133 0.284312 0
M  V30 1010 H 95.2803 -3.38745 -1.73299 0
M  V30 1011 H 94.7923 -3.88093 0.0237627 0
M  V30 1012 H 92.8933 -2.95971 -2.26345 0
M  V30 1013 H 93.0063 -4.60059 -1.33726 0
M  V30 1014 H 91.3703 -2.417 -0.803321 0
M  V30 1015 H 92.1533 -3.38743 0.557521 0
M  V30 1016 N 94.5984 0.214957 -1.56127 0
M  V30 1017 C 95.5614 1.24997 -1.92116 0
M  V30 1018 C 96.5614 1.39467 -0.800344 0
M  V30 1019 O 97.7514 1.37619 -1.06802 0
M  V30 1020 C 94.8834 2.62271 -2.17777 0
M  V30 1021 H 96.0764 0.942875 -2.84693 0
M  V30 1022 H 93.6294 0.455654 -1.49511 0
M  V30 1023 H 94.3644 2.98068 -1.27773 0
M  V30 1024 H 94.1494 2.53143 -2.99434 0
M  V30 1025 H 95.6394 3.36946 -2.46693 0
M  V30 1026 N 96.0765 1.50051 0.48192 0
M  V30 1027 C 97.3015 1.64508 1.26301 0
M  V30 1028 C 97.7265 0.323851 1.85291 0
M  V30 1029 O 97.0845 -0.710969 1.66778 0
M  V30 1030 C 97.1325 2.7305 2.35533 0
M  V30 1031 O 96.2365 2.3355 3.39895 0
M  V30 1032 H 95.5775 0.549978 0.372048 0
M  V30 1033 H 98.1075 1.9636 0.574786 0
M  V30 1034 H 98.1175 2.95799 2.8101 0
M  V30 1035 H 96.7925 3.68946 1.91967 0
M  V30 1036 H 95.3695 2.21205 3.00204 0
M  V30 1037 N 97.5546 -0.734337 1.39446 0
M  V30 1038 C 98.7796 -1.52866 1.40167 0
M  V30 1039 C 99.2046 -1.881 -0.00171513 0
M  V30 1040 O 98.5626 -1.51957 -0.988879 0
M  V30 1041 C 98.6106 -2.79235 2.28167 0
M  V30 1042 O 97.7146 -3.75185 1.71201 0
M  V30 1043 H 97.0556 -0.461618 0.477289 0
M  V30 1044 H 99.5856 -0.905949 1.8345 0
M  V30 1045 H 99.5956 -3.27963 2.42702 0
M  V30 1046 H 98.2706 -2.52923 3.30156 0
M  V30 1047 H 96.8476 -3.33958 1.65912 0
M  V30 1048 N 99.0327 -1.24633 -0.964593 0
M  V30 1049 C 100.282 -1.08188 -1.7023 0
M  V30 1050 C 100.595 0.37873 -1.91898 0
M  V30 1051 O 101.801 0.663427 -2.6327 0
M  V30 1052 C 100.257 -1.88773 -3.06419 0
M  V30 1053 C 99.8647 -3.39263 -2.92582 0
M  V30 1054 C 101.609 -1.80867 -3.84041 0
M  V30 1055 C 99.5157 -4.1218 -4.24101 0
M  V30 1056 H 98.4457 -0.401245 -0.638372 0
M  V30 1057 H 101.097 -1.48742 -1.07462 0
M  V30 1058 H 99.4787 -1.41035 -3.70034 0
M  V30 1059 H 100.653 -3.94603 -2.37961 0
M  V30 1060 H 98.9677 -3.48154 -2.28424 0
M  V30 1061 H 101.565 -2.32646 -4.81435 0
M  V30 1062 H 101.908 -0.774543 -4.09031 0
M  V30 1063 H 102.441 -2.26301 -3.27159 0
M  V30 1064 H 99.1797 -5.15965 -4.04303 0
M  V30 1065 H 98.6997 -3.61626 -4.78526 0
M  V30 1066 H 100.379 -4.19349 -4.92702 0
M  V30 1067 N 100.511 1.16574 -1.06058 0
M  V30 1068 C 101.459 2.22941 -0.663343 0
M  V30 1069 C 102.453 1.66358 0.319593 0
M  V30 1070 O 103.659 1.7905 0.184713 0
M  V30 1071 H 100.034 0.725907 -0.196376 0
M  V30 1072 H 102.005 2.53736 -1.57037 0
M  V30 1073 C 100.754 3.47642 -0.0632808 0
M  V30 1074 H 100.077 3.91493 -0.810733 0
M  V30 1075 H 101.517 4.2363 0.177177 0
M  V30 1076 C 99.9758 3.1509 1.19248 0
M  V30 1077 O 100.506 3.30673 2.28075 0
M  V30 1078 N 98.7118 2.6924 1.09353 0
M  V30 1079 H 98.2588 2.5676 0.207912 0
M  V30 1080 H 98.2168 2.47833 1.93458 0
M  V30 1081 N 101.989 0.842826 1.3317 0
M  V30 1082 C 103.266 0.362216 1.92217 0
M  V30 1083 C 103.646 -1.15289 1.76838 0
M  V30 1084 O 102.994 -1.96914 1.15919 0
M  V30 1085 C 103.204 0.813495 3.39387 0
M  V30 1086 C 104.552 0.823804 4.16532 0
M  V30 1087 O 105.576 0.757358 3.48055 0
M  V30 1088 O 104.435 0.915193 5.38782 0
M  V30 1089 H 101.529 0.103317 0.820521 0
M  V30 1090 H 104.075 0.928942 1.42017 0
M  V30 1091 H 102.847 1.85624 3.4447 0
M  V30 1092 H 102.47 0.223561 3.96971 0
M  V30 1093 N 103.467 -1.45747 0.599634 0
M  V30 1094 C 104.4 -2.27547 -0.172552 0
M  V30 1095 C 105.378 -1.36657 -0.881116 0
M  V30 1096 O 106.562 -1.66081 -0.891595 0
M  V30 1097 C 103.689 -3.14829 -1.24903 0
M  V30 1098 C 102.735 -4.21603 -0.644465 0
M  V30 1099 S 103.568 -5.32754 0.541606 0
M  V30 1100 C 104.724 -6.23604 -0.535656 0
M  V30 1101 H 104.957 -2.92691 0.521468 0
M  V30 1102 H 102.49 -1.49473 0.386947 0
M  V30 1103 H 104.448 -3.65675 -1.86527 0
M  V30 1104 H 103.109 -2.48965 -1.91508 0
M  V30 1105 H 102.302 -4.82566 -1.45417 0
M  V30 1106 H 101.904 -3.73857 -0.103534 0
M  V30 1107 H 104.196 -6.62519 -1.41686 0
M  V30 1108 H 105.139 -7.0809 0.0376246 0
M  V30 1109 H 105.547 -5.58103 -0.84741 0
M  V30 1110 N 104.945 -0.338344 -1.53925 0
M  V30 1111 C 105.855 0.529421 -2.28548 0
M  V30 1112 C 106.871 1.11645 -1.3346 0
M  V30 1113 O 108.047 1.13325 -1.66492 0
M  V30 1114 C 105.112 1.66713 -3.03987 0
M  V30 1115 C 104.173 1.11041 -4.14691 0
M  V30 1116 C 103.406 2.19389 -4.86522 0
M  V30 1117 O 103.629 3.40013 -4.57982 0
M  V30 1118 O 102.563 1.83976 -5.73094 0
M  V30 1119 H 106.389 -0.0770399 -3.03602 0
M  V30 1120 H 103.974 -0.103555 -1.49041 0
M  V30 1121 H 105.856 2.32918 -3.5118 0
M  V30 1122 H 104.531 2.25949 -2.31794 0
M  V30 1123 H 103.438 0.413024 -3.71813 0
M  V30 1124 H 104.771 0.562975 -4.8897 0
M  V30 1125 N 106.423 1.57458 -0.0668435 0
M  V30 1126 C 107.37 2.12439 0.902122 0
M  V30 1127 C 108.34 1.03565 1.2986 0
M  V30 1128 O 109.525 1.312 1.38532 0
M  V30 1129 C 106.665 2.6865 2.16614 0
M  V30 1130 C 105.778 3.91663 1.82274 0
M  V30 1131 C 104.913 4.36134 3.0325 0
M  V30 1132 C 103.952 5.51808 2.64904 0
M  V30 1133 N 103.089 5.9126 3.78624 0
M  V30 1134 H 107.929 2.94934 0.426382 0
M  V30 1135 H 105.466 1.4575 0.198819 0
M  V30 1136 H 107.424 2.99346 2.90599 0
M  V30 1137 H 106.054 1.88928 2.61737 0
M  V30 1138 H 105.106 3.6746 0.983719 0
M  V30 1139 H 106.418 4.75693 1.50059 0
M  V30 1140 H 105.572 4.68465 3.85519 0
M  V30 1141 H 104.311 3.50948 3.38655 0
M  V30 1142 H 103.316 5.19133 1.81055 0
M  V30 1143 H 104.541 6.38722 2.30675 0
M  V30 1144 H 102.487 5.09024 4.138 0
M  V30 1145 H 102.404 6.70018 3.5016 0
M  V30 1146 H 103.672 6.28212 4.61486 0
M  V30 1147 N 107.901 -0.206675 1.56239 0
M  V30 1148 C 109.317 -0.557025 1.49564 0
M  V30 1149 C 109.517 -1.86424 0.764735 0
M  V30 1150 O 108.573 -2.50584 0.310491 0
M  V30 1151 C 109.886 -0.622478 2.94186 0
M  V30 1152 C 111.434 -0.712099 3.04792 0
M  V30 1153 C 111.909 -0.808767 4.50803 0
M  V30 1154 N 113.4 -0.8726 4.54907 0
M  V30 1155 C 114.135 -0.967365 5.65181 0
M  V30 1156 N 113.631 -1.02515 6.85173 0
M  V30 1157 N 115.424 -1.00366 5.53067 0
M  V30 1158 H 107.575 0.650943 2.02179 0
M  V30 1159 H 109.838 0.230387 0.919579 0
M  V30 1160 H 109.544 0.268727 3.50672 0
M  V30 1161 H 109.418 -1.4811 3.46905 0
M  V30 1162 H 111.805 -1.59374 2.48363 0
M  V30 1163 H 111.886 0.172489 2.55218 0
M  V30 1164 H 111.53 0.0684754 5.07854 0
M  V30 1165 H 111.46 -1.70899 4.98098 0
M  V30 1166 H 113.951 -0.837657 3.68499 0
M  V30 1167 H 114.264 -1.09765 7.64965 0
M  V30 1168 H 112.609 -0.994026 6.87855 0
M  V30 1169 H 115.8 -0.95527 4.58249 0
M  V30 1170 H 115.973 -1.07405 6.39037 0
M  V30 1171 N 109.379 -1.50304 -0.473955 0
M  V30 1172 C 110.626 -1.6115 -1.22625 0
M  V30 1173 C 110.954 -0.310517 -1.92005 0
M  V30 1174 O 110.209 0.703419 -1.82621 0
M  V30 1175 C 110.508 -2.73938 -2.29549 0
M  V30 1176 C 110.174 -4.14519 -1.7744 0
M  V30 1177 C 108.836 -4.5277 -1.62949 0
M  V30 1178 C 111.188 -5.02392 -1.3875 0
M  V30 1179 C 108.516 -5.76639 -1.08187 0
M  V30 1180 C 110.868 -6.26805 -0.854309 0
M  V30 1181 C 109.532 -6.63861 -0.696011 0
M  V30 1182 H 108.802 -0.589691 -0.448715 0
M  V30 1183 H 111.449 -1.84228 -0.522705 0
M  V30 1184 H 109.754 -2.44937 -3.05799 0
M  V30 1185 H 111.451 -2.79534 -2.87509 0
M  V30 1186 H 108.041 -3.8434 -1.89685 0
M  V30 1187 H 112.225 -4.73474 -1.4878 0
M  V30 1188 H 107.481 -6.04027 -0.946666 0
M  V30 1189 H 111.655 -6.94258 -0.545843 0
M  V30 1190 H 109.282 -7.59722 -0.26952 0
M  V30 1191 N 110.857 0.726932 -1.39834 0
M  V30 1192 C 112.105 1.4837 -1.37225 0
M  V30 1193 C 112.426 1.94979 0.0284857 0
M  V30 1194 O 111.696 1.69555 0.981213 0
M  V30 1195 H 110.276 0.55043 -0.505011 0
M  V30 1196 H 112.938 0.862468 -1.74778 0
M  V30 1197 H 112.034 2.36198 -2.04003 0
M  V30 1198 N 112.336 1.25143 0.95797 0
M  V30 1199 C 113.576 1.10893 1.71703 0
M  V30 1200 C 113.94 -0.34478 1.88879 0
M  V30 1201 O 115.141 -0.609014 2.6181 0
M  V30 1202 C 113.412 1.83889 3.06463 0
M  V30 1203 S 114.971 1.85491 3.97666 0
M  V30 1204 H 111.789 0.396428 0.590226 0
M  V30 1205 H 114.391 1.58618 1.14283 0
M  V30 1206 H 113.095 2.88756 2.9163 0
M  V30 1207 H 112.626 1.36538 3.68946 0
M  V30 1208 H 114.641 0.929553 4.87415 0
M  V30 1209 N 113.814 -1.1601 1.06675 0
M  V30 1210 C 115.061 -1.86633 0.785781 0
M  V30 1211 C 115.389 -1.81929 -0.687896 0
M  V30 1212 O 114.644 -1.23253 -1.52011 0
M  V30 1213 C 114.943 -3.35547 1.23057 0
M  V30 1214 C 114.609 -3.60448 2.70902 0
M  V30 1215 C 113.271 -3.66954 3.11285 0
M  V30 1216 C 115.623 -3.7071 3.66365 0
M  V30 1217 C 112.951 -3.81225 4.45965 0
M  V30 1218 C 115.303 -3.86503 5.00797 0
M  V30 1219 C 113.967 -3.91252 5.40813 0
M  V30 1220 H 113.237 -0.682937 0.287538 0
M  V30 1221 H 115.884 -1.37146 1.33654 0
M  V30 1222 H 114.189 -3.87193 0.59907 0
M  V30 1223 H 115.886 -3.88583 0.990163 0
M  V30 1224 H 112.476 -3.56021 2.38636 0
M  V30 1225 H 116.66 -3.64991 3.36296 0
M  V30 1226 H 111.916 -3.83155 4.76447 0
M  V30 1227 H 116.09 -3.93385 5.74649 0
M  V30 1228 H 113.717 -4.02062 6.45174 0
M  V30 1229 N 115.292 -0.849877 -1.32721 0
M  V30 1230 C 116.222 -0.306308 -2.31482 0
M  V30 1231 C 117.203 0.591952 -1.59468 0
M  V30 1232 O 118.388 0.513199 -1.87296 0
M  V30 1233 C 115.518 0.510204 -3.43532 0
M  V30 1234 C 114.472 -0.293209 -4.26994 0
M  V30 1235 C 113.798 0.647743 -5.30762 0
M  V30 1236 C 115.098 -1.51634 -4.99804 0
M  V30 1237 H 116.792 -1.13153 -2.77195 0
M  V30 1238 H 114.338 -0.545553 -1.33266 0
M  V30 1239 H 116.291 0.900856 -4.11658 0
M  V30 1240 H 115.015 1.36874 -2.96535 0
M  V30 1241 H 113.674 -0.665555 -3.60508 0
M  V30 1242 H 113.322 1.50299 -4.8002 0
M  V30 1243 H 113.022 0.11422 -5.87489 0
M  V30 1244 H 114.546 1.03567 -6.01753 0
M  V30 1245 H 115.96 -1.19824 -5.60638 0
M  V30 1246 H 114.357 -1.98745 -5.66234 0
M  V30 1247 H 115.427 -2.28018 -4.27943 0
M  V30 1248 N 116.77 1.45427 -0.607355 0
M  V30 1249 C 117.717 2.3053 0.111625 0
M  V30 1250 C 118.687 1.4209 0.860216 0
M  V30 1251 O 119.872 1.71019 0.845998 0
M  V30 1252 C 117.012 3.26992 1.10319 0
M  V30 1253 C 116.125 4.30535 0.355493 0
M  V30 1254 C 115.26 5.14105 1.33676 0
M  V30 1255 C 114.299 6.09376 0.576862 0
M  V30 1256 N 113.436 6.85727 1.5074 0
M  V30 1257 H 118.276 2.91477 -0.620093 0
M  V30 1258 H 115.813 1.43631 -0.317594 0
M  V30 1259 H 117.771 3.81385 1.6912 0
M  V30 1260 H 116.401 2.67799 1.80232 0
M  V30 1261 H 115.453 3.78805 -0.348023 0
M  V30 1262 H 116.765 4.98235 -0.237423 0
M  V30 1263 H 115.919 5.72897 1.99684 0
M  V30 1264 H 114.658 4.46423 1.9636 0
M  V30 1265 H 113.663 5.49715 -0.0968519 0
M  V30 1266 H 114.888 6.79085 -0.0449341 0
M  V30 1267 H 112.834 6.20735 2.12189 0
M  V30 1268 H 112.751 7.49778 0.967913 0
M  V30 1269 H 114.019 7.4906 2.15706 0
M  V30 1270 N 118.248 0.346503 1.53744 0
M  V30 1271 C 119.525 -0.304532 1.93215 0
M  V30 1272 C 119.905 -1.67993 1.27834 0
M  V30 1273 O 119.253 -2.24411 0.430352 0
M  V30 1274 C 119.463 -0.373852 3.46992 0
M  V30 1275 C 120.811 -0.62329 4.2 0
M  V30 1276 O 121.835 -0.455847 3.53271 0
M  V30 1277 O 120.694 -0.947879 5.38217 0
M  V30 1278 H 117.788 -0.178318 0.807547 0
M  V30 1279 H 120.334 0.397895 1.64969 0
M  V30 1280 H 119.106 0.591224 3.86808 0
M  V30 1281 H 118.729 -1.12294 3.81413 0
M  V30 1282 N 119.726 -1.57421 0.075193 0
M  V30 1283 C 120.951 -1.98364 -0.605515 0
M  V30 1284 C 121.376 -0.953383 -1.62149 0
M  V30 1285 O 120.734 0.0806053 -1.81121 0
M  V30 1286 C 120.782 -3.38332 -1.24756 0
M  V30 1287 O 119.886 -3.37959 -2.36342 0
M  V30 1288 H 119.227 -0.645553 -0.155428 0
M  V30 1289 H 121.757 -2.04044 0.150714 0
M  V30 1290 H 121.767 -3.75591 -1.5936 0
M  V30 1291 H 120.442 -4.12846 -0.503129 0
M  V30 1292 H 119.019 -3.12474 -2.03506 0
M  V30 1293 N 121.204 0.198386 -1.56346 0
M  V30 1294 C 122.45 0.920648 -1.80698 0
M  V30 1295 C 122.783 1.83045 -0.648697 0
M  V30 1296 O 122.058 1.91308 0.350925 0
M  V30 1297 C 122.341 1.73971 -3.15287 0
M  V30 1298 C 122.194 0.85485 -4.41602 0
M  V30 1299 C 123.513 2.71296 -3.46535 0
M  V30 1300 H 120.632 0.333261 -0.657348 0
M  V30 1301 H 123.274 0.188198 -1.89066 0
M  V30 1302 H 121.424 2.36416 -3.08285 0
M  V30 1303 H 123.096 0.245362 -4.60647 0
M  V30 1304 H 121.339 0.161398 -4.335 0
M  V30 1305 H 122.01 1.46286 -5.32264 0
M  V30 1306 H 124.486 2.18983 -3.53816 0
M  V30 1307 H 123.362 3.2569 -4.41834 0
M  V30 1308 H 123.623 3.5018 -2.69864 0
M  V30 1309 N 122.682 1.50554 0.465978 0
M  V30 1310 C 123.91 1.65563 1.24083 0
M  V30 1311 C 124.325 0.341051 1.85694 0
M  V30 1312 O 123.682 -0.677543 1.69457 0
M  V30 1313 C 123.733 2.75051 2.34583 0
M  V30 1314 O 123.454 4.01413 1.75497 0
M  V30 1315 C 124.955 3.01078 3.25372 0
M  V30 1316 H 122.175 0.55638 0.375077 0
M  V30 1317 H 124.719 1.96807 0.555624 0
M  V30 1318 H 122.874 2.46486 2.9887 0
M  V30 1319 H 123.288 4.62002 2.48303 0
M  V30 1320 H 124.762 3.81339 3.99105 0
M  V30 1321 H 125.239 2.12349 3.84453 0
M  V30 1322 H 125.845 3.31194 2.66816 0
M  V30 1323 N 124.16 -0.719506 1.40217 0
M  V30 1324 C 125.408 -1.47641 1.3801 0
M  V30 1325 C 125.729 -1.94992 -0.018145 0
M  V30 1326 O 124.999 -1.70073 -0.972207 0
M  V30 1327 H 123.579 -0.547744 0.507923 0
M  V30 1328 H 126.241 -0.853187 1.75233 0
M  V30 1329 H 125.337 -2.35112 2.05253 0
M  V30 1330 N 125.638 -1.25649 -0.95132 0
M  V30 1331 C 126.866 -1.13343 -1.73092 0
M  V30 1332 C 127.281 0.312434 -1.86197 0
M  V30 1333 O 126.638 1.21465 -1.36207 0
M  V30 1334 C 126.689 -1.78602 -3.14299 0
M  V30 1335 O 126.41 -3.17537 -3.01831 0
M  V30 1336 C 127.911 -1.72119 -4.08522 0
M  V30 1337 H 125.131 -0.395181 -0.542285 0
M  V30 1338 H 127.675 -1.66076 -1.19328 0
M  V30 1339 H 125.83 -1.29832 -3.64996 0
M  V30 1340 H 126.244 -3.49676 -3.90931 0
M  V30 1341 H 127.718 -2.22435 -5.052 0
M  V30 1342 H 128.195 -0.685635 -4.33815 0
M  V30 1343 H 128.801 -2.20393 -3.63741 0
M  V30 1344 N 127.117 1.15442 -1.07289 0
M  V30 1345 C 128.047 2.22312 -0.714107 0
M  V30 1346 C 129.028 1.67467 0.298155 0
M  V30 1347 O 130.213 1.93445 0.171048 0
M  V30 1348 C 127.343 3.47124 -0.110448 0
M  V30 1349 C 126.297 4.14926 -1.04979 0
M  V30 1350 C 125.623 5.33807 -0.308924 0
M  V30 1351 C 126.923 4.64762 -2.38314 0
M  V30 1352 H 128.617 2.5258 -1.6076 0
M  V30 1353 H 126.163 1.21404 -0.77441 0
M  V30 1354 H 128.116 4.21124 0.152482 0
M  V30 1355 H 126.84 3.16187 0.81812 0
M  V30 1356 H 125.499 3.42866 -1.29764 0
M  V30 1357 H 125.147 4.99126 0.623084 0
M  V30 1358 H 124.847 5.80113 -0.935036 0
M  V30 1359 H 126.371 6.10576 -0.0537771 0
M  V30 1360 H 127.785 5.30292 -2.1786 0
M  V30 1361 H 126.182 5.21728 -2.96514 0
M  V30 1362 H 127.252 3.80434 -3.00663 0
M  V30 1363 N 128.595 0.856903 1.32268 0
M  V30 1364 C 130.006 0.515711 1.79436 0
M  V30 1365 C 130.357 -0.966586 1.70738 0
M  V30 1366 O 129.482 -1.75409 1.26731 0
M  V30 1367 C 130.077 0.929335 3.25805 0
M  V30 1368 C 128.636 0.640006 3.70919 0
M  V30 1369 C 127.783 1.12784 2.53328 0
M  V30 1370 H 130.734 1.04389 1.19535 0
M  V30 1371 H 130.755 0.246633 3.797 0
M  V30 1372 H 130.267 2.00821 3.32103 0
M  V30 1373 H 128.368 -0.428051 3.70133 0
M  V30 1374 H 128.481 1.20788 4.63624 0
M  V30 1375 H 126.845 0.548033 2.48734 0
M  V30 1376 H 127.628 2.21387 2.62379 0
M  V30 1377 N 130.073 -1.45103 0.615059 0
M  V30 1378 C 131.02 -2.30586 -0.0993978 0
M  V30 1379 C 131.99 -1.42544 -0.852669 0
M  V30 1380 O 133.175 -1.71465 -0.836917 0
M  V30 1381 C 130.315 -3.27572 -1.08583 0
M  V30 1382 C 129.428 -4.30717 -0.332656 0
M  V30 1383 C 128.563 -5.14807 -1.30947 0
M  V30 1384 C 127.602 -6.09673 -0.544538 0
M  V30 1385 N 126.739 -6.86517 -1.47101 0
M  V30 1386 H 131.579 -2.91144 0.635542 0
M  V30 1387 H 129.116 -1.4346 0.325206 0
M  V30 1388 H 131.074 -3.82276 -1.67095 0
M  V30 1389 H 129.704 -2.68751 -1.78809 0
M  V30 1390 H 128.756 -3.78615 0.368107 0
M  V30 1391 H 130.068 -4.98102 0.263842 0
M  V30 1392 H 129.222 -5.73948 -1.96643 0
M  V30 1393 H 127.961 -4.47458 -1.9399 0
M  V30 1394 H 126.966 -5.49656 0.126003 0
M  V30 1395 H 128.191 -6.79052 0.080947 0
M  V30 1396 H 126.137 -6.21851 -2.08895 0
M  V30 1397 H 126.054 -7.50281 -0.928137 0
M  V30 1398 H 127.322 -7.50194 -2.11731 0
M  V30 1399 N 131.551 -0.354651 -1.53558 0
M  V30 1400 C 132.797 0.238797 -2.01389 0
M  V30 1401 C 133.13 1.49309 -1.2418 0
M  V30 1402 O 132.405 1.91638 -0.332457 0
M  V30 1403 C 132.688 0.541771 -3.56001 0
M  V30 1404 C 132.541 -0.725388 -4.43912 0
M  V30 1405 C 133.86 1.34685 -4.18984 0
M  V30 1406 H 130.979 0.0853177 -0.732045 0
M  V30 1407 H 133.621 -0.477384 -1.83905 0
M  V30 1408 H 131.771 1.15189 -3.71031 0
M  V30 1409 H 133.443 -1.36313 -4.407 0
M  V30 1410 H 131.686 -1.34801 -4.12324 0
M  V30 1411 H 132.357 -0.468505 -5.50008 0
M  V30 1412 H 134.833 0.830837 -4.07721 0
M  V30 1413 H 133.709 1.52759 -5.27215 0
M  V30 1414 H 133.97 2.35221 -3.74331 0
M  V30 1415 N 133.029 1.57378 -0.0835403 0
M  V30 1416 C 133.979 2.09916 0.889905 0
M  V30 1417 C 134.963 1.01151 1.25129 0
M  V30 1418 O 136.155 1.27443 1.2283 0
M  V30 1419 C 133.284 2.67379 2.15322 0
M  V30 1420 C 132.37 3.83167 1.81779 0
M  V30 1421 N 132.761 4.91665 1.18739 0
M  V30 1422 C 131.059 3.92685 2.11459 0
M  V30 1423 C 131.76 5.72409 1.0355 0
M  V30 1424 N 130.736 5.21062 1.54906 0
M  V30 1425 H 134.538 2.91188 0.398378 0
M  V30 1426 H 132.052 1.61956 0.120013 0
M  V30 1427 H 134.049 3.0334 2.8599 0
M  V30 1428 H 132.709 1.87558 2.65051 0
M  V30 1429 H 133.72 5.10784 0.855604 0
M  V30 1430 H 130.397 3.23856 2.63483 0
M  V30 1431 H 131.787 6.69699 0.543425 0
M  V30 1432 N 134.507 -0.190092 1.56449 0
M  V30 1433 C 135.923 -0.54113 1.50146 0
M  V30 1434 C 136.123 -1.85603 0.784465 0
M  V30 1435 O 135.179 -2.5024 0.337051 0
M  V30 1436 C 136.492 -0.591241 2.9483 0
M  V30 1437 C 138.04 -0.679732 3.0553 0
M  V30 1438 C 138.515 -0.760908 4.51635 0
M  V30 1439 N 140.006 -0.824302 4.55806 0
M  V30 1440 C 140.741 -0.907365 5.66175 0
M  V30 1441 N 140.237 -0.952422 6.86222 0
M  V30 1442 N 142.03 -0.94494 5.541 0
M  V30 1443 H 134.181 0.67235 2.01478 0
M  V30 1444 H 136.444 0.240127 0.917084 0
M  V30 1445 H 136.15 0.305905 3.50367 0
M  V30 1446 H 136.024 -1.44422 3.48457 0
M  V30 1447 H 138.411 -1.56731 2.50039 0
M  V30 1448 H 138.492 0.199549 2.5502 0
M  V30 1449 H 138.136 0.122336 5.07753 0
M  V30 1450 H 138.066 -1.65606 4.99882 0
M  V30 1451 H 140.557 -0.798526 3.69367 0
M  V30 1452 H 140.87 -1.01645 7.66086 0
M  V30 1453 H 139.215 -0.921014 6.8887 0
M  V30 1454 H 142.406 -0.906612 4.59236 0
M  V30 1455 H 142.579 -1.00622 6.4014 0
M  V30 1456 N 135.985 -1.50799 -0.457987 0
M  V30 1457 C 137.213 -1.66218 -1.23203 0
M  V30 1458 C 137.628 -0.350894 -1.85511 0
M  V30 1459 O 136.985 0.668546 -1.69814 0
M  V30 1460 C 137.036 -2.76291 -2.33121 0
M  V30 1461 O 136.757 -4.02338 -1.73366 0
M  V30 1462 C 138.258 -3.028 -3.2377 0
M  V30 1463 H 135.478 -0.558361 -0.372121 0
M  V30 1464 H 138.022 -1.97099 -0.545179 0
M  V30 1465 H 136.177 -2.48068 -2.97558 0
M  V30 1466 H 136.591 -4.63312 -2.4585 0
M  V30 1467 H 138.065 -3.8345 -3.97077 0
M  V30 1468 H 138.542 -2.14385 -3.83322 0
M  V30 1469 H 139.148 -3.32604 -2.65056 0
M  V30 1470 N 137.463 0.71206 -1.40597 0
M  V30 1471 C 138.711 1.46907 -1.38791 0
M  V30 1472 C 139.032 1.94998 0.00780391 0
M  V30 1473 O 138.302 1.70587 0.963174 0
M  V30 1474 H 136.882 0.545043 -0.51082 0
M  V30 1475 H 139.544 0.843882 -1.75683 0
M  V30 1476 H 138.64 2.34021 -2.06496 0
M  V30 1477 N 138.941 1.26152 0.944643 0
M  V30 1478 C 139.904 1.07474 2.0244 0
M  V30 1479 C 140.904 0.0242064 1.60782 0
M  V30 1480 O 142.094 0.267302 1.72137 0
M  V30 1481 C 139.226 0.633956 3.34953 0
M  V30 1482 H 140.419 2.03336 2.20442 0
M  V30 1483 H 137.972 1.087 1.12312 0
M  V30 1484 H 138.707 -0.326811 3.22649 0
M  V30 1485 H 138.492 1.39247 3.66542 0
M  V30 1486 H 139.982 0.52501 4.14287 0
M  V30 1487 N 140.419 -1.14872 1.07899 0
M  V30 1488 C 141.665 -1.86064 0.806725 0
M  V30 1489 C 141.998 -1.82434 -0.665706 0
M  V30 1490 O 141.273 -1.25138 -1.48899 0
M  V30 1491 C 141.556 -3.34929 1.32267 0
M  V30 1492 C 141.409 -3.47161 2.86006 0
M  V30 1493 C 142.728 -4.29863 0.943717 0
M  V30 1494 H 139.847 -0.675591 0.294526 0
M  V30 1495 H 142.489 -1.34925 1.33773 0
M  V30 1496 H 140.639 -3.78611 0.870974 0
M  V30 1497 H 142.311 -3.12302 3.39507 0
M  V30 1498 H 140.554 -2.88539 3.23925 0
M  V30 1499 H 141.225 -4.51777 3.17177 0
M  V30 1500 H 143.701 -3.9417 1.33302 0
M  V30 1501 H 142.577 -5.32494 1.33198 0
M  V30 1502 H 142.838 -4.41846 -0.149796 0
M  V30 1503 N 141.898 -0.863906 -1.31812 0
M  V30 1504 C 143.123 -0.48527 -2.01643 0
M  V30 1505 C 143.548 0.913058 -1.64453 0
M  V30 1506 O 142.906 1.6014 -0.849985 0
M  V30 1507 C 142.954 -0.642625 -3.54828 0
M  V30 1508 O 142.058 0.320659 -4.11151 0
M  V30 1509 H 141.399 -0.193793 -0.635091 0
M  V30 1510 H 143.929 -1.16565 -1.68148 0
M  V30 1511 H 143.939 -0.533628 -4.04495 0
M  V30 1512 H 142.614 -1.66227 -3.81237 0
M  V30 1513 H 141.191 0.167126 -3.72525 0
M  V30 1514 N 143.376 1.44774 -0.622745 0
M  V30 1515 C 144.624 2.01721 -0.123655 0
M  V30 1516 C 144.945 1.49172 1.25589 0
M  V30 1517 O 144.215 0.691974 1.83272 0
M  V30 1518 H 142.795 0.745777 -0.0427225 0
M  V30 1519 H 145.457 1.77382 -0.807559 0
M  V30 1520 H 144.553 3.11984 -0.0849534 0
M  V30 1521 N 144.854 0.36279 1.53368 0
M  V30 1522 C 145.804 -0.501391 2.22419 0
M  V30 1523 C 146.788 -1.0509 1.2184 0
M  V30 1524 O 147.98 -0.981404 1.47301 0
M  V30 1525 C 145.109 -1.64201 3.01484 0
M  V30 1526 C 144.195 -1.10552 4.09438 0
M  V30 1527 N 144.586 -0.291788 5.04958 0
M  V30 1528 C 142.884 -1.3806 4.24094 0
M  V30 1529 C 143.585 0.00162655 5.817 0
M  V30 1530 N 142.561 -0.595244 5.40331 0
M  V30 1531 H 146.363 0.127159 2.93625 0
M  V30 1532 H 143.877 0.170658 1.61501 0
M  V30 1533 H 145.874 -2.27326 3.49469 0
M  V30 1534 H 144.534 -2.27365 2.31809 0
M  V30 1535 H 145.545 0.0687731 5.17854 0
M  V30 1536 H 142.222 -2.01522 3.65644 0
M  V30 1537 H 143.612 0.659278 6.68658 0
M  V30 1538 N 146.332 -1.57332 0.0918853 0
M  V30 1539 C 147.557 -1.98995 -0.584442 0
M  V30 1540 C 147.982 -0.970528 -1.61128 0
M  V30 1541 O 147.34 0.0613904 -1.81196 0
M  V30 1542 C 147.388 -3.39636 -1.21161 0
M  V30 1543 O 146.492 -3.40447 -2.32744 0
M  V30 1544 H 145.833 -0.647165 -0.148572 0
M  V30 1545 H 148.363 -2.03873 0.172347 0
M  V30 1546 H 148.373 -3.7726 -1.55367 0
M  V30 1547 H 147.048 -4.13356 -0.459313 0
M  V30 1548 H 145.625 -3.14614 -2.0018 0
M  V30 1549 N 147.81 0.181792 -1.56548 0
M  V30 1550 C 148.74 1.22765 -1.98623 0
M  V30 1551 C 149.721 1.46747 -0.860189 0
M  V30 1552 O 150.906 1.58259 -1.12551 0
M  V30 1553 C 148.036 2.56894 -2.33715 0
M  V30 1554 C 146.99 2.475 -3.49182 0
M  V30 1555 C 146.316 3.86023 -3.69986 0
M  V30 1556 C 147.616 1.98866 -4.82959 0
M  V30 1557 H 149.31 0.877942 -2.86239 0
M  V30 1558 H 146.856 0.42088 -1.37712 0
M  V30 1559 H 148.809 3.30253 -2.61746 0
M  V30 1560 H 147.533 2.93632 -1.42997 0
M  V30 1561 H 146.192 1.76596 -3.21262 0
M  V30 1562 H 145.84 4.20136 -2.76576 0
M  V30 1563 H 145.54 3.80609 -4.47672 0
M  V30 1564 H 147.064 4.60984 -4.00407 0
M  V30 1565 H 148.478 2.61992 -5.09934 0
M  V30 1566 H 146.875 2.04424 -5.64208 0
M  V30 1567 H 147.945 0.942465 -4.75653 0
M  V30 1568 N 149.288 1.51039 0.449983 0
M  V30 1569 C 150.235 1.71439 1.54523 0
M  V30 1570 C 151.205 0.555871 1.56522 0
M  V30 1571 O 152.39 0.788871 1.73728 0
M  V30 1572 C 149.53 1.83384 2.92343 0
M  V30 1573 C 148.643 3.10873 2.9997 0
M  V30 1574 C 147.778 3.13488 4.28834 0
M  V30 1575 C 146.817 4.35343 4.30282 0
M  V30 1576 N 145.954 4.35579 5.5065 0
M  V30 1577 H 150.794 2.64934 1.36433 0
M  V30 1578 H 148.331 1.31312 0.662982 0
M  V30 1579 H 150.289 1.88291 3.72293 0
M  V30 1580 H 148.919 0.933086 3.0902 0
M  V30 1581 H 147.971 3.15336 2.12761 0
M  V30 1582 H 149.283 4.00814 2.96901 0
M  V30 1583 H 148.437 3.17241 5.17149 0
M  V30 1584 H 147.176 2.21414 4.34543 0
M  V30 1585 H 146.181 4.3178 3.40362 0
M  V30 1586 H 147.406 5.28668 4.26248 0
M  V30 1587 H 145.352 3.46369 5.57104 0
M  V30 1588 H 145.269 5.19313 5.49409 0
M  V30 1589 H 146.537 4.43507 6.41032 0
M  V30 1590 N 150.766 -0.704594 1.40972 0
M  V30 1591 C 151.698 -1.82974 1.38033 0
M  V30 1592 C 152.711 -1.60305 0.283931 0
M  V30 1593 O 153.9 -1.69975 0.545042 0
M  V30 1594 C 151 -3.19578 1.12795 0
M  V30 1595 C 150.173 -3.69352 2.34302 0
M  V30 1596 C 149.232 -4.84601 2.05058 0
M  V30 1597 O 148.258 -4.96682 2.7802 0
M  V30 1598 N 149.46 -5.71194 1.03528 0
M  V30 1599 H 152.225 -1.85991 2.35005 0
M  V30 1600 H 149.786 -0.886567 1.35468 0
M  V30 1601 H 151.778 -3.9429 0.911987 0
M  V30 1602 H 150.348 -3.11642 0.24452 0
M  V30 1603 H 149.568 -2.85649 2.71659 0
M  V30 1604 H 150.856 -3.99345 3.1528 0
M  V30 1605 H 150.254 -5.64054 0.431217 0
M  V30 1606 H 148.811 -6.45843 0.879205 0
M  V30 1607 N 152.244 -1.26651 -0.937939 0
M  V30 1608 C 153.484 -1.13611 -1.69917 0
M  V30 1609 C 153.848 0.314687 -1.89404 0
M  V30 1610 O 155.049 0.567285 -2.62746 0
M  V30 1611 C 153.32 -1.88742 -3.03498 0
M  V30 1612 S 154.879 -1.91794 -3.94665 0
M  V30 1613 H 151.697 -0.405767 -0.583844 0
M  V30 1614 H 154.299 -1.60416 -1.11745 0
M  V30 1615 H 153.003 -2.9336 -2.86999 0
M  V30 1616 H 152.534 -1.42391 -3.66727 0
M  V30 1617 H 154.549 -1.00698 -4.85875 0
M  V30 1618 N 153.722 1.14298 -1.08507 0
M  V30 1619 C 154.97 1.84993 -0.813763 0
M  V30 1620 C 155.291 1.83405 0.662393 0
M  V30 1621 O 154.561 1.28319 1.48024 0
M  V30 1622 H 153.141 0.684966 -0.298045 0
M  V30 1623 H 155.803 1.385 -1.37126 0
M  V30 1624 H 154.899 2.89788 -1.15884 0
M  V30 1625 N 155.201 0.870884 1.31352 0
M  V30 1626 C 156.151 0.298889 2.26032 0
M  V30 1627 C 157.135 -0.564595 1.50669 0
M  V30 1628 O 158.327 -0.411323 1.72154 0
M  V30 1629 C 155.456 -0.497842 3.39671 0
M  V30 1630 C 154.542 0.378937 4.22404 0
M  V30 1631 N 154.933 1.47284 4.83881 0
M  V30 1632 C 153.231 0.171535 4.4567 0
M  V30 1633 C 153.932 2.01359 5.45738 0
M  V30 1634 N 152.908 1.31047 5.27568 0
M  V30 1635 H 156.71 1.13494 2.71102 0
M  V30 1636 H 154.224 0.718745 1.45629 0
M  V30 1637 H 156.221 -0.924155 4.06528 0
M  V30 1638 H 154.881 -1.33149 2.96144 0
M  V30 1639 H 155.892 1.85575 4.8351 0
M  V30 1640 H 152.569 -0.626091 4.12779 0
M  V30 1641 H 153.959 2.93143 6.0458 0
M  V30 1642 N 156.679 -1.44442 0.630414 0
M  V30 1643 C 157.611 -2.2892 -0.113347 0
M  V30 1644 C 158.624 -1.41243 -0.80959 0
M  V30 1645 O 159.813 -1.65402 -0.671156 0
M  V30 1646 C 156.913 -3.17594 -1.18266 0
M  V30 1647 C 156.086 -4.33682 -0.569073 0
M  V30 1648 C 155.145 -5.03397 -1.53226 0
M  V30 1649 O 154.171 -5.59438 -1.04967 0
M  V30 1650 N 155.373 -5.04783 -2.86661 0
M  V30 1651 H 158.138 -2.93392 0.611636 0
M  V30 1652 H 155.699 -1.54881 0.471523 0
M  V30 1653 H 157.691 -3.61097 -1.82732 0
M  V30 1654 H 156.261 -2.54876 -1.80988 0
M  V30 1655 H 155.481 -3.9338 0.254187 0
M  V30 1656 H 156.769 -5.08608 -0.139767 0
M  V30 1657 H 156.167 -4.60584 -3.28449 0
M  V30 1658 H 154.724 -5.52077 -3.46489 0
M  V30 1659 N 158.157 -0.370918 -1.53173 0
M  V30 1660 C 159.406 0.218249 -2.00516 0
M  V30 1661 C 159.719 1.49429 -1.26215 0
M  V30 1662 O 160.925 2.16239 -1.64174 0
M  V30 1663 C 159.381 0.43948 -3.57207 0
M  V30 1664 C 158.989 -0.822244 -4.4039 0
M  V30 1665 C 160.733 0.986012 -4.1289 0
M  V30 1666 C 158.64 -0.570304 -5.88644 0
M  V30 1667 H 157.57 0.0853333 -0.749156 0
M  V30 1668 H 160.221 -0.490483 -1.76823 0
M  V30 1669 H 158.603 1.20961 -3.77074 0
M  V30 1670 H 159.777 -1.59557 -4.32294 0
M  V30 1671 H 158.092 -1.29238 -3.95836 0
M  V30 1672 H 160.689 1.18991 -5.21292 0
M  V30 1673 H 161.032 1.94972 -3.6782 0
M  V30 1674 H 161.565 0.27592 -3.96842 0
M  V30 1675 H 158.304 -1.50449 -6.38001 0
M  V30 1676 H 157.824 0.164427 -5.99575 0
M  V30 1677 H 159.503 -0.19784 -6.46697 0
M  V30 1678 N 159.635 1.57281 -0.100228 0
M  V30 1679 C 160.86 1.99302 0.573881 0
M  V30 1680 C 161.285 0.979059 1.60611 0
M  V30 1681 O 160.643 -0.0517803 1.81226 0
M  V30 1682 C 160.691 3.40274 1.19358 0
M  V30 1683 O 159.795 3.41676 2.30935 0
M  V30 1684 H 159.136 0.647944 0.145138 0
M  V30 1685 H 161.666 2.03779 -0.183156 0
M  V30 1686 H 161.676 3.78078 1.53365 0
M  V30 1687 H 160.351 4.13594 0.437385 0
M  V30 1688 H 158.928 3.15672 1.98509 0
M  V30 1689 N 161.113 -0.173488 1.56642 0
M  V30 1690 C 162.076 -1.19859 1.95362 0
M  V30 1691 C 163.076 -1.37296 0.83704 0
M  V30 1692 O 164.266 -1.34739 1.10413 0
M  V30 1693 C 161.398 -2.56405 2.24654 0
M  V30 1694 H 162.591 -0.867062 2.87092 0
M  V30 1695 H 160.144 -0.415853 1.50666 0
M  V30 1696 H 160.879 -2.94576 1.35631 0
M  V30 1697 H 160.664 -2.45115 3.06041 0
M  V30 1698 H 162.154 -3.30287 2.5554 0
M  V30 1699 N 162.591 -1.51276 -0.441967 0
M  V30 1700 C 163.831 -1.65372 -1.20132 0
M  V30 1701 C 164.195 -0.359871 -1.88597 0
M  V30 1702 O 165.396 -0.376551 -2.66149 0
M  V30 1703 C 163.667 -2.8207 -2.1948 0
M  V30 1704 S 165.226 -3.16467 -3.03964 0
M  V30 1705 H 162.044 -0.582669 -0.407453 0
M  V30 1706 H 164.646 -1.89166 -0.493609 0
M  V30 1707 H 163.35 -3.74523 -1.67812 0
M  V30 1708 H 162.881 -2.6045 -2.94838 0
M  V30 1709 H 164.896 -2.62543 -4.21053 0
M  V30 1710 N 164.069 0.697108 -1.41344 0
M  V30 1711 C 165.019 1.80313 -1.39539 0
M  V30 1712 C 166.003 1.58618 -0.270001 0
M  V30 1713 O 167.195 1.69477 -0.510551 0
M  V30 1714 C 164.324 3.18606 -1.27848 0
M  V30 1715 C 163.41 3.46001 -2.45244 0
M  V30 1716 N 163.801 3.44103 -3.70711 0
M  V30 1717 C 162.099 3.76542 -2.39023 0
M  V30 1718 C 162.8 3.7036 -4.48563 0
M  V30 1719 N 161.776 3.90027 -3.78655 0
M  V30 1720 H 165.578 1.77207 -2.34468 0
M  V30 1721 H 163.092 0.897031 -1.35378 0
M  V30 1722 H 165.089 3.97833 -1.24637 0
M  V30 1723 H 163.749 3.22925 -0.339032 0
M  V30 1724 H 164.76 3.2452 -4.03618 0
M  V30 1725 H 161.437 3.88241 -1.53542 0
M  V30 1726 H 162.827 3.75042 -5.57488 0
M  V30 1727 N 165.547 1.27147 0.931209 0
M  V30 1728 C 166.963 1.04475 1.20653 0
M  V30 1729 C 167.163 -0.223885 2.00252 0
M  V30 1730 O 166.219 -0.930332 2.34736 0
M  V30 1731 C 167.532 2.28209 1.95809 0
M  V30 1732 C 169.08 2.33211 2.08762 0
M  V30 1733 C 169.555 3.56665 2.87323 0
M  V30 1734 N 171.046 3.57201 2.94892 0
M  V30 1735 C 171.781 4.49395 3.56134 0
M  V30 1736 N 171.277 5.51889 4.18796 0
M  V30 1737 N 173.07 4.37026 3.53504 0
M  V30 1738 H 165.221 2.08612 0.399333 0
M  V30 1739 H 167.484 0.917312 0.239253 0
M  V30 1740 H 167.19 3.20538 1.44736 0
M  V30 1741 H 167.064 2.33247 2.96438 0
M  V30 1742 H 169.451 1.41391 2.59023 0
M  V30 1743 H 169.532 2.32178 1.07364 0
M  V30 1744 H 169.176 4.4882 2.37746 0
M  V30 1745 H 169.106 3.54948 3.88998 0
M  V30 1746 H 171.597 2.83074 2.50354 0
M  V30 1747 H 171.91 6.18409 4.63454 0
M  V30 1748 H 170.255 5.55735 4.17353 0
M  V30 1749 H 173.446 3.56166 3.03749 0
M  V30 1750 H 173.619 5.09067 4.00942 0
M  V30 1751 N 167.025 -1.13721 1.09112 0
M  V30 1752 C 168.302 -1.81155 0.737706 0
M  V30 1753 C 168.682 -1.96253 -0.777683 0
M  V30 1754 O 168.03 -1.52807 -1.69889 0
M  V30 1755 C 168.24 -3.16392 1.47299 0
M  V30 1756 C 169.588 -3.91787 1.63671 0
M  V30 1757 O 170.612 -3.26005 1.43524 0
M  V30 1758 O 169.471 -5.0977 1.96969 0
M  V30 1759 H 166.565 -0.783518 0.26463 0
M  V30 1760 H 169.111 -1.20676 1.19312 0
M  V30 1761 H 167.883 -3.0061 2.50498 0
M  V30 1762 H 167.506 -3.8457 1.00953 0
M  V30 1763 N 168.503 -0.877838 -1.30888 0
M  V30 1764 C 169.752 -0.488793 -1.95688 0
M  V30 1765 C 170.065 0.965485 -1.70111 0
M  V30 1766 O 171.271 1.46104 -2.28836 0
M  V30 1767 C 169.727 -0.823201 -3.50359 0
M  V30 1768 C 169.335 -2.29477 -3.84765 0
M  V30 1769 C 171.079 -0.503009 -4.21509 0
M  V30 1770 C 168.986 -2.57118 -5.32583 0
M  V30 1771 H 167.916 -0.179062 -0.732429 0
M  V30 1772 H 170.567 -1.07183 -1.48943 0
M  V30 1773 H 168.949 -0.169331 -3.95638 0
M  V30 1774 H 170.123 -2.99236 -3.5042 0
M  V30 1775 H 168.438 -2.58178 -3.267 0
M  V30 1776 H 171.035 -0.68665 -5.30273 0
M  V30 1777 H 171.378 0.557109 -4.12555 0
M  V30 1778 H 171.911 -1.11376 -3.8189 0
M  V30 1779 H 168.65 -3.61843 -5.4658 0
M  V30 1780 H 168.17 -1.91961 -5.68253 0
M  V30 1781 H 169.849 -2.42251 -5.99936 0
M  V30 1782 N 169.982 1.44106 -0.638065 0
M  V30 1783 C 171.212 2.06037 -0.152394 0
M  V30 1784 C 171.62 1.47808 1.18108 0
M  V30 1785 O 170.963 0.598092 1.73691 0
M  V30 1786 C 171.025 3.59488 0.0293714 0
M  V30 1787 C 170.689 4.4022 -1.22702 0
M  V30 1788 C 171.686 4.73256 -2.15232 0
M  V30 1789 C 169.371 4.8048 -1.46437 0
M  V30 1790 C 171.365 5.45444 -3.29802 0
M  V30 1791 C 169.052 5.52417 -2.61303 0
M  V30 1792 C 170.05 5.84819 -3.52811 0
M  V30 1793 O 169.738 6.55289 -4.65673 0
M  V30 1794 H 169.47 0.671233 -0.0801401 0
M  V30 1795 H 172.024 1.85851 -0.874563 0
M  V30 1796 H 170.254 3.78191 0.806758 0
M  V30 1797 H 171.943 4.03164 0.470475 0
M  V30 1798 H 172.709 4.42684 -1.98131 0
M  V30 1799 H 168.588 4.54676 -0.760977 0
M  V30 1800 H 172.132 5.70653 -4.01249 0
M  V30 1801 H 168.029 5.82404 -2.78344 0
M  V30 1802 H 168.797 6.73762 -4.64744 0
M  V30 1803 N 171.46 0.379036 1.52974 0
M  V30 1804 C 172.407 -0.461048 2.26148 0
M  V30 1805 C 173.377 -1.06637 1.27349 0
M  V30 1806 O 174.562 -1.09633 1.56157 0
M  V30 1807 C 171.702 -1.58782 3.06402 0
M  V30 1808 C 170.815 -1.00636 4.20115 0
M  V30 1809 C 169.95 -2.10334 4.87784 0
M  V30 1810 C 168.989 -1.49724 5.93506 0
M  V30 1811 N 168.126 -2.5331 6.54812 0
M  V30 1812 H 172.966 0.169429 2.97518 0
M  V30 1813 H 170.503 0.0953806 1.4679 0
M  V30 1814 H 172.461 -2.25174 3.51215 0
M  V30 1815 H 171.091 -2.18876 2.37261 0
M  V30 1816 H 170.143 -0.232332 3.7969 0
M  V30 1817 H 171.455 -0.523343 4.96047 0
M  V30 1818 H 170.609 -2.84519 5.35849 0
M  V30 1819 H 169.348 -2.61992 4.11353 0
M  V30 1820 H 168.353 -0.740598 5.44789 0
M  V30 1821 H 169.578 -0.988732 6.71864 0
M  V30 1822 H 167.524 -3.04156 5.81227 0
M  V30 1823 H 167.441 -2.09734 7.26325 0
M  V30 1824 H 168.709 -3.27155 7.07524 0
M  V30 1825 N 172.938 -1.57226 0.108567 0
M  V30 1826 C 174.186 -1.94448 -0.550853 0
M  V30 1827 C 174.507 -0.992074 -1.67878 0
M  V30 1828 O 173.777 -0.0465 -1.95845 0
M  V30 1829 H 172.357 -0.717897 -0.206479 0
M  V30 1830 H 175.019 -1.94112 0.175062 0
M  V30 1831 H 174.115 -2.97218 -0.952259 0
M  V30 1832 N 174.416 0.165178 -1.56732 0
M  V30 1833 C 175.662 0.882112 -1.82611 0
M  V30 1834 C 175.995 1.81628 -0.687378 0
M  V30 1835 O 175.27 1.92009 0.310267 0
M  V30 1836 C 175.553 1.67245 -3.18906 0
M  V30 1837 C 175.406 0.760987 -4.43316 0
M  V30 1838 C 176.725 2.63884 -3.52212 0
M  V30 1839 H 173.844 0.319242 -0.664269 0
M  V30 1840 H 176.486 0.148052 -1.89422 0
M  V30 1841 H 174.636 2.29824 -3.1323 0
M  V30 1842 H 176.308 0.147596 -4.61064 0
M  V30 1843 H 174.551 0.0694102 -4.33744 0
M  V30 1844 H 175.222 1.34962 -5.35247 0
M  V30 1845 H 177.698 2.11429 -3.58381 0
M  V30 1846 H 176.574 3.16245 -4.48643 0
M  V30 1847 H 176.835 3.44377 -2.77231 0
M  V30 1848 N 175.894 1.51508 0.433938 0
M  V30 1849 C 177.171 1.54888 1.19453 0
M  V30 1850 C 177.551 0.315154 2.08734 0
M  V30 1851 O 176.899 -0.699558 2.17528 0
M  V30 1852 C 177.109 2.86467 1.99342 0
M  V30 1853 C 178.457 3.38545 2.56267 0
M  V30 1854 O 179.481 2.88041 2.0955 0
M  V30 1855 O 178.34 4.26675 3.41483 0
M  V30 1856 H 175.434 0.622863 0.544032 0
M  V30 1857 H 177.98 1.63823 0.442732 0
M  V30 1858 H 176.752 3.67718 1.33788 0
M  V30 1859 H 176.375 2.8071 2.8158 0
M  V30 1860 N 177.372 -0.689602 1.41712 0
M  V30 1861 C 178.305 -1.81403 1.3845 0
M  V30 1862 C 179.283 -1.60653 0.250874 0
M  V30 1863 O 180.467 -1.83323 0.43874 0
M  V30 1864 C 177.594 -3.18176 1.1611 0
M  V30 1865 C 176.64 -3.57705 2.3227 0
M  V30 1866 S 177.473 -3.61827 3.94767 0
M  V30 1867 C 178.629 -5.01318 3.74742 0
M  V30 1868 H 178.862 -1.83893 2.33603 0
M  V30 1869 H 176.395 -0.858878 1.28307 0
M  V30 1870 H 178.353 -3.97132 1.03907 0
M  V30 1871 H 177.014 -3.13288 0.225668 0
M  V30 1872 H 176.207 -4.57082 2.12349 0
M  V30 1873 H 175.809 -2.86073 2.40911 0
M  V30 1874 H 178.101 -5.88986 3.34817 0
M  V30 1875 H 179.044 -5.26283 4.73743 0
M  V30 1876 H 179.452 -4.73138 3.07898 0
M  V30 1877 N 178.85 -1.27639 -0.924453 0
M  V30 1878 C 180.266 -1.05113 -1.20097 0
M  V30 1879 C 180.466 0.213262 -2.00368 0
M  V30 1880 O 179.522 0.91787 -2.35226 0
M  V30 1881 C 180.835 -2.29244 -1.94596 0
M  V30 1882 C 182.383 -2.34315 -2.07522 0
M  V30 1883 C 182.858 -3.58183 -2.85427 0
M  V30 1884 N 184.349 -3.5876 -2.92994 0
M  V30 1885 C 185.084 -4.51277 -3.53746 0
M  V30 1886 N 184.58 -5.54102 -4.15863 0
M  V30 1887 N 186.373 -4.38894 -3.51181 0
M  V30 1888 H 178.524 -2.08821 -0.388264 0
M  V30 1889 H 180.787 -0.918568 -0.234385 0
M  V30 1890 H 180.493 -3.21301 -1.43034 0
M  V30 1891 H 180.367 -2.34816 -2.95197 0
M  V30 1892 H 182.754 -1.42762 -2.58269 0
M  V30 1893 H 182.835 -2.32744 -1.06131 0
M  V30 1894 H 182.479 -4.50074 -2.35363 0
M  V30 1895 H 182.409 -3.57006 -3.8711 0
M  V30 1896 H 184.9 -2.84398 -2.4885 0
M  V30 1897 H 185.213 -6.20859 -4.60168 0
M  V30 1898 H 183.558 -5.57941 -4.144 0
M  V30 1899 H 186.749 -3.57772 -3.01856 0
M  V30 1900 H 186.922 -5.11186 -3.98237 0
M  V30 1901 N 180.328 1.1314 -1.09713 0
M  V30 1902 C 181.576 1.84119 -0.833338 0
M  V30 1903 C 181.897 1.84097 0.642904 0
M  V30 1904 O 181.167 1.29881 1.46655 0
M  V30 1905 H 179.747 0.681766 -0.305293 0
M  V30 1906 H 182.409 1.37038 -1.38588 0
M  V30 1907 H 181.505 2.88543 -1.18951 0
M  V30 1908 N 181.806 0.884767 1.30421 0
M  V30 1909 C 183.052 0.503851 1.96441 0
M  V30 1910 C 183.385 -0.944518 1.69684 0
M  V30 1911 O 182.66 -1.66737 1.00145 0
M  V30 1912 C 182.943 0.779085 3.51571 0
M  V30 1913 C 182.796 2.27807 3.87846 0
M  V30 1914 C 184.115 0.255452 4.39358 0
M  V30 1915 H 181.234 0.184533 0.713524 0
M  V30 1916 H 183.876 1.10872 1.54297 0
M  V30 1917 H 182.026 0.264274 3.876 0
M  V30 1918 H 183.698 2.86127 3.61841 0
M  V30 1919 H 181.941 2.74479 3.35922 0
M  V30 1920 H 182.612 2.42125 4.96064 0
M  V30 1921 H 185.088 0.696079 4.10236 0
M  V30 1922 H 183.964 0.477361 5.4682 0
M  V30 1923 H 184.225 -0.843293 4.33983 0
M  V30 1924 N 183.284 -1.43765 0.645699 0
M  V30 1925 C 184.232 -2.32516 -0.0624849 0
M  V30 1926 C 185.226 -1.48183 -0.820855 0
M  V30 1927 O 186.432 -1.64439 -0.732106 0
M  V30 1928 H 182.807 -0.750989 -0.0389864 0
M  V30 1929 H 184.778 -2.89979 0.703892 0
M  V30 1930 C 183.527 -3.32389 -1.02044 0
M  V30 1931 H 182.85 -3.97301 -0.446312 0
M  V30 1932 H 184.29 -3.97138 -1.48517 0
M  V30 1933 C 182.749 -2.62416 -2.11281 0
M  V30 1934 O 183.279 -2.434 -3.19561 0
M  V30 1935 N 181.485 -2.21913 -1.87624 0
M  V30 1936 H 181.032 -2.37578 -0.995703 0
M  V30 1937 H 180.99 -1.75424 -2.6091 0
M  V30 1938 N 184.763 -0.387143 -1.52771 0
M  V30 1939 C 186.01 0.195735 -2.01552 0
M  V30 1940 C 186.338 1.46995 -1.27369 0
M  V30 1941 O 185.593 1.92325 -0.361879 0
M  V30 1942 C 185.892 0.512209 -3.53711 0
M  V30 1943 C 185.558 -0.670202 -4.45891 0
M  V30 1944 C 184.22 -0.994586 -4.70809 0
M  V30 1945 C 186.572 -1.46134 -5.00294 0
M  V30 1946 C 183.9 -2.11169 -5.4738 0
M  V30 1947 C 186.252 -2.56903 -5.78086 0
M  V30 1948 C 184.916 -2.89852 -6.01284 0
M  V30 1949 H 184.186 0.0716246 -0.73753 0
M  V30 1950 H 186.833 -0.524046 -1.8419 0
M  V30 1951 H 185.138 1.31329 -3.69134 0
M  V30 1952 H 186.835 0.975804 -3.88946 0
M  V30 1953 H 183.425 -0.407366 -4.2666 0
M  V30 1954 H 187.609 -1.22397 -4.80971 0
M  V30 1955 H 182.865 -2.3707 -5.63567 0
M  V30 1956 H 187.039 -3.18608 -6.19243 0
M  V30 1957 H 184.666 -3.76533 -6.60399 0
M  V30 1958 N 186.241 1.57166 -0.116904 0
M  V30 1959 C 187.189 2.16457 0.851418 0
M  V30 1960 C 188.183 1.11323 1.27686 0
M  V30 1961 O 189.389 1.2963 1.24884 0
M  V30 1962 H 185.764 0.69271 0.292672 0
M  V30 1963 H 187.735 2.96605 0.32685 0
M  V30 1964 C 186.484 2.77689 2.09246 0
M  V30 1965 H 185.807 3.58285 1.77402 0
M  V30 1966 H 187.247 3.22716 2.7501 0
M  V30 1967 C 185.706 1.74667 2.88085 0
M  V30 1968 O 186.236 1.19877 3.83396 0
M  V30 1969 N 184.442 1.44656 2.52038 0
M  V30 1970 H 183.989 1.89402 1.74599 0
M  V30 1971 H 183.947 0.759675 3.05084 0
M  V30 1972 N 187.719 -0.156864 1.56817 0
M  V30 1973 C 188.965 -0.872416 1.83076 0
M  V30 1974 C 189.298 -1.81261 0.697001 0
M  V30 1975 O 188.573 -1.92171 -0.30008 0
M  V30 1976 C 188.856 -1.65551 3.19789 0
M  V30 1977 C 188.709 -0.737467 4.43713 0
M  V30 1978 C 190.028 -2.62012 3.53606 0
M  V30 1979 H 187.147 -0.315715 0.665953 0
M  V30 1980 H 189.789 -0.138004 1.89498 0
M  V30 1981 H 187.939 -2.28159 3.14445 0
M  V30 1982 H 189.611 -0.123143 4.61136 0
M  V30 1983 H 187.854 -0.0464067 4.33775 0
M  V30 1984 H 188.525 -1.32122 5.35955 0
M  V30 1985 H 191.001 -2.09525 3.59497 0
M  V30 1986 H 189.877 -3.13861 4.50314 0
M  V30 1987 H 190.138 -3.42902 2.79053 0
M  V30 1988 N 189.197 -1.51736 -0.425897 0
M  V30 1989 C 190.422 -1.69082 -1.20108 0
M  V30 1990 C 190.847 -0.392398 -1.83962 0
M  V30 1991 O 190.205 0.64858 -1.69302 0
M  V30 1992 C 190.253 -2.81604 -2.25237 0
M  V30 1993 O 189.357 -2.46004 -3.30992 0
M  V30 1994 H 188.698 -0.563408 -0.35138 0
M  V30 1995 H 191.228 -1.98358 -0.501512 0
M  V30 1996 H 191.238 -3.06025 -2.69838 0
M  V30 1997 H 189.913 -3.75817 -1.78142 0
M  V30 1998 H 188.49 -2.32195 -2.91787 0
M  V30 1999 N 190.675 0.682077 -1.42076 0
M  V30 2000 C 191.622 1.79578 -1.44984 0
M  V30 2001 C 192.592 1.6332 -0.302614 0
M  V30 2002 O 193.777 1.83978 -0.505633 0
M  V30 2003 C 190.917 3.1756 -1.35091 0
M  V30 2004 C 190.03 3.45156 -2.59791 0
M  V30 2005 C 189.165 4.72826 -2.42093 0
M  V30 2006 C 188.204 4.93433 -3.62202 0
M  V30 2007 N 187.341 6.12338 -3.43491 0
M  V30 2008 H 192.181 1.76427 -2.40161 0
M  V30 2009 H 189.718 0.861376 -1.19242 0
M  V30 2010 H 191.676 3.97287 -1.27354 0
M  V30 2011 H 190.306 3.19854 -0.435133 0
M  V30 2012 H 189.358 2.59736 -2.77923 0
M  V30 2013 H 190.67 3.5628 -3.49094 0
M  V30 2014 H 189.824 5.60631 -2.319 0
M  V30 2015 H 188.563 4.63973 -1.50268 0
M  V30 2016 H 187.568 4.04073 -3.72834 0
M  V30 2017 H 188.793 5.04136 -4.54998 0
M  V30 2018 H 186.739 6.04672 -2.54377 0
M  V30 2019 H 186.656 6.2429 -4.26377 0
M  V30 2020 H 187.924 7.02841 -3.37097 0
M  V30 2021 N 192.153 1.28127 0.917671 0
M  V30 2022 C 193.399 1.15223 1.66888 0
M  V30 2023 C 193.732 -0.299293 1.9188 0
M  V30 2024 O 193.007 -1.21805 1.51637 0
M  V30 2025 C 193.29 1.94706 3.02922 0
M  V30 2026 C 193.143 3.47898 2.85109 0
M  V30 2027 C 194.462 1.75939 4.03402 0
M  V30 2028 H 191.581 0.419946 0.605652 0
M  V30 2029 H 194.223 1.57398 1.06423 0
M  V30 2030 H 192.373 1.58864 3.54534 0
M  V30 2031 H 194.045 3.93624 2.40537 0
M  V30 2032 H 192.288 3.7373 2.20246 0
M  V30 2033 H 192.959 3.98765 3.81694 0
M  V30 2034 H 195.435 2.07209 3.60837 0
M  V30 2035 H 194.311 2.33931 4.96556 0
M  V30 2036 H 194.572 0.709877 4.36364 0
M  V30 2037 N 193.631 -1.12557 1.10312 0
M  V30 2038 C 194.856 -1.88405 0.867085 0
M  V30 2039 C 195.281 -1.79038 -0.576817 0
M  V30 2040 O 194.639 -1.14439 -1.40618 0
M  V30 2041 C 194.687 -3.3563 1.31851 0
M  V30 2042 O 193.791 -4.09565 0.482734 0
M  V30 2043 H 193.132 -0.585455 0.313271 0
M  V30 2044 H 195.662 -1.42352 1.4696 0
M  V30 2045 H 195.672 -3.86469 1.3079 0
M  V30 2046 H 194.347 -3.41765 2.37001 0
M  V30 2047 H 192.924 -3.68695 0.558448 0
M  V30 2048 N 195.109 -0.891671 -1.2995 0
M  V30 2049 C 196.334 -0.527932 -2.00568 0
M  V30 2050 C 196.759 0.877969 -1.66353 0
M  V30 2051 O 196.117 1.58301 -0.883762 0
M  V30 2052 C 196.165 -0.717745 -3.53385 0
M  V30 2053 O 195.269 0.233376 -4.11739 0
M  V30 2054 H 194.61 -0.20722 -0.630837 0
M  V30 2055 H 197.14 -1.20105 -1.65638 0
M  V30 2056 H 197.15 -0.619307 -4.03272 0
M  V30 2057 H 195.825 -1.74276 -3.77625 0
M  V30 2058 H 194.402 0.0880706 -3.72796 0
M  V30 2059 N 196.587 1.43421 -0.653314 0
M  V30 2060 C 197.833 2.02111 -0.166992 0
M  V30 2061 C 198.166 1.51423 1.21592 0
M  V30 2062 O 197.441 0.707389 1.8118 0
M  V30 2063 C 197.724 3.5966 -0.177948 0
M  V30 2064 C 197.577 4.20579 -1.59478 0
M  V30 2065 C 198.896 4.37413 0.4856 0
M  V30 2066 H 196.015 0.734374 -0.0621557 0
M  V30 2067 H 198.657 1.70717 -0.834016 0
M  V30 2068 H 196.807 3.86537 0.390032 0
M  V30 2069 H 198.479 4.04732 -2.21336 0
M  V30 2070 H 196.722 3.77226 -2.14204 0
M  V30 2071 H 197.393 5.29665 -1.5543 0
M  V30 2072 H 199.869 4.161 0.00234528 0
M  V30 2073 H 198.745 5.47075 0.447207 0
M  V30 2074 H 199.006 4.13672 1.55974 0
M  V30 2075 N 198.065 0.39524 1.52563 0
M  V30 2076 C 198.975 -0.444232 2.30356 0
M  V30 2077 C 199.991 -1.06615 1.37511 0
M  V30 2078 O 201.167 -1.07067 1.70583 0
M  V30 2079 C 198.232 -1.55315 3.09964 0
M  V30 2080 C 197.293 -0.955734 4.18526 0
M  V30 2081 C 196.526 -2.01181 4.9433 0
M  V30 2082 O 196.749 -3.22781 4.70285 0
M  V30 2083 O 195.683 -1.62579 5.79527 0
M  V30 2084 H 199.509 0.189667 3.03107 0
M  V30 2085 H 197.094 0.1588 1.48554 0
M  V30 2086 H 198.976 -2.19724 3.59582 0
M  V30 2087 H 197.651 -2.17191 2.4002 0
M  V30 2088 H 196.558 -0.274743 3.7309 0
M  V30 2089 H 197.891 -0.381109 4.90722 0
M  V30 2090 N 199.544 -1.57102 0.125237 0
M  V30 2091 C 200.454 -2.19191 -0.8362 0
M  V30 2092 C 201.47 -1.16985 -1.28805 0
M  V30 2093 O 202.646 -1.49479 -1.34974 0
M  V30 2094 C 199.711 -2.78407 -2.06617 0
M  V30 2095 C 198.772 -3.9567 -1.66565 0
M  V30 2096 C 198.005 -4.52052 -2.83698 0
M  V30 2097 O 198.228 -4.07326 -3.99302 0
M  V30 2098 O 197.162 -5.42645 -2.60423 0
M  V30 2099 H 200.988 -3.01816 -0.337776 0
M  V30 2100 H 198.573 -1.4906 -0.100695 0
M  V30 2101 H 200.455 -3.16129 -2.7864 0
M  V30 2102 H 199.13 -1.9881 -2.55453 0
M  V30 2103 H 198.037 -3.62705 -0.916296 0
M  V30 2104 H 199.37 -4.76722 -1.22464 0
M  V30 2105 N 201.022 0.148545 -1.56898 0
M  V30 2106 C 202.262 0.86765 -1.85071 0
M  V30 2107 C 202.626 1.78417 -0.709317 0
M  V30 2108 O 203.827 2.54261 -0.872049 0
M  V30 2109 C 202.098 1.62306 -3.1842 0
M  V30 2110 S 203.657 2.3878 -3.68143 0
M  V30 2111 H 200.475 0.290174 -0.649092 0
M  V30 2112 H 203.077 0.127755 -1.95082 0
M  V30 2113 H 201.781 0.941192 -3.99462 0
M  V30 2114 H 201.312 2.4039 -3.1141 0
M  V30 2115 H 203.327 3.63942 -3.37285 0
M  V30 2116 N 202.5 1.5196 0.417844 0
M  V30 2117 C 203.432 1.70895 1.52733 0
M  V30 2118 C 204.445 0.589405 1.51756 0
M  V30 2119 O 205.634 0.864312 1.56179 0
M  V30 2120 C 202.734 1.72627 2.91639 0
M  V30 2121 C 201.907 3.01479 3.16905 0
M  V30 2122 C 200.966 2.95139 4.35637 0
M  V30 2123 O 199.992 3.69059 4.3334 0
M  V30 2124 N 201.194 2.12328 5.40275 0
M  V30 2125 H 203.959 2.66612 1.36888 0
M  V30 2126 H 201.52 1.50089 0.607037 0
M  V30 2127 H 203.512 1.65928 3.6912 0
M  V30 2128 H 202.082 0.844216 3.00985 0
M  V30 2129 H 201.302 3.21895 2.27546 0
M  V30 2130 H 202.59 3.86736 3.30625 0
M  V30 2131 H 201.988 1.51685 5.44985 0
M  V30 2132 H 200.545 2.11494 6.16534 0
M  V30 2133 N 203.978 -0.674533 1.42435 0
M  V30 2134 C 204.925 -1.78807 1.45934 0
M  V30 2135 C 205.895 -1.63157 0.311271 0
M  V30 2136 O 207.08 -1.83707 0.515383 0
M  V30 2137 C 204.22 -3.16839 1.36773 0
M  V30 2138 C 203.333 -3.43774 2.61617 0
M  V30 2139 C 202.468 -4.71536 2.44597 0
M  V30 2140 C 201.507 -4.91505 3.64814 0
M  V30 2141 N 200.644 -6.10508 3.46734 0
M  V30 2142 H 205.484 -1.75151 2.41093 0
M  V30 2143 H 203.021 -0.85504 1.19697 0
M  V30 2144 H 204.979 -3.96606 1.29459 0
M  V30 2145 H 203.609 -3.19619 0.452089 0
M  V30 2146 H 202.661 -2.58259 2.79297 0
M  V30 2147 H 203.973 -3.54423 3.50978 0
M  V30 2148 H 203.127 -5.59393 2.3487 0
M  V30 2149 H 201.866 -4.6317 1.52726 0
M  V30 2150 H 200.871 -4.0209 3.74972 0
M  V30 2151 H 202.096 -5.01716 4.57665 0
M  V30 2152 H 200.042 -6.03315 2.5758 0
M  V30 2153 H 199.959 -6.2202 4.29682 0
M  V30 2154 H 201.227 -7.01044 3.40819 0
M  V30 2155 N 205.456 -1.28612 -0.910864 0
M  V30 2156 C 206.872 -1.06381 -1.18976 0
M  V30 2157 C 207.072 0.191998 -2.00583 0
M  V30 2158 O 206.128 0.892869 -2.36187 0
M  V30 2159 C 207.441 -2.31295 -1.92154 0
M  V30 2160 C 208.989 -2.36503 -2.05025 0
M  V30 2161 C 209.464 -3.61191 -2.81612 0
M  V30 2162 N 210.955 -3.61847 -2.89172 0
M  V30 2163 C 211.69 -4.55004 -3.4894 0
M  V30 2164 N 211.186 -5.58482 -4.09963 0
M  V30 2165 N 212.979 -4.42594 -3.46506 0
M  V30 2166 H 205.13 -2.09221 -0.366094 0
M  V30 2167 H 207.393 -0.921003 -0.224629 0
M  V30 2168 H 207.099 -3.228 -1.39618 0
M  V30 2169 H 206.973 -2.37934 -2.9269 0
M  V30 2170 H 209.36 -1.45494 -2.5674 0
M  V30 2171 H 209.441 -2.33857 -1.03657 0
M  V30 2172 H 209.085 -4.52545 -2.30576 0
M  V30 2173 H 209.015 -3.61092 -3.83302 0
M  V30 2174 H 211.506 -2.87022 -2.45819 0
M  V30 2175 H 211.819 -6.25704 -4.53557 0
M  V30 2176 H 210.164 -5.62305 -4.08459 0
M  V30 2177 H 213.355 -3.60953 -2.98045 0
M  V30 2178 H 213.528 -5.15381 -3.92793 0
M  V30 2179 N 206.934 1.1197 -1.10907 0
M  V30 2180 C 208.174 1.85224 -0.864378 0
M  V30 2181 C 208.538 1.82411 0.599178 0
M  V30 2182 O 209.739 2.51057 0.960416 0
M  V30 2183 C 208.01 3.2868 -1.40371 0
M  V30 2184 S 209.569 4.1925 -1.29518 0
M  V30 2185 H 206.387 0.63878 -0.312219 0
M  V30 2186 H 208.989 1.3485 -1.41548 0
M  V30 2187 H 207.693 3.28289 -2.46281 0
M  V30 2188 H 207.224 3.84121 -0.849402 0
M  V30 2189 H 209.239 4.95539 -0.256059 0
M  V30 2190 N 208.412 0.89855 1.29475 0
M  V30 2191 C 209.64 0.539261 1.99749 0
M  V30 2192 C 210.055 -0.875716 1.67262 0
M  V30 2193 O 209.412 -1.57786 0.917049 0
M  V30 2194 C 209.463 0.72061 3.54245 0
M  V30 2195 O 209.184 2.07989 3.8558 0
M  V30 2196 C 210.685 0.366118 4.41786 0
M  V30 2197 H 207.905 0.207047 0.638258 0
M  V30 2198 H 210.449 1.20758 1.65039 0
M  V30 2199 H 208.604 0.0994862 3.87272 0
M  V30 2200 H 209.018 2.10841 4.80257 0
M  V30 2201 H 210.492 0.543848 5.49314 0
M  V30 2202 H 210.969 -0.696763 4.33638 0
M  V30 2203 H 211.575 0.964135 4.14228 0
M  V30 2204 N 209.89 -1.43072 0.660911 0
M  V30 2205 C 210.838 -2.32569 -0.0378199 0
M  V30 2206 C 211.832 -1.49046 -0.805092 0
M  V30 2207 O 213.038 -1.65206 -0.714624 0
M  V30 2208 H 209.413 -0.75136 -0.031019 0
M  V30 2209 H 211.384 -2.89216 0.734609 0
M  V30 2210 C 210.133 -3.33453 -0.985124 0
M  V30 2211 H 209.456 -3.97752 -0.404147 0
M  V30 2212 H 210.896 -3.98691 -1.44297 0
M  V30 2213 C 209.355 -2.64642 -2.08486 0
M  V30 2214 O 209.885 -2.46776 -3.16961 0
M  V30 2215 N 208.091 -2.23891 -1.8526 0
M  V30 2216 H 207.638 -2.38621 -0.970449 0
M  V30 2217 H 207.596 -1.78181 -2.59034 0
M  V30 2218 N 211.368 -0.403325 -1.52352 0
M  V30 2219 C 212.316 0.439752 -2.28405 0
M  V30 2220 C 213.31 1.05089 -1.32863 0
M  V30 2221 O 214.516 0.989759 -1.50345 0
M  V30 2222 H 210.891 0.160587 -0.734653 0
M  V30 2223 H 212.862 -0.222983 -2.97566 0
M  V30 2224 C 211.611 1.54736 -3.11371 0
M  V30 2225 H 210.934 1.08643 -3.84755 0
M  V30 2226 H 212.374 2.1112 -3.67701 0
M  V30 2227 C 210.833 2.51141 -2.24566 0
M  V30 2228 O 211.363 3.54887 -1.88196 0
M  V30 2229 N 209.569 2.21213 -1.8845 0
M  V30 2230 H 209.116 1.36878 -2.18225 0
M  V30 2231 H 209.074 2.85963 -1.30662 0
M  V30 2232 N 212.846 1.57033 -0.133567 0
M  V30 2233 C 214.095 1.94861 0.520768 0
M  V30 2234 C 214.408 1.02012 1.66892 0
M  V30 2235 O 215.614 1.29365 2.38699 0
M  V30 2236 C 214.07 3.46362 0.977809 0
M  V30 2237 C 213.678 4.47773 -0.142674 0
M  V30 2238 C 215.422 3.93083 1.60269 0
M  V30 2239 C 213.329 5.90468 0.331883 0
M  V30 2240 H 212.259 0.727453 0.198315 0
M  V30 2241 H 214.91 1.82227 -0.215759 0
M  V30 2242 H 213.292 3.54282 1.7692 0
M  V30 2243 H 214.466 4.51536 -0.919317 0
M  V30 2244 H 212.781 4.10891 -0.675124 0
M  V30 2245 H 215.378 4.97121 1.96914 0
M  V30 2246 H 215.721 3.33876 2.48662 0
M  V30 2247 H 216.254 3.88025 0.876453 0
M  V30 2248 H 212.993 6.53463 -0.516341 0
M  V30 2249 H 212.513 5.90094 1.07469 0
M  V30 2250 H 214.192 6.42179 0.788332 0
M  V30 2251 N 214.325 -0.140222 1.56975 0
M  V30 2252 C 215.741 -0.493088 1.51792 0
M  V30 2253 C 215.941 -1.83013 0.843116 0
M  V30 2254 O 214.997 -2.49041 0.416493 0
M  V30 2255 C 216.31 -0.497144 2.96562 0
M  V30 2256 C 217.858 -0.582186 3.07538 0
M  V30 2257 C 218.333 -0.616838 4.53827 0
M  V30 2258 N 219.824 -0.678873 4.58198 0
M  V30 2259 C 220.559 -0.726782 5.68775 0
M  V30 2260 N 220.055 -0.733623 6.88905 0
M  V30 2261 N 221.848 -0.768179 5.56826 0
M  V30 2262 H 213.999 0.736108 1.99237 0
M  V30 2263 H 216.262 0.269182 0.90898 0
M  V30 2264 H 215.968 0.417217 3.49217 0
M  V30 2265 H 215.842 -1.33263 3.52875 0
M  V30 2266 H 218.229 -1.48697 2.54899 0
M  V30 2267 H 218.31 0.280581 2.54257 0
M  V30 2268 H 217.954 0.283812 5.07106 0
M  V30 2269 H 217.884 -1.49619 5.04898 0
M  V30 2270 H 220.375 -0.68061 3.7172 0
M  V30 2271 H 220.688 -0.772215 7.68932 0
M  V30 2272 H 219.033 -0.701389 6.91452 0
M  V30 2273 H 222.224 -0.760051 4.61888 0
M  V30 2274 H 222.397 -0.80205 6.43017 0
M  V30 2275 N 215.803 -1.52179 -0.40978 0
M  V30 2276 C 217.043 -1.67882 -1.16597 0
M  V30 2277 C 217.407 -0.399795 -1.87791 0
M  V30 2278 O 218.608 -0.43292 -2.65291 0
M  V30 2279 C 216.879 -2.86662 -2.13448 0
M  V30 2280 S 218.438 -3.22843 -2.97183 0
M  V30 2281 H 215.256 -0.59118 -0.395002 0
M  V30 2282 H 217.858 -1.9017 -0.453373 0
M  V30 2283 H 216.562 -3.77998 -1.59831 0
M  V30 2284 H 216.093 -2.66645 -2.89247 0
M  V30 2285 H 218.108 -2.71415 -4.15389 0
M  V30 2286 N 217.281 0.66697 -1.42791 0
M  V30 2287 C 218.213 1.7925 -1.42836 0
M  V30 2288 C 219.226 1.59496 -0.326333 0
M  V30 2289 O 220.415 1.6847 -0.589916 0
M  V30 2290 C 217.515 3.16476 -1.21229 0
M  V30 2291 C 216.688 3.63011 -2.44013 0
M  V30 2292 C 215.747 4.78993 -2.17834 0
M  V30 2293 O 214.773 4.89137 -2.91091 0
M  V30 2294 N 215.975 5.68248 -1.18635 0
M  V30 2295 H 218.74 1.79695 -2.39854 0
M  V30 2296 H 216.301 0.850338 -1.37771 0
M  V30 2297 H 218.293 3.91734 -1.01621 0
M  V30 2298 H 216.863 3.10884 -0.32706 0
M  V30 2299 H 216.083 2.78346 -2.79137 0
M  V30 2300 H 217.371 3.90845 -3.25757 0
M  V30 2301 H 216.769 5.62712 -0.580615 0
M  V30 2302 H 215.326 6.43285 -1.05013 0
M  V30 2303 N 218.759 1.29093 0.90403 0
M  V30 2304 C 220.006 1.16813 1.65411 0
M  V30 2305 C 220.334 -0.28128 1.92455 0
M  V30 2306 O 219.589 -1.22006 1.53013 0
M  V30 2307 C 219.888 1.92224 3.01305 0
M  V30 2308 C 219.554 3.41968 2.93885 0
M  V30 2309 C 218.216 3.82807 2.91569 0
M  V30 2310 C 220.568 4.37409 2.83413 0
M  V30 2311 C 217.896 5.1741 2.76594 0
M  V30 2312 C 220.248 5.72097 2.69977 0
M  V30 2313 C 218.912 6.12199 2.66024 0
M  V30 2314 H 218.182 0.42745 0.605283 0
M  V30 2315 H 220.829 1.59981 1.05254 0
M  V30 2316 H 219.134 1.41635 3.65304 0
M  V30 2317 H 220.831 1.80131 3.58265 0
M  V30 2318 H 217.421 3.09504 2.96488 0
M  V30 2319 H 221.605 4.06813 2.84283 0
M  V30 2320 H 216.861 5.47596 2.71935 0
M  V30 2321 H 221.035 6.45704 2.60844 0
M  V30 2322 H 218.662 7.16448 2.54178 0
M  V30 2323 N 220.237 -1.11381 1.11499 0
M  V30 2324 C 221.484 -1.83132 0.864231 0
M  V30 2325 C 221.812 -1.84683 -0.610114 0
M  V30 2326 O 221.067 -1.29589 -1.46646 0
M  V30 2327 C 221.366 -3.30026 1.37177 0
M  V30 2328 C 221.032 -3.48634 2.85946 0
M  V30 2329 C 219.694 -3.53421 3.26569 0
M  V30 2330 C 222.046 -3.54837 3.81759 0
M  V30 2331 C 219.374 -3.61967 4.61733 0
M  V30 2332 C 221.726 -3.64915 5.1674 0
M  V30 2333 C 220.39 -3.67962 5.5692 0
M  V30 2334 H 219.66 -0.670127 0.316245 0
M  V30 2335 H 222.307 -1.31354 1.3935 0
M  V30 2336 H 220.612 -3.84304 0.762753 0
M  V30 2337 H 222.309 -3.84034 1.15408 0
M  V30 2338 H 218.899 -3.45579 2.53521 0
M  V30 2339 H 223.083 -3.50399 3.51474 0
M  V30 2340 H 218.339 -3.62603 4.92269 0
M  V30 2341 H 222.513 -3.68658 5.90816 0
M  V30 2342 H 220.14 -3.74336 6.61647 0
M  V30 2343 N 221.715 -0.905404 -1.28997 0
M  V30 2344 C 222.94 -0.549175 -1.99997 0
M  V30 2345 C 223.365 0.860276 -1.67275 0
M  V30 2346 O 222.723 1.57355 -0.900502 0
M  V30 2347 C 222.771 -0.755185 -3.52604 0
M  V30 2348 O 221.875 0.189692 -4.11964 0
M  V30 2349 H 221.216 -0.213899 -0.628604 0
M  V30 2350 H 223.746 -1.21856 -1.64354 0
M  V30 2351 H 223.756 -0.662045 -4.02593 0
M  V30 2352 H 222.431 -1.78271 -3.75755 0
M  V30 2353 H 221.008 0.0485257 -3.72868 0
M  V30 2354 N 223.193 1.4272 -0.668489 0
M  V30 2355 C 224.423 2.05668 -0.196063 0
M  V30 2356 C 224.831 1.5028 1.14946 0
M  V30 2357 O 224.174 0.6348 1.72383 0
M  V30 2358 C 224.236 3.59469 -0.0468879 0
M  V30 2359 C 223.9 4.37518 -1.32012 0
M  V30 2360 C 224.897 4.68584 -2.25222 0
M  V30 2361 C 222.582 4.77266 -1.56596 0
M  V30 2362 C 224.576 5.38326 -3.41297 0
M  V30 2363 C 222.263 5.4675 -2.72962 0
M  V30 2364 C 223.261 5.77204 -3.65137 0
M  V30 2365 O 222.949 6.45264 -4.79468 0
M  V30 2366 H 222.681 0.669382 -0.0943599 0
M  V30 2367 H 225.235 1.83954 -0.913788 0
M  V30 2368 H 223.465 3.79817 0.726357 0
M  V30 2369 H 225.154 4.04071 0.384852 0
M  V30 2370 H 225.92 4.38382 -2.07477 0
M  V30 2371 H 221.799 4.52959 -0.857249 0
M  V30 2372 H 225.343 5.62014 -4.13263 0
M  V30 2373 H 221.24 5.76369 -2.90635 0
M  V30 2374 H 222.008 6.63753 -4.78931 0
M  V30 2375 N 224.671 0.411399 1.52136 0
M  V30 2376 C 225.634 -0.401089 2.25663 0
M  V30 2377 C 226.634 -0.971732 1.28117 0
M  V30 2378 O 227.824 -0.850254 1.52041 0
M  V30 2379 C 224.956 -1.56483 3.02863 0
M  V30 2380 H 226.149 0.24295 2.98914 0
M  V30 2381 H 223.702 0.163968 1.55438 0
M  V30 2382 H 224.437 -2.24567 2.33967 0
M  V30 2383 H 224.222 -1.16211 3.74483 0
M  V30 2384 H 225.712 -2.13951 3.58629 0
M  V30 2385 N 226.149 -1.5696 0.141893 0
M  V30 2386 C 227.377 -2.00322 -0.517579 0
M  V30 2387 C 227.792 -1.02193 -1.58752 0
M  V30 2388 O 227.149 -0.0181619 -1.82491 0
M  V30 2389 C 227.2 -3.43618 -1.12289 0
M  V30 2390 O 226.921 -4.37995 -0.0956929 0
M  V30 2391 C 228.422 -4.02231 -1.86347 0
M  V30 2392 H 225.642 -0.657243 -0.135177 0
M  V30 2393 H 228.186 -2.03146 0.234973 0
M  V30 2394 H 226.341 -3.41662 -1.82609 0
M  V30 2395 H 226.755 -5.21729 -0.538469 0
M  V30 2396 H 228.229 -5.04509 -2.23997 0
M  V30 2397 H 228.706 -3.42655 -2.74744 0
M  V30 2398 H 229.312 -4.07802 -1.20737 0
M  V30 2399 N 227.627 0.131896 -1.57047 0
M  V30 2400 C 228.559 1.1878 -1.9602 0
M  V30 2401 C 229.572 1.38363 -0.857875 0
M  V30 2402 O 230.761 1.37666 -1.13623 0
M  V30 2403 C 227.861 2.55008 -2.23213 0
M  V30 2404 C 227.034 2.56201 -3.54513 0
M  V30 2405 C 226.093 3.7408 -3.70069 0
M  V30 2406 O 225.119 3.58258 -4.42312 0
M  V30 2407 N 226.321 4.92137 -3.07866 0
M  V30 2408 H 229.086 0.85639 -2.87204 0
M  V30 2409 H 226.647 0.321309 -1.5868 0
M  V30 2410 H 228.639 3.32404 -2.30846 0
M  V30 2411 H 227.209 2.80382 -1.3822 0
M  V30 2412 H 226.429 1.64613 -3.58185 0
M  V30 2413 H 227.717 2.54043 -4.4084 0
M  V30 2414 H 227.115 5.07895 -2.49116 0
M  V30 2415 H 225.672 5.67254 -3.21039 0
M  V30 2416 N 229.106 1.52395 0.401703 0
M  V30 2417 C 230.334 1.70676 1.16949 0
M  V30 2418 C 230.749 0.419503 1.8408 0
M  V30 2419 O 230.106 -0.605061 1.72178 0
M  V30 2420 C 230.157 2.84753 2.22706 0
M  V30 2421 O 229.878 4.08495 1.58314 0
M  V30 2422 C 231.379 3.14608 3.12309 0
M  V30 2423 H 228.599 0.571787 0.351142 0
M  V30 2424 H 231.143 1.98987 0.471652 0
M  V30 2425 H 229.298 2.58941 2.88147 0
M  V30 2426 H 229.712 4.72117 2.28485 0
M  V30 2427 H 231.186 3.97923 3.82572 0
M  V30 2428 H 231.663 2.28464 3.75101 0
M  V30 2429 H 232.269 3.42212 2.52529 0
M  V30 2430 N 230.584 -0.659388 1.43143 0
M  V30 2431 C 231.831 -1.41935 1.44433 0
M  V30 2432 C 232.159 -1.94387 0.0663522 0
M  V30 2433 O 231.414 -1.72314 -0.927706 0
M  V30 2434 C 231.713 -2.62206 2.42864 0
M  V30 2435 C 231.379 -2.28208 3.88886 0
M  V30 2436 C 230.041 -2.18647 4.28657 0
M  V30 2437 C 232.393 -2.00887 4.8093 0
M  V30 2438 C 229.721 -1.79914 5.58433 0
M  V30 2439 C 232.073 -1.63653 6.11065 0
M  V30 2440 C 230.737 -1.52614 6.49819 0
M  V30 2441 H 230.007 -0.519376 0.528517 0
M  V30 2442 H 232.654 -0.750453 1.76183 0
M  V30 2443 H 230.959 -3.34199 2.04495 0
M  V30 2444 H 232.656 -3.2041 2.41119 0
M  V30 2445 H 229.246 -2.36557 3.57406 0
M  V30 2446 H 233.43 -2.07198 4.5098 0
M  V30 2447 H 228.686 -1.69948 5.87305 0
M  V30 2448 H 232.86 -1.41543 6.81864 0
M  V30 2449 H 230.487 -1.22371 7.50286 0
M  V30 2450 N 232.062 -1.29571 -0.897171 0
M  V30 2451 C 233.012 -1.11539 -1.98855 0
M  V30 2452 C 233.996 -0.0340716 -1.60864 0
M  V30 2453 O 235.188 -0.256062 -1.75138 0
M  V30 2454 C 232.317 -0.796603 -3.3393 0
M  V30 2455 C 231.403 -1.91758 -3.78272 0
M  V30 2456 N 231.794 -3.16143 -3.94826 0
M  V30 2457 C 230.092 -1.81119 -4.07568 0
M  V30 2458 C 230.793 -3.89293 -4.32233 0
M  V30 2459 N 229.769 -3.17255 -4.41419 0
M  V30 2460 H 233.571 -2.05894 -2.09726 0
M  V30 2461 H 231.085 -1.20732 -1.08616 0
M  V30 2462 H 233.082 -0.648459 -4.11826 0
M  V30 2463 H 231.742 0.139003 -3.24402 0
M  V30 2464 H 232.753 -3.5157 -3.80288 0
M  V30 2465 H 229.43 -0.948461 -4.06584 0
M  V30 2466 H 230.82 -4.9635 -4.52865 0
M  V30 2467 N 233.54 1.10788 -1.12088 0
M  V30 2468 C 234.487 2.17025 -0.785407 0
M  V30 2469 C 235.457 1.64265 0.246191 0
M  V30 2470 O 236.642 1.90412 0.121584 0
M  V30 2471 C 233.782 3.44249 -0.242177 0
M  V30 2472 C 232.895 4.1098 -1.33115 0
M  V30 2473 C 232.03 5.25911 -0.747741 0
M  V30 2474 C 231.069 5.84538 -1.81609 0
M  V30 2475 N 230.206 6.90853 -1.25167 0
M  V30 2476 H 235.046 2.45066 -1.69548 0
M  V30 2477 H 232.583 1.20297 -0.846582 0
M  V30 2478 H 234.541 4.17101 0.0908026 0
M  V30 2479 H 233.171 3.16571 0.631072 0
M  V30 2480 H 232.223 3.36133 -1.78097 0
M  V30 2481 H 233.535 4.50601 -2.13917 0
M  V30 2482 H 232.689 6.056 -0.365216 0
M  V30 2483 H 231.428 4.87614 0.0915188 0
M  V30 2484 H 230.433 5.03522 -2.20785 0
M  V30 2485 H 231.658 6.249 -2.6585 0
M  V30 2486 H 229.604 6.54562 -0.434174 0
M  V30 2487 H 229.521 7.29166 -1.99633 0
M  V30 2488 H 230.789 7.7433 -0.896259 0
M  V30 2489 N 235.018 0.912232 1.28515 0
M  V30 2490 C 235.981 0.404223 2.25607 0
M  V30 2491 C 236.981 -0.468602 1.53821 0
M  V30 2492 O 238.171 -0.271873 1.72065 0
M  V30 2493 C 235.303 -0.420653 3.38295 0
M  V30 2494 H 236.496 1.26188 2.7206 0
M  V30 2495 H 234.049 0.691495 1.40171 0
M  V30 2496 H 234.784 -1.29777 2.97201 0
M  V30 2497 H 234.569 0.204935 3.91564 0
M  V30 2498 H 236.059 -0.766971 4.10496 0
M  V30 2499 N 236.496 -1.42363 0.676048 0
M  V30 2500 C 237.406 -2.346 -0.00153389 0
M  V30 2501 C 238.422 -1.5516 -0.787485 0
M  V30 2502 O 239.598 -1.87723 -0.729521 0
M  V30 2503 C 236.663 -3.33705 -0.940298 0
M  V30 2504 C 235.724 -4.29042 -0.148739 0
M  V30 2505 C 234.957 -5.23413 -1.04279 0
M  V30 2506 O 235.18 -5.22749 -2.28232 0
M  V30 2507 O 234.114 -5.99795 -0.502925 0
M  V30 2508 H 237.94 -2.94082 0.758268 0
M  V30 2509 H 235.525 -1.42888 0.436289 0
M  V30 2510 H 237.407 -3.94586 -1.47917 0
M  V30 2511 H 236.082 -2.76695 -1.67993 0
M  V30 2512 H 234.989 -3.71571 0.43427 0
M  V30 2513 H 236.322 -4.89097 0.551805 0
M  V30 2514 N 237.974 -0.419461 -1.51915 0
M  V30 2515 C 239.204 0.151915 -2.06041 0
M  V30 2516 C 239.612 1.38539 -1.28855 0
M  V30 2517 O 238.955 1.80592 -0.336463 0
M  V30 2518 C 239.017 0.557119 -3.55157 0
M  V30 2519 C 238.681 -0.567054 -4.53468 0
M  V30 2520 C 239.678 -1.43379 -4.99738 0
M  V30 2521 C 237.363 -0.742693 -4.96779 0
M  V30 2522 C 239.357 -2.46102 -5.87973 0
M  V30 2523 C 237.044 -1.77322 -5.84808 0
M  V30 2524 C 238.042 -2.63078 -6.30301 0
M  V30 2525 O 237.73 -3.64364 -7.16585 0
M  V30 2526 H 237.462 0.0193293 -0.675724 0
M  V30 2527 H 240.016 -0.592073 -1.96682 0
M  V30 2528 H 238.246 1.35355 -3.62238 0
M  V30 2529 H 239.935 1.05759 -3.9188 0
M  V30 2530 H 240.701 -1.30954 -4.66986 0
M  V30 2531 H 236.58 -0.0848307 -4.60922 0
M  V30 2532 H 240.124 -3.13071 -6.23404 0
M  V30 2533 H 236.021 -1.89773 -6.16974 0
M  V30 2534 H 236.789 -3.60731 -7.34721 0
M  V30 2535 N 239.452 1.56882 -0.150215 0
M  V30 2536 C 240.868 1.58263 0.20617 0
M  V30 2537 C 241.068 1.16464 1.64434 0
M  V30 2538 O 240.124 0.866422 2.3717 0
M  V30 2539 C 241.437 3.00649 -0.0555025 0
M  V30 2540 C 242.985 3.12999 0.00795388 0
M  V30 2541 C 243.46 4.5744 -0.226429 0
M  V30 2542 N 244.951 4.62875 -0.173469 0
M  V30 2543 C 245.686 5.72454 -0.329288 0
M  V30 2544 N 245.182 6.90669 -0.543005 0
M  V30 2545 N 246.975 5.61467 -0.266666 0
M  V30 2546 H 239.126 1.82345 -1.08922 0
M  V30 2547 H 241.389 0.844149 -0.431413 0
M  V30 2548 H 241.095 3.3563 -1.05096 0
M  V30 2549 H 240.969 3.71337 0.66246 0
M  V30 2550 H 243.356 2.77857 0.993966 0
M  V30 2551 H 243.437 2.4479 -0.742388 0
M  V30 2552 H 243.081 4.93287 -1.20956 0
M  V30 2553 H 243.011 5.2378 0.544274 0
M  V30 2554 H 245.502 3.77898 -0.0130709 0
M  V30 2555 H 245.815 7.70045 -0.651922 0
M  V30 2556 H 244.16 6.92581 -0.579366 0
M  V30 2557 H 247.351 4.67992 -0.100441 0
M  V30 2558 H 247.524 6.46816 -0.391535 0
M  V30 2559 N 240.93 -0.123565 1.57115 0
M  V30 2560 C 241.878 -1.17082 2.00984 0
M  V30 2561 C 242.872 -1.43136 0.906009 0
M  V30 2562 O 244.078 -1.43152 1.09121 0
M  V30 2563 H 240.453 -0.394653 0.64012 0
M  V30 2564 H 242.424 -0.774292 2.88179 0
M  V30 2565 C 241.173 -2.49057 2.42623 0
M  V30 2566 H 240.496 -2.29846 3.27125 0
M  V30 2567 H 241.936 -3.20906 2.7712 0
M  V30 2568 C 240.395 -3.11305 1.28805 0
M  V30 2569 O 240.925 -3.97171 0.60153 0
M  V30 2570 N 239.131 -2.71111 1.04628 0
M  V30 2571 H 238.678 -2.01382 1.60634 0
M  V30 2572 H 238.636 -3.1309 0.286685 0
M  V30 2573 N 242.408 -1.52605 -0.393616 0
M  V30 2574 C 243.356 -1.77688 -1.50099 0
M  V30 2575 C 244.35 -0.644615 -1.56656 0
M  V30 2576 O 245.556 -0.826997 -1.59877 0
M  V30 2577 H 241.931 -0.562159 -0.499481 0
M  V30 2578 H 243.902 -2.7043 -1.26135 0
M  V30 2579 C 242.651 -1.95858 -2.87289 0
M  V30 2580 H 241.974 -2.8241 -2.82992 0
M  V30 2581 H 243.414 -2.174 -3.64024 0
M  V30 2582 C 241.873 -0.729848 -3.28899 0
M  V30 2583 O 242.403 0.0949217 -4.01588 0
M  V30 2584 N 240.609 -0.561283 -2.85128 0
M  V30 2585 H 240.156 -1.23357 -2.26143 0
M  V30 2586 H 240.114 0.2595 -3.13327 0
M  V30 2587 N 243.887 0.651787 -1.4349 0
M  V30 2588 C 245.127 1.42345 -1.46688 0
M  V30 2589 C 245.491 1.91793 -0.0891023 0
M  V30 2590 O 246.692 2.688 0.00423594 0
M  V30 2591 C 244.963 2.57221 -2.48137 0
M  V30 2592 S 246.522 3.45725 -2.70221 0
M  V30 2593 H 243.34 0.485878 -0.51908 0
M  V30 2594 H 245.942 0.756578 -1.80267 0
M  V30 2595 H 244.646 2.1917 -3.46976 0
M  V30 2596 H 244.177 3.28757 -2.16061 0
M  V30 2597 H 246.192 4.53996 -2.00255 0
M  V30 2598 N 245.365 1.30045 0.890287 0
M  V30 2599 C 246.295 1.18541 2.01172 0
M  V30 2600 C 247.276 0.0773356 1.69924 0
M  V30 2601 O 248.461 0.25845 1.92473 0
M  V30 2602 C 245.591 0.870941 3.36202 0
M  V30 2603 C 244.545 1.93637 3.81692 0
M  V30 2604 C 243.871 1.475 5.13953 0
M  V30 2605 C 245.171 3.34666 4.00994 0
M  V30 2606 H 246.865 2.12359 2.11054 0
M  V30 2607 H 244.411 1.02238 1.01407 0
M  V30 2608 H 246.364 0.777141 4.14172 0
M  V30 2609 H 245.088 -0.102926 3.26438 0
M  V30 2610 H 243.747 2.01972 3.05946 0
M  V30 2611 H 243.395 0.489551 5.00612 0
M  V30 2612 H 243.095 2.1876 5.4536 0
M  V30 2613 H 244.619 1.39489 5.94454 0
M  V30 2614 H 246.033 3.2912 4.69417 0
M  V30 2615 H 244.43 4.03966 4.43769 0
M  V30 2616 H 245.5 3.76949 3.05021 0
M  V30 2617 N 246.843 -1.10192 1.12674 0
M  V30 2618 C 247.773 -2.18652 0.819362 0
M  V30 2619 C 248.754 -1.68698 -0.217915 0
M  V30 2620 O 249.939 -1.94041 -0.0785581 0
M  V30 2621 C 247.069 -3.46202 0.27594 0
M  V30 2622 C 246.023 -4.09444 1.24656 0
M  V30 2623 C 245.349 -5.31725 0.563258 0
M  V30 2624 C 246.649 -4.52863 2.60217 0
M  V30 2625 H 248.343 -2.44622 1.72628 0
M  V30 2626 H 245.889 -1.17571 0.831451 0
M  V30 2627 H 247.842 -4.21372 0.0486149 0
M  V30 2628 H 246.566 -3.1973 -0.666331 0
M  V30 2629 H 245.225 -3.36284 1.45974 0
M  V30 2630 H 244.873 -5.0153 -0.384235 0
M  V30 2631 H 244.573 -5.74991 1.21075 0
M  V30 2632 H 246.097 -6.09624 0.34503 0
M  V30 2633 H 247.511 -5.19294 2.42913 0
M  V30 2634 H 245.908 -5.06986 3.21068 0
M  V30 2635 H 246.978 -3.65656 3.18471 0
M  V30 2636 N 248.321 -0.919034 -1.28029 0
M  V30 2637 C 249.268 -0.410005 -2.27129 0
M  V30 2638 C 250.238 0.518405 -1.57803 0
M  V30 2639 O 251.423 0.439451 -1.8567 0
M  V30 2640 C 248.563 0.339054 -3.4343 0
M  V30 2641 C 247.676 -0.622468 -4.27492 0
M  V30 2642 C 246.811 0.145567 -5.31001 0
M  V30 2643 C 245.85 -0.809226 -6.06727 0
M  V30 2644 N 244.987 -0.0743728 -7.02061 0
M  V30 2645 H 249.827 -1.26011 -2.70047 0
M  V30 2646 H 247.364 -0.632663 -1.328 0
M  V30 2647 H 249.322 0.789586 -4.0966 0
M  V30 2648 H 247.952 1.15346 -3.01488 0
M  V30 2649 H 247.004 -1.19153 -3.61257 0
M  V30 2650 H 248.316 -1.35252 -4.80113 0
M  V30 2651 H 247.47 0.656417 -6.03139 0
M  V30 2652 H 246.209 0.908643 -4.79161 0
M  V30 2653 H 245.214 -1.3314 -5.33436 0
M  V30 2654 H 246.439 -1.57194 -6.60656 0
M  V30 2655 H 244.385 0.670616 -6.52563 0
M  V30 2656 H 244.302 -0.744157 -7.52329 0
M  V30 2657 H 245.57 0.416109 -7.78389 0
M  V30 2658 N 249.799 1.42003 -0.683588 0
M  V30 2659 C 251.029 2.05448 -0.217866 0
M  V30 2660 C 251.437 1.51491 1.13346 0
M  V30 2661 O 250.78 0.653048 1.717 0
M  V30 2662 C 250.842 3.59399 -0.0850118 0
M  V30 2663 C 250.506 4.36093 -1.36645 0
M  V30 2664 C 251.503 4.66169 -2.30179 0
M  V30 2665 C 249.188 4.75578 -1.61649 0
M  V30 2666 C 251.182 5.34676 -3.46988 0
M  V30 2667 C 248.869 5.43824 -2.78745 0
M  V30 2668 C 249.867 5.73299 -3.71238 0
M  V30 2669 O 249.555 6.40142 -4.86285 0
M  V30 2670 H 249.287 0.668344 -0.101454 0
M  V30 2671 H 251.841 1.82974 -0.933248 0
M  V30 2672 H 250.071 3.80566 0.686031 0
M  V30 2673 H 251.76 4.04457 0.341973 0
M  V30 2674 H 252.526 4.36156 -2.12115 0
M  V30 2675 H 248.405 4.52025 -0.905243 0
M  V30 2676 H 251.949 5.57599 -4.19201 0
M  V30 2677 H 247.846 5.73254 -2.96732 0
M  V30 2678 H 248.614 6.58636 -4.85944 0
M  V30 2679 N 251.277 0.427512 1.51691 0
M  V30 2680 C 252.502 -0.143601 2.06902 0
M  V30 2681 C 252.927 -1.36536 1.29382 0
M  V30 2682 O 252.285 -1.78289 0.329043 0
M  V30 2683 C 252.333 -0.454207 3.57728 0
M  V30 2684 O 251.437 -1.54228 3.82475 0
M  V30 2685 H 250.778 -0.00617128 0.663971 0
M  V30 2686 H 253.308 0.606014 1.95419 0
M  V30 2687 H 253.318 -0.707525 4.01818 0
M  V30 2688 H 251.993 0.438812 4.13579 0
M  V30 2689 H 250.57 -1.2797 3.50254 0
M  V30 2690 N 252.755 -1.56801 0.158532 0
M  V30 2691 C 254.166 -1.83189 -0.360366 0
M  V30 2692 C 254.517 -1.07778 -1.63946 0
M  V30 2693 O 253.642 -0.326718 -2.13919 0
M  V30 2694 C 254.237 -3.32297 -0.660595 0
M  V30 2695 C 252.796 -3.59227 -1.12398 0
M  V30 2696 C 251.943 -2.76877 -0.153097 0
M  V30 2697 H 254.894 -1.54008 0.383031 0
M  V30 2698 H 254.915 -3.4908 -1.51405 0
M  V30 2699 H 254.427 -3.87156 0.270527 0
M  V30 2700 H 252.528 -3.09766 -2.07064 0
M  V30 2701 H 252.641 -4.67632 -1.04197 0
M  V30 2702 H 251.005 -2.46319 -0.647983 0
M  V30 2703 H 251.788 -3.34511 0.77182 0
M  V30 2704 N 254.233 0.115231 -1.57178 0
M  V30 2705 C 255.481 0.820727 -1.84685 0
M  V30 2706 C 255.802 1.80237 -0.744279 0
M  V30 2707 O 255.072 1.94529 0.231375 0
M  V30 2708 H 253.652 0.306084 -0.681411 0
M  V30 2709 H 256.314 0.101656 -1.94635 0
M  V30 2710 H 255.41 1.36366 -2.80733 0
M  V30 2711 N 255.711 1.52812 0.385517 0
M  V30 2712 C 256.959 1.67694 1.12797 0
M  V30 2713 C 257.28 0.421115 1.90399 0
M  V30 2714 O 256.55 -0.564551 1.87589 0
M  V30 2715 H 255.13 0.618155 0.419396 0
M  V30 2716 H 257.792 1.89938 0.436972 0
M  V30 2717 H 256.888 2.52896 1.82894 0
M  V30 2718 N 257.189 -0.644168 1.43834 0
M  V30 2719 C 258.417 -1.43147 1.49387 0
M  V30 2720 C 258.832 -1.88452 0.114583 0
M  V30 2721 O 258.189 -1.60047 -0.876989 0
M  V30 2722 C 258.24 -2.66046 2.44748 0
M  V30 2723 O 257.961 -2.22633 3.77314 0
M  V30 2724 C 259.462 -3.59311 2.59635 0
M  V30 2725 H 256.682 -0.439447 0.507077 0
M  V30 2726 H 259.226 -0.78895 1.88669 0
M  V30 2727 H 257.381 -3.26418 2.08638 0
M  V30 2728 H 257.795 -3.02216 4.28679 0
M  V30 2729 H 259.269 -4.42187 3.30416 0
M  V30 2730 H 259.746 -4.07259 1.64427 0
M  V30 2731 H 260.352 -3.04816 2.96593 0
M  V30 2732 N 258.668 -1.30515 -0.883378 0
M  V30 2733 C 260.079 -1.17509 -1.45081 0
M  V30 2734 C 260.43 0.223605 -1.94922 0
M  V30 2735 O 259.555 1.12041 -1.85137 0
M  V30 2736 C 260.15 -2.12715 -2.63701 0
M  V30 2737 C 258.709 -2.03682 -3.16529 0
M  V30 2738 C 257.856 -2.02706 -1.89224 0
M  V30 2739 H 260.807 -1.42762 -0.693165 0
M  V30 2740 H 260.828 -1.70891 -3.39965 0
M  V30 2741 H 260.34 -3.14505 -2.27395 0
M  V30 2742 H 258.441 -1.05039 -3.57488 0
M  V30 2743 H 258.554 -2.92146 -3.7972 0
M  V30 2744 H 256.918 -1.4753 -2.07622 0
M  V30 2745 H 257.701 -3.06229 -1.55174 0
M  V30 2746 N 260.146 1.09593 -1.13257 0
M  V30 2747 C 261.374 1.855 -0.916378 0
M  V30 2748 C 261.789 1.81069 0.534738 0
M  V30 2749 O 261.146 1.20562 1.37007 0
M  V30 2750 C 261.197 3.33546 -1.39388 0
M  V30 2751 O 260.918 3.37927 -2.78813 0
M  V30 2752 C 262.419 4.26299 -1.21588 0
M  V30 2753 H 259.639 0.585991 -0.326887 0
M  V30 2754 H 262.183 1.38488 -1.5047 0
M  V30 2755 H 260.338 3.77992 -0.848597 0
M  V30 2756 H 260.752 4.30254 -2.9997 0
M  V30 2757 H 262.226 5.28341 -1.59876 0
M  V30 2758 H 262.703 4.38918 -0.157376 0
M  V30 2759 H 263.309 3.87668 -1.7491 0
M  V30 2760 N 261.624 0.925811 1.2754 0
M  V30 2761 C 262.587 0.428129 2.25166 0
M  V30 2762 C 263.587 -0.452261 1.54309 0
M  V30 2763 O 264.777 -0.253608 1.72344 0
M  V30 2764 C 261.909 -0.384749 3.38722 0
M  V30 2765 H 263.102 1.29066 2.70706 0
M  V30 2766 H 260.655 0.706323 1.3943 0
M  V30 2767 H 261.39 -1.26618 2.98561 0
M  V30 2768 H 261.175 0.246454 3.91325 0
M  V30 2769 H 262.665 -0.723389 4.11287 0
M  V30 2770 N 263.102 -1.41638 0.69111 0
M  V30 2771 C 264.351 -2.00526 0.217318 0
M  V30 2772 C 264.664 -1.55353 -1.18848 0
M  V30 2773 O 265.87 -2.06769 -1.75951 0
M  V30 2774 C 264.326 -3.58313 0.337639 0
M  V30 2775 C 263.934 -4.12469 1.74852 0
M  V30 2776 C 265.678 -4.24431 -0.0766066 0
M  V30 2777 C 263.585 -5.62675 1.82074 0
M  V30 2778 H 262.515 -0.750008 0.0774893 0
M  V30 2779 H 265.166 -1.6217 0.858661 0
M  V30 2780 H 263.548 -3.9425 -0.371879 0
M  V30 2781 H 264.722 -3.8796 2.48644 0
M  V30 2782 H 263.037 -3.58861 2.11205 0
M  V30 2783 H 265.634 -5.34683 -0.0430284 0
M  V30 2784 H 265.977 -4.01101 -1.1146 0
M  V30 2785 H 266.51 -3.93512 0.582476 0
M  V30 2786 H 263.249 -5.90826 2.83911 0
M  V30 2787 H 262.769 -5.89124 1.12661 0
M  V30 2788 H 264.448 -6.27371 1.58159 0
M  V30 2789 N 264.58 -0.43555 -1.51462 0
M  V30 2790 C 265.527 0.376797 -2.27703 0
M  V30 2791 C 266.497 1.01838 -1.31219 0
M  V30 2792 O 267.682 1.03762 -1.60119 0
M  V30 2793 C 264.822 1.47301 -3.12084 0
M  V30 2794 C 263.935 0.849744 -4.2356 0
M  V30 2795 C 263.07 1.92086 -4.95254 0
M  V30 2796 C 262.109 1.27593 -5.98654 0
M  V30 2797 N 261.246 2.28833 -6.63762 0
M  V30 2798 H 266.086 -0.279734 -2.96684 0
M  V30 2799 H 263.623 -0.149795 -1.46335 0
M  V30 2800 H 265.581 2.11984 -3.59331 0
M  V30 2801 H 264.211 2.0992 -2.45221 0
M  V30 2802 H 263.263 0.0912529 -3.80291 0
M  V30 2803 H 264.575 0.338878 -4.97648 0
M  V30 2804 H 263.729 2.64435 -5.46039 0
M  V30 2805 H 262.468 2.46545 -4.20793 0
M  V30 2806 H 261.473 0.537893 -5.47162 0
M  V30 2807 H 262.698 0.738693 -6.7507 0
M  V30 2808 H 260.644 2.82375 -5.92115 0
M  V30 2809 H 260.561 1.82632 -7.33608 0
M  V30 2810 H 261.829 3.00671 -7.19178 0
M  V30 2811 N 266.058 1.56714 -0.166846 0
M  V30 2812 C 267.304 1.97039 0.479962 0
M  V30 2813 C 267.637 1.05264 1.63197 0
M  V30 2814 O 266.912 0.0988833 1.94248 0
M  V30 2815 C 267.195 3.46867 0.967212 0
M  V30 2816 C 267.048 4.49421 -0.18466 0
M  V30 2817 C 268.367 3.9968 1.84238 0
M  V30 2818 H 265.486 0.71641 0.172992 0
M  V30 2819 H 268.128 1.8832 -0.252079 0
M  V30 2820 H 266.278 3.54428 1.59101 0
M  V30 2821 H 267.95 4.53924 -0.821621 0
M  V30 2822 H 266.193 4.25573 -0.840837 0
M  V30 2823 H 266.864 5.51644 0.198317 0
M  V30 2824 H 269.34 3.94723 1.31655 0
M  V30 2825 H 268.216 5.04941 2.15234 0
M  V30 2826 H 268.477 3.43226 2.78654 0
M  V30 2827 N 267.536 -0.106894 1.57237 0
M  V30 2828 C 268.466 -1.13148 2.04254 0
M  V30 2829 C 269.447 -1.42476 0.929224 0
M  V30 2830 O 270.632 -1.52709 1.19973 0
M  V30 2831 C 267.762 -2.4545 2.45706 0
M  V30 2832 C 266.716 -2.30558 3.60592 0
M  V30 2833 C 266.042 -3.67931 3.87983 0
M  V30 2834 C 267.342 -1.75597 4.91897 0
M  V30 2835 H 269.036 -0.740374 2.90101 0
M  V30 2836 H 266.582 -0.354696 1.39563 0
M  V30 2837 H 268.535 -3.17389 2.77205 0
M  V30 2838 H 267.259 -2.86475 1.56843 0
M  V30 2839 H 265.918 -1.61067 3.29322 0
M  V30 2840 H 265.566 -4.06462 2.96306 0
M  V30 2841 H 265.266 -3.58817 4.65322 0
M  V30 2842 H 266.79 -4.41356 4.21945 0
M  V30 2843 H 268.204 -2.37364 5.21854 0
M  V30 2844 H 266.601 -1.77272 5.73319 0
M  V30 2845 H 267.671 -0.714451 4.79608 0
M  V30 2846 N 269.014 -1.53014 -0.377408 0
M  V30 2847 C 270.239 -1.72818 -1.14668 0
M  V30 2848 C 270.664 -0.450725 -1.8262 0
M  V30 2849 O 270.022 0.59439 -1.7128 0
M  V30 2850 C 270.07 -2.88627 -2.16164 0
M  V30 2851 O 269.174 -2.56409 -3.22998 0
M  V30 2852 H 268.515 -0.574301 -0.333278 0
M  V30 2853 H 271.045 -1.99853 -0.438152 0
M  V30 2854 H 271.055 -3.14455 -2.59966 0
M  V30 2855 H 269.73 -3.81294 -1.66095 0
M  V30 2856 H 268.307 -2.4136 -2.84253 0
M  V30 2857 N 270.492 0.636531 -1.44174 0
M  V30 2858 C 271.44 1.76995 -1.50915 0
M  V30 2859 C 272.434 1.65053 -0.381295 0
M  V30 2860 O 273.64 1.71197 -0.55601 0
M  V30 2861 H 270.015 0.584247 -0.473455 0
M  V30 2862 H 271.986 1.68432 -2.4632 0
M  V30 2863 C 270.735 3.15314 -1.46534 0
M  V30 2864 H 270.058 3.25149 -2.32633 0
M  V30 2865 H 271.498 3.9453 -1.55312 0
M  V30 2866 C 269.957 3.3639 -0.185305 0
M  V30 2867 O 270.487 3.94699 0.746688 0
M  V30 2868 N 268.693 2.9046 -0.0901606 0
M  V30 2869 H 268.24 2.43193 -0.849416 0
M  V30 2870 H 268.198 3.04937 0.765553 0
M  V30 2871 N 271.97 1.30982 0.876444 0
M  V30 2872 C 273.216 1.20474 1.63138 0
M  V30 2873 C 273.549 -0.238096 1.92735 0
M  V30 2874 O 272.824 -1.1692 1.55435 0
M  V30 2875 C 273.107 2.04244 2.96574 0
M  V30 2876 C 272.96 3.56793 2.73896 0
M  V30 2877 C 274.279 1.88684 3.97601 0
M  V30 2878 H 271.398 0.439001 0.591985 0
M  V30 2879 H 274.04 1.60704 1.01361 0
M  V30 2880 H 272.19 1.70063 3.493 0
M  V30 2881 H 273.862 4.01077 2.27892 0
M  V30 2882 H 272.105 3.80548 2.08245 0
M  V30 2883 H 272.776 4.10706 3.68815 0
M  V30 2884 H 275.252 2.18584 3.54062 0
M  V30 2885 H 274.128 2.4961 4.88862 0
M  V30 2886 H 274.389 0.848343 4.33884 0
M  V30 2887 N 273.449 -1.08991 1.13837 0
M  V30 2888 C 274.359 -2.19301 0.833333 0
M  V30 2889 C 275.375 -1.73026 -0.183847 0
M  V30 2890 O 276.551 -2.01395 -0.0138092 0
M  V30 2891 C 273.616 -3.45323 0.308651 0
M  V30 2892 C 272.677 -4.06255 1.38764 0
M  V30 2893 C 271.91 -5.26262 0.887896 0
M  V30 2894 O 272.133 -5.69747 -0.27287 0
M  V30 2895 O 271.067 -5.78435 1.66421 0
M  V30 2896 H 274.893 -2.47854 1.75506 0
M  V30 2897 H 272.478 -1.18012 0.916166 0
M  V30 2898 H 274.36 -4.21394 0.0216739 0
M  V30 2899 H 273.035 -3.18362 -0.585431 0
M  V30 2900 H 271.942 -3.318 1.72799 0
M  V30 2901 H 273.275 -4.37452 2.25602 0
M  V30 2902 N 274.927 -0.932562 -1.27047 0
M  V30 2903 C 276.152 -0.591474 -1.98787 0
M  V30 2904 C 276.577 0.824601 -1.69062 0
M  V30 2905 O 275.935 1.5541 -0.933677 0
M  V30 2906 C 275.983 -0.829808 -3.50922 0
M  V30 2907 O 275.087 0.102266 -4.12273 0
M  V30 2908 H 274.428 -0.227185 -0.623926 0
M  V30 2909 H 276.958 -1.25314 -1.61733 0
M  V30 2910 H 276.968 -0.747292 -4.01098 0
M  V30 2911 H 275.643 -1.86201 -3.7189 0
M  V30 2912 H 274.22 -0.0305761 -3.72887 0
M  V30 2913 N 276.405 1.4127 -0.698611 0
M  V30 2914 C 277.653 2.00782 -0.230409 0
M  V30 2915 C 277.974 1.5562 1.17505 0
M  V30 2916 O 277.244 0.78815 1.79346 0
M  V30 2917 H 275.824 0.742464 -0.0821944 0
M  V30 2918 H 278.486 1.72852 -0.90045 0
M  V30 2919 H 277.582 3.11095 -0.25021 0
M  V30 2920 N 277.883 0.443576 1.51229 0
M  V30 2921 C 279.13 -0.120796 2.02139 0
M  V30 2922 C 279.458 -1.42166 1.32736 0
M  V30 2923 O 278.713 -1.90849 0.43301 0
M  V30 2924 C 279.012 -0.380579 3.55368 0
M  V30 2925 C 278.678 0.83523 4.43097 0
M  V30 2926 C 277.34 1.16864 4.66794 0
M  V30 2927 C 279.692 1.64601 4.94526 0
M  V30 2928 C 277.02 2.31339 5.39165 0
M  V30 2929 C 279.372 2.78181 5.68153 0
M  V30 2930 C 278.036 3.11969 5.90112 0
M  V30 2931 H 277.306 -0.0442023 0.73968 0
M  V30 2932 H 279.953 0.592046 1.82118 0
M  V30 2933 H 278.258 -1.17538 3.73754 0
M  V30 2934 H 279.955 -0.830777 3.923 0
M  V30 2935 H 276.545 0.565437 4.24854 0
M  V30 2936 H 280.729 1.40163 4.76097 0
M  V30 2937 H 275.985 2.57823 5.5438 0
M  V30 2938 H 280.159 3.41371 6.06992 0
M  V30 2939 H 277.786 4.00784 6.45969 0
M  V30 2940 N 279.361 -1.56624 0.175154 0
M  V30 2941 C 280.586 -2.01813 -0.478137 0
M  V30 2942 C 281.011 -1.05457 -1.55757 0
M  V30 2943 O 280.369 -0.0347439 -1.81267 0
M  V30 2944 C 280.417 -3.45581 -1.02987 0
M  V30 2945 O 279.521 -3.52305 -2.14371 0
M  V30 2946 H 278.862 -0.65413 -0.114059 0
M  V30 2947 H 281.392 -2.02673 0.280173 0
M  V30 2948 H 281.402 -3.84965 -1.35151 0
M  V30 2949 H 280.077 -4.1521 -0.239556 0
M  V30 2950 H 278.654 -3.24783 -1.83222 0
M  V30 2951 N 280.839 0.0985539 -1.57292 0
M  V30 2952 C 281.769 1.12064 -2.04851 0
M  V30 2953 C 282.75 1.41981 -0.936767 0
M  V30 2954 O 283.935 1.52071 -1.20781 0
M  V30 2955 C 281.065 2.44144 -2.47004 0
M  V30 2956 C 280.019 2.28643 -3.6181 0
M  V30 2957 C 279.345 3.65869 -3.89929 0
M  V30 2958 C 280.645 1.72986 -4.92822 0
M  V30 2959 H 282.339 0.724979 -2.9049 0
M  V30 2960 H 279.885 0.34729 -1.39749 0
M  V30 2961 H 281.838 3.15914 -2.78884 0
M  V30 2962 H 280.562 2.85639 -1.5836 0
M  V30 2963 H 279.221 1.59318 -3.30172 0
M  V30 2964 H 278.869 4.04885 -2.98458 0
M  V30 2965 H 278.569 3.56344 -4.67218 0
M  V30 2966 H 280.093 4.39112 -4.2428 0
M  V30 2967 H 281.507 2.34593 -5.23105 0
M  V30 2968 H 279.904 1.74229 -5.74251 0
M  V30 2969 H 280.974 0.689007 -4.7998 0
M  V30 2970 N 282.317 1.53212 0.369288 0
M  V30 2971 C 283.264 1.79388 1.45219 0
M  V30 2972 C 284.234 0.638059 1.53356 0
M  V30 2973 O 285.419 0.879852 1.69302 0
M  V30 2974 C 282.559 1.98623 2.82211 0
M  V30 2975 C 281.672 3.26337 2.8307 0
M  V30 2976 C 280.807 3.35779 4.11614 0
M  V30 2977 C 279.846 4.5754 4.06601 0
M  V30 2978 N 278.983 4.64155 5.26787 0
M  V30 2979 H 283.823 2.71794 1.22198 0
M  V30 2980 H 281.36 1.34642 0.592444 0
M  V30 2981 H 283.318 2.07761 3.61789 0
M  V30 2982 H 281.948 1.09558 3.03639 0
M  V30 2983 H 281 3.26171 1.95747 0
M  V30 2984 H 282.312 4.15988 2.75237 0
M  V30 2985 H 281.466 3.44208 4.99606 0
M  V30 2986 H 280.205 2.44137 4.22195 0
M  V30 2987 H 279.21 4.49215 3.16996 0
M  V30 2988 H 280.435 5.50519 3.97625 0
M  V30 2989 H 278.381 3.75413 5.3796 0
M  V30 2990 H 278.298 5.47706 5.21109 0
M  V30 2991 H 279.566 4.76863 6.16621 0
M  V30 2992 N 283.795 -0.628877 1.44509 0
M  V30 2993 C 285.206 -1.21054 1.42137 0
M  V30 2994 C 285.557 -1.95715 0.137881 0
M  V30 2995 O 284.682 -2.02554 -0.761645 0
M  V30 2996 C 285.277 -2.20189 2.57493 0
M  V30 2997 C 283.836 -2.73777 2.58308 0
M  V30 2998 C 282.983 -1.48813 2.33987 0
M  V30 2999 H 285.934 -0.41942 1.53057 0
M  V30 3000 H 285.955 -3.02833 2.30375 0
M  V30 3001 H 285.467 -1.6582 3.50892 0
M  V30 3002 H 283.568 -3.32142 1.68856 0
M  V30 3003 H 283.681 -3.19662 3.56865 0
M  V30 3004 H 282.045 -1.77024 1.83124 0
M  V30 3005 H 282.828 -0.963442 3.29504 0
M  V30 3006 N 285.273 -1.31445 -0.869486 0
M  V30 3007 C 286.513 -1.22458 -1.63656 0
M  V30 3008 C 286.877 0.213846 -1.90805 0
M  V30 3009 O 288.078 0.427212 -2.65383 0
M  V30 3010 C 286.349 -2.04564 -2.93067 0
M  V30 3011 S 287.908 -2.12445 -3.83944 0
M  V30 3012 H 284.726 -0.436145 -0.561514 0
M  V30 3013 H 287.328 -1.66114 -1.03085 0
M  V30 3014 H 286.032 -3.0816 -2.71045 0
M  V30 3015 H 285.563 -1.6163 -3.58663 0
M  V30 3016 H 287.578 -1.26312 -4.79854 0
M  V30 3017 N 286.751 1.08385 -1.14413 0
M  V30 3018 C 287.714 2.13486 -0.834048 0
M  V30 3019 C 288.714 1.59988 0.161418 0
M  V30 3020 O 289.904 1.74071 -0.0669575 0
M  V30 3021 C 287.036 3.4003 -0.243354 0
M  V30 3022 H 288.229 2.42425 -1.7655 0
M  V30 3023 H 285.782 1.24101 -0.950189 0
M  V30 3024 H 286.517 3.16726 0.696807 0
M  V30 3025 H 286.302 3.80157 -0.960367 0
M  V30 3026 H 287.792 4.17577 -0.0436242 0
M  V30 3027 N 288.23 0.939286 1.26551 0
M  V30 3028 C 289.16 0.465044 2.28822 0
M  V30 3029 C 290.141 -0.480692 1.63167 0
M  V30 3030 O 291.326 -0.382955 1.90387 0
M  V30 3031 C 288.456 -0.27234 3.46231 0
M  V30 3032 C 287.41 0.58666 4.2396 0
M  V30 3033 C 286.736 -0.280573 5.33963 0
M  V30 3034 C 288.036 1.85704 4.88171 0
M  V30 3035 H 289.73 1.31979 2.68741 0
M  V30 3036 H 287.276 0.636061 1.29191 0
M  V30 3037 H 289.229 -0.615133 4.16886 0
M  V30 3038 H 287.953 -1.16121 3.0526 0
M  V30 3039 H 286.612 0.91232 3.55067 0
M  V30 3040 H 286.26 -1.16874 4.89234 0
M  V30 3041 H 285.96 0.29076 5.8688 0
M  V30 3042 H 287.484 -0.618678 6.07458 0
M  V30 3043 H 288.898 1.58161 5.51052 0
M  V30 3044 H 287.295 2.37279 5.51197 0
M  V30 3045 H 288.365 2.56957 4.11219 0
M  V30 3046 N 289.708 -1.40897 0.706093 0
M  V30 3047 C 290.933 -2.05895 0.249435 0
M  V30 3048 C 291.358 -1.52823 -1.09666 0
M  V30 3049 O 290.716 -0.659589 -1.68876 0
M  V30 3050 C 290.764 -3.59872 0.22904 0
M  V30 3051 O 289.868 -4.04708 -0.792784 0
M  V30 3052 H 289.209 -0.653206 0.119241 0
M  V30 3053 H 291.739 -1.80471 0.96391 0
M  V30 3054 H 291.749 -4.07951 0.0634791 0
M  V30 3055 H 290.424 -3.97866 1.21141 0
M  V30 3056 H 289.001 -3.68111 -0.59572 0
M  V30 3057 N 291.186 -0.45159 -1.50991 0
M  V30 3058 C 292.096 0.358431 -2.31846 0
M  V30 3059 C 293.112 1.01438 -1.41373 0
M  V30 3060 O 294.288 1.00663 -1.74439 0
M  V30 3061 C 291.353 1.43704 -3.15515 0
M  V30 3062 C 290.414 0.799742 -4.21785 0
M  V30 3063 C 289.647 1.82696 -5.01456 0
M  V30 3064 O 289.87 3.05105 -4.81941 0
M  V30 3065 O 288.804 1.40958 -5.85162 0
M  V30 3066 H 292.63 -0.302032 -3.02194 0
M  V30 3067 H 290.215 -0.213825 -1.47862 0
M  V30 3068 H 292.097 2.06227 -3.67489 0
M  V30 3069 H 290.772 2.08133 -2.47916 0
M  V30 3070 H 289.679 0.136084 -3.73852 0
M  V30 3071 H 291.012 0.198718 -4.91799 0
M  V30 3072 N 292.664 1.56529 -0.183458 0
M  V30 3073 C 293.913 1.96419 0.458511 0
M  V30 3074 C 294.226 1.0727 1.63562 0
M  V30 3075 O 295.432 1.36893 2.34462 0
M  V30 3076 C 293.888 3.49298 0.867122 0
M  V30 3077 C 293.496 4.47092 -0.285057 0
M  V30 3078 C 295.24 3.97983 1.47683 0
M  V30 3079 C 293.147 5.91225 0.143862 0
M  V30 3080 H 292.077 0.733394 0.175071 0
M  V30 3081 H 294.728 1.81448 -0.273624 0
M  V30 3082 H 293.11 3.59731 1.65559 0
M  V30 3083 H 294.284 4.48383 -1.0625 0
M  V30 3084 H 292.599 4.08535 -0.805503 0
M  V30 3085 H 295.196 5.03134 1.80999 0
M  V30 3086 H 295.539 3.41618 2.37914 0
M  V30 3087 H 296.072 3.90617 0.752562 0
M  V30 3088 H 292.811 6.5149 -0.723974 0
M  V30 3089 H 292.331 5.93214 0.886413 0
M  V30 3090 H 294.01 6.44362 0.583628 0
M  V30 3091 N 294.142 -0.090211 1.57342 0
M  V30 3092 C 295.39 -0.791241 1.85967 0
M  V30 3093 C 295.711 -1.7903 0.772859 0
M  V30 3094 O 294.981 -1.94872 -0.200398 0
M  V30 3095 H 293.561 -0.295205 0.686195 0
M  V30 3096 H 296.223 -0.0706782 1.94772 0
M  V30 3097 H 295.319 -1.31882 2.82867 0
M  V30 3098 N 295.62 -1.53406 -0.361157 0
M  V30 3099 C 296.86 -1.71507 -1.11197 0
M  V30 3100 C 297.224 -0.459337 -1.86425 0
M  V30 3101 O 298.425 -0.517102 -2.63779 0
M  V30 3102 C 296.696 -2.93307 -2.0422 0
M  V30 3103 S 298.255 -3.32135 -2.86761 0
M  V30 3104 H 295.073 -0.603448 -0.375995 0
M  V30 3105 H 297.675 -1.91516 -0.392642 0
M  V30 3106 H 296.379 -3.82891 -1.47724 0
M  V30 3107 H 295.91 -2.75712 -2.80618 0
M  V30 3108 H 297.925 -2.84493 -4.06544 0
M  V30 3109 N 297.098 0.621204 -1.44841 0
M  V30 3110 C 298.048 1.72663 -1.48901 0
M  V30 3111 C 299.032 1.56964 -0.353702 0
M  V30 3112 O 300.224 1.66532 -0.599669 0
M  V30 3113 C 297.353 3.11381 -1.44557 0
M  V30 3114 C 296.439 3.32514 -2.6324 0
M  V30 3115 N 296.83 3.23969 -3.8843 0
M  V30 3116 C 295.128 3.63343 -2.58647 0
M  V30 3117 C 295.829 3.46062 -4.67564 0
M  V30 3118 N 294.805 3.69407 -3.98797 0
M  V30 3119 H 298.607 1.64529 -2.43531 0
M  V30 3120 H 296.121 0.82401 -1.39942 0
M  V30 3121 H 298.118 3.90667 -1.4555 0
M  V30 3122 H 296.778 3.20674 -0.509731 0
M  V30 3123 H 297.789 3.02669 -4.20252 0
M  V30 3124 H 294.466 3.79556 -1.73906 0
M  V30 3125 H 295.856 3.44963 -5.76585 0
M  V30 3126 N 298.576 1.31904 0.862503 0
M  V30 3127 C 299.509 1.14514 1.97388 0
M  V30 3128 C 300.487 0.0466493 1.62533 0
M  V30 3129 O 301.671 0.204484 1.87388 0
M  V30 3130 C 298.798 0.751347 3.30261 0
M  V30 3131 C 297.844 1.85395 3.84098 0
M  V30 3132 S 298.677 3.46081 4.08642 0
M  V30 3133 C 299.833 3.08655 5.44502 0
M  V30 3134 H 300.066 2.08597 2.11836 0
M  V30 3135 H 297.599 1.16475 1.01356 0
M  V30 3136 H 299.557 0.530901 4.07052 0
M  V30 3137 H 298.218 -0.170493 3.13637 0
M  V30 3138 H 297.411 1.53122 4.80177 0
M  V30 3139 H 297.013 2.02984 3.14123 0
M  V30 3140 H 299.305 2.58012 6.26447 0
M  V30 3141 H 300.248 4.03726 5.81731 0
M  V30 3142 H 300.656 2.45891 5.08132 0
M  V30 3143 N 300.054 -1.07777 1.14986 0
M  V30 3144 C 301.002 -2.16964 0.838406 0
M  V30 3145 C 301.996 -1.68372 -0.186386 0
M  V30 3146 O 303.202 -1.79951 -0.0418465 0
M  V30 3147 H 299.577 -0.708006 0.253439 0
M  V30 3148 H 301.548 -2.40454 1.76704 0
M  V30 3149 C 300.297 -3.4604 0.339335 0
M  V30 3150 H 299.62 -3.83813 1.11927 0
M  V30 3151 H 301.06 -4.23698 0.160021 0
M  V30 3152 C 299.519 -3.23569 -0.938325 0
M  V30 3153 O 300.049 -3.47752 -2.01077 0
M  V30 3154 N 298.255 -2.77079 -0.876117 0
M  V30 3155 H 297.802 -2.576 -0.00322037 0
M  V30 3156 H 297.76 -2.62422 -1.73153 0
M  V30 3157 N 301.532 -0.945985 -1.26051 0
M  V30 3158 C 302.781 -0.591836 -1.92822 0
M  V30 3159 C 303.094 0.873956 -1.7499 0
M  V30 3160 O 304.3 1.33769 -2.36259 0
M  V30 3161 C 302.756 -1.00776 -3.45503 0
M  V30 3162 C 302.364 -2.4955 -3.7206 0
M  V30 3163 C 304.108 -0.725735 -4.1825 0
M  V30 3164 C 302.015 -2.84988 -5.18205 0
M  V30 3165 H 300.945 -0.217635 -0.721908 0
M  V30 3166 H 303.596 -1.14927 -1.43052 0
M  V30 3167 H 301.978 -0.378812 -3.94184 0
M  V30 3168 H 303.152 -3.1739 -3.34066 0
M  V30 3169 H 301.467 -2.75133 -3.12555 0
M  V30 3170 H 304.064 -0.966771 -5.25887 0
M  V30 3171 H 304.407 0.337639 -4.14929 0
M  V30 3172 H 304.94 -1.31463 -3.7545 0
M  V30 3173 H 301.679 -3.90307 -5.26631 0
M  V30 3174 H 301.199 -2.21813 -5.57278 0
M  V30 3175 H 302.878 -2.73712 -5.86252 0
M  V30 3176 N 303.011 1.40521 -0.713556 0
M  V30 3177 C 304.258 2.00923 -0.25219 0
M  V30 3178 C 304.586 1.56571 1.15395 0
M  V30 3179 O 303.841 0.775874 1.79663 0
M  V30 3180 C 304.14 3.56317 -0.278 0
M  V30 3181 C 303.806 4.20246 -1.63415 0
M  V30 3182 C 302.468 4.37422 -2.00538 0
M  V30 3183 C 304.82 4.55923 -2.52554 0
M  V30 3184 C 302.148 4.87558 -3.2635 0
M  V30 3185 C 304.5 5.07458 -3.77716 0
M  V30 3186 C 303.164 5.22843 -4.14959 0
M  V30 3187 H 302.434 0.735231 -0.0922829 0
M  V30 3188 H 305.081 1.68161 -0.916188 0
M  V30 3189 H 303.386 3.88976 0.469567 0
M  V30 3190 H 305.083 4.00883 0.0967819 0
M  V30 3191 H 301.673 4.07263 -1.33546 0
M  V30 3192 H 305.857 4.42291 -2.25149 0
M  V30 3193 H 301.113 4.97654 -3.55176 0
M  V30 3194 H 305.287 5.34041 -4.4696 0
M  V30 3195 H 302.914 5.61454 -5.12516 0
M  V30 3196 N 304.489 0.459591 1.5075 0
M  V30 3197 C 305.421 -0.37665 2.26084 0
M  V30 3198 C 306.434 -0.967109 1.30961 0
M  V30 3199 O 307.623 -0.857468 1.56556 0
M  V30 3200 C 304.723 -1.54112 3.01832 0
M  V30 3201 C 303.896 -1.06553 4.24223 0
M  V30 3202 C 302.955 -2.1027 4.82362 0
M  V30 3203 O 301.981 -1.68798 5.43595 0
M  V30 3204 N 303.183 -3.42974 4.68347 0
M  V30 3205 H 305.948 0.269124 2.98489 0
M  V30 3206 H 303.509 0.28972 1.59287 0
M  V30 3207 H 305.501 -2.23165 3.37608 0
M  V30 3208 H 304.071 -2.0918 2.32298 0
M  V30 3209 H 303.291 -0.201274 3.93686 0
M  V30 3210 H 304.579 -0.725516 5.03601 0
M  V30 3211 H 303.977 -3.79385 4.19623 0
M  V30 3212 H 302.534 -4.07858 5.08424 0
M  V30 3213 N 305.967 -1.56429 0.191757 0
M  V30 3214 C 306.917 -2.15548 -0.743184 0
M  V30 3215 C 307.901 -1.09531 -1.17863 0
M  V30 3216 O 309.093 -1.35602 -1.13759 0
M  V30 3217 C 306.222 -2.81577 -1.96391 0
M  V30 3218 C 305.308 -3.9478 -1.54951 0
M  V30 3219 N 305.699 -4.98677 -0.845876 0
M  V30 3220 C 303.997 -4.06319 -1.83905 0
M  V30 3221 C 304.698 -5.78183 -0.638724 0
M  V30 3222 N 303.674 -5.30495 -1.18643 0
M  V30 3223 H 307.476 -2.9324 -0.196839 0
M  V30 3224 H 304.99 -1.62398 -0.0081603 0
M  V30 3225 H 306.987 -3.22321 -2.64415 0
M  V30 3226 H 305.647 -2.05371 -2.51501 0
M  V30 3227 H 306.658 -5.15464 -0.501704 0
M  V30 3228 H 303.335 -3.41238 -2.40548 0
M  V30 3229 H 304.725 -6.71851 -0.0807929 0
M  V30 3230 N 307.445 0.0818655 -1.57387 0
M  V30 3231 C 308.375 1.09885 -2.06028 0
M  V30 3232 C 309.356 1.4098 -0.951774 0
M  V30 3233 O 310.541 1.50781 -1.22387 0
M  V30 3234 C 307.671 2.4151 -2.4958 0
M  V30 3235 C 306.625 2.24792 -3.64215 0
M  V30 3236 C 305.951 3.61712 -3.93787 0
M  V30 3237 C 307.251 1.67749 -4.94629 0
M  V30 3238 H 308.945 0.694128 -2.91243 0
M  V30 3239 H 306.491 0.332448 -1.4011 0
M  V30 3240 H 308.444 3.12939 -2.82219 0
M  V30 3241 H 307.168 2.83943 -1.61381 0
M  V30 3242 H 305.827 1.55807 -3.31843 0
M  V30 3243 H 305.475 4.01697 -3.02735 0
M  V30 3244 H 305.175 3.51368 -4.70971 0
M  V30 3245 H 306.699 4.34587 -4.28913 0
M  V30 3246 H 308.113 2.29032 -5.25564 0
M  V30 3247 H 306.51 1.68128 -5.76067 0
M  V30 3248 H 307.58 0.638059 -4.80684 0
M  V30 3249 N 308.923 1.53595 0.353017 0
M  V30 3250 C 309.886 1.80232 1.41594 0
M  V30 3251 C 310.886 0.673081 1.46035 0
M  V30 3252 O 312.076 0.941335 1.46576 0
M  V30 3253 C 309.208 1.93578 2.80607 0
M  V30 3254 H 310.401 2.75174 1.19244 0
M  V30 3255 H 307.954 1.44864 0.586872 0
M  V30 3256 H 308.689 1.00746 3.08254 0
M  V30 3257 H 308.474 2.75724 2.78781 0
M  V30 3258 H 309.964 2.15735 3.57558 0
M  V30 3259 N 310.401 -0.613514 1.45168 0
M  V30 3260 C 311.648 -1.37268 1.48875 0
M  V30 3261 C 311.976 -1.94077 0.128161 0
M  V30 3262 O 311.231 -1.75178 -0.872416 0
M  V30 3263 C 311.53 -2.54347 2.51083 0
M  V30 3264 C 311.196 -2.1572 3.95949 0
M  V30 3265 C 309.858 -2.04899 4.35396 0
M  V30 3266 C 312.21 -1.85485 4.87078 0
M  V30 3267 C 309.538 -1.62057 5.63875 0
M  V30 3268 C 311.89 -1.4413 6.15962 0
M  V30 3269 C 310.554 -1.31863 6.54346 0
M  V30 3270 H 309.824 -0.502299 0.544773 0
M  V30 3271 H 312.471 -0.694021 1.78481 0
M  V30 3272 H 310.776 -3.27524 2.15024 0
M  V30 3273 H 312.473 -3.12577 2.51191 0
M  V30 3274 H 309.063 -2.25066 3.64751 0
M  V30 3275 H 313.247 -1.92745 4.57343 0
M  V30 3276 H 308.503 -1.51177 5.92415 0
M  V30 3277 H 312.677 -1.19778 6.86022 0
M  V30 3278 H 310.304 -0.984392 7.538 0
M  V30 3279 N 311.879 -1.3236 -0.855495 0
M  V30 3280 C 313.104 -1.2601 -1.64731 0
M  V30 3281 C 313.529 0.169068 -1.87339 0
M  V30 3282 O 312.887 1.12016 -1.42556 0
M  V30 3283 C 312.935 -2.02417 -2.98429 0
M  V30 3284 O 312.039 -1.3714 -3.8893 0
M  V30 3285 H 311.38 -0.434325 -0.502253 0
M  V30 3286 H 313.91 -1.74661 -1.06558 0
M  V30 3287 H 313.92 -2.12559 -3.48257 0
M  V30 3288 H 312.595 -3.06343 -2.81295 0
M  V30 3289 H 311.172 -1.3554 -3.47395 0
M  V30 3290 N 313.357 1.07166 -1.15556 0
M  V30 3291 C 314.634 1.76546 -0.842069 0
M  V30 3292 C 315.014 2.00453 0.661939 0
M  V30 3293 O 314.362 1.62452 1.60691 0
M  V30 3294 C 314.572 3.07266 -1.65495 0
M  V30 3295 C 315.92 3.81578 -1.86234 0
M  V30 3296 O 316.944 3.17083 -1.62287 0
M  V30 3297 O 315.803 4.97419 -2.26355 0
M  V30 3298 H 312.897 0.766756 -0.309862 0
M  V30 3299 H 315.443 1.13514 -1.26145 0
M  V30 3300 H 314.215 2.85494 -2.67598 0
M  V30 3301 H 313.838 3.7803 -1.23203 0
M  V30 3302 N 314.835 0.952656 1.25548 0
M  V30 3303 C 316.081 0.607272 1.93494 0
M  V30 3304 C 316.414 -0.853245 1.74452 0
M  V30 3305 O 315.689 -1.61194 1.08843 0
M  V30 3306 C 315.972 0.96435 3.46947 0
M  V30 3307 C 315.825 2.48045 3.75225 0
M  V30 3308 C 317.144 0.487987 4.37386 0
M  V30 3309 H 314.263 0.222096 0.702739 0
M  V30 3310 H 316.905 1.18895 1.48203 0
M  V30 3311 H 315.055 0.469361 3.85654 0
M  V30 3312 H 316.727 3.04905 3.46166 0
M  V30 3313 H 314.97 2.919 3.209 0
M  V30 3314 H 315.641 2.6808 4.82532 0
M  V30 3315 H 318.117 0.912558 4.0597 0
M  V30 3316 H 316.993 0.766547 5.43521 0
M  V30 3317 H 317.254 -0.612063 4.37843 0
M  V30 3318 N 316.313 -1.40141 0.720998 0
M  V30 3319 C 317.59 -1.94677 0.189757 0
M  V30 3320 C 317.97 -1.65879 -1.30566 0
M  V30 3321 O 317.318 -0.979391 -2.06447 0
M  V30 3322 C 317.528 -3.45279 0.508304 0
M  V30 3323 C 318.876 -4.22209 0.449934 0
M  V30 3324 O 319.9 -3.53413 0.444677 0
M  V30 3325 O 318.759 -5.44788 0.432189 0
M  V30 3326 H 315.853 -0.826459 0.0299026 0
M  V30 3327 H 318.399 -1.49719 0.7989 0
M  V30 3328 H 317.171 -3.59619 1.54239 0
M  V30 3329 H 316.794 -3.97386 -0.130525 0
M  V30 3330 N 317.792 -0.46758 -1.50504 0
M  V30 3331 C 319.038 0.0887532 -2.02606 0
M  V30 3332 C 319.371 1.39686 -1.34913 0
M  V30 3333 O 318.646 1.88644 -0.473694 0
M  V30 3334 C 318.929 0.276206 -3.59039 0
M  V30 3335 C 318.782 -1.05267 -4.37309 0
M  V30 3336 C 320.101 1.03235 -4.27821 0
M  V30 3337 H 317.22 0.0307814 -0.736357 0
M  V30 3338 H 319.862 -0.612485 -1.79857 0
M  V30 3339 H 318.012 0.8735 -3.78553 0
M  V30 3340 H 319.684 -1.68628 -4.29374 0
M  V30 3341 H 317.927 -1.65015 -4.01189 0
M  V30 3342 H 318.598 -0.875197 -5.45018 0
M  V30 3343 H 321.074 0.526111 -4.12761 0
M  V30 3344 H 319.95 1.1323 -5.37094 0
M  V30 3345 H 320.211 2.06806 -3.90748 0
M  V30 3346 N 319.27 1.56325 -0.20005 0
M  V30 3347 C 320.233 2.18084 0.705132 0
M  V30 3348 C 321.233 1.13666 1.1374 0
M  V30 3349 O 322.423 1.39023 1.04968 0
M  V30 3350 C 319.555 2.78689 1.96329 0
M  V30 3351 H 320.748 2.99435 0.167023 0
M  V30 3352 H 318.301 1.56221 0.0495725 0
M  V30 3353 H 319.036 2.0115 2.5438 0
M  V30 3354 H 318.821 3.55133 1.66202 0
M  V30 3355 H 320.311 3.26096 2.60866 0
M  V30 3356 N 320.748 -0.0735177 1.57428 0
M  V30 3357 C 322.164 -0.428264 1.53747 0
M  V30 3358 C 322.364 -1.79272 0.91998 0
M  V30 3359 O 321.42 -2.47051 0.521745 0
M  V30 3360 C 322.733 -0.370914 2.98404 0
M  V30 3361 C 324.281 -0.451224 3.0973 0
M  V30 3362 C 324.756 -0.4238 4.56035 0
M  V30 3363 N 326.247 -0.483925 4.60665 0
M  V30 3364 C 326.982 -0.484891 5.71346 0
M  V30 3365 N 326.478 -0.440775 6.91396 0
M  V30 3366 N 328.271 -0.531319 5.59583 0
M  V30 3367 H 320.422 0.819949 1.95935 0
M  V30 3368 H 322.685 0.307493 0.896745 0
M  V30 3369 H 322.391 0.564956 3.47133 0
M  V30 3370 H 322.265 -1.18176 3.5821 0
M  V30 3371 H 324.652 -1.37752 2.60976 0
M  V30 3372 H 324.733 0.388167 2.52838 0
M  V30 3373 H 324.377 0.498638 5.05446 0
M  V30 3374 H 324.307 -1.2807 5.10789 0
M  V30 3375 H 326.798 -0.522338 3.74273 0
M  V30 3376 H 327.111 -0.44539 7.71515 0
M  V30 3377 H 325.456 -0.40749 6.93804 0
M  V30 3378 H 328.647 -0.563464 4.64696 0
M  V30 3379 H 328.82 -0.528603 6.4584 0
M  V30 3380 N 322.226 -1.5378 -0.344866 0
M  V30 3381 C 323.472 -1.71216 -1.08687 0
M  V30 3382 C 323.805 -0.473281 -1.88345 0
M  V30 3383 O 323.08 0.52968 -1.87149 0
M  V30 3384 C 323.363 -2.97486 -2.02914 0
M  V30 3385 C 323.216 -4.31579 -1.26727 0
M  V30 3386 C 324.535 -3.19422 -3.0275 0
M  V30 3387 H 321.654 -0.62301 -0.393735 0
M  V30 3388 H 324.296 -1.8645 -0.365563 0
M  V30 3389 H 322.446 -2.84629 -2.64421 0
M  V30 3390 H 324.118 -4.56284 -0.67845 0
M  V30 3391 H 322.361 -4.30049 -0.569273 0
M  V30 3392 H 323.032 -5.16106 -1.95803 0
M  V30 3393 H 325.508 -3.316 -2.51357 0
M  V30 3394 H 324.384 -4.09169 -3.65885 0
M  V30 3395 H 324.645 -2.35656 -3.74057 0
M  V30 3396 N 323.704 0.605807 -1.45491 0
M  V30 3397 C 324.634 1.72709 -1.57143 0
M  V30 3398 C 325.615 1.6476 -0.422884 0
M  V30 3399 O 326.8 1.83132 -0.646247 0
M  V30 3400 C 323.93 3.11316 -1.53948 0
M  V30 3401 C 322.884 3.34077 -2.67537 0
M  V30 3402 C 322.21 4.72975 -2.49397 0
M  V30 3403 C 323.51 3.24158 -4.09535 0
M  V30 3404 H 325.204 1.63214 -2.51001 0
M  V30 3405 H 322.75 0.78379 -1.208 0
M  V30 3406 H 324.703 3.89557 -1.60696 0
M  V30 3407 H 323.427 3.21655 -0.566205 0
M  V30 3408 H 322.086 2.58227 -2.6022 0
M  V30 3409 H 321.734 4.8005 -1.50205 0
M  V30 3410 H 321.434 4.8916 -3.25571 0
M  V30 3411 H 322.958 5.53414 -2.58002 0
M  V30 3412 H 324.372 3.92271 -4.18086 0
M  V30 3413 H 322.769 3.51872 -4.86113 0
M  V30 3414 H 323.839 2.2157 -4.31317 0
M  V30 3415 N 325.182 1.32811 0.848464 0
M  V30 3416 C 326.41 1.26739 1.63538 0
M  V30 3417 C 326.825 -0.163484 1.88091 0
M  V30 3418 O 326.182 -1.10258 1.45429 0
M  V30 3419 C 326.233 2.03013 2.99112 0
M  V30 3420 O 325.954 3.40518 2.75643 0
M  V30 3421 C 327.455 2.04038 3.93552 0
M  V30 3422 H 324.675 0.437024 0.509167 0
M  V30 3423 H 327.219 1.75033 1.05753 0
M  V30 3424 H 325.374 1.58426 3.53525 0
M  V30 3425 H 325.788 3.79635 3.61908 0
M  V30 3426 H 327.262 2.61877 4.85926 0
M  V30 3427 H 327.739 1.0282 4.26995 0
M  V30 3428 H 328.345 2.486 3.45077 0
M  V30 3429 N 326.66 -1.06551 1.16123 0
M  V30 3430 C 328.071 -1.60768 0.949232 0
M  V30 3431 C 328.422 -1.89523 -0.507508 0
M  V30 3432 O 327.547 -1.66671 -1.38021 0
M  V30 3433 C 328.142 -2.92086 1.71671 0
M  V30 3434 C 326.701 -3.43015 1.54977 0
M  V30 3435 C 325.848 -2.16947 1.72711 0
M  V30 3436 H 328.799 -0.895354 1.31031 0
M  V30 3437 H 328.82 -3.6138 1.19099 0
M  V30 3438 H 328.332 -2.71127 2.7769 0
M  V30 3439 H 326.433 -3.69039 0.513873 0
M  V30 3440 H 326.546 -4.18516 2.33198 0
M  V30 3441 H 324.91 -2.27041 1.15431 0
M  V30 3442 H 325.693 -1.98473 2.80113 0
M  V30 3443 N 328.138 -0.959301 -1.25041 0
M  V30 3444 C 329.415 -0.533805 -1.88175 0
M  V30 3445 C 329.795 0.988994 -1.865 0
M  V30 3446 O 329.143 1.85677 -1.33177 0
M  V30 3447 C 329.353 -1.11575 -3.30684 0
M  V30 3448 C 330.701 -1.19548 -4.07423 0
M  V30 3449 O 331.725 -1.06765 -3.39823 0
M  V30 3450 O 330.584 -1.39656 -5.28354 0
M  V30 3451 H 327.678 -0.176772 -0.807887 0
M  V30 3452 H 330.224 -1.05303 -1.33076 0
M  V30 3453 H 328.996 -2.15884 -3.26358 0
M  V30 3454 H 328.619 -0.580059 -3.93346 0
M  V30 3455 N 329.616 1.39756 -0.72842 0
M  V30 3456 C 330.579 2.29012 -0.0927297 0
M  V30 3457 C 331.579 1.45992 0.674025 0
M  V30 3458 O 332.769 1.66749 0.50402 0
M  V30 3459 C 329.901 3.29396 0.878137 0
M  V30 3460 H 331.094 2.86729 -0.879011 0
M  V30 3461 H 328.647 1.48293 -0.493847 0
M  V30 3462 H 329.382 2.76722 1.69101 0
M  V30 3463 H 329.167 3.907 0.331051 0
M  V30 3464 H 330.657 3.96199 1.3197 0
M  V30 3465 N 331.094 0.475555 1.50254 0
M  V30 3466 C 332.341 -0.0778919 2.0235 0
M  V30 3467 C 332.669 -1.39319 1.35722 0
M  V30 3468 O 331.924 -1.89888 0.473395 0
M  V30 3469 C 332.223 -0.305114 3.56095 0
M  V30 3470 C 331.889 0.92903 4.41225 0
M  V30 3471 C 330.551 1.26739 4.6421 0
M  V30 3472 C 332.903 1.75054 4.90923 0
M  V30 3473 C 330.231 2.42724 5.34137 0
M  V30 3474 C 332.583 2.9017 5.62125 0
M  V30 3475 C 331.247 3.24416 5.83362 0
M  V30 3476 H 330.517 -0.0285027 0.740452 0
M  V30 3477 H 333.164 0.630543 1.80821 0
M  V30 3478 H 331.469 -1.09584 3.76163 0
M  V30 3479 H 333.166 -0.747377 3.93974 0
M  V30 3480 H 329.756 0.655428 4.23559 0
M  V30 3481 H 333.94 1.50231 4.73016 0
M  V30 3482 H 329.196 2.69525 5.48786 0
M  V30 3483 H 333.37 3.54169 5.99614 0
M  V30 3484 H 330.997 4.14396 6.37323 0
M  V30 3485 N 332.573 -1.56217 0.208337 0
M  V30 3486 C 333.819 -1.98242 -0.427552 0
M  V30 3487 C 334.152 -1.09554 -1.60348 0
M  V30 3488 O 333.427 -0.15035 -1.93918 0
M  V30 3489 C 333.71 -3.4931 -0.874907 0
M  V30 3490 C 333.563 -4.48773 0.303751 0
M  V30 3491 C 334.882 -4.04424 -1.73577 0
M  V30 3492 H 332.001 -0.720744 -0.153936 0
M  V30 3493 H 334.643 -1.87586 0.30192 0
M  V30 3494 H 332.793 -3.58522 -1.49648 0
M  V30 3495 H 334.465 -4.51586 0.941682 0
M  V30 3496 H 332.708 -4.23194 0.953375 0
M  V30 3497 H 333.379 -5.51976 -0.0519883 0
M  V30 3498 H 335.855 -3.98075 -1.21143 0
M  V30 3499 H 334.731 -5.1047 -2.01771 0
M  V30 3500 H 334.992 -3.50494 -2.69456 0
M  V30 3501 N 334.051 0.0651679 -1.57465 0
M  V30 3502 C 335.291 0.768329 -1.8941 0
M  V30 3503 C 335.655 1.74406 -0.802894 0
M  V30 3504 O 336.856 2.49281 -1.0056 0
M  V30 3505 C 335.127 1.45199 -3.26576 0
M  V30 3506 S 336.686 2.1893 -3.80283 0
M  V30 3507 H 333.504 0.255359 -0.663561 0
M  V30 3508 H 336.106 0.024167 -1.95485 0
M  V30 3509 H 334.81 0.728123 -4.03889 0
M  V30 3510 H 334.341 2.23545 -3.23715 0
M  V30 3511 H 336.356 3.45551 -3.56102 0
M  V30 3512 N 335.529 1.53961 0.336706 0
M  V30 3513 C 336.945 1.44378 0.680241 0
M  V30 3514 C 337.145 0.606034 1.9217 0
M  V30 3515 O 336.201 0.099688 2.52303 0
M  V30 3516 C 337.514 2.87945 0.8665 0
M  V30 3517 C 339.062 2.97763 0.964682 0
M  V30 3518 C 339.537 4.42453 1.18321 0
M  V30 3519 N 341.028 4.46008 1.25025 0
M  V30 3520 C 341.763 5.55102 1.43697 0
M  V30 3521 N 341.259 6.7419 1.59498 0
M  V30 3522 N 343.052 5.42727 1.463 0
M  V30 3523 H 335.203 2.06918 -0.479455 0
M  V30 3524 H 337.466 0.935634 -0.152619 0
M  V30 3525 H 337.172 3.51691 0.0256937 0
M  V30 3526 H 337.046 3.33293 1.76623 0
M  V30 3527 H 339.433 2.34153 1.796 0
M  V30 3528 H 339.514 2.55766 0.041708 0
M  V30 3529 H 339.158 5.06645 0.356788 0
M  V30 3530 H 339.088 4.82048 2.11985 0
M  V30 3531 H 341.579 3.60196 1.14312 0
M  V30 3532 H 341.892 7.53095 1.734 0
M  V30 3533 H 340.237 6.77123 1.56621 0
M  V30 3534 H 343.428 4.48647 1.33543 0
M  V30 3535 H 343.601 6.27806 1.6051 0
M  V30 3536 N 337.007 -0.598083 1.45811 0
M  V30 3537 C 338.235 -1.38322 1.53866 0
M  V30 3538 C 338.65 -1.87992 0.174479 0
M  V30 3539 O 338.007 -1.62756 -0.825627 0
M  V30 3540 C 338.058 -2.58125 2.53089 0
M  V30 3541 O 337.779 -2.10516 3.84206 0
M  V30 3542 C 339.28 -3.50869 2.70935 0
M  V30 3543 H 336.5 -0.423093 0.520801 0
M  V30 3544 H 339.044 -0.728527 1.91083 0
M  V30 3545 H 337.199 -3.19615 2.18917 0
M  V30 3546 H 337.613 -2.88425 4.38077 0
M  V30 3547 H 339.087 -4.31451 3.44317 0
M  V30 3548 H 339.564 -4.01822 1.77301 0
M  V30 3549 H 340.17 -2.95225 3.06141 0
M  V30 3550 N 338.485 -1.33259 -0.841409 0
M  V30 3551 C 339.734 -1.23921 -1.59143 0
M  V30 3552 C 340.047 0.1941 -1.94635 0
M  V30 3553 O 341.253 0.409474 -2.68394 0
M  V30 3554 C 339.709 -2.17119 -2.87032 0
M  V30 3555 C 339.317 -3.65606 -2.58914 0
M  V30 3556 C 341.061 -2.16648 -3.65053 0
M  V30 3557 C 338.968 -4.50726 -3.82884 0
M  V30 3558 H 337.898 -0.460264 -0.597221 0
M  V30 3559 H 340.549 -1.58307 -0.927959 0
M  V30 3560 H 338.931 -1.75663 -3.54906 0
M  V30 3561 H 340.105 -4.15487 -1.99267 0
M  V30 3562 H 338.42 -3.68341 -1.942 0
M  V30 3563 H 341.017 -2.77474 -4.57069 0
M  V30 3564 H 341.36 -1.16088 -3.99787 0
M  V30 3565 H 341.893 -2.56453 -3.041 0
M  V30 3566 H 338.632 -5.52151 -3.53283 0
M  V30 3567 H 338.152 -4.0559 -4.41879 0
M  V30 3568 H 339.831 -4.64401 -4.50489 0
M  V30 3569 N 339.963 1.05934 -1.16686 0
M  V30 3570 C 341.203 1.80382 -0.961345 0
M  V30 3571 C 341.567 1.85331 0.501643 0
M  V30 3572 O 342.768 2.55795 0.825986 0
M  V30 3573 C 341.039 3.20777 -1.57596 0
M  V30 3574 S 342.598 4.11795 -1.51559 0
M  V30 3575 H 339.416 0.621332 -0.345641 0
M  V30 3576 H 342.018 1.27157 -1.48497 0
M  V30 3577 H 340.722 3.14773 -2.63337 0
M  V30 3578 H 340.253 3.79078 -1.05182 0
M  V30 3579 H 342.268 4.93485 -0.518374 0
M  V30 3580 N 341.441 0.965919 1.2453 0
M  V30 3581 C 342.669 0.644385 1.96609 0
M  V30 3582 C 343.084 -0.785823 1.71669 0
M  V30 3583 O 342.441 -1.52703 0.999399 0
M  V30 3584 C 342.492 0.907375 3.49927 0
M  V30 3585 O 342.213 2.28136 3.74013 0
M  V30 3586 C 343.714 0.599784 4.39224 0
M  V30 3587 H 340.934 0.240588 0.626385 0
M  V30 3588 H 343.478 1.29337 1.58405 0
M  V30 3589 H 341.633 0.304631 3.862 0
M  V30 3590 H 342.047 2.36002 4.68405 0
M  V30 3591 H 343.521 0.834263 5.45659 0
M  V30 3592 H 343.998 -0.465921 4.36722 0
M  V30 3593 H 344.604 1.18235 4.08535 0
M  V30 3594 N 342.919 -1.39368 0.735821 0
M  V30 3595 C 344.149 -2.04498 0.293967 0
M  V30 3596 C 344.557 -1.55593 -1.07645 0
M  V30 3597 O 343.9 -0.716324 -1.69158 0
M  V30 3598 C 343.962 -3.58836 0.218342 0
M  V30 3599 C 343.626 -4.30721 1.52736 0
M  V30 3600 C 344.623 -4.57305 2.47322 0
M  V30 3601 C 342.308 -4.69251 1.79189 0
M  V30 3602 C 344.302 -5.21429 3.66593 0
M  V30 3603 C 341.989 -5.33104 2.98737 0
M  V30 3604 C 342.987 -5.59125 3.9226 0
M  V30 3605 O 342.675 -6.21653 5.09708 0
M  V30 3606 H 342.407 -0.664118 0.126189 0
M  V30 3607 H 344.961 -1.79385 1.00051 0
M  V30 3608 H 343.191 -3.8285 -0.544314 0
M  V30 3609 H 344.88 -4.05447 -0.191626 0
M  V30 3610 H 345.646 -4.27983 2.28156 0
M  V30 3611 H 341.525 -4.48354 1.07239 0
M  V30 3612 H 345.069 -5.41656 4.39607 0
M  V30 3613 H 340.966 -5.61846 3.17803 0
M  V30 3614 H 341.734 -6.40146 5.10054 0
M  V30 3615 N 344.397 -0.483516 -1.5 0
M  V30 3616 C 345.347 0.32306 -2.257 0
M  V30 3617 C 346.331 0.950755 -1.29805 0
M  V30 3618 O 347.523 0.861247 -1.54634 0
M  V30 3619 C 344.652 1.39724 -3.13579 0
M  V30 3620 C 343.738 0.776663 -4.16928 0
M  V30 3621 N 344.129 -0.1104 -5.0568 0
M  V30 3622 C 342.427 1.03922 -4.33724 0
M  V30 3623 C 343.128 -0.46387 -5.79848 0
M  V30 3624 N 342.104 0.163987 -5.43353 0
M  V30 3625 H 345.906 -0.360086 -2.91686 0
M  V30 3626 H 343.42 -0.298456 -1.59634 0
M  V30 3627 H 345.417 1.98837 -3.66428 0
M  V30 3628 H 344.077 2.08225 -2.49143 0
M  V30 3629 H 345.088 -0.480069 -5.1567 0
M  V30 3630 H 341.765 1.71829 -3.80501 0
M  V30 3631 H 343.155 -1.18854 -6.61304 0
M  V30 3632 N 345.875 1.56104 -0.216619 0
M  V30 3633 C 347.286 1.844 0.292128 0
M  V30 3634 C 347.637 1.13788 1.59833 0
M  V30 3635 O 346.762 0.405888 2.12559 0
M  V30 3636 C 347.357 3.3452 0.53681 0
M  V30 3637 C 345.916 3.63151 0.989876 0
M  V30 3638 C 345.063 2.77255 0.0502302 0
M  V30 3639 H 348.014 1.52481 -0.439926 0
M  V30 3640 H 348.035 3.54459 1.38345 0
M  V30 3641 H 347.547 3.85885 -0.414031 0
M  V30 3642 H 345.648 3.17238 1.95425 0
M  V30 3643 H 345.761 4.71177 0.867698 0
M  V30 3644 H 344.125 2.48555 0.556117 0
M  V30 3645 H 344.908 3.31416 -0.89544 0
M  V30 3646 N 347.353 -0.0568162 1.57498 0
M  V30 3647 C 348.301 -1.08452 2.05769 0
M  V30 3648 C 349.295 -1.39164 0.965903 0
M  V30 3649 O 350.501 -1.38395 1.15095 0
M  V30 3650 H 346.876 -0.367148 0.656282 0
M  V30 3651 H 348.847 -0.651368 2.91204 0
M  V30 3652 C 347.596 -2.38543 2.52968 0
M  V30 3653 H 346.919 -2.15765 3.36579 0
M  V30 3654 H 348.359 -3.08863 2.90481 0
M  V30 3655 C 346.818 -3.05562 1.41893 0
M  V30 3656 O 347.348 -3.94262 0.769442 0
M  V30 3657 N 345.554 -2.6643 1.16032 0
M  V30 3658 H 345.101 -1.94387 1.6903 0
M  V30 3659 H 345.059 -3.11593 0.419219 0
M  V30 3660 N 348.832 -1.54138 -0.328536 0
M  V30 3661 C 350.072 -1.73827 -1.07534 0
M  V30 3662 C 350.436 -0.498777 -1.85408 0
M  V30 3663 O 351.637 -0.572937 -2.62623 0
M  V30 3664 C 349.908 -2.97573 -1.97952 0
M  V30 3665 S 351.467 -3.38143 -2.79652 0
M  V30 3666 H 348.285 -0.611287 -0.36311 0
M  V30 3667 H 350.887 -1.92306 -0.351931 0
M  V30 3668 H 349.591 -3.85939 -1.39569 0
M  V30 3669 H 349.122 -2.81603 -2.74706 0
M  V30 3670 H 351.137 -2.93052 -4.00418 0
M  V30 3671 N 350.31 0.590341 -1.46126 0
M  V30 3672 C 351.24 1.71032 -1.58966 0
M  V30 3673 C 352.221 1.64302 -0.440335 0
M  V30 3674 O 353.406 1.82436 -0.665634 0
M  V30 3675 C 350.536 3.09665 -1.57241 0
M  V30 3676 C 349.49 3.31221 -2.71066 0
M  V30 3677 C 348.816 4.70303 -2.54399 0
M  V30 3678 C 350.116 3.19796 -4.1295 0
M  V30 3679 H 351.81 1.60543 -2.52718 0
M  V30 3680 H 349.356 0.770933 -1.21625 0
M  V30 3681 H 351.309 3.87831 -1.64819 0
M  V30 3682 H 350.033 3.21036 -0.600289 0
M  V30 3683 H 348.692 2.55452 -2.62944 0
M  V30 3684 H 348.34 4.78429 -1.55288 0
M  V30 3685 H 348.04 4.85679 -3.30741 0
M  V30 3686 H 349.564 5.50647 -2.63857 0
M  V30 3687 H 350.978 3.87815 -4.22223 0
M  V30 3688 H 349.375 3.46696 -4.89818 0
M  V30 3689 H 350.445 2.16983 -4.33643 0
M  V30 3690 N 351.788 1.33704 0.83433 0
M  V30 3691 C 353.035 1.25417 1.58987 0
M  V30 3692 C 353.363 -0.178869 1.93676 0
M  V30 3693 O 352.618 -1.13723 1.59265 0
M  V30 3694 C 352.917 2.07926 2.90692 0
M  V30 3695 C 352.583 3.57066 2.75345 0
M  V30 3696 C 351.245 3.97724 2.70867 0
M  V30 3697 C 353.597 4.51817 2.59828 0
M  V30 3698 C 350.925 5.31344 2.48778 0
M  V30 3699 C 353.277 5.85604 2.39272 0
M  V30 3700 C 351.941 6.25439 2.33199 0
M  V30 3701 H 351.211 0.458934 0.581774 0
M  V30 3702 H 353.858 1.65335 0.966261 0
M  V30 3703 H 352.163 1.608 3.57282 0
M  V30 3704 H 353.86 1.98868 3.48213 0
M  V30 3705 H 350.45 3.24785 2.79665 0
M  V30 3706 H 354.634 4.21311 2.62319 0
M  V30 3707 H 349.89 5.61241 2.42526 0
M  V30 3708 H 354.064 6.58623 2.2625 0
M  V30 3709 H 351.691 7.28914 2.15843 0
M  V30 3710 N 353.266 -1.05314 1.17247 0
M  V30 3711 C 354.513 -1.78293 0.960091 0
M  V30 3712 C 354.841 -1.87658 -0.51136 0
M  V30 3713 O 354.096 -1.3718 -1.39571 0
M  V30 3714 C 354.395 -3.2229 1.54479 0
M  V30 3715 C 354.061 -3.32987 3.04024 0
M  V30 3716 C 352.723 -3.35613 3.44844 0
M  V30 3717 C 355.075 -3.34102 4.00031 0
M  V30 3718 C 352.403 -3.36982 4.8027 0
M  V30 3719 C 354.755 -3.3701 5.35357 0
M  V30 3720 C 353.419 -3.37923 5.75642 0
M  V30 3721 H 352.689 -0.652422 0.351322 0
M  V30 3722 H 355.336 -1.23782 1.46117 0
M  V30 3723 H 353.641 -3.7972 0.965391 0
M  V30 3724 H 355.338 -3.77376 1.35603 0
M  V30 3725 H 351.928 -3.31655 2.71483 0
M  V30 3726 H 356.112 -3.31276 3.69554 0
M  V30 3727 H 351.368 -3.35999 5.10798 0
M  V30 3728 H 355.542 -3.36822 6.09528 0
M  V30 3729 H 353.169 -3.38738 6.80559 0
M  V30 3730 N 354.744 -0.972509 -1.24016 0
M  V30 3731 C 355.972 -0.654803 -1.96265 0
M  V30 3732 C 356.387 0.776708 -1.72083 0
M  V30 3733 O 355.744 1.52171 -1.00748 0
M  V30 3734 C 355.795 -0.92592 -3.49441 0
M  V30 3735 O 355.516 -2.30116 -3.72798 0
M  V30 3736 C 357.017 -0.623068 -4.38899 0
M  V30 3737 H 354.237 -0.243907 -0.6251 0
M  V30 3738 H 356.781 -1.30175 -1.57717 0
M  V30 3739 H 354.936 -0.325108 -3.86033 0
M  V30 3740 H 355.35 -2.38483 -4.67147 0
M  V30 3741 H 356.824 -0.863189 -5.45209 0
M  V30 3742 H 357.301 0.442754 -4.36963 0
M  V30 3743 H 357.907 -1.204 -4.07902 0
M  V30 3744 N 356.222 1.38976 -0.743202 0
M  V30 3745 C 357.469 2.00343 -0.294752 0
M  V30 3746 C 357.797 1.58983 1.12047 0
M  V30 3747 O 357.052 0.813809 1.77977 0
M  V30 3748 C 357.351 3.55647 -0.353517 0
M  V30 3749 C 357.017 4.16685 -1.72292 0
M  V30 3750 C 355.679 4.3307 -2.09771 0
M  V30 3751 C 358.031 4.50464 -2.62168 0
M  V30 3752 C 355.359 4.80526 -3.36618 0
M  V30 3753 C 357.711 4.99332 -3.88395 0
M  V30 3754 C 356.375 5.13924 -4.25956 0
M  V30 3755 H 355.645 0.733108 -0.107857 0
M  V30 3756 H 358.292 1.6618 -0.951651 0
M  V30 3757 H 356.597 3.89884 0.386954 0
M  V30 3758 H 358.294 4.00998 0.0117269 0
M  V30 3759 H 354.884 4.04339 -1.42155 0
M  V30 3760 H 359.068 4.37416 -2.3448 0
M  V30 3761 H 354.324 4.90008 -3.65653 0
M  V30 3762 H 358.498 5.2444 -4.58187 0
M  V30 3763 H 356.125 5.50457 -5.2431 0
M  V30 3764 N 357.7 0.491464 1.49741 0
M  V30 3765 C 358.93 -0.0534375 2.06531 0
M  V30 3766 C 359.338 -1.32233 1.35318 0
M  V30 3767 O 358.681 -1.78781 0.422243 0
M  V30 3768 C 358.743 -0.387034 3.57411 0
M  V30 3769 C 358.407 0.782764 4.50246 0
M  V30 3770 C 359.404 1.67059 4.92329 0
M  V30 3771 C 357.089 0.978866 4.9267 0
M  V30 3772 C 359.083 2.73874 5.75562 0
M  V30 3773 C 356.77 2.05022 5.75682 0
M  V30 3774 C 357.768 2.92851 6.17031 0
M  V30 3775 O 357.456 3.98138 6.98385 0
M  V30 3776 H 357.188 0.0129324 0.675876 0
M  V30 3777 H 359.742 0.685238 1.93633 0
M  V30 3778 H 357.972 -1.17918 3.68283 0
M  V30 3779 H 359.661 -0.869419 3.96479 0
M  V30 3780 H 360.427 1.53086 4.60206 0
M  V30 3781 H 356.306 0.304646 4.59992 0
M  V30 3782 H 359.85 3.42458 6.07757 0
M  V30 3783 H 355.747 2.18993 6.07217 0
M  V30 3784 H 356.515 3.95374 7.16674 0
M  V30 3785 N 359.178 -1.55987 0.224894 0
M  V30 3786 C 360.406 -2.02784 -0.410665 0
M  V30 3787 C 360.821 -1.10464 -1.53112 0
M  V30 3788 O 360.178 -0.114871 -1.82138 0
M  V30 3789 C 360.229 -3.49087 -0.939165 0
M  V30 3790 O 359.95 -4.37887 0.136614 0
M  V30 3791 C 361.451 -4.11543 -1.64763 0
M  V30 3792 H 358.671 -0.663484 -0.100148 0
M  V30 3793 H 361.215 -2.01614 0.342326 0
M  V30 3794 H 359.37 -3.50861 -1.64242 0
M  V30 3795 H 359.784 -5.23849 -0.261155 0
M  V30 3796 H 361.258 -5.15673 -1.96939 0
M  V30 3797 H 361.735 -3.56736 -2.56195 0
M  V30 3798 H 362.341 -4.13629 -0.989503 0
M  V30 3799 N 360.656 0.0484629 -1.57525 0
M  V30 3800 C 361.604 1.07359 -2.06341 0
M  V30 3801 C 362.598 1.3865 -0.973269 0
M  V30 3802 O 363.804 1.37783 -1.15827 0
M  V30 3803 H 360.179 0.363662 -0.65822 0
M  V30 3804 H 362.15 0.635916 -2.91545 0
M  V30 3805 C 360.899 2.37198 -2.54229 0
M  V30 3806 H 360.222 2.13977 -3.37719 0
M  V30 3807 H 361.662 3.07319 -2.92115 0
M  V30 3808 C 360.121 3.04805 -1.43511 0
M  V30 3809 O 360.651 3.93848 -0.79034 0
M  V30 3810 N 358.857 2.65811 -1.17444 0
M  V30 3811 H 358.404 1.93488 -1.70059 0
M  V30 3812 H 358.362 3.11366 -0.435737 0
M  V30 3813 N 362.134 1.5431 0.320358 0
M  V30 3814 C 363.38 1.72924 1.05949 0
M  V30 3815 C 363.713 0.503185 1.87568 0
M  V30 3816 O 362.988 -0.499839 1.87968 0
M  V30 3817 C 363.271 3.00676 1.98156 0
M  V30 3818 C 363.124 4.3354 1.19845 0
M  V30 3819 C 364.443 3.24198 2.9763 0
M  V30 3820 H 361.562 0.629195 0.383774 0
M  V30 3821 H 364.204 1.87008 0.335854 0
M  V30 3822 H 362.354 2.888 2.59859 0
M  V30 3823 H 364.026 4.57305 0.605773 0
M  V30 3824 H 362.269 4.309 0.500784 0
M  V30 3825 H 362.94 5.19156 1.87567 0
M  V30 3826 H 365.416 3.35557 2.4605 0
M  V30 3827 H 364.292 4.14938 3.59329 0
M  V30 3828 H 364.553 2.41577 3.7026 0
M  V30 3829 N 363.613 -0.582584 1.46437 0
M  V30 3830 C 364.859 -1.34064 1.52965 0
M  V30 3831 C 365.214 -1.91566 0.178968 0
M  V30 3832 O 364.507 -1.73526 -0.812365 0
M  V30 3833 C 364.701 -2.48964 2.56421 0
M  V30 3834 C 364.53 -2.02717 4.01417 0
M  V30 3835 C 363.3 -1.87728 4.69134 0
M  V30 3836 C 365.498 -1.58675 4.8921 0
M  V30 3837 N 363.48 -1.35554 5.98747 0
M  V30 3838 C 364.851 -1.18093 6.08649 0
M  V30 3839 C 366.906 -1.46494 4.75861 0
M  V30 3840 C 365.609 -0.665427 7.16215 0
M  V30 3841 C 367.635 -0.96347 5.83499 0
M  V30 3842 C 366.997 -0.567432 7.02111 0
M  V30 3843 H 363.096 -0.483551 0.614575 0
M  V30 3844 H 365.68 -0.663309 1.83053 0
M  V30 3845 H 363.851 -3.1426 2.28244 0
M  V30 3846 H 365.583 -3.15913 2.52944 0
M  V30 3847 H 362.338 -2.09678 4.24655 0
M  V30 3848 H 362.762 -1.11628 6.67734 0
M  V30 3849 H 367.404 -1.75731 3.8455 0
M  V30 3850 H 365.122 -0.360639 8.07295 0
M  V30 3851 H 368.708 -0.873129 5.75211 0
M  V30 3852 H 367.588 -0.185389 7.83981 0
M  V30 3853 N 365.091 -1.34144 -0.827227 0
M  V30 3854 C 366.038 -1.25364 -1.93785 0
M  V30 3855 C 367.008 -0.129774 -1.65592 0
M  V30 3856 O 368.193 -0.310024 -1.88264 0
M  V30 3857 C 365.333 -1.01064 -3.2997 0
M  V30 3858 C 364.446 -2.22185 -3.70484 0
M  V30 3859 C 363.581 -1.91203 -4.95595 0
M  V30 3860 C 362.62 -3.08491 -5.28677 0
M  V30 3861 N 361.757 -2.77421 -6.44967 0
M  V30 3862 H 366.597 -2.20347 -2.00627 0
M  V30 3863 H 364.134 -1.09558 -0.981608 0
M  V30 3864 H 366.092 -0.850139 -4.08446 0
M  V30 3865 H 364.722 -0.0975026 -3.22653 0
M  V30 3866 H 363.774 -2.4917 -2.87434 0
M  V30 3867 H 365.086 -3.0983 -3.90905 0
M  V30 3868 H 364.24 -1.71864 -5.81848 0
M  V30 3869 H 362.979 -1.00812 -4.77167 0
M  V30 3870 H 361.984 -3.28431 -4.40923 0
M  V30 3871 H 363.209 -3.99655 -5.49047 0
M  V30 3872 H 361.155 -1.89601 -6.28003 0
M  V30 3873 H 361.072 -3.58598 -6.6554 0
M  V30 3874 H 362.34 -2.61577 -7.34301 0
M  V30 3875 N 366.569 1.04691 -1.17803 0
M  V30 3876 C 367.818 1.77176 -0.963931 0
M  V30 3877 C 368.131 1.88888 0.508015 0
M  V30 3878 O 369.337 2.58164 0.840465 0
M  V30 3879 C 367.793 3.18518 -1.67555 0
M  V30 3880 C 367.401 3.14919 -3.18637 0
M  V30 3881 C 369.145 3.95424 -1.54402 0
M  V30 3882 C 367.052 4.51081 -3.82466 0
M  V30 3883 H 365.982 0.664116 -0.357023 0
M  V30 3884 H 368.633 1.17303 -1.4111 0
M  V30 3885 H 367.015 3.78748 -1.15613 0
M  V30 3886 H 368.189 2.64178 -3.77554 0
M  V30 3887 H 366.504 2.51512 -3.31859 0
M  V30 3888 H 369.101 4.96106 -1.99456 0
M  V30 3889 H 369.444 4.13343 -0.495329 0
M  V30 3890 H 369.977 3.41754 -2.0359 0
M  V30 3891 H 366.716 4.38368 -4.87354 0
M  V30 3892 H 366.236 5.01951 -3.28337 0
M  V30 3893 H 367.915 5.2001 -3.84965 0
M  V30 3894 N 368.047 0.979072 1.23499 0
M  V30 3895 C 368.957 0.526431 2.28617 0
M  V30 3896 C 369.973 -0.418126 1.68901 0
M  V30 3897 O 371.149 -0.288372 1.99325 0
M  V30 3898 C 368.214 -0.165235 3.46306 0
M  V30 3899 C 367.275 0.82056 4.21385 0
M  V30 3900 C 366.508 0.161807 5.33455 0
M  V30 3901 O 366.731 -1.04742 5.60701 0
M  V30 3902 O 365.665 0.859708 5.95729 0
M  V30 3903 H 369.491 1.4006 2.69475 0
M  V30 3904 H 367.076 0.746643 1.29405 0
M  V30 3905 H 368.958 -0.553287 4.17752 0
M  V30 3906 H 367.633 -1.01419 3.07402 0
M  V30 3907 H 366.54 1.25929 3.52268 0
M  V30 3908 H 367.873 1.63828 4.64135 0
M  V30 3909 N 369.525 -1.3858 0.750561 0
M  V30 3910 C 370.75 -2.04997 0.314812 0
M  V30 3911 C 371.175 -1.56235 -1.04749 0
M  V30 3912 O 370.533 -0.712981 -1.66692 0
M  V30 3913 C 370.581 -3.58961 0.343415 0
M  V30 3914 O 369.685 -4.07025 -0.663628 0
M  V30 3915 H 369.026 -0.649081 0.139962 0
M  V30 3916 H 371.556 -1.77313 1.02084 0
M  V30 3917 H 371.566 -4.07542 0.193233 0
M  V30 3918 H 370.241 -3.93811 1.33738 0
M  V30 3919 H 368.818 -3.6982 -0.478307 0
M  V30 3920 N 371.003 -0.499398 -1.49478 0
M  V30 3921 C 371.935 0.316575 -2.27003 0
M  V30 3922 C 372.948 0.932047 -1.33479 0
M  V30 3923 O 374.137 0.815658 -1.58774 0
M  V30 3924 C 371.237 1.46055 -3.05812 0
M  V30 3925 C 370.41 0.952679 -4.26899 0
M  V30 3926 C 369.469 1.97407 -4.87767 0
M  V30 3927 O 368.495 1.54326 -5.4788 0
M  V30 3928 N 369.697 3.30436 -4.77276 0
M  V30 3929 H 372.462 -0.348168 -2.97671 0
M  V30 3930 H 370.023 -0.33185 -1.58463 0
M  V30 3931 H 372.015 2.14135 -3.43407 0
M  V30 3932 H 370.585 2.02948 -2.37762 0
M  V30 3933 H 369.805 0.0968248 -3.94081 0
M  V30 3934 H 371.093 0.59174 -5.05347 0
M  V30 3935 H 370.491 3.68126 -4.29534 0
M  V30 3936 H 369.048 3.94235 -5.19059 0
M  V30 3937 N 372.481 1.55866 -0.233164 0
M  V30 3938 C 373.897 1.59133 0.121988 0
M  V30 3939 C 374.097 1.25016 1.58029 0
M  V30 3940 O 373.153 0.990922 2.32243 0
M  V30 3941 C 374.466 2.99932 -0.214792 0
M  V30 3942 C 376.014 3.12601 -0.157971 0
M  V30 3943 C 376.489 4.55597 -0.46859 0
M  V30 3944 N 377.98 4.61305 -0.418585 0
M  V30 3945 C 378.715 5.69903 -0.63227 0
M  V30 3946 N 378.211 6.86819 -0.90835 0
M  V30 3947 N 380.004 5.59264 -0.563913 0
M  V30 3948 H 372.155 1.76315 -1.18434 0
M  V30 3949 H 374.418 0.820093 -0.475553 0
M  V30 3950 H 374.124 3.29588 -1.22739 0
M  V30 3951 H 373.998 3.74327 0.464691 0
M  V30 3952 H 376.385 2.82735 0.845283 0
M  V30 3953 H 376.466 2.40511 -0.871102 0
M  V30 3954 H 376.11 4.86182 -1.46934 0
M  V30 3955 H 376.04 5.25928 0.265865 0
M  V30 3956 H 378.531 3.77297 -0.213368 0
M  V30 3957 H 378.844 7.65507 -1.05919 0
M  V30 3958 H 377.189 6.88536 -0.945673 0
M  V30 3959 H 380.38 4.66802 -0.348372 0
M  V30 3960 H 380.553 6.43831 -0.733847 0
M  V30 3961 N 373.959 -0.0401083 1.57549 0
M  V30 3962 C 374.907 -1.06264 2.06908 0
M  V30 3963 C 375.901 -1.38132 0.980608 0
M  V30 3964 O 377.107 -1.37167 1.16556 0
M  V30 3965 H 373.482 -0.360166 0.660139 0
M  V30 3966 H 375.453 -0.620445 2.91878 0
M  V30 3967 C 374.202 -2.35846 2.55483 0
M  V30 3968 H 373.525 -2.12183 3.38849 0
M  V30 3969 H 374.965 -3.05765 2.93741 0
M  V30 3970 C 373.424 -3.0404 1.45126 0
M  V30 3971 O 373.954 -3.93424 0.811216 0
M  V30 3972 N 372.16 -2.65184 1.18852 0
M  V30 3973 H 371.707 -1.92584 1.71083 0
M  V30 3974 H 371.665 -3.1113 0.452244 0
M  V30 3975 N 375.437 -1.54477 -0.31217 0
M  V30 3976 C 376.683 -1.73483 -1.0503 0
M  V30 3977 C 377.016 -0.513125 -1.87298 0
M  V30 3978 O 376.291 0.489864 -1.8823 0
M  V30 3979 C 376.574 -3.01723 -1.96558 0
M  V30 3980 C 376.427 -4.3417 -1.17545 0
M  V30 3981 C 377.746 -3.25772 -2.95907 0
M  V30 3982 H 374.865 -0.631222 -0.380432 0
M  V30 3983 H 377.507 -1.87184 -0.325932 0
M  V30 3984 H 375.657 -2.90174 -2.58324 0
M  V30 3985 H 377.329 -4.5762 -0.581513 0
M  V30 3986 H 375.572 -4.31159 -0.477925 0
M  V30 3987 H 376.243 -5.20143 -1.84811 0
M  V30 3988 H 378.719 -3.36857 -2.44267 0
M  V30 3989 H 377.595 -4.16838 -3.57123 0
M  V30 3990 H 377.856 -2.43537 -3.68974 0
M  V30 3991 N 376.915 0.57481 -1.46744 0
M  V30 3992 C 378.155 1.34369 -1.54027 0
M  V30 3993 C 378.519 1.91051 -0.190642 0
M  V30 3994 O 379.72 2.68444 -0.138255 0
M  V30 3995 C 377.991 2.43706 -2.61423 0
M  V30 3996 S 379.55 3.30915 -2.88167 0
M  V30 3997 H 376.368 0.45768 -0.544105 0
M  V30 3998 H 378.97 0.659959 -1.84024 0
M  V30 3999 H 377.674 2.0047 -3.58106 0
M  V30 4000 H 377.205 3.16842 -2.33184 0
M  V30 4001 H 379.22 4.42742 -2.24039 0
M  V30 4002 N 378.394 1.34581 0.820102 0
M  V30 4003 C 379.324 1.29038 1.94606 0
M  V30 4004 C 380.305 0.1673 1.69275 0
M  V30 4005 O 381.49 0.360112 1.90832 0
M  V30 4006 C 378.62 1.04793 3.31113 0
M  V30 4007 C 377.574 2.13597 3.70891 0
M  V30 4008 C 376.9 1.74537 5.05412 0
M  V30 4009 C 378.2 3.55451 3.8269 0
M  V30 4010 H 379.894 2.23248 1.99501 0
M  V30 4011 H 377.44 1.0747 0.958449 0
M  V30 4012 H 379.393 0.995592 4.0947 0
M  V30 4013 H 378.117 0.0702565 3.26524 0
M  V30 4014 H 376.776 2.17905 2.9481 0
M  V30 4015 H 376.424 0.754226 4.97313 0
M  V30 4016 H 376.124 2.47361 5.32997 0
M  V30 4017 H 377.648 1.70803 5.86224 0
M  V30 4018 H 379.062 3.5354 4.51312 0
M  V30 4019 H 377.459 4.26922 4.21732 0
M  V30 4020 H 378.529 3.92587 2.84611 0
M  V30 4021 N 379.872 -1.04064 1.18357 0
M  V30 4022 C 380.802 -2.14001 0.934113 0
M  V30 4023 C 381.783 -1.69616 -0.128186 0
M  V30 4024 O 382.968 -1.94185 0.0244093 0
M  V30 4025 C 380.098 -3.44253 0.459066 0
M  V30 4026 C 379.052 -4.02261 1.46185 0
M  V30 4027 C 378.378 -5.27992 0.844322 0
M  V30 4028 C 379.678 -4.38432 2.83856 0
M  V30 4029 H 381.372 -2.35127 1.85352 0
M  V30 4030 H 378.918 -1.12998 0.892604 0
M  V30 4031 H 380.871 -4.20522 0.271907 0
M  V30 4032 H 379.595 -3.22813 -0.495912 0
M  V30 4033 H 378.254 -3.28074 1.63595 0
M  V30 4034 H 377.902 -5.02862 -0.117845 0
M  V30 4035 H 377.602 -5.67765 1.51384 0
M  V30 4036 H 379.126 -6.06938 0.667693 0
M  V30 4037 H 380.54 -5.05688 2.70098 0
M  V30 4038 H 378.937 -4.89254 3.47491 0
M  V30 4039 H 380.007 -3.4826 3.37406 0
M  V30 4040 N 381.35 -0.985608 -1.22978 0
M  V30 4041 C 382.297 -0.529825 -2.24636 0
M  V30 4042 C 383.267 0.434028 -1.60329 0
M  V30 4043 O 384.452 0.340414 -1.87739 0
M  V30 4044 C 381.592 0.156533 -3.44745 0
M  V30 4045 C 380.705 -0.848197 -4.23591 0
M  V30 4046 C 379.84 -0.136109 -5.31026 0
M  V30 4047 C 378.879 -1.1297 -6.01585 0
M  V30 4048 N 378.016 -0.446415 -7.00679 0
M  V30 4049 H 382.856 -1.40148 -2.62988 0
M  V30 4050 H 380.393 -0.702168 -1.29259 0
M  V30 4051 H 382.351 0.571324 -4.1327 0
M  V30 4052 H 380.981 0.992025 -3.07179 0
M  V30 4053 H 380.033 -1.38135 -3.54433 0
M  V30 4054 H 381.345 -1.60512 -4.72268 0
M  V30 4055 H 380.499 0.335784 -6.0577 0
M  V30 4056 H 379.238 0.653373 -4.83304 0
M  V30 4057 H 378.243 -1.6123 -5.25628 0
M  V30 4058 H 379.468 -1.91993 -6.51395 0
M  V30 4059 H 377.414 0.323763 -6.55201 0
M  V30 4060 H 377.331 -1.1419 -7.47326 0
M  V30 4061 H 378.599 0.00291697 -7.795 0
M  V30 4062 N 382.828 1.3818 -0.7579 0
M  V30 4063 C 384.056 2.04301 -0.326937 0
M  V30 4064 C 384.471 1.57163 1.0462 0
M  V30 4065 O 383.828 0.746626 1.66529 0
M  V30 4066 C 383.879 3.59846 -0.345363 0
M  V30 4067 O 383.6 4.05256 -1.66432 0
M  V30 4068 C 385.101 4.4319 0.098927 0
M  V30 4069 H 382.321 0.656443 -0.139012 0
M  V30 4070 H 384.865 1.76786 -1.02796 0
M  V30 4071 H 383.02 3.86182 0.306955 0
M  V30 4072 H 383.434 4.99709 -1.59345 0
M  V30 4073 H 384.908 5.51989 0.0348745 0
M  V30 4074 H 385.385 4.23947 1.14741 0
M  V30 4075 H 385.991 4.22051 -0.52468 0
M  V30 4076 N 384.306 0.507319 1.49211 0
M  V30 4077 C 385.531 -0.033725 2.07373 0
M  V30 4078 C 385.956 -1.29485 1.36437 0
M  V30 4079 O 385.314 -1.76294 0.423087 0
M  V30 4080 C 385.362 -0.263945 3.59633 0
M  V30 4081 O 384.466 -1.33737 3.90113 0
M  V30 4082 H 383.807 0.0290331 0.663365 0
M  V30 4083 H 386.337 0.708749 1.91932 0
M  V30 4084 H 386.347 -0.493536 4.05004 0
M  V30 4085 H 385.022 0.657424 4.10671 0
M  V30 4086 H 383.599 -1.09224 3.56545 0
M  V30 4087 N 385.784 -1.5574 0.241426 0
M  V30 4088 C 386.694 -2.2479 -0.671305 0
M  V30 4089 C 387.71 -1.26217 -1.19772 0
M  V30 4090 O 388.886 -1.59079 -1.23514 0
M  V30 4091 C 385.951 -2.92966 -1.85396 0
M  V30 4092 C 385.012 -4.06935 -1.36756 0
M  V30 4093 C 384.245 -4.71851 -2.49384 0
M  V30 4094 O 384.468 -4.35823 -3.67987 0
M  V30 4095 O 383.402 -5.60467 -2.19454 0
M  V30 4096 H 387.228 -3.0349 -0.112966 0
M  V30 4097 H 384.813 -1.49397 0.0101513 0
M  V30 4098 H 386.695 -3.35927 -2.54423 0
M  V30 4099 H 385.37 -2.17211 -2.40002 0
M  V30 4100 H 384.277 -3.68503 -0.644726 0
M  V30 4101 H 385.61 -4.84492 -0.867647 0
M  V30 4102 N 387.262 0.0317525 -1.57568 0
M  V30 4103 C 388.487 0.738664 -1.938 0
M  V30 4104 C 388.912 1.68242 -0.841208 0
M  V30 4105 O 388.27 1.80157 0.203267 0
M  V30 4106 C 388.318 1.47417 -3.29091 0
M  V30 4107 O 387.422 2.5872 -3.2115 0
M  V30 4108 H 386.763 0.198856 -0.633524 0
M  V30 4109 H 389.293 -0.0119713 -2.04596 0
M  V30 4110 H 389.303 1.84468 -3.63917 0
M  V30 4111 H 387.978 0.781988 -4.08482 0
M  V30 4112 H 386.555 2.24231 -2.97951 0
M  V30 4113 N 388.74 1.54641 0.303973 0
M  V30 4114 C 389.988 1.73437 1.0375 0
M  V30 4115 C 390.309 0.521449 1.87899 0
M  V30 4116 O 389.579 -0.46432 1.90318 0
M  V30 4117 H 388.159 0.639518 0.386039 0
M  V30 4118 H 390.821 1.91988 0.335675 0
M  V30 4119 H 389.917 2.62235 1.69231 0
M  V30 4120 N 390.218 -0.567019 1.47046 0
M  V30 4121 C 391.446 -1.35027 1.56765 0
M  V30 4122 C 391.861 -1.8758 0.214316 0
M  V30 4123 O 391.218 -1.64471 -0.790919 0
M  V30 4124 C 391.269 -2.52698 2.58507 0
M  V30 4125 O 390.99 -2.0232 3.88585 0
M  V30 4126 C 392.491 -3.45043 2.78316 0
M  V30 4127 H 389.711 -0.41195 0.529658 0
M  V30 4128 H 392.255 -0.687832 1.92585 0
M  V30 4129 H 390.41 -3.149 2.25648 0
M  V30 4130 H 390.824 -2.79068 4.44096 0
M  V30 4131 H 392.298 -4.2405 3.53391 0
M  V30 4132 H 392.775 -3.97971 1.85784 0
M  V30 4133 H 393.381 -2.88665 3.12334 0
M  V30 4134 N 391.696 -1.35014 -0.812953 0
M  V30 4135 C 393.107 -1.25035 -1.38648 0
M  V30 4136 C 393.458 0.119967 -1.95833 0
M  V30 4137 O 392.583 1.02069 -1.90816 0
M  V30 4138 C 393.178 -2.26394 -2.52054 0
M  V30 4139 C 391.737 -2.20175 -3.05287 0
M  V30 4140 C 390.884 -2.12451 -1.78213 0
M  V30 4141 H 393.835 -1.46235 -0.616516 0
M  V30 4142 H 393.856 -1.88672 -3.30429 0
M  V30 4143 H 393.368 -3.26116 -2.10404 0
M  V30 4144 H 391.469 -1.23841 -3.51417 0
M  V30 4145 H 391.582 -3.11863 -3.63701 0
M  V30 4146 H 389.946 -1.58328 -1.9951 0
M  V30 4147 H 390.729 -3.14024 -1.38723 0
M  V30 4148 N 393.175 1.03435 -1.18907 0
M  V30 4149 C 394.4 1.80919 -1.01406 0
M  V30 4150 C 394.825 1.83055 0.432721 0
M  V30 4151 O 394.183 1.25252 1.31079 0
M  V30 4152 C 394.231 3.24091 -1.58105 0
M  V30 4153 O 393.335 4.04434 -0.806669 0
M  V30 4154 H 392.676 0.558709 -0.358803 0
M  V30 4155 H 395.206 1.30223 -1.57807 0
M  V30 4156 H 395.216 3.74853 -1.61087 0
M  V30 4157 H 393.891 3.21851 -2.6341 0
M  V30 4158 H 392.468 3.63091 -0.849666 0
M  V30 4159 N 394.653 0.992116 1.22453 0
M  V30 4160 C 395.878 0.685644 1.95739 0
M  V30 4161 C 396.303 -0.743 1.72804 0
M  V30 4162 O 395.661 -1.50778 1.00676 0
M  V30 4163 C 395.709 0.996293 3.46564 0
M  V30 4164 O 394.813 0.0945512 4.12292 0
M  V30 4165 H 394.154 0.256694 0.612376 0
M  V30 4166 H 396.684 1.32888 1.5557 0
M  V30 4167 H 396.694 0.93781 3.97076 0
M  V30 4168 H 395.369 2.03733 3.62582 0
M  V30 4169 H 393.946 0.208451 3.72317 0
M  V30 4170 N 396.131 -1.37776 0.765217 0
M  V30 4171 C 397.356 -2.04651 0.336537 0
M  V30 4172 C 397.781 -1.57337 -1.03086 0
M  V30 4173 O 397.139 -0.730621 -1.65927 0
M  V30 4174 C 397.187 -3.58577 0.381468 0
M  V30 4175 O 396.291 -4.07706 -0.62042 0
M  V30 4176 H 395.632 -0.64756 0.146838 0
M  V30 4177 H 398.162 -1.76221 1.03959 0
M  V30 4178 H 398.172 -4.07314 0.236448 0
M  V30 4179 H 396.847 -3.9237 1.37907 0
M  V30 4180 H 395.424 -3.70306 -0.439056 0
M  V30 4181 N 397.609 -0.515225 -1.4894 0
M  V30 4182 C 398.837 0.0206034 -2.0689 0
M  V30 4183 C 399.252 1.29514 -1.37374 0
M  V30 4184 O 398.609 1.76698 -0.456529 0
M  V30 4185 C 398.66 0.26351 -3.60538 0
M  V30 4186 O 398.381 -0.960517 -4.27441 0
M  V30 4187 C 399.882 0.841383 -4.35242 0
M  V30 4188 H 397.102 -0.0268608 -0.670462 0
M  V30 4189 H 399.646 -0.716651 -1.91532 0
M  V30 4190 H 397.801 0.950777 -3.75552 0
M  V30 4191 H 398.215 -0.73212 -5.19365 0
M  V30 4192 H 399.689 0.96085 -5.43573 0
M  V30 4193 H 400.166 1.8427 -3.98674 0
M  V30 4194 H 400.772 0.191143 -4.2487 0
M  V30 4195 N 399.087 1.5561 -0.249682 0
M  V30 4196 C 400.498 1.84979 0.252949 0
M  V30 4197 C 400.849 1.17153 1.57384 0
M  V30 4198 O 399.974 0.450884 2.11651 0
M  V30 4199 C 400.569 3.35584 0.465732 0
M  V30 4200 C 399.128 3.65169 0.912624 0
M  V30 4201 C 398.275 2.77299 -0.00859085 0
M  V30 4202 H 401.226 1.51513 -0.47217 0
M  V30 4203 H 401.247 3.57313 1.30795 0
M  V30 4204 H 400.759 3.8492 -0.49579 0
M  V30 4205 H 398.86 3.21312 1.88652 0
M  V30 4206 H 398.973 4.72912 0.767559 0
M  V30 4207 H 397.337 2.49678 0.50327 0
M  V30 4208 H 398.12 3.29442 -0.965537 0
M  V30 4209 N 400.565 -0.0233959 1.57583 0
M  V30 4210 C 401.497 -1.04994 2.03737 0
M  V30 4211 C 402.51 -1.32125 0.951152 0
M  V30 4212 O 403.699 -1.29512 1.22837 0
M  V30 4213 C 400.799 -2.39026 2.40249 0
M  V30 4214 C 399.972 -2.31171 3.7132 0
M  V30 4215 C 399.031 -3.47698 3.94959 0
M  V30 4216 O 398.057 -3.26937 4.65941 0
M  V30 4217 N 399.259 -4.6976 3.41037 0
M  V30 4218 H 402.024 -0.656507 2.92421 0
M  V30 4219 H 399.585 -0.211235 1.60516 0
M  V30 4220 H 401.577 -3.15712 2.53196 0
M  V30 4221 H 400.147 -2.70194 1.57207 0
M  V30 4222 H 399.367 -1.39547 3.68674 0
M  V30 4223 H 400.655 -2.23071 4.57293 0
M  V30 4224 H 400.053 -4.89528 2.83512 0
M  V30 4225 H 398.61 -5.43791 3.59353 0
M  V30 4226 N 402.043 -1.548 -0.295768 0
M  V30 4227 C 402.953 -1.89177 -1.38742 0
M  V30 4228 C 403.969 -0.786481 -1.55211 0
M  V30 4229 O 405.145 -1.08344 -1.69775 0
M  V30 4230 C 402.21 -2.13663 -2.73036 0
M  V30 4231 C 401.271 -3.37349 -2.65508 0
M  V30 4232 C 400.504 -3.60658 -3.93398 0
M  V30 4233 O 400.727 -2.86882 -4.93006 0
M  V30 4234 O 399.661 -4.54179 -3.94975 0
M  V30 4235 H 403.487 -2.82059 -1.12589 0
M  V30 4236 H 401.072 -1.41056 -0.492295 0
M  V30 4237 H 402.954 -2.3094 -3.52484 0
M  V30 4238 H 401.629 -1.23967 -2.99022 0
M  V30 4239 H 400.536 -3.25431 -1.84514 0
M  V30 4240 H 401.869 -4.27192 -2.44474 0
M  V30 4241 N 403.521 0.559213 -1.47345 0
M  V30 4242 C 404.469 1.68747 -1.60085 0
M  V30 4243 C 405.463 1.628 -0.46825 0
M  V30 4244 O 406.669 1.68009 -0.645977 0
M  V30 4245 H 403.044 0.558329 -0.503759 0
M  V30 4246 H 405.015 1.55138 -2.54902 0
M  V30 4247 C 403.764 3.07103 -1.63042 0
M  V30 4248 H 403.087 3.12361 -2.49541 0
M  V30 4249 H 404.527 3.85743 -1.76006 0
M  V30 4250 C 402.986 3.34935 -0.363357 0
M  V30 4251 O 403.516 3.98102 0.536416 0
M  V30 4252 N 401.722 2.89574 -0.244 0
M  V30 4253 H 401.269 2.38348 -0.977133 0
M  V30 4254 H 401.227 3.08566 0.602836 0
M  V30 4255 N 404.999 1.35443 0.805782 0
M  V30 4256 C 406.227 1.31878 1.59423 0
M  V30 4257 C 406.642 -0.103562 1.88516 0
M  V30 4258 O 405.999 -1.05575 1.48863 0
M  V30 4259 C 406.05 2.12426 2.92502 0
M  V30 4260 O 405.771 3.49115 2.6467 0
M  V30 4261 C 407.272 2.16455 3.86862 0
M  V30 4262 H 404.492 0.453002 0.495005 0
M  V30 4263 H 407.036 1.78309 1.00131 0
M  V30 4264 H 405.191 1.69593 3.48306 0
M  V30 4265 H 405.605 3.90957 3.49647 0
M  V30 4266 H 407.079 2.77204 4.77349 0
M  V30 4267 H 407.556 1.16352 4.23508 0
M  V30 4268 H 408.162 2.59453 3.36993 0
M  V30 4269 N 406.477 -1.02803 1.19454 0
M  V30 4270 C 407.726 -1.7562 0.991996 0
M  V30 4271 C 408.039 -1.89672 -0.477901 0
M  V30 4272 O 409.245 -2.59468 -0.799287 0
M  V30 4273 C 407.701 -3.15812 1.72601 0
M  V30 4274 C 407.309 -3.0981 3.23607 0
M  V30 4275 C 409.053 -3.92918 1.60674 0
M  V30 4276 C 406.96 -4.44939 3.89594 0
M  V30 4277 H 405.89 -0.658352 0.367543 0
M  V30 4278 H 408.541 -1.15044 1.42959 0
M  V30 4279 H 406.923 -3.7686 1.21624 0
M  V30 4280 H 408.097 -2.58138 3.81709 0
M  V30 4281 H 406.412 -2.46201 3.35819 0
M  V30 4282 H 409.009 -4.9287 2.07323 0
M  V30 4283 H 409.352 -4.12502 0.561025 0
M  V30 4284 H 409.885 -3.38472 2.09001 0
M  V30 4285 H 406.624 -4.30559 4.94267 0
M  V30 4286 H 406.144 -4.96664 3.36281 0
M  V30 4287 H 407.823 -5.1382 3.93189 0
M  V30 4288 N 407.956 -0.998596 -1.21925 0
M  V30 4289 C 409.181 -0.696015 -1.95372 0
M  V30 4290 C 409.606 0.733826 -1.73195 0
M  V30 4291 O 408.964 1.50242 -1.01474 0
M  V30 4292 C 409.012 -1.01466 -3.4603 0
M  V30 4293 O 408.116 -0.116415 -4.12236 0
M  V30 4294 H 407.457 -0.259938 -0.611006 0
M  V30 4295 H 409.987 -1.33711 -1.54863 0
M  V30 4296 H 409.997 -0.958855 -3.96573 0
M  V30 4297 H 408.672 -2.05653 -3.61497 0
M  V30 4298 H 407.249 -0.228193 -3.72201 0
M  V30 4299 N 409.434 1.37368 -0.772513 0
M  V30 4300 C 410.682 1.99279 -0.336516 0
M  V30 4301 C 411.003 1.6163 1.09091 0
M  V30 4302 O 410.273 0.882109 1.74916 0
M  V30 4303 H 408.853 0.737063 -0.121435 0
M  V30 4304 H 411.515 1.67836 -0.990809 0
M  V30 4305 H 410.611 3.09332 -0.414763 0
M  V30 4306 N 410.912 0.523116 1.48665 0
M  V30 4307 C 412.142 -0.00961724 2.06598 0
M  V30 4308 C 412.55 -1.29333 1.38093 0
M  V30 4309 O 411.893 -1.77846 0.46007 0
M  V30 4310 C 411.955 -0.311135 3.58151 0
M  V30 4311 C 411.619 0.878092 4.48485 0
M  V30 4312 C 412.616 1.77464 4.88674 0
M  V30 4313 C 410.301 1.08315 4.90483 0
M  V30 4314 C 412.295 2.86021 5.69623 0
M  V30 4315 C 409.982 2.17187 5.71203 0
M  V30 4316 C 410.98 3.05873 6.10681 0
M  V30 4317 O 410.668 4.12862 6.89783 0
M  V30 4318 H 410.4 0.0272658 0.67545 0
M  V30 4319 H 412.954 0.726156 1.92136 0
M  V30 4320 H 411.184 -1.10079 3.70701 0
M  V30 4321 H 412.873 -0.785125 3.98234 0
M  V30 4322 H 413.639 1.62813 4.56855 0
M  V30 4323 H 409.518 0.402149 4.59243 0
M  V30 4324 H 413.062 3.55272 6.00356 0
M  V30 4325 H 408.959 2.31824 6.02435 0
M  V30 4326 H 409.727 4.10487 7.08126 0
M  V30 4327 N 412.39 -1.55475 0.257931 0
M  V30 4328 C 413.615 -2.04064 -0.370488 0
M  V30 4329 C 414.04 -1.13565 -1.49948 0
M  V30 4330 O 413.398 -0.130781 -1.80828 0
M  V30 4331 C 413.446 -3.50554 -0.845237 0
M  V30 4332 O 412.55 -3.63173 -1.95394 0
M  V30 4333 H 411.891 -0.659257 -0.0792243 0
M  V30 4334 H 414.421 -2.00903 0.387212 0
M  V30 4335 H 414.431 -3.91588 -1.14555 0
M  V30 4336 H 413.106 -4.15896 -0.0191259 0
M  V30 4337 H 411.683 -3.34039 -1.65748 0
M  V30 4338 N 413.868 0.0150385 -1.57593 0
M  V30 4339 C 414.798 1.01047 -2.10503 0
M  V30 4340 C 415.779 1.36816 -1.01071 0
M  V30 4341 O 416.964 1.45455 -1.28672 0
M  V30 4342 C 414.094 2.30708 -2.59598 0
M  V30 4343 C 413.048 2.09142 -3.73421 0
M  V30 4344 C 412.374 3.44685 -4.08774 0
M  V30 4345 C 413.674 1.46619 -5.01298 0
M  V30 4346 H 415.368 0.569978 -2.93925 0
M  V30 4347 H 412.914 0.272724 -1.41394 0
M  V30 4348 H 414.867 3.00687 -2.95238 0
M  V30 4349 H 413.591 2.76843 -1.73279 0
M  V30 4350 H 412.25 1.41592 -3.38153 0
M  V30 4351 H 411.898 3.88495 -3.195 0
M  V30 4352 H 411.598 3.31077 -4.8545 0
M  V30 4353 H 413.122 4.16004 -4.4696 0
M  V30 4354 H 414.536 2.06535 -5.34805 0
M  V30 4355 H 412.933 1.43544 -5.82679 0
M  V30 4356 H 414.003 0.433611 -4.82957 0
M  V30 4357 N 415.346 1.54954 0.287554 0
M  V30 4358 C 416.276 1.89839 1.35954 0
M  V30 4359 C 417.257 0.758675 1.52244 0
M  V30 4360 O 418.442 1.01557 1.65529 0
M  V30 4361 C 415.572 2.15753 2.72154 0
M  V30 4362 C 414.526 3.3159 2.70614 0
M  V30 4363 C 413.852 3.42952 4.10229 0
M  V30 4364 C 415.152 4.68359 2.31165 0
M  V30 4365 H 416.846 2.79625 1.07007 0
M  V30 4366 H 414.392 1.3454 0.513316 0
M  V30 4367 H 416.345 2.38743 3.47246 0
M  V30 4368 H 415.069 1.22752 3.02654 0
M  V30 4369 H 413.728 3.08545 1.97979 0
M  V30 4370 H 413.376 2.47443 4.37928 0
M  V30 4371 H 413.076 4.20826 4.10097 0
M  V30 4372 H 414.6 3.68218 4.87081 0
M  V30 4373 H 416.014 4.9099 2.95976 0
M  V30 4374 H 414.411 5.49044 2.42221 0
M  V30 4375 H 415.481 4.68165 1.26291 0
M  V30 4376 N 416.824 -0.551391 1.4764 0
M  V30 4377 C 418.052 -1.33357 1.58189 0
M  V30 4378 C 418.467 -1.87342 0.234199 0
M  V30 4379 O 417.824 -1.65301 -0.77343 0
M  V30 4380 C 417.875 -2.49942 2.61173 0
M  V30 4381 O 417.596 -1.98187 3.90709 0
M  V30 4382 C 419.097 -3.42072 2.8196 0
M  V30 4383 H 416.317 -0.40631 0.533998 0
M  V30 4384 H 418.861 -0.667367 1.93304 0
M  V30 4385 H 417.016 -3.12489 2.28975 0
M  V30 4386 H 417.43 -2.74342 4.47031 0
M  V30 4387 H 418.904 -4.20278 3.57869 0
M  V30 4388 H 419.381 -3.95978 1.89995 0
M  V30 4389 H 419.987 -2.85336 3.15378 0
M  V30 4390 N 418.302 -1.35869 -0.798587 0
M  V30 4391 C 419.542 -1.30961 -1.56935 0
M  V30 4392 C 419.906 0.112404 -1.91671 0
M  V30 4393 O 421.107 0.285937 -2.67275 0
M  V30 4394 C 419.378 -2.19811 -2.81811 0
M  V30 4395 S 420.937 -2.32498 -3.72143 0
M  V30 4396 H 417.755 -0.465297 -0.537606 0
M  V30 4397 H 420.357 -1.71344 -0.941346 0
M  V30 4398 H 419.061 -3.22095 -2.54329 0
M  V30 4399 H 418.592 -1.80415 -3.49591 0
M  V30 4400 H 420.607 -1.5157 -4.72484 0
M  V30 4401 N 419.78 1.02168 -1.19998 0
M  V30 4402 C 420.727 2.10601 -0.944228 0
M  V30 4403 C 421.697 1.65639 0.123664 0
M  V30 4404 O 422.882 1.9079 -0.0199941 0
M  V30 4405 C 420.022 3.41504 -0.496865 0
M  V30 4406 C 419.135 3.99973 -1.63234 0
M  V30 4407 C 418.27 5.18915 -1.13579 0
M  V30 4408 C 417.309 5.69456 -2.24468 0
M  V30 4409 N 416.446 6.79665 -1.76068 0
M  V30 4410 H 421.286 2.31814 -1.8726 0
M  V30 4411 H 418.823 1.13686 -0.933483 0
M  V30 4412 H 420.781 4.16626 -0.218843 0
M  V30 4413 H 419.411 3.2038 0.394508 0
M  V30 4414 H 418.463 3.21997 -2.0254 0
M  V30 4415 H 419.775 4.33492 -2.46752 0
M  V30 4416 H 418.929 6.01222 -0.813429 0
M  V30 4417 H 417.668 4.8695 -0.270434 0
M  V30 4418 H 416.673 4.85757 -2.57526 0
M  V30 4419 H 417.898 6.03459 -3.11472 0
M  V30 4420 H 415.844 6.49538 -0.918516 0
M  V30 4421 H 415.761 7.12349 -2.5317 0
M  V30 4422 H 417.029 7.65549 -1.46817 0
M  V30 4423 N 421.258 1.00505 1.21394 0
M  V30 4424 C 422.674 0.717873 1.42544 0
M  V30 4425 C 422.874 -0.706936 1.88692 0
M  V30 4426 O 421.93 -1.47627 2.04847 0
M  V30 4427 C 423.243 1.73377 2.45684 0
M  V30 4428 C 424.791 1.75059 2.59467 0
M  V30 4429 C 425.266 2.75545 3.6584 0
M  V30 4430 N 426.757 2.74213 3.73311 0
M  V30 4431 C 427.492 3.48626 4.55245 0
M  V30 4432 N 426.988 4.32678 5.41075 0
M  V30 4433 N 428.781 3.37276 4.49668 0
M  V30 4434 H 420.932 1.92506 0.897503 0
M  V30 4435 H 423.195 0.830919 0.456375 0
M  V30 4436 H 422.901 2.75395 2.18748 0
M  V30 4437 H 422.775 1.53647 3.44489 0
M  V30 4438 H 425.162 0.737337 2.8574 0
M  V30 4439 H 425.243 1.98861 1.60897 0
M  V30 4440 H 424.887 3.77028 3.40313 0
M  V30 4441 H 424.817 2.49009 4.64007 0
M  V30 4442 H 427.308 2.13234 3.11993 0
M  V30 4443 H 427.621 4.86253 6.00648 0
M  V30 4444 H 425.966 4.3676 5.40616 0
M  V30 4445 H 429.157 2.71043 3.81646 0
M  V30 4446 H 429.33 3.95524 5.13288 0
M  V30 4447 N 422.737 -1.36956 0.779787 0
M  V30 4448 C 423.965 -2.03755 0.359398 0
M  V30 4449 C 424.38 -1.58807 -1.02106 0
M  V30 4450 O 423.737 -0.773024 -1.6532 0
M  V30 4451 C 423.788 -3.59251 0.402568 0
M  V30 4452 O 423.509 -4.02557 1.72858 0
M  V30 4453 C 425.01 -4.43291 -0.0284068 0
M  V30 4454 H 422.23 -0.654148 0.149437 0
M  V30 4455 H 424.774 -1.75128 1.05595 0
M  V30 4456 H 422.929 -3.86621 -0.245478 0
M  V30 4457 H 423.343 -4.97111 1.67275 0
M  V30 4458 H 424.817 -5.51975 0.0529466 0
M  V30 4459 H 425.294 -4.25719 -1.07982 0
M  V30 4460 H 425.9 -4.21163 0.591758 0
M  V30 4461 N 424.215 -0.530993 -1.48385 0
M  V30 4462 C 425.145 0.219985 -2.32461 0
M  V30 4463 C 426.126 0.934111 -1.42156 0
M  V30 4464 O 427.311 0.919694 -1.71042 0
M  V30 4465 C 424.441 1.26674 -3.23375 0
M  V30 4466 C 423.395 0.67069 -4.22712 0
M  V30 4467 C 422.721 1.82017 -5.02766 0
M  V30 4468 C 424.021 -0.358268 -5.2107 0
M  V30 4469 H 425.715 -0.48187 -2.95497 0
M  V30 4470 H 423.261 -0.233182 -1.42099 0
M  V30 4471 H 425.214 1.80006 -3.81019 0
M  V30 4472 H 423.938 1.99818 -2.58341 0
M  V30 4473 H 422.597 0.158878 -3.66256 0
M  V30 4474 H 422.245 2.54002 -4.34157 0
M  V30 4475 H 421.945 1.42727 -5.70003 0
M  V30 4476 H 423.469 2.35725 -5.63264 0
M  V30 4477 H 424.883 0.0880081 -5.73232 0
M  V30 4478 H 423.28 -0.66861 -5.96364 0
M  V30 4479 H 424.35 -1.26367 -4.68145 0
M  V30 4480 N 425.693 1.55336 -0.266172 0
M  V30 4481 C 427.104 1.85236 0.233315 0
M  V30 4482 C 427.455 1.18816 1.56132 0
M  V30 4483 O 426.58 0.473307 2.11161 0
M  V30 4484 C 427.175 3.36059 0.430113 0
M  V30 4485 C 425.734 3.66116 0.873842 0
M  V30 4486 C 424.881 2.77274 -0.0380016 0
M  V30 4487 H 427.832 1.51004 -0.488214 0
M  V30 4488 H 427.853 3.58681 1.26998 0
M  V30 4489 H 427.365 3.84373 -0.536588 0
M  V30 4490 H 425.466 3.23295 1.85233 0
M  V30 4491 H 425.579 4.73699 0.717358 0
M  V30 4492 H 423.943 2.50198 0.476759 0
M  V30 4493 H 424.726 3.284 -1.00042 0
M  V30 4494 N 427.171 -0.0066808 1.57599 0
M  V30 4495 C 428.081 -1.01671 2.11424 0
M  V30 4496 C 429.097 -1.38143 1.05795 0
M  V30 4497 O 430.273 -1.47011 1.37658 0
M  V30 4498 C 427.338 -2.29192 2.60139 0
M  V30 4499 C 426.399 -1.99094 3.80342 0
M  V30 4500 C 425.632 -3.20535 4.26724 0
M  V30 4501 O 425.855 -4.3199 3.72479 0
M  V30 4502 O 424.789 -3.04924 5.18946 0
M  V30 4503 H 428.615 -0.589181 2.9793 0
M  V30 4504 H 426.2 -0.225091 1.47695 0
M  V30 4505 H 428.082 -3.0412 2.917 0
M  V30 4506 H 426.757 -2.71195 1.76733 0
M  V30 4507 H 425.664 -1.21663 3.53764 0
M  V30 4508 H 426.997 -1.61931 4.648 0
M  V30 4509 N 428.649 -1.55105 -0.279332 0
M  V30 4510 C 430.06 -1.66186 -0.850832 0
M  V30 4511 C 430.411 -0.584707 -1.87285 0
M  V30 4512 O 429.536 0.274919 -2.14647 0
M  V30 4513 C 430.131 -3.01264 -1.55001 0
M  V30 4514 C 428.69 -3.14394 -2.06963 0
M  V30 4515 C 427.837 -2.61959 -0.909536 0
M  V30 4516 H 430.788 -1.58602 -0.0558235 0
M  V30 4517 H 430.809 -2.93899 -2.41669 0
M  V30 4518 H 430.321 -3.7964 -0.805931 0
M  V30 4519 H 428.422 -2.4078 -2.84352 0
M  V30 4520 H 428.535 -4.20867 -2.28928 0
M  V30 4521 H 426.899 -2.18957 -1.30116 0
M  V30 4522 H 427.682 -3.42833 -0.179062 0
M  V30 4523 N 430.127 0.543554 -1.4793 0
M  V30 4524 C 431.367 1.31072 -1.56843 0
M  V30 4525 C 431.731 1.90604 -0.231124 0
M  V30 4526 O 432.932 2.68091 -0.195165 0
M  V30 4527 C 431.203 2.38106 -2.66533 0
M  V30 4528 S 432.762 3.24729 -2.95122 0
M  V30 4529 H 429.58 0.446035 -0.553691 0
M  V30 4530 H 432.182 0.620777 -1.85382 0
M  V30 4531 H 430.886 1.92828 -3.62278 0
M  V30 4532 H 430.417 3.11824 -2.39852 0
M  V30 4533 H 432.432 4.37891 -2.3338 0
M  V30 4534 N 431.605 1.3629 0.791371 0
M  V30 4535 C 432.555 1.26988 1.89362 0
M  V30 4536 C 433.539 0.161795 1.60084 0
M  V30 4537 O 434.731 0.394426 1.72549 0
M  V30 4538 C 431.86 1.05944 3.26544 0
M  V30 4539 C 430.946 2.21211 3.61838 0
M  V30 4540 N 431.337 3.46518 3.68455 0
M  V30 4541 C 429.635 2.12933 3.91887 0
M  V30 4542 C 430.336 4.2241 3.99931 0
M  V30 4543 N 429.312 3.51329 4.14812 0
M  V30 4544 H 433.114 2.21908 1.92702 0
M  V30 4545 H 430.628 1.28982 0.986787 0
M  V30 4546 H 432.625 0.973666 4.05371 0
M  V30 4547 H 431.285 0.119223 3.24481 0
M  V30 4548 H 432.296 3.80677 3.51148 0
M  V30 4549 H 428.973 1.26855 3.97761 0
M  V30 4550 H 430.363 5.30767 4.1199 0
M  V30 4551 N 433.083 -1.0153 1.20538 0
M  V30 4552 C 434.308 -1.79283 1.04271 0
M  V30 4553 C 434.733 -1.8372 -0.403544 0
M  V30 4554 O 434.091 -1.27321 -1.2907 0
M  V30 4555 C 434.139 -3.21535 1.63241 0
M  V30 4556 O 433.243 -4.03099 0.870908 0
M  V30 4557 H 432.584 -0.55293 0.367647 0
M  V30 4558 H 435.114 -1.27696 1.59859 0
M  V30 4559 H 435.124 -3.72243 1.6703 0
M  V30 4560 H 433.799 -3.1762 2.68497 0
M  V30 4561 H 432.376 -3.61693 0.907323 0
M  V30 4562 N 434.561 -1.01147 -1.20859 0
M  V30 4563 C 435.508 -0.577354 -2.23462 0
M  V30 4564 C 436.478 0.399922 -1.61214 0
M  V30 4565 O 437.663 0.300515 -1.88419 0
M  V30 4566 C 434.803 0.083372 -3.44999 0
M  V30 4567 C 433.916 -0.937856 -4.21697 0
M  V30 4568 C 433.051 -0.248717 -5.30617 0
M  V30 4569 C 432.09 -1.25705 -5.99053 0
M  V30 4570 N 431.227 -0.594939 -6.99575 0
M  V30 4571 H 436.067 -1.45695 -2.59956 0
M  V30 4572 H 433.604 -0.729428 -1.27741 0
M  V30 4573 H 435.562 0.483535 -4.14388 0
M  V30 4574 H 434.192 0.926645 -3.09214 0
M  V30 4575 H 433.244 -1.45622 -3.51423 0
M  V30 4576 H 434.556 -1.70493 -4.68757 0
M  V30 4577 H 433.71 0.207215 -6.06346 0
M  V30 4578 H 432.449 0.55071 -4.84581 0
M  V30 4579 H 431.454 -1.72343 -5.2209 0
M  V30 4580 H 432.679 -2.05767 -6.47176 0
M  V30 4581 H 430.625 0.184713 -6.5574 0
M  V30 4582 H 430.542 -1.30017 -7.44736 0
M  V30 4583 H 431.81 -0.162427 -7.79331 0
M  V30 4584 N 436.039 1.36541 -0.78704 0
M  V30 4585 C 437.288 1.98552 -0.35494 0
M  V30 4586 C 437.601 1.63171 1.07864 0
M  V30 4587 O 438.807 2.18399 1.61289 0
M  V30 4588 C 437.263 3.55136 -0.583671 0
M  V30 4589 C 436.871 3.99444 -2.02851 0
M  V30 4590 C 438.615 4.2395 -0.215957 0
M  V30 4591 C 436.522 5.48796 -2.20403 0
M  V30 4592 H 435.452 0.742888 -0.128972 0
M  V30 4593 H 438.103 1.5587 -0.968337 0
M  V30 4594 H 436.485 3.95875 0.0994046 0
M  V30 4595 H 437.659 3.6991 -2.74779 0
M  V30 4596 H 435.974 3.43459 -2.35425 0
M  V30 4597 H 438.571 5.33709 -0.325405 0
M  V30 4598 H 438.914 4.07827 0.835646 0
M  V30 4599 H 439.447 3.88565 -0.852175 0
M  V30 4600 H 436.186 5.69864 -3.23937 0
M  V30 4601 H 435.706 5.79964 -1.52977 0
M  V30 4602 H 437.385 6.14986 -2.01002 0
M  V30 4603 N 437.518 0.538854 1.48102 0
M  V30 4604 C 438.748 0.0122958 2.06596 0
M  V30 4605 C 439.156 -1.27861 1.39457 0
M  V30 4606 O 438.499 -1.77348 0.478907 0
M  V30 4607 C 438.561 -0.273131 3.58461 0
M  V30 4608 C 438.225 0.92561 4.47528 0
M  V30 4609 C 439.222 1.82637 4.86765 0
M  V30 4610 C 436.907 1.13511 4.89306 0
M  V30 4611 C 438.901 2.92047 5.66558 0
M  V30 4612 C 436.588 2.23233 5.68868 0
M  V30 4613 C 437.586 3.12333 6.07402 0
M  V30 4614 O 437.274 4.20155 6.85365 0
M  V30 4615 H 437.006 0.0344283 0.675123 0
M  V30 4616 H 439.56 0.746494 1.91355 0
M  V30 4617 H 437.79 -1.06141 3.71848 0
M  V30 4618 H 439.479 -0.742842 3.99045 0
M  V30 4619 H 440.245 1.67649 4.55103 0
M  V30 4620 H 436.124 0.450835 4.5879 0
M  V30 4621 H 439.668 3.6162 5.96554 0
M  V30 4622 H 435.565 2.38201 5.99942 0
M  V30 4623 H 436.333 4.17975 7.03732 0
M  V30 4624 N 438.996 -1.55193 0.274407 0
M  V30 4625 C 440.407 -1.85358 -0.223488 0
M  V30 4626 C 440.758 -1.19642 -1.555 0
M  V30 4627 O 439.883 -0.484498 -2.10907 0
M  V30 4628 C 440.478 -3.36282 -0.412285 0
M  V30 4629 C 439.037 -3.66574 -0.854413 0
M  V30 4630 C 438.184 -2.7725 0.0527056 0
M  V30 4631 H 441.135 -1.50743 0.496215 0
M  V30 4632 H 441.156 -3.59349 -1.25094 0
M  V30 4633 H 440.668 -3.84083 0.556965 0
M  V30 4634 H 438.769 -3.24273 -1.83516 0
M  V30 4635 H 438.882 -4.74073 -0.692226 0
M  V30 4636 H 437.246 -2.50447 -0.463484 0
M  V30 4637 H 438.029 -3.27865 1.01783 0
M  V30 4638 N 440.474 -0.00167713 -1.576 0
M  V30 4639 C 441.722 0.681471 -1.90264 0
M  V30 4640 C 442.043 1.7422 -0.875924 0
M  V30 4641 O 441.313 1.95709 0.0864412 0
M  V30 4642 H 439.893 0.254696 -0.702239 0
M  V30 4643 H 442.555 -0.0429996 -1.94853 0
M  V30 4644 H 441.651 1.15166 -2.90075 0
M  V30 4645 N 441.952 1.55251 0.271103 0
M  V30 4646 C 443.198 1.76207 1.00394 0
M  V30 4647 C 443.531 0.562604 1.85872 0
M  V30 4648 O 442.806 -0.439785 1.89463 0
M  V30 4649 C 443.089 3.06828 1.8849 0
M  V30 4650 C 442.942 4.37134 1.05992 0
M  V30 4651 C 444.261 3.33503 2.87165 0
M  V30 4652 H 441.38 0.641086 0.363562 0
M  V30 4653 H 444.022 1.87982 0.276189 0
M  V30 4654 H 442.172 2.96921 2.5054 0
M  V30 4655 H 443.844 4.59001 0.459978 0
M  V30 4656 H 442.087 4.32275 0.363443 0
M  V30 4657 H 442.758 5.2486 1.70955 0
M  V30 4658 H 445.234 3.43215 2.3525 0
M  V30 4659 H 444.11 4.2616 3.45946 0
M  V30 4660 H 444.371 2.53235 3.62387 0
M  V30 4661 N 443.43 -0.535701 1.48216 0
M  V30 4662 C 444.707 -1.29683 1.46429 0
M  V30 4663 C 445.087 -2.10391 0.172852 0
M  V30 4664 O 444.435 -2.12282 -0.845488 0
M  V30 4665 C 444.645 -2.18313 2.72287 0
M  V30 4666 C 445.993 -2.78639 3.20383 0
M  V30 4667 O 447.017 -2.28604 2.73164 0
M  V30 4668 O 445.876 -3.69636 4.02531 0
M  V30 4669 H 442.97 -0.585026 0.584529 0
M  V30 4670 H 445.516 -0.552827 1.60443 0
M  V30 4671 H 444.288 -1.58421 3.57797 0
M  V30 4672 H 443.911 -2.99971 2.60966 0
M  V30 4673 N 444.908 -1.36708 -0.784132 0
M  V30 4674 C 446.155 -1.31231 -1.54222 0
M  V30 4675 C 446.483 0.106864 -1.94206 0
M  V30 4676 O 445.738 1.07734 -1.63376 0
M  V30 4677 C 446.037 -2.18571 -2.82774 0
M  V30 4678 C 445.703 -3.67039 -2.61903 0
M  V30 4679 C 444.365 -4.07503 -2.55919 0
M  V30 4680 C 446.717 -4.61149 -2.4288 0
M  V30 4681 C 444.045 -5.40211 -2.28886 0
M  V30 4682 C 446.397 -5.94081 -2.17373 0
M  V30 4683 C 445.061 -6.33664 -2.09825 0
M  V30 4684 H 444.331 -0.48021 -0.56434 0
M  V30 4685 H 446.978 -1.68807 -0.904233 0
M  V30 4686 H 445.283 -1.73949 -3.51068 0
M  V30 4687 H 446.98 -2.11655 -3.40592 0
M  V30 4688 H 443.57 -3.34941 -2.67418 0
M  V30 4689 H 447.754 -4.30756 -2.46501 0
M  V30 4690 H 443.01 -5.69855 -2.21529 0
M  V30 4691 H 447.184 -6.66566 -2.01649 0
M  V30 4692 H 444.811 -7.36423 -1.88641 0
M  V30 4693 N 446.386 1.0089 -1.21074 0
M  V30 4694 C 447.634 1.74262 -1.02358 0
M  V30 4695 C 447.955 1.89869 0.444393 0
M  V30 4696 O 447.225 1.44677 1.32081 0
M  V30 4697 H 445.805 0.645615 -0.375754 0
M  V30 4698 H 448.467 1.21596 -1.52317 0
M  V30 4699 H 447.563 2.74328 -1.4883 0
M  V30 4700 N 447.864 1.01787 1.20321 0
M  V30 4701 C 449.112 0.706538 1.89347 0
M  V30 4702 C 449.433 -0.766289 1.79313 0
M  V30 4703 O 448.703 -1.55126 1.19635 0
M  V30 4704 H 447.283 0.258348 0.700903 0
M  V30 4705 H 449.945 1.28974 1.46122 0
M  V30 4706 H 449.041 0.991066 2.95946 0
M  V30 4707 N 449.342 -1.36122 0.79427 0
M  V30 4708 C 450.252 -2.33769 0.197296 0
M  V30 4709 C 451.268 -1.61276 -0.653153 0
M  V30 4710 O 452.444 -1.9323 -0.5678 0
M  V30 4711 C 449.509 -3.40474 -0.654098 0
M  V30 4712 C 448.57 -4.28759 0.215411 0
M  V30 4713 C 447.803 -5.30368 -0.595443 0
M  V30 4714 O 448.026 -5.40211 -1.83107 0
M  V30 4715 O 446.96 -6.019 0.00721351 0
M  V30 4716 H 450.786 -2.86597 1.00478 0
M  V30 4717 H 448.371 -1.38676 0.555818 0
M  V30 4718 H 450.253 -4.05703 -1.13944 0
M  V30 4719 H 448.928 -2.89937 -1.43938 0
M  V30 4720 H 447.835 -3.66554 0.747615 0
M  V30 4721 H 449.168 -4.82661 0.964332 0
M  V30 4722 N 450.82 -0.546701 -1.47814 0
M  V30 4723 C 451.73 0.21026 -2.33656 0
M  V30 4724 C 452.746 0.922413 -1.47538 0
M  V30 4725 O 453.922 0.893652 -1.80488 0
M  V30 4726 C 450.987 1.23348 -3.24016 0
M  V30 4727 C 450.048 0.529883 -4.26017 0
M  V30 4728 C 449.281 1.50435 -5.12059 0
M  V30 4729 O 449.504 2.73837 -5.00369 0
M  V30 4730 O 448.438 1.03459 -5.92942 0
M  V30 4731 H 452.264 -0.493605 -2.99662 0
M  V30 4732 H 449.849 -0.307427 -1.46203 0
M  V30 4733 H 451.731 1.82438 -3.79861 0
M  V30 4734 H 450.406 1.91945 -2.60651 0
M  V30 4735 H 449.313 -0.101948 -3.73961 0
M  V30 4736 H 450.646 -0.11445 -4.92067 0
M  V30 4737 N 452.299 1.55045 -0.282633 0
M  V30 4738 C 453.229 2.2579 0.595066 0
M  V30 4739 C 454.21 1.25074 1.15284 0
M  V30 4740 O 455.395 1.5381 1.18559 0
M  V30 4741 C 452.525 2.98472 1.77572 0
M  V30 4742 C 451.479 4.0618 1.34914 0
M  V30 4743 C 450.805 4.66477 2.6135 0
M  V30 4744 C 452.105 5.1996 0.493821 0
M  V30 4745 H 453.799 2.994 0.00505653 0
M  V30 4746 H 451.345 1.44 0.000992001 0
M  V30 4747 H 453.298 3.46677 2.39568 0
M  V30 4748 H 452.022 2.2241 2.39168 0
M  V30 4749 H 450.681 3.58797 0.752338 0
M  V30 4750 H 450.329 3.87074 3.2122 0
M  V30 4751 H 450.029 5.39207 2.33516 0
M  V30 4752 H 451.553 5.17435 3.24181 0
M  V30 4753 H 452.967 5.64172 1.01898 0
M  V30 4754 H 451.364 5.99299 0.310047 0
M  V30 4755 H 452.434 4.82462 -0.485593 0
M  V30 4756 N 453.777 0.010035 1.57597 0
M  V30 4757 C 454.725 -0.996272 2.10184 0
M  V30 4758 C 455.719 -1.34942 1.02406 0
M  V30 4759 O 456.925 -1.33389 1.20861 0
M  V30 4760 H 453.3 -0.338982 0.671264 0
M  V30 4761 H 455.271 -0.527272 2.93705 0
M  V30 4762 C 454.02 -2.27599 2.62857 0
M  V30 4763 H 453.343 -2.01295 3.45428 0
M  V30 4764 H 454.783 -2.96265 3.0332 0
M  V30 4765 C 453.242 -2.99269 1.54725 0
M  V30 4766 O 453.772 -3.90644 0.93597 0
M  V30 4767 N 451.978 -2.61269 1.27228 0
M  V30 4768 H 451.525 -1.87043 1.77123 0
M  V30 4769 H 451.483 -3.09534 0.550999 0
M  V30 4770 N 455.255 -1.55392 -0.262866 0
M  V30 4771 C 456.501 -1.76737 -0.99458 0
M  V30 4772 C 456.834 -0.572453 -1.85571 0
M  V30 4773 O 456.109 0.429732 -1.89693 0
M  V30 4774 C 456.392 -3.07824 -1.8686 0
M  V30 4775 C 456.245 -4.3769 -1.03672 0
M  V30 4776 C 457.564 -3.35021 -2.85393 0
M  V30 4777 H 454.683 -0.643005 -0.360157 0
M  V30 4778 H 457.325 -1.88126 -0.266216 0
M  V30 4779 H 455.475 -2.98245 -2.48962 0
M  V30 4780 H 457.147 -4.59238 -0.43563 0
M  V30 4781 H 455.39 -4.32461 -0.340513 0
M  V30 4782 H 456.061 -5.25759 -1.6817 0
M  V30 4783 H 458.537 -3.44458 -2.33426 0
M  V30 4784 H 457.413 -4.27989 -3.43681 0
M  V30 4785 H 457.674 -2.55153 -3.61039 0
M  V30 4786 N 456.733 0.527833 -1.48498 0
M  V30 4787 C 457.961 1.30823 -1.6029 0
M  V30 4788 C 458.376 1.86945 -0.263974 0
M  V30 4789 O 457.733 1.6651 0.747034 0
M  V30 4790 C 457.784 2.45756 -2.65116 0
M  V30 4791 O 457.505 1.91946 -3.93813 0
M  V30 4792 C 459.006 3.37543 -2.87367 0
M  V30 4793 H 456.226 0.397763 -0.540394 0
M  V30 4794 H 458.77 0.636529 -1.94341 0
M  V30 4795 H 456.925 3.08806 -2.33917 0
M  V30 4796 H 457.339 2.67195 -4.51339 0
M  V30 4797 H 458.813 4.14532 -3.6451 0
M  V30 4798 H 459.29 3.92905 -1.9627 0
M  V30 4799 H 459.896 2.80283 -3.19878 0
M  V30 4800 N 458.211 1.37122 0.776871 0
M  V30 4801 C 459.458 1.32047 1.53524 0
M  V30 4802 C 459.786 -0.0965631 1.9426 0
M  V30 4803 O 459.041 -1.06866 1.63945 0
M  V30 4804 C 459.34 2.20068 2.81611 0
M  V30 4805 C 459.006 3.68423 2.59953 0
M  V30 4806 C 457.668 4.08854 2.53755 0
M  V30 4807 C 460.02 4.62431 2.40431 0
M  V30 4808 C 457.348 5.41417 2.26018 0
M  V30 4809 C 459.7 5.95225 2.14219 0
M  V30 4810 C 458.364 6.34767 2.06462 0
M  V30 4811 H 457.634 0.483196 0.561785 0
M  V30 4812 H 460.281 1.69284 0.895268 0
M  V30 4813 H 458.586 1.75809 3.50141 0
M  V30 4814 H 460.283 2.13458 3.39465 0
M  V30 4815 H 456.873 3.36354 2.65638 0
M  V30 4816 H 461.057 4.32057 2.44213 0
M  V30 4817 H 456.313 5.71022 2.18504 0
M  V30 4818 H 460.487 6.67626 1.98112 0
M  V30 4819 H 458.114 7.37413 1.84733 0
M  V30 4820 N 459.689 -1.00246 1.21608 0
M  V30 4821 C 460.935 -1.74319 1.03638 0
M  V30 4822 C 461.268 -1.89408 -0.428749 0
M  V30 4823 O 460.543 -1.43026 -1.3181 0
M  V30 4824 C 460.826 -3.15431 1.73711 0
M  V30 4825 C 460.679 -3.08049 3.27759 0
M  V30 4826 C 461.998 -4.14407 1.48173 0
M  V30 4827 H 459.117 -0.632741 0.377899 0
M  V30 4828 H 461.759 -1.16853 1.49818 0
M  V30 4829 H 459.909 -3.64493 1.34452 0
M  V30 4830 H 461.581 -2.66681 3.76403 0
M  V30 4831 H 459.824 -2.45088 3.57931 0
M  V30 4832 H 460.495 -4.07862 3.71958 0
M  V30 4833 H 462.971 -3.74061 1.82258 0
M  V30 4834 H 461.847 -5.11279 1.99713 0
M  V30 4835 H 462.108 -4.40174 0.412273 0
M  V30 4836 N 461.167 -1.02423 -1.1978 0
M  V30 4837 C 462.114 -0.601023 -2.22837 0
M  V30 4838 C 463.084 0.382801 -1.61629 0
M  V30 4839 O 464.269 0.280514 -1.88727 0
M  V30 4840 C 461.409 0.0467755 -3.45068 0
M  V30 4841 C 460.522 -0.98253 -4.20678 0
M  V30 4842 C 459.657 -0.304982 -5.30324 0
M  V30 4843 C 458.696 -1.32052 -5.97686 0
M  V30 4844 N 457.833 -0.669105 -6.98904 0
M  V30 4845 H 462.673 -1.48444 -2.58396 0
M  V30 4846 H 460.21 -0.742936 -1.2696 0
M  V30 4847 H 462.168 0.439556 -4.14878 0
M  V30 4848 H 460.798 0.893796 -3.10179 0
M  V30 4849 H 459.85 -1.49341 -3.49859 0
M  V30 4850 H 461.162 -1.75455 -4.66923 0
M  V30 4851 H 460.316 0.142893 -6.06532 0
M  V30 4852 H 459.055 0.499283 -4.85138 0
M  V30 4853 H 458.06 -1.7787 -5.20233 0
M  V30 4854 H 459.285 -2.1262 -6.44957 0
M  V30 4855 H 457.231 0.115152 -6.55899 0
M  V30 4856 H 457.148 -1.37908 -7.43315 0
M  V30 4857 H 458.416 -0.245076 -7.79115 0
M  V30 4858 N 462.645 1.35699 -0.801477 0
M  V30 4859 C 463.893 1.9852 -0.37871 0
M  V30 4860 C 464.214 1.63907 1.05638 0
M  V30 4861 O 463.484 0.919013 1.73006 0
M  V30 4862 H 462.064 0.734322 -0.137042 0
M  V30 4863 H 464.726 1.65697 -1.02619 0
M  V30 4864 H 463.822 3.08382 -0.480284 0
M  V30 4865 N 464.123 0.554532 1.47522 0
M  V30 4866 C 465.369 0.0295227 2.02779 0
M  V30 4867 C 465.702 -1.31582 1.42828 0
M  V30 4868 O 464.977 -1.85561 0.582872 0
M  V30 4869 C 465.26 -0.0664057 3.60039 0
M  V30 4870 C 465.113 1.30585 4.30427 0
M  V30 4871 C 466.432 -0.781162 4.33112 0
M  V30 4872 H 463.551 0.0122027 0.736899 0
M  V30 4873 H 466.193 0.716305 1.7598 0
M  V30 4874 H 464.343 -0.651307 3.83002 0
M  V30 4875 H 466.015 1.93374 4.18813 0
M  V30 4876 H 464.258 1.88125 3.90886 0
M  V30 4877 H 464.929 1.19147 5.38988 0
M  V30 4878 H 467.405 -0.284565 4.15126 0
M  V30 4879 H 466.281 -0.817237 5.42782 0
M  V30 4880 H 466.542 -1.83672 4.0214 0
M  V30 4881 N 465.601 -1.54893 0.290851 0
M  V30 4882 C 466.549 -2.24579 -0.605576 0
M  V30 4883 C 467.543 -1.24824 -1.14522 0
M  V30 4884 O 468.749 -1.42706 -1.09704 0
M  V30 4885 H 465.124 -0.720946 -0.213872 0
M  V30 4886 H 467.095 -2.984 0.0048173 0
M  V30 4887 C 465.844 -2.99224 -1.77088 0
M  V30 4888 H 465.167 -3.75782 -1.36484 0
M  V30 4889 H 466.607 -3.51281 -2.3744 0
M  V30 4890 C 465.066 -2.05602 -2.66888 0
M  V30 4891 O 465.596 -1.61745 -3.67698 0
M  V30 4892 N 463.802 -1.71771 -2.34399 0
M  V30 4893 H 463.349 -2.07633 -1.52468 0
M  V30 4894 H 463.307 -1.09403 -2.94751 0
M  V30 4895 N 467.08 -0.0183926 -1.57589 0
M  V30 4896 C 468.326 0.663543 -1.91638 0
M  V30 4897 C 468.659 1.72392 -0.894134 0
M  V30 4898 O 467.934 1.94316 0.0846449 0
M  V30 4899 C 468.217 1.28984 -3.36207 0
M  V30 4900 C 468.07 0.239761 -4.49161 0
M  V30 4901 C 469.389 2.2109 -3.80536 0
M  V30 4902 H 466.508 0.239746 -0.696915 0
M  V30 4903 H 469.15 -0.073456 -1.89858 0
M  V30 4904 H 467.3 1.91799 -3.37854 0
M  V30 4905 H 468.972 -0.390119 -4.59647 0
M  V30 4906 H 467.215 -0.435972 -4.31604 0
M  V30 4907 H 467.886 0.717383 -5.47319 0
M  V30 4908 H 470.362 1.68273 -3.80557 0
M  V30 4909 H 469.238 2.61869 -4.82406 0
M  V30 4910 H 469.499 3.09764 -3.15434 0
M  V30 4911 N 468.558 1.5553 0.254621 0
M  V30 4912 C 469.798 1.7876 0.991179 0
M  V30 4913 C 470.162 0.586669 1.82817 0
M  V30 4914 O 471.363 0.697585 2.5959 0
M  V30 4915 C 469.634 3.06679 1.83529 0
M  V30 4916 S 471.193 3.511 2.632 0
M  V30 4917 H 468.011 0.627916 0.333531 0
M  V30 4918 H 470.613 1.93766 0.259778 0
M  V30 4919 H 469.317 3.92158 1.20996 0
M  V30 4920 H 468.848 2.94388 2.60958 0
M  V30 4921 H 470.863 3.11823 3.8598 0
M  V30 4922 N 470.036 -0.519951 1.48776 0
M  V30 4923 C 470.968 -1.63973 1.60142 0
M  V30 4924 C 471.981 -1.55404 0.485117 0
M  V30 4925 O 473.17 -1.61682 0.756391 0
M  V30 4926 C 470.27 -3.02676 1.52449 0
M  V30 4927 C 469.443 -3.36624 2.79291 0
M  V30 4928 C 468.502 -4.54652 2.64912 0
M  V30 4929 O 467.528 -4.57374 3.38818 0
M  V30 4930 N 468.73 -5.53432 1.75195 0
M  V30 4931 H 471.495 -1.54656 2.56713 0
M  V30 4932 H 469.056 -0.707439 1.45626 0
M  V30 4933 H 471.048 -3.79525 1.4051 0
M  V30 4934 H 469.618 -3.06018 0.638125 0
M  V30 4935 H 468.838 -2.48855 3.0572 0
M  V30 4936 H 470.126 -3.56094 3.6342 0
M  V30 4937 H 469.524 -5.54018 1.14371 0
M  V30 4938 H 468.081 -6.29459 1.69189 0
M  V30 4939 N 471.514 -1.37532 -0.769588 0
M  V30 4940 C 472.424 -1.35668 -1.91393 0
M  V30 4941 C 473.44 -0.255954 -1.72107 0
M  V30 4942 O 474.616 -0.491704 -1.95305 0
M  V30 4943 C 471.681 -1.16481 -3.26547 0
M  V30 4944 C 470.742 -2.36212 -3.58472 0
M  V30 4945 C 469.975 -2.17932 -4.87177 0
M  V30 4946 O 470.198 -1.1647 -5.58382 0
M  V30 4947 O 469.132 -3.06167 -5.18214 0
M  V30 4948 H 472.958 -2.32055 -1.95918 0
M  V30 4949 H 470.543 -1.18284 -0.912641 0
M  V30 4950 H 472.425 -1.07778 -4.07384 0
M  V30 4951 H 471.1 -0.231687 -3.2287 0
M  V30 4952 H 470.007 -2.50488 -2.77861 0
M  V30 4953 H 471.34 -3.281 -3.66894 0
M  V30 4954 N 472.992 0.995999 -1.22138 0
M  V30 4955 C 474.22 1.77066 -1.07029 0
M  V30 4956 C 474.635 1.8495 0.379357 0
M  V30 4957 O 473.992 1.3174 1.26297 0
M  V30 4958 C 474.043 3.20533 -1.67155 0
M  V30 4959 O 473.764 3.13082 -3.06449 0
M  V30 4960 C 475.265 4.14461 -1.5728 0
M  V30 4961 H 472.485 0.556179 -0.375374 0
M  V30 4962 H 475.029 1.25238 -1.61666 0
M  V30 4963 H 473.184 3.6944 -1.16589 0
M  V30 4964 H 473.598 4.03283 -3.35355 0
M  V30 4965 H 475.072 5.1289 -2.04078 0
M  V30 4966 H 475.549 4.36005 -0.528795 0
M  V30 4967 H 476.155 3.71449 -2.07136 0
M  V30 4968 N 474.47 1.03057 1.19235 0
M  V30 4969 C 475.71 0.736757 1.9066 0
M  V30 4970 C 476.074 -0.721521 1.77927 0
M  V30 4971 O 477.275 -1.12849 2.43964 0
M  V30 4972 C 475.546 1.17755 3.37444 0
M  V30 4973 S 477.105 1.00783 4.27069 0
M  V30 4974 H 473.923 0.268174 0.658486 0
M  V30 4975 H 476.525 1.32076 1.4414 0
M  V30 4976 H 475.229 2.23448 3.44237 0
M  V30 4977 H 474.76 0.586912 3.88997 0
M  V30 4978 H 476.775 -0.0806356 4.96134 0
M  V30 4979 N 475.948 -1.35272 0.808662 0
M  V30 4980 C 477.176 -2.02946 0.402537 0
M  V30 4981 C 477.591 -1.60937 -0.987147 0
M  V30 4982 O 476.948 -0.807917 -1.63643 0
M  V30 4983 C 476.999 -3.58317 0.47868 0
M  V30 4984 O 476.72 -3.98799 1.81358 0
M  V30 4985 C 478.221 -4.43251 0.0656281 0
M  V30 4986 H 475.441 -0.650831 0.163279 0
M  V30 4987 H 477.985 -1.72849 1.09286 0
M  V30 4988 H 476.14 -3.87055 -0.163415 0
M  V30 4989 H 476.554 -4.93451 1.77781 0
M  V30 4990 H 478.028 -5.51738 0.170017 0
M  V30 4991 H 478.505 -4.27913 -0.989278 0
M  V30 4992 H 479.111 -4.19813 0.68096 0
M  V30 4993 N 477.426 -0.562348 -1.47226 0
M  V30 4994 C 478.373 0.182461 -2.30078 0
M  V30 4995 C 479.343 0.903503 -1.39377 0
M  V30 4996 O 480.528 0.898188 -1.68337 0
M  V30 4997 C 477.668 1.20322 -3.23445 0
M  V30 4998 C 476.781 0.487717 -4.29238 0
M  V30 4999 C 475.916 1.49422 -5.09752 0
M  V30 5000 C 474.955 0.763976 -6.07314 0
M  V30 5001 N 474.092 1.71755 -6.80768 0
M  V30 5002 H 478.932 -0.530169 -2.93246 0
M  V30 5003 H 476.469 -0.273276 -1.44539 0
M  V30 5004 H 478.427 1.80768 -3.76004 0
M  V30 5005 H 477.057 1.88382 -2.6213 0
M  V30 5006 H 476.109 -0.231374 -3.79696 0
M  V30 5007 H 477.421 -0.0841003 -4.98729 0
M  V30 5008 H 476.575 2.17206 -5.66486 0
M  V30 5009 H 475.314 2.09995 -4.40174 0
M  V30 5010 H 474.319 0.0722344 -5.49753 0
M  V30 5011 H 475.544 0.16391 -6.78902 0
M  V30 5012 H 473.49 2.31177 -6.13916 0
M  V30 5013 H 473.407 1.19802 -7.46447 0
M  V30 5014 H 474.675 2.38638 -7.42073 0
M  V30 5015 N 478.904 1.54736 -0.299062 0
M  V30 5016 C 479.837 2.1962 0.619851 0
M  V30 5017 C 480.815 1.16496 1.13434 0
M  V30 5018 O 481.999 1.4513 1.2029 0
M  V30 5019 C 479.126 2.8385 1.84788 0
M  V30 5020 C 478.172 4.00484 1.46679 0
M  V30 5021 S 479.005 5.32926 0.524389 0
M  V30 5022 C 480.161 6.00638 1.76026 0
M  V30 5023 H 480.394 2.97221 0.0686177 0
M  V30 5024 H 477.927 1.54176 -0.0832085 0
M  V30 5025 H 479.885 3.21483 2.55263 0
M  V30 5026 H 478.546 2.06099 2.37028 0
M  V30 5027 H 477.739 4.44201 2.38121 0
M  V30 5028 H 477.341 3.64398 0.842008 0
M  V30 5029 H 479.633 6.21327 2.70109 0
M  V30 5030 H 480.576 6.94805 1.36569 0
M  V30 5031 H 480.984 5.3026 1.93609 0
M  V30 5032 N 480.382 0.0267497 1.57577 0
M  V30 5033 C 481.631 -0.651736 1.9088 0
M  V30 5034 C 481.944 -1.73427 0.904576 0
M  V30 5035 O 483.15 -2.46923 1.12877 0
M  V30 5036 C 481.606 -1.21048 3.38933 0
M  V30 5037 C 481.214 -0.161362 4.47709 0
M  V30 5038 C 482.958 -1.86562 3.81307 0
M  V30 5039 C 480.865 -0.731611 5.86857 0
M  V30 5040 H 479.795 -0.247198 0.712326 0
M  V30 5041 H 482.446 0.0916641 1.83271 0
M  V30 5042 H 480.828 -2.00542 3.41466 0
M  V30 5043 H 482.002 0.61094 4.56732 0
M  V30 5044 H 480.317 0.394877 4.14523 0
M  V30 5045 H 482.914 -2.30178 4.8262 0
M  V30 5046 H 483.257 -2.70735 3.16241 0
M  V30 5047 H 483.79 -1.13762 3.81186 0
M  V30 5048 H 480.529 0.0719329 6.55461 0
M  V30 5049 H 480.049 -1.47245 5.81445 0
M  V30 5050 H 481.728 -1.22208 6.35354 0
M  V30 5051 N 481.861 -1.55662 -0.24637 0
M  V30 5052 C 483.277 -1.48098 -0.594907 0
M  V30 5053 C 483.477 -0.717044 -1.8831 0
M  V30 5054 O 482.533 -0.246618 -2.51293 0
M  V30 5055 C 483.846 -2.92507 -0.697146 0
M  V30 5056 C 485.394 -3.02881 -0.789436 0
M  V30 5057 C 485.869 -4.48598 -0.923232 0
M  V30 5058 N 487.36 -4.52538 -0.988088 0
M  V30 5059 C 488.095 -5.62536 -1.11089 0
M  V30 5060 N 487.591 -6.82342 -1.19919 0
M  V30 5061 N 489.384 -5.50334 -1.14408 0
M  V30 5062 H 481.535 -2.0377 0.599278 0
M  V30 5063 H 483.798 -0.925145 0.20691 0
M  V30 5064 H 483.504 -3.51242 0.179396 0
M  V30 5065 H 483.378 -3.43024 -1.5689 0
M  V30 5066 H 485.765 -2.44226 -1.65643 0
M  V30 5067 H 485.846 -2.55574 0.107482 0
M  V30 5068 H 485.49 -5.07864 -0.0607927 0
M  V30 5069 H 485.42 -4.93587 -1.8352 0
M  V30 5070 H 487.911 -3.66248 -0.931167 0
M  V30 5071 H 488.224 -7.61924 -1.29197 0
M  V30 5072 H 486.569 -6.85102 -1.16876 0
M  V30 5073 H 489.76 -4.5567 -1.07158 0
M  V30 5074 H 489.933 -6.36096 -1.23634 0
M  V30 5075 N 483.339 0.512053 -1.4905 0
M  V30 5076 C 484.579 1.27715 -1.59588 0
M  V30 5077 C 484.943 1.90071 -0.271502 0
M  V30 5078 O 486.144 2.67616 -0.251987 0
M  V30 5079 C 484.415 2.32399 -2.71524 0
M  V30 5080 S 485.974 3.18396 -3.01943 0
M  V30 5081 H 482.792 0.43419 -0.563027 0
M  V30 5082 H 485.394 0.581315 -1.86657 0
M  V30 5083 H 484.098 1.85101 -3.66287 0
M  V30 5084 H 483.629 3.06667 -2.46412 0
M  V30 5085 H 485.644 4.32842 -2.42616 0
M  V30 5086 N 484.817 1.37938 0.762283 0
M  V30 5087 C 485.749 1.30349 1.88525 0
M  V30 5088 C 486.762 0.217402 1.61342 0
M  V30 5089 O 487.951 0.474291 1.72084 0
M  V30 5090 C 485.051 0.994844 3.23969 0
M  V30 5091 C 484.224 2.18829 3.78725 0
M  V30 5092 C 483.283 1.84844 4.92665 0
M  V30 5093 O 482.309 2.57244 5.07754 0
M  V30 5094 N 483.511 0.798201 5.74986 0
M  V30 5095 H 486.276 2.27114 1.95549 0
M  V30 5096 H 483.837 1.31686 0.941825 0
M  V30 5097 H 485.829 0.748168 3.97724 0
M  V30 5098 H 484.399 0.115446 3.12387 0
M  V30 5099 H 483.619 2.59615 2.96637 0
M  V30 5100 H 484.907 2.98497 4.1204 0
M  V30 5101 H 484.305 0.197611 5.65355 0
M  V30 5102 H 482.862 0.611396 6.48926 0
M  V30 5103 N 486.295 -0.989507 1.22664 0
M  V30 5104 C 487.542 -1.72953 1.05325 0
M  V30 5105 C 487.87 -1.90104 -0.411168 0
M  V30 5106 O 487.125 -1.44386 -1.32103 0
M  V30 5107 C 487.424 -3.13649 1.71345 0
M  V30 5108 C 487.09 -3.16403 3.21248 0
M  V30 5109 C 485.752 -3.16862 3.62149 0
M  V30 5110 C 488.104 -3.12428 4.17179 0
M  V30 5111 C 485.432 -3.11051 4.97458 0
M  V30 5112 C 487.784 -3.08159 5.52468 0
M  V30 5113 C 486.448 -3.06935 5.92746 0
M  V30 5114 H 485.718 -0.632881 0.385412 0
M  V30 5115 H 488.365 -1.15863 1.52473 0
M  V30 5116 H 486.67 -3.74069 1.16532 0
M  V30 5117 H 488.367 -3.69658 1.55416 0
M  V30 5118 H 484.957 -3.16798 2.88682 0
M  V30 5119 H 489.141 -3.11221 3.86595 0
M  V30 5120 H 484.397 -3.0845 5.27891 0
M  V30 5121 H 488.571 -3.04039 6.26525 0
M  V30 5122 H 486.198 -3.02186 6.97558 0
M  V30 5123 N 487.773 -1.03688 -1.18687 0
M  V30 5124 C 489.02 -0.73803 -1.88572 0
M  V30 5125 C 489.348 0.733973 -1.8012 0
M  V30 5126 O 488.603 1.55098 -1.19344 0
M  V30 5127 C 488.902 -1.14477 -3.3857 0
M  V30 5128 C 488.568 -2.61641 -3.67226 0
M  V30 5129 C 487.23 -3.01846 -3.74757 0
M  V30 5130 C 489.582 -3.56812 -3.79914 0
M  V30 5131 C 486.91 -4.36118 -3.92451 0
M  V30 5132 C 489.262 -4.90799 -3.99123 0
M  V30 5133 C 487.926 -5.3068 -4.04888 0
M  V30 5134 H 487.196 -0.270064 -0.690034 0
M  V30 5135 H 489.843 -1.3012 -1.40503 0
M  V30 5136 H 488.148 -0.500337 -3.88592 0
M  V30 5137 H 489.845 -0.89095 -3.90977 0
M  V30 5138 H 486.435 -2.29498 -3.61979 0
M  V30 5139 H 490.619 -3.26899 -3.73431 0
M  V30 5140 H 485.875 -4.66542 -3.95157 0
M  V30 5141 H 490.049 -5.64451 -4.07882 0
M  V30 5142 H 487.676 -6.34733 -4.18351 0
M  V30 5143 N 489.251 1.34841 -0.815825 0
M  V30 5144 C 490.479 2.0273 -0.413294 0
M  V30 5145 C 490.894 1.61459 0.978599 0
M  V30 5146 O 490.251 0.816584 1.63212 0
M  V30 5147 C 490.302 3.58058 -0.497676 0
M  V30 5148 O 490.023 3.97832 -1.8347 0
M  V30 5149 C 491.524 4.4321 -0.0891339 0
M  V30 5150 H 488.744 0.649956 -0.166728 0
M  V30 5151 H 491.288 1.72267 -1.10201 0
M  V30 5152 H 489.443 3.87136 0.142886 0
M  V30 5153 H 489.857 4.92501 -1.80396 0
M  V30 5154 H 491.331 5.5164 -0.199274 0
M  V30 5155 H 491.808 4.28432 0.966571 0
M  V30 5156 H 492.414 4.19446 -0.703214 0
M  V30 5157 N 490.729 0.570148 1.46925 0
M  V30 5158 C 491.959 0.0561151 2.06524 0
M  V30 5159 C 492.367 -1.24874 1.42137 0
M  V30 5160 O 491.71 -1.76292 0.516417 0
M  V30 5161 C 491.772 -0.197035 3.5896 0
M  V30 5162 C 491.436 1.02033 4.45464 0
M  V30 5163 C 492.433 1.92921 4.82781 0
M  V30 5164 C 490.118 1.23864 4.86788 0
M  V30 5165 C 492.112 3.03999 5.60235 0
M  V30 5166 C 489.799 2.35249 5.64004 0
M  V30 5167 C 490.797 3.25146 6.0064 0
M  V30 5168 O 490.485 4.34598 6.76299 0
M  V30 5169 H 490.217 0.0487409 0.674241 0
M  V30 5170 H 492.771 0.786915 1.89728 0
M  V30 5171 H 491.001 -0.982299 3.74016 0
M  V30 5172 H 492.69 -0.658032 4.00531 0
M  V30 5173 H 493.456 1.77265 4.51444 0
M  V30 5174 H 489.335 0.54805 4.57731 0
M  V30 5175 H 492.879 3.74192 5.8875 0
M  V30 5176 H 488.776 2.50873 5.94755 0
M  V30 5177 H 489.544 4.32808 6.94708 0
M  V30 5178 N 492.207 -1.54576 0.307264 0
M  V30 5179 C 493.432 -2.05139 -0.305379 0
M  V30 5180 C 493.857 -1.18278 -1.46259 0
M  V30 5181 O 493.215 -0.188243 -1.8032 0
M  V30 5182 C 493.263 -3.53066 -0.733283 0
M  V30 5183 O 492.367 -3.69206 -1.83741 0
M  V30 5184 H 491.708 -0.661444 -0.0582105 0
M  V30 5185 H 494.238 -1.99569 0.450931 0
M  V30 5186 H 494.248 -3.95034 -1.02039 0
M  V30 5187 H 492.923 -4.15746 0.113198 0
M  V30 5188 H 491.5 -3.39143 -1.55037 0
M  V30 5189 N 493.685 -0.035106 -1.57561 0
M  V30 5190 C 494.615 0.942993 -2.13612 0
M  V30 5191 C 495.596 1.33531 -1.05373 0
M  V30 5192 O 496.781 1.41287 -1.33235 0
M  V30 5193 C 493.911 2.22332 -2.66807 0
M  V30 5194 C 492.865 1.97156 -3.79886 0
M  V30 5195 C 492.191 3.31506 -4.19533 0
M  V30 5196 C 493.491 1.30596 -5.05709 0
M  V30 5197 H 495.185 0.476179 -2.95589 0
M  V30 5198 H 492.731 0.227602 -1.4219 0
M  V30 5199 H 494.684 2.91142 -3.04654 0
M  V30 5200 H 493.408 2.7119 -1.81999 0
M  V30 5201 H 492.067 1.30763 -3.42486 0
M  V30 5202 H 491.715 3.78134 -3.31698 0
M  V30 5203 H 491.415 3.15465 -4.95738 0
M  V30 5204 H 492.939 4.01574 -4.59968 0
M  V30 5205 H 494.353 1.89416 -5.41105 0
M  V30 5206 H 492.75 1.24934 -5.86951 0
M  V30 5207 H 493.82 0.279742 -4.84092 0
M  V30 5208 N 495.163 1.55791 0.238111 0
M  V30 5209 C 496.093 1.94068 1.29846 0
M  V30 5210 C 497.074 0.806726 1.49753 0
M  V30 5211 O 498.259 1.06772 1.62214 0
M  V30 5212 C 495.389 2.24302 2.65153 0
M  V30 5213 C 494.343 3.40032 2.59927 0
M  V30 5214 C 493.669 3.55829 3.99111 0
M  V30 5215 C 494.969 4.75476 2.16148 0
M  V30 5216 H 496.663 2.82887 0.980563 0
M  V30 5217 H 494.209 1.36105 0.470253 0
M  V30 5218 H 496.162 2.4967 3.39475 0
M  V30 5219 H 494.886 1.32318 2.98596 0
M  V30 5220 H 493.545 3.14687 1.88063 0
M  V30 5221 H 493.193 2.6125 4.29834 0
M  V30 5222 H 492.893 4.3366 3.96501 0
M  V30 5223 H 494.417 3.83528 4.7512 0
M  V30 5224 H 495.831 5.00158 2.80205 0
M  V30 5225 H 494.228 5.56472 2.24631 0
M  V30 5226 H 495.298 4.71946 1.11333 0
M  V30 5227 N 496.642 -0.504142 1.49319 0
M  V30 5228 C 498.053 -1.08572 1.51885 0
M  V30 5229 C 498.404 -1.93842 0.303255 0
M  V30 5230 O 497.529 -2.0828 -0.58724 0
M  V30 5231 C 498.124 -1.97574 2.75227 0
M  V30 5232 C 496.683 -2.509 2.80581 0
M  V30 5233 C 495.83 -1.28447 2.45757 0
M  V30 5234 H 498.781 -0.288194 1.56061 0
M  V30 5235 H 498.802 -2.82219 2.55211 0
M  V30 5236 H 498.314 -1.35486 3.63683 0
M  V30 5237 H 496.415 -3.16636 1.96398 0
M  V30 5238 H 496.528 -2.88268 3.82673 0
M  V30 5239 H 494.892 -1.60868 1.97468 0
M  V30 5240 H 495.675 -0.68072 3.36483 0
M  V30 5241 N 498.12 -1.38341 -0.754957 0
M  V30 5242 C 499.03 -1.3769 -1.89944 0
M  V30 5243 C 500.046 -0.274194 -1.71826 0
M  V30 5244 O 501.222 -0.512391 -1.94773 0
M  V30 5245 C 498.287 -1.19938 -3.25293 0
M  V30 5246 C 497.348 -2.40001 -3.55946 0
M  V30 5247 C 496.581 -2.23087 -4.84838 0
M  V30 5248 O 496.804 -1.22386 -5.57116 0
M  V30 5249 O 495.738 -3.11646 -5.14937 0
M  V30 5250 H 499.564 -2.3412 -1.93446 0
M  V30 5251 H 497.149 -1.19246 -0.900044 0
M  V30 5252 H 499.031 -1.12093 -4.06218 0
M  V30 5253 H 497.706 -0.265919 -3.22606 0
M  V30 5254 H 496.613 -2.53421 -2.75188 0
M  V30 5255 H 497.946 -3.31973 -3.63394 0
M  V30 5256 N 499.598 0.982988 -1.23187 0
M  V30 5257 C 500.875 1.69814 -0.970707 0
M  V30 5258 C 501.255 2.04811 0.511424 0
M  V30 5259 O 500.603 1.73924 1.48198 0
M  V30 5260 C 500.813 2.94143 -1.87831 0
M  V30 5261 C 502.161 3.66712 -2.14026 0
M  V30 5262 O 503.185 3.04171 -1.8536 0
M  V30 5263 O 502.044 4.79258 -2.62629 0
M  V30 5264 H 499.138 0.741659 -0.365884 0
M  V30 5265 H 501.684 1.03844 -1.34218 0
M  V30 5266 H 500.456 2.64858 -2.88038 0
M  V30 5267 H 500.079 3.6785 -1.50905 0
M  V30 5268 N 501.076 1.04316 1.18135 0
M  V30 5269 C 502.316 0.756937 1.89868 0
M  V30 5270 C 502.68 -0.702609 1.78682 0
M  V30 5271 O 503.881 -1.10255 2.45148 0
M  V30 5272 C 502.152 1.21327 3.36176 0
M  V30 5273 S 503.711 1.05307 4.25976 0
M  V30 5274 H 500.529 0.275143 0.655604 0
M  V30 5275 H 503.131 1.33597 1.42731 0
M  V30 5276 H 501.835 2.27086 3.41848 0
M  V30 5277 H 501.366 0.628137 3.88353 0
M  V30 5278 H 503.381 -0.0280093 4.96192 0
M  V30 5279 N 502.554 -1.34406 0.822964 0
M  V30 5280 C 503.501 -2.29519 0.24284 0
M  V30 5281 C 504.471 -1.5359 -0.632397 0
M  V30 5282 O 505.656 -1.8196 -0.57403 0
M  V30 5283 C 502.796 -3.40032 -0.58925 0
M  V30 5284 C 501.909 -4.30899 0.308236 0
M  V30 5285 C 501.044 -5.28515 -0.533425 0
M  V30 5286 C 500.083 -6.1102 0.363444 0
M  V30 5287 N 499.22 -7.00725 -0.439147 0
M  V30 5288 H 504.06 -2.78537 1.05929 0
M  V30 5289 H 501.597 -1.3707 0.533872 0
M  V30 5290 H 503.555 -4.0279 -1.087 0
M  V30 5291 H 502.185 -2.92248 -1.37081 0
M  V30 5292 H 501.237 -3.69002 0.924203 0
M  V30 5293 H 502.549 -4.88717 0.997862 0
M  V30 5294 H 501.703 -5.96725 -1.09565 0
M  V30 5295 H 500.442 -4.71235 -1.25656 0
M  V30 5296 H 499.447 -5.41743 0.937812 0
M  V30 5297 H 500.672 -6.70381 1.08469 0
M  V30 5298 H 498.618 -6.45913 -1.14595 0
M  V30 5299 H 498.535 -7.55756 0.19209 0
M  V30 5300 H 499.803 -7.73263 -0.984124 0
M  V30 5301 N 504.032 -0.577932 -1.46621 0
M  V30 5302 C 504.942 0.160651 -2.34049 0
M  V30 5303 C 505.958 0.890911 -1.49462 0
M  V30 5304 O 507.134 0.855166 -1.82343 0
M  V30 5305 C 504.199 1.16447 -3.26559 0
M  V30 5306 C 503.26 0.4394 -4.27045 0
M  V30 5307 C 502.493 1.3954 -5.15135 0
M  V30 5308 O 502.716 2.63162 -5.06065 0
M  V30 5309 O 501.65 0.908585 -5.95003 0
M  V30 5310 H 505.476 -0.557057 -2.98547 0
M  V30 5311 H 503.061 -0.338369 -1.45518 0
M  V30 5312 H 504.943 1.7434 -3.83645 0
M  V30 5313 H 503.618 1.86373 -2.64663 0
M  V30 5314 H 502.525 -0.181247 -3.73661 0
M  V30 5315 H 503.858 -0.218799 -4.91713 0
M  V30 5316 N 505.51 1.54411 -0.315457 0
M  V30 5317 C 506.42 2.27737 0.56329 0
M  V30 5318 C 507.436 1.31787 1.13614 0
M  V30 5319 O 508.612 1.64791 1.15784 0
M  V30 5320 C 505.677 3.01478 1.71207 0
M  V30 5321 C 504.738 4.12997 1.17185 0
M  V30 5322 C 503.971 4.83212 2.26588 0
M  V30 5323 O 504.194 4.52884 3.46775 0
M  V30 5324 O 503.128 5.70299 1.92463 0
M  V30 5325 H 506.954 3.03683 -0.0319614 0
M  V30 5326 H 504.539 1.49178 -0.0814188 0
M  V30 5327 H 506.421 3.47683 2.38106 0
M  V30 5328 H 505.096 2.28414 2.29366 0
M  V30 5329 H 504.003 3.71159 0.468174 0
M  V30 5330 H 505.336 4.8808 0.635501 0
M  V30 5331 N 506.988 0.0434614 1.5754 0
M  V30 5332 C 507.935 -0.93356 2.11077 0
M  V30 5333 C 508.905 -1.31383 1.01626 0
M  V30 5334 O 510.09 -1.40465 1.29129 0
M  V30 5335 C 507.23 -2.20578 2.65404 0
M  V30 5336 C 506.343 -1.88068 3.88914 0
M  V30 5337 C 505.478 -3.09691 4.31584 0
M  V30 5338 C 504.517 -2.73067 5.47815 0
M  V30 5339 N 503.654 -3.87359 5.85574 0
M  V30 5340 H 508.494 -0.470118 2.94268 0
M  V30 5341 H 506.031 -0.220434 1.45439 0
M  V30 5342 H 507.989 -2.95011 2.94999 0
M  V30 5343 H 506.619 -2.64513 1.85021 0
M  V30 5344 H 505.671 -1.03816 3.6596 0
M  V30 5345 H 506.983 -1.57104 4.73413 0
M  V30 5346 H 506.137 -3.92431 4.62691 0
M  V30 5347 H 504.876 -3.43827 3.45882 0
M  V30 5348 H 503.881 -1.88742 5.16388 0
M  V30 5349 H 505.106 -2.40131 6.35227 0
M  V30 5350 H 503.052 -4.21311 5.02825 0
M  V30 5351 H 502.969 -3.60068 6.64746 0
M  V30 5352 H 504.237 -4.70761 6.21292 0
M  V30 5353 N 508.466 -1.55915 -0.229846 0
M  V30 5354 C 509.706 -1.80314 -0.962614 0
M  V30 5355 C 510.07 -0.61568 -1.81861 0
M  V30 5356 O 511.271 -0.738795 -2.58448 0
M  V30 5357 C 509.542 -3.0956 -1.78627 0
M  V30 5358 S 511.101 -3.55243 -2.57581 0
M  V30 5359 H 507.919 -0.633142 -0.323499 0
M  V30 5360 H 510.521 -1.94155 -0.228919 0
M  V30 5361 H 509.225 -3.94033 -1.14742 0
M  V30 5362 H 508.756 -2.98503 -2.56241 0
M  V30 5363 H 510.771 -3.17924 -3.80971 0
M  V30 5364 N 509.944 0.496216 -1.49584 0
M  V30 5365 C 510.891 1.59722 -1.66606 0
M  V30 5366 C 511.861 1.58158 -0.507477 0
M  V30 5367 O 513.046 1.76072 -0.735076 0
M  V30 5368 C 510.186 2.97844 -1.74308 0
M  V30 5369 C 509.299 3.09388 -3.01502 0
M  V30 5370 C 508.434 4.38271 -3.00153 0
M  V30 5371 C 507.473 4.43466 -4.21906 0
M  V30 5372 N 506.61 5.63784 -4.1844 0
M  V30 5373 H 511.45 1.44515 -2.60613 0
M  V30 5374 H 508.987 0.703048 -1.29212 0
M  V30 5375 H 510.945 3.77907 -1.76754 0
M  V30 5376 H 509.575 3.11743 -0.837619 0
M  V30 5377 H 508.627 2.22357 -3.08645 0
M  V30 5378 H 509.939 3.09085 -3.91494 0
M  V30 5379 H 509.093 5.2666 -3.01188 0
M  V30 5380 H 507.832 4.41146 -2.07947 0
M  V30 5381 H 506.837 3.53478 -4.21109 0
M  V30 5382 H 508.062 4.42303 -5.1531 0
M  V30 5383 H 506.008 5.67491 -3.29074 0
M  V30 5384 H 505.925 5.65118 -5.02173 0
M  V30 5385 H 507.193 6.54367 -4.23585 0
M  V30 5386 N 511.423 1.38739 0.74761 0
M  V30 5387 C 512.663 1.36695 1.51966 0
M  V30 5388 C 513.027 -0.0411889 1.91956 0
M  V30 5389 O 514.228 -0.186543 2.68152 0
M  V30 5390 C 512.499 2.30119 2.73459 0
M  V30 5391 S 514.058 2.4615 3.63257 0
M  V30 5392 H 510.876 0.484929 0.519966 0
M  V30 5393 H 513.478 1.7472 0.877104 0
M  V30 5394 H 512.182 3.31312 2.422 0
M  V30 5395 H 511.713 1.93265 3.42655 0
M  V30 5396 H 513.728 1.69001 4.66533 0
M  V30 5397 N 512.901 -0.976442 1.23707 0
M  V30 5398 C 514.148 -1.71827 1.07153 0
M  V30 5399 C 514.476 -1.9053 -0.390982 0
M  V30 5400 O 513.731 -1.45779 -1.30564 0
M  V30 5401 C 514.03 -3.11814 1.74662 0
M  V30 5402 C 513.696 -3.12978 3.24585 0
M  V30 5403 C 512.358 -3.13003 3.6549 0
M  V30 5404 C 514.71 -3.07986 4.20469 0
M  V30 5405 C 512.038 -3.05757 5.00729 0
M  V30 5406 C 514.39 -3.02282 5.55705 0
M  V30 5407 C 513.054 -3.00631 5.95968 0
M  V30 5408 H 512.324 -0.628758 0.392102 0
M  V30 5409 H 514.971 -1.14239 1.53693 0
M  V30 5410 H 513.276 -3.72812 1.20492 0
M  V30 5411 H 514.973 -3.67989 1.59328 0
M  V30 5412 H 511.563 -3.13718 2.92026 0
M  V30 5413 H 515.747 -3.07103 3.89874 0
M  V30 5414 H 511.003 -3.02834 5.31132 0
M  V30 5415 H 515.177 -2.97376 6.29714 0
M  V30 5416 H 512.804 -2.94771 7.00724 0
M  V30 5417 N 514.379 -1.04941 -1.1758 0
M  V30 5418 C 515.309 -0.669172 -2.23706 0
M  V30 5419 C 516.29 0.331835 -1.66832 0
M  V30 5420 O 517.475 0.209988 -1.93061 0
M  V30 5421 C 514.605 -0.0404889 -3.47276 0
M  V30 5422 C 513.559 -0.965983 -4.16957 0
M  V30 5423 C 512.885 -0.201312 -5.34321 0
M  V30 5424 C 514.185 -2.28902 -4.69469 0
M  V30 5425 H 515.879 -1.55639 -2.55767 0
M  V30 5426 H 513.425 -0.749793 -1.22939 0
M  V30 5427 H 515.378 0.237298 -4.20731 0
M  V30 5428 H 514.102 0.881658 -3.14475 0
M  V30 5429 H 512.761 -1.22829 -3.45411 0
M  V30 5430 H 512.409 0.723519 -4.97769 0
M  V30 5431 H 512.109 -0.817968 -5.81879 0
M  V30 5432 H 513.633 0.0692499 -6.10561 0
M  V30 5433 H 515.047 -2.07132 -5.34574 0
M  V30 5434 H 513.444 -2.85942 -5.27596 0
M  V30 5435 H 514.514 -2.92937 -3.86414 0
M  V30 5436 N 515.857 1.33968 -0.830081 0
M  V30 5437 C 517.273 1.51003 -0.516742 0
M  V30 5438 C 517.473 1.77286 0.957694 0
M  V30 5439 O 516.529 1.82797 1.74188 0
M  V30 5440 C 517.842 2.67036 -1.38247 0
M  V30 5441 C 519.39 2.80919 -1.38034 0
M  V30 5442 C 519.865 4.00004 -2.23071 0
M  V30 5443 N 521.356 4.07224 -2.20733 0
M  V30 5444 C 522.091 4.98541 -2.83275 0
M  V30 5445 N 521.587 5.95033 -3.54835 0
M  V30 5446 N 523.38 4.91469 -2.72791 0
M  V30 5447 H 515.531 1.15168 -1.78466 0
M  V30 5448 H 517.794 0.565443 -0.760906 0
M  V30 5449 H 517.5 2.54266 -2.42985 0
M  V30 5450 H 517.374 3.62226 -1.05225 0
M  V30 5451 H 519.761 2.93127 -0.340713 0
M  V30 5452 H 519.842 1.86517 -1.75057 0
M  V30 5453 H 519.486 3.88557 -3.27087 0
M  V30 5454 H 519.416 4.93634 -1.83394 0
M  V30 5455 H 521.907 3.38162 -1.68687 0
M  V30 5456 H 522.22 6.61357 -3.99784 0
M  V30 5457 H 520.565 5.95135 -3.58942 0
M  V30 5458 H 523.756 4.15048 -2.16456 0
M  V30 5459 H 523.929 5.62439 -3.21818 0
M  V30 5460 N 517.335 0.585699 1.46312 0
M  V30 5461 C 518.265 -0.133556 2.33118 0
M  V30 5462 C 519.246 -0.880707 1.45525 0
M  V30 5463 O 520.431 -0.855579 1.74337 0
M  V30 5464 C 517.561 -1.14585 3.27853 0
M  V30 5465 C 516.515 -0.513341 4.2491 0
M  V30 5466 C 515.841 -1.63231 5.09175 0
M  V30 5467 C 517.141 0.551413 5.19381 0
M  V30 5468 H 518.835 0.59121 2.93505 0
M  V30 5469 H 516.381 0.285761 1.41136 0
M  V30 5470 H 518.334 -1.65741 3.87438 0
M  V30 5471 H 517.058 -1.90093 2.65579 0
M  V30 5472 H 515.717 -0.0228349 3.66593 0
M  V30 5473 H 515.365 -2.37713 4.43285 0
M  V30 5474 H 515.065 -1.21473 5.74907 0
M  V30 5475 H 516.589 -2.14658 5.71624 0
M  V30 5476 H 518.003 0.124804 5.73164 0
M  V30 5477 H 516.4 0.889486 5.93471 0
M  V30 5478 H 517.47 1.43655 4.63132 0
M  V30 5479 N 518.813 -1.54241 0.323641 0
M  V30 5480 C 520.038 -2.05452 -0.283605 0
M  V30 5481 C 520.463 -1.19823 -1.44997 0
M  V30 5482 O 519.821 -0.207358 -1.8011 0
M  V30 5483 C 519.869 -3.53823 -0.695795 0
M  V30 5484 O 518.973 -3.71134 -1.79815 0
M  V30 5485 H 518.314 -0.662024 -0.0511917 0
M  V30 5486 H 520.844 -1.99079 0.472073 0
M  V30 5487 H 520.854 -3.96094 -0.978434 0
M  V30 5488 H 519.529 -4.15602 0.157287 0
M  V30 5489 H 518.106 -3.40768 -1.51431 0
M  V30 5490 N 520.291 -0.0518155 -1.57515 0
M  V30 5491 C 521.224 0.957758 -2.07129 0
M  V30 5492 C 522.202 1.30355 -0.971927 0
M  V30 5493 O 523.386 1.41631 -1.2439 0
M  V30 5494 C 520.513 2.27157 -2.51232 0
M  V30 5495 C 519.559 2.07879 -3.72409 0
M  V30 5496 S 520.392 1.35656 -5.18033 0
M  V30 5497 C 521.548 2.68359 -5.65451 0
M  V30 5498 H 521.781 0.53552 -2.92437 0
M  V30 5499 H 519.314 0.160465 -1.53564 0
M  V30 5500 H 521.272 3.02676 -2.77304 0
M  V30 5501 H 519.933 2.66509 -1.66228 0
M  V30 5502 H 519.126 3.05061 -4.01191 0
M  V30 5503 H 518.728 1.40499 -3.46606 0
M  V30 5504 H 521.02 3.64526 -5.71076 0
M  V30 5505 H 521.963 2.44213 -6.64654 0
M  V30 5506 H 522.371 2.74647 -4.93183 0
M  V30 5507 N 521.769 1.56035 0.221574 0
M  V30 5508 C 523.046 1.69837 0.970301 0
M  V30 5509 C 523.426 0.599065 2.02421 0
M  V30 5510 O 522.774 -0.393929 2.25079 0
M  V30 5511 C 522.984 3.11148 1.58076 0
M  V30 5512 C 524.332 3.70555 2.07302 0
M  V30 5513 O 525.356 3.14109 1.6797 0
M  V30 5514 O 524.215 4.69562 2.79596 0
M  V30 5515 H 521.309 0.691727 0.453257 0
M  V30 5516 H 523.855 1.68353 0.213358 0
M  V30 5517 H 522.627 3.82617 0.819759 0
M  V30 5518 H 522.25 3.16749 2.40324 0
M  V30 5519 N 523.247 -0.488276 1.49845 0
M  V30 5520 C 524.495 -1.23911 1.59657 0
M  V30 5521 C 524.816 -1.92816 0.291005 0
M  V30 5522 O 524.086 -1.83328 -0.690485 0
M  V30 5523 H 522.666 -0.460357 0.588286 0
M  V30 5524 H 525.328 -0.564794 1.86537 0
M  V30 5525 H 524.424 -1.99625 2.39909 0
M  V30 5526 N 524.725 -1.39134 -0.740242 0
M  V30 5527 C 525.95 -1.39518 -1.53459 0
M  V30 5528 C 526.375 0.00968883 -1.88098 0
M  V30 5529 O 525.733 0.995312 -1.51536 0
M  V30 5530 C 525.781 -2.26981 -2.802 0
M  V30 5531 O 524.885 -1.69609 -3.75908 0
M  V30 5532 H 524.226 -0.475328 -0.463637 0
M  V30 5533 H 526.756 -1.83064 -0.913717 0
M  V30 5534 H 526.766 -2.41309 -3.28989 0
M  V30 5535 H 525.441 -3.29081 -2.5432 0
M  V30 5536 H 524.018 -1.64495 -3.34658 0
M  V30 5537 N 526.204 0.969867 -1.24223 0
M  V30 5538 C 527.615 1.52717 -1.07399 0
M  V30 5539 C 527.966 1.92956 0.355298 0
M  V30 5540 O 527.091 1.77112 1.2434 0
M  V30 5541 C 527.686 2.77521 -1.94339 0
M  V30 5542 C 526.245 3.29615 -1.81744 0
M  V30 5543 C 525.392 2.02537 -1.89405 0
M  V30 5544 H 528.343 0.788399 -1.37732 0
M  V30 5545 H 528.364 3.50773 -1.47439 0
M  V30 5546 H 527.876 2.48203 -2.98357 0
M  V30 5547 H 525.977 3.63789 -0.805505 0
M  V30 5548 H 526.09 3.98661 -2.65718 0
M  V30 5549 H 524.454 2.17151 -1.33108 0
M  V30 5550 H 525.237 1.75587 -2.94999 0
M  V30 5551 N 527.682 1.05563 1.17022 0
M  V30 5552 C 528.91 0.78845 1.91288 0
M  V30 5553 C 529.325 -0.656318 1.77025 0
M  V30 5554 O 528.682 -1.44869 1.10992 0
M  V30 5555 C 528.733 1.16444 3.42232 0
M  V30 5556 O 528.454 2.5525 3.5606 0
M  V30 5557 C 529.955 0.923937 4.33565 0
M  V30 5558 H 527.175 0.286389 0.606813 0
M  V30 5559 H 529.719 1.4073 1.48375 0
M  V30 5560 H 527.874 0.590266 3.82877 0
M  V30 5561 H 528.288 2.70097 4.49609 0
M  V30 5562 H 529.762 1.23672 5.37968 0
M  V30 5563 H 530.239 -0.140688 4.38975 0
M  V30 5564 H 530.845 1.48214 3.98639 0
M  V30 5565 N 529.16 -1.33526 0.837174 0
M  V30 5566 C 530.576 -1.50727 0.524743 0
M  V30 5567 C 530.776 -1.77792 -0.948279 0
M  V30 5568 O 529.832 -1.83719 -1.73216 0
M  V30 5569 C 531.145 -2.66299 1.39661 0
M  V30 5570 C 532.693 -2.80183 1.39521 0
M  V30 5571 C 533.168 -3.98815 2.25189 0
M  V30 5572 N 534.659 -4.06047 2.2289 0
M  V30 5573 C 535.394 -4.97032 2.85915 0
M  V30 5574 N 534.89 -5.93143 3.57985 0
M  V30 5575 N 536.683 -4.90015 2.75394 0
M  V30 5576 H 528.834 -1.1422 1.79074 0
M  V30 5577 H 531.097 -0.561399 0.763894 0
M  V30 5578 H 530.803 -2.52974 2.4433 0
M  V30 5579 H 530.677 -3.61663 1.07145 0
M  V30 5580 H 533.064 -2.92942 0.356253 0
M  V30 5581 H 533.145 -1.85586 1.76044 0
M  V30 5582 H 532.789 -3.86817 3.29143 0
M  V30 5583 H 532.719 -4.92654 1.86009 0
M  V30 5584 H 535.21 -3.37262 1.70478 0
M  V30 5585 H 535.523 -6.59227 4.03286 0
M  V30 5586 H 533.868 -5.93223 3.62093 0
M  V30 5587 H 537.059 -4.13894 2.18654 0
M  V30 5588 H 537.232 -5.60724 3.24796 0
M  V30 5589 N 530.638 -0.59345 -1.46 0
M  V30 5590 C 531.887 -0.0808084 -2.01538 0
M  V30 5591 C 532.2 1.29112 -1.46934 0
M  V30 5592 O 533.406 1.8957 -1.94359 0
M  V30 5593 C 531.862 -0.0938311 -3.59778 0
M  V30 5594 C 531.47 -1.46474 -4.23379 0
M  V30 5595 C 533.214 0.364306 -4.22934 0
M  V30 5596 C 531.121 -1.4349 -5.73729 0
M  V30 5597 H 530.051 -0.0264407 -0.753536 0
M  V30 5598 H 532.702 -0.746689 -1.67621 0
M  V30 5599 H 531.084 0.638427 -3.9082 0
M  V30 5600 H 532.258 -2.21758 -4.03931 0
M  V30 5601 H 530.573 -1.86379 -3.7236 0
M  V30 5602 H 533.17 0.405584 -5.3316 0
M  V30 5603 H 533.513 1.38409 -3.92618 0
M  V30 5604 H 534.046 -0.31423 -3.96557 0
M  V30 5605 H 530.785 -2.43184 -6.08722 0
M  V30 5606 H 530.305 -0.724431 -5.95409 0
M  V30 5607 H 531.984 -1.15243 -6.36654 0
M  V30 5608 N 532.116 1.54067 -0.331816 0
M  V30 5609 C 533.079 2.23275 0.517768 0
M  V30 5610 C 534.079 1.22897 1.03697 0
M  V30 5611 O 535.269 1.47419 0.928084 0
M  V30 5612 C 532.401 2.94326 1.72004 0
M  V30 5613 H 533.594 2.99773 -0.0873507 0
M  V30 5614 H 531.147 1.56079 -0.0830042 0
M  V30 5615 H 531.882 2.21986 2.36417 0
M  V30 5616 H 531.667 3.67941 1.35507 0
M  V30 5617 H 533.157 3.47031 2.32291 0
M  V30 5618 N 533.594 0.0601682 1.57485 0
M  V30 5619 C 534.824 -0.620037 1.97076 0
M  V30 5620 C 535.232 -1.64381 0.936784 0
M  V30 5621 O 534.575 -1.83497 -0.0863377 0
M  V30 5622 C 534.637 -1.35617 3.32939 0
M  V30 5623 C 534.301 -0.487208 4.54396 0
M  V30 5624 C 535.298 0.250428 5.19297 0
M  V30 5625 C 532.983 -0.415494 5.00579 0
M  V30 5626 C 534.977 1.04812 6.28723 0
M  V30 5627 C 532.664 0.385879 6.0988 0
M  V30 5628 C 533.662 1.11637 6.73815 0
M  V30 5629 O 533.35 1.90454 7.81014 0
M  V30 5630 H 533.082 -0.173664 0.653312 0
M  V30 5631 H 535.636 0.1256 2.05016 0
M  V30 5632 H 533.866 -2.14763 3.2158 0
M  V30 5633 H 535.555 -1.92749 3.57215 0
M  V30 5634 H 536.321 0.204546 4.84568 0
M  V30 5635 H 532.2 -0.973679 4.506 0
M  V30 5636 H 535.744 1.6188 6.78558 0
M  V30 5637 H 531.641 0.433366 6.44044 0
M  V30 5638 H 532.409 1.82762 7.97835 0
M  V30 5639 N 535.072 -1.5615 -0.213296 0
M  V30 5640 C 536.32 -1.79191 -0.934612 0
M  V30 5641 C 536.641 -0.630112 -1.84539 0
M  V30 5642 O 535.911 0.35257 -1.92701 0
M  V30 5643 H 534.491 -0.660937 -0.348097 0
M  V30 5644 H 537.153 -1.93618 -0.22317 0
M  V30 5645 H 536.249 -2.71656 -1.53654 0
M  V30 5646 N 536.55 0.480323 -1.50102 0
M  V30 5647 C 537.778 1.25657 -1.64371 0
M  V30 5648 C 538.193 1.86011 -0.323316 0
M  V30 5649 O 537.55 1.68803 0.693682 0
M  V30 5650 C 537.601 2.37197 -2.728 0
M  V30 5651 O 537.322 1.7932 -3.9972 0
M  V30 5652 C 538.823 3.2823 -2.9796 0
M  V30 5653 H 536.043 0.380369 -0.552775 0
M  V30 5654 H 538.587 0.574379 -1.96268 0
M  V30 5655 H 536.742 3.01208 -2.43623 0
M  V30 5656 H 537.156 2.52701 -4.59611 0
M  V30 5657 H 538.63 4.02725 -3.77513 0
M  V30 5658 H 539.107 3.86462 -2.08671 0
M  V30 5659 H 539.713 2.69964 -3.28633 0
M  V30 5660 N 538.028 1.39524 0.732853 0
M  V30 5661 C 538.96 1.34318 1.85718 0
M  V30 5662 C 539.973 0.251576 1.60844 0
M  V30 5663 O 541.162 0.510685 1.71039 0
M  V30 5664 C 538.262 1.06334 3.21786 0
M  V30 5665 C 537.435 2.26813 3.73998 0
M  V30 5666 C 536.494 1.95253 4.88634 0
M  V30 5667 O 535.52 2.67957 5.02183 0
M  V30 5668 N 536.722 0.919984 5.73164 0
M  V30 5669 H 539.487 2.3121 1.90688 0
M  V30 5670 H 537.048 1.33654 0.91368 0
M  V30 5671 H 539.04 0.832363 3.96048 0
M  V30 5672 H 537.61 0.181682 3.12072 0
M  V30 5673 H 536.83 2.65849 2.91064 0
M  V30 5674 H 538.118 3.0717 4.05616 0
M  V30 5675 H 537.516 0.317487 5.64808 0
M  V30 5676 H 536.073 0.748905 6.47483 0
M  V30 5677 N 539.506 -0.963266 1.24736 0
M  V30 5678 C 540.754 -1.70343 1.08755 0
M  V30 5679 C 541.075 -1.91387 -0.373619 0
M  V30 5680 O 540.345 -1.4948 -1.2662 0
M  V30 5681 H 538.925 -0.631224 0.399456 0
M  V30 5682 H 541.587 -1.15859 1.56725 0
M  V30 5683 H 540.683 -2.68616 1.58909 0
M  V30 5684 N 540.985 -1.06182 -1.16461 0
M  V30 5685 C 542.21 -0.798599 -1.91408 0
M  V30 5686 C 542.635 0.640987 -1.76842 0
M  V30 5687 O 541.993 1.44652 -1.09296 0
M  V30 5688 C 542.041 -1.19665 -3.40165 0
M  V30 5689 O 541.145 -0.334768 -4.11039 0
M  V30 5690 H 540.486 -0.291961 -0.596368 0
M  V30 5691 H 543.016 -1.41732 -1.47557 0
M  V30 5692 H 543.026 -1.16772 -3.90933 0
M  V30 5693 H 541.701 -2.24526 -3.50087 0
M  V30 5694 H 540.278 -0.425168 -3.70468 0
M  V30 5695 N 542.463 1.3308 -0.844243 0
M  V30 5696 C 543.688 2.02341 -0.455282 0
M  V30 5697 C 544.113 1.6308 0.93737 0
M  V30 5698 O 543.471 0.826118 1.61385 0
M  V30 5699 C 543.519 3.55743 -0.58988 0
M  V30 5700 O 542.623 4.1063 0.38166 0
M  V30 5701 H 541.964 0.637898 -0.184343 0
M  V30 5702 H 544.494 1.6986 -1.14056 0
M  V30 5703 H 544.504 4.05243 -0.473522 0
M  V30 5704 H 543.179 3.83662 -1.60549 0
M  V30 5705 H 541.756 3.72236 0.22241 0
M  V30 5706 N 543.941 0.601185 1.45683 0
M  V30 5707 C 545.189 0.0936957 2.01883 0
M  V30 5708 C 545.51 -1.2779 1.47291 0
M  V30 5709 O 544.78 -1.84279 0.664691 0
M  V30 5710 H 543.36 0.0316466 0.746329 0
M  V30 5711 H 546.022 0.781137 1.78562 0
M  V30 5712 H 545.118 0.0386297 3.12076 0
M  V30 5713 N 545.419 -1.53889 0.339982 0
M  V30 5714 C 546.649 -2.04973 -0.258738 0
M  V30 5715 C 547.057 -1.21485 -1.45045 0
M  V30 5716 O 546.4 -0.2422 -1.82096 0
M  V30 5717 C 546.462 -3.51783 -0.740853 0
M  V30 5718 C 546.126 -4.55802 0.330734 0
M  V30 5719 C 547.123 -5.06512 1.17226 0
M  V30 5720 C 544.808 -4.99966 0.483637 0
M  V30 5721 C 546.802 -5.99963 2.15227 0
M  V30 5722 C 544.489 -5.93229 1.46704 0
M  V30 5723 C 545.487 -6.43115 2.29981 0
M  V30 5724 O 545.175 -7.34545 3.26649 0
M  V30 5725 H 544.907 -0.673807 -0.0544037 0
M  V30 5726 H 547.461 -1.99492 0.489107 0
M  V30 5727 H 545.691 -3.54717 -1.53988 0
M  V30 5728 H 547.38 -3.85857 -1.25973 0
M  V30 5729 H 548.146 -4.73158 1.0652 0
M  V30 5730 H 544.025 -4.6074 -0.15471 0
M  V30 5731 H 547.569 -6.38825 2.80265 0
M  V30 5732 H 543.466 -6.25998 1.57468 0
M  V30 5733 H 544.234 -7.52468 3.22078 0
M  V30 5734 N 546.897 -0.0685191 -1.57451 0
M  V30 5735 C 548.122 0.613919 -1.98106 0
M  V30 5736 C 548.547 1.62551 -0.946501 0
M  V30 5737 O 547.905 1.81085 0.0882824 0
M  V30 5738 C 547.953 1.26189 -3.378 0
M  V30 5739 O 547.057 2.37773 -3.36954 0
M  V30 5740 H 546.398 0.158163 -0.644888 0
M  V30 5741 H 548.928 -0.142063 -2.04106 0
M  V30 5742 H 548.938 1.60951 -3.74912 0
M  V30 5743 H 547.613 0.520625 -4.12629 0
M  V30 5744 H 546.19 2.04829 -3.11608 0
M  V30 5745 N 548.375 1.56261 0.205012 0
M  V30 5746 C 549.305 1.96779 1.257 0
M  V30 5747 C 550.286 0.838309 1.48008 0
M  V30 5748 O 551.471 1.10189 1.59913 0
M  V30 5749 C 548.601 2.29876 2.60335 0
M  V30 5750 C 547.555 3.45469 2.52656 0
M  V30 5751 C 546.881 3.64215 3.91473 0
M  V30 5752 C 548.181 4.79954 2.06014 0
M  V30 5753 H 549.875 2.84904 0.920338 0
M  V30 5754 H 547.421 1.37072 0.441277 0
M  V30 5755 H 549.374 2.56814 3.34102 0
M  V30 5756 H 548.098 1.38622 2.95722 0
M  V30 5757 H 546.757 3.18605 1.81345 0
M  V30 5758 H 546.405 2.70309 4.24196 0
M  V30 5759 H 546.105 4.41973 3.87213 0
M  V30 5760 H 547.629 3.93519 4.66878 0
M  V30 5761 H 549.043 5.05989 2.69533 0
M  V30 5762 H 547.44 5.61111 2.12777 0
M  V30 5763 H 548.51 4.74201 1.01297 0
M  V30 5764 N 549.853 -0.472356 1.50355 0
M  V30 5765 C 551.269 -0.806001 1.37753 0
M  V30 5766 C 551.469 -1.968 0.432649 0
M  V30 5767 O 550.525 -2.52189 -0.12519 0
M  V30 5768 C 551.838 -1.11926 2.79093 0
M  V30 5769 C 553.386 -1.22579 2.87999 0
M  V30 5770 C 553.861 -1.57218 4.3017 0
M  V30 5771 N 555.352 -1.64212 4.33115 0
M  V30 5772 C 556.087 -1.92517 5.40116 0
M  V30 5773 N 555.583 -2.1885 6.57325 0
M  V30 5774 N 557.376 -1.94008 5.27558 0
M  V30 5775 H 549.527 0.293451 2.10363 0
M  V30 5776 H 551.79 0.0687672 0.945503 0
M  V30 5777 H 551.496 -0.338504 3.50067 0
M  V30 5778 H 551.37 -2.05577 3.16256 0
M  V30 5779 H 553.757 -1.99722 2.17245 0
M  V30 5780 H 553.838 -0.269107 2.54381 0
M  V30 5781 H 553.482 -0.806154 5.01461 0
M  V30 5782 H 553.412 -2.54034 4.61275 0
M  V30 5783 H 555.903 -1.45906 3.48597 0
M  V30 5784 H 556.216 -2.39718 7.3468 0
M  V30 5785 H 554.561 -2.16245 6.60502 0
M  V30 5786 H 557.752 -1.72931 4.34986 0
M  V30 5787 H 557.925 -2.15731 6.11035 0
M  V30 5788 N 551.331 -1.39911 -0.725443 0
M  V30 5789 C 552.261 -1.42138 -1.85254 0
M  V30 5790 C 553.242 -0.283513 -1.67721 0
M  V30 5791 O 554.427 -0.490717 -1.87898 0
M  V30 5792 C 551.557 -1.27354 -3.23107 0
M  V30 5793 C 550.511 -2.3864 -3.55296 0
M  V30 5794 C 549.837 -2.08939 -4.92188 0
M  V30 5795 C 551.137 -3.8097 -3.57295 0
M  V30 5796 H 552.831 -2.36461 -1.83648 0
M  V30 5797 H 550.377 -1.13817 -0.882138 0
M  V30 5798 H 552.33 -1.2753 -4.01639 0
M  V30 5799 H 551.054 -0.295025 -3.25265 0
M  V30 5800 H 549.713 -2.37696 -2.79099 0
M  V30 5801 H 549.361 -1.09502 -4.90936 0
M  V30 5802 H 549.061 -2.83491 -5.14691 0
M  V30 5803 H 550.585 -2.10781 -5.73065 0
M  V30 5804 H 551.999 -3.8379 -4.25885 0
M  V30 5805 H 550.396 -4.5496 -3.9132 0
M  V30 5806 H 551.466 -4.11261 -2.5689 0
M  V30 5807 N 552.809 0.956637 -1.25245 0
M  V30 5808 C 554.049 1.71585 -1.11076 0
M  V30 5809 C 554.413 1.88916 0.34277 0
M  V30 5810 O 555.614 2.61875 0.606227 0
M  V30 5811 C 553.885 3.06267 -1.84215 0
M  V30 5812 S 555.444 3.97469 -1.85914 0
M  V30 5813 H 552.262 0.589803 -0.397055 0
M  V30 5814 H 554.864 1.14114 -1.58739 0
M  V30 5815 H 553.568 2.91322 -2.89067 0
M  V30 5816 H 553.099 3.688 -1.36931 0
M  V30 5817 H 555.114 4.87316 -0.93474 0
M  V30 5818 N 554.287 1.06798 1.15896 0
M  V30 5819 C 555.235 0.677525 2.22514 0
M  V30 5820 C 556.229 -0.308994 1.66558 0
M  V30 5821 O 557.435 -0.173308 1.79164 0
M  V30 5822 H 553.81 0.200994 0.724642 0
M  V30 5823 H 555.781 1.5865 2.52731 0
M  V30 5824 C 554.53 0.0854153 3.47595 0
M  V30 5825 H 553.853 0.835645 3.90969 0
M  V30 5826 H 555.293 -0.150199 4.23734 0
M  V30 5827 C 553.752 -1.1724 3.15843 0
M  V30 5828 O 554.282 -2.25965 3.32119 0
M  V30 5829 N 552.488 -1.07636 2.69931 0
M  V30 5830 H 552.035 -0.191559 2.56887 0
M  V30 5831 H 551.993 -1.91876 2.4906 0
M  V30 5832 N 555.766 -1.3263 0.851289 0
M  V30 5833 C 556.994 -2.01563 0.466899 0
M  V30 5834 C 557.409 -1.63996 -0.935447 0
M  V30 5835 O 556.766 -0.85957 -1.6099 0
M  V30 5836 C 556.817 -3.56613 0.592433 0
M  V30 5837 O 556.538 -3.92828 1.93954 0
M  V30 5838 C 558.039 -4.42818 0.206612 0
M  V30 5839 H 555.259 -0.645307 0.183902 0
M  V30 5840 H 557.803 -1.69285 1.1473 0
M  V30 5841 H 555.958 -3.87379 -0.0401936 0
M  V30 5842 H 556.372 -4.87545 1.9339 0
M  V30 5843 H 557.846 -5.50918 0.345462 0
M  V30 5844 H 558.323 -4.30844 -0.85264 0
M  V30 5845 H 558.929 -4.17434 0.814176 0
M  V30 5846 N 557.244 -0.608902 -1.45362 0
M  V30 5847 C 558.492 -0.104401 -2.0183 0
M  V30 5848 C 558.813 1.27007 -1.47967 0
M  V30 5849 O 558.083 1.83924 -0.674455 0
M  V30 5850 H 556.663 -0.0356042 -0.746151 0
M  V30 5851 H 559.325 -0.790596 -1.78145 0
M  V30 5852 H 558.421 -0.0551793 -3.12051 0
M  V30 5853 N 558.722 1.53707 -0.348139 0
M  V30 5854 C 559.999 1.93247 0.302475 0
M  V30 5855 C 560.379 1.28012 1.67857 0
M  V30 5856 O 559.727 0.43274 2.24365 0
M  V30 5857 C 559.937 3.47031 0.370159 0
M  V30 5858 C 561.285 4.20066 0.61882 0
M  V30 5859 O 562.309 3.53319 0.452087 0
M  V30 5860 O 561.168 5.38318 0.94215 0
M  V30 5861 H 558.262 0.807736 0.177458 0
M  V30 5862 H 560.808 1.64927 -0.399651 0
M  V30 5863 H 559.58 3.86745 -0.59534 0
M  V30 5864 H 559.203 3.81532 1.11888 0
M  V30 5865 N 560.2 0.0768682 1.57412 0
M  V30 5866 C 561.148 -0.906229 2.1422 0
M  V30 5867 C 562.142 -1.30477 1.08037 0
M  V30 5868 O 563.348 -1.28143 1.2641 0
M  V30 5869 H 559.723 -0.310207 0.685037 0
M  V30 5870 H 561.694 -0.402228 2.95677 0
M  V30 5871 C 560.443 -2.16245 2.72274 0
M  V30 5872 H 559.766 -1.86463 3.53655 0
M  V30 5873 H 561.206 -2.83134 3.15613 0
M  V30 5874 C 559.665 -2.92437 1.67279 0
M  V30 5875 O 560.195 -3.86322 1.10081 0
M  V30 5876 N 558.401 -2.55637 1.38195 0
M  V30 5877 H 557.948 -1.79363 1.84897 0
M  V30 5878 H 557.906 -3.06919 0.681787 0
M  V30 5879 N 561.678 -1.56367 -0.196722 0
M  V30 5880 C 562.903 -1.84991 -0.937714 0
M  V30 5881 C 563.328 -0.660244 -1.76132 0
M  V30 5882 O 562.686 0.390967 -1.77034 0
M  V30 5883 C 562.734 -3.11828 -1.81096 0
M  V30 5884 O 561.838 -2.92266 -2.90955 0
M  V30 5885 H 561.179 -0.609193 -0.264159 0
M  V30 5886 H 563.709 -2.03595 -0.202529 0
M  V30 5887 H 563.719 -3.42579 -2.21594 0
M  V30 5888 H 562.394 -3.98037 -1.2058 0
M  V30 5889 H 560.971 -2.72809 -2.54224 0
M  V30 5890 N 563.156 0.464375 -1.50603 0
M  V30 5891 C 564.402 1.21776 -1.62168 0
M  V30 5892 C 564.735 1.91476 -0.324154 0
M  V30 5893 O 564.01 1.8242 0.674782 0
M  V30 5894 C 564.293 2.25614 -2.80661 0
M  V30 5895 C 564.146 1.60175 -4.20314 0
M  V30 5896 C 565.465 3.26862 -2.94702 0
M  V30 5897 H 562.584 0.44137 -0.590222 0
M  V30 5898 H 565.226 0.510623 -1.8301 0
M  V30 5899 H 563.376 2.85923 -2.63021 0
M  V30 5900 H 565.048 1.03411 -4.4956 0
M  V30 5901 H 563.291 0.904697 -4.24261 0
M  V30 5902 H 563.962 2.35665 -4.99165 0
M  V30 5903 H 566.438 2.76582 -3.10872 0
M  V30 5904 H 565.314 3.96839 -3.79223 0
M  V30 5905 H 565.575 3.91382 -2.05603 0
M  V30 5906 N 564.634 1.40294 0.718013 0
M  V30 5907 C 565.874 1.39888 1.49032 0
M  V30 5908 C 566.238 -0.000462935 1.92 0
M  V30 5909 O 567.439 -0.129622 2.68487 0
M  V30 5910 C 565.71 2.35868 2.68516 0
M  V30 5911 S 567.269 2.53799 3.57954 0
M  V30 5912 H 564.087 0.495849 0.509563 0
M  V30 5913 H 566.689 1.76541 0.839846 0
M  V30 5914 H 565.393 3.36375 2.35117 0
M  V30 5915 H 564.924 2.0049 3.38478 0
M  V30 5916 H 566.939 1.78859 4.62843 0
M  V30 5917 N 566.112 -0.949982 1.2575 0
M  V30 5918 C 567.34 -1.72972 1.13527 0
M  V30 5919 C 567.755 -1.8623 -0.310453 0
M  V30 5920 O 567.112 -1.36336 -1.2132 0
M  V30 5921 C 567.163 -3.14108 1.78936 0
M  V30 5922 O 566.884 -3.01493 3.17858 0
M  V30 5923 C 568.385 -4.08338 1.72554 0
M  V30 5924 H 565.605 -0.541864 0.395758 0
M  V30 5925 H 568.149 -1.19151 1.66202 0
M  V30 5926 H 566.304 -3.64858 1.30221 0
M  V30 5927 H 566.718 -3.90559 3.50092 0
M  V30 5928 H 568.192 -5.04963 2.22973 0
M  V30 5929 H 568.669 -4.33742 0.690251 0
M  V30 5930 H 569.275 -3.63506 2.2078 0
M  V30 5931 N 567.59 -1.07411 -1.15328 0
M  V30 5932 C 568.818 -0.818782 -1.90009 0
M  V30 5933 C 569.233 0.628072 -1.78047 0
M  V30 5934 O 568.59 1.43085 -1.13282 0
M  V30 5935 C 568.641 -1.21874 -3.40337 0
M  V30 5936 O 568.362 -2.60883 -3.51954 0
M  V30 5937 C 569.863 -0.992796 -4.3204 0
M  V30 5938 H 567.083 -0.296007 -0.60218 0
M  V30 5939 H 569.627 -1.43073 -1.46117 0
M  V30 5940 H 567.782 -0.651103 -3.81889 0
M  V30 5941 H 568.196 -2.77216 -4.45255 0
M  V30 5942 H 569.67 -1.32215 -5.35932 0
M  V30 5943 H 570.147 0.0708331 -4.39143 0
M  V30 5944 H 570.753 -1.54537 -3.9623 0
M  V30 5945 N 569.068 1.32177 -0.85831 0
M  V30 5946 C 570.015 2.28794 -0.303607 0
M  V30 5947 C 570.985 1.55213 0.591453 0
M  V30 5948 O 572.17 1.83418 0.525585 0
M  V30 5949 C 569.31 3.41475 0.49889 0
M  V30 5950 C 568.423 4.2993 -0.422373 0
M  V30 5951 C 567.558 5.29743 0.393111 0
M  V30 5952 C 566.597 6.09842 -0.525317 0
M  V30 5953 N 565.734 7.01643 0.253208 0
M  V30 5954 H 570.574 2.75631 -1.13276 0
M  V30 5955 H 568.111 1.35606 -0.570026 0
M  V30 5956 H 570.069 4.05531 0.979826 0
M  V30 5957 H 568.699 2.95779 1.29284 0
M  V30 5958 H 567.751 3.66422 -1.02171 0
M  V30 5959 H 569.063 4.85899 -1.12709 0
M  V30 5960 H 568.217 5.9942 0.937056 0
M  V30 5961 H 566.956 4.744 1.13117 0
M  V30 5962 H 565.961 5.39066 -1.08112 0
M  V30 5963 H 567.186 6.6727 -1.26205 0
M  V30 5964 H 565.132 6.48725 0.974295 0
M  V30 5965 H 565.049 7.54981 -0.392398 0
M  V30 5966 H 566.317 7.756 0.778761 0
M  V30 5967 N 570.547 0.616602 1.45037 0
M  V30 5968 C 571.775 0.121968 2.0654 0
M  V30 5969 C 572.19 -1.19743 1.45969 0
M  V30 5970 O 571.547 -1.73133 0.577168 0
M  V30 5971 C 571.598 -0.0145171 3.61497 0
M  V30 5972 O 571.319 1.25269 4.19809 0
M  V30 5973 C 572.82 -0.539555 4.40004 0
M  V30 5974 H 570.04 0.0729837 0.667019 0
M  V30 5975 H 572.584 0.846891 1.8614 0
M  V30 5976 H 570.739 -0.689809 3.81209 0
M  V30 5977 H 571.153 1.08816 5.13088 0
M  V30 5978 H 572.627 -0.584112 5.48901 0
M  V30 5979 H 573.104 -1.56368 4.10421 0
M  V30 5980 H 573.71 0.101995 4.25178 0
M  V30 5981 N 572.025 -1.5352 0.356285 0
M  V30 5982 C 573.25 -2.06007 -0.239961 0
M  V30 5983 C 573.675 -1.22872 -1.42422 0
M  V30 5984 O 573.033 -0.245516 -1.7963 0
M  V30 5985 C 573.081 -3.5522 -0.620587 0
M  V30 5986 O 572.185 -3.74864 -1.71902 0
M  V30 5987 H 571.526 -0.662961 -0.0371377 0
M  V30 5988 H 574.056 -1.98033 0.514194 0
M  V30 5989 H 574.066 -3.98081 -0.894197 0
M  V30 5990 H 572.741 -4.15175 0.245407 0
M  V30 5991 H 571.318 -3.43904 -1.44169 0
M  V30 5992 N 573.503 -0.0852151 -1.57369 0
M  V30 5993 C 574.731 0.58946 -1.98325 0
M  V30 5994 C 575.146 1.62333 -0.96403 0
M  V30 5995 O 574.503 1.82438 0.0476395 0
M  V30 5996 C 574.554 1.24604 -3.39347 0
M  V30 5997 O 574.275 0.253532 -4.37366 0
M  V30 5998 C 575.776 2.00726 -3.95252 0
M  V30 5999 H 572.996 0.158783 -0.651942 0
M  V30 6000 H 575.54 -0.161584 -2.03861 0
M  V30 6001 H 573.695 1.94808 -3.34856 0
M  V30 6002 H 574.109 0.726207 -5.19448 0
M  V30 6003 H 575.583 2.42039 -4.96106 0
M  V30 6004 H 576.06 2.86919 -3.32527 0
M  V30 6005 H 576.666 1.3536 -4.03185 0
M  V30 6006 N 574.981 1.5647 0.188427 0
M  V30 6007 C 576.397 1.50204 0.539532 0
M  V30 6008 C 576.597 0.78644 1.85519 0
M  V30 6009 O 575.653 0.339714 2.50204 0
M  V30 6010 C 576.966 2.94893 0.588103 0
M  V30 6011 C 578.514 3.05602 0.67648 0
M  V30 6012 C 578.989 4.51716 0.756101 0
M  V30 6013 N 580.48 4.55894 0.819451 0
M  V30 6014 C 581.215 5.66272 0.90134 0
M  V30 6015 N 580.711 6.86323 0.945118 0
M  V30 6016 N 582.504 5.54201 0.939043 0
M  V30 6017 H 574.655 2.01406 -0.674493 0
M  V30 6018 H 576.918 0.916828 -0.241103 0
M  V30 6019 H 576.624 3.50334 -0.309633 0
M  V30 6020 H 576.498 3.4861 1.44051 0
M  V30 6021 H 578.885 2.50206 1.56465 0
M  V30 6022 H 578.966 2.54999 -0.202262 0
M  V30 6023 H 578.61 5.07739 -0.12774 0
M  V30 6024 H 578.54 5.00058 1.65074 0
M  V30 6025 H 581.031 3.69452 0.794594 0
M  V30 6026 H 581.344 7.66194 1.0083 0
M  V30 6027 H 579.689 6.88968 0.913683 0
M  V30 6028 H 582.88 4.59333 0.901725 0
M  V30 6029 H 583.053 6.40247 0.999402 0
M  V30 6030 N 576.459 -0.456382 1.50847 0
M  V30 6031 C 577.708 -1.2042 1.61808 0
M  V30 6032 C 578.021 -1.9278 0.330932 0
M  V30 6033 O 579.227 -2.69612 0.319643 0
M  V30 6034 C 577.683 -2.18891 2.85683 0
M  V30 6035 C 577.291 -1.52267 4.2133 0
M  V30 6036 C 579.035 -2.94224 3.05994 0
M  V30 6037 C 576.942 -2.4911 5.36375 0
M  V30 6038 H 575.872 -0.453177 0.602616 0
M  V30 6039 H 578.523 -0.473144 1.77295 0
M  V30 6040 H 576.905 -2.95351 2.63787 0
M  V30 6041 H 578.079 -0.814949 4.53536 0
M  V30 6042 H 576.394 -0.891594 4.06743 0
M  V30 6043 H 578.991 -3.66732 3.89117 0
M  V30 6044 H 579.334 -3.54469 2.18306 0
M  V30 6045 H 579.867 -2.24874 3.28141 0
M  V30 6046 H 576.606 -1.93582 6.26264 0
M  V30 6047 H 576.126 -3.17991 5.08569 0
M  V30 6048 H 577.805 -3.10637 5.67551 0
M  V30 6049 N 577.937 -1.40673 -0.710563 0
M  V30 6050 C 579.183 -1.39428 -1.47267 0
M  V30 6051 C 579.516 0.00182129 -1.942 0
M  V30 6052 O 578.791 0.971387 -1.68506 0
M  V30 6053 C 579.074 -2.38812 -2.6952 0
M  V30 6054 C 578.927 -3.87467 -2.28449 0
M  V30 6055 C 580.246 -2.3566 -3.71689 0
M  V30 6056 H 577.365 -0.507768 -0.534173 0
M  V30 6057 H 580.007 -1.71843 -0.810547 0
M  V30 6058 H 578.157 -2.113 -3.26013 0
M  V30 6059 H 579.829 -4.25825 -1.77399 0
M  V30 6060 H 578.072 -4.03058 -1.60395 0
M  V30 6061 H 578.743 -4.5253 -3.16103 0
M  V30 6062 H 581.219 -2.6004 -3.24836 0
M  V30 6063 H 580.095 -3.07237 -4.54859 0
M  V30 6064 H 580.356 -1.36996 -4.20339 0
M  V30 6065 N 579.415 0.9433 -1.26252 0
M  V30 6066 C 580.663 1.68592 -1.11451 0
M  V30 6067 C 580.984 1.91957 0.343123 0
M  V30 6068 O 580.254 1.51475 1.24226 0
M  V30 6069 H 578.834 0.624789 -0.409448 0
M  V30 6070 H 581.496 1.13351 -1.58548 0
M  V30 6071 H 580.592 2.66054 -1.63162 0
M  V30 6072 N 580.893 1.08022 1.14757 0
M  V30 6073 C 582.141 0.805913 1.85336 0
M  V30 6074 C 582.462 -0.670162 1.83122 0
M  V30 6075 O 581.732 -1.48567 1.2769 0
M  V30 6076 H 580.312 0.295138 0.686223 0
M  V30 6077 H 582.974 1.36538 1.3908 0
M  V30 6078 H 582.07 1.14655 2.90277 0
M  V30 6079 N 582.371 -1.3172 0.865308 0
M  V30 6080 C 583.599 -2.01057 0.488251 0
M  V30 6081 C 584.014 -1.64979 -0.918 0
M  V30 6082 O 583.371 -0.876597 -1.60069 0
M  V30 6083 C 583.422 -3.55964 0.630224 0
M  V30 6084 O 583.143 -3.90749 1.98109 0
M  V30 6085 C 584.644 -4.42574 0.253567 0
M  V30 6086 H 581.864 -0.64332 0.190736 0
M  V30 6087 H 584.408 -1.68058 1.16519 0
M  V30 6088 H 582.563 -3.874 0.000895422 0
M  V30 6089 H 582.977 -4.85467 1.9855 0
M  V30 6090 H 584.451 -5.50521 0.403875 0
M  V30 6091 H 584.928 -4.31724 -0.806895 0
M  V30 6092 H 585.534 -4.16547 0.858404 0
M  V30 6093 N 583.85 -0.624285 -1.44708 0
M  V30 6094 C 584.798 0.0969952 -2.32398 0
M  V30 6095 C 585.792 0.842762 -1.46949 0
M  V30 6096 O 586.998 0.756436 -1.63334 0
M  V30 6097 H 583.373 0.0501306 -0.750327 0
M  V30 6098 H 585.344 -0.660767 -2.90992 0
M  V30 6099 C 584.093 1.06967 -3.30837 0
M  V30 6100 H 583.416 0.505242 -3.96595 0
M  V30 6101 H 584.856 1.54397 -3.94889 0
M  V30 6102 C 583.315 2.15153 -2.5925 0
M  V30 6103 O 583.845 3.23139 -2.3863 0
M  V30 6104 N 582.051 1.90898 -2.19103 0
M  V30 6105 H 581.598 1.03086 -2.36074 0
M  V30 6106 H 581.556 2.63485 -1.71531 0
M  V30 6107 N 585.328 1.53329 -0.364422 0
M  V30 6108 C 586.553 2.06132 0.229033 0
M  V30 6109 C 586.978 1.23625 1.41769 0
M  V30 6110 O 586.336 0.255038 1.79497 0
M  V30 6111 C 586.384 3.55544 0.60174 0
M  V30 6112 O 585.488 3.75771 1.69912 0
M  V30 6113 H 584.829 0.663148 0.0336213 0
M  V30 6114 H 587.359 1.97758 -0.524689 0
M  V30 6115 H 587.369 3.98549 0.873073 0
M  V30 6116 H 586.044 4.15039 -0.267421 0
M  V30 6117 H 584.621 3.44663 1.42343 0
M  V30 6118 N 586.806 0.0935595 1.57322 0
M  V30 6119 C 588.031 -0.582324 1.99057 0
M  V30 6120 C 588.456 -1.61025 0.972242 0
M  V30 6121 O 587.814 -1.81202 -0.0594622 0
M  V30 6122 C 587.862 -1.20799 3.39765 0
M  V30 6123 O 586.966 -2.32382 3.40694 0
M  V30 6124 H 586.307 -0.147884 0.647323 0
M  V30 6125 H 588.837 0.174516 2.03854 0
M  V30 6126 H 588.847 -1.54966 3.77425 0
M  V30 6127 H 587.522 -0.454914 4.13405 0
M  V30 6128 H 586.099 -1.99845 3.14827 0
M  V30 6129 N 588.284 -1.56567 -0.180126 0
M  V30 6130 C 589.53 -1.82658 -0.894859 0
M  V30 6131 C 589.885 -0.672826 -1.80252 0
M  V30 6132 O 589.178 0.331227 -1.88715 0
M  V30 6133 C 589.372 -3.1252 -1.73395 0
M  V30 6134 C 589.201 -4.40417 -0.909028 0
M  V30 6135 C 587.971 -5.01872 -0.587562 0
M  V30 6136 C 590.169 -5.13669 -0.254698 0
M  V30 6137 N 588.151 -6.13373 0.254428 0
M  V30 6138 C 589.522 -6.18373 0.448837 0
M  V30 6139 C 591.577 -4.97603 -0.171958 0
M  V30 6140 C 590.28 -7.08753 1.22725 0
M  V30 6141 C 592.306 -5.88418 0.593101 0
M  V30 6142 C 591.668 -6.92579 1.28503 0
M  V30 6143 H 587.767 -0.719493 -0.306356 0
M  V30 6144 H 590.351 -1.94021 -0.16247 0
M  V30 6145 H 588.522 -3.02365 -2.43783 0
M  V30 6146 H 590.254 -3.2664 -2.38931 0
M  V30 6147 H 587.009 -4.64666 -0.915557 0
M  V30 6148 H 587.433 -6.73721 0.665474 0
M  V30 6149 H 592.075 -4.17089 -0.692555 0
M  V30 6150 H 589.793 -7.88718 1.75923 0
M  V30 6151 H 593.379 -5.78059 0.658674 0
M  V30 6152 H 592.259 -7.61638 1.86754 0
M  V30 6153 N 589.762 0.448376 -1.51087 0
M  V30 6154 C 591.01 1.19635 -1.62886 0
M  V30 6155 C 591.331 1.91977 -0.342024 0
M  V30 6156 O 590.601 1.85094 0.641636 0
M  V30 6157 H 589.181 0.444598 -0.600285 0
M  V30 6158 H 591.843 0.515138 -1.87969 0
M  V30 6159 H 590.939 1.93194 -2.45117 0
M  V30 6160 N 591.24 1.41047 0.703093 0
M  V30 6161 C 592.15 1.44645 1.84703 0
M  V30 6162 C 593.166 0.337778 1.7069 0
M  V30 6163 O 594.342 0.584327 1.92737 0
M  V30 6164 C 591.407 1.31928 3.20618 0
M  V30 6165 C 590.468 2.53047 3.46794 0
M  V30 6166 C 589.701 2.40927 4.76224 0
M  V30 6167 O 589.924 1.42978 5.5219 0
M  V30 6168 O 588.858 3.30543 5.03016 0
M  V30 6169 H 592.684 2.41139 1.84624 0
M  V30 6170 H 590.269 1.22504 0.855167 0
M  V30 6171 H 592.151 1.27092 4.01778 0
M  V30 6172 H 590.826 0.385469 3.21397 0
M  V30 6173 H 589.733 2.6346 2.65593 0
M  V30 6174 H 591.066 3.45231 3.50822 0
M  V30 6175 N 592.718 -0.936591 1.26751 0
M  V30 6176 C 593.964 -1.68625 1.13741 0
M  V30 6177 C 594.319 -1.898 -0.315221 0
M  V30 6178 O 593.612 -1.47088 -1.22783 0
M  V30 6179 C 593.806 -3.06099 1.84494 0
M  V30 6180 C 593.635 -2.98338 3.36488 0
M  V30 6181 C 592.405 -3.01104 4.05789 0
M  V30 6182 C 594.603 -2.78128 4.32608 0
M  V30 6183 N 592.585 -2.8369 5.4442 0
M  V30 6184 C 593.956 -2.69329 5.58446 0
M  V30 6185 C 596.011 -2.62946 4.22804 0
M  V30 6186 C 594.714 -2.46899 6.75598 0
M  V30 6187 C 596.74 -2.41892 5.39669 0
M  V30 6188 C 596.102 -2.33829 6.64457 0
M  V30 6189 H 592.201 -0.624227 0.471025 0
M  V30 6190 H 594.785 -1.10798 1.601 0
M  V30 6191 H 592.956 -3.62057 1.40604 0
M  V30 6192 H 594.688 -3.69951 1.64067 0
M  V30 6193 H 591.443 -3.10992 3.57185 0
M  V30 6194 H 591.867 -2.78138 6.17226 0
M  V30 6195 H 596.509 -2.67944 3.27056 0
M  V30 6196 H 594.227 -2.40642 7.71438 0
M  V30 6197 H 597.813 -2.31043 5.33957 0
M  V30 6198 H 596.693 -2.17754 7.53361 0
M  V30 6199 N 594.196 -1.08629 -1.14182 0
M  V30 6200 C 595.607 -0.838003 -1.66836 0
M  V30 6201 C 595.958 0.634885 -1.85644 0
M  V30 6202 O 595.083 1.49008 -1.56926 0
M  V30 6203 C 595.678 -1.51465 -3.03058 0
M  V30 6204 C 594.237 -1.31355 -3.52736 0
M  V30 6205 C 593.384 -1.57599 -2.28162 0
M  V30 6206 H 596.335 -1.24656 -0.982165 0
M  V30 6207 H 596.356 -0.943134 -3.68626 0
M  V30 6208 H 595.868 -2.58661 -2.89337 0
M  V30 6209 H 593.969 -0.262384 -3.71675 0
M  V30 6210 H 594.082 -2.04275 -4.33369 0
M  V30 6211 H 592.446 -0.997659 -2.34348 0
M  V30 6212 H 593.229 -2.66006 -2.17015 0
M  V30 6213 N 595.674 1.31259 -0.872281 0
M  V30 6214 C 596.92 1.973 -0.494414 0
M  V30 6215 C 597.275 1.67684 0.94339 0
M  V30 6216 O 596.568 0.964186 1.65572 0
M  V30 6217 C 596.762 3.50659 -0.690889 0
M  V30 6218 C 596.591 3.95179 -2.14624 0
M  V30 6219 C 595.361 4.21405 -2.7883 0
M  V30 6220 C 597.559 4.08948 -3.11875 0
M  V30 6221 N 595.541 4.52295 -4.15093 0
M  V30 6222 C 596.912 4.43576 -4.33174 0
M  V30 6223 C 598.967 3.91334 -3.07835 0
M  V30 6224 C 597.67 4.62429 -5.50956 0
M  V30 6225 C 599.696 4.11381 -4.24876 0
M  V30 6226 C 599.058 4.46343 -5.44938 0
M  V30 6227 H 595.157 0.747411 -0.230002 0
M  V30 6228 H 597.741 1.58741 -1.12736 0
M  V30 6229 H 595.912 3.88301 -0.0875162 0
M  V30 6230 H 597.644 4.03722 -0.281179 0
M  V30 6231 H 594.399 4.14131 -2.29767 0
M  V30 6232 H 594.823 4.71897 -4.8543 0
M  V30 6233 H 599.465 3.6339 -2.16119 0
M  V30 6234 H 597.183 4.8922 -6.43187 0
M  V30 6235 H 600.769 3.99235 -4.23205 0
M  V30 6236 H 599.649 4.6154 -6.33996 0
M  V30 6237 N 597.152 0.631951 1.44375 0
M  V30 6238 C 598.084 -0.110911 2.28931 0
M  V30 6239 C 599.097 -0.808086 1.41329 0
M  V30 6240 O 600.286 -0.669396 1.65473 0
M  V30 6241 C 597.386 -1.17928 3.1772 0
M  V30 6242 C 596.559 -0.564458 4.33743 0
M  V30 6243 C 595.618 -1.5269 5.0356 0
M  V30 6244 O 594.644 -1.04372 5.59549 0
M  V30 6245 N 595.846 -2.86123 5.05088 0
M  V30 6246 H 598.611 0.614758 2.93327 0
M  V30 6247 H 596.172 0.473171 1.54831 0
M  V30 6248 H 598.164 -1.82348 3.61291 0
M  V30 6249 H 596.734 -1.80717 2.55069 0
M  V30 6250 H 595.954 0.258373 3.93352 0
M  V30 6251 H 597.242 -0.134355 5.08623 0
M  V30 6252 H 596.64 -3.27959 4.60933 0
M  V30 6253 H 595.197 -3.45901 5.52445 0
M  V30 6254 N 598.631 -1.53133 0.372548 0
M  V30 6255 C 599.877 -2.01654 -0.215277 0
M  V30 6256 C 600.21 -1.25914 -1.47849 0
M  V30 6257 O 599.485 -0.3548 -1.91237 0
M  V30 6258 C 599.768 -3.56609 -0.500187 0
M  V30 6259 C 599.621 -4.43036 0.777145 0
M  V30 6260 C 600.94 -4.20528 -1.29786 0
M  V30 6261 H 598.059 -0.732991 -0.0767686 0
M  V30 6262 H 600.701 -1.83335 0.498814 0
M  V30 6263 H 598.851 -3.7235 -1.10852 0
M  V30 6264 H 600.523 -4.39079 1.41447 0
M  V30 6265 H 598.766 -4.10723 1.39604 0
M  V30 6266 H 599.437 -5.49424 0.532662 0
M  V30 6267 H 601.913 -4.08663 -0.783198 0
M  V30 6268 H 600.789 -5.28962 -1.46596 0
M  V30 6269 H 601.05 -3.77051 -2.30836 0
M  V30 6270 N 600.109 -0.101901 -1.5727 0
M  V30 6271 C 601.334 0.571759 -1.99363 0
M  V30 6272 C 601.759 1.60507 -0.980768 0
M  V30 6273 O 601.117 1.81231 0.0498517 0
M  V30 6274 C 601.165 1.18996 -3.404 0
M  V30 6275 O 600.269 2.30572 -3.41922 0
M  V30 6276 H 599.61 0.144449 -0.648098 0
M  V30 6277 H 602.14 -0.185325 -2.03759 0
M  V30 6278 H 602.15 1.52962 -3.78241 0
M  V30 6279 H 600.825 0.432984 -4.1364 0
M  V30 6280 H 599.402 1.98173 -3.15883 0
M  V30 6281 N 601.587 1.56661 0.17182 0
M  V30 6282 C 602.517 1.99401 1.21498 0
M  V30 6283 C 603.498 0.869516 1.46197 0
M  V30 6284 O 604.683 1.13556 1.57539 0
M  V30 6285 C 601.813 2.35346 2.55401 0
M  V30 6286 C 600.767 3.5075 2.45272 0
M  V30 6287 C 600.093 3.72437 3.8366 0
M  V30 6288 C 601.393 4.84216 1.95787 0
M  V30 6289 H 603.087 2.86792 0.859699 0
M  V30 6290 H 600.633 1.37977 0.412103 0
M  V30 6291 H 602.586 2.63843 3.2858 0
M  V30 6292 H 601.31 1.44864 2.92715 0
M  V30 6293 H 599.969 3.2238 1.74547 0
M  V30 6294 H 599.617 2.79246 4.18367 0
M  V30 6295 H 599.317 4.50087 3.77751 0
M  V30 6296 H 600.841 4.03334 4.58426 0
M  V30 6297 H 602.255 5.11592 2.5874 0
M  V30 6298 H 600.652 5.65498 2.00827 0
M  V30 6299 H 601.722 4.76243 0.912159 0
M  V30 6300 N 603.065 -0.440357 1.51323 0
M  V30 6301 C 603.997 -1.55254 1.68609 0
M  V30 6302 C 605.01 -1.52614 0.566812 0
M  V30 6303 O 606.199 -1.57445 0.841032 0
M  V30 6304 C 603.299 -2.94169 1.68279 0
M  V30 6305 C 602.472 -3.21346 2.96742 0
M  V30 6306 C 601.531 -4.3997 2.8864 0
M  V30 6307 O 600.557 -4.38771 3.62586 0
M  V30 6308 N 601.759 -5.43367 2.04285 0
M  V30 6309 H 604.524 -1.40831 2.6455 0
M  V30 6310 H 602.085 -0.629251 1.49171 0
M  V30 6311 H 604.077 -3.71543 1.60431 0
M  V30 6312 H 602.647 -3.02205 0.799441 0
M  V30 6313 H 601.867 -2.32299 3.18482 0
M  V30 6314 H 603.155 -3.3633 3.81785 0
M  V30 6315 H 602.553 -5.47176 1.43578 0
M  V30 6316 H 601.11 -6.19605 2.02318 0
M  V30 6317 N 604.543 -1.41418 -0.695603 0
M  V30 6318 C 605.789 -1.40982 -1.4578 0
M  V30 6319 C 606.122 -0.0187763 -1.94191 0
M  V30 6320 O 605.397 0.95346 -1.69527 0
M  V30 6321 C 605.68 -2.41657 -2.66972 0
M  V30 6322 C 605.533 -3.89869 -2.24327 0
M  V30 6323 C 606.852 -2.39589 -3.69168 0
M  V30 6324 H 603.971 -0.513405 -0.528757 0
M  V30 6325 H 606.613 -1.72693 -0.792275 0
M  V30 6326 H 604.763 -2.14746 -3.23754 0
M  V30 6327 H 606.435 -4.27683 -1.72872 0
M  V30 6328 H 604.678 -4.04737 -1.56111 0
M  V30 6329 H 605.349 -4.55857 -3.11285 0
M  V30 6330 H 607.825 -2.63471 -3.2206 0
M  V30 6331 H 606.701 -3.12044 -4.51575 0
M  V30 6332 H 606.962 -1.41447 -4.18862 0
M  V30 6333 N 606.021 0.929856 -1.27246 0
M  V30 6334 C 606.968 2.03017 -1.09785 0
M  V30 6335 C 607.938 1.661 0.000456744 0
M  V30 6336 O 609.123 1.90116 -0.161462 0
M  V30 6337 C 606.263 3.36878 -0.748816 0
M  V30 6338 C 605.376 3.86763 -1.92453 0
M  V30 6339 C 604.511 5.09061 -1.51758 0
M  V30 6340 C 603.55 5.51237 -2.66091 0
M  V30 6341 N 602.687 6.64732 -2.25999 0
M  V30 6342 H 607.527 2.17285 -2.03939 0
M  V30 6343 H 605.064 1.06448 -1.01524 0
M  V30 6344 H 607.022 4.13855 -0.527283 0
M  V30 6345 H 605.652 3.22424 0.155771 0
M  V30 6346 H 604.704 3.06086 -2.25867 0
M  V30 6347 H 606.016 4.13994 -2.78227 0
M  V30 6348 H 605.17 5.93532 -1.25716 0
M  V30 6349 H 603.909 4.83602 -0.630896 0
M  V30 6350 H 602.914 4.65316 -2.92849 0
M  V30 6351 H 604.139 5.78692 -3.55377 0
M  V30 6352 H 602.085 6.40935 -1.3978 0
M  V30 6353 H 602.002 6.91607 -3.05313 0
M  V30 6354 H 603.27 7.52549 -2.03199 0
M  V30 6355 N 607.499 1.09233 1.13605 0
M  V30 6356 C 608.429 0.751738 2.21068 0
M  V30 6357 C 609.41 -0.269688 1.67948 0
M  V30 6358 O 610.595 -0.13819 1.93708 0
M  V30 6359 C 607.725 0.16935 3.46887 0
M  V30 6360 C 606.679 1.12007 4.13084 0
M  V30 6361 C 606.005 0.399483 5.33206 0
M  V30 6362 C 607.305 2.46168 4.6065 0
M  V30 6363 H 608.999 1.65024 2.49815 0
M  V30 6364 H 606.545 0.794905 1.20072 0
M  V30 6365 H 608.498 -0.0809824 4.21322 0
M  V30 6366 H 607.222 -0.764335 3.1753 0
M  V30 6367 H 605.881 1.35564 3.40614 0
M  V30 6368 H 605.529 -0.538277 5.00112 0
M  V30 6369 H 605.229 1.03337 5.78442 0
M  V30 6370 H 606.753 0.157403 6.10397 0
M  V30 6371 H 608.167 2.26829 5.26518 0
M  V30 6372 H 606.564 3.05326 5.1662 0
M  V30 6373 H 607.634 3.07076 3.75276 0
M  V30 6374 N 608.977 -1.30795 0.87923 0
M  V30 6375 C 610.205 -2.00527 0.509548 0
M  V30 6376 C 610.62 -1.65944 -0.90045 0
M  V30 6377 O 609.977 -0.893525 -1.5913 0
M  V30 6378 C 610.028 -3.55276 0.667943 0
M  V30 6379 O 609.749 -3.88625 2.02242 0
M  V30 6380 C 611.25 -4.4228 0.300494 0
M  V30 6381 H 608.47 -0.641261 0.197549 0
M  V30 6382 H 611.014 -1.66813 1.18295 0
M  V30 6383 H 609.169 -3.87377 0.0419843 0
M  V30 6384 H 609.583 -4.83334 2.03688 0
M  V30 6385 H 611.057 -5.50061 0.462242 0
M  V30 6386 H 611.534 -4.32556 -0.76106 0
M  V30 6387 H 612.14 -4.15613 0.902536 0
M  V30 6388 N 610.455 -0.639598 -1.44038 0
M  V30 6389 C 611.418 0.0506628 -2.29144 0
M  V30 6390 C 612.418 0.764001 -1.41491 0
M  V30 6391 O 613.608 0.607309 -1.63271 0
M  V30 6392 C 610.74 1.0824 -3.2326 0
M  V30 6393 H 611.933 -0.697987 -2.91664 0
M  V30 6394 H 609.486 -0.400146 -1.51091 0
M  V30 6395 H 610.221 1.86075 -2.65606 0
M  V30 6396 H 610.006 0.574725 -3.87865 0
M  V30 6397 H 611.496 1.56487 -3.87171 0
M  V30 6398 N 611.933 1.52934 -0.380664 0
M  V30 6399 C 612.865 2.23822 0.493581 0
M  V30 6400 C 613.878 1.25761 1.03383 0
M  V30 6401 O 615.067 1.5189 0.937633 0
M  V30 6402 C 612.167 2.9342 1.69582 0
M  V30 6403 C 611.34 4.18115 1.28445 0
M  V30 6404 C 610.399 4.70788 2.35042 0
M  V30 6405 O 609.425 5.34093 1.96807 0
M  V30 6406 N 610.627 4.49899 3.66839 0
M  V30 6407 H 613.392 2.99484 -0.11371 0
M  V30 6408 H 610.953 1.60577 -0.206587 0
M  V30 6409 H 612.945 3.2556 2.40401 0
M  V30 6410 H 611.515 2.21119 2.20965 0
M  V30 6411 H 610.735 3.92109 0.405503 0
M  V30 6412 H 612.023 4.99152 0.986132 0
M  V30 6413 H 611.421 3.99349 4.0067 0
M  V30 6414 H 609.978 4.86551 4.33718 0
M  V30 6415 N 613.412 0.11024 1.57214 0
M  V30 6416 C 614.828 -0.24638 1.57687 0
M  V30 6417 C 615.028 -1.67344 1.12241 0
M  V30 6418 O 614.084 -2.39298 0.805783 0
M  V30 6419 C 615.397 -0.0210288 3.00693 0
M  V30 6420 C 616.945 -0.0876077 3.12877 0
M  V30 6421 C 617.42 0.10994 4.57868 0
M  V30 6422 N 618.911 0.0556135 4.63167 0
M  V30 6423 C 619.646 0.183495 5.73106 0
M  V30 6424 N 619.142 0.367058 6.91827 0
M  V30 6425 N 620.935 0.123689 5.61964 0
M  V30 6426 H 613.086 1.04246 1.85058 0
M  V30 6427 H 615.349 0.40979 0.854854 0
M  V30 6428 H 615.055 0.965203 3.38196 0
M  V30 6429 H 614.929 -0.756748 3.69531 0
M  V30 6430 H 617.316 -1.06436 2.75237 0
M  V30 6431 H 617.397 0.67985 2.466 0
M  V30 6432 H 617.041 1.08362 4.96206 0
M  V30 6433 H 616.971 -0.677397 5.22225 0
M  V30 6434 H 619.462 -0.0831062 3.77809 0
M  V30 6435 H 619.775 0.455739 7.71455 0
M  V30 6436 H 618.12 0.40292 6.93831 0
M  V30 6437 H 621.311 -0.0186928 4.68096 0
M  V30 6438 H 621.484 0.226797 6.47603 0
M  V30 6439 N 614.89 -1.56749 -0.16351 0
M  V30 6440 C 615.84 -1.93424 -1.20712 0
M  V30 6441 C 616.824 -0.803469 -1.39403 0
M  V30 6442 O 618.016 -1.06675 -1.41243 0
M  V30 6443 C 615.145 -2.30431 -2.54473 0
M  V30 6444 C 614.231 -3.5004 -2.39443 0
M  V30 6445 N 614.622 -4.67058 -1.9414 0
M  V30 6446 C 612.92 -3.548 -2.70246 0
M  V30 6447 C 613.621 -5.49184 -1.9176 0
M  V30 6448 N 612.597 -4.9044 -2.34457 0
M  V30 6449 H 616.399 -2.8138 -0.848681 0
M  V30 6450 H 613.913 -1.58089 -0.371717 0
M  V30 6451 H 615.91 -2.54903 -3.29894 0
M  V30 6452 H 614.57 -1.43818 -2.91112 0
M  V30 6453 H 615.581 -4.91128 -1.64357 0
M  V30 6454 H 612.258 -2.78685 -3.10871 0
M  V30 6455 H 613.648 -6.5297 -1.58366 0
M  V30 6456 N 616.368 0.432326 -1.51554 0
M  V30 6457 C 617.298 1.53242 -1.76179 0
M  V30 6458 C 618.279 1.58717 -0.611801 0
M  V30 6459 O 619.464 1.74364 -0.855033 0
M  V30 6460 C 616.594 2.91278 -1.89141 0
M  V30 6461 C 615.548 3.00663 -3.04608 0
M  V30 6462 C 614.874 4.40728 -3.02759 0
M  V30 6463 C 616.174 2.74281 -4.44485 0
M  V30 6464 H 617.868 1.32886 -2.68294 0
M  V30 6465 H 615.414 0.637841 -1.29103 0
M  V30 6466 H 617.367 3.68203 -2.04951 0
M  V30 6467 H 616.091 3.12877 -0.936785 0
M  V30 6468 H 614.75 2.26179 -2.88511 0
M  V30 6469 H 614.398 4.59301 -2.05065 0
M  V30 6470 H 614.098 4.47936 -3.80299 0
M  V30 6471 H 615.622 5.19619 -3.20669 0
M  V30 6472 H 617.036 3.40936 -4.60907 0
M  V30 6473 H 615.433 2.92893 -5.23769 0
M  V30 6474 H 616.503 1.69856 -4.54177 0
M  V30 6475 N 617.846 1.41785 0.688094 0
M  V30 6476 C 619.086 1.43018 1.46032 0
M  V30 6477 C 619.45 0.0402632 1.91958 0
M  V30 6478 O 620.651 -0.0726425 2.68702 0
M  V30 6479 C 618.922 2.4151 2.63453 0
M  V30 6480 S 620.481 2.61335 3.5249 0
M  V30 6481 H 617.299 0.506546 0.498931 0
M  V30 6482 H 619.901 1.78283 0.80221 0
M  V30 6483 H 618.605 3.41286 2.27929 0
M  V30 6484 H 618.136 2.07624 3.34149 0
M  V30 6485 H 620.151 1.88637 4.58945 0
M  V30 6486 N 619.324 -0.923095 1.27737 0
M  V30 6487 C 620.572 -1.66797 1.14119 0
M  V30 6488 C 620.893 -1.92479 -0.312541 0
M  V30 6489 O 620.163 -1.53432 -1.218 0
M  V30 6490 H 618.743 -0.618196 0.419336 0
M  V30 6491 H 621.405 -1.10815 1.60331 0
M  V30 6492 H 620.501 -2.63424 1.67374 0
M  V30 6493 N 620.802 -1.09834 -1.13024 0
M  V30 6494 C 622.05 -0.835297 -1.8403 0
M  V30 6495 C 622.371 0.640944 -1.84165 0
M  V30 6496 O 621.641 1.46517 -1.30037 0
M  V30 6497 H 620.221 -0.306018 -0.681441 0
M  V30 6498 H 622.883 -1.38734 -1.36891 0
M  V30 6499 H 621.979 -1.19258 -2.88416 0
M  V30 6500 N 622.28 1.30327 -0.886154 0
M  V30 6501 C 623.505 2.0079 -0.519425 0
M  V30 6502 C 623.93 1.65979 0.885013 0
M  V30 6503 O 623.288 0.877043 1.58675 0
M  V30 6504 C 623.336 3.53686 -0.702758 0
M  V30 6505 O 622.44 4.11637 0.250828 0
M  V30 6506 H 621.781 0.63171 -0.204544 0
M  V30 6507 H 624.311 1.66145 -1.19402 0
M  V30 6508 H 624.321 4.03531 -0.602207 0
M  V30 6509 H 622.996 3.78361 -1.72673 0
M  V30 6510 H 621.573 3.72755 0.103873 0
M  V30 6511 N 623.758 0.647228 1.43697 0
M  V30 6512 C 624.688 -0.0345631 2.33474 0
M  V30 6513 C 625.669 -0.818193 1.4913 0
M  V30 6514 O 626.854 -0.780867 1.77809 0
M  V30 6515 C 623.984 -1.00576 3.32418 0
M  V30 6516 C 622.938 -0.33266 4.26705 0
M  V30 6517 C 622.264 -1.41489 5.1564 0
M  V30 6518 C 623.564 0.771204 5.16575 0
M  V30 6519 H 625.258 0.715163 2.90733 0
M  V30 6520 H 622.804 0.345364 1.39797 0
M  V30 6521 H 624.757 -1.49159 3.94119 0
M  V30 6522 H 623.481 -1.78657 2.73403 0
M  V30 6523 H 622.14 0.13267 3.6636 0
M  V30 6524 H 621.788 -2.18698 4.52968 0
M  V30 6525 H 621.488 -0.969799 5.79542 0
M  V30 6526 H 623.012 -1.9022 5.80214 0
M  V30 6527 H 624.426 0.36779 5.72119 0
M  V30 6528 H 622.823 1.1404 5.89165 0
M  V30 6529 H 623.893 1.63169 4.56622 0
M  V30 6530 N 625.236 -1.5273 0.388769 0
M  V30 6531 C 626.485 -2.00757 -0.194833 0
M  V30 6532 C 626.798 -1.27951 -1.47946 0
M  V30 6533 O 628.004 -1.66686 -2.14308 0
M  V30 6534 C 626.46 -3.57695 -0.397762 0
M  V30 6535 C 626.068 -4.394 0.873583 0
M  V30 6536 C 627.812 -4.14012 -0.937759 0
M  V30 6537 C 625.719 -5.87938 0.638962 0
M  V30 6538 H 624.649 -0.750101 -0.0765845 0
M  V30 6539 H 627.3 -1.76239 0.511086 0
M  V30 6540 H 625.682 -3.7846 -1.16552 0
M  V30 6541 H 626.856 -4.30403 1.64591 0
M  V30 6542 H 625.171 -3.94301 1.33849 0
M  V30 6543 H 627.768 -5.22645 -1.12899 0
M  V30 6544 H 628.111 -3.7007 -1.90666 0
M  V30 6545 H 628.644 -3.97137 -0.229588 0
M  V30 6546 H 625.383 -6.36202 1.57885 0
M  V30 6547 H 624.903 -5.99726 -0.094443 0
M  V30 6548 H 626.582 -6.46423 0.273299 0
M  V30 6549 N 626.714 -0.118576 -1.57153 0
M  V30 6550 C 627.962 0.538461 -1.94795 0
M  V30 6551 C 628.283 1.67243 -1.00274 0
M  V30 6552 O 627.553 1.95811 -0.0589692 0
M  V30 6553 H 626.133 0.201904 -0.719197 0
M  V30 6554 H 628.795 -0.187418 -1.93997 0
M  V30 6555 H 627.891 0.933315 -2.97818 0
M  V30 6556 N 628.193 1.56834 0.155195 0
M  V30 6557 C 629.143 1.94061 1.19684 0
M  V30 6558 C 630.127 0.810851 1.38975 0
M  V30 6559 O 631.319 1.07422 1.40675 0
M  V30 6560 C 628.448 2.31778 2.53247 0
M  V30 6561 C 627.534 3.51305 2.37583 0
M  V30 6562 N 627.925 4.68081 1.9166 0
M  V30 6563 C 626.223 3.56228 2.6836 0
M  V30 6564 C 626.924 5.50193 1.88845 0
M  V30 6565 N 625.9 4.91676 2.31852 0
M  V30 6566 H 629.702 2.81826 0.833747 0
M  V30 6567 H 627.216 1.58284 0.363328 0
M  V30 6568 H 629.213 2.56649 3.28538 0
M  V30 6569 H 627.873 1.4536 2.90346 0
M  V30 6570 H 628.884 4.91993 1.6175 0
M  V30 6571 H 625.561 2.8033 3.09389 0
M  V30 6572 H 626.951 6.53801 1.54901 0
M  V30 6573 N 629.671 -0.424282 1.51781 0
M  V30 6574 C 630.603 -1.53457 1.70246 0
M  V30 6575 C 631.616 -1.52004 0.582967 0
M  V30 6576 O 632.805 -1.56544 0.857683 0
M  V30 6577 C 629.905 -2.92368 1.71389 0
M  V30 6578 C 629.078 -3.1818 3.00133 0
M  V30 6579 C 628.137 -4.36884 2.9329 0
M  V30 6580 O 627.163 -4.34901 3.67219 0
M  V30 6581 N 628.365 -5.4117 2.10036 0
M  V30 6582 H 631.13 -1.38017 2.66029 0
M  V30 6583 H 628.691 -0.613394 1.4983 0
M  V30 6584 H 630.683 -3.6982 1.64362 0
M  V30 6585 H 629.253 -3.0134 0.831449 0
M  V30 6586 H 628.473 -2.28908 3.20928 0
M  V30 6587 H 629.761 -3.32261 3.85331 0
M  V30 6588 H 629.159 -5.45623 1.49373 0
M  V30 6589 H 627.716 -6.17425 2.08878 0
M  V30 6590 N 631.149 -1.42148 -0.680565 0
M  V30 6591 C 632.395 -1.4352 -1.44131 0
M  V30 6592 C 632.75 -0.0486244 -1.92339 0
M  V30 6593 O 632.043 0.92819 -1.67616 0
M  V30 6594 C 632.237 -2.38945 -2.65782 0
M  V30 6595 C 632.066 -3.86743 -2.29477 0
M  V30 6596 C 630.836 -4.5532 -2.19115 0
M  V30 6597 C 633.034 -4.77321 -1.91491 0
M  V30 6598 N 631.016 -5.88174 -1.75853 0
M  V30 6599 C 632.387 -5.99238 -1.59103 0
M  V30 6600 C 634.442 -4.64829 -1.78432 0
M  V30 6601 C 633.145 -7.10053 -1.14968 0
M  V30 6602 C 635.171 -5.75621 -1.35702 0
M  V30 6603 C 634.533 -6.96645 -1.04234 0
M  V30 6604 H 630.632 -0.580363 -0.524121 0
M  V30 6605 H 633.216 -1.78132 -0.785939 0
M  V30 6606 H 631.387 -2.06403 -3.29017 0
M  V30 6607 H 633.119 -2.30935 -3.32342 0
M  V30 6608 H 629.874 -4.09456 -2.37998 0
M  V30 6609 H 630.298 -6.58625 -1.56661 0
M  V30 6610 H 634.94 -3.71745 -2.01409 0
M  V30 6611 H 632.658 -8.0299 -0.907365 0
M  V30 6612 H 636.244 -5.67964 -1.26126 0
M  V30 6613 H 635.124 -7.80918 -0.716707 0
M  V30 6614 N 632.627 0.916307 -1.28225 0
M  V30 6615 C 633.873 1.66765 -1.154 0
M  V30 6616 C 634.206 1.91912 0.297251 0
M  V30 6617 O 633.481 1.51766 1.21644 0
M  V30 6618 C 633.764 3.02715 -1.95028 0
M  V30 6619 C 633.617 2.84738 -3.48201 0
M  V30 6620 C 634.936 4.03215 -1.76369 0
M  V30 6621 H 632.055 0.605205 -0.42059 0
M  V30 6622 H 634.697 1.06255 -1.57512 0
M  V30 6623 H 632.847 3.54365 -1.59242 0
M  V30 6624 H 634.519 2.40118 -3.9388 0
M  V30 6625 H 632.762 2.19848 -3.73964 0
M  V30 6626 H 633.433 3.8127 -3.99171 0
M  V30 6627 H 635.909 3.60617 -2.07593 0
M  V30 6628 H 634.785 4.96306 -2.34459 0
M  V30 6629 H 635.046 4.36288 -0.71452 0
M  V30 6630 N 634.105 1.10431 1.1244 0
M  V30 6631 C 635.035 0.775143 2.20258 0
M  V30 6632 C 636.016 -0.25186 1.68225 0
M  V30 6633 O 637.201 -0.117637 1.93843 0
M  V30 6634 C 634.331 0.206133 3.46688 0
M  V30 6635 C 633.285 1.16382 4.11873 0
M  V30 6636 C 632.611 0.456014 5.32752 0
M  V30 6637 C 633.911 2.5104 4.58013 0
M  V30 6638 H 635.605 1.67665 2.4805 0
M  V30 6639 H 633.151 0.807595 1.19222 0
M  V30 6640 H 635.104 -0.036291 4.21384 0
M  V30 6641 H 633.828 -0.730614 3.18323 0
M  V30 6642 H 632.487 1.39169 3.39157 0
M  V30 6643 H 632.135 -0.485203 5.00654 0
M  V30 6644 H 631.835 1.09466 5.77314 0
M  V30 6645 H 633.359 0.222135 6.10196 0
M  V30 6646 H 634.773 2.32401 5.24083 0
M  V30 6647 H 633.17 3.10789 5.13352 0
M  V30 6648 H 634.24 3.11039 3.71998 0
M  V30 6649 N 635.583 -1.29855 0.893053 0
M  V30 6650 C 636.811 -1.99976 0.530788 0
M  V30 6651 C 637.226 -1.66889 -0.882799 0
M  V30 6652 O 636.583 -0.910352 -1.58173 0
M  V30 6653 C 636.634 -3.54547 0.705587 0
M  V30 6654 O 636.355 -3.86458 2.06353 0
M  V30 6655 C 637.856 -4.41937 0.347387 0
M  V30 6656 H 635.076 -0.639129 0.204339 0
M  V30 6657 H 637.62 -1.65549 1.20057 0
M  V30 6658 H 635.775 -3.87311 0.0830685 0
M  V30 6659 H 636.189 -4.81146 2.08803 0
M  V30 6660 H 637.663 -5.4954 0.520557 0
M  V30 6661 H 638.14 -4.33339 -0.715139 0
M  V30 6662 H 638.746 -4.14633 0.946567 0
M  V30 6663 N 637.061 -0.65484 -1.43351 0
M  V30 6664 C 638.024 0.0263562 -2.29185 0
M  V30 6665 C 639.024 0.748951 -1.42293 0
M  V30 6666 O 640.214 0.589957 -1.63906 0
M  V30 6667 C 637.346 1.04806 -3.2439 0
M  V30 6668 H 638.539 -0.728883 -2.90908 0
M  V30 6669 H 636.092 -0.416149 -1.50658 0
M  V30 6670 H 636.827 1.83247 -2.67565 0
M  V30 6671 H 636.612 0.533554 -3.88453 0
M  V30 6672 H 638.102 1.52372 -3.88809 0
M  V30 6673 N 638.539 1.52521 -0.396863 0
M  V30 6674 C 639.502 2.2527 0.422604 0
M  V30 6675 C 640.502 1.27184 0.983913 0
M  V30 6676 O 641.692 1.51222 0.864723 0
M  V30 6677 C 638.824 3.01356 1.59365 0
M  V30 6678 H 640.017 2.99133 -0.214416 0
M  V30 6679 H 637.57 1.55587 -0.149128 0
M  V30 6680 H 638.305 2.31813 2.26789 0
M  V30 6681 H 638.09 3.73357 1.19779 0
M  V30 6682 H 639.58 3.56571 2.17363 0
M  V30 6683 N 640.017 0.126909 1.57088 0
M  V30 6684 C 640.967 -0.831678 2.1229 0
M  V30 6685 C 641.951 -1.22292 1.04564 0
M  V30 6686 O 643.143 -1.19269 1.30782 0
M  V30 6687 C 640.272 -2.07866 2.73215 0
M  V30 6688 C 639.358 -1.71143 3.88035 0
M  V30 6689 N 639.749 -1.05136 4.94753 0
M  V30 6690 C 638.047 -2.00549 3.98367 0
M  V30 6691 C 638.748 -0.877257 5.75047 0
M  V30 6692 N 637.724 -1.40477 5.25135 0
M  V30 6693 H 641.526 -0.317926 2.92175 0
M  V30 6694 H 639.04 -0.0753052 1.62225 0
M  V30 6695 H 641.037 -2.77516 3.11111 0
M  V30 6696 H 639.697 -2.59778 1.94796 0
M  V30 6697 H 640.708 -0.71442 5.12949 0
M  V30 6698 H 637.385 -2.54452 3.30999 0
M  V30 6699 H 638.775 -0.358536 6.70943 0
M  V30 6700 N 641.495 -1.56914 -0.146875 0
M  V30 6701 C 642.735 -1.85163 -0.86568 0
M  V30 6702 C 643.099 -0.711215 -1.78342 0
M  V30 6703 O 644.3 -0.874754 -2.54168 0
M  V30 6704 C 642.571 -3.18593 -1.61967 0
M  V30 6705 S 644.13 -3.68397 -2.38388 0
M  V30 6706 H 640.948 -0.6494 -0.289483 0
M  V30 6707 H 643.55 -1.95096 -0.125679 0
M  V30 6708 H 642.254 -3.99562 -0.93694 0
M  V30 6709 H 641.785 -3.11666 -2.40058 0
M  V30 6710 H 643.8 -3.37672 -3.63582 0
M  V30 6711 N 642.974 0.416227 -1.52004 0
M  V30 6712 C 644.221 1.16383 -1.65714 0
M  V30 6713 C 644.549 1.9068 -0.383594 0
M  V30 6714 O 643.804 1.85174 0.633185 0
M  V30 6715 C 644.103 2.18923 -2.82502 0
M  V30 6716 C 643.769 1.61485 -4.20991 0
M  V30 6717 C 642.431 1.45545 -4.58661 0
M  V30 6718 C 644.783 1.19468 -5.07323 0
M  V30 6719 C 642.111 0.860937 -5.80349 0
M  V30 6720 C 644.463 0.614386 -6.29609 0
M  V30 6721 C 643.127 0.442056 -6.66035 0
M  V30 6722 H 642.397 0.425875 -0.606392 0
M  V30 6723 H 645.044 0.45199 -1.8609 0
M  V30 6724 H 643.349 2.96225 -2.56433 0
M  V30 6725 H 645.046 2.76628 -2.90307 0
M  V30 6726 H 641.636 1.74873 -3.91302 0
M  V30 6727 H 645.82 1.30596 -4.78809 0
M  V30 6728 H 641.076 0.715372 -6.072 0
M  V30 6729 H 645.25 0.280393 -6.95835 0
M  V30 6730 H 642.877 -0.0207218 -7.60197 0
M  V30 6731 N 644.452 1.42507 0.673017 0
M  V30 6732 C 645.729 1.33554 1.42908 0
M  V30 6733 C 646.109 -0.0262211 2.11084 0
M  V30 6734 O 645.457 -1.04181 2.03368 0
M  V30 6735 C 645.667 2.50498 2.43006 0
M  V30 6736 C 647.015 2.92694 3.07596 0
M  V30 6737 O 648.039 2.50401 2.53333 0
M  V30 6738 O 646.898 3.65899 4.05931 0
M  V30 6739 H 643.992 0.526785 0.637516 0
M  V30 6740 H 646.538 1.54518 0.701591 0
M  V30 6741 H 645.31 3.41272 1.9144 0
M  V30 6742 H 644.933 2.3153 3.23233 0
M  V30 6743 N 645.93 -0.909495 1.28709 0
M  V30 6744 C 647.178 -1.65577 1.15882 0
M  V30 6745 C 647.499 -1.928 -0.292108 0
M  V30 6746 O 646.769 -1.54716 -1.20166 0
M  V30 6747 H 645.349 -0.613714 0.425869 0
M  V30 6748 H 648.011 -1.09108 1.61498 0
M  V30 6749 H 647.107 -2.61634 1.70159 0
M  V30 6750 N 647.408 -1.11026 -1.11852 0
M  V30 6751 C 648.338 -0.786812 -2.19844 0
M  V30 6752 C 649.319 0.242935 -1.68356 0
M  V30 6753 O 650.504 0.107355 -1.93903 0
M  V30 6754 C 647.634 -0.224516 -3.46574 0
M  V30 6755 C 646.588 -1.18564 -4.1125 0
M  V30 6756 C 645.914 -0.484261 -5.32503 0
M  V30 6757 C 647.214 -2.53465 -4.56676 0
M  V30 6758 H 648.908 -1.68978 -2.47158 0
M  V30 6759 H 646.454 -0.813906 -1.18792 0
M  V30 6760 H 648.407 0.0139435 -4.21398 0
M  V30 6761 H 647.131 0.713722 -3.18706 0
M  V30 6762 H 645.79 -1.40966 -3.38414 0
M  V30 6763 H 645.438 0.458646 -5.00905 0
M  V30 6764 H 645.138 -1.12526 -5.76725 0
M  V30 6765 H 646.662 -0.254492 -6.10069 0
M  V30 6766 H 648.076 -2.35177 -5.22843 0
M  V30 6767 H 646.473 -3.13507 -5.11697 0
M  V30 6768 H 647.543 -3.13008 -3.70343 0
M  V30 6769 N 648.886 1.2938 -0.899927 0
M  V30 6770 C 650.297 1.77644 -0.574427 0
M  V30 6771 C 650.648 1.73824 0.909928 0
M  V30 6772 O 649.773 1.32429 1.71147 0
M  V30 6773 C 650.368 3.22573 -1.03595 0
M  V30 6774 C 648.927 3.68614 -0.76161 0
M  V30 6775 C 648.074 2.49483 -1.21052 0
M  V30 6776 H 651.025 1.16038 -1.08263 0
M  V30 6777 H 651.046 3.78684 -0.371337 0
M  V30 6778 H 650.558 3.25321 -2.11631 0
M  V30 6779 H 648.659 3.7134 0.306127 0
M  V30 6780 H 648.772 4.59402 -1.35965 0
M  V30 6781 H 647.136 2.46798 -0.629515 0
M  V30 6782 H 647.919 2.54959 -2.29893 0
M  V30 6783 N 650.364 0.662433 1.43002 0
M  V30 6784 C 651.294 -0.00979809 2.33498 0
M  V30 6785 C 652.275 -0.802329 1.49989 0
M  V30 6786 O 653.46 -0.761964 1.78627 0
M  V30 6787 C 650.59 -0.970446 3.33466 0
M  V30 6788 C 649.544 -0.287383 4.27034 0
M  V30 6789 C 648.87 -1.36012 5.17112 0
M  V30 6790 C 650.17 0.82595 5.15728 0
M  V30 6791 H 651.864 0.745959 2.89958 0
M  V30 6792 H 649.41 0.360172 1.39423 0
M  V30 6793 H 651.363 -1.44971 3.95679 0
M  V30 6794 H 650.087 -1.75748 2.75282 0
M  V30 6795 H 648.746 0.17152 3.66199 0
M  V30 6796 H 648.394 -2.13882 4.55262 0
M  V30 6797 H 648.094 -0.908276 5.80538 0
M  V30 6798 H 649.618 -1.84056 5.82199 0
M  V30 6799 H 651.032 0.42845 5.71697 0
M  V30 6800 H 649.429 1.20282 5.87922 0
M  V30 6801 H 650.499 1.68003 4.54866 0
M  V30 6802 N 651.842 -1.52309 0.404946 0
M  V30 6803 C 652.774 -2.24579 -0.45791 0
M  V30 6804 C 653.787 -1.2739 -1.01369 0
M  V30 6805 O 654.976 -1.53363 -0.91335 0
M  V30 6806 C 652.076 -2.9608 -1.64893 0
M  V30 6807 C 651.249 -4.20106 -1.21777 0
M  V30 6808 C 650.308 -4.74468 -2.27523 0
M  V30 6809 O 649.334 -5.37157 -1.88285 0
M  V30 6810 N 650.536 -4.55678 -3.59635 0
M  V30 6811 H 653.301 -2.99265 0.161341 0
M  V30 6812 H 650.862 -1.60228 0.232107 0
M  V30 6813 H 652.854 -3.29344 -2.35191 0
M  V30 6814 H 651.424 -2.24606 -2.17419 0
M  V30 6815 H 650.644 -3.92704 -0.343071 0
M  V30 6816 H 651.932 -5.00658 -0.906596 0
M  V30 6817 H 651.33 -4.05673 -3.94266 0
M  V30 6818 H 649.887 -4.9339 -4.25922 0
M  V30 6819 N 653.32 -0.135238 -1.57019 0
M  V30 6820 C 654.597 0.563227 -1.87316 0
M  V30 6821 C 654.977 1.83749 -1.03921 0
M  V30 6822 O 654.325 2.2817 -0.122675 0
M  V30 6823 C 654.535 0.840031 -3.3874 0
M  V30 6824 C 655.883 1.18598 -4.077 0
M  V30 6825 O 656.907 0.92977 -3.43851 0
M  V30 6826 O 655.766 1.66758 -5.20436 0
M  V30 6827 H 652.86 0.285971 -0.775983 0
M  V30 6828 H 655.406 -0.170965 -1.68837 0
M  V30 6829 H 654.178 -0.0622785 -3.9125 0
M  V30 6830 H 653.801 1.62882 -3.62706 0
M  V30 6831 N 654.798 1.5699 0.138552 0
M  V30 6832 C 656.044 1.84081 0.85099 0
M  V30 6833 C 656.377 0.718107 1.80435 0
M  V30 6834 O 655.652 -0.277633 1.92508 0
M  V30 6835 C 655.935 3.21699 1.61808 0
M  V30 6836 C 655.788 4.44544 0.685633 0
M  V30 6837 C 657.107 3.5664 2.57868 0
M  V30 6838 H 654.226 0.669592 0.307922 0
M  V30 6839 H 656.868 1.89646 0.11588 0
M  V30 6840 H 655.018 3.17086 2.24474 0
M  V30 6841 H 656.69 4.61248 0.0693179 0
M  V30 6842 H 654.933 4.338 -0.00421993 0
M  V30 6843 H 655.604 5.3746 1.25858 0
M  V30 6844 H 658.08 3.61918 2.05316 0
M  V30 6845 H 656.956 4.53946 3.08584 0
M  V30 6846 H 657.217 2.83036 3.39622 0
M  V30 6847 N 656.276 -0.40816 1.52223 0
M  V30 6848 C 657.522 -1.15347 1.67531 0
M  V30 6849 C 657.877 -1.8818 0.400748 0
M  V30 6850 O 657.17 -1.81803 -0.604845 0
M  V30 6851 C 657.364 -2.17422 2.83659 0
M  V30 6852 C 657.193 -1.54611 4.22286 0
M  V30 6853 C 655.963 -1.31841 4.87797 0
M  V30 6854 C 658.161 -1.00648 5.04355 0
M  V30 6855 N 656.143 -0.649338 6.10456 0
M  V30 6856 C 657.514 -0.464384 6.18258 0
M  V30 6857 C 659.569 -0.901041 4.89679 0
M  V30 6858 C 658.272 0.172825 7.19092 0
M  V30 6859 C 660.298 -0.277684 5.90748 0
M  V30 6860 C 659.66 0.253734 7.03943 0
M  V30 6861 H 655.759 -0.408722 0.666686 0
M  V30 6862 H 658.343 -0.445713 1.8953 0
M  V30 6863 H 656.514 -2.85554 2.63274 0
M  V30 6864 H 658.246 -2.84321 2.87999 0
M  V30 6865 H 655.001 -1.58819 4.46176 0
M  V30 6866 H 655.425 -0.3314 6.76188 0
M  V30 6867 H 660.067 -1.29772 4.02392 0
M  V30 6868 H 657.785 0.581564 8.06005 0
M  V30 6869 H 661.371 -0.197605 5.81464 0
M  V30 6870 H 660.251 0.728482 7.80809 0
M  V30 6871 N 657.755 -1.42862 -0.66545 0
M  V30 6872 C 659.171 -1.25993 -0.979687 0
M  V30 6873 C 659.371 -0.170831 -2.00775 0
M  V30 6874 O 658.427 0.454827 -2.4837 0
M  V30 6875 C 659.74 -2.62005 -1.47559 0
M  V30 6876 C 661.288 -2.69437 -1.59288 0
M  V30 6877 C 661.763 -4.05838 -2.12272 0
M  V30 6878 N 663.254 -4.0784 -2.19592 0
M  V30 6879 C 663.989 -5.10205 -2.61684 0
M  V30 6880 N 663.485 -6.22949 -3.03161 0
M  V30 6881 N 665.278 -4.9756 -2.61516 0
M  V30 6882 H 657.429 -2.12395 0.0150493 0
M  V30 6883 H 659.692 -0.946355 -0.0558187 0
M  V30 6884 H 659.398 -3.42605 -0.794654 0
M  V30 6885 H 659.272 -2.86566 -2.45275 0
M  V30 6886 H 661.659 -1.89178 -2.26486 0
M  V30 6887 H 661.74 -2.48655 -0.600374 0
M  V30 6888 H 661.384 -4.86559 -1.4568 0
M  V30 6889 H 661.314 -4.23977 -3.12331 0
M  V30 6890 H 663.805 -3.26452 -1.90361 0
M  V30 6891 H 664.118 -6.96899 -3.33993 0
M  V30 6892 H 662.463 -6.2644 -3.00995 0
M  V30 6893 H 665.654 -4.08551 -2.28481 0
M  V30 6894 H 665.827 -5.77468 -2.93999 0
M  V30 6895 N 659.233 0.902656 -1.29189 0
M  V30 6896 C 660.482 1.6475 -1.16362 0
M  V30 6897 C 660.795 1.93517 0.284682 0
M  V30 6898 O 662.001 2.66192 0.534229 0
M  V30 6899 C 660.457 2.96848 -2.03493 0
M  V30 6900 C 660.065 2.75687 -3.5313 0
M  V30 6901 C 661.809 3.74762 -1.99383 0
M  V30 6902 C 659.716 4.03492 -4.32375 0
M  V30 6903 H 658.646 0.618041 -0.431904 0
M  V30 6904 H 661.297 1.0008 -1.53806 0
M  V30 6905 H 659.679 3.62715 -1.58916 0
M  V30 6906 H 660.853 2.18431 -4.05739 0
M  V30 6907 H 659.168 2.11171 -3.58881 0
M  V30 6908 H 661.765 4.69515 -2.5585 0
M  V30 6909 H 662.108 4.04767 -0.973123 0
M  V30 6910 H 662.641 3.15732 -2.41988 0
M  V30 6911 H 659.38 3.78656 -5.3507 0
M  V30 6912 H 658.9 4.60318 -3.84535 0
M  V30 6913 H 660.579 4.71662 -4.42881 0
M  V30 6914 N 660.711 1.11618 1.11262 0
M  V30 6915 C 661.941 0.88745 1.86569 0
M  V30 6916 C 662.349 -0.56636 1.80524 0
M  V30 6917 O 661.692 -1.40289 1.18594 0
M  V30 6918 C 661.754 1.27313 3.36202 0
M  V30 6919 C 661.418 2.73649 3.66013 0
M  V30 6920 C 662.415 3.71863 3.63337 0
M  V30 6921 C 660.1 3.10342 3.9496 0
M  V30 6922 C 662.094 5.04788 3.89188 0
M  V30 6923 C 659.781 4.43451 4.20469 0
M  V30 6924 C 660.779 5.40484 4.17572 0
M  V30 6925 O 660.467 6.71195 4.42439 0
M  V30 6926 H 660.199 0.317543 0.596777 0
M  V30 6927 H 662.753 1.48768 1.41624 0
M  V30 6928 H 660.983 0.616062 3.81761 0
M  V30 6929 H 662.672 1.01991 3.92877 0
M  V30 6930 H 663.438 3.44861 3.41022 0
M  V30 6931 H 659.317 2.35431 3.9635 0
M  V30 6932 H 662.861 5.80516 3.86842 0
M  V30 6933 H 658.758 4.70187 4.42261 0
M  V30 6934 H 659.526 6.77012 4.59997 0
M  V30 6935 N 662.189 -1.289 0.906776 0
M  V30 6936 C 663.414 -1.99939 0.551303 0
M  V30 6937 C 663.839 -1.67366 -0.858496 0
M  V30 6938 O 663.197 -0.902176 -1.57259 0
M  V30 6939 C 663.245 -3.52523 0.758937 0
M  V30 6940 O 662.349 -4.11983 -0.185308 0
M  V30 6941 H 661.69 -0.628376 0.214568 0
M  V30 6942 H 664.22 -1.64225 1.2203 0
M  V30 6943 H 664.23 -4.02522 0.666329 0
M  V30 6944 H 662.905 -3.75566 1.78671 0
M  V30 6945 H 661.482 -3.72873 -0.0445577 0
M  V30 6946 N 663.667 -0.670007 -1.42649 0
M  V30 6947 C 664.915 -0.18991 -2.01206 0
M  V30 6948 C 665.236 1.20617 -1.53221 0
M  V30 6949 O 664.506 1.80898 -0.751856 0
M  V30 6950 H 663.086 -0.0672189 -0.743969 0
M  V30 6951 H 665.748 -0.865442 -1.74631 0
M  V30 6952 H 664.844 -0.187481 -3.11536 0
M  V30 6953 N 665.145 1.52092 -0.413018 0
M  V30 6954 C 666.394 2.01041 0.16287 0
M  V30 6955 C 666.707 1.30288 1.45892 0
M  V30 6956 O 667.913 1.70075 2.11629 0
M  V30 6957 C 666.369 3.58283 0.340806 0
M  V30 6958 C 665.977 4.37955 -0.943377 0
M  V30 6959 C 667.721 4.15452 0.871774 0
M  V30 6960 C 665.628 5.86847 -0.732417 0
M  V30 6961 H 664.558 0.751224 0.0646414 0
M  V30 6962 H 667.209 1.75404 -0.539059 0
M  V30 6963 H 665.591 3.80266 1.10516 0
M  V30 6964 H 666.765 4.2773 -1.71418 0
M  V30 6965 H 665.08 3.92122 -1.40105 0
M  V30 6966 H 667.677 5.24375 1.0457 0
M  V30 6967 H 668.02 3.73057 1.84755 0
M  V30 6968 H 668.553 3.97452 0.166377 0
M  V30 6969 H 665.292 6.33609 -1.67986 0
M  V30 6970 H 664.812 5.998 -0.000980058 0
M  V30 6971 H 666.491 6.45906 -0.376105 0
M  V30 6972 N 666.623 0.143563 1.56945 0
M  V30 6973 C 667.553 -0.7936 2.196 0
M  V30 6974 C 668.534 -1.25955 1.14321 0
M  V30 6975 O 669.719 -1.31773 1.42651 0
M  V30 6976 C 666.849 -2.03424 2.81489 0
M  V30 6977 C 665.803 -1.70519 3.92565 0
M  V30 6978 C 665.129 -3.01817 4.41373 0
M  V30 6979 C 666.429 -0.95449 5.13504 0
M  V30 6980 H 668.123 -0.271423 2.98167 0
M  V30 6981 H 665.669 -0.12911 1.4342 0
M  V30 6982 H 667.622 -2.69463 3.23987 0
M  V30 6983 H 666.346 -2.58008 2.00248 0
M  V30 6984 H 665.005 -1.06859 3.5068 0
M  V30 6985 H 664.653 -3.54386 3.56959 0
M  V30 6986 H 664.353 -2.80565 5.16292 0
M  V30 6987 H 665.877 -3.68934 4.86539 0
M  V30 6988 H 667.291 -1.5169 5.52868 0
M  V30 6989 H 665.688 -0.842035 5.94163 0
M  V30 6990 H 666.758 0.0544033 4.84869 0
M  V30 6991 N 668.101 -1.57061 -0.130224 0
M  V30 6992 C 669.049 -2.00486 -1.17933 0
M  V30 6993 C 670.043 -0.899933 -1.43519 0
M  V30 6994 O 671.249 -1.08514 -1.43613 0
M  V30 6995 H 667.624 -0.638441 -0.397363 0
M  V30 6996 H 669.595 -2.87848 -0.786501 0
M  V30 6997 C 668.344 -2.41565 -2.50084 0
M  V30 6998 H 667.667 -3.26148 -2.31231 0
M  V30 6999 H 669.107 -2.75757 -3.22078 0
M  V30 7000 C 667.566 -1.27485 -3.11848 0
M  V30 7001 O 668.096 -0.584688 -3.97422 0
M  V30 7002 N 666.302 -1.03478 -2.71552 0
M  V30 7003 H 665.849 -1.59779 -2.02061 0
M  V30 7004 H 665.807 -0.27341 -3.13209 0
M  V30 7005 N 669.579 0.400081 -1.52437 0
M  V30 7006 C 670.509 1.4947 -1.7939 0
M  V30 7007 C 671.49 1.57383 -0.645329 0
M  V30 7008 O 672.675 1.72511 -0.891826 0
M  V30 7009 C 669.805 2.87201 -1.95276 0
M  V30 7010 C 668.759 2.94134 -3.10917 0
M  V30 7011 C 668.085 4.34207 -3.1204 0
M  V30 7012 C 669.385 2.64791 -4.50203 0
M  V30 7013 H 671.079 1.27165 -2.71052 0
M  V30 7014 H 668.625 0.610312 -1.30427 0
M  V30 7015 H 670.578 3.63772 -2.12715 0
M  V30 7016 H 669.302 3.10819 -1.00294 0
M  V30 7017 H 667.961 2.20009 -2.93243 0
M  V30 7018 H 667.609 4.54848 -2.14761 0
M  V30 7019 H 667.309 4.39768 -3.89715 0
M  V30 7020 H 668.833 5.127 -3.31619 0
M  V30 7021 H 670.247 3.31083 -4.68035 0
M  V30 7022 H 668.644 2.81717 -5.29864 0
M  V30 7023 H 669.714 1.60184 -4.57678 0
M  V30 7024 N 671.057 1.43213 0.657864 0
M  V30 7025 C 672.282 1.48227 1.45064 0
M  V30 7026 C 672.707 0.0999939 1.87834 0
M  V30 7027 O 672.065 -0.905269 1.57081 0
M  V30 7028 C 672.113 2.42931 2.6649 0
M  V30 7029 O 671.217 1.91237 3.6538 0
M  V30 7030 H 670.558 0.501551 0.435135 0
M  V30 7031 H 673.088 1.8808 0.805431 0
M  V30 7032 H 673.098 2.6008 3.1436 0
M  V30 7033 H 671.773 3.43348 2.34701 0
M  V30 7034 H 670.35 1.83726 3.24498 0
M  V30 7035 N 672.536 -0.895792 1.29666 0
M  V30 7036 C 673.813 -1.62723 1.08538 0
M  V30 7037 C 674.193 -2.07848 -0.369119 0
M  V30 7038 O 673.541 -1.8372 -1.35864 0
M  V30 7039 C 673.751 -2.80505 2.07648 0
M  V30 7040 C 675.099 -3.51098 2.3878 0
M  V30 7041 O 676.123 -2.90679 2.05874 0
M  V30 7042 O 674.982 -4.60028 2.9502 0
M  V30 7043 H 672.076 -0.714692 0.416106 0
M  V30 7044 H 674.622 -0.943517 1.41053 0
M  V30 7045 H 673.394 -2.44386 3.05599 0
M  V30 7046 H 673.017 -3.5658 1.75887 0
M  V30 7047 N 674.014 -1.12206 -1.10668 0
M  V30 7048 C 675.263 -0.870595 -1.81944 0
M  V30 7049 C 675.576 0.605447 -1.85994 0
M  V30 7050 O 676.782 0.973433 -2.53449 0
M  V30 7051 C 675.238 -1.50783 -3.26791 0
M  V30 7052 C 674.846 -3.01849 -3.31046 0
M  V30 7053 C 676.59 -1.33653 -4.02911 0
M  V30 7054 C 674.497 -3.58518 -4.70339 0
M  V30 7055 H 673.427 -0.322043 -0.681765 0
M  V30 7056 H 676.078 -1.34827 -1.24475 0
M  V30 7057 H 674.46 -0.957825 -3.84242 0
M  V30 7058 H 675.634 -3.63321 -2.83433 0
M  V30 7059 H 673.949 -3.18346 -2.68411 0
M  V30 7060 H 676.546 -1.73416 -5.05797 0
M  V30 7061 H 676.889 -0.279949 -4.15358 0
M  V30 7062 H 677.422 -1.85562 -3.51868 0
M  V30 7063 H 674.161 -4.63925 -4.63091 0
M  V30 7064 H 673.681 -3.01819 -5.18329 0
M  V30 7065 H 675.36 -3.57434 -5.39305 0
M  V30 7066 N 675.492 1.28418 -0.913599 0
M  V30 7067 C 676.72 1.99106 -0.562536 0
M  V30 7068 C 677.135 1.68273 0.856137 0
M  V30 7069 O 676.492 0.935401 1.56705 0
M  V30 7070 C 676.543 3.5338 -0.761903 0
M  V30 7071 O 676.264 3.83127 -2.12475 0
M  V30 7072 C 677.765 4.41328 -0.417651 0
M  V30 7073 H 674.985 0.635798 -0.214481 0
M  V30 7074 H 677.529 1.63618 -1.22676 0
M  V30 7075 H 675.684 3.8713 -0.144676 0
M  V30 7076 H 676.098 4.77763 -2.16431 0
M  V30 7077 H 677.572 5.48642 -0.607919 0
M  V30 7078 H 678.049 4.34422 0.646108 0
M  V30 7079 H 678.655 4.13074 -1.01241 0
M  V30 7080 N 676.97 0.677563 1.42291 0
M  V30 7081 C 677.917 0.000947061 2.308 0
M  V30 7082 C 678.887 -0.789889 1.46116 0
M  V30 7083 O 680.072 -0.761578 1.74942 0
M  V30 7084 C 677.212 -0.942387 3.31984 0
M  V30 7085 C 676.325 -0.14508 4.31756 0
M  V30 7086 C 675.46 -1.08442 5.20013 0
M  V30 7087 C 674.499 -0.278958 6.11464 0
M  V30 7088 N 673.636 -1.17115 6.92263 0
M  V30 7089 H 678.476 0.761521 2.88106 0
M  V30 7090 H 676.013 0.38727 1.41911 0
M  V30 7091 H 677.971 -1.50317 3.89179 0
M  V30 7092 H 676.601 -1.66956 2.76271 0
M  V30 7093 H 675.653 0.532368 3.76656 0
M  V30 7094 H 676.965 0.48015 4.96484 0
M  V30 7095 H 676.119 -1.71504 5.81955 0
M  V30 7096 H 674.858 -1.74353 4.55469 0
M  V30 7097 H 673.863 0.364856 5.48588 0
M  V30 7098 H 675.088 0.376099 6.78058 0
M  V30 7099 H 673.034 -1.81661 6.30345 0
M  V30 7100 H 672.951 -0.601063 7.53607 0
M  V30 7101 H 674.219 -1.78915 7.58689 0
M  V30 7102 N 678.448 -1.51871 0.421078 0
M  V30 7103 C 679.725 -1.9447 -0.20993 0
M  V30 7104 C 680.105 -1.35875 -1.61558 0
M  V30 7105 O 679.453 -0.539294 -2.22045 0
M  V30 7106 C 679.663 -3.48402 -0.204165 0
M  V30 7107 C 681.011 -4.2254 -0.417696 0
M  V30 7108 O 682.035 -3.55074 -0.282999 0
M  V30 7109 O 680.894 -5.422 -0.684239 0
M  V30 7110 H 677.988 -0.815283 -0.138718 0
M  V30 7111 H 680.534 -1.62832 0.477884 0
M  V30 7112 H 679.306 -3.83464 0.779183 0
M  V30 7113 H 678.929 -3.86436 -0.935576 0
M  V30 7114 N 679.926 -0.151884 -1.56866 0
M  V30 7115 C 681.154 0.504813 -2.00647 0
M  V30 7116 C 681.569 1.58098 -1.03201 0
M  V30 7117 O 680.926 1.82476 -0.0297814 0
M  V30 7118 C 680.977 1.10099 -3.44326 0
M  V30 7119 O 680.698 0.0678021 -4.38048 0
M  V30 7120 C 682.199 1.83782 -4.03409 0
M  V30 7121 H 679.419 0.130989 -0.65809 0
M  V30 7122 H 681.963 -0.247903 -2.02992 0
M  V30 7123 H 680.118 1.8043 -3.42817 0
M  V30 7124 H 680.532 0.505237 -5.22061 0
M  V30 7125 H 682.006 2.2078 -5.05925 0
M  V30 7126 H 682.483 2.72557 -3.44397 0
M  V30 7127 H 683.089 1.18138 -4.08563 0
M  V30 7128 N 681.404 1.57128 0.121893 0
M  V30 7129 C 682.815 1.73902 0.679348 0
M  V30 7130 C 683.166 0.770135 1.80453 0
M  V30 7131 O 682.291 -0.0576083 2.16323 0
M  V30 7132 C 682.886 3.15328 1.2391 0
M  V30 7133 C 681.445 3.33618 1.74288 0
M  V30 7134 C 680.592 2.6978 0.641414 0
M  V30 7135 H 683.543 1.58359 -0.104 0
M  V30 7136 H 683.564 3.16718 2.10879 0
M  V30 7137 H 683.076 3.85821 0.419957 0
M  V30 7138 H 681.177 2.68162 2.58689 0
M  V30 7139 H 681.29 4.4176 1.85432 0
M  V30 7140 H 679.654 2.30935 1.0743 0
M  V30 7141 H 680.437 3.42895 -0.166707 0
M  V30 7142 N 682.882 -0.391992 1.52647 0
M  V30 7143 C 684.129 -1.13732 1.67545 0
M  V30 7144 C 684.457 -1.90045 0.413881 0
M  V30 7145 O 683.712 -1.86157 -0.603646 0
M  V30 7146 C 684.011 -2.14401 2.85949 0
M  V30 7147 C 683.677 -1.54767 4.23507 0
M  V30 7148 C 682.339 -1.38229 4.60919 0
M  V30 7149 C 684.691 -1.11382 5.0916 0
M  V30 7150 C 682.019 -0.7685 5.81645 0
M  V30 7151 C 684.371 -0.514143 6.30507 0
M  V30 7152 C 683.035 -0.33604 6.66654 0
M  V30 7153 H 682.305 -0.416174 0.613091 0
M  V30 7154 H 684.952 -0.422327 1.86785 0
M  V30 7155 H 683.257 -2.92108 2.61114 0
M  V30 7156 H 684.954 -2.71974 2.94671 0
M  V30 7157 H 681.544 -1.68626 3.94035 0
M  V30 7158 H 685.728 -1.22962 4.80826 0
M  V30 7159 H 680.984 -0.618681 6.08262 0
M  V30 7160 H 685.158 -0.169657 6.96193 0
M  V30 7161 H 682.785 0.14166 7.60068 0
M  V30 7162 N 684.36 -1.4356 -0.65026 0
M  V30 7163 C 685.585 -1.48995 -1.44275 0
M  V30 7164 C 686.01 -0.109954 -1.87778 0
M  V30 7165 O 685.368 0.896926 -1.57559 0
M  V30 7166 C 685.416 -2.44341 -2.65198 0
M  V30 7167 O 684.52 -1.93172 -3.6436 0
M  V30 7168 H 683.861 -0.503852 -0.432469 0
M  V30 7169 H 686.391 -1.88504 -0.795446 0
M  V30 7170 H 686.401 -2.61743 -3.12977 0
M  V30 7171 H 685.076 -3.44588 -2.32877 0
M  V30 7172 H 683.653 -1.85445 -3.23519 0
M  V30 7173 N 685.838 0.888903 -1.30139 0
M  V30 7174 C 686.77 1.99972 -1.11999 0
M  V30 7175 C 687.783 1.62673 -0.0643619 0
M  V30 7176 O 688.972 1.75788 -0.309983 0
M  V30 7177 C 686.072 3.31904 -0.685059 0
M  V30 7178 C 685.245 3.97665 -1.82158 0
M  V30 7179 C 684.304 5.07894 -1.37585 0
M  V30 7180 O 683.33 5.2974 -2.08241 0
M  V30 7181 N 684.532 5.7995 -0.252697 0
M  V30 7182 H 687.297 2.16085 -2.07671 0
M  V30 7183 H 684.858 1.06175 -1.22223 0
M  V30 7184 H 686.85 4.03005 -0.369964 0
M  V30 7185 H 685.42 3.12084 0.179507 0
M  V30 7186 H 684.64 3.19787 -2.305 0
M  V30 7187 H 685.928 4.3834 -2.58332 0
M  V30 7188 H 685.326 5.647 0.336141 0
M  V30 7189 H 683.883 6.518 0.00296813 0
M  V30 7190 N 687.317 1.12792 1.10072 0
M  V30 7191 C 688.566 0.880232 1.81479 0
M  V30 7192 C 688.879 -0.595575 1.86312 0
M  V30 7193 O 690.085 -0.959979 2.53962 0
M  V30 7194 C 688.541 1.52514 3.25987 0
M  V30 7195 C 688.149 3.036 3.29441 0
M  V30 7196 C 689.893 1.35788 4.02196 0
M  V30 7197 C 687.8 3.61007 4.68431 0
M  V30 7198 H 686.73 0.325654 0.680048 0
M  V30 7199 H 689.381 1.35485 1.23758 0
M  V30 7200 H 687.763 0.978188 3.83728 0
M  V30 7201 H 688.937 3.64819 2.81502 0
M  V30 7202 H 687.252 3.19765 2.66719 0
M  V30 7203 H 689.849 1.76096 5.0487 0
M  V30 7204 H 690.192 0.301972 4.15203 0
M  V30 7205 H 690.725 1.87426 3.50879 0
M  V30 7206 H 687.464 4.66375 4.60625 0
M  V30 7207 H 686.984 3.04564 5.16721 0
M  V30 7208 H 688.663 3.60289 5.37402 0
M  V30 7209 N 688.795 -1.27931 0.920396 0
M  V30 7210 C 689.742 -2.27085 0.412422 0
M  V30 7211 C 690.712 -1.57858 -0.516725 0
M  V30 7212 O 691.897 -1.85717 -0.437475 0
M  V30 7213 C 689.037 -3.43466 -0.335399 0
M  V30 7214 C 688.15 -4.27425 0.627017 0
M  V30 7215 C 687.285 -5.31016 -0.139916 0
M  V30 7216 C 686.324 -6.06641 0.815683 0
M  V30 7217 N 685.461 -7.02052 0.0818439 0
M  V30 7218 H 690.301 -2.69913 1.26298 0
M  V30 7219 H 687.838 -1.32732 0.634076 0
M  V30 7220 H 689.796 -4.09744 -0.785226 0
M  V30 7221 H 688.426 -3.01611 -1.15025 0
M  V30 7222 H 687.478 -3.6113 1.19537 0
M  V30 7223 H 688.79 -4.79969 1.35763 0
M  V30 7224 H 687.944 -6.03208 -0.649998 0
M  V30 7225 H 686.683 -4.79257 -0.903543 0
M  V30 7226 H 685.688 -5.33294 1.33708 0
M  V30 7227 H 686.913 -6.60489 1.57897 0
M  V30 7228 H 684.859 -6.52634 -0.663671 0
M  V30 7229 H 684.776 -7.52249 0.752163 0
M  V30 7230 H 686.044 -7.78432 -0.407825 0
M  V30 7231 N 690.273 -0.685099 -1.4193 0
M  V30 7232 C 691.183 -0.013404 -2.34596 0
M  V30 7233 C 692.199 0.777589 -1.55658 0
M  V30 7234 O 693.375 0.717553 -1.88184 0
M  V30 7235 C 690.44 0.919031 -3.34297 0
M  V30 7236 C 689.501 0.121417 -4.29128 0
M  V30 7237 C 688.734 1.00944 -5.24067 0
M  V30 7238 O 688.957 2.24898 -5.24192 0
M  V30 7239 O 687.891 0.464724 -6.00103 0
M  V30 7240 H 691.717 -0.776978 -2.93593 0
M  V30 7241 H 689.302 -0.445379 -1.42607 0
M  V30 7242 H 691.184 1.45402 -3.9552 0
M  V30 7243 H 689.859 1.66228 -2.77759 0
M  V30 7244 H 688.766 -0.45792 -3.71287 0
M  V30 7245 H 690.099 -0.582937 -4.88736 0
M  V30 7246 N 691.751 1.51645 -0.429126 0
M  V30 7247 C 693 2.01203 0.141538 0
M  V30 7248 C 693.313 1.31828 1.44502 0
M  V30 7249 O 694.519 1.7231 2.09813 0
M  V30 7250 C 692.975 3.58624 0.302786 0
M  V30 7251 C 692.583 4.3693 -0.989775 0
M  V30 7252 C 694.327 4.16353 0.827661 0
M  V30 7253 C 692.234 5.86037 -0.794619 0
M  V30 7254 H 691.164 0.751867 0.05667 0
M  V30 7255 H 693.815 1.74822 -0.557633 0
M  V30 7256 H 692.197 3.81417 1.06476 0
M  V30 7257 H 693.371 4.25887 -1.75945 0
M  V30 7258 H 691.686 3.90614 -1.44256 0
M  V30 7259 H 694.283 5.25455 0.990026 0
M  V30 7260 H 694.626 3.74995 1.80787 0
M  V30 7261 H 695.159 3.97606 0.124213 0
M  V30 7262 H 691.898 6.31792 -1.74697 0
M  V30 7263 H 691.418 5.99765 -0.0645968 0
M  V30 7264 H 693.097 6.45471 -0.444591 0
M  V30 7265 N 693.229 0.160201 1.56784 0
M  V30 7266 C 694.478 -0.487619 1.95717 0
M  V30 7267 C 694.791 -1.65136 1.0483 0
M  V30 7268 O 695.997 -2.36468 1.33398 0
M  V30 7269 C 694.453 -0.91888 3.47972 0
M  V30 7270 C 694.061 0.218655 4.47466 0
M  V30 7271 C 695.805 -1.53575 3.95746 0
M  V30 7272 C 693.712 -0.231614 5.90946 0
M  V30 7273 H 692.642 -0.185939 0.730714 0
M  V30 7274 H 695.293 0.246657 1.81835 0
M  V30 7275 H 693.675 -1.70881 3.57234 0
M  V30 7276 H 694.849 0.995825 4.49911 0
M  V30 7277 H 693.164 0.744767 4.09685 0
M  V30 7278 H 695.761 -1.88448 5.00391 0
M  V30 7279 H 696.104 -2.42959 3.38048 0
M  V30 7280 H 696.637 -0.810467 3.89456 0
M  V30 7281 H 693.376 0.62718 6.52493 0
M  V30 7282 H 692.896 -0.974379 5.91833 0
M  V30 7283 H 694.575 -0.67922 6.43425 0
M  V30 7284 N 694.707 -1.5719 -0.113559 0
M  V30 7285 C 695.956 -1.84325 -0.818984 0
M  V30 7286 C 696.269 -0.746685 -1.80787 0
M  V30 7287 O 697.475 -0.904596 -2.55987 0
M  V30 7288 C 695.931 -3.26818 -1.50724 0
M  V30 7289 C 695.539 -4.44498 -0.559065 0
M  V30 7290 C 697.283 -3.63196 -2.19748 0
M  V30 7291 C 695.19 -5.7802 -1.25086 0
M  V30 7292 H 694.12 -0.687507 -0.309596 0
M  V30 7293 H 696.771 -1.8336 -0.0717621 0
M  V30 7294 H 695.153 -3.22269 -2.30128 0
M  V30 7295 H 696.327 -4.60356 0.202146 0
M  V30 7296 H 694.642 -4.16393 0.024495 0
M  V30 7297 H 697.239 -4.60226 -2.72206 0
M  V30 7298 H 697.582 -2.90899 -2.97798 0
M  V30 7299 H 698.115 -3.69553 -1.47226 0
M  V30 7300 H 694.854 -6.53501 -0.511539 0
M  V30 7301 H 694.374 -5.66038 -1.98395 0
M  V30 7302 H 696.053 -6.2196 -1.78253 0
M  V30 7303 N 696.185 0.383891 -1.52853 0
M  V30 7304 C 697.135 1.46892 -1.74375 0
M  V30 7305 C 698.119 1.49378 -0.597909 0
M  V30 7306 O 699.311 1.54929 -0.855929 0
M  V30 7307 C 696.44 2.84547 -1.92063 0
M  V30 7308 C 695.526 2.8661 -3.12594 0
M  V30 7309 N 695.917 2.58339 -4.3485 0
M  V30 7310 C 694.215 3.17777 -3.12944 0
M  V30 7311 C 694.916 2.67616 -5.16485 0
M  V30 7312 N 693.892 3.01561 -4.52285 0
M  V30 7313 H 697.694 1.23869 -2.66522 0
M  V30 7314 H 695.208 0.591895 -1.51229 0
M  V30 7315 H 697.205 3.62674 -2.05604 0
M  V30 7316 H 695.865 3.08549 -1.01133 0
M  V30 7317 H 696.876 2.32266 -4.62896 0
M  V30 7318 H 693.553 3.47211 -2.31842 0
M  V30 7319 H 694.943 2.4926 -6.23955 0
M  V30 7320 N 697.663 1.43903 0.642637 0
M  V30 7321 C 698.595 1.45857 1.768 0
M  V30 7322 C 699.608 0.353358 1.58919 0
M  V30 7323 O 700.797 0.618426 1.67445 0
M  V30 7324 C 697.897 1.26583 3.14372 0
M  V30 7325 C 697.07 2.50139 3.58817 0
M  V30 7326 C 696.129 2.25933 4.75227 0
M  V30 7327 O 695.155 2.99351 4.84125 0
M  V30 7328 N 696.357 1.28263 5.66153 0
M  V30 7329 H 699.122 2.42869 1.75598 0
M  V30 7330 H 696.683 1.39194 0.826832 0
M  V30 7331 H 698.675 1.08255 3.89953 0
M  V30 7332 H 697.245 0.37978 3.10284 0
M  V30 7333 H 696.465 2.83821 2.73568 0
M  V30 7334 H 697.753 3.32344 3.8526 0
M  V30 7335 H 697.151 0.676041 5.61646 0
M  V30 7336 H 695.708 1.15916 6.4141 0
M  V30 7337 N 699.141 -0.881989 1.30609 0
M  V30 7338 C 700.089 -2.00942 1.17155 0
M  V30 7339 C 701.083 -1.69198 0.0827154 0
M  V30 7340 O 702.289 -1.78342 0.243775 0
M  V30 7341 H 698.664 -0.658913 0.362406 0
M  V30 7342 H 700.635 -2.09423 2.12567 0
M  V30 7343 C 699.384 -3.36294 0.883273 0
M  V30 7344 H 698.707 -3.61233 1.7132 0
M  V30 7345 H 700.147 -4.15812 0.829255 0
M  V30 7346 C 698.606 -3.34348 -0.413851 0
M  V30 7347 O 699.136 -3.75216 -1.43444 0
M  V30 7348 N 697.342 -2.87459 -0.426082 0
M  V30 7349 H 696.889 -2.54397 0.40493 0
M  V30 7350 H 696.847 -2.8654 -1.29391 0
M  V30 7351 N 700.619 -1.13374 -1.09472 0
M  V30 7352 C 701.849 -0.917019 -1.85133 0
M  V30 7353 C 702.257 0.537568 -1.81402 0
M  V30 7354 O 701.6 1.38385 -1.20811 0
M  V30 7355 C 701.662 -1.32646 -3.34134 0
M  V30 7356 C 701.326 -2.79437 -3.61613 0
M  V30 7357 C 702.323 -3.77596 -3.57375 0
M  V30 7358 C 700.008 -3.16586 -3.89973 0
M  V30 7359 C 702.002 -5.10916 -3.81108 0
M  V30 7360 C 699.689 -4.50085 -4.13361 0
M  V30 7361 C 700.687 -5.47059 -4.0892 0
M  V30 7362 O 700.375 -6.78149 -4.31705 0
M  V30 7363 H 700.107 -0.326997 -0.591649 0
M  V30 7364 H 702.661 -1.51002 -1.39239 0
M  V30 7365 H 700.891 -0.676719 -3.80733 0
M  V30 7366 H 702.58 -1.08229 -3.91205 0
M  V30 7367 H 703.346 -3.50242 -3.35493 0
M  V30 7368 H 699.225 -2.41707 -3.92554 0
M  V30 7369 H 702.769 -5.86597 -3.77558 0
M  V30 7370 H 698.666 -4.77163 -4.34724 0
M  V30 7371 H 699.434 -6.84244 -4.49168 0
M  V30 7372 N 702.098 1.27442 -0.927168 0
M  V30 7373 C 703.045 2.26863 -0.424459 0
M  V30 7374 C 704.015 1.5813 0.508346 0
M  V30 7375 O 705.2 1.85946 0.42762 0
M  V30 7376 C 702.34 3.43639 0.31718 0
M  V30 7377 C 701.453 4.27087 -0.649675 0
M  V30 7378 C 700.588 5.31082 0.111753 0
M  V30 7379 C 699.627 6.062 -0.847843 0
M  V30 7380 N 698.764 7.01999 -0.119074 0
M  V30 7381 H 703.604 2.69239 -1.27728 0
M  V30 7382 H 701.141 1.32394 -0.641106 0
M  V30 7383 H 703.099 4.10155 0.763486 0
M  V30 7384 H 701.729 3.02217 1.13424 0
M  V30 7385 H 700.781 3.60491 -1.21451 0
M  V30 7386 H 702.093 4.79242 -1.38307 0
M  V30 7387 H 701.247 6.03544 0.618 0
M  V30 7388 H 699.986 4.7973 0.878114 0
M  V30 7389 H 698.991 5.32577 -1.36534 0
M  V30 7390 H 700.216 6.59642 -1.61398 0
M  V30 7391 H 698.162 6.52977 0.629051 0
M  V30 7392 H 698.079 7.5184 -0.792046 0
M  V30 7393 H 699.347 7.78638 0.366537 0
M  V30 7394 N 703.576 0.692616 1.41565 0
M  V30 7395 C 704.822 0.222664 2.01574 0
M  V30 7396 C 705.155 -1.1737 1.54719 0
M  V30 7397 O 704.43 -1.79161 0.757084 0
M  V30 7398 C 704.713 0.277064 3.59033 0
M  V30 7399 C 704.566 1.71016 4.16021 0
M  V30 7400 C 705.885 -0.36479 4.38586 0
M  V30 7401 H 703.004 0.0823839 0.732381 0
M  V30 7402 H 705.646 0.880778 1.68352 0
M  V30 7403 H 703.796 -0.283288 3.87466 0
M  V30 7404 H 705.468 2.32413 3.98475 0
M  V30 7405 H 703.711 2.24525 3.71175 0
M  V30 7406 H 704.382 1.69978 5.25178 0
M  V30 7407 H 706.858 0.112404 4.15948 0
M  V30 7408 H 705.734 -0.296169 5.481 0
M  V30 7409 H 705.995 -1.44506 4.17816 0
M  V30 7410 N 705.054 -1.51416 0.437162 0
M  V30 7411 C 706.279 -2.0699 -0.130424 0
M  V30 7412 C 706.704 -1.30249 -1.35709 0
M  V30 7413 O 706.062 -0.340388 -1.78076 0
M  V30 7414 C 706.11 -3.5801 -0.43142 0
M  V30 7415 O 705.214 -3.8345 -1.5179 0
M  V30 7416 H 704.555 -0.663997 -0.00194339 0
M  V30 7417 H 707.085 -1.95029 0.618445 0
M  V30 7418 H 707.095 -4.02261 -0.681926 0
M  V30 7419 H 705.77 -4.13291 0.465137 0
M  V30 7420 H 704.347 -3.51062 -1.25737 0
M  V30 7421 N 706.532 -0.168513 -1.56696 0
M  V30 7422 C 707.442 0.775435 -2.21414 0
M  V30 7423 C 708.458 1.25529 -1.20492 0
M  V30 7424 O 709.634 1.30801 -1.53144 0
M  V30 7425 C 706.699 1.9886 -2.83999 0
M  V30 7426 C 705.76 1.5559 -4.00113 0
M  V30 7427 C 704.993 2.71124 -4.59704 0
M  V30 7428 O 705.216 3.87917 -4.18182 0
M  V30 7429 O 704.15 2.4536 -5.4962 0
M  V30 7430 H 707.976 0.254416 -3.02632 0
M  V30 7431 H 705.561 0.0595507 -1.49281 0
M  V30 7432 H 707.443 2.69816 -3.23693 0
M  V30 7433 H 706.118 2.49874 -2.05779 0
M  V30 7434 H 705.025 0.815924 -3.65094 0
M  V30 7435 H 706.358 1.09271 -4.79917 0
M  V30 7436 N 708.01 1.57248 0.105221 0
M  V30 7437 C 709.258 1.85204 0.808951 0
M  V30 7438 C 709.579 0.75574 1.7976 0
M  V30 7439 O 708.849 -0.218984 1.94672 0
M  V30 7440 H 707.429 0.683346 0.301739 0
M  V30 7441 H 710.091 1.94695 0.0892605 0
M  V30 7442 H 709.187 2.81595 1.34575 0
M  V30 7443 N 709.488 -0.375779 1.53054 0
M  V30 7444 C 710.436 -1.48015 1.79428 0
M  V30 7445 C 711.43 -1.55893 0.662854 0
M  V30 7446 O 712.636 -1.58901 0.845599 0
M  V30 7447 H 709.011 -0.492887 0.56795 0
M  V30 7448 H 710.982 -1.22971 2.71884 0
M  V30 7449 C 709.731 -2.84984 1.99197 0
M  V30 7450 H 709.054 -2.79677 2.85693 0
M  V30 7451 H 710.494 -3.61462 2.21633 0
M  V30 7452 C 708.953 -3.28025 0.768183 0
M  V30 7453 O 709.483 -4.01671 -0.0480482 0
M  V30 7454 N 707.689 -2.84454 0.594521 0
M  V30 7455 H 707.236 -2.24688 1.25988 0
M  V30 7456 H 707.194 -3.13609 -0.222916 0
M  V30 7457 N 710.966 -1.44241 -0.634997 0
M  V30 7458 C 711.916 -1.47247 -1.74076 0
M  V30 7459 C 712.9 -0.338708 -1.57295 0
M  V30 7460 O 714.092 -0.583751 -1.67097 0
M  V30 7461 C 711.221 -1.41579 -3.12746 0
M  V30 7462 C 710.307 -2.60055 -3.35011 0
M  V30 7463 N 710.698 -3.85321 -3.27661 0
M  V30 7464 C 708.996 -2.55168 -3.65794 0
M  V30 7465 C 709.697 -4.64241 -3.50508 0
M  V30 7466 N 708.673 -3.95254 -3.73196 0
M  V30 7467 H 712.475 -2.4195 -1.66845 0
M  V30 7468 H 709.989 -1.3915 -0.837326 0
M  V30 7469 H 711.986 -1.41816 -3.92038 0
M  V30 7470 H 710.646 -0.479108 -3.21146 0
M  V30 7471 H 711.657 -4.17345 -3.06665 0
M  V30 7472 H 708.334 -1.70276 -3.81198 0
M  V30 7473 H 709.724 -5.73267 -3.50449 0
M  V30 7474 N 712.444 0.87505 -1.31075 0
M  V30 7475 C 713.721 1.60976 -1.11113 0
M  V30 7476 C 714.101 2.08409 0.336006 0
M  V30 7477 O 713.449 1.85858 1.32924 0
M  V30 7478 C 713.659 2.77166 -2.12085 0
M  V30 7479 C 715.007 3.47254 -2.44335 0
M  V30 7480 O 716.031 2.87367 -2.10472 0
M  V30 7481 O 714.89 4.55276 -3.02301 0
M  V30 7482 H 711.984 0.707982 -0.427424 0
M  V30 7483 H 714.53 0.920957 -1.42536 0
M  V30 7484 H 713.302 2.39494 -3.09449 0
M  V30 7485 H 712.925 3.53737 -1.81538 0
M  V30 7486 N 713.922 1.13953 1.08869 0
M  V30 7487 C 715.171 0.899431 1.80536 0
M  V30 7488 C 715.484 -0.575781 1.86933 0
M  V30 7489 O 716.69 -0.932988 2.54966 0
M  V30 7490 C 715.146 1.55963 3.24351 0
M  V30 7491 C 714.754 3.07077 3.26202 0
M  V30 7492 C 716.498 1.40046 4.00733 0
M  V30 7493 C 714.405 3.65955 4.64576 0
M  V30 7494 H 713.335 0.332849 0.676556 0
M  V30 7495 H 715.986 1.3679 1.22314 0
M  V30 7496 H 714.368 1.01883 3.82669 0
M  V30 7497 H 715.542 3.67785 2.77617 0
M  V30 7498 H 713.857 3.22576 2.63312 0
M  V30 7499 H 716.454 1.81441 5.02974 0
M  V30 7500 H 716.797 0.345993 4.1486 0
M  V30 7501 H 717.33 1.91137 3.48872 0
M  V30 7502 H 714.069 4.71234 4.55652 0
M  V30 7503 H 713.589 3.10027 5.13462 0
M  V30 7504 H 715.268 3.65968 5.33551 0
M  V30 7505 N 715.4 -1.26948 0.933913 0
M  V30 7506 C 716.363 -2.24889 0.442457 0
M  V30 7507 C 717.363 -1.54594 -0.442426 0
M  V30 7508 O 718.553 -1.72502 -0.242629 0
M  V30 7509 C 715.685 -3.3896 -0.363173 0
M  V30 7510 H 716.878 -2.69879 1.30787 0
M  V30 7511 H 714.431 -1.38978 0.715187 0
M  V30 7512 H 715.166 -2.99361 -1.24714 0
M  V30 7513 H 714.951 -3.9116 0.271366 0
M  V30 7514 H 716.441 -4.11739 -0.697186 0
M  V30 7515 N 716.879 -0.700114 -1.41195 0
M  V30 7516 C 717.809 -0.0521132 -2.33442 0
M  V30 7517 C 718.79 0.76228 -1.52063 0
M  V30 7518 O 719.975 0.714336 -1.80585 0
M  V30 7519 C 717.105 0.881693 -3.35922 0
M  V30 7520 C 716.059 0.174062 -4.27646 0
M  V30 7521 C 715.385 1.22254 -5.20536 0
M  V30 7522 C 716.685 -0.962396 -5.13357 0
M  V30 7523 H 718.379 -0.822574 -2.87879 0
M  V30 7524 H 715.925 -0.397011 -1.38419 0
M  V30 7525 H 717.878 1.34429 -3.99383 0
M  V30 7526 H 716.602 1.68387 -2.79845 0
M  V30 7527 H 715.261 -0.268551 -3.65615 0
M  V30 7528 H 714.909 2.01736 -4.60773 0
M  V30 7529 H 714.609 0.754038 -5.82742 0
M  V30 7530 H 716.133 1.68555 -5.86874 0
M  V30 7531 H 717.547 -0.579875 -5.7036 0
M  V30 7532 H 715.944 -1.35828 -5.84526 0
M  V30 7533 H 717.014 -1.80003 -4.50252 0
M  V30 7534 N 718.357 1.51182 -0.445186 0
M  V30 7535 C 719.606 2.01342 0.120189 0
M  V30 7536 C 719.919 1.33353 1.43095 0
M  V30 7537 O 721.125 1.74525 2.07974 0
M  V30 7538 C 719.581 3.58925 0.264732 0
M  V30 7539 C 719.189 4.35855 -1.03606 0
M  V30 7540 C 720.933 4.17208 0.783455 0
M  V30 7541 C 718.84 5.85162 -0.856731 0
M  V30 7542 H 717.77 0.752426 0.0486922 0
M  V30 7543 H 720.421 1.74221 -0.576143 0
M  V30 7544 H 718.803 3.82525 1.02425 0
M  V30 7545 H 719.977 4.23997 -1.80452 0
M  V30 7546 H 718.292 3.89062 -1.48391 0
M  V30 7547 H 720.889 5.26475 0.934239 0
M  V30 7548 H 721.232 3.76892 1.768 0
M  V30 7549 H 721.765 3.97715 0.0820346 0
M  V30 7550 H 718.504 6.29904 -1.81388 0
M  V30 7551 H 718.024 5.99663 -0.128206 0
M  V30 7552 H 719.703 6.44963 -0.513027 0
M  V30 7553 N 719.835 0.176821 1.56605 0
M  V30 7554 C 720.782 -0.751312 2.18229 0
M  V30 7555 C 721.752 -1.22297 1.12395 0
M  V30 7556 O 722.937 -1.29015 1.40569 0
M  V30 7557 C 720.077 -1.97291 2.83143 0
M  V30 7558 C 719.19 -1.54431 4.03454 0
M  V30 7559 C 718.325 -2.72 4.56278 0
M  V30 7560 C 717.364 -2.25657 5.68986 0
M  V30 7561 N 716.501 -3.36338 6.16296 0
M  V30 7562 H 721.341 -0.219033 2.97194 0
M  V30 7563 H 718.878 -0.0963803 1.46784 0
M  V30 7564 H 720.836 -2.68949 3.1894 0
M  V30 7565 H 719.466 -2.4788 2.06773 0
M  V30 7566 H 718.518 -0.724273 3.73441 0
M  V30 7567 H 719.83 -1.16417 4.85024 0
M  V30 7568 H 718.984 -3.51806 4.94285 0
M  V30 7569 H 717.723 -3.13277 3.73777 0
M  V30 7570 H 716.728 -1.44299 5.30526 0
M  V30 7571 H 717.953 -1.85432 6.53293 0
M  V30 7572 H 715.899 -3.7718 5.36723 0
M  V30 7573 H 715.816 -3.02435 6.9287 0
M  V30 7574 H 717.084 -4.16413 6.58954 0
M  V30 7575 N 721.313 -1.57302 -0.09688 0
M  V30 7576 C 722.243 -2.0497 -1.11846 0
M  V30 7577 C 723.224 -0.938278 -1.41882 0
M  V30 7578 O 724.409 -1.20943 -1.51942 0
M  V30 7579 C 721.539 -2.47264 -2.43881 0
M  V30 7580 C 720.493 -3.62053 -2.28257 0
M  V30 7581 C 719.819 -3.90318 -3.65453 0
M  V30 7582 C 721.119 -4.93005 -1.72461 0
M  V30 7583 H 722.813 -2.90567 -0.721888 0
M  V30 7584 H 720.359 -1.39786 -0.345803 0
M  V30 7585 H 722.312 -2.7922 -3.15617 0
M  V30 7586 H 721.036 -1.58664 -2.8547 0
M  V30 7587 H 719.695 -3.30341 -1.58967 0
M  V30 7588 H 719.343 -2.98889 -4.04567 0
M  V30 7589 H 719.043 -4.67597 -3.55846 0
M  V30 7590 H 720.567 -4.24747 -4.3866 0
M  V30 7591 H 721.981 -5.23354 -2.34036 0
M  V30 7592 H 720.378 -5.74436 -1.73618 0
M  V30 7593 H 721.448 -4.80053 -0.683898 0
M  V30 7594 N 722.791 0.367657 -1.53252 0
M  V30 7595 C 723.723 1.47032 -1.75824 0
M  V30 7596 C 724.736 1.49736 -0.63898 0
M  V30 7597 O 725.925 1.53253 -0.915193 0
M  V30 7598 C 723.025 2.85805 -1.82122 0
M  V30 7599 C 722.198 3.06822 -3.11736 0
M  V30 7600 C 721.257 4.25698 -3.09302 0
M  V30 7601 O 720.283 4.20972 -3.83107 0
M  V30 7602 N 721.485 5.33002 -2.29977 0
M  V30 7603 H 724.25 1.28048 -2.70968 0
M  V30 7604 H 721.811 0.557363 -1.52004 0
M  V30 7605 H 723.803 3.63465 -1.77975 0
M  V30 7606 H 722.373 2.98046 -0.942716 0
M  V30 7607 H 721.593 2.1684 -3.29202 0
M  V30 7608 H 722.881 3.17731 -3.97397 0
M  V30 7609 H 722.279 5.39703 -1.69521 0
M  V30 7610 H 720.836 6.09247 -2.3165 0
M  V30 7611 N 724.269 1.44576 0.627338 0
M  V30 7612 C 725.232 1.51372 1.72102 0
M  V30 7613 C 726.232 0.395329 1.55865 0
M  V30 7614 O 727.422 0.658094 1.61291 0
M  V30 7615 C 724.554 1.39129 3.11217 0
M  V30 7616 H 725.747 2.48798 1.6745 0
M  V30 7617 H 723.3 1.31724 0.841336 0
M  V30 7618 H 724.035 0.428114 3.21462 0
M  V30 7619 H 723.82 2.20229 3.24409 0
M  V30 7620 H 725.31 1.46874 3.90919 0
M  V30 7621 N 725.747 -0.868086 1.31537 0
M  V30 7622 C 727.158 -1.437 1.19195 0
M  V30 7623 C 727.509 -1.95169 -0.200842 0
M  V30 7624 O 726.634 -1.86432 -1.09872 0
M  V30 7625 C 727.229 -2.612 2.15778 0
M  V30 7626 C 725.788 -3.1413 2.07363 0
M  V30 7627 C 724.935 -1.86845 2.049 0
M  V30 7628 H 727.886 -0.676457 1.43561 0
M  V30 7629 H 727.907 -3.37948 1.74847 0
M  V30 7630 H 727.419 -2.23709 3.17137 0
M  V30 7631 H 725.52 -3.56238 1.09204 0
M  V30 7632 H 725.633 -3.76285 2.96557 0
M  V30 7633 H 723.997 -2.05886 1.49943 0
M  V30 7634 H 724.78 -1.51589 3.08019 0
M  V30 7635 N 727.225 -1.14528 -1.08264 0
M  V30 7636 C 728.155 -0.856356 -2.1723 0
M  V30 7637 C 729.136 0.189251 -1.69044 0
M  V30 7638 O 730.321 0.0456119 -1.94146 0
M  V30 7639 C 727.451 -0.334662 -3.45684 0
M  V30 7640 C 726.405 -1.31588 -4.0727 0
M  V30 7641 C 725.731 -0.653428 -5.30692 0
M  V30 7642 C 727.031 -2.67866 -4.48381 0
M  V30 7643 H 728.725 -1.76755 -2.41657 0
M  V30 7644 H 726.271 -0.851287 -1.16143 0
M  V30 7645 H 728.224 -0.120128 -4.21229 0
M  V30 7646 H 726.948 0.611967 -3.20815 0
M  V30 7647 H 725.607 -1.51661 -3.33758 0
M  V30 7648 H 725.255 0.299054 -5.0211 0
M  V30 7649 H 724.955 -1.30817 -5.72853 0
M  V30 7650 H 726.479 -0.448453 -6.08951 0
M  V30 7651 H 727.893 -2.51692 -5.15096 0
M  V30 7652 H 726.29 -3.29627 -5.01464 0
M  V30 7653 H 727.36 -3.24632 -3.60198 0
M  V30 7654 N 728.703 1.26451 -0.940633 0
M  V30 7655 C 729.651 2.28389 -0.440581 0
M  V30 7656 C 730.645 1.62402 0.481859 0
M  V30 7657 O 731.851 1.76361 0.360132 0
M  V30 7658 H 728.226 0.741716 -0.123938 0
M  V30 7659 H 730.197 2.67967 -1.31288 0
M  V30 7660 C 728.946 3.46576 0.279364 0
M  V30 7661 H 728.269 3.97574 -0.421274 0
M  V30 7662 H 729.709 4.19826 0.59348 0
M  V30 7663 C 728.168 3.01815 1.49697 0
M  V30 7664 O 728.698 3.06607 2.59529 0
M  V30 7665 N 726.904 2.57163 1.35334 0
M  V30 7666 H 726.451 2.53464 0.459743 0
M  V30 7667 H 726.409 2.27578 2.16923 0
M  V30 7668 N 730.181 0.707592 1.40822 0
M  V30 7669 C 731.411 0.252706 2.05049 0
M  V30 7670 C 731.819 -1.10758 1.53393 0
M  V30 7671 O 731.162 -1.70567 0.682097 0
M  V30 7672 C 731.224 0.146001 3.59203 0
M  V30 7673 C 730.888 1.44027 4.33711 0
M  V30 7674 C 731.885 2.38058 4.62195 0
M  V30 7675 C 729.57 1.69698 4.72766 0
M  V30 7676 C 731.564 3.56013 5.28709 0
M  V30 7677 C 729.251 2.87936 5.39014 0
M  V30 7678 C 730.249 3.80915 5.66915 0
M  V30 7679 O 729.937 4.9708 6.31796 0
M  V30 7680 H 729.669 0.112784 0.666525 0
M  V30 7681 H 732.223 0.96417 1.81364 0
M  V30 7682 H 730.453 -0.621338 3.81676 0
M  V30 7683 H 732.142 -0.273275 4.04979 0
M  V30 7684 H 732.908 2.19487 4.32493 0
M  V30 7685 H 728.787 0.981835 4.50423 0
M  V30 7686 H 732.331 4.28604 5.50404 0
M  V30 7687 H 728.228 3.06419 5.68135 0
M  V30 7688 H 728.996 4.97053 6.50293 0
M  V30 7689 N 731.66 -1.50943 0.453197 0
M  V30 7690 C 732.888 -2.06628 -0.106135 0
M  V30 7691 C 733.303 -1.31901 -1.35084 0
M  V30 7692 O 732.66 -0.383074 -1.78434 0
M  V30 7693 C 732.711 -3.5914 -0.412368 0
M  V30 7694 O 732.432 -4.31047 0.782948 0
M  V30 7695 C 733.933 -4.31391 -1.02064 0
M  V30 7696 H 731.153 -0.670999 -0.000885896 0
M  V30 7697 H 733.697 -1.94331 0.63684 0
M  V30 7698 H 731.852 -3.71299 -1.10526 0
M  V30 7699 H 732.266 -5.21948 0.516736 0
M  V30 7700 H 733.74 -5.39135 -1.1848 0
M  V30 7701 H 734.217 -3.90714 -2.00598 0
M  V30 7702 H 734.823 -4.23716 -0.366664 0
M  V30 7703 N 733.138 -0.185124 -1.56509 0
M  V30 7704 C 734.048 0.751908 -2.22224 0
M  V30 7705 C 735.064 1.24244 -1.21817 0
M  V30 7706 O 736.24 1.29169 -1.54523 0
M  V30 7707 C 733.305 1.95837 -2.86092 0
M  V30 7708 C 732.366 1.51337 -4.01741 0
M  V30 7709 C 731.599 2.66233 -4.62554 0
M  V30 7710 O 731.822 3.8346 -4.22273 0
M  V30 7711 O 730.756 2.39517 -5.52191 0
M  V30 7712 H 734.582 0.222304 -3.02885 0
M  V30 7713 H 732.167 0.0437141 -1.49336 0
M  V30 7714 H 734.049 2.66368 -3.26536 0
M  V30 7715 H 732.724 2.47677 -2.08417 0
M  V30 7716 H 731.631 0.777155 -3.65939 0
M  V30 7717 H 732.964 1.04175 -4.81049 0
M  V30 7718 N 734.616 1.57351 0.0885366 0
M  V30 7719 C 735.863 1.86419 0.790824 0
M  V30 7720 C 736.191 0.774561 1.78412 0
M  V30 7721 O 735.446 -0.23119 1.9433 0
M  V30 7722 C 735.745 3.22098 1.5488 0
M  V30 7723 C 735.411 4.4548 0.697025 0
M  V30 7724 C 734.073 4.78975 0.462237 0
M  V30 7725 C 736.425 5.21094 0.105315 0
M  V30 7726 C 733.753 5.85507 -0.374016 0
M  V30 7727 C 736.105 6.28509 -0.718298 0
M  V30 7728 C 734.769 6.60515 -0.963116 0
M  V30 7729 H 734.039 0.682157 0.289383 0
M  V30 7730 H 736.686 1.91429 0.0520961 0
M  V30 7731 H 734.991 3.12803 2.35927 0
M  V30 7732 H 736.688 3.41819 2.09669 0
M  V30 7733 H 733.278 4.19255 0.890137 0
M  V30 7734 H 737.462 4.95544 0.273856 0
M  V30 7735 H 732.718 6.08713 -0.572606 0
M  V30 7736 H 736.892 6.86268 -1.18362 0
M  V30 7737 H 734.519 7.42893 -1.6129 0
M  V30 7738 N 736.094 -0.359525 1.53444 0
M  V30 7739 C 737.026 -1.46098 1.76602 0
M  V30 7740 C 738.039 -1.49395 0.646912 0
M  V30 7741 O 739.228 -1.52765 0.923307 0
M  V30 7742 C 736.328 -2.84836 1.83635 0
M  V30 7743 C 735.501 -3.05164 3.13358 0
M  V30 7744 C 734.56 -4.24051 3.11556 0
M  V30 7745 O 733.586 -4.18935 3.85334 0
M  V30 7746 N 734.788 -5.31775 2.328 0
M  V30 7747 H 737.553 -1.2661 2.71643 0
M  V30 7748 H 735.114 -0.549294 1.52297 0
M  V30 7749 H 737.106 -3.62516 1.799 0
M  V30 7750 H 735.676 -2.97542 0.958509 0
M  V30 7751 H 734.896 -2.15091 3.30348 0
M  V30 7752 H 736.184 -3.15619 3.99076 0
M  V30 7753 H 735.582 -5.38796 1.7238 0
M  V30 7754 H 734.139 -6.0801 2.34877 0
M  V30 7755 N 737.572 -1.44907 -0.619662 0
M  V30 7756 C 738.519 -1.52654 -1.73105 0
M  V30 7757 C 739.489 -0.373334 -1.6185 0
M  V30 7758 O 740.674 -0.585143 -1.81606 0
M  V30 7759 C 737.814 -1.48769 -3.11387 0
M  V30 7760 C 736.927 -2.74551 -3.33535 0
M  V30 7761 C 736.062 -2.62421 -4.61854 0
M  V30 7762 C 735.101 -3.83312 -4.77219 0
M  V30 7763 N 734.238 -3.69789 -5.96826 0
M  V30 7764 H 739.078 -2.47605 -1.65819 0
M  V30 7765 H 736.615 -1.22875 -0.808719 0
M  V30 7766 H 738.573 -1.44507 -3.91374 0
M  V30 7767 H 737.203 -0.573783 -3.1766 0
M  V30 7768 H 736.255 -2.88953 -2.47408 0
M  V30 7769 H 737.567 -3.64253 -3.40765 0
M  V30 7770 H 736.721 -2.56056 -5.50019 0
M  V30 7771 H 735.46 -1.70298 -4.57001 0
M  V30 7772 H 734.465 -3.90049 -3.87481 0
M  V30 7773 H 735.69 -4.76486 -4.83878 0
M  V30 7774 H 733.636 -2.80426 -5.93041 0
M  V30 7775 H 733.553 -4.53116 -6.05163 0
M  V30 7776 H 734.821 -3.67335 -6.87521 0
M  V30 7777 N 739.05 0.861098 -1.31996 0
M  V30 7778 C 740.461 1.43065 -1.19955 0
M  V30 7779 C 740.812 1.95273 0.190489 0
M  V30 7780 O 739.937 1.87012 1.08882 0
M  V30 7781 C 740.532 2.60052 -2.1716 0
M  V30 7782 C 739.091 3.13026 -2.09026 0
M  V30 7783 C 738.238 1.85756 -2.05888 0
M  V30 7784 H 741.189 0.668834 -1.43918 0
M  V30 7785 H 741.21 3.37016 -1.76637 0
M  V30 7786 H 740.722 2.22024 -3.18319 0
M  V30 7787 H 738.823 3.55653 -1.11092 0
M  V30 7788 H 738.936 3.74707 -2.98549 0
M  V30 7789 H 737.3 2.05088 -1.51033 0
M  V30 7790 H 738.083 1.49954 -3.08818 0
M  V30 7791 N 740.528 1.15101 1.07655 0
M  V30 7792 C 741.777 0.918528 1.79572 0
M  V30 7793 C 742.09 -0.555922 1.87534 0
M  V30 7794 O 743.296 -0.905893 2.55941 0
M  V30 7795 C 741.752 1.59394 3.22679 0
M  V30 7796 C 741.36 3.1052 3.22927 0
M  V30 7797 C 743.104 1.44289 3.99225 0
M  V30 7798 C 741.011 3.70862 4.60668 0
M  V30 7799 H 739.941 0.340006 0.672987 0
M  V30 7800 H 742.592 1.38079 1.20857 0
M  V30 7801 H 740.974 1.05936 3.81567 0
M  V30 7802 H 742.148 3.70708 2.737 0
M  V30 7803 H 740.463 3.25351 2.59876 0
M  V30 7804 H 743.06 1.86766 5.01022 0
M  V30 7805 H 743.403 0.389975 4.14469 0
M  V30 7806 H 743.936 1.94826 3.46825 0
M  V30 7807 H 740.675 4.7604 4.50628 0
M  V30 7808 H 740.195 3.15456 5.10145 0
M  V30 7809 H 741.874 3.71607 5.29639 0
M  V30 7810 N 742.006 -1.2595 0.947325 0
M  V30 7811 C 743.246 -1.95218 0.605743 0
M  V30 7812 C 743.61 -1.72624 -0.84054 0
M  V30 7813 O 744.811 -2.35748 -1.29136 0
M  V30 7814 C 743.082 -3.44654 0.94596 0
M  V30 7815 S 744.641 -4.32922 0.715849 0
M  V30 7816 H 741.459 -0.675159 0.222894 0
M  V30 7817 H 744.061 -1.52766 1.21995 0
M  V30 7818 H 742.765 -3.586 1.99585 0
M  V30 7819 H 742.296 -3.92082 0.321718 0
M  V30 7820 H 744.311 -4.94445 -0.416959 0
M  V30 7821 N 743.484 -0.715051 -1.40445 0
M  V30 7822 C 744.414 -0.0768699 -2.33373 0
M  V30 7823 C 745.395 0.746109 -1.52863 0
M  V30 7824 O 746.58 0.695142 -1.81332 0
M  V30 7825 C 743.71 0.846014 -3.36838 0
M  V30 7826 C 742.664 0.128694 -4.27806 0
M  V30 7827 C 741.99 1.16726 -5.21804 0
M  V30 7828 C 743.29 -1.01679 -5.12307 0
M  V30 7829 H 744.984 -0.853061 -2.8699 0
M  V30 7830 H 742.53 -0.41167 -1.3799 0
M  V30 7831 H 744.483 1.30185 -4.00786 0
M  V30 7832 H 743.207 1.6541 -2.81615 0
M  V30 7833 H 741.866 -0.307314 -3.6531 0
M  V30 7834 H 741.514 1.96838 -4.62887 0
M  V30 7835 H 741.214 0.692188 -5.83509 0
M  V30 7836 H 742.738 1.62321 -5.88629 0
M  V30 7837 H 744.152 -0.640337 -5.69713 0
M  V30 7838 H 742.549 -1.4202 -5.83053 0
M  V30 7839 H 743.619 -1.84769 -4.48317 0
M  V30 7840 N 744.962 1.50701 -0.461195 0
M  V30 7841 C 746.373 1.867 -0.00370227 0
M  V30 7842 C 746.724 1.37673 1.39787 0
M  V30 7843 O 745.849 0.737515 2.03445 0
M  V30 7844 C 746.444 3.388 5.75786e-05 0
M  V30 7845 C 745.003 3.74247 0.402044 0
M  V30 7846 C 744.15 2.74549 -0.389652 0
M  V30 7847 H 747.101 1.43585 -0.675942 0
M  V30 7848 H 747.122 3.719 0.804414 0
M  V30 7849 H 746.634 3.74452 -1.02015 0
M  V30 7850 H 744.735 3.44192 1.42697 0
M  V30 7851 H 744.848 4.78973 0.110265 0
M  V30 7852 H 743.212 2.54226 0.155314 0
M  V30 7853 H 743.995 3.13044 -1.40919 0
M  V30 7854 N 746.441 0.193421 1.56409 0
M  V30 7855 C 747.666 -0.454552 2.02358 0
M  V30 7856 C 748.091 -1.54516 1.07268 0
M  V30 7857 O 747.449 -1.81214 0.0558962 0
M  V30 7858 C 747.497 -0.989469 3.46759 0
M  V30 7859 O 746.601 -2.10244 3.54783 0
M  V30 7860 H 745.942 -0.106417 0.655417 0
M  V30 7861 H 748.472 0.303807 2.02332 0
M  V30 7862 H 748.482 -1.30649 3.86516 0
M  V30 7863 H 747.157 -0.191083 4.15461 0
M  V30 7864 H 745.734 -1.79419 3.26899 0
M  V30 7865 N 747.919 -1.57396 -0.0801906 0
M  V30 7866 C 748.866 -2.03107 -1.09618 0
M  V30 7867 C 749.836 -0.910118 -1.38946 0
M  V30 7868 O 751.021 -1.17719 -1.50156 0
M  V30 7869 C 748.161 -2.47293 -2.40708 0
M  V30 7870 C 747.274 -3.72972 -2.17982 0
M  V30 7871 C 746.409 -4.05975 -3.42576 0
M  V30 7872 C 745.448 -5.24719 -3.15177 0
M  V30 7873 N 744.585 -5.53401 -4.32078 0
M  V30 7874 H 749.425 -2.89677 -0.69939 0
M  V30 7875 H 746.962 -1.43263 -0.333785 0
M  V30 7876 H 748.92 -2.7096 -3.17232 0
M  V30 7877 H 747.55 -1.63713 -2.78205 0
M  V30 7878 H 746.602 -3.56693 -1.32189 0
M  V30 7879 H 747.914 -4.59638 -1.93738 0
M  V30 7880 H 747.068 -4.30498 -4.275 0
M  V30 7881 H 745.807 -3.17859 -3.69887 0
M  V30 7882 H 744.812 -5 -2.28648 0
M  V30 7883 H 746.037 -6.14445 -2.89197 0
M  V30 7884 H 743.983 -4.68245 -4.59437 0
M  V30 7885 H 743.9 -6.34469 -4.11078 0
M  V30 7886 H 745.168 -5.8247 -5.18024 0
M  V30 7887 N 749.397 0.351382 -1.53633 0
M  V30 7888 C 750.645 1.09034 -1.70165 0
M  V30 7889 C 750.966 1.89413 -0.463422 0
M  V30 7890 O 750.236 1.888 0.522624 0
M  V30 7891 H 748.816 0.405522 -0.627344 0
M  V30 7892 H 751.478 0.394554 -1.90865 0
M  V30 7893 H 750.574 1.77215 -2.56907 0
M  V30 7894 N 750.875 1.45233 0.611969 0
M  V30 7895 C 752.152 1.39495 1.37115 0
M  V30 7896 C 752.532 0.0633303 2.11005 0
M  V30 7897 O 751.88 -0.954617 2.07604 0
M  V30 7898 C 752.09 2.60579 2.32163 0
M  V30 7899 C 753.438 3.05477 2.94905 0
M  V30 7900 O 754.462 2.60921 2.42485 0
M  V30 7901 O 753.321 3.82787 3.90047 0
M  V30 7902 H 750.415 0.55335 0.614599 0
M  V30 7903 H 752.961 1.57355 0.635423 0
M  V30 7904 H 751.733 3.49085 1.76793 0
M  V30 7905 H 751.356 2.45031 3.13122 0
M  V30 7906 N 752.353 -0.854086 1.3245 0
M  V30 7907 C 753.581 -1.64074 1.26045 0
M  V30 7908 C 753.996 -1.8802 -0.171456 0
M  V30 7909 O 753.353 -1.4496 -1.10873 0
M  V30 7910 C 753.404 -2.9997 2.01743 0
M  V30 7911 O 753.125 -2.77084 3.39346 0
M  V30 7912 C 754.626 -3.94414 2.02368 0
M  V30 7913 H 751.846 -0.511015 0.434862 0
M  V30 7914 H 754.39 -1.06494 1.74583 0
M  V30 7915 H 752.545 -3.54193 1.56926 0
M  V30 7916 H 752.959 -3.63514 3.78098 0
M  V30 7917 H 754.433 -4.87032 2.59815 0
M  V30 7918 H 754.91 -4.27427 1.01009 0
M  V30 7919 H 755.516 -3.46127 2.47135 0
M  V30 7920 N 753.831 -1.1567 -1.07043 0
M  V30 7921 C 755.056 -0.957946 -1.83952 0
M  V30 7922 C 755.481 0.488807 -1.81638 0
M  V30 7923 O 754.839 1.34869 -1.21162 0
M  V30 7924 C 754.887 -1.48064 -3.288 0
M  V30 7925 O 753.991 -0.681921 -4.06723 0
M  V30 7926 H 753.332 -0.341453 -0.569479 0
M  V30 7927 H 755.862 -1.53728 -1.35015 0
M  V30 7928 H 755.872 -1.49484 -3.7963 0
M  V30 7929 H 754.547 -2.53388 -3.29799 0
M  V30 7930 H 753.124 -0.737612 -3.65532 0
M  V30 7931 N 755.309 1.25446 -0.953992 0
M  V30 7932 C 756.537 1.97215 -0.625595 0
M  V30 7933 C 756.952 1.70911 0.802168 0
M  V30 7934 O 756.309 0.984782 1.5365 0
M  V30 7935 C 756.36 3.50777 -0.873943 0
M  V30 7936 O 756.081 3.76173 -2.24556 0
M  V30 7937 C 757.582 4.39776 -0.557845 0
M  V30 7938 H 754.802 0.628652 -0.2346 0
M  V30 7939 H 757.346 1.59632 -1.27819 0
M  V30 7940 H 755.501 3.86474 -0.267765 0
M  V30 7941 H 755.915 4.70636 -2.31522 0
M  V30 7942 H 757.389 5.46431 -0.782157 0
M  V30 7943 H 757.866 4.36257 0.507573 0
M  V30 7944 H 758.472 4.09644 -1.14332 0
M  V30 7945 N 756.787 0.722489 1.40064 0
M  V30 7946 C 758.036 0.261932 1.99992 0
M  V30 7947 C 758.349 -1.15358 1.57961 0
M  V30 7948 O 759.555 -1.71301 2.10637 0
M  V30 7949 C 758.011 0.41737 3.57472 0
M  V30 7950 C 757.619 1.83997 4.08472 0
M  V30 7951 C 759.363 0.0179561 4.24496 0
M  V30 7952 C 757.27 1.94563 5.5848 0
M  V30 7953 H 756.2 0.0941768 0.748095 0
M  V30 7954 H 758.851 0.894572 1.60218 0
M  V30 7955 H 757.233 -0.283965 3.94981 0
M  V30 7956 H 758.407 2.57224 3.82325 0
M  V30 7957 H 756.722 2.19147 3.54067 0
M  V30 7958 H 759.319 0.076085 5.34646 0
M  V30 7959 H 759.662 -1.02498 4.03485 0
M  V30 7960 H 760.195 0.669988 3.92117 0
M  V30 7961 H 756.934 2.97001 5.84355 0
M  V30 7962 H 756.454 1.25756 5.86469 0
M  V30 7963 H 758.133 1.72095 6.23692 0
M  V30 7964 N 758.265 -1.50454 0.469181 0
M  V30 7965 C 759.495 -2.06429 -0.0840913 0
M  V30 7966 C 759.903 -1.3334 -1.34227 0
M  V30 7967 O 759.246 -0.395656 -1.79389 0
M  V30 7968 C 759.308 -3.56797 -0.440049 0
M  V30 7969 C 758.972 -4.51359 0.715838 0
M  V30 7970 C 759.969 -4.94754 1.59732 0
M  V30 7971 C 757.654 -4.94069 0.905621 0
M  V30 7972 C 759.648 -5.79564 2.653 0
M  V30 7973 C 757.335 -5.78662 1.96453 0
M  V30 7974 C 758.333 -6.21311 2.83658 0
M  V30 7975 O 758.021 -7.04218 3.87727 0
M  V30 7976 H 757.753 -0.675994 0.00289751 0
M  V30 7977 H 760.307 -1.94629 0.656417 0
M  V30 7978 H 758.537 -3.66492 -1.23372 0
M  V30 7979 H 760.226 -3.95145 -0.928181 0
M  V30 7980 H 760.992 -4.62428 1.46237 0
M  V30 7981 H 756.871 -4.60394 0.236326 0
M  V30 7982 H 760.415 -6.12774 3.33398 0
M  V30 7983 H 756.312 -6.10401 2.09955 0
M  V30 7984 H 757.08 -7.22464 3.84692 0
M  V30 7985 N 759.743 -0.201713 -1.56304 0
M  V30 7986 C 760.971 0.440723 -2.02152 0
M  V30 7987 C 761.386 1.54735 -1.08179 0
M  V30 7988 O 760.743 1.82289 -0.0878196 0
M  V30 7989 C 760.794 0.990884 -3.47655 0
M  V30 7990 O 760.515 -0.0715937 -4.38041 0
M  V30 7991 C 762.016 1.70854 -4.09052 0
M  V30 7992 H 759.236 0.109987 -0.661924 0
M  V30 7993 H 761.78 -0.312358 -2.021 0
M  V30 7994 H 759.935 1.69432 -3.48384 0
M  V30 7995 H 760.349 0.338892 -5.23404 0
M  V30 7996 H 761.823 2.04572 -5.12693 0
M  V30 7997 H 762.3 2.61462 -3.52894 0
M  V30 7998 H 762.906 1.0508 -4.12114 0
M  V30 7999 N 761.222 1.57436 0.0718424 0
M  V30 8000 C 762.17 2.04725 1.10411 0
M  V30 8001 C 763.164 0.952579 1.4008 0
M  V30 8002 O 764.37 1.13769 1.39487 0
M  V30 8003 H 760.745 0.652749 0.373393 0
M  V30 8004 H 762.716 2.90569 0.679126 0
M  V30 8005 C 761.465 2.5068 2.40946 0
M  V30 8006 H 760.788 3.34505 2.18967 0
M  V30 8007 H 762.228 2.87521 3.11621 0
M  V30 8008 C 760.687 1.38971 3.06902 0
M  V30 8009 O 761.217 0.731786 3.94978 0
M  V30 8010 N 759.423 1.13485 2.67525 0
M  V30 8011 H 758.97 1.67168 1.95991 0
M  V30 8012 H 758.928 0.389467 3.11978 0
M  V30 8013 N 762.7 -0.34323 1.53817 0
M  V30 8014 C 763.94 -1.09188 1.72793 0
M  V30 8015 C 764.304 -1.85876 0.481062 0
M  V30 8016 O 765.505 -2.63158 0.547851 0
M  V30 8017 C 763.776 -2.00783 2.9567 0
M  V30 8018 S 765.335 -2.82866 3.35459 0
M  V30 8019 H 762.153 -0.368926 0.607795 0
M  V30 8020 H 764.755 -0.370265 1.91962 0
M  V30 8021 H 763.459 -1.43245 3.84589 0
M  V30 8022 H 762.99 -2.77381 2.78968 0
M  V30 8023 H 765.005 -4.03196 2.89218 0
M  V30 8024 N 764.178 -1.45556 -0.604258 0
M  V30 8025 C 765.424 -1.50958 -1.3632 0
M  V30 8026 C 765.779 -0.15051 -1.9181 0
M  V30 8027 O 765.072 0.838035 -1.72301 0
M  V30 8028 C 765.266 -2.52697 -2.52743 0
M  V30 8029 C 765.095 -3.98364 -2.08654 0
M  V30 8030 C 763.865 -4.66295 -1.94671 0
M  V30 8031 C 766.063 -4.86801 -1.6592 0
M  V30 8032 N 764.045 -5.96669 -1.44428 0
M  V30 8033 C 765.416 -6.06829 -1.27115 0
M  V30 8034 C 767.471 -4.73634 -1.53542 0
M  V30 8035 C 766.174 -7.15149 -0.771676 0
M  V30 8036 C 768.2 -5.82005 -1.04998 0
M  V30 8037 C 767.562 -7.01191 -0.671599 0
M  V30 8038 H 763.661 -0.607329 -0.492621 0
M  V30 8039 H 766.245 -1.82048 -0.69041 0
M  V30 8040 H 764.416 -2.23554 -3.17614 0
M  V30 8041 H 766.148 -2.48227 -3.19633 0
M  V30 8042 H 762.903 -4.21496 -2.15959 0
M  V30 8043 H 763.327 -6.66003 -1.21528 0
M  V30 8044 H 767.969 -3.81898 -1.81421 0
M  V30 8045 H 765.687 -8.06671 -0.480442 0
M  V30 8046 H 769.273 -5.73851 -0.958423 0
M  V30 8047 H 768.153 -7.83619 -0.301752 0
M  V30 8048 N 765.656 0.84705 -1.32902 0
M  V30 8049 C 766.902 1.60414 -1.24078 0
M  V30 8050 C 767.235 1.93217 0.195105 0
M  V30 8051 O 766.51 1.58001 1.13428 0
M  V30 8052 C 766.793 2.91951 -2.108 0
M  V30 8053 C 766.646 2.6588 -3.62805 0
M  V30 8054 C 767.965 3.93299 -1.97494 0
M  V30 8055 H 765.084 0.58206 -0.452079 0
M  V30 8056 H 767.726 0.977562 -1.62922 0
M  V30 8057 H 765.876 3.45425 -1.77802 0
M  V30 8058 H 767.548 2.18902 -4.06054 0
M  V30 8059 H 765.791 1.99716 -3.85092 0
M  V30 8060 H 766.462 3.59574 -4.1882 0
M  V30 8061 H 768.938 3.49105 -2.26417 0
M  V30 8062 H 767.814 4.8318 -2.60438 0
M  V30 8063 H 768.075 4.31887 -0.944782 0
M  V30 8064 N 767.134 1.16236 1.06428 0
M  V30 8065 C 768.362 0.967184 1.82902 0
M  V30 8066 C 768.777 -0.484601 1.82475 0
M  V30 8067 O 768.134 -1.33631 1.24294 0
M  V30 8068 C 768.185 1.48534 3.29576 0
M  V30 8069 O 767.906 2.88026 3.3011 0
M  V30 8070 C 769.407 1.33298 4.22784 0
M  V30 8071 H 766.627 0.342923 0.576754 0
M  V30 8072 H 769.171 1.54232 1.34286 0
M  V30 8073 H 767.326 0.952513 3.75508 0
M  V30 8074 H 767.74 3.11721 4.21818 0
M  V30 8075 H 769.214 1.74385 5.23731 0
M  V30 8076 H 769.691 0.278356 4.38317 0
M  V30 8077 H 770.297 1.85535 3.82697 0
M  V30 8078 N 768.612 -1.24939 0.960631 0
M  V30 8079 C 769.86 -1.92437 0.617441 0
M  V30 8080 C 770.181 -1.75543 -0.849101 0
M  V30 8081 O 769.451 -1.12269 -1.60538 0
M  V30 8082 H 768.031 -0.712192 0.225371 0
M  V30 8083 H 770.693 -1.5198 1.22017 0
M  V30 8084 H 769.789 -3.00247 0.851933 0
M  V30 8085 N 770.09 -0.729906 -1.39679 0
M  V30 8086 C 771.336 -0.284905 -2.01395 0
M  V30 8087 C 771.691 1.11394 -1.56873 0
M  V30 8088 O 770.984 1.74765 -0.785342 0
M  V30 8089 C 771.178 -0.319564 -3.55968 0
M  V30 8090 C 771.007 -1.72024 -4.15497 0
M  V30 8091 C 769.777 -2.33128 -4.48307 0
M  V30 8092 C 771.975 -2.67296 -4.39383 0
M  V30 8093 N 769.957 -3.65403 -4.93309 0
M  V30 8094 C 771.328 -3.84298 -4.86534 0
M  V30 8095 C 773.383 -2.65124 -4.21442 0
M  V30 8096 C 772.086 -4.99455 -5.17627 0
M  V30 8097 C 774.112 -3.7942 -4.53646 0
M  V30 8098 C 773.474 -4.95156 -5.00999 0
M  V30 8099 H 769.573 -0.1504 -0.767401 0
M  V30 8100 H 772.157 -0.954783 -1.69682 0
M  V30 8101 H 770.328 0.319938 -3.8708 0
M  V30 8102 H 772.06 0.143504 -4.04445 0
M  V30 8103 H 768.815 -1.85097 -4.35931 0
M  V30 8104 H 769.239 -4.33298 -5.20175 0
M  V30 8105 H 773.881 -1.76842 -3.8404 0
M  V30 8106 H 771.599 -5.88371 -5.53937 0
M  V30 8107 H 775.185 -3.79031 -4.41392 0
M  V30 8108 H 774.065 -5.82131 -5.25446 0
M  V30 8109 N 771.568 1.50203 -0.477153 0
M  V30 8110 C 772.816 2.01959 0.0755889 0
M  V30 8111 C 773.137 1.3608 1.39668 0
M  V30 8112 O 772.407 0.508136 1.89195 0
M  V30 8113 H 770.987 0.74636 0.0309248 0
M  V30 8114 H 773.649 1.84473 -0.628959 0
M  V30 8115 H 772.745 3.11305 0.222683 0
M  V30 8116 N 773.046 0.209999 1.56195 0
M  V30 8117 C 774.293 -0.424813 1.97994 0
M  V30 8118 C 774.621 -1.60589 1.09733 0
M  V30 8119 O 773.876 -1.95201 0.139693 0
M  V30 8120 C 774.175 -0.91312 3.45539 0
M  V30 8121 C 773.841 0.156187 4.50629 0
M  V30 8122 C 772.503 0.449966 4.79092 0
M  V30 8123 C 774.855 0.879959 5.13718 0
M  V30 8124 C 772.183 1.47223 5.67928 0
M  V30 8125 C 774.535 1.89148 6.0366 0
M  V30 8126 C 773.199 2.1923 6.30472 0
M  V30 8127 H 772.469 -0.15545 0.724511 0
M  V30 8128 H 775.116 0.310095 1.88973 0
M  V30 8129 H 773.421 -1.72658 3.51705 0
M  V30 8130 H 775.118 -1.41395 3.75245 0
M  V30 8131 H 771.708 -0.0829466 4.2852 0
M  V30 8132 H 775.892 0.66623 4.91808 0
M  V30 8133 H 771.148 1.71105 5.86969 0
M  V30 8134 H 775.322 2.45745 6.516 0
M  V30 8135 H 772.949 2.98587 6.99107 0
M  V30 8136 N 774.524 -1.57472 -0.0634922 0
M  V30 8137 C 775.749 -1.92273 -0.77756 0
M  V30 8138 C 776.174 -0.807141 -1.69902 0
M  V30 8139 O 775.532 0.239523 -1.79711 0
M  V30 8140 C 775.58 -3.26054 -1.54017 0
M  V30 8141 O 774.684 -3.15873 -2.65138 0
M  V30 8142 H 774.025 -0.629389 -0.211579 0
M  V30 8143 H 776.555 -2.04579 -0.0292523 0
M  V30 8144 H 776.565 -3.60127 -1.91763 0
M  V30 8145 H 775.24 -4.06824 -0.864128 0
M  V30 8146 H 773.817 -2.93373 -2.30189 0
M  V30 8147 N 776.003 0.335068 -1.53997 0
M  V30 8148 C 776.95 1.41187 -1.82579 0
M  V30 8149 C 777.92 1.51897 -0.672061 0
M  V30 8150 O 779.105 1.673 -0.917346 0
M  V30 8151 C 776.245 2.77717 -2.0486 0
M  V30 8152 C 775.358 2.7573 -3.32561 0
M  V30 8153 C 774.493 4.04032 -3.44864 0
M  V30 8154 C 773.532 3.96308 -4.66483 0
M  V30 8155 N 772.669 5.16317 -4.75774 0
M  V30 8156 H 777.509 1.16113 -2.74448 0
M  V30 8157 H 775.046 0.562305 -1.35928 0
M  V30 8158 H 777.004 3.57071 -2.15768 0
M  V30 8159 H 775.634 3.01124 -1.16294 0
M  V30 8160 H 774.686 1.88432 -3.3045 0
M  V30 8161 H 775.998 2.65902 -4.22016 0
M  V30 8162 H 775.152 4.91814 -3.55251 0
M  V30 8163 H 773.891 4.16652 -2.53481 0
M  V30 8164 H 772.896 3.06911 -4.56164 0
M  V30 8165 H 774.121 3.85263 -5.5924 0
M  V30 8166 H 772.067 5.29464 -3.87303 0
M  V30 8167 H 771.984 5.08779 -5.59178 0
M  V30 8168 H 773.252 6.05846 -4.9048 0
M  V30 8169 N 777.481 1.45874 0.596531 0
M  V30 8170 C 778.391 1.57947 1.73464 0
M  V30 8171 C 779.407 0.463461 1.67714 0
M  V30 8172 O 780.583 0.725685 1.87872 0
M  V30 8173 C 777.648 1.55348 3.09948 0
M  V30 8174 C 776.709 2.78074 3.27068 0
M  V30 8175 C 775.942 2.75589 4.57041 0
M  V30 8176 O 776.165 1.83545 5.40063 0
M  V30 8177 O 775.099 3.66945 4.77111 0
M  V30 8178 H 778.925 2.54169 1.66228 0
M  V30 8179 H 776.51 1.2851 0.76194 0
M  V30 8180 H 778.392 1.56545 3.91244 0
M  V30 8181 H 777.067 0.622811 3.17652 0
M  V30 8182 H 775.974 2.82435 2.45319 0
M  V30 8183 H 777.307 3.70303 3.24248 0
M  V30 8184 N 778.959 -0.83999 1.33349 0
M  V30 8185 C 779.906 -1.94972 1.23509 0
M  V30 8186 C 780.876 -1.65709 0.113967 0
M  V30 8187 O 782.061 -1.88552 0.292045 0
M  V30 8188 C 779.201 -3.30919 0.979105 0
M  V30 8189 C 778.314 -3.72587 2.18639 0
M  V30 8190 C 777.449 -4.97397 1.86465 0
M  V30 8191 C 776.488 -5.31597 3.03432 0
M  V30 8192 N 775.625 -6.47584 2.71254 0
M  V30 8193 H 780.465 -2.0272 2.18423 0
M  V30 8194 H 778.002 -0.992017 1.08616 0
M  V30 8195 H 779.96 -4.09239 0.811126 0
M  V30 8196 H 778.59 -3.22731 0.0667099 0
M  V30 8197 H 777.642 -2.89799 2.46416 0
M  V30 8198 H 778.954 -3.93844 3.06086 0
M  V30 8199 H 778.108 -5.83462 1.66305 0
M  V30 8200 H 776.847 -4.78107 0.96254 0
M  V30 8201 H 775.852 -4.44037 3.24208 0
M  V30 8202 H 777.077 -5.52836 3.94397 0
M  V30 8203 H 775.023 -6.29783 1.836 0
M  V30 8204 H 774.94 -6.68931 3.52231 0
M  V30 8205 H 776.208 -7.36764 2.54558 0
M  V30 8206 N 780.437 -1.16799 -1.0581 0
M  V30 8207 C 781.685 -0.950642 -1.78346 0
M  V30 8208 C 782.006 0.522524 -1.87869 0
M  V30 8209 O 781.276 1.3795 -1.39092 0
M  V30 8210 H 779.856 -0.348736 -0.6606 0
M  V30 8211 H 782.518 -1.47158 -1.27791 0
M  V30 8212 H 781.614 -1.37359 -2.80248 0
M  V30 8213 N 781.915 1.24427 -0.967243 0
M  V30 8214 C 782.825 2.29109 -0.504592 0
M  V30 8215 C 783.841 1.68495 0.434224 0
M  V30 8216 O 785.017 1.99041 0.307379 0
M  V30 8217 C 782.082 3.46133 0.198273 0
M  V30 8218 C 781.143 4.22149 -0.780313 0
M  V30 8219 C 780.376 5.33585 -0.110896 0
M  V30 8220 O 780.599 5.59676 1.10088 0
M  V30 8221 O 779.533 5.96522 -0.802823 0
M  V30 8222 H 783.359 2.708 -1.37482 0
M  V30 8223 H 780.944 1.30111 -0.73426 0
M  V30 8224 H 782.826 4.17205 0.593124 0
M  V30 8225 H 781.501 3.0642 1.04347 0
M  V30 8226 H 780.408 3.53454 -1.22561 0
M  V30 8227 H 781.741 4.65677 -1.59392 0
M  V30 8228 N 783.393 0.737304 1.3929 0
M  V30 8229 C 784.642 0.283129 1.99703 0
M  V30 8230 C 784.955 -1.13677 1.59176 0
M  V30 8231 O 786.161 -1.69058 2.12442 0
M  V30 8232 C 784.617 0.455262 3.57009 0
M  V30 8233 C 784.225 1.88319 4.06497 0
M  V30 8234 C 785.969 0.0629786 4.24453 0
M  V30 8235 C 783.876 2.00475 5.56385 0
M  V30 8236 H 782.806 0.102106 0.747054 0
M  V30 8237 H 785.457 0.911515 1.5926 0
M  V30 8238 H 783.839 -0.242057 3.9526 0
M  V30 8239 H 785.013 2.61265 3.79575 0
M  V30 8240 H 783.328 2.2289 3.51723 0
M  V30 8241 H 785.925 0.132787 5.34535 0
M  V30 8242 H 786.268 -0.982128 4.04549 0
M  V30 8243 H 786.801 0.71154 3.91385 0
M  V30 8244 H 783.54 3.03182 5.81172 0
M  V30 8245 H 783.06 1.31969 5.85102 0
M  V30 8246 H 784.739 1.787 6.21832 0
M  V30 8247 N 784.871 -1.49948 0.485112 0
M  V30 8248 C 785.803 -2.26691 -0.338222 0
M  V30 8249 C 786.816 -1.32584 -0.944742 0
M  V30 8250 O 788.005 -1.57989 -0.830772 0
M  V30 8251 C 785.105 -3.04405 -1.48966 0
M  V30 8252 C 784.278 -4.25971 -0.993371 0
M  V30 8253 C 783.337 -4.85861 -2.02052 0
M  V30 8254 O 782.363 -5.46382 -1.59547 0
M  V30 8255 N 783.565 -4.74101 -3.34975 0
M  V30 8256 H 786.33 -2.97989 0.319748 0
M  V30 8257 H 783.891 -1.58772 0.316714 0
M  V30 8258 H 785.883 -3.41348 -2.17403 0
M  V30 8259 H 784.453 -2.35815 -2.05207 0
M  V30 8260 H 783.673 -3.93971 -0.134424 0
M  V30 8261 H 784.961 -5.0476 -0.639934 0
M  V30 8262 H 784.359 -4.26002 -3.72208 0
M  V30 8263 H 782.916 -5.15274 -3.9917 0
M  V30 8264 N 786.349 -0.21828 -1.56081 0
M  V30 8265 C 787.297 0.709679 -2.21509 0
M  V30 8266 C 788.291 1.20221 -1.19346 0
M  V30 8267 O 789.497 1.16241 -1.37433 0
M  V30 8268 H 785.872 0.247271 -0.710184 0
M  V30 8269 H 787.843 0.134386 -2.98097 0
M  V30 8270 C 786.592 1.90853 -2.90638 0
M  V30 8271 H 785.915 1.53865 -3.69006 0
M  V30 8272 H 787.355 2.53568 -3.39822 0
M  V30 8273 C 785.814 2.76189 -1.92929 0
M  V30 8274 O 786.344 3.74842 -1.44416 0
M  V30 8275 N 784.55 2.42157 -1.6065 0
M  V30 8276 H 784.097 1.61987 -2.00294 0
M  V30 8277 H 784.055 2.99534 -0.955347 0
M  V30 8278 N 787.827 1.57504 0.0551401 0
M  V30 8279 C 789.076 1.87237 0.750009 0
M  V30 8280 C 789.389 0.813268 1.77891 0
M  V30 8281 O 790.595 0.99898 2.52453 0
M  V30 8282 C 789.051 3.32187 1.38491 0
M  V30 8283 C 788.659 4.46267 0.393707 0
M  V30 8284 C 790.403 3.71101 2.06117 0
M  V30 8285 C 788.31 5.82265 1.03547 0
M  V30 8286 H 787.24 0.698524 0.283866 0
M  V30 8287 H 789.891 1.835 0.00365997 0
M  V30 8288 H 788.273 3.30588 2.18008 0
M  V30 8289 H 789.447 4.59289 -0.372865 0
M  V30 8290 H 787.762 4.16015 -0.17902 0
M  V30 8291 H 790.359 4.70012 2.54937 0
M  V30 8292 H 790.702 3.01751 2.86796 0
M  V30 8293 H 791.235 3.74762 1.33409 0
M  V30 8294 H 787.974 6.54949 0.268644 0
M  V30 8295 H 787.494 5.73012 1.7725 0
M  V30 8296 H 789.173 6.28148 1.55047 0
M  V30 8297 N 789.305 -0.326896 1.54172 0
M  V30 8298 C 790.235 -1.40741 1.86317 0
M  V30 8299 C 791.216 -1.54125 0.719684 0
M  V30 8300 O 792.401 -1.6806 0.973117 0
M  V30 8301 C 789.531 -2.77557 2.08757 0
M  V30 8302 C 788.485 -2.78965 3.24596 0
M  V30 8303 C 787.811 -4.18824 3.32401 0
M  V30 8304 C 789.111 -2.4301 4.62324 0
M  V30 8305 H 790.805 -1.14088 2.76811 0
M  V30 8306 H 788.351 -0.547389 1.3319 0
M  V30 8307 H 790.304 -3.53209 2.29829 0
M  V30 8308 H 789.028 -3.0568 1.15009 0
M  V30 8309 H 787.687 -2.05767 3.03406 0
M  V30 8310 H 787.335 -4.44083 2.36218 0
M  V30 8311 H 787.035 -4.20673 4.10253 0
M  V30 8312 H 788.559 -4.96294 3.55703 0
M  V30 8313 H 789.973 -3.08375 4.83299 0
M  V30 8314 H 788.37 -2.56116 5.42701 0
M  V30 8315 H 789.44 -1.38165 4.64799 0
M  V30 8316 N 790.784 -1.46188 -0.588786 0
M  V30 8317 C 791.716 -1.52319 -1.71265 0
M  V30 8318 C 792.729 -0.412096 -1.57498 0
M  V30 8319 O 793.918 -0.680146 -1.65034 0
M  V30 8320 C 791.018 -1.38164 -3.09458 0
M  V30 8321 C 790.191 -2.63284 -3.49286 0
M  V30 8322 C 789.25 -2.43415 -4.66514 0
M  V30 8323 O 788.276 -3.17113 -4.72682 0
M  V30 8324 N 789.478 -1.49187 -5.61002 0
M  V30 8325 H 792.243 -2.49219 -1.66463 0
M  V30 8326 H 789.804 -1.42167 -0.774601 0
M  V30 8327 H 791.796 -1.22653 -3.85666 0
M  V30 8328 H 790.366 -0.494678 -3.08661 0
M  V30 8329 H 789.586 -2.93779 -2.62845 0
M  V30 8330 H 790.874 -3.46413 -3.7266 0
M  V30 8331 H 790.272 -0.884027 -5.5875 0
M  V30 8332 H 788.829 -1.39642 -6.36666 0
M  V30 8333 N 792.262 0.832906 -1.33792 0
M  V30 8334 C 793.209 1.94314 -1.24541 0
M  V30 8335 C 794.179 1.65646 -0.122753 0
M  V30 8336 O 795.364 1.88394 -0.30204 0
M  V30 8337 C 792.504 3.30395 -0.996641 0
M  V30 8338 C 791.617 3.71422 -2.20612 0
M  V30 8339 C 790.752 4.96401 -1.89101 0
M  V30 8340 C 789.791 5.2998 -3.06247 0
M  V30 8341 N 788.928 6.46137 -2.74685 0
M  V30 8342 H 793.768 2.01559 -2.19495 0
M  V30 8343 H 791.305 0.986243 -1.09141 0
M  V30 8344 H 793.263 4.08803 -0.832817 0
M  V30 8345 H 791.893 3.22691 -0.0838242 0
M  V30 8346 H 790.945 2.88488 -2.47949 0
M  V30 8347 H 792.257 3.92215 -3.0817 0
M  V30 8348 H 791.411 5.82572 -1.69396 0
M  V30 8349 H 790.15 4.7759 -0.987882 0
M  V30 8350 H 789.155 4.42312 -3.26559 0
M  V30 8351 H 790.38 5.50737 -3.97323 0
M  V30 8352 H 788.326 6.28801 -1.86938 0
M  V30 8353 H 788.243 6.67054 -3.55774 0
M  V30 8354 H 789.511 7.35403 -2.58461 0
M  V30 8355 N 793.74 1.17359 1.05189 0
M  V30 8356 C 794.986 0.963413 1.78455 0
M  V30 8357 C 795.319 -0.506703 1.87473 0
M  V30 8358 O 794.594 -1.37611 1.37453 0
M  V30 8359 C 794.877 1.60519 3.22344 0
M  V30 8360 C 794.73 3.14741 3.21338 0
M  V30 8361 C 796.049 1.3091 4.20179 0
M  V30 8362 H 793.168 0.351412 0.647826 0
M  V30 8363 H 795.81 1.44858 1.22948 0
M  V30 8364 H 793.96 1.19265 3.69741 0
M  V30 8365 H 795.632 3.65053 2.82017 0
M  V30 8366 H 793.875 3.4749 2.59679 0
M  V30 8367 H 794.546 3.54775 4.22894 0
M  V30 8368 H 797.022 1.66635 3.81277 0
M  V30 8369 H 795.898 1.784 5.191 0
M  V30 8370 H 796.159 0.229908 4.41502 0
M  V30 8371 N 795.218 -1.23913 0.973828 0
M  V30 8372 C 796.166 -2.27141 0.50098 0
M  V30 8373 C 797.16 -1.63623 -0.438631 0
M  V30 8374 O 798.366 -1.77253 -0.313247 0
M  V30 8375 H 794.741 -0.73817 0.14356 0
M  V30 8376 H 796.712 -2.64392 1.38346 0
M  V30 8377 C 795.461 -3.47195 -0.187377 0
M  V30 8378 H 794.784 -3.96318 0.526535 0
M  V30 8379 H 796.224 -4.21252 -0.481962 0
M  V30 8380 C 794.683 -3.05678 -1.41642 0
M  V30 8381 O 795.213 -3.1338 -2.51309 0
M  V30 8382 N 793.419 -2.60661 -1.28469 0
M  V30 8383 H 792.966 -2.54594 -0.39238 0
M  V30 8384 H 792.924 -2.33249 -2.10813 0
M  V30 8385 N 796.696 -0.74468 -1.38897 0
M  V30 8386 C 797.945 -0.293716 -1.9955 0
M  V30 8387 C 798.258 1.12831 -1.59777 0
M  V30 8388 O 799.464 1.67929 -2.13336 0
M  V30 8389 C 797.92 -0.474188 -3.56762 0
M  V30 8390 C 797.528 -1.90472 -4.05493 0
M  V30 8391 C 799.272 -0.0854875 -4.24414 0
M  V30 8392 C 797.179 -2.03423 -5.55314 0
M  V30 8393 H 796.109 -0.106066 -0.746502 0
M  V30 8394 H 798.76 -0.919948 -1.58774 0
M  V30 8395 H 797.142 0.221092 -3.95382 0
M  V30 8396 H 798.316 -2.63274 -3.78184 0
M  V30 8397 H 796.631 -2.24752 -3.50536 0
M  V30 8398 H 799.228 -0.161133 -5.34457 0
M  V30 8399 H 799.571 0.96066 -4.05064 0
M  V30 8400 H 800.104 -0.732286 -3.91002 0
M  V30 8401 H 796.843 -3.0626 -5.79556 0
M  V30 8402 H 796.363 -1.3507 -5.84394 0
M  V30 8403 H 798.042 -1.81996 -6.20876 0
M  V30 8404 N 798.174 1.49689 -0.493057 0
M  V30 8405 C 799.585 1.8665 -0.0433032 0
M  V30 8406 C 799.936 1.40607 1.36836 0
M  V30 8407 O 799.061 0.780503 2.01834 0
M  V30 8408 C 799.656 3.38724 -0.0718069 0
M  V30 8409 C 798.215 3.75015 0.32257 0
M  V30 8410 C 797.362 2.7366 -0.4478 0
M  V30 8411 H 800.313 1.42119 -0.706246 0
M  V30 8412 H 800.334 3.73522 0.725347 0
M  V30 8413 H 799.846 3.72204 -1.09935 0
M  V30 8414 H 797.947 3.47142 1.35364 0
M  V30 8415 H 798.06 4.79099 0.00864259 0
M  V30 8416 H 796.424 2.54498 0.101354 0
M  V30 8417 H 797.207 3.09985 -1.47527 0
M  V30 8418 N 799.652 0.226554 1.55963 0
M  V30 8419 C 800.582 -0.676079 2.23498 0
M  V30 8420 C 801.563 -1.19718 1.20837 0
M  V30 8421 O 802.748 -1.24027 1.49436 0
M  V30 8422 C 799.878 -1.88217 2.91876 0
M  V30 8423 C 798.832 -1.4947 4.01052 0
M  V30 8424 C 798.158 -2.77997 4.56751 0
M  V30 8425 C 799.458 -0.680951 5.17842 0
M  V30 8426 H 801.152 -0.112989 2.99187 0
M  V30 8427 H 798.698 -0.0529046 1.43903 0
M  V30 8428 H 800.651 -2.51911 3.37815 0
M  V30 8429 H 799.375 -2.47031 2.13643 0
M  V30 8430 H 798.034 -0.881199 3.55852 0
M  V30 8431 H 797.682 -3.34966 3.75243 0
M  V30 8432 H 797.382 -2.52803 5.30438 0
M  V30 8433 H 798.906 -3.42625 5.05411 0
M  V30 8434 H 800.32 -1.22171 5.60131 0
M  V30 8435 H 798.717 -0.525898 5.97791 0
M  V30 8436 H 799.787 0.311346 4.83899 0
M  V30 8437 N 801.13 -1.57531 -0.0467866 0
M  V30 8438 C 802.376 -1.8873 -0.742218 0
M  V30 8439 C 802.709 -0.822084 -1.75941 0
M  V30 8440 O 801.984 0.164922 -1.938 0
M  V30 8441 C 802.267 -3.30586 -1.42776 0
M  V30 8442 C 802.12 -4.47785 -0.425285 0
M  V30 8443 C 803.439 -3.71068 -2.36636 0
M  V30 8444 H 800.558 -0.686406 -0.268359 0
M  V30 8445 H 803.2 -1.89999 -0.00511341 0
M  V30 8446 H 801.35 -3.29634 -2.05605 0
M  V30 8447 H 803.022 -4.60867 0.199721 0
M  V30 8448 H 801.265 -4.33037 0.25713 0
M  V30 8449 H 801.936 -5.43884 -0.943086 0
M  V30 8450 H 804.412 -3.73273 -1.83866 0
M  V30 8451 H 803.288 -4.71165 -2.81593 0
M  V30 8452 H 803.549 -3.02355 -3.22542 0
M  V30 8453 N 802.608 0.318715 -1.54344 0
M  V30 8454 C 803.836 1.0755 -1.7675 0
M  V30 8455 C 804.251 1.81543 -0.518422 0
M  V30 8456 O 803.608 1.75198 0.511078 0
M  V30 8457 C 803.659 2.06983 -2.96378 0
M  V30 8458 O 803.38 1.35995 -4.16458 0
M  V30 8459 C 804.881 2.94841 -3.31034 0
M  V30 8460 H 802.101 0.319711 -0.589937 0
M  V30 8461 H 804.645 0.363369 -2.01246 0
M  V30 8462 H 802.8 2.73724 -2.74142 0
M  V30 8463 H 803.214 2.02623 -4.83781 0
M  V30 8464 H 804.688 3.60496 -4.18027 0
M  V30 8465 H 805.165 3.62199 -2.48412 0
M  V30 8466 H 805.771 2.33656 -3.55366 0
M  V30 8467 N 804.086 1.46499 0.581025 0
M  V30 8468 C 805.034 1.57562 1.71105 0
M  V30 8469 C 806.028 0.44403 1.63477 0
M  V30 8470 O 807.234 0.620964 1.6895 0
M  V30 8471 H 803.609 0.495415 0.565746 0
M  V30 8472 H 805.58 2.5257 1.58905 0
M  V30 8473 C 804.329 1.58465 3.0949 0
M  V30 8474 H 803.652 2.44877 3.16031 0
M  V30 8475 H 805.092 1.70261 3.88313 0
M  V30 8476 C 803.551 0.313596 3.35437 0
M  V30 8477 O 804.081 -0.595456 3.97262 0
M  V30 8478 N 802.287 0.200986 2.89904 0
M  V30 8479 H 801.834 0.941643 2.39773 0
M  V30 8480 H 801.792 -0.648577 3.07638 0
M  V30 8481 N 805.565 -0.825799 1.34232 0
M  V30 8482 C 806.475 -1.9684 1.27638 0
M  V30 8483 C 807.491 -1.73018 0.184569 0
M  V30 8484 O 808.667 -1.97172 0.410525 0
M  V30 8485 C 805.732 -3.31084 1.02879 0
M  V30 8486 C 804.793 -3.67933 2.21188 0
M  V30 8487 C 804.026 -4.95772 1.976 0
M  V30 8488 O 804.249 -5.62721 0.93281 0
M  V30 8489 O 803.183 -5.30431 2.84477 0
M  V30 8490 H 807.009 -2.05346 2.23756 0
M  V30 8491 H 804.594 -0.960772 1.1441 0
M  V30 8492 H 806.476 -4.11492 0.908406 0
M  V30 8493 H 805.151 -3.23552 0.0979821 0
M  V30 8494 H 804.058 -2.87981 2.38784 0
M  V30 8495 H 805.391 -3.80147 3.12648 0
M  V30 8496 N 807.043 -1.17915 -1.04565 0
M  V30 8497 C 807.953 -0.916449 -2.15959 0
M  V30 8498 C 808.969 0.117655 -1.73602 0
M  V30 8499 O 810.145 -0.063089 -2.01301 0
M  V30 8500 C 807.21 -0.440262 -3.43893 0
M  V30 8501 C 806.271 -1.54172 -4.00661 0
M  V30 8502 C 805.504 -1.08816 -5.22489 0
M  V30 8503 O 805.727 0.0551547 -5.70373 0
M  V30 8504 O 804.661 -1.88383 -5.7166 0
M  V30 8505 H 808.487 -1.8484 -2.40972 0
M  V30 8506 H 806.072 -0.960552 -1.14428 0
M  V30 8507 H 807.954 -0.182537 -4.21004 0
M  V30 8508 H 806.629 0.46346 -3.20365 0
M  V30 8509 H 805.536 -1.85341 -3.24961 0
M  V30 8510 H 806.869 -2.42139 -4.2852 0
M  V30 8511 N 808.521 1.23394 -0.980386 0
M  V30 8512 C 809.761 1.93543 -0.657288 0
M  V30 8513 C 810.125 1.74791 0.794477 0
M  V30 8514 O 811.326 2.39089 1.2284 0
M  V30 8515 C 809.597 3.42025 -1.03701 0
M  V30 8516 S 811.156 4.30871 -0.830379 0
M  V30 8517 H 807.974 0.669012 -0.240717 0
M  V30 8518 H 810.576 1.49478 -1.26002 0
M  V30 8519 H 809.28 3.53183 -2.09022 0
M  V30 8520 H 808.811 3.91091 -0.425559 0
M  V30 8521 H 810.826 4.95377 0.285719 0
M  V30 8522 N 809.999 0.752036 1.385 0
M  V30 8523 C 810.931 0.0835089 2.29048 0
M  V30 8524 C 811.944 -0.685402 1.47669 0
M  V30 8525 O 813.133 -0.526748 1.70551 0
M  V30 8526 C 810.233 -0.905772 3.26572 0
M  V30 8527 C 809.406 -0.194828 4.36966 0
M  V30 8528 C 808.465 -1.09464 5.14688 0
M  V30 8529 O 807.491 -0.565743 5.66381 0
M  V30 8530 N 808.693 -2.42287 5.2752 0
M  V30 8531 H 811.458 0.861142 2.87062 0
M  V30 8532 H 809.019 0.602689 1.50264 0
M  V30 8533 H 811.011 -1.51072 3.75446 0
M  V30 8534 H 809.581 -1.58449 2.69467 0
M  V30 8535 H 808.801 0.590812 3.89747 0
M  V30 8536 H 810.089 0.297189 5.07931 0
M  V30 8537 H 809.487 -2.87715 4.8707 0
M  V30 8538 H 808.044 -2.97836 5.79773 0
M  V30 8539 N 811.477 -1.49425 0.500989 0
M  V30 8540 C 812.424 -2.29126 -0.277443 0
M  V30 8541 C 813.394 -1.35522 -0.960363 0
M  V30 8542 O 814.579 -1.64479 -0.967027 0
M  V30 8543 C 811.719 -3.18193 -1.33593 0
M  V30 8544 C 810.832 -4.26854 -0.664791 0
M  V30 8545 C 809.967 -5.03137 -1.70372 0
M  V30 8546 C 809.006 -6.03635 -1.01445 0
M  V30 8547 N 808.143 -6.73083 -1.99758 0
M  V30 8548 H 812.983 -2.95187 0.408458 0
M  V30 8549 H 810.52 -1.45546 0.213275 0
M  V30 8550 H 812.478 -3.68207 -1.96161 0
M  V30 8551 H 811.108 -2.54116 -1.9906 0
M  V30 8552 H 810.16 -3.80328 0.0741708 0
M  V30 8553 H 811.472 -4.9865 -0.122197 0
M  V30 8554 H 810.626 -5.5702 -2.40445 0
M  V30 8555 H 809.365 -4.31114 -2.28017 0
M  V30 8556 H 808.37 -5.48984 -0.299496 0
M  V30 8557 H 809.595 -6.77644 -0.444497 0
M  V30 8558 H 807.541 -6.03832 -2.56365 0
M  V30 8559 H 807.458 -7.40855 -1.50565 0
M  V30 8560 H 808.726 -7.3157 -2.69119 0
M  V30 8561 N 812.955 -0.234822 -1.55841 0
M  V30 8562 C 814.371 0.120295 -1.59146 0
M  V30 8563 C 814.571 1.57896 -1.25184 0
M  V30 8564 O 813.627 2.32138 -0.993393 0
M  V30 8565 C 814.94 -0.217984 -2.99909 0
M  V30 8566 C 816.488 -0.161298 -3.12584 0
M  V30 8567 C 816.963 -0.473438 -4.55546 0
M  V30 8568 N 818.454 -0.423494 -4.6126 0
M  V30 8569 C 819.189 -0.638334 -5.69836 0
M  V30 8570 N 818.685 -0.915659 -6.86722 0
M  V30 8571 N 820.478 -0.569864 -5.59204 0
M  V30 8572 H 812.629 -1.18622 -1.76189 0
M  V30 8573 H 814.892 -0.476426 -0.819587 0
M  V30 8574 H 814.598 -1.2309 -3.29457 0
M  V30 8575 H 814.472 0.460707 -3.74376 0
M  V30 8576 H 816.859 0.842274 -2.82825 0
M  V30 8577 H 816.94 -0.873661 -2.40418 0
M  V30 8578 H 816.584 -1.47451 -4.86025 0
M  V30 8579 H 816.514 0.260268 -5.25956 0
M  V30 8580 H 819.005 -0.217383 -3.77274 0
M  V30 8581 H 819.318 -1.06734 -7.65394 0
M  V30 8582 H 817.663 -0.953 -6.88435 0
M  V30 8583 H 820.854 -0.35334 -4.66765 0
M  V30 8584 H 821.027 -0.740698 -6.43753 0
M  V30 8585 N 814.433 1.57553 0.0384317 0
M  V30 8586 C 815.663 1.92813 0.742064 0
M  V30 8587 C 816.071 0.832157 1.69917 0
M  V30 8588 O 815.414 -0.200917 1.82598 0
M  V30 8589 C 815.476 3.23806 1.56172 0
M  V30 8590 C 815.14 4.50459 0.770407 0
M  V30 8591 C 816.137 5.19846 0.0748006 0
M  V30 8592 C 813.822 4.97001 0.727714 0
M  V30 8593 C 815.816 6.34047 -0.652902 0
M  V30 8594 C 813.503 6.111 -0.00373992 0
M  V30 8595 C 814.501 6.79477 -0.692816 0
M  V30 8596 O 814.189 7.91395 -1.41241 0
M  V30 8597 H 813.921 0.641174 0.214179 0
M  V30 8598 H 816.475 2.054 0.00285095 0
M  V30 8599 H 814.705 3.0752 2.34453 0
M  V30 8600 H 816.394 3.44463 2.14709 0
M  V30 8601 H 817.16 4.84899 0.098875 0
M  V30 8602 H 813.039 4.43629 1.25355 0
M  V30 8603 H 816.583 6.87353 -1.1913 0
M  V30 8604 H 812.48 6.45493 -0.0297703 0
M  V30 8605 H 813.248 8.07702 -1.32512 0
M  V30 8606 N 815.911 -0.310526 1.54511 0
M  V30 8607 C 816.843 -1.40405 1.8116 0
M  V30 8608 C 817.856 -1.47261 0.694114 0
M  V30 8609 O 819.045 -1.49751 0.971441 0
M  V30 8610 C 816.145 -2.78849 1.92604 0
M  V30 8611 C 815.318 -2.95041 3.22908 0
M  V30 8612 C 814.377 -4.13925 3.24889 0
M  V30 8613 O 813.403 -4.06463 3.98467 0
M  V30 8614 N 814.605 -5.24099 2.496 0
M  V30 8615 H 817.37 -1.17903 2.75534 0
M  V30 8616 H 814.931 -0.500564 1.53967 0
M  V30 8617 H 816.923 -3.5661 1.91342 0
M  V30 8618 H 815.493 -2.94342 1.05268 0
M  V30 8619 H 814.713 -2.04472 3.37023 0
M  V30 8620 H 816.001 -3.02763 4.08916 0
M  V30 8621 H 815.399 -5.33039 1.89435 0
M  V30 8622 H 813.956 -6.0023 2.54102 0
M  V30 8623 N 817.389 -1.46805 -0.573248 0
M  V30 8624 C 818.666 -1.43082 -1.33368 0
M  V30 8625 C 819.046 -0.119252 -2.10763 0
M  V30 8626 O 818.394 0.899239 -2.10062 0
M  V30 8627 C 818.604 -2.66643 -2.25172 0
M  V30 8628 C 819.952 -3.13188 -2.86702 0
M  V30 8629 O 820.976 -2.67258 -2.35482 0
M  V30 8630 O 819.835 -3.92994 -3.79761 0
M  V30 8631 H 816.929 -0.569451 -0.599712 0
M  V30 8632 H 819.475 -1.58984 -0.59348 0
M  V30 8633 H 818.247 -3.53649 -1.67475 0
M  V30 8634 H 817.87 -2.53247 -3.06516 0
M  V30 8635 N 818.867 0.818669 -1.34668 0
M  V30 8636 C 820.097 1.60441 -1.30162 0
M  V30 8637 C 820.505 1.88783 0.125579 0
M  V30 8638 O 819.848 1.48281 1.08437 0
M  V30 8639 C 819.91 2.96794 -2.02864 0
M  V30 8640 C 819.574 2.91327 -3.52105 0
M  V30 8641 C 820.571 2.65611 -4.4693 0
M  V30 8642 C 818.256 3.10825 -3.9458 0
M  V30 8643 C 820.25 2.59452 -5.82206 0
M  V30 8644 C 817.937 3.0429 -5.29954 0
M  V30 8645 C 818.935 2.78637 -6.23579 0
M  V30 8646 O 818.623 2.72042 -7.56471 0
M  V30 8647 H 818.355 0.505278 -0.449077 0
M  V30 8648 H 820.909 1.02632 -1.77921 0
M  V30 8649 H 819.139 3.56538 -1.49725 0
M  V30 8650 H 820.828 3.57837 -1.91592 0
M  V30 8651 H 821.594 2.50278 -4.15434 0
M  V30 8652 H 817.473 3.29807 -3.221 0
M  V30 8653 H 821.017 2.39349 -6.55254 0
M  V30 8654 H 816.914 3.19177 -5.61067 0
M  V30 8655 H 817.682 2.87738 -7.66257 0
M  V30 8656 N 820.346 1.18468 1.03938 0
M  V30 8657 C 821.293 0.912859 2.1198 0
M  V30 8658 C 822.263 -0.14824 1.65437 0
M  V30 8659 O 823.448 -0.008331 1.90798 0
M  V30 8660 C 820.588 0.446114 3.42204 0
M  V30 8661 C 819.701 1.57278 4.02353 0
M  V30 8662 C 818.836 1.05863 5.20544 0
M  V30 8663 C 817.875 2.1599 5.72726 0
M  V30 8664 N 817.012 1.65959 6.82204 0
M  V30 8665 H 821.852 1.83798 2.34569 0
M  V30 8666 H 819.389 0.916504 1.15059 0
M  V30 8667 H 821.347 0.15697 4.16905 0
M  V30 8668 H 819.977 -0.442025 3.19759 0
M  V30 8669 H 819.029 1.97737 3.24968 0
M  V30 8670 H 820.341 2.40289 4.37107 0
M  V30 8671 H 819.495 0.724087 6.02364 0
M  V30 8672 H 818.234 0.198116 4.87297 0
M  V30 8673 H 817.239 2.50287 4.89527 0
M  V30 8674 H 818.464 3.02479 6.08016 0
M  V30 8675 H 816.41 0.82199 6.5083 0
M  V30 8676 H 816.327 2.42567 7.16029 0
M  V30 8677 H 817.595 1.35436 7.67644 0
M  V30 8678 N 821.824 -1.22873 0.986916 0
M  V30 8679 C 823.073 -1.90772 0.654911 0
M  V30 8680 C 823.386 -1.77768 -0.81595 0
M  V30 8681 O 824.592 -2.40529 -1.25929 0
M  V30 8682 C 823.048 -3.42003 1.12081 0
M  V30 8683 C 822.656 -3.63655 2.61647 0
M  V30 8684 C 824.4 -4.15638 0.862854 0
M  V30 8685 C 822.307 -5.08555 3.01871 0
M  V30 8686 H 821.237 -0.714362 0.241252 0
M  V30 8687 H 823.888 -1.39196 1.19568 0
M  V30 8688 H 822.27 -3.92725 0.508207 0
M  V30 8689 H 823.444 -3.2345 3.28202 0
M  V30 8690 H 821.759 -3.03341 2.8526 0
M  V30 8691 H 824.356 -5.22425 1.13915 0
M  V30 8692 H 824.699 -4.15814 -0.201036 0
M  V30 8693 H 825.232 -3.70924 1.43736 0
M  V30 8694 H 821.971 -5.13514 4.07411 0
M  V30 8695 H 821.491 -5.49684 2.40015 0
M  V30 8696 H 823.17 -5.76936 2.92839 0
M  V30 8697 N 823.302 -0.75937 -1.38099 0
M  V30 8698 C 824.53 -0.329111 -2.04266 0
M  V30 8699 C 824.945 1.04453 -1.57274 0
M  V30 8700 O 824.302 1.66449 -0.748397 0
M  V30 8701 C 824.353 -0.349192 -3.5981 0
M  V30 8702 O 824.074 -1.66863 -4.05078 0
M  V30 8703 C 825.575 0.0942106 -4.432 0
M  V30 8704 H 822.795 -0.13971 -0.656294 0
M  V30 8705 H 825.339 -1.02984 -1.76677 0
M  V30 8706 H 823.494 0.302846 -3.86214 0
M  V30 8707 H 823.908 -1.59877 -4.9954 0
M  V30 8708 H 825.382 0.0290004 -5.51992 0
M  V30 8709 H 825.859 1.1429 -4.24069 0
M  V30 8710 H 826.465 -0.529171 -4.21995 0
M  V30 8711 N 824.78 1.49157 -0.508906 0
M  V30 8712 C 825.712 2.272 0.302115 0
M  V30 8713 C 826.725 1.3407 0.923529 0
M  V30 8714 O 827.914 1.5929 0.805532 0
M  V30 8715 C 825.014 3.06736 1.44105 0
M  V30 8716 C 824.187 4.27497 0.925477 0
M  V30 8717 C 823.246 4.89014 1.94297 0
M  V30 8718 O 822.272 5.48851 1.50834 0
M  V30 8719 N 823.474 4.7937 3.2739 0
M  V30 8720 H 826.239 2.97443 -0.367115 0
M  V30 8721 H 823.8 1.58248 -0.341933 0
M  V30 8722 H 825.792 3.44763 2.11944 0
M  V30 8723 H 824.362 2.3905 2.0143 0
M  V30 8724 H 823.582 3.94135 0.0717301 0
M  V30 8725 H 824.87 5.05714 0.55955 0
M  V30 8726 H 824.268 4.31869 3.65384 0
M  V30 8727 H 822.825 5.21559 3.90922 0
M  V30 8728 N 826.258 0.243083 1.55714 0
M  V30 8729 C 827.674 -0.111853 1.59208 0
M  V30 8730 C 827.874 -1.5723 1.2602 0
M  V30 8731 O 826.93 -2.31608 1.00569 0
M  V30 8732 C 828.243 0.233885 2.99789 0
M  V30 8733 C 829.791 0.177873 3.12494 0
M  V30 8734 C 830.266 0.49759 4.55289 0
M  V30 8735 N 831.757 0.447949 4.61029 0
M  V30 8736 C 832.492 0.668545 5.69489 0
M  V30 8737 N 831.988 0.952064 6.86227 0
M  V30 8738 N 833.781 0.599512 5.58894 0
M  V30 8739 H 825.932 1.19554 1.75558 0
M  V30 8740 H 828.195 0.480765 0.817049 0
M  V30 8741 H 827.901 1.24835 3.28799 0
M  V30 8742 H 827.775 -0.440846 3.74615 0
M  V30 8743 H 830.162 -0.827263 2.83267 0
M  V30 8744 H 830.243 0.886399 2.39951 0
M  V30 8745 H 829.887 1.50026 4.85237 0
M  V30 8746 H 829.817 -0.232371 5.26087 0
M  V30 8747 H 832.308 0.237388 3.77154 0
M  V30 8748 H 832.621 1.10791 7.64817 0
M  V30 8749 H 830.966 0.989496 6.8792 0
M  V30 8750 H 834.157 0.378088 4.66571 0
M  V30 8751 H 834.33 0.774828 6.43351 0
M  V30 8752 N 827.736 -1.57571 -0.0300757 0
M  V30 8753 C 828.669 -2.01874 -1.06406 0
M  V30 8754 C 829.647 -0.902901 -1.35227 0
M  V30 8755 O 830.831 -1.16865 -1.47901 0
M  V30 8756 C 827.958 -2.39093 -2.39901 0
M  V30 8757 C 827.004 -3.61108 -2.26943 0
M  V30 8758 S 827.837 -5.10287 -1.62382 0
M  V30 8759 C 828.993 -5.50747 -2.97369 0
M  V30 8760 H 829.226 -2.89261 -0.686703 0
M  V30 8761 H 826.759 -1.52523 -0.240017 0
M  V30 8762 H 828.717 -2.61207 -3.16672 0
M  V30 8763 H 827.378 -1.52159 -2.74784 0
M  V30 8764 H 826.571 -3.84803 -3.25489 0
M  V30 8765 H 826.173 -3.3884 -1.58314 0
M  V30 8766 H 828.465 -5.51369 -3.93698 0
M  V30 8767 H 829.408 -6.51071 -2.78409 0
M  V30 8768 H 829.816 -4.7825 -2.99895 0
M  V30 8769 N 829.214 0.302327 -1.54673 0
M  V30 8770 C 830.46 1.03924 -1.74149 0
M  V30 8771 C 830.793 1.86968 -0.525041 0
M  V30 8772 O 830.068 1.88538 0.477868 0
M  V30 8773 C 830.351 1.94633 -3.02969 0
M  V30 8774 C 830.204 1.14778 -4.34909 0
M  V30 8775 C 831.523 2.93826 -3.27649 0
M  V30 8776 H 828.642 0.376405 -0.633631 0
M  V30 8777 H 831.284 0.314007 -1.87387 0
M  V30 8778 H 829.434 2.56471 -2.91813 0
M  V30 8779 H 831.106 0.552363 -4.57981 0
M  V30 8780 H 829.349 0.450462 -4.31455 0
M  V30 8781 H 830.02 1.81495 -5.21309 0
M  V30 8782 H 832.496 2.42117 -3.38406 0
M  V30 8783 H 831.372 3.54462 -4.19104 0
M  V30 8784 H 831.633 3.67416 -2.45882 0
M  V30 8785 N 830.692 1.47107 0.565454 0
M  V30 8786 C 831.932 1.5488 1.33385 0
M  V30 8787 C 832.296 0.202804 1.90926 0
M  V30 8788 O 833.497 0.155345 2.68351 0
M  V30 8789 C 831.768 2.62969 2.42037 0
M  V30 8790 S 833.327 2.90269 3.29074 0
M  V30 8791 H 830.145 0.547008 0.454206 0
M  V30 8792 H 832.747 1.8444 0.648228 0
M  V30 8793 H 831.451 3.59376 1.98185 0
M  V30 8794 H 830.982 2.35197 3.15351 0
M  V30 8795 H 832.997 2.26854 4.41307 0
M  V30 8796 N 832.17 -0.811516 1.35101 0
M  V30 8797 C 833.133 -1.90467 1.27495 0
M  V30 8798 C 834.133 -1.59703 0.187516 0
M  V30 8799 O 835.323 -1.68528 0.440896 0
M  V30 8800 C 832.455 -3.26774 0.971154 0
M  V30 8801 H 833.648 -1.98631 2.2469 0
M  V30 8802 H 831.201 -1.00681 1.19553 0
M  V30 8803 H 831.936 -3.243 0.0028557 0
M  V30 8804 H 831.721 -3.50488 1.75785 0
M  V30 8805 H 833.211 -4.06804 0.943414 0
M  V30 8806 N 833.648 -1.19017 -1.03309 0
M  V30 8807 C 834.896 -0.988258 -1.76289 0
M  V30 8808 C 835.217 0.482557 -1.88935 0
M  V30 8809 O 834.487 1.34969 -1.41987 0
M  V30 8810 H 833.067 -0.36267 -0.653054 0
M  V30 8811 H 835.729 -1.49836 -1.2464 0
M  V30 8812 H 834.825 -1.43273 -2.77271 0
M  V30 8813 N 835.127 1.22348 -0.993418 0
M  V30 8814 C 836.357 1.94842 -0.687023 0
M  V30 8815 C 836.765 1.73594 0.752445 0
M  V30 8816 O 836.108 1.03238 1.51946 0
M  V30 8817 C 836.17 3.47694 -0.913754 0
M  V30 8818 C 835.834 3.92678 -2.33781 0
M  V30 8819 C 836.831 4.0031 -3.31734 0
M  V30 8820 C 834.516 4.25311 -2.67237 0
M  V30 8821 C 836.51 4.39951 -4.61218 0
M  V30 8822 C 834.197 4.64631 -3.9694 0
M  V30 8823 C 835.195 4.71919 -4.93742 0
M  V30 8824 O 834.883 5.10349 -6.21127 0
M  V30 8825 H 834.615 0.626771 -0.253247 0
M  V30 8826 H 837.169 1.56436 -1.33105 0
M  V30 8827 H 835.399 3.86115 -0.212552 0
M  V30 8828 H 837.088 4.01403 -0.602528 0
M  V30 8829 H 837.854 3.75288 -3.07219 0
M  V30 8830 H 833.733 4.18842 -1.92594 0
M  V30 8831 H 837.277 4.45555 -5.36774 0
M  V30 8832 H 833.174 4.89104 -4.21245 0
M  V30 8833 H 833.942 5.2842 -6.25072 0
M  V30 8834 N 836.605 0.766683 1.37694 0
M  V30 8835 C 837.552 0.147725 2.30327 0
M  V30 8836 C 838.522 -0.695366 1.50844 0
M  V30 8837 O 839.707 -0.64878 1.79431 0
M  V30 8838 C 836.847 -0.72935 3.37305 0
M  V30 8839 C 835.96 0.129795 4.31805 0
M  V30 8840 C 835.095 -0.751511 5.25857 0
M  V30 8841 C 834.134 0.110475 6.12 0
M  V30 8842 N 833.271 -0.728522 6.9831 0
M  V30 8843 H 838.111 0.943204 2.82679 0
M  V30 8844 H 835.648 0.476736 1.3916 0
M  V30 8845 H 837.606 -1.25263 3.97951 0
M  V30 8846 H 836.236 -1.49048 2.86329 0
M  V30 8847 H 835.288 0.770829 3.72508 0
M  V30 8848 H 836.6 0.794923 4.92425 0
M  V30 8849 H 835.754 -1.34146 5.91684 0
M  V30 8850 H 834.493 -1.45034 4.65636 0
M  V30 8851 H 833.498 0.712999 5.45157 0
M  V30 8852 H 834.723 0.806557 6.74293 0
M  V30 8853 H 832.669 -1.41206 6.40622 0
M  V30 8854 H 832.586 -0.12058 7.55904 0
M  V30 8855 H 833.854 -1.30303 7.68532 0
M  V30 8856 N 838.083 -1.48885 0.516809 0
M  V30 8857 C 838.993 -2.33185 -0.257293 0
M  V30 8858 C 840.009 -1.4565 -0.951952 0
M  V30 8859 O 841.185 -1.78651 -0.929834 0
M  V30 8860 C 838.25 -3.21465 -1.29851 0
M  V30 8861 C 837.311 -4.24863 -0.615608 0
M  V30 8862 C 836.544 -5.08925 -1.60722 0
M  V30 8863 O 836.767 -4.9475 -2.83863 0
M  V30 8864 O 835.701 -5.90737 -1.15384 0
M  V30 8865 H 839.527 -3.00596 0.433131 0
M  V30 8866 H 837.112 -1.46792 0.277908 0
M  V30 8867 H 838.994 -3.76108 -1.90055 0
M  V30 8868 H 837.669 -2.5673 -1.97158 0
M  V30 8869 H 836.576 -3.74091 0.0265829 0
M  V30 8870 H 837.909 -4.92198 0.0152871 0
M  V30 8871 N 839.561 -0.251338 -1.55583 0
M  V30 8872 C 840.809 0.371434 -1.98657 0
M  V30 8873 C 841.13 1.58143 -1.14087 0
M  V30 8874 O 840.4 1.94607 -0.224708 0
M  V30 8875 H 838.98 0.140225 -0.733721 0
M  V30 8876 H 841.642 -0.351157 -1.9171 0
M  V30 8877 H 840.738 0.677554 -3.04657 0
M  V30 8878 N 841.039 1.57585 0.0217189 0
M  V30 8879 C 842.287 1.89231 0.709641 0
M  V30 8880 C 842.608 0.849964 1.75501 0
M  V30 8881 O 841.878 -0.115485 1.95559 0
M  V30 8882 H 840.458 0.69838 0.265092 0
M  V30 8883 H 843.12 1.94895 -0.0140688 0
M  V30 8884 H 842.216 2.88333 1.19459 0
M  V30 8885 N 842.517 -0.29412 1.54831 0
M  V30 8886 C 843.464 -1.36296 1.86258 0
M  V30 8887 C 844.434 -1.50061 0.712097 0
M  V30 8888 O 845.619 -1.64809 0.961381 0
M  V30 8889 C 842.759 -2.72187 2.12151 0
M  V30 8890 C 841.872 -2.66816 3.39755 0
M  V30 8891 C 841.007 -3.94747 3.55455 0
M  V30 8892 C 840.046 -3.838 4.76827 0
M  V30 8893 N 839.183 -5.03521 4.89296 0
M  V30 8894 H 844.023 -1.08796 2.7743 0
M  V30 8895 H 841.56 -0.526069 1.37371 0
M  V30 8896 H 843.518 -3.51225 2.25159 0
M  V30 8897 H 842.148 -2.97934 1.24237 0
M  V30 8898 H 841.2 -1.79605 3.3533 0
M  V30 8899 H 842.512 -2.5462 4.28917 0
M  V30 8900 H 841.666 -4.82223 3.68166 0
M  V30 8901 H 840.405 -4.09785 2.64438 0
M  V30 8902 H 839.41 -2.94708 4.64141 0
M  V30 8903 H 840.635 -3.70301 5.69258 0
M  V30 8904 H 838.581 -5.1901 4.01204 0
M  V30 8905 H 838.498 -4.93775 5.72471 0
M  V30 8906 H 839.766 -5.92629 5.06371 0
M  V30 8907 N 843.995 -1.47404 -0.557645 0
M  V30 8908 C 845.272 -1.44488 -1.31843 0
M  V30 8909 C 845.652 -0.1416 -2.10625 0
M  V30 8910 O 845 0.876908 -2.11004 0
M  V30 8911 C 845.21 -2.69016 -2.22331 0
M  V30 8912 C 846.558 -3.16212 -2.83364 0
M  V30 8913 O 847.582 -2.69741 -2.32634 0
M  V30 8914 O 846.441 -3.96999 -3.75571 0
M  V30 8915 H 843.535 -0.57578 -0.593639 0
M  V30 8916 H 846.081 -1.59605 -0.576584 0
M  V30 8917 H 844.853 -3.55406 -1.63715 0
M  V30 8918 H 844.476 -2.56484 -3.03812 0
M  V30 8919 N 845.473 0.80434 -1.35529 0
M  V30 8920 C 846.436 1.89788 -1.28503 0
M  V30 8921 C 847.436 1.59601 -0.195983 0
M  V30 8922 O 848.626 1.68292 -0.449827 0
M  V30 8923 C 845.758 3.26255 -0.98847 0
M  V30 8924 H 846.951 1.97436 -2.25741 0
M  V30 8925 H 844.504 1.00046 -1.20086 0
M  V30 8926 H 845.239 3.24294 -0.0200541 0
M  V30 8927 H 845.024 3.49551 -1.77641 0
M  V30 8928 H 846.514 4.06298 -0.964975 0
M  V30 8929 N 846.951 1.19563 1.02676 0
M  V30 8930 C 848.191 1.01072 1.77662 0
M  V30 8931 C 848.555 -0.450344 1.86644 0
M  V30 8932 O 849.756 -0.755132 2.57975 0
M  V30 8933 C 848.027 1.66383 3.16309 0
M  V30 8934 S 849.586 1.62858 4.07459 0
M  V30 8935 H 846.404 0.362644 0.611564 0
M  V30 8936 H 849.006 1.51947 1.23014 0
M  V30 8937 H 847.71 2.71917 3.07391 0
M  V30 8938 H 847.241 1.15596 3.76033 0
M  V30 8939 H 849.256 0.654265 4.91868 0
M  V30 8940 N 848.429 -1.21819 0.999893 0
M  V30 8941 C 849.376 -2.24003 0.556005 0
M  V30 8942 C 850.346 -1.60825 -0.415287 0
M  V30 8943 O 851.531 -1.88123 -0.318481 0
M  V30 8944 C 848.671 -3.44904 -0.116289 0
M  V30 8945 C 847.784 -4.22573 0.897574 0
M  V30 8946 C 846.919 -5.30831 0.198073 0
M  V30 8947 C 845.958 -6.00225 1.19983 0
M  V30 8948 N 845.095 -7.00111 0.528157 0
M  V30 8949 H 849.935 -2.61334 1.43208 0
M  V30 8950 H 847.472 -1.28431 0.717205 0
M  V30 8951 H 849.43 -4.13908 -0.523055 0
M  V30 8952 H 848.06 -3.08315 -0.956108 0
M  V30 8953 H 847.112 -3.52797 1.42262 0
M  V30 8954 H 848.424 -4.70363 1.66013 0
M  V30 8955 H 847.578 -6.06121 -0.265065 0
M  V30 8956 H 846.317 -4.84033 -0.596924 0
M  V30 8957 H 845.322 -5.23711 1.67353 0
M  V30 8958 H 846.547 -6.4911 1.99582 0
M  V30 8959 H 844.493 -6.55534 -0.247276 0
M  V30 8960 H 844.41 -7.45943 1.22904 0
M  V30 8961 H 845.678 -7.7945 0.0880543 0
M  V30 8962 N 849.908 -0.773975 -1.37286 0
M  V30 8963 C 851.156 -0.338636 -1.99243 0
M  V30 8964 C 851.477 1.08919 -1.61746 0
M  V30 8965 O 850.747 1.74822 -0.88397 0
M  V30 8966 H 849.327 -0.12222 -0.736934 0
M  V30 8967 H 851.989 -0.992595 -1.67731 0
M  V30 8968 H 851.085 -0.418055 -3.09287 0
M  V30 8969 N 851.386 1.48609 -0.524698 0
M  V30 8970 C 852.663 1.95454 0.075465 0
M  V30 8971 C 853.043 1.46682 1.51814 0
M  V30 8972 O 852.391 0.690975 2.17802 0
M  V30 8973 C 852.601 3.48981 -0.0363273 0
M  V30 8974 C 853.949 4.24414 0.125624 0
M  V30 8975 O 854.973 3.5618 0.0377239 0
M  V30 8976 O 853.832 5.45625 0.309104 0
M  V30 8977 H 850.926 0.822902 0.0822256 0
M  V30 8978 H 853.472 1.59153 -0.588921 0
M  V30 8979 H 852.244 3.77185 -1.04149 0
M  V30 8980 H 851.867 3.91963 0.667146 0
M  V30 8981 N 852.864 0.259585 1.55447 0
M  V30 8982 C 854.089 -0.368317 2.04103 0
M  V30 8983 C 854.514 -1.49827 1.13725 0
M  V30 8984 O 853.872 -1.80814 0.132705 0
M  V30 8985 C 853.92 -0.841506 3.50644 0
M  V30 8986 O 853.024 -1.95008 3.63381 0
M  V30 8987 H 852.365 -0.0785227 0.659341 0
M  V30 8988 H 854.895 0.389349 2.00861 0
M  V30 8989 H 854.905 -1.14138 3.9171 0
M  V30 8990 H 853.58 -0.0147001 4.15897 0
M  V30 8991 H 852.157 -1.65393 3.34215 0
M  V30 8992 N 854.342 -1.57594 -0.0133615 0
M  V30 8993 C 855.59 -1.89605 -0.699596 0
M  V30 8994 C 855.911 -0.85926 -1.75048 0
M  V30 8995 O 855.181 0.105112 -1.95618 0
M  V30 8996 H 853.761 -0.699776 -0.261385 0
M  V30 8997 H 856.423 -1.94885 0.0244044 0
M  V30 8998 H 855.519 -2.88962 -1.17928 0
M  V30 8999 N 855.82 0.285905 -1.54985 0
M  V30 9000 C 857.068 1.01718 -1.74636 0
M  V30 9001 C 857.389 1.87277 -0.543342 0
M  V30 9002 O 856.659 1.90847 0.442078 0
M  V30 9003 H 855.239 0.378549 -0.643979 0
M  V30 9004 H 857.901 0.313247 -1.92366 0
M  V30 9005 H 856.997 1.66159 -2.64192 0
M  V30 9006 N 857.298 1.47698 0.54982 0
M  V30 9007 C 858.709 1.48474 1.13191 0
M  V30 9008 C 859.06 0.243504 1.94683 0
M  V30 9009 O 858.185 -0.651009 2.06375 0
M  V30 9010 C 858.78 2.69022 2.05944 0
M  V30 9011 C 857.339 2.72733 2.5941 0
M  V30 9012 C 856.486 2.41691 1.35944 0
M  V30 9013 H 859.437 1.55101 0.336048 0
M  V30 9014 H 859.458 2.46412 2.89934 0
M  V30 9015 H 858.97 3.59345 1.46605 0
M  V30 9016 H 857.071 1.86568 3.22526 0
M  V30 9017 H 857.184 3.73628 2.99899 0
M  V30 9018 H 855.548 1.92428 1.66864 0
M  V30 9019 H 856.331 3.34231 0.783869 0
M  V30 9020 N 858.776 -0.797141 1.35954 0
M  V30 9021 C 859.706 -1.92387 1.32323 0
M  V30 9022 C 860.687 -1.68967 0.196007 0
M  V30 9023 O 861.872 -1.90193 0.39245 0
M  V30 9024 C 859.002 -3.29286 1.10398 0
M  V30 9025 C 857.956 -3.67212 2.19862 0
M  V30 9026 C 857.282 -5.02377 1.8309 0
M  V30 9027 C 858.582 -3.76602 3.61896 0
M  V30 9028 H 860.276 -1.95683 2.26602 0
M  V30 9029 H 857.822 -0.94007 1.09081 0
M  V30 9030 H 859.775 -4.07721 1.06495 0
M  V30 9031 H 858.499 -3.26358 0.125668 0
M  V30 9032 H 857.158 -2.91069 2.22878 0
M  V30 9033 H 856.806 -4.95961 0.838527 0
M  V30 9034 H 856.506 -5.28722 2.56372 0
M  V30 9035 H 858.03 -5.8324 1.80729 0
M  V30 9036 H 859.444 -4.45246 3.6115 0
M  V30 9037 H 857.841 -4.14425 4.34018 0
M  V30 9038 H 858.911 -2.77906 3.97361 0
M  V30 9039 N 860.254 -1.20106 -1.0204 0
M  V30 9040 C 861.5 -1.01039 -1.75838 0
M  V30 9041 C 861.833 0.456819 -1.88751 0
M  V30 9042 O 861.108 1.33919 -1.41053 0
M  V30 9043 C 861.391 -1.69009 -3.17975 0
M  V30 9044 C 861.244 -3.2315 -3.1288 0
M  V30 9045 C 862.563 -1.42005 -4.16561 0
M  V30 9046 H 859.682 -0.368465 -0.638281 0
M  V30 9047 H 862.324 -1.48066 -1.19064 0
M  V30 9048 H 860.474 -1.29026 -3.66449 0
M  V30 9049 H 862.146 -3.72402 -2.72239 0
M  V30 9050 H 860.389 -3.54253 -2.50374 0
M  V30 9051 H 861.06 -3.65862 -4.13339 0
M  V30 9052 H 863.536 -1.76685 -3.76725 0
M  V30 9053 H 862.412 -1.92101 -5.14187 0
M  V30 9054 H 862.673 -0.346884 -4.40737 0
M  V30 9055 N 861.732 1.21287 -1.00634 0
M  V30 9056 C 862.972 1.92106 -0.698194 0
M  V30 9057 C 863.336 1.76437 0.757222 0
M  V30 9058 O 864.537 2.41641 1.17741 0
M  V30 9059 C 862.808 3.39748 -1.10932 0
M  V30 9060 S 864.367 4.29013 -0.921586 0
M  V30 9061 H 861.185 0.663755 -0.254853 0
M  V30 9062 H 863.787 1.46772 -1.29145 0
M  V30 9063 H 862.491 3.48669 -2.16467 0
M  V30 9064 H 862.022 3.90101 -0.508419 0
M  V30 9065 H 864.037 4.95871 0.180578 0
M  V30 9066 N 863.21 0.781244 1.36873 0
M  V30 9067 C 864.157 0.172146 2.30157 0
M  V30 9068 C 865.127 -0.679328 1.51573 0
M  V30 9069 O 866.312 -0.629713 1.80109 0
M  V30 9070 C 863.452 -0.693534 3.38059 0
M  V30 9071 C 862.565 0.175586 4.31643 0
M  V30 9072 C 861.7 -0.695695 5.26625 0
M  V30 9073 C 860.739 0.17538 6.11849 0
M  V30 9074 N 859.876 -0.654416 6.99043 0
M  V30 9075 H 864.716 0.973133 2.81663 0
M  V30 9076 H 862.253 0.491469 1.38647 0
M  V30 9077 H 864.211 -1.21035 3.99257 0
M  V30 9078 H 862.841 -1.46003 2.87894 0
M  V30 9079 H 861.893 0.810295 3.7167 0
M  V30 9080 H 863.205 0.847107 4.91554 0
M  V30 9081 H 862.359 -1.27863 5.93073 0
M  V30 9082 H 861.098 -1.40087 4.67148 0
M  V30 9083 H 860.103 0.77078 5.4437 0
M  V30 9084 H 861.328 0.87803 6.734 0
M  V30 9085 H 859.274 -1.34403 6.42084 0
M  V30 9086 H 859.191 -0.0403998 7.55989 0
M  V30 9087 H 860.459 -1.22144 7.69871 0
M  V30 9088 N 864.689 -1.48329 0.532571 0
M  V30 9089 C 865.639 -2.2664 -0.24868 0
M  V30 9090 C 866.623 -1.32861 -0.907563 0
M  V30 9091 O 867.815 -1.57382 -0.809942 0
M  V30 9092 C 864.944 -3.18004 -1.29339 0
M  V30 9093 C 864.03 -4.19256 -0.639166 0
M  V30 9094 N 864.421 -5.05043 0.276597 0
M  V30 9095 C 862.719 -4.36906 -0.896062 0
M  V30 9096 C 863.42 -5.78009 0.654261 0
M  V30 9097 N 862.396 -5.43598 0.0147447 0
M  V30 9098 H 866.198 -2.90344 0.455792 0
M  V30 9099 H 863.712 -1.58566 0.350778 0
M  V30 9100 H 865.709 -3.72767 -1.86682 0
M  V30 9101 H 864.369 -2.55855 -1.99921 0
M  V30 9102 H 865.38 -5.13813 0.649351 0
M  V30 9103 H 862.057 -3.85945 -1.59226 0
M  V30 9104 H 863.447 -6.57039 1.40532 0
M  V30 9105 N 866.167 -0.267825 -1.55308 0
M  V30 9106 C 867.115 0.638848 -2.23655 0
M  V30 9107 C 868.109 1.16363 -1.2311 0
M  V30 9108 O 869.315 1.1181 -1.41062 0
M  V30 9109 H 865.69 0.224551 -0.717691 0
M  V30 9110 H 867.661 0.0394809 -2.98374 0
M  V30 9111 C 866.41 1.8151 -2.96562 0
M  V30 9112 H 865.733 1.42048 -3.73715 0
M  V30 9113 H 867.173 2.42629 -3.47717 0
M  V30 9114 C 865.632 2.69911 -2.01618 0
M  V30 9115 O 866.162 3.70058 -1.56268 0
M  V30 9116 N 864.368 2.36924 -1.68272 0
M  V30 9117 H 863.915 1.55533 -2.05347 0
M  V30 9118 H 863.873 2.96343 -1.05016 0
M  V30 9119 N 867.645 1.57599 0.00500368 0
M  V30 9120 C 868.893 1.89973 0.68953 0
M  V30 9121 C 869.214 0.868531 1.7459 0
M  V30 9122 O 868.484 -0.0947367 1.95671 0
M  V30 9123 H 867.064 0.701153 0.25767 0
M  V30 9124 H 869.726 1.94869 -0.0347392 0
M  V30 9125 H 868.822 2.89584 1.16394 0
M  V30 9126 N 869.123 -0.277682 1.55134 0
M  V30 9127 C 870.056 -1.3685 1.82612 0
M  V30 9128 C 871.034 -1.47752 0.678833 0
M  V30 9129 O 872.218 -1.6445 0.921329 0
M  V30 9130 C 869.345 -2.74539 1.98359 0
M  V30 9131 C 868.391 -2.80945 3.20893 0
M  V30 9132 S 869.224 -2.40666 4.78373 0
M  V30 9133 C 870.38 -3.80338 4.97085 0
M  V30 9134 H 870.613 -1.13338 2.74849 0
M  V30 9135 H 868.146 -0.477063 1.46845 0
M  V30 9136 H 870.104 -3.53834 2.08115 0
M  V30 9137 H 868.765 -2.95306 1.07019 0
M  V30 9138 H 867.958 -3.81992 3.28783 0
M  V30 9139 H 867.56 -2.09667 3.09703 0
M  V30 9140 H 869.852 -4.75565 4.8254 0
M  V30 9141 H 870.795 -3.77403 5.99143 0
M  V30 9142 H 871.203 -3.71424 4.25094 0
M  V30 9143 N 870.601 -1.47988 -0.541979 0
M  V30 9144 C 871.847 -1.56604 -1.29795 0
M  V30 9145 C 872.202 -0.231728 -1.90999 0
M  V30 9146 O 871.495 0.764203 -1.757 0
M  V30 9147 C 871.689 -2.63189 -2.41798 0
M  V30 9148 C 871.518 -4.06855 -1.9157 0
M  V30 9149 C 870.288 -4.74132 -1.74719 0
M  V30 9150 C 872.486 -4.934 -1.45123 0
M  V30 9151 N 870.468 -6.02258 -1.18991 0
M  V30 9152 C 871.839 -6.11675 -1.01263 0
M  V30 9153 C 873.894 -4.7972 -1.33315 0
M  V30 9154 C 872.597 -7.17778 -0.467663 0
M  V30 9155 C 874.623 -5.85934 -0.802192 0
M  V30 9156 C 873.985 -7.03409 -0.373595 0
M  V30 9157 H 870.084 -0.627677 -0.466418 0
M  V30 9158 H 872.668 -1.84812 -0.612576 0
M  V30 9159 H 870.839 -2.36823 -3.07846 0
M  V30 9160 H 872.571 -2.6156 -3.08818 0
M  V30 9161 H 869.326 -4.30276 -1.97887 0
M  V30 9162 H 869.75 -6.70558 -0.931715 0
M  V30 9163 H 874.392 -3.89249 -1.6506 0
M  V30 9164 H 872.11 -8.07982 -0.137874 0
M  V30 9165 H 875.696 -5.774 -0.714171 0
M  V30 9166 H 874.576 -7.84194 0.0308796 0
M  V30 9167 N 872.079 0.78992 -1.36375 0
M  V30 9168 C 873.495 1.0879 -1.16777 0
M  V30 9169 C 873.695 2.01498 0.00848236 0
M  V30 9170 O 872.751 2.43338 0.674007 0
M  V30 9171 C 874.064 1.70285 -2.47837 0
M  V30 9172 C 875.612 1.82629 -2.54196 0
M  V30 9173 C 876.087 2.47539 -3.85342 0
M  V30 9174 N 877.578 2.55008 -3.86685 0
M  V30 9175 C 878.313 3.06041 -4.84898 0
M  V30 9176 N 877.809 3.57385 -5.93505 0
M  V30 9177 N 879.602 3.04748 -4.72319 0
M  V30 9178 H 871.753 0.173985 -2.11686 0
M  V30 9179 H 874.016 0.139798 -0.937636 0
M  V30 9180 H 873.722 1.09633 -3.34176 0
M  V30 9181 H 873.596 2.69799 -2.63607 0
M  V30 9182 H 875.983 2.42419 -1.68276 0
M  V30 9183 H 876.064 0.81923 -2.42327 0
M  V30 9184 H 875.708 1.88393 -4.71668 0
M  V30 9185 H 875.638 3.48815 -3.94507 0
M  V30 9186 H 878.129 2.18651 -3.08221 0
M  V30 9187 H 878.442 3.94674 -6.64419 0
M  V30 9188 H 876.787 3.55538 -5.97175 0
M  V30 9189 H 879.978 2.63925 -3.86602 0
M  V30 9190 H 880.151 3.44212 -5.49019 0
M  V30 9191 N 873.557 1.20646 1.01402 0
M  V30 9192 C 874.487 0.98155 2.11867 0
M  V30 9193 C 875.468 -0.0903712 1.6986 0
M  V30 9194 O 876.653 0.0676586 1.94082 0
M  V30 9195 C 873.783 0.535636 3.43145 0
M  V30 9196 C 872.737 1.55109 3.98905 0
M  V30 9197 C 872.063 0.961725 5.2598 0
M  V30 9198 C 873.363 2.93552 4.32001 0
M  V30 9199 H 875.057 1.90544 2.3094 0
M  V30 9200 H 872.603 0.917554 1.10982 0
M  V30 9201 H 874.556 0.365512 4.19812 0
M  V30 9202 H 873.28 -0.423882 3.23838 0
M  V30 9203 H 871.939 1.70862 3.24348 0
M  V30 9204 H 871.587 -0.00580108 5.03 0
M  V30 9205 H 871.287 1.63993 5.64252 0
M  V30 9206 H 872.811 0.802726 6.053 0
M  V30 9207 H 874.225 2.81295 4.99546 0
M  V30 9208 H 872.622 3.58303 4.81393 0
M  V30 9209 H 873.692 3.4508 3.40658 0
M  V30 9210 N 875.035 -1.20752 1.01276 0
M  V30 9211 C 876.281 -1.90302 0.700924 0
M  V30 9212 C 876.614 -1.78406 -0.767142 0
M  V30 9213 O 875.889 -1.16575 -1.55694 0
M  V30 9214 C 876.172 -3.41831 1.13242 0
M  V30 9215 C 876.025 -3.6268 2.66051 0
M  V30 9216 C 877.344 -4.34486 0.700738 0
M  V30 9217 H 874.463 -0.69107 0.256107 0
M  V30 9218 H 877.105 -1.42227 1.25982 0
M  V30 9219 H 875.255 -3.82906 0.656902 0
M  V30 9220 H 876.927 -3.30882 3.21426 0
M  V30 9221 H 875.17 -3.06281 3.07204 0
M  V30 9222 H 875.841 -4.68882 2.91296 0
M  V30 9223 H 878.317 -4.01036 1.10948 0
M  V30 9224 H 877.193 -5.39136 1.03073 0
M  V30 9225 H 877.454 -4.40307 -0.39778 0
M  V30 9226 N 876.513 -0.788492 -1.36457 0
M  V30 9227 C 877.761 -0.359749 -1.98872 0
M  V30 9228 C 878.082 1.07197 -1.62892 0
M  V30 9229 O 877.352 1.73875 -0.902463 0
M  V30 9230 H 875.932 -0.130029 -0.735596 0
M  V30 9231 H 878.594 -1.01033 -1.66668 0
M  V30 9232 H 877.69 -0.450835 -3.08827 0
M  V30 9233 N 877.991 1.48044 -0.54043 0
M  V30 9234 C 879.24 2.01698 -0.00809961 0
M  V30 9235 C 879.553 1.42184 1.34325 0
M  V30 9236 O 880.759 1.87398 1.96454 0
M  V30 9237 C 879.215 3.59882 0.035933 0
M  V30 9238 C 878.823 4.28384 -1.31115 0
M  V30 9239 C 880.567 4.21346 0.51654 0
M  V30 9240 C 878.474 5.78529 -1.22714 0
M  V30 9241 H 877.404 0.754 0.000742174 0
M  V30 9242 H 880.055 1.70204 -0.685775 0
M  V30 9243 H 878.437 3.88264 0.778906 0
M  V30 9244 H 879.611 4.11663 -2.07051 0
M  V30 9245 H 877.926 3.78837 -1.72834 0
M  V30 9246 H 880.523 5.31351 0.597529 0
M  V30 9247 H 880.866 3.87373 1.52473 0
M  V30 9248 H 881.399 3.97432 -0.171064 0
M  V30 9249 H 878.138 6.17093 -2.21081 0
M  V30 9250 H 877.658 5.97634 -0.50931 0
M  V30 9251 H 879.337 6.40395 -0.92216 0
M  V30 9252 N 879.47 0.276058 1.55163 0
M  V30 9253 C 880.698 -0.343772 2.04024 0
M  V30 9254 C 881.113 -1.49397 1.15438 0
M  V30 9255 O 880.47 -1.81662 0.174692 0
M  V30 9256 C 880.521 -0.823885 3.51986 0
M  V30 9257 O 880.242 0.280507 4.37201 0
M  V30 9258 C 881.743 -1.51143 4.16738 0
M  V30 9259 H 878.963 -0.07828 0.666418 0
M  V30 9260 H 881.507 0.408427 2.0038 0
M  V30 9261 H 879.662 -1.52617 3.56071 0
M  V30 9262 H 880.076 -0.0887831 5.24425 0
M  V30 9263 H 881.55 -1.79878 5.2187 0
M  V30 9264 H 882.027 -2.44327 3.64967 0
M  V30 9265 H 882.633 -0.852975 4.16659 0
M  V30 9266 N 880.948 -1.576 0.00335426 0
M  V30 9267 C 882.173 -1.95398 -0.695311 0
M  V30 9268 C 882.598 -0.878476 -1.66326 0
M  V30 9269 O 881.956 0.163086 -1.80565 0
M  V30 9270 C 882.004 -3.32293 -1.40049 0
M  V30 9271 O 881.108 -3.26834 -2.51502 0
M  V30 9272 H 880.449 -0.637796 -0.184694 0
M  V30 9273 H 882.979 -2.04519 0.057543 0
M  V30 9274 H 882.989 -3.67936 -1.76316 0
M  V30 9275 H 881.664 -4.10123 -0.690803 0
M  V30 9276 H 880.241 -3.02872 -2.17539 0
M  V30 9277 N 882.426 0.269451 -1.5528 0
M  V30 9278 C 883.672 0.997946 -1.77236 0
M  V30 9279 C 884.027 1.83808 -0.568546 0
M  V30 9280 O 883.32 1.8651 0.438706 0
M  V30 9281 C 883.514 1.91 -3.02082 0
M  V30 9282 C 883.343 1.15963 -4.34491 0
M  V30 9283 C 882.113 0.873873 -4.97686 0
M  V30 9284 C 884.311 0.548307 -5.11369 0
M  V30 9285 N 882.293 0.0970863 -6.13823 0
M  V30 9286 C 883.664 -0.0941413 -6.19929 0
M  V30 9287 C 885.719 0.456507 -4.95803 0
M  V30 9288 C 884.422 -0.819547 -7.14616 0
M  V30 9289 C 886.448 -0.255315 -5.90849 0
M  V30 9290 C 885.81 -0.886488 -6.988 0
M  V30 9291 H 881.909 0.347038 -0.700777 0
M  V30 9292 H 884.493 0.273262 -1.92773 0
M  V30 9293 H 882.664 2.60691 -2.87915 0
M  V30 9294 H 884.396 2.57237 -3.12428 0
M  V30 9295 H 881.151 1.18003 -4.58663 0
M  V30 9296 H 881.575 -0.278741 -6.76426 0
M  V30 9297 H 886.217 0.930164 -4.12441 0
M  V30 9298 H 883.935 -1.30488 -7.97495 0
M  V30 9299 H 887.521 -0.32671 -5.80882 0
M  V30 9300 H 886.401 -1.42851 -7.71079 0
M  V30 9301 N 883.904 1.48273 0.534124 0
M  V30 9302 C 885.152 1.55771 1.28762 0
M  V30 9303 C 885.473 0.231575 1.9362 0
M  V30 9304 O 884.743 -0.746533 1.81118 0
M  V30 9305 H 883.323 0.573851 0.47823 0
M  V30 9306 H 885.985 1.84712 0.621888 0
M  V30 9307 H 885.081 2.33657 2.06908 0
M  V30 9308 N 885.382 -0.782676 1.36792 0
M  V30 9309 C 886.292 -1.92679 1.33835 0
M  V30 9310 C 887.308 -1.72344 0.23952 0
M  V30 9311 O 888.484 -1.95766 0.473045 0
M  V30 9312 C 885.549 -3.27644 1.1336 0
M  V30 9313 C 884.61 -3.6071 2.32781 0
M  V30 9314 C 883.843 -4.89234 2.13273 0
M  V30 9315 O 884.066 -5.59468 1.11136 0
M  V30 9316 O 883 -5.21112 3.01208 0
M  V30 9317 H 886.826 -1.98124 2.30175 0
M  V30 9318 H 884.411 -0.923887 1.17408 0
M  V30 9319 H 886.293 -4.08394 1.03886 0
M  V30 9320 H 884.968 -3.23076 0.200868 0
M  V30 9321 H 883.875 -2.80238 2.47825 0
M  V30 9322 H 885.208 -3.70008 3.24584 0
M  V30 9323 N 886.86 -1.21182 -1.00761 0
M  V30 9324 C 888.108 -1.02543 -1.74153 0
M  V30 9325 C 888.429 0.442372 -1.89916 0
M  V30 9326 O 887.699 1.31927 -1.44818 0
M  V30 9327 H 886.279 -0.37644 -0.645214 0
M  V30 9328 H 888.941 -1.52446 -1.21434 0
M  V30 9329 H 888.037 -1.49122 -2.7417 0
M  V30 9330 N 888.338 1.20213 -1.01915 0
M  V30 9331 C 889.578 1.91354 -0.71853 0
M  V30 9332 C 889.942 1.77231 0.738466 0
M  V30 9333 O 891.143 2.42876 1.15172 0
M  V30 9334 C 889.414 3.38552 -1.14529 0
M  V30 9335 S 890.973 4.28011 -0.967037 0
M  V30 9336 H 887.791 0.661015 -0.261879 0
M  V30 9337 H 890.393 1.45394 -1.30694 0
M  V30 9338 H 889.097 3.46354 -2.20153 0
M  V30 9339 H 888.628 3.8954 -0.549766 0
M  V30 9340 H 890.643 4.96035 0.127974 0
M  V30 9341 N 889.816 0.795718 1.36037 0
M  V30 9342 C 890.779 0.204318 2.28287 0
M  V30 9343 C 891.779 -0.602017 1.49105 0
M  V30 9344 O 892.969 -0.422089 1.69009 0
M  V30 9345 C 890.101 -0.716431 3.33287 0
M  V30 9346 H 891.294 1.01781 2.821 0
M  V30 9347 H 888.847 0.565588 1.45708 0
M  V30 9348 H 889.582 -1.55403 2.84641 0
M  V30 9349 H 889.367 -0.140096 3.9185 0
M  V30 9350 H 890.857 -1.12488 4.02164 0
M  V30 9351 N 891.294 -1.47756 0.548274 0
M  V30 9352 C 892.71 -1.58247 0.207401 0
M  V30 9353 C 892.91 -1.54804 -1.28988 0
M  V30 9354 O 891.966 -1.44673 -2.06944 0
M  V30 9355 C 893.279 -2.89129 0.826142 0
M  V30 9356 C 894.827 -3.02695 0.79655 0
M  V30 9357 C 895.302 -4.36264 1.3942 0
M  V30 9358 N 896.793 -4.42877 1.35698 0
M  V30 9359 C 897.528 -5.44773 1.78913 0
M  V30 9360 N 897.024 -6.53528 2.29942 0
M  V30 9361 N 898.817 -5.35765 1.70038 0
M  V30 9362 H 890.968 -1.48236 1.52117 0
M  V30 9363 H 893.231 -0.704957 0.633829 0
M  V30 9364 H 892.937 -2.97358 1.87806 0
M  V30 9365 H 892.811 -3.75891 0.313916 0
M  V30 9366 H 895.198 -2.94067 -0.246655 0
M  V30 9367 H 895.279 -2.17496 1.34644 0
M  V30 9368 H 894.923 -4.45646 2.43642 0
M  V30 9369 H 894.853 -5.20179 0.819827 0
M  V30 9370 H 897.344 -3.64874 0.983623 0
M  V30 9371 H 897.657 -7.27441 2.60863 0
M  V30 9372 H 896.002 -6.54442 2.33947 0
M  V30 9373 H 899.193 -4.49699 1.29955 0
M  V30 9374 H 899.366 -6.1504 2.04035 0
M  V30 9375 N 892.772 -0.284283 -1.55015 0
M  V30 9376 C 894.188 0.069603 -1.59448 0
M  V30 9377 C 894.388 1.53833 -1.30144 0
M  V30 9378 O 893.444 2.2886 -1.06674 0
M  V30 9379 C 894.757 -0.313287 -2.99064 0
M  V30 9380 C 896.305 -0.260662 -3.11913 0
M  V30 9381 C 896.78 -0.618127 -4.5381 0
M  V30 9382 N 898.271 -0.570026 -4.59679 0
M  V30 9383 C 899.006 -0.8193 -5.67517 0
M  V30 9384 N 898.502 -1.13367 -6.83462 0
M  V30 9385 N 900.295 -0.747482 -5.57108 0
M  V30 9386 H 892.446 -1.24167 -1.72326 0
M  V30 9387 H 894.709 -0.502259 -0.804015 0
M  V30 9388 H 894.415 -1.33509 -3.25374 0
M  V30 9389 H 894.289 0.341369 -3.75652 0
M  V30 9390 H 896.676 0.751869 -2.85361 0
M  V30 9391 H 896.757 -0.949706 -2.37517 0
M  V30 9392 H 896.401 -1.62839 -4.81088 0
M  V30 9393 H 896.331 0.092807 -5.26518 0
M  V30 9394 H 898.822 -0.3373 -3.76392 0
M  V30 9395 H 899.135 -1.3103 -7.61611 0
M  V30 9396 H 897.48 -1.17154 -6.85055 0
M  V30 9397 H 900.671 -0.501658 -4.65404 0
M  V30 9398 H 900.844 -0.945128 -6.4107 0
M  V30 9399 N 894.251 1.57596 -0.0117121 0
M  V30 9400 C 895.161 2.12596 0.991964 0
M  V30 9401 C 896.177 1.07399 1.36899 0
M  V30 9402 O 897.353 1.39365 1.45394 0
M  V30 9403 C 894.418 2.62796 2.2614 0
M  V30 9404 C 893.479 3.8264 1.94642 0
M  V30 9405 C 892.712 4.30435 3.15533 0
M  V30 9406 O 892.935 3.77495 4.27614 0
M  V30 9407 O 891.869 5.22469 2.98847 0
M  V30 9408 H 895.695 2.98597 0.554371 0
M  V30 9409 H 893.28 1.47947 0.207839 0
M  V30 9410 H 895.162 2.9523 3.00695 0
M  V30 9411 H 893.837 1.79886 2.69114 0
M  V30 9412 H 892.744 3.5516 1.17526 0
M  V30 9413 H 894.077 4.66658 1.56496 0
M  V30 9414 N 895.729 -0.261212 1.5542 0
M  V30 9415 C 896.661 -1.34571 1.85535 0
M  V30 9416 C 897.674 -1.44979 0.740612 0
M  V30 9417 O 898.863 -1.46584 1.01859 0
M  V30 9418 C 895.963 -2.7258 2.01378 0
M  V30 9419 C 895.136 -2.84618 3.32131 0
M  V30 9420 C 894.195 -4.03379 3.37893 0
M  V30 9421 O 893.221 -3.93581 4.11197 0
M  V30 9422 N 894.423 -5.15893 2.66148 0
M  V30 9423 H 897.188 -1.09078 2.79145 0
M  V30 9424 H 894.749 -0.451327 1.55482 0
M  V30 9425 H 896.741 -3.50342 2.0259 0
M  V30 9426 H 895.311 -2.90844 1.14579 0
M  V30 9427 H 894.531 -1.93647 3.43358 0
M  V30 9428 H 895.819 -2.896 4.18341 0
M  V30 9429 H 895.217 -5.26743 2.06297 0
M  V30 9430 H 893.774 -5.91842 2.73069 0
M  V30 9431 N 897.207 -1.48554 -0.526253 0
M  V30 9432 C 898.618 -1.50256 -1.10815 0
M  V30 9433 C 898.969 -0.274445 -1.94271 0
M  V30 9434 O 898.094 0.618094 -2.07385 0
M  V30 9435 C 898.689 -2.72264 -2.01638 0
M  V30 9436 C 897.248 -2.76826 -2.55038 0
M  V30 9437 C 896.395 -2.43823 -1.32081 0
M  V30 9438 H 899.346 -1.55616 -0.31133 0
M  V30 9439 H 899.367 -2.50993 -2.85977 0
M  V30 9440 H 898.879 -3.61632 -1.4087 0
M  V30 9441 H 896.98 -1.91676 -3.19517 0
M  V30 9442 H 897.093 -3.78351 -2.93917 0
M  V30 9443 H 895.457 -1.95058 -1.63781 0
M  V30 9444 H 896.24 -3.35436 -0.730596 0
M  V30 9445 N 898.685 0.775411 -1.37205 0
M  V30 9446 C 899.933 1.53081 -1.3195 0
M  V30 9447 C 900.254 1.9476 0.0966864 0
M  V30 9448 O 899.524 1.66019 1.03993 0
M  V30 9449 H 898.104 0.567762 -0.485444 0
M  V30 9450 H 900.766 0.92309 -1.71654 0
M  V30 9451 H 899.862 2.4319 -1.95614 0
M  V30 9452 N 900.163 1.21714 1.00117 0
M  V30 9453 C 901.409 1.03823 1.74208 0
M  V30 9454 C 901.742 -0.426733 1.89454 0
M  V30 9455 O 901.017 -1.31658 1.43166 0
M  V30 9456 C 901.3 1.74047 3.15246 0
M  V30 9457 C 901.153 3.28087 3.077 0
M  V30 9458 C 902.472 1.48614 4.14249 0
M  V30 9459 H 899.591 0.378573 0.632338 0
M  V30 9460 H 902.233 1.49942 1.16694 0
M  V30 9461 H 900.383 1.3484 3.64349 0
M  V30 9462 H 902.055 3.76686 2.6628 0
M  V30 9463 H 900.298 3.58191 2.44707 0
M  V30 9464 H 900.969 3.72392 4.07466 0
M  V30 9465 H 903.445 1.82656 3.73866 0
M  V30 9466 H 902.321 2.00257 5.11066 0
M  V30 9467 H 902.582 0.416957 4.40129 0
M  V30 9468 N 901.641 -1.19671 1.02551 0
M  V30 9469 C 902.871 -1.92952 0.738441 0
M  V30 9470 C 903.279 -1.75528 -0.706155 0
M  V30 9471 O 902.622 -1.0723 -1.49156 0
M  V30 9472 C 902.684 -3.45149 1.00562 0
M  V30 9473 C 902.348 -3.86341 2.44109 0
M  V30 9474 C 903.345 -3.91374 3.42231 0
M  V30 9475 C 901.03 -4.18076 2.7842 0
M  V30 9476 C 903.024 -4.27568 4.7272 0
M  V30 9477 C 900.711 -4.53943 4.0912 0
M  V30 9478 C 901.709 -4.58663 5.06081 0
M  V30 9479 O 901.397 -4.93701 6.3444 0
M  V30 9480 H 901.129 -0.619836 0.269776 0
M  V30 9481 H 903.683 -1.52852 1.37206 0
M  V30 9482 H 901.913 -3.85416 0.314849 0
M  V30 9483 H 903.602 -3.99664 0.708742 0
M  V30 9484 H 904.368 -3.67011 3.17061 0
M  V30 9485 H 900.247 -4.13589 2.03631 0
M  V30 9486 H 903.791 -4.31166 5.48399 0
M  V30 9487 H 899.688 -4.77764 4.34064 0
M  V30 9488 H 900.456 -5.11662 6.38862 0
M  V30 9489 N 903.119 -0.802921 -1.35613 0
M  V30 9490 C 904.347 -0.39393 -2.03115 0
M  V30 9491 C 904.762 0.993961 -1.60517 0
M  V30 9492 O 904.119 1.63984 -0.800973 0
M  V30 9493 C 904.17 -0.463486 -3.58516 0
M  V30 9494 O 903.891 -1.79666 -3.99565 0
M  V30 9495 C 905.392 -0.0468377 -4.43275 0
M  V30 9496 H 902.612 -0.160519 -0.651517 0
M  V30 9497 H 905.156 -1.08552 -1.73311 0
M  V30 9498 H 903.311 0.179821 -3.86982 0
M  V30 9499 H 903.725 -1.75688 -4.942 0
M  V30 9500 H 905.199 -0.146626 -5.51805 0
M  V30 9501 H 905.676 1.00741 -4.2749 0
M  V30 9502 H 906.282 -0.663158 -4.20098 0
M  V30 9503 N 904.597 1.47463 -0.556102 0
M  V30 9504 C 905.544 2.29998 0.192213 0
M  V30 9505 C 906.514 1.38993 0.909403 0
M  V30 9506 O 907.699 1.67954 0.905316 0
M  V30 9507 C 904.839 3.22932 1.21692 0
M  V30 9508 C 903.952 4.29027 0.505908 0
M  V30 9509 C 903.087 5.09114 1.51581 0
M  V30 9510 C 902.126 6.06984 0.789714 0
M  V30 9511 N 901.263 6.80033 1.74639 0
M  V30 9512 H 906.103 2.93468 -0.517734 0
M  V30 9513 H 903.64 1.44654 -0.267147 0
M  V30 9514 H 905.598 3.75234 1.8236 0
M  V30 9515 H 904.228 2.61329 1.89491 0
M  V30 9516 H 903.28 3.7979 -0.215276 0
M  V30 9517 H 904.592 4.9876 -0.062958 0
M  V30 9518 H 903.746 5.6556 2.19606 0
M  V30 9519 H 902.485 4.3928 2.11859 0
M  V30 9520 H 901.49 5.49717 0.0955382 0
M  V30 9521 H 902.715 6.78827 0.192688 0
M  V30 9522 H 900.661 6.12931 2.33777 0
M  V30 9523 H 900.578 7.45933 1.22965 0
M  V30 9524 H 901.846 7.41054 2.41782 0
M  V30 9525 N 906.075 0.2925 1.54862 0
M  V30 9526 C 907.321 -0.319736 2.00264 0
M  V30 9527 C 907.654 -1.5419 1.18064 0
M  V30 9528 O 906.929 -1.92821 0.254983 0
M  V30 9529 C 907.212 -0.684753 3.5353 0
M  V30 9530 C 907.065 0.545961 4.46474 0
M  V30 9531 C 908.384 -1.51456 4.13218 0
M  V30 9532 H 905.503 -0.11474 0.728014 0
M  V30 9533 H 908.145 0.402907 1.85679 0
M  V30 9534 H 906.295 -1.30044 3.66089 0
M  V30 9535 H 907.967 1.18448 4.45834 0
M  V30 9536 H 906.21 1.1808 4.1742 0
M  V30 9537 H 906.881 0.246544 5.51449 0
M  V30 9538 H 909.357 -0.994421 4.04043 0
M  V30 9539 H 908.233 -1.73875 5.20633 0
M  V30 9540 H 908.494 -2.5011 3.64551 0
M  V30 9541 N 907.553 -1.57587 0.0200696 0
M  V30 9542 C 908.516 -2.08595 -0.949767 0
M  V30 9543 C 909.516 -0.999215 -1.25985 0
M  V30 9544 O 910.706 -1.26115 -1.2017 0
M  V30 9545 C 907.838 -2.54424 -2.26895 0
M  V30 9546 H 909.031 -2.95563 -0.508161 0
M  V30 9547 H 906.584 -1.54631 -0.227798 0
M  V30 9548 H 907.319 -1.70758 -2.75703 0
M  V30 9549 H 907.104 -3.3381 -2.05702 0
M  V30 9550 H 908.594 -2.94144 -2.96427 0
M  V30 9551 N 909.032 0.252966 -1.55557 0
M  V30 9552 C 909.942 1.33472 -1.92931 0
M  V30 9553 C 910.958 1.52983 -0.828985 0
M  V30 9554 O 912.134 1.66723 -1.12984 0
M  V30 9555 C 909.199 2.6704 -2.21112 0
M  V30 9556 C 908.26 2.56103 -3.44542 0
M  V30 9557 C 907.493 3.83302 -3.71369 0
M  V30 9558 O 907.716 4.84907 -3.00368 0
M  V30 9559 O 906.65 3.823 -4.64898 0
M  V30 9560 H 910.476 1.04768 -2.85057 0
M  V30 9561 H 908.061 0.453208 -1.4236 0
M  V30 9562 H 909.943 3.45981 -2.40572 0
M  V30 9563 H 908.618 2.95489 -1.32166 0
M  V30 9564 H 907.525 1.7547 -3.30396 0
M  V30 9565 H 908.858 2.32601 -4.33772 0
M  V30 9566 N 910.51 1.48831 0.518367 0
M  V30 9567 C 911.74 1.60886 1.29612 0
M  V30 9568 C 912.148 0.272713 1.87224 0
M  V30 9569 O 911.491 -0.749653 1.67708 0
M  V30 9570 C 911.553 2.60541 2.47707 0
M  V30 9571 C 911.217 4.05324 2.11095 0
M  V30 9572 C 912.214 4.92658 1.66084 0
M  V30 9573 C 909.899 4.50942 2.21262 0
M  V30 9574 C 911.893 6.23641 1.3172 0
M  V30 9575 C 909.58 5.81943 1.8651 0
M  V30 9576 C 910.578 6.68116 1.41812 0
M  V30 9577 O 910.266 7.96677 1.07522 0
M  V30 9578 H 909.998 0.544968 0.399982 0
M  V30 9579 H 912.552 1.95474 0.630799 0
M  V30 9580 H 910.782 2.21098 3.17258 0
M  V30 9581 H 912.471 2.62308 3.09757 0
M  V30 9582 H 913.237 4.58649 1.5769 0
M  V30 9583 H 909.116 3.84048 2.55007 0
M  V30 9584 H 912.66 6.90857 0.967598 0
M  V30 9585 H 908.557 6.15484 1.94549 0
M  V30 9586 H 909.325 8.09534 1.2082 0
M  V30 9587 N 911.988 -0.768124 1.37614 0
M  V30 9588 C 912.921 -1.88894 1.2804 0
M  V30 9589 C 913.899 -1.61809 0.160226 0
M  V30 9590 O 915.083 -1.85498 0.33506 0
M  V30 9591 C 912.21 -3.24197 0.980523 0
M  V30 9592 C 911.256 -3.70188 2.11808 0
M  V30 9593 S 912.089 -3.83433 3.73817 0
M  V30 9594 C 913.245 -5.21578 3.45987 0
M  V30 9595 H 913.478 -1.96726 2.22904 0
M  V30 9596 H 911.011 -0.929602 1.23279 0
M  V30 9597 H 912.969 -4.02342 0.814331 0
M  V30 9598 H 911.63 -3.14061 0.0493122 0
M  V30 9599 H 910.823 -4.6829 1.86335 0
M  V30 9600 H 910.425 -2.99155 2.2446 0
M  V30 9601 H 912.717 -6.06865 3.012 0
M  V30 9602 H 913.66 -5.52065 4.43429 0
M  V30 9603 H 914.068 -4.89687 2.80832 0
M  V30 9604 N 913.466 -1.22244 -0.994698 0
M  V30 9605 C 914.743 -0.954459 -1.70732 0
M  V30 9606 C 915.123 0.530945 -2.04314 0
M  V30 9607 O 914.471 1.49851 -1.72502 0
M  V30 9608 C 914.681 -1.85016 -2.95922 0
M  V30 9609 C 916.029 -2.10517 -3.68738 0
M  V30 9610 O 917.053 -1.82449 -3.05926 0
M  V30 9611 O 915.912 -2.58044 -4.81742 0
M  V30 9612 H 913.006 -0.35879 -0.745116 0
M  V30 9613 H 915.552 -1.33221 -1.0512 0
M  V30 9614 H 914.324 -2.85498 -2.67594 0
M  V30 9615 H 913.947 -1.47388 -3.69273 0
M  V30 9616 N 914.944 1.19125 -1.03184 0
M  V30 9617 C 916.19 1.89428 -0.740857 0
M  V30 9618 C 916.545 1.78302 0.72291 0
M  V30 9619 O 915.838 1.16656 1.51994 0
M  V30 9620 C 916.032 3.39052 -1.13041 0
M  V30 9621 C 915.861 3.64739 -2.6305 0
M  V30 9622 C 914.631 3.82603 -3.30066 0
M  V30 9623 C 916.829 3.66052 -3.61262 0
M  V30 9624 N 914.811 3.95947 -4.69147 0
M  V30 9625 C 916.182 3.85003 -4.85976 0
M  V30 9626 C 918.237 3.49093 -3.55019 0
M  V30 9627 C 916.94 3.88753 -6.05197 0
M  V30 9628 C 918.966 3.54122 -4.73658 0
M  V30 9629 C 918.328 3.73561 -5.97187 0
M  V30 9630 H 914.427 0.71217 -0.323014 0
M  V30 9631 H 917.011 1.43146 -1.31974 0
M  V30 9632 H 915.182 3.8405 -0.579699 0
M  V30 9633 H 916.914 3.96887 -0.791369 0
M  V30 9634 H 913.669 3.81615 -2.80476 0
M  V30 9635 H 914.093 4.06461 -5.41404 0
M  V30 9636 H 918.735 3.33018 -2.60497 0
M  V30 9637 H 916.453 4.03619 -7.00084 0
M  V30 9638 H 920.039 3.42286 -4.70459 0
M  V30 9639 H 918.919 3.7733 -6.87453 0
M  V30 9640 N 916.422 0.810101 1.35185 0
M  V30 9641 C 917.671 0.388589 1.97921 0
M  V30 9642 C 917.984 -1.05079 1.64978 0
M  V30 9643 O 919.19 -1.57559 2.21105 0
M  V30 9644 C 917.646 0.643864 3.54094 0
M  V30 9645 C 917.254 2.09602 3.95943 0
M  V30 9646 C 918.998 0.287883 4.23523 0
M  V30 9647 C 916.905 2.29686 5.44976 0
M  V30 9648 H 915.835 0.141562 0.740592 0
M  V30 9649 H 918.486 0.994653 1.54204 0
M  V30 9650 H 916.868 -0.0321978 3.95987 0
M  V30 9651 H 918.042 2.81018 3.65192 0
M  V30 9652 H 916.357 2.4122 3.39414 0
M  V30 9653 H 918.954 0.415946 5.3308 0
M  V30 9654 H 919.297 -0.766305 4.09186 0
M  V30 9655 H 919.83 0.918004 3.87063 0
M  V30 9656 H 916.569 3.33563 5.64284 0
M  V30 9657 H 916.089 1.62798 5.77284 0
M  V30 9658 H 917.768 2.11411 6.11485 0
M  V30 9659 N 917.9 -1.47166 0.563914 0
M  V30 9660 C 918.83 -2.32894 -0.168148 0
M  V30 9661 C 919.811 -1.44202 -0.902214 0
M  V30 9662 O 920.996 -1.73048 -0.881365 0
M  V30 9663 C 918.126 -3.26116 -1.19439 0
M  V30 9664 C 917.08 -4.24101 -0.576363 0
M  V30 9665 C 916.406 -5.06696 -1.70772 0
M  V30 9666 C 917.706 -5.20142 0.47425 0
M  V30 9667 H 919.4 -2.9435 0.547573 0
M  V30 9668 H 916.946 -1.41545 0.264778 0
M  V30 9669 H 918.899 -3.84935 -1.71474 0
M  V30 9670 H 917.623 -2.62728 -1.94014 0
M  V30 9671 H 916.282 -3.66519 -0.0772534 0
M  V30 9672 H 915.93 -4.39707 -2.44268 0
M  V30 9673 H 915.63 -5.7304 -1.29994 0
M  V30 9674 H 917.154 -5.68375 -2.2312 0
M  V30 9675 H 918.568 -5.73286 0.0397035 0
M  V30 9676 H 916.965 -5.94726 0.801287 0
M  V30 9677 H 918.035 -4.65214 1.36764 0
M  V30 9678 N 919.378 -0.300708 -1.54705 0
M  V30 9679 C 920.288 0.584996 -2.27189 0
M  V30 9680 C 921.304 1.14866 -1.30697 0
M  V30 9681 O 922.48 1.17351 -1.63679 0
M  V30 9682 C 919.545 1.74076 -2.99831 0
M  V30 9683 C 918.606 1.2112 -4.1186 0
M  V30 9684 C 917.839 2.31188 -4.81028 0
M  V30 9685 O 918.062 3.5108 -4.49554 0
M  V30 9686 O 916.996 1.97897 -5.68437 0
M  V30 9687 H 920.822 -0.00298177 -3.037 0
M  V30 9688 H 918.407 -0.0671802 -1.49249 0
M  V30 9689 H 920.289 2.41413 -3.45395 0
M  V30 9690 H 918.964 2.31535 -2.26215 0
M  V30 9691 H 917.871 0.50357 -3.70695 0
M  V30 9692 H 919.204 0.682046 -4.87452 0
M  V30 9693 N 920.856 1.57574 -0.0284266 0
M  V30 9694 C 921.803 2.10176 0.953658 0
M  V30 9695 C 922.773 1.00367 1.32347 0
M  V30 9696 O 923.958 1.27783 1.4169 0
M  V30 9697 C 921.098 2.63287 2.231 0
M  V30 9698 C 920.211 3.87102 1.91771 0
M  V30 9699 C 919.346 4.28609 3.13795 0
M  V30 9700 C 918.385 5.45184 2.78282 0
M  V30 9701 N 917.522 5.81851 3.92929 0
M  V30 9702 H 922.362 2.93806 0.498176 0
M  V30 9703 H 919.899 1.45222 0.234302 0
M  V30 9704 H 921.857 2.9217 2.97813 0
M  V30 9705 H 920.487 1.82489 2.66266 0
M  V30 9706 H 919.539 3.64952 1.07303 0
M  V30 9707 H 920.851 4.71892 1.61615 0
M  V30 9708 H 920.005 4.58925 3.96829 0
M  V30 9709 H 918.744 3.42585 3.47112 0
M  V30 9710 H 917.749 5.14563 1.93661 0
M  V30 9711 H 918.974 6.32907 2.46182 0
M  V30 9712 H 916.92 4.98782 4.2609 0
M  V30 9713 H 916.837 6.6128 3.66395 0
M  V30 9714 H 918.105 6.16772 4.76669 0
M  V30 9715 N 922.334 -0.244713 1.55689 0
M  V30 9716 C 923.562 -0.989944 1.8168 0
M  V30 9717 C 923.977 -1.78863 0.604449 0
M  V30 9718 O 923.334 -1.77437 -0.426907 0
M  V30 9719 C 923.385 -1.92607 3.05916 0
M  V30 9720 O 923.106 -1.1597 4.22472 0
M  V30 9721 C 924.607 -2.78711 3.44724 0
M  V30 9722 H 921.827 -0.2912 0.604519 0
M  V30 9723 H 924.371 -0.266938 2.0275 0
M  V30 9724 H 922.526 -2.60333 2.8689 0
M  V30 9725 H 922.94 -1.79311 4.92898 0
M  V30 9726 H 924.414 -3.40141 4.34751 0
M  V30 9727 H 924.891 -3.49935 2.6541 0
M  V30 9728 H 925.497 -2.16435 3.66109 0
M  V30 9729 N 923.813 -1.49104 -0.510467 0
M  V30 9730 C 924.745 -1.61183 -1.6295 0
M  V30 9731 C 925.758 -0.495003 -1.55092 0
M  V30 9732 O 926.947 -0.766671 -1.61197 0
M  V30 9733 C 924.047 -1.54373 -3.01699 0
M  V30 9734 C 923.22 -2.81428 -3.34838 0
M  V30 9735 C 922.279 -2.67802 -4.52956 0
M  V30 9736 O 921.305 -3.41723 -4.55208 0
M  V30 9737 N 922.507 -1.78715 -5.52305 0
M  V30 9738 H 925.272 -2.57693 -1.53018 0
M  V30 9739 H 922.833 -1.46073 -0.698152 0
M  V30 9740 H 924.825 -1.42924 -3.78622 0
M  V30 9741 H 923.395 -0.657597 -3.05605 0
M  V30 9742 H 922.615 -3.07299 -2.46903 0
M  V30 9743 H 923.903 -3.6568 -3.53773 0
M  V30 9744 H 923.301 -1.17897 -5.53278 0
M  V30 9745 H 921.858 -1.73194 -6.28369 0
M  V30 9746 N 925.291 0.760815 -1.38019 0
M  V30 9747 C 926.516 1.55513 -1.37224 0
M  V30 9748 C 926.941 1.88062 0.037611 0
M  V30 9749 O 926.299 1.50042 1.0177 0
M  V30 9750 C 926.347 2.83539 -2.22796 0
M  V30 9751 O 925.451 3.78384 -1.64009 0
M  V30 9752 H 924.792 0.470642 -0.468393 0
M  V30 9753 H 927.322 0.940792 -1.81687 0
M  V30 9754 H 927.332 3.32535 -2.36399 0
M  V30 9755 H 926.007 2.59178 -3.25269 0
M  V30 9756 H 924.584 3.37063 -1.59508 0
M  V30 9757 N 926.769 1.22769 0.988202 0
M  V30 9758 C 927.994 1.08239 1.76915 0
M  V30 9759 C 928.419 -0.362519 1.84574 0
M  V30 9760 O 927.777 -1.26202 1.30165 0
M  V30 9761 C 927.825 1.70363 3.17819 0
M  V30 9762 O 926.929 0.960484 4.01059 0
M  V30 9763 H 926.27 0.379872 0.544604 0
M  V30 9764 H 928.8 1.62663 1.24104 0
M  V30 9765 H 928.81 1.7528 3.6843 0
M  V30 9766 H 927.485 2.75505 3.1156 0
M  V30 9767 H 926.062 0.987667 3.59582 0
M  V30 9768 N 928.247 -1.18576 1.03814 0
M  V30 9769 C 929.524 -1.8433 0.654358 0
M  V30 9770 C 929.904 -1.92504 -0.866338 0
M  V30 9771 O 929.252 -1.44904 -1.76678 0
M  V30 9772 C 929.462 -3.22778 1.32723 0
M  V30 9773 C 930.81 -3.98841 1.45641 0
M  V30 9774 O 931.834 -3.32209 1.28514 0
M  V30 9775 O 930.693 -5.18219 1.73526 0
M  V30 9776 H 927.787 -0.794766 0.228638 0
M  V30 9777 H 930.333 -1.25989 1.13687 0
M  V30 9778 H 929.105 -3.11717 2.36534 0
M  V30 9779 H 928.728 -3.88772 0.833176 0
M  V30 9780 N 929.725 -0.817259 -1.34754 0
M  V30 9781 C 930.973 -0.401852 -1.98065 0
M  V30 9782 C 931.294 1.03718 -1.65129 0
M  V30 9783 O 930.564 1.71921 -0.939141 0
M  V30 9784 H 929.144 -0.145603 -0.732672 0
M  V30 9785 H 931.806 -1.04545 -1.64488 0
M  V30 9786 H 930.902 -0.516241 -3.07801 0
M  V30 9787 N 931.203 1.46865 -0.571711 0
M  V30 9788 C 932.15 2.30189 0.167808 0
M  V30 9789 C 933.12 1.3995 0.89461 0
M  V30 9790 O 934.305 1.68905 0.887451 0
M  V30 9791 C 931.445 3.24205 1.1826 0
M  V30 9792 C 930.558 4.2954 0.460376 0
M  V30 9793 C 929.693 5.10693 1.46173 0
M  V30 9794 C 928.732 6.07788 0.725291 0
M  V30 9795 N 927.869 6.81847 1.67417 0
M  V30 9796 H 932.709 2.92902 -0.548831 0
M  V30 9797 H 930.246 1.44362 -0.282474 0
M  V30 9798 H 932.204 3.77147 1.7837 0
M  V30 9799 H 930.834 2.63324 1.86709 0
M  V30 9800 H 929.886 3.79541 -0.255546 0
M  V30 9801 H 931.198 4.98665 -0.115855 0
M  V30 9802 H 930.352 5.67857 2.13595 0
M  V30 9803 H 929.091 4.41502 2.07188 0
M  V30 9804 H 928.096 5.49787 0.037228 0
M  V30 9805 H 929.321 6.78993 0.120678 0
M  V30 9806 H 927.267 6.15376 2.27263 0
M  V30 9807 H 927.184 7.47195 1.15046 0
M  V30 9808 H 928.452 7.43577 2.33908 0
M  V30 9809 N 932.681 0.308908 1.54543 0
M  V30 9810 C 933.644 -0.550857 2.22482 0
M  V30 9811 C 934.644 -1.0551 1.21344 0
M  V30 9812 O 935.834 -0.949866 1.46025 0
M  V30 9813 C 932.966 -1.76354 2.9174 0
M  V30 9814 H 934.159 0.0428395 2.99869 0
M  V30 9815 H 931.712 0.059825 1.56185 0
M  V30 9816 H 932.447 -2.39686 2.18451 0
M  V30 9817 H 932.232 -1.40954 3.65889 0
M  V30 9818 H 933.722 -2.37417 3.43545 0
M  V30 9819 N 934.159 -1.57557 0.0367827 0
M  V30 9820 C 935.091 -2.07597 -0.971395 0
M  V30 9821 C 936.104 -1.0009 -1.28397 0
M  V30 9822 O 937.293 -1.27692 -1.24728 0
M  V30 9823 C 934.393 -2.492 -2.2968 0
M  V30 9824 C 933.566 -3.79875 -2.16826 0
M  V30 9825 C 932.625 -4.07946 -3.32366 0
M  V30 9826 O 931.651 -4.78083 -3.0891 0
M  V30 9827 N 932.853 -3.58722 -4.56397 0
M  V30 9828 H 935.618 -2.94714 -0.544389 0
M  V30 9829 H 933.179 -1.61205 -0.1498 0
M  V30 9830 H 935.171 -2.65065 -3.05815 0
M  V30 9831 H 933.741 -1.67407 -2.63995 0
M  V30 9832 H 932.961 -3.73732 -1.2537 0
M  V30 9833 H 934.249 -4.65476 -2.0545 0
M  V30 9834 H 933.647 -3.01994 -4.78347 0
M  V30 9835 H 932.204 -3.79852 -5.29675 0
M  V30 9836 N 935.637 0.236453 -1.55816 0
M  V30 9837 C 936.57 1.3196 -1.86177 0
M  V30 9838 C 937.548 1.459 -0.717769 0
M  V30 9839 O 938.732 1.61949 -0.964606 0
M  V30 9840 C 935.859 2.69183 -2.05568 0
M  V30 9841 C 934.905 2.72338 -3.28229 0
M  V30 9842 S 935.738 2.27898 -4.84585 0
M  V30 9843 C 936.894 3.67025 -5.06994 0
M  V30 9844 H 937.127 1.06011 -2.77757 0
M  V30 9845 H 934.66 0.437961 -1.48058 0
M  V30 9846 H 936.618 3.48191 -2.17423 0
M  V30 9847 H 935.279 2.92365 -1.14811 0
M  V30 9848 H 934.472 3.7314 -3.38795 0
M  V30 9849 H 934.074 2.01382 -3.15153 0
M  V30 9850 H 936.366 4.62604 -4.94979 0
M  V30 9851 H 937.309 3.61385 -6.08939 0
M  V30 9852 H 937.717 3.60022 -4.34792 0
M  V30 9853 N 937.115 1.49373 0.502552 0
M  V30 9854 C 938.047 1.62045 1.62093 0
M  V30 9855 C 939.06 0.503221 1.54827 0
M  V30 9856 O 940.249 0.775208 1.60788 0
M  V30 9857 C 937.349 1.55971 3.00876 0
M  V30 9858 C 936.522 2.832 3.33341 0
M  V30 9859 C 935.581 2.702 4.51529 0
M  V30 9860 O 934.607 3.44132 4.53389 0
M  V30 9861 N 935.809 1.81642 5.5135 0
M  V30 9862 H 938.574 2.58501 1.51649 0
M  V30 9863 H 936.135 1.46442 0.690396 0
M  V30 9864 H 938.127 1.4493 3.77859 0
M  V30 9865 H 936.697 0.673795 3.05252 0
M  V30 9866 H 935.917 3.08604 2.4527 0
M  V30 9867 H 937.205 3.67551 3.51829 0
M  V30 9868 H 936.603 1.20829 5.52645 0
M  V30 9869 H 935.16 1.76524 6.27441 0
M  V30 9870 N 938.594 -0.753485 1.38421 0
M  V30 9871 C 939.819 -1.54783 1.38047 0
M  V30 9872 C 940.244 -1.8808 -0.0276371 0
M  V30 9873 O 939.602 -1.5058 -1.00973 0
M  V30 9874 C 939.65 -2.82353 2.24297 0
M  V30 9875 O 938.754 -3.77509 1.66014 0
M  V30 9876 H 938.095 -0.468151 0.470883 0
M  V30 9877 H 940.625 -0.931144 1.82184 0
M  V30 9878 H 940.635 -3.31277 2.38159 0
M  V30 9879 H 939.31 -2.57449 3.26639 0
M  V30 9880 H 937.887 -3.36212 1.61294 0
M  V30 9881 N 940.072 -1.23292 -0.981677 0
M  V30 9882 C 941.483 -1.05936 -1.53735 0
M  V30 9883 C 941.834 0.373695 -1.92608 0
M  V30 9884 O 940.959 1.26024 -1.75917 0
M  V30 9885 C 941.554 -1.91682 -2.79363 0
M  V30 9886 C 940.113 -1.78591 -3.31334 0
M  V30 9887 C 939.26 -1.87463 -2.04335 0
M  V30 9888 H 942.211 -1.36973 -0.801505 0
M  V30 9889 H 942.232 -1.44085 -3.52164 0
M  V30 9890 H 941.744 -2.95975 -2.51039 0
M  V30 9891 H 939.845 -0.770755 -3.64541 0
M  V30 9892 H 939.958 -2.61902 -4.01179 0
M  V30 9893 H 938.322 -1.3103 -2.18411 0
M  V30 9894 H 939.105 -2.9331 -1.78394 0
M  V30 9895 N 941.55 1.18024 -1.04442 0
M  V30 9896 C 942.513 2.19992 -0.643136 0
M  V30 9897 C 943.513 1.57949 0.301444 0
M  V30 9898 O 944.703 1.73986 0.0863341 0
M  V30 9899 C 941.835 3.40853 0.0565208 0
M  V30 9900 H 943.028 2.57008 -1.54554 0
M  V30 9901 H 940.581 1.31974 -0.837408 0
M  V30 9902 H 941.316 3.09373 0.972553 0
M  V30 9903 H 941.101 3.87128 -0.622439 0
M  V30 9904 H 942.591 4.16344 0.323652 0
M  V30 9905 O 943.067 0.959562 1.29903 0
M  V30 9906 H 943.758 0.594984 1.84336 0
M  V30 END ATOM
M  V30 BEGIN BOND
M  V30 END BOND
M  V30 END CTAB
M  END
$$$$
