drugbank_target|P20586 p-hydroxybenzoate hydroxylase (DB02839; DB03147; DB03482; DB04242)
 OpenBabel12092119563D

  0  0  0     0  0            999 V3000
M  V30 BEGIN CTAB
M  V30 COUNTS 6245 6310 0 0 0
M  V30 BEGIN ATOM
M  V30 1 H -0.908 1.98254 -0.117106 0
M  V30 2 N 0 1.576 0 0
M  V30 3 C 0.933 2.03868 1.02534 0
M  V30 4 C 1.911 0.928543 1.3348 0
M  V30 5 O 3.095 1.19667 1.45644 0
M  V30 6 C 0.222 2.43627 2.35294 0
M  V30 7 C -0.732 3.65373 2.2001 0
M  V30 8 S 0.101 5.13292 1.52614 0
M  V30 9 C 1.257 5.56322 2.86805 0
M  V30 10 H 1.49 2.90518 0.631377 0
M  V30 11 H -0.977 1.52953 0.210867 0
M  V30 12 H 0.981 2.67203 3.11629 0
M  V30 13 H -0.358 1.57376 2.7183 0
M  V30 14 H -1.165 3.90944 3.18086 0
M  V30 15 H -1.563 3.418 1.51819 0
M  V30 16 H 0.729 5.58782 3.83104 0
M  V30 17 H 1.672 6.56266 2.65933 0
M  V30 18 H 2.08 4.83886 2.90714 0
M  V30 19 N 1.4781 -0.272755 1.55222 0
M  V30 20 C 2.4251 -1.33716 1.88119 0
M  V30 21 C 3.3951 -1.49066 0.73271 0
M  V30 22 O 4.5801 -1.63469 0.984002 0
M  V30 23 C 1.7201 -2.69238 2.15882 0
M  V30 24 C 0.8331 -2.62108 3.43399 0
M  V30 25 C -0.0319 -3.89811 3.60861 0
M  V30 26 C -0.9929 -3.77193 4.8207 0
M  V30 27 N -1.8559 -4.9673 4.96189 0
M  V30 28 H 2.9841 -1.04962 2.78903 0
M  V30 29 H 0.5211 -0.507088 1.38083 0
M  V30 30 H 2.4791 -3.48089 2.29978 0
M  V30 31 H 1.1091 -2.96194 1.28331 0
M  V30 32 H 0.1611 -1.74967 3.37773 0
M  V30 33 H 1.4731 -2.48685 4.32386 0
M  V30 34 H 0.6271 -4.77103 3.74777 0
M  V30 35 H -0.6339 -4.06102 2.7006 0
M  V30 36 H -1.6289 -2.88284 4.68159 0
M  V30 37 H -0.4039 -3.62421 5.74307 0
M  V30 38 H -2.4579 -5.13431 4.08319 0
M  V30 39 H -2.5409 -4.85839 5.79221 0
M  V30 40 H -1.2729 -5.85594 5.1449 0
M  V30 41 N 2.9562 -1.48159 -0.537278 0
M  V30 42 C 4.1842 -1.59454 -1.31841 0
M  V30 43 C 4.5992 -0.252065 -1.8711 0
M  V30 44 O 3.9562 0.757621 -1.66031 0
M  V30 45 C 4.0072 -2.63546 -2.47439 0
M  V30 46 O 3.7282 -3.92583 -1.94449 0
M  V30 47 C 5.2292 -2.85212 -3.39366 0
M  V30 48 H 2.4492 -0.53785 -0.401196 0
M  V30 49 H 4.9932 -1.93932 -0.648891 0
M  V30 50 H 3.1482 -2.31946 -3.1029 0
M  V30 51 H 3.5622 -4.49629 -2.70063 0
M  V30 52 H 5.0362 -3.61863 -4.16844 0
M  V30 53 H 5.5132 -1.93765 -3.94147 0
M  V30 54 H 6.1192 -3.18086 -2.82314 0
M  V30 55 N 4.4343 0.785586 -1.36625 0
M  V30 56 C 5.3663 1.90711 -1.2713 0
M  V30 57 C 6.3793 1.61688 -0.189986 0
M  V30 58 O 7.5683 1.72864 -0.445014 0
M  V30 59 C 4.6683 3.25611 -0.939713 0
M  V30 60 C 3.8413 3.82385 -2.12369 0
M  V30 61 C 2.9003 4.95732 -1.76456 0
M  V30 62 O 1.9263 5.12047 -2.48589 0
M  V30 63 N 3.1283 5.76258 -0.700492 0
M  V30 64 H 5.8933 1.99376 -2.23762 0
M  V30 65 H 3.4543 0.964041 -1.30069 0
M  V30 66 H 5.4463 3.98937 -0.680554 0
M  V30 67 H 4.0163 3.12538 -0.0624074 0
M  V30 68 H 3.2363 3.01001 -2.54543 0
M  V30 69 H 4.5243 4.17047 -2.9146 0
M  V30 70 H 3.9223 5.65609 -0.101624 0
M  V30 71 H 2.4793 6.4987 -0.501165 0
M  V30 72 N 5.9124 1.20967 1.01018 0
M  V30 73 C 7.1584 1.02526 1.74975 0
M  V30 74 C 7.4914 -0.4408 1.89131 0
M  V30 75 O 6.7664 -1.32718 1.42184 0
M  V30 76 C 7.0494 1.71699 3.1653 0
M  V30 77 C 6.9024 3.25791 3.10129 0
M  V30 78 C 8.2214 1.45531 4.15342 0
M  V30 79 H 5.3404 0.373863 0.635134 0
M  V30 80 H 7.9824 1.49071 1.17805 0
M  V30 81 H 6.1324 1.32128 3.65341 0
M  V30 82 H 7.8044 3.74697 2.69072 0
M  V30 83 H 6.0474 3.56363 2.47362 0
M  V30 84 H 6.7184 3.69353 4.10222 0
M  V30 85 H 9.1944 1.79872 3.75213 0
M  V30 86 H 8.0704 1.96453 5.1254 0
M  V30 87 H 8.3314 0.384237 4.40427 0
M  V30 88 N 7.3905 -1.2043 1.01659 0
M  V30 89 C 8.3535 -2.21433 0.591616 0
M  V30 90 C 9.3535 -1.57203 -0.338226 0
M  V30 91 O 10.5435 -1.73737 -0.126918 0
M  V30 92 C 7.6755 -3.40628 -0.136058 0
M  V30 93 H 8.8685 -2.60545 1.48514 0
M  V30 94 H 6.4215 -1.33893 0.806379 0
M  V30 95 H 7.1565 -3.07019 -1.04449 0
M  V30 96 H 6.9415 -3.88475 0.531917 0
M  V30 97 H 8.4315 -4.15475 -0.420735 0
M  V30 98 N 8.8686 -0.792821 -1.36206 0
M  V30 99 C 10.1176 -0.363353 -1.984 0
M  V30 100 C 10.4306 1.07172 -1.63626 0
M  V30 101 O 11.6366 1.60362 -2.19081 0
M  V30 102 C 10.0926 -0.59872 -3.54885 0
M  V30 103 C 9.7006 -2.04543 -3.9858 0
M  V30 104 C 11.4446 -0.233926 -4.23855 0
M  V30 105 C 9.3516 -2.22727 -5.47856 0
M  V30 106 H 8.2816 -0.13212 -0.742334 0
M  V30 107 H 10.9326 -0.974935 -1.55458 0
M  V30 108 H 9.3146 0.0826222 -3.95914 0
M  V30 109 H 10.4886 -2.76345 -3.68741 0
M  V30 110 H 8.8036 -2.36879 -3.42458 0
M  V30 111 H 11.4006 -0.348027 -5.33566 0
M  V30 112 H 11.7436 0.818351 -4.08177 0
M  V30 113 H 12.2766 -0.868639 -3.882 0
M  V30 114 H 9.0156 -3.2635 -5.68486 0
M  V30 115 H 8.5356 -1.55434 -5.7931 0
M  V30 116 H 10.2146 -2.03607 -6.14128 0
M  V30 117 N 10.3467 1.47872 -0.545128 0
M  V30 118 C 11.5957 2.01695 -0.0145033 0
M  V30 119 C 11.9087 1.42609 1.33873 0
M  V30 120 O 13.1147 1.88021 1.95858 0
M  V30 121 C 11.5707 3.59892 0.0245068 0
M  V30 122 C 11.1787 4.27966 -1.32475 0
M  V30 123 C 12.9227 4.21507 0.50316 0
M  V30 124 C 10.8297 5.78136 -1.2455 0
M  V30 125 H 9.7597 0.753998 -0.00165172 0
M  V30 126 H 12.4107 1.69985 -0.691175 0
M  V30 127 H 10.7927 3.88509 0.766575 0
M  V30 128 H 11.9667 4.11003 -2.08357 0
M  V30 129 H 10.2817 3.78286 -1.74036 0
M  V30 130 H 12.8787 5.31538 0.580656 0
M  V30 131 H 13.2217 3.87855 1.51243 0
M  V30 132 H 13.7547 3.97376 -0.183681 0
M  V30 133 H 10.4937 6.16388 -2.23039 0
M  V30 134 H 10.0137 5.97469 -0.528282 0
M  V30 135 H 11.6927 6.40099 -0.942488 0
M  V30 136 N 11.8248 0.280983 1.55075 0
M  V30 137 C 13.0728 -0.333455 1.9933 0
M  V30 138 C 13.3938 -1.55937 1.17085 0
M  V30 139 O 12.6638 -1.94143 0.261805 0
M  V30 140 H 11.2438 -0.126197 0.736263 0
M  V30 141 H 13.9058 0.387678 1.91005 0
M  V30 142 H 13.0018 -0.619292 3.05894 0
M  V30 143 N 13.3029 -1.57598 0.00835791 0
M  V30 144 C 14.2659 -2.07884 -0.965242 0
M  V30 145 C 15.2659 -0.989825 -1.26725 0
M  V30 146 O 16.4559 -1.25218 -1.21104 0
M  V30 147 C 13.5879 -2.52731 -2.28779 0
M  V30 148 H 14.7809 -2.95178 -0.530112 0
M  V30 149 H 12.3339 -1.54458 -0.239283 0
M  V30 150 H 13.0689 -1.68705 -2.76964 0
M  V30 151 H 12.8539 -3.32272 -2.08177 0
M  V30 152 H 14.3439 -2.91933 -2.98605 0
M  V30 153 N 14.781 0.264519 -1.55364 0
M  V30 154 C 16.029 0.993021 -1.76021 0
M  V30 155 C 16.35 1.86511 -0.569099 0
M  V30 156 O 15.62 1.91438 0.415735 0
M  V30 157 H 14.2 0.369639 -0.649135 0
M  V30 158 H 16.862 0.286707 -1.9278 0
M  V30 159 H 15.958 1.62502 -2.66457 0
M  V30 160 N 16.2591 1.48442 0.529413 0
M  V30 161 C 17.6701 1.5002 1.11134 0
M  V30 162 C 18.0211 0.27031 1.94329 0
M  V30 163 O 17.1461 -0.622507 2.07253 0
M  V30 164 C 17.7411 2.71834 2.02217 0
M  V30 165 C 16.3001 2.76283 2.55627 0
M  V30 166 C 15.4471 2.43542 1.326 0
M  V30 167 H 18.3981 1.5555 0.314641 0
M  V30 168 H 18.4191 2.50384 2.8651 0
M  V30 169 H 17.9311 3.61331 1.41639 0
M  V30 170 H 16.0321 1.90995 3.19924 0
M  V30 171 H 16.1451 3.77725 2.94721 0
M  V30 172 H 14.5091 1.94709 1.64196 0
M  V30 173 H 15.2921 3.3528 0.737734 0
M  V30 174 N 17.7372 -0.778329 1.37039 0
M  V30 175 C 18.9622 -1.57248 1.35233 0
M  V30 176 C 19.3872 -1.87999 -0.0615568 0
M  V30 177 O 18.7452 -1.48734 -1.03672 0
M  V30 178 C 18.7932 -2.86353 2.19167 0
M  V30 179 O 17.8972 -3.80442 1.59178 0
M  V30 180 H 17.2382 -0.476569 0.462362 0
M  V30 181 H 19.7682 -0.963853 1.80474 0
M  V30 182 H 19.7782 -3.35519 2.32145 0
M  V30 183 H 18.4532 -2.63299 3.21942 0
M  V30 184 H 17.0302 -3.39067 1.55203 0
M  V30 185 N 19.2153 -1.21501 -1.00376 0
M  V30 186 C 20.4633 -1.03095 -1.73827 0
M  V30 187 C 20.7843 0.436341 -1.90055 0
M  V30 188 O 20.0543 1.31466 -1.45236 0
M  V30 189 H 18.6343 -0.378487 -0.644016 0
M  V30 190 H 21.2963 -1.52831 -1.20949 0
M  V30 191 H 20.3923 -1.49991 -2.73695 0
M  V30 192 N 20.6934 1.19889 -1.02296 0
M  V30 193 C 21.6234 2.25141 -0.619174 0
M  V30 194 C 22.6044 1.66051 0.368915 0
M  V30 195 O 23.7894 1.92546 0.252941 0
M  V30 196 C 20.9194 3.4728 0.0368783 0
M  V30 197 C 19.8734 4.19005 -0.872865 0
M  V30 198 C 19.1994 5.34637 -0.0822402 0
M  V30 199 C 20.4994 4.74452 -2.18387 0
M  V30 200 H 22.1934 2.59171 -1.49903 0
M  V30 201 H 19.7394 1.24579 -0.722222 0
M  V30 202 H 21.6924 4.20098 0.330958 0
M  V30 203 H 20.4164 3.12433 0.95149 0
M  V30 204 H 19.0754 3.48061 -1.15105 0
M  V30 205 H 18.7234 4.96034 0.83422 0
M  V30 206 H 18.4234 5.83557 -0.688149 0
M  V30 207 H 19.9474 6.10255 0.205238 0
M  V30 208 H 21.3614 5.39055 -1.95172 0
M  V30 209 H 19.7584 5.33834 -2.74119 0
M  V30 210 H 20.8284 3.92844 -2.84257 0
M  V30 211 N 22.1715 0.800033 1.35784 0
M  V30 212 C 23.1015 0.220184 2.3246 0
M  V30 213 C 24.0825 -0.65073 1.57161 0
M  V30 214 O 25.2675 -0.582359 1.85263 0
M  V30 215 C 22.3975 -0.637353 3.41402 0
M  V30 216 C 21.3515 0.134531 4.27789 0
M  V30 217 C 20.6775 -0.844285 5.27992 0
M  V30 218 C 21.9775 1.32979 5.05088 0
M  V30 219 H 23.6715 1.02787 2.81203 0
M  V30 220 H 21.2175 0.495717 1.35199 0
M  V30 221 H 23.1705 -1.05302 4.08031 0
M  V30 222 H 21.8945 -1.47785 2.91251 0
M  V30 223 H 20.5535 0.531296 3.6273 0
M  V30 224 H 20.2015 -1.68011 4.74111 0
M  V30 225 H 19.9015 -0.332184 5.8666 0
M  V30 226 H 21.4255 -1.2583 5.97494 0
M  V30 227 H 22.8395 0.98934 5.64699 0
M  V30 228 H 21.2365 1.77593 5.7322 0
M  V30 229 H 22.3065 2.11978 4.36111 0
M  V30 230 N 23.6496 -1.47581 0.552962 0
M  V30 231 C 24.5796 -2.32762 -0.185451 0
M  V30 232 C 25.5606 -1.43527 -0.912905 0
M  V30 233 O 26.7456 -1.72388 -0.894201 0
M  V30 234 C 23.8756 -3.25219 -1.21859 0
M  V30 235 C 22.8296 -4.23661 -0.607864 0
M  V30 236 C 22.1556 -5.05413 -1.74533 0
M  V30 237 C 23.4556 -5.20481 0.435582 0
M  V30 238 H 25.1496 -2.94749 0.525684 0
M  V30 239 H 22.6956 -1.41738 0.254251 0
M  V30 240 H 24.6486 -3.8365 -1.7433 0
M  V30 241 H 23.3726 -2.61279 -1.95961 0
M  V30 242 H 22.0316 -3.66451 -0.104489 0
M  V30 243 H 21.6796 -4.3788 -2.47529 0
M  V30 244 H 21.3796 -5.72059 -1.34249 0
M  V30 245 H 22.9036 -5.66701 -2.27338 0
M  V30 246 H 24.3176 -5.733 -0.00290157 0
M  V30 247 H 22.7146 -5.95305 0.757067 0
M  V30 248 H 23.7846 -4.66217 1.33303 0
M  V30 249 N 25.1277 -0.289203 -1.54924 0
M  V30 250 C 26.3757 0.322879 -1.99504 0
M  V30 251 C 26.6967 1.55313 -1.1791 0
M  V30 252 O 25.9667 1.94001 -0.272097 0
M  V30 253 H 24.5467 0.122291 -0.736922 0
M  V30 254 H 27.2087 -0.397802 -1.90797 0
M  V30 255 H 26.3047 0.603061 -3.06218 0
M  V30 256 N 26.6058 1.57591 -0.0167156 0
M  V30 257 C 27.5378 2.06343 0.997753 0
M  V30 258 C 28.5508 0.984469 1.29661 0
M  V30 259 O 29.7398 1.26093 1.26344 0
M  V30 260 C 26.8398 2.46255 2.32834 0
M  V30 261 C 26.0128 3.77083 2.21646 0
M  V30 262 C 25.0718 4.0368 3.37534 0
M  V30 263 O 24.0978 4.7411 3.14973 0
M  V30 264 N 25.2998 3.52881 4.60929 0
M  V30 265 H 28.0648 2.93997 0.581875 0
M  V30 266 H 25.6258 1.61002 0.170316 0
M  V30 267 H 27.6178 2.61149 3.09166 0
M  V30 268 H 26.1878 1.64032 2.66106 0
M  V30 269 H 25.4078 3.72106 1.30119 0
M  V30 270 H 26.6958 4.62822 2.11361 0
M  V30 271 H 26.0938 2.95878 4.82154 0
M  V30 272 H 24.6508 3.73076 5.34469 0
M  V30 273 N 28.0839 -0.256276 1.55502 0
M  V30 274 C 29.0139 -1.32102 1.92539 0
M  V30 275 C 29.9949 -1.50684 0.789194 0
M  V30 276 O 31.1799 -1.63449 1.04872 0
M  V30 277 C 28.3099 -2.67752 2.21192 0
M  V30 278 C 27.2639 -2.63878 3.36975 0
M  V30 279 C 26.5899 -4.03236 3.51147 0
M  V30 280 C 27.8899 -2.21682 4.72921 0
M  V30 281 H 29.5839 -1.01351 2.81724 0
M  V30 282 H 27.1299 -0.486105 1.35547 0
M  V30 283 H 29.0829 -3.42365 2.45691 0
M  V30 284 H 27.8069 -3.0012 1.28824 0
M  V30 285 H 26.4659 -1.91722 3.12471 0
M  V30 286 H 26.1139 -4.32854 2.56216 0
M  V30 287 H 25.8139 -4.01535 4.29003 0
M  V30 288 H 27.3379 -4.79563 3.77957 0
M  V30 289 H 28.7519 -2.86023 4.96854 0
M  V30 290 H 27.1489 -2.3111 5.53812 0
M  V30 291 H 28.2189 -1.16833 4.70615 0
M  V30 292 N 29.562 -1.4872 -0.521534 0
M  V30 293 C 30.492 -1.66771 -1.63431 0
M  V30 294 C 31.473 -0.516499 -1.62069 0
M  V30 295 O 32.658 -0.750013 -1.79132 0
M  V30 296 C 29.788 -1.71515 -3.01993 0
M  V30 297 C 28.742 -2.86222 -3.18216 0
M  V30 298 C 28.068 -2.76061 -4.57924 0
M  V30 299 C 29.368 -4.27419 -3.00184 0
M  V30 300 H 31.062 -2.59932 -1.48579 0
M  V30 301 H 28.608 -1.25089 -0.713358 0
M  V30 302 H 30.561 -1.82731 -3.7972 0
M  V30 303 H 29.285 -0.749393 -3.17886 0
M  V30 304 H 27.944 -2.74575 -2.42908 0
M  V30 305 H 27.592 -1.77437 -4.70665 0
M  V30 306 H 27.292 -3.53037 -4.69722 0
M  V30 307 H 28.816 -2.89256 -5.37739 0
M  V30 308 H 30.23 -4.39855 -3.67697 0
M  V30 309 H 28.627 -5.05458 -3.2347 0
M  V30 310 H 29.697 -4.43293 -1.96518 0
M  V30 311 N 31.0401 0.771051 -1.3745 0
M  V30 312 C 31.9901 1.87456 -1.29785 0
M  V30 313 C 32.9741 1.59827 -0.185541 0
M  V30 314 O 34.1661 1.71945 -0.419997 0
M  V30 315 C 31.2951 3.24935 -1.1078 0
M  V30 316 C 30.3811 3.58514 -2.26558 0
M  V30 317 N 30.7721 3.6327 -3.5195 0
M  V30 318 C 29.0701 3.88683 -2.18727 0
M  V30 319 C 29.7711 3.93616 -4.283 0
M  V30 320 N 28.7471 4.09551 -3.57448 0
M  V30 321 H 32.5491 1.89386 -2.24745 0
M  V30 322 H 30.0631 0.967531 -1.30432 0
M  V30 323 H 32.0601 4.03881 -1.03374 0
M  V30 324 H 30.7201 3.24268 -0.16738 0
M  V30 325 H 31.7311 3.45458 -3.85848 0
M  V30 326 H 28.4081 3.95834 -1.32746 0
M  V30 327 H 29.7981 4.04066 -5.36824 0
M  V30 328 N 32.5182 1.22032 0.997298 0
M  V30 329 C 33.4652 0.986467 2.08656 0
M  V30 330 C 34.4352 -0.0902671 1.65855 0
M  V30 331 O 35.6202 0.0584294 1.90711 0
M  V30 332 C 32.7602 0.565569 3.40434 0
M  V30 333 C 31.8732 1.71259 3.96604 0
M  V30 334 C 31.0082 1.24011 5.16522 0
M  V30 335 C 30.0472 2.35896 5.64818 0
M  V30 336 N 29.1842 1.89726 6.7598 0
M  V30 337 H 34.0242 1.91892 2.27994 0
M  V30 338 H 31.5612 0.956199 1.11782 0
M  V30 339 H 33.5192 0.302738 4.161 0
M  V30 340 H 32.1492 -0.329879 3.2111 0
M  V30 341 H 31.2012 2.08986 3.17851 0
M  V30 342 H 32.5132 2.55436 4.28432 0
M  V30 343 H 31.6672 0.934395 5.99461 0
M  V30 344 H 30.4062 0.368487 4.86306 0
M  V30 345 H 29.4112 2.67261 4.8047 0
M  V30 346 H 30.6362 3.23567 5.97061 0
M  V30 347 H 28.5822 1.0492 6.47555 0
M  V30 348 H 28.4992 2.67471 7.07103 0
M  V30 349 H 29.7672 1.62211 7.62435 0
M  V30 350 N 33.9963 -1.19345 1.0293 0
M  V30 351 C 34.9593 -2.20793 0.615069 0
M  V30 352 C 35.9593 -1.57553 -0.321533 0
M  V30 353 O 37.1493 -1.73862 -0.108483 0
M  V30 354 C 34.2813 -3.40754 -0.0999222 0
M  V30 355 H 35.4743 -2.58955 1.51269 0
M  V30 356 H 33.0273 -1.3303 0.820534 0
M  V30 357 H 33.7623 -3.0811 -1.01187 0
M  V30 358 H 33.5473 -3.87889 0.57309 0
M  V30 359 H 35.0373 -4.15898 -0.376645 0
M  V30 360 N 35.4744 -0.807222 -1.35358 0
M  V30 361 C 36.7224 -0.387122 -1.98358 0
M  V30 362 C 37.0434 1.04942 -1.64354 0
M  V30 363 O 36.3134 1.72615 -0.926339 0
M  V30 364 H 34.8934 -0.140154 -0.733734 0
M  V30 365 H 37.5554 -1.0332 -1.6526 0
M  V30 366 H 36.6514 -0.493352 -3.08176 0
M  V30 367 N 36.9525 1.47285 -0.560781 0
M  V30 368 C 38.2015 2.01668 -0.035895 0
M  V30 369 C 38.5145 1.44021 1.32353 0
M  V30 370 O 39.7205 1.90088 1.93853 0
M  V30 371 C 38.1765 3.59897 -0.0136659 0
M  V30 372 C 37.7845 4.26536 -1.37006 0
M  V30 373 C 39.5285 4.22017 0.458425 0
M  V30 374 C 37.4355 5.76782 -1.30675 0
M  V30 375 H 36.3655 0.753938 -0.00964879 0
M  V30 376 H 39.0165 1.69243 -0.709166 0
M  V30 377 H 37.3985 3.89301 0.725325 0
M  V30 378 H 38.5725 4.0877 -2.12705 0
M  V30 379 H 36.8875 3.76419 -1.78038 0
M  V30 380 H 39.4845 5.32124 0.524247 0
M  V30 381 H 39.8275 3.89437 1.4712 0
M  V30 382 H 40.3605 3.97159 -0.225818 0
M  V30 383 H 37.0995 6.13988 -2.29564 0
M  V30 384 H 36.6195 5.96875 -0.591622 0
M  V30 385 H 38.2985 6.39063 -1.01033 0
M  V30 386 N 38.4306 0.297415 1.54768 0
M  V30 387 C 39.7076 -0.365847 1.92148 0
M  V30 388 C 40.0876 -1.71975 1.22424 0
M  V30 389 O 39.4356 -2.25666 0.358739 0
M  V30 390 C 39.6456 -0.484056 3.45627 0
M  V30 391 C 40.9936 -0.756594 4.17805 0
M  V30 392 O 42.0176 -0.568007 3.51642 0
M  V30 393 O 40.8766 -1.11863 5.34929 0
M  V30 394 H 37.9706 -0.203919 0.801465 0
M  V30 395 H 40.5166 0.34521 1.66152 0
M  V30 396 H 39.2886 0.467865 3.88493 0
M  V30 397 H 38.9116 -1.24372 3.77647 0
M  V30 398 N 39.9087 -1.5758 0.0250728 0
M  V30 399 C 40.8567 -2.11125 -0.97617 0
M  V30 400 C 41.8507 -1.03689 -1.33959 0
M  V30 401 O 43.0567 -1.22128 -1.3223 0
M  V30 402 H 39.4317 -0.674468 -0.332561 0
M  V30 403 H 41.4027 -2.94194 -0.499223 0
M  V30 404 C 40.1517 -2.65017 -2.2508 0
M  V30 405 H 39.4747 -3.47333 -1.9799 0
M  V30 406 H 40.9147 -3.06133 -2.93357 0
M  V30 407 C 39.3737 -1.57574 -2.97779 0
M  V30 408 O 39.9037 -0.973203 -3.89733 0
M  V30 409 N 38.1097 -1.29716 -2.60043 0
M  V30 410 H 37.6567 -1.789 -1.85345 0
M  V30 411 H 37.6147 -0.58051 -3.08994 0
M  V30 412 N 41.3868 0.248026 -1.55636 0
M  V30 413 C 42.6328 0.97767 -1.77678 0
M  V30 414 C 42.9658 1.85016 -0.590135 0
M  V30 415 O 42.2408 1.90095 0.411611 0
M  V30 416 C 42.5238 1.83914 -3.09593 0
M  V30 417 C 42.3768 0.99491 -4.38659 0
M  V30 418 C 43.6958 2.82183 -3.37729 0
M  V30 419 H 40.8148 0.354005 -0.646413 0
M  V30 420 H 43.4568 0.248253 -1.88371 0
M  V30 421 H 41.6068 2.46104 -3.00608 0
M  V30 422 H 43.2788 0.391789 -4.59633 0
M  V30 423 H 41.5218 0.299231 -4.32767 0
M  V30 424 H 42.1928 1.63145 -5.2734 0
M  V30 425 H 44.6688 2.30129 -3.4667 0
M  V30 426 H 43.5448 3.39582 -4.31249 0
M  V30 427 H 43.8058 3.58588 -2.58586 0
M  V30 428 N 42.8649 1.48995 0.513639 0
M  V30 429 C 44.1139 1.57093 1.2651 0
M  V30 430 C 44.4269 0.257091 1.93903 0
M  V30 431 O 45.6329 0.216478 2.70636 0
M  V30 432 C 44.0889 2.77118 2.29638 0
M  V30 433 C 43.6969 4.15209 1.68241 0
M  V30 434 C 45.4409 2.94538 3.05692 0
M  V30 435 C 43.3479 5.26474 2.69406 0
M  V30 436 H 42.2779 0.584876 0.475854 0
M  V30 437 H 44.9289 1.7536 0.540487 0
M  V30 438 H 43.3109 2.52319 3.05207 0
M  V30 439 H 44.4849 4.50094 0.987505 0
M  V30 440 H 42.7999 4.03042 1.04623 0
M  V30 441 H 45.3969 3.74832 3.8132 0
M  V30 442 H 45.7399 2.04614 3.62545 0
M  V30 443 H 46.2729 3.19316 2.37238 0
M  V30 444 H 43.0119 6.18417 2.17351 0
M  V30 445 H 42.5319 4.96058 3.37175 0
M  V30 446 H 44.2109 5.55277 3.32078 0
M  V30 447 N 44.343 -0.763751 1.37857 0
M  V30 448 C 45.273 -1.89103 1.36975 0
M  V30 449 C 46.254 -1.68439 0.237152 0
M  V30 450 O 47.439 -1.8918 0.438713 0
M  V30 451 C 44.569 -3.26496 1.18395 0
M  V30 452 C 43.523 -3.61741 2.28751 0
M  V30 453 C 42.849 -4.97762 1.95286 0
M  V30 454 C 44.149 -3.67665 3.70972 0
M  V30 455 H 45.843 -1.90099 2.31307 0
M  V30 456 H 43.389 -0.91319 1.11341 0
M  V30 457 H 45.342 -4.05003 1.16406 0
M  V30 458 H 44.066 -3.25955 0.205215 0
M  V30 459 H 42.725 -2.85547 2.29909 0
M  V30 460 H 42.373 -4.93769 0.959221 0
M  V30 461 H 42.073 -5.22313 2.69189 0
M  V30 462 H 43.597 -5.7866 1.94898 0
M  V30 463 H 45.011 -4.36307 3.719 0
M  V30 464 H 43.408 -4.03718 4.43995 0
M  V30 465 H 44.478 -2.68134 4.0402 0
M  V30 466 N 45.8211 -1.22559 -0.990812 0
M  V30 467 C 46.7311 -1.01394 -2.11557 0
M  V30 468 C 47.7471 0.0383962 -1.73958 0
M  V30 469 O 48.9231 -0.154787 -2.00804 0
M  V30 470 C 45.9881 -0.596569 -3.41529 0
M  V30 471 C 45.0491 -1.72276 -3.93217 0
M  V30 472 C 44.2821 -1.32521 -5.16985 0
M  V30 473 O 44.5051 -0.204909 -5.70032 0
M  V30 474 O 43.4391 -2.14247 -5.62478 0
M  V30 475 H 47.2651 -1.95633 -2.32296 0
M  V30 476 H 44.8501 -1.01172 -1.0993 0
M  V30 477 H 46.7321 -0.374263 -4.19735 0
M  V30 478 H 45.4071 0.316939 -3.22145 0
M  V30 479 H 44.3141 -1.99961 -3.16174 0
M  V30 480 H 45.6471 -2.61421 -4.17037 0
M  V30 481 N 47.2992 1.18797 -1.03562 0
M  V30 482 C 48.7152 1.40671 -0.753917 0
M  V30 483 C 48.9152 1.9043 0.658686 0
M  V30 484 O 47.9712 2.08538 1.42366 0
M  V30 485 C 49.2842 2.41192 -1.79574 0
M  V30 486 C 50.8322 2.54928 -1.81606 0
M  V30 487 C 51.3072 3.58709 -2.84766 0
M  V30 488 N 52.7982 3.66212 -2.83625 0
M  V30 489 C 53.5332 4.46225 -3.60098 0
M  V30 490 N 53.0292 5.29888 -4.46308 0
M  V30 491 N 54.8222 4.40939 -3.4861 0
M  V30 492 H 46.9732 0.848221 -1.94728 0
M  V30 493 H 49.2362 0.435081 -0.842264 0
M  V30 494 H 48.9422 2.11669 -2.80872 0
M  V30 495 H 48.8162 3.40467 -1.62365 0
M  V30 496 H 51.2032 2.83771 -0.809817 0
M  V30 497 H 51.2842 1.55784 -2.02891 0
M  V30 498 H 50.9282 3.30607 -3.85566 0
M  V30 499 H 50.8582 4.57519 -2.60737 0
M  V30 500 H 53.3492 3.06466 -2.21105 0
M  V30 501 H 53.6622 5.88078 -5.01382 0
M  V30 502 H 52.0072 5.29326 -4.50377 0
M  V30 503 H 55.1982 3.74624 -2.80668 0
M  V30 504 H 55.3712 5.03056 -4.08459 0
M  V30 505 N 48.7773 0.814389 1.34928 0
M  V30 506 C 49.7093 0.187834 2.28429 0
M  V30 507 C 50.7223 -0.617374 1.5064 0
M  V30 508 O 51.9113 -0.448454 1.72775 0
M  V30 509 C 49.0113 -0.755962 3.30361 0
M  V30 510 C 48.1843 0.00456686 4.374 0
M  V30 511 C 47.2433 -0.858876 5.19143 0
M  V30 512 O 46.2693 -0.306968 5.68372 0
M  V30 513 N 47.4713 -2.17988 5.38016 0
M  V30 514 H 50.2363 0.991105 2.82838 0
M  V30 515 H 47.7973 0.670561 1.4736 0
M  V30 516 H 49.7893 -1.338 3.81942 0
M  V30 517 H 48.3593 -1.46001 2.7641 0
M  V30 518 H 47.5793 0.767865 3.86649 0
M  V30 519 H 48.8673 0.528422 5.06049 0
M  V30 520 H 48.2653 -2.65212 4.99679 0
M  V30 521 H 46.8223 -2.71098 5.92747 0
M  V30 522 N 50.2554 -1.46986 0.568584 0
M  V30 523 C 51.4834 -2.0683 0.0539956 0
M  V30 524 C 51.8984 -1.41953 -1.24478 0
M  V30 525 O 51.2554 -0.519933 -1.74937 0
M  V30 526 C 51.3064 -3.61254 -0.133362 0
M  V30 527 O 51.0274 -4.237 1.11399 0
M  V30 528 C 52.5284 -4.37992 -0.683927 0
M  V30 529 H 49.7484 -0.669058 0.0510141 0
M  V30 530 H 52.2924 -1.88824 0.785234 0
M  V30 531 H 50.4474 -3.78735 -0.81477 0
M  V30 532 H 50.8614 -5.16388 0.91888 0
M  V30 533 H 52.3354 -5.46684 -0.764263 0
M  V30 534 H 52.8124 -4.05058 -1.69778 0
M  V30 535 H 53.4184 -4.25283 -0.0378494 0
M  V30 536 N 51.7335 -0.305618 -1.54608 0
M  V30 537 C 53.1445 0.186098 -1.8577 0
M  V30 538 C 53.4955 1.53058 -1.22751 0
M  V30 539 O 52.6205 2.09888 -0.526893 0
M  V30 540 C 53.2155 0.344449 -3.37044 0
M  V30 541 C 51.7745 0.780384 -3.68221 0
M  V30 542 C 50.9215 -0.108554 -2.77087 0
M  V30 543 H 53.8725 -0.526485 -1.49712 0
M  V30 544 H 53.8935 1.17828 -3.61796 0
M  V30 545 H 53.4055 -0.634235 -3.82883 0
M  V30 546 H 51.5065 1.76945 -3.27904 0
M  V30 547 H 51.6195 0.596572 -4.75371 0
M  V30 548 H 49.9835 0.412931 -2.5133 0
M  V30 549 H 50.7665 -1.08368 -3.25747 0
M  V30 550 N 53.2116 1.57565 -0.0334293 0
M  V30 551 C 54.4886 1.83282 0.683163 0
M  V30 552 C 54.8686 0.91823 1.90084 0
M  V30 553 O 54.2166 -0.025113 2.28486 0
M  V30 554 C 54.4266 3.32599 1.0573 0
M  V30 555 C 55.7746 3.99179 1.44711 0
M  V30 556 O 56.7986 3.3712 1.15015 0
M  V30 557 O 55.6576 5.08565 2.0006 0
M  V30 558 H 52.7516 0.755869 0.335546 0
M  V30 559 H 55.2976 1.69589 -0.0614402 0
M  V30 560 H 54.0696 3.90834 0.190828 0
M  V30 561 H 53.6926 3.51415 1.85993 0
M  V30 562 N 54.6897 -0.239769 1.55765 0
M  V30 563 C 55.9197 -0.982743 1.8173 0
M  V30 564 C 56.3277 -1.7917 0.607835 0
M  V30 565 O 55.6707 -1.78525 -0.432973 0
M  V30 566 C 55.7327 -1.96332 3.01155 0
M  V30 567 C 55.3967 -1.34062 4.36894 0
M  V30 568 C 56.3937 -0.739539 5.14613 0
M  V30 569 C 54.0787 -1.35784 4.83599 0
M  V30 570 C 56.0727 -0.163989 6.37189 0
M  V30 571 C 53.7597 -0.778441 6.06122 0
M  V30 572 C 54.7577 -0.182548 6.82756 0
M  V30 573 O 54.4457 0.387887 8.02964 0
M  V30 574 H 54.1777 -0.294481 0.608487 0
M  V30 575 H 56.7317 -0.26572 2.03674 0
M  V30 576 H 54.9617 -2.71884 2.74984 0
M  V30 577 H 56.6507 -2.57032 3.14149 0
M  V30 578 H 57.4167 -0.718687 4.79646 0
M  V30 579 H 53.2957 -1.81105 4.23936 0
M  V30 580 H 56.8397 0.301753 6.96947 0
M  V30 581 H 52.7367 -0.796645 6.40565 0
M  V30 582 H 53.5047 0.28044 8.18019 0
M  V30 583 N 56.1678 -1.49265 -0.50573 0
M  V30 584 C 57.4138 -1.58748 -1.26202 0
M  V30 585 C 57.7468 -0.271227 -1.92297 0
M  V30 586 O 57.0218 0.724831 -1.80489 0
M  V30 587 C 57.3048 -2.74332 -2.33268 0
M  V30 588 C 57.1578 -4.15737 -1.71705 0
M  V30 589 C 58.4768 -2.85576 -3.34865 0
M  V30 590 H 55.5958 -0.577826 -0.457478 0
M  V30 591 H 58.2378 -1.81532 -0.560897 0
M  V30 592 H 56.3878 -2.55036 -2.93068 0
M  V30 593 H 58.0598 -4.46537 -1.15769 0
M  V30 594 H 56.3028 -4.21605 -1.02135 0
M  V30 595 H 56.9738 -4.92477 -2.49341 0
M  V30 596 H 59.4498 -3.03127 -2.8505 0
M  V30 597 H 58.3258 -3.68135 -4.07146 0
M  V30 598 H 58.5868 -1.94732 -3.96903 0
M  V30 599 N 57.6459 0.756429 -1.3826 0
M  V30 600 C 58.5759 1.88374 -1.37976 0
M  V30 601 C 59.5569 1.68311 -0.246082 0
M  V30 602 O 60.7419 1.88944 -0.44874 0
M  V30 603 C 57.8719 3.25864 -1.20125 0
M  V30 604 C 56.8259 3.60523 -2.30666 0
M  V30 605 C 56.1519 4.9672 -1.97923 0
M  V30 606 C 57.4519 3.65692 -3.72916 0
M  V30 607 H 59.1459 1.88869 -2.32312 0
M  V30 608 H 56.6919 0.907272 -1.11824 0
M  V30 609 H 58.6449 4.0438 -1.18552 0
M  V30 610 H 57.3689 3.25841 -0.222498 0
M  V30 611 H 56.0279 2.84324 -2.3142 0
M  V30 612 H 55.6759 4.93253 -0.985393 0
M  V30 613 H 55.3759 5.20878 -2.71955 0
M  V30 614 H 56.8999 5.77618 -1.97964 0
M  V30 615 H 58.3139 4.34328 -3.74208 0
M  V30 616 H 56.7109 4.01358 -4.4613 0
M  V30 617 H 57.7809 2.65987 -4.05436 0
M  V30 618 N 59.124 1.23083 0.984299 0
M  V30 619 C 60.372 1.05848 1.72165 0
M  V30 620 C 60.693 -0.406049 1.90726 0
M  V30 621 O 59.963 -1.29139 1.47309 0
M  V30 622 H 58.543 0.388685 0.637913 0
M  V30 623 H 61.205 1.54736 1.18503 0
M  V30 624 H 60.301 1.54327 2.71274 0
M  V30 625 N 60.6021 -1.18246 1.0419 0
M  V30 626 C 62.0181 -1.40269 0.761366 0
M  V30 627 C 62.2181 -1.90777 -0.648578 0
M  V30 628 O 61.2741 -2.0929 -1.41258 0
M  V30 629 C 62.5871 -2.40237 1.8085 0
M  V30 630 C 64.1351 -2.53961 1.82955 0
M  V30 631 C 64.6101 -3.57194 2.86664 0
M  V30 632 N 66.1011 -3.64702 2.85563 0
M  V30 633 C 66.8361 -4.44309 3.6246 0
M  V30 634 N 66.3321 -5.27514 4.49111 0
M  V30 635 N 68.1251 -4.39084 3.50944 0
M  V30 636 H 60.2761 -0.837882 1.95175 0
M  V30 637 H 62.5391 -0.430608 0.84456 0
M  V30 638 H 62.2451 -2.10176 2.81991 0
M  V30 639 H 62.1191 -3.39601 1.64168 0
M  V30 640 H 64.5061 -2.83338 0.824855 0
M  V30 641 H 64.5871 -1.54706 2.03715 0
M  V30 642 H 64.2311 -3.28558 3.87314 0
M  V30 643 H 64.1611 -4.5613 2.6316 0
M  V30 644 H 66.6521 -3.05289 2.22727 0
M  V30 645 H 66.9651 -5.85411 5.04493 0
M  V30 646 H 65.3101 -5.2693 4.53178 0
M  V30 647 H 68.5011 -3.7313 2.82651 0
M  V30 648 H 68.6741 -5.00883 4.11121 0
M  V30 649 N 62.0802 -0.821533 -1.34494 0
M  V30 650 C 63.3292 -0.405355 -1.97585 0
M  V30 651 C 63.6422 1.03677 -1.65863 0
M  V30 652 O 64.8482 1.55679 -2.22433 0
M  V30 653 C 63.3042 -0.673861 -3.53535 0
M  V30 654 C 62.9122 -2.12951 -3.94152 0
M  V30 655 C 64.6562 -0.32378 -4.23263 0
M  V30 656 C 62.5632 -2.34298 -5.43009 0
M  V30 657 H 61.4932 -0.147836 -0.739365 0
M  V30 658 H 64.1442 -1.00769 -1.53355 0
M  V30 659 H 62.5262 -0.00137554 -3.96 0
M  V30 660 H 63.7002 -2.84104 -3.62797 0
M  V30 661 H 62.0152 -2.44089 -3.37356 0
M  V30 662 H 64.6122 -0.461126 -5.32708 0
M  V30 663 H 64.9552 0.731586 -4.09821 0
M  V30 664 H 65.4882 -0.950786 -3.8627 0
M  V30 665 H 62.2272 -3.38335 -5.61435 0
M  V30 666 H 61.7472 -1.67687 -5.75883 0
M  V30 667 H 63.4262 -2.16588 -6.09671 0
M  V30 668 N 63.5583 1.46682 -0.576371 0
M  V30 669 C 64.9743 1.57822 -0.237562 0
M  V30 670 C 65.1743 1.57237 1.26011 0
M  V30 671 O 64.2303 1.48596 2.04146 0
M  V30 672 C 65.5433 2.87499 -0.881168 0
M  V30 673 C 67.0913 3.01119 -0.85417 0
M  V30 674 C 67.5663 4.33524 -1.4772 0
M  V30 675 N 69.0573 4.40207 -1.44125 0
M  V30 676 C 69.7923 5.4126 -1.89276 0
M  V30 677 N 69.2883 6.49021 -2.42371 0
M  V30 678 N 71.0813 5.32422 -1.80231 0
M  V30 679 H 63.2323 1.45306 -1.54919 0
M  V30 680 H 65.4953 0.692733 -0.647167 0
M  V30 681 H 65.2013 2.9372 -1.93447 0
M  V30 682 H 65.0753 3.75224 -0.385592 0
M  V30 683 H 67.4623 2.94485 0.190491 0
M  V30 684 H 67.5433 2.14887 -1.3877 0
M  V30 685 H 67.1873 4.40916 -2.52103 0
M  V30 686 H 67.1173 5.1852 -0.918947 0
M  V30 687 H 69.6083 3.62931 -1.05307 0
M  V30 688 H 69.9213 7.2233 -2.74698 0
M  V30 689 H 68.2663 6.49858 -2.46393 0
M  V30 690 H 71.4573 4.47137 -1.38514 0
M  V30 691 H 71.6303 6.11034 -2.15735 0
M  V30 692 N 65.0364 0.313813 1.54444 0
M  V30 693 C 65.9994 -0.54379 2.22656 0
M  V30 694 C 66.9994 -1.05124 1.21678 0
M  V30 695 O 68.1894 -0.945225 1.46325 0
M  V30 696 C 65.3214 -1.75427 2.92298 0
M  V30 697 H 66.5144 0.0523599 2.99854 0
M  V30 698 H 64.0674 0.0647834 1.56166 0
M  V30 699 H 64.8024 -2.38991 2.19211 0
M  V30 700 H 64.5874 -1.39791 3.66334 0
M  V30 701 H 66.0774 -2.36325 3.44297 0
M  V30 702 N 66.5145 -1.57545 0.0417849 0
M  V30 703 C 67.7625 -1.91937 -0.632829 0
M  V30 704 C 68.0835 -0.919978 -1.71934 0
M  V30 705 O 67.3535 0.0366064 -1.95866 0
M  V30 706 H 65.9335 -0.708493 -0.236742 0
M  V30 707 H 68.5955 -1.9468 0.0925745 0
M  V30 708 H 67.6915 -2.92912 -1.07746 0
M  V30 709 N 67.9926 0.231505 -1.5589 0
M  V30 710 C 69.2386 0.95877 -1.78705 0
M  V30 711 C 69.5716 1.8438 -0.609725 0
M  V30 712 O 68.8466 1.90521 0.391426 0
M  V30 713 C 69.1296 1.8062 -3.11526 0
M  V30 714 C 68.9826 0.948328 -4.39689 0
M  V30 715 C 70.3016 2.78585 -3.40703 0
M  V30 716 H 67.4206 0.347129 -0.650131 0
M  V30 717 H 70.0626 0.228259 -1.88624 0
M  V30 718 H 68.2126 2.42902 -3.03201 0
M  V30 719 H 69.8846 0.343016 -4.60023 0
M  V30 720 H 68.1276 0.253314 -4.3306 0
M  V30 721 H 68.7986 1.57543 -5.29041 0
M  V30 722 H 71.2746 2.26439 -3.49091 0
M  V30 723 H 70.1506 3.34988 -4.34826 0
M  V30 724 H 70.4116 3.55825 -2.62375 0
M  V30 725 N 69.4707 1.49531 0.497807 0
M  V30 726 C 70.4007 1.6935 1.60757 0
M  V30 727 C 71.3817 0.542218 1.61227 0
M  V30 728 O 72.5667 0.778417 1.77917 0
M  V30 729 C 69.6967 1.76298 2.99226 0
M  V30 730 C 68.6507 2.91248 3.13622 0
M  V30 731 C 67.9767 2.83312 4.53474 0
M  V30 732 C 69.2767 4.3214 2.93346 0
M  V30 733 H 70.9707 2.62263 1.44425 0
M  V30 734 H 68.5167 1.26208 0.693367 0
M  V30 735 H 70.4697 1.88749 3.76765 0
M  V30 736 H 69.1937 0.799871 3.16654 0
M  V30 737 H 67.8527 2.78404 2.38509 0
M  V30 738 H 67.5007 1.84902 4.67782 0
M  V30 739 H 67.2007 3.60465 4.64046 0
M  V30 740 H 68.7247 2.97775 5.33069 0
M  V30 741 H 70.1387 4.45649 3.60652 0
M  V30 742 H 68.5357 5.1054 3.15387 0
M  V30 743 H 69.6057 4.46363 1.89441 0
M  V30 744 N 70.9488 -0.749086 1.3866 0
M  V30 745 C 71.8588 -1.89358 1.38494 0
M  V30 746 C 72.8748 -1.71708 0.281476 0
M  V30 747 O 74.0508 -1.94554 0.520643 0
M  V30 748 C 71.1158 -3.24782 1.21316 0
M  V30 749 C 70.1768 -3.54926 2.41508 0
M  V30 750 C 69.4098 -4.83888 2.2514 0
M  V30 751 O 69.6328 -5.56592 1.24746 0
M  V30 752 O 68.5668 -5.13612 3.13826 0
M  V30 753 H 72.3928 -1.92452 2.34938 0
M  V30 754 H 69.9778 -0.894981 1.19626 0
M  V30 755 H 71.8598 -4.05739 1.13814 0
M  V30 756 H 70.5348 -3.2249 0.279592 0
M  V30 757 H 69.4418 -2.74112 2.54585 0
M  V30 758 H 70.7748 -3.61983 3.3351 0
M  V30 759 N 72.4269 -1.23603 -0.977757 0
M  V30 760 C 73.3589 -0.977369 -2.07317 0
M  V30 761 C 74.3719 0.0495845 -1.62724 0
M  V30 762 O 75.5609 -0.186261 -1.77526 0
M  V30 763 C 72.6609 -0.451216 -3.35883 0
M  V30 764 C 71.8339 -1.53896 -4.09432 0
M  V30 765 C 70.8929 -1.01721 -5.16274 0
M  V30 766 O 69.9189 -1.70676 -5.43009 0
M  V30 767 N 71.1209 0.153594 -5.80297 0
M  V30 768 H 73.8859 -1.92047 -2.30082 0
M  V30 769 H 71.4469 -1.14497 -1.14465 0
M  V30 770 H 73.4389 -0.0871574 -4.04606 0
M  V30 771 H 72.0089 0.397368 -3.10064 0
M  V30 772 H 71.2289 -2.07566 -3.35127 0
M  V30 773 H 72.5169 -2.27037 -4.55337 0
M  V30 774 H 71.9149 0.730323 -5.60966 0
M  V30 775 H 70.4719 0.458892 -6.50183 0
M  V30 776 N 73.905 1.17692 -1.04816 0
M  V30 777 C 75.153 1.87488 -0.754497 0
M  V30 778 C 75.474 1.81205 0.720407 0
M  V30 779 O 74.744 1.23544 1.52032 0
M  V30 780 H 73.324 0.694101 -0.276102 0
M  V30 781 H 75.986 1.42793 -1.32651 0
M  V30 782 H 75.082 2.93328 -1.06606 0
M  V30 783 N 75.3831 0.828654 1.34056 0
M  V30 784 C 76.3161 0.199763 2.27324 0
M  V30 785 C 77.2941 -0.647168 1.49166 0
M  V30 786 O 78.4781 -0.609661 1.78369 0
M  V30 787 C 75.6051 -0.720455 3.30949 0
M  V30 788 C 74.6511 0.0496888 4.26471 0
M  V30 789 S 75.4841 1.40072 5.16856 0
M  V30 790 C 76.6401 0.485527 6.24014 0
M  V30 791 H 76.8731 0.990478 2.80316 0
M  V30 792 H 74.4061 0.624857 1.41191 0
M  V30 793 H 76.3641 -1.24581 3.91139 0
M  V30 794 H 75.0251 -1.48474 2.76793 0
M  V30 795 H 74.2181 -0.650104 4.9979 0
M  V30 796 H 73.8201 0.505779 3.70564 0
M  V30 797 H 76.1121 -0.320672 6.76741 0
M  V30 798 H 77.0551 1.18856 6.98054 0
M  V30 799 H 77.4631 0.0714109 5.64455 0
M  V30 800 N 76.8612 -1.46375 0.584142 0
M  V30 801 C 78.1072 -2.02678 0.0703716 0
M  V30 802 C 78.4402 -1.4545 -1.28678 0
M  V30 803 O 77.7152 -0.62014 -1.84349 0
M  V30 804 C 77.9982 -3.60099 0.00614674 0
M  V30 805 C 77.8512 -4.27709 1.3923 0
M  V30 806 C 79.1702 -4.34598 -0.693742 0
M  V30 807 H 76.2892 -0.736504 0.027047 0
M  V30 808 H 78.9312 -1.74501 0.751615 0
M  V30 809 H 77.0812 -3.84236 -0.574009 0
M  V30 810 H 78.7532 -4.14832 2.01773 0
M  V30 811 H 76.9962 -3.87016 1.95962 0
M  V30 812 H 77.6672 -5.36478 1.29982 0
M  V30 813 H 80.1432 -4.15615 -0.200869 0
M  V30 814 H 79.0192 -5.44318 -0.707714 0
M  V30 815 H 79.2802 -4.05759 -1.75533 0
M  V30 816 N 78.3393 -0.321999 -1.54275 0
M  V30 817 C 79.6163 0.335232 -1.92706 0
M  V30 818 C 79.9963 1.70006 -1.25145 0
M  V30 819 O 79.3443 2.25067 -0.394596 0
M  V30 820 C 79.5543 0.429008 -3.46353 0
M  V30 821 C 80.9023 0.690029 -4.18956 0
M  V30 822 O 81.9263 0.511992 -3.52501 0
M  V30 823 O 80.7853 1.03338 -5.36641 0
M  V30 824 H 77.8793 0.191143 -0.804608 0
M  V30 825 H 80.4253 -0.3716 -1.65581 0
M  V30 826 H 79.1973 -0.529611 -3.87699 0
M  V30 827 H 78.8203 1.18348 -3.79578 0
M  V30 828 N 79.8174 1.5752 -0.0501392 0
M  V30 829 C 80.7474 2.14502 0.922566 0
M  V30 830 C 81.7284 1.06642 1.3252 0
M  V30 831 O 82.9134 1.34577 1.4001 0
M  V30 832 C 80.0434 2.68916 2.19776 0
M  V30 833 C 78.9974 3.8175 1.93523 0
M  V30 834 C 78.3234 4.22677 3.27487 0
M  V30 835 C 79.6234 5.06932 1.25765 0
M  V30 836 H 81.3174 2.9603 0.447952 0
M  V30 837 H 78.8634 1.42401 0.214024 0
M  V30 838 H 80.8164 3.07419 2.88222 0
M  V30 839 H 79.5404 1.84578 2.69441 0
M  V30 840 H 78.1994 3.43718 1.27489 0
M  V30 841 H 77.8474 3.35291 3.74952 0
M  V30 842 H 77.5474 4.98725 3.1072 0
M  V30 843 H 79.0714 4.63779 3.97166 0
M  V30 844 H 80.4854 5.42888 1.84244 0
M  V30 845 H 78.8824 5.88116 1.19328 0
M  V30 846 H 79.9524 4.84337 0.233536 0
M  V30 847 N 81.2955 -0.223234 1.56011 0
M  V30 848 C 82.2255 -1.27988 1.95298 0
M  V30 849 C 83.2065 -1.48976 0.820979 0
M  V30 850 O 84.3915 -1.61188 1.08315 0
M  V30 851 C 81.5215 -2.63 2.26822 0
M  V30 852 C 80.4755 -2.56671 3.42497 0
M  V30 853 C 79.8015 -3.95697 3.59622 0
M  V30 854 C 81.1015 -2.11601 4.77517 0
M  V30 855 H 82.7955 -0.953525 2.8381 0
M  V30 856 H 80.3415 -0.457244 1.36548 0
M  V30 857 H 82.2945 -3.37077 2.52898 0
M  V30 858 H 81.0185 -2.9732 1.35161 0
M  V30 859 H 79.6775 -1.85051 3.16467 0
M  V30 860 H 79.3255 -4.27322 2.6534 0
M  V30 861 H 79.0255 -3.92345 4.37424 0
M  V30 862 H 80.5495 -4.71438 3.88044 0
M  V30 863 H 81.9635 -2.7542 5.02809 0
M  V30 864 H 80.3605 -2.19311 5.5859 0
M  V30 865 H 81.4305 -1.06824 4.72987 0
M  V30 866 N 82.7736 -1.49793 -0.48987 0
M  V30 867 C 84.1896 -1.36803 -0.822022 0
M  V30 868 C 84.3896 -0.409652 -1.97292 0
M  V30 869 O 83.4456 0.154614 -2.52026 0
M  V30 870 C 84.7586 -2.77768 -1.15175 0
M  V30 871 C 86.3066 -2.86549 -1.25931 0
M  V30 872 C 86.7816 -4.28306 -1.62228 0
M  V30 873 N 88.2726 -4.31169 -1.69256 0
M  V30 874 C 89.0076 -5.37832 -1.98807 0
M  V30 875 N 88.5036 -6.54726 -2.26507 0
M  V30 876 N 90.2966 -5.25258 -2.00152 0
M  V30 877 H 82.4476 -2.10691 0.268881 0
M  V30 878 H 84.7106 -0.946241 0.057728 0
M  V30 879 H 84.4166 -3.49648 -0.379335 0
M  V30 880 H 84.2906 -3.13836 -2.09253 0
M  V30 881 H 86.6776 -2.14899 -2.02243 0
M  V30 882 H 86.7586 -2.54049 -0.298776 0
M  V30 883 H 86.4026 -5.00486 -0.864622 0
M  V30 884 H 86.3326 -4.58279 -2.594 0
M  V30 885 H 88.8236 -3.4687 -1.49965 0
M  V30 886 H 89.1366 -7.31833 -2.48276 0
M  V30 887 H 87.4816 -6.57933 -2.23939 0
M  V30 888 H 90.6726 -4.32938 -1.77996 0
M  V30 889 H 90.8456 -6.08476 -2.22848 0
M  V30 890 N 84.2517 0.741722 -1.39055 0
M  V30 891 C 85.1617 1.88621 -1.39496 0
M  V30 892 C 86.1777 1.71557 -0.290578 0
M  V30 893 O 87.3537 1.94275 -0.530954 0
M  V30 894 C 84.4187 3.24134 -1.23037 0
M  V30 895 C 83.4797 3.5364 -2.43387 0
M  V30 896 C 82.7127 4.82687 -2.27703 0
M  V30 897 O 82.9357 5.55922 -1.27696 0
M  V30 898 O 81.8697 5.1194 -3.16545 0
M  V30 899 H 85.6957 1.91203 -2.35956 0
M  V30 900 H 83.2807 0.888625 -1.20099 0
M  V30 901 H 85.1627 4.0513 -1.15964 0
M  V30 902 H 83.8377 3.22337 -0.296691 0
M  V30 903 H 82.7447 2.72758 -2.56035 0
M  V30 904 H 84.0777 3.60209 -3.35425 0
M  V30 905 N 85.7298 1.2412 0.971189 0
M  V30 906 C 86.6928 1.03156 2.04674 0
M  V30 907 C 87.6928 -0.00990322 1.60797 0
M  V30 908 O 88.8828 0.230729 1.72665 0
M  V30 909 C 86.0148 0.562765 3.36223 0
M  V30 910 H 87.2078 1.98614 2.24705 0
M  V30 911 H 84.7608 1.06293 1.14593 0
M  V30 912 H 85.4958 -0.395176 3.21883 0
M  V30 913 H 85.2808 1.31441 3.69413 0
M  V30 914 H 86.7708 0.437015 4.15307 0
M  V30 915 N 87.2079 -1.17134 1.05439 0
M  V30 916 C 88.4559 -1.87085 0.764429 0
M  V30 917 C 88.7769 -1.81584 -0.710787 0
M  V30 918 O 88.0469 -1.24349 -1.51374 0
M  V30 919 H 86.6269 -0.692627 0.279779 0
M  V30 920 H 89.2889 -1.42087 1.33406 0
M  V30 921 H 88.3849 -2.92759 1.0816 0
M  V30 922 N 88.686 -0.835752 -1.33615 0
M  V30 923 C 89.932 -0.430596 -1.98176 0
M  V30 924 C 90.265 1.00684 -1.66061 0
M  V30 925 O 89.54 1.70339 -0.938877 0
M  V30 926 C 89.823 -0.648065 -3.5422 0
M  V30 927 C 89.676 -2.13255 -3.96033 0
M  V30 928 C 90.995 -0.0922113 -4.40003 0
M  V30 929 H 88.114 -0.157924 -0.719881 0
M  V30 930 H 90.756 -1.05069 -1.58305 0
M  V30 931 H 88.906 -0.120237 -3.88314 0
M  V30 932 H 90.578 -2.725 -3.72211 0
M  V30 933 H 88.821 -2.61823 -3.45878 0
M  V30 934 H 89.492 -2.23547 -5.04708 0
M  V30 935 H 91.968 -0.543343 -4.12537 0
M  V30 936 H 90.844 -0.274083 -5.48215 0
M  V30 937 H 91.105 1.00378 -4.30554 0
M  V30 938 N 90.1641 1.46063 -0.591896 0
M  V30 939 C 91.4411 1.95595 -0.0137119 0
M  V30 940 C 91.8211 1.5345 1.4497 0
M  V30 941 O 91.1691 0.789543 2.14426 0
M  V30 942 C 91.3791 3.48453 -0.195373 0
M  V30 943 C 92.7271 4.24546 -0.0679765 0
M  V30 944 O 93.7511 3.55982 -0.124681 0
M  V30 945 O 92.6101 5.46467 0.0600579 0
M  V30 946 H 89.7041 0.825795 0.0446279 0
M  V30 947 H 92.2501 1.56303 -0.660859 0
M  V30 948 H 91.0221 3.72045 -1.21235 0
M  V30 949 H 90.6451 3.94597 0.487775 0
M  V30 950 N 91.6422 0.330177 1.54103 0
M  V30 951 C 93.0582 -0.0222371 1.59585 0
M  V30 952 C 93.2582 -1.49902 1.34654 0
M  V30 953 O 92.3142 -2.25592 1.13421 0
M  V30 954 C 93.6272 0.401932 2.98002 0
M  V30 955 C 95.1752 0.353145 3.11001 0
M  V30 956 C 95.6502 0.752576 4.51775 0
M  V30 957 N 97.1412 0.706239 4.57784 0
M  V30 958 C 97.8762 0.987417 5.64834 0
M  V30 959 N 97.3722 1.33607 6.79795 0
M  V30 960 N 99.1652 0.91254 5.54643 0
M  V30 961 H 91.3162 1.29228 1.68564 0
M  V30 962 H 93.5792 0.525906 0.78875 0
M  V30 963 H 93.2852 1.4311 3.21267 0
M  V30 964 H 93.1592 -0.229699 3.765 0
M  V30 965 H 95.5462 -0.666822 2.87467 0
M  V30 966 H 95.6272 1.0198 2.34593 0
M  V30 967 H 95.2712 1.77049 4.76042 0
M  V30 968 H 95.2012 0.0635409 5.26562 0
M  V30 969 H 97.6922 0.44889 3.75224 0
M  V30 970 H 98.0052 1.53582 7.57385 0
M  V30 971 H 96.3502 1.37439 6.81275 0
M  V30 972 H 99.5412 0.639601 4.6371 0
M  V30 973 H 99.7142 1.13503 6.37982 0
M  V30 974 N 93.1203 -1.57491 0.0584922 0
M  V30 975 C 94.5363 -1.56792 -0.298091 0
M  V30 976 C 94.7363 -1.06679 -1.70944 0
M  V30 977 O 93.7923 -0.726672 -2.41818 0
M  V30 978 C 95.1053 -3.00461 -0.119879 0
M  V30 979 C 96.6533 -3.1242 -0.190428 0
M  V30 980 C 97.1283 -4.57982 -0.0406567 0
M  V30 981 N 98.6193 -4.63099 -0.0966958 0
M  V30 982 C 99.3543 -5.734 -0.00502943 0
M  V30 983 N 98.8503 -6.9266 0.139402 0
M  V30 984 N 100.643 -5.62067 -0.0611391 0
M  V30 985 H 92.7943 -1.88386 0.98105 0
M  V30 986 H 95.0573 -0.867865 0.381463 0
M  V30 987 H 94.7633 -3.41187 0.85349 0
M  V30 988 H 94.6373 -3.66843 -0.877833 0
M  V30 989 H 97.0243 -2.71589 -1.15427 0
M  V30 990 H 97.1053 -2.48702 0.598405 0
M  V30 991 H 96.7493 -4.995 0.919897 0
M  V30 992 H 96.6793 -5.19715 -0.848727 0
M  V30 993 H 99.1703 -3.77331 -0.207277 0
M  V30 994 H 99.4833 -7.72536 0.201855 0
M  V30 995 H 97.8283 -6.94781 0.174586 0
M  V30 996 H 101.019 -4.67782 -0.172583 0
M  V30 997 H 101.192 -6.47999 0.0137562 0
M  V30 998 N 94.5984 0.214957 -1.56127 0
M  V30 999 C 95.5314 1.29382 -1.87977 0
M  V30 1000 C 96.5094 1.44897 -0.737807 0
M  V30 1001 O 97.6934 1.60605 -0.986833 0
M  V30 1002 C 94.8204 2.66325 -2.09258 0
M  V30 1003 C 93.8664 2.67789 -3.31951 0
M  V30 1004 S 94.6994 2.21198 -4.8768 0
M  V30 1005 C 95.8554 3.60003 -5.12004 0
M  V30 1006 H 96.0884 1.02173 -2.79192 0
M  V30 1007 H 93.6214 0.417516 -1.48648 0
M  V30 1008 H 95.5794 3.45162 -2.22201 0
M  V30 1009 H 94.2404 2.90755 -1.18829 0
M  V30 1010 H 93.4334 3.68436 -3.43906 0
M  V30 1011 H 93.0354 1.9702 -3.17898 0
M  V30 1012 H 95.3274 4.55739 -5.01307 0
M  V30 1013 H 96.2704 3.52959 -6.13861 0
M  V30 1014 H 96.6784 3.53996 -4.39712 0
M  V30 1015 N 96.0765 1.50051 0.48192 0
M  V30 1016 C 97.0395 1.67584 1.5636 0
M  V30 1017 C 98.0395 0.546894 1.51214 0
M  V30 1018 O 99.2295 0.813725 1.54026 0
M  V30 1019 C 96.3615 1.691 2.96003 0
M  V30 1020 H 97.5545 2.64078 1.42136 0
M  V30 1021 H 95.1075 1.39369 0.707533 0
M  V30 1022 H 95.8425 0.742589 3.15684 0
M  V30 1023 H 95.6275 2.51105 3.01146 0
M  V30 1024 H 97.1175 1.84656 3.74556 0
M  V30 1025 N 97.5546 -0.734337 1.39446 0
M  V30 1026 C 98.9706 -1.03997 1.21065 0
M  V30 1027 C 99.1706 -2.01369 0.0727019 0
M  V30 1028 O 98.2266 -2.45856 -0.575426 0
M  V30 1029 C 99.5396 -1.60163 2.54496 0
M  V30 1030 C 101.088 -1.7224 2.61347 0
M  V30 1031 C 101.563 -2.31814 3.95002 0
M  V30 1032 N 103.054 -2.39223 3.96644 0
M  V30 1033 C 103.789 -2.86258 4.96834 0
M  V30 1034 N 103.285 -3.33184 6.07421 0
M  V30 1035 N 105.078 -2.85473 4.84213 0
M  V30 1036 H 97.2286 -0.0885624 2.12215 0
M  V30 1037 H 99.4916 -0.10191 0.942506 0
M  V30 1038 H 99.1976 -0.960811 3.38321 0
M  V30 1039 H 99.0716 -2.5896 2.74262 0
M  V30 1040 H 101.459 -2.35443 1.77906 0
M  V30 1041 H 101.54 -0.720939 2.4543 0
M  V30 1042 H 101.184 -1.69238 4.78875 0
M  V30 1043 H 101.114 -3.32638 4.08239 0
M  V30 1044 H 103.605 -2.06057 3.16779 0
M  V30 1045 H 103.918 -3.67586 6.7978 0
M  V30 1046 H 102.263 -3.31191 6.11013 0
M  V30 1047 H 105.454 -2.48136 3.96921 0
M  V30 1048 H 105.627 -3.21814 5.62441 0
M  V30 1049 N 99.0327 -1.24633 -0.964593 0
M  V30 1050 C 100.31 -0.995809 -1.68354 0
M  V30 1051 C 100.69 0.480964 -2.05548 0
M  V30 1052 O 100.038 1.45599 -1.76105 0
M  V30 1053 C 100.248 -1.92177 -2.91323 0
M  V30 1054 C 101.596 -2.19446 -3.63495 0
M  V30 1055 O 102.62 -1.89855 -3.01386 0
M  V30 1056 O 101.479 -2.69714 -4.75307 0
M  V30 1057 H 98.5727 -0.376854 -0.736146 0
M  V30 1058 H 101.119 -1.35745 -1.0184 0
M  V30 1059 H 99.8907 -2.91938 -2.60553 0
M  V30 1060 H 99.5137 -1.56349 -3.65569 0
M  V30 1061 N 100.511 1.16574 -1.06058 0
M  V30 1062 C 101.759 1.86677 -0.77434 0
M  V30 1063 C 102.08 1.81959 0.701147 0
M  V30 1064 O 101.35 1.2515 1.50713 0
M  V30 1065 H 99.9298 0.691134 -0.283449 0
M  V30 1066 H 102.592 1.41378 -1.34158 0
M  V30 1067 H 101.688 2.92181 -1.09711 0
M  V30 1068 N 101.989 0.842826 1.3317 0
M  V30 1069 C 102.919 0.294028 2.31641 0
M  V30 1070 C 103.9 -0.600401 1.59151 0
M  V30 1071 O 105.085 -0.523124 1.87022 0
M  V30 1072 C 102.215 -0.528416 3.43257 0
M  V30 1073 C 101.169 0.27056 4.27144 0
M  V30 1074 C 100.495 -0.675881 5.30411 0
M  V30 1075 C 101.795 1.48981 5.00602 0
M  V30 1076 H 103.489 1.11681 2.77791 0
M  V30 1077 H 101.035 0.538478 1.33553 0
M  V30 1078 H 102.988 -0.922674 4.11175 0
M  V30 1079 H 101.712 -1.38445 2.95805 0
M  V30 1080 H 100.371 0.646427 3.60856 0
M  V30 1081 H 100.019 -1.52842 4.79216 0
M  V30 1082 H 99.7189 -0.145374 5.8742 0
M  V30 1083 H 101.243 -1.06757 6.01195 0
M  V30 1084 H 102.657 1.16849 5.61266 0
M  V30 1085 H 101.054 1.95739 5.6728 0
M  V30 1086 H 102.124 2.25746 4.29147 0
M  V30 1087 N 103.467 -1.45747 0.599634 0
M  V30 1088 C 104.713 -2.02592 0.0918643 0
M  V30 1089 C 105.046 -1.46806 -1.27128 0
M  V30 1090 O 104.321 -0.639658 -1.83681 0
M  V30 1091 C 104.604 -3.60073 0.0443398 0
M  V30 1092 C 104.457 -4.26208 1.43759 0
M  V30 1093 C 105.776 -4.35309 -0.647608 0
M  V30 1094 H 102.895 -0.736175 0.034857 0
M  V30 1095 H 105.537 -1.73694 0.770081 0
M  V30 1096 H 103.687 -3.84823 -0.533224 0
M  V30 1097 H 105.359 -4.12668 2.06162 0
M  V30 1098 H 103.602 -3.84916 2.00056 0
M  V30 1099 H 104.273 -5.35069 1.35665 0
M  V30 1100 H 106.749 -4.15805 -0.156776 0
M  V30 1101 H 105.625 -5.45038 -0.649942 0
M  V30 1102 H 105.886 -4.07598 -1.71219 0
M  V30 1103 N 104.945 -0.338344 -1.53925 0
M  V30 1104 C 105.895 0.536712 -2.21593 0
M  V30 1105 C 106.879 1.07015 -1.20153 0
M  V30 1106 O 108.071 1.00471 -1.45721 0
M  V30 1107 C 105.2 1.68977 -2.98834 0
M  V30 1108 C 104.286 1.17052 -4.07627 0
M  V30 1109 N 104.677 0.372085 -5.0443 0
M  V30 1110 C 102.975 1.44789 -4.21844 0
M  V30 1111 C 103.676 0.0909171 -5.81629 0
M  V30 1112 N 102.652 0.681131 -5.39316 0
M  V30 1113 H 106.454 -0.0804298 -2.9379 0
M  V30 1114 H 103.968 -0.144943 -1.61752 0
M  V30 1115 H 105.965 2.32857 -3.45808 0
M  V30 1116 H 104.625 2.31024 -2.28162 0
M  V30 1117 H 105.636 0.0136217 -5.17898 0
M  V30 1118 H 102.313 2.07313 -3.62391 0
M  V30 1119 H 103.703 -0.552817 -6.69622 0
M  V30 1120 N 106.423 1.57458 -0.0668435 0
M  V30 1121 C 107.333 2.15937 0.916975 0
M  V30 1122 C 108.349 1.12123 1.33058 0
M  V30 1123 O 109.525 1.44366 1.40429 0
M  V30 1124 C 106.59 2.70547 2.16807 0
M  V30 1125 C 105.651 3.89215 1.81135 0
M  V30 1126 C 104.884 4.41211 3.0028 0
M  V30 1127 O 105.107 3.92225 4.14144 0
M  V30 1128 O 104.041 5.32605 2.80384 0
M  V30 1129 H 107.867 3.00354 0.449561 0
M  V30 1130 H 105.452 1.48584 0.155949 0
M  V30 1131 H 107.334 3.0557 2.90181 0
M  V30 1132 H 106.009 1.89192 2.62656 0
M  V30 1133 H 104.916 3.59054 1.05028 0
M  V30 1134 H 106.249 4.71848 1.40073 0
M  V30 1135 N 107.901 -0.206675 1.56239 0
M  V30 1136 C 109.149 -0.927007 1.79586 0
M  V30 1137 C 109.47 -1.8427 0.637929 0
M  V30 1138 O 108.74 -1.92849 -0.344398 0
M  V30 1139 H 107.32 -0.345292 0.662407 0
M  V30 1140 H 109.982 -0.21496 1.93711 0
M  V30 1141 H 109.078 -1.52501 2.72305 0
M  V30 1142 N 109.379 -1.50304 -0.473955 0
M  V30 1143 C 110.625 -1.61389 -1.22806 0
M  V30 1144 C 110.958 -0.311955 -1.91678 0
M  V30 1145 O 110.233 0.686384 -1.81986 0
M  V30 1146 C 110.516 -2.79219 -2.27396 0
M  V30 1147 C 110.369 -4.19286 -1.62848 0
M  V30 1148 C 111.688 -2.92614 -3.28732 0
M  V30 1149 H 108.807 -0.587399 -0.445119 0
M  V30 1150 H 111.449 -1.82681 -0.522265 0
M  V30 1151 H 109.599 -2.61195 -2.87592 0
M  V30 1152 H 111.271 -4.48892 -1.06271 0
M  V30 1153 H 109.514 -4.23677 -0.931693 0
M  V30 1154 H 110.185 -4.97655 -2.38838 0
M  V30 1155 H 112.661 -3.09105 -2.78556 0
M  V30 1156 H 111.537 -3.76688 -3.99246 0
M  V30 1157 H 111.798 -2.03107 -3.92683 0
M  V30 1158 N 110.857 0.726932 -1.39834 0
M  V30 1159 C 111.767 1.87131 -1.41489 0
M  V30 1160 C 112.783 1.71239 -0.308757 0
M  V30 1161 O 113.959 1.93701 -0.551529 0
M  V30 1162 C 111.024 3.22811 -1.26468 0
M  V30 1163 C 110.085 3.51039 -2.47124 0
M  V30 1164 C 109.318 4.80245 -2.3281 0
M  V30 1165 O 109.541 5.54537 -1.33585 0
M  V30 1166 O 108.475 5.08554 -3.21957 0
M  V30 1167 H 112.301 1.8869 -2.3797 0
M  V30 1168 H 109.886 0.875837 -1.21035 0
M  V30 1169 H 111.768 4.03877 -1.20255 0
M  V30 1170 H 110.443 3.22005 -0.330862 0
M  V30 1171 H 109.35 2.70027 -2.58914 0
M  V30 1172 H 110.683 3.56632 -3.39227 0
M  V30 1173 N 112.336 1.25143 0.95797 0
M  V30 1174 C 113.585 1.0909 1.69654 0
M  V30 1175 C 113.898 -0.368548 1.92097 0
M  V30 1176 O 115.104 -0.649455 2.63618 0
M  V30 1177 C 113.56 1.90395 3.05414 0
M  V30 1178 C 113.168 3.4081 2.90779 0
M  V30 1179 C 114.912 1.82901 3.83076 0
M  V30 1180 C 112.819 4.14423 4.21909 0
M  V30 1181 H 111.749 0.404625 0.636235 0
M  V30 1182 H 114.4 1.4931 1.06672 0
M  V30 1183 H 112.782 1.42996 3.69281 0
M  V30 1184 H 113.956 3.95859 2.35865 0
M  V30 1185 H 112.271 3.49361 2.26575 0
M  V30 1186 H 114.868 2.35196 4.80195 0
M  V30 1187 H 115.211 0.796224 4.08615 0
M  V30 1188 H 115.744 2.28033 3.25954 0
M  V30 1189 H 112.483 5.18102 4.01561 0
M  V30 1190 H 112.003 3.64159 4.76601 0
M  V30 1191 H 113.682 4.21956 4.90471 0
M  V30 1192 N 113.814 -1.1601 1.06675 0
M  V30 1193 C 114.777 -2.18724 0.685001 0
M  V30 1194 C 115.777 -1.58496 -0.271246 0
M  V30 1195 O 116.967 -1.74119 -0.0531156 0
M  V30 1196 C 114.099 -3.40899 0.00853648 0
M  V30 1197 H 115.292 -2.54011 1.59431 0
M  V30 1198 H 112.845 -1.30352 0.862441 0
M  V30 1199 H 113.58 -3.11173 -0.913337 0
M  V30 1200 H 113.365 -3.8587 0.696204 0
M  V30 1201 H 114.855 -4.16886 -0.24414 0
M  V30 1202 N 115.292 -0.849877 -1.32721 0
M  V30 1203 C 116.539 -0.450923 -1.97416 0
M  V30 1204 C 116.867 0.992376 -1.67279 0
M  V30 1205 O 116.122 1.71048 -0.950845 0
M  V30 1206 C 116.421 -0.631272 -3.51781 0
M  V30 1207 C 116.087 -2.04432 -4.01894 0
M  V30 1208 C 114.749 -2.4308 -4.1529 0
M  V30 1209 C 117.101 -2.96679 -4.28522 0
M  V30 1210 C 114.429 -3.73257 -4.52654 0
M  V30 1211 C 116.781 -4.26349 -4.67343 0
M  V30 1212 C 115.445 -4.64939 -4.78945 0
M  V30 1213 H 114.715 -0.165004 -0.722395 0
M  V30 1214 H 117.362 -1.07901 -1.58207 0
M  V30 1215 H 115.667 0.0800767 -3.91718 0
M  V30 1216 H 117.364 -0.302709 -3.99856 0
M  V30 1217 H 113.954 -1.73419 -3.91949 0
M  V30 1218 H 118.138 -2.68054 -4.17685 0
M  V30 1219 H 113.394 -4.02946 -4.59831 0
M  V30 1220 H 117.568 -4.97895 -4.86902 0
M  V30 1221 H 115.195 -5.65855 -5.07654 0
M  V30 1222 N 116.77 1.45427 -0.607355 0
M  V30 1223 C 117.733 2.28974 0.101693 0
M  V30 1224 C 118.733 1.39754 0.795329 0
M  V30 1225 O 119.923 1.61878 0.643527 0
M  V30 1226 C 117.055 3.20768 1.15414 0
M  V30 1227 H 118.248 2.93147 -0.632844 0
M  V30 1228 H 115.801 1.51945 -0.366391 0
M  V30 1229 H 116.536 2.61395 1.91945 0
M  V30 1230 H 116.321 3.86489 0.66098 0
M  V30 1231 H 117.811 3.83589 1.65073 0
M  V30 1232 N 118.248 0.346503 1.53744 0
M  V30 1233 C 119.496 -0.248612 2.00565 0
M  V30 1234 C 119.817 -1.5083 1.23593 0
M  V30 1235 O 119.087 -1.92858 0.343912 0
M  V30 1236 H 117.667 -0.0948564 0.740953 0
M  V30 1237 H 120.329 0.468341 1.89189 0
M  V30 1238 H 119.425 -0.488994 3.08245 0
M  V30 1239 N 119.726 -1.57421 0.075193 0
M  V30 1240 C 120.658 -2.09904 -0.920483 0
M  V30 1241 C 121.671 -1.03191 -1.25918 0
M  V30 1242 O 122.86 -1.30695 -1.21577 0
M  V30 1243 C 119.96 -2.54726 -2.23534 0
M  V30 1244 C 119.133 -3.8505 -2.07498 0
M  V30 1245 C 118.192 -4.15929 -3.22319 0
M  V30 1246 O 117.218 -4.85474 -2.9716 0
M  V30 1247 N 118.42 -3.69745 -4.47514 0
M  V30 1248 H 121.185 -2.95954 -0.472359 0
M  V30 1249 H 118.746 -1.61523 -0.110444 0
M  V30 1250 H 120.738 -2.72443 -2.9926 0
M  V30 1251 H 119.308 -1.73795 -2.59835 0
M  V30 1252 H 118.528 -3.76679 -1.16219 0
M  V30 1253 H 119.816 -4.70348 -1.94038 0
M  V30 1254 H 119.214 -3.13569 -4.7084 0
M  V30 1255 H 117.771 -3.92655 -5.20255 0
M  V30 1256 N 121.204 0.198386 -1.56346 0
M  V30 1257 C 122.62 0.549085 -1.49857 0
M  V30 1258 C 122.82 1.86016 -0.774611 0
M  V30 1259 O 121.876 2.50416 -0.323776 0
M  V30 1260 C 123.189 0.606868 -2.94512 0
M  V30 1261 C 124.737 0.695925 -3.05165 0
M  V30 1262 C 125.212 0.784848 -4.51225 0
M  V30 1263 N 126.703 0.848463 -4.55363 0
M  V30 1264 C 127.438 0.937378 -5.65686 0
M  V30 1265 N 126.934 0.9888 -6.85707 0
M  V30 1266 N 128.727 0.974312 -5.53592 0
M  V30 1267 H 120.878 -0.661655 -2.01831 0
M  V30 1268 H 123.141 -0.235261 -0.918344 0
M  V30 1269 H 122.847 -0.28732 -3.50524 0
M  V30 1270 H 122.721 1.46268 -3.47686 0
M  V30 1271 H 125.108 1.58055 -2.49204 0
M  V30 1272 H 125.189 -0.186022 -2.55123 0
M  V30 1273 H 124.833 -0.0954072 -5.0781 0
M  V30 1274 H 124.763 1.68255 -4.98997 0
M  V30 1275 H 127.254 0.818103 -3.68938 0
M  V30 1276 H 127.567 1.05707 -7.65536 0
M  V30 1277 H 125.912 0.957534 -6.88372 0
M  V30 1278 H 129.103 0.930954 -4.58749 0
M  V30 1279 H 129.276 1.04015 -6.39597 0
M  V30 1280 N 122.682 1.50554 0.465978 0
M  V30 1281 C 124.098 1.38093 0.800154 0
M  V30 1282 C 124.298 0.440988 1.96615 0
M  V30 1283 O 123.354 -0.114499 2.5224 0
M  V30 1284 C 124.667 2.79565 1.10742 0
M  V30 1285 C 126.215 2.88516 1.21357 0
M  V30 1286 C 126.69 4.30833 1.55393 0
M  V30 1287 N 128.181 4.33807 1.62375 0
M  V30 1288 C 128.916 5.40927 1.90225 0
M  V30 1289 N 128.412 6.58247 2.16062 0
M  V30 1290 N 130.205 5.28376 1.9177 0
M  V30 1291 H 122.356 2.10237 -0.302366 0
M  V30 1292 H 124.619 0.945203 -0.0727746 0
M  V30 1293 H 124.325 3.50208 0.323661 0
M  V30 1294 H 124.199 3.17125 2.04234 0
M  V30 1295 H 126.586 2.1809 1.98799 0
M  V30 1296 H 126.667 2.54492 0.258321 0
M  V30 1297 H 126.311 5.01799 0.784889 0
M  V30 1298 H 126.241 4.62347 2.52076 0
M  V30 1299 H 128.732 3.49212 1.44427 0
M  V30 1300 H 129.045 7.3569 2.36601 0
M  V30 1301 H 127.39 6.61413 2.13444 0
M  V30 1302 H 130.581 4.35715 1.71085 0
M  V30 1303 H 130.754 6.11944 2.13139 0
M  V30 1304 N 124.16 -0.719506 1.40217 0
M  V30 1305 C 125.576 -1.02707 1.22161 0
M  V30 1306 C 125.776 -2.0128 0.0940557 0
M  V30 1307 O 124.832 -2.46452 -0.549318 0
M  V30 1308 C 126.145 -1.57454 2.56181 0
M  V30 1309 C 127.693 -1.69458 2.63159 0
M  V30 1310 C 128.168 -2.27611 3.97438 0
M  V30 1311 N 129.659 -2.35002 3.99159 0
M  V30 1312 C 130.394 -2.80972 4.99842 0
M  V30 1313 N 129.89 -3.26723 6.10921 0
M  V30 1314 N 131.683 -2.80321 4.87213 0
M  V30 1315 H 123.834 -0.0660492 2.12297 0
M  V30 1316 H 126.097 -0.0919077 0.943534 0
M  V30 1317 H 125.803 -0.924873 3.39321 0
M  V30 1318 H 125.677 -2.56036 2.76993 0
M  V30 1319 H 128.064 -2.33543 1.80393 0
M  V30 1320 H 128.145 -0.694867 2.46181 0
M  V30 1321 H 127.789 -1.6415 4.80643 0
M  V30 1322 H 127.719 -3.2829 4.11744 0
M  V30 1323 H 130.21 -2.02685 3.18947 0
M  V30 1324 H 130.523 -3.60355 6.8364 0
M  V30 1325 H 128.868 -3.24692 6.14492 0
M  V30 1326 H 132.059 -2.43912 3.9953 0
M  V30 1327 H 132.232 -3.15831 5.65822 0
M  V30 1328 N 125.638 -1.25649 -0.95132 0
M  V30 1329 C 126.887 -1.09988 -1.69073 0
M  V30 1330 C 127.2 0.358355 -1.92289 0
M  V30 1331 O 128.406 0.635466 -2.63958 0
M  V30 1332 C 126.862 -1.92012 -3.044 0
M  V30 1333 C 126.47 -3.42347 -2.88968 0
M  V30 1334 C 128.214 -1.8493 -3.82101 0
M  V30 1335 C 126.121 -4.16655 -4.19705 0
M  V30 1336 H 125.051 -0.407993 -0.63408 0
M  V30 1337 H 127.702 -1.49873 -1.05879 0
M  V30 1338 H 126.084 -1.44952 -3.68517 0
M  V30 1339 H 127.258 -3.97104 -2.33762 0
M  V30 1340 H 125.573 -3.50557 -2.24719 0
M  V30 1341 H 128.17 -2.37739 -4.78941 0
M  V30 1342 H 128.513 -0.817883 -4.08187 0
M  V30 1343 H 129.046 -2.29758 -3.2474 0
M  V30 1344 H 125.785 -5.20224 -3.98807 0
M  V30 1345 H 125.305 -3.66681 -4.74663 0
M  V30 1346 H 126.984 -4.24551 -4.88227 0
M  V30 1347 N 127.117 1.15442 -1.07289 0
M  V30 1348 C 128.394 1.82306 -0.708792 0
M  V30 1349 C 128.774 1.94991 0.808807 0
M  V30 1350 O 128.122 1.50085 1.72298 0
M  V30 1351 C 128.332 3.18695 -1.42247 0
M  V30 1352 C 129.68 3.94341 -1.57417 0
M  V30 1353 O 130.704 3.28247 -1.38319 0
M  V30 1354 O 129.563 5.12839 -1.88834 0
M  V30 1355 H 126.657 0.787628 -0.252132 0
M  V30 1356 H 129.203 1.22559 -1.17377 0
M  V30 1357 H 127.975 3.04557 -2.45684 0
M  V30 1358 H 127.598 3.86128 -0.948223 0
M  V30 1359 N 128.595 0.856903 1.32268 0
M  V30 1360 C 129.525 0.31858 2.31316 0
M  V30 1361 C 130.506 -0.583487 1.59779 0
M  V30 1362 O 131.691 -0.503259 1.87566 0
M  V30 1363 C 128.821 -0.491979 3.43798 0
M  V30 1364 C 127.775 0.315849 4.26833 0
M  V30 1365 C 127.101 -0.619586 5.31098 0
M  V30 1366 C 128.401 1.54282 4.98993 0
M  V30 1367 H 130.095 1.14621 2.76591 0
M  V30 1368 H 127.641 0.552613 1.32974 0
M  V30 1369 H 129.594 -0.879012 4.1213 0
M  V30 1370 H 128.318 -1.35299 2.97257 0
M  V30 1371 H 126.977 0.684664 3.6015 0
M  V30 1372 H 126.625 -1.47751 4.8081 0
M  V30 1373 H 126.325 -0.0830621 5.87541 0
M  V30 1374 H 127.849 -1.00375 6.02293 0
M  V30 1375 H 129.263 1.22796 5.59995 0
M  V30 1376 H 127.66 2.01745 5.65172 0
M  V30 1377 H 128.73 2.30285 4.26728 0
M  V30 1378 N 130.073 -1.45103 0.615059 0
M  V30 1379 C 131.02 -2.30586 -0.0993978 0
M  V30 1380 C 131.99 -1.42544 -0.852669 0
M  V30 1381 O 133.175 -1.71465 -0.836917 0
M  V30 1382 C 130.315 -3.27572 -1.08583 0
M  V30 1383 C 129.428 -4.30717 -0.332656 0
M  V30 1384 C 128.563 -5.14807 -1.30947 0
M  V30 1385 C 127.602 -6.09673 -0.544538 0
M  V30 1386 N 126.739 -6.86517 -1.47101 0
M  V30 1387 H 131.579 -2.91144 0.635542 0
M  V30 1388 H 129.116 -1.4346 0.325206 0
M  V30 1389 H 131.074 -3.82276 -1.67095 0
M  V30 1390 H 129.704 -2.68751 -1.78809 0
M  V30 1391 H 128.756 -3.78615 0.368107 0
M  V30 1392 H 130.068 -4.98102 0.263842 0
M  V30 1393 H 129.222 -5.73948 -1.96643 0
M  V30 1394 H 127.961 -4.47458 -1.9399 0
M  V30 1395 H 126.966 -5.49656 0.126003 0
M  V30 1396 H 128.191 -6.79052 0.080947 0
M  V30 1397 H 126.137 -6.21851 -2.08895 0
M  V30 1398 H 126.054 -7.50281 -0.928137 0
M  V30 1399 H 127.322 -7.50194 -2.11731 0
M  V30 1400 N 131.551 -0.354651 -1.53558 0
M  V30 1401 C 132.967 -0.00315426 -1.596 0
M  V30 1402 C 133.167 1.47741 -1.37021 0
M  V30 1403 O 132.223 2.23759 -1.16996 0
M  V30 1404 C 133.536 -0.44929 -2.97325 0
M  V30 1405 C 135.084 -0.402578 -3.104 0
M  V30 1406 C 135.559 -0.824355 -4.5052 0
M  V30 1407 N 137.05 -0.778979 -4.56603 0
M  V30 1408 C 137.785 -1.07715 -5.63192 0
M  V30 1409 N 137.281 -1.44405 -6.77583 0
M  V30 1410 N 139.074 -1.00066 -5.53121 0
M  V30 1411 H 131.225 -1.31893 -1.66487 0
M  V30 1412 H 133.488 -0.538388 -0.780284 0
M  V30 1413 H 133.194 -1.48202 -3.1895 0
M  V30 1414 H 133.068 0.169772 -3.76818 0
M  V30 1415 H 135.455 0.621004 -2.88492 0
M  V30 1416 H 135.536 -1.05699 -2.32941 0
M  V30 1417 H 135.18 -1.846 -4.73165 0
M  V30 1418 H 135.11 -0.147304 -5.26394 0
M  V30 1419 H 137.601 -0.508528 -3.74463 0
M  V30 1420 H 137.914 -1.65612 -7.54846 0
M  V30 1421 H 136.259 -1.4826 -6.79002 0
M  V30 1422 H 139.45 -0.713293 -4.62633 0
M  V30 1423 H 139.623 -1.23638 -6.36096 0
M  V30 1424 N 133.029 1.57378 -0.0835403 0
M  V30 1425 C 133.959 2.1641 0.87686 0
M  V30 1426 C 134.94 1.09429 1.30228 0
M  V30 1427 O 136.125 1.37516 1.37124 0
M  V30 1428 C 133.255 2.73517 2.14022 0
M  V30 1429 C 132.209 3.85769 1.85381 0
M  V30 1430 C 131.535 4.29529 3.18448 0
M  V30 1431 C 132.835 5.09486 1.14984 0
M  V30 1432 H 134.529 2.96914 0.385059 0
M  V30 1433 H 132.075 1.42823 0.18377 0
M  V30 1434 H 134.028 3.13463 2.81636 0
M  V30 1435 H 132.752 1.90252 2.65465 0
M  V30 1436 H 131.411 3.46345 1.20169 0
M  V30 1437 H 131.059 3.43169 3.67755 0
M  V30 1438 H 130.759 5.05204 3.00071 0
M  V30 1439 H 132.283 4.72099 3.8724 0
M  V30 1440 H 133.697 5.46674 1.72687 0
M  V30 1441 H 132.094 5.90515 1.06826 0
M  V30 1442 H 133.164 4.84724 0.130749 0
M  V30 1443 N 134.507 -0.190092 1.56449 0
M  V30 1444 C 135.732 -0.929864 1.85387 0
M  V30 1445 C 136.157 -1.7585 0.667704 0
M  V30 1446 O 135.515 -1.77198 -0.383459 0
M  V30 1447 C 135.563 -1.79773 3.12593 0
M  V30 1448 O 134.667 -2.89713 2.93496 0
M  V30 1449 H 134.008 -0.261574 0.610307 0
M  V30 1450 H 136.538 -0.193896 2.03679 0
M  V30 1451 H 136.548 -2.20139 3.43515 0
M  V30 1452 H 135.223 -1.18892 3.98544 0
M  V30 1453 H 133.8 -2.53065 2.73884 0
M  V30 1454 N 135.985 -1.50799 -0.457987 0
M  V30 1455 C 137.233 -1.62121 -1.2067 0
M  V30 1456 C 137.554 -0.329793 -1.92191 0
M  V30 1457 O 136.824 0.653409 -1.84682 0
M  V30 1458 H 135.404 -0.597441 -0.448411 0
M  V30 1459 H 138.066 -1.87637 -0.527096 0
M  V30 1460 H 137.162 -2.43882 -1.94751 0
M  V30 1461 N 137.463 0.71206 -1.40597 0
M  V30 1462 C 138.711 1.46907 -1.38791 0
M  V30 1463 C 139.032 1.94998 0.00780391 0
M  V30 1464 O 138.302 1.70587 0.963174 0
M  V30 1465 H 136.882 0.545043 -0.51082 0
M  V30 1466 H 139.544 0.843882 -1.75683 0
M  V30 1467 H 138.64 2.34021 -2.06496 0
M  V30 1468 N 138.941 1.26152 0.944643 0
M  V30 1469 C 139.888 1.07408 2.04285 0
M  V30 1470 C 140.858 -0.0198413 1.66088 0
M  V30 1471 O 142.043 0.139264 1.90291 0
M  V30 1472 C 139.183 0.70945 3.37729 0
M  V30 1473 C 138.296 1.87926 3.88983 0
M  V30 1474 C 137.431 1.45807 5.10797 0
M  V30 1475 C 136.47 2.5964 5.54305 0
M  V30 1476 N 135.607 2.18226 6.67324 0
M  V30 1477 H 140.447 2.01389 2.1965 0
M  V30 1478 H 137.984 1.00275 1.07626 0
M  V30 1479 H 139.942 0.478948 4.14442 0
M  V30 1480 H 138.572 -0.193389 3.2222 0
M  V30 1481 H 137.624 2.22279 3.08701 0
M  V30 1482 H 138.936 2.73377 4.17213 0
M  V30 1483 H 138.09 1.18781 5.94959 0
M  V30 1484 H 136.829 0.574414 4.84305 0
M  V30 1485 H 135.834 2.87399 4.68702 0
M  V30 1486 H 137.059 3.48599 5.828 0
M  V30 1487 H 135.005 1.3229 6.42523 0
M  V30 1488 H 134.922 2.97221 6.95123 0
M  V30 1489 H 136.19 1.94403 7.54869 0
M  V30 1490 N 140.419 -1.14872 1.07899 0
M  V30 1491 C 141.647 -1.89661 0.82683 0
M  V30 1492 C 142.062 -1.78312 -0.620519 0
M  V30 1493 O 141.419 -1.13888 -1.42604 0
M  V30 1494 C 141.47 -3.39817 1.23316 0
M  V30 1495 O 141.191 -3.50845 2.62372 0
M  V30 1496 C 142.692 -4.31615 1.0111 0
M  V30 1497 H 139.912 -0.60092 0.298557 0
M  V30 1498 H 142.456 -1.4551 1.43691 0
M  V30 1499 H 140.611 -3.8161 0.667286 0
M  V30 1500 H 141.025 -4.44076 2.79101 0
M  V30 1501 H 142.499 -5.35367 1.34486 0
M  V30 1502 H 142.976 -4.39169 -0.0522168 0
M  V30 1503 H 143.582 -3.95572 1.56215 0
M  V30 1504 N 141.898 -0.863906 -1.31812 0
M  V30 1505 C 143.144 -0.472535 -1.97218 0
M  V30 1506 C 143.477 0.971394 -1.68159 0
M  V30 1507 O 142.752 1.68309 -0.974798 0
M  V30 1508 C 143.035 -0.723054 -3.52766 0
M  V30 1509 C 142.888 -2.21608 -3.91421 0
M  V30 1510 C 144.207 -0.185522 -4.39709 0
M  V30 1511 H 141.326 -0.173158 -0.71637 0
M  V30 1512 H 143.968 -1.08403 -1.56041 0
M  V30 1513 H 142.118 -0.202577 -3.87971 0
M  V30 1514 H 143.79 -2.80334 -3.66347 0
M  V30 1515 H 142.033 -2.691 -3.40246 0
M  V30 1516 H 142.704 -2.34203 -4.99853 0
M  V30 1517 H 145.18 -0.630726 -4.11292 0
M  V30 1518 H 144.056 -0.390306 -5.47511 0
M  V30 1519 H 144.317 0.912229 -4.32586 0
M  V30 1520 N 143.376 1.44774 -0.622745 0
M  V30 1521 C 144.604 2.06487 -0.130722 0
M  V30 1522 C 145.019 1.46476 1.19123 0
M  V30 1523 O 144.376 0.584502 1.72887 0
M  V30 1524 C 144.427 3.615 -0.000807207 0
M  V30 1525 O 144.148 4.19274 -1.27048 0
M  V30 1526 C 145.649 4.40229 0.520898 0
M  V30 1527 H 142.869 0.666704 -0.0758106 0
M  V30 1528 H 145.413 1.85779 -0.854774 0
M  V30 1529 H 143.568 3.81498 0.673643 0
M  V30 1530 H 143.982 5.12622 -1.1099 0
M  V30 1531 H 145.456 5.49144 0.560838 0
M  V30 1532 H 145.933 4.1108 1.54627 0
M  V30 1533 H 146.539 4.25131 -0.120018 0
M  V30 1534 N 144.854 0.36279 1.53368 0
M  V30 1535 C 146.1 -0.228113 2.01513 0
M  V30 1536 C 146.433 -1.48648 1.2497 0
M  V30 1537 O 145.708 -1.91459 0.342616 0
M  V30 1538 C 145.991 -0.522884 3.56284 0
M  V30 1539 C 145.844 0.74892 4.43521 0
M  V30 1540 C 147.163 -1.32461 4.19693 0
M  V30 1541 H 144.282 -0.0814343 0.732487 0
M  V30 1542 H 146.924 0.48713 1.83649 0
M  V30 1543 H 145.074 -1.1322 3.71636 0
M  V30 1544 H 146.746 1.38648 4.39971 0
M  V30 1545 H 144.989 1.36986 4.11603 0
M  V30 1546 H 145.66 0.497667 5.49752 0
M  V30 1547 H 148.136 -0.809203 4.08156 0
M  V30 1548 H 147.012 -1.49961 5.28018 0
M  V30 1549 H 147.273 -2.33232 3.75573 0
M  V30 1550 N 146.332 -1.57332 0.0918853 0
M  V30 1551 C 147.562 -1.98286 -0.580205 0
M  V30 1552 C 147.97 -0.969713 -1.6246 0
M  V30 1553 O 147.313 0.0493501 -1.83634 0
M  V30 1554 C 147.375 -3.35603 -1.28882 0
M  V30 1555 C 147.039 -4.55285 -0.395559 0
M  V30 1556 C 148.036 -5.18687 0.355002 0
M  V30 1557 C 145.721 -5.01314 -0.314556 0
M  V30 1558 C 147.715 -6.26484 1.17458 0
M  V30 1559 C 145.402 -6.08979 0.508677 0
M  V30 1560 C 146.4 -6.71429 1.2519 0
M  V30 1561 O 146.088 -7.77018 2.06151 0
M  V30 1562 H 145.82 -0.656678 -0.160466 0
M  V30 1563 H 148.374 -2.04721 0.16688 0
M  V30 1564 H 146.604 -3.25842 -2.08241 0
M  V30 1565 H 148.293 -3.61026 -1.85512 0
M  V30 1566 H 149.059 -4.84058 0.302134 0
M  V30 1567 H 144.938 -4.5247 -0.882697 0
M  V30 1568 H 148.482 -6.75159 1.75518 0
M  V30 1569 H 144.379 -6.4304 0.563037 0
M  V30 1570 H 145.147 -7.93991 1.98799 0
M  V30 1571 N 147.81 0.181792 -1.56548 0
M  V30 1572 C 149.058 0.89832 -1.81038 0
M  V30 1573 C 149.379 1.83232 -0.667164 0
M  V30 1574 O 148.649 1.93372 0.313673 0
M  V30 1575 H 147.229 0.33471 -0.667816 0
M  V30 1576 H 149.891 0.184116 -1.94028 0
M  V30 1577 H 148.987 1.4815 -2.74696 0
M  V30 1578 N 149.288 1.51039 0.449983 0
M  V30 1579 C 150.22 1.67617 1.56324 0
M  V30 1580 C 151.233 0.557083 1.52972 0
M  V30 1581 O 152.422 0.830989 1.57977 0
M  V30 1582 C 149.522 1.66402 2.95235 0
M  V30 1583 C 148.695 2.9469 3.23229 0
M  V30 1584 C 147.754 2.85832 4.41799 0
M  V30 1585 O 146.78 3.59785 4.41071 0
M  V30 1586 N 147.982 2.00821 5.44657 0
M  V30 1587 H 150.747 2.63648 1.42512 0
M  V30 1588 H 148.308 1.48767 0.638737 0
M  V30 1589 H 150.3 1.58062 3.72557 0
M  V30 1590 H 148.87 0.780182 3.02708 0
M  V30 1591 H 148.09 3.16996 2.34323 0
M  V30 1592 H 149.378 3.79636 3.38754 0
M  V30 1593 H 148.776 1.40091 5.48079 0
M  V30 1594 H 147.333 1.98368 6.20881 0
M  V30 1595 N 150.766 -0.704594 1.40972 0
M  V30 1596 C 151.994 -1.49354 1.43182 0
M  V30 1597 C 152.409 -1.88768 0.0345508 0
M  V30 1598 O 151.766 -1.56184 -0.944081 0
M  V30 1599 C 151.817 -2.76187 2.33244 0
M  V30 1600 O 151.538 -2.38436 3.67532 0
M  V30 1601 C 153.039 -3.7 2.44162 0
M  V30 1602 H 150.259 -0.460559 0.487982 0
M  V30 1603 H 152.803 -0.868261 1.85153 0
M  V30 1604 H 150.958 -3.34974 1.94606 0
M  V30 1605 H 151.372 -3.20126 4.15475 0
M  V30 1606 H 152.846 -4.55803 3.11364 0
M  V30 1607 H 153.323 -4.13867 1.47006 0
M  V30 1608 H 153.929 -3.17121 2.83398 0
M  V30 1609 N 152.244 -1.26651 -0.937939 0
M  V30 1610 C 153.154 -1.10276 -2.07066 0
M  V30 1611 C 154.17 -0.0354197 -1.73964 0
M  V30 1612 O 155.346 -0.239816 -1.99967 0
M  V30 1613 C 152.411 -0.740887 -3.38691 0
M  V30 1614 C 151.472 -1.88799 -3.85556 0
M  V30 1615 C 150.705 -1.54329 -5.10899 0
M  V30 1616 O 150.928 -0.446494 -5.6865 0
M  V30 1617 O 149.862 -2.37911 -5.52885 0
M  V30 1618 H 153.688 -2.05309 -2.23789 0
M  V30 1619 H 151.273 -1.05743 -1.0554 0
M  V30 1620 H 153.155 -0.55195 -4.1777 0
M  V30 1621 H 151.83 0.180022 -3.23199 0
M  V30 1622 H 150.737 -2.13191 -3.07409 0
M  V30 1623 H 152.07 -2.78874 -4.05574 0
M  V30 1624 N 153.722 1.14298 -1.08507 0
M  V30 1625 C 154.968 1.85633 -0.816581 0
M  V30 1626 C 155.301 1.82784 0.656021 0
M  V30 1627 O 154.576 1.25926 1.48233 0
M  V30 1628 C 154.859 3.34223 -1.34041 0
M  V30 1629 C 154.712 3.45639 -2.87843 0
M  V30 1630 C 156.031 4.29356 -0.9665 0
M  V30 1631 H 153.15 0.67402 -0.298104 0
M  V30 1632 H 155.792 1.34214 -1.34487 0
M  V30 1633 H 153.942 3.78144 -0.89104 0
M  V30 1634 H 155.614 3.10498 -3.41158 0
M  V30 1635 H 153.857 2.86817 -3.25451 0
M  V30 1636 H 154.528 4.50089 -3.19569 0
M  V30 1637 H 157.004 3.93457 -1.35391 0
M  V30 1638 H 155.88 5.3178 -1.3602 0
M  V30 1639 H 156.141 4.41919 0.126362 0
M  V30 1640 N 155.201 0.870884 1.31352 0
M  V30 1641 C 156.429 0.49677 2.00848 0
M  V30 1642 C 156.844 -0.910998 1.65367 0
M  V30 1643 O 156.201 -1.59696 0.883374 0
M  V30 1644 C 156.252 0.645308 3.55694 0
M  V30 1645 O 155.973 1.99764 3.89905 0
M  V30 1646 C 157.474 0.272326 4.42463 0
M  V30 1647 H 154.694 0.193462 0.642506 0
M  V30 1648 H 157.238 1.1723 1.67563 0
M  V30 1649 H 155.393 0.0173176 3.87396 0
M  V30 1650 H 155.807 2.00607 4.84621 0
M  V30 1651 H 157.281 0.427208 5.50344 0
M  V30 1652 H 157.758 -0.788587 4.32062 0
M  V30 1653 H 158.364 0.876054 4.1618 0
M  V30 1654 N 156.679 -1.44442 0.630414 0
M  V30 1655 C 158.095 -1.56832 0.295973 0
M  V30 1656 C 158.295 -1.61806 -1.20088 0
M  V30 1657 O 157.351 -1.5607 -1.9849 0
M  V30 1658 C 158.664 -2.84031 0.987264 0
M  V30 1659 C 160.212 -2.97742 0.96534 0
M  V30 1660 C 160.687 -4.27743 1.63708 0
M  V30 1661 N 162.178 -4.34555 1.60364 0
M  V30 1662 C 162.913 -5.33862 2.09234 0
M  V30 1663 N 162.409 -6.39578 2.66292 0
M  V30 1664 N 164.202 -5.25366 1.99867 0
M  V30 1665 H 156.353 -1.39457 1.60205 0
M  V30 1666 H 158.616 -0.668237 0.672431 0
M  V30 1667 H 158.322 -2.86338 2.04215 0
M  V30 1668 H 158.196 -3.73534 0.524588 0
M  V30 1669 H 160.583 -2.94989 -0.0810639 0
M  V30 1670 H 160.664 -2.09589 1.4665 0
M  V30 1671 H 160.308 -4.31255 2.68293 0
M  V30 1672 H 160.238 -5.14752 1.11076 0
M  V30 1673 H 162.729 -3.58772 1.18705 0
M  V30 1674 H 163.042 -7.11637 3.01317 0
M  V30 1675 H 161.387 -6.40265 2.70343 0
M  V30 1676 H 164.578 -4.41688 1.55013 0
M  V30 1677 H 164.751 -6.02606 2.38265 0
M  V30 1678 N 158.157 -0.370918 -1.53173 0
M  V30 1679 C 159.434 0.273754 -1.93675 0
M  V30 1680 C 159.814 1.65938 -1.3049 0
M  V30 1681 O 159.162 2.23698 -0.465999 0
M  V30 1682 C 159.372 0.318602 -3.47543 0
M  V30 1683 C 160.72 0.556392 -4.20939 0
M  V30 1684 O 161.744 0.399587 -3.53952 0
M  V30 1685 O 160.603 0.862133 -5.39657 0
M  V30 1686 H 157.697 0.165448 -0.810281 0
M  V30 1687 H 160.243 -0.42409 -1.64315 0
M  V30 1688 H 159.015 -0.652687 -3.85818 0
M  V30 1689 H 158.638 1.06212 -3.83151 0
M  V30 1690 N 159.635 1.57281 -0.100228 0
M  V30 1691 C 160.565 2.17328 0.853857 0
M  V30 1692 C 161.546 1.10804 1.2906 0
M  V30 1693 O 162.731 1.38963 1.35657 0
M  V30 1694 C 159.861 2.75772 2.11109 0
M  V30 1695 C 158.815 3.87713 1.81279 0
M  V30 1696 C 158.141 4.32882 3.13874 0
M  V30 1697 C 159.441 5.10677 1.09574 0
M  V30 1698 H 161.135 2.97305 0.353545 0
M  V30 1699 H 158.681 1.43009 0.168612 0
M  V30 1700 H 160.634 3.16433 2.78296 0
M  V30 1701 H 159.358 1.93057 2.63432 0
M  V30 1702 H 158.017 3.476 1.16489 0
M  V30 1703 H 157.665 3.47051 3.64095 0
M  V30 1704 H 157.365 5.08358 2.94696 0
M  V30 1705 H 158.889 4.7618 3.82211 0
M  V30 1706 H 160.303 5.48474 1.66879 0
M  V30 1707 H 158.7 5.91615 1.00557 0
M  V30 1708 H 159.77 4.84835 0.0793299 0
M  V30 1709 N 161.113 -0.173488 1.56642 0
M  V30 1710 C 162.046 -1.24353 1.91342 0
M  V30 1711 C 163.024 -1.4289 0.775965 0
M  V30 1712 O 164.208 -1.57932 1.02907 0
M  V30 1713 C 161.335 -2.60683 2.16245 0
M  V30 1714 C 160.381 -2.58894 3.38934 0
M  V30 1715 S 161.214 -2.0819 4.93373 0
M  V30 1716 C 162.37 -3.46302 5.21369 0
M  V30 1717 H 162.603 -0.947345 2.81803 0
M  V30 1718 H 160.136 -0.377958 1.49703 0
M  V30 1719 H 162.094 -3.39149 2.31275 0
M  V30 1720 H 160.755 -2.87502 1.26496 0
M  V30 1721 H 159.948 -3.59188 3.53553 0
M  V30 1722 H 159.55 -1.88522 3.2301 0
M  V30 1723 H 161.842 -4.42287 5.13214 0
M  V30 1724 H 162.785 -3.3656 6.23003 0
M  V30 1725 H 163.193 -3.42214 4.48943 0
M  V30 1726 N 162.591 -1.51276 -0.441967 0
M  V30 1727 C 163.501 -1.75092 -1.56141 0
M  V30 1728 C 164.517 -0.634963 -1.62001 0
M  V30 1729 O 165.693 -0.916686 -1.79329 0
M  V30 1730 C 162.758 -1.86666 -2.92158 0
M  V30 1731 C 161.819 -3.10506 -2.96453 0
M  V30 1732 C 161.052 -3.21519 -4.25982 0
M  V30 1733 O 161.275 -2.38586 -5.18105 0
M  V30 1734 O 160.209 -4.14465 -4.36466 0
M  V30 1735 H 164.035 -2.70044 -1.38961 0
M  V30 1736 H 161.62 -1.35722 -0.624499 0
M  V30 1737 H 163.502 -1.96292 -3.72891 0
M  V30 1738 H 162.177 -0.949014 -3.09476 0
M  V30 1739 H 161.084 -3.06363 -2.14692 0
M  V30 1740 H 162.417 -4.01945 -2.84079 0
M  V30 1741 N 164.069 0.697108 -1.41344 0
M  V30 1742 C 165.032 1.79281 -1.42797 0
M  V30 1743 C 166.032 1.57607 -0.318837 0
M  V30 1744 O 167.222 1.64309 -0.578642 0
M  V30 1745 C 164.354 3.17632 -1.23785 0
M  V30 1746 H 165.547 1.79385 -2.40335 0
M  V30 1747 H 163.1 0.904582 -1.27464 0
M  V30 1748 H 163.835 3.23167 -0.270814 0
M  V30 1749 H 163.62 3.34765 -2.04144 0
M  V30 1750 H 165.11 3.97617 -1.27633 0
M  V30 1751 N 165.547 1.27147 0.931209 0
M  V30 1752 C 166.963 1.04475 1.20653 0
M  V30 1753 C 167.163 -0.223885 2.00252 0
M  V30 1754 O 166.219 -0.930332 2.34736 0
M  V30 1755 C 167.532 2.28209 1.95809 0
M  V30 1756 C 169.08 2.33211 2.08762 0
M  V30 1757 C 169.555 3.56665 2.87323 0
M  V30 1758 N 171.046 3.57201 2.94892 0
M  V30 1759 C 171.781 4.49395 3.56134 0
M  V30 1760 N 171.277 5.51889 4.18796 0
M  V30 1761 N 173.07 4.37026 3.53504 0
M  V30 1762 H 165.221 2.08612 0.399333 0
M  V30 1763 H 167.484 0.917312 0.239253 0
M  V30 1764 H 167.19 3.20538 1.44736 0
M  V30 1765 H 167.064 2.33247 2.96438 0
M  V30 1766 H 169.451 1.41391 2.59023 0
M  V30 1767 H 169.532 2.32178 1.07364 0
M  V30 1768 H 169.176 4.4882 2.37746 0
M  V30 1769 H 169.106 3.54948 3.88998 0
M  V30 1770 H 171.597 2.83074 2.50354 0
M  V30 1771 H 171.91 6.18409 4.63454 0
M  V30 1772 H 170.255 5.55735 4.17353 0
M  V30 1773 H 173.446 3.56166 3.03749 0
M  V30 1774 H 173.619 5.09067 4.00942 0
M  V30 1775 N 167.025 -1.13721 1.09112 0
M  V30 1776 C 167.935 -2.22638 0.73957 0
M  V30 1777 C 168.951 -1.72091 -0.257068 0
M  V30 1778 O 170.127 -2.01155 -0.0992154 0
M  V30 1779 C 167.192 -3.46322 0.16191 0
M  V30 1780 C 166.253 -4.11775 1.21408 0
M  V30 1781 C 165.486 -5.29555 0.663891 0
M  V30 1782 O 165.709 -5.68077 -0.514274 0
M  V30 1783 O 164.643 -5.84973 1.41738 0
M  V30 1784 H 168.469 -2.55074 1.64836 0
M  V30 1785 H 166.054 -1.21791 0.865289 0
M  V30 1786 H 167.936 -4.21107 -0.157073 0
M  V30 1787 H 166.611 -3.15593 -0.719932 0
M  V30 1788 H 165.518 -3.3883 1.58571 0
M  V30 1789 H 166.851 -4.46627 2.06845 0
M  V30 1790 N 168.503 -0.877838 -1.30888 0
M  V30 1791 C 169.466 -0.344265 -2.266 0
M  V30 1792 C 170.466 0.50922 -1.52524 0
M  V30 1793 O 171.656 0.317398 -1.71284 0
M  V30 1794 C 168.788 0.510198 -3.37061 0
M  V30 1795 H 169.981 -1.1893 -2.7531 0
M  V30 1796 H 167.534 -0.654088 -1.41956 0
M  V30 1797 H 168.269 1.37612 -2.93655 0
M  V30 1798 H 168.054 -0.101047 -3.9197 0
M  V30 1799 H 169.544 0.875537 -4.08319 0
M  V30 1800 N 169.982 1.44106 -0.638065 0
M  V30 1801 C 171.222 2.03858 -0.148733 0
M  V30 1802 C 171.586 1.49153 1.20903 0
M  V30 1803 O 172.787 2.00452 1.79088 0
M  V30 1804 C 171.058 3.57117 -0.142314 0
M  V30 1805 S 172.617 4.37897 0.281385 0
M  V30 1806 H 169.435 0.708069 -0.0644912 0
M  V30 1807 H 172.037 1.7639 -0.843009 0
M  V30 1808 H 170.741 3.94436 -1.13349 0
M  V30 1809 H 170.272 3.89205 0.572988 0
M  V30 1810 H 172.287 4.72218 1.52395 0
M  V30 1811 N 171.46 0.379036 1.52974 0
M  V30 1812 C 172.708 -0.206014 2.01047 0
M  V30 1813 C 173.029 -1.48175 1.26765 0
M  V30 1814 O 172.299 -1.92085 0.384743 0
M  V30 1815 H 170.879 -0.0791184 0.742798 0
M  V30 1816 H 173.541 0.508366 1.88153 0
M  V30 1817 H 172.637 -0.423501 3.09213 0
M  V30 1818 N 172.938 -1.57226 0.108567 0
M  V30 1819 C 173.901 -2.13602 -0.831082 0
M  V30 1820 C 174.901 -1.06841 -1.20173 0
M  V30 1821 O 176.091 -1.32666 -1.12895 0
M  V30 1822 C 173.223 -2.66769 -2.12243 0
M  V30 1823 H 174.416 -2.97951 -0.341317 0
M  V30 1824 H 171.969 -1.55667 -0.14057 0
M  V30 1825 H 172.704 -1.85977 -2.65675 0
M  V30 1826 H 172.489 -3.44839 -1.86625 0
M  V30 1827 H 173.979 -3.10332 -2.79435 0
M  V30 1828 N 174.416 0.165178 -1.56732 0
M  V30 1829 C 175.644 0.896218 -1.86482 0
M  V30 1830 C 176.059 1.75555 -0.694675 0
M  V30 1831 O 175.416 1.79379 0.33607 0
M  V30 1832 C 175.467 1.76792 -3.1532 0
M  V30 1833 O 175.188 0.943239 -4.27825 0
M  V30 1834 C 176.689 2.6081 -3.58459 0
M  V30 1835 H 173.909 0.260064 -0.618553 0
M  V30 1836 H 176.453 0.163428 -2.03846 0
M  V30 1837 H 174.608 2.45398 -2.99764 0
M  V30 1838 H 175.022 1.53998 -5.01383 0
M  V30 1839 H 176.496 3.17579 -4.51495 0
M  V30 1840 H 176.973 3.35977 -2.82872 0
M  V30 1841 H 177.579 1.97526 -3.76648 0
M  V30 1842 N 175.894 1.51508 0.433938 0
M  V30 1843 C 177.122 1.68157 1.20543 0
M  V30 1844 C 177.537 0.380362 1.84929 0
M  V30 1845 O 176.894 -0.641446 1.70856 0
M  V30 1846 C 176.945 2.79965 2.28696 0
M  V30 1847 O 176.666 4.05045 1.66943 0
M  V30 1848 C 178.167 3.07912 3.18912 0
M  V30 1849 H 175.387 0.56421 0.363191 0
M  V30 1850 H 177.931 1.97941 0.513754 0
M  V30 1851 H 176.086 2.5277 2.93574 0
M  V30 1852 H 176.5 4.67165 2.38448 0
M  V30 1853 H 177.974 3.89719 3.90926 0
M  V30 1854 H 178.451 2.20456 3.79863 0
M  V30 1855 H 179.057 3.36779 2.59731 0
M  V30 1856 N 177.372 -0.689602 1.41712 0
M  V30 1857 C 178.618 -1.45181 1.41599 0
M  V30 1858 C 178.951 -1.94181 0.0270081 0
M  V30 1859 O 178.226 -1.6993 -0.946265 0
M  V30 1860 C 178.509 -2.65945 2.42787 0
M  V30 1861 C 178.362 -2.22672 3.90816 0
M  V30 1862 C 179.681 -3.68149 2.41151 0
M  V30 1863 H 176.8 -0.526576 0.515642 0
M  V30 1864 H 179.442 -0.784947 1.73028 0
M  V30 1865 H 177.592 -3.2284 2.16116 0
M  V30 1866 H 179.264 -1.71058 4.28412 0
M  V30 1867 H 177.507 -1.54394 4.05395 0
M  V30 1868 H 178.178 -3.0935 4.57172 0
M  V30 1869 H 180.654 -3.2094 2.64834 0
M  V30 1870 H 179.53 -4.50248 3.13955 0
M  V30 1871 H 179.791 -4.18259 1.43221 0
M  V30 1872 N 178.85 -1.27639 -0.924453 0
M  V30 1873 C 180.08 -1.16819 -1.70402 0
M  V30 1874 C 180.488 0.277191 -1.87158 0
M  V30 1875 O 179.831 1.20025 -1.39067 0
M  V30 1876 C 179.893 -1.78305 -3.12166 0
M  V30 1877 C 179.557 -3.27502 -3.18734 0
M  V30 1878 C 180.554 -4.2409 -3.00738 0
M  V30 1879 C 178.239 -3.68269 -3.4159 0
M  V30 1880 C 180.233 -5.59422 -3.05492 0
M  V30 1881 C 177.92 -5.0373 -3.45977 0
M  V30 1882 C 178.918 -5.99116 -3.27946 0
M  V30 1883 O 178.606 -7.32108 -3.32074 0
M  V30 1884 H 178.338 -0.406931 -0.539799 0
M  V30 1885 H 180.892 -1.69078 -1.16626 0
M  V30 1886 H 179.122 -1.20528 -3.67437 0
M  V30 1887 H 180.811 -1.62154 -3.72103 0
M  V30 1888 H 181.577 -3.93931 -2.82919 0
M  V30 1889 H 177.456 -2.94496 -3.54673 0
M  V30 1890 H 181 -6.33852 -2.91337 0
M  V30 1891 H 176.897 -5.33543 -3.63321 0
M  V30 1892 H 177.665 -7.40598 -3.48507 0
M  V30 1893 N 180.328 1.1314 -1.09713 0
M  V30 1894 C 181.26 2.18343 -0.697056 0
M  V30 1895 C 182.273 1.60669 0.262551 0
M  V30 1896 O 183.462 1.78435 0.0481527 0
M  V30 1897 C 180.562 3.38899 -0.00684728 0
M  V30 1898 C 179.735 4.26078 -0.988741 0
M  V30 1899 C 178.794 5.25155 -0.331394 0
M  V30 1900 O 177.82 5.60701 -0.979926 0
M  V30 1901 N 179.022 5.73271 0.913261 0
M  V30 1902 H 181.787 2.5328 -1.60216 0
M  V30 1903 H 179.348 1.28491 -0.984971 0
M  V30 1904 H 181.34 4.02255 0.444191 0
M  V30 1905 H 179.91 3.02175 0.800551 0
M  V30 1906 H 179.13 3.59453 -1.61826 0
M  V30 1907 H 180.418 4.81178 -1.65364 0
M  V30 1908 H 179.816 5.46544 1.45966 0
M  V30 1909 H 178.373 6.3855 1.30757 0
M  V30 1910 N 181.806 0.884767 1.30421 0
M  V30 1911 C 182.769 0.356277 2.26414 0
M  V30 1912 C 183.769 -0.501124 1.52792 0
M  V30 1913 O 184.959 -0.30831 1.7145 0
M  V30 1914 C 182.091 -0.492316 3.37326 0
M  V30 1915 H 183.284 1.20389 2.74675 0
M  V30 1916 H 180.837 0.661607 1.41607 0
M  V30 1917 H 181.572 -1.36052 2.94381 0
M  V30 1918 H 181.357 0.121832 3.91911 0
M  V30 1919 H 182.847 -0.853871 4.08777 0
M  V30 1920 N 183.284 -1.43765 0.645699 0
M  V30 1921 C 184.247 -2.29163 -0.0409488 0
M  V30 1922 C 185.247 -1.41813 -0.757996 0
M  V30 1923 O 186.437 -1.63527 -0.600382 0
M  V30 1924 C 183.569 -3.23716 -1.06869 0
M  V30 1925 H 184.762 -2.91366 0.710345 0
M  V30 1926 H 182.315 -1.5092 0.406547 0
M  V30 1927 H 183.05 -2.66393 -1.84947 0
M  V30 1928 H 182.835 -3.88105 -0.558277 0
M  V30 1929 H 184.325 -3.87831 -1.54845 0
M  V30 1930 N 184.763 -0.387143 -1.52771 0
M  V30 1931 C 185.673 0.456442 -2.30117 0
M  V30 1932 C 186.689 1.07342 -1.36944 0
M  V30 1933 O 187.865 1.07971 -1.70013 0
M  V30 1934 C 184.93 1.56957 -3.09136 0
M  V30 1935 C 183.991 0.977916 -4.18014 0
M  V30 1936 C 183.224 2.038 -4.93256 0
M  V30 1937 O 183.447 3.25271 -4.68567 0
M  V30 1938 O 182.381 1.6565 -5.78657 0
M  V30 1939 H 186.207 -0.17359 -3.03203 0
M  V30 1940 H 183.792 -0.150919 -1.48636 0
M  V30 1941 H 185.674 2.21628 -3.58412 0
M  V30 1942 H 184.349 2.18461 -2.38865 0
M  V30 1943 H 183.256 0.294525 -3.72939 0
M  V30 1944 H 184.589 0.407128 -4.90513 0
M  V30 1945 N 186.241 1.57166 -0.116904 0
M  V30 1946 C 187.487 1.95412 0.542405 0
M  V30 1947 C 187.82 1.00019 1.66463 0
M  V30 1948 O 187.095 0.0370346 1.94465 0
M  V30 1949 C 187.378 3.43615 1.07708 0
M  V30 1950 C 187.231 4.49781 -0.0415868 0
M  V30 1951 C 188.55 3.93616 1.96861 0
M  V30 1952 H 185.669 0.710543 0.195696 0
M  V30 1953 H 188.311 1.89027 -0.192038 0
M  V30 1954 H 186.461 3.49187 1.70296 0
M  V30 1955 H 188.133 4.56308 -0.676793 0
M  V30 1956 H 186.376 4.28033 -0.705019 0
M  V30 1957 H 187.047 5.50733 0.373717 0
M  V30 1958 H 189.523 3.90335 1.44146 0
M  V30 1959 H 188.399 4.97838 2.3119 0
M  V30 1960 H 188.66 3.34188 2.89432 0
M  V30 1961 N 187.719 -0.156864 1.56817 0
M  V30 1962 C 189.135 -0.50916 1.5126 0
M  V30 1963 C 189.335 -1.83897 0.823658 0
M  V30 1964 O 188.391 -2.49469 0.390055 0
M  V30 1965 C 189.704 -0.52857 2.96018 0
M  V30 1966 C 191.252 -0.614771 3.06903 0
M  V30 1967 C 191.727 -0.664938 4.53147 0
M  V30 1968 N 193.218 -0.727433 4.57452 0
M  V30 1969 C 193.953 -0.787067 5.67973 0
M  V30 1970 N 193.449 -0.806649 6.88088 0
M  V30 1971 N 195.242 -0.827195 5.5598 0
M  V30 1972 H 187.393 0.714935 2.00006 0
M  V30 1973 H 189.656 0.259526 0.911784 0
M  V30 1974 H 189.362 0.380154 3.49639 0
M  V30 1975 H 189.236 -1.36998 3.51442 0
M  V30 1976 H 191.623 -1.51392 2.53307 0
M  V30 1977 H 191.704 0.253597 2.5454 0
M  V30 1978 H 191.348 0.230011 5.07379 0
M  V30 1979 H 191.278 -1.54966 5.03282 0
M  V30 1980 H 193.769 -0.719998 3.70978 0
M  V30 1981 H 194.082 -0.853727 7.6807 0
M  V30 1982 H 192.427 -0.774687 6.90669 0
M  V30 1983 H 195.618 -0.808998 4.61056 0
M  V30 1984 H 195.791 -0.870206 6.4213 0
M  V30 1985 N 189.197 -1.51736 -0.425897 0
M  V30 1986 C 190.127 -1.76827 -1.52494 0
M  V30 1987 C 191.108 -0.618524 -1.58456 0
M  V30 1988 O 192.293 -0.862416 -1.74 0
M  V30 1989 C 189.423 -1.90374 -2.90474 0
M  V30 1990 C 188.377 -3.0588 -2.99369 0
M  V30 1991 C 187.703 -3.04625 -4.3944 0
M  V30 1992 C 189.003 -4.45644 -2.72394 0
M  V30 1993 H 190.697 -2.68855 -1.31748 0
M  V30 1994 H 188.243 -1.29372 -0.632362 0
M  V30 1995 H 190.196 -2.0651 -3.6733 0
M  V30 1996 H 188.92 -0.95004 -3.12477 0
M  V30 1997 H 187.579 -2.89467 -2.24954 0
M  V30 1998 H 187.227 -2.0701 -4.58428 0
M  V30 1999 H 186.927 -3.82195 -4.46319 0
M  V30 2000 H 188.451 -3.22869 -5.18255 0
M  V30 2001 H 189.865 -4.62348 -3.38979 0
M  V30 2002 H 188.262 -5.25006 -2.9067 0
M  V30 2003 H 189.332 -4.54893 -1.67929 0
M  V30 2004 N 190.675 0.682077 -1.42076 0
M  V30 2005 C 191.625 1.78823 -1.41444 0
M  V30 2006 C 192.609 1.58323 -0.28681 0
M  V30 2007 O 193.801 1.68926 -0.528498 0
M  V30 2008 C 190.93 3.17232 -1.3122 0
M  V30 2009 C 190.016 3.4338 -2.489 0
M  V30 2010 N 190.407 3.40152 -3.7434 0
M  V30 2011 C 188.705 3.73986 -2.43003 0
M  V30 2012 C 189.406 3.65581 -4.52466 0
M  V30 2013 N 188.382 3.85989 -3.8277 0
M  V30 2014 H 192.184 1.7471 -2.36334 0
M  V30 2015 H 189.698 0.882622 -1.36321 0
M  V30 2016 H 191.695 3.96489 -1.2885 0
M  V30 2017 H 190.355 3.22547 -0.373263 0
M  V30 2018 H 191.366 3.20221 -4.07037 0
M  V30 2019 H 188.043 3.86591 -1.57651 0
M  V30 2020 H 189.433 3.69108 -5.61435 0
M  V30 2021 N 192.153 1.28127 0.917671 0
M  V30 2022 C 193.43 1.05761 1.64542 0
M  V30 2023 C 193.81 -0.404344 2.07191 0
M  V30 2024 O 193.158 -1.38963 1.81388 0
M  V30 2025 C 193.368 2.02857 2.83989 0
M  V30 2026 C 194.716 2.32786 3.551 0
M  V30 2027 O 195.74 2.0091 2.94132 0
M  V30 2028 O 194.599 2.87169 4.64969 0
M  V30 2029 H 191.693 0.403916 0.721652 0
M  V30 2030 H 194.239 1.39431 0.967322 0
M  V30 2031 H 193.011 3.01407 2.49538 0
M  V30 2032 H 192.634 1.69809 3.59514 0
M  V30 2033 N 193.631 -1.12557 1.10312 0
M  V30 2034 C 194.561 -2.20341 0.772798 0
M  V30 2035 C 195.542 -1.68198 -0.25365 0
M  V30 2036 O 196.727 -1.93831 -0.119699 0
M  V30 2037 C 193.857 -3.46709 0.202443 0
M  V30 2038 C 192.811 -4.11996 1.15943 0
M  V30 2039 C 192.137 -5.328 0.450345 0
M  V30 2040 C 193.437 -4.5828 2.50552 0
M  V30 2041 H 195.131 -2.48229 1.674 0
M  V30 2042 H 192.677 -1.19308 0.806326 0
M  V30 2043 H 194.63 -4.2138 -0.0407752 0
M  V30 2044 H 193.354 -3.18245 -0.734001 0
M  V30 2045 H 192.013 -3.39305 1.38808 0
M  V30 2046 H 191.661 -5.00602 -0.490531 0
M  V30 2047 H 191.361 -5.7743 1.08851 0
M  V30 2048 H 192.885 -6.10219 0.215642 0
M  V30 2049 H 194.299 -5.2433 2.31843 0
M  V30 2050 H 192.696 -5.13683 3.10242 0
M  V30 2051 H 193.766 -3.72329 3.10643 0
M  V30 2052 N 195.109 -0.891671 -1.2995 0
M  V30 2053 C 196.041 -0.320695 -2.26945 0
M  V30 2054 C 197.054 0.528497 -1.53983 0
M  V30 2055 O 198.243 0.346959 -1.75096 0
M  V30 2056 C 195.343 0.562066 -3.34207 0
M  V30 2057 C 194.516 -0.259576 -4.36629 0
M  V30 2058 C 193.575 0.554739 -5.23268 0
M  V30 2059 O 192.601 -0.0249311 -5.69195 0
M  V30 2060 N 193.803 1.8625 -5.4981 0
M  V30 2061 H 196.568 -1.15432 -2.76578 0
M  V30 2062 H 194.129 -0.755336 -1.432 0
M  V30 2063 H 196.121 1.11304 -3.89093 0
M  V30 2064 H 194.691 1.29637 -2.84452 0
M  V30 2065 H 193.911 -0.991986 -3.81514 0
M  V30 2066 H 195.199 -0.822564 -5.02107 0
M  V30 2067 H 194.597 2.35628 -5.14292 0
M  V30 2068 H 193.154 2.36078 -6.07545 0
M  V30 2069 N 196.587 1.43421 -0.653314 0
M  V30 2070 C 197.835 2.01414 -0.166415 0
M  V30 2071 C 198.156 1.51803 1.22397 0
M  V30 2072 O 197.426 0.730693 1.81763 0
M  V30 2073 H 196.006 0.744703 -0.0585319 0
M  V30 2074 H 198.668 1.75629 -0.845003 0
M  V30 2075 H 197.764 3.11734 -0.151111 0
M  V30 2076 N 198.065 0.39524 1.52563 0
M  V30 2077 C 198.975 -0.444232 2.30356 0
M  V30 2078 C 199.991 -1.06615 1.37511 0
M  V30 2079 O 201.167 -1.07067 1.70583 0
M  V30 2080 C 198.232 -1.55315 3.09964 0
M  V30 2081 C 197.293 -0.955734 4.18526 0
M  V30 2082 C 196.526 -2.01181 4.9433 0
M  V30 2083 O 196.749 -3.22781 4.70285 0
M  V30 2084 O 195.683 -1.62579 5.79527 0
M  V30 2085 H 199.509 0.189667 3.03107 0
M  V30 2086 H 197.094 0.1588 1.48554 0
M  V30 2087 H 198.976 -2.19724 3.59582 0
M  V30 2088 H 197.651 -2.17191 2.4002 0
M  V30 2089 H 196.558 -0.274743 3.7309 0
M  V30 2090 H 197.891 -0.381109 4.90722 0
M  V30 2091 N 199.544 -1.57102 0.125237 0
M  V30 2092 C 200.96 -1.57915 -0.231322 0
M  V30 2093 C 201.16 -1.13833 -1.66266 0
M  V30 2094 O 200.216 -0.828581 -2.38518 0
M  V30 2095 C 201.529 -3.00699 0.00766489 0
M  V30 2096 C 203.077 -3.12947 -0.0577483 0
M  V30 2097 C 203.552 -4.57742 0.153626 0
M  V30 2098 N 205.043 -4.63092 0.0998073 0
M  V30 2099 C 205.778 -5.72905 0.238174 0
M  V30 2100 N 205.274 -6.91445 0.433057 0
M  V30 2101 N 207.067 -5.6182 0.177308 0
M  V30 2102 H 199.218 -1.84055 1.06007 0
M  V30 2103 H 201.481 -0.850905 0.417929 0
M  V30 2104 H 201.187 -3.3726 0.997431 0
M  V30 2105 H 201.061 -3.70236 -0.721452 0
M  V30 2106 H 203.448 -2.7624 -1.03804 0
M  V30 2107 H 203.529 -2.4594 0.70335 0
M  V30 2108 H 203.173 -4.95149 1.13092 0
M  V30 2109 H 203.103 -5.22848 -0.627534 0
M  V30 2110 H 205.594 -3.77871 -0.047051 0
M  V30 2111 H 205.907 -7.70985 0.529332 0
M  V30 2112 H 204.252 -6.93415 0.469109 0
M  V30 2113 H 207.443 -4.68093 0.0259748 0
M  V30 2114 H 207.616 -6.47357 0.288582 0
M  V30 2115 N 201.022 0.148545 -1.56898 0
M  V30 2116 C 202.433 0.708766 -1.72723 0
M  V30 2117 C 202.784 1.81734 -0.739395 0
M  V30 2118 O 201.909 2.16194 0.0943169 0
M  V30 2119 C 202.504 1.29245 -3.13179 0
M  V30 2120 C 201.063 1.79925 -3.30611 0
M  V30 2121 C 200.21 0.687111 -2.68652 0
M  V30 2122 H 203.161 -0.0771063 -1.58513 0
M  V30 2123 H 203.182 2.16224 -3.13093 0
M  V30 2124 H 202.694 0.485382 -3.85053 0
M  V30 2125 H 200.795 2.63203 -2.63732 0
M  V30 2126 H 200.908 1.92903 -4.38549 0
M  V30 2127 H 199.272 1.11335 -2.29078 0
M  V30 2128 H 200.055 -0.108483 -3.43129 0
M  V30 2129 N 202.5 1.5196 0.417844 0
M  V30 2130 C 203.73 1.69181 1.18581 0
M  V30 2131 C 204.138 0.397104 1.84986 0
M  V30 2132 O 203.481 -0.636011 1.72339 0
M  V30 2133 C 203.543 2.76497 2.29759 0
M  V30 2134 C 203.207 4.18514 1.83563 0
M  V30 2135 C 204.204 5.02648 1.32821 0
M  V30 2136 C 201.889 4.64708 1.90661 0
M  V30 2137 C 203.883 6.31044 0.897894 0
M  V30 2138 C 201.57 5.93096 1.47241 0
M  V30 2139 C 202.568 6.76093 0.968891 0
M  V30 2140 O 202.256 8.02078 0.540924 0
M  V30 2141 H 201.988 0.570457 0.362705 0
M  V30 2142 H 204.542 1.99249 0.498885 0
M  V30 2143 H 202.772 2.41786 3.01789 0
M  V30 2144 H 204.461 2.82403 2.91553 0
M  V30 2145 H 205.227 4.68154 1.26716 0
M  V30 2146 H 201.106 4.00216 2.28797 0
M  V30 2147 H 204.65 6.95776 0.504192 0
M  V30 2148 H 200.547 6.271 1.53022 0
M  V30 2149 H 201.315 8.15794 0.66502 0
M  V30 2150 N 203.978 -0.674533 1.42435 0
M  V30 2151 C 205.224 -1.43671 1.43131 0
M  V30 2152 C 205.557 -1.94142 0.0476021 0
M  V30 2153 O 204.832 -1.70924 -0.928188 0
M  V30 2154 C 205.115 -2.63355 2.45594 0
M  V30 2155 C 204.968 -2.18514 3.93156 0
M  V30 2156 C 206.287 -3.65571 2.45043 0
M  V30 2157 H 203.406 -0.521077 0.521198 0
M  V30 2158 H 206.048 -0.766551 1.7385 0
M  V30 2159 H 204.198 -3.2053 2.19528 0
M  V30 2160 H 205.87 -1.66504 4.30202 0
M  V30 2161 H 204.113 -1.50086 4.07009 0
M  V30 2162 H 204.784 -3.04484 4.60428 0
M  V30 2163 H 207.26 -3.18113 2.68223 0
M  V30 2164 H 206.136 -4.46893 3.18713 0
M  V30 2165 H 206.397 -4.16716 1.47649 0
M  V30 2166 N 205.456 -1.28612 -0.910864 0
M  V30 2167 C 206.684 -1.18792 -1.69399 0
M  V30 2168 C 207.099 0.253039 -1.87097 0
M  V30 2169 O 206.456 1.17071 -1.40003 0
M  V30 2170 C 206.507 -1.88511 -3.08457 0
M  V30 2171 O 206.228 -3.26979 -2.91576 0
M  V30 2172 C 207.729 -1.85029 -4.02839 0
M  V30 2173 H 204.949 -0.412233 -0.529438 0
M  V30 2174 H 207.493 -1.69788 -1.13984 0
M  V30 2175 H 205.648 -1.41379 -3.60681 0
M  V30 2176 H 206.062 -3.61936 -3.79608 0
M  V30 2177 H 207.536 -2.38395 -4.97867 0
M  V30 2178 H 208.013 -0.823303 -4.31414 0
M  V30 2179 H 208.619 -2.31853 -3.56545 0
M  V30 2180 N 206.934 1.1197 -1.10907 0
M  V30 2181 C 208.181 1.83588 -0.854507 0
M  V30 2182 C 208.509 1.84357 0.6199 0
M  V30 2183 O 207.764 1.28809 1.47332 0
M  V30 2184 C 208.063 3.30749 -1.35425 0
M  V30 2185 C 207.729 3.50146 -2.84093 0
M  V30 2186 C 206.391 3.55148 -3.2469 0
M  V30 2187 C 208.743 3.56857 -3.79872 0
M  V30 2188 C 206.071 3.6441 -4.59806 0
M  V30 2189 C 208.423 3.6765 -5.14797 0
M  V30 2190 C 207.087 3.7091 -5.54961 0
M  V30 2191 H 206.357 0.671795 -0.312686 0
M  V30 2192 H 209.004 1.32091 -1.38652 0
M  V30 2193 H 207.309 3.84703 -0.742361 0
M  V30 2194 H 209.006 3.8464 -1.1337 0
M  V30 2195 H 205.596 3.46919 -2.51685 0
M  V30 2196 H 209.78 3.52258 -3.49611 0
M  V30 2197 H 205.036 3.65208 -4.9034 0
M  V30 2198 H 209.21 3.71786 -5.88853 0
M  V30 2199 H 206.837 3.7784 -6.59652 0
M  V30 2200 N 208.412 0.89855 1.29475 0
M  V30 2201 C 209.322 0.379974 2.31502 0
M  V30 2202 C 210.338 -0.524695 1.659 0
M  V30 2203 O 211.514 -0.414551 1.97087 0
M  V30 2204 C 208.579 -0.385138 3.44554 0
M  V30 2205 C 207.64 0.550914 4.2575 0
M  V30 2206 C 206.873 -0.177778 5.33404 0
M  V30 2207 O 207.096 -1.40189 5.52904 0
M  V30 2208 O 206.03 0.479106 5.9999 0
M  V30 2209 H 209.856 1.22639 2.77837 0
M  V30 2210 H 207.441 0.662834 1.33891 0
M  V30 2211 H 209.323 -0.817841 4.13388 0
M  V30 2212 H 207.998 -1.20763 3.0033 0
M  V30 2213 H 206.905 1.03271 3.59564 0
M  V30 2214 H 208.238 1.33979 4.73614 0
M  V30 2215 N 209.89 -1.43072 0.660911 0
M  V30 2216 C 211.306 -1.56169 0.329173 0
M  V30 2217 C 211.506 -1.64317 -1.16629 0
M  V30 2218 O 210.562 -1.60245 -1.95135 0
M  V30 2219 C 211.875 -2.81873 1.04729 0
M  V30 2220 C 213.423 -2.95627 1.02828 0
M  V30 2221 C 213.898 -4.24174 1.72744 0
M  V30 2222 N 215.389 -4.31055 1.69545 0
M  V30 2223 C 216.124 -5.29304 2.20511 0
M  V30 2224 N 215.62 -6.33786 2.79799 0
M  V30 2225 N 217.413 -5.21008 2.10966 0
M  V30 2226 H 209.564 -1.36027 1.63127 0
M  V30 2227 H 211.827 -0.653823 0.686454 0
M  V30 2228 H 211.533 -2.81942 2.10242 0
M  V30 2229 H 211.407 -3.72338 0.603702 0
M  V30 2230 H 213.794 -2.95094 -0.0184742 0
M  V30 2231 H 213.875 -2.06431 1.51063 0
M  V30 2232 H 213.519 -4.25467 2.7738 0
M  V30 2233 H 213.449 -5.1228 1.2197 0
M  V30 2234 H 215.94 -3.56174 1.26288 0
M  V30 2235 H 216.253 -7.05086 3.16344 0
M  V30 2236 H 214.598 -6.34387 2.83863 0
M  V30 2237 H 217.789 -4.38301 1.64347 0
M  V30 2238 H 217.962 -5.97416 2.50993 0
M  V30 2239 N 211.368 -0.403325 -1.52352 0
M  V30 2240 C 212.645 0.232611 -1.94212 0
M  V30 2241 C 213.025 1.63133 -1.33981 0
M  V30 2242 O 212.373 2.22659 -0.513344 0
M  V30 2243 C 212.583 0.244811 -3.4814 0
M  V30 2244 C 213.931 0.46698 -4.22024 0
M  V30 2245 O 214.955 0.324419 -3.5472 0
M  V30 2246 O 213.814 0.74747 -5.41364 0
M  V30 2247 H 210.908 0.148223 -0.813609 0
M  V30 2248 H 213.454 -0.458848 -1.63379 0
M  V30 2249 H 212.226 -0.734378 -3.84347 0
M  V30 2250 H 211.849 0.980611 -3.85318 0
M  V30 2251 N 212.846 1.57033 -0.133567 0
M  V30 2252 C 214.094 1.953 0.519848 0
M  V30 2253 C 214.415 1.01866 1.66278 0
M  V30 2254 O 213.685 0.0776513 1.95746 0
M  V30 2255 H 212.265 0.721091 0.195032 0
M  V30 2256 H 214.927 1.93809 -0.205921 0
M  V30 2257 H 214.023 2.98695 0.904854 0
M  V30 2258 N 214.325 -0.140222 1.56975 0
M  V30 2259 C 215.235 -1.19223 2.02047 0
M  V30 2260 C 216.251 -1.46612 0.937062 0
M  V30 2261 O 217.427 -1.58148 1.24704 0
M  V30 2262 C 214.492 -2.50414 2.39778 0
M  V30 2263 C 213.553 -2.30612 3.621 0
M  V30 2264 C 212.786 -3.55547 3.98023 0
M  V30 2265 O 213.009 -4.62004 3.34528 0
M  V30 2266 O 211.943 -3.47808 4.91237 0
M  V30 2267 H 215.769 -0.839559 2.91865 0
M  V30 2268 H 213.354 -0.349453 1.45256 0
M  V30 2269 H 215.236 -3.27747 2.64877 0
M  V30 2270 H 213.911 -2.85198 1.53114 0
M  V30 2271 H 212.818 -1.51207 3.4218 0
M  V30 2272 H 214.151 -2.00741 4.49404 0
M  V30 2273 N 215.803 -1.52179 -0.40978 0
M  V30 2274 C 217.219 -1.40968 -0.74835 0
M  V30 2275 C 217.419 -0.513657 -1.94843 0
M  V30 2276 O 216.475 0.0208026 -2.52491 0
M  V30 2277 C 217.788 -2.83483 -1.0029 0
M  V30 2278 C 219.336 -2.92821 -1.10565 0
M  V30 2279 C 219.811 -4.36303 -1.39296 0
M  V30 2280 N 221.302 -4.39535 -1.46162 0
M  V30 2281 C 222.037 -5.47614 -1.70018 0
M  V30 2282 N 221.533 -6.65812 -1.91483 0
M  V30 2283 N 223.326 -5.35129 -1.72027 0
M  V30 2284 H 215.477 -2.0897 0.380186 0
M  V30 2285 H 217.74 -0.94185 0.107805 0
M  V30 2286 H 217.446 -3.51168 -0.193461 0
M  V30 2287 H 217.32 -3.24487 -1.92323 0
M  V30 2288 H 219.707 -2.25318 -1.90568 0
M  V30 2289 H 219.788 -2.55276 -0.16369 0
M  V30 2290 H 219.432 -5.04366 -0.598109 0
M  V30 2291 H 219.362 -4.71385 -2.34743 0
M  V30 2292 H 221.853 -3.54332 -1.31367 0
M  V30 2293 H 222.166 -7.43964 -2.09134 0
M  V30 2294 H 220.511 -6.68879 -1.88749 0
M  V30 2295 H 223.702 -4.41764 -1.54796 0
M  V30 2296 H 223.875 -6.19433 -1.9028 0
M  V30 2297 N 217.281 0.66697 -1.42791 0
M  V30 2298 C 218.211 1.79218 -1.49677 0
M  V30 2299 C 219.192 1.66405 -0.352623 0
M  V30 2300 O 220.377 1.85708 -0.567993 0
M  V30 2301 C 217.507 3.17565 -1.40605 0
M  V30 2302 C 216.461 3.45124 -2.53127 0
M  V30 2303 C 215.787 4.83127 -2.29112 0
M  V30 2304 C 217.087 3.41236 -3.95418 0
M  V30 2305 H 218.781 1.73713 -2.43853 0
M  V30 2306 H 216.327 0.83432 -1.17367 0
M  V30 2307 H 218.28 3.96022 -1.44029 0
M  V30 2308 H 217.004 3.23767 -0.429271 0
M  V30 2309 H 215.663 2.69031 -2.49034 0
M  V30 2310 H 215.311 4.85988 -1.29709 0
M  V30 2311 H 215.011 5.02528 -3.04531 0
M  V30 2312 H 216.535 5.63859 -2.34297 0
M  V30 2313 H 217.949 4.09651 -4.01073 0
M  V30 2314 H 216.346 3.72173 -4.70752 0
M  V30 2315 H 217.416 2.39665 -4.21532 0
M  V30 2316 N 218.759 1.29093 0.90403 0
M  V30 2317 C 220.175 1.07011 1.1841 0
M  V30 2318 C 220.375 -0.181358 2.00682 0
M  V30 2319 O 219.431 -0.880331 2.36657 0
M  V30 2320 C 220.744 2.32311 1.90924 0
M  V30 2321 C 222.292 2.37587 2.03768 0
M  V30 2322 C 222.767 3.62679 2.79693 0
M  V30 2323 N 224.258 3.63376 2.87249 0
M  V30 2324 C 224.993 4.56848 3.46522 0
M  V30 2325 N 224.489 5.60648 4.06996 0
M  V30 2326 N 226.282 4.44426 3.44154 0
M  V30 2327 H 218.433 2.09412 0.354993 0
M  V30 2328 H 220.696 0.922181 0.219742 0
M  V30 2329 H 220.402 3.23536 1.37905 0
M  V30 2330 H 220.276 2.39483 2.91424 0
M  V30 2331 H 222.663 1.46853 2.55965 0
M  V30 2332 H 222.744 2.34403 1.02415 0
M  V30 2333 H 222.388 4.53762 2.28173 0
M  V30 2334 H 222.318 3.63119 3.81381 0
M  V30 2335 H 224.809 2.88321 2.44293 0
M  V30 2336 H 225.122 6.28101 4.50232 0
M  V30 2337 H 223.467 5.64463 4.05471 0
M  V30 2338 H 226.658 3.62529 2.96126 0
M  V30 2339 H 226.831 5.17457 3.90054 0
M  V30 2340 N 220.237 -1.11381 1.11499 0
M  V30 2341 C 221.167 -2.19509 0.796125 0
M  V30 2342 C 222.148 -1.68458 -0.235796 0
M  V30 2343 O 223.333 -1.93947 -0.0991344 0
M  V30 2344 C 220.463 -3.46475 0.239205 0
M  V30 2345 C 219.417 -4.10744 1.20307 0
M  V30 2346 C 218.743 -5.32293 0.50683 0
M  V30 2347 C 220.043 -4.55597 2.55399 0
M  V30 2348 H 221.737 -2.46439 1.70024 0
M  V30 2349 H 219.283 -1.18446 0.818935 0
M  V30 2350 H 221.236 -4.214 0.00392006 0
M  V30 2351 H 219.96 -3.19006 -0.700206 0
M  V30 2352 H 218.619 -3.37813 1.42399 0
M  V30 2353 H 218.267 -5.01095 -0.437408 0
M  V30 2354 H 217.967 -5.76243 1.1497 0
M  V30 2355 H 219.491 -6.09956 0.280351 0
M  V30 2356 H 220.905 -5.21841 2.37391 0
M  V30 2357 H 219.302 -5.10363 3.15673 0
M  V30 2358 H 220.372 -3.69013 3.14575 0
M  V30 2359 N 221.715 -0.905404 -1.28997 0
M  V30 2360 C 222.992 -0.453513 -1.9027 0
M  V30 2361 C 223.372 1.06721 -1.82137 0
M  V30 2362 O 222.72 1.91159 -1.25182 0
M  V30 2363 C 222.93 -0.974494 -3.35119 0
M  V30 2364 C 224.278 -1.0216 -4.12127 0
M  V30 2365 O 225.302 -0.922557 -3.44046 0
M  V30 2366 O 224.161 -1.17121 -5.33802 0
M  V30 2367 H 221.255 -0.142347 -0.814657 0
M  V30 2368 H 223.801 -0.995642 -1.37423 0
M  V30 2369 H 222.573 -2.01848 -3.35221 0
M  V30 2370 H 222.196 -0.412706 -3.95452 0
M  V30 2371 N 223.193 1.4272 -0.668489 0
M  V30 2372 C 224.433 2.03497 -0.19194 0
M  V30 2373 C 224.797 1.51684 1.17712 0
M  V30 2374 O 225.998 2.04205 1.74796 0
M  V30 2375 C 224.269 3.56734 -0.218032 0
M  V30 2376 S 225.828 4.38395 0.188438 0
M  V30 2377 H 222.646 0.706542 -0.0794959 0
M  V30 2378 H 225.248 1.74563 -0.880235 0
M  V30 2379 H 223.952 3.91943 -1.2169 0
M  V30 2380 H 223.483 3.90333 0.490303 0
M  V30 2381 H 225.498 4.75345 1.42345 0
M  V30 2382 N 224.671 0.411399 1.52136 0
M  V30 2383 C 225.948 -0.222308 1.94333 0
M  V30 2384 C 226.328 -1.6242 1.34844 0
M  V30 2385 O 225.676 -2.22384 0.525145 0
M  V30 2386 C 225.886 -0.226345 3.48265 0
M  V30 2387 C 227.234 -0.444592 4.22266 0
M  V30 2388 O 228.258 -0.305602 3.54887 0
M  V30 2389 O 227.117 -0.718749 5.41753 0
M  V30 2390 H 224.211 -0.143907 0.814383 0
M  V30 2391 H 226.757 0.467506 1.63133 0
M  V30 2392 H 225.529 0.75475 3.83952 0
M  V30 2393 H 225.152 -0.960163 3.85832 0
M  V30 2394 N 226.149 -1.5696 0.141893 0
M  V30 2395 C 227.379 -2.00031 -0.516828 0
M  V30 2396 C 227.787 -1.02091 -1.59293 0
M  V30 2397 O 227.13 -0.00909657 -1.83698 0
M  V30 2398 C 227.192 -3.39534 -1.1814 0
M  V30 2399 C 226.856 -4.56313 -0.250513 0
M  V30 2400 C 227.853 -5.17295 0.519839 0
M  V30 2401 C 225.538 -5.02061 -0.154907 0
M  V30 2402 C 227.532 -6.2243 1.3733 0
M  V30 2403 C 225.219 -6.07053 0.702161 0
M  V30 2404 C 226.217 -6.67106 1.46487 0
M  V30 2405 O 225.905 -7.70066 2.30767 0
M  V30 2406 H 225.637 -0.661451 -0.139493 0
M  V30 2407 H 228.191 -2.04086 0.231926 0
M  V30 2408 H 226.421 -3.32302 -1.97769 0
M  V30 2409 H 228.11 -3.66745 -1.73933 0
M  V30 2410 H 228.876 -4.82852 0.45598 0
M  V30 2411 H 224.755 -4.5505 -0.7383 0
M  V30 2412 H 228.299 -6.69233 1.96909 0
M  V30 2413 H 224.196 -6.40923 0.76733 0
M  V30 2414 H 224.964 -7.87264 2.23959 0
M  V30 2415 N 227.627 0.131896 -1.57047 0
M  V30 2416 C 228.876 0.84044 -1.83356 0
M  V30 2417 C 229.189 1.81646 -0.725535 0
M  V30 2418 O 230.395 2.57025 -0.874659 0
M  V30 2419 C 228.851 1.54528 -3.25037 0
M  V30 2420 C 228.459 0.610902 -4.43815 0
M  V30 2421 C 230.203 2.23972 -3.60606 0
M  V30 2422 C 228.11 1.31823 -5.76521 0
M  V30 2423 H 227.04 0.317599 -0.683847 0
M  V30 2424 H 229.691 0.0931561 -1.83263 0
M  V30 2425 H 228.073 2.33873 -3.19561 0
M  V30 2426 H 229.247 -0.148407 -4.60561 0
M  V30 2427 H 227.562 0.0241016 -4.16393 0
M  V30 2428 H 230.159 2.77558 -4.57018 0
M  V30 2429 H 230.502 3.01173 -2.87403 0
M  V30 2430 H 231.035 1.51529 -3.6781 0
M  V30 2431 H 227.774 0.587771 -6.52859 0
M  V30 2432 H 227.294 2.04987 -5.63685 0
M  V30 2433 H 228.973 1.855 -6.19838 0
M  V30 2434 N 229.106 1.52395 0.401703 0
M  V30 2435 C 230.069 1.75636 1.47257 0
M  V30 2436 C 231.069 0.62628 1.48103 0
M  V30 2437 O 232.259 0.894227 1.49497 0
M  V30 2438 C 229.391 1.84553 2.86624 0
M  V30 2439 H 230.584 2.71241 1.27938 0
M  V30 2440 H 228.137 1.42923 0.632662 0
M  V30 2441 H 228.872 0.908882 3.11303 0
M  V30 2442 H 228.657 2.66715 2.87412 0
M  V30 2443 H 230.147 2.04251 3.64241 0
M  V30 2444 N 230.584 -0.659388 1.43143 0
M  V30 2445 C 231.832 -1.41654 1.44147 0
M  V30 2446 C 232.153 -1.94893 0.0645739 0
M  V30 2447 O 231.423 -1.74044 -0.899198 0
M  V30 2448 H 230.003 -0.525708 0.530697 0
M  V30 2449 H 232.665 -0.778097 1.78694 0
M  V30 2450 H 231.761 -2.26195 2.1504 0
M  V30 2451 N 232.062 -1.29571 -0.897171 0
M  V30 2452 C 233.302 -1.18959 -1.66217 0
M  V30 2453 C 233.666 0.254271 -1.90309 0
M  V30 2454 O 234.867 0.483407 -2.64417 0
M  V30 2455 C 233.138 -1.98302 -2.9734 0
M  V30 2456 S 234.697 -2.04253 -3.88364 0
M  V30 2457 H 231.515 -0.424137 -0.570639 0
M  V30 2458 H 234.117 -1.6389 -1.06585 0
M  V30 2459 H 232.821 -3.02342 -2.77521 0
M  V30 2460 H 232.352 -1.53986 -3.62011 0
M  V30 2461 H 234.367 -1.16105 -4.82425 0
M  V30 2462 N 233.54 1.10788 -1.12088 0
M  V30 2463 C 234.817 1.79136 -0.785476 0
M  V30 2464 C 235.197 1.98246 0.725377 0
M  V30 2465 O 234.545 1.57258 1.65778 0
M  V30 2466 C 234.755 3.12375 -1.55636 0
M  V30 2467 C 236.103 3.8731 -1.74001 0
M  V30 2468 O 237.127 3.22085 -1.52117 0
M  V30 2469 O 235.986 5.04369 -2.10415 0
M  V30 2470 H 233.08 0.776226 -0.285311 0
M  V30 2471 H 235.626 1.1747 -1.2247 0
M  V30 2472 H 234.398 2.93863 -2.5838 0
M  V30 2473 H 234.021 3.81758 -1.11114 0
M  V30 2474 N 235.018 0.912232 1.28515 0
M  V30 2475 C 236.266 0.543523 1.94654 0
M  V30 2476 C 236.587 -0.9155 1.72173 0
M  V30 2477 O 235.857 -1.64708 1.06058 0
M  V30 2478 H 234.437 0.198017 0.720277 0
M  V30 2479 H 237.099 1.16126 1.56527 0
M  V30 2480 H 236.195 0.736684 3.03281 0
M  V30 2481 N 236.496 -1.42363 0.676048 0
M  V30 2482 C 237.743 -2.01522 0.19883 0
M  V30 2483 C 238.071 -1.53456 -1.19505 0
M  V30 2484 O 237.326 -0.727967 -1.81657 0
M  V30 2485 C 237.625 -3.56929 0.183431 0
M  V30 2486 C 237.291 -4.24431 1.52215 0
M  V30 2487 C 235.953 -4.42585 1.8887 0
M  V30 2488 C 238.305 -4.62459 2.40377 0
M  V30 2489 C 235.633 -4.96039 3.13309 0
M  V30 2490 C 237.985 -5.17294 3.64129 0
M  V30 2491 C 236.649 -5.33661 4.00951 0
M  V30 2492 H 235.919 -0.737419 0.0727571 0
M  V30 2493 H 238.566 -1.70531 0.871281 0
M  V30 2494 H 236.871 -3.87594 -0.572532 0
M  V30 2495 H 238.568 -4.00486 -0.203035 0
M  V30 2496 H 235.158 -4.10661 1.22701 0
M  V30 2497 H 239.342 -4.48105 2.13343 0
M  V30 2498 H 234.598 -5.06896 3.41857 0
M  V30 2499 H 238.772 -5.45704 4.32644 0
M  V30 2500 H 236.399 -5.74845 4.9745 0
M  V30 2501 N 237.974 -0.419461 -1.51915 0
M  V30 2502 C 238.924 0.418496 -2.24126 0
M  V30 2503 C 239.908 1.00495 -1.25656 0
M  V30 2504 O 241.1 0.926058 -1.50842 0
M  V30 2505 C 238.229 1.52899 -3.07371 0
M  V30 2506 C 237.315 0.952797 -4.13258 0
M  V30 2507 N 237.706 0.104175 -5.05693 0
M  V30 2508 C 236.004 1.22224 -4.28926 0
M  V30 2509 C 236.705 -0.21752 -5.81293 0
M  V30 2510 N 235.681 0.394293 -5.42168 0
M  V30 2511 H 239.483 -0.236048 -2.92951 0
M  V30 2512 H 236.997 -0.230481 -1.60756 0
M  V30 2513 H 238.994 2.14199 -3.57665 0
M  V30 2514 H 237.654 2.18605 -2.40088 0
M  V30 2515 H 238.665 -0.260924 -5.17242 0
M  V30 2516 H 235.342 1.87812 -3.72871 0
M  V30 2517 H 236.732 -0.906992 -6.6575 0
M  V30 2518 N 239.452 1.56882 -0.150215 0
M  V30 2519 C 240.7 1.9584 0.499105 0
M  V30 2520 C 241.021 1.03623 1.65188 0
M  V30 2521 O 240.291 0.0984084 1.95653 0
M  V30 2522 H 238.871 0.723119 0.187373 0
M  V30 2523 H 241.533 1.9358 -0.226466 0
M  V30 2524 H 240.629 2.99638 0.873122 0
M  V30 2525 N 240.93 -0.123565 1.57115 0
M  V30 2526 C 242.179 -0.830704 1.83799 0
M  V30 2527 C 242.492 -1.81259 0.735158 0
M  V30 2528 O 243.698 -2.56558 0.888278 0
M  V30 2529 C 242.154 -1.52802 3.25852 0
M  V30 2530 C 241.762 -0.587356 4.44133 0
M  V30 2531 C 243.506 -2.22056 3.61789 0
M  V30 2532 C 241.413 -1.28764 5.77212 0
M  V30 2533 H 240.343 -0.313967 0.685522 0
M  V30 2534 H 242.994 -0.0834359 1.8331 0
M  V30 2535 H 241.376 -2.32175 3.20797 0
M  V30 2536 H 242.55 0.172829 4.60476 0
M  V30 2537 H 240.865 -0.00201892 4.164 0
M  V30 2538 H 243.462 -2.75131 4.58483 0
M  V30 2539 H 243.805 -2.99644 2.88997 0
M  V30 2540 H 244.338 -1.49576 3.68608 0
M  V30 2541 H 241.077 -0.55314 6.53162 0
M  V30 2542 H 240.597 -2.01995 5.64764 0
M  V30 2543 H 242.276 -1.8221 6.20813 0
M  V30 2544 N 242.408 -1.52605 -0.393616 0
M  V30 2545 C 243.633 -1.71592 -1.16495 0
M  V30 2546 C 244.058 -0.43133 -1.83088 0
M  V30 2547 O 243.416 0.612523 -1.7064 0
M  V30 2548 C 243.464 -2.86318 -2.19213 0
M  V30 2549 O 242.568 -2.52969 -3.257 0
M  V30 2550 H 241.909 -0.570734 -0.33935 0
M  V30 2551 H 244.439 -1.99377 -0.459324 0
M  V30 2552 H 244.449 -3.1168 -2.63286 0
M  V30 2553 H 243.124 -3.79511 -1.7013 0
M  V30 2554 H 241.701 -2.38332 -2.86797 0
M  V30 2555 N 243.887 0.651787 -1.4349 0
M  V30 2556 C 245.303 0.96762 -1.26922 0
M  V30 2557 C 245.503 2.00602 -0.189982 0
M  V30 2558 O 244.559 2.48793 0.431107 0
M  V30 2559 C 245.872 1.45052 -2.63401 0
M  V30 2560 C 247.42 1.5671 -2.70945 0
M  V30 2561 C 247.895 2.0839 -4.07845 0
M  V30 2562 N 249.386 2.1569 -4.09917 0
M  V30 2563 C 250.121 2.56804 -5.12679 0
M  V30 2564 N 249.617 2.97203 -6.25813 0
M  V30 2565 N 251.41 2.56756 -5.00033 0
M  V30 2566 H 243.561 -0.0353158 -2.12371 0
M  V30 2567 H 245.824 0.0467858 -0.946845 0
M  V30 2568 H 245.53 0.761926 -3.43348 0
M  V30 2569 H 245.404 2.42529 -2.88894 0
M  V30 2570 H 247.791 2.2467 -1.9133 0
M  V30 2571 H 247.872 0.57662 -2.49216 0
M  V30 2572 H 247.516 1.41031 -4.87927 0
M  V30 2573 H 247.446 3.08271 -4.26938 0
M  V30 2574 H 249.937 1.87237 -3.28254 0
M  V30 2575 H 250.25 3.27328 -7.00055 0
M  V30 2576 H 248.595 2.95004 -6.29283 0
M  V30 2577 H 251.786 2.24572 -4.10713 0
M  V30 2578 H 251.959 2.88475 -5.80247 0
M  V30 2579 N 245.365 1.30045 0.890287 0
M  V30 2580 C 246.297 1.11786 2.00091 0
M  V30 2581 C 247.31 0.0626307 1.62679 0
M  V30 2582 O 248.499 0.308112 1.75821 0
M  V30 2583 C 245.599 0.681527 3.31977 0
M  V30 2584 C 244.772 1.81735 3.97858 0
M  V30 2585 C 243.831 1.37045 5.08041 0
M  V30 2586 O 242.857 2.07677 5.29961 0
M  V30 2587 N 244.059 0.246525 5.79976 0
M  V30 2588 H 246.824 2.07441 2.16306 0
M  V30 2589 H 244.385 1.2211 1.06305 0
M  V30 2590 H 246.377 0.365675 4.03045 0
M  V30 2591 H 244.947 -0.182828 3.12065 0
M  V30 2592 H 244.167 2.30159 3.20032 0
M  V30 2593 H 245.455 2.57865 4.38615 0
M  V30 2594 H 244.853 -0.34215 5.64664 0
M  V30 2595 H 243.41 -0.00990438 6.51799 0
M  V30 2596 N 246.843 -1.10192 1.12674 0
M  V30 2597 C 248.068 -1.86523 0.906853 0
M  V30 2598 C 248.493 -1.80221 -0.538711 0
M  V30 2599 O 247.851 -1.17396 -1.38158 0
M  V30 2600 C 247.899 -3.32758 1.3894 0
M  V30 2601 O 247.003 -4.08449 0.5695 0
M  V30 2602 H 246.344 -0.578678 0.325619 0
M  V30 2603 H 248.874 -1.39203 1.49946 0
M  V30 2604 H 248.884 -3.83608 1.38958 0
M  V30 2605 H 247.559 -3.36661 2.44197 0
M  V30 2606 H 246.136 -3.67427 0.636528 0
M  V30 2607 N 248.321 -0.919034 -1.28029 0
M  V30 2608 C 249.57 -0.550802 -1.94034 0
M  V30 2609 C 249.883 0.910877 -1.73096 0
M  V30 2610 O 251.089 1.3875 -2.33368 0
M  V30 2611 C 249.545 -0.934249 -3.47563 0
M  V30 2612 C 249.153 -2.41602 -3.7727 0
M  V30 2613 C 250.897 -0.636854 -4.19696 0
M  V30 2614 C 248.804 -2.73932 -5.24133 0
M  V30 2615 H 247.734 -0.202273 -0.726362 0
M  V30 2616 H 250.385 -1.11867 -1.45458 0
M  V30 2617 H 248.767 -0.295115 -3.94899 0
M  V30 2618 H 249.941 -3.10233 -3.40723 0
M  V30 2619 H 248.256 -2.68441 -3.18321 0
M  V30 2620 H 250.853 -0.855005 -5.2782 0
M  V30 2621 H 251.196 0.425575 -4.14119 0
M  V30 2622 H 251.729 -1.23469 -3.78154 0
M  V30 2623 H 248.468 -3.79049 -5.34792 0
M  V30 2624 H 247.988 -2.09942 -5.61858 0
M  V30 2625 H 249.667 -2.61215 -5.91925 0
M  V30 2626 N 249.799 1.42003 -0.683588 0
M  V30 2627 C 251.21 1.84501 -0.285736 0
M  V30 2628 C 251.561 1.57213 1.17382 0
M  V30 2629 O 250.686 1.03642 1.89966 0
M  V30 2630 C 251.281 3.34912 -0.511821 0
M  V30 2631 C 249.84 3.76025 -0.168005 0
M  V30 2632 C 248.987 2.6551 -0.799983 0
M  V30 2633 H 251.938 1.31724 -0.885119 0
M  V30 2634 H 251.959 3.79784 0.233292 0
M  V30 2635 H 251.471 3.54741 -1.57418 0
M  V30 2636 H 249.572 3.61801 0.890567 0
M  V30 2637 H 249.685 4.75141 -0.614661 0
M  V30 2638 H 248.049 2.53654 -0.230568 0
M  V30 2639 H 248.832 2.8816 -1.86597 0
M  V30 2640 N 251.277 0.427512 1.51691 0
M  V30 2641 C 252.24 -0.377132 2.26076 0
M  V30 2642 C 253.24 -0.958089 1.29141 0
M  V30 2643 O 254.43 -0.83408 1.52934 0
M  V30 2644 C 251.562 -1.53262 3.04506 0
M  V30 2645 H 252.755 0.27464 2.9864 0
M  V30 2646 H 250.308 0.180445 1.55255 0
M  V30 2647 H 251.043 -2.22072 2.36335 0
M  V30 2648 H 250.828 -1.12232 3.75694 0
M  V30 2649 H 252.318 -2.10135 3.60878 0
M  V30 2650 N 252.755 -1.56801 0.158532 0
M  V30 2651 C 253.665 -2.20916 -0.789518 0
M  V30 2652 C 254.681 -1.1969 -1.26294 0
M  V30 2653 O 255.857 -1.52308 -1.31773 0
M  V30 2654 C 252.922 -2.82727 -2.00665 0
M  V30 2655 C 251.983 -3.99114 -1.58134 0
M  V30 2656 C 251.216 -4.57968 -2.74045 0
M  V30 2657 O 251.439 -4.15704 -3.90572 0
M  V30 2658 O 250.373 -5.48047 -2.48855 0
M  V30 2659 H 254.199 -3.02464 -0.273681 0
M  V30 2660 H 251.784 -1.4924 -0.0690548 0
M  V30 2661 H 253.666 -3.21968 -2.71872 0
M  V30 2662 H 252.341 -2.04184 -2.51179 0
M  V30 2663 H 251.248 -3.64567 -0.839155 0
M  V30 2664 H 252.581 -4.79212 -1.12325 0
M  V30 2665 N 254.233 0.115231 -1.57178 0
M  V30 2666 C 255.649 0.468877 -1.52557 0
M  V30 2667 C 255.849 1.81649 -0.872125 0
M  V30 2668 O 254.905 2.48347 -0.45606 0
M  V30 2669 C 256.218 0.4499 -2.97315 0
M  V30 2670 C 257.766 0.533185 -3.08425 0
M  V30 2671 C 258.241 0.54456 -4.54751 0
M  V30 2672 N 259.732 0.605892 -4.5922 0
M  V30 2673 C 260.467 0.636203 -5.6986 0
M  V30 2674 N 259.963 0.623931 -6.89985 0
M  V30 2675 N 261.756 0.679496 -5.57978 0
M  V30 2676 H 253.907 -0.767712 -1.9804 0
M  V30 2677 H 256.17 -0.283609 -0.904583 0
M  V30 2678 H 255.876 -0.472721 -3.48509 0
M  V30 2679 H 255.75 1.27632 -3.5495 0
M  V30 2680 H 258.137 1.44623 -2.57232 0
M  V30 2681 H 258.218 -0.320995 -2.53778 0
M  V30 2682 H 257.862 -0.364452 -5.06591 0
M  V30 2683 H 257.792 1.41568 -5.07214 0
M  V30 2684 H 260.283 0.621386 -3.72756 0
M  V30 2685 H 260.596 0.649787 -7.70063 0
M  V30 2686 H 258.941 0.591296 -6.9248 0
M  V30 2687 H 262.132 0.686472 -4.63039 0
M  V30 2688 H 262.305 0.69965 -6.44212 0
M  V30 2689 N 255.711 1.52812 0.385517 0
M  V30 2690 C 256.641 1.80808 1.47752 0
M  V30 2691 C 257.622 0.660318 1.5676 0
M  V30 2692 O 258.807 0.908246 1.71652 0
M  V30 2693 C 255.937 1.98008 2.85324 0
M  V30 2694 C 254.891 3.13709 2.91154 0
M  V30 2695 C 254.217 3.16169 4.31209 0
M  V30 2696 C 255.517 4.52709 2.60483 0
M  V30 2697 H 257.211 2.72253 1.24573 0
M  V30 2698 H 254.757 1.31003 0.597839 0
M  V30 2699 H 256.71 2.16176 3.61726 0
M  V30 2700 H 255.434 1.03255 3.09848 0
M  V30 2701 H 254.093 2.95329 2.17201 0
M  V30 2702 H 253.741 2.19092 4.52778 0
M  V30 2703 H 253.441 3.93894 4.36029 0
M  V30 2704 H 254.965 3.36496 5.09512 0
M  V30 2705 H 256.379 4.71173 3.26602 0
M  V30 2706 H 254.776 5.32528 2.76648 0
M  V30 2707 H 255.846 4.59186 1.55809 0
M  V30 2708 N 257.189 -0.644168 1.43834 0
M  V30 2709 C 258.136 -1.75671 1.49694 0
M  V30 2710 C 259.106 -1.6246 0.345809 0
M  V30 2711 O 260.291 -1.82573 0.554234 0
M  V30 2712 C 257.431 -3.13867 1.43463 0
M  V30 2713 C 256.544 -3.38147 2.6885 0
M  V30 2714 C 255.679 -4.66241 2.54544 0
M  V30 2715 C 254.718 -4.83657 3.75157 0
M  V30 2716 N 253.855 -6.03016 3.59605 0
M  V30 2717 H 258.695 -1.69998 2.44754 0
M  V30 2718 H 256.232 -0.829458 1.21484 0
M  V30 2719 H 258.19 -3.9377 1.37843 0
M  V30 2720 H 256.82 -3.18588 0.519783 0
M  V30 2721 H 255.872 -2.52276 2.84712 0
M  V30 2722 H 257.184 -3.46899 3.58417 0
M  V30 2723 H 256.338 -5.54285 2.46683 0
M  V30 2724 H 255.077 -4.59826 1.62516 0
M  V30 2725 H 254.082 -3.94046 3.83416 0
M  V30 2726 H 255.307 -4.91896 4.68204 0
M  V30 2727 H 253.253 -5.97715 2.7032 0
M  V30 2728 H 253.17 -6.12766 4.42779 0
M  V30 2729 H 254.438 -6.93657 3.55613 0
M  V30 2730 N 258.668 -1.30515 -0.883378 0
M  V30 2731 C 259.914 -1.19607 -1.63774 0
M  V30 2732 C 260.247 0.248314 -1.92606 0
M  V30 2733 O 259.522 1.17742 -1.54813 0
M  V30 2734 C 259.805 -2.02669 -2.97653 0
M  V30 2735 C 259.658 -3.55335 -2.75784 0
M  V30 2736 C 260.977 -1.86573 -3.98596 0
M  V30 2737 H 258.096 -0.435856 -0.594305 0
M  V30 2738 H 260.738 -1.60165 -1.02212 0
M  V30 2739 H 258.888 -1.68208 -3.50197 0
M  V30 2740 H 260.56 -3.99863 -2.30016 0
M  V30 2741 H 258.803 -3.79438 -2.1026 0
M  V30 2742 H 259.474 -4.08745 -3.70988 0
M  V30 2743 H 261.95 -2.16703 -3.55217 0
M  V30 2744 H 260.826 -2.47014 -4.90179 0
M  V30 2745 H 261.087 -0.825321 -4.34328 0
M  V30 2746 N 260.146 1.09593 -1.13257 0
M  V30 2747 C 261.393 1.81734 -0.893257 0
M  V30 2748 C 261.721 1.8563 0.580656 0
M  V30 2749 O 260.976 1.31906 1.44566 0
M  V30 2750 C 261.275 3.27802 -1.42411 0
M  V30 2751 C 260.941 3.44041 -2.91456 0
M  V30 2752 C 259.603 3.48181 -3.3215 0
M  V30 2753 C 261.955 3.48719 -3.87356 0
M  V30 2754 C 259.283 3.54575 -4.67433 0
M  V30 2755 C 261.635 3.56648 -5.2248 0
M  V30 2756 C 260.299 3.59055 -5.62704 0
M  V30 2757 H 259.569 0.665011 -0.326866 0
M  V30 2758 H 262.216 1.2912 -1.41422 0
M  V30 2759 H 260.521 3.83042 -0.823795 0
M  V30 2760 H 262.218 3.82149 -1.21503 0
M  V30 2761 H 258.808 3.41502 -2.58987 0
M  V30 2762 H 262.992 3.44763 -3.57004 0
M  V30 2763 H 258.248 3.54725 -4.97976 0
M  V30 2764 H 262.422 3.59212 -5.96607 0
M  V30 2765 H 260.049 3.63763 -6.67518 0
M  V30 2766 N 261.624 0.925811 1.2754 0
M  V30 2767 C 262.534 0.428993 2.30644 0
M  V30 2768 C 263.55 -0.489387 1.66976 0
M  V30 2769 O 264.726 -0.372653 1.97922 0
M  V30 2770 C 261.791 -0.311967 3.45294 0
M  V30 2771 C 260.852 0.641098 4.24486 0
M  V30 2772 C 260.085 -0.0645955 5.33661 0
M  V30 2773 O 260.308 -1.28429 5.55754 0
M  V30 2774 O 259.242 0.606265 5.98839 0
M  V30 2775 H 263.068 1.28504 2.75173 0
M  V30 2776 H 260.653 0.691086 1.32455 0
M  V30 2777 H 262.535 -0.729972 4.15029 0
M  V30 2778 H 261.21 -1.14365 3.02824 0
M  V30 2779 H 260.117 1.10874 3.57292 0
M  V30 2780 H 261.45 1.43995 4.70666 0
M  V30 2781 N 263.102 -1.41638 0.69111 0
M  V30 2782 C 264.518 -1.55435 0.362224 0
M  V30 2783 C 264.718 -1.66754 -1.13117 0
M  V30 2784 O 263.774 -1.64348 -1.91692 0
M  V30 2785 C 265.087 -2.79588 1.10684 0
M  V30 2786 C 266.635 -2.9338 1.09075 0
M  V30 2787 C 267.11 -4.20414 1.81703 0
M  V30 2788 N 268.601 -4.27362 1.7865 0
M  V30 2789 C 269.336 -5.24507 2.31689 0
M  V30 2790 N 268.832 -6.27708 2.93179 0
M  V30 2791 N 270.625 -5.16416 2.2197 0
M  V30 2792 H 262.776 -1.32536 1.65976 0
M  V30 2793 H 265.039 -0.639115 0.700168 0
M  V30 2794 H 264.745 -2.77419 2.16175 0
M  V30 2795 H 264.619 -3.70973 0.682545 0
M  V30 2796 H 267.006 -2.95067 0.0441238 0
M  V30 2797 H 267.087 -2.0318 1.55407 0
M  V30 2798 H 266.731 -4.19488 2.86343 0
M  V30 2799 H 266.661 -5.09578 1.32808 0
M  V30 2800 H 269.152 -3.53415 1.33815 0
M  V30 2801 H 269.465 -6.98217 3.31229 0
M  V30 2802 H 267.81 -6.28223 2.97255 0
M  V30 2803 H 271.001 -4.34716 1.73607 0
M  V30 2804 H 271.174 -5.91958 2.63609 0
M  V30 2805 N 264.58 -0.43555 -1.51462 0
M  V30 2806 C 265.826 0.131709 -2.02372 0
M  V30 2807 C 266.159 1.42516 -1.3192 0
M  V30 2808 O 265.434 1.89606 -0.433573 0
M  V30 2809 C 265.717 0.352301 -3.58373 0
M  V30 2810 C 265.57 -0.959676 -4.39443 0
M  V30 2811 C 266.889 1.12286 -4.25535 0
M  V30 2812 H 264.008 0.0463936 -0.735538 0
M  V30 2813 H 266.65 -0.574197 -1.81116 0
M  V30 2814 H 264.8 0.9536 -3.76615 0
M  V30 2815 H 266.472 -1.59482 -4.32855 0
M  V30 2816 H 264.715 -1.56468 -4.04599 0
M  V30 2817 H 265.386 -0.759394 -5.46752 0
M  V30 2818 H 267.862 0.613545 -4.11552 0
M  V30 2819 H 266.738 1.24598 -5.34571 0
M  V30 2820 H 266.999 2.15048 -3.86273 0
M  V30 2821 N 266.058 1.56714 -0.166846 0
M  V30 2822 C 267.288 2.00828 0.48494 0
M  V30 2823 C 267.696 1.04612 1.57648 0
M  V30 2824 O 267.039 0.0383201 1.8366 0
M  V30 2825 C 267.101 3.4137 1.12723 0
M  V30 2826 C 266.765 4.56654 0.177886 0
M  V30 2827 C 267.762 5.16402 -0.60207 0
M  V30 2828 C 265.447 5.02244 0.0750139 0
M  V30 2829 C 267.441 6.20167 -1.47215 0
M  V30 2830 C 265.128 6.05859 -0.798649 0
M  V30 2831 C 266.126 6.64691 -1.57082 0
M  V30 2832 O 265.814 7.66297 -2.42989 0
M  V30 2833 H 265.546 0.663587 0.128953 0
M  V30 2834 H 268.1 2.03692 -0.264365 0
M  V30 2835 H 266.33 3.35406 1.92457 0
M  V30 2836 H 268.019 3.69466 1.68076 0
M  V30 2837 H 268.785 4.82065 -0.53274 0
M  V30 2838 H 264.664 4.56167 0.665812 0
M  V30 2839 H 268.208 6.66016 -2.07531 0
M  V30 2840 H 264.105 6.39621 -0.869199 0
M  V30 2841 H 264.873 7.83601 -2.36455 0
M  V30 2842 N 267.536 -0.106894 1.57237 0
M  V30 2843 C 268.947 -0.662723 1.74542 0
M  V30 2844 C 269.298 -1.7971 0.787319 0
M  V30 2845 O 268.423 -2.16368 -0.0369636 0
M  V30 2846 C 269.018 -1.20896 3.16496 0
M  V30 2847 C 267.577 -1.71096 3.35266 0
M  V30 2848 C 266.724 -0.615642 2.7038 0
M  V30 2849 H 269.675 0.119106 1.58252 0
M  V30 2850 H 269.696 -2.07847 3.18716 0
M  V30 2851 H 269.208 -0.383122 3.86204 0
M  V30 2852 H 267.309 -2.56119 2.70618 0
M  V30 2853 H 267.422 -1.81208 4.43509 0
M  V30 2854 H 265.786 -1.05222 2.31949 0
M  V30 2855 H 266.569 0.199419 3.4272 0
M  V30 2856 N 269.014 -1.53014 -0.377408 0
M  V30 2857 C 270.261 -1.68623 -1.12128 0
M  V30 2858 C 270.589 -0.431997 -1.89642 0
M  V30 2859 O 269.844 0.585855 -1.86725 0
M  V30 2860 C 270.143 -2.87982 -2.11663 0
M  V30 2861 C 269.809 -4.24964 -1.50719 0
M  V30 2862 C 268.471 -4.62217 -1.33825 0
M  V30 2863 C 270.823 -5.10199 -1.06519 0
M  V30 2864 C 268.151 -5.82352 -0.712963 0
M  V30 2865 C 270.503 -6.30969 -0.453955 0
M  V30 2866 C 269.167 -6.66944 -0.272411 0
M  V30 2867 H 268.437 -0.617034 -0.410305 0
M  V30 2868 H 271.084 -1.8718 -0.404484 0
M  V30 2869 H 269.389 -2.63889 -2.89603 0
M  V30 2870 H 271.086 -2.97253 -2.6915 0
M  V30 2871 H 267.676 -3.95626 -1.64858 0
M  V30 2872 H 271.86 -4.81978 -1.18368 0
M  V30 2873 H 267.116 -6.08824 -0.560611 0
M  V30 2874 H 271.29 -6.96324 -0.103217 0
M  V30 2875 H 268.917 -7.59898 0.214181 0
M  V30 2876 N 270.492 0.636531 -1.44174 0
M  V30 2877 C 271.74 1.39343 -1.46383 0
M  V30 2878 C 272.061 1.94766 -0.0955715 0
M  V30 2879 O 271.331 1.75452 0.871395 0
M  V30 2880 H 269.911 0.517199 -0.538994 0
M  V30 2881 H 272.573 0.74957 -1.7991 0
M  V30 2882 H 271.669 2.22746 -2.18611 0
M  V30 2883 N 271.97 1.30982 0.876444 0
M  V30 2884 C 273.216 1.21484 1.63136 0
M  V30 2885 C 273.571 -0.226339 1.91064 0
M  V30 2886 O 272.864 -1.15788 1.52656 0
M  V30 2887 C 273.058 1.98572 2.9716 0
M  V30 2888 C 272.887 3.50039 2.82317 0
M  V30 2889 C 271.657 4.19393 2.81847 0
M  V30 2890 C 273.855 4.45111 2.57644 0
M  V30 2891 N 271.837 5.57061 2.57985 0
M  V30 2892 C 273.208 5.70402 2.42986 0
M  V30 2893 C 275.263 4.3461 2.42937 0
M  V30 2894 C 273.966 6.8638 2.15115 0
M  V30 2895 C 275.992 5.50365 2.16454 0
M  V30 2896 C 275.354 6.74642 2.02578 0
M  V30 2897 H 271.453 0.499632 0.601575 0
M  V30 2898 H 274.037 1.65094 1.03209 0
M  V30 2899 H 272.208 1.5734 3.55104 0
M  V30 2900 H 273.94 1.81146 3.61895 0
M  V30 2901 H 270.695 3.71303 2.93991 0
M  V30 2902 H 271.119 6.29529 2.49043 0
M  V30 2903 H 275.761 3.39199 2.52396 0
M  V30 2904 H 273.479 7.81824 2.04394 0
M  V30 2905 H 277.065 5.44154 2.05884 0
M  V30 2906 H 275.945 7.62699 1.82374 0
M  V30 2907 N 273.449 -1.08991 1.13837 0
M  V30 2908 C 274.379 -2.17771 0.842507 0
M  V30 2909 C 275.36 -1.6892 -0.20001 0
M  V30 2910 O 276.545 -1.94113 -0.0579731 0
M  V30 2911 C 273.675 -3.4589 0.312644 0
M  V30 2912 C 272.629 -4.08099 1.28992 0
M  V30 2913 C 271.955 -5.31098 0.619623 0
M  V30 2914 C 273.255 -4.50077 2.65005 0
M  V30 2915 H 274.949 -2.42777 1.75213 0
M  V30 2916 H 272.495 -1.16682 0.843875 0
M  V30 2917 H 274.448 -4.21297 0.0933043 0
M  V30 2918 H 273.172 -3.20419 -0.632382 0
M  V30 2919 H 271.831 -3.34717 1.49533 0
M  V30 2920 H 271.479 -5.0191 -0.33102 0
M  V30 2921 H 271.179 -5.73674 1.27167 0
M  V30 2922 H 272.703 -6.09224 0.409669 0
M  V30 2923 H 274.117 -5.16688 2.48407 0
M  V30 2924 H 272.514 -5.03553 3.26427 0
M  V30 2925 H 273.584 -3.62257 3.22332 0
M  V30 2926 N 274.927 -0.932562 -1.27047 0
M  V30 2927 C 276.175 -0.574422 -1.93765 0
M  V30 2928 C 276.496 0.887993 -1.73608 0
M  V30 2929 O 275.766 1.62999 -1.08665 0
M  V30 2930 H 274.346 -0.209451 -0.717035 0
M  V30 2931 H 277.008 -1.18601 -1.5466 0
M  V30 2932 H 276.104 -0.784841 -3.02071 0
M  V30 2933 N 276.405 1.4127 -0.698611 0
M  V30 2934 C 277.335 2.33447 -0.049629 0
M  V30 2935 C 278.316 1.51982 0.763898 0
M  V30 2936 O 279.501 1.80509 0.716257 0
M  V30 2937 C 276.631 3.35828 0.885267 0
M  V30 2938 C 275.585 4.27627 0.178613 0
M  V30 2939 C 274.911 5.20406 1.22807 0
M  V30 2940 C 276.211 5.13459 -0.956933 0
M  V30 2941 H 277.905 2.87966 -0.81951 0
M  V30 2942 H 275.451 1.38461 -0.395538 0
M  V30 2943 H 277.404 3.9924 1.34854 0
M  V30 2944 H 276.128 2.79666 1.68685 0
M  V30 2945 H 274.787 3.65643 -0.26466 0
M  V30 2946 H 274.435 4.60558 2.02226 0
M  V30 2947 H 274.135 5.82661 0.760239 0
M  V30 2948 H 275.659 5.86695 1.69179 0
M  V30 2949 H 277.073 5.70421 -0.573805 0
M  V30 2950 H 275.47 5.8467 -1.35205 0
M  V30 2951 H 276.54 4.50443 -1.79524 0
M  V30 2952 N 277.883 0.443576 1.51229 0
M  V30 2953 C 278.813 -0.355142 2.30783 0
M  V30 2954 C 279.794 -1.0154 1.36468 0
M  V30 2955 O 280.979 -1.01785 1.65389 0
M  V30 2956 C 278.109 -1.45312 3.15439 0
M  V30 2957 C 277.063 -0.916002 4.18083 0
M  V30 2958 C 276.389 -2.1102 4.91299 0
M  V30 2959 C 277.689 0.0538602 5.22272 0
M  V30 2960 H 279.383 0.308767 2.97804 0
M  V30 2961 H 276.929 0.149937 1.43217 0
M  V30 2962 H 278.882 -2.01914 3.69876 0
M  V30 2963 H 277.606 -2.14541 2.46252 0
M  V30 2964 H 276.265 -0.372145 3.64706 0
M  V30 2965 H 275.913 -2.78882 4.18609 0
M  V30 2966 H 275.613 -1.75717 5.60712 0
M  V30 2967 H 277.137 -2.68164 5.48562 0
M  V30 2968 H 278.551 -0.422069 5.71744 0
M  V30 2969 H 276.948 0.319776 5.99247 0
M  V30 2970 H 278.018 0.98858 4.74716 0
M  V30 2971 N 279.361 -1.56624 0.175154 0
M  V30 2972 C 280.324 -2.16934 -0.739738 0
M  V30 2973 C 281.324 -1.11842 -1.15533 0
M  V30 2974 O 282.514 -1.37335 -1.07167 0
M  V30 2975 C 279.646 -2.75531 -2.00738 0
M  V30 2976 H 280.839 -2.99131 -0.214639 0
M  V30 2977 H 278.392 -1.56123 -0.0744197 0
M  V30 2978 H 279.127 -1.97078 -2.57548 0
M  V30 2979 H 278.912 -3.52444 -1.71831 0
M  V30 2980 H 280.402 -3.21904 -2.66021 0
M  V30 2981 N 280.839 0.0985539 -1.57292 0
M  V30 2982 C 282.116 0.834155 -1.76921 0
M  V30 2983 C 282.496 1.97101 -0.755928 0
M  V30 2984 O 281.844 2.27474 0.216245 0
M  V30 2985 C 282.054 1.33194 -3.22584 0
M  V30 2986 C 283.402 1.77611 -3.85668 0
M  V30 2987 O 284.426 1.42825 -3.26312 0
M  V30 2988 O 283.285 2.4192 -4.90038 0
M  V30 2989 H 280.379 0.397628 -0.725135 0
M  V30 2990 H 282.925 0.0807044 -1.69508 0
M  V30 2991 H 281.697 0.517248 -3.87866 0
M  V30 2992 H 281.32 2.1475 -3.34616 0
M  V30 2993 N 282.317 1.53212 0.369288 0
M  V30 2994 C 283.545 1.73119 1.13303 0
M  V30 2995 C 283.96 0.458455 1.83149 0
M  V30 2996 O 283.317 -0.568403 1.73423 0
M  V30 2997 C 283.368 2.89413 2.16616 0
M  V30 2998 O 283.089 4.11761 1.49614 0
M  V30 2999 C 284.59 3.21161 3.05566 0
M  V30 3000 H 281.81 0.579107 0.338934 0
M  V30 3001 H 284.354 1.99942 0.429338 0
M  V30 3002 H 282.509 2.64994 2.82589 0
M  V30 3003 H 282.923 4.76858 2.18419 0
M  V30 3004 H 284.397 4.05949 3.74045 0
M  V30 3005 H 284.874 2.36369 3.70171 0
M  V30 3006 H 285.48 3.47492 2.45213 0
M  V30 3007 N 283.795 -0.628877 1.44509 0
M  V30 3008 C 285.206 -1.21054 1.42137 0
M  V30 3009 C 285.557 -1.95715 0.137881 0
M  V30 3010 O 284.682 -2.02554 -0.761645 0
M  V30 3011 C 285.277 -2.20189 2.57493 0
M  V30 3012 C 283.836 -2.73777 2.58308 0
M  V30 3013 C 282.983 -1.48813 2.33987 0
M  V30 3014 H 285.934 -0.41942 1.53057 0
M  V30 3015 H 285.955 -3.02833 2.30375 0
M  V30 3016 H 285.467 -1.6582 3.50892 0
M  V30 3017 H 283.568 -3.32142 1.68856 0
M  V30 3018 H 283.681 -3.19662 3.56865 0
M  V30 3019 H 282.045 -1.77024 1.83124 0
M  V30 3020 H 282.828 -0.963442 3.29504 0
M  V30 3021 N 285.273 -1.31445 -0.869486 0
M  V30 3022 C 286.684 -1.19042 -1.43826 0
M  V30 3023 C 287.035 0.202919 -1.95148 0
M  V30 3024 O 286.16 1.10071 -1.86315 0
M  V30 3025 C 286.755 -2.15499 -2.6143 0
M  V30 3026 C 285.314 -2.07028 -3.14351 0
M  V30 3027 C 284.461 -2.04701 -1.87063 0
M  V30 3028 H 287.412 -1.43489 -0.677984 0
M  V30 3029 H 287.433 -1.74488 -3.38134 0
M  V30 3030 H 286.945 -3.16899 -2.24046 0
M  V30 3031 H 285.046 -1.08825 -3.56354 0
M  V30 3032 H 285.159 -2.96157 -3.766 0
M  V30 3033 H 283.523 -1.49724 -2.06046 0
M  V30 3034 H 284.306 -3.07857 -1.51917 0
M  V30 3035 N 286.751 1.08385 -1.14413 0
M  V30 3036 C 287.997 1.81044 -0.913834 0
M  V30 3037 C 288.33 1.86004 0.558209 0
M  V30 3038 O 287.605 1.33606 1.4135 0
M  V30 3039 C 287.888 3.26648 -1.51569 0
M  V30 3040 C 287.741 3.29895 -3.0576 0
M  V30 3041 C 289.06 4.23629 -1.19273 0
M  V30 3042 H 286.179 0.65727 -0.333414 0
M  V30 3043 H 288.821 1.26896 -1.41412 0
M  V30 3044 H 286.971 3.72889 -1.09023 0
M  V30 3045 H 288.643 2.91977 -3.57137 0
M  V30 3046 H 286.886 2.69163 -3.40197 0
M  V30 3047 H 287.557 4.32516 -3.42977 0
M  V30 3048 H 290.033 3.85727 -1.56057 0
M  V30 3049 H 288.909 5.23822 -1.64017 0
M  V30 3050 H 289.17 4.41968 -0.108068 0
M  V30 3051 N 288.23 0.939286 1.26551 0
M  V30 3052 C 289.455 0.602008 1.98471 0
M  V30 3053 C 289.88 -0.815624 1.69497 0
M  V30 3054 O 289.238 -1.54912 0.941905 0
M  V30 3055 C 289.286 0.848407 3.50477 0
M  V30 3056 O 288.39 -0.0804009 4.12322 0
M  V30 3057 H 287.731 0.23049 0.622712 0
M  V30 3058 H 290.261 1.2617 1.61066 0
M  V30 3059 H 290.271 0.768553 4.00696 0
M  V30 3060 H 288.946 1.88171 3.70897 0
M  V30 3061 H 287.523 0.0503508 3.72866 0
M  V30 3062 N 289.708 -1.40897 0.706093 0
M  V30 3063 C 290.658 -2.27987 0.0240746 0
M  V30 3064 C 291.642 -1.42759 -0.742204 0
M  V30 3065 O 292.834 -1.65936 -0.615966 0
M  V30 3066 C 289.963 -3.31186 -0.903907 0
M  V30 3067 C 289.049 -4.2389 -0.133318 0
M  V30 3068 N 289.44 -4.98113 0.878444 0
M  V30 3069 C 287.738 -4.44485 -0.367269 0
M  V30 3070 C 288.439 -5.6604 1.34064 0
M  V30 3071 N 287.415 -5.39522 0.664565 0
M  V30 3072 H 291.217 -2.82812 0.799658 0
M  V30 3073 H 288.731 -1.53235 0.537845 0
M  V30 3074 H 290.728 -3.92413 -1.40775 0
M  V30 3075 H 289.388 -2.77922 -1.67897 0
M  V30 3076 H 290.399 -5.02364 1.25901 0
M  V30 3077 H 287.076 -4.02213 -1.1194 0
M  V30 3078 H 288.466 -6.35524 2.1808 0
M  V30 3079 N 291.186 -0.45159 -1.50991 0
M  V30 3080 C 292.096 0.358431 -2.31846 0
M  V30 3081 C 293.112 1.01438 -1.41373 0
M  V30 3082 O 294.288 1.00663 -1.74439 0
M  V30 3083 C 291.353 1.43704 -3.15515 0
M  V30 3084 C 290.414 0.799742 -4.21785 0
M  V30 3085 C 289.647 1.82696 -5.01456 0
M  V30 3086 O 289.87 3.05105 -4.81941 0
M  V30 3087 O 288.804 1.40958 -5.85162 0
M  V30 3088 H 292.63 -0.302032 -3.02194 0
M  V30 3089 H 290.215 -0.213825 -1.47862 0
M  V30 3090 H 292.097 2.06227 -3.67489 0
M  V30 3091 H 290.772 2.08133 -2.47916 0
M  V30 3092 H 289.679 0.136084 -3.73852 0
M  V30 3093 H 291.012 0.198718 -4.91799 0
M  V30 3094 N 292.664 1.56529 -0.183458 0
M  V30 3095 C 293.594 2.21549 0.737456 0
M  V30 3096 C 294.575 1.17489 1.23005 0
M  V30 3097 O 295.76 1.45959 1.281 0
M  V30 3098 C 292.89 2.86575 1.96194 0
M  V30 3099 C 291.844 3.96778 1.60473 0
M  V30 3100 C 291.17 4.48911 2.90487 0
M  V30 3101 C 292.47 5.15767 0.823497 0
M  V30 3102 H 294.164 2.98761 0.195453 0
M  V30 3103 H 291.71 1.43702 0.0925686 0
M  V30 3104 H 293.663 3.30739 2.61131 0
M  V30 3105 H 292.387 2.06749 2.52828 0
M  V30 3106 H 291.046 3.53286 0.978997 0
M  V30 3107 H 290.694 3.65862 3.45186 0
M  V30 3108 H 290.394 5.23265 2.67335 0
M  V30 3109 H 291.918 4.95771 3.56432 0
M  V30 3110 H 293.332 5.56549 1.37571 0
M  V30 3111 H 291.729 5.96114 0.690551 0
M  V30 3112 H 292.799 4.84574 -0.177782 0
M  V30 3113 N 294.142 -0.090211 1.57342 0
M  V30 3114 C 295.391 -0.791531 1.8552 0
M  V30 3115 C 295.704 -1.79659 0.773441 0
M  V30 3116 O 296.91 -2.54616 0.942497 0
M  V30 3117 C 295.366 -1.45856 3.2902 0
M  V30 3118 C 294.974 -0.493017 4.45279 0
M  V30 3119 C 296.718 -2.14332 3.66418 0
M  V30 3120 C 294.625 -1.16491 5.79814 0
M  V30 3121 H 293.555 -0.299356 0.692027 0
M  V30 3122 H 296.206 -0.0445343 1.83446 0
M  V30 3123 H 294.588 -2.25318 3.2565 0
M  V30 3124 H 295.762 0.270464 4.60006 0
M  V30 3125 H 294.077 0.0863061 4.16311 0
M  V30 3126 H 296.674 -2.65344 4.64216 0
M  V30 3127 H 297.017 -2.93447 2.95287 0
M  V30 3128 H 297.55 -1.41724 3.71698 0
M  V30 3129 H 294.289 -0.41447 6.54188 0
M  V30 3130 H 293.809 -1.8997 5.68921 0
M  V30 3131 H 295.488 -1.69001 6.24538 0
M  V30 3132 N 295.62 -1.53406 -0.361157 0
M  V30 3133 C 296.85 -1.73465 -1.1222 0
M  V30 3134 C 297.258 -0.465486 -1.83384 0
M  V30 3135 O 296.601 0.571611 -1.7458 0
M  V30 3136 C 296.663 -2.84834 -2.19339 0
M  V30 3137 C 296.327 -4.25038 -1.67903 0
M  V30 3138 C 297.324 -5.07231 -1.14074 0
M  V30 3139 C 295.009 -4.71464 -1.73282 0
M  V30 3140 C 297.003 -6.33942 -0.663068 0
M  V30 3141 C 294.69 -5.98153 -1.25127 0
M  V30 3142 C 295.688 -6.79223 -0.717296 0
M  V30 3143 O 295.376 -8.03533 -0.242865 0
M  V30 3144 H 295.108 -0.583526 -0.341283 0
M  V30 3145 H 297.662 -2.00964 -0.424591 0
M  V30 3146 H 295.892 -2.5282 -2.92607 0
M  V30 3147 H 297.581 -2.9303 -2.80871 0
M  V30 3148 H 298.347 -4.72534 -1.09254 0
M  V30 3149 H 294.226 -4.08432 -2.13786 0
M  V30 3150 H 297.77 -6.97167 -0.245612 0
M  V30 3151 H 293.667 -6.32347 -1.29642 0
M  V30 3152 H 294.435 -8.177 -0.361786 0
M  V30 3153 N 297.098 0.621204 -1.44841 0
M  V30 3154 C 298.061 1.71459 -1.521 0
M  V30 3155 C 299.061 1.55696 -0.401933 0
M  V30 3156 O 300.251 1.61011 -0.664925 0
M  V30 3157 C 297.383 3.10624 -1.40447 0
M  V30 3158 H 298.576 1.66394 -2.49506 0
M  V30 3159 H 296.129 0.835745 -1.3208 0
M  V30 3160 H 296.864 3.21277 -0.441737 0
M  V30 3161 H 296.649 3.23473 -2.21602 0
M  V30 3162 H 298.139 3.90293 -1.4853 0
M  V30 3163 N 298.576 1.31904 0.862503 0
M  V30 3164 C 299.524 1.20125 1.9918 0
M  V30 3165 C 300.518 0.107824 1.69056 0
M  V30 3166 O 301.724 0.270223 1.7796 0
M  V30 3167 H 298.099 0.372148 0.65346 0
M  V30 3168 H 300.07 2.15652 2.06244 0
M  V30 3169 C 298.819 0.933099 3.34946 0
M  V30 3170 H 298.142 1.76664 3.5865 0
M  V30 3171 H 299.582 0.890892 4.14535 0
M  V30 3172 C 298.041 -0.364172 3.34926 0
M  V30 3173 O 298.571 -1.37858 3.77304 0
M  V30 3174 N 296.777 -0.383362 2.8806 0
M  V30 3175 H 296.324 0.442651 2.53768 0
M  V30 3176 H 296.282 -1.25123 2.8843 0
M  V30 3177 N 300.054 -1.07777 1.14986 0
M  V30 3178 C 301.004 -2.13082 0.811181 0
M  V30 3179 C 301.988 -1.59619 -0.202597 0
M  V30 3180 O 303.18 -1.77 -0.00398275 0
M  V30 3181 C 300.309 -3.42009 0.297439 0
M  V30 3182 C 299.395 -4.02337 1.34112 0
M  V30 3183 N 299.786 -4.36982 2.54716 0
M  V30 3184 C 298.084 -4.29752 1.19285 0
M  V30 3185 C 298.785 -4.84729 3.21578 0
M  V30 3186 N 297.761 -4.83233 2.48972 0
M  V30 3187 H 301.563 -2.37696 1.72853 0
M  V30 3188 H 299.077 -1.25173 1.03468 0
M  V30 3189 H 301.074 -4.16884 0.0364777 0
M  V30 3190 H 299.734 -3.18841 -0.614022 0
M  V30 3191 H 300.745 -4.27807 2.91894 0
M  V30 3192 H 297.422 -4.16106 0.340926 0
M  V30 3193 H 298.812 -5.20863 4.24442 0
M  V30 3194 N 301.532 -0.945985 -1.26051 0
M  V30 3195 C 302.943 -0.638096 -1.75457 0
M  V30 3196 C 303.294 0.846672 -1.76991 0
M  V30 3197 O 302.419 1.66262 -1.38513 0
M  V30 3198 C 303.014 -1.15157 -3.18629 0
M  V30 3199 C 301.573 -0.894004 -3.65629 0
M  V30 3200 C 300.72 -1.29967 -2.44957 0
M  V30 3201 H 303.671 -1.12376 -1.1206 0
M  V30 3202 H 303.692 -0.507615 -3.77099 0
M  V30 3203 H 303.204 -2.23222 -3.1748 0
M  V30 3204 H 301.305 0.172057 -3.72203 0
M  V30 3205 H 301.418 -1.52439 -4.54202 0
M  V30 3206 H 299.782 -0.718078 -2.44368 0
M  V30 3207 H 300.565 -2.38935 -2.46505 0
M  V30 3208 N 303.011 1.40521 -0.713556 0
M  V30 3209 C 304.427 1.54839 -0.386907 0
M  V30 3210 C 304.627 1.68532 1.1045 0
M  V30 3211 O 303.683 1.67377 1.89053 0
M  V30 3212 C 304.996 2.77792 -1.15118 0
M  V30 3213 C 306.544 2.91607 -1.13729 0
M  V30 3214 C 307.019 4.1747 -1.88368 0
M  V30 3215 N 308.51 4.24466 -1.85427 0
M  V30 3216 C 309.245 5.20755 -2.40004 0
M  V30 3217 N 308.741 6.22965 -3.03129 0
M  V30 3218 N 310.534 5.1282 -2.30158 0
M  V30 3219 H 302.685 1.29879 -1.68063 0
M  V30 3220 H 304.948 0.627896 -0.710247 0
M  V30 3221 H 304.654 2.73944 -2.20561 0
M  V30 3222 H 304.528 3.6984 -0.741477 0
M  V30 3223 H 306.915 2.94959 -0.0910608 0
M  V30 3224 H 306.996 2.00682 -1.5862 0
M  V30 3225 H 306.64 4.1488 -2.9298 0
M  V30 3226 H 306.57 5.074 -1.40898 0
M  V30 3227 H 309.061 3.51241 -1.3942 0
M  V30 3228 H 309.374 6.92859 -3.42295 0
M  V30 3229 H 307.719 6.23415 -3.07212 0
M  V30 3230 H 310.91 4.31899 -1.80501 0
M  V30 3231 H 311.083 5.87689 -2.72993 0
M  V30 3232 N 304.489 0.459591 1.5075 0
M  V30 3233 C 305.737 -0.0991532 2.01857 0
M  V30 3234 C 306.058 -1.41247 1.34441 0
M  V30 3235 O 305.328 -1.89775 0.486022 0
M  V30 3236 H 303.908 -0.039633 0.745948 0
M  V30 3237 H 306.57 0.607387 1.85194 0
M  V30 3238 H 305.666 -0.258998 3.11023 0
M  V30 3239 N 305.967 -1.56429 0.191757 0
M  V30 3240 C 307.214 -1.97485 -0.447891 0
M  V30 3241 C 307.542 -1.07852 -1.61859 0
M  V30 3242 O 306.797 -0.116903 -1.95351 0
M  V30 3243 C 307.096 -3.44449 -0.953384 0
M  V30 3244 C 306.762 -4.50781 0.103586 0
M  V30 3245 C 305.424 -4.79584 0.394023 0
M  V30 3246 C 307.776 -5.1471 0.819946 0
M  V30 3247 C 305.104 -5.69607 1.40585 0
M  V30 3248 C 307.456 -6.05827 1.8209 0
M  V30 3249 C 306.12 -6.32987 2.11857 0
M  V30 3250 H 305.39 -0.722648 -0.163895 0
M  V30 3251 H 308.037 -1.89322 0.28802 0
M  V30 3252 H 306.342 -3.49666 -1.76751 0
M  V30 3253 H 308.039 -3.73569 -1.45765 0
M  V30 3254 H 304.629 -4.28394 -0.132951 0
M  V30 3255 H 308.813 -4.92552 0.608789 0
M  V30 3256 H 304.069 -5.88926 1.64243 0
M  V30 3257 H 308.243 -6.54424 2.38123 0
M  V30 3258 H 305.87 -7.02544 2.90407 0
M  V30 3259 N 307.445 0.0818655 -1.57387 0
M  V30 3260 C 308.408 1.08265 -2.02018 0
M  V30 3261 C 309.408 1.32183 -0.915664 0
M  V30 3262 O 310.598 1.28073 -1.18081 0
M  V30 3263 C 307.73 2.42871 -2.39221 0
M  V30 3264 H 308.923 0.698204 -2.91659 0
M  V30 3265 H 306.476 0.327303 -1.52835 0
M  V30 3266 H 307.211 2.86167 -1.52575 0
M  V30 3267 H 306.996 2.26855 -3.19811 0
M  V30 3268 H 308.486 3.14826 -2.74362 0
M  V30 3269 N 308.923 1.53595 0.353017 0
M  V30 3270 C 309.853 1.83902 1.43883 0
M  V30 3271 C 310.834 0.693421 1.55324 0
M  V30 3272 O 312.019 0.944452 1.69687 0
M  V30 3273 C 309.149 2.04016 2.8106 0
M  V30 3274 C 308.103 3.19814 2.84434 0
M  V30 3275 C 307.429 3.25244 4.24406 0
M  V30 3276 C 308.729 4.58133 2.50822 0
M  V30 3277 H 310.423 2.74835 1.1877 0
M  V30 3278 H 307.969 1.32242 0.569917 0
M  V30 3279 H 309.922 2.238 3.57059 0
M  V30 3280 H 308.646 1.09804 3.07588 0
M  V30 3281 H 307.305 2.9987 2.10887 0
M  V30 3282 H 306.953 2.28646 4.48029 0
M  V30 3283 H 306.653 4.03054 4.27576 0
M  V30 3284 H 308.177 3.47228 5.0226 0
M  V30 3285 H 309.591 4.77995 3.16534 0
M  V30 3286 H 307.988 5.38276 2.6529 0
M  V30 3287 H 309.058 4.62387 1.46034 0
M  V30 3288 N 310.401 -0.613514 1.45168 0
M  V30 3289 C 311.641 -1.38405 1.5041 0
M  V30 3290 C 312.005 -1.91489 0.139922 0
M  V30 3291 O 313.206 -2.68716 0.067033 0
M  V30 3292 C 311.477 -2.50552 2.5487 0
M  V30 3293 S 313.036 -3.38439 2.79292 0
M  V30 3294 H 309.854 -0.471945 0.531779 0
M  V30 3295 H 312.456 -0.708518 1.82209 0
M  V30 3296 H 311.16 -2.09894 3.52665 0
M  V30 3297 H 310.691 -3.22913 2.24701 0
M  V30 3298 H 312.706 -4.48527 2.12222 0
M  V30 3299 N 311.879 -1.3236 -0.855495 0
M  V30 3300 C 313.104 -1.2601 -1.64731 0
M  V30 3301 C 313.529 0.169068 -1.87339 0
M  V30 3302 O 312.887 1.12016 -1.42556 0
M  V30 3303 C 312.935 -2.02417 -2.98429 0
M  V30 3304 O 312.039 -1.3714 -3.8893 0
M  V30 3305 H 311.38 -0.434325 -0.502253 0
M  V30 3306 H 313.91 -1.74661 -1.06558 0
M  V30 3307 H 313.92 -2.12559 -3.48257 0
M  V30 3308 H 312.595 -3.06343 -2.81295 0
M  V30 3309 H 311.172 -1.3554 -3.47395 0
M  V30 3310 N 313.357 1.07166 -1.15556 0
M  V30 3311 C 314.289 2.14341 -0.811815 0
M  V30 3312 C 315.302 1.61835 0.177015 0
M  V30 3313 O 316.491 1.78439 -0.0464996 0
M  V30 3314 C 313.591 3.38387 -0.186481 0
M  V30 3315 C 312.764 4.20238 -1.21321 0
M  V30 3316 C 311.823 5.2266 -0.609302 0
M  V30 3317 O 310.849 5.54719 -1.27576 0
M  V30 3318 N 312.051 5.77306 0.608099 0
M  V30 3319 H 314.816 2.44431 -1.73417 0
M  V30 3320 H 312.377 1.23089 -1.0517 0
M  V30 3321 H 314.369 4.04044 0.230339 0
M  V30 3322 H 312.939 3.05994 0.639249 0
M  V30 3323 H 312.159 3.50369 -1.80652 0
M  V30 3324 H 313.447 4.71736 -1.90638 0
M  V30 3325 H 312.845 5.53513 1.1679 0
M  V30 3326 H 311.402 6.44583 0.96725 0
M  V30 3327 N 314.835 0.952656 1.25548 0
M  V30 3328 C 316.251 0.656769 1.4546 0
M  V30 3329 C 316.451 -0.78633 1.85524 0
M  V30 3330 O 315.507 -1.56183 1.98402 0
M  V30 3331 C 316.82 1.62801 2.52817 0
M  V30 3332 C 318.368 1.63897 2.66659 0
M  V30 3333 C 318.843 2.5978 3.77198 0
M  V30 3334 N 320.334 2.58133 3.84606 0
M  V30 3335 C 321.069 3.29003 4.69621 0
M  V30 3336 N 320.565 4.09339 5.58939 0
M  V30 3337 N 322.358 3.179 4.63569 0
M  V30 3338 H 314.509 1.88526 0.978344 0
M  V30 3339 H 316.772 0.810815 0.491206 0
M  V30 3340 H 316.478 2.65869 2.30232 0
M  V30 3341 H 316.352 1.38898 3.50695 0
M  V30 3342 H 318.739 0.615481 2.8861 0
M  V30 3343 H 318.82 1.91858 1.69187 0
M  V30 3344 H 318.464 3.62254 3.55997 0
M  V30 3345 H 318.394 2.29105 4.7415 0
M  V30 3346 H 320.885 1.99809 3.20757 0
M  V30 3347 H 321.198 4.6034 6.20731 0
M  V30 3348 H 319.543 4.13438 5.58654 0
M  V30 3349 H 322.734 2.54612 3.92798 0
M  V30 3350 H 322.907 3.73398 5.29602 0
M  V30 3351 N 316.313 -1.40141 0.720998 0
M  V30 3352 C 317.538 -2.05618 0.271258 0
M  V30 3353 C 317.963 -1.53978 -1.08039 0
M  V30 3354 O 317.321 -0.677463 -1.68167 0
M  V30 3355 C 317.369 -3.59609 0.267197 0
M  V30 3356 O 316.473 -4.05526 -0.749814 0
M  V30 3357 H 315.814 -0.651904 0.126162 0
M  V30 3358 H 318.344 -1.79439 0.982997 0
M  V30 3359 H 318.354 -4.0786 0.106744 0
M  V30 3360 H 317.029 -3.96559 1.25354 0
M  V30 3361 H 315.606 -3.68722 -0.556644 0
M  V30 3362 N 317.792 -0.46758 -1.50504 0
M  V30 3363 C 318.755 0.317059 -2.26996 0
M  V30 3364 C 319.755 0.923513 -1.31635 0
M  V30 3365 O 320.945 0.793239 -1.55091 0
M  V30 3366 C 318.077 1.45134 -3.08462 0
M  V30 3367 H 319.27 -0.353723 -2.97807 0
M  V30 3368 H 316.823 -0.221545 -1.54722 0
M  V30 3369 H 317.558 2.15728 -2.4214 0
M  V30 3370 H 317.343 1.02232 -3.78538 0
M  V30 3371 H 318.833 2.00493 -3.66323 0
M  V30 3372 N 319.27 1.56325 -0.20005 0
M  V30 3373 C 320.498 2.02105 0.442874 0
M  V30 3374 C 320.913 1.08014 1.5485 0
M  V30 3375 O 320.27 0.0858797 1.82298 0
M  V30 3376 C 320.321 3.47549 0.994583 0
M  V30 3377 O 320.042 4.38049 -0.0669322 0
M  V30 3378 C 321.543 4.0887 1.7129 0
M  V30 3379 H 318.763 0.661807 0.110691 0
M  V30 3380 H 321.307 2.02134 -0.310207 0
M  V30 3381 H 319.462 3.48204 1.69803 0
M  V30 3382 H 319.876 5.23368 0.344462 0
M  V30 3383 H 321.35 5.12475 2.05118 0
M  V30 3384 H 321.827 3.52615 2.61838 0
M  V30 3385 H 322.433 4.12002 1.05518 0
M  V30 3386 N 320.748 -0.0735177 1.57428 0
M  V30 3387 C 322.164 -0.428264 1.53747 0
M  V30 3388 C 322.364 -1.79272 0.91998 0
M  V30 3389 O 321.42 -2.47051 0.521745 0
M  V30 3390 C 322.733 -0.370914 2.98404 0
M  V30 3391 C 324.281 -0.451224 3.0973 0
M  V30 3392 C 324.756 -0.4238 4.56035 0
M  V30 3393 N 326.247 -0.483925 4.60665 0
M  V30 3394 C 326.982 -0.484891 5.71346 0
M  V30 3395 N 326.478 -0.440775 6.91396 0
M  V30 3396 N 328.271 -0.531319 5.59583 0
M  V30 3397 H 320.422 0.819949 1.95935 0
M  V30 3398 H 322.685 0.307493 0.896745 0
M  V30 3399 H 322.391 0.564956 3.47133 0
M  V30 3400 H 322.265 -1.18176 3.5821 0
M  V30 3401 H 324.652 -1.37752 2.60976 0
M  V30 3402 H 324.733 0.388167 2.52838 0
M  V30 3403 H 324.377 0.498638 5.05446 0
M  V30 3404 H 324.307 -1.2807 5.10789 0
M  V30 3405 H 326.798 -0.522338 3.74273 0
M  V30 3406 H 327.111 -0.44539 7.71515 0
M  V30 3407 H 325.456 -0.40749 6.93804 0
M  V30 3408 H 328.647 -0.563464 4.64696 0
M  V30 3409 H 328.82 -0.528603 6.4584 0
M  V30 3410 N 322.226 -1.5378 -0.344866 0
M  V30 3411 C 323.451 -1.75211 -1.10977 0
M  V30 3412 C 323.876 -0.48936 -1.81623 0
M  V30 3413 O 323.234 0.557925 -1.72502 0
M  V30 3414 C 323.282 -2.93147 -2.09993 0
M  V30 3415 O 322.386 -2.63203 -3.17487 0
M  V30 3416 H 321.727 -0.581241 -0.321021 0
M  V30 3417 H 324.257 -2.00738 -0.395661 0
M  V30 3418 H 324.267 -3.19898 -2.53237 0
M  V30 3419 H 322.942 -3.84731 -1.5797 0
M  V30 3420 H 321.519 -2.47336 -2.79069 0
M  V30 3421 N 323.704 0.605807 -1.45491 0
M  V30 3422 C 325.12 0.926751 -1.29936 0
M  V30 3423 C 325.32 1.99896 -0.253706 0
M  V30 3424 O 324.376 2.50038 0.351737 0
M  V30 3425 C 325.689 1.36599 -2.67883 0
M  V30 3426 C 327.237 1.4801 -2.75793 0
M  V30 3427 C 327.712 1.95309 -4.14268 0
M  V30 3428 N 329.203 2.0254 -4.16571 0
M  V30 3429 C 329.938 2.40363 -5.20589 0
M  V30 3430 N 329.434 2.77143 -6.34952 0
M  V30 3431 N 331.227 2.40718 -5.07948 0
M  V30 3432 H 323.378 -0.102862 -2.12151 0
M  V30 3433 H 325.641 0.016639 -0.947854 0
M  V30 3434 H 325.347 0.652306 -3.45598 0
M  V30 3435 H 325.221 2.33215 -2.96463 0
M  V30 3436 H 327.608 2.1847 -1.98381 0
M  V30 3437 H 327.689 0.497041 -2.50925 0
M  V30 3438 H 327.333 1.25436 -4.92167 0
M  V30 3439 H 327.263 2.94532 -4.3653 0
M  V30 3440 H 329.754 1.76699 -3.34045 0
M  V30 3441 H 330.067 3.0489 -7.10114 0
M  V30 3442 H 328.412 2.74834 -6.3835 0
M  V30 3443 H 331.603 2.11392 -4.1765 0
M  V30 3444 H 331.776 2.69869 -5.89131 0
M  V30 3445 N 325.182 1.32811 0.848464 0
M  V30 3446 C 326.412 1.26556 1.63301 0
M  V30 3447 C 326.82 -0.1676 1.88456 0
M  V30 3448 O 326.163 -1.11713 1.45828 0
M  V30 3449 C 326.225 1.96202 3.01239 0
M  V30 3450 C 325.889 3.45528 2.99098 0
M  V30 3451 C 326.886 4.40903 2.75501 0
M  V30 3452 C 324.571 3.87558 3.19537 0
M  V30 3453 C 326.565 5.76282 2.72356 0
M  V30 3454 C 324.252 5.23044 3.16019 0
M  V30 3455 C 325.25 6.17217 2.92458 0
M  V30 3456 O 324.938 7.50223 2.88825 0
M  V30 3457 H 324.67 0.43771 0.515156 0
M  V30 3458 H 327.224 1.7559 1.0657 0
M  V30 3459 H 325.454 1.41746 3.59785 0
M  V30 3460 H 327.143 1.83573 3.62016 0
M  V30 3461 H 327.909 4.09756 2.5947 0
M  V30 3462 H 323.788 3.14674 3.369 0
M  V30 3463 H 327.332 6.4976 2.53886 0
M  V30 3464 H 323.229 5.53818 3.31596 0
M  V30 3465 H 323.997 7.59657 3.04735 0
M  V30 3466 N 326.66 -1.06551 1.16123 0
M  V30 3467 C 327.89 -1.8274 0.963838 0
M  V30 3468 C 328.298 -1.82712 -0.491228 0
M  V30 3469 O 327.641 -1.24294 -1.35265 0
M  V30 3470 C 327.703 -3.3065 1.41106 0
M  V30 3471 C 327.367 -3.54384 2.88549 0
M  V30 3472 C 328.364 -3.4765 3.86569 0
M  V30 3473 C 326.049 -3.81789 3.26408 0
M  V30 3474 C 328.043 -3.67982 5.2045 0
M  V30 3475 C 325.73 -4.01772 4.60459 0
M  V30 3476 C 326.728 -3.94866 5.57288 0
M  V30 3477 O 326.416 -4.14306 6.88916 0
M  V30 3478 H 326.148 -0.583136 0.341948 0
M  V30 3479 H 328.702 -1.35351 1.54497 0
M  V30 3480 H 326.932 -3.78887 0.773394 0
M  V30 3481 H 328.621 -3.88324 1.1815 0
M  V30 3482 H 329.387 -3.2647 3.58667 0
M  V30 3483 H 325.266 -3.86276 2.51619 0
M  V30 3484 H 328.81 -3.62507 5.96015 0
M  V30 3485 H 324.707 -4.2244 4.88072 0
M  V30 3486 H 325.475 -4.31609 6.95454 0
M  V30 3487 N 328.138 -0.959301 -1.25041 0
M  V30 3488 C 329.384 -0.617525 -1.9317 0
M  V30 3489 C 329.717 0.843981 -1.74902 0
M  V30 3490 O 328.992 1.60615 -1.09696 0
M  V30 3491 C 329.275 -0.982736 -3.46431 0
M  V30 3492 C 329.128 -2.50032 -3.73904 0
M  V30 3493 C 330.447 -0.511176 -4.37121 0
M  V30 3494 H 327.566 -0.22582 -0.701552 0
M  V30 3495 H 330.208 -1.19679 -1.4757 0
M  V30 3496 H 328.358 -0.489806 -3.854 0
M  V30 3497 H 330.03 -3.06737 -3.44544 0
M  V30 3498 H 328.273 -2.93598 -3.19348 0
M  V30 3499 H 328.944 -2.70635 -4.81103 0
M  V30 3500 H 331.42 -0.934075 -4.0548 0
M  V30 3501 H 330.296 -0.795361 -5.43107 0
M  V30 3502 H 330.557 0.588834 -4.38161 0
M  V30 3503 N 329.616 1.39756 -0.72842 0
M  V30 3504 C 330.548 2.29157 -0.0446202 0
M  V30 3505 C 331.561 1.46484 0.710367 0
M  V30 3506 O 332.75 1.69632 0.55562 0
M  V30 3507 C 329.85 3.24987 0.961071 0
M  V30 3508 C 329.023 4.36572 0.268967 0
M  V30 3509 C 328.082 5.12756 1.18184 0
M  V30 3510 O 327.108 5.6534 0.661794 0
M  V30 3511 N 328.31 5.23331 2.51206 0
M  V30 3512 H 331.075 2.88482 -0.812295 0
M  V30 3513 H 328.636 1.51265 -0.577098 0
M  V30 3514 H 330.628 3.72827 1.57423 0
M  V30 3515 H 329.198 2.66739 1.63 0
M  V30 3516 H 328.418 3.90694 -0.524574 0
M  V30 3517 H 329.706 5.08363 -0.210934 0
M  V30 3518 H 329.104 4.82116 2.9594 0
M  V30 3519 H 327.661 5.74634 3.07634 0
M  V30 3520 N 331.094 0.475555 1.50254 0
M  V30 3521 C 332.34 -0.0780073 2.0265 0
M  V30 3522 C 332.673 -1.38968 1.35652 0
M  V30 3523 O 331.948 -1.8839 0.483691 0
M  V30 3524 C 332.231 -0.257161 3.59181 0
M  V30 3525 C 332.084 1.07585 4.36744 0
M  V30 3526 C 333.403 -1.00965 4.28362 0
M  V30 3527 H 330.522 -0.0268758 0.73651 0
M  V30 3528 H 333.164 0.622015 1.7953 0
M  V30 3529 H 331.314 -0.853412 3.79011 0
M  V30 3530 H 332.986 1.70902 4.28474 0
M  V30 3531 H 331.229 1.6714 4.00308 0
M  V30 3532 H 331.9 0.904088 5.44546 0
M  V30 3533 H 334.376 -0.504214 4.13034 0
M  V30 3534 H 333.252 -1.10381 5.37687 0
M  V30 3535 H 333.513 -2.04731 3.91839 0
M  V30 3536 N 332.573 -1.56217 0.208337 0
M  V30 3537 C 333.984 -1.84243 -0.301904 0
M  V30 3538 C 334.335 -1.12939 -1.60434 0
M  V30 3539 O 333.46 -0.39461 -2.12772 0
M  V30 3540 C 334.055 -3.34231 -0.554543 0
M  V30 3541 C 332.614 -3.62621 -1.00912 0
M  V30 3542 C 331.761 -2.77224 -0.064933 0
M  V30 3543 H 334.712 -1.52712 0.431833 0
M  V30 3544 H 334.733 -3.5372 -1.40223 0
M  V30 3545 H 334.245 -3.86099 0.393561 0
M  V30 3546 H 332.346 -3.16197 -1.97104 0
M  V30 3547 H 332.459 -4.7071 -0.892674 0
M  V30 3548 H 330.823 -2.48256 -0.56929 0
M  V30 3549 H 331.606 -3.31887 0.877851 0
M  V30 3550 N 334.051 0.0651679 -1.57465 0
M  V30 3551 C 334.981 1.07693 -2.07182 0
M  V30 3552 C 335.962 1.39962 -0.966673 0
M  V30 3553 O 337.147 1.49475 -1.2398 0
M  V30 3554 C 334.277 2.3885 -2.52127 0
M  V30 3555 C 333.231 2.20917 -3.66579 0
M  V30 3556 C 332.557 3.57515 -3.97601 0
M  V30 3557 C 333.857 1.62493 -4.9638 0
M  V30 3558 H 335.551 0.663199 -2.91962 0
M  V30 3559 H 333.097 0.317569 -1.40455 0
M  V30 3560 H 335.05 3.09928 -2.85522 0
M  V30 3561 H 333.774 2.82215 -1.64384 0
M  V30 3562 H 332.433 1.52279 -3.33477 0
M  V30 3563 H 332.081 3.98463 -3.06979 0
M  V30 3564 H 331.781 3.46353 -4.74672 0
M  V30 3565 H 333.305 4.30013 -4.33499 0
M  V30 3566 H 334.719 2.23445 -5.27963 0
M  V30 3567 H 333.116 1.62009 -5.77818 0
M  V30 3568 H 334.186 0.587041 -4.81333 0
M  V30 3569 N 335.529 1.53961 0.336706 0
M  V30 3570 C 336.754 1.75797 1.10046 0
M  V30 3571 C 337.179 0.498985 1.81361 0
M  V30 3572 O 336.537 -0.548769 1.72795 0
M  V30 3573 C 336.585 2.94257 2.08436 0
M  V30 3574 O 335.689 2.64883 3.16087 0
M  V30 3575 H 335.03 0.582936 0.317934 0
M  V30 3576 H 337.56 2.00945 0.38501 0
M  V30 3577 H 337.57 3.21237 2.51537 0
M  V30 3578 H 336.245 3.85564 1.55927 0
M  V30 3579 H 334.822 2.48812 2.77753 0
M  V30 3580 N 337.007 -0.598083 1.45811 0
M  V30 3581 C 337.917 -1.73632 1.57763 0
M  V30 3582 C 338.933 -1.67763 0.461676 0
M  V30 3583 O 340.109 -1.87949 0.723685 0
M  V30 3584 C 337.174 -3.10114 1.55018 0
M  V30 3585 C 336.235 -3.27364 2.77726 0
M  V30 3586 C 335.468 -4.57334 2.75102 0
M  V30 3587 O 335.691 -5.40258 1.8297 0
M  V30 3588 O 334.625 -4.77502 3.66437 0
M  V30 3589 H 338.451 -1.66498 2.53992 0
M  V30 3590 H 336.036 -0.763308 1.28429 0
M  V30 3591 H 337.918 -3.9141 1.56129 0
M  V30 3592 H 336.593 -3.17718 0.619431 0
M  V30 3593 H 335.5 -2.45619 2.82174 0
M  V30 3594 H 336.833 -3.24641 3.69958 0
M  V30 3595 N 338.485 -1.33259 -0.841409 0
M  V30 3596 C 339.432 -1.23302 -1.95103 0
M  V30 3597 C 340.402 -0.112204 -1.65721 0
M  V30 3598 O 341.587 -0.290038 -1.88583 0
M  V30 3599 C 338.727 -0.975583 -3.31023 0
M  V30 3600 C 337.84 -2.18243 -3.72819 0
M  V30 3601 C 336.975 -1.85936 -4.97595 0
M  V30 3602 C 336.014 -3.02866 -5.3192 0
M  V30 3603 N 335.151 -2.70565 -6.47873 0
M  V30 3604 H 339.991 -2.18207 -2.02952 0
M  V30 3605 H 337.528 -1.0851 -0.993173 0
M  V30 3606 H 339.486 -0.80677 -4.09325 0
M  V30 3607 H 338.116 -0.0632755 -3.22738 0
M  V30 3608 H 337.168 -2.46107 -2.90061 0
M  V30 3609 H 338.48 -3.05666 -3.94169 0
M  V30 3610 H 337.634 -1.65684 -5.83638 0
M  V30 3611 H 336.373 -0.957452 -4.78209 0
M  V30 3612 H 335.378 -3.23736 -4.44382 0
M  V30 3613 H 336.603 -3.93809 -5.53255 0
M  V30 3614 H 334.549 -1.8293 -6.29978 0
M  V30 3615 H 334.466 -3.51519 -6.69306 0
M  V30 3616 H 335.734 -2.53774 -7.37034 0
M  V30 3617 N 339.963 1.05934 -1.16686 0
M  V30 3618 C 341.209 1.79065 -0.95203 0
M  V30 3619 C 341.542 1.87147 0.518629 0
M  V30 3620 O 340.817 1.36574 1.38484 0
M  V30 3621 C 341.1 3.23359 -1.58464 0
M  V30 3622 C 340.953 3.23336 -3.12689 0
M  V30 3623 C 342.272 4.21004 -1.28232 0
M  V30 3624 H 339.391 0.65005 -0.34728 0
M  V30 3625 H 342.033 1.23868 -1.44072 0
M  V30 3626 H 340.183 3.70493 -1.16908 0
M  V30 3627 H 341.855 2.84336 -3.6325 0
M  V30 3628 H 340.098 2.61886 -3.4583 0
M  V30 3629 H 340.769 4.25144 -3.52075 0
M  V30 3630 H 343.245 3.8233 -1.64203 0
M  V30 3631 H 342.121 5.20225 -1.75092 0
M  V30 3632 H 342.382 4.41639 -0.201791 0
M  V30 3633 N 341.441 0.965919 1.2453 0
M  V30 3634 C 342.351 0.502154 2.29163 0
M  V30 3635 C 343.367 -0.436017 1.68448 0
M  V30 3636 O 344.543 -0.309497 1.99008 0
M  V30 3637 C 341.608 -0.201956 3.46111 0
M  V30 3638 C 340.669 0.775821 4.22232 0
M  V30 3639 C 339.902 0.105217 5.33596 0
M  V30 3640 O 340.125 -1.10683 5.59558 0
M  V30 3641 O 339.059 0.796475 5.96607 0
M  V30 3642 H 342.885 1.37194 2.70946 0
M  V30 3643 H 340.47 0.732875 1.30189 0
M  V30 3644 H 342.352 -0.597564 4.17142 0
M  V30 3645 H 341.027 -1.04673 3.06309 0
M  V30 3646 H 339.934 1.22185 3.53584 0
M  V30 3647 H 341.267 1.58896 4.65846 0
M  V30 3648 N 342.919 -1.39368 0.735821 0
M  V30 3649 C 344.196 -1.94465 0.210395 0
M  V30 3650 C 344.576 -1.67254 -1.28799 0
M  V30 3651 O 343.924 -1.00123 -2.05396 0
M  V30 3652 C 344.134 -3.4472 0.544897 0
M  V30 3653 C 345.482 -4.21708 0.494689 0
M  V30 3654 O 346.506 -3.52922 0.482136 0
M  V30 3655 O 345.365 -5.44299 0.489947 0
M  V30 3656 H 342.459 -0.826096 0.0386666 0
M  V30 3657 H 345.005 -1.48863 0.814735 0
M  V30 3658 H 343.777 -3.57963 1.58045 0
M  V30 3659 H 343.4 -3.97502 -0.08837 0
M  V30 3660 N 344.397 -0.483516 -1.5 0
M  V30 3661 C 345.643 0.0593261 -2.03313 0
M  V30 3662 C 345.998 1.36288 -1.35806 0
M  V30 3663 O 345.291 1.85519 -0.478897 0
M  V30 3664 C 345.485 0.286226 -3.56252 0
M  V30 3665 C 345.314 -0.993788 -4.38582 0
M  V30 3666 C 344.084 -1.54064 -4.81241 0
M  V30 3667 C 346.282 -1.89249 -4.78215 0
M  V30 3668 N 344.264 -2.76838 -5.47936 0
M  V30 3669 C 345.635 -2.96606 -5.44449 0
M  V30 3670 C 347.69 -1.90138 -4.60165 0
M  V30 3671 C 346.393 -4.04857 -5.94544 0
M  V30 3672 C 348.419 -2.97353 -5.1121 0
M  V30 3673 C 347.781 -4.03429 -5.77429 0
M  V30 3674 H 343.88 -0.0186322 -0.781778 0
M  V30 3675 H 346.464 -0.654489 -1.8337 0
M  V30 3676 H 344.635 0.969086 -3.76116 0
M  V30 3677 H 346.367 0.824515 -3.96212 0
M  V30 3678 H 343.122 -1.08813 -4.6093 0
M  V30 3679 H 343.546 -3.39221 -5.85882 0
M  V30 3680 H 348.188 -1.09441 -4.0839 0
M  V30 3681 H 345.906 -4.86363 -6.4535 0
M  V30 3682 H 349.492 -2.99039 -4.99066 0
M  V30 3683 H 348.372 -4.85025 -6.16214 0
M  V30 3684 N 345.875 1.56104 -0.216619 0
M  V30 3685 C 347.1 2.0301 0.424462 0
M  V30 3686 C 347.525 1.0955 1.52907 0
M  V30 3687 O 346.883 0.0827914 1.81111 0
M  V30 3688 C 346.931 3.4819 0.937883 0
M  V30 3689 O 346.035 3.57865 2.04955 0
M  V30 3690 H 345.376 0.656925 0.0966755 0
M  V30 3691 H 347.906 2.01859 -0.33381 0
M  V30 3692 H 347.916 3.88413 1.24897 0
M  V30 3693 H 346.591 4.15699 0.129387 0
M  V30 3694 H 345.168 3.29527 1.74546 0
M  V30 3695 N 347.353 -0.0568162 1.57498 0
M  V30 3696 C 348.63 -0.786954 1.79071 0
M  V30 3697 C 349.01 -1.95028 0.80792 0
M  V30 3698 O 348.358 -2.27968 -0.155858 0
M  V30 3699 C 348.568 -1.24594 3.26002 0
M  V30 3700 C 349.916 -1.67323 3.90241 0
M  V30 3701 O 350.94 -1.34124 3.29984 0
M  V30 3702 O 349.799 -2.28842 4.9628 0
M  V30 3703 H 346.893 -0.378262 0.735423 0
M  V30 3704 H 349.439 -0.035734 1.69662 0
M  V30 3705 H 348.211 -0.41423 3.89101 0
M  V30 3706 H 347.834 -2.05803 3.40192 0
M  V30 3707 N 348.832 -1.54138 -0.328536 0
M  V30 3708 C 349.742 -1.86192 -1.42723 0
M  V30 3709 C 350.758 -0.753382 -1.56844 0
M  V30 3710 O 351.934 -1.04718 -1.72035 0
M  V30 3711 C 348.999 -2.07824 -2.77507 0
M  V30 3712 C 348.06 -3.31641 -2.72603 0
M  V30 3713 C 347.293 -3.52232 -4.00959 0
M  V30 3714 O 347.516 -2.7636 -4.9898 0
M  V30 3715 O 346.45 -4.45699 -4.0452 0
M  V30 3716 H 350.276 -2.79608 -1.18547 0
M  V30 3717 H 347.861 -1.3998 -0.522104 0
M  V30 3718 H 349.743 -2.23411 -3.57303 0
M  V30 3719 H 348.418 -1.17596 -3.01584 0
M  V30 3720 H 347.325 -3.21444 -1.91376 0
M  V30 3721 H 348.658 -4.2191 -2.53481 0
M  V30 3722 N 350.31 0.590341 -1.46126 0
M  V30 3723 C 351.726 0.912917 -1.30912 0
M  V30 3724 C 351.926 1.99616 -0.274893 0
M  V30 3725 O 350.982 2.50397 0.325197 0
M  V30 3726 C 352.295 1.3375 -2.69317 0
M  V30 3727 C 353.843 1.45077 -2.77348 0
M  V30 3728 C 354.318 1.90904 -4.16317 0
M  V30 3729 N 355.809 1.9811 -4.18696 0
M  V30 3730 C 356.544 2.34828 -5.23109 0
M  V30 3731 N 356.04 2.70393 -6.37856 0
M  V30 3732 N 357.833 2.35317 -5.10473 0
M  V30 3733 H 349.984 -0.125358 -2.1203 0
M  V30 3734 H 352.247 0.00658481 -0.947977 0
M  V30 3735 H 351.953 0.615614 -3.4627 0
M  V30 3736 H 351.827 2.30058 -2.9892 0
M  V30 3737 H 354.214 2.16353 -2.00687 0
M  V30 3738 H 354.295 0.4704 -2.51438 0
M  V30 3739 H 353.939 1.20209 -4.9347 0
M  V30 3740 H 353.869 2.89886 -4.39629 0
M  V30 3741 H 356.36 1.73146 -3.359 0
M  V30 3742 H 356.673 2.97341 -7.13308 0
M  V30 3743 H 355.018 2.68048 -6.41229 0
M  V30 3744 H 358.209 2.0695 -4.19868 0
M  V30 3745 H 358.382 2.63605 -5.9196 0
M  V30 3746 N 351.788 1.33704 0.83433 0
M  V30 3747 C 353.035 1.25417 1.58987 0
M  V30 3748 C 353.363 -0.178869 1.93676 0
M  V30 3749 O 352.618 -1.13723 1.59265 0
M  V30 3750 C 352.917 2.07926 2.90692 0
M  V30 3751 C 352.583 3.57066 2.75345 0
M  V30 3752 C 351.245 3.97724 2.70867 0
M  V30 3753 C 353.597 4.51817 2.59828 0
M  V30 3754 C 350.925 5.31344 2.48778 0
M  V30 3755 C 353.277 5.85604 2.39272 0
M  V30 3756 C 351.941 6.25439 2.33199 0
M  V30 3757 H 351.211 0.458934 0.581774 0
M  V30 3758 H 353.858 1.65335 0.966261 0
M  V30 3759 H 352.163 1.608 3.57282 0
M  V30 3760 H 353.86 1.98868 3.48213 0
M  V30 3761 H 350.45 3.24785 2.79665 0
M  V30 3762 H 354.634 4.21311 2.62319 0
M  V30 3763 H 349.89 5.61241 2.42526 0
M  V30 3764 H 354.064 6.58623 2.2625 0
M  V30 3765 H 351.691 7.28914 2.15843 0
M  V30 3766 N 353.266 -1.05314 1.17247 0
M  V30 3767 C 354.512 -1.78699 0.971513 0
M  V30 3768 C 354.867 -1.85932 -0.494692 0
M  V30 3769 O 354.16 -1.34716 -1.36243 0
M  V30 3770 C 354.354 -3.2229 1.54479 0
M  V30 3771 C 354.183 -3.29052 3.06521 0
M  V30 3772 C 352.953 -3.3841 3.75242 0
M  V30 3773 C 355.151 -3.18095 4.04129 0
M  V30 3774 N 353.133 -3.34289 5.14902 0
M  V30 3775 C 354.504 -3.21331 5.30232 0
M  V30 3776 C 356.559 -3.02049 3.95817 0
M  V30 3777 C 355.262 -3.10169 6.4899 0
M  V30 3778 C 357.288 -2.92228 5.14156 0
M  V30 3779 C 356.65 -2.96096 6.39145 0
M  V30 3780 H 352.749 -0.66628 0.409383 0
M  V30 3781 H 355.333 -1.25553 1.4881 0
M  V30 3782 H 353.504 -3.7381 1.05455 0
M  V30 3783 H 355.236 -3.83905 1.28059 0
M  V30 3784 H 351.991 -3.43621 3.25917 0
M  V30 3785 H 352.415 -3.35702 5.87906 0
M  V30 3786 H 357.057 -2.97897 3.00029 0
M  V30 3787 H 354.775 -3.13076 7.44989 0
M  V30 3788 H 358.361 -2.80885 5.09505 0
M  V30 3789 H 357.241 -2.88568 7.29176 0
M  V30 3790 N 354.744 -0.972509 -1.24016 0
M  V30 3791 C 355.972 -0.654803 -1.96265 0
M  V30 3792 C 356.387 0.776708 -1.72083 0
M  V30 3793 O 355.744 1.52171 -1.00748 0
M  V30 3794 C 355.795 -0.92592 -3.49441 0
M  V30 3795 O 355.516 -2.30116 -3.72798 0
M  V30 3796 C 357.017 -0.623068 -4.38899 0
M  V30 3797 H 354.237 -0.243907 -0.6251 0
M  V30 3798 H 356.781 -1.30175 -1.57717 0
M  V30 3799 H 354.936 -0.325108 -3.86033 0
M  V30 3800 H 355.35 -2.38483 -4.67147 0
M  V30 3801 H 356.824 -0.863189 -5.45209 0
M  V30 3802 H 357.301 0.442754 -4.36963 0
M  V30 3803 H 357.907 -1.204 -4.07902 0
M  V30 3804 N 356.222 1.38976 -0.743202 0
M  V30 3805 C 357.132 2.3434 -0.110399 0
M  V30 3806 C 358.148 1.58741 0.712559 0
M  V30 3807 O 359.324 1.9099 0.639125 0
M  V30 3808 C 356.389 3.37812 0.780012 0
M  V30 3809 C 355.45 4.29263 -0.0561319 0
M  V30 3810 C 354.683 5.27793 0.791875 0
M  V30 3811 O 354.906 5.33043 2.03031 0
M  V30 3812 O 353.84 6.01512 0.216183 0
M  V30 3813 H 357.666 2.90129 -0.897714 0
M  V30 3814 H 355.251 1.40643 -0.503966 0
M  V30 3815 H 357.133 4.01194 1.28923 0
M  V30 3816 H 355.808 2.84395 1.546 0
M  V30 3817 H 354.715 3.69076 -0.611056 0
M  V30 3818 H 356.048 4.85907 -0.784531 0
M  V30 3819 N 357.7 0.491464 1.49741 0
M  V30 3820 C 358.63 -0.28154 2.31796 0
M  V30 3821 C 359.611 -0.971473 1.3963 0
M  V30 3822 O 360.796 -0.964719 1.68543 0
M  V30 3823 C 357.926 -1.35203 3.19902 0
M  V30 3824 C 356.88 -0.782529 4.20786 0
M  V30 3825 C 356.206 -1.95283 4.97764 0
M  V30 3826 C 357.506 0.21999 5.21837 0
M  V30 3827 H 359.2 0.403355 2.96671 0
M  V30 3828 H 356.746 0.195425 1.42668 0
M  V30 3829 H 358.699 -1.90045 3.76113 0
M  V30 3830 H 357.423 -2.06598 2.52953 0
M  V30 3831 H 356.082 -0.255928 3.65706 0
M  V30 3832 H 355.73 -2.65423 4.2727 0
M  V30 3833 H 355.43 -1.57789 5.66018 0
M  V30 3834 H 356.954 -2.50577 5.56816 0
M  V30 3835 H 358.368 -0.23996 5.72798 0
M  V30 3836 H 356.765 0.51026 5.97927 0
M  V30 3837 H 357.835 1.13911 4.7133 0
M  V30 3838 N 359.178 -1.55987 0.224894 0
M  V30 3839 C 360.125 -2.20436 -0.68385 0
M  V30 3840 C 361.095 -1.16102 -1.18783 0
M  V30 3841 O 362.28 -1.4447 -1.24632 0
M  V30 3842 C 359.42 -2.89076 -1.88491 0
M  V30 3843 C 358.533 -4.08012 -1.41951 0
M  V30 3844 C 357.668 -4.64426 -2.5784 0
M  V30 3845 C 356.707 -5.75656 -2.08053 0
M  V30 3846 N 355.844 -6.26347 -3.17227 0
M  V30 3847 H 360.684 -2.97727 -0.12754 0
M  V30 3848 H 358.221 -1.47011 -0.0511978 0
M  V30 3849 H 360.179 -3.27059 -2.59014 0
M  V30 3850 H 358.809 -2.14298 -2.41405 0
M  V30 3851 H 357.861 -3.75492 -0.609095 0
M  V30 3852 H 359.173 -4.88375 -1.01447 0
M  V30 3853 H 358.327 -5.04869 -3.3644 0
M  V30 3854 H 357.066 -3.83233 -3.01635 0
M  V30 3855 H 356.071 -5.34712 -1.27916 0
M  V30 3856 H 357.296 -6.58686 -1.65255 0
M  V30 3857 H 355.242 -5.48067 -3.60497 0
M  V30 3858 H 355.159 -7.01843 -2.80986 0
M  V30 3859 H 356.427 -6.71447 -3.95953 0
M  V30 3860 N 360.656 0.0484629 -1.57525 0
M  V30 3861 C 361.619 1.03956 -2.04269 0
M  V30 3862 C 362.619 1.30211 -0.943496 0
M  V30 3863 O 363.809 1.25539 -1.20771 0
M  V30 3864 C 360.941 2.37742 -2.44319 0
M  V30 3865 H 362.134 0.636182 -2.93075 0
M  V30 3866 H 359.687 0.294811 -1.53494 0
M  V30 3867 H 360.422 2.82866 -1.5861 0
M  V30 3868 H 360.207 2.20021 -3.24551 0
M  V30 3869 H 361.697 3.08936 -2.80978 0
M  V30 3870 N 362.134 1.5431 0.320358 0
M  V30 3871 C 363.55 1.45091 0.664889 0
M  V30 3872 C 363.75 0.626382 1.91517 0
M  V30 3873 O 362.806 0.126443 2.52183 0
M  V30 3874 C 364.119 2.88848 0.83591 0
M  V30 3875 C 365.667 2.9877 0.933046 0
M  V30 3876 C 366.142 4.43683 1.13621 0
M  V30 3877 N 367.633 4.47309 1.20287 0
M  V30 3878 C 368.368 5.56595 1.37801 0
M  V30 3879 N 367.864 6.75844 1.52338 0
M  V30 3880 N 369.657 5.44248 1.40535 0
M  V30 3881 H 361.808 2.06398 -0.501374 0
M  V30 3882 H 364.071 0.933963 -0.162534 0
M  V30 3883 H 363.777 3.51698 -0.0116092 0
M  V30 3884 H 363.651 3.35148 1.73078 0
M  V30 3885 H 366.038 2.36045 1.77107 0
M  V30 3886 H 366.119 2.55796 0.0145782 0
M  V30 3887 H 365.763 5.06995 0.303032 0
M  V30 3888 H 365.693 4.84269 2.0686 0
M  V30 3889 H 368.184 3.61388 1.10485 0
M  V30 3890 H 368.497 7.54892 1.65403 0
M  V30 3891 H 366.842 6.78746 1.4943 0
M  V30 3892 H 370.033 4.50038 1.28777 0
M  V30 3893 H 370.206 6.29473 1.53842 0
M  V30 3894 N 363.613 -0.582584 1.46437 0
M  V30 3895 C 364.543 -1.70187 1.59871 0
M  V30 3896 C 365.524 -1.64066 0.449042 0
M  V30 3897 O 366.709 -1.82081 0.6753 0
M  V30 3898 C 363.839 -3.08827 1.58881 0
M  V30 3899 C 362.793 -3.29779 2.72819 0
M  V30 3900 C 362.119 -4.68947 2.5689 0
M  V30 3901 C 363.419 -3.17601 4.1464 0
M  V30 3902 H 365.113 -1.592 2.53566 0
M  V30 3903 H 362.659 -0.764472 1.22032 0
M  V30 3904 H 364.612 -3.86951 1.66873 0
M  V30 3905 H 363.336 -3.20713 0.617306 0
M  V30 3906 H 361.995 -2.54054 2.64296 0
M  V30 3907 H 361.643 -4.77599 1.57823 0
M  V30 3908 H 361.343 -4.83919 3.33312 0
M  V30 3909 H 362.867 -5.4924 2.66773 0
M  V30 3910 H 364.281 -3.8557 4.24274 0
M  V30 3911 H 362.678 -3.44094 4.9165 0
M  V30 3912 H 363.748 -2.14681 4.34788 0
M  V30 3913 N 365.091 -1.34144 -0.827227 0
M  V30 3914 C 366.502 -1.23557 -1.39966 0
M  V30 3915 C 366.853 0.140731 -1.95695 0
M  V30 3916 O 365.978 1.04087 -1.89723 0
M  V30 3917 C 366.573 -2.23708 -2.54441 0
M  V30 3918 C 365.132 -2.16924 -3.07605 0
M  V30 3919 C 364.279 -2.10549 -1.80456 0
M  V30 3920 H 367.23 -1.45573 -0.631991 0
M  V30 3921 H 367.251 -1.85157 -3.32411 0
M  V30 3922 H 366.763 -3.23866 -2.13851 0
M  V30 3923 H 364.864 -1.20107 -3.52711 0
M  V30 3924 H 364.977 -3.07988 -3.66988 0
M  V30 3925 H 363.341 -1.56203 -2.01178 0
M  V30 3926 H 364.124 -3.12535 -1.42046 0
M  V30 3927 N 366.569 1.04691 -1.17803 0
M  V30 3928 C 367.794 1.81984 -0.994813 0
M  V30 3929 C 368.219 1.82586 0.452112 0
M  V30 3930 O 367.577 1.23854 1.324 0
M  V30 3931 C 367.625 3.2575 -1.54659 0
M  V30 3932 O 366.729 4.05267 -0.763728 0
M  V30 3933 H 366.07 0.562483 -0.352857 0
M  V30 3934 H 368.6 1.3189 -1.56417 0
M  V30 3935 H 368.61 3.76541 -1.57102 0
M  V30 3936 H 367.285 3.24627 -2.59981 0
M  V30 3937 H 365.862 3.63972 -0.811108 0
M  V30 3938 N 368.047 0.979072 1.23499 0
M  V30 3939 C 368.957 0.526431 2.28617 0
M  V30 3940 C 369.973 -0.418126 1.68901 0
M  V30 3941 O 371.149 -0.288372 1.99325 0
M  V30 3942 C 368.214 -0.165235 3.46306 0
M  V30 3943 C 367.275 0.82056 4.21385 0
M  V30 3944 C 366.508 0.161807 5.33455 0
M  V30 3945 O 366.731 -1.04742 5.60701 0
M  V30 3946 O 365.665 0.859708 5.95729 0
M  V30 3947 H 369.491 1.4006 2.69475 0
M  V30 3948 H 367.076 0.746643 1.29405 0
M  V30 3949 H 368.958 -0.553287 4.17752 0
M  V30 3950 H 367.633 -1.01419 3.07402 0
M  V30 3951 H 366.54 1.25929 3.52268 0
M  V30 3952 H 367.873 1.63828 4.64135 0
M  V30 3953 N 369.525 -1.3858 0.750561 0
M  V30 3954 C 370.771 -2.00481 0.305825 0
M  V30 3955 C 371.104 -1.5944 -1.10872 0
M  V30 3956 O 370.379 -0.83052 -1.75877 0
M  V30 3957 C 370.662 -3.5758 0.425287 0
M  V30 3958 C 370.515 -4.08594 1.88072 0
M  V30 3959 C 371.834 -4.39719 -0.183122 0
M  V30 3960 H 368.953 -0.728348 0.112598 0
M  V30 3961 H 371.595 -1.64566 0.949638 0
M  V30 3962 H 369.745 -3.88306 -0.122828 0
M  V30 3963 H 371.417 -3.88523 2.48691 0
M  V30 3964 H 369.66 -3.61574 2.39681 0
M  V30 3965 H 370.331 -5.177 1.91548 0
M  V30 3966 H 372.807 -4.15128 0.284303 0
M  V30 3967 H 371.683 -5.48856 -0.0692757 0
M  V30 3968 H 371.944 -4.23434 -1.27106 0
M  V30 3969 N 371.003 -0.499398 -1.49478 0
M  V30 3970 C 371.966 0.268838 -2.27618 0
M  V30 3971 C 372.966 0.895383 -1.33565 0
M  V30 3972 O 374.156 0.760164 -1.56739 0
M  V30 3973 C 371.288 1.38559 -3.11471 0
M  V30 3974 H 372.481 -0.416812 -2.96989 0
M  V30 3975 H 370.034 -0.254313 -1.54217 0
M  V30 3976 H 370.769 2.10544 -2.46661 0
M  V30 3977 H 370.554 0.941797 -3.80621 0
M  V30 3978 H 372.044 1.92678 -3.70493 0
M  V30 3979 N 372.481 1.55866 -0.233164 0
M  V30 3980 C 373.391 2.24431 0.683217 0
M  V30 3981 C 374.407 1.2558 1.2044 0
M  V30 3982 O 375.583 1.58422 1.24356 0
M  V30 3983 C 372.648 2.91979 1.86947 0
M  V30 3984 C 371.709 4.06204 1.38912 0
M  V30 3985 C 370.942 4.70522 2.51883 0
M  V30 3986 O 371.165 4.33865 3.70293 0
M  V30 3987 O 370.099 5.59296 2.22423 0
M  V30 3988 H 373.925 3.03426 0.129059 0
M  V30 3989 H 371.51 1.494 -0.0022283 0
M  V30 3990 H 373.392 3.34573 2.56201 0
M  V30 3991 H 372.067 2.15935 2.41151 0
M  V30 3992 H 370.974 3.68155 0.664259 0
M  V30 3993 H 372.307 4.84025 0.893328 0
M  V30 3994 N 373.959 -0.0401083 1.57549 0
M  V30 3995 C 374.906 -1.04413 2.05831 0
M  V30 3996 C 375.876 -1.36585 0.945184 0
M  V30 3997 O 377.061 -1.47112 1.21502 0
M  V30 3998 C 374.201 -2.34336 2.53339 0
M  V30 3999 C 373.314 -2.08419 3.78398 0
M  V30 4000 C 372.449 -3.32133 4.14561 0
M  V30 4001 C 371.488 -3.01721 5.3257 0
M  V30 4002 N 370.625 -4.17855 5.64218 0
M  V30 4003 H 375.465 -0.625442 2.91363 0
M  V30 4004 H 373.002 -0.297218 1.44066 0
M  V30 4005 H 374.96 -3.10234 2.78946 0
M  V30 4006 H 373.59 -2.73948 1.7074 0
M  V30 4007 H 372.642 -1.23069 3.59942 0
M  V30 4008 H 373.954 -1.81978 4.64419 0
M  V30 4009 H 373.108 -4.16406 4.41238 0
M  V30 4010 H 371.847 -3.61678 3.2717 0
M  V30 4011 H 370.852 -2.15849 5.05657 0
M  V30 4012 H 372.077 -2.73466 6.21605 0
M  V30 4013 H 370.023 -4.47372 4.79786 0
M  V30 4014 H 369.94 -3.94798 6.44725 0
M  V30 4015 H 371.208 -5.03033 5.95465 0
M  V30 4016 N 375.437 -1.54477 -0.31217 0
M  V30 4017 C 376.367 -1.87652 -1.38957 0
M  V30 4018 C 377.348 -0.734358 -1.53431 0
M  V30 4019 O 378.533 -0.98911 -1.67123 0
M  V30 4020 C 375.663 -2.11396 -2.75552 0
M  V30 4021 C 374.617 -3.27243 -2.75855 0
M  V30 4022 C 373.943 -3.36382 -4.15633 0
M  V30 4023 C 375.243 -4.64622 -2.38587 0
M  V30 4024 H 376.937 -2.77887 -1.11442 0
M  V30 4025 H 374.483 -1.33707 -0.534655 0
M  V30 4026 H 376.436 -2.33189 -3.51 0
M  V30 4027 H 375.16 -1.17921 -3.04569 0
M  V30 4028 H 373.819 -3.05356 -2.02863 0
M  V30 4029 H 373.467 -2.40445 -4.41809 0
M  V30 4030 H 373.167 -4.14249 -4.1674 0
M  V30 4031 H 374.691 -3.60422 -4.92877 0
M  V30 4032 H 376.105 -4.86219 -3.03749 0
M  V30 4033 H 374.502 -5.45121 -2.50925 0
M  V30 4034 H 375.572 -4.66097 -1.33723 0
M  V30 4035 N 376.915 0.57481 -1.46744 0
M  V30 4036 C 378.161 1.3347 -1.52688 0
M  V30 4037 C 378.494 1.93353 -0.181229 0
M  V30 4038 O 377.769 1.76912 0.808237 0
M  V30 4039 C 378.052 2.45811 -2.63152 0
M  V30 4040 C 377.905 1.90912 -4.07275 0
M  V30 4041 C 379.224 3.47822 -2.69644 0
M  V30 4042 H 376.343 0.483935 -0.555856 0
M  V30 4043 H 378.985 0.644968 -1.78718 0
M  V30 4044 H 377.135 3.04646 -2.41088 0
M  V30 4045 H 378.807 1.36473 -4.4065 0
M  V30 4046 H 377.05 1.21691 -4.16382 0
M  V30 4047 H 377.721 2.72042 -4.80309 0
M  V30 4048 H 380.197 2.9888 -2.895 0
M  V30 4049 H 379.073 4.23876 -3.48742 0
M  V30 4050 H 379.334 4.05555 -1.76005 0
M  V30 4051 N 378.394 1.34581 0.820102 0
M  V30 4052 C 379.622 1.3018 1.60813 0
M  V30 4053 C 380.037 -0.123551 1.88395 0
M  V30 4054 O 379.394 -1.07148 1.47735 0
M  V30 4055 C 379.445 2.09312 2.94739 0
M  V30 4056 O 379.166 3.46288 2.68358 0
M  V30 4057 C 380.667 2.1234 3.89136 0
M  V30 4058 H 377.887 0.447726 0.499782 0
M  V30 4059 H 380.431 1.77237 1.02017 0
M  V30 4060 H 378.586 1.65889 3.50085 0
M  V30 4061 H 379 3.87227 3.53774 0
M  V30 4062 H 380.474 2.72126 4.80262 0
M  V30 4063 H 380.951 1.11854 4.24718 0
M  V30 4064 H 381.557 2.55864 3.39726 0
M  V30 4065 N 379.872 -1.04064 1.18357 0
M  V30 4066 C 381.12 -1.76915 0.977013 0
M  V30 4067 C 381.441 -1.88624 -0.494577 0
M  V30 4068 O 380.711 -1.41125 -1.3587 0
M  V30 4069 H 379.291 -0.65535 0.358504 0
M  V30 4070 H 381.953 -1.25592 1.49039 0
M  V30 4071 H 381.049 -2.78178 1.41504 0
M  V30 4072 N 381.35 -0.985608 -1.22978 0
M  V30 4073 C 382.761 -0.693593 -1.73338 0
M  V30 4074 C 383.112 0.789935 -1.79595 0
M  V30 4075 O 382.237 1.61771 -1.43733 0
M  V30 4076 C 382.832 -1.25235 -3.14804 0
M  V30 4077 C 381.391 -1.00987 -3.626 0
M  V30 4078 C 380.538 -1.37695 -2.40698 0
M  V30 4079 H 383.489 -1.15884 -1.08428 0
M  V30 4080 H 383.51 -0.627329 -3.75293 0
M  V30 4081 H 383.022 -2.33209 -3.10218 0
M  V30 4082 H 381.123 0.0535565 -3.72562 0
M  V30 4083 H 381.236 -1.66812 -4.49122 0
M  V30 4084 H 379.6 -0.795459 -2.4196 0
M  V30 4085 H 380.383 -2.46657 -2.38779 0
M  V30 4086 N 382.828 1.3818 -0.7579 0
M  V30 4087 C 384.053 2.04827 -0.325679 0
M  V30 4088 C 384.478 1.56788 1.03919 0
M  V30 4089 O 383.836 0.721811 1.66312 0
M  V30 4090 C 383.884 3.58774 -0.362447 0
M  V30 4091 O 382.988 4.07372 0.642033 0
M  V30 4092 H 382.329 0.64833 -0.143402 0
M  V30 4093 H 384.859 1.7677 -1.03023 0
M  V30 4094 H 384.869 4.07434 -0.214844 0
M  V30 4095 H 383.544 3.93096 -1.35824 0
M  V30 4096 H 382.121 3.70068 0.458688 0
M  V30 4097 N 384.306 0.507319 1.49211 0
M  V30 4098 C 385.236 -0.256939 2.32082 0
M  V30 4099 C 386.217 -0.956609 1.40652 0
M  V30 4100 O 387.402 -0.946788 1.69557 0
M  V30 4101 C 384.532 -1.31802 3.21318 0
M  V30 4102 C 383.486 -0.737855 4.21592 0
M  V30 4103 C 382.812 -1.89992 4.99807 0
M  V30 4104 C 384.112 0.275325 5.21574 0
M  V30 4105 H 385.806 0.434798 2.96226 0
M  V30 4106 H 383.352 0.210546 1.42452 0
M  V30 4107 H 385.305 -1.86045 3.78107 0
M  V30 4108 H 384.029 -2.03903 2.5513 0
M  V30 4109 H 382.688 -0.217126 3.65956 0
M  V30 4110 H 382.336 -2.60877 4.30061 0
M  V30 4111 H 382.036 -1.51777 5.6766 0
M  V30 4112 H 383.56 -2.44657 5.59442 0
M  V30 4113 H 384.974 -0.179193 5.7302 0
M  V30 4114 H 383.371 0.573649 5.97352 0
M  V30 4115 H 384.441 1.18903 4.70096 0
M  V30 4116 N 385.784 -1.5574 0.241426 0
M  V30 4117 C 386.694 -2.2479 -0.671305 0
M  V30 4118 C 387.71 -1.26217 -1.19772 0
M  V30 4119 O 388.886 -1.59079 -1.23514 0
M  V30 4120 C 385.951 -2.92966 -1.85396 0
M  V30 4121 C 385.012 -4.06935 -1.36756 0
M  V30 4122 C 384.245 -4.71851 -2.49384 0
M  V30 4123 O 384.468 -4.35823 -3.67987 0
M  V30 4124 O 383.402 -5.60467 -2.19454 0
M  V30 4125 H 387.228 -3.0349 -0.112966 0
M  V30 4126 H 384.813 -1.49397 0.0101513 0
M  V30 4127 H 386.695 -3.35927 -2.54423 0
M  V30 4128 H 385.37 -2.17211 -2.40002 0
M  V30 4129 H 384.277 -3.68503 -0.644726 0
M  V30 4130 H 385.61 -4.84492 -0.867647 0
M  V30 4131 N 387.262 0.0317525 -1.57568 0
M  V30 4132 C 388.209 1.0332 -2.06382 0
M  V30 4133 C 389.179 1.36082 -0.952414 0
M  V30 4134 O 390.364 1.46466 -1.2228 0
M  V30 4135 C 387.504 2.32989 -2.54578 0
M  V30 4136 C 386.617 2.0641 -3.79498 0
M  V30 4137 C 385.752 3.2993 -4.16317 0
M  V30 4138 C 384.791 2.98893 -5.34162 0
M  V30 4139 N 383.928 4.14857 -5.66426 0
M  V30 4140 H 388.768 0.609982 -2.9169 0
M  V30 4141 H 386.305 0.289573 -1.44222 0
M  V30 4142 H 388.263 3.0875 -2.80587 0
M  V30 4143 H 386.893 2.73039 -1.7219 0
M  V30 4144 H 385.945 1.21158 -3.6059 0
M  V30 4145 H 387.257 1.79513 -4.65378 0
M  V30 4146 H 386.411 4.1406 -4.4344 0
M  V30 4147 H 385.15 3.59938 -3.29083 0
M  V30 4148 H 384.155 2.13164 -5.06795 0
M  V30 4149 H 385.38 2.70165 -6.23047 0
M  V30 4150 H 383.326 4.44821 -4.82151 0
M  V30 4151 H 383.243 3.91374 -6.4681 0
M  V30 4152 H 384.511 4.99868 -5.98124 0
M  V30 4153 N 388.74 1.54641 0.303973 0
M  V30 4154 C 389.965 1.78092 1.06292 0
M  V30 4155 C 390.39 0.537342 1.80262 0
M  V30 4156 O 389.748 -0.511993 1.7392 0
M  V30 4157 C 389.796 2.98612 2.02147 0
M  V30 4158 O 388.9 2.71528 3.10397 0
M  V30 4159 H 388.241 0.589548 0.305497 0
M  V30 4160 H 390.771 2.01716 0.3423 0
M  V30 4161 H 390.781 3.265 2.44667 0
M  V30 4162 H 389.456 3.88785 1.47714 0
M  V30 4163 H 388.033 2.54648 2.72413 0
M  V30 4164 N 390.218 -0.567019 1.47046 0
M  V30 4165 C 391.467 -1.32091 1.5243 0
M  V30 4166 C 391.78 -1.94704 0.187021 0
M  V30 4167 O 392.986 -2.7124 0.118771 0
M  V30 4168 C 391.442 -2.39479 2.68659 0
M  V30 4169 C 391.05 -1.831 4.08874 0
M  V30 4170 C 392.794 -3.16111 2.83327 0
M  V30 4171 C 390.701 -2.8821 5.16419 0
M  V30 4172 H 389.631 -0.496629 0.56734 0
M  V30 4173 H 392.282 -0.603354 1.73297 0
M  V30 4174 H 390.664 -3.14105 2.41152 0
M  V30 4175 H 391.838 -1.14913 4.46242 0
M  V30 4176 H 390.153 -1.19085 3.99008 0
M  V30 4177 H 392.75 -3.94585 3.60842 0
M  V30 4178 H 393.093 -3.69686 1.91411 0
M  V30 4179 H 393.626 -2.48595 3.10556 0
M  V30 4180 H 390.365 -2.39504 6.10179 0
M  V30 4181 H 389.885 -3.54839 4.8358 0
M  V30 4182 H 391.564 -3.51881 5.42945 0
M  V30 4183 N 391.696 -1.35014 -0.812953 0
M  V30 4184 C 392.659 -1.27292 -1.90602 0
M  V30 4185 C 393.659 -0.185817 -1.59723 0
M  V30 4186 O 394.849 -0.439102 -1.68575 0
M  V30 4187 C 391.981 -0.967676 -3.26877 0
M  V30 4188 H 393.174 -2.24479 -1.9887 0
M  V30 4189 H 390.727 -1.19446 -1.00808 0
M  V30 4190 H 391.462 0.0005954 -3.243 0
M  V30 4191 H 391.247 -1.75412 -3.50675 0
M  V30 4192 H 392.737 -0.939085 -4.06904 0
M  V30 4193 N 393.175 1.03435 -1.18907 0
M  V30 4194 C 394.586 1.58195 -0.991523 0
M  V30 4195 C 394.937 1.90801 0.457081 0
M  V30 4196 O 394.062 1.70272 1.33553 0
M  V30 4197 C 394.657 2.87432 -1.79355 0
M  V30 4198 C 393.216 3.38785 -1.64017 0
M  V30 4199 C 392.363 2.12292 -1.78402 0
M  V30 4200 H 395.314 0.860299 -1.33359 0
M  V30 4201 H 395.335 3.58096 -1.28638 0
M  V30 4202 H 394.847 2.63669 -2.84781 0
M  V30 4203 H 392.948 3.67547 -0.611536 0
M  V30 4204 H 393.061 4.12186 -2.44212 0
M  V30 4205 H 391.425 2.23901 -1.2141 0
M  V30 4206 H 392.208 1.90977 -2.85277 0
M  V30 4207 N 394.653 0.992116 1.22453 0
M  V30 4208 C 395.583 0.561677 2.26644 0
M  V30 4209 C 396.564 -0.411055 1.65059 0
M  V30 4210 O 397.749 -0.301861 1.9184 0
M  V30 4211 C 394.879 -0.125247 3.47074 0
M  V30 4212 C 393.833 0.765948 4.21091 0
M  V30 4213 C 393.159 -0.0538484 5.34673 0
M  V30 4214 C 394.459 2.06242 4.79856 0
M  V30 4215 H 396.153 1.43259 2.62902 0
M  V30 4216 H 393.699 0.690283 1.26377 0
M  V30 4217 H 395.652 -0.437764 4.1912 0
M  V30 4218 H 394.376 -1.03069 3.0991 0
M  V30 4219 H 393.035 1.0621 3.50878 0
M  V30 4220 H 392.683 -0.960188 4.9375 0
M  V30 4221 H 392.383 0.539415 5.85119 0
M  V30 4222 H 393.907 -0.360477 6.09535 0
M  V30 4223 H 395.321 1.8139 5.43848 0
M  V30 4224 H 393.718 2.60444 5.40638 0
M  V30 4225 H 394.788 2.74167 3.99951 0
M  V30 4226 N 396.131 -1.37776 0.765217 0
M  V30 4227 C 397.547 -1.53297 0.444108 0
M  V30 4228 C 397.747 -1.72515 -1.04119 0
M  V30 4229 O 396.803 -1.74278 -1.82711 0
M  V30 4230 C 398.116 -2.73328 1.25349 0
M  V30 4231 C 399.664 -2.87185 1.24473 0
M  V30 4232 C 400.139 -4.10191 2.03733 0
M  V30 4233 N 401.63 -4.17291 2.01053 0
M  V30 4234 C 402.365 -5.11488 2.59166 0
M  V30 4235 N 401.861 -6.11285 3.26041 0
M  V30 4236 N 403.654 -5.03924 2.49032 0
M  V30 4237 H 395.805 -1.23552 1.72768 0
M  V30 4238 H 398.068 -0.601103 0.733062 0
M  V30 4239 H 397.774 -2.6557 2.30577 0
M  V30 4240 H 397.648 -3.66834 0.87823 0
M  V30 4241 H 400.035 -2.94418 0.20047 0
M  V30 4242 H 400.116 -1.94657 1.65959 0
M  V30 4243 H 399.76 -4.0372 3.08176 0
M  V30 4244 H 399.69 -5.01821 1.59633 0
M  V30 4245 H 402.181 -3.45825 1.5236 0
M  V30 4246 H 402.494 -6.79678 3.67774 0
M  V30 4247 H 400.839 -6.11583 3.30138 0
M  V30 4248 H 404.03 -4.24902 1.96407 0
M  V30 4249 H 404.203 -5.77152 2.94617 0
M  V30 4250 N 397.609 -0.515225 -1.4894 0
M  V30 4251 C 398.834 0.022727 -2.07388 0
M  V30 4252 C 399.259 1.2876 -1.37122 0
M  V30 4253 O 398.617 1.76067 -0.432431 0
M  V30 4254 C 398.665 0.244869 -3.59768 0
M  V30 4255 O 397.769 1.31667 -3.90817 0
M  V30 4256 H 397.11 -0.0325506 -0.663202 0
M  V30 4257 H 399.64 -0.718918 -1.91553 0
M  V30 4258 H 399.65 0.47205 -4.0526 0
M  V30 4259 H 398.325 -0.679194 -4.10317 0
M  V30 4260 H 396.902 1.07331 -3.5712 0
M  V30 4261 N 399.087 1.5561 -0.249682 0
M  V30 4262 C 400.334 1.99011 0.374287 0
M  V30 4263 C 400.662 1.13785 1.57744 0
M  V30 4264 O 399.917 0.189326 1.94782 0
M  V30 4265 C 400.216 3.4775 0.824887 0
M  V30 4266 C 399.882 4.50086 -0.270819 0
M  V30 4267 C 398.544 4.77791 -0.571746 0
M  V30 4268 C 400.896 5.11312 -1.01041 0
M  V30 4269 C 398.224 5.63997 -1.61629 0
M  V30 4270 C 400.576 5.98651 -2.0445 0
M  V30 4271 C 399.24 6.24688 -2.35204 0
M  V30 4272 H 398.51 0.728233 0.136961 0
M  V30 4273 H 401.157 1.88122 -0.358087 0
M  V30 4274 H 399.462 3.55985 1.63651 0
M  V30 4275 H 401.159 3.78721 1.31799 0
M  V30 4276 H 397.749 4.28592 -0.026136 0
M  V30 4277 H 401.933 4.89953 -0.791177 0
M  V30 4278 H 397.189 5.82425 -1.85988 0
M  V30 4279 H 401.363 6.45135 -2.62248 0
M  V30 4280 H 398.99 6.91281 -3.16282 0
M  V30 4281 N 400.565 -0.0233959 1.57583 0
M  V30 4282 C 401.811 -0.714119 1.89811 0
M  V30 4283 C 402.144 -1.74702 0.848113 0
M  V30 4284 O 401.419 -1.94023 -0.136135 0
M  V30 4285 C 401.702 -1.37853 3.32669 0
M  V30 4286 C 401.555 -0.358764 4.48367 0
M  V30 4287 C 402.874 -2.31101 3.7454 0
M  V30 4288 H 399.993 -0.25814 0.690314 0
M  V30 4289 H 402.635 0.0230927 1.89986 0
M  V30 4290 H 400.785 -2.00689 3.3265 0
M  V30 4291 H 402.457 0.268115 4.6052 0
M  V30 4292 H 400.7 0.321387 4.32608 0
M  V30 4293 H 401.371 -0.862242 5.45224 0
M  V30 4294 H 403.847 -1.78304 3.75961 0
M  V30 4295 H 402.723 -2.74567 4.75294 0
M  V30 4296 H 402.984 -3.18018 3.0711 0
M  V30 4297 N 402.043 -1.548 -0.295768 0
M  V30 4298 C 403.289 -1.74588 -1.03184 0
M  V30 4299 C 403.622 -0.532962 -1.86744 0
M  V30 4300 O 402.897 0.469872 -1.88739 0
M  V30 4301 C 403.18 -3.03791 -1.93347 0
M  V30 4302 C 403.033 -4.35392 -1.12933 0
M  V30 4303 C 404.352 -3.28892 -2.92435 0
M  V30 4304 H 401.471 -0.635221 -0.373715 0
M  V30 4305 H 404.113 -1.87519 -0.30606 0
M  V30 4306 H 402.263 -2.92898 -2.55232 0
M  V30 4307 H 403.935 -4.58211 -0.532943 0
M  V30 4308 H 402.178 -4.31642 -0.432168 0
M  V30 4309 H 402.849 -5.22074 -1.79284 0
M  V30 4310 H 405.325 -3.39429 -2.4068 0
M  V30 4311 H 404.201 -4.20603 -3.52682 0
M  V30 4312 H 404.462 -2.47437 -3.6637 0
M  V30 4313 N 403.521 0.559213 -1.47345 0
M  V30 4314 C 404.431 1.69388 -1.62311 0
M  V30 4315 C 405.447 1.6648 -0.505993 0
M  V30 4316 O 406.623 1.85964 -0.773262 0
M  V30 4317 C 403.688 3.05894 -1.63185 0
M  V30 4318 C 402.749 3.19885 -2.86307 0
M  V30 4319 C 401.982 4.49879 -2.87131 0
M  V30 4320 O 402.205 5.35217 -1.97229 0
M  V30 4321 O 401.139 4.67618 -3.78968 0
M  V30 4322 H 404.965 1.59706 -2.58317 0
M  V30 4323 H 402.55 0.728989 -1.30407 0
M  V30 4324 H 404.432 3.87133 -1.66451 0
M  V30 4325 H 403.107 3.15964 -0.70345 0
M  V30 4326 H 402.014 2.38052 -2.88587 0
M  V30 4327 H 403.347 3.14718 -3.78435 0
M  V30 4328 N 404.999 1.35443 0.805782 0
M  V30 4329 C 406.41 1.25768 1.37983 0
M  V30 4330 C 406.761 -0.10958 1.95894 0
M  V30 4331 O 405.886 -1.01056 1.91355 0
M  V30 4332 C 406.481 2.27727 2.5085 0
M  V30 4333 C 405.04 2.2179 3.04115 0
M  V30 4334 C 404.187 2.13393 1.77084 0
M  V30 4335 H 407.138 1.4656 0.608752 0
M  V30 4336 H 407.159 1.90422 3.29424 0
M  V30 4337 H 406.671 3.27227 2.08671 0
M  V30 4338 H 404.772 1.25703 3.50756 0
M  V30 4339 H 404.885 3.13788 3.62042 0
M  V30 4340 H 403.249 1.59384 1.98668 0
M  V30 4341 H 404.032 3.14755 1.37056 0
M  V30 4342 N 406.477 -1.02803 1.19454 0
M  V30 4343 C 407.41 -2.107 0.876396 0
M  V30 4344 C 408.388 -1.61741 -0.166897 0
M  V30 4345 O 409.572 -1.88451 -0.0430195 0
M  V30 4346 C 406.699 -3.37262 0.311758 0
M  V30 4347 C 405.745 -4.05093 1.33424 0
M  V30 4348 S 406.578 -4.50498 2.89503 0
M  V30 4349 C 407.734 -5.80277 2.34584 0
M  V30 4350 H 407.967 -2.37362 1.79016 0
M  V30 4351 H 405.5 -1.15755 1.02177 0
M  V30 4352 H 407.458 -4.10499 -0.00748752 0
M  V30 4353 H 406.119 -3.08693 -0.58032 0
M  V30 4354 H 405.312 -4.9611 0.888302 0
M  V30 4355 H 404.914 -3.3803 1.60037 0
M  V30 4356 H 407.206 -6.54873 1.73633 0
M  V30 4357 H 408.149 -6.29651 3.23952 0
M  V30 4358 H 408.557 -5.3599 1.77131 0
M  V30 4359 N 407.956 -0.998596 -1.21925 0
M  V30 4360 C 408.888 -0.511879 -2.23411 0
M  V30 4361 C 409.901 0.396094 -1.57908 0
M  V30 4362 O 411.09 0.197316 -1.77406 0
M  V30 4363 C 408.19 0.276802 -3.37768 0
M  V30 4364 C 407.363 -0.628687 -4.32858 0
M  V30 4365 C 406.422 0.109272 -5.26087 0
M  V30 4366 O 405.448 -0.507237 -5.66935 0
M  V30 4367 N 406.65 1.38983 -5.63617 0
M  V30 4368 H 409.415 -1.38457 -2.658 0
M  V30 4369 H 406.976 -0.873981 -1.36283 0
M  V30 4370 H 408.968 0.77928 -3.97126 0
M  V30 4371 H 407.538 1.05063 -2.94415 0
M  V30 4372 H 406.758 -1.31175 -3.71735 0
M  V30 4373 H 408.046 -1.24514 -4.93329 0
M  V30 4374 H 407.444 1.91194 -5.32411 0
M  V30 4375 H 406.001 1.83739 -6.25367 0
M  V30 4376 N 409.434 1.37368 -0.772513 0
M  V30 4377 C 410.384 2.27613 -0.132823 0
M  V30 4378 C 411.368 1.46138 0.673247 0
M  V30 4379 O 412.56 1.68686 0.536095 0
M  V30 4380 C 409.689 3.35122 0.744864 0
M  V30 4381 C 408.775 4.24044 -0.0690771 0
M  V30 4382 N 409.166 4.93355 -1.1151 0
M  V30 4383 C 407.464 4.45731 0.154782 0
M  V30 4384 C 408.165 5.59 -1.60917 0
M  V30 4385 N 407.141 5.35737 -0.921222 0
M  V30 4386 H 410.943 2.78675 -0.933681 0
M  V30 4387 H 408.457 1.50494 -0.610342 0
M  V30 4388 H 410.454 3.98683 1.21892 0
M  V30 4389 H 409.114 2.85616 1.54446 0
M  V30 4390 H 410.125 4.95785 -1.49726 0
M  V30 4391 H 406.802 4.07096 0.926224 0
M  V30 4392 H 408.192 6.24395 -2.48153 0
M  V30 4393 N 410.912 0.523116 1.48665 0
M  V30 4394 C 412.16 -0.0134497 2.02096 0
M  V30 4395 C 412.481 -1.35418 1.40311 0
M  V30 4396 O 411.751 -1.87543 0.566074 0
M  V30 4397 H 410.331 -0.00795915 0.746958 0
M  V30 4398 H 412.993 0.685388 1.82451 0
M  V30 4399 H 412.089 -0.126849 3.11842 0
M  V30 4400 N 412.39 -1.55475 0.257931 0
M  V30 4401 C 413.806 -1.59307 -0.0966563 0
M  V30 4402 C 414.006 -1.27514 -1.5602 0
M  V30 4403 O 413.062 -1.02774 -2.30637 0
M  V30 4404 C 414.375 -2.99552 0.262481 0
M  V30 4405 C 415.923 -3.1231 0.207683 0
M  V30 4406 C 416.398 -4.54793 0.541012 0
M  V30 4407 N 417.889 -4.6058 0.491921 0
M  V30 4408 C 418.624 -5.68825 0.722857 0
M  V30 4409 N 418.12 -6.85287 1.0175 0
M  V30 4410 N 419.913 -5.58296 0.652815 0
M  V30 4411 H 412.064 -1.74409 1.21224 0
M  V30 4412 H 414.327 -0.812424 0.48854 0
M  V30 4413 H 414.033 -3.27593 1.27967 0
M  V30 4414 H 413.907 -3.75019 -0.40508 0
M  V30 4415 H 416.294 -2.84044 -0.800195 0
M  V30 4416 H 416.375 -2.39095 0.909255 0
M  V30 4417 H 416.019 -4.83783 1.5465 0
M  V30 4418 H 415.949 -5.26285 -0.18216 0
M  V30 4419 H 418.44 -3.7691 0.273366 0
M  V30 4420 H 418.753 -7.63725 1.18084 0
M  V30 4421 H 417.098 -6.86945 1.05509 0
M  V30 4422 H 420.289 -4.66189 0.422592 0
M  V30 4423 H 420.462 -6.42582 0.836182 0
M  V30 4424 N 413.868 0.0150385 -1.57593 0
M  V30 4425 C 414.798 1.01047 -2.10503 0
M  V30 4426 C 415.779 1.36816 -1.01071 0
M  V30 4427 O 416.964 1.45455 -1.28672 0
M  V30 4428 C 414.094 2.30708 -2.59598 0
M  V30 4429 C 413.048 2.09142 -3.73421 0
M  V30 4430 C 412.374 3.44685 -4.08774 0
M  V30 4431 C 413.674 1.46619 -5.01298 0
M  V30 4432 H 415.368 0.569978 -2.93925 0
M  V30 4433 H 412.914 0.272724 -1.41394 0
M  V30 4434 H 414.867 3.00687 -2.95238 0
M  V30 4435 H 413.591 2.76843 -1.73279 0
M  V30 4436 H 412.25 1.41592 -3.38153 0
M  V30 4437 H 411.898 3.88495 -3.195 0
M  V30 4438 H 411.598 3.31077 -4.8545 0
M  V30 4439 H 413.122 4.16004 -4.4696 0
M  V30 4440 H 414.536 2.06535 -5.34805 0
M  V30 4441 H 412.933 1.43544 -5.82679 0
M  V30 4442 H 414.003 0.433611 -4.82957 0
M  V30 4443 N 415.346 1.54954 0.287554 0
M  V30 4444 C 416.593 1.74873 1.02106 0
M  V30 4445 C 416.921 0.541829 1.86801 0
M  V30 4446 O 416.176 -0.475992 1.89823 0
M  V30 4447 C 416.475 2.99833 1.94512 0
M  V30 4448 C 416.141 4.33029 1.25686 0
M  V30 4449 C 414.803 4.69233 1.06649 0
M  V30 4450 C 417.155 5.15542 0.765913 0
M  V30 4451 C 414.483 5.85518 0.372222 0
M  V30 4452 C 416.835 6.32542 0.0853101 0
M  V30 4453 C 415.499 6.67398 -0.1169 0
M  V30 4454 H 414.769 0.639906 0.373632 0
M  V30 4455 H 417.416 1.89219 0.294665 0
M  V30 4456 H 415.721 2.80325 2.73725 0
M  V30 4457 H 417.418 3.1244 2.51361 0
M  V30 4458 H 414.008 4.04564 1.41512 0
M  V30 4459 H 418.192 4.88059 0.90066 0
M  V30 4460 H 413.448 6.11057 0.204695 0
M  V30 4461 H 417.622 6.95741 -0.302936 0
M  V30 4462 H 415.249 7.57357 -0.656859 0
M  V30 4463 N 416.824 -0.551391 1.4764 0
M  V30 4464 C 417.754 -1.66757 1.63445 0
M  V30 4465 C 418.735 -1.63077 0.483742 0
M  V30 4466 O 419.92 -1.80607 0.71377 0
M  V30 4467 C 417.05 -3.05387 1.65396 0
M  V30 4468 C 416.004 -3.23918 2.79752 0
M  V30 4469 C 415.33 -4.63393 2.66779 0
M  V30 4470 C 416.63 -3.08735 4.21284 0
M  V30 4471 H 418.324 -1.53786 2.56886 0
M  V30 4472 H 415.87 -0.738415 1.23626 0
M  V30 4473 H 417.823 -3.83325 1.75043 0
M  V30 4474 H 416.547 -3.19332 0.685195 0
M  V30 4475 H 415.206 -2.48391 2.69625 0
M  V30 4476 H 414.854 -4.74144 1.67918 0
M  V30 4477 H 414.554 -4.7674 3.43501 0
M  V30 4478 H 416.078 -5.43458 2.78364 0
M  V30 4479 H 417.492 -3.76484 4.32357 0
M  V30 4480 H 415.889 -3.33588 4.98838 0
M  V30 4481 H 416.959 -2.0541 4.39243 0
M  V30 4482 N 418.302 -1.35869 -0.798587 0
M  V30 4483 C 419.265 -1.29307 -1.89242 0
M  V30 4484 C 420.265 -0.202747 -1.59517 0
M  V30 4485 O 421.455 -0.456957 -1.681 0
M  V30 4486 C 418.587 -1.00229 -3.25833 0
M  V30 4487 H 419.78 -2.26576 -1.96478 0
M  V30 4488 H 417.333 -1.20509 -0.995358 0
M  V30 4489 H 418.068 -0.033801 -3.24282 0
M  V30 4490 H 417.853 -1.79121 -3.48795 0
M  V30 4491 H 419.343 -0.98219 -4.05885 0
M  V30 4492 N 419.78 1.02168 -1.19998 0
M  V30 4493 C 421.028 1.75338 -1.00504 0
M  V30 4494 C 421.349 1.89387 0.464506 0
M  V30 4495 O 420.619 1.43268 1.33608 0
M  V30 4496 H 419.199 0.649564 -0.368885 0
M  V30 4497 H 421.861 1.23205 -1.51018 0
M  V30 4498 H 420.957 2.75892 -1.45912 0
M  V30 4499 N 421.258 1.00505 1.21394 0
M  V30 4500 C 422.535 0.603277 1.86064 0
M  V30 4501 C 422.915 -0.919095 1.90042 0
M  V30 4502 O 422.263 -1.80607 1.39977 0
M  V30 4503 C 422.473 1.23772 3.26315 0
M  V30 4504 C 423.821 1.34586 4.02705 0
M  V30 4505 O 424.845 1.19304 3.35626 0
M  V30 4506 O 423.704 1.59169 5.22807 0
M  V30 4507 H 420.798 0.206634 0.800769 0
M  V30 4508 H 423.344 1.1017 1.29076 0
M  V30 4509 H 422.116 2.27848 3.18121 0
M  V30 4510 H 421.739 0.725648 3.90922 0
M  V30 4511 N 422.737 -1.36956 0.779787 0
M  V30 4512 C 423.7 -2.2851 0.177662 0
M  V30 4513 C 424.7 -1.48393 -0.619377 0
M  V30 4514 O 425.89 -1.68505 -0.441785 0
M  V30 4515 C 423.022 -3.32428 -0.755279 0
M  V30 4516 H 424.215 -2.83269 0.984823 0
M  V30 4517 H 421.768 -1.46358 0.548544 0
M  V30 4518 H 422.503 -2.82808 -1.58714 0
M  V30 4519 H 422.288 -3.91659 -0.185817 0
M  V30 4520 H 423.778 -4.00824 -1.17174 0
M  V30 4521 N 424.215 -0.530993 -1.48385 0
M  V30 4522 C 425.178 0.220497 -2.28137 0
M  V30 4523 C 426.178 0.866851 -1.35434 0
M  V30 4524 O 427.368 0.726746 -1.58316 0
M  V30 4525 C 424.5 1.31921 -3.1434 0
M  V30 4526 H 425.693 -0.479714 -2.96038 0
M  V30 4527 H 423.246 -0.286968 -1.53643 0
M  V30 4528 H 423.981 2.05264 -2.51072 0
M  V30 4529 H 423.766 0.86085 -3.82533 0
M  V30 4530 H 425.256 1.84776 -3.74497 0
M  V30 4531 N 425.693 1.55336 -0.266172 0
M  V30 4532 C 426.643 2.18848 0.639497 0
M  V30 4533 C 427.627 1.1503 1.12503 0
M  V30 4534 O 428.819 1.40875 1.0716 0
M  V30 4535 C 425.948 2.90626 1.82733 0
M  V30 4536 C 425.034 4.01723 1.35939 0
M  V30 4537 N 425.425 5.02145 0.606988 0
M  V30 4538 C 423.723 4.1463 1.6431 0
M  V30 4539 C 424.424 5.80572 0.362138 0
M  V30 4540 N 423.4 5.35551 0.931971 0
M  V30 4541 H 427.202 2.93845 0.0567057 0
M  V30 4542 H 424.716 1.62252 -0.0693312 0
M  V30 4543 H 426.713 3.34569 2.48735 0
M  V30 4544 H 425.373 2.17137 2.41416 0
M  V30 4545 H 426.384 5.17271 0.255198 0
M  V30 4546 H 423.061 3.52326 2.23993 0
M  V30 4547 H 424.451 6.71472 -0.239848 0
M  V30 4548 N 427.171 -0.0066808 1.57599 0
M  V30 4549 C 428.42 -0.692078 1.89455 0
M  V30 4550 C 428.733 -1.75306 0.867586 0
M  V30 4551 O 429.939 -2.49262 1.07614 0
M  V30 4552 C 428.395 -1.2821 3.36289 0
M  V30 4553 C 428.003 -0.256291 4.47266 0
M  V30 4554 C 429.747 -1.94608 3.77264 0
M  V30 4555 C 427.654 -0.855927 5.85173 0
M  V30 4556 H 426.584 -0.262252 0.706923 0
M  V30 4557 H 429.235 0.052769 1.83424 0
M  V30 4558 H 427.617 -2.0774 3.37135 0
M  V30 4559 H 428.791 0.513923 4.57925 0
M  V30 4560 H 427.106 0.306862 4.15268 0
M  V30 4561 H 429.703 -2.40364 4.77629 0
M  V30 4562 H 430.046 -2.77382 3.10427 0
M  V30 4563 H 430.579 -1.21822 3.78688 0
M  V30 4564 H 427.318 -0.0671161 6.55466 0
M  V30 4565 H 426.838 -1.59546 5.78191 0
M  V30 4566 H 428.517 -1.35658 6.32618 0
M  V30 4567 N 428.649 -1.55105 -0.279332 0
M  V30 4568 C 429.895 -1.75672 -1.01327 0
M  V30 4569 C 430.228 -0.552739 -1.86168 0
M  V30 4570 O 429.503 0.449827 -1.89227 0
M  V30 4571 C 429.786 -3.05825 -1.90114 0
M  V30 4572 C 429.639 -4.36565 -1.08309 0
M  V30 4573 C 430.958 -3.31975 -2.8893 0
M  V30 4574 H 428.077 -0.639149 -0.366957 0
M  V30 4575 H 430.719 -1.87833 -0.286154 0
M  V30 4576 H 428.869 -2.95588 -2.52111 0
M  V30 4577 H 430.541 -4.58751 -0.484314 0
M  V30 4578 H 428.784 -4.32076 -0.386362 0
M  V30 4579 H 429.455 -5.23946 -1.73737 0
M  V30 4580 H 431.931 -3.41963 -2.37067 0
M  V30 4581 H 430.807 -4.2432 -3.48201 0
M  V30 4582 H 431.068 -2.51309 -3.63725 0
M  V30 4583 N 430.127 0.543554 -1.4793 0
M  V30 4584 C 431.538 1.12561 -1.48953 0
M  V30 4585 C 431.889 1.94578 -0.251754 0
M  V30 4586 O 431.014 2.0665 0.642255 0
M  V30 4587 C 431.609 2.04801 -2.69892 0
M  V30 4588 C 430.168 2.58251 -2.73831 0
M  V30 4589 C 429.315 1.34918 -2.42265 0
M  V30 4590 H 432.266 0.32947 -1.55242 0
M  V30 4591 H 432.287 2.88886 -2.47639 0
M  V30 4592 H 431.799 1.4508 -3.59963 0
M  V30 4593 H 429.9 3.21732 -1.87934 0
M  V30 4594 H 430.013 2.98312 -3.74895 0
M  V30 4595 H 428.377 1.66046 -1.93134 0
M  V30 4596 H 429.16 0.769693 -3.3456 0
M  V30 4597 N 431.605 1.3629 0.791371 0
M  V30 4598 C 433.016 1.27225 1.36641 0
M  V30 4599 C 433.367 -0.0887968 1.95999 0
M  V30 4600 O 432.492 -0.990207 1.92416 0
M  V30 4601 C 433.087 2.30375 2.48421 0
M  V30 4602 C 431.646 2.25004 3.01746 0
M  V30 4603 C 430.793 2.15259 1.7481 0
M  V30 4604 H 433.744 1.47198 0.593173 0
M  V30 4605 H 433.765 1.93905 3.27385 0
M  V30 4606 H 433.277 3.29422 2.05189 0
M  V30 4607 H 431.378 1.29417 3.49403 0
M  V30 4608 H 431.491 3.1761 3.58693 0
M  V30 4609 H 429.855 1.61482 1.96966 0
M  V30 4610 H 430.638 3.16191 1.33709 0
M  V30 4611 N 433.083 -1.0153 1.20538 0
M  V30 4612 C 434.311 -1.78746 1.04199 0
M  V30 4613 C 434.726 -1.84323 -0.408733 0
M  V30 4614 O 434.083 -1.29714 -1.28377 0
M  V30 4615 C 434.134 -3.23152 1.62035 0
M  V30 4616 O 433.855 -3.17918 3.0143 0
M  V30 4617 C 435.356 -4.16911 1.50666 0
M  V30 4618 H 432.576 -0.56208 0.366479 0
M  V30 4619 H 435.12 -1.27794 1.59653 0
M  V30 4620 H 433.275 -3.71248 1.10697 0
M  V30 4621 H 433.689 -4.08567 3.28897 0
M  V30 4622 H 435.163 -5.16072 1.95892 0
M  V30 4623 H 435.64 -4.36791 0.459363 0
M  V30 4624 H 436.246 -3.74698 2.01201 0
M  V30 4625 N 434.561 -1.01147 -1.20859 0
M  V30 4626 C 435.809 -0.696486 -1.89719 0
M  V30 4627 C 436.13 0.775788 -1.78904 0
M  V30 4628 O 435.4 1.55759 -1.18811 0
M  V30 4629 H 433.98 -0.254628 -0.702263 0
M  V30 4630 H 436.642 -1.28197 -1.46804 0
M  V30 4631 H 435.738 -0.975357 -2.96468 0
M  V30 4632 N 436.039 1.36541 -0.78704 0
M  V30 4633 C 437.002 2.28413 -0.189778 0
M  V30 4634 C 438.002 1.48719 0.611499 0
M  V30 4635 O 439.192 1.68737 0.432842 0
M  V30 4636 C 436.324 3.32824 0.737638 0
M  V30 4637 H 437.517 2.82743 -0.999831 0
M  V30 4638 H 435.07 1.46065 -0.556298 0
M  V30 4639 H 435.805 2.83646 1.57212 0
M  V30 4640 H 435.59 3.91752 0.165044 0
M  V30 4641 H 437.08 4.0144 1.15047 0
M  V30 4642 N 437.518 0.538854 1.48102 0
M  V30 4643 C 438.465 -0.219042 2.29758 0
M  V30 4644 C 439.435 -0.925562 1.37922 0
M  V30 4645 O 440.62 -0.924855 1.66886 0
M  V30 4646 C 437.76 -1.25452 3.2149 0
M  V30 4647 C 436.873 -0.555943 4.28408 0
M  V30 4648 C 436.008 -1.57512 5.0731 0
M  V30 4649 C 435.047 -0.860498 6.06021 0
M  V30 4650 N 434.184 -1.82564 6.77949 0
M  V30 4651 H 439.024 0.483449 2.94052 0
M  V30 4652 H 436.561 0.250247 1.44956 0
M  V30 4653 H 438.519 -1.86727 3.7308 0
M  V30 4654 H 437.149 -1.92528 2.591 0
M  V30 4655 H 436.201 0.170938 3.80016 0
M  V30 4656 H 437.513 0.00474616 4.988 0
M  V30 4657 H 436.667 -2.26191 5.62959 0
M  V30 4658 H 435.406 -2.16972 4.36778 0
M  V30 4659 H 434.411 -0.159686 5.49568 0
M  V30 4660 H 435.636 -0.271897 6.78555 0
M  V30 4661 H 433.582 -2.40915 6.10161 0
M  V30 4662 H 433.499 -1.31662 7.44447 0
M  V30 4663 H 434.767 -2.50414 7.38182 0
M  V30 4664 N 438.996 -1.55193 0.274407 0
M  V30 4665 C 440.244 -1.99187 -0.341902 0
M  V30 4666 C 440.565 -1.16422 -1.56431 0
M  V30 4667 O 439.835 -0.253573 -1.94252 0
M  V30 4668 H 438.415 -0.735721 -0.129317 0
M  V30 4669 H 441.077 -1.91168 0.379578 0
M  V30 4670 H 440.173 -3.05629 -0.632253 0
M  V30 4671 N 440.474 -0.00167713 -1.576 0
M  V30 4672 C 441.404 0.988091 -2.11563 0
M  V30 4673 C 442.385 1.35736 -1.02517 0
M  V30 4674 O 443.57 1.44082 -1.30208 0
M  V30 4675 C 440.7 2.27941 -2.62031 0
M  V30 4676 C 439.654 2.0517 -3.75619 0
M  V30 4677 C 438.98 3.4033 -4.12407 0
M  V30 4678 C 440.28 1.41294 -5.02825 0
M  V30 4679 H 441.974 0.538771 -2.94513 0
M  V30 4680 H 439.52 0.257712 -1.41675 0
M  V30 4681 H 441.473 2.97539 -2.9841 0
M  V30 4682 H 440.197 2.74989 -1.76205 0
M  V30 4683 H 438.856 1.37998 -3.39635 0
M  V30 4684 H 438.504 3.85085 -3.23603 0
M  V30 4685 H 438.204 3.25909 -4.88935 0
M  V30 4686 H 439.728 4.1124 -4.51347 0
M  V30 4687 H 441.142 2.00851 -5.36965 0
M  V30 4688 H 439.539 1.37356 -5.84169 0
M  V30 4689 H 440.609 0.382362 -4.8339 0
M  V30 4690 N 441.952 1.55251 0.271103 0
M  V30 4691 C 442.9 1.89054 1.35504 0
M  V30 4692 C 443.894 0.767064 1.51038 0
M  V30 4693 O 445.1 0.951429 1.528 0
M  V30 4694 H 441.475 0.600072 0.45323 0
M  V30 4695 H 443.446 2.79598 1.04247 0
M  V30 4696 C 442.195 2.18068 2.70817 0
M  V30 4697 H 441.518 3.04005 2.59656 0
M  V30 4698 H 442.958 2.4564 3.45597 0
M  V30 4699 C 441.417 0.988901 3.2206 0
M  V30 4700 O 441.947 0.224501 4.01072 0
M  V30 4701 N 440.153 0.786085 2.79766 0
M  V30 4702 H 439.7 1.40937 2.15626 0
M  V30 4703 H 439.658 -0.00969349 3.14399 0
M  V30 4704 N 443.43 -0.535701 1.48216 0
M  V30 4705 C 444.36 -1.65014 1.65204 0
M  V30 4706 C 445.341 -1.62554 0.501011 0
M  V30 4707 O 446.526 -1.7984 0.732886 0
M  V30 4708 C 443.656 -3.03616 1.68626 0
M  V30 4709 C 442.61 -3.20932 2.83172 0
M  V30 4710 C 441.936 -4.60537 2.71679 0
M  V30 4711 C 443.236 -3.04249 4.24535 0
M  V30 4712 H 444.93 -1.51053 2.58502 0
M  V30 4713 H 442.476 -0.725262 1.24402 0
M  V30 4714 H 444.429 -3.81446 1.79099 0
M  V30 4715 H 443.153 -3.18587 0.719026 0
M  V30 4716 H 441.812 -2.45517 2.72244 0
M  V30 4717 H 441.46 -4.72336 1.72937 0
M  V30 4718 H 441.16 -4.73069 3.48538 0
M  V30 4719 H 442.684 -5.40475 2.84112 0
M  V30 4720 H 444.098 -3.71877 4.36326 0
M  V30 4721 H 442.495 -3.28278 5.02348 0
M  V30 4722 H 443.565 -2.00739 4.41397 0
M  V30 4723 N 444.908 -1.36708 -0.784132 0
M  V30 4724 C 445.871 -1.31307 -1.87859 0
M  V30 4725 C 446.871 -0.219654 -1.59293 0
M  V30 4726 O 448.061 -0.47476 -1.67606 0
M  V30 4727 C 445.193 -1.03679 -3.24751 0
M  V30 4728 H 446.386 -2.28647 -1.94064 0
M  V30 4729 H 443.939 -1.21558 -0.98252 0
M  V30 4730 H 444.674 -0.0681936 -3.24228 0
M  V30 4731 H 444.459 -1.82811 -3.46876 0
M  V30 4732 H 445.949 -1.02518 -4.04821 0
M  V30 4733 N 446.386 1.0089 -1.21074 0
M  V30 4734 C 447.349 2.0775 -0.968129 0
M  V30 4735 C 448.349 1.6069 0.0593445 0
M  V30 4736 O 449.539 1.73293 -0.177525 0
M  V30 4737 C 446.671 3.37794 -0.459108 0
M  V30 4738 H 447.864 2.30707 -1.9161 0
M  V30 4739 H 445.417 1.17807 -1.02719 0
M  V30 4740 H 446.152 3.20516 0.49397 0
M  V30 4741 H 445.937 3.7328 -1.20019 0
M  V30 4742 H 447.427 4.16454 -0.309099 0
M  V30 4743 N 447.864 1.01787 1.20321 0
M  V30 4744 C 449.089 0.727009 1.9424 0
M  V30 4745 C 449.514 -0.706179 1.74341 0
M  V30 4746 O 448.872 -1.48609 1.03852 0
M  V30 4747 C 448.92 1.06958 3.44372 0
M  V30 4748 O 448.024 0.181983 4.11998 0
M  V30 4749 H 447.365 0.269626 0.606793 0
M  V30 4750 H 449.895 1.36158 1.52716 0
M  V30 4751 H 449.905 1.02182 3.94997 0
M  V30 4752 H 448.58 2.11378 3.58179 0
M  V30 4753 H 447.157 0.287378 3.71791 0
M  V30 4754 N 449.342 -1.36122 0.79427 0
M  V30 4755 C 450.619 -1.93398 0.292685 0
M  V30 4756 C 450.999 -1.72567 -1.21589 0
M  V30 4757 O 450.347 -1.08745 -2.00965 0
M  V30 4758 C 450.557 -3.42099 0.690614 0
M  V30 4759 C 451.905 -4.19231 0.673105 0
M  V30 4760 O 452.929 -3.50559 0.631389 0
M  V30 4761 O 451.788 -5.41732 0.720362 0
M  V30 4762 H 448.882 -0.823712 0.0736693 0
M  V30 4763 H 451.428 -1.45273 0.87714 0
M  V30 4764 H 450.2 -3.50938 1.73085 0
M  V30 4765 H 449.823 -3.97519 0.0803036 0
M  V30 4766 N 450.82 -0.546701 -1.47814 0
M  V30 4767 C 452.066 -0.0187684 -2.02791 0
M  V30 4768 C 452.399 1.32338 -1.42128 0
M  V30 4769 O 451.674 1.85867 -0.573023 0
M  V30 4770 C 451.957 0.0854985 -3.59998 0
M  V30 4771 C 451.81 -1.283 -4.31114 0
M  V30 4772 C 453.129 0.80412 -4.32691 0
M  V30 4773 H 450.248 -0.0082946 -0.736953 0
M  V30 4774 H 452.89 -0.706962 -1.76358 0
M  V30 4775 H 451.04 0.671609 -3.82651 0
M  V30 4776 H 452.712 -1.91151 -4.19832 0
M  V30 4777 H 450.955 -1.86049 -3.91878 0
M  V30 4778 H 451.626 -1.16287 -5.39612 0
M  V30 4779 H 454.102 0.306576 -4.14969 0
M  V30 4780 H 452.978 0.846011 -5.42341 0
M  V30 4781 H 453.239 1.85802 -4.01161 0
M  V30 4782 N 452.299 1.55045 -0.282633 0
M  V30 4783 C 453.524 2.04628 0.337977 0
M  V30 4784 C 453.949 1.15937 1.48123 0
M  V30 4785 O 453.307 0.159532 1.80597 0
M  V30 4786 C 453.355 3.51854 0.78936 0
M  V30 4787 O 452.459 3.66236 1.89592 0
M  V30 4788 H 451.8 0.660434 0.0687261 0
M  V30 4789 H 454.33 2.00261 -0.419124 0
M  V30 4790 H 454.34 3.93361 1.08311 0
M  V30 4791 H 453.015 4.15873 -0.0470419 0
M  V30 4792 H 451.592 3.36633 1.60413 0
M  V30 4793 N 453.777 0.010035 1.57597 0
M  V30 4794 C 455.005 -0.683413 1.95287 0
M  V30 4795 C 455.42 -1.66747 0.885481 0
M  V30 4796 O 454.777 -1.82003 -0.134629 0
M  V30 4797 C 454.828 -1.40652 3.33015 0
M  V30 4798 O 454.549 -0.461916 4.35658 0
M  V30 4799 C 456.05 -2.19356 3.85225 0
M  V30 4800 H 453.27 -0.189708 0.643624 0
M  V30 4801 H 455.814 0.0641359 2.04399 0
M  V30 4802 H 453.969 -2.10562 3.2518 0
M  V30 4803 H 454.383 -0.973215 5.15392 0
M  V30 4804 H 455.857 -2.65433 4.83993 0
M  V30 4805 H 456.334 -3.02457 3.18459 0
M  V30 4806 H 456.94 -1.54442 3.96267 0
M  V30 4807 N 455.255 -1.55392 -0.262866 0
M  V30 4808 C 456.185 -1.91978 -1.32917 0
M  V30 4809 C 457.166 -0.7828 -1.51017 0
M  V30 4810 O 458.351 -1.04178 -1.63892 0
M  V30 4811 C 455.481 -2.20055 -2.68687 0
M  V30 4812 C 454.435 -3.35854 -2.65304 0
M  V30 4813 C 453.761 -3.49435 -4.04721 0
M  V30 4814 C 455.061 -4.71977 -2.23685 0
M  V30 4815 H 456.755 -2.81292 -1.02544 0
M  V30 4816 H 454.301 -1.3534 -0.491846 0
M  V30 4817 H 456.254 -2.44237 -3.43404 0
M  V30 4818 H 454.978 -1.27551 -3.00663 0
M  V30 4819 H 453.637 -3.11655 -1.93045 0
M  V30 4820 H 453.285 -2.54379 -4.33936 0
M  V30 4821 H 452.985 -4.27297 -4.0335 0
M  V30 4822 H 454.509 -3.7592 -4.81161 0
M  V30 4823 H 455.923 -4.95637 -2.88127 0
M  V30 4824 H 454.32 -5.52828 -2.33456 0
M  V30 4825 H 455.39 -4.70115 -1.18827 0
M  V30 4826 N 456.733 0.527833 -1.48498 0
M  V30 4827 C 457.963 1.30633 -1.60058 0
M  V30 4828 C 458.371 1.87394 -0.260786 0
M  V30 4829 O 457.714 1.67227 0.760317 0
M  V30 4830 C 457.776 2.49361 -2.58958 0
M  V30 4831 C 457.44 2.13671 -4.03972 0
M  V30 4832 C 458.437 1.69217 -4.91591 0
M  V30 4833 C 456.122 2.24129 -4.49524 0
M  V30 4834 C 458.116 1.35689 -6.2279 0
M  V30 4835 C 455.803 1.90212 -5.80743 0
M  V30 4836 C 456.801 1.46063 -6.67199 0
M  V30 4837 O 456.489 1.12593 -7.95976 0
M  V30 4838 H 456.221 0.403444 -0.54241 0
M  V30 4839 H 458.775 0.643233 -1.95068 0
M  V30 4840 H 457.005 3.18659 -2.19073 0
M  V30 4841 H 458.694 3.11421 -2.6033 0
M  V30 4842 H 459.46 1.60607 -4.57636 0
M  V30 4843 H 455.339 2.57447 -3.82416 0
M  V30 4844 H 458.883 1.01157 -6.90227 0
M  V30 4845 H 454.78 1.98464 -6.14233 0
M  V30 4846 H 455.548 1.25972 -8.08748 0
M  V30 4847 N 458.211 1.37122 0.776871 0
M  V30 4848 C 459.627 1.1781 1.07671 0
M  V30 4849 C 459.827 0.0107454 2.01497 0
M  V30 4850 O 458.883 -0.650756 2.4397 0
M  V30 4851 C 460.196 2.49451 1.67913 0
M  V30 4852 C 461.744 2.55927 1.80195 0
M  V30 4853 C 462.219 3.87686 2.43851 0
M  V30 4854 N 463.71 3.891 2.51307 0
M  V30 4855 C 464.445 4.87797 3.014 0
M  V30 4856 N 463.941 5.96888 3.51705 0
M  V30 4857 N 465.734 4.75205 3.00227 0
M  V30 4858 H 457.885 2.11843 0.153778 0
M  V30 4859 H 460.148 0.938927 0.130844 0
M  V30 4860 H 459.854 3.35207 1.06439 0
M  V30 4861 H 459.728 2.66169 2.67271 0
M  V30 4862 H 462.115 1.70582 2.40803 0
M  V30 4863 H 462.196 2.43097 0.796069 0
M  V30 4864 H 461.84 4.73444 1.83884 0
M  V30 4865 H 461.77 3.97817 3.45035 0
M  V30 4866 H 464.261 3.10293 2.157 0
M  V30 4867 H 464.574 6.68155 3.88316 0
M  V30 4868 H 462.919 6.0054 3.49824 0
M  V30 4869 H 466.11 3.89103 2.60224 0
M  V30 4870 H 466.283 5.52279 3.38957 0
M  V30 4871 N 459.689 -1.00246 1.21608 0
M  V30 4872 C 460.619 -2.10921 1.00172 0
M  V30 4873 C 461.6 -1.69938 -0.0741587 0
M  V30 4874 O 462.785 -1.94009 0.0861753 0
M  V30 4875 C 459.915 -3.42618 0.568355 0
M  V30 4876 C 458.869 -3.97407 1.58909 0
M  V30 4877 C 458.195 -5.25038 1.01187 0
M  V30 4878 C 459.495 -4.2918 2.97661 0
M  V30 4879 H 461.189 -2.29112 1.92739 0
M  V30 4880 H 458.735 -1.10101 0.928102 0
M  V30 4881 H 460.688 -4.19444 0.405555 0
M  V30 4882 H 459.412 -3.24227 -0.392961 0
M  V30 4883 H 458.071 -3.22703 1.73949 0
M  V30 4884 H 457.719 -5.02982 0.0421965 0
M  V30 4885 H 457.419 -5.62661 1.6937 0
M  V30 4886 H 458.943 -6.04507 0.860448 0
M  V30 4887 H 460.357 -4.96839 2.86049 0
M  V30 4888 H 458.754 -4.77952 3.6288 0
M  V30 4889 H 459.824 -3.3735 3.48315 0
M  V30 4890 N 461.167 -1.02423 -1.1978 0
M  V30 4891 C 462.097 -0.62157 -2.25075 0
M  V30 4892 C 463.078 0.367148 -1.6609 0
M  V30 4893 O 464.263 0.250892 -1.92573 0
M  V30 4894 C 461.393 0.0331826 -3.47284 0
M  V30 4895 C 460.347 -0.877323 -4.18912 0
M  V30 4896 C 459.673 -0.0879296 -5.34628 0
M  V30 4897 C 460.973 -2.18892 -4.74219 0
M  V30 4898 H 462.667 -1.50179 -2.59011 0
M  V30 4899 H 460.213 -0.723547 -1.24502 0
M  V30 4900 H 462.166 0.326488 -4.20133 0
M  V30 4901 H 460.89 0.948164 -3.12534 0
M  V30 4902 H 459.549 -1.15475 -3.47938 0
M  V30 4903 H 459.197 0.828941 -4.96123 0
M  V30 4904 H 458.897 -0.694359 -5.83483 0
M  V30 4905 H 460.421 0.198743 -6.10276 0
M  V30 4906 H 461.835 -1.95746 -5.38847 0
M  V30 4907 H 460.232 -2.74686 -5.33542 0
M  V30 4908 H 461.302 -2.84674 -3.92541 0
M  V30 4909 N 462.645 1.35699 -0.801477 0
M  V30 4910 C 463.575 2.32436 -0.222658 0
M  V30 4911 C 464.556 1.5723 0.649057 0
M  V30 4912 O 465.741 1.85324 0.580387 0
M  V30 4913 C 462.871 3.41469 0.633719 0
M  V30 4914 C 461.825 4.27774 -0.139083 0
M  V30 4915 C 461.151 5.28082 0.838666 0
M  V30 4916 C 462.451 5.04946 -1.33517 0
M  V30 4917 H 464.145 2.81094 -1.03086 0
M  V30 4918 H 461.691 1.35146 -0.497155 0
M  V30 4919 H 463.644 4.08143 1.04868 0
M  V30 4920 H 462.368 2.91408 1.47475 0
M  V30 4921 H 461.027 3.62673 -0.535156 0
M  V30 4922 H 460.675 4.7429 1.67506 0
M  V30 4923 H 460.375 5.86695 0.32594 0
M  V30 4924 H 461.899 5.97628 1.25194 0
M  V30 4925 H 463.313 5.64593 -0.995349 0
M  V30 4926 H 461.71 5.7303 -1.78202 0
M  V30 4927 H 462.78 4.35886 -2.12442 0
M  V30 4928 N 464.123 0.554532 1.47522 0
M  V30 4929 C 465.07 -0.19466 2.29978 0
M  V30 4930 C 466.04 -0.910882 1.38896 0
M  V30 4931 O 467.225 -0.907102 1.67858 0
M  V30 4932 C 464.365 -1.22035 3.22802 0
M  V30 4933 C 463.478 -0.510474 4.28973 0
M  V30 4934 C 462.613 -1.52123 5.08952 0
M  V30 4935 C 461.652 -0.796173 6.069 0
M  V30 4936 N 460.789 -1.75363 6.79847 0
M  V30 4937 H 465.629 0.51461 2.93523 0
M  V30 4938 H 463.166 0.265607 1.44682 0
M  V30 4939 H 465.124 -1.8276 3.7504 0
M  V30 4940 H 463.754 -1.89769 2.61127 0
M  V30 4941 H 462.806 0.211234 3.79813 0
M  V30 4942 H 464.118 0.0576503 4.98767 0
M  V30 4943 H 463.272 -2.20207 5.65326 0
M  V30 4944 H 462.011 -2.12327 4.39054 0
M  V30 4945 H 461.016 -0.101388 5.49707 0
M  V30 4946 H 462.241 -0.199911 6.78806 0
M  V30 4947 H 460.187 -2.3443 6.12682 0
M  V30 4948 H 460.104 -1.23759 7.45801 0
M  V30 4949 H 461.372 -2.4257 7.40797 0
M  V30 4950 N 465.601 -1.54893 0.290851 0
M  V30 4951 C 466.564 -2.21824 -0.576784 0
M  V30 4952 C 467.564 -1.20104 -1.06919 0
M  V30 4953 O 468.754 -1.44906 -0.966843 0
M  V30 4954 C 465.886 -2.89662 -1.79747 0
M  V30 4955 H 467.079 -2.99899 0.00784051 0
M  V30 4956 H 464.632 -1.56245 0.0415934 0
M  V30 4957 H 465.367 -2.15639 -2.42219 0
M  V30 4958 H 465.152 -3.64219 -1.45214 0
M  V30 4959 H 466.642 -3.4075 -2.4141 0
M  V30 4960 N 467.08 -0.0183926 -1.57589 0
M  V30 4961 C 468.31 0.67207 -1.95363 0
M  V30 4962 C 468.718 1.66807 -0.892872 0
M  V30 4963 O 468.061 1.83204 0.134958 0
M  V30 4964 C 468.123 1.44397 -3.29226 0
M  V30 4965 C 467.787 0.607511 -4.52944 0
M  V30 4966 C 468.784 -0.112657 -5.19778 0
M  V30 4967 C 466.469 0.548068 -4.99301 0
M  V30 4968 C 468.463 -0.881057 -6.31281 0
M  V30 4969 C 466.15 -0.224044 -6.10689 0
M  V30 4970 C 467.148 -0.937323 -6.76538 0
M  V30 4971 O 466.836 -1.6968 -7.85789 0
M  V30 4972 H 466.568 0.190925 -0.648478 0
M  V30 4973 H 469.122 -0.0711994 -2.05277 0
M  V30 4974 H 467.352 2.23214 -3.15773 0
M  V30 4975 H 469.041 2.02152 -3.51979 0
M  V30 4976 H 469.807 -0.0759998 -4.8494 0
M  V30 4977 H 465.686 1.09281 -4.4786 0
M  V30 4978 H 469.23 -1.43832 -6.82611 0
M  V30 4979 H 465.127 -0.262457 -6.44966 0
M  V30 4980 H 465.895 -1.61544 -8.024 0
M  V30 4981 N 468.558 1.5553 0.254621 0
M  V30 4982 C 469.974 1.4778 0.602753 0
M  V30 4983 C 470.174 0.707047 1.88688 0
M  V30 4984 O 469.23 0.233288 2.5142 0
M  V30 4985 C 470.543 2.92133 0.712648 0
M  V30 4986 C 472.091 3.02458 0.805488 0
M  V30 4987 C 472.566 4.48102 0.947009 0
M  V30 4988 N 474.057 4.52008 1.01207 0
M  V30 4989 C 474.792 5.61939 1.1407 0
M  V30 4990 N 474.288 6.81697 1.23536 0
M  V30 4991 N 476.081 5.49719 1.17325 0
M  V30 4992 H 468.232 2.04085 -0.588463 0
M  V30 4993 H 470.495 0.926229 -0.202001 0
M  V30 4994 H 470.201 3.51332 -0.160766 0
M  V30 4995 H 470.075 3.42187 1.58707 0
M  V30 4996 H 472.462 2.43344 1.66936 0
M  V30 4997 H 472.543 2.55627 -0.0939266 0
M  V30 4998 H 472.187 5.07824 0.087725 0
M  V30 4999 H 472.117 4.92607 1.86135 0
M  V30 5000 H 474.608 3.65749 0.950577 0
M  V30 5001 H 474.921 7.61228 1.33236 0
M  V30 5002 H 473.266 6.84473 1.20508 0
M  V30 5003 H 476.457 4.55095 1.09573 0
M  V30 5004 H 476.63 6.35432 1.27005 0
M  V30 5005 N 470.036 -0.519951 1.48776 0
M  V30 5006 C 470.946 -1.65025 1.66745 0
M  V30 5007 C 471.962 -1.6508 0.549954 0
M  V30 5008 O 473.138 -1.83848 0.822295 0
M  V30 5009 C 470.203 -3.0146 1.71238 0
M  V30 5010 C 469.264 -3.12182 2.94688 0
M  V30 5011 C 468.497 -4.42109 2.98958 0
M  V30 5012 O 468.72 -5.29799 2.1135 0
M  V30 5013 O 467.654 -4.57406 3.91233 0
M  V30 5014 H 471.48 -1.52801 2.62461 0
M  V30 5015 H 469.065 -0.694157 1.32294 0
M  V30 5016 H 470.947 -3.82584 1.76657 0
M  V30 5017 H 469.622 -3.13988 0.786975 0
M  V30 5018 H 468.529 -2.30316 2.94797 0
M  V30 5019 H 469.862 -3.04574 3.86646 0
M  V30 5020 N 471.514 -1.37532 -0.769588 0
M  V30 5021 C 472.762 -1.32597 -1.5252 0
M  V30 5022 C 473.083 0.0884294 -1.94799 0
M  V30 5023 O 472.353 1.03289 -1.66458 0
M  V30 5024 H 470.933 -0.487846 -0.565699 0
M  V30 5025 H 473.595 -1.72044 -0.915806 0
M  V30 5026 H 472.691 -1.96643 -2.42359 0
M  V30 5027 N 472.992 0.995999 -1.22138 0
M  V30 5028 C 474.408 1.25917 -0.980667 0
M  V30 5029 C 474.608 1.98819 0.327604 0
M  V30 5030 O 473.664 2.29587 1.05101 0
M  V30 5031 C 474.977 2.07399 -2.17729 0
M  V30 5032 C 476.525 2.20594 -2.22052 0
M  V30 5033 C 477 3.05462 -3.41258 0
M  V30 5034 N 478.491 3.13049 -3.41401 0
M  V30 5035 C 479.226 3.78997 -4.30289 0
M  V30 5036 N 478.722 4.46899 -5.2939 0
M  V30 5037 N 480.515 3.75728 -4.18073 0
M  V30 5038 H 472.666 0.507158 -2.06256 0
M  V30 5039 H 474.929 0.28658 -0.903646 0
M  V30 5040 H 474.635 1.61191 -3.12586 0
M  V30 5041 H 474.509 3.08154 -2.17534 0
M  V30 5042 H 476.896 2.66017 -1.27745 0
M  V30 5043 H 476.977 1.1928 -2.26287 0
M  V30 5044 H 476.621 2.60739 -4.35864 0
M  V30 5045 H 476.551 4.06911 -3.34262 0
M  V30 5046 H 479.042 2.64721 -2.69688 0
M  V30 5047 H 479.355 4.94952 -5.935 0
M  V30 5048 H 477.7 4.45657 -5.33306 0
M  V30 5049 H 480.891 3.2184 -3.39907 0
M  V30 5050 H 481.064 4.26845 -4.87553 0
M  V30 5051 N 474.47 1.03057 1.19235 0
M  V30 5052 C 475.718 0.726581 1.88587 0
M  V30 5053 C 476.039 -0.747227 1.80115 0
M  V30 5054 O 475.309 -1.53849 1.21274 0
M  V30 5055 H 473.889 0.265768 0.698124 0
M  V30 5056 H 476.551 1.30516 1.44746 0
M  V30 5057 H 475.647 1.0224 2.94879 0
M  V30 5058 N 475.948 -1.35272 0.808662 0
M  V30 5059 C 476.858 -2.33546 0.222079 0
M  V30 5060 C 477.874 -1.6196 -0.636011 0
M  V30 5061 O 479.05 -1.93822 -0.547274 0
M  V30 5062 C 476.115 -3.41148 -0.61795 0
M  V30 5063 C 475.176 -4.28507 0.260875 0
M  V30 5064 C 474.409 -5.3097 -0.539156 0
M  V30 5065 O 474.632 -5.42123 -1.77367 0
M  V30 5066 O 473.566 -6.01858 0.0710526 0
M  V30 5067 H 477.392 -2.85515 1.03512 0
M  V30 5068 H 474.977 -1.38079 0.570495 0
M  V30 5069 H 476.859 -4.06889 -1.09634 0
M  V30 5070 H 475.534 -2.91447 -1.40855 0
M  V30 5071 H 474.441 -3.6574 0.786451 0
M  V30 5072 H 475.774 -4.81611 1.01547 0
M  V30 5073 N 477.426 -0.562348 -1.47226 0
M  V30 5074 C 478.356 0.170627 -2.32876 0
M  V30 5075 C 479.337 0.903748 -1.44106 0
M  V30 5076 O 480.522 0.883206 -1.72954 0
M  V30 5077 C 477.652 1.19786 -3.25989 0
M  V30 5078 C 476.606 0.580875 -4.2404 0
M  V30 5079 C 475.932 1.71311 -5.06514 0
M  V30 5080 C 477.232 -0.468714 -5.20193 0
M  V30 5081 H 478.926 -0.544441 -2.94408 0
M  V30 5082 H 476.472 -0.263271 -1.41573 0
M  V30 5083 H 478.425 1.71884 -3.84752 0
M  V30 5084 H 477.149 1.94294 -2.62521 0
M  V30 5085 H 475.808 0.0811538 -3.6651 0
M  V30 5086 H 475.456 2.44736 -4.39447 0
M  V30 5087 H 475.156 1.30604 -5.72902 0
M  V30 5088 H 476.68 2.23725 -5.68137 0
M  V30 5089 H 478.094 -0.0336028 -5.7329 0
M  V30 5090 H 476.491 -0.794957 -5.94811 0
M  V30 5091 H 477.561 -1.36269 -4.65359 0
M  V30 5092 N 478.904 1.54736 -0.299062 0
M  V30 5093 C 479.834 2.26409 0.571085 0
M  V30 5094 C 480.815 1.2629 1.13951 0
M  V30 5095 O 482 1.55059 1.16921 0
M  V30 5096 C 479.13 3.00338 1.74396 0
M  V30 5097 C 478.084 4.07588 1.30599 0
M  V30 5098 C 477.41 4.69222 2.56387 0
M  V30 5099 C 478.71 5.20455 0.438645 0
M  V30 5100 H 480.404 2.99388 -0.0266991 0
M  V30 5101 H 477.95 1.43993 -0.0142812 0
M  V30 5102 H 479.903 3.49198 2.35878 0
M  V30 5103 H 478.627 2.24934 2.36796 0
M  V30 5104 H 477.286 3.59575 0.71424 0
M  V30 5105 H 476.934 3.9046 3.17097 0
M  V30 5106 H 476.634 5.41653 2.27784 0
M  V30 5107 H 478.158 5.20844 3.18675 0
M  V30 5108 H 479.572 5.65221 0.959085 0
M  V30 5109 H 477.969 5.99594 0.246466 0
M  V30 5110 H 479.039 4.8192 -0.536738 0
M  V30 5111 N 480.382 0.0267497 1.57577 0
M  V30 5112 C 481.292 -0.971633 2.13533 0
M  V30 5113 C 482.308 -1.35868 1.08701 0
M  V30 5114 O 483.484 -1.44058 1.40746 0
M  V30 5115 C 480.549 -2.23622 2.64941 0
M  V30 5116 C 479.61 -1.90982 3.8448 0
M  V30 5117 C 478.843 -3.11411 4.33427 0
M  V30 5118 O 479.066 -4.23992 3.81558 0
M  V30 5119 O 478 -2.93848 5.25297 0
M  V30 5120 H 481.826 -0.525853 2.99113 0
M  V30 5121 H 479.411 -0.193712 1.48139 0
M  V30 5122 H 481.293 -2.97864 2.98086 0
M  V30 5123 H 479.968 -2.67386 1.82446 0
M  V30 5124 H 478.875 -1.14132 3.56265 0
M  V30 5125 H 480.208 -1.52036 4.6813 0
M  V30 5126 N 481.861 -1.55662 -0.24637 0
M  V30 5127 C 483.277 -1.48098 -0.594907 0
M  V30 5128 C 483.477 -0.717044 -1.8831 0
M  V30 5129 O 482.533 -0.246618 -2.51293 0
M  V30 5130 C 483.846 -2.92507 -0.697146 0
M  V30 5131 C 485.394 -3.02881 -0.789436 0
M  V30 5132 C 485.869 -4.48598 -0.923232 0
M  V30 5133 N 487.36 -4.52538 -0.988088 0
M  V30 5134 C 488.095 -5.62536 -1.11089 0
M  V30 5135 N 487.591 -6.82342 -1.19919 0
M  V30 5136 N 489.384 -5.50334 -1.14408 0
M  V30 5137 H 481.535 -2.0377 0.599278 0
M  V30 5138 H 483.798 -0.925145 0.20691 0
M  V30 5139 H 483.504 -3.51242 0.179396 0
M  V30 5140 H 483.378 -3.43024 -1.5689 0
M  V30 5141 H 485.765 -2.44226 -1.65643 0
M  V30 5142 H 485.846 -2.55574 0.107482 0
M  V30 5143 H 485.49 -5.07864 -0.0607927 0
M  V30 5144 H 485.42 -4.93587 -1.8352 0
M  V30 5145 H 487.911 -3.66248 -0.931167 0
M  V30 5146 H 488.224 -7.61924 -1.29197 0
M  V30 5147 H 486.569 -6.85102 -1.16876 0
M  V30 5148 H 489.76 -4.5567 -1.07158 0
M  V30 5149 H 489.933 -6.36096 -1.23634 0
M  V30 5150 N 483.339 0.512053 -1.4905 0
M  V30 5151 C 484.569 1.28928 -1.61434 0
M  V30 5152 C 484.977 1.87107 -0.280647 0
M  V30 5153 O 484.32 1.68024 0.742537 0
M  V30 5154 C 484.382 2.466 -2.61588 0
M  V30 5155 C 484.046 2.09375 -4.06216 0
M  V30 5156 C 485.043 1.63994 -4.93358 0
M  V30 5157 C 482.728 2.19348 -4.51876 0
M  V30 5158 C 484.722 1.29076 -6.24194 0
M  V30 5159 C 482.409 1.84041 -5.82728 0
M  V30 5160 C 483.407 1.38978 -6.68711 0
M  V30 5161 O 483.095 1.04144 -7.97126 0
M  V30 5162 H 482.827 0.397668 -0.546659 0
M  V30 5163 H 485.381 0.622507 -1.9574 0
M  V30 5164 H 483.611 3.16318 -2.22441 0
M  V30 5165 H 485.3 3.08642 -2.63619 0
M  V30 5166 H 486.066 1.55744 -4.59313 0
M  V30 5167 H 481.945 2.53376 -3.85125 0
M  V30 5168 H 485.489 0.938303 -6.91261 0
M  V30 5169 H 481.386 1.91938 -6.16304 0
M  V30 5170 H 482.154 1.17387 -8.10039 0
M  V30 5171 N 484.817 1.37938 0.762283 0
M  V30 5172 C 486.042 1.37059 1.55659 0
M  V30 5173 C 486.467 -0.0396123 1.88058 0
M  V30 5174 O 485.825 -1.01929 1.49934 0
M  V30 5175 C 485.873 2.22494 2.83776 0
M  V30 5176 O 484.977 1.63607 3.78559 0
M  V30 5177 H 484.318 0.467892 0.47114 0
M  V30 5178 H 486.848 1.81587 0.942725 0
M  V30 5179 H 486.858 2.36045 3.32786 0
M  V30 5180 H 485.533 3.24993 2.59524 0
M  V30 5181 H 484.11 1.5915 3.37233 0
M  V30 5182 N 486.295 -0.989507 1.22664 0
M  V30 5183 C 487.258 -2.06183 1.00106 0
M  V30 5184 C 488.258 -1.60765 -0.0337726 0
M  V30 5185 O 489.448 -1.72989 0.205072 0
M  V30 5186 C 486.58 -3.37021 0.51279 0
M  V30 5187 H 487.773 -2.27629 1.95256 0
M  V30 5188 H 485.326 -1.16158 1.0458 0
M  V30 5189 H 486.061 -3.21261 -0.442917 0
M  V30 5190 H 485.846 -3.71323 1.25942 0
M  V30 5191 H 487.336 -4.1591 0.375315 0
M  V30 5192 N 487.773 -1.03688 -1.18687 0
M  V30 5193 C 489.022 -0.733235 -1.879 0
M  V30 5194 C 489.335 0.741745 -1.8099 0
M  V30 5195 O 490.541 1.15875 -2.4553 0
M  V30 5196 C 488.997 -1.26127 -3.37076 0
M  V30 5197 C 488.605 -2.76461 -3.52524 0
M  V30 5198 C 490.349 -1.03398 -4.11715 0
M  V30 5199 C 488.256 -3.22642 -4.95637 0
M  V30 5200 H 487.186 -0.270584 -0.703776 0
M  V30 5201 H 489.837 -1.25222 -1.34133 0
M  V30 5202 H 488.219 -0.670165 -3.90288 0
M  V30 5203 H 489.393 -3.41296 -3.09602 0
M  V30 5204 H 487.708 -2.97559 -2.91286 0
M  V30 5205 H 490.305 -1.3542 -5.17267 0
M  V30 5206 H 490.648 0.0289246 -4.1629 0
M  V30 5207 H 491.181 -1.5895 -3.64664 0
M  V30 5208 H 487.92 -4.28296 -4.96228 0
M  V30 5209 H 487.44 -2.62539 -5.39289 0
M  V30 5210 H 489.119 -3.16444 -5.64333 0
M  V30 5211 N 489.251 1.34841 -0.815825 0
M  V30 5212 C 490.491 2.00321 -0.406297 0
M  V30 5213 C 490.855 1.63293 1.00992 0
M  V30 5214 O 492.056 2.21563 1.52195 0
M  V30 5215 C 490.327 3.52421 -0.594469 0
M  V30 5216 S 491.886 4.37926 -0.276735 0
M  V30 5217 H 488.704 0.694155 -0.153848 0
M  V30 5218 H 491.306 1.64263 -1.06009 0
M  V30 5219 H 490.01 3.76858 -1.625 0
M  V30 5220 H 489.541 3.9333 0.0743157 0
M  V30 5221 H 491.556 4.87743 0.912215 0
M  V30 5222 N 490.729 0.570148 1.46925 0
M  V30 5223 C 491.659 -0.158274 2.32963 0
M  V30 5224 C 492.64 -0.896093 1.44583 0
M  V30 5225 O 493.825 -0.874022 1.7342 0
M  V30 5226 C 490.955 -1.18055 3.26619 0
M  V30 5227 C 489.909 -0.558379 4.24342 0
M  V30 5228 C 489.235 -1.68623 5.07415 0
M  V30 5229 C 490.535 0.496295 5.19937 0
M  V30 5230 H 492.229 0.560046 2.94115 0
M  V30 5231 H 489.775 0.270775 1.41431 0
M  V30 5232 H 491.728 -1.69841 3.85658 0
M  V30 5233 H 490.452 -1.92899 2.63548 0
M  V30 5234 H 489.111 -0.0617157 3.66548 0
M  V30 5235 H 488.759 -2.42402 4.40738 0
M  V30 5236 H 488.459 -1.27564 5.73586 0
M  V30 5237 H 489.983 -2.20709 5.69315 0
M  V30 5238 H 491.397 0.0640052 5.73264 0
M  V30 5239 H 489.794 0.82649 5.94381 0
M  V30 5240 H 490.864 1.38735 4.6463 0
M  V30 5241 N 492.207 -1.54576 0.307264 0
M  V30 5242 C 493.623 -1.59534 -0.0459251 0
M  V30 5243 C 493.823 -1.32414 -1.51884 0
M  V30 5244 O 492.879 -1.1006 -2.27251 0
M  V30 5245 C 494.192 -2.98566 0.357649 0
M  V30 5246 C 495.74 -3.11491 0.306937 0
M  V30 5247 C 496.215 -4.52842 0.685427 0
M  V30 5248 N 497.706 -4.58782 0.638203 0
M  V30 5249 C 498.441 -5.66238 0.903458 0
M  V30 5250 N 497.937 -6.81703 1.23501 0
M  V30 5251 N 499.73 -5.55937 0.830102 0
M  V30 5252 H 491.881 -1.70464 1.26712 0
M  V30 5253 H 494.144 -0.79647 0.514139 0
M  V30 5254 H 493.85 -3.23356 1.38325 0
M  V30 5255 H 493.724 -3.76117 -0.285565 0
M  V30 5256 H 496.111 -2.86446 -0.709424 0
M  V30 5257 H 496.192 -2.36081 0.984861 0
M  V30 5258 H 495.836 -4.78618 1.69963 0
M  V30 5259 H 495.766 -5.26598 -0.0146346 0
M  V30 5260 H 498.257 -3.75849 0.393138 0
M  V30 5261 H 498.57 -7.59582 1.42322 0
M  V30 5262 H 496.915 -6.8324 1.27311 0
M  V30 5263 H 500.106 -4.64608 0.570693 0
M  V30 5264 H 500.279 -6.39597 1.04019 0
M  V30 5265 N 493.685 -0.035106 -1.57561 0
M  V30 5266 C 495.101 0.321334 -1.56332 0
M  V30 5267 C 495.301 1.72509 -1.04129 0
M  V30 5268 O 494.357 2.4287 -0.690694 0
M  V30 5269 C 495.67 0.164469 -3.0025 0
M  V30 5270 C 497.218 0.236786 -3.12103 0
M  V30 5271 C 497.693 0.10864 -4.57871 0
M  V30 5272 N 499.184 0.165433 -4.62904 0
M  V30 5273 C 499.919 0.0901506 -5.73329 0
M  V30 5274 N 499.415 -0.0365606 -6.9279 0
M  V30 5275 N 501.208 0.144572 -5.61914 0
M  V30 5276 H 493.359 -0.952976 -1.89821 0
M  V30 5277 H 495.622 -0.368537 -0.873432 0
M  V30 5278 H 495.328 -0.802746 -3.42416 0
M  V30 5279 H 495.202 0.932194 -3.655 0
M  V30 5280 H 497.589 1.19446 -2.69845 0
M  V30 5281 H 497.67 -0.561419 -2.49563 0
M  V30 5282 H 497.314 -0.845644 -5.00811 0
M  V30 5283 H 497.244 0.925786 -5.18398 0
M  V30 5284 H 499.735 0.263269 -3.76982 0
M  V30 5285 H 500.048 -0.0871487 -7.72751 0
M  V30 5286 H 498.393 -0.0714256 -6.94963 0
M  V30 5287 H 501.584 0.242006 -4.67474 0
M  V30 5288 H 501.757 0.0824413 -6.47948 0
M  V30 5289 N 495.163 1.55791 0.238111 0
M  V30 5290 C 496.412 1.77234 0.962868 0
M  V30 5291 C 496.725 0.600661 1.86149 0
M  V30 5292 O 497.931 0.698315 2.62366 0
M  V30 5293 C 496.387 3.13808 1.76218 0
M  V30 5294 C 495.995 4.3865 0.910518 0
M  V30 5295 C 497.739 3.44585 2.47914 0
M  V30 5296 C 495.646 5.66252 1.70623 0
M  V30 5297 H 494.576 0.660731 0.36325 0
M  V30 5298 H 497.227 1.8221 0.217242 0
M  V30 5299 H 495.609 3.02963 2.55009 0
M  V30 5300 H 496.783 4.60507 0.164316 0
M  V30 5301 H 495.098 4.15271 0.30647 0
M  V30 5302 H 497.695 4.3714 3.07917 0
M  V30 5303 H 498.038 2.66314 3.19973 0
M  V30 5304 H 498.571 3.56685 1.76127 0
M  V30 5305 H 495.31 6.47369 1.02923 0
M  V30 5306 H 494.83 5.48483 2.42748 0
M  V30 5307 H 496.509 6.05829 2.27114 0
M  V30 5308 N 496.642 -0.504142 1.49319 0
M  V30 5309 C 497.888 -1.25767 1.59857 0
M  V30 5310 C 498.243 -1.90348 0.280262 0
M  V30 5311 O 497.536 -1.77588 -0.719241 0
M  V30 5312 C 497.73 -2.35021 2.69258 0
M  V30 5313 C 497.559 -1.81154 4.11598 0
M  V30 5314 C 496.329 -1.62596 4.78425 0
M  V30 5315 C 498.527 -1.3252 4.96934 0
M  V30 5316 N 496.509 -1.03625 6.05091 0
M  V30 5317 C 497.88 -0.856633 6.14054 0
M  V30 5318 C 499.935 -1.21063 4.82958 0
M  V30 5319 C 498.638 -0.284841 7.18736 0
M  V30 5320 C 500.664 -0.652815 5.87786 0
M  V30 5321 C 500.026 -0.194461 7.04132 0
M  V30 5322 H 496.125 -0.450293 0.639343 0
M  V30 5323 H 498.709 -0.565344 1.86311 0
M  V30 5324 H 496.88 -3.01719 2.44581 0
M  V30 5325 H 498.612 -3.02061 2.69335 0
M  V30 5326 H 495.367 -1.86873 4.35173 0
M  V30 5327 H 495.791 -0.76076 6.72712 0
M  V30 5328 H 500.433 -1.551 3.93324 0
M  V30 5329 H 498.151 0.0677979 8.08072 0
M  V30 5330 H 501.737 -0.566994 5.79031 0
M  V30 5331 H 500.617 0.230442 7.83861 0
M  V30 5332 N 498.12 -1.38341 -0.754957 0
M  V30 5333 C 499.067 -1.3546 -1.86867 0
M  V30 5334 C 500.037 -0.217369 -1.64672 0
M  V30 5335 O 501.222 -0.409383 -1.86356 0
M  V30 5336 C 498.362 -1.18413 -3.24149 0
M  V30 5337 C 497.475 -2.41511 -3.58185 0
M  V30 5338 C 496.61 -2.17205 -4.84763 0
M  V30 5339 C 495.649 -3.36081 -5.11582 0
M  V30 5340 N 494.786 -3.11219 -6.29354 0
M  V30 5341 H 499.626 -2.30672 -1.88664 0
M  V30 5342 H 497.163 -1.14607 -0.922154 0
M  V30 5343 H 499.121 -1.06545 -4.03366 0
M  V30 5344 H 497.751 -0.268397 -3.21682 0
M  V30 5345 H 496.803 -2.64056 -2.73822 0
M  V30 5346 H 498.115 -3.30115 -3.73932 0
M  V30 5347 H 497.269 -2.02465 -5.7192 0
M  V30 5348 H 496.008 -1.25964 -4.71152 0
M  V30 5349 H 495.013 -3.51341 -4.22894 0
M  V30 5350 H 496.238 -4.28196 -5.27091 0
M  V30 5351 H 494.184 -2.22624 -6.17069 0
M  V30 5352 H 494.101 -3.93373 -6.45596 0
M  V30 5353 H 495.369 -3.00132 -7.19403 0
M  V30 5354 N 499.598 0.982988 -1.23187 0
M  V30 5355 C 500.561 2.05649 -1.01198 0
M  V30 5356 C 501.561 1.6078 0.0252464 0
M  V30 5357 O 502.751 1.72878 -0.214243 0
M  V30 5358 C 499.883 3.36744 -0.530656 0
M  V30 5359 H 501.076 2.2659 -1.96461 0
M  V30 5360 H 498.629 1.15602 -1.05195 0
M  V30 5361 H 499.364 3.21492 0.425873 0
M  V30 5362 H 499.149 3.7065 -1.2791 0
M  V30 5363 H 500.639 4.15705 -0.397366 0
M  V30 5364 N 501.076 1.04316 1.18135 0
M  V30 5365 C 501.986 0.646876 2.25505 0
M  V30 5366 C 503.002 -0.328008 1.7088 0
M  V30 5367 O 504.178 -0.182309 2.00573 0
M  V30 5368 C 501.243 0.0185664 3.46695 0
M  V30 5369 C 500.304 1.04277 4.16443 0
M  V30 5370 C 499.537 0.444352 5.31847 0
M  V30 5371 O 499.76 -0.748735 5.65465 0
M  V30 5372 O 498.694 1.17428 5.90334 0
M  V30 5373 H 502.52 1.54147 2.61672 0
M  V30 5374 H 500.105 0.814188 1.25265 0
M  V30 5375 H 501.987 -0.331068 4.20097 0
M  V30 5376 H 500.662 -0.849814 3.12346 0
M  V30 5377 H 499.569 1.44425 3.45098 0
M  V30 5378 H 500.902 1.882 4.54798 0
M  V30 5379 N 502.554 -1.34406 0.822964 0
M  V30 5380 C 503.97 -1.51275 0.508727 0
M  V30 5381 C 504.17 -1.76776 -0.967083 0
M  V30 5382 O 503.226 -1.81871 -1.75155 0
M  V30 5383 C 504.539 -2.67765 1.36829 0
M  V30 5384 C 506.087 -2.81647 1.36542 0
M  V30 5385 C 506.562 -4.01181 2.20947 0
M  V30 5386 N 508.053 -4.08388 2.18571 0
M  V30 5387 C 508.788 -5.00036 2.80627 0
M  V30 5388 N 508.284 -5.96906 3.51674 0
M  V30 5389 N 510.077 -4.92908 2.70181 0
M  V30 5390 H 502.228 -1.16113 1.77852 0
M  V30 5391 H 504.491 -0.56947 0.757897 0
M  V30 5392 H 504.197 -2.55551 2.41633 0
M  V30 5393 H 504.071 -3.62779 1.03303 0
M  V30 5394 H 506.458 -2.93303 0.325163 0
M  V30 5395 H 506.539 -1.87443 1.74066 0
M  V30 5396 H 506.183 -3.90286 3.25022 0
M  V30 5397 H 506.113 -4.94599 1.80774 0
M  V30 5398 H 508.604 -3.39051 1.66891 0
M  V30 5399 H 508.917 -6.63468 3.96271 0
M  V30 5400 H 507.262 -5.9703 3.5578 0
M  V30 5401 H 510.453 -4.1619 2.14251 0
M  V30 5402 H 510.626 -5.64137 3.18831 0
M  V30 5403 N 504.032 -0.577932 -1.46621 0
M  V30 5404 C 505.279 -0.0616879 -2.02406 0
M  V30 5405 C 505.607 1.29638 -1.44997 0
M  V30 5406 O 504.862 1.86176 -0.60308 0
M  V30 5407 C 505.161 0.0590832 -3.57351 0
M  V30 5408 C 504.827 -1.23077 -4.33777 0
M  V30 5409 C 503.489 -1.58416 -4.54376 0
M  V30 5410 C 505.841 -2.08457 -4.77698 0
M  V30 5411 C 503.169 -2.78943 -5.16147 0
M  V30 5412 C 505.521 -3.28204 -5.408 0
M  V30 5413 C 504.185 -3.63832 -5.59627 0
M  V30 5414 H 503.455 -0.0225732 -0.740656 0
M  V30 5415 H 506.102 -0.753609 -1.76048 0
M  V30 5416 H 504.407 0.834104 -3.82818 0
M  V30 5417 H 506.104 0.474202 -3.98186 0
M  V30 5418 H 502.694 -0.945652 -4.18038 0
M  V30 5419 H 506.878 -1.82459 -4.61544 0
M  V30 5420 H 502.134 -3.06689 -5.28916 0
M  V30 5421 H 506.308 -3.94634 -5.73792 0
M  V30 5422 H 503.935 -4.57315 -6.07262 0
M  V30 5423 N 505.51 1.54411 -0.315457 0
M  V30 5424 C 506.735 2.05299 0.294496 0
M  V30 5425 C 507.16 1.19052 1.4563 0
M  V30 5426 O 506.518 0.197804 1.80218 0
M  V30 5427 C 506.566 3.5345 0.714549 0
M  V30 5428 O 505.67 3.70175 1.81781 0
M  V30 5429 H 505.011 0.661743 0.0547019 0
M  V30 5430 H 507.541 1.99327 -0.461508 0
M  V30 5431 H 507.551 3.9557 0.999426 0
M  V30 5432 H 506.226 4.1568 -0.135244 0
M  V30 5433 H 504.803 3.3996 1.53236 0
M  V30 5434 N 506.988 0.0434614 1.5754 0
M  V30 5435 C 508.234 -0.627109 1.93491 0
M  V30 5436 C 508.589 -1.68904 0.921362 0
M  V30 5437 O 507.882 -1.91504 -0.0605799 0
M  V30 5438 C 508.076 -1.2738 3.3393 0
M  V30 5439 C 507.905 -0.27603 4.48852 0
M  V30 5440 C 506.675 0.129244 5.05135 0
M  V30 5441 C 508.873 0.475462 5.12098 0
M  V30 5442 N 506.855 1.12068 6.03584 0
M  V30 5443 C 508.226 1.32021 6.05781 0
M  V30 5444 C 510.281 0.534611 4.95022 0
M  V30 5445 C 508.984 2.2188 6.84223 0
M  V30 5446 C 511.01 1.42059 5.74085 0
M  V30 5447 C 510.372 2.25309 6.67394 0
M  V30 5448 H 506.471 -0.201354 0.755633 0
M  V30 5449 H 509.055 0.113991 1.94366 0
M  V30 5450 H 507.226 -1.98496 3.33847 0
M  V30 5451 H 508.958 -1.90255 3.57191 0
M  V30 5452 H 505.713 -0.248145 4.72949 0
M  V30 5453 H 506.137 1.61306 6.57502 0
M  V30 5454 H 510.779 -0.0947817 4.22694 0
M  V30 5455 H 508.497 2.85868 7.55847 0
M  V30 5456 H 512.083 1.47083 5.62901 0
M  V30 5457 H 510.963 2.92754 7.27506 0
M  V30 5458 N 508.466 -1.55915 -0.229846 0
M  V30 5459 C 509.712 -1.79718 -0.952517 0
M  V30 5460 C 510.067 -0.61514 -1.82301 0
M  V30 5461 O 509.36 0.391098 -1.87566 0
M  V30 5462 C 509.554 -3.06845 -1.8325 0
M  V30 5463 C 509.383 -4.37302 -1.04868 0
M  V30 5464 C 508.153 -4.99749 -0.746932 0
M  V30 5465 C 510.351 -5.12599 -0.417989 0
M  V30 5466 N 508.333 -6.13871 0.0591596 0
M  V30 5467 C 509.704 -6.19488 0.251879 0
M  V30 5468 C 511.759 -4.96804 -0.33018 0
M  V30 5469 C 510.462 -7.12299 1.00115 0
M  V30 5470 C 512.488 -5.90007 0.4056 0
M  V30 5471 C 511.85 -6.96317 1.06404 0
M  V30 5472 H 507.949 -0.709382 -0.329091 0
M  V30 5473 H 510.533 -1.93406 -0.224114 0
M  V30 5474 H 508.704 -2.94456 -2.53279 0
M  V30 5475 H 510.436 -3.18874 -2.49202 0
M  V30 5476 H 507.191 -4.61518 -1.06292 0
M  V30 5477 H 507.615 -6.75497 0.450798 0
M  V30 5478 H 512.257 -4.14675 -0.824898 0
M  V30 5479 H 509.975 -7.93916 1.50741 0
M  V30 5480 H 513.561 -5.79862 0.474436 0
M  V30 5481 H 512.441 -7.67194 1.62429 0
M  V30 5482 N 509.944 0.496216 -1.49584 0
M  V30 5483 C 510.877 1.61508 -1.61215 0
M  V30 5484 C 511.855 1.55927 -0.461045 0
M  V30 5485 O 513.039 1.75914 -0.677231 0
M  V30 5486 C 510.166 3.00035 -1.57152 0
M  V30 5487 C 509.212 3.23861 -2.77518 0
M  V30 5488 S 510.045 3.06466 -4.39134 0
M  V30 5489 C 511.201 4.4738 -4.37724 0
M  V30 5490 H 511.434 1.51398 -2.55863 0
M  V30 5491 H 508.967 0.681727 -1.38535 0
M  V30 5492 H 510.925 3.7991 -1.55494 0
M  V30 5493 H 509.586 3.07556 -0.637834 0
M  V30 5494 H 508.779 4.25 -2.70908 0
M  V30 5495 H 508.381 2.51716 -2.76614 0
M  V30 5496 H 510.673 5.39556 -4.09738 0
M  V30 5497 H 511.616 4.59038 -5.39156 0
M  V30 5498 H 512.024 4.28283 -3.67742 0
M  V30 5499 N 511.423 1.38739 0.74761 0
M  V30 5500 C 512.651 1.38521 1.53686 0
M  V30 5501 C 513.066 -0.0235129 1.88785 0
M  V30 5502 O 512.423 -0.991662 1.53207 0
M  V30 5503 C 512.474 2.24641 2.83229 0
M  V30 5504 O 512.195 3.60026 2.49625 0
M  V30 5505 C 513.696 2.32669 3.77333 0
M  V30 5506 H 510.916 0.473589 0.475347 0
M  V30 5507 H 513.46 1.82395 0.924786 0
M  V30 5508 H 511.615 1.84213 3.40799 0
M  V30 5509 H 512.029 4.05435 3.3275 0
M  V30 5510 H 513.503 2.97201 4.65162 0
M  V30 5511 H 513.98 1.3421 4.18192 0
M  V30 5512 H 514.586 2.73512 3.25685 0
M  V30 5513 N 512.901 -0.976442 1.23707 0
M  V30 5514 C 514.126 -1.75875 1.09922 0
M  V30 5515 C 514.551 -1.84911 -0.34489 0
M  V30 5516 O 513.909 -1.31363 -1.24954 0
M  V30 5517 C 513.957 -3.16179 1.73388 0
M  V30 5518 O 513.061 -4.00124 0.99871 0
M  V30 5519 H 512.402 -0.540954 0.385052 0
M  V30 5520 H 514.932 -1.22546 1.6384 0
M  V30 5521 H 514.942 -3.66741 1.78788 0
M  V30 5522 H 513.617 -3.08917 2.78466 0
M  V30 5523 H 512.194 -3.58624 1.02193 0
M  V30 5524 N 514.379 -1.04941 -1.1758 0
M  V30 5525 C 515.625 -0.759112 -1.88057 0
M  V30 5526 C 515.958 0.711918 -1.8068 0
M  V30 5527 O 515.233 1.52035 -1.21308 0
M  V30 5528 C 515.516 -1.237 -3.38187 0
M  V30 5529 C 515.369 -2.77078 -3.54327 0
M  V30 5530 C 516.688 -0.834014 -4.32125 0
M  V30 5531 H 513.807 -0.277237 -0.682868 0
M  V30 5532 H 516.449 -1.30296 -1.38286 0
M  V30 5533 H 514.599 -0.774337 -3.80705 0
M  V30 5534 H 516.271 -3.31449 -3.20842 0
M  V30 5535 H 514.514 -3.16477 -2.96689 0
M  V30 5536 H 515.185 -3.05577 -4.59703 0
M  V30 5537 H 517.661 -1.23228 -3.97434 0
M  V30 5538 H 516.537 -1.19603 -5.35711 0
M  V30 5539 H 516.798 0.262195 -4.41322 0
M  V30 5540 N 515.857 1.33968 -0.830081 0
M  V30 5541 C 516.787 2.31911 -0.271911 0
M  V30 5542 C 517.768 1.58571 0.61556 0
M  V30 5543 O 518.953 1.86514 0.540946 0
M  V30 5544 C 516.083 3.42737 0.561146 0
M  V30 5545 C 515.037 4.27383 -0.229789 0
M  V30 5546 C 514.363 5.29742 0.726463 0
M  V30 5547 C 515.663 5.02 -1.44197 0
M  V30 5548 H 517.357 2.78844 -1.09025 0
M  V30 5549 H 514.903 1.34061 -0.52571 0
M  V30 5550 H 516.856 4.10276 0.961867 0
M  V30 5551 H 515.58 2.94471 1.41261 0
M  V30 5552 H 514.239 3.61456 -0.611964 0
M  V30 5553 H 513.887 4.77736 1.57408 0
M  V30 5554 H 513.587 5.87255 0.20142 0
M  V30 5555 H 515.111 6.00149 1.12489 0
M  V30 5556 H 516.525 5.62355 -1.11488 0
M  V30 5557 H 514.922 5.69122 -1.90317 0
M  V30 5558 H 515.992 4.31281 -2.2164 0
M  V30 5559 N 517.335 0.585699 1.46312 0
M  V30 5560 C 518.285 -0.166813 2.27389 0
M  V30 5561 C 519.269 -0.859076 1.36047 0
M  V30 5562 O 520.461 -0.752678 1.60199 0
M  V30 5563 C 517.59 -1.17791 3.2246 0
M  V30 5564 C 516.676 -0.487605 4.21288 0
M  V30 5565 N 517.067 0.45849 5.03718 0
M  V30 5566 C 515.365 -0.737971 4.39852 0
M  V30 5567 C 516.066 0.862213 5.75275 0
M  V30 5568 N 515.042 0.210707 5.43191 0
M  V30 5569 H 518.844 0.560167 2.88512 0
M  V30 5570 H 516.358 0.407715 1.57199 0
M  V30 5571 H 518.355 -1.73122 3.79255 0
M  V30 5572 H 517.015 -1.90568 2.62896 0
M  V30 5573 H 518.026 0.834163 5.11138 0
M  V30 5574 H 514.703 -1.45209 3.91434 0
M  V30 5575 H 516.093 1.64128 6.51546 0
M  V30 5576 N 518.813 -1.54241 0.323641 0
M  V30 5577 C 520.229 -1.59574 -0.0290018 0
M  V30 5578 C 520.429 -1.34017 -1.50472 0
M  V30 5579 O 519.485 -1.12464 -2.26071 0
M  V30 5580 C 520.798 -2.98169 0.389295 0
M  V30 5581 C 522.346 -3.11148 0.339958 0
M  V30 5582 C 522.821 -4.5209 0.733418 0
M  V30 5583 N 524.312 -4.5808 0.686827 0
M  V30 5584 C 525.047 -5.65248 0.963464 0
M  V30 5585 N 524.543 -6.80355 1.30724 0
M  V30 5586 N 526.336 -5.55025 0.88902 0
M  V30 5587 H 518.487 -1.6911 1.28512 0
M  V30 5588 H 520.75 -0.790972 0.522558 0
M  V30 5589 H 520.456 -3.21871 1.41746 0
M  V30 5590 H 520.33 -3.76399 -0.245657 0
M  V30 5591 H 522.717 -2.87182 -0.679002 0
M  V30 5592 H 522.798 -2.35023 1.00985 0
M  V30 5593 H 522.442 -4.76788 1.75029 0
M  V30 5594 H 522.372 -5.26584 0.0412189 0
M  V30 5595 H 524.863 -3.75411 0.43298 0
M  V30 5596 H 525.176 -7.58029 1.5037 0
M  V30 5597 H 523.521 -6.81851 1.3455 0
M  V30 5598 H 526.712 -4.63977 0.619939 0
M  V30 5599 H 526.885 -6.38458 1.10797 0
M  V30 5600 N 520.291 -0.0518155 -1.57515 0
M  V30 5601 C 521.538 0.621823 -1.92716 0
M  V30 5602 C 521.866 1.70813 -0.930229 0
M  V30 5603 O 521.121 1.95616 0.0573708 0
M  V30 5604 C 521.42 1.25607 -3.34601 0
M  V30 5605 C 521.086 0.297901 -4.49915 0
M  V30 5606 C 519.748 0.034243 -4.81188 0
M  V30 5607 C 522.1 -0.358738 -5.19964 0
M  V30 5608 C 519.428 -0.893479 -5.79857 0
M  V30 5609 C 521.78 -1.27466 -6.19625 0
M  V30 5610 C 520.444 -1.54698 -6.49326 0
M  V30 5611 H 519.714 0.227541 -0.705199 0
M  V30 5612 H 522.361 -0.118432 -1.91133 0
M  V30 5613 H 520.666 2.07161 -3.32553 0
M  V30 5614 H 522.363 1.78424 -3.59118 0
M  V30 5615 H 518.953 0.513581 -4.25512 0
M  V30 5616 H 523.137 -0.168133 -4.96015 0
M  V30 5617 H 518.393 -1.11193 -6.01204 0
M  V30 5618 H 522.567 -1.78953 -6.73015 0
M  V30 5619 H 520.194 -2.26748 -7.25596 0
M  V30 5620 N 521.769 1.56035 0.221574 0
M  V30 5621 C 523.18 1.69229 0.788567 0
M  V30 5622 C 523.531 0.653814 1.84986 0
M  V30 5623 O 522.656 -0.195065 2.15519 0
M  V30 5624 C 523.251 3.06809 1.43713 0
M  V30 5625 C 521.81 3.21858 1.95152 0
M  V30 5626 C 520.957 2.65155 0.811685 0
M  V30 5627 H 523.908 1.587 -0.00307894 0
M  V30 5628 H 523.929 3.02666 2.30594 0
M  V30 5629 H 523.441 3.82369 0.664475 0
M  V30 5630 H 521.542 2.51167 2.7522 0
M  V30 5631 H 521.655 4.29073 2.1315 0
M  V30 5632 H 520.019 2.23635 1.21899 0
M  V30 5633 H 520.802 3.43261 0.0516987 0
M  V30 5634 N 523.247 -0.488276 1.49845 0
M  V30 5635 C 524.524 -1.24959 1.50481 0
M  V30 5636 C 524.904 -2.09735 0.239698 0
M  V30 5637 O 524.252 -2.14865 -0.777524 0
M  V30 5638 C 524.462 -2.0954 2.79095 0
M  V30 5639 C 525.81 -2.68305 3.29086 0
M  V30 5640 O 526.834 -2.19797 2.80299 0
M  V30 5641 O 525.693 -3.56643 4.14087 0
M  V30 5642 H 522.787 -0.566133 0.602845 0
M  V30 5643 H 525.333 -0.501504 1.6212 0
M  V30 5644 H 524.105 -1.46958 3.62656 0
M  V30 5645 H 523.728 -2.91517 2.70377 0
M  V30 5646 N 524.725 -1.39134 -0.740242 0
M  V30 5647 C 525.953 -1.39334 -1.5295 0
M  V30 5648 C 526.368 0.0135008 -1.88795 0
M  V30 5649 O 525.725 0.983524 -1.5373 0
M  V30 5650 C 525.776 -2.2614 -2.82034 0
M  V30 5651 O 525.497 -3.61345 -2.47712 0
M  V30 5652 C 526.998 -2.34666 -3.76094 0
M  V30 5653 H 524.218 -0.476103 -0.472828 0
M  V30 5654 H 526.762 -1.82883 -0.9151 0
M  V30 5655 H 524.917 -1.86018 -3.39818 0
M  V30 5656 H 525.331 -4.07194 -3.30595 0
M  V30 5657 H 526.805 -2.99663 -4.63579 0
M  V30 5658 H 527.282 -1.36426 -4.17474 0
M  V30 5659 H 527.888 -2.75236 -3.2423 0
M  V30 5660 N 526.204 0.969867 -1.24223 0
M  V30 5661 C 527.481 1.68774 -0.988664 0
M  V30 5662 C 527.861 2.05342 0.489673 0
M  V30 5663 O 527.209 1.75486 1.46345 0
M  V30 5664 C 527.419 2.92135 -1.90941 0
M  V30 5665 C 528.767 3.64422 -2.17903 0
M  V30 5666 O 529.791 3.02188 -1.88576 0
M  V30 5667 O 528.65 4.76446 -2.67697 0
M  V30 5668 H 525.744 0.737736 -0.37373 0
M  V30 5669 H 528.29 1.02415 -1.35312 0
M  V30 5670 H 527.062 2.61788 -2.90831 0
M  V30 5671 H 526.685 3.66228 -1.54798 0
M  V30 5672 N 527.682 1.05563 1.17022 0
M  V30 5673 C 528.645 0.664098 2.19368 0
M  V30 5674 C 529.645 -0.286358 1.5823 0
M  V30 5675 O 530.835 -0.069728 1.7406 0
M  V30 5676 C 527.967 -0.0239932 3.40892 0
M  V30 5677 H 529.16 1.57 2.55521 0
M  V30 5678 H 526.713 0.849964 1.31169 0
M  V30 5679 H 527.448 -0.942988 3.10287 0
M  V30 5680 H 527.233 0.659351 3.86516 0
M  V30 5681 H 528.723 -0.283909 4.16634 0
M  V30 5682 N 529.16 -1.33526 0.837174 0
M  V30 5683 C 530.407 -1.97837 0.432064 0
M  V30 5684 C 530.735 -1.66324 -1.00829 0
M  V30 5685 O 529.99 -0.93448 -1.71948 0
M  V30 5686 C 530.289 -3.52367 0.597675 0
M  V30 5687 C 529.955 -4.03826 2.00587 0
M  V30 5688 C 528.617 -4.1759 2.39106 0
M  V30 5689 C 530.969 -4.31333 2.92576 0
M  V30 5690 C 528.297 -4.56195 3.68921 0
M  V30 5691 C 530.649 -4.7139 4.2187 0
M  V30 5692 C 529.313 -4.8336 4.60347 0
M  V30 5693 H 528.583 -0.723937 0.158104 0
M  V30 5694 H 531.23 -1.5923 1.06387 0
M  V30 5695 H 529.535 -3.91624 -0.117452 0
M  V30 5696 H 531.232 -4.00126 0.26454 0
M  V30 5697 H 527.822 -3.93586 1.69671 0
M  V30 5698 H 532.006 -4.20224 2.64056 0
M  V30 5699 H 527.262 -4.63655 3.9854 0
M  V30 5700 H 531.436 -4.91631 4.93226 0
M  V30 5701 H 529.063 -5.1303 5.60985 0
M  V30 5702 N 530.638 -0.59345 -1.46 0
M  V30 5703 C 531.863 -0.0872365 -2.07216 0
M  V30 5704 C 532.288 1.2131 -1.43755 0
M  V30 5705 O 531.646 1.73528 -0.525152 0
M  V30 5706 C 531.694 0.0538197 -3.6056 0
M  V30 5707 O 530.798 1.10765 -3.97247 0
M  V30 5708 H 530.139 -0.0676598 -0.660544 0
M  V30 5709 H 532.669 -0.819445 -1.87473 0
M  V30 5710 H 532.679 0.256567 -4.07193 0
M  V30 5711 H 531.354 -0.895739 -4.0614 0
M  V30 5712 H 529.931 0.882501 -3.62307 0
M  V30 5713 N 532.116 1.54067 -0.331816 0
M  V30 5714 C 533.048 2.22139 0.564538 0
M  V30 5715 C 534.061 1.22408 1.07332 0
M  V30 5716 O 535.25 1.4883 0.985481 0
M  V30 5717 C 532.35 2.87876 1.78831 0
M  V30 5718 C 531.523 4.13817 1.41682 0
M  V30 5719 C 530.582 4.63072 2.49901 0
M  V30 5720 O 529.608 5.27562 2.13699 0
M  V30 5721 N 530.81 4.38001 3.80967 0
M  V30 5722 H 533.575 2.99694 -0.0183736 0
M  V30 5723 H 531.136 1.61153 -0.155396 0
M  V30 5724 H 533.128 3.17747 2.50637 0
M  V30 5725 H 531.698 2.13977 2.27887 0
M  V30 5726 H 530.918 3.9062 0.530044 0
M  V30 5727 H 532.206 4.95762 1.14443 0
M  V30 5728 H 531.604 3.864 4.13173 0
M  V30 5729 H 530.161 4.72507 4.48977 0
M  V30 5730 N 533.594 0.0601682 1.57485 0
M  V30 5731 C 535.01 -0.296422 1.56823 0
M  V30 5732 C 535.21 -1.70831 1.0686 0
M  V30 5733 O 534.266 -2.4174 0.729245 0
M  V30 5734 C 535.579 -0.116681 3.00474 0
M  V30 5735 C 537.127 -0.187103 3.1244 0
M  V30 5736 C 537.602 -0.035783 4.57986 0
M  V30 5737 N 539.093 -0.0917676 4.63109 0
M  V30 5738 C 539.828 0.00107251 5.734 0
M  V30 5739 N 539.324 0.146773 6.92645 0
M  V30 5740 N 541.117 -0.0551577 5.62073 0
M  V30 5741 H 533.268 0.983055 1.88281 0
M  V30 5742 H 535.531 0.382386 0.867459 0
M  V30 5743 H 535.237 0.85712 3.41096 0
M  V30 5744 H 535.111 -0.873929 3.66936 0
M  V30 5745 H 537.498 -1.15138 2.71712 0
M  V30 5746 H 537.579 0.601052 2.48638 0
M  V30 5747 H 537.223 0.925212 4.99402 0
M  V30 5748 H 537.153 -0.843196 5.19806 0
M  V30 5749 H 539.644 -0.203261 3.77353 0
M  V30 5750 H 539.957 0.210076 7.72514 0
M  V30 5751 H 538.302 0.181979 6.94762 0
M  V30 5752 H 541.493 -0.167605 4.678 0
M  V30 5753 H 541.666 0.020652 6.47997 0
M  V30 5754 N 535.072 -1.5615 -0.213296 0
M  V30 5755 C 536.321 -1.78743 -0.93455 0
M  V30 5756 C 536.634 -0.630199 -1.8517 0
M  V30 5757 O 537.84 -0.739966 -2.61222 0
M  V30 5758 C 536.296 -3.16571 -1.71203 0
M  V30 5759 C 535.904 -4.40043 -0.840617 0
M  V30 5760 C 537.648 -3.48485 -2.42401 0
M  V30 5761 C 535.555 -5.68895 -1.61592 0
M  V30 5762 H 534.485 -0.666426 -0.352692 0
M  V30 5763 H 537.136 -1.82532 -0.188227 0
M  V30 5764 H 535.518 -3.06981 -2.50157 0
M  V30 5765 H 536.692 -4.6071 -0.0910326 0
M  V30 5766 H 535.007 -4.15706 -0.240365 0
M  V30 5767 H 537.604 -4.41983 -3.00924 0
M  V30 5768 H 537.947 -2.71371 -3.15695 0
M  V30 5769 H 538.48 -3.59442 -1.7043 0
M  V30 5770 H 535.219 -6.48925 -0.926106 0
M  V30 5771 H 534.739 -5.52275 -2.33991 0
M  V30 5772 H 536.418 -6.09365 -2.17447 0
M  V30 5773 N 536.55 0.480323 -1.50102 0
M  V30 5774 C 537.482 1.59669 -1.64433 0
M  V30 5775 C 538.495 1.54063 -0.52615 0
M  V30 5776 O 539.684 1.59619 -0.798992 0
M  V30 5777 C 536.784 2.98527 -1.6042 0
M  V30 5778 C 535.957 3.291 -2.88117 0
M  V30 5779 C 535.016 4.47468 -2.76873 0
M  V30 5780 O 534.042 4.4823 -3.50825 0
M  V30 5781 N 535.244 5.48593 -1.89806 0
M  V30 5782 H 538.009 1.47795 -2.60723 0
M  V30 5783 H 535.57 0.66858 -1.4745 0
M  V30 5784 H 537.562 3.75666 -1.50523 0
M  V30 5785 H 536.132 3.04218 -0.719036 0
M  V30 5786 H 535.352 2.40662 -3.12211 0
M  V30 5787 H 536.64 3.46334 -3.72734 0
M  V30 5788 H 536.038 5.50791 -1.2902 0
M  V30 5789 H 534.595 6.24752 -1.85819 0
M  V30 5790 N 538.028 1.39524 0.732853 0
M  V30 5791 C 538.96 1.34318 1.85718 0
M  V30 5792 C 539.973 0.251576 1.60844 0
M  V30 5793 O 541.162 0.510685 1.71039 0
M  V30 5794 C 538.262 1.06334 3.21786 0
M  V30 5795 C 537.435 2.26813 3.73998 0
M  V30 5796 C 536.494 1.95253 4.88634 0
M  V30 5797 O 535.52 2.67957 5.02183 0
M  V30 5798 N 536.722 0.919984 5.73164 0
M  V30 5799 H 539.487 2.3121 1.90688 0
M  V30 5800 H 537.048 1.33654 0.91368 0
M  V30 5801 H 539.04 0.832363 3.96048 0
M  V30 5802 H 537.61 0.181682 3.12072 0
M  V30 5803 H 536.83 2.65849 2.91064 0
M  V30 5804 H 538.118 3.0717 4.05616 0
M  V30 5805 H 537.516 0.317487 5.64808 0
M  V30 5806 H 536.073 0.748905 6.47483 0
M  V30 5807 N 539.506 -0.963266 1.24736 0
M  V30 5808 C 540.734 -1.74166 1.11686 0
M  V30 5809 C 541.149 -1.8589 -0.330187 0
M  V30 5810 O 540.506 -1.35042 -1.2276 0
M  V30 5811 C 540.557 -3.15989 1.75595 0
M  V30 5812 O 540.278 -3.04847 3.14642 0
M  V30 5813 C 541.779 -4.10145 1.68213 0
M  V30 5814 H 538.999 -0.546031 0.389989 0
M  V30 5815 H 541.543 -1.20907 1.64929 0
M  V30 5816 H 539.698 -3.66219 1.26343 0
M  V30 5817 H 540.112 -3.9425 3.4593 0
M  V30 5818 H 541.586 -5.07299 2.17604 0
M  V30 5819 H 542.063 -4.3445 0.644208 0
M  V30 5820 H 542.669 -3.65827 2.16912 0
M  V30 5821 N 540.985 -1.06182 -1.16461 0
M  V30 5822 C 541.895 -0.682671 -2.24448 0
M  V30 5823 C 542.911 0.30078 -1.71381 0
M  V30 5824 O 544.087 0.150376 -2.00838 0
M  V30 5825 C 541.152 -0.0737202 -3.46622 0
M  V30 5826 C 540.213 -1.10889 -4.14731 0
M  V30 5827 C 539.446 -0.528908 -5.31073 0
M  V30 5828 O 539.669 0.65868 -5.66584 0
M  V30 5829 O 538.603 -1.26805 -5.88391 0
M  V30 5830 H 542.429 -1.58291 -2.59187 0
M  V30 5831 H 540.014 -0.834013 -1.23954 0
M  V30 5832 H 541.896 0.264192 -4.20571 0
M  V30 5833 H 540.571 0.800015 -3.13658 0
M  V30 5834 H 539.478 -1.49896 -3.42756 0
M  V30 5835 H 540.811 -1.95412 -4.51747 0
M  V30 5836 N 542.463 1.3308 -0.844243 0
M  V30 5837 C 543.393 2.3161 -0.296493 0
M  V30 5838 C 544.374 1.59215 0.598707 0
M  V30 5839 O 545.559 1.87077 0.521134 0
M  V30 5840 C 542.689 3.43313 0.524762 0
M  V30 5841 C 541.643 4.27115 -0.275106 0
M  V30 5842 C 540.969 5.30483 0.670236 0
M  V30 5843 C 542.269 5.00443 -1.49514 0
M  V30 5844 H 543.963 2.77672 -1.11976 0
M  V30 5845 H 541.509 1.33496 -0.539899 0
M  V30 5846 H 543.462 4.11273 0.918298 0
M  V30 5847 H 542.186 2.95952 1.3813 0
M  V30 5848 H 540.845 3.60787 -0.650267 0
M  V30 5849 H 540.493 4.79379 1.52332 0
M  V30 5850 H 540.193 5.87435 0.139123 0
M  V30 5851 H 541.717 6.01308 1.06117 0
M  V30 5852 H 543.131 5.61141 -1.17447 0
M  V30 5853 H 541.528 5.67071 -1.96343 0
M  V30 5854 H 542.598 4.28906 -2.26202 0
M  V30 5855 N 543.941 0.601185 1.45683 0
M  V30 5856 C 544.851 -0.123395 2.34275 0
M  V30 5857 C 545.867 -0.86702 1.5086 0
M  V30 5858 O 547.043 -0.826049 1.8368 0
M  V30 5859 C 544.108 -1.11237 3.2837 0
M  V30 5860 C 543.169 -0.371405 4.2769 0
M  V30 5861 C 542.402 -1.31327 5.1729 0
M  V30 5862 O 542.625 -2.55078 5.10188 0
M  V30 5863 O 541.559 -0.813811 5.96373 0
M  V30 5864 H 545.385 0.604483 2.97623 0
M  V30 5865 H 542.97 0.361477 1.44961 0
M  V30 5866 H 544.852 -1.68214 3.8637 0
M  V30 5867 H 543.527 -1.82139 2.67595 0
M  V30 5868 H 542.434 0.24067 3.73325 0
M  V30 5869 H 543.767 0.296998 4.91303 0
M  V30 5870 N 545.419 -1.53889 0.339982 0
M  V30 5871 C 546.649 -2.04973 -0.258738 0
M  V30 5872 C 547.057 -1.21485 -1.45045 0
M  V30 5873 O 546.4 -0.2422 -1.82096 0
M  V30 5874 C 546.462 -3.51783 -0.740853 0
M  V30 5875 C 546.126 -4.55802 0.330734 0
M  V30 5876 C 547.123 -5.06512 1.17226 0
M  V30 5877 C 544.808 -4.99966 0.483637 0
M  V30 5878 C 546.802 -5.99963 2.15227 0
M  V30 5879 C 544.489 -5.93229 1.46704 0
M  V30 5880 C 545.487 -6.43115 2.29981 0
M  V30 5881 O 545.175 -7.34545 3.26649 0
M  V30 5882 H 544.907 -0.673807 -0.0544037 0
M  V30 5883 H 547.461 -1.99492 0.489107 0
M  V30 5884 H 545.691 -3.54717 -1.53988 0
M  V30 5885 H 547.38 -3.85857 -1.25973 0
M  V30 5886 H 548.146 -4.73158 1.0652 0
M  V30 5887 H 544.025 -4.6074 -0.15471 0
M  V30 5888 H 547.569 -6.38825 2.80265 0
M  V30 5889 H 543.466 -6.25998 1.57468 0
M  V30 5890 H 544.234 -7.52468 3.22078 0
M  V30 5891 N 546.897 -0.0685191 -1.57451 0
M  V30 5892 C 548.127 0.609577 -1.97402 0
M  V30 5893 C 548.535 1.63882 -0.945489 0
M  V30 5894 O 547.878 1.8354 0.0766052 0
M  V30 5895 C 547.94 1.3385 -3.33653 0
M  V30 5896 C 547.604 0.463103 -4.54648 0
M  V30 5897 C 548.601 -0.277964 -5.19156 0
M  V30 5898 C 546.286 0.388941 -5.00792 0
M  V30 5899 C 548.28 -1.08145 -6.28159 0
M  V30 5900 C 545.967 -0.418217 -6.09667 0
M  V30 5901 C 546.965 -1.15208 -6.73213 0
M  V30 5902 O 546.653 -1.94594 -7.79993 0
M  V30 5903 H 546.385 0.170197 -0.654224 0
M  V30 5904 H 548.939 -0.13647 -2.04946 0
M  V30 5905 H 547.169 2.13055 -3.22714 0
M  V30 5906 H 548.858 1.90851 -3.58233 0
M  V30 5907 H 549.624 -0.230241 -4.84453 0
M  V30 5908 H 545.503 0.949769 -4.5111 0
M  V30 5909 H 549.047 -1.65476 -6.7769 0
M  V30 5910 H 544.944 -0.467515 -6.43805 0
M  V30 5911 H 545.712 -1.8699 -7.96854 0
M  V30 5912 N 548.375 1.56261 0.205012 0
M  V30 5913 C 549.305 1.96779 1.257 0
M  V30 5914 C 550.286 0.838309 1.48008 0
M  V30 5915 O 551.471 1.10189 1.59913 0
M  V30 5916 C 548.601 2.29876 2.60335 0
M  V30 5917 C 547.555 3.45469 2.52656 0
M  V30 5918 C 546.881 3.64215 3.91473 0
M  V30 5919 C 548.181 4.79954 2.06014 0
M  V30 5920 H 549.875 2.84904 0.920338 0
M  V30 5921 H 547.421 1.37072 0.441277 0
M  V30 5922 H 549.374 2.56814 3.34102 0
M  V30 5923 H 548.098 1.38622 2.95722 0
M  V30 5924 H 546.757 3.18605 1.81345 0
M  V30 5925 H 546.405 2.70309 4.24196 0
M  V30 5926 H 546.105 4.41973 3.87213 0
M  V30 5927 H 547.629 3.93519 4.66878 0
M  V30 5928 H 549.043 5.05989 2.69533 0
M  V30 5929 H 547.44 5.61111 2.12777 0
M  V30 5930 H 548.51 4.74201 1.01297 0
M  V30 5931 N 549.853 -0.472356 1.50355 0
M  V30 5932 C 551.101 -1.22211 1.60962 0
M  V30 5933 C 551.422 -1.92497 0.311439 0
M  V30 5934 O 550.692 -1.8405 -0.671002 0
M  V30 5935 H 549.272 -0.454092 0.593135 0
M  V30 5936 H 551.934 -0.544977 1.87126 0
M  V30 5937 H 551.03 -1.9707 2.42012 0
M  V30 5938 N 551.331 -1.39911 -0.725443 0
M  V30 5939 C 552.556 -1.41137 -1.5197 0
M  V30 5940 C 552.981 -0.010262 -1.88097 0
M  V30 5941 O 552.339 0.979184 -1.52583 0
M  V30 5942 C 552.387 -2.2994 -2.77777 0
M  V30 5943 O 551.491 -1.73586 -3.74088 0
M  V30 5944 H 550.832 -0.480219 -0.458569 0
M  V30 5945 H 553.362 -1.84023 -0.894249 0
M  V30 5946 H 553.372 -2.44785 -3.26411 0
M  V30 5947 H 552.047 -3.31759 -2.50816 0
M  V30 5948 H 550.624 -1.68035 -3.32894 0
M  V30 5949 N 552.809 0.956637 -1.25245 0
M  V30 5950 C 553.719 2.0868 -1.0719 0
M  V30 5951 C 554.735 1.73997 -0.00959074 0
M  V30 5952 O 555.911 2.00301 -0.210104 0
M  V30 5953 C 552.976 3.39754 -0.690526 0
M  V30 5954 C 552.037 3.88316 -1.83055 0
M  V30 5955 C 551.27 5.13134 -1.46728 0
M  V30 5956 O 551.493 5.6925 -0.362029 0
M  V30 5957 O 550.427 5.56356 -2.29677 0
M  V30 5958 H 554.253 2.26813 -2.01965 0
M  V30 5959 H 551.838 1.07098 -1.04165 0
M  V30 5960 H 553.72 4.18543 -0.489871 0
M  V30 5961 H 552.395 3.22896 0.227981 0
M  V30 5962 H 551.302 3.1054 -2.08604 0
M  V30 5963 H 552.635 4.09669 -2.72822 0
M  V30 5964 N 554.287 1.06798 1.15896 0
M  V30 5965 C 555.25 0.687328 2.18651 0
M  V30 5966 C 556.25 -0.269559 1.58524 0
M  V30 5967 O 557.44 -0.0512627 1.74125 0
M  V30 5968 C 554.572 0.0121642 3.40898 0
M  V30 5969 H 555.765 1.59701 2.53842 0
M  V30 5970 H 553.318 0.863828 1.3026 0
M  V30 5971 H 554.053 -0.910025 3.1127 0
M  V30 5972 H 553.838 0.700309 3.85795 0
M  V30 5973 H 555.328 -0.239703 4.16911 0
M  V30 5974 N 555.766 -1.3263 0.851289 0
M  V30 5975 C 557.014 -1.96978 0.452128 0
M  V30 5976 C 557.335 -1.67715 -0.99482 0
M  V30 5977 O 556.605 -0.98259 -1.69476 0
M  V30 5978 H 555.185 -0.72873 0.164202 0
M  V30 5979 H 557.847 -1.61774 1.08698 0
M  V30 5980 H 556.943 -3.06387 0.594407 0
M  V30 5981 N 557.244 -0.608902 -1.45362 0
M  V30 5982 C 558.174 0.0964526 -2.33301 0
M  V30 5983 C 559.155 0.857444 -1.46908 0
M  V30 5984 O 560.34 0.827735 -1.75676 0
M  V30 5985 C 557.47 1.09354 -3.29635 0
M  V30 5986 C 556.424 0.445676 -4.25673 0
M  V30 5987 C 555.75 1.5511 -5.11708 0
M  V30 5988 C 557.05 -0.633972 -5.18438 0
M  V30 5989 H 558.744 -0.637829 -2.92527 0
M  V30 5990 H 556.29 -0.308178 -1.40664 0
M  V30 5991 H 558.243 1.59556 -3.90025 0
M  V30 5992 H 556.967 1.85843 -2.6857 0
M  V30 5993 H 555.626 -0.0354897 -3.66583 0
M  V30 5994 H 555.274 2.30631 -4.4701 0
M  V30 5995 H 554.974 1.12311 -5.76767 0
M  V30 5996 H 556.498 2.05537 -5.74967 0
M  V30 5997 H 557.912 -0.215974 -5.72893 0
M  V30 5998 H 556.309 -0.983789 -5.91981 0
M  V30 5999 H 557.379 -1.51005 -4.60788 0
M  V30 6000 N 558.722 1.53707 -0.348139 0
M  V30 6001 C 559.685 2.23812 0.494058 0
M  V30 6002 C 560.685 1.23989 1.02388 0
M  V30 6003 O 561.875 1.48395 0.912396 0
M  V30 6004 C 559.007 2.96133 1.68872 0
M  V30 6005 H 560.2 2.99663 -0.119141 0
M  V30 6006 H 557.753 1.55983 -0.0995539 0
M  V30 6007 H 558.488 2.24481 2.34049 0
M  V30 6008 H 558.273 3.69357 1.31596 0
M  V30 6009 H 559.763 3.49475 2.28597 0
M  V30 6010 N 560.2 0.0768682 1.57412 0
M  V30 6011 C 561.428 -0.59997 1.9801 0
M  V30 6012 C 561.843 -1.62842 0.955408 0
M  V30 6013 O 561.2 -1.8241 -0.057314 0
M  V30 6014 C 561.251 -1.26401 3.38681 0
M  V30 6015 O 560.972 -0.276723 4.37225 0
M  V30 6016 C 562.473 -2.0282 3.94182 0
M  V30 6017 H 559.693 -0.162239 0.651091 0
M  V30 6018 H 562.237 0.150771 2.03943 0
M  V30 6019 H 560.392 -1.96581 3.33819 0
M  V30 6020 H 560.806 -0.753744 5.19056 0
M  V30 6021 H 562.28 -2.44667 4.94815 0
M  V30 6022 H 562.757 -2.88678 3.31001 0
M  V30 6023 H 563.363 -1.37496 4.02461 0
M  V30 6024 N 561.678 -1.56367 -0.196722 0
M  V30 6025 C 562.927 -1.79724 -0.915539 0
M  V30 6026 C 563.24 -0.649804 -1.84491 0
M  V30 6027 O 564.446 -0.767631 -2.60422 0
M  V30 6028 C 562.902 -3.18369 -1.67836 0
M  V30 6029 C 562.51 -4.4091 -0.793897 0
M  V30 6030 C 564.254 -3.51037 -2.38691 0
M  V30 6031 C 562.161 -5.70577 -1.55549 0
M  V30 6032 H 561.091 -0.67013 -0.345604 0
M  V30 6033 H 563.742 -1.82721 -0.168856 0
M  V30 6034 H 562.124 -3.09617 -2.46887 0
M  V30 6035 H 563.298 -4.60781 -0.042163 0
M  V30 6036 H 561.613 -4.15937 -0.19626 0
M  V30 6037 H 564.21 -4.4515 -2.96219 0
M  V30 6038 H 564.553 -2.74704 -3.12799 0
M  V30 6039 H 565.086 -3.61229 -1.66608 0
M  V30 6040 H 561.825 -6.49871 -0.857226 0
M  V30 6041 H 561.345 -5.54726 -2.2812 0
M  V30 6042 H 563.024 -6.11637 -2.10971 0
M  V30 6043 N 563.156 0.464375 -1.50603 0
M  V30 6044 C 564.119 1.54393 -1.69397 0
M  V30 6045 C 565.119 1.50566 -0.564504 0
M  V30 6046 O 566.309 1.53066 -0.831645 0
M  V30 6047 C 563.441 2.9401 -1.72543 0
M  V30 6048 H 564.634 1.39044 -2.65719 0
M  V30 6049 H 562.187 0.69122 -1.40185 0
M  V30 6050 H 562.922 3.14795 -0.77938 0
M  V30 6051 H 562.707 2.98195 -2.54602 0
M  V30 6052 H 564.197 3.72375 -1.89015 0
M  V30 6053 N 564.634 1.40294 0.718013 0
M  V30 6054 C 565.544 1.42678 1.86226 0
M  V30 6055 C 566.56 0.319655 1.71039 0
M  V30 6056 O 567.736 0.563852 1.93346 0
M  V30 6057 C 564.801 1.2852 3.21999 0
M  V30 6058 C 563.862 2.49354 3.49458 0
M  V30 6059 C 563.095 2.35863 4.78753 0
M  V30 6060 O 563.318 1.37114 5.53675 0
M  V30 6061 O 562.252 3.25189 5.06494 0
M  V30 6062 H 566.078 2.39167 1.87171 0
M  V30 6063 H 563.663 1.2159 0.868112 0
M  V30 6064 H 565.545 1.22824 4.03103 0
M  V30 6065 H 564.22 0.351359 3.21787 0
M  V30 6066 H 563.127 2.60628 2.68373 0
M  V30 6067 H 564.46 3.41491 3.54464 0
M  V30 6068 N 566.112 -0.949982 1.2575 0
M  V30 6069 C 567.06 -2.06869 1.06339 0
M  V30 6070 C 568.054 -1.69399 -0.00708901 0
M  V30 6071 O 569.26 -1.79383 0.148897 0
M  V30 6072 H 565.635 -0.677197 0.326969 0
M  V30 6073 H 567.606 -2.20396 2.01167 0
M  V30 6074 C 566.355 -3.40503 0.703769 0
M  V30 6075 H 565.678 -3.69807 1.51931 0
M  V30 6076 H 567.118 -4.19623 0.607677 0
M  V30 6077 C 565.577 -3.31685 -0.5905 0
M  V30 6078 O 566.107 -3.67085 -1.63131 0
M  V30 6079 N 564.313 -2.84797 -0.577859 0
M  V30 6080 H 563.86 -2.56186 0.26951 0
M  V30 6081 H 563.818 -2.79279 -1.44398 0
M  V30 6082 N 567.59 -1.07411 -1.15328 0
M  V30 6083 C 568.82 -0.817595 -1.89734 0
M  V30 6084 C 569.228 0.63297 -1.78298 0
M  V30 6085 O 568.571 1.44594 -1.13306 0
M  V30 6086 C 568.633 -1.14748 -3.40695 0
M  V30 6087 C 568.297 -2.59876 -3.75917 0
M  V30 6088 C 569.294 -3.58122 -3.76888 0
M  V30 6089 C 566.979 -2.95469 -4.06206 0
M  V30 6090 C 568.973 -4.89996 -4.07655 0
M  V30 6091 C 566.66 -4.2754 -4.36638 0
M  V30 6092 C 567.658 -5.24614 -4.37344 0
M  V30 6093 O 567.346 -6.54312 -4.67045 0
M  V30 6094 H 567.078 -0.295175 -0.608151 0
M  V30 6095 H 569.632 -1.43409 -1.47048 0
M  V30 6096 H 567.862 -0.47395 -3.83785 0
M  V30 6097 H 569.551 -0.873397 -3.96392 0
M  V30 6098 H 570.317 -3.31966 -3.53587 0
M  V30 6099 H 566.196 -2.20558 -4.04815 0
M  V30 6100 H 569.74 -5.65759 -4.08121 0
M  V30 6101 H 565.637 -4.53449 -4.59407 0
M  V30 6102 H 566.405 -6.59473 -4.84807 0
M  V30 6103 N 569.068 1.32177 -0.85831 0
M  V30 6104 C 570.314 1.97417 -0.46417 0
M  V30 6105 C 570.647 1.67746 0.978514 0
M  V30 6106 O 569.922 0.967654 1.68721 0
M  V30 6107 C 570.205 3.53069 -0.708094 0
M  V30 6108 C 570.058 3.92357 -2.19946 0
M  V30 6109 C 571.377 4.39783 -0.166881 0
M  V30 6110 H 568.496 0.717097 -0.17012 0
M  V30 6111 H 571.138 1.56499 -1.07741 0
M  V30 6112 H 569.288 3.88054 -0.186128 0
M  V30 6113 H 570.96 3.67533 -2.78779 0
M  V30 6114 H 569.203 3.41384 -2.67656 0
M  V30 6115 H 569.874 5.00841 -2.32082 0
M  V30 6116 H 572.35 4.11556 -0.613285 0
M  V30 6117 H 571.226 5.47671 -0.367093 0
M  V30 6118 H 571.487 4.32196 0.930559 0
M  V30 6119 N 570.547 0.616602 1.45037 0
M  V30 6120 C 571.795 0.115103 2.01772 0
M  V30 6121 C 572.116 -1.2622 1.48639 0
M  V30 6122 O 571.386 -1.83563 0.684199 0
M  V30 6123 H 569.966 0.0395607 0.745952 0
M  V30 6124 H 572.628 0.800032 1.77723 0
M  V30 6125 H 571.724 0.0717274 3.12018 0
M  V30 6126 N 572.025 -1.5352 0.356285 0
M  V30 6127 C 572.955 -2.28372 -0.486661 0
M  V30 6128 C 573.936 -1.30432 -1.09185 0
M  V30 6129 O 575.121 -1.59291 -1.11085 0
M  V30 6130 C 572.251 -3.06604 -1.63129 0
M  V30 6131 C 571.205 -4.12154 -1.15381 0
M  V30 6132 C 570.531 -4.78415 -2.38796 0
M  V30 6133 C 571.831 -5.21724 -0.245179 0
M  V30 6134 H 573.525 -2.99083 0.137797 0
M  V30 6135 H 571.071 -1.43841 0.0677134 0
M  V30 6136 H 573.024 -3.57712 -2.22755 0
M  V30 6137 H 571.748 -2.33568 -2.28284 0
M  V30 6138 H 570.407 -3.61978 -0.580294 0
M  V30 6139 H 570.055 -4.01959 -3.02387 0
M  V30 6140 H 569.755 -5.49734 -2.07524 0
M  V30 6141 H 571.279 -5.32313 -2.99125 0
M  V30 6142 H 572.693 -5.68391 -0.748646 0
M  V30 6143 H 571.09 -6.00095 -0.0237608 0
M  V30 6144 H 572.16 -4.79596 0.715229 0
M  V30 6145 N 573.503 -0.0852151 -1.57369 0
M  V30 6146 C 574.914 0.445428 -1.81309 0
M  V30 6147 C 575.265 1.68795 -1.00013 0
M  V30 6148 O 574.39 2.15211 -0.226573 0
M  V30 6149 C 574.985 0.814887 -3.28854 0
M  V30 6150 C 573.544 1.29032 -3.53592 0
M  V30 6151 C 572.691 0.282089 -2.75861 0
M  V30 6152 H 575.642 -0.310771 -1.55627 0
M  V30 6153 H 575.663 1.67524 -3.41637 0
M  V30 6154 H 575.175 -0.0896309 -3.87996 0
M  V30 6155 H 573.276 2.21289 -2.9977 0
M  V30 6156 H 573.389 1.25898 -4.62262 0
M  V30 6157 H 571.753 0.762182 -2.43029 0
M  V30 6158 H 572.536 -0.614936 -3.37748 0
M  V30 6159 N 574.981 1.5647 0.188427 0
M  V30 6160 C 576.211 1.84863 0.922463 0
M  V30 6161 C 576.619 0.666413 1.77075 0
M  V30 6162 O 575.962 -0.374044 1.79852 0
M  V30 6163 C 576.024 3.07447 1.86324 0
M  V30 6164 C 575.688 4.41066 1.19625 0
M  V30 6165 C 576.685 5.16767 0.569946 0
M  V30 6166 C 574.37 4.87802 1.19811 0
M  V30 6167 C 576.364 6.37384 -0.045594 0
M  V30 6168 C 574.051 6.08353 0.57874 0
M  V30 6169 C 575.049 6.82987 -0.0420259 0
M  V30 6170 O 574.737 8.01254 -0.651675 0
M  V30 6171 H 574.469 0.61784 0.274316 0
M  V30 6172 H 577.023 2.04437 0.198613 0
M  V30 6173 H 575.253 2.83774 2.62696 0
M  V30 6174 H 576.942 3.2243 2.46564 0
M  V30 6175 H 577.708 4.81749 0.560601 0
M  V30 6176 H 573.587 4.29662 1.67069 0
M  V30 6177 H 577.131 6.95578 -0.530731 0
M  V30 6178 H 573.028 6.42838 0.58561 0
M  V30 6179 H 573.796 8.16655 -0.549236 0
M  V30 6180 N 576.459 -0.456382 1.50847 0
M  V30 6181 C 577.369 -1.57805 1.73594 0
M  V30 6182 C 578.385 -1.62599 0.619476 0
M  V30 6183 O 579.561 -1.80195 0.899532 0
M  V30 6184 C 576.626 -2.93926 1.8387 0
M  V30 6185 C 575.687 -2.99402 3.07663 0
M  V30 6186 C 574.92 -4.29031 3.1744 0
M  V30 6187 O 575.143 -5.20358 2.33631 0
M  V30 6188 O 574.077 -4.40401 4.10281 0
M  V30 6189 H 577.903 -1.41531 2.68705 0
M  V30 6190 H 575.488 -0.637422 1.3512 0
M  V30 6191 H 577.37 -3.74747 1.92725 0
M  V30 6192 H 576.045 -3.10368 0.91944 0
M  V30 6193 H 574.952 -2.17606 3.043 0
M  V30 6194 H 576.285 -2.87901 3.99216 0
M  V30 6195 N 577.937 -1.40673 -0.710563 0
M  V30 6196 C 578.847 -1.43663 -1.85467 0
M  V30 6197 C 579.863 -0.328721 -1.70867 0
M  V30 6198 O 581.039 -0.574098 -1.93044 0
M  V30 6199 C 578.104 -1.30226 -3.21313 0
M  V30 6200 C 577.165 -2.51204 -3.48131 0
M  V30 6201 C 576.398 -2.38398 -4.77495 0
M  V30 6202 O 576.621 -1.40048 -5.5294 0
M  V30 6203 O 575.555 -3.2787 -5.04762 0
M  V30 6204 H 579.381 -2.40156 -1.859 0
M  V30 6205 H 576.966 -1.22049 -0.861652 0
M  V30 6206 H 578.848 -1.2496 -4.02446 0
M  V30 6207 H 577.523 -0.368419 -3.21597 0
M  V30 6208 H 576.43 -2.62048 -2.66987 0
M  V30 6209 H 577.763 -3.43366 -3.52648 0
M  V30 6210 N 579.415 0.9433 -1.26252 0
M  V30 6211 C 580.664 1.68369 -1.11062 0
M  V30 6212 C 580.977 1.92514 0.346104 0
M  V30 6213 O 582.183 2.64358 0.618646 0
M  V30 6214 C 580.639 3.03171 -1.93946 0
M  V30 6215 C 580.247 2.86782 -3.4418 0
M  V30 6216 C 581.991 3.80916 -1.87359 0
M  V30 6217 C 579.898 4.17044 -4.19319 0
M  V30 6218 H 578.828 0.631469 -0.412023 0
M  V30 6219 H 581.479 1.04922 -1.50544 0
M  V30 6220 H 579.861 3.67587 -1.47296 0
M  V30 6221 H 581.035 2.31229 -3.98585 0
M  V30 6222 H 579.35 2.22482 -3.51981 0
M  V30 6223 H 581.947 4.77417 -2.40784 0
M  V30 6224 H 582.29 4.07658 -0.843857 0
M  V30 6225 H 582.823 3.2327 -2.31821 0
M  V30 6226 H 579.562 3.95487 -5.22753 0
M  V30 6227 H 579.082 4.72319 -3.69696 0
M  V30 6228 H 580.761 4.85513 -4.27651 0
M  V30 6229 N 580.893 1.08022 1.14757 0
M  V30 6230 C 581.803 0.718292 2.23333 0
M  V30 6231 C 582.819 -0.273477 1.71837 0
M  V30 6232 O 583.995 -0.118406 2.01052 0
M  V30 6233 C 581.06 0.128855 3.4646 0
M  V30 6234 C 580.121 1.17473 4.12915 0
M  V30 6235 C 579.354 0.61333 5.30164 0
M  V30 6236 O 579.577 -0.568458 5.6756 0
M  V30 6237 O 578.511 1.3615 5.86299 0
M  V30 6238 H 582.337 1.62394 2.56636 0
M  V30 6239 H 579.922 0.853628 1.22611 0
M  V30 6240 H 581.804 -0.197249 4.20938 0
M  V30 6241 H 580.479 -0.750014 3.14891 0
M  V30 6242 H 579.386 1.5533 3.40328 0
M  V30 6243 H 580.719 2.02574 4.48581 0
M  V30 6244 O 582.41 -1.2689 0.999054 0
M  V30 6245 H 583.101 -1.82419 0.651387 0
M  V30 END ATOM
M  V30 BEGIN BOND
M  V30 END BOND
M  V30 END CTAB
M  END
$$$$
