drugbank_target|P24670 3-dehydroquinate dehydratase (DB03746)
 OpenBabel12092120003D

  0  0  0     0  0            999 V3000
M  V30 BEGIN CTAB
M  V30 COUNTS 3905 3936 0 0 0
M  V30 BEGIN ATOM
M  V30 1 H -0.908 1.98254 -0.117106 0
M  V30 2 N 0 1.576 0 0
M  V30 3 C 0.933 2.03868 1.02534 0
M  V30 4 C 1.911 0.928543 1.3348 0
M  V30 5 O 3.095 1.19667 1.45644 0
M  V30 6 C 0.222 2.43627 2.35294 0
M  V30 7 C -0.732 3.65373 2.2001 0
M  V30 8 S 0.101 5.13292 1.52614 0
M  V30 9 C 1.257 5.56322 2.86805 0
M  V30 10 H 1.49 2.90518 0.631377 0
M  V30 11 H -0.977 1.52953 0.210867 0
M  V30 12 H 0.981 2.67203 3.11629 0
M  V30 13 H -0.358 1.57376 2.7183 0
M  V30 14 H -1.165 3.90944 3.18086 0
M  V30 15 H -1.563 3.418 1.51819 0
M  V30 16 H 0.729 5.58782 3.83104 0
M  V30 17 H 1.672 6.56266 2.65933 0
M  V30 18 H 2.08 4.83886 2.90714 0
M  V30 19 N 1.4781 -0.272755 1.55222 0
M  V30 20 C 2.4251 -1.33716 1.88119 0
M  V30 21 C 3.3951 -1.49066 0.73271 0
M  V30 22 O 4.5801 -1.63469 0.984002 0
M  V30 23 C 1.7201 -2.69238 2.15882 0
M  V30 24 C 0.8331 -2.62108 3.43399 0
M  V30 25 C -0.0319 -3.89811 3.60861 0
M  V30 26 C -0.9929 -3.77193 4.8207 0
M  V30 27 N -1.8559 -4.9673 4.96189 0
M  V30 28 H 2.9841 -1.04962 2.78903 0
M  V30 29 H 0.5211 -0.507088 1.38083 0
M  V30 30 H 2.4791 -3.48089 2.29978 0
M  V30 31 H 1.1091 -2.96194 1.28331 0
M  V30 32 H 0.1611 -1.74967 3.37773 0
M  V30 33 H 1.4731 -2.48685 4.32386 0
M  V30 34 H 0.6271 -4.77103 3.74777 0
M  V30 35 H -0.6339 -4.06102 2.7006 0
M  V30 36 H -1.6289 -2.88284 4.68159 0
M  V30 37 H -0.4039 -3.62421 5.74307 0
M  V30 38 H -2.4579 -5.13431 4.08319 0
M  V30 39 H -2.5409 -4.85839 5.79221 0
M  V30 40 H -1.2729 -5.85594 5.1449 0
M  V30 41 N 2.9562 -1.48159 -0.537278 0
M  V30 42 C 4.1842 -1.59454 -1.31841 0
M  V30 43 C 4.5992 -0.252065 -1.8711 0
M  V30 44 O 3.9562 0.757621 -1.66031 0
M  V30 45 C 4.0072 -2.63546 -2.47439 0
M  V30 46 O 3.7282 -3.92583 -1.94449 0
M  V30 47 C 5.2292 -2.85212 -3.39366 0
M  V30 48 H 2.4492 -0.53785 -0.401196 0
M  V30 49 H 4.9932 -1.93932 -0.648891 0
M  V30 50 H 3.1482 -2.31946 -3.1029 0
M  V30 51 H 3.5622 -4.49629 -2.70063 0
M  V30 52 H 5.0362 -3.61863 -4.16844 0
M  V30 53 H 5.5132 -1.93765 -3.94147 0
M  V30 54 H 6.1192 -3.18086 -2.82314 0
M  V30 55 N 4.4343 0.785586 -1.36625 0
M  V30 56 C 5.6803 1.54591 -1.31261 0
M  V30 57 C 6.0133 1.93906 0.106823 0
M  V30 58 O 5.2883 1.63007 1.06108 0
M  V30 59 C 5.5713 2.82038 -2.23889 0
M  V30 60 C 5.4243 2.49066 -3.74548 0
M  V30 61 C 6.7433 3.83887 -2.15217 0
M  V30 62 H 3.8623 0.560846 -0.478143 0
M  V30 63 H 6.5043 0.902278 -1.67209 0
M  V30 64 H 4.6543 3.36961 -1.93363 0
M  V30 65 H 6.3263 2.00164 -4.15611 0
M  V30 66 H 4.5693 1.81954 -3.93796 0
M  V30 67 H 5.2403 3.40109 -4.34776 0
M  V30 68 H 7.7163 3.38421 -2.42096 0
M  V30 69 H 6.5923 4.70806 -2.82193 0
M  V30 70 H 6.8533 4.27131 -1.14068 0
M  V30 71 N 5.9124 1.20967 1.01018 0
M  V30 72 C 7.1404 1.04956 1.78303 0
M  V30 73 C 7.5554 -0.400915 1.84494 0
M  V30 74 O 6.9124 -1.27826 1.30257 0
M  V30 75 C 6.9634 1.63403 3.22462 0
M  V30 76 O 6.6844 3.02775 3.16637 0
M  V30 77 C 8.1854 1.52432 4.16268 0
M  V30 78 H 5.4054 0.368858 0.560522 0
M  V30 79 H 7.9494 1.60193 1.27116 0
M  V30 80 H 6.1044 1.1227 3.70775 0
M  V30 81 H 6.5184 3.30626 4.07169 0
M  V30 82 H 7.9924 1.98078 5.15237 0
M  V30 83 H 8.4694 0.477875 4.36592 0
M  V30 84 H 9.0754 2.02787 3.73841 0
M  V30 85 N 7.3905 -1.2043 1.01659 0
M  V30 86 C 8.6365 -1.90079 0.706963 0
M  V30 87 C 8.9695 -1.78648 -0.761474 0
M  V30 88 O 8.2445 -1.17069 -1.55323 0
M  V30 89 C 8.5275 -3.41469 1.14327 0
M  V30 90 C 8.3805 -3.61833 2.67201 0
M  V30 91 C 9.6995 -4.34261 0.714529 0
M  V30 92 H 6.8185 -0.690254 0.2583 0
M  V30 93 H 9.4605 -1.41826 1.26433 0
M  V30 94 H 7.6105 -3.82696 0.669056 0
M  V30 95 H 9.2825 -3.2986 3.22475 0
M  V30 96 H 7.5255 -3.05304 3.08175 0
M  V30 97 H 8.1965 -4.67955 2.92783 0
M  V30 98 H 10.6725 -4.00682 1.12221 0
M  V30 99 H 9.5485 -5.38806 1.04784 0
M  V30 100 H 9.8095 -4.40431 -0.383799 0
M  V30 101 N 8.8686 -0.792821 -1.36206 0
M  V30 102 C 9.8156 -0.191653 -2.30003 0
M  V30 103 C 10.7856 0.666453 -1.52143 0
M  V30 104 O 11.9706 0.61442 -1.80636 0
M  V30 105 C 9.1106 0.664848 -3.38635 0
M  V30 106 C 8.2236 -0.212175 -4.31479 0
M  V30 107 C 7.3586 0.651022 -5.27196 0
M  V30 108 C 6.3976 -0.227247 -6.11678 0
M  V30 109 N 5.5346 0.595127 -6.99573 0
M  V30 110 H 10.3746 -0.996978 -2.80828 0
M  V30 111 H 7.9116 -0.503206 -1.38225 0
M  V30 112 H 9.8696 1.17645 -4.00269 0
M  V30 113 H 8.4996 1.43557 -2.89122 0
M  V30 114 H 7.5516 -0.841777 -3.70969 0
M  V30 115 H 8.8636 -0.888751 -4.90818 0
M  V30 116 H 8.0176 1.2283 -5.94136 0
M  V30 117 H 6.7566 1.36121 -4.68319 0
M  V30 118 H 5.7616 -0.816904 -5.43697 0
M  V30 119 H 6.9866 -0.93509 -6.72631 0
M  V30 120 H 4.9326 1.28955 -6.432 0
M  V30 121 H 4.8496 -0.0236952 -7.55996 0
M  V30 122 H 6.1176 1.15613 -7.70879 0
M  V30 123 N 10.3467 1.47872 -0.545128 0
M  V30 124 C 11.2947 2.31533 0.222512 0
M  V30 125 C 12.2887 1.42177 0.920985 0
M  V30 126 O 13.4947 1.59005 0.843645 0
M  V30 127 H 9.8697 0.746519 0.0906278 0
M  V30 128 H 11.8407 2.94139 -0.50246 0
M  V30 129 C 10.5897 3.2457 1.24699 0
M  V30 130 H 9.9127 3.93283 0.718944 0
M  V30 131 H 11.3527 3.85963 1.75523 0
M  V30 132 C 9.8117 2.47237 2.28856 0
M  V30 133 O 10.3417 2.20808 3.35569 0
M  V30 134 N 8.5477 2.08461 2.02466 0
M  V30 135 H 8.0947 2.30155 1.157 0
M  V30 136 H 8.0527 1.57033 2.72375 0
M  V30 137 N 11.8248 0.280983 1.55075 0
M  V30 138 C 12.7548 -0.597469 2.25727 0
M  V30 139 C 13.7358 -1.15417 1.24952 0
M  V30 140 O 14.9208 -1.18722 1.53684 0
M  V30 141 C 12.0508 -1.7789 2.98283 0
M  V30 142 C 11.0048 -1.35347 4.06036 0
M  V30 143 C 10.3308 -2.61846 4.66198 0
M  V30 144 C 11.6308 -0.499354 5.19907 0
M  V30 145 H 13.3248 -0.00824265 2.99399 0
M  V30 146 H 10.8708 -0.0025244 1.44 0
M  V30 147 H 12.8238 -2.39937 3.46422 0
M  V30 148 H 11.5478 -2.39405 2.22155 0
M  V30 149 H 10.2068 -0.756156 3.58717 0
M  V30 150 H 9.8548 -3.21632 3.86732 0
M  V30 151 H 9.5548 -2.3409 5.38958 0
M  V30 152 H 11.0788 -3.24732 5.1709 0
M  V30 153 H 12.4928 -1.02498 5.64063 0
M  V30 154 H 10.8898 -0.316424 5.99265 0
M  V30 155 H 11.9598 0.480459 4.82514 0
M  V30 156 N 13.3029 -1.57598 0.00835791 0
M  V30 157 C 14.5519 -1.90107 -0.673968 0
M  V30 158 C 14.8649 -0.884275 -1.7447 0
M  V30 159 O 16.0709 -1.09987 -2.48224 0
M  V30 160 C 14.5269 -3.37497 -1.24995 0
M  V30 161 C 14.1349 -4.47491 -0.2136 0
M  V30 162 C 15.8789 -3.79104 -1.90999 0
M  V30 163 C 13.7859 -5.85963 -0.80005 0
M  V30 164 H 12.7159 -0.709393 -0.255495 0
M  V30 165 H 15.3669 -1.83365 0.0702693 0
M  V30 166 H 13.7489 -3.39102 -2.04513 0
M  V30 167 H 14.9229 -4.57414 0.557596 0
M  V30 168 H 13.2379 -4.14956 0.346474 0
M  V30 169 H 15.8349 -4.79901 -2.35795 0
M  V30 170 H 16.1779 -3.1306 -2.74407 0
M  V30 171 H 16.7109 -3.79833 -1.18203 0
M  V30 172 H 13.4499 -6.555 -0.00456708 0
M  V30 173 H 12.9699 -5.79687 -1.54021 0
M  V30 174 H 14.6489 -6.33884 -1.29615 0
M  V30 175 N 14.781 0.264519 -1.55364 0
M  V30 176 C 16.03 0.992812 -1.75574 0
M  V30 177 C 16.343 1.87142 -0.568979 0
M  V30 178 O 17.549 2.63513 -0.653682 0
M  V30 179 C 16.005 1.81519 -3.10771 0
M  V30 180 C 15.613 0.984839 -4.37041 0
M  V30 181 C 17.357 2.53727 -3.40327 0
M  V30 182 C 15.264 1.80209 -5.63275 0
M  V30 183 H 14.194 0.374412 -0.65447 0
M  V30 184 H 16.845 0.248138 -1.81815 0
M  V30 185 H 15.227 2.60115 -2.98591 0
M  V30 186 H 16.401 0.242455 -4.60162 0
M  V30 187 H 14.716 0.37691 -4.14691 0
M  V30 188 H 17.313 3.15292 -4.3185 0
M  V30 189 H 17.656 3.24447 -2.60845 0
M  V30 190 H 18.189 1.82156 -3.53644 0
M  V30 191 H 14.928 1.13896 -6.45529 0
M  V30 192 H 14.448 2.52022 -5.44284 0
M  V30 193 H 16.127 2.37364 -6.01887 0
M  V30 194 N 16.2591 1.48442 0.529413 0
M  V30 195 C 17.5071 1.56179 1.28267 0
M  V30 196 C 17.8281 0.237721 1.93546 0
M  V30 197 O 17.0981 -0.740779 1.81354 0
M  V30 198 H 15.6781 0.575367 0.476405 0
M  V30 199 H 18.3401 1.84909 0.61602 0
M  V30 200 H 17.4361 2.34312 2.06165 0
M  V30 201 N 17.7372 -0.778329 1.37039 0
M  V30 202 C 18.6472 -1.92253 1.34446 0
M  V30 203 C 19.6632 -1.72267 0.244991 0
M  V30 204 O 20.8392 -1.95615 0.479258 0
M  V30 205 C 17.9042 -3.27282 1.144 0
M  V30 206 C 16.9652 -3.59969 2.33925 0
M  V30 207 C 16.1982 -4.88555 2.14825 0
M  V30 208 O 16.4212 -5.59113 1.12912 0
M  V30 209 O 15.3552 -5.20153 3.02861 0
M  V30 210 H 19.1812 -1.97392 2.30803 0
M  V30 211 H 16.7662 -0.920154 1.17701 0
M  V30 212 H 18.6482 -4.08062 1.05182 0
M  V30 213 H 17.3232 -3.23011 0.211124 0
M  V30 214 H 16.2302 -2.7945 2.48714 0
M  V30 215 H 17.5632 -3.68976 3.25757 0
M  V30 216 N 19.2153 -1.21501 -1.00376 0
M  V30 217 C 20.4633 -1.03095 -1.73827 0
M  V30 218 C 20.7843 0.436341 -1.90055 0
M  V30 219 O 20.0543 1.31466 -1.45236 0
M  V30 220 H 18.6343 -0.378487 -0.644016 0
M  V30 221 H 21.2963 -1.52831 -1.20949 0
M  V30 222 H 20.3923 -1.49991 -2.73695 0
M  V30 223 N 20.6934 1.19889 -1.02296 0
M  V30 224 C 21.6264 2.21639 -0.543282 0
M  V30 225 C 22.6044 1.57275 0.412698 0
M  V30 226 O 23.7884 1.85568 0.331198 0
M  V30 227 C 20.9154 3.38057 0.208571 0
M  V30 228 C 19.9614 4.20751 -0.697933 0
M  V30 229 S 20.7944 4.89529 -2.17075 0
M  V30 230 C 21.9504 6.09363 -1.42923 0
M  V30 231 H 22.1834 2.61984 -1.40541 0
M  V30 232 H 19.7164 1.30041 -0.832387 0
M  V30 233 H 21.6744 4.05539 0.63624 0
M  V30 234 H 20.3354 2.96159 1.04635 0
M  V30 235 H 19.5284 5.03862 -0.117831 0
M  V30 236 H 19.1304 3.58556 -1.06366 0
M  V30 237 H 21.4224 6.73742 -0.712637 0
M  V30 238 H 22.3654 6.71845 -2.23673 0
M  V30 239 H 22.7734 5.56798 -0.929327 0
M  V30 240 N 22.1715 0.800033 1.35784 0
M  V30 241 C 23.5825 0.439142 1.81462 0
M  V30 242 C 23.9335 -1.03813 1.66485 0
M  V30 243 O 23.0585 -1.80626 1.19177 0
M  V30 244 C 23.6535 0.790314 3.29453 0
M  V30 245 C 22.2125 0.482111 3.733 0
M  V30 246 C 21.3595 1.01938 2.57883 0
M  V30 247 H 24.3105 0.992254 1.23855 0
M  V30 248 H 24.3315 0.0853677 3.80404 0
M  V30 249 H 23.8435 1.86554 3.40322 0
M  V30 250 H 21.9445 -0.584652 3.67984 0
M  V30 251 H 22.0575 1.01015 4.6833 0
M  V30 252 H 20.4215 0.442043 2.50835 0
M  V30 253 H 21.2045 2.10059 2.71533 0
M  V30 254 N 23.6496 -1.47581 0.552962 0
M  V30 255 C 24.5966 -2.29957 -0.197108 0
M  V30 256 C 25.5666 -1.38799 -0.912359 0
M  V30 257 O 26.7516 -1.67761 -0.908888 0
M  V30 258 C 23.8916 -3.22672 -1.22379 0
M  V30 259 C 23.0046 -4.28919 -0.515038 0
M  V30 260 C 22.1396 -5.0879 -1.52664 0
M  V30 261 C 21.1786 -6.06815 -0.802631 0
M  V30 262 N 20.3156 -6.7966 -1.76086 0
M  V30 263 H 25.1556 -2.93578 0.511486 0
M  V30 264 H 22.6926 -1.4471 0.264067 0
M  V30 265 H 24.6506 -3.74845 -1.83159 0
M  V30 266 H 23.2806 -2.60925 -1.90047 0
M  V30 267 H 22.3326 -3.79835 0.207192 0
M  V30 268 H 23.6446 -4.98773 0.0523425 0
M  V30 269 H 22.7986 -5.65091 -2.20809 0
M  V30 270 H 21.5376 -4.38828 -2.12794 0
M  V30 271 H 20.5426 -5.49695 -0.107238 0
M  V30 272 H 21.7676 -6.78784 -0.207135 0
M  V30 273 H 19.7136 -6.12432 -2.35081 0
M  V30 274 H 19.6306 -7.45669 -1.24552 0
M  V30 275 H 20.8986 -7.40538 -2.43359 0
M  V30 276 N 25.1277 -0.289203 -1.54924 0
M  V30 277 C 26.3767 0.324231 -1.99077 0
M  V30 278 C 26.6897 1.5591 -1.18117 0
M  V30 279 O 27.8957 2.24637 -1.52481 0
M  V30 280 C 26.3517 0.628209 -3.54375 0
M  V30 281 C 25.9597 -0.587647 -4.44129 0
M  V30 282 C 27.7037 1.20349 -4.07083 0
M  V30 283 C 25.6107 -0.257475 -5.90839 0
M  V30 284 H 24.5407 0.124924 -0.743579 0
M  V30 285 H 27.1917 -0.396063 -1.79175 0
M  V30 286 H 25.5737 1.40778 -3.70132 0
M  V30 287 H 26.7477 -1.36418 -4.40144 0
M  V30 288 H 25.0627 -1.08074 -4.0213 0
M  V30 289 H 27.6597 1.46456 -5.14252 0
M  V30 290 H 28.0027 2.14195 -3.56968 0
M  V30 291 H 28.5357 0.485889 -3.94821 0
M  V30 292 H 25.2747 -1.16419 -6.45079 0
M  V30 293 H 24.7947 0.482018 -5.9786 0
M  V30 294 H 26.4737 0.145238 -6.46837 0
M  V30 295 N 26.6058 1.57591 -0.0167156 0
M  V30 296 C 27.8548 1.90461 0.663877 0
M  V30 297 C 28.1678 0.893515 1.73999 0
M  V30 298 O 29.3738 1.11302 2.47637 0
M  V30 299 C 27.8298 3.38155 1.23204 0
M  V30 300 C 27.4378 4.47597 0.189866 0
M  V30 301 C 29.1818 3.80111 1.88986 0
M  V30 302 C 27.0888 5.86379 0.768964 0
M  V30 303 H 26.0188 0.710738 0.251729 0
M  V30 304 H 28.6698 1.83326 -0.0799926 0
M  V30 305 H 27.0518 3.40182 2.02712 0
M  V30 306 H 28.2258 4.57112 -0.581846 0
M  V30 307 H 26.5408 4.14766 -0.368475 0
M  V30 308 H 29.1378 4.81145 2.33247 0
M  V30 309 H 29.4808 3.14511 2.72743 0
M  V30 310 H 30.0138 3.80454 1.16187 0
M  V30 311 H 26.7528 6.55493 -0.0301957 0
M  V30 312 H 26.2728 5.80496 1.50945 0
M  V30 313 H 27.9518 6.34563 1.26251 0
M  V30 314 N 28.0839 -0.256276 1.55502 0
M  V30 315 C 29.3299 -0.987079 1.77157 0
M  V30 316 C 29.6629 -1.85327 0.580315 0
M  V30 317 O 28.9379 -1.89874 -0.421686 0
M  V30 318 C 29.2209 -1.85553 3.08613 0
M  V30 319 C 29.0739 -1.01816 4.38125 0
M  V30 320 C 30.3929 -2.8397 3.36228 0
M  V30 321 H 27.5119 -0.357428 0.644526 0
M  V30 322 H 30.1539 -0.258239 1.88237 0
M  V30 323 H 28.3039 -2.47695 2.99298 0
M  V30 324 H 29.9759 -0.416159 4.59419 0
M  V30 325 H 28.2189 -0.322178 4.32602 0
M  V30 326 H 28.8899 -1.65939 5.26468 0
M  V30 327 H 31.3659 -2.31964 3.45445 0
M  V30 328 H 30.2419 -3.41864 4.29442 0
M  V30 329 H 30.5029 -3.59955 2.56681 0
M  V30 330 N 29.562 -1.4872 -0.521534 0
M  V30 331 C 30.787 -1.61101 -1.30618 0
M  V30 332 C 31.212 -0.274611 -1.86085 0
M  V30 333 O 30.57 0.754937 -1.64834 0
M  V30 334 C 30.618 -2.66709 -2.4269 0
M  V30 335 O 29.722 -2.24456 -3.45967 0
M  V30 336 H 29.063 -0.539921 -0.386499 0
M  V30 337 H 31.593 -1.94767 -0.626645 0
M  V30 338 H 31.603 -2.88245 -2.88754 0
M  V30 339 H 30.278 -3.63727 -2.01682 0
M  V30 340 H 28.855 -2.13168 -3.05964 0
M  V30 341 N 31.0401 0.771051 -1.3745 0
M  V30 342 C 31.9701 1.89827 -1.3597 0
M  V30 343 C 32.9511 1.68562 -0.228216 0
M  V30 344 O 34.1361 1.8941 -0.428675 0
M  V30 345 C 31.2661 3.2712 -1.16662 0
M  V30 346 C 30.2201 3.6295 -2.2683 0
M  V30 347 C 29.5461 4.98791 -1.92644 0
M  V30 348 C 30.8461 3.69627 -3.69017 0
M  V30 349 H 32.5401 1.91323 -2.30295 0
M  V30 350 H 30.0861 0.919082 -1.10855 0
M  V30 351 H 32.0391 4.05615 -1.14256 0
M  V30 352 H 30.7631 3.26059 -0.187926 0
M  V30 353 H 29.4221 2.86763 -2.28392 0
M  V30 354 H 29.0701 4.94271 -0.933021 0
M  V30 355 H 28.7701 5.23733 -2.66416 0
M  V30 356 H 30.2941 5.79685 -1.91826 0
M  V30 357 H 31.7081 4.38273 -3.69581 0
M  V30 358 H 30.1051 4.06067 -4.41848 0
M  V30 359 H 31.1751 2.70273 -4.02592 0
M  V30 360 N 32.5182 1.22032 0.997298 0
M  V30 361 C 33.4512 0.929735 2.08401 0
M  V30 362 C 34.4292 -0.125681 1.62114 0
M  V30 363 O 35.6132 0.00495409 1.88499 0
M  V30 364 C 32.7402 0.397488 3.3636 0
M  V30 365 C 31.7862 1.4369 4.01566 0
M  V30 366 S 32.6192 3.00874 4.42984 0
M  V30 367 C 33.7752 2.49276 5.74119 0
M  V30 368 H 34.0082 1.84998 2.32729 0
M  V30 369 H 31.5412 1.0509 1.13117 0
M  V30 370 H 33.4992 0.0969846 4.10385 0
M  V30 371 H 32.1602 -0.501571 3.10069 0
M  V30 372 H 31.3532 1.01427 4.93689 0
M  V30 373 H 30.9552 1.68588 3.33847 0
M  V30 374 H 33.2472 1.90242 6.50242 0
M  V30 375 H 34.1902 3.39872 6.21203 0
M  V30 376 H 34.5982 1.90714 5.31308 0
M  V30 377 N 33.9963 -1.19345 1.0293 0
M  V30 378 C 35.2443 -1.88665 0.724574 0
M  V30 379 C 35.5653 -1.80036 -0.749144 0
M  V30 380 O 34.8353 -1.2111 -1.53978 0
M  V30 381 H 33.4153 -0.698406 0.265025 0
M  V30 382 H 36.0773 -1.44885 1.30362 0
M  V30 383 H 35.1733 -2.94987 1.01926 0
M  V30 384 N 35.4744 -0.807222 -1.35358 0
M  V30 385 C 36.8904 -0.491038 -1.51858 0
M  V30 386 C 37.0904 0.987648 -1.75635 0
M  V30 387 O 36.1464 1.77265 -1.79815 0
M  V30 388 C 37.4594 -1.33695 -2.69344 0
M  V30 389 C 39.0074 -1.33246 -2.83222 0
M  V30 390 C 39.4824 -2.1625 -4.03733 0
M  V30 391 N 40.9734 -2.1379 -4.10911 0
M  V30 392 C 41.7084 -2.74772 -5.03277 0
M  V30 393 N 41.2044 -3.44684 -6.0097 0
M  V30 394 N 42.9974 -2.6441 -4.96028 0
M  V30 395 H 35.1484 -1.76485 -1.18181 0
M  V30 396 H 37.4114 -0.751199 -0.578276 0
M  V30 397 H 37.1174 -2.38634 -2.58354 0
M  V30 398 H 36.9914 -0.990618 -3.6396 0
M  V30 399 H 39.3784 -0.290911 -2.93663 0
M  V30 400 H 39.4594 -1.71866 -1.89461 0
M  V30 401 H 39.1034 -3.20445 -3.94052 0
M  V30 402 H 39.0334 -1.74989 -4.96675 0
M  V30 403 H 41.5244 -1.62923 -3.40976 0
M  V30 404 H 41.8374 -3.88501 -6.68047 0
M  V30 405 H 40.1824 -3.48788 -6.01142 0
M  V30 406 H 43.3734 -2.0938 -4.18662 0
M  V30 407 H 43.5464 -3.12225 -5.6782 0
M  V30 408 N 36.9525 1.47285 -0.560781 0
M  V30 409 C 38.2295 1.9558 0.0277798 0
M  V30 410 C 38.6095 1.5034 1.48192 0
M  V30 411 O 37.9575 0.743882 2.16052 0
M  V30 412 C 38.1675 3.48789 -0.121418 0
M  V30 413 C 39.5155 4.24594 0.0220912 0
M  V30 414 O 40.5395 3.56166 -0.0491439 0
M  V30 415 O 39.3985 5.46217 0.175958 0
M  V30 416 H 36.4925 0.824663 0.0621342 0
M  V30 417 H 39.0385 1.5767 -0.627556 0
M  V30 418 H 37.8105 3.74533 -1.13316 0
M  V30 419 H 37.4335 3.93473 0.571366 0
M  V30 420 N 38.4306 0.297415 1.54768 0
M  V30 421 C 39.6796 -0.313669 1.99246 0
M  V30 422 C 39.9926 -1.55281 1.18942 0
M  V30 423 O 41.1986 -2.23825 1.5367 0
M  V30 424 C 39.6546 -0.609407 3.54703 0
M  V30 425 C 39.2626 0.611192 4.43811 0
M  V30 426 C 41.0066 -1.18188 4.07715 0
M  V30 427 C 38.9136 0.288805 5.90694 0
M  V30 428 H 37.8436 -0.120979 0.744231 0
M  V30 429 H 40.4946 0.40556 1.78962 0
M  V30 430 H 38.8766 -1.38813 3.70873 0
M  V30 431 H 40.0506 1.3875 4.39414 0
M  V30 432 H 38.3656 1.10205 4.01552 0
M  V30 433 H 40.9626 -1.43727 5.15021 0
M  V30 434 H 41.3056 -2.12299 3.58099 0
M  V30 435 H 41.8386 -0.464944 3.95074 0
M  V30 436 H 38.5776 1.19838 6.44453 0
M  V30 437 H 38.0976 -0.450305 5.98107 0
M  V30 438 H 39.7766 -0.110933 6.46905 0
M  V30 439 N 39.9087 -1.5758 0.0250728 0
M  V30 440 C 40.8567 -2.11125 -0.97617 0
M  V30 441 C 41.8507 -1.03689 -1.33959 0
M  V30 442 O 43.0567 -1.22128 -1.3223 0
M  V30 443 H 39.4317 -0.674468 -0.332561 0
M  V30 444 H 41.4027 -2.94194 -0.499223 0
M  V30 445 C 40.1517 -2.65017 -2.2508 0
M  V30 446 H 39.4747 -3.47333 -1.9799 0
M  V30 447 H 40.9147 -3.06133 -2.93357 0
M  V30 448 C 39.3737 -1.57574 -2.97779 0
M  V30 449 O 39.9037 -0.973203 -3.89733 0
M  V30 450 N 38.1097 -1.29716 -2.60043 0
M  V30 451 H 37.6567 -1.789 -1.85345 0
M  V30 452 H 37.6147 -0.58051 -3.08994 0
M  V30 453 N 41.3868 0.248026 -1.55636 0
M  V30 454 C 42.6118 0.998028 -1.81808 0
M  V30 455 C 43.0368 1.78207 -0.601979 0
M  V30 456 O 42.3948 1.75653 0.448961 0
M  V30 457 C 42.4428 1.9125 -3.05705 0
M  V30 458 O 41.5468 3.00406 -2.82542 0
M  V30 459 H 40.8878 0.284045 -0.600179 0
M  V30 460 H 43.4178 0.269357 -2.02819 0
M  V30 461 H 43.4278 2.32737 -3.35108 0
M  V30 462 H 42.1028 1.33602 -3.93857 0
M  V30 463 H 40.6798 2.63056 -2.64303 0
M  V30 464 N 42.8649 1.48995 0.513639 0
M  V30 465 C 44.1109 1.58076 1.27042 0
M  V30 466 C 44.4439 0.261026 1.92438 0
M  V30 467 O 43.7189 -0.734393 1.80103 0
M  V30 468 C 44.0019 2.73091 2.34719 0
M  V30 469 C 43.8549 4.14821 1.73907 0
M  V30 470 C 45.1739 2.83796 3.36375 0
M  V30 471 H 42.2929 0.575391 0.460536 0
M  V30 472 H 44.9349 1.81232 0.570516 0
M  V30 473 H 43.0849 2.53479 2.94416 0
M  V30 474 H 44.7569 4.45917 1.18135 0
M  V30 475 H 42.9999 4.21058 1.0437 0
M  V30 476 H 43.6709 4.91147 2.51949 0
M  V30 477 H 46.1469 3.01611 2.86653 0
M  V30 478 H 45.0229 3.65971 4.09093 0
M  V30 479 H 45.2839 1.92624 3.9793 0
M  V30 480 N 44.343 -0.763751 1.37857 0
M  V30 481 C 45.29 -1.87726 1.34267 0
M  V30 482 C 46.26 -1.64807 0.206879 0
M  V30 483 O 47.445 -1.86613 0.397508 0
M  V30 484 C 44.585 -3.24896 1.16346 0
M  V30 485 C 43.698 -3.59716 2.39225 0
M  V30 486 C 42.833 -4.86137 2.14114 0
M  V30 487 C 41.872 -5.13711 3.32817 0
M  V30 488 N 41.009 -6.31323 3.07206 0
M  V30 489 H 45.849 -1.90129 2.29466 0
M  V30 490 H 43.386 -0.929433 1.14017 0
M  V30 491 H 45.344 -4.04036 1.03975 0
M  V30 492 H 43.974 -3.21847 0.247909 0
M  V30 493 H 43.026 -2.75498 2.62307 0
M  V30 494 H 44.338 -3.76027 3.27728 0
M  V30 495 H 43.492 -5.73198 1.9882 0
M  V30 496 H 42.231 -4.71945 1.22961 0
M  V30 497 H 41.236 -4.25123 3.48641 0
M  V30 498 H 42.461 -5.29807 4.24832 0
M  V30 499 H 40.407 -6.18474 2.1869 0
M  V30 500 H 40.324 -6.48087 3.89254 0
M  V30 501 H 41.592 -7.213 2.95546 0
M  V30 502 N 45.8211 -1.22559 -0.990812 0
M  V30 503 C 46.7841 -0.998863 -2.0629 0
M  V30 504 C 47.7841 0.0354834 -1.60761 0
M  V30 505 O 48.9741 -0.203231 -1.7301 0
M  V30 506 C 46.1061 -0.509203 -3.37076 0
M  V30 507 H 47.2991 -1.95014 -2.27837 0
M  V30 508 H 44.8521 -1.04456 -1.16269 0
M  V30 509 H 45.5871 0.446335 -3.21214 0
M  V30 510 H 45.3721 -1.25547 -3.71457 0
M  V30 511 H 46.8621 -0.370888 -4.1595 0
M  V30 512 N 47.2992 1.18797 -1.03562 0
M  V30 513 C 48.2092 2.25913 -0.632505 0
M  V30 514 C 49.2252 1.70668 0.338882 0
M  V30 515 O 50.4012 2.00453 0.195076 0
M  V30 516 C 47.4662 3.467 0.00350942 0
M  V30 517 C 46.5272 4.17098 -1.01624 0
M  V30 518 C 45.7602 5.32119 -0.410478 0
M  V30 519 O 45.9832 5.64976 0.784725 0
M  V30 520 O 44.9172 5.9107 -1.13667 0
M  V30 521 H 48.7432 2.62648 -1.52478 0
M  V30 522 H 46.3282 1.25781 -0.806195 0
M  V30 523 H 48.2102 4.19878 0.35781 0
M  V30 524 H 46.8852 3.11798 0.869686 0
M  V30 525 H 45.7922 3.4601 -1.42224 0
M  V30 526 H 47.1252 4.55987 -1.85301 0
M  V30 527 N 48.7773 0.814389 1.34928 0
M  V30 528 C 49.7403 0.235759 2.27984 0
M  V30 529 C 50.7403 -0.581412 1.49921 0
M  V30 530 O 51.9303 -0.398758 1.69575 0
M  V30 531 C 49.0623 -0.670433 3.34242 0
M  V30 532 H 50.2553 1.05659 2.80671 0
M  V30 533 H 47.8083 0.585614 1.44915 0
M  V30 534 H 48.5433 -1.51466 2.86755 0
M  V30 535 H 48.3283 -0.0860822 3.92005 0
M  V30 536 H 49.8183 -1.06935 4.03676 0
M  V30 537 N 50.2554 -1.46986 0.568584 0
M  V30 538 C 51.1854 -2.32946 -0.160753 0
M  V30 539 C 52.1664 -1.44487 -0.897631 0
M  V30 540 O 53.3514 -1.73327 -0.875867 0
M  V30 541 C 50.4814 -3.26494 -1.18403 0
M  V30 542 C 49.4354 -4.24282 -0.562895 0
M  V30 543 C 48.7614 -5.07236 -1.69163 0
M  V30 544 C 50.0614 -5.19989 0.490761 0
M  V30 545 H 51.7554 -2.94175 0.556916 0
M  V30 546 H 49.3014 -1.4146 0.26927 0
M  V30 547 H 51.2544 -3.85477 -1.70251 0
M  V30 548 H 49.9784 -2.63343 -1.93179 0
M  V30 549 H 48.6374 -3.66541 -0.0656164 0
M  V30 550 H 48.2854 -4.4048 -2.42871 0
M  V30 551 H 47.9854 -5.7345 -1.28174 0
M  V30 552 H 49.5094 -5.6908 -2.21314 0
M  V30 553 H 50.9234 -5.73271 0.0579047 0
M  V30 554 H 49.3204 -5.94469 0.820165 0
M  V30 555 H 50.3904 -4.64777 1.3824 0
M  V30 556 N 51.7335 -0.305618 -1.54608 0
M  V30 557 C 52.6965 0.555591 -2.22364 0
M  V30 558 C 53.6965 1.05768 -1.21119 0
M  V30 559 O 54.8865 0.952972 -1.45822 0
M  V30 560 C 52.0185 1.76974 -2.91364 0
M  V30 561 H 53.2115 -0.0364572 -2.99878 0
M  V30 562 H 50.7645 -0.0565007 -1.56198 0
M  V30 563 H 51.4995 2.40151 -2.17941 0
M  V30 564 H 51.2845 1.41732 -3.65588 0
M  V30 565 H 52.7745 2.38148 -3.43038 0
M  V30 566 N 53.2116 1.57565 -0.0334293 0
M  V30 567 C 54.4416 1.95996 0.653398 0
M  V30 568 C 54.8496 0.908749 1.65947 0
M  V30 569 O 54.1926 -0.117471 1.83324 0
M  V30 570 C 54.2546 3.30589 1.41249 0
M  V30 571 C 53.9186 4.53503 0.564263 0
M  V30 572 C 54.9156 5.19647 -0.16225 0
M  V30 573 C 52.6006 4.99801 0.500398 0
M  V30 574 C 54.5946 6.30412 -0.941255 0
M  V30 575 C 52.2816 6.10448 -0.282308 0
M  V30 576 C 53.2796 6.75612 -1.00184 0
M  V30 577 O 52.9676 7.84134 -1.77171 0
M  V30 578 H 52.6996 0.65027 0.184728 0
M  V30 579 H 55.2536 2.05199 -0.0907841 0
M  V30 580 H 53.4836 3.17888 2.20191 0
M  V30 581 H 55.1726 3.53892 1.98784 0
M  V30 582 H 55.9386 4.84846 -0.12227 0
M  V30 583 H 51.8176 4.48883 1.05002 0
M  V30 584 H 55.3616 6.81208 -1.50339 0
M  V30 585 H 51.2586 6.44686 -0.323989 0
M  V30 586 H 52.0266 8.00822 -1.69194 0
M  V30 587 N 54.6897 -0.239769 1.55765 0
M  V30 588 C 56.1057 -0.588624 1.48349 0
M  V30 589 C 56.3057 -1.88005 0.72502 0
M  V30 590 O 55.3617 -2.51186 0.257269 0
M  V30 591 C 56.6747 -0.68474 2.928 0
M  V30 592 C 58.2227 -0.77659 3.03213 0
M  V30 593 C 58.6977 -0.904207 4.48986 0
M  V30 594 N 60.1887 -0.968896 4.52953 0
M  V30 595 C 60.9237 -1.08703 5.63002 0
M  V30 596 N 60.4197 -1.17026 6.82845 0
M  V30 597 N 62.2127 -1.12074 5.50814 0
M  V30 598 H 54.3637 0.607911 2.03515 0
M  V30 599 H 56.6267 0.21083 0.924259 0
M  V30 600 H 56.3327 0.194284 3.51163 0
M  V30 601 H 56.2067 -1.55435 3.43686 0
M  V30 602 H 58.5937 -1.64606 2.44926 0
M  V30 603 H 58.6747 0.118315 2.55526 0
M  V30 604 H 58.3187 -0.0392633 5.07885 0
M  V30 605 H 58.2487 -1.81426 4.9436 0
M  V30 606 H 60.7397 -0.915633 3.6664 0
M  V30 607 H 61.0527 -1.25966 7.62465 0
M  V30 608 H 59.3977 -1.13971 6.85591 0
M  V30 609 H 62.5887 -1.05226 4.5612 0
M  V30 610 H 62.7617 -1.20936 6.36615 0
M  V30 611 N 56.1678 -1.49265 -0.50573 0
M  V30 612 C 57.0778 -1.68312 -1.63427 0
M  V30 613 C 58.0938 -0.565682 -1.64548 0
M  V30 614 O 59.2698 -0.839801 -1.83055 0
M  V30 615 C 56.3348 -1.74107 -2.99813 0
M  V30 616 C 55.3958 -2.97653 -3.09356 0
M  V30 617 C 54.6288 -3.03163 -4.39236 0
M  V30 618 O 54.8518 -2.16396 -5.27758 0
M  V30 619 O 53.7858 -3.9558 -4.53652 0
M  V30 620 H 57.6118 -2.63907 -1.50289 0
M  V30 621 H 55.1968 -1.32951 -0.681502 0
M  V30 622 H 57.0788 -1.803 -3.80881 0
M  V30 623 H 55.7538 -0.816901 -3.13223 0
M  V30 624 H 54.6608 -2.96981 -2.27493 0
M  V30 625 H 55.9938 -3.89535 -3.00871 0
M  V30 626 N 57.6459 0.756429 -1.3826 0
M  V30 627 C 58.6089 1.85176 -1.35065 0
M  V30 628 C 59.6089 1.58818 -0.251703 0
M  V30 629 O 60.7989 1.66615 -0.508433 0
M  V30 630 C 57.9309 3.22596 -1.10201 0
M  V30 631 H 59.1239 1.89417 -2.3251 0
M  V30 632 H 56.6769 0.95783 -1.23512 0
M  V30 633 H 57.4119 3.24025 -0.133504 0
M  V30 634 H 57.1969 3.43122 -1.89762 0
M  V30 635 H 58.6869 4.02673 -1.10654 0
M  V30 636 N 59.124 1.23083 0.984299 0
M  V30 637 C 60.352 1.08714 1.76037 0
M  V30 638 C 60.767 -0.361691 1.85303 0
M  V30 639 O 60.124 -1.25034 1.32939 0
M  V30 640 C 60.175 1.70206 3.18923 0
M  V30 641 O 59.896 3.09423 3.10144 0
M  V30 642 C 61.397 1.61227 4.12941 0
M  V30 643 H 58.617 0.380664 0.552572 0
M  V30 644 H 61.161 1.62853 1.23689 0
M  V30 645 H 59.316 1.20109 3.6831 0
M  V30 646 H 59.73 3.39188 4.00065 0
M  V30 647 H 61.204 2.08962 5.10919 0
M  V30 648 H 61.681 0.570375 4.35481 0
M  V30 649 H 62.287 2.10671 3.69456 0
M  V30 650 N 60.6021 -1.18246 1.0419 0
M  V30 651 C 61.8491 -1.88257 0.746017 0
M  V30 652 C 62.1771 -1.80429 -0.726331 0
M  V30 653 O 61.4321 -1.2 -1.54591 0
M  V30 654 C 61.7311 -3.38082 1.15911 0
M  V30 655 C 61.3971 -3.66114 2.63195 0
M  V30 656 C 60.0591 -3.73474 3.03432 0
M  V30 657 C 62.4111 -3.78398 3.5842 0
M  V30 658 C 59.7391 -3.90599 4.37778 0
M  V30 659 C 62.0911 -3.97039 4.92487 0
M  V30 660 C 60.7551 -4.02635 5.32392 0
M  V30 661 H 60.0251 -0.688883 0.272987 0
M  V30 662 H 62.6721 -1.3995 1.30715 0
M  V30 663 H 60.9771 -3.88377 0.516806 0
M  V30 664 H 62.6741 -3.90596 0.907516 0
M  V30 665 H 59.2641 -3.61003 2.3103 0
M  V30 666 H 63.4481 -3.72042 3.28479 0
M  V30 667 H 58.7041 -3.93175 4.68213 0
M  V30 668 H 62.8781 -4.05486 5.66175 0
M  V30 669 H 60.5051 -4.15657 6.36501 0
M  V30 670 N 62.0802 -0.821533 -1.34494 0
M  V30 671 C 63.3572 -0.33159 -1.92769 0
M  V30 672 C 63.7372 1.18088 -1.74981 0
M  V30 673 O 63.0852 1.98733 -1.12772 0
M  V30 674 C 63.2952 -0.759398 -3.40638 0
M  V30 675 C 64.6432 -0.757433 -4.1779 0
M  V30 676 O 65.6672 -0.70189 -3.49216 0
M  V30 677 O 64.5262 -0.829361 -5.4017 0
M  V30 678 H 61.6202 -0.0902502 -0.822061 0
M  V30 679 H 64.1662 -0.906231 -1.43477 0
M  V30 680 H 62.9382 -1.8012 -3.47379 0
M  V30 681 H 62.5612 -0.160378 -3.97276 0
M  V30 682 N 63.5583 1.46682 -0.576371 0
M  V30 683 C 64.8073 2.01619 -0.0572825 0
M  V30 684 C 65.1203 1.45417 1.30818 0
M  V30 685 O 66.3263 1.92133 1.91825 0
M  V30 686 C 64.7823 3.59863 -0.0518371 0
M  V30 687 C 64.3903 4.25059 -1.41523 0
M  V30 688 C 66.1343 4.2248 0.413639 0
M  V30 689 C 64.0413 5.75364 -1.36785 0
M  V30 690 H 62.9713 0.753794 -0.0176448 0
M  V30 691 H 65.6223 1.68481 -0.727076 0
M  V30 692 H 64.0043 3.90048 0.683994 0
M  V30 693 H 65.1783 4.06491 -2.17029 0
M  V30 694 H 63.4933 3.7451 -1.8202 0
M  V30 695 H 66.0903 5.3265 0.467779 0
M  V30 696 H 66.4333 3.90976 1.42982 0
M  V30 697 H 66.9663 3.96897 -0.267929 0
M  V30 698 H 63.7053 6.11518 -2.36063 0
M  V30 699 H 63.2253 5.96214 -0.654895 0
M  V30 700 H 64.9043 6.37955 -1.07805 0
M  V30 701 N 65.0364 0.313813 1.54444 0
M  V30 702 C 65.9664 -0.549454 2.26943 0
M  V30 703 C 66.9474 -1.12741 1.27372 0
M  V30 704 O 68.1324 -1.15436 1.56167 0
M  V30 705 C 65.2624 -1.71523 3.01989 0
M  V30 706 C 64.2164 -1.26703 4.08816 0
M  V30 707 C 63.5424 -2.51898 4.71647 0
M  V30 708 C 64.8424 -0.388962 5.2085 0
M  V30 709 H 66.5364 0.0552661 2.99349 0
M  V30 710 H 64.0824 0.0280207 1.43973 0
M  V30 711 H 66.0354 -2.32535 3.51433 0
M  V30 712 H 64.7594 -2.34639 2.27183 0
M  V30 713 H 63.4184 -0.679896 3.6024 0
M  V30 714 H 63.0664 -3.13356 3.93468 0
M  V30 715 H 62.7664 -2.22605 5.43802 0
M  V30 716 H 64.2904 -3.1369 5.23861 0
M  V30 717 H 65.7044 -0.905107 5.6611 0
M  V30 718 H 64.1014 -0.18924 5.99802 0
M  V30 719 H 65.1714 0.582699 4.81386 0
M  V30 720 N 66.5145 -1.57545 0.0417849 0
M  V30 721 C 67.4245 -2.14451 -0.951213 0
M  V30 722 C 68.4405 -1.09992 -1.34825 0
M  V30 723 O 69.6165 -1.42114 -1.42708 0
M  V30 724 C 66.6815 -2.67063 -2.21084 0
M  V30 725 C 65.7425 -3.86284 -1.87304 0
M  V30 726 C 64.9755 -4.36378 -3.07261 0
M  V30 727 O 65.1985 -3.85587 -4.20332 0
M  V30 728 O 64.1325 -5.28077 -2.88822 0
M  V30 729 H 67.9585 -2.99601 -0.497287 0
M  V30 730 H 65.5435 -1.48317 -0.179567 0
M  V30 731 H 67.4255 -3.00914 -2.95006 0
M  V30 732 H 66.1005 -1.84989 -2.65633 0
M  V30 733 H 65.0075 -3.57338 -1.10727 0
M  V30 734 H 66.3405 -4.6956 -1.47562 0
M  V30 735 N 67.9926 0.231505 -1.5589 0
M  V30 736 C 69.2386 0.954429 -1.79617 0
M  V30 737 C 69.5936 1.82367 -0.613199 0
M  V30 738 O 68.8866 1.87524 0.393094 0
M  V30 739 C 69.0806 1.83577 -3.0665 0
M  V30 740 C 68.9096 1.05334 -4.3719 0
M  V30 741 C 67.6796 0.75225 -4.99669 0
M  V30 742 C 69.8776 0.423444 -5.12554 0
M  V30 743 N 67.8596 -0.052627 -6.13877 0
M  V30 744 C 69.2306 -0.245287 -6.19515 0
M  V30 745 C 71.2856 0.335466 -4.96769 0
M  V30 746 C 69.9886 -0.993566 -7.12405 0
M  V30 747 C 72.0146 -0.399321 -5.9005 0
M  V30 748 C 71.3766 -1.05663 -6.9643 0
M  V30 749 H 67.4756 0.329846 -0.709031 0
M  V30 750 H 70.0596 0.226172 -1.93382 0
M  V30 751 H 68.2306 2.53592 -2.94186 0
M  V30 752 H 69.9626 2.49541 -3.18608 0
M  V30 753 H 66.7176 1.06783 -4.61405 0
M  V30 754 H 67.1416 -0.443609 -6.75545 0
M  V30 755 H 71.7836 0.829311 -4.14587 0
M  V30 756 H 69.5016 -1.49896 -7.94076 0
M  V30 757 H 73.0876 -0.468265 -5.79913 0
M  V30 758 H 71.9676 -1.61612 -7.67366 0
M  V30 759 N 69.4707 1.49531 0.497807 0
M  V30 760 C 70.8867 1.36365 0.829266 0
M  V30 761 C 71.0867 0.399184 1.97506 0
M  V30 762 O 70.1427 -0.167977 2.51941 0
M  V30 763 C 71.4557 2.77153 1.16647 0
M  V30 764 C 73.0037 2.85877 1.27449 0
M  V30 765 C 73.4787 4.2744 1.64497 0
M  V30 766 N 74.9697 4.30265 1.7154 0
M  V30 767 C 75.7047 5.3677 2.01656 0
M  V30 768 N 75.2007 6.53516 2.29976 0
M  V30 769 N 76.9937 5.24189 2.02934 0
M  V30 770 H 69.1447 2.10831 -0.257703 0
M  V30 771 H 71.4077 0.946534 -0.0527091 0
M  V30 772 H 71.1137 3.49442 0.397872 0
M  V30 773 H 70.9877 3.12722 2.10915 0
M  V30 774 H 73.3747 2.13824 2.0338 0
M  V30 775 H 73.4557 2.53887 0.312244 0
M  V30 776 H 73.0997 5.00021 0.891151 0
M  V30 777 H 73.0297 4.56896 2.61827 0
M  V30 778 H 75.5207 3.4607 1.51802 0
M  V30 779 H 75.8337 7.30506 2.52153 0
M  V30 780 H 74.1787 6.56737 2.27425 0
M  V30 781 H 77.3697 4.31988 1.80289 0
M  V30 782 H 77.5427 6.07286 2.26071 0
M  V30 783 N 70.9488 -0.749086 1.3866 0
M  V30 784 C 72.1948 -1.51056 1.35314 0
M  V30 785 C 72.5278 -1.94121 -0.0553751 0
M  V30 786 O 71.8028 -1.65763 -1.01749 0
M  V30 787 C 72.0858 -2.76003 2.31288 0
M  V30 788 C 71.9388 -2.39047 3.8102 0
M  V30 789 C 73.2578 -3.78046 2.2532 0
M  V30 790 H 70.3768 -0.547972 0.492844 0
M  V30 791 H 73.0188 -0.857628 1.69543 0
M  V30 792 H 71.1688 -3.31716 2.02229 0
M  V30 793 H 72.8408 -1.89074 4.20771 0
M  V30 794 H 71.0838 -1.71449 3.98482 0
M  V30 795 H 71.7548 -3.28462 4.4364 0
M  V30 796 H 74.2308 -3.31884 2.50983 0
M  V30 797 H 73.1068 -4.63159 2.94576 0
M  V30 798 H 73.3678 -4.23957 1.25352 0
M  V30 799 N 72.4269 -1.23603 -0.977757 0
M  V30 800 C 73.7039 -0.977897 -1.69401 0
M  V30 801 C 74.0839 0.502738 -2.05026 0
M  V30 802 O 73.4319 1.47459 -1.74551 0
M  V30 803 C 73.6419 -1.89077 -2.93345 0
M  V30 804 C 74.9899 -2.15579 -3.65802 0
M  V30 805 O 76.0139 -1.86648 -3.03383 0
M  V30 806 O 74.8729 -2.64658 -4.78141 0
M  V30 807 H 71.9669 -0.369025 -0.740101 0
M  V30 808 H 74.5129 -1.34657 -1.03274 0
M  V30 809 H 73.2849 -2.89158 -2.63634 0
M  V30 810 H 72.9079 -1.52463 -3.67207 0
M  V30 811 N 73.905 1.17692 -1.04816 0
M  V30 812 C 74.855 2.1952 -0.616042 0
M  V30 813 C 75.839 1.57147 0.345485 0
M  V30 814 O 77.031 1.76245 0.163325 0
M  V30 815 C 74.16 3.43298 0.0116917 0
M  V30 816 C 73.246 4.12777 -0.973435 0
M  V30 817 N 73.637 4.5814 -2.14339 0
M  V30 818 C 71.935 4.38747 -0.80108 0
M  V30 819 C 72.636 5.11713 -2.7663 0
M  V30 820 N 71.612 5.03686 -2.04453 0
M  V30 821 H 75.414 2.52293 -1.5075 0
M  V30 822 H 72.928 1.3398 -0.917776 0
M  V30 823 H 74.925 4.15519 0.339006 0
M  V30 824 H 73.585 3.12018 0.898593 0
M  V30 825 H 74.596 4.52349 -2.52191 0
M  V30 826 H 71.273 4.17485 0.0350934 0
M  V30 827 H 72.663 5.56962 -3.75823 0
M  V30 828 N 75.3831 0.828654 1.34056 0
M  V30 829 C 76.6301 0.419458 1.98108 0
M  V30 830 C 76.9581 -1.01886 1.65679 0
M  V30 831 O 76.2131 -1.72539 0.923512 0
M  V30 832 C 76.5121 0.575226 3.52741 0
M  V30 833 C 76.1781 1.98012 4.05095 0
M  V30 834 C 74.8401 2.36442 4.19104 0
M  V30 835 C 77.1921 2.89824 4.33188 0
M  V30 836 C 74.5201 3.66009 4.58535 0
M  V30 837 C 76.8721 4.1886 4.74066 0
M  V30 838 C 75.5361 4.5726 4.86281 0
M  V30 839 H 74.8061 0.153491 0.724929 0
M  V30 840 H 77.4531 1.05371 1.59904 0
M  V30 841 H 75.7581 -0.142385 3.91541 0
M  V30 842 H 77.4551 0.239057 4.00287 0
M  V30 843 H 74.0451 1.67162 3.94658 0
M  V30 844 H 78.2291 2.61375 4.21897 0
M  V30 845 H 73.4851 3.95579 4.66184 0
M  V30 846 H 77.6591 4.90086 4.94761 0
M  V30 847 H 75.2861 5.57707 5.16592 0
M  V30 848 N 76.8612 -1.46375 0.584142 0
M  V30 849 C 77.7942 -2.27351 -0.196676 0
M  V30 850 C 78.7722 -1.35715 -0.895561 0
M  V30 851 O 79.9562 -1.65126 -0.90916 0
M  V30 852 C 77.0832 -3.13486 -1.28235 0
M  V30 853 C 76.1292 -4.20896 -0.689145 0
M  V30 854 S 76.9622 -5.33299 0.48507 0
M  V30 855 C 78.1182 -6.23 -0.601767 0
M  V30 856 H 78.3512 -2.93228 0.490395 0
M  V30 857 H 75.8842 -1.49875 0.371071 0
M  V30 858 H 77.8422 -3.63676 -1.90395 0
M  V30 859 H 76.5032 -2.4692 -1.94138 0
M  V30 860 H 75.6962 -4.80997 -1.50527 0
M  V30 861 H 75.2982 -3.73726 -0.143181 0
M  V30 862 H 77.5902 -6.60979 -1.48705 0
M  V30 863 H 78.5332 -7.0809 -0.0374799 0
M  V30 864 H 78.9412 -5.57173 -0.906557 0
M  V30 865 N 78.3393 -0.321999 -1.54275 0
M  V30 866 C 79.6163 0.335232 -1.92706 0
M  V30 867 C 79.9963 1.70006 -1.25145 0
M  V30 868 O 79.3443 2.25067 -0.394596 0
M  V30 869 C 79.5543 0.429008 -3.46353 0
M  V30 870 C 80.9023 0.690029 -4.18956 0
M  V30 871 O 81.9263 0.511992 -3.52501 0
M  V30 872 O 80.7853 1.03338 -5.36641 0
M  V30 873 H 77.8793 0.191143 -0.804608 0
M  V30 874 H 80.4253 -0.3716 -1.65581 0
M  V30 875 H 79.1973 -0.529611 -3.87699 0
M  V30 876 H 78.8203 1.18348 -3.79578 0
M  V30 877 N 79.8174 1.5752 -0.0501392 0
M  V30 878 C 81.0664 1.91827 0.623328 0
M  V30 879 C 81.3794 0.930222 1.72065 0
M  V30 880 O 82.5854 1.1653 2.4522 0
M  V30 881 C 81.0414 3.40692 1.16003 0
M  V30 882 C 80.6494 4.479 0.0948811 0
M  V30 883 C 82.3934 3.84034 1.80881 0
M  V30 884 C 80.3004 5.87879 0.644411 0
M  V30 885 H 79.2304 0.715918 0.236596 0
M  V30 886 H 81.8814 1.83115 -0.118861 0
M  V30 887 H 80.2634 3.44405 1.9545 0
M  V30 888 H 81.4374 4.55775 -0.678675 0
M  V30 889 H 79.7524 4.13892 -0.45637 0
M  V30 890 H 82.3494 4.85984 2.22988 0
M  V30 891 H 82.6924 3.20225 2.6601 0
M  V30 892 H 83.2254 3.82833 1.0809 0
M  V30 893 H 79.9644 6.55282 -0.169229 0
M  V30 894 H 79.4844 5.83567 1.38598 0
M  V30 895 H 81.1634 6.37098 1.12763 0
M  V30 896 N 81.2955 -0.223234 1.56011 0
M  V30 897 C 82.2585 -1.26014 1.9145 0
M  V30 898 C 83.2585 -1.3989 0.792937 0
M  V30 899 O 84.4485 -1.38184 1.0607 0
M  V30 900 C 81.5805 -2.63422 2.16383 0
M  V30 901 H 82.7735 -0.95796 2.84189 0
M  V30 902 H 80.3265 -0.463576 1.49267 0
M  V30 903 H 81.0615 -2.98741 1.2619 0
M  V30 904 H 80.8465 -2.54728 2.98088 0
M  V30 905 H 82.3365 -3.38249 2.44903 0
M  V30 906 N 82.7736 -1.49793 -0.48987 0
M  V30 907 C 83.9986 -1.63836 -1.27172 0
M  V30 908 C 84.4236 -0.31402 -1.8546 0
M  V30 909 O 83.7816 0.719803 -1.66399 0
M  V30 910 C 83.8296 -2.71797 -2.36978 0
M  V30 911 O 82.9336 -2.31744 -3.41128 0
M  V30 912 H 82.2746 -0.547997 -0.37496 0
M  V30 913 H 84.8046 -1.96053 -0.585191 0
M  V30 914 H 84.8146 -2.94305 -2.82575 0
M  V30 915 H 83.4896 -3.67923 -1.93921 0
M  V30 916 H 82.0666 -2.1961 -3.01373 0
M  V30 917 N 84.2517 0.741722 -1.39055 0
M  V30 918 C 85.4797 1.53098 -1.39171 0
M  V30 919 C 85.8947 1.88794 0.0155099 0
M  V30 920 O 85.2517 1.53626 0.985159 0
M  V30 921 C 85.3027 2.82274 -2.2584 0
M  V30 922 O 85.0237 2.48097 -3.61081 0
M  V30 923 C 86.5247 3.76343 -2.34266 0
M  V30 924 H 83.7447 0.473335 -0.4756 0
M  V30 925 H 86.2887 0.917045 -1.82785 0
M  V30 926 H 84.4437 3.40015 -1.85656 0
M  V30 927 H 84.8577 3.31029 -4.06842 0
M  V30 928 H 86.3317 4.63898 -2.9917 0
M  V30 929 H 86.8087 4.17619 -1.35982 0
M  V30 930 H 87.4147 3.24523 -2.74891 0
M  V30 931 N 85.7298 1.2412 0.971189 0
M  V30 932 C 86.6618 0.988349 2.06795 0
M  V30 933 C 87.6748 -0.0409541 1.62748 0
M  V30 934 O 88.8638 0.195673 1.77424 0
M  V30 935 C 85.9638 0.469023 3.35639 0
M  V30 936 C 85.1368 1.56065 4.08611 0
M  V30 937 C 84.1958 1.04458 5.15728 0
M  V30 938 O 83.2218 1.73553 5.42096 0
M  V30 939 N 84.4238 -0.122817 5.8037 0
M  V30 940 H 87.1888 1.93265 2.29061 0
M  V30 941 H 84.7498 1.15102 1.13856 0
M  V30 942 H 86.7418 0.108613 4.04554 0
M  V30 943 H 85.3118 -0.380919 3.1027 0
M  V30 944 H 84.5318 2.09341 3.34021 0
M  V30 945 H 85.8198 2.29449 4.54126 0
M  V30 946 H 85.2178 -0.700563 5.61345 0
M  V30 947 H 83.7748 -0.424404 6.50417 0
M  V30 948 N 87.2079 -1.17134 1.05439 0
M  V30 949 C 88.4329 -1.91913 0.786396 0
M  V30 950 C 88.8579 -1.7643 -0.652234 0
M  V30 951 O 88.2159 -1.08372 -1.45345 0
M  V30 952 C 88.2639 -3.40921 1.17497 0
M  V30 953 O 87.3679 -4.11244 0.308589 0
M  V30 954 H 86.7089 -0.598215 0.288158 0
M  V30 955 H 89.2389 -1.48457 1.4079 0
M  V30 956 H 89.2489 -3.91668 1.14281 0
M  V30 957 H 87.9239 -3.5151 2.22292 0
M  V30 958 H 86.5009 -3.70731 0.40157 0
M  V30 959 N 88.686 -0.835752 -1.33615 0
M  V30 960 C 89.932 -0.430596 -1.98176 0
M  V30 961 C 90.265 1.00684 -1.66061 0
M  V30 962 O 89.54 1.70339 -0.938877 0
M  V30 963 C 89.823 -0.648065 -3.5422 0
M  V30 964 C 89.676 -2.13255 -3.96033 0
M  V30 965 C 90.995 -0.0922113 -4.40003 0
M  V30 966 H 88.114 -0.157924 -0.719881 0
M  V30 967 H 90.756 -1.05069 -1.58305 0
M  V30 968 H 88.906 -0.120237 -3.88314 0
M  V30 969 H 90.578 -2.725 -3.72211 0
M  V30 970 H 88.821 -2.61823 -3.45878 0
M  V30 971 H 89.492 -2.23547 -5.04708 0
M  V30 972 H 91.968 -0.543343 -4.12537 0
M  V30 973 H 90.844 -0.274083 -5.48215 0
M  V30 974 H 91.105 1.00378 -4.30554 0
M  V30 975 N 90.1641 1.46063 -0.591896 0
M  V30 976 C 91.0941 2.33172 0.123673 0
M  V30 977 C 92.0751 1.45897 0.87453 0
M  V30 978 O 93.2601 1.74698 0.848181 0
M  V30 979 C 90.3901 3.28336 1.13194 0
M  V30 980 C 89.3441 4.25124 0.495324 0
M  V30 981 C 88.6701 5.09863 1.61071 0
M  V30 982 C 89.9701 5.19143 -0.573425 0
M  V30 983 H 91.6641 2.93252 -0.603646 0
M  V30 984 H 89.2101 1.41014 -0.291741 0
M  V30 985 H 91.1631 3.88137 1.64097 0
M  V30 986 H 89.8871 2.66383 1.88965 0
M  V30 987 H 88.5461 3.66599 0.00729452 0
M  V30 988 H 88.1941 4.44288 2.35832 0
M  V30 989 H 87.8941 5.75417 1.19035 0
M  V30 990 H 89.4181 5.72529 2.12233 0
M  V30 991 H 90.8321 5.73106 -0.1491 0
M  V30 992 H 89.2291 5.93089 -0.914636 0
M  V30 993 H 90.2991 4.62519 -1.45617 0
M  V30 994 N 91.6422 0.330177 1.54103 0
M  V30 995 C 92.8702 -0.272179 2.05102 0
M  V30 996 C 93.2852 -1.45267 1.20595 0
M  V30 997 O 92.6422 -1.8094 0.238144 0
M  V30 998 C 92.6932 -0.70023 3.54653 0
M  V30 999 O 92.4142 0.433301 4.35952 0
M  V30 1000 C 93.9152 -1.3647 4.21771 0
M  V30 1001 H 91.1352 -0.0549159 0.668749 0
M  V30 1002 H 93.6792 0.478285 1.98828 0
M  V30 1003 H 91.8342 -1.40066 3.61193 0
M  V30 1004 H 92.2482 0.0947539 5.24414 0
M  V30 1005 H 93.7222 -1.61509 5.27843 0
M  V30 1006 H 94.1992 -2.31409 3.73292 0
M  V30 1007 H 94.8052 -0.706675 4.19388 0
M  V30 1008 N 93.1203 -1.57491 0.0584922 0
M  V30 1009 C 94.0833 -2.1085 -0.898617 0
M  V30 1010 C 95.0833 -1.02964 -1.23511 0
M  V30 1011 O 96.2733 -1.29007 -1.17059 0
M  V30 1012 C 93.4053 -2.59881 -2.20623 0
M  V30 1013 H 94.5983 -2.96715 -0.435936 0
M  V30 1014 H 92.1513 -1.55141 -0.190023 0
M  V30 1015 H 92.8863 -1.77431 -2.71457 0
M  V30 1016 H 92.6713 -3.38727 -1.97501 0
M  V30 1017 H 94.1613 -3.01285 -2.89166 0
M  V30 1018 N 94.5984 0.214957 -1.56127 0
M  V30 1019 C 95.5614 1.24997 -1.92116 0
M  V30 1020 C 96.5614 1.39467 -0.800344 0
M  V30 1021 O 97.7514 1.37619 -1.06802 0
M  V30 1022 C 94.8834 2.62271 -2.17777 0
M  V30 1023 H 96.0764 0.942875 -2.84693 0
M  V30 1024 H 93.6294 0.455654 -1.49511 0
M  V30 1025 H 94.3644 2.98068 -1.27773 0
M  V30 1026 H 94.1494 2.53143 -2.99434 0
M  V30 1027 H 95.6394 3.36946 -2.46693 0
M  V30 1028 N 96.0765 1.50051 0.48192 0
M  V30 1029 C 97.4925 1.37237 0.814756 0
M  V30 1030 C 97.6925 0.420109 1.97072 0
M  V30 1031 O 96.7485 -0.141246 2.52105 0
M  V30 1032 C 98.0615 2.78375 1.13701 0
M  V30 1033 C 99.6095 2.87213 1.2441 0
M  V30 1034 C 100.084 4.29161 1.59954 0
M  V30 1035 N 101.575 4.32061 1.66967 0
M  V30 1036 C 102.31 5.38879 1.95952 0
M  V30 1037 N 101.806 6.55918 2.23031 0
M  V30 1038 N 103.599 5.26312 1.97363 0
M  V30 1039 H 95.7505 2.10546 -0.28005 0
M  V30 1040 H 98.0135 0.945921 -0.0627454 0
M  V30 1041 H 97.7195 3.49845 0.360787 0
M  V30 1042 H 97.5935 3.14941 2.07586 0
M  V30 1043 H 99.9805 2.15969 2.01101 0
M  V30 1044 H 100.061 2.54204 0.285299 0
M  V30 1045 H 99.7055 5.00938 0.838067 0
M  V30 1046 H 99.6355 4.59648 2.56966 0
M  V30 1047 H 102.126 3.47661 1.48123 0
M  V30 1048 H 102.439 7.33139 2.44391 0
M  V30 1049 H 100.784 6.59112 2.20447 0
M  V30 1050 H 103.975 4.33876 1.75697 0
M  V30 1051 H 104.148 6.09649 2.19618 0
M  V30 1052 N 97.5546 -0.734337 1.39446 0
M  V30 1053 C 98.8006 -1.49613 1.36908 0
M  V30 1054 C 99.1336 -1.94169 -0.0347829 0
M  V30 1055 O 98.4086 -1.66833 -0.999847 0
M  V30 1056 C 98.6916 -2.73534 2.34203 0
M  V30 1057 C 98.5446 -2.34993 3.83534 0
M  V30 1058 C 99.8636 -3.75635 2.29317 0
M  V30 1059 H 96.9826 -0.542714 0.498629 0
M  V30 1060 H 99.6246 -0.839597 1.70443 0
M  V30 1061 H 97.7746 -3.29553 2.05736 0
M  V30 1062 H 99.4466 -1.84601 4.22753 0
M  V30 1063 H 97.6896 -1.67213 4.00278 0
M  V30 1064 H 98.3606 -3.23738 4.47099 0
M  V30 1065 H 100.837 -3.29203 2.54489 0
M  V30 1066 H 99.7126 -4.60008 2.99472 0
M  V30 1067 H 99.9736 -4.22603 1.29842 0
M  V30 1068 N 99.0327 -1.24633 -0.964593 0
M  V30 1069 C 100.282 -1.08188 -1.7023 0
M  V30 1070 C 100.595 0.37873 -1.91898 0
M  V30 1071 O 101.801 0.663427 -2.6327 0
M  V30 1072 C 100.257 -1.88773 -3.06419 0
M  V30 1073 C 99.8647 -3.39263 -2.92582 0
M  V30 1074 C 101.609 -1.80867 -3.84041 0
M  V30 1075 C 99.5157 -4.1218 -4.24101 0
M  V30 1076 H 98.4457 -0.401245 -0.638372 0
M  V30 1077 H 101.097 -1.48742 -1.07462 0
M  V30 1078 H 99.4787 -1.41035 -3.70034 0
M  V30 1079 H 100.653 -3.94603 -2.37961 0
M  V30 1080 H 98.9677 -3.48154 -2.28424 0
M  V30 1081 H 101.565 -2.32646 -4.81435 0
M  V30 1082 H 101.908 -0.774543 -4.09031 0
M  V30 1083 H 102.441 -2.26301 -3.27159 0
M  V30 1084 H 99.1797 -5.15965 -4.04303 0
M  V30 1085 H 98.6997 -3.61626 -4.78526 0
M  V30 1086 H 100.379 -4.19349 -4.92702 0
M  V30 1087 N 100.511 1.16574 -1.06058 0
M  V30 1088 C 101.927 1.3904 -0.783585 0
M  V30 1089 C 102.127 1.91784 0.618145 0
M  V30 1090 O 101.183 2.11511 1.37911 0
M  V30 1091 C 102.496 2.37329 -1.84649 0
M  V30 1092 C 104.044 2.51018 -1.86973 0
M  V30 1093 C 104.519 3.52588 -2.92311 0
M  V30 1094 N 106.01 3.60113 -2.91329 0
M  V30 1095 C 106.745 4.38486 -3.69482 0
M  V30 1096 N 106.241 5.20302 -4.57447 0
M  V30 1097 N 108.034 4.33446 -3.57885 0
M  V30 1098 H 100.185 0.806725 -1.96483 0
M  V30 1099 H 102.448 0.417117 -0.851303 0
M  V30 1100 H 102.154 2.05663 -2.85299 0
M  V30 1101 H 102.028 3.36946 -1.6955 0
M  V30 1102 H 104.415 2.81989 -0.869827 0
M  V30 1103 H 104.496 1.51445 -2.0615 0
M  V30 1104 H 104.14 3.22354 -3.92492 0
M  V30 1105 H 104.07 4.51886 -2.70383 0
M  V30 1106 H 106.561 3.01707 -2.27555 0
M  V30 1107 H 106.874 5.77311 -5.13743 0
M  V30 1108 H 105.219 5.19653 -4.61503 0
M  V30 1109 H 108.41 3.68586 -2.88551 0
M  V30 1110 H 108.583 4.94279 -4.19037 0
M  V30 1111 N 101.989 0.842826 1.3317 0
M  V30 1112 C 103.266 0.362216 1.92217 0
M  V30 1113 C 103.646 -1.15289 1.76838 0
M  V30 1114 O 102.994 -1.96914 1.15919 0
M  V30 1115 C 103.204 0.813495 3.39387 0
M  V30 1116 C 104.552 0.823804 4.16532 0
M  V30 1117 O 105.576 0.757358 3.48055 0
M  V30 1118 O 104.435 0.915193 5.38782 0
M  V30 1119 H 101.529 0.103317 0.820521 0
M  V30 1120 H 104.075 0.928942 1.42017 0
M  V30 1121 H 102.847 1.85624 3.4447 0
M  V30 1122 H 102.47 0.223561 3.96971 0
M  V30 1123 N 103.467 -1.45747 0.599634 0
M  V30 1124 C 104.43 -2.28917 -0.113835 0
M  V30 1125 C 105.43 -1.3933 -0.802729 0
M  V30 1126 O 106.62 -1.61534 -0.652103 0
M  V30 1127 C 103.752 -3.20152 -1.17114 0
M  V30 1128 H 104.945 -2.93478 0.617289 0
M  V30 1129 H 102.498 -1.52137 0.358327 0
M  V30 1130 H 103.233 -2.60374 -1.93329 0
M  V30 1131 H 103.018 -3.86133 -0.681468 0
M  V30 1132 H 104.508 -3.82708 -1.67105 0
M  V30 1133 N 104.945 -0.338344 -1.53925 0
M  V30 1134 C 105.878 0.563758 -2.21127 0
M  V30 1135 C 106.856 1.10433 -1.19345 0
M  V30 1136 O 108.04 1.16557 -1.48144 0
M  V30 1137 C 105.167 1.77505 -2.88461 0
M  V30 1138 C 104.213 1.3644 -4.04087 0
M  V30 1139 S 105.046 0.388593 -5.34088 0
M  V30 1140 C 106.202 1.60683 -6.04923 0
M  V30 1141 H 106.435 -0.00704546 -2.97299 0
M  V30 1142 H 103.968 -0.122418 -1.53914 0
M  V30 1143 H 105.926 2.46999 -3.27875 0
M  V30 1144 H 104.587 2.31706 -2.12064 0
M  V30 1145 H 103.78 2.26739 -4.50117 0
M  V30 1146 H 103.382 0.748998 -3.66423 0
M  V30 1147 H 105.674 2.54209 -6.28 0
M  V30 1148 H 106.617 1.18842 -6.98056 0
M  V30 1149 H 107.025 1.80052 -5.35015 0
M  V30 1150 N 106.423 1.57458 -0.0668435 0
M  V30 1151 C 107.834 1.80776 0.466558 0
M  V30 1152 C 108.185 0.980361 1.69951 0
M  V30 1153 O 107.31 0.201441 2.1546 0
M  V30 1154 C 107.905 3.27881 0.85321 0
M  V30 1155 C 106.464 3.52062 1.3315 0
M  V30 1156 C 105.611 2.75513 0.314264 0
M  V30 1157 H 108.562 1.5598 -0.292588 0
M  V30 1158 H 108.583 3.39659 1.715 0
M  V30 1159 H 108.095 3.88075 -0.0443439 0
M  V30 1160 H 106.196 2.97167 2.24772 0
M  V30 1161 H 106.309 4.60762 1.31285 0
M  V30 1162 H 104.673 2.42123 0.790492 0
M  V30 1163 H 105.456 3.38442 -0.575477 0
M  V30 1164 N 107.901 -0.206675 1.56239 0
M  V30 1165 C 109.178 -0.954051 1.70755 0
M  V30 1166 C 109.558 -2.01841 0.618353 0
M  V30 1167 O 108.906 -2.25444 -0.372434 0
M  V30 1168 C 109.116 -1.551 3.12642 0
M  V30 1169 C 110.464 -2.03757 3.72516 0
M  V30 1170 O 111.488 -1.64965 3.15698 0
M  V30 1171 O 110.347 -2.75103 4.72208 0
M  V30 1172 H 107.441 -0.446636 0.696021 0
M  V30 1173 H 109.987 -0.197283 1.68549 0
M  V30 1174 H 108.759 -0.783212 3.83382 0
M  V30 1175 H 108.382 -2.37291 3.19028 0
M  V30 1176 N 109.379 -1.50304 -0.473955 0
M  V30 1177 C 110.628 -1.60392 -1.22301 0
M  V30 1178 C 110.941 -0.308411 -1.93153 0
M  V30 1179 O 112.147 -0.288156 -2.69966 0
M  V30 1180 C 110.603 -2.83109 -2.2221 0
M  V30 1181 C 110.211 -4.19524 -1.57173 0
M  V30 1182 C 111.955 -3.0254 -2.97775 0
M  V30 1183 C 109.862 -5.33431 -2.55353 0
M  V30 1184 H 108.792 -0.597286 -0.460179 0
M  V30 1185 H 111.443 -1.76731 -0.493803 0
M  V30 1186 H 109.825 -2.60322 -2.9841 0
M  V30 1187 H 110.999 -4.52554 -0.867824 0
M  V30 1188 H 109.314 -4.05674 -0.939002 0
M  V30 1189 H 111.911 -3.84811 -3.71248 0
M  V30 1190 H 112.254 -2.14154 -3.56992 0
M  V30 1191 H 112.787 -3.25494 -2.28688 0
M  V30 1192 H 109.526 -6.23962 -2.00878 0
M  V30 1193 H 109.046 -5.04823 -3.23904 0
M  V30 1194 H 110.725 -5.63887 -3.17239 0
M  V30 1195 N 110.857 0.726932 -1.39834 0
M  V30 1196 C 112.268 1.30558 -1.3346 0
M  V30 1197 C 112.619 1.962 -0.00273003 0
M  V30 1198 O 111.744 1.96826 0.899371 0
M  V30 1199 C 112.339 2.37404 -2.41713 0
M  V30 1200 C 110.898 2.90921 -2.38835 0
M  V30 1201 C 110.045 1.64578 -2.2318 0
M  V30 1202 H 112.996 0.523862 -1.49804 0
M  V30 1203 H 113.017 3.17984 -2.08966 0
M  V30 1204 H 112.529 1.89599 -3.38635 0
M  V30 1205 H 110.63 3.42985 -1.45575 0
M  V30 1206 H 110.743 3.43487 -3.33997 0
M  V30 1207 H 109.107 1.89219 -1.70494 0
M  V30 1208 H 109.89 1.18814 -3.22084 0
M  V30 1209 N 112.336 1.25143 0.95797 0
M  V30 1210 C 113.266 1.07711 2.07173 0
M  V30 1211 C 114.247 -0.0128462 1.70095 0
M  V30 1212 O 115.432 0.156061 1.93572 0
M  V30 1213 C 112.562 0.691503 3.40346 0
M  V30 1214 C 111.516 1.73132 3.9142 0
M  V30 1215 C 110.842 1.20049 5.21049 0
M  V30 1216 C 112.142 3.1294 4.1817 0
M  V30 1217 H 113.836 2.00873 2.22014 0
M  V30 1218 H 111.382 0.967191 1.06684 0
M  V30 1219 H 113.335 0.556505 4.17709 0
M  V30 1220 H 112.059 -0.275819 3.25433 0
M  V30 1221 H 110.718 1.8547 3.16222 0
M  V30 1222 H 110.366 0.223499 5.02503 0
M  V30 1223 H 110.066 1.89545 5.56189 0
M  V30 1224 H 111.59 1.07782 6.01012 0
M  V30 1225 H 113.004 3.03775 4.86203 0
M  V30 1226 H 111.401 3.79875 4.64559 0
M  V30 1227 H 112.471 3.6025 3.24573 0
M  V30 1228 N 113.814 -1.1601 1.06675 0
M  V30 1229 C 114.744 -2.22688 0.702307 0
M  V30 1230 C 115.725 -1.67306 -0.307032 0
M  V30 1231 O 116.91 -1.93352 -0.181305 0
M  V30 1232 C 114.04 -3.47178 0.092038 0
M  V30 1233 C 112.994 -4.15477 1.02777 0
M  V30 1234 C 112.32 -5.33963 0.28061 0
M  V30 1235 C 113.62 -4.66019 2.35846 0
M  V30 1236 H 115.314 -2.53429 1.59419 0
M  V30 1237 H 112.86 -1.21813 0.767961 0
M  V30 1238 H 114.813 -4.21037 -0.174814 0
M  V30 1239 H 113.537 -3.15749 -0.834877 0
M  V30 1240 H 112.196 -3.43549 1.27944 0
M  V30 1241 H 111.844 -4.98788 -0.649545 0
M  V30 1242 H 111.544 -5.806 0.904258 0
M  V30 1243 H 113.068 -6.10596 0.021396 0
M  V30 1244 H 114.482 -5.3144 2.15045 0
M  V30 1245 H 112.879 -5.23293 2.93743 0
M  V30 1246 H 113.949 -3.82023 2.98641 0
M  V30 1247 N 115.292 -0.849877 -1.32721 0
M  V30 1248 C 116.539 -0.450923 -1.97416 0
M  V30 1249 C 116.867 0.992376 -1.67279 0
M  V30 1250 O 116.122 1.71048 -0.950845 0
M  V30 1251 C 116.421 -0.631272 -3.51781 0
M  V30 1252 C 116.087 -2.04432 -4.01894 0
M  V30 1253 C 114.749 -2.4308 -4.1529 0
M  V30 1254 C 117.101 -2.96679 -4.28522 0
M  V30 1255 C 114.429 -3.73257 -4.52654 0
M  V30 1256 C 116.781 -4.26349 -4.67343 0
M  V30 1257 C 115.445 -4.64939 -4.78945 0
M  V30 1258 H 114.715 -0.165004 -0.722395 0
M  V30 1259 H 117.362 -1.07901 -1.58207 0
M  V30 1260 H 115.667 0.0800767 -3.91718 0
M  V30 1261 H 117.364 -0.302709 -3.99856 0
M  V30 1262 H 113.954 -1.73419 -3.91949 0
M  V30 1263 H 118.138 -2.68054 -4.17685 0
M  V30 1264 H 113.394 -4.02946 -4.59831 0
M  V30 1265 H 117.568 -4.97895 -4.86902 0
M  V30 1266 H 115.195 -5.65855 -5.07654 0
M  V30 1267 N 116.77 1.45427 -0.607355 0
M  V30 1268 C 117.998 2.06614 -0.108814 0
M  V30 1269 C 118.413 1.45204 1.2067 0
M  V30 1270 O 117.77 0.566132 1.73497 0
M  V30 1271 C 117.821 3.61481 0.0375347 0
M  V30 1272 O 117.542 4.20598 -1.22593 0
M  V30 1273 C 119.043 4.39652 0.567561 0
M  V30 1274 H 116.263 0.66747 -0.0687351 0
M  V30 1275 H 118.807 1.86675 -0.835022 0
M  V30 1276 H 116.962 3.80762 0.714068 0
M  V30 1277 H 117.376 5.1377 -1.05547 0
M  V30 1278 H 118.85 5.48518 0.61905 0
M  V30 1279 H 119.327 4.09417 1.58978 0
M  V30 1280 H 119.933 4.25234 -0.0749202 0
M  V30 1281 N 118.248 0.346503 1.53744 0
M  V30 1282 C 119.495 -0.249104 2.00962 0
M  V30 1283 C 119.823 -1.5032 1.23426 0
M  V30 1284 O 119.078 -1.93217 0.310761 0
M  V30 1285 C 119.377 -0.605809 3.52228 0
M  V30 1286 C 119.043 0.551747 4.47512 0
M  V30 1287 C 117.705 0.86941 4.73281 0
M  V30 1288 C 120.057 1.32818 5.03993 0
M  V30 1289 C 117.385 1.96582 5.52786 0
M  V30 1290 C 119.737 2.41486 5.84694 0
M  V30 1291 C 118.401 2.73808 6.08757 0
M  V30 1292 H 117.671 -0.0911538 0.735372 0
M  V30 1293 H 120.318 0.475027 1.85515 0
M  V30 1294 H 118.623 -1.4107 3.65522 0
M  V30 1295 H 120.32 -1.07858 3.86222 0
M  V30 1296 H 116.91 0.294102 4.2759 0
M  V30 1297 H 121.094 1.09602 4.84047 0
M  V30 1298 H 116.35 2.22045 5.69654 0
M  V30 1299 H 120.524 3.02078 6.27473 0
M  V30 1300 H 118.151 3.58892 6.7015 0
M  V30 1301 N 119.726 -1.57421 0.075193 0
M  V30 1302 C 121.142 -1.57099 -0.281444 0
M  V30 1303 C 121.342 -1.08486 -1.69803 0
M  V30 1304 O 120.398 -0.752279 -2.41033 0
M  V30 1305 C 121.711 -3.00571 -0.0880041 0
M  V30 1306 C 123.259 -3.12605 -0.157281 0
M  V30 1307 C 123.734 -4.57999 0.0079207 0
M  V30 1308 N 125.225 -4.63176 -0.0475725 0
M  V30 1309 C 125.96 -5.73373 0.0557876 0
M  V30 1310 N 125.456 -6.92473 0.21286 0
M  V30 1311 N 127.249 -5.621 -0.00152098 0
M  V30 1312 H 119.4 -1.87335 1.00098 0
M  V30 1313 H 121.663 -0.86377 0.390646 0
M  V30 1314 H 121.369 -3.40262 0.889629 0
M  V30 1315 H 121.243 -3.67754 -0.838875 0
M  V30 1316 H 123.63 -2.72798 -1.1254 0
M  V30 1317 H 123.711 -2.48053 0.62475 0
M  V30 1318 H 123.355 -4.98496 0.972824 0
M  V30 1319 H 123.285 -5.20586 -0.793556 0
M  V30 1320 H 125.776 -3.7753 -0.167244 0
M  V30 1321 H 126.089 -7.72279 0.283781 0
M  V30 1322 H 124.434 -6.94556 0.248267 0
M  V30 1323 H 127.625 -4.67938 -0.122958 0
M  V30 1324 H 127.798 -6.47948 0.0824844 0
M  V30 1325 N 121.204 0.198386 -1.56346 0
M  V30 1326 C 122.429 0.939682 -1.84891 0
M  V30 1327 C 122.854 1.76202 -0.658369 0
M  V30 1328 O 122.212 1.76993 0.392851 0
M  V30 1329 C 122.26 1.81428 -3.11635 0
M  V30 1330 O 121.364 2.91265 -2.91956 0
M  V30 1331 H 120.705 0.264807 -0.608912 0
M  V30 1332 H 123.235 0.204695 -2.03573 0
M  V30 1333 H 123.245 2.21958 -3.42343 0
M  V30 1334 H 121.92 1.21004 -3.97908 0
M  V30 1335 H 120.497 2.54514 -2.72538 0
M  V30 1336 N 122.682 1.50554 0.465978 0
M  V30 1337 C 123.645 1.69233 1.54574 0
M  V30 1338 C 124.645 0.562901 1.50626 0
M  V30 1339 O 125.835 0.830016 1.53155 0
M  V30 1340 C 122.967 1.7223 2.94193 0
M  V30 1341 H 124.16 2.65571 1.39327 0
M  V30 1342 H 121.713 1.40111 0.692711 0
M  V30 1343 H 122.448 0.77603 3.14878 0
M  V30 1344 H 122.233 2.54285 2.98466 0
M  V30 1345 H 123.723 1.88618 3.72576 0
M  V30 1346 N 124.16 -0.719506 1.40217 0
M  V30 1347 C 125.107 -1.83359 1.40172 0
M  V30 1348 C 126.077 -1.64065 0.259206 0
M  V30 1349 O 127.262 -1.85254 0.456677 0
M  V30 1350 C 124.402 -3.2103 1.26624 0
M  V30 1351 C 123.515 -3.51923 2.50548 0
M  V30 1352 C 122.65 -4.79079 2.29471 0
M  V30 1353 C 121.689 -5.02863 3.48992 0
M  V30 1354 N 120.826 -6.2123 3.27135 0
M  V30 1355 H 125.666 -1.82733 2.35399 0
M  V30 1356 H 123.203 -0.892688 1.16917 0
M  V30 1357 H 125.161 -4.00524 1.16776 0
M  V30 1358 H 123.791 -3.20895 0.350176 0
M  V30 1359 H 122.843 -2.67014 2.70939 0
M  V30 1360 H 124.155 -3.6541 3.39525 0
M  V30 1361 H 123.309 -5.66582 2.16955 0
M  V30 1362 H 122.048 -4.67794 1.37913 0
M  V30 1363 H 121.053 -4.13816 3.6199 0
M  V30 1364 H 122.278 -5.16023 4.41472 0
M  V30 1365 H 120.224 -6.11204 2.38256 0
M  V30 1366 H 120.141 -6.35375 4.09675 0
M  V30 1367 H 121.409 -7.11532 3.18344 0
M  V30 1368 N 125.638 -1.25649 -0.95132 0
M  V30 1369 C 126.548 -1.08073 -2.08224 0
M  V30 1370 C 127.564 -0.0169666 -1.73992 0
M  V30 1371 O 128.74 -0.218593 -2.0021 0
M  V30 1372 C 125.805 -0.704922 -3.39458 0
M  V30 1373 C 124.866 -1.84699 -3.87537 0
M  V30 1374 C 124.099 -1.48902 -5.12508 0
M  V30 1375 O 124.322 -0.386156 -5.69091 0
M  V30 1376 O 123.256 -2.32033 -5.55378 0
M  V30 1377 H 127.082 -2.02924 -2.25954 0
M  V30 1378 H 124.667 -1.04618 -1.06656 0
M  V30 1379 H 126.549 -0.507609 -4.18332 0
M  V30 1380 H 125.224 0.214291 -3.2299 0
M  V30 1381 H 124.131 -2.09919 -3.09653 0
M  V30 1382 H 125.464 -2.74557 -4.08509 0
M  V30 1383 N 127.117 1.15442 -1.07289 0
M  V30 1384 C 128.365 1.85845 -0.794096 0
M  V30 1385 C 128.686 1.82692 0.681809 0
M  V30 1386 O 127.956 1.26741 1.49377 0
M  V30 1387 H 126.536 0.688089 -0.290763 0
M  V30 1388 H 129.198 1.39947 -1.3565 0
M  V30 1389 H 128.294 2.91001 -1.12804 0
M  V30 1390 N 128.595 0.856903 1.32268 0
M  V30 1391 C 129.843 0.460474 1.96784 0
M  V30 1392 C 130.164 -0.987701 1.68135 0
M  V30 1393 O 129.434 -1.69058 0.989765 0
M  V30 1394 H 128.014 0.167289 0.728027 0
M  V30 1395 H 130.676 1.09383 1.61312 0
M  V30 1396 H 129.772 0.60739 3.06133 0
M  V30 1397 N 130.073 -1.45103 0.615059 0
M  V30 1398 C 130.983 -2.34382 -0.101034 0
M  V30 1399 C 131.999 -1.51681 -0.852585 0
M  V30 1400 O 133.175 -1.8446 -0.808484 0
M  V30 1401 C 130.24 -3.29417 -1.08099 0
M  V30 1402 C 129.301 -4.28025 -0.330577 0
M  V30 1403 C 128.534 -5.1852 -1.26385 0
M  V30 1404 O 128.757 -5.12598 -2.50198 0
M  V30 1405 O 127.691 -5.97122 -0.756866 0
M  V30 1406 H 131.517 -2.97033 0.632855 0
M  V30 1407 H 129.102 -1.4461 0.375293 0
M  V30 1408 H 130.984 -3.87958 -1.6452 0
M  V30 1409 H 129.659 -2.69321 -1.79577 0
M  V30 1410 H 128.566 -3.73078 0.276283 0
M  V30 1411 H 129.899 -4.90997 0.343866 0
M  V30 1412 N 131.551 -0.354651 -1.53558 0
M  V30 1413 C 132.483 0.5315 -2.22952 0
M  V30 1414 C 133.496 1.05503 -1.23988 0
M  V30 1415 O 134.685 0.963279 -1.50277 0
M  V30 1416 C 131.785 1.74538 -2.90499 0
M  V30 1417 C 130.958 1.35524 -4.15875 0
M  V30 1418 C 130.017 2.42999 -4.66731 0
M  V30 1419 O 129.043 2.05844 -5.30676 0
M  V30 1420 N 130.245 3.74423 -4.43608 0
M  V30 1421 H 133.01 -0.0628615 -2.99634 0
M  V30 1422 H 130.571 -0.179302 -1.60904 0
M  V30 1423 H 132.563 2.45892 -3.21433 0
M  V30 1424 H 131.133 2.24686 -2.17336 0
M  V30 1425 H 130.353 0.471998 -3.91364 0
M  V30 1426 H 131.641 1.07071 -4.97406 0
M  V30 1427 H 131.039 4.07391 -3.92491 0
M  V30 1428 H 129.596 4.41913 -4.7912 0
M  V30 1429 N 133.029 1.57378 -0.0835403 0
M  V30 1430 C 134.257 1.98263 0.59157 0
M  V30 1431 C 134.672 0.962302 1.62435 0
M  V30 1432 O 134.029 -0.049581 1.82433 0
M  V30 1433 C 134.08 3.39214 1.24965 0
M  V30 1434 O 133.801 4.37339 0.258186 0
M  V30 1435 C 135.302 3.95038 2.01147 0
M  V30 1436 H 132.522 0.651773 0.159477 0
M  V30 1437 H 135.066 2.03878 -0.159415 0
M  V30 1438 H 133.221 3.34649 1.95164 0
M  V30 1439 H 133.635 5.19371 0.731734 0
M  V30 1440 H 135.109 4.95848 2.42567 0
M  V30 1441 H 135.586 3.32222 2.87272 0
M  V30 1442 H 136.192 4.0304 1.35789 0
M  V30 1443 N 134.507 -0.190092 1.56449 0
M  V30 1444 C 135.756 -0.907912 1.80111 0
M  V30 1445 C 136.069 -1.84214 0.657619 0
M  V30 1446 O 137.275 -2.60094 0.778663 0
M  V30 1447 C 135.731 -1.66485 3.19078 0
M  V30 1448 C 135.339 -0.7752 4.41242 0
M  V30 1449 C 137.083 -2.37201 3.52045 0
M  V30 1450 C 134.99 -1.53129 5.71231 0
M  V30 1451 H 133.92 -0.34276 0.671589 0
M  V30 1452 H 136.571 -0.161109 1.82791 0
M  V30 1453 H 134.953 -2.45572 3.10661 0
M  V30 1454 H 136.127 -0.0226298 4.60794 0
M  V30 1455 H 134.442 -0.178627 4.16017 0
M  V30 1456 H 137.039 -2.94329 4.46402 0
M  V30 1457 H 137.382 -3.11632 2.76028 0
M  V30 1458 H 137.915 -1.65075 3.61932 0
M  V30 1459 H 134.654 -0.82967 6.50228 0
M  V30 1460 H 134.174 -2.25767 5.55688 0
M  V30 1461 H 135.853 -2.08377 6.12526 0
M  V30 1462 N 135.985 -1.50799 -0.457987 0
M  V30 1463 C 137.213 -1.66218 -1.23203 0
M  V30 1464 C 137.628 -0.350894 -1.85511 0
M  V30 1465 O 136.985 0.668546 -1.69814 0
M  V30 1466 C 137.036 -2.76291 -2.33121 0
M  V30 1467 O 136.757 -4.02338 -1.73366 0
M  V30 1468 C 138.258 -3.028 -3.2377 0
M  V30 1469 H 135.478 -0.558361 -0.372121 0
M  V30 1470 H 138.022 -1.97099 -0.545179 0
M  V30 1471 H 136.177 -2.48068 -2.97558 0
M  V30 1472 H 136.591 -4.63312 -2.4585 0
M  V30 1473 H 138.065 -3.8345 -3.97077 0
M  V30 1474 H 138.542 -2.14385 -3.83322 0
M  V30 1475 H 139.148 -3.32604 -2.65056 0
M  V30 1476 N 137.463 0.71206 -1.40597 0
M  V30 1477 C 138.691 1.50111 -1.42388 0
M  V30 1478 C 139.106 1.88784 -0.0245395 0
M  V30 1479 O 138.463 1.55681 0.952351 0
M  V30 1480 C 138.514 2.7742 -2.31776 0
M  V30 1481 O 138.235 2.40382 -3.66262 0
M  V30 1482 C 139.736 3.7129 -2.42196 0
M  V30 1483 H 136.956 0.46314 -0.485533 0
M  V30 1484 H 139.5 0.878068 -1.8469 0
M  V30 1485 H 137.655 3.36001 -1.92827 0
M  V30 1486 H 138.069 3.22324 -4.13772 0
M  V30 1487 H 139.543 4.57448 -3.08943 0
M  V30 1488 H 140.02 4.14641 -1.44809 0
M  V30 1489 H 140.626 3.18619 -2.81712 0
M  V30 1490 N 138.941 1.26152 0.944643 0
M  V30 1491 C 139.873 1.03199 2.04652 0
M  V30 1492 C 140.886 -0.00642356 1.62799 0
M  V30 1493 O 142.075 0.233263 1.76969 0
M  V30 1494 C 139.175 0.540111 3.34568 0
M  V30 1495 C 138.348 1.64697 4.05208 0
M  V30 1496 C 137.407 1.15374 5.13396 0
M  V30 1497 O 136.433 1.85013 5.38293 0
M  V30 1498 N 137.635 0.00031529 5.805 0
M  V30 1499 H 140.4 1.9808 2.2491 0
M  V30 1500 H 137.961 1.17491 1.11389 0
M  V30 1501 H 139.953 0.194401 4.04233 0
M  V30 1502 H 138.523 -0.315021 3.11009 0
M  V30 1503 H 137.743 2.16379 3.29506 0
M  V30 1504 H 139.031 2.3903 4.49157 0
M  V30 1505 H 138.429 -0.581336 5.62705 0
M  V30 1506 H 136.986 -0.286346 6.51171 0
M  V30 1507 N 140.419 -1.14872 1.07899 0
M  V30 1508 C 141.369 -2.17809 0.674027 0
M  V30 1509 C 142.353 -1.58008 -0.303699 0
M  V30 1510 O 143.545 -1.76616 -0.11654 0
M  V30 1511 C 140.674 -3.43208 0.0793318 0
M  V30 1512 C 139.76 -4.10051 1.08253 0
M  V30 1513 N 140.151 -4.52296 2.2641 0
M  V30 1514 C 138.449 -4.36469 0.917124 0
M  V30 1515 C 139.15 -5.04199 2.901 0
M  V30 1516 N 138.126 -4.98088 2.17736 0
M  V30 1517 H 141.928 -2.48207 1.57386 0
M  V30 1518 H 139.442 -1.315 0.952976 0
M  V30 1519 H 141.439 -4.16272 -0.228719 0
M  V30 1520 H 140.099 -3.14291 -0.815551 0
M  V30 1521 H 141.11 -4.45504 2.64096 0
M  V30 1522 H 137.787 -4.17432 0.0756078 0
M  V30 1523 H 139.177 -5.46802 3.90458 0
M  V30 1524 N 141.898 -0.863906 -1.31812 0
M  V30 1525 C 143.128 -0.485406 -2.00817 0
M  V30 1526 C 143.536 0.925007 -1.65046 0
M  V30 1527 O 142.879 1.61653 -0.872574 0
M  V30 1528 C 142.941 -0.555589 -3.55181 0
M  V30 1529 C 142.605 -1.92654 -4.14407 0
M  V30 1530 C 143.602 -2.89324 -4.31958 0
M  V30 1531 C 141.287 -2.2262 -4.50273 0
M  V30 1532 C 143.281 -4.14108 -4.84555 0
M  V30 1533 C 140.968 -3.47654 -5.02573 0
M  V30 1534 C 141.966 -4.43214 -5.19664 0
M  V30 1535 O 141.654 -5.66033 -5.70843 0
M  V30 1536 H 141.386 -0.188224 -0.649267 0
M  V30 1537 H 143.94 -1.16514 -1.69156 0
M  V30 1538 H 142.17 0.181037 -3.86276 0
M  V30 1539 H 143.859 -0.19138 -4.05449 0
M  V30 1540 H 144.625 -2.6748 -4.04573 0
M  V30 1541 H 140.504 -1.4902 -4.3625 0
M  V30 1542 H 144.048 -4.88703 -4.9781 0
M  V30 1543 H 139.945 -3.69345 -5.29391 0
M  V30 1544 H 140.713 -5.6812 -5.89222 0
M  V30 1545 N 143.376 1.44774 -0.622745 0
M  V30 1546 C 144.306 2.33382 0.0741861 0
M  V30 1547 C 145.287 1.47719 0.843387 0
M  V30 1548 O 146.472 1.76458 0.810934 0
M  V30 1549 C 143.602 3.30663 1.06204 0
M  V30 1550 C 142.556 4.26079 0.405037 0
M  V30 1551 C 141.882 5.13165 1.5022 0
M  V30 1552 C 143.182 5.1781 -0.683414 0
M  V30 1553 H 144.876 2.91905 -0.665713 0
M  V30 1554 H 142.422 1.40363 -0.321587 0
M  V30 1555 H 144.375 3.9153 1.55827 0
M  V30 1556 H 143.099 2.70331 1.83272 0
M  V30 1557 H 141.758 3.66532 -0.0704683 0
M  V30 1558 H 141.406 4.49191 2.26355 0
M  V30 1559 H 141.106 5.77812 1.06803 0
M  V30 1560 H 142.63 5.76902 2.00041 0
M  V30 1561 H 144.044 5.72661 -0.270631 0
M  V30 1562 H 142.441 5.91015 -1.04023 0
M  V30 1563 H 143.511 4.59326 -1.55395 0
M  V30 1564 N 144.854 0.36279 1.53368 0
M  V30 1565 C 146.082 -0.228613 2.05633 0
M  V30 1566 C 146.497 -1.42676 1.23649 0
M  V30 1567 O 145.854 -1.80394 0.27647 0
M  V30 1568 C 145.905 -0.624845 3.56059 0
M  V30 1569 O 145.626 0.525675 4.34935 0
M  V30 1570 C 147.127 -1.27493 4.24571 0
M  V30 1571 H 144.347 -0.0407183 0.669763 0
M  V30 1572 H 146.891 0.520352 1.97769 0
M  V30 1573 H 145.046 -1.32373 3.64083 0
M  V30 1574 H 145.46 0.205969 5.24095 0
M  V30 1575 H 146.934 -1.50277 5.31151 0
M  V30 1576 H 147.411 -2.23439 3.78116 0
M  V30 1577 H 148.017 -0.617558 4.20792 0
M  V30 1578 N 146.332 -1.57332 0.0918853 0
M  V30 1579 C 147.262 -2.16872 -0.865371 0
M  V30 1580 C 148.243 -1.10118 -1.29646 0
M  V30 1581 O 149.428 -1.38242 -1.36392 0
M  V30 1582 C 146.558 -2.74649 -2.12569 0
M  V30 1583 C 145.512 -3.86747 -1.83333 0
M  V30 1584 C 144.838 -4.31212 -3.16166 0
M  V30 1585 C 146.138 -5.10089 -1.1228 0
M  V30 1586 H 147.832 -2.97114 -0.369307 0
M  V30 1587 H 145.378 -1.42918 -0.176194 0
M  V30 1588 H 147.331 -3.14952 -2.7997 0
M  V30 1589 H 146.055 -1.91657 -2.64452 0
M  V30 1590 H 144.714 -3.46978 -1.18331 0
M  V30 1591 H 144.362 -3.45115 -3.6593 0
M  V30 1592 H 144.062 -5.06788 -2.97388 0
M  V30 1593 H 145.586 -4.74146 -3.84731 0
M  V30 1594 H 147 -5.47582 -1.69785 0
M  V30 1595 H 145.397 -5.91073 -1.03693 0
M  V30 1596 H 146.467 -4.84786 -0.105041 0
M  V30 1597 N 147.81 0.181792 -1.56548 0
M  V30 1598 C 148.758 1.24461 -1.965 0
M  V30 1599 C 149.752 1.464 -0.852261 0
M  V30 1600 O 150.958 1.47103 -1.03733 0
M  V30 1601 H 147.333 0.418138 -0.625031 0
M  V30 1602 H 149.304 0.880714 -2.85107 0
M  V30 1603 C 148.053 2.57891 -2.33212 0
M  V30 1604 H 147.376 2.41829 -3.18369 0
M  V30 1605 H 148.816 3.3097 -2.65019 0
M  V30 1606 C 147.275 3.15871 -1.17163 0
M  V30 1607 O 147.805 3.9913 -0.453708 0
M  V30 1608 N 146.011 2.74808 -0.944936 0
M  V30 1609 H 145.558 2.07205 -1.53049 0
M  V30 1610 H 145.516 3.13939 -0.170286 0
M  V30 1611 N 149.288 1.51039 0.449983 0
M  V30 1612 C 150.704 1.38934 0.785462 0
M  V30 1613 C 150.904 0.461817 1.96136 0
M  V30 1614 O 149.96 -0.0877389 2.52348 0
M  V30 1615 C 151.273 2.80724 1.0777 0
M  V30 1616 C 152.821 2.89787 1.1829 0
M  V30 1617 C 153.296 4.32457 1.50815 0
M  V30 1618 N 154.787 4.35505 1.57764 0
M  V30 1619 C 155.522 5.42914 1.84477 0
M  V30 1620 N 155.018 6.60502 2.09068 0
M  V30 1621 N 156.811 5.3038 1.86155 0
M  V30 1622 H 148.962 2.09904 -0.324647 0
M  V30 1623 H 151.225 0.944378 -0.0827957 0
M  V30 1624 H 150.931 3.50531 0.286498 0
M  V30 1625 H 150.805 3.19273 2.00859 0
M  V30 1626 H 153.192 2.20186 1.96474 0
M  V30 1627 H 153.273 2.54752 0.231314 0
M  V30 1628 H 152.917 5.02603 0.731622 0
M  V30 1629 H 152.847 4.64995 2.47158 0
M  V30 1630 H 155.338 3.50724 1.40715 0
M  V30 1631 H 155.651 7.38158 2.28785 0
M  V30 1632 H 153.996 6.63639 2.06416 0
M  V30 1633 H 157.187 4.37505 1.66454 0
M  V30 1634 H 157.36 6.1417 2.06637 0
M  V30 1635 N 150.766 -0.704594 1.40972 0
M  V30 1636 C 151.729 -1.80035 1.41845 0
M  V30 1637 C 152.729 -1.57774 0.310474 0
M  V30 1638 O 153.919 -1.64613 0.56992 0
M  V30 1639 C 151.051 -3.18284 1.22098 0
M  V30 1640 H 152.244 -1.80658 2.3938 0
M  V30 1641 H 149.797 -0.911329 1.26982 0
M  V30 1642 H 150.532 -3.23306 0.253672 0
M  V30 1643 H 150.317 -3.35843 2.02366 0
M  V30 1644 H 151.807 -3.98289 1.25522 0
M  V30 1645 N 152.244 -1.26651 -0.937939 0
M  V30 1646 C 153.207 -1.08546 -2.01867 0
M  V30 1647 C 154.207 -0.0327327 -1.60767 0
M  V30 1648 O 155.397 -0.276427 -1.71993 0
M  V30 1649 C 152.529 -0.651711 -3.34613 0
M  V30 1650 H 153.722 -2.04502 -2.1936 0
M  V30 1651 H 151.275 -1.09294 -1.11734 0
M  V30 1652 H 152.01 0.309696 -3.22818 0
M  V30 1653 H 151.795 -1.41189 -3.65798 0
M  V30 1654 H 153.285 -0.546973 -4.14002 0
M  V30 1655 N 153.722 1.14298 -1.08507 0
M  V30 1656 C 154.971 1.84708 -0.810305 0
M  V30 1657 C 155.284 1.83903 0.666271 0
M  V30 1658 O 156.49 2.50112 1.05624 0
M  V30 1659 C 154.946 3.31572 -1.39957 0
M  V30 1660 C 154.554 3.40791 -2.90801 0
M  V30 1661 C 156.298 4.07087 -1.20334 0
M  V30 1662 C 154.205 4.81872 -3.4286 0
M  V30 1663 H 153.135 0.691985 -0.299454 0
M  V30 1664 H 155.786 1.28841 -1.30661 0
M  V30 1665 H 154.168 3.87183 -0.830976 0
M  V30 1666 H 155.342 2.95225 -3.53806 0
M  V30 1667 H 153.657 2.78732 -3.0935 0
M  V30 1668 H 156.254 5.11225 -1.56693 0
M  V30 1669 H 156.597 4.16054 -0.143237 0
M  V30 1670 H 157.13 3.57779 -1.73893 0
M  V30 1671 H 153.869 4.78094 -4.48449 0
M  V30 1672 H 153.389 5.27972 -2.84615 0
M  V30 1673 H 155.068 5.50765 -3.39509 0
M  V30 1674 N 155.201 0.870884 1.31352 0
M  V30 1675 C 156.478 0.402907 1.91405 0
M  V30 1676 C 156.858 -1.11512 1.79244 0
M  V30 1677 O 156.206 -1.94411 1.2007 0
M  V30 1678 C 156.416 0.885301 3.37585 0
M  V30 1679 C 157.764 0.911971 4.14691 0
M  V30 1680 O 158.788 0.831016 3.46371 0
M  V30 1681 O 157.647 1.02927 5.3672 0
M  V30 1682 H 154.741 0.120698 0.818145 0
M  V30 1683 H 157.287 0.958857 1.40014 0
M  V30 1684 H 156.059 1.92889 3.40455 0
M  V30 1685 H 155.682 0.307714 3.96407 0
M  V30 1686 N 156.679 -1.44442 0.630414 0
M  V30 1687 C 157.904 -2.06927 0.139944 0
M  V30 1688 C 158.329 -1.46795 -1.17613 0
M  V30 1689 O 157.687 -0.569144 -1.72135 0
M  V30 1690 C 157.735 -3.6058 0.0379581 0
M  V30 1691 O 156.839 -3.99937 -1.0062 0
M  V30 1692 H 156.18 -0.658608 0.0844483 0
M  V30 1693 H 158.71 -1.85327 0.866891 0
M  V30 1694 H 158.72 -4.07714 -0.152856 0
M  V30 1695 H 157.395 -4.03728 0.998809 0
M  V30 1696 H 155.972 -3.64436 -0.79001 0
M  V30 1697 N 158.157 -0.370918 -1.53173 0
M  V30 1698 C 159.405 0.216673 -2.00935 0
M  V30 1699 C 159.726 1.48845 -1.25977 0
M  V30 1700 O 158.996 1.92286 -0.374551 0
M  V30 1701 H 157.576 0.0830565 -0.742368 0
M  V30 1702 H 160.238 -0.49838 -1.8842 0
M  V30 1703 H 159.334 0.439893 -3.08984 0
M  V30 1704 N 159.635 1.57281 -0.100228 0
M  V30 1705 C 160.565 2.17328 0.853857 0
M  V30 1706 C 161.546 1.10804 1.2906 0
M  V30 1707 O 162.731 1.38963 1.35657 0
M  V30 1708 C 159.861 2.75772 2.11109 0
M  V30 1709 C 158.815 3.87713 1.81279 0
M  V30 1710 C 158.141 4.32882 3.13874 0
M  V30 1711 C 159.441 5.10677 1.09574 0
M  V30 1712 H 161.135 2.97305 0.353545 0
M  V30 1713 H 158.681 1.43009 0.168612 0
M  V30 1714 H 160.634 3.16433 2.78296 0
M  V30 1715 H 159.358 1.93057 2.63432 0
M  V30 1716 H 158.017 3.476 1.16489 0
M  V30 1717 H 157.665 3.47051 3.64095 0
M  V30 1718 H 157.365 5.08358 2.94696 0
M  V30 1719 H 158.889 4.7618 3.82211 0
M  V30 1720 H 160.303 5.48474 1.66879 0
M  V30 1721 H 158.7 5.91615 1.00557 0
M  V30 1722 H 159.77 4.84835 0.0793299 0
M  V30 1723 N 161.113 -0.173488 1.56642 0
M  V30 1724 C 162.359 -0.891784 1.8214 0
M  V30 1725 C 162.692 -1.8199 0.677736 0
M  V30 1726 O 161.967 -1.91842 -0.320446 0
M  V30 1727 C 162.25 -1.68933 3.18015 0
M  V30 1728 C 162.103 -0.784487 4.42906 0
M  V30 1729 C 163.422 -2.65748 3.50808 0
M  V30 1730 H 160.541 -0.322761 0.662567 0
M  V30 1731 H 163.183 -0.158095 1.89341 0
M  V30 1732 H 161.333 -2.31482 3.12007 0
M  V30 1733 H 163.005 -0.172046 4.60979 0
M  V30 1734 H 161.248 -0.0924117 4.33702 0
M  V30 1735 H 161.919 -1.37799 5.34524 0
M  V30 1736 H 164.395 -2.13327 3.57255 0
M  V30 1737 H 163.271 -3.18619 4.4696 0
M  V30 1738 H 163.532 -3.45842 2.75401 0
M  V30 1739 N 162.591 -1.51276 -0.441967 0
M  V30 1740 C 163.868 -1.54252 -1.20273 0
M  V30 1741 C 164.248 -0.30408 -2.08898 0
M  V30 1742 O 163.596 0.711084 -2.17154 0
M  V30 1743 C 163.806 -2.85406 -2.00859 0
M  V30 1744 C 165.154 -3.37181 -2.58059 0
M  V30 1745 O 166.178 -2.86925 -2.11074 0
M  V30 1746 O 165.037 -4.24858 -3.43741 0
M  V30 1747 H 162.131 -0.619969 -0.547328 0
M  V30 1748 H 164.677 -1.63586 -0.451413 0
M  V30 1749 H 163.449 -3.67003 -1.35736 0
M  V30 1750 H 163.072 -2.79213 -2.83065 0
M  V30 1751 N 164.069 0.697108 -1.41344 0
M  V30 1752 C 165.002 1.82134 -1.37486 0
M  V30 1753 C 165.98 1.60784 -0.242351 0
M  V30 1754 O 167.164 1.83553 -0.429012 0
M  V30 1755 C 164.291 3.18788 -1.14421 0
M  V30 1756 C 163.337 3.58932 -2.3037 0
M  V30 1757 S 164.17 3.63916 -3.92843 0
M  V30 1758 C 165.326 5.03298 -3.72078 0
M  V30 1759 H 165.559 1.85129 -2.32625 0
M  V30 1760 H 163.092 0.865671 -1.2785 0
M  V30 1761 H 165.05 3.97677 -1.018 0
M  V30 1762 H 163.711 3.13404 -0.20905 0
M  V30 1763 H 162.904 4.58202 -2.09922 0
M  V30 1764 H 162.506 2.87347 -2.39391 0
M  V30 1765 H 164.798 5.90753 -3.31688 0
M  V30 1766 H 165.741 5.28788 -4.70945 0
M  V30 1767 H 166.149 4.74764 -3.05384 0
M  V30 1768 N 165.547 1.27147 0.931209 0
M  V30 1769 C 166.796 1.12664 1.67302 0
M  V30 1770 C 167.109 -0.327718 1.92835 0
M  V30 1771 O 168.315 -0.593392 2.64936 0
M  V30 1772 C 166.771 1.9683 3.01307 0
M  V30 1773 C 166.379 3.46901 2.83485 0
M  V30 1774 C 168.123 1.90985 3.79111 0
M  V30 1775 C 166.03 4.23279 4.13024 0
M  V30 1776 H 164.96 0.41803 0.627509 0
M  V30 1777 H 167.611 1.51539 1.03481 0
M  V30 1778 H 165.993 1.50797 3.66164 0
M  V30 1779 H 167.167 4.00773 2.27415 0
M  V30 1780 H 165.482 3.54088 2.19113 0
M  V30 1781 H 168.079 2.45328 4.75098 0
M  V30 1782 H 168.422 0.882718 4.06834 0
M  V30 1783 H 168.955 2.34895 3.21044 0
M  V30 1784 H 165.694 5.26503 3.90481 0
M  V30 1785 H 165.214 3.74186 4.6877 0
M  V30 1786 H 166.893 4.32265 4.81411 0
M  V30 1787 N 167.025 -1.13721 1.09112 0
M  V30 1788 C 168.302 -1.81155 0.737706 0
M  V30 1789 C 168.682 -1.96253 -0.777683 0
M  V30 1790 O 168.03 -1.52807 -1.69889 0
M  V30 1791 C 168.24 -3.16392 1.47299 0
M  V30 1792 C 169.588 -3.91787 1.63671 0
M  V30 1793 O 170.612 -3.26005 1.43524 0
M  V30 1794 O 169.471 -5.0977 1.96969 0
M  V30 1795 H 166.565 -0.783518 0.26463 0
M  V30 1796 H 169.111 -1.20676 1.19312 0
M  V30 1797 H 167.883 -3.0061 2.50498 0
M  V30 1798 H 167.506 -3.8457 1.00953 0
M  V30 1799 N 168.503 -0.877838 -1.30888 0
M  V30 1800 C 169.433 -0.35534 -2.3078 0
M  V30 1801 C 170.414 0.557994 -1.60687 0
M  V30 1802 O 171.599 0.473355 -1.88343 0
M  V30 1803 C 168.729 0.437221 -3.44537 0
M  V30 1804 C 167.683 -0.383715 -4.26276 0
M  V30 1805 C 167.009 0.535014 -5.32017 0
M  V30 1806 C 168.309 -1.62201 -4.96476 0
M  V30 1807 H 170.003 -1.19007 -2.74732 0
M  V30 1808 H 167.549 -0.573698 -1.32078 0
M  V30 1809 H 169.502 0.813334 -4.13477 0
M  V30 1810 H 168.226 1.30553 -2.99372 0
M  V30 1811 H 166.885 -0.741874 -3.59015 0
M  V30 1812 H 166.533 1.40083 -4.831 0
M  V30 1813 H 166.233 -0.0104211 -5.87599 0
M  V30 1814 H 167.757 0.907799 -6.03814 0
M  V30 1815 H 169.171 -1.31689 -5.5797 0
M  V30 1816 H 167.568 -2.10711 -5.61891 0
M  V30 1817 H 168.638 -2.37044 -4.23011 0
M  V30 1818 N 169.982 1.44106 -0.638065 0
M  V30 1819 C 170.892 2.34513 0.0637334 0
M  V30 1820 C 171.908 1.53018 0.828346 0
M  V30 1821 O 173.084 1.85723 0.779036 0
M  V30 1822 C 170.149 3.31095 1.02844 0
M  V30 1823 C 169.21 4.28497 0.26244 0
M  V30 1824 C 168.443 5.20465 1.1812 0
M  V30 1825 O 168.666 5.16514 2.42011 0
M  V30 1826 O 167.6 5.98251 0.661774 0
M  V30 1827 H 171.426 2.95989 -0.68003 0
M  V30 1828 H 169.011 1.43994 -0.398252 0
M  V30 1829 H 170.893 3.90526 1.58327 0
M  V30 1830 H 169.568 2.72144 1.7527 0
M  V30 1831 H 168.475 3.72592 -0.335602 0
M  V30 1832 H 169.808 4.90388 -0.421936 0
M  V30 1833 N 171.46 0.379036 1.52974 0
M  V30 1834 C 172.39 -0.452706 2.29069 0
M  V30 1835 C 173.371 -1.07237 1.32039 0
M  V30 1836 O 174.556 -1.08708 1.60923 0
M  V30 1837 C 171.686 -1.5856 3.08992 0
M  V30 1838 C 170.64 -1.0925 4.13822 0
M  V30 1839 C 169.966 -2.31668 4.81907 0
M  V30 1840 C 171.266 -0.167702 5.22031 0
M  V30 1841 H 172.96 0.182181 2.98845 0
M  V30 1842 H 170.506 0.0890592 1.43724 0
M  V30 1843 H 172.459 -2.1742 3.6098 0
M  V30 1844 H 171.183 -2.24792 2.36931 0
M  V30 1845 H 169.842 -0.526494 3.628 0
M  V30 1846 H 169.49 -2.96386 4.06404 0
M  V30 1847 H 169.19 -1.9934 5.52754 0
M  V30 1848 H 170.714 -2.91189 5.36695 0
M  V30 1849 H 172.128 -0.664186 5.6944 0
M  V30 1850 H 170.525 0.0653265 6.00064 0
M  V30 1851 H 171.595 0.786347 4.78482 0
M  V30 1852 N 172.938 -1.57226 0.108567 0
M  V30 1853 C 174.185 -1.94833 -0.551943 0
M  V30 1854 C 174.513 -0.991204 -1.67348 0
M  V30 1855 O 173.768 -0.0131878 -1.95696 0
M  V30 1856 C 174.067 -3.38911 -1.13463 0
M  V30 1857 C 173.733 -4.50696 -0.135509 0
M  V30 1858 C 172.395 -4.80998 0.139252 0
M  V30 1859 C 174.747 -5.18333 0.545957 0
M  V30 1860 C 172.075 -5.76259 1.10194 0
M  V30 1861 C 174.427 -6.14627 1.49721 0
M  V30 1862 C 173.091 -6.43327 1.78006 0
M  V30 1863 H 172.361 -0.712944 -0.20197 0
M  V30 1864 H 175.008 -1.90582 0.18726 0
M  V30 1865 H 173.313 -3.39805 -1.95037 0
M  V30 1866 H 175.01 -3.65317 -1.65362 0
M  V30 1867 H 171.6 -4.27087 -0.359846 0
M  V30 1868 H 175.784 -4.95087 0.346842 0
M  V30 1869 H 171.04 -5.96804 1.32795 0
M  V30 1870 H 175.214 -6.66126 2.03099 0
M  V30 1871 H 172.841 -7.1695 2.52759 0
M  V30 1872 N 174.416 0.165178 -1.56732 0
M  V30 1873 C 175.644 0.896218 -1.86482 0
M  V30 1874 C 176.059 1.75555 -0.694675 0
M  V30 1875 O 175.416 1.79379 0.33607 0
M  V30 1876 C 175.467 1.76792 -3.1532 0
M  V30 1877 O 175.188 0.943239 -4.27825 0
M  V30 1878 C 176.689 2.6081 -3.58459 0
M  V30 1879 H 173.909 0.260064 -0.618553 0
M  V30 1880 H 176.453 0.163428 -2.03846 0
M  V30 1881 H 174.608 2.45398 -2.99764 0
M  V30 1882 H 175.022 1.53998 -5.01383 0
M  V30 1883 H 176.496 3.17579 -4.51495 0
M  V30 1884 H 176.973 3.35977 -2.82872 0
M  V30 1885 H 177.579 1.97526 -3.76648 0
M  V30 1886 N 175.894 1.51508 0.433938 0
M  V30 1887 C 177.142 1.6402 1.18075 0
M  V30 1888 C 177.463 0.360328 1.91642 0
M  V30 1889 O 176.733 -0.623945 1.85698 0
M  V30 1890 H 175.313 0.6045 0.43885 0
M  V30 1891 H 177.975 1.88452 0.497178 0
M  V30 1892 H 177.071 2.46949 1.90847 0
M  V30 1893 N 177.372 -0.689602 1.41712 0
M  V30 1894 C 178.649 -1.44457 1.31877 0
M  V30 1895 C 179.029 -2.11039 -0.0508537 0
M  V30 1896 O 178.377 -2.02138 -1.06547 0
M  V30 1897 C 178.587 -2.45913 2.47645 0
M  V30 1898 C 179.935 -3.10991 2.89084 0
M  V30 1899 O 180.959 -2.56238 2.47428 0
M  V30 1900 O 179.818 -4.10174 3.61137 0
M  V30 1901 H 176.912 -0.64362 0.519309 0
M  V30 1902 H 179.458 -0.719576 1.53689 0
M  V30 1903 H 178.23 -1.95409 3.39015 0
M  V30 1904 H 177.853 -3.25913 2.27742 0
M  V30 1905 N 178.85 -1.27639 -0.924453 0
M  V30 1906 C 179.813 -1.10681 -2.00705 0
M  V30 1907 C 180.813 -0.0497823 -1.60723 0
M  V30 1908 O 182.003 -0.294654 -1.7169 0
M  V30 1909 C 179.135 -0.687164 -3.33902 0
M  V30 1910 H 180.328 -2.06817 -2.17179 0
M  V30 1911 H 177.881 -1.10473 -1.10569 0
M  V30 1912 H 178.616 0.275439 -3.23128 0
M  V30 1913 H 178.401 -1.45061 -3.6428 0
M  V30 1914 H 179.891 -0.590853 -4.13399 0
M  V30 1915 N 180.328 1.1314 -1.09713 0
M  V30 1916 C 181.605 1.80762 -0.747302 0
M  V30 1917 C 181.985 1.96663 0.767265 0
M  V30 1918 O 181.333 1.53706 1.69076 0
M  V30 1919 C 181.543 3.15606 -1.48975 0
M  V30 1920 C 182.891 3.90914 -1.65746 0
M  V30 1921 O 183.915 3.25239 -1.45251 0
M  V30 1922 O 182.774 5.08718 -1.9967 0
M  V30 1923 H 179.868 0.782103 -0.268782 0
M  V30 1924 H 182.414 1.20041 -1.19951 0
M  V30 1925 H 181.186 2.99278 -2.52088 0
M  V30 1926 H 180.809 3.84029 -1.02991 0
M  V30 1927 N 181.806 0.884767 1.30421 0
M  V30 1928 C 183.052 0.503851 1.96441 0
M  V30 1929 C 183.385 -0.944518 1.69684 0
M  V30 1930 O 182.66 -1.66737 1.00145 0
M  V30 1931 C 182.943 0.779085 3.51571 0
M  V30 1932 C 182.796 2.27807 3.87846 0
M  V30 1933 C 184.115 0.255452 4.39358 0
M  V30 1934 H 181.234 0.184533 0.713524 0
M  V30 1935 H 183.876 1.10872 1.54297 0
M  V30 1936 H 182.026 0.264274 3.876 0
M  V30 1937 H 183.698 2.86127 3.61841 0
M  V30 1938 H 181.941 2.74479 3.35922 0
M  V30 1939 H 182.612 2.42125 4.96064 0
M  V30 1940 H 185.088 0.696079 4.10236 0
M  V30 1941 H 183.964 0.477361 5.4682 0
M  V30 1942 H 184.225 -0.843293 4.33983 0
M  V30 1943 N 183.284 -1.43765 0.645699 0
M  V30 1944 C 184.231 -2.30745 -0.0504648 0
M  V30 1945 C 185.201 -1.4432 -0.822241 0
M  V30 1946 O 186.386 -1.73202 -0.800358 0
M  V30 1947 C 183.526 -3.29802 -1.0161 0
M  V30 1948 C 182.639 -4.31326 -0.241219 0
M  V30 1949 C 181.774 -5.17469 -1.19998 0
M  V30 1950 C 180.813 -6.10691 -0.415094 0
M  V30 1951 N 179.95 -6.89483 -1.32506 0
M  V30 1952 H 184.79 -2.8973 0.697155 0
M  V30 1953 H 182.327 -1.42738 0.355563 0
M  V30 1954 H 184.285 -3.85734 -1.58949 0
M  V30 1955 H 182.915 -2.72483 -1.73069 0
M  V30 1956 H 181.967 -3.77749 0.448334 0
M  V30 1957 H 183.279 -4.9743 0.369437 0
M  V30 1958 H 182.433 -5.7799 -1.84424 0
M  V30 1959 H 181.172 -4.51473 -1.84455 0
M  V30 1960 H 180.177 -5.49265 0.242565 0
M  V30 1961 H 181.402 -6.78727 0.224966 0
M  V30 1962 H 179.348 -6.26142 -1.95657 0
M  V30 1963 H 179.265 -7.52081 -0.768783 0
M  V30 1964 H 180.533 -7.54516 -1.9577 0
M  V30 1965 N 184.763 -0.387143 -1.52771 0
M  V30 1966 C 185.726 0.436939 -2.24997 0
M  V30 1967 C 186.726 0.991991 -1.26555 0
M  V30 1968 O 187.916 0.874335 -1.50669 0
M  V30 1969 C 185.048 1.61281 -3.00335 0
M  V30 1970 H 186.241 -0.195365 -2.99263 0
M  V30 1971 H 183.794 -0.139218 -1.55679 0
M  V30 1972 H 184.529 2.2826 -2.30364 0
M  V30 1973 H 184.314 1.22154 -3.72587 0
M  V30 1974 H 185.804 2.19629 -3.5518 0
M  V30 1975 N 186.241 1.57166 -0.116904 0
M  V30 1976 C 187.469 1.99473 0.549383 0
M  V30 1977 C 187.884 0.996541 1.60357 0
M  V30 1978 O 187.241 -0.0108731 1.82497 0
M  V30 1979 C 187.292 3.41788 1.17741 0
M  V30 1980 O 187.013 4.37788 0.165362 0
M  V30 1981 C 188.514 3.99216 1.92722 0
M  V30 1982 H 185.734 0.655009 0.145616 0
M  V30 1983 H 188.278 2.03494 -0.202625 0
M  V30 1984 H 186.433 3.38713 1.88021 0
M  V30 1985 H 186.847 5.20806 0.621403 0
M  V30 1986 H 188.321 5.00882 2.31995 0
M  V30 1987 H 188.798 3.3824 2.80161 0
M  V30 1988 H 189.404 4.0583 1.27209 0
M  V30 1989 N 187.719 -0.156864 1.56817 0
M  V30 1990 C 188.965 -0.872416 1.83076 0
M  V30 1991 C 189.298 -1.81261 0.697001 0
M  V30 1992 O 188.573 -1.92171 -0.30008 0
M  V30 1993 C 188.856 -1.65551 3.19789 0
M  V30 1994 C 188.709 -0.737467 4.43713 0
M  V30 1995 C 190.028 -2.62012 3.53606 0
M  V30 1996 H 187.147 -0.315715 0.665953 0
M  V30 1997 H 189.789 -0.138004 1.89498 0
M  V30 1998 H 187.939 -2.28159 3.14445 0
M  V30 1999 H 189.611 -0.123143 4.61136 0
M  V30 2000 H 187.854 -0.0464067 4.33775 0
M  V30 2001 H 188.525 -1.32122 5.35955 0
M  V30 2002 H 191.001 -2.09525 3.59497 0
M  V30 2003 H 189.877 -3.13861 4.50314 0
M  V30 2004 H 190.138 -3.42902 2.79053 0
M  V30 2005 N 189.197 -1.51736 -0.425897 0
M  V30 2006 C 190.474 -1.55519 -1.1863 0
M  V30 2007 C 190.854 -0.326219 -2.08564 0
M  V30 2008 O 190.202 0.688012 -2.17896 0
M  V30 2009 C 190.412 -2.87521 -1.9782 0
M  V30 2010 C 191.76 -3.39899 -2.54468 0
M  V30 2011 O 192.784 -2.89148 -2.08019 0
M  V30 2012 O 191.643 -4.2848 -3.39215 0
M  V30 2013 H 188.737 -0.625739 -0.540721 0
M  V30 2014 H 191.283 -1.64055 -0.434038 0
M  V30 2015 H 190.055 -3.68422 -1.31836 0
M  V30 2016 H 189.678 -2.822 -2.80088 0
M  V30 2017 N 190.675 0.682077 -1.42076 0
M  V30 2018 C 191.905 1.46844 -1.45329 0
M  V30 2019 C 192.313 1.89102 -0.0609328 0
M  V30 2020 O 191.656 1.58238 0.933082 0
M  V30 2021 C 191.718 2.75375 -2.31104 0
M  V30 2022 C 191.382 2.55238 -3.79081 0
M  V30 2023 C 192.379 2.20309 -4.70914 0
M  V30 2024 C 190.064 2.70459 -4.2327 0
M  V30 2025 C 192.058 2.00859 -6.04925 0
M  V30 2026 C 189.745 2.50624 -5.57343 0
M  V30 2027 C 190.743 2.15876 -6.47986 0
M  V30 2028 O 190.431 1.96227 -7.79583 0
M  V30 2029 H 190.163 0.4586 -0.496651 0
M  V30 2030 H 192.717 0.846131 -1.87162 0
M  V30 2031 H 190.947 3.40061 -1.84107 0
M  V30 2032 H 192.636 3.37231 -2.25898 0
M  V30 2033 H 193.402 2.08153 -4.38061 0
M  V30 2034 H 189.281 2.96485 -3.53012 0
M  V30 2035 H 192.825 1.7366 -6.75639 0
M  V30 2036 H 188.722 2.62375 -5.89771 0
M  V30 2037 H 189.49 2.10883 -7.90867 0
M  V30 2038 N 192.153 1.28127 0.917671 0
M  V30 2039 C 193.116 1.11744 2.00115 0
M  V30 2040 C 194.116 0.0583052 1.60694 0
M  V30 2041 O 195.306 0.303755 1.71531 0
M  V30 2042 C 192.438 0.704862 3.33533 0
M  V30 2043 H 193.631 2.07966 2.16079 0
M  V30 2044 H 191.184 1.11058 1.09981 0
M  V30 2045 H 191.919 -0.258299 3.2327 0
M  V30 2046 H 191.704 1.4699 3.63505 0
M  V30 2047 H 193.194 0.612768 4.1308 0
M  V30 2048 N 193.631 -1.12557 1.10312 0
M  V30 2049 C 194.581 -2.16331 0.720076 0
M  V30 2050 C 195.565 -1.58616 -0.270115 0
M  V30 2051 O 196.757 -1.76823 -0.0790507 0
M  V30 2052 C 193.886 -3.42963 0.152113 0
M  V30 2053 C 192.972 -4.07663 1.16927 0
M  V30 2054 N 193.363 -4.47392 2.35953 0
M  V30 2055 C 191.661 -4.34425 1.0095 0
M  V30 2056 C 192.362 -4.97932 3.0073 0
M  V30 2057 N 191.338 -4.93358 2.28252 0
M  V30 2058 H 195.14 -2.44813 1.62616 0
M  V30 2059 H 192.654 -1.29449 0.980654 0
M  V30 2060 H 194.651 -4.16664 -0.14037 0
M  V30 2061 H 193.311 -3.1595 -0.748701 0
M  V30 2062 H 194.322 -4.39802 2.73486 0
M  V30 2063 H 190.999 -4.17177 0.164134 0
M  V30 2064 H 192.389 -5.38397 4.01969 0
M  V30 2065 N 195.109 -0.891671 -1.2995 0
M  V30 2066 C 196.072 -0.36828 -2.26222 0
M  V30 2067 C 197.072 0.493014 -1.53056 0
M  V30 2068 O 198.262 0.299213 -1.71611 0
M  V30 2069 C 195.394 0.47442 -3.37583 0
M  V30 2070 H 196.587 -1.21844 -2.74033 0
M  V30 2071 H 194.14 -0.669107 -1.41254 0
M  V30 2072 H 194.875 1.34489 -2.95099 0
M  V30 2073 H 194.66 -0.142615 -3.91841 0
M  V30 2074 H 196.15 0.83218 -4.09224 0
M  V30 2075 N 196.587 1.43421 -0.653314 0
M  V30 2076 C 197.537 2.2792 0.060558 0
M  V30 2077 C 198.521 1.39906 0.794677 0
M  V30 2078 O 199.713 1.63536 0.677128 0
M  V30 2079 C 196.842 3.27603 1.0262 0
M  V30 2080 C 195.928 4.23104 0.290551 0
M  V30 2081 N 196.319 5.01031 -0.692967 0
M  V30 2082 C 194.617 4.42816 0.531984 0
M  V30 2083 C 195.318 5.70626 -1.12963 0
M  V30 2084 N 194.294 5.41617 -0.463867 0
M  V30 2085 H 198.096 2.85585 -0.694143 0
M  V30 2086 H 195.61 1.55126 -0.480602 0
M  V30 2087 H 197.607 3.86918 1.55242 0
M  V30 2088 H 196.267 2.71499 1.78096 0
M  V30 2089 H 197.278 5.0669 -1.07169 0
M  V30 2090 H 193.955 3.97782 1.26791 0
M  V30 2091 H 195.345 6.4318 -1.94343 0
M  V30 2092 N 198.065 0.39524 1.52563 0
M  V30 2093 C 199.013 -0.451859 2.28169 0
M  V30 2094 C 200.007 -1.05792 1.32304 0
M  V30 2095 O 201.213 -0.997718 1.49818 0
M  V30 2096 H 197.588 -0.164481 0.733792 0
M  V30 2097 H 199.559 0.207199 2.9768 0
M  V30 2098 C 198.308 -1.56385 3.10546 0
M  V30 2099 H 197.631 -1.10682 3.84174 0
M  V30 2100 H 199.071 -2.13067 3.66577 0
M  V30 2101 C 197.53 -2.52328 2.23231 0
M  V30 2102 O 198.06 -3.5588 1.86312 0
M  V30 2103 N 196.266 -2.22209 1.87274 0
M  V30 2104 H 195.813 -1.38033 2.17496 0
M  V30 2105 H 195.771 -2.86652 1.29143 0
M  V30 2106 N 199.544 -1.57102 0.125237 0
M  V30 2107 C 200.79 -1.95697 -0.532035 0
M  V30 2108 C 201.123 -1.009 -1.6593 0
M  V30 2109 O 200.398 -0.047347 -1.94442 0
M  V30 2110 C 200.681 -3.44181 -1.05884 0
M  V30 2111 C 200.534 -4.49752 0.0654392 0
M  V30 2112 C 201.853 -3.94655 -1.9477 0
M  V30 2113 H 198.972 -0.711571 -0.191925 0
M  V30 2114 H 201.614 -1.88923 0.20206 0
M  V30 2115 H 199.764 -3.50085 -1.68442 0
M  V30 2116 H 201.436 -4.55943 0.700982 0
M  V30 2117 H 199.679 -4.27653 0.727709 0
M  V30 2118 H 200.35 -5.50924 -0.344505 0
M  V30 2119 H 202.826 -3.91094 -1.42074 0
M  V30 2120 H 201.702 -4.99057 -2.28546 0
M  V30 2121 H 201.963 -3.35718 -2.87656 0
M  V30 2122 N 201.022 0.148545 -1.56898 0
M  V30 2123 C 202.252 0.875118 -1.8715 0
M  V30 2124 C 202.66 1.75322 -0.711262 0
M  V30 2125 O 202.003 1.80745 0.328151 0
M  V30 2126 C 202.065 1.7844 -3.12089 0
M  V30 2127 C 201.729 1.08361 -4.43967 0
M  V30 2128 C 202.726 0.438247 -5.1805 0
M  V30 2129 C 200.411 1.07358 -4.90693 0
M  V30 2130 C 202.405 -0.20779 -6.37061 0
M  V30 2131 C 200.092 0.42373 -6.09629 0
M  V30 2132 C 201.09 -0.215829 -6.82659 0
M  V30 2133 O 200.778 -0.855378 -7.99336 0
M  V30 2134 H 200.51 0.258504 -0.624621 0
M  V30 2135 H 203.064 0.14652 -2.04877 0
M  V30 2136 H 201.294 2.55389 -2.90367 0
M  V30 2137 H 202.983 2.38279 -3.286 0
M  V30 2138 H 203.749 0.437817 -4.8302 0
M  V30 2139 H 199.628 1.5608 -4.33774 0
M  V30 2140 H 203.172 -0.70758 -6.94002 0
M  V30 2141 H 199.069 0.421822 -6.4412 0
M  V30 2142 H 199.837 -0.756892 -8.14993 0
M  V30 2143 N 202.5 1.5196 0.417844 0
M  V30 2144 C 203.746 1.65836 1.16732 0
M  V30 2145 C 204.079 0.382881 1.90388 0
M  V30 2146 O 203.354 -0.618368 1.84408 0
M  V30 2147 C 203.637 2.87466 2.16876 0
M  V30 2148 C 203.49 4.25041 1.47174 0
M  V30 2149 C 204.809 3.04613 3.17646 0
M  V30 2150 H 201.928 0.603515 0.423011 0
M  V30 2151 H 204.57 1.84494 0.454105 0
M  V30 2152 H 202.72 2.71689 2.777 0
M  V30 2153 H 204.392 4.52527 0.895376 0
M  V30 2154 H 202.635 4.26843 0.773806 0
M  V30 2155 H 203.306 5.06176 2.20204 0
M  V30 2156 H 205.782 3.1923 2.66892 0
M  V30 2157 H 204.658 3.91247 3.8499 0
M  V30 2158 H 204.919 2.17541 3.84874 0
M  V30 2159 N 203.978 -0.674533 1.42435 0
M  V30 2160 C 205.224 -1.43671 1.43131 0
M  V30 2161 C 205.557 -1.94142 0.0476021 0
M  V30 2162 O 204.832 -1.70924 -0.928188 0
M  V30 2163 C 205.115 -2.63355 2.45594 0
M  V30 2164 C 204.968 -2.18514 3.93156 0
M  V30 2165 C 206.287 -3.65571 2.45043 0
M  V30 2166 H 203.406 -0.521077 0.521198 0
M  V30 2167 H 206.048 -0.766551 1.7385 0
M  V30 2168 H 204.198 -3.2053 2.19528 0
M  V30 2169 H 205.87 -1.66504 4.30202 0
M  V30 2170 H 204.113 -1.50086 4.07009 0
M  V30 2171 H 204.784 -3.04484 4.60428 0
M  V30 2172 H 207.26 -3.18113 2.68223 0
M  V30 2173 H 206.136 -4.46893 3.18713 0
M  V30 2174 H 206.397 -4.16716 1.47649 0
M  V30 2175 N 205.456 -1.28612 -0.910864 0
M  V30 2176 C 206.389 -1.07109 -2.01502 0
M  V30 2177 C 207.367 0.013706 -1.62594 0
M  V30 2178 O 208.551 -0.134796 -1.88017 0
M  V30 2179 C 205.678 -0.628255 -3.32822 0
M  V30 2180 C 204.724 -1.71012 -3.90714 0
M  V30 2181 S 205.557 -3.30676 -4.21205 0
M  V30 2182 C 206.713 -2.88234 -5.55583 0
M  V30 2183 H 206.946 -2.00591 -2.19432 0
M  V30 2184 H 204.479 -1.12633 -1.05609 0
M  V30 2185 H 206.437 -0.37946 -4.08742 0
M  V30 2186 H 205.098 0.28678 -3.12788 0
M  V30 2187 H 204.291 -1.35195 -4.85529 0
M  V30 2188 H 203.893 -1.91186 -3.21441 0
M  V30 2189 H 206.185 -2.34584 -6.35591 0
M  V30 2190 H 207.128 -3.81857 -5.96314 0
M  V30 2191 H 207.536 -2.26862 -5.16908 0
M  V30 2192 N 206.934 1.1197 -1.10907 0
M  V30 2193 C 208.159 1.87942 -0.877064 0
M  V30 2194 C 208.584 1.79341 0.567314 0
M  V30 2195 O 207.942 1.15184 1.40009 0
M  V30 2196 C 207.99 3.34926 -1.33629 0
M  V30 2197 O 207.094 4.09303 -0.504447 0
M  V30 2198 H 206.435 0.583785 -0.316371 0
M  V30 2199 H 208.965 1.4157 -1.47712 0
M  V30 2200 H 208.975 3.8577 -1.32837 0
M  V30 2201 H 207.65 3.40504 -2.3881 0
M  V30 2202 H 206.227 3.68393 -0.577993 0
M  V30 2203 N 208.412 0.89855 1.29475 0
M  V30 2204 C 209.36 0.365253 2.29714 0
M  V30 2205 C 210.354 -0.534993 1.6073 0
M  V30 2206 O 211.56 -0.417921 1.75081 0
M  V30 2207 H 207.935 0.0994853 0.74539 0
M  V30 2208 H 209.906 1.22406 2.72138 0
M  V30 2209 C 208.655 -0.393159 3.4547 0
M  V30 2210 H 207.978 0.290332 3.98744 0
M  V30 2211 H 209.418 -0.731189 4.17648 0
M  V30 2212 C 207.877 -1.59539 2.9673 0
M  V30 2213 O 208.407 -2.69469 2.97908 0
M  V30 2214 N 206.613 -1.43716 2.52575 0
M  V30 2215 H 206.16 -0.542828 2.51816 0
M  V30 2216 H 206.118 -2.24288 2.20323 0
M  V30 2217 N 209.89 -1.43072 0.660911 0
M  V30 2218 C 210.84 -2.27948 -0.04847 0
M  V30 2219 C 211.824 -1.40325 -0.787246 0
M  V30 2220 O 213.016 -1.63893 -0.668446 0
M  V30 2221 C 210.145 -3.28143 -1.00881 0
M  V30 2222 C 209.231 -4.23252 -0.268108 0
M  V30 2223 N 209.622 -5.00656 0.719528 0
M  V30 2224 C 207.92 -4.43092 -0.508493 0
M  V30 2225 C 208.621 -5.70019 1.15988 0
M  V30 2226 N 207.597 -5.41364 0.492584 0
M  V30 2227 H 211.399 -2.85213 0.709279 0
M  V30 2228 H 208.913 -1.54869 0.488822 0
M  V30 2229 H 210.91 -3.87736 -1.53188 0
M  V30 2230 H 209.57 -2.7244 -1.76654 0
M  V30 2231 H 210.581 -5.06115 1.09855 0
M  V30 2232 H 207.258 -3.98449 -1.24679 0
M  V30 2233 H 208.648 -6.4214 1.97751 0
M  V30 2234 N 211.368 -0.403325 -1.52352 0
M  V30 2235 C 212.645 0.232611 -1.94212 0
M  V30 2236 C 213.025 1.63133 -1.33981 0
M  V30 2237 O 212.373 2.22659 -0.513344 0
M  V30 2238 C 212.583 0.244811 -3.4814 0
M  V30 2239 C 213.931 0.46698 -4.22024 0
M  V30 2240 O 214.955 0.324419 -3.5472 0
M  V30 2241 O 213.814 0.74747 -5.41364 0
M  V30 2242 H 210.908 0.148223 -0.813609 0
M  V30 2243 H 213.454 -0.458848 -1.63379 0
M  V30 2244 H 212.226 -0.734378 -3.84347 0
M  V30 2245 H 211.849 0.980611 -3.85318 0
M  V30 2246 N 212.846 1.57033 -0.133567 0
M  V30 2247 C 214.093 1.95686 0.520877 0
M  V30 2248 C 214.421 1.0177 1.6575 0
M  V30 2249 O 213.676 0.0443195 1.9565 0
M  V30 2250 C 213.975 3.40674 1.08057 0
M  V30 2251 C 213.641 4.50855 0.0637899 0
M  V30 2252 C 212.303 4.80716 -0.215757 0
M  V30 2253 C 214.655 5.17398 -0.62835 0
M  V30 2254 C 211.983 5.74433 -1.19348 0
M  V30 2255 C 214.335 6.12167 -1.5948 0
M  V30 2256 C 212.999 6.40414 -1.88218 0
M  V30 2257 H 212.269 0.716067 0.190602 0
M  V30 2258 H 214.916 1.9026 -0.217556 0
M  V30 2259 H 213.221 3.42865 1.89606 0
M  V30 2260 H 214.918 3.67902 1.59529 0
M  V30 2261 H 211.508 4.27605 0.291855 0
M  V30 2262 H 215.692 4.94472 -0.425562 0
M  V30 2263 H 210.948 5.94616 -1.42272 0
M  V30 2264 H 215.122 6.6281 -2.13671 0
M  V30 2265 H 212.749 7.12838 -2.64133 0
M  V30 2266 N 214.325 -0.140222 1.56975 0
M  V30 2267 C 215.275 -1.17827 1.95194 0
M  V30 2268 C 216.259 -1.38195 0.824075 0
M  V30 2269 O 217.451 -1.39643 1.0876 0
M  V30 2270 C 214.58 -2.51024 2.34184 0
M  V30 2271 C 213.666 -2.3422 3.53556 0
M  V30 2272 N 214.057 -1.87185 4.69889 0
M  V30 2273 C 212.355 -2.64949 3.58773 0
M  V30 2274 C 213.056 -1.83586 5.5197 0
M  V30 2275 N 212.032 -2.2715 4.93866 0
M  V30 2276 H 215.834 -0.806817 2.82609 0
M  V30 2277 H 213.348 -0.348208 1.58623 0
M  V30 2278 H 215.345 -3.26074 2.59772 0
M  V30 2279 H 214.005 -2.88945 1.48124 0
M  V30 2280 H 215.016 -1.57048 4.93514 0
M  V30 2281 H 211.693 -3.067 2.8327 0
M  V30 2282 H 213.083 -1.48655 6.55249 0
M  V30 2283 N 215.803 -1.52179 -0.40978 0
M  V30 2284 C 216.735 -1.71703 -1.51825 0
M  V30 2285 C 217.748 -0.597445 -1.51441 0
M  V30 2286 O 218.937 -0.872582 -1.55719 0
M  V30 2287 C 216.037 -1.74171 -2.90719 0
M  V30 2288 C 215.21 -3.03156 -3.15302 0
M  V30 2289 C 214.269 -2.97445 -4.34065 0
M  V30 2290 O 213.295 -3.71352 -4.31377 0
M  V30 2291 N 214.497 -2.15191 -5.39141 0
M  V30 2292 H 217.262 -2.67334 -1.35472 0
M  V30 2293 H 214.823 -1.50409 -0.599069 0
M  V30 2294 H 216.815 -1.67884 -3.68235 0
M  V30 2295 H 215.385 -0.860166 -3.00533 0
M  V30 2296 H 214.605 -3.23097 -2.25836 0
M  V30 2297 H 215.893 -3.88484 -3.28569 0
M  V30 2298 H 215.291 -1.54573 -5.44173 0
M  V30 2299 H 213.848 -2.1476 -6.15403 0
M  V30 2300 N 217.281 0.66697 -1.42791 0
M  V30 2301 C 218.509 1.45505 -1.47091 0
M  V30 2302 C 218.924 1.8861 -0.0845873 0
M  V30 2303 O 218.281 1.58632 0.90234 0
M  V30 2304 C 218.332 2.69906 -2.40485 0
M  V30 2305 O 218.053 2.28608 -3.73725 0
M  V30 2306 C 219.554 3.63396 -2.53886 0
M  V30 2307 H 216.774 0.447459 -0.500022 0
M  V30 2308 H 219.318 0.818866 -1.8739 0
M  V30 2309 H 217.473 3.29696 -2.03419 0
M  V30 2310 H 217.887 3.08997 -4.23817 0
M  V30 2311 H 219.361 4.47387 -3.2334 0
M  V30 2312 H 219.838 4.09824 -1.57927 0
M  V30 2313 H 220.444 3.09495 -2.91706 0
M  V30 2314 N 218.759 1.29093 0.90403 0
M  V30 2315 C 220.17 1.15186 1.46932 0
M  V30 2316 C 220.521 -0.254587 1.94541 0
M  V30 2317 O 219.646 -1.14972 1.83332 0
M  V30 2318 C 220.241 2.08492 2.67051 0
M  V30 2319 C 218.8 1.98621 3.19729 0
M  V30 2320 C 217.947 1.9967 1.92425 0
M  V30 2321 H 220.898 1.41641 0.715789 0
M  V30 2322 H 220.919 1.65461 3.42641 0
M  V30 2323 H 220.431 3.10847 2.3237 0
M  V30 2324 H 218.532 0.993389 3.59114 0
M  V30 2325 H 218.645 2.86068 3.8432 0
M  V30 2326 H 217.009 1.44208 2.09943 0
M  V30 2327 H 217.792 3.03721 1.60026 0
M  V30 2328 N 220.237 -1.11381 1.11499 0
M  V30 2329 C 221.462 -1.87475 0.887019 0
M  V30 2330 C 221.887 -1.79639 -0.557796 0
M  V30 2331 O 221.245 -1.15924 -1.39396 0
M  V30 2332 C 221.293 -3.34213 1.35403 0
M  V30 2333 O 220.397 -4.0903 0.526146 0
M  V30 2334 H 219.738 -0.582099 0.319463 0
M  V30 2335 H 222.268 -1.40785 1.48461 0
M  V30 2336 H 222.278 -3.8506 1.34881 0
M  V30 2337 H 220.953 -3.39232 2.40612 0
M  V30 2338 H 219.53 -3.68082 0.597522 0
M  V30 2339 N 221.715 -0.905404 -1.28997 0
M  V30 2340 C 222.678 -0.392253 -2.25819 0
M  V30 2341 C 223.678 0.476753 -1.5357 0
M  V30 2342 O 224.868 0.280994 -1.71919 0
M  V30 2343 C 222 0.438588 -3.38067 0
M  V30 2344 H 223.193 -1.24743 -2.72725 0
M  V30 2345 H 220.746 -0.684051 -1.40536 0
M  V30 2346 H 221.481 1.31352 -2.96508 0
M  V30 2347 H 221.266 -0.184167 -3.91667 0
M  V30 2348 H 222.756 0.78873 -4.10084 0
M  V30 2349 N 223.193 1.4272 -0.668489 0
M  V30 2350 C 224.103 2.34596 0.0139753 0
M  V30 2351 C 225.119 1.5474 0.795703 0
M  V30 2352 O 226.295 1.87334 0.739466 0
M  V30 2353 C 223.36 3.33202 0.957982 0
M  V30 2354 C 222.421 4.28957 0.17149 0
M  V30 2355 C 221.654 5.22853 1.07053 0
M  V30 2356 O 221.877 5.21531 2.31001 0
M  V30 2357 O 220.811 5.9952 0.534727 0
M  V30 2358 H 224.637 2.9448 -0.742661 0
M  V30 2359 H 222.222 1.43117 -0.428705 0
M  V30 2360 H 224.104 3.93796 1.50008 0
M  V30 2361 H 222.779 2.758 1.69458 0
M  V30 2362 H 221.686 3.71796 -0.414558 0
M  V30 2363 H 223.019 4.89383 -0.52586 0
M  V30 2364 N 224.671 0.411399 1.52136 0
M  V30 2365 C 225.581 -0.419774 2.30814 0
M  V30 2366 C 226.597 -1.0515 1.38634 0
M  V30 2367 O 227.773 -1.05252 1.71709 0
M  V30 2368 C 224.838 -1.52019 3.11594 0
M  V30 2369 C 223.899 -0.91129 4.19516 0
M  V30 2370 C 223.132 -1.95927 4.96436 0
M  V30 2371 O 223.355 -3.17775 4.73683 0
M  V30 2372 O 222.289 -1.56423 5.81219 0
M  V30 2373 H 226.115 0.221805 3.02889 0
M  V30 2374 H 223.7 0.174547 1.48377 0
M  V30 2375 H 225.582 -2.15898 3.61892 0
M  V30 2376 H 224.257 -2.14633 2.42311 0
M  V30 2377 H 223.164 -0.235157 3.7336 0
M  V30 2378 H 224.497 -0.32904 4.91099 0
M  V30 2379 N 226.149 -1.5696 0.141893 0
M  V30 2380 C 227.082 -2.12271 -0.837627 0
M  V30 2381 C 228.06 -1.04495 -1.24578 0
M  V30 2382 O 229.244 -1.32293 -1.34278 0
M  V30 2383 C 226.371 -2.63822 -2.12404 0
M  V30 2384 C 225.417 -3.83698 -1.86221 0
M  V30 2385 S 226.25 -5.24948 -1.05781 0
M  V30 2386 C 227.406 -5.79884 -2.35552 0
M  V30 2387 H 227.639 -2.95023 -0.367249 0
M  V30 2388 H 225.172 -1.54231 -0.0723014 0
M  V30 2389 H 227.13 -2.94175 -2.86307 0
M  V30 2390 H 225.791 -1.8121 -2.56557 0
M  V30 2391 H 224.984 -4.17995 -2.81596 0
M  V30 2392 H 224.586 -3.5408 -1.20429 0
M  V30 2393 H 226.878 -5.91005 -3.31239 0
M  V30 2394 H 227.821 -6.77544 -2.05767 0
M  V30 2395 H 228.229 -5.08095 -2.45967 0
M  V30 2396 N 227.627 0.131896 -1.57047 0
M  V30 2397 C 228.873 0.843179 -1.84441 0
M  V30 2398 C 229.206 1.80129 -0.725749 0
M  V30 2399 O 228.481 1.92624 0.269469 0
M  V30 2400 C 228.764 1.60442 -3.22382 0
M  V30 2401 C 228.617 0.666782 -4.4483 0
M  V30 2402 C 229.936 2.56354 -3.5773 0
M  V30 2403 H 227.055 0.305081 -0.670891 0
M  V30 2404 H 229.697 0.107839 -1.89694 0
M  V30 2405 H 227.847 2.23128 -3.18035 0
M  V30 2406 H 229.519 0.0497646 -4.61273 0
M  V30 2407 H 227.762 -0.022609 -4.33794 0
M  V30 2408 H 228.433 1.23579 -5.37989 0
M  V30 2409 H 230.909 2.0378 -3.62785 0
M  V30 2410 H 229.785 3.06657 -4.5525 0
M  V30 2411 H 230.046 3.38419 -2.84473 0
M  V30 2412 N 229.106 1.52395 0.401703 0
M  V30 2413 C 230.036 1.79231 1.49661 0
M  V30 2414 C 231.017 0.643654 1.57452 0
M  V30 2415 O 232.202 0.889989 1.72606 0
M  V30 2416 C 229.332 1.94971 2.87409 0
M  V30 2417 C 228.286 3.10604 2.94465 0
M  V30 2418 C 227.612 3.11577 4.34538 0
M  V30 2419 C 228.912 4.49921 2.6527 0
M  V30 2420 H 230.606 2.70917 1.27454 0
M  V30 2421 H 228.152 1.30362 0.6117 0
M  V30 2422 H 230.105 2.12328 3.63999 0
M  V30 2423 H 228.829 0.999632 3.10926 0
M  V30 2424 H 227.488 2.93009 2.20321 0
M  V30 2425 H 227.136 2.14277 4.55076 0
M  V30 2426 H 226.836 3.89247 4.40183 0
M  V30 2427 H 228.36 3.31073 5.13053 0
M  V30 2428 H 229.774 4.67683 3.31581 0
M  V30 2429 H 228.171 5.29564 2.82281 0
M  V30 2430 H 229.241 4.57507 1.60671 0
M  V30 2431 N 230.584 -0.659388 1.43143 0
M  V30 2432 C 232 -0.974337 1.26407 0
M  V30 2433 C 232.2 -2.007 0.179341 0
M  V30 2434 O 231.256 -2.4856 -0.444295 0
M  V30 2435 C 232.569 -1.46447 2.62628 0
M  V30 2436 C 234.117 -1.58144 2.7011 0
M  V30 2437 C 234.592 -2.1055 4.06734 0
M  V30 2438 N 236.083 -2.17861 4.08767 0
M  V30 2439 C 236.818 -2.59519 5.1131 0
M  V30 2440 N 236.314 -3.00518 6.24228 0
M  V30 2441 N 238.107 -2.59404 4.98664 0
M  V30 2442 H 230.258 0.0240528 2.12386 0
M  V30 2443 H 232.521 -0.0518065 0.946583 0
M  V30 2444 H 232.227 -0.780123 3.42939 0
M  V30 2445 H 232.101 -2.44058 2.87603 0
M  V30 2446 H 234.488 -2.25682 1.90136 0
M  V30 2447 H 234.569 -0.589828 2.48907 0
M  V30 2448 H 234.213 -1.43616 4.87172 0
M  V30 2449 H 234.143 -3.10531 4.25298 0
M  V30 2450 H 236.634 -1.88975 3.27257 0
M  V30 2451 H 236.947 -3.31036 6.98309 0
M  V30 2452 H 235.292 -2.98337 6.2771 0
M  V30 2453 H 238.483 -2.26747 4.09516 0
M  V30 2454 H 238.656 -2.91548 5.78709 0
M  V30 2455 N 232.062 -1.29571 -0.897171 0
M  V30 2456 C 232.992 -1.17473 -2.01798 0
M  V30 2457 C 233.973 -0.068323 -1.69963 0
M  V30 2458 O 235.158 -0.248239 -1.92607 0
M  V30 2459 C 232.288 -0.853099 -3.36659 0
M  V30 2460 C 231.242 -1.9161 -3.82713 0
M  V30 2461 C 230.568 -1.44773 -5.14728 0
M  V30 2462 C 231.868 -3.32535 -4.02763 0
M  V30 2463 H 233.562 -2.11237 -2.12177 0
M  V30 2464 H 231.108 -1.01699 -1.01948 0
M  V30 2465 H 233.061 -0.755165 -4.14578 0
M  V30 2466 H 231.785 0.120236 -3.26379 0
M  V30 2467 H 230.444 -2.00346 -3.07013 0
M  V30 2468 H 230.092 -0.462995 -5.00865 0
M  V30 2469 H 229.792 -2.15865 -5.46513 0
M  V30 2470 H 231.316 -1.36334 -5.95185 0
M  V30 2471 H 232.73 -3.26626 -4.71156 0
M  V30 2472 H 231.127 -4.01607 -4.45905 0
M  V30 2473 H 232.197 -3.75326 -3.07016 0
M  V30 2474 N 233.54 1.10788 -1.12088 0
M  V30 2475 C 234.956 1.34691 -0.856186 0
M  V30 2476 C 235.156 1.94791 0.515615 0
M  V30 2477 O 234.212 2.18524 1.26505 0
M  V30 2478 C 235.525 2.27208 -1.9697 0
M  V30 2479 C 237.073 2.40755 -2.00016 0
M  V30 2480 C 237.548 3.36598 -3.1059 0
M  V30 2481 N 239.039 3.44164 -3.10008 0
M  V30 2482 C 239.774 4.18284 -3.92206 0
M  V30 2483 N 239.27 4.95322 -4.84384 0
M  V30 2484 N 241.063 4.13865 -3.80357 0
M  V30 2485 H 233.214 0.70144 -2.00483 0
M  V30 2486 H 235.477 0.371405 -0.872217 0
M  V30 2487 H 235.183 1.90251 -2.958 0
M  V30 2488 H 235.057 3.27485 -1.87172 0
M  V30 2489 H 237.444 2.76982 -1.01808 0
M  V30 2490 H 237.525 1.40305 -2.13888 0
M  V30 2491 H 237.169 3.01096 -4.09028 0
M  V30 2492 H 237.099 4.36918 -2.93956 0
M  V30 2493 H 239.59 2.8922 -2.43228 0
M  V30 2494 H 239.903 5.49267 -5.43623 0
M  V30 2495 H 238.248 4.94459 -4.884 0
M  V30 2496 H 241.439 3.52773 -3.07683 0
M  V30 2497 H 241.612 4.71372 -4.44649 0
M  V30 2498 N 235.018 0.912232 1.28515 0
M  V30 2499 C 235.965 0.397954 2.27343 0
M  V30 2500 C 236.935 -0.526766 1.57526 0
M  V30 2501 O 238.12 -0.449292 1.85435 0
M  V30 2502 C 235.26 -0.357263 3.43246 0
M  V30 2503 C 234.373 0.599788 4.27816 0
M  V30 2504 C 233.508 -0.173725 5.30916 0
M  V30 2505 C 232.547 0.777039 6.07148 0
M  V30 2506 N 231.684 0.0371398 7.0209 0
M  V30 2507 H 236.524 1.24577 2.70711 0
M  V30 2508 H 234.061 0.625612 1.33133 0
M  V30 2509 H 236.019 -0.8113 4.09236 0
M  V30 2510 H 234.649 -1.16943 3.00872 0
M  V30 2511 H 233.701 1.17235 3.61884 0
M  V30 2512 H 235.013 1.32704 4.80823 0
M  V30 2513 H 234.167 -0.688394 6.02782 0
M  V30 2514 H 232.906 -0.934041 4.78672 0
M  V30 2515 H 231.911 1.3031 5.34134 0
M  V30 2516 H 233.136 1.53689 6.61481 0
M  V30 2517 H 231.082 -0.705213 6.52198 0
M  V30 2518 H 230.999 0.704249 7.52713 0
M  V30 2519 H 232.267 -0.457383 7.78157 0
M  V30 2520 N 236.496 -1.42363 0.676048 0
M  V30 2521 C 237.429 -2.28141 -0.0516916 0
M  V30 2522 C 238.407 -1.41135 -0.807439 0
M  V30 2523 O 239.591 -1.70573 -0.802305 0
M  V30 2524 C 236.718 -3.21007 -1.08039 0
M  V30 2525 C 235.764 -4.24426 -0.420076 0
M  V30 2526 S 236.597 -5.29134 0.823246 0
M  V30 2527 C 237.753 -6.25566 -0.204344 0
M  V30 2528 H 237.986 -2.89515 0.675884 0
M  V30 2529 H 235.519 -1.47211 0.465635 0
M  V30 2530 H 237.477 -3.75048 -1.66881 0
M  V30 2531 H 236.138 -2.58766 -1.78042 0
M  V30 2532 H 235.331 -4.89596 -1.19633 0
M  V30 2533 H 234.933 -3.7388 0.0947845 0
M  V30 2534 H 237.225 -6.69098 -1.06369 0
M  V30 2535 H 238.168 -7.06895 0.412915 0
M  V30 2536 H 238.576 -5.61811 -0.55038 0
M  V30 2537 N 237.974 -0.419461 -1.51915 0
M  V30 2538 C 238.906 0.43646 -2.25006 0
M  V30 2539 C 239.919 1.00149 -1.28351 0
M  V30 2540 O 241.108 0.898674 -1.54227 0
M  V30 2541 C 238.208 1.6206 -2.9764 0
M  V30 2542 C 237.381 1.17763 -4.21249 0
M  V30 2543 C 236.44 2.22985 -4.76617 0
M  V30 2544 O 235.466 1.83151 -5.38929 0
M  V30 2545 N 236.668 3.55271 -4.59089 0
M  V30 2546 H 239.433 -0.18989 -2.99098 0
M  V30 2547 H 236.994 -0.247386 -1.59999 0
M  V30 2548 H 238.986 2.32038 -3.31573 0
M  V30 2549 H 237.556 2.15266 -2.2667 0
M  V30 2550 H 236.776 0.305582 -3.93014 0
M  V30 2551 H 238.064 0.858781 -5.015 0
M  V30 2552 H 237.462 3.90377 -4.09417 0
M  V30 2553 H 236.019 4.21195 -4.97432 0
M  V30 2554 N 239.452 1.56882 -0.150215 0
M  V30 2555 C 240.415 2.1573 0.774157 0
M  V30 2556 C 241.415 1.0999 1.17298 0
M  V30 2557 O 242.605 1.35613 1.09338 0
M  V30 2558 C 239.737 2.72302 2.05096 0
M  V30 2559 H 240.93 2.98752 0.262201 0
M  V30 2560 H 238.483 1.55985 0.099248 0
M  V30 2561 H 239.218 1.92956 2.6065 0
M  V30 2562 H 239.003 3.49665 1.77416 0
M  V30 2563 H 240.493 3.17632 2.71109 0
M  V30 2564 N 240.93 -0.123565 1.57115 0
M  V30 2565 C 241.86 -1.15309 2.03042 0
M  V30 2566 C 242.841 -1.43454 0.914061 0
M  V30 2567 O 244.026 -1.53973 1.18347 0
M  V30 2568 C 241.156 -2.48043 2.43089 0
M  V30 2569 C 240.11 -2.3437 3.58127 0
M  V30 2570 C 239.436 -3.72026 3.84059 0
M  V30 2571 C 240.736 -1.80804 4.90007 0
M  V30 2572 H 242.43 -0.771102 2.893 0
M  V30 2573 H 239.976 -0.369479 1.39179 0
M  V30 2574 H 241.929 -3.20311 2.73823 0
M  V30 2575 H 240.653 -2.88122 1.53796 0
M  V30 2576 H 239.312 -1.64551 3.27595 0
M  V30 2577 H 238.96 -4.09582 2.91979 0
M  V30 2578 H 238.66 -3.63732 4.6149 0
M  V30 2579 H 240.184 -4.45806 4.1724 0
M  V30 2580 H 241.598 -2.42886 5.19307 0
M  V30 2581 H 239.995 -1.83343 5.71407 0
M  V30 2582 H 241.065 -0.76528 4.78823 0
M  V30 2583 N 242.408 -1.52605 -0.393616 0
M  V30 2584 C 243.656 -1.67093 -1.13685 0
M  V30 2585 C 243.977 -0.411011 -1.90619 0
M  V30 2586 O 243.247 0.574491 -1.87287 0
M  V30 2587 H 241.827 -0.615923 -0.422668 0
M  V30 2588 H 244.489 -1.89704 -0.447039 0
M  V30 2589 H 243.585 -2.51922 -1.84232 0
M  V30 2590 N 243.887 0.651787 -1.4349 0
M  V30 2591 C 244.85 1.74647 -1.48429 0
M  V30 2592 C 245.85 1.56513 -0.368817 0
M  V30 2593 O 247.04 1.62385 -0.630623 0
M  V30 2594 C 244.172 3.13533 -1.33827 0
M  V30 2595 H 245.365 1.71649 -2.4592 0
M  V30 2596 H 242.918 0.863573 -1.30277 0
M  V30 2597 H 243.653 3.22142 -0.37349 0
M  V30 2598 H 243.438 3.28101 -2.14691 0
M  V30 2599 H 244.928 3.93356 -1.40218 0
M  V30 2600 N 245.365 1.30045 0.890287 0
M  V30 2601 C 246.642 1.09227 1.62262 0
M  V30 2602 C 247.022 -0.360305 2.08002 0
M  V30 2603 O 246.37 -1.35084 1.84295 0
M  V30 2604 C 246.58 2.08835 2.79623 0
M  V30 2605 C 247.928 2.40266 3.50082 0
M  V30 2606 O 248.952 2.07104 2.89804 0
M  V30 2607 O 247.811 2.96967 4.58773 0
M  V30 2608 H 244.905 0.419132 0.712922 0
M  V30 2609 H 247.451 1.41451 0.937529 0
M  V30 2610 H 246.223 3.06633 2.43089 0
M  V30 2611 H 245.846 1.77397 3.55832 0
M  V30 2612 N 246.843 -1.10192 1.12674 0
M  V30 2613 C 248.092 -1.81573 0.8783 0
M  V30 2614 C 248.405 -1.86249 -0.597557 0
M  V30 2615 O 249.611 -2.5386 -0.962681 0
M  V30 2616 C 248.067 -3.26149 1.52167 0
M  V30 2617 C 247.675 -3.29763 3.03249 0
M  V30 2618 C 249.419 -4.0234 1.3536 0
M  V30 2619 C 247.326 -4.68815 3.60508 0
M  V30 2620 H 246.256 -0.680394 0.324931 0
M  V30 2621 H 248.907 -1.23902 1.35353 0
M  V30 2622 H 247.289 -3.83832 0.974104 0
M  V30 2623 H 248.463 -2.8189 3.6452 0
M  V30 2624 H 246.778 -2.67059 3.19481 0
M  V30 2625 H 249.375 -5.05058 1.75559 0
M  V30 2626 H 249.718 -4.15235 0.297554 0
M  V30 2627 H 250.251 -3.51079 1.87052 0
M  V30 2628 H 246.99 -4.61121 4.65884 0
M  V30 2629 H 246.51 -5.17045 3.04014 0
M  V30 2630 H 248.189 -5.37785 3.59717 0
M  V30 2631 N 248.321 -0.919034 -1.28029 0
M  V30 2632 C 249.732 -0.600735 -1.76771 0
M  V30 2633 C 250.083 0.884024 -1.75156 0
M  V30 2634 O 249.208 1.69163 -1.34956 0
M  V30 2635 C 249.803 -1.08372 -3.21 0
M  V30 2636 C 248.362 -0.816248 -3.67443 0
M  V30 2637 C 247.509 -1.24742 -2.47658 0
M  V30 2638 H 250.46 -1.09974 -1.14418 0
M  V30 2639 H 250.481 -0.427512 -3.78091 0
M  V30 2640 H 249.993 -2.16437 -3.22144 0
M  V30 2641 H 248.094 0.250968 -3.71754 0
M  V30 2642 H 248.207 -1.4277 -4.57333 0
M  V30 2643 H 246.571 -0.666083 -2.45836 0
M  V30 2644 H 247.354 -2.33653 -2.51518 0
M  V30 2645 N 249.799 1.42003 -0.683588 0
M  V30 2646 C 250.746 2.30798 -0.0107309 0
M  V30 2647 C 251.716 1.4645 0.783688 0
M  V30 2648 O 252.901 1.75263 0.754156 0
M  V30 2649 C 250.041 3.3238 0.928306 0
M  V30 2650 C 249.154 4.31814 0.126776 0
M  V30 2651 C 248.289 5.20468 1.06236 0
M  V30 2652 C 247.328 6.11577 0.253035 0
M  V30 2653 N 246.465 6.92754 1.14179 0
M  V30 2654 H 251.305 2.8778 -0.773727 0
M  V30 2655 H 248.842 1.41745 -0.393283 0
M  V30 2656 H 250.8 3.89813 1.48666 0
M  V30 2657 H 249.43 2.76976 1.65783 0
M  V30 2658 H 248.482 3.76427 -0.54833 0
M  V30 2659 H 249.794 4.96276 -0.501192 0
M  V30 2660 H 248.948 5.82677 1.69035 0
M  V30 2661 H 247.687 4.56204 1.7242 0
M  V30 2662 H 246.692 5.48428 -0.388108 0
M  V30 2663 H 247.917 6.77892 -0.404839 0
M  V30 2664 H 245.863 6.3111 1.78987 0
M  V30 2665 H 245.78 7.53855 0.569111 0
M  V30 2666 H 247.048 7.59441 1.75697 0
M  V30 2667 N 251.277 0.427512 1.51691 0
M  V30 2668 C 252.526 -0.143679 2.01188 0
M  V30 2669 C 252.839 -1.44642 1.31674 0
M  V30 2670 O 254.045 -2.09997 1.72086 0
M  V30 2671 C 252.501 -0.306602 3.58592 0
M  V30 2672 C 252.109 0.985125 4.37035 0
M  V30 2673 C 253.853 -0.832091 4.16265 0
M  V30 2674 C 251.76 0.788382 5.86122 0
M  V30 2675 H 250.69 -0.0574701 0.751807 0
M  V30 2676 H 253.341 0.555772 1.74881 0
M  V30 2677 H 251.723 -1.06882 3.81303 0
M  V30 2678 H 252.897 1.75492 4.26074 0
M  V30 2679 H 251.212 1.4384 3.90767 0
M  V30 2680 H 253.809 -0.995617 5.25349 0
M  V30 2681 H 254.152 -1.81186 3.74803 0
M  V30 2682 H 254.685 -0.128444 3.97593 0
M  V30 2683 H 251.424 1.74025 6.31978 0
M  V30 2684 H 250.944 0.0582143 5.99772 0
M  V30 2685 H 252.623 0.437722 6.45518 0
M  V30 2686 N 252.755 -1.56801 0.158532 0
M  V30 2687 C 253.718 -2.16138 -0.762705 0
M  V30 2688 C 254.718 -1.1061 -1.16713 0
M  V30 2689 O 255.908 -1.36191 -1.08617 0
M  V30 2690 C 253.04 -2.73386 -2.03649 0
M  V30 2691 H 254.233 -2.98886 -0.246354 0
M  V30 2692 H 251.786 -1.56035 -0.0909744 0
M  V30 2693 H 252.521 -1.94335 -2.59623 0
M  V30 2694 H 252.306 -3.50601 -1.75559 0
M  V30 2695 H 253.796 -3.19065 -2.6942 0
M  V30 2696 N 254.233 0.115231 -1.57178 0
M  V30 2697 C 255.479 0.82357 -1.85325 0
M  V30 2698 C 255.812 1.79349 -0.744814 0
M  V30 2699 O 255.087 1.92899 0.249024 0
M  V30 2700 C 255.37 1.57014 -3.24066 0
M  V30 2701 C 255.223 0.619565 -4.45513 0
M  V30 2702 C 256.542 2.52545 -3.60429 0
M  V30 2703 H 253.661 0.297948 -0.674089 0
M  V30 2704 H 256.303 0.0877138 -1.89797 0
M  V30 2705 H 254.453 2.19742 -3.20383 0
M  V30 2706 H 256.125 0.000837639 -4.613 0
M  V30 2707 H 254.368 -0.0686174 -4.33746 0
M  V30 2708 H 255.039 1.17866 -5.3927 0
M  V30 2709 H 257.515 1.9992 -3.64926 0
M  V30 2710 H 256.391 3.01811 -4.58477 0
M  V30 2711 H 256.652 3.35383 -2.88047 0
M  V30 2712 N 255.711 1.52812 0.385517 0
M  V30 2713 C 256.644 1.72592 1.49289 0
M  V30 2714 C 257.622 0.573819 1.52138 0
M  V30 2715 O 258.806 0.80404 1.70492 0
M  V30 2716 C 255.933 1.78669 2.87741 0
M  V30 2717 C 254.979 3.00455 3.02703 0
M  V30 2718 S 255.812 4.60366 2.73538 0
M  V30 2719 C 256.968 4.69263 4.14177 0
M  V30 2720 H 257.201 2.66248 1.32285 0
M  V30 2721 H 254.734 1.43148 0.578611 0
M  V30 2722 H 256.692 1.82855 3.67524 0
M  V30 2723 H 255.353 0.861 3.02069 0
M  V30 2724 H 254.546 3.01258 4.04054 0
M  V30 2725 H 254.148 2.94278 2.30817 0
M  V30 2726 H 256.44 4.48092 5.08153 0
M  V30 2727 H 257.383 5.71276 4.18388 0
M  V30 2728 H 257.791 3.98072 4.00249 0
M  V30 2729 N 257.189 -0.644168 1.43834 0
M  V30 2730 C 258.6 -1.22554 1.40845 0
M  V30 2731 C 258.951 -1.9585 0.117115 0
M  V30 2732 O 258.076 -2.01734 -0.783086 0
M  V30 2733 C 258.671 -2.22907 2.55143 0
M  V30 2734 C 257.23 -2.76501 2.5539 0
M  V30 2735 C 256.377 -1.51287 2.32396 0
M  V30 2736 H 259.328 -0.43563 1.52604 0
M  V30 2737 H 259.349 -3.05259 2.2715 0
M  V30 2738 H 258.861 -1.69533 3.49114 0
M  V30 2739 H 256.962 -3.33914 1.65324 0
M  V30 2740 H 257.075 -3.23429 3.53455 0
M  V30 2741 H 255.439 -1.78957 1.81236 0
M  V30 2742 H 256.222 -0.998336 3.28463 0
M  V30 2743 N 258.668 -1.30515 -0.883378 0
M  V30 2744 C 259.6 -1.12846 -1.99496 0
M  V30 2745 C 260.613 -0.0712571 -1.62644 0
M  V30 2746 O 261.802 -0.317432 -1.75655 0
M  V30 2747 C 258.902 -0.699123 -3.3161 0
M  V30 2748 C 258.075 -1.83842 -3.96889 0
M  V30 2749 C 257.134 -1.39737 -5.07307 0
M  V30 2750 O 256.16 -2.10485 -5.28852 0
M  V30 2751 N 257.362 -0.277279 -5.79837 0
M  V30 2752 H 260.127 -2.08585 -2.15203 0
M  V30 2753 H 257.688 -1.22672 -1.05656 0
M  V30 2754 H 259.68 -0.387044 -4.02845 0
M  V30 2755 H 258.25 0.166276 -3.12157 0
M  V30 2756 H 257.47 -2.31853 -3.18807 0
M  V30 2757 H 258.758 -2.60187 -4.37241 0
M  V30 2758 H 258.156 0.3122 -5.64838 0
M  V30 2759 H 256.713 -0.0246623 -6.51795 0
M  V30 2760 N 260.146 1.09593 -1.13257 0
M  V30 2761 C 261.371 1.8604 -0.916732 0
M  V30 2762 C 261.796 1.80504 0.529146 0
M  V30 2763 O 261.154 1.18127 1.37534 0
M  V30 2764 C 261.202 3.32017 -1.40703 0
M  V30 2765 O 260.306 4.08141 -0.591153 0
M  V30 2766 H 259.647 0.576943 -0.328683 0
M  V30 2767 H 262.177 1.38405 -1.50682 0
M  V30 2768 H 262.187 3.82865 -1.4099 0
M  V30 2769 H 260.862 3.35361 -2.45979 0
M  V30 2770 H 259.439 3.67084 -0.656005 0
M  V30 2771 N 261.624 0.925811 1.2754 0
M  V30 2772 C 262.571 0.422045 2.26908 0
M  V30 2773 C 263.541 -0.510029 1.58076 0
M  V30 2774 O 264.726 -0.429599 1.85901 0
M  V30 2775 C 261.866 -0.320837 3.43605 0
M  V30 2776 C 260.979 0.64513 4.27156 0
M  V30 2777 C 260.114 -0.117405 5.3107 0
M  V30 2778 C 259.153 0.841391 6.0629 0
M  V30 2779 N 258.29 0.111604 7.02011 0
M  V30 2780 H 263.13 1.27441 2.69375 0
M  V30 2781 H 260.667 0.639697 1.32462 0
M  V30 2782 H 262.625 -0.76785 4.10073 0
M  V30 2783 H 261.255 -1.13745 3.02096 0
M  V30 2784 H 260.307 1.21067 3.6062 0
M  V30 2785 H 261.619 1.37797 4.79389 0
M  V30 2786 H 260.773 -0.624422 6.03478 0
M  V30 2787 H 259.512 -0.883219 4.79636 0
M  V30 2788 H 258.517 1.35967 5.32722 0
M  V30 2789 H 259.742 1.60696 6.59813 0
M  V30 2790 H 257.688 -0.635999 6.5291 0
M  V30 2791 H 257.605 0.784044 7.51923 0
M  V30 2792 H 258.873 -0.374823 7.78598 0
M  V30 2793 N 263.102 -1.41638 0.69111 0
M  V30 2794 C 264.052 -2.28 -0.000107832 0
M  V30 2795 C 265.036 -1.41964 -0.757304 0
M  V30 2796 O 266.228 -1.65274 -0.633532 0
M  V30 2797 C 263.357 -3.30209 -0.938983 0
M  V30 2798 C 262.443 -4.23725 -0.17827 0
M  V30 2799 N 262.834 -4.99017 0.825563 0
M  V30 2800 C 261.132 -4.44071 -0.414392 0
M  V30 2801 C 261.833 -5.67431 1.28052 0
M  V30 2802 N 260.809 -5.40197 0.607304 0
M  V30 2803 H 264.611 -2.83644 0.769617 0
M  V30 2804 H 262.125 -1.53797 0.521562 0
M  V30 2805 H 264.122 -3.90898 -1.44929 0
M  V30 2806 H 262.782 -2.76126 -1.70836 0
M  V30 2807 H 263.793 -5.03671 1.20566 0
M  V30 2808 H 260.47 -4.01004 -1.162 0
M  V30 2809 H 261.86 -6.37801 2.11327 0
M  V30 2810 N 264.58 -0.43555 -1.51462 0
M  V30 2811 C 265.857 0.191364 -1.94662 0
M  V30 2812 C 266.237 1.60254 -1.37411 0
M  V30 2813 O 265.585 2.2152 -0.560458 0
M  V30 2814 C 265.795 0.17091 -3.48581 0
M  V30 2815 C 267.143 0.377357 -4.2292 0
M  V30 2816 O 268.167 0.249104 -3.55328 0
M  V30 2817 O 267.026 0.63247 -5.42828 0
M  V30 2818 H 264.12 0.130932 -0.816569 0
M  V30 2819 H 266.666 -0.4934 -1.62369 0
M  V30 2820 H 265.438 -0.815738 -3.82703 0
M  V30 2821 H 265.061 0.898659 -3.87311 0
M  V30 2822 N 266.058 1.56714 -0.166846 0
M  V30 2823 C 267.304 1.97039 0.479962 0
M  V30 2824 C 267.637 1.05264 1.63197 0
M  V30 2825 O 266.912 0.0988833 1.94248 0
M  V30 2826 C 267.195 3.46867 0.967212 0
M  V30 2827 C 267.048 4.49421 -0.18466 0
M  V30 2828 C 268.367 3.9968 1.84238 0
M  V30 2829 H 265.486 0.71641 0.172992 0
M  V30 2830 H 268.128 1.8832 -0.252079 0
M  V30 2831 H 266.278 3.54428 1.59101 0
M  V30 2832 H 267.95 4.53924 -0.821621 0
M  V30 2833 H 266.193 4.25573 -0.840837 0
M  V30 2834 H 266.864 5.51644 0.198317 0
M  V30 2835 H 269.34 3.94723 1.31655 0
M  V30 2836 H 268.216 5.04941 2.15234 0
M  V30 2837 H 268.477 3.43226 2.78654 0
M  V30 2838 N 267.536 -0.106894 1.57237 0
M  V30 2839 C 268.466 -1.13148 2.04254 0
M  V30 2840 C 269.447 -1.42476 0.929224 0
M  V30 2841 O 270.632 -1.52709 1.19973 0
M  V30 2842 C 267.762 -2.4545 2.45706 0
M  V30 2843 C 266.716 -2.30558 3.60592 0
M  V30 2844 C 266.042 -3.67931 3.87983 0
M  V30 2845 C 267.342 -1.75597 4.91897 0
M  V30 2846 H 269.036 -0.740374 2.90101 0
M  V30 2847 H 266.582 -0.354696 1.39563 0
M  V30 2848 H 268.535 -3.17389 2.77205 0
M  V30 2849 H 267.259 -2.86475 1.56843 0
M  V30 2850 H 265.918 -1.61067 3.29322 0
M  V30 2851 H 265.566 -4.06462 2.96306 0
M  V30 2852 H 265.266 -3.58817 4.65322 0
M  V30 2853 H 266.79 -4.41356 4.21945 0
M  V30 2854 H 268.204 -2.37364 5.21854 0
M  V30 2855 H 266.601 -1.77272 5.73319 0
M  V30 2856 H 267.671 -0.714451 4.79608 0
M  V30 2857 N 269.014 -1.53014 -0.377408 0
M  V30 2858 C 270.242 -1.72515 -1.14219 0
M  V30 2859 C 270.657 -0.448735 -1.8339 0
M  V30 2860 O 270.014 0.577592 -1.73119 0
M  V30 2861 C 270.065 -2.8826 -2.18148 0
M  V30 2862 O 269.786 -4.10962 -1.51795 0
M  V30 2863 C 271.287 -3.19536 -3.07264 0
M  V30 2864 H 268.507 -0.577301 -0.342001 0
M  V30 2865 H 271.051 -1.99712 -0.439935 0
M  V30 2866 H 269.206 -2.63492 -2.83991 0
M  V30 2867 H 269.62 -4.75693 -2.20945 0
M  V30 2868 H 271.094 -4.03959 -3.76193 0
M  V30 2869 H 271.571 -2.34403 -3.71419 0
M  V30 2870 H 272.177 -3.46186 -2.47053 0
M  V30 2871 N 270.492 0.636531 -1.44174 0
M  V30 2872 C 271.422 1.76003 -1.53444 0
M  V30 2873 C 272.403 1.65619 -0.387841 0
M  V30 2874 O 273.588 1.84461 -0.607257 0
M  V30 2875 C 270.718 3.14511 -1.4731 0
M  V30 2876 C 269.672 3.39677 -2.60391 0
M  V30 2877 C 268.998 4.78159 -2.39308 0
M  V30 2878 C 270.298 3.32772 -4.02567 0
M  V30 2879 H 271.992 1.68501 -2.47483 0
M  V30 2880 H 269.538 0.809237 -1.19111 0
M  V30 2881 H 271.491 3.92878 -1.52397 0
M  V30 2882 H 270.215 3.22783 -0.49785 0
M  V30 2883 H 268.874 2.63688 -2.54684 0
M  V30 2884 H 268.522 4.83128 -1.39988 0
M  V30 2885 H 268.222 4.95956 -3.15122 0
M  V30 2886 H 269.746 5.58762 -2.46205 0
M  V30 2887 H 271.16 4.01051 -4.09672 0
M  V30 2888 H 269.557 3.62104 -4.7854 0
M  V30 2889 H 270.627 2.30669 -4.2652 0
M  V30 2890 N 271.97 1.30982 0.876444 0
M  V30 2891 C 272.9 1.20668 1.99903 0
M  V30 2892 C 273.881 0.095354 1.69833 0
M  V30 2893 O 275.066 0.27885 1.92188 0
M  V30 2894 C 272.196 0.90655 3.3526 0
M  V30 2895 C 271.15 1.97675 3.79617 0
M  V30 2896 C 270.476 1.52943 5.1236 0
M  V30 2897 C 271.776 3.389 3.97422 0
M  V30 2898 H 273.47 2.14586 2.0879 0
M  V30 2899 H 271.016 1.03308 1.00317 0
M  V30 2900 H 272.969 0.821025 4.13324 0
M  V30 2901 H 271.693 -0.0682969 3.26529 0
M  V30 2902 H 270.352 2.05205 3.03787 0
M  V30 2903 H 270 0.54262 5.00065 0
M  V30 2904 H 269.7 2.24532 5.43009 0
M  V30 2905 H 271.224 1.45786 5.92941 0
M  V30 2906 H 272.638 3.34081 4.659 0
M  V30 2907 H 271.035 4.0865 4.3946 0
M  V30 2908 H 272.105 3.80163 3.01006 0
M  V30 2909 N 273.449 -1.08991 1.13837 0
M  V30 2910 C 274.677 -1.85011 0.926202 0
M  V30 2911 C 275.092 -1.8135 -0.525127 0
M  V30 2912 O 274.449 -1.21287 -1.36366 0
M  V30 2913 C 274.5 -3.32802 1.41155 0
M  V30 2914 O 274.221 -3.36444 2.80601 0
M  V30 2915 C 275.722 -4.25649 1.23847 0
M  V30 2916 H 272.942 -0.584249 0.32999 0
M  V30 2917 H 275.486 -1.37688 1.51202 0
M  V30 2918 H 273.641 -3.77536 0.868631 0
M  V30 2919 H 274.055 -4.28657 3.02248 0
M  V30 2920 H 275.529 -5.27485 1.62675 0
M  V30 2921 H 276.006 -4.38828 0.18065 0
M  V30 2922 H 276.612 -3.86735 1.76964 0
M  V30 2923 N 274.927 -0.932562 -1.27047 0
M  V30 2924 C 275.89 -0.440064 -2.24936 0
M  V30 2925 C 276.89 0.444071 -1.54547 0
M  V30 2926 O 278.08 0.244465 -1.72476 0
M  V30 2927 C 275.212 0.36678 -3.38921 0
M  V30 2928 H 276.405 -1.305 -2.70018 0
M  V30 2929 H 273.958 -0.713707 -1.39054 0
M  V30 2930 H 274.693 1.25033 -2.99228 0
M  V30 2931 H 274.478 -0.267204 -3.91188 0
M  V30 2932 H 275.968 0.701567 -4.11665 0
M  V30 2933 N 276.405 1.4127 -0.698611 0
M  V30 2934 C 277.633 2.05503 -0.239992 0
M  V30 2935 C 278.048 1.52584 1.11191 0
M  V30 2936 O 277.405 0.675323 1.69545 0
M  V30 2937 C 277.456 3.60987 -0.192429 0
M  V30 2938 O 277.177 4.1195 -1.49094 0
M  V30 2939 C 278.678 4.42371 0.28681 0
M  V30 2940 H 275.898 0.661748 -0.111045 0
M  V30 2941 H 278.442 1.80987 -0.95205 0
M  V30 2942 H 276.597 3.84533 0.470472 0
M  V30 2943 H 277.011 5.06018 -1.38007 0
M  V30 2944 H 278.485 5.51344 0.26896 0
M  V30 2945 H 278.962 4.18699 1.32619 0
M  V30 2946 H 279.568 4.23897 -0.345201 0
M  V30 2947 N 277.883 0.443576 1.51229 0
M  V30 2948 C 278.813 -0.355142 2.30783 0
M  V30 2949 C 279.794 -1.0154 1.36468 0
M  V30 2950 O 280.979 -1.01785 1.65389 0
M  V30 2951 C 278.109 -1.45312 3.15439 0
M  V30 2952 C 277.063 -0.916002 4.18083 0
M  V30 2953 C 276.389 -2.1102 4.91299 0
M  V30 2954 C 277.689 0.0538602 5.22272 0
M  V30 2955 H 279.383 0.308767 2.97804 0
M  V30 2956 H 276.929 0.149937 1.43217 0
M  V30 2957 H 278.882 -2.01914 3.69876 0
M  V30 2958 H 277.606 -2.14541 2.46252 0
M  V30 2959 H 276.265 -0.372145 3.64706 0
M  V30 2960 H 275.913 -2.78882 4.18609 0
M  V30 2961 H 275.613 -1.75717 5.60712 0
M  V30 2962 H 277.137 -2.68164 5.48562 0
M  V30 2963 H 278.551 -0.422069 5.71744 0
M  V30 2964 H 276.948 0.319776 5.99247 0
M  V30 2965 H 278.018 0.98858 4.74716 0
M  V30 2966 N 279.361 -1.56624 0.175154 0
M  V30 2967 C 280.271 -2.21741 -0.766042 0
M  V30 2968 C 281.287 -1.21023 -1.25018 0
M  V30 2969 O 282.463 -1.53697 -1.3015 0
M  V30 2970 C 279.528 -2.84839 -1.97655 0
M  V30 2971 C 278.589 -4.00769 -1.53892 0
M  V30 2972 C 277.822 -4.60849 -2.69173 0
M  V30 2973 O 278.045 -4.19823 -3.86141 0
M  V30 2974 O 276.979 -5.50655 -2.43028 0
M  V30 2975 H 280.805 -3.02738 -0.241585 0
M  V30 2976 H 278.39 -1.49305 -0.053222 0
M  V30 2977 H 280.272 -3.24834 -2.68442 0
M  V30 2978 H 278.947 -2.06836 -2.48999 0
M  V30 2979 H 277.854 -3.65436 -0.80044 0
M  V30 2980 H 279.187 -4.80376 -1.07236 0
M  V30 2981 N 280.839 0.0985539 -1.57292 0
M  V30 2982 C 281.772 1.15082 -1.97057 0
M  V30 2983 C 282.75 1.39025 -0.843255 0
M  V30 2984 O 283.934 1.52842 -1.10325 0
M  V30 2985 C 281.061 2.50069 -2.28437 0
M  V30 2986 C 280.107 2.42428 -3.509 0
M  V30 2987 S 280.94 1.84414 -5.02744 0
M  V30 2988 C 282.096 3.21032 -5.37298 0
M  V30 2989 H 282.329 0.811815 -2.86002 0
M  V30 2990 H 279.862 0.306102 -1.51335 0
M  V30 2991 H 281.82 3.27729 -2.47192 0
M  V30 2992 H 280.481 2.8114 -1.40069 0
M  V30 2993 H 279.674 3.41911 -3.70288 0
M  V30 2994 H 279.276 1.72896 -3.31637 0
M  V30 2995 H 281.568 4.17297 -5.33731 0
M  V30 2996 H 282.511 3.06452 -6.38352 0
M  V30 2997 H 282.919 3.20404 -4.64759 0
M  V30 2998 N 282.317 1.53212 0.369288 0
M  V30 2999 C 283.249 1.75668 1.47219 0
M  V30 3000 C 284.262 0.637387 1.49804 0
M  V30 3001 O 285.451 0.913561 1.5335 0
M  V30 3002 C 282.551 1.81818 2.85999 0
M  V30 3003 C 281.724 3.11409 3.07153 0
M  V30 3004 C 280.783 3.08849 4.26026 0
M  V30 3005 O 279.809 3.82659 4.2138 0
M  V30 3006 N 281.011 2.29409 5.33246 0
M  V30 3007 H 283.776 2.70832 1.28337 0
M  V30 3008 H 281.337 1.51944 0.55898 0
M  V30 3009 H 283.329 1.77588 3.63655 0
M  V30 3010 H 281.899 0.939544 2.98146 0
M  V30 3011 H 281.119 3.28971 2.1719 0
M  V30 3012 H 282.407 3.97059 3.18154 0
M  V30 3013 H 281.805 1.68946 5.39883 0
M  V30 3014 H 280.362 2.31001 6.09493 0
M  V30 3015 N 283.795 -0.628877 1.44509 0
M  V30 3016 C 284.727 -1.754 1.47538 0
M  V30 3017 C 285.74 -1.58575 0.368506 0
M  V30 3018 O 286.929 -1.66847 0.634376 0
M  V30 3019 C 284.029 -3.1315 1.29577 0
M  V30 3020 C 283.202 -3.56413 2.53551 0
M  V30 3021 C 282.261 -4.7305 2.30457 0
M  V30 3022 O 281.287 -4.81247 3.03957 0
M  V30 3023 N 282.489 -5.64903 1.3366 0
M  V30 3024 H 285.254 -1.73272 2.44534 0
M  V30 3025 H 282.815 -0.813512 1.39977 0
M  V30 3026 H 284.807 -3.88902 1.11971 0
M  V30 3027 H 283.377 -3.09908 0.409371 0
M  V30 3028 H 282.597 -2.70847 2.86419 0
M  V30 3029 H 283.885 -3.82071 3.36005 0
M  V30 3030 H 283.283 -5.60975 0.729604 0
M  V30 3031 H 281.84 -6.40275 1.22032 0
M  V30 3032 N 285.273 -1.31445 -0.869486 0
M  V30 3033 C 286.223 -1.15731 -1.96444 0
M  V30 3034 C 287.207 -0.0681855 -1.60755 0
M  V30 3035 O 288.399 -0.293154 -1.74555 0
M  V30 3036 C 285.528 -0.867255 -3.32165 0
M  V30 3037 C 284.614 -1.99738 -3.74119 0
M  V30 3038 N 285.005 -3.24447 -3.88031 0
M  V30 3039 C 283.303 -1.89723 -4.03635 0
M  V30 3040 C 284.004 -3.98374 -4.23879 0
M  V30 3041 N 282.98 -3.26547 -4.3459 0
M  V30 3042 H 286.782 -2.10296 -2.05312 0
M  V30 3043 H 284.296 -1.23009 -1.06031 0
M  V30 3044 H 286.293 -0.735668 -4.10358 0
M  V30 3045 H 284.953 0.0701614 -3.24624 0
M  V30 3046 H 285.964 -3.59557 -3.72746 0
M  V30 3047 H 282.641 -1.03449 -4.04481 0
M  V30 3048 H 284.031 -5.05844 -4.42235 0
M  V30 3049 N 286.751 1.08385 -1.14413 0
M  V30 3050 C 287.981 1.8425 -0.934644 0
M  V30 3051 C 288.389 1.81907 0.520234 0
M  V30 3052 O 287.732 1.22126 1.37226 0
M  V30 3053 C 287.794 3.32853 -1.35828 0
M  V30 3054 C 287.458 3.5893 -2.82875 0
M  V30 3055 C 288.455 3.53756 -3.80989 0
M  V30 3056 C 286.14 3.86934 -3.20293 0
M  V30 3057 C 288.134 3.76216 -5.14529 0
M  V30 3058 C 285.821 4.09047 -4.54008 0
M  V30 3059 C 286.819 4.03682 -5.50936 0
M  V30 3060 O 286.507 4.25214 -6.82238 0
M  V30 3061 H 286.239 0.588502 -0.332628 0
M  V30 3062 H 288.793 1.37792 -1.52324 0
M  V30 3063 H 287.023 3.8007 -0.713019 0
M  V30 3064 H 288.712 3.90154 -1.11957 0
M  V30 3065 H 289.478 3.32135 -3.53428 0
M  V30 3066 H 285.357 3.9023 -2.45442 0
M  V30 3067 H 288.901 3.71943 -5.90173 0
M  V30 3068 H 284.798 4.30151 -4.8129 0
M  V30 3069 H 285.566 4.42619 -6.88499 0
M  V30 3070 N 288.23 0.939286 1.26551 0
M  V30 3071 C 289.193 0.451987 2.24699 0
M  V30 3072 C 290.193 -0.435869 1.5478 0
M  V30 3073 O 291.383 -0.235314 1.72603 0
M  V30 3074 C 288.515 -0.348801 3.39111 0
M  V30 3075 H 289.708 1.3193 2.69322 0
M  V30 3076 H 287.261 0.721072 1.38673 0
M  V30 3077 H 287.996 -1.23444 2.99887 0
M  V30 3078 H 287.781 0.287945 3.91041 0
M  V30 3079 H 289.271 -0.679726 4.12031 0
M  V30 3080 N 289.708 -1.40897 0.706093 0
M  V30 3081 C 290.985 -1.94868 0.169099 0
M  V30 3082 C 291.365 -1.64485 -1.32318 0
M  V30 3083 O 290.713 -0.95744 -2.07474 0
M  V30 3084 C 290.923 -3.45798 0.471654 0
M  V30 3085 C 292.271 -4.22663 0.405127 0
M  V30 3086 O 293.295 -3.53865 0.407168 0
M  V30 3087 O 292.154 -5.45216 0.374383 0
M  V30 3088 H 289.248 -0.82673 0.0211352 0
M  V30 3089 H 291.794 -1.50558 0.782976 0
M  V30 3090 H 290.566 -3.61235 1.50416 0
M  V30 3091 H 290.189 -3.97225 -0.172666 0
M  V30 3092 N 291.186 -0.45159 -1.50991 0
M  V30 3093 C 292.602 -0.104647 -1.59257 0
M  V30 3094 C 292.802 1.38728 -1.4614 0
M  V30 3095 O 291.858 2.15866 -1.30989 0
M  V30 3096 C 293.171 -0.637468 -2.93865 0
M  V30 3097 C 294.719 -0.599166 -3.07212 0
M  V30 3098 C 295.194 -1.1092 -4.44366 0
M  V30 3099 N 296.685 -1.06778 -4.50725 0
M  V30 3100 C 297.42 -1.43314 -5.55201 0
M  V30 3101 N 296.916 -1.87204 -6.67028 0
M  V30 3102 N 298.709 -1.3504 -5.45638 0
M  V30 3103 H 290.86 -1.42214 -1.57762 0
M  V30 3104 H 293.123 -0.586921 -0.744465 0
M  V30 3105 H 292.829 -1.68187 -3.08879 0
M  V30 3106 H 292.703 -0.0702139 -3.77135 0
M  V30 3107 H 295.09 0.436277 -2.91857 0
M  V30 3108 H 295.171 -1.20299 -2.25747 0
M  V30 3109 H 294.815 -2.14318 -4.60467 0
M  V30 3110 H 294.745 -0.481773 -5.24392 0
M  V30 3111 H 297.236 -0.745643 -3.70471 0
M  V30 3112 H 297.549 -2.13282 -7.42786 0
M  V30 3113 H 295.894 -1.91142 -6.68199 0
M  V30 3114 H 299.085 -1.00607 -4.57161 0
M  V30 3115 H 299.258 -1.63841 -6.26945 0
M  V30 3116 N 292.664 1.56529 -0.183458 0
M  V30 3117 C 294.075 1.83739 0.331177 0
M  V30 3118 C 294.426 1.10373 1.62211 0
M  V30 3119 O 293.551 0.36071 2.13373 0
M  V30 3120 C 294.146 3.33306 0.607646 0
M  V30 3121 C 292.705 3.60969 1.06668 0
M  V30 3122 C 291.852 2.77086 0.109029 0
M  V30 3123 H 294.803 1.53379 -0.407484 0
M  V30 3124 H 294.824 3.51444 1.45832 0
M  V30 3125 H 294.336 3.86677 -0.332086 0
M  V30 3126 H 292.437 3.13021 2.0211 0
M  V30 3127 H 292.55 4.69231 0.967447 0
M  V30 3128 H 290.914 2.47319 0.608714 0
M  V30 3129 H 291.697 3.33241 -0.82494 0
M  V30 3130 N 294.142 -0.090211 1.57342 0
M  V30 3131 C 295.388 -0.793982 1.86611 0
M  V30 3132 C 295.721 -1.78142 0.773252 0
M  V30 3133 O 294.996 -1.93271 -0.218304 0
M  V30 3134 C 295.279 -1.51839 3.26523 0
M  V30 3135 C 295.132 -0.548609 4.46442 0
M  V30 3136 C 296.451 -2.46779 3.64401 0
M  V30 3137 H 293.57 -0.287186 0.678744 0
M  V30 3138 H 296.212 -0.0575076 1.89913 0
M  V30 3139 H 294.362 -2.14617 3.23839 0
M  V30 3140 H 296.034 0.0725513 4.61243 0
M  V30 3141 H 294.277 0.137614 4.33582 0
M  V30 3142 H 294.948 -1.09271 5.41076 0
M  V30 3143 H 297.424 -1.94089 3.68061 0
M  V30 3144 H 296.3 -2.94479 4.63221 0
M  V30 3145 H 296.561 -3.30758 2.93346 0
M  V30 3146 N 295.62 -1.53406 -0.361157 0
M  V30 3147 C 296.869 -1.69022 -1.10066 0
M  V30 3148 C 297.182 -0.450838 -1.90333 0
M  V30 3149 O 298.388 -0.487617 -2.67085 0
M  V30 3150 C 296.844 -2.98812 -2.00598 0
M  V30 3151 C 296.452 -4.30027 -1.25621 0
M  V30 3152 C 298.196 -3.23795 -2.74513 0
M  V30 3153 C 296.103 -5.50903 -2.1508 0
M  V30 3154 H 295.033 -0.629776 -0.414606 0
M  V30 3155 H 297.684 -1.79907 -0.361348 0
M  V30 3156 H 296.066 -2.8174 -2.78278 0
M  V30 3157 H 297.24 -4.57745 -0.529739 0
M  V30 3158 H 295.555 -4.11522 -0.635496 0
M  V30 3159 H 298.152 -4.11289 -3.41681 0
M  V30 3160 H 298.495 -2.40045 -3.40123 0
M  V30 3161 H 299.028 -3.41561 -2.03914 0
M  V30 3162 H 295.767 -6.37143 -1.54041 0
M  V30 3163 H 295.287 -5.27459 -2.85565 0
M  V30 3164 H 296.966 -5.85865 -2.74538 0
M  V30 3165 N 297.098 0.621204 -1.44841 0
M  V30 3166 C 298.326 1.40752 -1.51646 0
M  V30 3167 C 298.741 1.88246 -0.144549 0
M  V30 3168 O 298.098 1.61422 0.851416 0
M  V30 3169 C 298.149 2.62119 -2.4895 0
M  V30 3170 O 297.87 2.16602 -3.80808 0
M  V30 3171 C 299.371 3.55135 -2.65319 0
M  V30 3172 H 296.591 0.431325 -0.514004 0
M  V30 3173 H 299.135 0.758835 -1.899 0
M  V30 3174 H 297.29 3.23058 -2.13805 0
M  V30 3175 H 297.704 2.95358 -4.33433 0
M  V30 3176 H 299.178 4.36874 -3.37409 0
M  V30 3177 H 299.655 4.04592 -1.70886 0
M  V30 3178 H 300.261 3.00058 -3.01405 0
M  V30 3179 N 298.576 1.31904 0.862503 0
M  V30 3180 C 299.509 1.14514 1.97388 0
M  V30 3181 C 300.487 0.0466493 1.62533 0
M  V30 3182 O 301.671 0.204484 1.87388 0
M  V30 3183 C 298.798 0.751347 3.30261 0
M  V30 3184 C 297.844 1.85395 3.84098 0
M  V30 3185 S 298.677 3.46081 4.08642 0
M  V30 3186 C 299.833 3.08655 5.44502 0
M  V30 3187 H 300.066 2.08597 2.11836 0
M  V30 3188 H 297.599 1.16475 1.01356 0
M  V30 3189 H 299.557 0.530901 4.07052 0
M  V30 3190 H 298.218 -0.170493 3.13637 0
M  V30 3191 H 297.411 1.53122 4.80177 0
M  V30 3192 H 297.013 2.02984 3.14123 0
M  V30 3193 H 299.305 2.58012 6.26447 0
M  V30 3194 H 300.248 4.03726 5.81731 0
M  V30 3195 H 300.656 2.45891 5.08132 0
M  V30 3196 N 300.054 -1.07777 1.14986 0
M  V30 3197 C 301.279 -1.84558 0.946213 0
M  V30 3198 C 301.704 -1.81323 -0.500362 0
M  V30 3199 O 301.062 -1.20301 -1.35637 0
M  V30 3200 C 301.11 -3.29736 1.45968 0
M  V30 3201 O 300.214 -4.07149 0.65601 0
M  V30 3202 H 299.555 -0.571641 0.33782 0
M  V30 3203 H 302.085 -1.35991 1.52865 0
M  V30 3204 H 302.095 -3.80574 1.47063 0
M  V30 3205 H 300.77 -3.31406 2.51283 0
M  V30 3206 H 299.347 -3.65994 0.714322 0
M  V30 3207 N 301.532 -0.945985 -1.26051 0
M  V30 3208 C 302.465 -0.403619 -2.24602 0
M  V30 3209 C 303.443 0.510241 -1.54387 0
M  V30 3210 O 304.627 0.446593 -1.83133 0
M  V30 3211 C 301.754 0.419564 -3.36091 0
M  V30 3212 C 300.8 -0.433454 -4.24292 0
M  V30 3213 S 301.633 -1.86037 -5.02146 0
M  V30 3214 C 302.789 -1.04538 -6.17108 0
M  V30 3215 H 303.022 -1.23883 -2.7026 0
M  V30 3216 H 300.555 -0.749438 -1.34992 0
M  V30 3217 H 302.513 0.888595 -4.00767 0
M  V30 3218 H 301.174 1.22951 -2.89036 0
M  V30 3219 H 300.367 0.197486 -5.03613 0
M  V30 3220 H 299.969 -0.837357 -3.64506 0
M  V30 3221 H 302.261 -0.289923 -6.76879 0
M  V30 3222 H 303.204 -1.81222 -6.84518 0
M  V30 3223 H 303.612 -0.579319 -5.61519 0
M  V30 3224 N 303.011 1.40521 -0.713556 0
M  V30 3225 C 303.974 2.29098 -0.0684347 0
M  V30 3226 C 304.974 1.45268 0.689472 0
M  V30 3227 O 306.164 1.66205 0.521677 0
M  V30 3228 C 303.296 3.28446 0.913024 0
M  V30 3229 H 304.489 2.87645 -0.84855 0
M  V30 3230 H 302.042 1.48809 -0.47809 0
M  V30 3231 H 302.777 2.74913 1.72027 0
M  V30 3232 H 302.562 3.90327 0.372472 0
M  V30 3233 H 304.052 3.94777 1.36165 0
M  V30 3234 N 304.489 0.459591 1.5075 0
M  V30 3235 C 305.436 -0.340524 2.28274 0
M  V30 3236 C 306.406 -0.997371 1.32822 0
M  V30 3237 O 307.591 -1.01202 1.61749 0
M  V30 3238 C 304.731 -1.42317 3.14388 0
M  V30 3239 C 303.844 -0.782251 4.24859 0
M  V30 3240 C 302.979 -1.84182 4.98247 0
M  V30 3241 C 302.018 -1.18053 6.00608 0
M  V30 3242 N 301.155 -2.18244 6.67319 0
M  V30 3243 H 305.995 0.326899 2.96202 0
M  V30 3244 H 303.532 0.173057 1.46078 0
M  V30 3245 H 305.49 -2.06241 3.62658 0
M  V30 3246 H 304.12 -2.05992 2.4853 0
M  V30 3247 H 303.172 -0.0307404 3.80388 0
M  V30 3248 H 304.484 -0.259663 4.98124 0
M  V30 3249 H 303.638 -2.55714 5.50177 0
M  V30 3250 H 302.377 -2.39819 4.24662 0
M  V30 3251 H 301.382 -0.450776 5.47949 0
M  V30 3252 H 302.607 -0.631202 6.7616 0
M  V30 3253 H 300.553 -2.72919 5.96533 0
M  V30 3254 H 300.47 -1.70938 7.36421 0
M  V30 3255 H 301.738 -2.89191 7.23871 0
M  V30 3256 N 305.967 -1.56429 0.191757 0
M  V30 3257 C 306.877 -2.22541 -0.742481 0
M  V30 3258 C 307.893 -1.22342 -1.23727 0
M  V30 3259 O 309.069 -1.55069 -1.28513 0
M  V30 3260 C 306.134 -2.8692 -1.94623 0
M  V30 3261 C 305.195 -4.02378 -1.49633 0
M  V30 3262 C 304.428 -4.63678 -2.6427 0
M  V30 3263 O 304.651 -4.23895 -3.81666 0
M  V30 3264 O 303.585 -5.53202 -2.37174 0
M  V30 3265 H 307.411 -3.02977 -0.209462 0
M  V30 3266 H 304.996 -1.49353 -0.0373832 0
M  V30 3267 H 306.878 -3.27663 -2.64982 0
M  V30 3268 H 305.553 -2.09466 -2.46791 0
M  V30 3269 H 304.46 -3.66265 -0.761636 0
M  V30 3270 H 305.793 -4.81487 -1.02134 0
M  V30 3271 N 307.445 0.0818655 -1.57387 0
M  V30 3272 C 308.693 0.781368 -1.86384 0
M  V30 3273 C 309.014 1.78618 -0.782342 0
M  V30 3274 O 308.284 1.94976 0.190061 0
M  V30 3275 H 306.864 0.291562 -0.687751 0
M  V30 3276 H 309.526 0.060348 -1.94807 0
M  V30 3277 H 308.622 1.3038 -2.83562 0
M  V30 3278 N 308.923 1.53595 0.353017 0
M  V30 3279 C 310.169 1.70638 1.09593 0
M  V30 3280 C 310.502 0.463286 1.88593 0
M  V30 3281 O 309.777 -0.539597 1.86865 0
M  V30 3282 C 310.06 2.96406 2.04489 0
M  V30 3283 C 309.913 4.30901 1.29014 0
M  V30 3284 C 311.232 3.17812 3.0444 0
M  V30 3285 H 308.351 0.620913 0.397034 0
M  V30 3286 H 310.993 1.86254 0.375446 0
M  V30 3287 H 309.143 2.83223 2.65927 0
M  V30 3288 H 310.815 4.55917 0.702638 0
M  V30 3289 H 309.058 4.29741 0.592071 0
M  V30 3290 H 309.729 5.1506 1.98537 0
M  V30 3291 H 312.205 3.30263 2.53112 0
M  V30 3292 H 311.081 4.07223 3.6805 0
M  V30 3293 H 311.342 2.33669 3.75301 0
M  V30 3294 N 310.401 -0.613514 1.45168 0
M  V30 3295 C 311.65 -1.36874 1.4815 0
M  V30 3296 C 311.963 -1.952 0.124982 0
M  V30 3297 O 313.169 -2.71481 0.0324176 0
M  V30 3298 C 311.625 -2.47905 2.60904 0
M  V30 3299 C 311.233 -1.96016 4.02842 0
M  V30 3300 C 312.977 -3.24965 2.73126 0
M  V30 3301 C 310.884 -3.04494 5.06988 0
M  V30 3302 H 309.814 -0.514428 0.551253 0
M  V30 3303 H 312.465 -0.658182 1.7129 0
M  V30 3304 H 310.847 -3.21618 2.31037 0
M  V30 3305 H 312.021 -1.29051 4.4236 0
M  V30 3306 H 310.336 -1.31719 3.95018 0
M  V30 3307 H 312.933 -4.05865 3.48106 0
M  V30 3308 H 313.276 -3.75588 1.79553 0
M  V30 3309 H 313.809 -2.5835 3.0249 0
M  V30 3310 H 310.548 -2.58795 6.0225 0
M  V30 3311 H 310.068 -3.70044 4.72046 0
M  V30 3312 H 311.747 -3.68976 5.31475 0
M  V30 3313 N 311.879 -1.3236 -0.855495 0
M  V30 3314 C 313.104 -1.2601 -1.64731 0
M  V30 3315 C 313.529 0.169068 -1.87339 0
M  V30 3316 O 312.887 1.12016 -1.42556 0
M  V30 3317 C 312.935 -2.02417 -2.98429 0
M  V30 3318 O 312.039 -1.3714 -3.8893 0
M  V30 3319 H 311.38 -0.434325 -0.502253 0
M  V30 3320 H 313.91 -1.74661 -1.06558 0
M  V30 3321 H 313.92 -2.12559 -3.48257 0
M  V30 3322 H 312.595 -3.06343 -2.81295 0
M  V30 3323 H 311.172 -1.3554 -3.47395 0
M  V30 3324 N 313.357 1.07166 -1.15556 0
M  V30 3325 C 314.773 1.31899 -0.898603 0
M  V30 3326 C 314.973 1.96333 0.453383 0
M  V30 3327 O 314.029 2.22438 1.19489 0
M  V30 3328 C 315.342 2.20826 -2.04099 0
M  V30 3329 C 316.89 2.34269 -2.07574 0
M  V30 3330 C 317.365 3.26546 -3.21141 0
M  V30 3331 N 318.856 3.34127 -3.20801 0
M  V30 3332 C 319.591 4.05595 -4.05315 0
M  V30 3333 N 319.087 4.79661 -4.99897 0
M  V30 3334 N 320.88 4.01555 -3.93332 0
M  V30 3335 H 313.031 0.637302 -2.02613 0
M  V30 3336 H 315.294 0.343468 -0.883591 0
M  V30 3337 H 315 1.80744 -3.01703 0
M  V30 3338 H 314.874 3.21364 -1.97496 0
M  V30 3339 H 317.261 2.73603 -1.10568 0
M  V30 3340 H 317.342 1.33429 -2.18244 0
M  V30 3341 H 316.986 2.87931 -4.184 0
M  V30 3342 H 316.916 4.27345 -3.07708 0
M  V30 3343 H 319.407 2.81336 -2.52306 0
M  V30 3344 H 319.72 5.31694 -5.60822 0
M  V30 3345 H 318.065 4.78671 -5.03884 0
M  V30 3346 H 321.256 3.42806 -3.18751 0
M  V30 3347 H 321.429 4.56987 -4.5942 0
M  V30 3348 N 314.835 0.952656 1.25548 0
M  V30 3349 C 315.765 0.489287 2.28316 0
M  V30 3350 C 316.746 -0.463359 1.63667 0
M  V30 3351 O 317.931 -0.36274 1.90782 0
M  V30 3352 C 315.061 -0.235603 3.465 0
M  V30 3353 C 314.015 0.631593 4.23314 0
M  V30 3354 C 313.341 -0.223923 5.34231 0
M  V30 3355 C 314.641 1.90871 4.86174 0
M  V30 3356 H 316.335 1.34822 2.67326 0
M  V30 3357 H 313.881 0.649728 1.28509 0
M  V30 3358 H 315.834 -0.570882 4.17515 0
M  V30 3359 H 314.558 -1.12877 3.06474 0
M  V30 3360 H 313.217 0.949929 3.54079 0
M  V30 3361 H 312.865 -1.11678 4.90446 0
M  V30 3362 H 312.565 0.35299 5.86539 0
M  V30 3363 H 314.089 -0.554214 6.0808 0
M  V30 3364 H 315.503 1.63997 5.49343 0
M  V30 3365 H 313.9 2.43112 5.4865 0
M  V30 3366 H 314.97 2.61304 4.08471 0
M  V30 3367 N 316.313 -1.40141 0.720998 0
M  V30 3368 C 317.276 -2.29058 0.0805834 0
M  V30 3369 C 318.276 -1.45632 -0.681758 0
M  V30 3370 O 319.466 -1.6648 -0.512856 0
M  V30 3371 C 316.598 -3.28925 -0.895593 0
M  V30 3372 H 317.791 -2.87191 0.863793 0
M  V30 3373 H 315.344 -1.48553 0.485975 0
M  V30 3374 H 316.079 -2.75822 -1.70566 0
M  V30 3375 H 315.864 -3.90519 -0.351766 0
M  V30 3376 H 317.354 -3.95494 -1.34069 0
M  V30 3377 N 317.792 -0.46758 -1.50504 0
M  V30 3378 C 319.04 0.0884469 -2.01906 0
M  V30 3379 C 319.361 1.40532 -1.35188 0
M  V30 3380 O 318.631 1.89515 -0.496079 0
M  V30 3381 H 317.211 0.0356765 -0.746148 0
M  V30 3382 H 319.873 -0.6172 -1.84869 0
M  V30 3383 H 318.969 0.2425 -3.11156 0
M  V30 3384 N 319.27 1.56325 -0.20005 0
M  V30 3385 C 320.18 2.22931 0.730668 0
M  V30 3386 C 321.196 1.22997 1.23076 0
M  V30 3387 O 322.372 1.55748 1.27689 0
M  V30 3388 C 319.437 2.87948 1.93098 0
M  V30 3389 C 318.498 4.03166 1.47497 0
M  V30 3390 C 317.731 4.65073 2.61807 0
M  V30 3391 O 317.954 4.25913 3.79413 0
M  V30 3392 O 316.888 5.54452 2.34237 0
M  V30 3393 H 320.714 3.03084 0.193391 0
M  V30 3394 H 318.299 1.49371 0.0294621 0
M  V30 3395 H 320.181 3.29063 2.6324 0
M  V30 3396 H 318.856 2.10771 2.45677 0
M  V30 3397 H 317.763 3.66664 0.742201 0
M  V30 3398 H 319.096 4.82022 0.995796 0
M  V30 3399 N 320.748 -0.0735177 1.57428 0
M  V30 3400 C 321.994 -0.774145 1.87443 0
M  V30 3401 C 322.327 -1.77311 0.792103 0
M  V30 3402 O 321.602 -1.93492 -0.197793 0
M  V30 3403 C 321.885 -1.48367 3.28115 0
M  V30 3404 C 321.738 -0.501227 4.46999 0
M  V30 3405 C 323.057 -2.429 3.66998 0
M  V30 3406 H 320.176 -0.279971 0.681752 0
M  V30 3407 H 322.818 -0.0373616 1.89963 0
M  V30 3408 H 320.968 -2.11171 3.26097 0
M  V30 3409 H 322.64 0.121468 4.6114 0
M  V30 3410 H 320.883 0.183593 4.33411 0
M  V30 3411 H 321.554 -1.03526 5.42205 0
M  V30 3412 H 324.03 -1.90175 3.70098 0
M  V30 3413 H 322.906 -2.89549 4.66318 0
M  V30 3414 H 323.167 -3.27628 2.96837 0
M  V30 3415 N 322.226 -1.5378 -0.344866 0
M  V30 3416 C 323.473 -1.70963 -1.08526 0
M  V30 3417 C 323.801 -0.472126 -1.88683 0
M  V30 3418 O 323.056 0.546116 -1.87926 0
M  V30 3419 C 323.355 -2.92407 -2.05506 0
M  V30 3420 C 323.021 -4.28066 -1.41671 0
M  V30 3421 C 321.683 -4.64951 -1.2399 0
M  V30 3422 C 324.035 -5.12344 -0.956726 0
M  V30 3423 C 321.363 -5.83733 -0.589277 0
M  V30 3424 C 323.715 -6.3179 -0.320015 0
M  V30 3425 C 322.379 -6.67372 -0.130881 0
M  V30 3426 H 321.649 -0.625598 -0.397124 0
M  V30 3427 H 324.296 -1.87995 -0.36469 0
M  V30 3428 H 322.601 -2.69973 -2.8394 0
M  V30 3429 H 324.298 -3.02895 -2.62784 0
M  V30 3430 H 320.888 -3.99034 -1.56429 0
M  V30 3431 H 325.072 -4.8438 -1.08118 0
M  V30 3432 H 320.328 -6.09877 -0.431344 0
M  V30 3433 H 324.502 -6.96386 0.0445072 0
M  V30 3434 H 322.129 -7.59273 0.375318 0
M  V30 3435 N 323.704 0.605807 -1.45491 0
M  V30 3436 C 324.952 1.36207 -1.49305 0
M  V30 3437 C 325.273 1.94519 -0.136863 0
M  V30 3438 O 324.543 1.77261 0.833983 0
M  V30 3439 H 323.123 0.50565 -0.549843 0
M  V30 3440 H 325.785 0.711239 -1.81459 0
M  V30 3441 H 324.881 2.18058 -2.23287 0
M  V30 3442 N 325.182 1.32811 0.848464 0
M  V30 3443 C 326.407 1.26882 1.6406 0
M  V30 3444 C 326.832 -0.15913 1.87426 0
M  V30 3445 O 326.19 -1.11258 1.43148 0
M  V30 3446 C 326.238 2.03997 2.97351 0
M  V30 3447 O 325.342 1.39201 3.88197 0
M  V30 3448 H 324.683 0.436982 0.499943 0
M  V30 3449 H 327.213 1.75224 1.0563 0
M  V30 3450 H 327.223 2.14403 3.47124 0
M  V30 3451 H 325.898 3.0783 2.79666 0
M  V30 3452 H 324.475 1.37381 3.46671 0
M  V30 3453 N 326.66 -1.06551 1.16123 0
M  V30 3454 C 327.623 -2.12132 0.867906 0
M  V30 3455 C 328.623 -1.60224 -0.135944 0
M  V30 3456 O 329.813 -1.73943 0.0946422 0
M  V30 3457 C 326.945 -3.396 0.297419 0
M  V30 3458 H 328.138 -2.39586 1.80385 0
M  V30 3459 H 325.691 -1.22574 0.969812 0
M  V30 3460 H 326.426 -3.17794 -0.64633 0
M  V30 3461 H 326.211 -3.78581 1.02073 0
M  V30 3462 H 327.701 -4.17455 0.110052 0
M  V30 3463 N 328.138 -0.959301 -1.25041 0
M  V30 3464 C 329.101 -0.487677 -2.23952 0
M  V30 3465 C 330.101 0.41119 -1.55454 0
M  V30 3466 O 331.291 0.207825 -1.72956 0
M  V30 3467 C 328.423 0.294807 -3.39623 0
M  V30 3468 H 329.616 -1.36198 -2.67189 0
M  V30 3469 H 327.169 -0.743042 -1.37508 0
M  V30 3470 H 327.904 1.18658 -3.01813 0
M  V30 3471 H 327.689 -0.35012 -3.90534 0
M  V30 3472 H 329.179 0.614089 -4.1306 0
M  V30 3473 N 329.616 1.39756 -0.72842 0
M  V30 3474 C 330.844 2.04948 -0.283528 0
M  V30 3475 C 331.259 1.54908 1.0793 0
M  V30 3476 O 330.616 0.711135 1.68075 0
M  V30 3477 C 330.667 3.60498 -0.268957 0
M  V30 3478 O 330.388 4.08695 -1.57798 0
M  V30 3479 C 331.889 4.4288 0.192912 0
M  V30 3480 H 329.109 0.659243 -0.125056 0
M  V30 3481 H 331.653 1.78927 -0.990226 0
M  V30 3482 H 329.808 3.85444 0.388801 0
M  V30 3483 H 330.222 5.02977 -1.48709 0
M  V30 3484 H 331.696 5.51791 0.151952 0
M  V30 3485 H 332.173 4.21418 1.23708 0
M  V30 3486 H 332.779 4.23069 -0.435039 0
M  V30 3487 N 331.094 0.475555 1.50254 0
M  V30 3488 C 332.341 -0.0778919 2.0235 0
M  V30 3489 C 332.669 -1.39319 1.35722 0
M  V30 3490 O 331.924 -1.89888 0.473395 0
M  V30 3491 C 332.223 -0.305114 3.56095 0
M  V30 3492 C 331.889 0.92903 4.41225 0
M  V30 3493 C 330.551 1.26739 4.6421 0
M  V30 3494 C 332.903 1.75054 4.90923 0
M  V30 3495 C 330.231 2.42724 5.34137 0
M  V30 3496 C 332.583 2.9017 5.62125 0
M  V30 3497 C 331.247 3.24416 5.83362 0
M  V30 3498 H 330.517 -0.0285027 0.740452 0
M  V30 3499 H 333.164 0.630543 1.80821 0
M  V30 3500 H 331.469 -1.09584 3.76163 0
M  V30 3501 H 333.166 -0.747377 3.93974 0
M  V30 3502 H 329.756 0.655428 4.23559 0
M  V30 3503 H 333.94 1.50231 4.73016 0
M  V30 3504 H 329.196 2.69525 5.48786 0
M  V30 3505 H 333.37 3.54169 5.99614 0
M  V30 3506 H 330.997 4.14396 6.37323 0
M  V30 3507 N 332.573 -1.56217 0.208337 0
M  V30 3508 C 333.821 -1.97558 -0.426076 0
M  V30 3509 C 334.142 -1.09683 -1.61229 0
M  V30 3510 O 333.412 -0.170956 -1.95153 0
M  V30 3511 H 331.992 -0.729575 -0.160405 0
M  V30 3512 H 334.654 -1.92606 0.298155 0
M  V30 3513 H 333.75 -3.02672 -0.761312 0
M  V30 3514 N 334.051 0.0651679 -1.57465 0
M  V30 3515 C 335.014 1.06117 -2.03155 0
M  V30 3516 C 336.014 1.31204 -0.929632 0
M  V30 3517 O 337.204 1.26813 -1.19432 0
M  V30 3518 C 334.336 2.4032 -2.41783 0
M  V30 3519 H 335.529 0.667231 -2.92383 0
M  V30 3520 H 333.082 0.311075 -1.53173 0
M  V30 3521 H 333.817 2.84532 -1.55601 0
M  V30 3522 H 333.602 2.23451 -3.22199 0
M  V30 3523 H 335.092 3.11898 -2.77685 0
M  V30 3524 N 335.529 1.53961 0.336706 0
M  V30 3525 C 336.775 1.7179 1.07777 0
M  V30 3526 C 337.108 0.483263 1.88091 0
M  V30 3527 O 336.383 -0.519747 1.87427 0
M  V30 3528 C 336.666 2.98558 2.01334 0
M  V30 3529 C 336.519 4.32245 1.24437 0
M  V30 3530 C 337.838 3.21023 3.01052 0
M  V30 3531 H 334.957 0.625089 0.390426 0
M  V30 3532 H 337.599 1.86641 0.35567 0
M  V30 3533 H 335.749 2.86028 2.62908 0
M  V30 3534 H 337.421 4.56637 0.654243 0
M  V30 3535 H 335.664 4.30344 0.546458 0
M  V30 3536 H 336.335 5.17137 1.93063 0
M  V30 3537 H 338.811 3.32929 2.49595 0
M  V30 3538 H 337.687 4.11104 3.6371 0
M  V30 3539 H 337.948 2.37637 3.72802 0
M  V30 3540 N 337.007 -0.598083 1.45811 0
M  V30 3541 C 337.954 -1.7082 1.55207 0
M  V30 3542 C 338.924 -1.61278 0.39732 0
M  V30 3543 O 340.109 -1.80717 0.612038 0
M  V30 3544 C 337.249 -3.09144 1.53376 0
M  V30 3545 C 336.362 -3.29423 2.79472 0
M  V30 3546 C 335.497 -4.57907 2.69248 0
M  V30 3547 C 334.536 -4.71476 3.90354 0
M  V30 3548 N 333.673 -5.9127 3.78608 0
M  V30 3549 H 338.513 -1.62125 2.50039 0
M  V30 3550 H 336.05 -0.790389 1.24062 0
M  V30 3551 H 338.008 -3.89186 1.50301 0
M  V30 3552 H 336.638 -3.16773 0.620876 0
M  V30 3553 H 335.69 -2.43091 2.92594 0
M  V30 3554 H 337.002 -3.3532 3.69272 0
M  V30 3555 H 336.156 -5.46157 2.64192 0
M  V30 3556 H 334.895 -4.54423 1.77063 0
M  V30 3557 H 333.9 -3.81648 3.95759 0
M  V30 3558 H 335.125 -4.76751 4.83617 0
M  V30 3559 H 333.071 -5.88813 2.89199 0
M  V30 3560 H 332.988 -5.98369 4.6205 0
M  V30 3561 H 334.256 -6.81992 3.77501 0
M  V30 3562 N 338.485 -1.33259 -0.841409 0
M  V30 3563 C 339.417 -1.19136 -1.95804 0
M  V30 3564 C 340.43 -0.122965 -1.62335 0
M  V30 3565 O 341.619 -0.373154 -1.74556 0
M  V30 3566 C 338.719 -0.804268 -3.29218 0
M  V30 3567 C 337.892 -1.96376 -3.90839 0
M  V30 3568 C 336.951 -1.55806 -5.02604 0
M  V30 3569 O 335.977 -2.27203 -5.21888 0
M  V30 3570 N 337.179 -0.461609 -5.78662 0
M  V30 3571 H 339.944 -2.15326 -2.08458 0
M  V30 3572 H 337.505 -1.25971 -1.017 0
M  V30 3573 H 339.497 -0.51501 -4.0141 0
M  V30 3574 H 338.067 0.0668809 -3.12528 0
M  V30 3575 H 337.287 -2.41879 -3.11269 0
M  V30 3576 H 338.575 -2.73966 -4.28742 0
M  V30 3577 H 337.973 0.132343 -5.65545 0
M  V30 3578 H 336.53 -0.232013 -6.51387 0
M  V30 3579 N 339.963 1.05934 -1.16686 0
M  V30 3580 C 340.926 2.11669 -0.879144 0
M  V30 3581 C 341.926 1.60294 0.127445 0
M  V30 3582 O 343.116 1.7389 -0.103865 0
M  V30 3583 C 340.248 3.39438 -0.315425 0
M  V30 3584 H 341.441 2.38626 -1.81653 0
M  V30 3585 H 338.994 1.22058 -0.976299 0
M  V30 3586 H 339.729 3.18132 0.629468 0
M  V30 3587 H 339.514 3.78034 -1.04079 0
M  V30 3588 H 341.004 4.17391 -0.132189 0
M  V30 3589 N 341.441 0.965919 1.2453 0
M  V30 3590 C 342.666 0.643971 1.97149 0
M  V30 3591 C 343.091 -0.779487 1.71189 0
M  V30 3592 O 342.449 -1.5288 0.974553 0
M  V30 3593 C 342.497 0.922557 3.48599 0
M  V30 3594 O 341.601 0.00707672 4.12399 0
M  V30 3595 H 340.942 0.243647 0.617683 0
M  V30 3596 H 343.472 1.29558 1.58353 0
M  V30 3597 H 343.482 0.853373 3.98976 0
M  V30 3598 H 342.157 1.95996 3.66822 0
M  V30 3599 H 340.734 0.12943 3.72675 0
M  V30 3600 N 342.919 -1.39368 0.735821 0
M  V30 3601 C 343.882 -2.2896 0.104874 0
M  V30 3602 C 344.882 -1.46347 -0.666274 0
M  V30 3603 O 346.072 -1.67014 -0.49517 0
M  V30 3604 C 343.204 -3.29857 -0.860656 0
M  V30 3605 H 344.397 -2.86259 0.894205 0
M  V30 3606 H 341.95 -1.48029 0.501704 0
M  V30 3607 H 342.685 -2.77615 -1.67631 0
M  V30 3608 H 342.47 -3.9087 -0.310327 0
M  V30 3609 H 343.96 -3.96893 -1.29867 0
M  V30 3610 N 344.397 -0.483516 -1.5 0
M  V30 3611 C 345.808 -0.0314176 -1.86674 0
M  V30 3612 C 346.159 1.37728 -1.39733 0
M  V30 3613 O 345.284 2.02327 -0.767635 0
M  V30 3614 C 345.879 -0.0502376 -3.38763 0
M  V30 3615 C 344.438 0.346442 -3.74802 0
M  V30 3616 C 343.585 -0.430366 -2.7394 0
M  V30 3617 H 346.536 -0.697182 -1.42566 0
M  V30 3618 H 346.557 0.749116 -3.73053 0
M  V30 3619 H 346.069 -1.07563 -3.72897 0
M  V30 3620 H 344.17 1.37572 -3.46273 0
M  V30 3621 H 344.283 0.0391486 -4.79084 0
M  V30 3622 H 342.647 0.117557 -2.54429 0
M  V30 3623 H 343.43 -1.4555 -3.10918 0
M  V30 3624 N 345.875 1.56104 -0.216619 0
M  V30 3625 C 347.123 1.97781 0.415593 0
M  V30 3626 C 347.444 1.10536 1.60645 0
M  V30 3627 O 346.714 0.181303 1.95059 0
M  V30 3628 H 345.294 0.730415 0.156534 0
M  V30 3629 H 347.956 1.92445 -0.308366 0
M  V30 3630 H 347.052 3.03072 0.74525 0
M  V30 3631 N 347.353 -0.0568162 1.57498 0
M  V30 3632 C 348.285 -1.09292 2.01464 0
M  V30 3633 C 349.298 -1.34112 0.922913 0
M  V30 3634 O 350.487 -1.32089 1.20062 0
M  V30 3635 C 347.587 -2.44068 2.35125 0
M  V30 3636 C 346.76 -2.38995 3.66333 0
M  V30 3637 C 345.819 -3.55997 3.87495 0
M  V30 3638 O 344.845 -3.36746 4.58901 0
M  V30 3639 N 346.047 -4.76888 3.30996 0
M  V30 3640 H 348.812 -0.718386 2.90963 0
M  V30 3641 H 346.373 -0.245235 1.60032 0
M  V30 3642 H 348.365 -3.21011 2.46443 0
M  V30 3643 H 346.935 -2.73468 1.5144 0
M  V30 3644 H 346.155 -1.47336 3.65631 0
M  V30 3645 H 347.443 -2.3272 4.52458 0
M  V30 3646 H 346.841 -4.95431 2.73065 0
M  V30 3647 H 345.398 -5.51291 3.47738 0
M  V30 3648 N 348.832 -1.54138 -0.328536 0
M  V30 3649 C 350.081 -1.71318 -1.06456 0
M  V30 3650 C 350.394 -0.491109 -1.89334 0
M  V30 3651 O 351.6 -0.54416 -2.65991 0
M  V30 3652 C 350.056 -3.03 -1.94214 0
M  V30 3653 C 349.664 -4.32595 -1.16471 0
M  V30 3654 C 351.408 -3.29544 -2.67583 0
M  V30 3655 C 349.315 -5.55341 -2.03347 0
M  V30 3656 H 348.245 -0.638429 -0.401155 0
M  V30 3657 H 350.896 -1.80633 -0.323106 0
M  V30 3658 H 349.278 -2.87579 -2.72239 0
M  V30 3659 H 350.452 -4.58766 -0.432525 0
M  V30 3660 H 348.767 -4.12777 -0.548063 0
M  V30 3661 H 351.364 -4.18444 -3.3288 0
M  V30 3662 H 351.707 -2.47206 -3.34955 0
M  V30 3663 H 352.24 -3.45809 -1.96623 0
M  V30 3664 H 348.979 -6.40268 -1.40491 0
M  V30 3665 H 348.499 -5.33397 -2.74313 0
M  V30 3666 H 350.178 -5.91557 -2.62049 0
M  V30 3667 N 350.31 0.590341 -1.46126 0
M  V30 3668 C 351.273 1.68194 -1.55703 0
M  V30 3669 C 352.273 1.54808 -0.434868 0
M  V30 3670 O 353.463 1.59564 -0.698928 0
M  V30 3671 C 350.595 3.07575 -1.47005 0
M  V30 3672 H 351.788 1.61064 -2.52979 0
M  V30 3673 H 349.341 0.807541 -1.33823 0
M  V30 3674 H 350.076 3.20268 -0.509785 0
M  V30 3675 H 349.861 3.187 -2.28414 0
M  V30 3676 H 351.351 3.87055 -1.56776 0
M  V30 3677 N 351.788 1.33704 0.83433 0
M  V30 3678 C 353.034 1.25603 1.59222 0
M  V30 3679 C 353.367 -0.176659 1.93395 0
M  V30 3680 O 352.642 -1.11915 1.59076 0
M  V30 3681 C 352.925 2.13576 2.89926 0
M  V30 3682 C 352.778 3.65326 2.62406 0
M  V30 3683 C 354.097 2.01238 3.91397 0
M  V30 3684 H 351.216 0.457613 0.577719 0
M  V30 3685 H 353.858 1.63848 0.961972 0
M  V30 3686 H 352.008 1.8109 3.43713 0
M  V30 3687 H 353.68 4.08124 2.15017 0
M  V30 3688 H 351.923 3.8698 1.96033 0
M  V30 3689 H 352.594 4.22232 3.55562 0
M  V30 3690 H 355.07 2.29738 3.46929 0
M  V30 3691 H 353.946 2.65036 4.80673 0
M  V30 3692 H 354.207 0.985951 4.30966 0
M  V30 3693 N 353.266 -1.05314 1.17247 0
M  V30 3694 C 354.214 -2.15137 0.884238 0
M  V30 3695 C 355.208 -1.68729 -0.15063 0
M  V30 3696 O 356.414 -1.8 -0.00366673 0
M  V30 3697 H 352.789 -0.702471 0.2684 0
M  V30 3698 H 354.76 -2.36652 1.81764 0
M  V30 3699 C 353.509 -3.45243 0.412659 0
M  V30 3700 H 352.832 -3.81352 1.20043 0
M  V30 3701 H 354.272 -4.23263 0.249858 0
M  V30 3702 C 352.731 -3.25487 -0.86948 0
M  V30 3703 O 353.261 -3.51938 -1.93655 0
M  V30 3704 N 351.467 -2.78875 -0.817147 0
M  V30 3705 H 351.014 -2.57549 0.0514211 0
M  V30 3706 H 350.972 -2.66036 -1.67547 0
M  V30 3707 N 354.744 -0.972509 -1.24016 0
M  V30 3708 C 356.021 -0.553733 -1.87598 0
M  V30 3709 C 356.401 0.969158 -1.87538 0
M  V30 3710 O 355.749 1.84255 -1.35139 0
M  V30 3711 C 355.959 -1.15076 -3.29482 0
M  V30 3712 C 357.307 -1.23862 -4.06132 0
M  V30 3713 O 358.331 -1.10363 -3.38672 0
M  V30 3714 O 357.19 -1.45252 -5.26844 0
M  V30 3715 H 354.284 -0.185331 -0.805966 0
M  V30 3716 H 356.83 -1.06709 -1.31952 0
M  V30 3717 H 355.602 -2.19333 -3.2405 0
M  V30 3718 H 355.225 -0.621746 -3.92709 0
M  V30 3719 N 356.222 1.38976 -0.743202 0
M  V30 3720 C 357.152 2.33171 -0.123873 0
M  V30 3721 C 358.133 1.54336 0.71516 0
M  V30 3722 O 359.318 1.82696 0.658467 0
M  V30 3723 C 356.448 3.38474 0.777978 0
M  V30 3724 C 355.402 4.27979 0.0424758 0
M  V30 3725 C 354.728 5.2405 1.06189 0
M  V30 3726 C 356.028 5.10155 -1.1198 0
M  V30 3727 H 357.722 2.85213 -0.910709 0
M  V30 3728 H 355.268 1.37133 -0.439388 0
M  V30 3729 H 357.221 4.03328 1.22084 0
M  V30 3730 H 355.945 2.84891 1.59702 0
M  V30 3731 H 354.604 3.64616 -0.380853 0
M  V30 3732 H 354.252 4.66758 1.87472 0
M  V30 3733 H 353.952 5.84785 0.574485 0
M  V30 3734 H 355.476 5.9178 1.50428 0
M  V30 3735 H 356.89 5.68307 -0.75499 0
M  V30 3736 H 355.287 5.80073 -1.53738 0
M  V30 3737 H 356.357 4.44504 -1.93764 0
M  V30 3738 N 357.7 0.491464 1.49741 0
M  V30 3739 C 359.116 0.146835 1.58923 0
M  V30 3740 C 359.316 -1.34804 1.49767 0
M  V30 3741 O 358.372 -2.12317 1.36667 0
M  V30 3742 C 359.685 0.715157 2.92072 0
M  V30 3743 C 361.233 0.680407 3.05515 0
M  V30 3744 C 361.708 1.22663 4.41269 0
M  V30 3745 N 363.199 1.18691 4.47735 0
M  V30 3746 C 363.934 1.57984 5.51207 0
M  V30 3747 N 363.43 2.04824 6.6183 0
M  V30 3748 N 365.223 1.49459 5.41866 0
M  V30 3749 H 357.374 1.46347 1.53936 0
M  V30 3750 H 359.637 0.606453 0.728642 0
M  V30 3751 H 359.343 1.76317 3.04311 0
M  V30 3752 H 359.217 0.17018 3.76816 0
M  V30 3753 H 361.604 -0.358743 2.92911 0
M  V30 3754 H 361.685 1.26242 2.22478 0
M  V30 3755 H 361.329 2.26451 4.54623 0
M  V30 3756 H 361.259 0.620637 5.2293 0
M  V30 3757 H 363.75 0.843605 3.68364 0
M  V30 3758 H 364.063 2.32901 7.3687 0
M  V30 3759 H 362.408 2.08791 6.62896 0
M  V30 3760 H 365.599 1.12692 4.54333 0
M  V30 3761 H 365.772 1.80406 6.22381 0
M  V30 3762 N 359.178 -1.55987 0.224894 0
M  V30 3763 C 360.403 -2.03232 -0.41369 0
M  V30 3764 C 360.828 -1.10359 -1.52323 0
M  V30 3765 O 360.186 -0.092395 -1.81064 0
M  V30 3766 C 360.234 -3.48682 -0.919405 0
M  V30 3767 O 359.338 -3.58947 -2.03054 0
M  V30 3768 H 358.679 -0.657428 -0.0931903 0
M  V30 3769 H 361.209 -2.01679 0.34451 0
M  V30 3770 H 361.219 -3.8907 -1.22835 0
M  V30 3771 H 359.894 -4.15761 -0.107339 0
M  V30 3772 H 358.471 -3.30448 -1.72796 0
M  V30 3773 N 360.656 0.0484629 -1.57525 0
M  V30 3774 C 361.902 0.744226 -1.88651 0
M  V30 3775 C 362.235 1.76029 -0.820212 0
M  V30 3776 O 361.51 1.93782 0.166985 0
M  V30 3777 C 361.793 1.43128 -3.30434 0
M  V30 3778 C 361.646 0.43005 -4.47739 0
M  V30 3779 C 362.965 2.37031 -3.70816 0
M  V30 3780 H 360.084 0.269089 -0.68612 0
M  V30 3781 H 362.726 0.00713532 -1.89999 0
M  V30 3782 H 360.876 2.05956 -3.29415 0
M  V30 3783 H 362.548 -0.194816 -4.60888 0
M  V30 3784 H 360.791 -0.252522 -4.33064 0
M  V30 3785 H 361.462 0.948874 -5.43783 0
M  V30 3786 H 363.938 1.84263 -3.73077 0
M  V30 3787 H 362.814 2.82094 -4.70865 0
M  V30 3788 H 363.075 3.22864 -3.02012 0
M  V30 3789 N 362.134 1.5431 0.320358 0
M  V30 3790 C 363.064 1.86912 1.3995 0
M  V30 3791 C 364.045 0.726211 1.53819 0
M  V30 3792 O 365.23 0.980233 1.67646 0
M  V30 3793 C 362.36 2.09932 2.7667 0
M  V30 3794 C 361.314 3.25776 2.77586 0
M  V30 3795 C 360.64 3.34173 4.17412 0
M  V30 3796 C 361.94 4.6335 2.41048 0
M  V30 3797 H 363.634 2.77292 1.12914 0
M  V30 3798 H 361.18 1.33421 0.541738 0
M  V30 3799 H 363.133 2.31324 3.52232 0
M  V30 3800 H 361.857 1.16304 3.0519 0
M  V30 3801 H 360.516 3.04276 2.04479 0
M  V30 3802 H 360.164 2.38098 4.43078 0
M  V30 3803 H 359.864 4.12033 4.18931 0
M  V30 3804 H 361.388 3.57803 4.94782 0
M  V30 3805 H 362.802 4.84602 3.06324 0
M  V30 3806 H 361.199 5.43782 2.53813 0
M  V30 3807 H 362.269 4.65381 1.36193 0
M  V30 3808 N 363.613 -0.582584 1.46437 0
M  V30 3809 C 364.546 -1.70633 1.51524 0
M  V30 3810 C 365.524 -1.58349 0.369351 0
M  V30 3811 O 366.708 -1.79563 0.573516 0
M  V30 3812 C 363.835 -3.08687 1.39392 0
M  V30 3813 C 362.881 -3.3949 2.58164 0
M  V30 3814 S 363.714 -3.31548 4.20519 0
M  V30 3815 C 364.87 -4.72139 4.10896 0
M  V30 3816 H 365.103 -1.66058 2.46601 0
M  V30 3817 H 362.636 -0.761337 1.34324 0
M  V30 3818 H 364.594 -3.8833 1.33079 0
M  V30 3819 H 363.255 -3.10751 0.457436 0
M  V30 3820 H 362.448 -4.40071 2.45669 0
M  V30 3821 H 362.05 -2.67415 2.61468 0
M  V30 3822 H 364.342 -5.62527 3.77584 0
M  V30 3823 H 365.285 -4.89692 5.11476 0
M  V30 3824 H 365.693 -4.48995 3.42146 0
M  V30 3825 N 365.091 -1.34144 -0.827227 0
M  V30 3826 C 366.34 -1.25602 -1.5782 0
M  V30 3827 C 366.653 0.173445 -1.94829 0
M  V30 3828 O 367.859 0.380984 -2.68814 0
M  V30 3829 C 366.315 -2.20151 -2.84713 0
M  V30 3830 C 365.923 -3.68331 -2.55021 0
M  V30 3831 C 367.667 -2.20508 -3.62735 0
M  V30 3832 C 365.574 -4.54762 -3.78082 0
M  V30 3833 H 364.504 -0.466573 -0.592306 0
M  V30 3834 H 367.155 -1.59283 -0.911116 0
M  V30 3835 H 365.537 -1.79417 -3.53023 0
M  V30 3836 H 366.711 -4.17577 -1.94849 0
M  V30 3837 H 365.026 -3.7038 -1.90283 0
M  V30 3838 H 367.623 -2.82306 -4.54101 0
M  V30 3839 H 367.966 -1.20322 -3.98533 0
M  V30 3840 H 368.499 -2.59664 -3.01362 0
M  V30 3841 H 365.238 -5.55867 -3.47407 0
M  V30 3842 H 364.758 -4.10254 -4.37552 0
M  V30 3843 H 366.437 -4.69153 -4.45538 0
M  V30 3844 N 366.569 1.04691 -1.17803 0
M  V30 3845 C 367.499 2.14494 -0.92275 0
M  V30 3846 C 368.48 1.69546 0.137179 0
M  V30 3847 O 369.665 1.94195 -0.0141108 0
M  V30 3848 C 366.795 3.44491 -0.440803 0
M  V30 3849 C 365.749 4.03031 -1.4405 0
M  V30 3850 C 365.075 5.28432 -0.81631 0
M  V30 3851 C 366.375 4.39932 -2.81527 0
M  V30 3852 H 368.069 2.36107 -1.84103 0
M  V30 3853 H 365.615 1.1347 -0.886599 0
M  V30 3854 H 367.568 4.2066 -0.249602 0
M  V30 3855 H 366.292 3.22546 0.513025 0
M  V30 3856 H 364.951 3.28937 -1.61853 0
M  V30 3857 H 364.599 5.02792 0.144511 0
M  V30 3858 H 364.299 5.68559 -1.48371 0
M  V30 3859 H 365.823 6.07284 -0.635496 0
M  V30 3860 H 367.237 5.07113 -2.67412 0
M  V30 3861 H 365.634 4.9109 -3.44892 0
M  V30 3862 H 366.704 3.50045 -3.35554 0
M  V30 3863 N 368.047 0.979072 1.23499 0
M  V30 3864 C 368.997 0.489378 2.22686 0
M  V30 3865 C 369.981 -0.434871 1.54912 0
M  V30 3866 O 371.173 -0.263941 1.75021 0
M  V30 3867 C 368.302 -0.208178 3.42668 0
M  V30 3868 C 367.388 0.735563 4.17672 0
M  V30 3869 N 367.779 1.87763 4.69658 0
M  V30 3870 C 366.077 0.548625 4.42613 0
M  V30 3871 C 366.778 2.46886 5.26709 0
M  V30 3872 N 365.754 1.75287 5.14563 0
M  V30 3873 H 369.556 1.36062 2.60508 0
M  V30 3874 H 367.07 0.83958 1.39014 0
M  V30 3875 H 369.067 -0.576295 4.12898 0
M  V30 3876 H 367.727 -1.07572 3.06363 0
M  V30 3877 H 368.738 2.25885 4.66043 0
M  V30 3878 H 365.415 -0.274006 4.166 0
M  V30 3879 H 366.805 3.43326 5.77561 0
M  V30 3880 N 369.525 -1.3858 0.750561 0
M  V30 3881 C 370.473 -2.32339 0.110162 0
M  V30 3882 C 371.467 -1.53864 -0.708674 0
M  V30 3883 O 372.673 -1.69417 -0.608112 0
M  V30 3884 H 369.048 -0.751812 0.0168275 0
M  V30 3885 H 371.019 -2.83959 0.917053 0
M  V30 3886 C 369.768 -3.39043 -0.771067 0
M  V30 3887 H 369.091 -3.99517 -0.150374 0
M  V30 3888 H 370.531 -4.07061 -1.1865 0
M  V30 3889 C 368.99 -2.77365 -1.91234 0
M  V30 3890 O 369.52 -2.66434 -3.00626 0
M  V30 3891 N 367.726 -2.35219 -1.70646 0
M  V30 3892 H 367.273 -2.4431 -0.81673 0
M  V30 3893 H 367.231 -1.94294 -2.47178 0
M  V30 3894 N 371.003 -0.499398 -1.49478 0
M  V30 3895 C 371.966 0.268838 -2.27618 0
M  V30 3896 C 372.966 0.895383 -1.33565 0
M  V30 3897 O 374.156 0.760164 -1.56739 0
M  V30 3898 C 371.288 1.38559 -3.11471 0
M  V30 3899 H 372.481 -0.416812 -2.96989 0
M  V30 3900 H 370.034 -0.254313 -1.54217 0
M  V30 3901 H 370.769 2.10544 -2.46661 0
M  V30 3902 H 370.554 0.941797 -3.80621 0
M  V30 3903 H 372.044 1.92678 -3.70493 0
M  V30 3904 O 372.52 1.5709 -0.374834 0
M  V30 3905 H 373.211 1.9292 0.173648 0
M  V30 END ATOM
M  V30 BEGIN BOND
M  V30 END BOND
M  V30 END CTAB
M  END
$$$$
