drugbank_target|Q8EBR3 2-C-methyl-D-erythritol 2,4-cyclodiphosphate synthase (DB07780)
 OpenBabel12092120463D

  0  0  0     0  0            999 V3000
M  V30 BEGIN CTAB
M  V30 COUNTS 2410 2430 0 0 0
M  V30 BEGIN ATOM
M  V30 1 H -0.908 1.98254 -0.117106 0
M  V30 2 N 0 1.576 0 0
M  V30 3 C 0.933 2.03868 1.02534 0
M  V30 4 C 1.911 0.928543 1.3348 0
M  V30 5 O 3.095 1.19667 1.45644 0
M  V30 6 C 0.222 2.43627 2.35294 0
M  V30 7 C -0.732 3.65373 2.2001 0
M  V30 8 S 0.101 5.13292 1.52614 0
M  V30 9 C 1.257 5.56322 2.86805 0
M  V30 10 H 1.49 2.90518 0.631377 0
M  V30 11 H -0.977 1.52953 0.210867 0
M  V30 12 H 0.981 2.67203 3.11629 0
M  V30 13 H -0.358 1.57376 2.7183 0
M  V30 14 H -1.165 3.90944 3.18086 0
M  V30 15 H -1.563 3.418 1.51819 0
M  V30 16 H 0.729 5.58782 3.83104 0
M  V30 17 H 1.672 6.56266 2.65933 0
M  V30 18 H 2.08 4.83886 2.90714 0
M  V30 19 N 1.4781 -0.272755 1.55222 0
M  V30 20 C 2.4251 -1.33716 1.88119 0
M  V30 21 C 3.3951 -1.49066 0.73271 0
M  V30 22 O 4.5801 -1.63469 0.984002 0
M  V30 23 C 1.7201 -2.69238 2.15882 0
M  V30 24 C 0.8331 -2.62108 3.43399 0
M  V30 25 C -0.0319 -3.89811 3.60861 0
M  V30 26 C -0.9929 -3.77193 4.8207 0
M  V30 27 N -1.8559 -4.9673 4.96189 0
M  V30 28 H 2.9841 -1.04962 2.78903 0
M  V30 29 H 0.5211 -0.507088 1.38083 0
M  V30 30 H 2.4791 -3.48089 2.29978 0
M  V30 31 H 1.1091 -2.96194 1.28331 0
M  V30 32 H 0.1611 -1.74967 3.37773 0
M  V30 33 H 1.4731 -2.48685 4.32386 0
M  V30 34 H 0.6271 -4.77103 3.74777 0
M  V30 35 H -0.6339 -4.06102 2.7006 0
M  V30 36 H -1.6289 -2.88284 4.68159 0
M  V30 37 H -0.4039 -3.62421 5.74307 0
M  V30 38 H -2.4579 -5.13431 4.08319 0
M  V30 39 H -2.5409 -4.85839 5.79221 0
M  V30 40 H -1.2729 -5.85594 5.1449 0
M  V30 41 N 2.9562 -1.48159 -0.537278 0
M  V30 42 C 4.2052 -1.5506 -1.28993 0
M  V30 43 C 4.5182 -0.226211 -1.94288 0
M  V30 44 O 5.7242 -0.173395 -2.70946 0
M  V30 45 C 4.1802 -2.73429 -2.34018 0
M  V30 46 C 3.7882 -4.1248 -1.74825 0
M  V30 47 C 5.5322 -2.89638 -3.10339 0
M  V30 48 C 3.4392 -5.22121 -2.77747 0
M  V30 49 H 2.3692 -0.577231 -0.485098 0
M  V30 50 H 5.0202 -1.74478 -0.568317 0
M  V30 51 H 3.4022 -2.47431 -3.09182 0
M  V30 52 H 4.5762 -4.48466 -1.05899 0
M  V30 53 H 2.8912 -4.01327 -1.11022 0
M  V30 54 H 5.4882 -3.68718 -3.87235 0
M  V30 55 H 5.8312 -1.9882 -3.65754 0
M  V30 56 H 6.3642 -3.15502 -2.42288 0
M  V30 57 H 3.1032 -6.1488 -2.27161 0
M  V30 58 H 2.6232 -4.90631 -3.45024 0
M  V30 59 H 4.3022 -5.49924 -3.4087 0
M  V30 60 N 4.4343 0.785586 -1.36625 0
M  V30 61 C 5.8503 1.08419 -1.17122 0
M  V30 62 C 6.0503 2.015 0.00208491 0
M  V30 63 O 5.1063 2.43551 0.666278 0
M  V30 64 C 6.4193 1.69498 -2.48377 0
M  V30 65 C 7.9673 1.81821 -2.54775 0
M  V30 66 C 8.4423 2.46315 -3.86126 0
M  V30 67 N 9.9333 2.53779 -3.87492 0
M  V30 68 C 10.6683 3.045 -4.85868 0
M  V30 69 N 10.1643 3.55499 -5.94637 0
M  V30 70 N 11.9573 3.03247 -4.73284 0
M  V30 71 H 4.1083 0.167264 -2.1174 0
M  V30 72 H 6.3713 0.13682 -0.938075 0
M  V30 73 H 6.0773 1.08571 -3.34522 0
M  V30 74 H 5.9513 2.6896 -2.64462 0
M  V30 75 H 8.3383 2.41884 -1.69045 0
M  V30 76 H 8.4193 0.811532 -2.42586 0
M  V30 77 H 8.0633 1.86895 -4.72263 0
M  V30 78 H 7.9933 3.47561 -3.95612 0
M  V30 79 H 10.4843 2.17672 -3.08913 0
M  V30 80 H 10.7973 3.92562 -6.65669 0
M  V30 81 H 9.1423 3.5364 -5.98301 0
M  V30 82 H 12.3333 2.62696 -3.87438 0
M  V30 83 H 12.5063 3.42467 -5.50109 0
M  V30 84 N 5.9124 1.20967 1.01018 0
M  V30 85 C 7.1614 1.01796 1.74128 0
M  V30 86 C 7.4744 -0.449691 1.90361 0
M  V30 87 O 8.6804 -0.76068 2.60626 0
M  V30 88 C 7.1364 1.7727 3.13215 0
M  V30 89 C 6.7444 3.28171 3.04972 0
M  V30 90 C 8.4884 1.66489 3.90489 0
M  V30 91 C 6.3954 3.96156 4.39107 0
M  V30 92 H 5.3254 0.377276 0.652824 0
M  V30 93 H 7.9764 1.44651 1.12909 0
M  V30 94 H 6.3584 1.27205 3.75013 0
M  V30 95 H 7.5324 3.85499 2.52443 0
M  V30 96 H 5.8474 3.39437 2.41188 0
M  V30 97 H 8.4444 2.14617 4.89738 0
M  V30 98 H 8.7874 0.6222 4.11624 0
M  V30 99 H 9.3204 2.14003 3.35332 0
M  V30 100 H 6.0594 5.00604 4.23174 0
M  V30 101 H 5.5794 3.43617 4.91617 0
M  V30 102 H 7.2584 4.00774 5.07926 0
M  V30 103 N 7.3905 -1.2043 1.01659 0
M  V30 104 C 8.6385 -1.89423 0.704522 0
M  V30 105 C 8.9595 -1.79231 -0.768197 0
M  V30 106 O 8.2295 -1.1947 -1.55254 0
M  V30 107 H 6.8095 -0.701178 0.257602 0
M  V30 108 H 9.4715 -1.4626 1.28818 0
M  V30 109 H 8.5675 -2.96052 0.987916 0
M  V30 110 N 8.8686 -0.792821 -1.36206 0
M  V30 111 C 9.8186 -0.166598 -2.27391 0
M  V30 112 C 10.8026 0.651479 -1.47121 0
M  V30 113 O 11.9946 0.510994 -1.69463 0
M  V30 114 C 9.1236 0.695033 -3.36191 0
M  V30 115 C 8.2096 -0.132019 -4.23894 0
M  V30 116 N 8.6006 -1.18822 -4.91645 0
M  V30 117 C 6.8986 0.0885952 -4.45912 0
M  V30 118 C 7.5996 -1.69198 -5.56549 0
M  V30 119 N 6.5756 -1.00065 -5.34311 0
M  V30 120 H 10.3776 -0.974947 -2.77258 0
M  V30 121 H 7.8916 -0.632616 -1.49572 0
M  V30 122 H 9.8886 1.1596 -4.00448 0
M  V30 123 H 8.5486 1.50189 -2.87877 0
M  V30 124 H 9.5596 -1.57069 -4.93507 0
M  V30 125 H 6.2366 0.865688 -4.08426 0
M  V30 126 H 7.6266 -2.57395 -6.20643 0
M  V30 127 N 10.3467 1.47872 -0.545128 0
M  V30 128 C 11.5947 2.02093 -0.016553 0
M  V30 129 C 11.9157 1.42305 1.3332 0
M  V30 130 O 11.1857 0.593853 1.86682 0
M  V30 131 H 9.7657 0.746993 -0.00313038 0
M  V30 132 H 12.4277 1.81414 -0.712397 0
M  V30 133 H 11.5237 3.11996 0.0805422 0
M  V30 134 N 11.8248 0.280983 1.55075 0
M  V30 135 C 13.0718 -0.334115 1.99725 0
M  V30 136 C 13.3998 -1.5542 1.1694 0
M  V30 137 O 12.6548 -1.94361 0.228531 0
M  V30 138 C 12.9538 -0.754656 3.49342 0
M  V30 139 C 12.6198 0.361445 4.49449 0
M  V30 140 C 11.2818 0.667893 4.76542 0
M  V30 141 C 13.6338 1.11322 5.09173 0
M  V30 142 C 10.9618 1.7296 5.60626 0
M  V30 143 C 13.3138 2.1647 5.9441 0
M  V30 144 C 11.9778 2.47742 6.19822 0
M  V30 145 H 11.2478 -0.122261 0.730844 0
M  V30 146 H 13.8948 0.395917 1.87363 0
M  V30 147 H 12.1998 -1.56446 3.5921 0
M  V30 148 H 13.8968 -1.24142 3.813 0
M  V30 149 H 10.4868 0.112481 4.28452 0
M  V30 150 H 14.6708 0.88973 4.8826 0
M  V30 151 H 9.9268 1.97684 5.78559 0
M  V30 152 H 14.1008 2.75193 6.3972 0
M  V30 153 H 11.7278 3.30145 6.84769 0
M  V30 154 N 13.3029 -1.57598 0.00835791 0
M  V30 155 C 14.5799 -1.82172 -0.712235 0
M  V30 156 C 14.9599 -0.887873 -1.9152 0
M  V30 157 O 14.3079 0.06146 -2.28417 0
M  V30 158 C 14.5179 -3.30875 -1.11008 0
M  V30 159 C 15.8659 -3.96826 -1.51044 0
M  V30 160 O 16.8899 -3.35248 -1.20364 0
M  V30 161 O 15.7489 -5.05318 -2.08125 0
M  V30 162 H 12.8429 -0.750435 -0.347529 0
M  V30 163 H 15.3889 -1.69665 0.0344523 0
M  V30 164 H 14.1609 -3.90481 -0.252982 0
M  V30 165 H 13.7839 -3.48412 -1.9156 0
M  V30 166 N 14.781 0.264519 -1.55364 0
M  V30 167 C 16.027 0.99646 -1.76631 0
M  V30 168 C 16.36 1.85632 -0.570478 0
M  V30 169 O 15.635 1.89647 0.43175 0
M  V30 170 C 15.918 1.87187 -3.07625 0
M  V30 171 C 15.771 1.04138 -4.37579 0
M  V30 172 C 17.09 2.85749 -3.34717 0
M  V30 173 H 14.209 0.360841 -0.642622 0
M  V30 174 H 16.851 0.268218 -1.88097 0
M  V30 175 H 15.001 2.49279 -2.9798 0
M  V30 176 H 16.673 0.440517 -4.59192 0
M  V30 177 H 14.916 0.345115 -4.32425 0
M  V30 178 H 15.587 1.68729 -5.2558 0
M  V30 179 H 18.063 2.33793 -3.4421 0
M  V30 180 H 16.939 3.44136 -4.27623 0
M  V30 181 H 17.2 3.61311 -2.54768 0
M  V30 182 N 16.2591 1.48442 0.529413 0
M  V30 183 C 17.2091 1.59407 1.63014 0
M  V30 184 C 18.1931 0.451166 1.54445 0
M  V30 185 O 19.3851 0.702635 1.62456 0
M  V30 186 C 16.5141 1.63746 3.01732 0
M  V30 187 C 15.6001 2.83518 3.15402 0
M  V30 188 N 15.9911 4.07929 2.99045 0
M  V30 189 C 14.2891 2.80862 3.46457 0
M  V30 190 C 14.9901 4.8829 3.16146 0
M  V30 191 N 13.9661 4.21117 3.43746 0
M  V30 192 H 17.7681 2.53343 1.48978 0
M  V30 193 H 15.2821 1.44821 0.734885 0
M  V30 194 H 17.2791 1.69695 3.80801 0
M  V30 195 H 15.9391 0.709264 3.16859 0
M  V30 196 H 16.9501 4.38357 2.75796 0
M  V30 197 H 13.6271 1.97301 3.67938 0
M  V30 198 H 15.0171 5.97028 3.08232 0
M  V30 199 N 17.7372 -0.778329 1.37039 0
M  V30 200 C 18.6842 -1.89139 1.32269 0
M  V30 201 C 19.6542 -1.65017 0.189387 0
M  V30 202 O 20.8392 -1.87024 0.377693 0
M  V30 203 C 17.9792 -3.26112 1.12894 0
M  V30 204 C 17.0922 -3.62233 2.35396 0
M  V30 205 C 16.2272 -4.8838 2.08946 0
M  V30 206 C 15.2662 -5.17212 3.2735 0
M  V30 207 N 14.4032 -6.34546 3.00492 0
M  V30 208 H 19.2432 -1.92552 2.27437 0
M  V30 209 H 16.7802 -0.941473 1.13025 0
M  V30 210 H 18.7382 -4.05116 0.996835 0
M  V30 211 H 17.3682 -3.22091 0.213758 0
M  V30 212 H 16.4202 -2.78265 2.5937 0
M  V30 213 H 17.7322 -3.79481 3.23721 0
M  V30 214 H 16.8862 -5.75274 1.92729 0
M  V30 215 H 15.6252 -4.73222 1.17949 0
M  V30 216 H 14.6302 -4.28796 3.44113 0
M  V30 217 H 15.8552 -5.34283 4.19188 0
M  V30 218 H 13.8012 -6.20759 2.12118 0
M  V30 219 H 13.7182 -6.52179 3.82358 0
M  V30 220 H 14.9862 -7.24394 2.87879 0
M  V30 221 N 19.2153 -1.21501 -1.00376 0
M  V30 222 C 20.4623 -1.03299 -1.74171 0
M  V30 223 C 20.7903 0.433326 -1.89612 0
M  V30 224 O 20.0453 1.33779 -1.42834 0
M  V30 225 C 20.3443 -1.67673 -3.15627 0
M  V30 226 C 20.0103 -3.17533 -3.2013 0
M  V30 227 C 18.6723 -3.58427 -3.21067 0
M  V30 228 C 21.0243 -4.13504 -3.17275 0
M  V30 229 C 18.3523 -4.93794 -3.16835 0
M  V30 230 C 20.7043 -5.48834 -3.14585 0
M  V30 231 C 19.3683 -5.89123 -3.13831 0
M  V30 232 H 18.6383 -0.377999 -0.637336 0
M  V30 233 H 21.2853 -1.51111 -1.17634 0
M  V30 234 H 19.5903 -1.12158 -3.75404 0
M  V30 235 H 21.2873 -1.51091 -3.71446 0
M  V30 236 H 17.8773 -2.84965 -3.20145 0
M  V30 237 H 22.0613 -3.82936 -3.15711 0
M  V30 238 H 17.3173 -5.24255 -3.1459 0
M  V30 239 H 21.4913 -6.22934 -3.1133 0
M  V30 240 H 19.1183 -6.93984 -3.10307 0
M  V30 241 N 20.6934 1.19889 -1.02296 0
M  V30 242 C 21.9414 1.89046 -0.714558 0
M  V30 243 C 22.2624 1.79636 0.758681 0
M  V30 244 O 21.5324 1.20292 1.54618 0
M  V30 245 H 20.1124 0.699802 -0.261317 0
M  V30 246 H 22.7744 1.45574 -1.29592 0
M  V30 247 H 21.8704 2.95524 -1.0036 0
M  V30 248 N 22.1715 0.800033 1.35784 0
M  V30 249 C 23.0815 0.207204 2.33683 0
M  V30 250 C 24.0975 -0.64631 1.61551 0
M  V30 251 O 25.2735 -0.559604 1.93469 0
M  V30 252 C 22.3385 -0.639659 3.40748 0
M  V30 253 C 21.3995 0.233585 4.28664 0
M  V30 254 C 20.6325 -0.572954 5.30616 0
M  V30 255 O 20.8555 -1.80816 5.40982 0
M  V30 256 O 19.7895 0.0327285 6.01891 0
M  V30 257 H 23.6155 1.01692 2.86169 0
M  V30 258 H 21.2005 0.561691 1.38439 0
M  V30 259 H 23.0825 -1.12223 4.06182 0
M  V30 260 H 21.7575 -1.42708 2.90544 0
M  V30 261 H 20.6645 0.763147 3.66233 0
M  V30 262 H 21.9975 0.984784 4.82248 0
M  V30 263 N 23.6496 -1.47581 0.552962 0
M  V30 264 C 25.0606 -1.86324 0.118463 0
M  V30 265 C 25.4116 -1.46006 -1.3106 0
M  V30 266 O 24.5366 -0.861182 -1.98526 0
M  V30 267 C 25.1316 -3.3816 0.20821 0
M  V30 268 C 23.6906 -3.7601 -0.171226 0
M  V30 269 C 22.8376 -2.71634 0.557686 0
M  V30 270 H 25.7886 -1.39159 0.762928 0
M  V30 271 H 25.8096 -3.76141 -0.574278 0
M  V30 272 H 25.3216 -3.67473 1.24841 0
M  V30 273 H 23.4226 -3.52313 -1.21269 0
M  V30 274 H 23.5356 -4.78745 0.184379 0
M  V30 275 H 21.8996 -2.547 0.00125792 0
M  V30 276 H 22.6826 -3.0379 1.59896 0
M  V30 277 N 25.1277 -0.289203 -1.54924 0
M  V30 278 C 26.5437 0.0645403 -1.59469 0
M  V30 279 C 26.7437 1.53419 -1.30632 0
M  V30 280 O 25.7997 2.2852 -1.074 0
M  V30 281 C 27.1127 -0.32278 -2.98963 0
M  V30 282 C 28.6607 -0.270564 -3.11828 0
M  V30 283 C 29.1357 -0.632532 -4.53611 0
M  V30 284 N 30.6267 -0.584617 -4.59496 0
M  V30 285 C 31.3617 -0.837314 -5.67254 0
M  V30 286 N 30.8577 -1.15536 -6.83098 0
M  V30 287 N 32.6507 -0.765166 -5.56868 0
M  V30 288 H 24.8017 -1.24714 -1.71931 0
M  V30 289 H 27.0647 -0.504809 -0.802416 0
M  V30 290 H 26.7707 -1.34541 -3.24948 0
M  V30 291 H 26.6447 0.32944 -3.75759 0
M  V30 292 H 29.0317 0.742805 -2.85598 0
M  V30 293 H 29.1127 -0.957242 -2.37214 0
M  V30 294 H 28.7567 -1.64365 -4.80569 0
M  V30 295 H 28.6867 0.07609 -5.26545 0
M  V30 296 H 31.1777 -0.349248 -3.76283 0
M  V30 297 H 31.4907 -1.33447 -7.61191 0
M  V30 298 H 29.8357 -1.19328 -6.84679 0
M  V30 299 H 33.0267 -0.516432 -4.65243 0
M  V30 300 H 33.1997 -0.965477 -6.40767 0
M  V30 301 N 26.6058 1.57591 -0.0167156 0
M  V30 302 C 28.0168 1.79201 0.523834 0
M  V30 303 C 28.3678 0.925796 1.72984 0
M  V30 304 O 27.4928 0.132792 2.15992 0
M  V30 305 C 28.0878 3.25 0.957091 0
M  V30 306 C 26.6468 3.47648 1.44283 0
M  V30 307 C 25.7938 2.74374 0.401757 0
M  V30 308 H 28.7448 1.56831 -0.242816 0
M  V30 309 H 28.7658 3.34031 1.82219 0
M  V30 310 H 28.2778 3.88019 0.0791415 0
M  V30 311 H 26.3788 2.89866 2.34113 0
M  V30 312 H 26.4918 4.56352 1.45877 0
M  V30 313 H 24.8558 2.39485 0.867121 0
M  V30 314 H 25.6388 3.40102 -0.467513 0
M  V30 315 N 28.0839 -0.256276 1.55502 0
M  V30 316 C 29.0139 -1.32102 1.92539 0
M  V30 317 C 29.9949 -1.50684 0.789194 0
M  V30 318 O 31.1799 -1.63449 1.04872 0
M  V30 319 C 28.3099 -2.67752 2.21192 0
M  V30 320 C 27.2639 -2.63878 3.36975 0
M  V30 321 C 26.5899 -4.03236 3.51147 0
M  V30 322 C 27.8899 -2.21682 4.72921 0
M  V30 323 H 29.5839 -1.01351 2.81724 0
M  V30 324 H 27.1299 -0.486105 1.35547 0
M  V30 325 H 29.0829 -3.42365 2.45691 0
M  V30 326 H 27.8069 -3.0012 1.28824 0
M  V30 327 H 26.4659 -1.91722 3.12471 0
M  V30 328 H 26.1139 -4.32854 2.56216 0
M  V30 329 H 25.8139 -4.01535 4.29003 0
M  V30 330 H 27.3379 -4.79563 3.77957 0
M  V30 331 H 28.7519 -2.86023 4.96854 0
M  V30 332 H 27.1489 -2.3111 5.53812 0
M  V30 333 H 28.2189 -1.16833 4.70615 0
M  V30 334 N 29.562 -1.4872 -0.521534 0
M  V30 335 C 30.811 -1.56419 -1.27341 0
M  V30 336 C 31.124 -0.246805 -1.94037 0
M  V30 337 O 32.33 -0.202122 -2.70747 0
M  V30 338 C 30.786 -2.75896 -2.31105 0
M  V30 339 C 30.394 -4.14311 -1.70441 0
M  V30 340 C 32.138 -2.92913 -3.07249 0
M  V30 341 C 30.045 -5.25038 -2.72194 0
M  V30 342 H 28.975 -0.582344 -0.478949 0
M  V30 343 H 31.626 -1.75071 -0.549779 0
M  V30 344 H 30.008 -2.50697 -3.06541 0
M  V30 345 H 31.182 -4.49564 -1.01136 0
M  V30 346 H 29.497 -4.02482 -1.06759 0
M  V30 347 H 32.094 -3.72805 -3.83302 0
M  V30 348 H 32.437 -2.02689 -3.63625 0
M  V30 349 H 32.97 -3.18054 -2.38928 0
M  V30 350 H 29.709 -6.17255 -2.20627 0
M  V30 351 H 29.229 -4.94263 -3.39801 0
M  V30 352 H 30.908 -5.53508 -3.35019 0
M  V30 353 N 31.0401 0.771051 -1.3745 0
M  V30 354 C 31.9701 1.89827 -1.3597 0
M  V30 355 C 32.9511 1.68562 -0.228216 0
M  V30 356 O 34.1361 1.8941 -0.428675 0
M  V30 357 C 31.2661 3.2712 -1.16662 0
M  V30 358 C 30.2201 3.6295 -2.2683 0
M  V30 359 C 29.5461 4.98791 -1.92644 0
M  V30 360 C 30.8461 3.69627 -3.69017 0
M  V30 361 H 32.5401 1.91323 -2.30295 0
M  V30 362 H 30.0861 0.919082 -1.10855 0
M  V30 363 H 32.0391 4.05615 -1.14256 0
M  V30 364 H 30.7631 3.26059 -0.187926 0
M  V30 365 H 29.4221 2.86763 -2.28392 0
M  V30 366 H 29.0701 4.94271 -0.933021 0
M  V30 367 H 28.7701 5.23733 -2.66416 0
M  V30 368 H 30.2941 5.79685 -1.91826 0
M  V30 369 H 31.7081 4.38273 -3.69581 0
M  V30 370 H 30.1051 4.06067 -4.41848 0
M  V30 371 H 31.1751 2.70273 -4.02592 0
M  V30 372 N 32.5182 1.22032 0.997298 0
M  V30 373 C 33.7582 1.05375 1.75144 0
M  V30 374 C 34.1222 -0.404696 1.87686 0
M  V30 375 O 35.3232 -0.691998 2.5974 0
M  V30 376 C 33.5942 1.74046 3.12158 0
M  V30 377 S 35.1532 1.72745 4.03366 0
M  V30 378 H 31.9712 0.377449 0.602539 0
M  V30 379 H 34.5732 1.54902 1.19272 0
M  V30 380 H 33.2772 2.79332 3.00669 0
M  V30 381 H 32.8082 1.24731 3.73103 0
M  V30 382 H 34.8232 0.774015 4.90126 0
M  V30 383 N 33.9963 -1.19345 1.0293 0
M  V30 384 C 35.2443 -1.88665 0.724574 0
M  V30 385 C 35.5653 -1.80036 -0.749144 0
M  V30 386 O 34.8353 -1.2111 -1.53978 0
M  V30 387 H 33.4153 -0.698406 0.265025 0
M  V30 388 H 36.0773 -1.44885 1.30362 0
M  V30 389 H 35.1733 -2.94987 1.01926 0
M  V30 390 N 35.4744 -0.807222 -1.35358 0
M  V30 391 C 36.7204 -0.388463 -1.99045 0
M  V30 392 C 37.0534 1.04184 -1.63888 0
M  V30 393 O 36.3284 1.72292 -0.902535 0
M  V30 394 C 36.6114 -0.572783 -3.55515 0
M  V30 395 C 36.4644 -2.04807 -4.00468 0
M  V30 396 C 37.7834 0.00114064 -4.401 0
M  V30 397 H 34.9024 -0.142619 -0.723069 0
M  V30 398 H 37.5444 -1.01687 -1.60498 0
M  V30 399 H 35.6944 -0.0378425 -3.88482 0
M  V30 400 H 37.3664 -2.64544 -3.77908 0
M  V30 401 H 35.6094 -2.54427 -3.51353 0
M  V30 402 H 36.2804 -2.12792 -5.09337 0
M  V30 403 H 38.7564 -0.455716 -4.13597 0
M  V30 404 H 37.6324 -0.157737 -5.48673 0
M  V30 405 H 37.8934 1.09488 -4.28328 0
M  V30 406 N 36.9525 1.47285 -0.560781 0
M  V30 407 C 37.8625 2.33846 0.187954 0
M  V30 408 C 38.8785 1.48412 0.908293 0
M  V30 409 O 40.0545 1.81332 0.876388 0
M  V30 410 C 37.1195 3.25178 1.2025 0
M  V30 411 C 36.1805 4.26504 0.489208 0
M  V30 412 C 35.4135 5.13472 1.45542 0
M  V30 413 O 35.6365 5.02959 2.6905 0
M  V30 414 O 34.5705 5.93902 0.977963 0
M  V30 415 H 38.3965 2.99177 -0.522177 0
M  V30 416 H 35.9815 1.45903 -0.321364 0
M  V30 417 H 37.8635 3.81584 1.78805 0
M  V30 418 H 36.5385 2.6247 1.89449 0
M  V30 419 H 35.4455 3.73847 -0.137627 0
M  V30 420 H 36.7785 4.91935 -0.161399 0
M  V30 421 N 38.4306 0.297415 1.54768 0
M  V30 422 C 39.6766 -0.313376 2.00364 0
M  V30 423 C 40.0096 -1.53815 1.18553 0
M  V30 424 O 39.2846 -1.92739 0.261103 0
M  V30 425 C 39.5676 -0.673525 3.53745 0
M  V30 426 C 39.4206 0.560133 4.46299 0
M  V30 427 C 40.7396 -1.50143 4.13697 0
M  V30 428 H 37.8586 -0.112428 0.728374 0
M  V30 429 H 40.5006 0.4088 1.8555 0
M  V30 430 H 38.6506 -1.28881 3.665 0
M  V30 431 H 40.3226 1.19863 4.45455 0
M  V30 432 H 38.5656 1.19405 4.17043 0
M  V30 433 H 39.2366 0.26405 5.51368 0
M  V30 434 H 41.7126 -0.981588 4.04356 0
M  V30 435 H 40.5886 -1.72221 5.21182 0
M  V30 436 H 40.8496 -2.48952 3.65343 0
M  V30 437 N 39.9087 -1.5758 0.0250728 0
M  V30 438 C 41.3197 -1.79476 -0.514323 0
M  V30 439 C 41.6707 -0.934956 -1.72491 0
M  V30 440 O 40.7957 -0.144245 -2.15919 0
M  V30 441 C 41.3907 -3.25503 -0.939842 0
M  V30 442 C 39.9497 -3.48408 -1.42438 0
M  V30 443 C 39.0967 -2.74583 -0.387201 0
M  V30 444 H 42.0477 -1.567 0.25113 0
M  V30 445 H 42.0687 -3.34992 -1.80445 0
M  V30 446 H 41.5807 -3.88056 -0.0585628 0
M  V30 447 H 39.6817 -2.91103 -2.32572 0
M  V30 448 H 39.7947 -4.57119 -1.43455 0
M  V30 449 H 38.1587 -2.39942 -0.854409 0
M  V30 450 H 38.9417 -3.39849 0.485543 0
M  V30 451 N 41.3868 0.248026 -1.55636 0
M  V30 452 C 42.6168 0.992367 -1.81206 0
M  V30 453 C 43.0248 1.7949 -0.598324 0
M  V30 454 O 42.3678 1.78292 0.442434 0
M  V30 455 C 42.4298 1.97926 -3.00109 0
M  V30 456 C 42.0938 1.36377 -4.36177 0
M  V30 457 C 43.0908 0.76682 -5.14214 0
M  V30 458 C 40.7758 1.38347 -4.82872 0
M  V30 459 C 42.7698 0.197778 -6.37093 0
M  V30 460 C 40.4568 0.810574 -6.057 0
M  V30 461 C 41.4548 0.218754 -6.8265 0
M  V30 462 O 41.1428 -0.345298 -8.03158 0
M  V30 463 H 40.8748 0.297704 -0.606917 0
M  V30 464 H 43.4288 0.276517 -2.0353 0
M  V30 465 H 41.6588 2.73339 -2.73538 0
M  V30 466 H 43.3478 2.58694 -3.12781 0
M  V30 467 H 44.1138 0.744114 -4.79258 0
M  V30 468 H 39.9928 1.8335 -4.2297 0
M  V30 469 H 43.5368 -0.264788 -6.97097 0
M  V30 470 H 39.4338 0.830604 -6.40134 0
M  V30 471 H 40.2018 -0.237055 -8.18157 0
M  V30 472 N 42.8649 1.48995 0.513639 0
M  V30 473 C 43.7749 1.67443 1.64317 0
M  V30 474 C 44.7909 0.556947 1.64846 0
M  V30 475 O 45.9669 0.830082 1.83498 0
M  V30 476 C 43.0319 1.72515 3.00732 0
M  V30 477 C 42.0929 2.96009 3.1093 0
M  V30 478 C 41.3259 3.00829 4.40837 0
M  V30 479 O 41.5489 2.13594 5.28898 0
M  V30 480 O 40.4829 3.93168 4.55744 0
M  V30 481 H 44.3089 2.63106 1.51687 0
M  V30 482 H 41.8939 1.32588 0.688543 0
M  V30 483 H 43.7759 1.78277 3.81831 0
M  V30 484 H 42.4509 0.800278 3.13651 0
M  V30 485 H 41.3579 2.9577 2.29065 0
M  V30 486 H 42.6909 3.87934 3.02933 0
M  V30 487 N 44.343 -0.763751 1.37857 0
M  V30 488 C 45.571 -1.55293 1.36718 0
M  V30 489 C 45.986 -1.88745 -0.0455434 0
M  V30 490 O 45.343 -1.52039 -1.00947 0
M  V30 491 C 45.394 -2.85831 2.2132 0
M  V30 492 O 45.115 -2.5381 3.57089 0
M  V30 493 C 46.616 -3.80023 2.28249 0
M  V30 494 H 43.836 -0.480841 0.468009 0
M  V30 495 H 46.38 -0.946009 1.81303 0
M  V30 496 H 44.535 -3.42926 1.80223 0
M  V30 497 H 44.949 -3.37459 4.01524 0
M  V30 498 H 46.423 -4.68599 2.91752 0
M  V30 499 H 46.9 -4.1973 1.2932 0
M  V30 500 H 47.506 -3.28855 2.69693 0
M  V30 501 N 45.8211 -1.22559 -0.990812 0
M  V30 502 C 47.0691 -1.04933 -1.72724 0
M  V30 503 C 47.3901 0.416158 -1.90508 0
M  V30 504 O 46.6601 1.29918 -1.46622 0
M  V30 505 H 45.2401 -0.385296 -0.639965 0
M  V30 506 H 47.9021 -1.54105 -1.19322 0
M  V30 507 H 46.9981 -1.52886 -2.72089 0
M  V30 508 N 47.2992 1.18797 -1.03562 0
M  V30 509 C 48.2292 2.24472 -0.643019 0
M  V30 510 C 49.2102 1.66433 0.351283 0
M  V30 511 O 50.3952 1.92803 0.232505 0
M  V30 512 C 47.5252 3.473 4.24935e-05 0
M  V30 513 C 46.4792 4.18055 -0.917257 0
M  V30 514 C 45.8052 5.34519 -0.138941 0
M  V30 515 C 47.1052 4.72109 -2.23407 0
M  V30 516 H 48.7992 2.57566 -1.52643 0
M  V30 517 H 46.3452 1.23806 -0.735394 0
M  V30 518 H 48.2982 4.20426 0.286383 0
M  V30 519 H 47.0222 3.13424 0.918299 0
M  V30 520 H 45.6812 3.46821 -1.1879 0
M  V30 521 H 45.3292 4.96891 0.781562 0
M  V30 522 H 45.0292 5.82794 -0.750005 0
M  V30 523 H 46.5532 6.10438 0.1405 0
M  V30 524 H 47.9672 5.36955 -2.00879 0
M  V30 525 H 46.3642 5.30897 -2.79765 0
M  V30 526 H 47.4342 3.89807 -2.88407 0
M  V30 527 N 48.7773 0.814389 1.34928 0
M  V30 528 C 50.0233 0.399013 1.98836 0
M  V30 529 C 50.3563 -1.03314 1.64438 0
M  V30 530 O 49.6313 -1.71811 0.911659 0
M  V30 531 C 49.9143 0.591629 3.55207 0
M  V30 532 C 49.7673 2.06928 3.99376 0
M  V30 533 C 51.0863 0.022199 4.40094 0
M  V30 534 H 48.2053 0.146451 0.722303 0
M  V30 535 H 50.8473 1.02537 1.59957 0
M  V30 536 H 48.9973 0.0584441 3.88456 0
M  V30 537 H 50.6693 2.66544 3.76499 0
M  V30 538 H 48.9123 2.56287 3.49999 0
M  V30 539 H 49.5833 2.1549 5.08201 0
M  V30 540 H 52.0593 0.477643 4.13349 0
M  V30 541 H 50.9353 0.186832 5.48582 0
M  V30 542 H 51.1963 -1.07215 4.28902 0
M  V30 543 N 50.2554 -1.46986 0.568584 0
M  V30 544 C 51.2184 -2.28624 -0.162366 0
M  V30 545 C 52.2184 -1.37596 -0.832103 0
M  V30 546 O 53.4084 -1.60115 -0.68622 0
M  V30 547 C 50.5404 -3.17596 -1.23878 0
M  V30 548 H 51.7334 -2.94722 0.554899 0
M  V30 549 H 49.2864 -1.52863 0.325976 0
M  V30 550 H 50.0214 -2.56214 -1.98808 0
M  V30 551 H 49.8064 -3.846 -0.763219 0
M  V30 552 H 51.2964 -3.79078 -1.75185 0
M  V30 553 N 51.7335 -0.305618 -1.54608 0
M  V30 554 C 52.6835 0.583595 -2.20405 0
M  V30 555 C 53.6675 1.09539 -1.17856 0
M  V30 556 O 54.8595 1.0354 -1.43557 0
M  V30 557 C 51.9885 1.75277 -2.95183 0
M  V30 558 C 51.0745 1.25672 -4.05052 0
M  V30 559 N 51.4655 0.478998 -5.03527 0
M  V30 560 C 49.7635 1.53704 -4.18678 0
M  V30 561 C 50.4645 0.214269 -5.81305 0
M  V30 562 N 49.4405 0.795374 -5.3775 0
M  V30 563 H 53.2425 -0.0180946 -2.93894 0
M  V30 564 H 50.7565 -0.110601 -1.62023 0
M  V30 565 H 52.7535 2.4014 -3.40791 0
M  V30 566 H 51.4135 2.35812 -2.23211 0
M  V30 567 H 52.4245 0.123473 -5.17753 0
M  V30 568 H 49.1015 2.14954 -3.57912 0
M  V30 569 H 50.4915 -0.410656 -6.70644 0
M  V30 570 N 53.2116 1.57565 -0.0334293 0
M  V30 571 C 54.4366 1.96689 0.657895 0
M  V30 572 C 54.8616 0.910057 1.64619 0
M  V30 573 O 54.2196 -0.128598 1.80843 0
M  V30 574 C 54.2676 3.34905 1.33683 0
M  V30 575 O 53.3716 3.31574 2.45219 0
M  V30 576 H 52.7126 0.641205 0.172489 0
M  V30 577 H 55.2426 2.04372 -0.0965621 0
M  V30 578 H 55.2526 3.71234 1.69262 0
M  V30 579 H 53.9276 4.11366 0.612411 0
M  V30 580 H 52.5046 3.06968 2.11719 0
M  V30 581 N 54.6897 -0.239769 1.55765 0
M  V30 582 C 55.9667 -0.990056 1.68693 0
M  V30 583 C 56.3467 -2.03107 0.5754 0
M  V30 584 O 55.6947 -2.24604 -0.42017 0
M  V30 585 C 55.9047 -1.61696 3.09282 0
M  V30 586 C 57.2527 -2.11613 3.6811 0
M  V30 587 O 58.2767 -1.71624 3.12127 0
M  V30 588 O 57.1357 -2.85057 4.66267 0
M  V30 589 H 54.2297 -0.461299 0.686391 0
M  V30 590 H 56.7757 -0.232991 1.68093 0
M  V30 591 H 55.5477 -0.864357 3.81634 0
M  V30 592 H 55.1707 -2.44005 3.13923 0
M  V30 593 N 56.1678 -1.49265 -0.50573 0
M  V30 594 C 57.4158 -1.582 -1.25766 0
M  V30 595 C 57.7368 -0.268482 -1.93143 0
M  V30 596 O 57.0068 0.711833 -1.8251 0
M  V30 597 H 55.5868 -0.582873 -0.467191 0
M  V30 598 H 58.2488 -1.85865 -0.586525 0
M  V30 599 H 57.3448 -2.37563 -2.02412 0
M  V30 600 N 57.6459 0.756429 -1.3826 0
M  V30 601 C 58.9229 1.50584 -1.24835 0
M  V30 602 C 59.3029 2.10556 0.151485 0
M  V30 603 O 58.6509 1.96825 1.1607 0
M  V30 604 C 58.8609 2.57448 -2.3563 0
M  V30 605 C 60.2089 3.24429 -2.73917 0
M  V30 606 O 61.2329 2.67751 -2.34921 0
M  V30 607 O 60.0919 4.26937 -3.41156 0
M  V30 608 H 57.1859 0.667664 -0.48801 0
M  V30 609 H 59.7319 0.792083 -1.5008 0
M  V30 610 H 58.5039 2.11362 -3.29305 0
M  V30 611 H 58.1269 3.36408 -2.11933 0
M  V30 612 N 59.124 1.23083 0.984299 0
M  V30 613 C 60.37 1.06214 1.72761 0
M  V30 614 C 60.703 -0.400584 1.90024 0
M  V30 615 O 59.978 -1.29672 1.44967 0
M  V30 616 C 60.261 1.78375 3.12817 0
M  V30 617 C 60.114 3.32296 3.03149 0
M  V30 618 C 61.433 1.54309 4.12161 0
M  V30 619 H 58.552 0.387251 0.627061 0
M  V30 620 H 61.194 1.51536 1.14616 0
M  V30 621 H 59.344 1.39848 3.62457 0
M  V30 622 H 61.016 3.8032 2.61064 0
M  V30 623 H 59.259 3.6153 2.39747 0
M  V30 624 H 59.93 3.77972 4.02295 0
M  V30 625 H 62.406 1.87791 3.71314 0
M  V30 626 H 61.282 2.07281 5.08258 0
M  V30 627 H 61.543 0.477572 4.39513 0
M  V30 628 N 60.6021 -1.18246 1.0419 0
M  V30 629 C 61.8481 -1.88536 0.747122 0
M  V30 630 C 62.1811 -1.80223 -0.723409 0
M  V30 631 O 61.4561 -1.20337 -1.52804 0
M  V30 632 C 61.7391 -3.38968 1.21544 0
M  V30 633 C 61.5921 -3.56084 2.74816 0
M  V30 634 C 62.9111 -4.32648 0.806482 0
M  V30 635 H 60.0301 -0.684619 0.272883 0
M  V30 636 H 62.6721 -1.39113 1.29413 0
M  V30 637 H 60.8221 -3.8119 0.750081 0
M  V30 638 H 62.4941 -3.22946 3.29399 0
M  V30 639 H 60.7371 -2.98699 3.14582 0
M  V30 640 H 61.4081 -4.61639 3.02644 0
M  V30 641 H 63.8841 -3.98211 1.20695 0
M  V30 642 H 62.7601 -5.36462 1.1619 0
M  V30 643 H 63.0211 -4.41146 -0.29029 0
M  V30 644 N 62.0802 -0.821533 -1.34494 0
M  V30 645 C 63.0102 -0.257138 -2.3208 0
M  V30 646 C 63.9912 0.625645 -1.58176 0
M  V30 647 O 65.1762 0.552811 -1.86166 0
M  V30 648 C 62.3062 0.582958 -3.42372 0
M  V30 649 C 61.2602 -0.202571 -4.2752 0
M  V30 650 C 60.5862 0.760179 -5.29269 0
M  V30 651 C 61.8862 -1.40998 -5.02908 0
M  V30 652 H 63.5802 -1.07247 -2.79532 0
M  V30 653 H 61.1262 -0.517163 -1.34393 0
M  V30 654 H 63.0792 0.987972 -4.09655 0
M  V30 655 H 61.8032 1.43133 -2.93565 0
M  V30 656 H 60.4622 -0.588936 -3.61838 0
M  V30 657 H 60.1102 1.60447 -4.76724 0
M  V30 658 H 59.8102 0.238809 -5.87115 0
M  V30 659 H 61.3342 1.16308 -5.9942 0
M  V30 660 H 62.7482 -1.07905 -5.63054 0
M  V30 661 H 61.1452 -1.86689 -5.70322 0
M  V30 662 H 62.2152 -2.1889 -4.32684 0
M  V30 663 N 63.5583 1.46682 -0.576371 0
M  V30 664 C 64.5083 2.27278 0.181288 0
M  V30 665 C 65.4923 1.35497 0.867721 0
M  V30 666 O 66.6843 1.59717 0.762863 0
M  V30 667 C 63.8133 3.21703 1.19841 0
M  V30 668 C 62.8993 4.20969 0.51442 0
M  V30 669 N 63.2903 5.03999 -0.426407 0
M  V30 670 C 61.5883 4.39373 0.765963 0
M  V30 671 C 62.2893 5.75812 -0.825565 0
M  V30 672 N 61.2653 5.43315 -0.176116 0
M  V30 673 H 65.0673 2.88863 -0.541785 0
M  V30 674 H 62.5813 1.57455 -0.397697 0
M  V30 675 H 64.5783 3.78145 1.75533 0
M  V30 676 H 63.2383 2.61677 1.92238 0
M  V30 677 H 64.2493 5.11659 -0.8016 0
M  V30 678 H 60.9263 3.90502 1.47698 0
M  V30 679 H 62.3163 6.52577 -1.59976 0
M  V30 680 N 65.0364 0.313813 1.54444 0
M  V30 681 C 65.9994 -0.54379 2.22656 0
M  V30 682 C 66.9994 -1.05124 1.21678 0
M  V30 683 O 68.1894 -0.945225 1.46325 0
M  V30 684 C 65.3214 -1.75427 2.92298 0
M  V30 685 H 66.5144 0.0523599 2.99854 0
M  V30 686 H 64.0674 0.0647834 1.56166 0
M  V30 687 H 64.8024 -2.38991 2.19211 0
M  V30 688 H 64.5874 -1.39791 3.66334 0
M  V30 689 H 66.0774 -2.36325 3.44297 0
M  V30 690 N 66.5145 -1.57545 0.0417849 0
M  V30 691 C 67.7635 -1.91494 -0.633492 0
M  V30 692 C 68.0765 -0.921084 -1.72556 0
M  V30 693 O 69.2825 -1.15228 -2.45835 0
M  V30 694 C 67.7385 -3.40072 -1.17808 0
M  V30 695 C 67.3465 -4.47843 -0.118633 0
M  V30 696 C 69.0905 -3.8307 -1.82915 0
M  V30 697 C 66.9975 -5.87529 -0.675578 0
M  V30 698 H 65.9275 -0.714653 -0.24039 0
M  V30 699 H 68.5785 -1.83175 0.109148 0
M  V30 700 H 66.9605 -3.43364 -1.97274 0
M  V30 701 H 68.1345 -4.56128 0.654494 0
M  V30 702 H 66.4495 -4.14128 0.434414 0
M  V30 703 H 69.0465 -4.84794 -2.25563 0
M  V30 704 H 69.3895 -3.1881 -2.67705 0
M  V30 705 H 69.9225 -3.82255 -1.10119 0
M  V30 706 H 66.6615 -6.55362 0.134475 0
M  V30 707 H 66.1815 -5.82824 -1.4169 0
M  V30 708 H 67.8605 -6.36491 -1.1614 0
M  V30 709 N 67.9926 0.231505 -1.5589 0
M  V30 710 C 69.2176 0.978689 -1.82856 0
M  V30 711 C 69.6426 1.77559 -0.620846 0
M  V30 712 O 69.0006 1.76119 0.430305 0
M  V30 713 C 69.0486 1.87997 -3.07716 0
M  V30 714 O 68.1526 2.97393 -2.85712 0
M  V30 715 H 67.4936 0.277663 -0.603158 0
M  V30 716 H 70.0236 0.24783 -2.03093 0
M  V30 717 H 70.0336 2.2917 -3.37558 0
M  V30 718 H 68.7086 1.29417 -3.95252 0
M  V30 719 H 67.2856 2.60238 -2.67078 0
M  V30 720 N 69.4707 1.49531 0.497807 0
M  V30 721 C 70.7477 1.49682 1.25915 0
M  V30 722 C 71.1277 0.226339 2.09883 0
M  V30 723 O 70.4757 -0.791189 2.14365 0
M  V30 724 C 70.6857 2.77755 2.11313 0
M  V30 725 C 72.0337 3.27371 2.70395 0
M  V30 726 O 73.0577 2.78894 2.21578 0
M  V30 727 O 71.9167 4.11808 3.59272 0
M  V30 728 H 69.0107 0.599228 0.56996 0
M  V30 729 H 71.5567 1.61798 0.511816 0
M  V30 730 H 70.3287 3.61713 1.49264 0
M  V30 731 H 69.9517 2.68515 2.93233 0
M  V30 732 N 70.9488 -0.749086 1.3866 0
M  V30 733 C 71.9118 -1.84457 1.36045 0
M  V30 734 C 72.9118 -1.58682 0.260122 0
M  V30 735 O 74.1018 -1.66343 0.517261 0
M  V30 736 C 71.2338 -3.22008 1.11911 0
M  V30 737 H 72.4268 -1.88182 2.33512 0
M  V30 738 H 69.9798 -0.951266 1.24019 0
M  V30 739 H 70.7148 -3.2395 0.150686 0
M  V30 740 H 70.4998 -3.42111 1.91579 0
M  V30 741 H 71.9898 -4.0208 1.12788 0
M  V30 742 N 72.4269 -1.23603 -0.977757 0
M  V30 743 C 73.6759 -1.06377 -1.71368 0
M  V30 744 C 73.9889 0.399062 -1.91486 0
M  V30 745 O 75.1949 0.691312 -2.62551 0
M  V30 746 C 73.6509 -1.85512 -3.08404 0
M  V30 747 C 73.2589 -3.36141 -2.96164 0
M  V30 748 C 75.0029 -1.76783 -3.85938 0
M  V30 749 C 72.9099 -4.07659 -4.28449 0
M  V30 750 H 71.8399 -0.394452 -0.642591 0
M  V30 751 H 74.4909 -1.47594 -1.09034 0
M  V30 752 H 72.8729 -1.37103 -3.71509 0
M  V30 753 H 74.0469 -3.92056 -2.42133 0
M  V30 754 H 72.3619 -3.45712 -2.32104 0
M  V30 755 H 74.9589 -2.27526 -4.83876 0
M  V30 756 H 75.3019 -0.731116 -4.0983 0
M  V30 757 H 75.8349 -2.22818 -3.2954 0
M  V30 758 H 72.5739 -5.11648 -4.09752 0
M  V30 759 H 72.0939 -3.5653 -4.82334 0
M  V30 760 H 73.7729 -4.141 -4.97122 0
M  V30 761 N 73.905 1.17692 -1.04816 0
M  V30 762 C 74.835 2.23777 -0.666791 0
M  V30 763 C 75.816 1.66796 0.33361 0
M  V30 764 O 77.001 1.93039 0.212042 0
M  V30 765 C 74.131 3.47281 -0.0367933 0
M  V30 766 C 73.085 4.17059 -0.961546 0
M  V30 767 C 72.411 5.34342 -0.195626 0
M  V30 768 C 73.711 4.69713 -2.28402 0
M  V30 769 H 75.405 2.55933 -1.55367 0
M  V30 770 H 72.951 1.23019 -0.748484 0
M  V30 771 H 74.904 4.20706 0.241775 0
M  V30 772 H 73.628 3.14381 0.885004 0
M  V30 773 H 72.287 3.45541 -1.22462 0
M  V30 774 H 71.935 4.97692 0.728816 0
M  V30 775 H 71.635 5.81966 -0.811775 0
M  V30 776 H 73.159 6.10553 0.0757473 0
M  V30 777 H 74.573 5.34794 -2.06563 0
M  V30 778 H 72.97 5.279 -2.8538 0
M  V30 779 H 74.04 3.86726 -2.92525 0
M  V30 780 N 75.3831 0.828654 1.34056 0
M  V30 781 C 76.6311 0.41863 1.97717 0
M  V30 782 C 76.9521 -1.02314 1.66002 0
M  V30 783 O 76.2221 -1.71119 0.953683 0
M  V30 784 H 74.8021 0.151809 0.731412 0
M  V30 785 H 77.4641 1.05936 1.63596 0
M  V30 786 H 76.5601 0.542318 3.07352 0
M  V30 787 N 76.8612 -1.46375 0.584142 0
M  V30 788 C 77.8242 -2.28784 -0.138108 0
M  V30 789 C 78.8242 -1.38471 -0.817462 0
M  V30 790 O 80.0142 -1.60833 -0.669199 0
M  V30 791 C 77.1462 -3.18892 -1.20503 0
M  V30 792 H 78.3392 -2.94117 0.586127 0
M  V30 793 H 75.8922 -1.52509 0.342171 0
M  V30 794 H 76.6272 -2.58309 -1.96079 0
M  V30 795 H 76.4122 -3.85388 -0.722384 0
M  V30 796 H 77.9022 -3.80914 -1.71155 0
M  V30 797 N 78.3393 -0.321999 -1.54275 0
M  V30 798 C 79.2723 0.58718 -2.20516 0
M  V30 799 C 80.2503 1.11693 -1.18167 0
M  V30 800 O 81.4343 1.18122 -1.46899 0
M  V30 801 C 78.5613 1.80554 -2.86562 0
M  V30 802 C 77.6073 1.40718 -4.02617 0
M  V30 803 S 78.4403 0.445218 -5.33646 0
M  V30 804 C 79.5963 1.6709 -6.03185 0
M  V30 805 H 79.8293 0.0244875 -2.9729 0
M  V30 806 H 77.3623 -0.106087 -1.54035 0
M  V30 807 H 79.3203 2.50462 -3.25237 0
M  V30 808 H 77.9813 2.33942 -2.09595 0
M  V30 809 H 77.1743 2.31501 -4.47687 0
M  V30 810 H 76.7763 0.78782 -3.65608 0
M  V30 811 H 79.0683 2.60856 -6.25268 0
M  V30 812 H 80.0113 1.26239 -6.96756 0
M  V30 813 H 80.4193 1.85716 -5.33076 0
M  V30 814 N 79.8174 1.5752 -0.0501392 0
M  V30 815 C 80.7804 2.1037 0.909786 0
M  V30 816 C 81.7804 1.02308 1.24056 0
M  V30 817 O 82.9704 1.28385 1.17741 0
M  V30 818 C 80.1024 2.58708 2.21998 0
M  V30 819 H 81.2954 2.96479 0.451665 0
M  V30 820 H 78.8484 1.55038 0.198248 0
M  V30 821 H 79.5834 1.75989 2.72394 0
M  V30 822 H 79.3684 3.37675 1.99295 0
M  V30 823 H 80.8584 2.99747 2.9076 0
M  V30 824 N 81.2955 -0.223234 1.56011 0
M  V30 825 C 82.2255 -1.27988 1.95298 0
M  V30 826 C 83.2065 -1.48976 0.820979 0
M  V30 827 O 84.3915 -1.61188 1.08315 0
M  V30 828 C 81.5215 -2.63 2.26822 0
M  V30 829 C 80.4755 -2.56671 3.42497 0
M  V30 830 C 79.8015 -3.95697 3.59622 0
M  V30 831 C 81.1015 -2.11601 4.77517 0
M  V30 832 H 82.7955 -0.953525 2.8381 0
M  V30 833 H 80.3415 -0.457244 1.36548 0
M  V30 834 H 82.2945 -3.37077 2.52898 0
M  V30 835 H 81.0185 -2.9732 1.35161 0
M  V30 836 H 79.6775 -1.85051 3.16467 0
M  V30 837 H 79.3255 -4.27322 2.6534 0
M  V30 838 H 79.0255 -3.92345 4.37424 0
M  V30 839 H 80.5495 -4.71438 3.88044 0
M  V30 840 H 81.9635 -2.7542 5.02809 0
M  V30 841 H 80.3605 -2.19311 5.5859 0
M  V30 842 H 81.4305 -1.06824 4.72987 0
M  V30 843 N 82.7736 -1.49793 -0.48987 0
M  V30 844 C 84.0216 -1.59525 -1.24081 0
M  V30 845 C 84.3426 -0.288953 -1.92847 0
M  V30 846 O 83.6126 0.692436 -1.83254 0
M  V30 847 H 82.1926 -0.587796 -0.460983 0
M  V30 848 H 84.8546 -1.86477 -0.566778 0
M  V30 849 H 83.9506 -2.39696 -1.99881 0
M  V30 850 N 84.2517 0.741722 -1.39055 0
M  V30 851 C 85.5287 1.49252 -1.26425 0
M  V30 852 C 85.9087 2.10705 0.129144 0
M  V30 853 O 85.2567 1.98045 1.13976 0
M  V30 854 C 85.4667 2.54934 -2.38347 0
M  V30 855 C 86.8147 3.21506 -2.77343 0
M  V30 856 O 87.8387 2.65245 -2.37747 0
M  V30 857 O 86.6977 4.23294 -3.45665 0
M  V30 858 H 83.7917 0.662451 -0.495064 0
M  V30 859 H 86.3377 0.776121 -1.50912 0
M  V30 860 H 85.1097 2.07857 -3.31529 0
M  V30 861 H 84.7327 3.34141 -2.15489 0
M  V30 862 N 85.7298 1.2412 0.971189 0
M  V30 863 C 86.9788 1.07284 1.70801 0
M  V30 864 C 87.2918 -0.388902 1.91695 0
M  V30 865 O 88.4978 -0.677379 2.62914 0
M  V30 866 C 86.9538 1.87145 3.07416 0
M  V30 867 C 86.5618 3.37707 2.94377 0
M  V30 868 C 88.3058 1.78828 3.84995 0
M  V30 869 C 86.2128 4.09925 4.26281 0
M  V30 870 H 85.1428 0.397854 0.64049 0
M  V30 871 H 87.7938 1.4817 1.0825 0
M  V30 872 H 86.1758 1.39071 3.70777 0
M  V30 873 H 87.3498 3.93335 2.4005 0
M  V30 874 H 85.6648 3.46938 2.30267 0
M  V30 875 H 88.2618 2.30089 4.82662 0
M  V30 876 H 88.6048 0.75284 4.09436 0
M  V30 877 H 89.1378 2.24563 3.28354 0
M  V30 878 H 85.8768 5.13813 4.07033 0
M  V30 879 H 85.3968 3.59083 4.80437 0
M  V30 880 H 87.0758 4.1673 4.94919 0
M  V30 881 N 87.2079 -1.17134 1.05439 0
M  V30 882 C 88.4559 -1.87085 0.764429 0
M  V30 883 C 88.7769 -1.81584 -0.710787 0
M  V30 884 O 88.0469 -1.24349 -1.51374 0
M  V30 885 H 86.6269 -0.692627 0.279779 0
M  V30 886 H 89.2889 -1.42087 1.33406 0
M  V30 887 H 88.3849 -2.92759 1.0816 0
M  V30 888 N 88.686 -0.835752 -1.33615 0
M  V30 889 C 89.633 -0.26473 -2.29277 0
M  V30 890 C 90.603 0.617712 -1.54187 0
M  V30 891 O 91.788 0.556641 -1.825 0
M  V30 892 C 88.928 0.556777 -3.40579 0
M  V30 893 C 88.041 -0.349339 -4.30585 0
M  V30 894 C 87.176 0.482969 -5.29 0
M  V30 895 C 86.215 -0.421732 -6.10645 0
M  V30 896 N 85.352 0.372262 -7.01112 0
M  V30 897 H 90.192 -1.08582 -2.77514 0
M  V30 898 H 87.729 -0.546927 -1.36554 0
M  V30 899 H 89.687 1.04852 -4.03809 0
M  V30 900 H 88.317 1.34286 -2.93542 0
M  V30 901 H 87.369 -0.959372 -3.68104 0
M  V30 902 H 88.681 -1.04445 -4.87742 0
M  V30 903 H 87.835 1.03866 -5.97743 0
M  V30 904 H 86.574 1.21153 -4.72412 0
M  V30 905 H 85.579 -0.989464 -5.40823 0
M  V30 906 H 86.804 -1.14861 -6.69316 0
M  V30 907 H 84.75 1.08426 -6.46977 0
M  V30 908 H 84.667 -0.264198 -7.55538 0
M  V30 909 H 85.935 0.910293 -7.74167 0
M  V30 910 N 90.1641 1.46063 -0.591896 0
M  V30 911 C 91.1141 2.27458 0.157172 0
M  V30 912 C 92.0981 1.3641 0.853301 0
M  V30 913 O 93.2901 1.60517 0.74588 0
M  V30 914 C 90.4191 3.22956 1.16423 0
M  V30 915 C 89.5051 4.2149 0.469742 0
M  V30 916 N 89.8961 5.03519 -0.479839 0
M  V30 917 C 88.1941 4.40161 0.719319 0
M  V30 918 C 88.8951 5.74904 -0.886591 0
M  V30 919 N 87.8711 5.43097 -0.233731 0
M  V30 920 H 91.6731 2.88272 -0.572392 0
M  V30 921 H 89.1871 1.57024 -0.414375 0
M  V30 922 H 91.1841 3.79986 1.71513 0
M  V30 923 H 89.8441 2.63701 1.89451 0
M  V30 924 H 90.8551 5.1078 -0.855823 0
M  V30 925 H 87.5321 3.92046 1.43548 0
M  V30 926 H 88.9221 6.50844 -1.66888 0
M  V30 927 N 91.6422 0.330177 1.54103 0
M  V30 928 C 92.8892 -0.270405 2.00686 0
M  V30 929 C 93.2172 -1.51621 1.21825 0
M  V30 930 O 92.4722 -1.93536 0.29025 0
M  V30 931 C 92.7712 -0.643134 3.51566 0
M  V30 932 C 92.4372 0.504251 4.48072 0
M  V30 933 C 91.0992 0.819163 4.74176 0
M  V30 934 C 93.4512 1.27465 5.05373 0
M  V30 935 C 90.7792 1.90708 5.5484 0
M  V30 936 C 93.1312 2.35271 5.87223 0
M  V30 937 C 91.7952 2.67336 6.11627 0
M  V30 938 H 91.0652 -0.0989482 0.734364 0
M  V30 939 H 93.7122 0.455324 1.86008 0
M  V30 940 H 92.0172 -1.44938 3.64006 0
M  V30 941 H 93.7142 -1.11949 3.85056 0
M  V30 942 H 90.3042 0.248733 4.27878 0
M  V30 943 H 94.4882 1.04462 4.85182 0
M  V30 944 H 89.7442 2.15991 5.71977 0
M  V30 945 H 93.9182 2.95405 6.30641 0
M  V30 946 H 91.5452 3.51763 6.73919 0
M  V30 947 N 93.1203 -1.57491 0.0584922 0
M  V30 948 C 94.5313 -1.80526 -0.476138 0
M  V30 949 C 94.8823 -0.971334 -1.70469 0
M  V30 950 O 94.0073 -0.190012 -2.15564 0
M  V30 951 C 94.6023 -3.27424 -0.870587 0
M  V30 952 C 93.1613 -3.51351 -1.35015 0
M  V30 953 C 92.3083 -2.75343 -0.32887 0
M  V30 954 H 95.2593 -1.56133 0.284312 0
M  V30 955 H 95.2803 -3.38745 -1.73299 0
M  V30 956 H 94.7923 -3.88093 0.0237627 0
M  V30 957 H 92.8933 -2.95971 -2.26345 0
M  V30 958 H 93.0063 -4.60059 -1.33726 0
M  V30 959 H 91.3703 -2.417 -0.803321 0
M  V30 960 H 92.1533 -3.38743 0.557521 0
M  V30 961 N 94.5984 0.214957 -1.56127 0
M  V30 962 C 95.8754 0.963093 -1.70247 0
M  V30 963 C 96.2554 2.02166 -0.60764 0
M  V30 964 O 95.6034 2.25244 0.384385 0
M  V30 965 C 95.8134 1.56756 -3.11815 0
M  V30 966 C 97.1614 2.0573 -3.7143 0
M  V30 967 O 98.1854 1.66637 -3.14818 0
M  V30 968 O 97.0444 2.77603 -4.70743 0
M  V30 969 H 94.1384 0.450321 -0.693643 0
M  V30 970 H 96.6844 0.206219 -1.68442 0
M  V30 971 H 95.4564 0.803533 -3.82961 0
M  V30 972 H 95.0794 2.3898 -3.17765 0
M  V30 973 N 96.0765 1.50051 0.48192 0
M  V30 974 C 97.3045 1.64237 1.25832 0
M  V30 975 C 97.7195 0.321336 1.86045 0
M  V30 976 O 97.0765 -0.695478 1.68729 0
M  V30 977 C 97.1275 2.72548 2.37487 0
M  V30 978 O 96.8485 3.99529 1.79745 0
M  V30 979 C 98.3495 2.9761 3.28547 0
M  V30 980 H 95.5695 0.55237 0.380957 0
M  V30 981 H 98.1135 1.96207 0.576467 0
M  V30 982 H 96.2685 2.43303 3.01467 0
M  V30 983 H 96.6825 4.59342 2.5319 0
M  V30 984 H 98.1565 3.77084 4.03127 0
M  V30 985 H 98.6335 2.0826 3.86684 0
M  V30 986 H 99.2395 3.28345 2.70314 0
M  V30 987 N 97.5546 -0.734337 1.39446 0
M  V30 988 C 98.8316 -1.48579 1.27215 0
M  V30 989 C 99.2116 -2.1077 -0.117968 0
M  V30 990 O 98.5596 -1.98646 -1.12924 0
M  V30 991 C 98.7696 -2.53667 2.39696 0
M  V30 992 C 100.118 -3.20031 2.79044 0
M  V30 993 O 101.142 -2.6398 2.39151 0
M  V30 994 O 100.001 -4.21455 3.47905 0
M  V30 995 H 97.0946 -0.659816 0.49857 0
M  V30 996 H 99.6406 -0.768106 1.51322 0
M  V30 997 H 98.4126 -2.06096 3.32626 0
M  V30 998 H 98.0356 -3.32994 2.17258 0
M  V30 999 N 99.0327 -1.24633 -0.964593 0
M  V30 1000 C 99.9957 -1.0424 -2.04124 0
M  V30 1001 C 100.996 0.00137563 -1.608 0
M  V30 1002 O 102.186 -0.239883 -1.7254 0
M  V30 1003 C 99.3177 -0.580588 -3.3592 0
M  V30 1004 H 100.511 -1.99803 -2.23649 0
M  V30 1005 H 98.0637 -1.06899 -1.14027 0
M  V30 1006 H 98.7987 0.3781 -3.22088 0
M  V30 1007 H 98.5837 -1.33398 -3.6871 0
M  V30 1008 H 100.074 -0.459034 -4.15069 0
M  V30 1009 N 100.511 1.16574 -1.06058 0
M  V30 1010 C 101.474 2.19085 -0.673392 0
M  V30 1011 C 102.474 1.5835 0.279648 0
M  V30 1012 O 103.664 1.74088 0.0623488 0
M  V30 1013 C 100.796 3.40899 0.00954234 0
M  V30 1014 H 101.989 2.54853 -1.58081 0
M  V30 1015 H 99.5418 1.30808 -0.855516 0
M  V30 1016 H 100.277 3.10684 0.929826 0
M  V30 1017 H 100.062 3.86233 -0.67573 0
M  V30 1018 H 101.552 4.1675 0.266245 0
M  V30 1019 N 101.989 0.842826 1.3317 0
M  V30 1020 C 103.219 0.453397 2.01564 0
M  V30 1021 C 103.627 -0.951147 1.63554 0
M  V30 1022 O 102.97 -1.63021 0.846746 0
M  V30 1023 C 103.032 0.499013 3.5602 0
M  V30 1024 C 102.696 1.86037 4.1742 0
M  V30 1025 C 103.693 2.82416 4.36506 0
M  V30 1026 C 101.378 2.15428 4.53757 0
M  V30 1027 C 103.372 4.06346 4.91082 0
M  V30 1028 C 101.059 3.39615 5.0804 0
M  V30 1029 C 102.057 4.3489 5.26649 0
M  V30 1030 O 101.745 5.5688 5.79776 0
M  V30 1031 H 101.477 0.177871 0.652179 0
M  V30 1032 H 104.031 1.13808 1.70988 0
M  V30 1033 H 102.261 -0.242467 3.85939 0
M  V30 1034 H 103.95 0.126852 4.05702 0
M  V30 1035 H 104.716 2.6101 4.08777 0
M  V30 1036 H 100.595 1.42061 4.38565 0
M  V30 1037 H 104.139 4.80722 5.05522 0
M  V30 1038 H 100.036 3.60876 5.352 0
M  V30 1039 H 100.804 5.58674 5.98185 0
M  V30 1040 N 103.467 -1.45747 0.599634 0
M  V30 1041 C 104.414 -2.30467 -0.123849 0
M  V30 1042 C 105.384 -1.41632 -0.86774 0
M  V30 1043 O 106.569 -1.70568 -0.855056 0
M  V30 1044 C 103.709 -3.26402 -1.12051 0
M  V30 1045 C 102.822 -4.3034 -0.37832 0
M  V30 1046 C 101.957 -5.13389 -1.364 0
M  V30 1047 C 100.996 -6.09061 -0.609171 0
M  V30 1048 N 100.133 -6.84918 -1.54374 0
M  V30 1049 H 104.973 -2.91802 0.604627 0
M  V30 1050 H 102.51 -1.43797 0.309972 0
M  V30 1051 H 104.468 -3.80482 -1.7114 0
M  V30 1052 H 103.098 -2.66839 -1.8165 0
M  V30 1053 H 102.15 -3.78984 0.327929 0
M  V30 1054 H 103.462 -4.98354 0.210997 0
M  V30 1055 H 102.616 -5.7183 -2.02719 0
M  V30 1056 H 101.355 -4.45376 -1.98725 0
M  V30 1057 H 100.36 -5.49758 0.0676979 0
M  V30 1058 H 101.585 -6.79099 0.00891991 0
M  V30 1059 H 99.531 -6.19601 -2.15478 0
M  V30 1060 H 99.448 -7.49254 -1.00766 0
M  V30 1061 H 100.716 -7.47906 -2.19676 0
M  V30 1062 N 104.945 -0.338344 -1.53925 0
M  V30 1063 C 106.193 0.259245 -2.0043 0
M  V30 1064 C 106.514 1.51484 -1.22791 0
M  V30 1065 O 105.784 1.93037 -0.33368 0
M  V30 1066 H 104.364 0.0987845 -0.740439 0
M  V30 1067 H 107.026 -0.458302 -1.89435 0
M  V30 1068 H 106.122 0.505334 -3.07982 0
M  V30 1069 N 106.423 1.57458 -0.0668435 0
M  V30 1070 C 107.386 2.11323 0.887422 0
M  V30 1071 C 108.386 1.03618 1.22964 0
M  V30 1072 O 109.576 1.29626 1.16373 0
M  V30 1073 C 106.708 2.61048 2.19242 0
M  V30 1074 H 107.901 2.96942 0.420194 0
M  V30 1075 H 105.454 1.55239 0.181793 0
M  V30 1076 H 106.189 1.78868 2.70512 0
M  V30 1077 H 105.974 3.39769 1.95702 0
M  V30 1078 H 107.464 3.02814 2.87565 0
M  V30 1079 N 107.901 -0.206675 1.56239 0
M  V30 1080 C 109.178 -0.954051 1.70755 0
M  V30 1081 C 109.558 -2.01841 0.618353 0
M  V30 1082 O 108.906 -2.25444 -0.372434 0
M  V30 1083 C 109.116 -1.551 3.12642 0
M  V30 1084 C 110.464 -2.03757 3.72516 0
M  V30 1085 O 111.488 -1.64965 3.15698 0
M  V30 1086 O 110.347 -2.75103 4.72208 0
M  V30 1087 H 107.441 -0.446636 0.696021 0
M  V30 1088 H 109.987 -0.197283 1.68549 0
M  V30 1089 H 108.759 -0.783212 3.83382 0
M  V30 1090 H 108.382 -2.37291 3.19028 0
M  V30 1091 N 109.379 -1.50304 -0.473955 0
M  V30 1092 C 110.604 -1.65175 -1.25427 0
M  V30 1093 C 111.029 -0.333673 -1.85117 0
M  V30 1094 O 110.387 0.702114 -1.67153 0
M  V30 1095 C 110.435 -2.74295 -2.34082 0
M  V30 1096 O 109.539 -2.35349 -3.38651 0
M  V30 1097 H 108.88 -0.551944 -0.369126 0
M  V30 1098 H 111.41 -1.96662 -0.564364 0
M  V30 1099 H 111.42 -2.97285 -2.79438 0
M  V30 1100 H 110.095 -3.69959 -1.90008 0
M  V30 1101 H 108.672 -2.22794 -2.99027 0
M  V30 1102 N 110.857 0.726932 -1.39834 0
M  V30 1103 C 112.273 1.03354 -1.21615 0
M  V30 1104 C 112.473 2.01327 -0.08338 0
M  V30 1105 O 111.529 2.46158 0.56238 0
M  V30 1106 C 112.842 1.58811 -2.55342 0
M  V30 1107 C 114.39 1.70851 -2.62257 0
M  V30 1108 C 114.865 2.29716 -3.96225 0
M  V30 1109 N 116.356 2.37116 -3.97907 0
M  V30 1110 C 117.091 2.83619 -4.98345 0
M  V30 1111 N 116.587 3.29958 -6.09179 0
M  V30 1112 N 118.38 2.82901 -4.8572 0
M  V30 1113 H 110.531 0.0773069 -2.12259 0
M  V30 1114 H 112.794 0.0969102 -0.943034 0
M  V30 1115 H 112.5 0.942855 -3.38826 0
M  V30 1116 H 112.374 2.57502 -2.75632 0
M  V30 1117 H 114.761 2.34497 -1.79152 0
M  V30 1118 H 114.842 0.707913 -2.45809 0
M  V30 1119 H 114.486 1.66696 -4.79765 0
M  V30 1120 H 114.416 3.30469 -4.09997 0
M  V30 1121 H 116.907 2.04374 -3.17868 0
M  V30 1122 H 117.22 3.63976 -6.8172 0
M  V30 1123 H 115.565 3.27946 -6.12761 0
M  V30 1124 H 118.756 2.46027 -3.98231 0
M  V30 1125 H 118.929 3.18827 -5.6414 0
M  V30 1126 N 112.336 1.25143 0.95797 0
M  V30 1127 C 113.582 1.09855 1.70469 0
M  V30 1128 C 113.915 -0.360187 1.90831 0
M  V30 1129 O 113.19 -1.26568 1.47685 0
M  V30 1130 C 113.473 1.8497 3.08963 0
M  V30 1131 C 113.326 3.38652 2.96032 0
M  V30 1132 C 114.645 1.63016 4.08795 0
M  V30 1133 H 111.764 0.400465 0.618706 0
M  V30 1134 H 114.406 1.53933 1.11376 0
M  V30 1135 H 112.556 1.47505 3.59409 0
M  V30 1136 H 114.228 3.85772 2.52938 0
M  V30 1137 H 112.471 3.66534 2.32025 0
M  V30 1138 H 113.142 3.8642 3.94187 0
M  V30 1139 H 115.618 1.95625 3.67247 0
M  V30 1140 H 114.494 2.18015 5.03747 0
M  V30 1141 H 114.755 0.570692 4.38401 0
M  V30 1142 N 113.814 -1.1601 1.06675 0
M  V30 1143 C 114.744 -2.22688 0.702307 0
M  V30 1144 C 115.725 -1.67306 -0.307032 0
M  V30 1145 O 116.91 -1.93352 -0.181305 0
M  V30 1146 C 114.04 -3.47178 0.092038 0
M  V30 1147 C 112.994 -4.15477 1.02777 0
M  V30 1148 C 112.32 -5.33963 0.28061 0
M  V30 1149 C 113.62 -4.66019 2.35846 0
M  V30 1150 H 115.314 -2.53429 1.59419 0
M  V30 1151 H 112.86 -1.21813 0.767961 0
M  V30 1152 H 114.813 -4.21037 -0.174814 0
M  V30 1153 H 113.537 -3.15749 -0.834877 0
M  V30 1154 H 112.196 -3.43549 1.27944 0
M  V30 1155 H 111.844 -4.98788 -0.649545 0
M  V30 1156 H 111.544 -5.806 0.904258 0
M  V30 1157 H 113.068 -6.10596 0.021396 0
M  V30 1158 H 114.482 -5.3144 2.15045 0
M  V30 1159 H 112.879 -5.23293 2.93743 0
M  V30 1160 H 113.949 -3.82023 2.98641 0
M  V30 1161 N 115.292 -0.849877 -1.32721 0
M  V30 1162 C 116.222 -0.306308 -2.31482 0
M  V30 1163 C 117.203 0.591952 -1.59468 0
M  V30 1164 O 118.388 0.513199 -1.87296 0
M  V30 1165 C 115.518 0.510204 -3.43532 0
M  V30 1166 C 114.472 -0.293209 -4.26994 0
M  V30 1167 C 113.798 0.647743 -5.30762 0
M  V30 1168 C 115.098 -1.51634 -4.99804 0
M  V30 1169 H 116.792 -1.13153 -2.77195 0
M  V30 1170 H 114.338 -0.545553 -1.33266 0
M  V30 1171 H 116.291 0.900856 -4.11658 0
M  V30 1172 H 115.015 1.36874 -2.96535 0
M  V30 1173 H 113.674 -0.665555 -3.60508 0
M  V30 1174 H 113.322 1.50299 -4.8002 0
M  V30 1175 H 113.022 0.11422 -5.87489 0
M  V30 1176 H 114.546 1.03567 -6.01753 0
M  V30 1177 H 115.96 -1.19824 -5.60638 0
M  V30 1178 H 114.357 -1.98745 -5.66234 0
M  V30 1179 H 115.427 -2.28018 -4.27943 0
M  V30 1180 N 116.77 1.45427 -0.607355 0
M  V30 1181 C 118.186 1.57283 -0.270985 0
M  V30 1182 C 118.386 1.59875 1.22647 0
M  V30 1183 O 117.442 1.52893 2.00948 0
M  V30 1184 C 118.755 2.85566 -0.941952 0
M  V30 1185 C 120.303 2.9924 -0.917849 0
M  V30 1186 C 120.778 4.30293 -1.56882 0
M  V30 1187 N 122.269 4.37051 -1.5343 0
M  V30 1188 C 123.004 5.37123 -2.00715 0
M  V30 1189 N 122.5 6.43734 -2.56084 0
M  V30 1190 N 124.293 5.28479 -1.91484 0
M  V30 1191 H 116.444 1.41988 -1.57966 0
M  V30 1192 H 118.707 0.67885 -0.661715 0
M  V30 1193 H 118.413 2.8955 -1.99633 0
M  V30 1194 H 118.287 3.74322 -0.465096 0
M  V30 1195 H 120.674 2.94822 0.127984 0
M  V30 1196 H 120.755 2.11895 -1.43297 0
M  V30 1197 H 120.399 4.35469 -2.61398 0
M  V30 1198 H 120.329 5.16454 -1.02873 0
M  V30 1199 H 122.82 3.60615 -1.12982 0
M  V30 1200 H 123.133 7.16341 -2.89958 0
M  V30 1201 H 121.478 6.44485 -2.60122 0
M  V30 1202 H 124.669 4.44098 -1.47967 0
M  V30 1203 H 124.842 6.0632 -2.28648 0
M  V30 1204 N 118.248 0.346503 1.53744 0
M  V30 1205 C 119.198 -0.524953 2.21874 0
M  V30 1206 C 120.182 -1.06376 1.20718 0
M  V30 1207 O 121.374 -0.996972 1.46251 0
M  V30 1208 C 118.503 -1.6739 2.99726 0
M  V30 1209 C 117.589 -1.14888 4.08242 0
M  V30 1210 N 117.98 -0.345329 5.0462 0
M  V30 1211 C 116.278 -1.4255 4.22606 0
M  V30 1212 C 116.979 -0.0600706 5.81669 0
M  V30 1213 N 115.955 -0.65252 5.39669 0
M  V30 1214 H 119.757 0.0960091 2.93743 0
M  V30 1215 H 117.271 0.15352 1.61673 0
M  V30 1216 H 119.268 -2.3102 3.47038 0
M  V30 1217 H 117.928 -2.29811 2.29384 0
M  V30 1218 H 118.939 0.0138439 5.17898 0
M  V30 1219 H 115.616 -2.05389 3.63486 0
M  V30 1220 H 117.006 0.588321 6.69319 0
M  V30 1221 N 119.726 -1.57421 0.075193 0
M  V30 1222 C 120.966 -1.95495 -0.596757 0
M  V30 1223 C 121.33 -0.954886 -1.66571 0
M  V30 1224 O 122.531 -1.22341 -2.39345 0
M  V30 1225 C 120.802 -3.382 -1.15566 0
M  V30 1226 S 122.361 -3.98254 -1.84226 0
M  V30 1227 H 119.179 -0.683649 -0.195307 0
M  V30 1228 H 121.781 -1.94925 0.149859 0
M  V30 1229 H 120.485 -4.08766 -0.36588 0
M  V30 1230 H 120.016 -3.42321 -1.93856 0
M  V30 1231 H 122.031 -3.85435 -3.12497 0
M  V30 1232 N 121.204 0.198386 -1.56346 0
M  V30 1233 C 122.434 0.934215 -1.84271 0
M  V30 1234 C 122.842 1.77496 -0.655125 0
M  V30 1235 O 122.185 1.7961 0.385488 0
M  V30 1236 C 122.247 1.88278 -3.06254 0
M  V30 1237 C 121.911 1.22431 -4.40295 0
M  V30 1238 C 122.908 0.602839 -5.16393 0
M  V30 1239 C 120.593 1.22915 -4.87029 0
M  V30 1240 C 122.587 -0.0050083 -6.374 0
M  V30 1241 C 120.274 0.617465 -6.07973 0
M  V30 1242 C 121.272 0.00146341 -6.83 0
M  V30 1243 O 120.96 -0.600642 -8.01653 0
M  V30 1244 H 120.692 0.278245 -0.616081 0
M  V30 1245 H 123.246 0.211626 -2.04307 0
M  V30 1246 H 121.476 2.64498 -2.82095 0
M  V30 1247 H 123.165 2.48612 -3.20853 0
M  V30 1248 H 123.931 0.591265 -4.81382 0
M  V30 1249 H 119.81 1.69801 -4.28589 0
M  V30 1250 H 123.354 -0.48643 -6.95902 0
M  V30 1251 H 119.251 0.62653 -6.42452 0
M  V30 1252 H 120.019 -0.497225 -8.16988 0
M  V30 1253 N 122.682 1.50554 0.465978 0
M  V30 1254 C 123.645 1.69233 1.54574 0
M  V30 1255 C 124.645 0.562901 1.50626 0
M  V30 1256 O 125.835 0.830016 1.53155 0
M  V30 1257 C 122.967 1.7223 2.94193 0
M  V30 1258 H 124.16 2.65571 1.39327 0
M  V30 1259 H 121.713 1.40111 0.692711 0
M  V30 1260 H 122.448 0.77603 3.14878 0
M  V30 1261 H 122.233 2.54285 2.98466 0
M  V30 1262 H 123.723 1.88618 3.72576 0
M  V30 1263 N 124.16 -0.719506 1.40217 0
M  V30 1264 C 125.09 -1.8465 1.42922 0
M  V30 1265 C 126.071 -1.67599 0.29062 0
M  V30 1266 O 127.256 -1.87688 0.498677 0
M  V30 1267 C 124.386 -3.22565 1.28722 0
M  V30 1268 C 123.34 -3.54281 2.40144 0
M  V30 1269 C 122.666 -4.91298 2.11023 0
M  V30 1270 C 123.966 -3.55676 3.82481 0
M  V30 1271 H 125.66 -1.82644 2.37237 0
M  V30 1272 H 123.206 -0.877305 1.1419 0
M  V30 1273 H 125.159 -4.01095 1.29232 0
M  V30 1274 H 123.883 -3.25137 0.308811 0
M  V30 1275 H 122.542 -2.78088 2.38877 0
M  V30 1276 H 122.19 -4.90468 1.11582 0
M  V30 1277 H 121.89 -5.13485 2.8567 0
M  V30 1278 H 123.414 -5.72166 2.13209 0
M  V30 1279 H 124.828 -4.24254 3.85592 0
M  V30 1280 H 123.225 -3.89388 4.56614 0
M  V30 1281 H 124.295 -2.55144 4.12346 0
M  V30 1282 N 125.638 -1.25649 -0.95132 0
M  V30 1283 C 126.601 -1.06399 -2.03007 0
M  V30 1284 C 127.601 -0.0156794 -1.60792 0
M  V30 1285 O 128.791 -0.25817 -1.72276 0
M  V30 1286 C 125.923 -0.616184 -3.35285 0
M  V30 1287 H 127.116 -2.02164 -2.21517 0
M  V30 1288 H 124.669 -1.08103 -1.12887 0
M  V30 1289 H 125.404 0.343917 -3.22471 0
M  V30 1290 H 125.189 -1.37301 -3.67275 0
M  V30 1291 H 126.679 -0.503032 -4.14559 0
M  V30 1292 N 127.117 1.15442 -1.07289 0
M  V30 1293 C 128.064 2.20161 -0.692653 0
M  V30 1294 C 129.034 1.63073 0.31564 0
M  V30 1295 O 130.219 1.89725 0.202235 0
M  V30 1296 C 127.359 3.44967 -0.0959509 0
M  V30 1297 C 126.472 4.16256 -1.15564 0
M  V30 1298 C 125.607 5.28609 -0.524011 0
M  V30 1299 C 124.646 5.91715 -1.56653 0
M  V30 1300 N 123.783 6.9554 -0.957531 0
M  V30 1301 H 128.623 2.52037 -1.59002 0
M  V30 1302 H 126.16 1.2378 -0.794798 0
M  V30 1303 H 128.118 4.16341 0.267628 0
M  V30 1304 H 126.748 3.1361 0.764772 0
M  V30 1305 H 125.8 3.43385 -1.6368 0
M  V30 1306 H 127.112 4.59268 -1.94613 0
M  V30 1307 H 126.266 6.06604 -0.108032 0
M  V30 1308 H 125.005 4.86787 0.29825 0
M  V30 1309 H 124.01 5.12433 -1.9923 0
M  V30 1310 H 125.235 6.35614 -2.39107 0
M  V30 1311 H 123.181 6.55814 -0.156162 0
M  V30 1312 H 123.098 7.36977 -1.68526 0
M  V30 1313 H 124.366 7.77435 -0.567032 0
M  V30 1314 N 128.595 0.856903 1.32268 0
M  V30 1315 C 129.558 0.308171 2.27119 0
M  V30 1316 C 130.558 -0.533421 1.51695 0
M  V30 1317 O 131.748 -0.344607 1.70757 0
M  V30 1318 C 128.88 -0.563757 3.36206 0
M  V30 1319 H 130.073 1.14535 2.77167 0
M  V30 1320 H 127.626 0.631421 1.42978 0
M  V30 1321 H 128.361 -1.42266 2.91429 0
M  V30 1322 H 128.146 0.0386749 3.92081 0
M  V30 1323 H 129.636 -0.940386 4.06874 0
M  V30 1324 N 130.073 -1.45103 0.615059 0
M  V30 1325 C 131.02 -2.30586 -0.0993978 0
M  V30 1326 C 131.99 -1.42544 -0.852669 0
M  V30 1327 O 133.175 -1.71465 -0.836917 0
M  V30 1328 C 130.315 -3.27572 -1.08583 0
M  V30 1329 C 129.428 -4.30717 -0.332656 0
M  V30 1330 C 128.563 -5.14807 -1.30947 0
M  V30 1331 C 127.602 -6.09673 -0.544538 0
M  V30 1332 N 126.739 -6.86517 -1.47101 0
M  V30 1333 H 131.579 -2.91144 0.635542 0
M  V30 1334 H 129.116 -1.4346 0.325206 0
M  V30 1335 H 131.074 -3.82276 -1.67095 0
M  V30 1336 H 129.704 -2.68751 -1.78809 0
M  V30 1337 H 128.756 -3.78615 0.368107 0
M  V30 1338 H 130.068 -4.98102 0.263842 0
M  V30 1339 H 129.222 -5.73948 -1.96643 0
M  V30 1340 H 127.961 -4.47458 -1.9399 0
M  V30 1341 H 126.966 -5.49656 0.126003 0
M  V30 1342 H 128.191 -6.79052 0.080947 0
M  V30 1343 H 126.137 -6.21851 -2.08895 0
M  V30 1344 H 126.054 -7.50281 -0.928137 0
M  V30 1345 H 127.322 -7.50194 -2.11731 0
M  V30 1346 N 131.551 -0.354651 -1.53558 0
M  V30 1347 C 132.799 0.237972 -2.00694 0
M  V30 1348 C 133.12 1.50173 -1.24391 0
M  V30 1349 O 132.39 1.92673 -0.354135 0
M  V30 1350 H 130.97 0.0909256 -0.741446 0
M  V30 1351 H 133.632 -0.478368 -1.88938 0
M  V30 1352 H 132.728 0.47264 -3.085 0
M  V30 1353 N 133.029 1.57378 -0.0835403 0
M  V30 1354 C 134.276 1.9393 0.58287 0
M  V30 1355 C 134.604 0.964455 1.68904 0
M  V30 1356 O 133.859 -0.0179474 1.95692 0
M  V30 1357 C 134.158 3.37063 1.1884 0
M  V30 1358 C 133.824 4.50424 0.207194 0
M  V30 1359 C 132.486 4.81159 -0.0627115 0
M  V30 1360 C 134.838 5.19136 -0.463426 0
M  V30 1361 C 132.166 5.77939 -1.01012 0
M  V30 1362 C 134.518 6.16931 -1.39924 0
M  V30 1363 C 133.182 6.46078 -1.67749 0
M  V30 1364 H 132.452 0.70964 0.213287 0
M  V30 1365 H 135.099 1.90856 -0.156916 0
M  V30 1366 H 133.404 3.3666 2.00418 0
M  V30 1367 H 135.101 3.6264 1.71153 0
M  V30 1368 H 131.691 4.2646 0.427747 0
M  V30 1369 H 135.875 4.95576 -0.268034 0
M  V30 1370 H 131.131 5.98842 -1.23283 0
M  V30 1371 H 135.305 6.69273 -1.92476 0
M  V30 1372 H 132.932 7.2088 -2.41321 0
M  V30 1373 N 134.507 -0.190092 1.56449 0
M  V30 1374 C 135.417 -1.25591 1.98152 0
M  V30 1375 C 136.433 -1.49519 0.889944 0
M  V30 1376 O 137.609 -1.62036 1.19609 0
M  V30 1377 C 134.674 -2.57916 2.3169 0
M  V30 1378 C 133.735 -2.42015 3.5458 0
M  V30 1379 C 132.968 -3.6803 3.8651 0
M  V30 1380 O 133.191 -4.72413 3.1966 0
M  V30 1381 O 132.125 -3.6326 4.79923 0
M  V30 1382 H 135.951 -0.931988 2.89046 0
M  V30 1383 H 133.536 -0.395488 1.4407 0
M  V30 1384 H 135.418 -3.36008 2.54316 0
M  V30 1385 H 134.093 -2.89925 1.43963 0
M  V30 1386 H 133 -1.62017 3.37196 0
M  V30 1387 H 134.333 -2.14937 4.4279 0
M  V30 1388 N 135.985 -1.50799 -0.457987 0
M  V30 1389 C 136.915 -1.73553 -1.5621 0
M  V30 1390 C 137.896 -0.584774 -1.59732 0
M  V30 1391 O 139.081 -0.825314 -1.7579 0
M  V30 1392 C 136.211 -1.84169 -2.94447 0
M  V30 1393 C 135.165 -2.99461 -3.0579 0
M  V30 1394 C 134.491 -2.95235 -4.45803 0
M  V30 1395 C 135.791 -4.39766 -2.81786 0
M  V30 1396 H 137.485 -2.66 -1.37421 0
M  V30 1397 H 135.031 -1.28002 -0.659662 0
M  V30 1398 H 136.984 -1.98672 -3.71628 0
M  V30 1399 H 135.708 -0.883545 -3.14422 0
M  V30 1400 H 134.367 -2.8463 -2.31044 0
M  V30 1401 H 134.015 -1.97239 -4.62715 0
M  V30 1402 H 133.715 -3.72642 -4.54326 0
M  V30 1403 H 135.239 -3.11803 -5.24987 0
M  V30 1404 H 136.653 -4.55054 -3.4871 0
M  V30 1405 H 135.05 -5.18722 -3.0174 0
M  V30 1406 H 136.12 -4.51229 -1.7754 0
M  V30 1407 N 137.463 0.71206 -1.40597 0
M  V30 1408 C 138.711 1.46907 -1.38791 0
M  V30 1409 C 139.032 1.94998 0.00780391 0
M  V30 1410 O 138.302 1.70587 0.963174 0
M  V30 1411 H 136.882 0.545043 -0.51082 0
M  V30 1412 H 139.544 0.843882 -1.75683 0
M  V30 1413 H 138.64 2.34021 -2.06496 0
M  V30 1414 N 138.941 1.26152 0.944643 0
M  V30 1415 C 139.889 1.07215 2.06417 0
M  V30 1416 C 140.883 9.2007e-05 1.694 0
M  V30 1417 O 142.089 0.1565 1.79318 0
M  V30 1418 H 138.464 0.329837 0.675805 0
M  V30 1419 H 140.435 2.02099 2.19541 0
M  V30 1420 C 139.184 0.718197 3.40202 0
M  V30 1421 H 138.507 1.53497 3.69159 0
M  V30 1422 H 139.947 0.625459 4.19361 0
M  V30 1423 C 138.406 -0.576435 3.31932 0
M  V30 1424 O 138.936 -1.61574 3.67773 0
M  V30 1425 N 137.142 -0.565781 2.85039 0
M  V30 1426 H 136.689 0.280367 2.5607 0
M  V30 1427 H 136.647 -1.43213 2.79888 0
M  V30 1428 N 140.419 -1.14872 1.07899 0
M  V30 1429 C 141.349 -2.2193 0.725887 0
M  V30 1430 C 142.33 -1.67622 -0.28927 0
M  V30 1431 O 143.515 -1.93533 -0.160787 0
M  V30 1432 C 140.645 -3.47061 0.128856 0
M  V30 1433 C 139.599 -4.14363 1.07178 0
M  V30 1434 C 138.925 -5.33636 0.337229 0
M  V30 1435 C 140.225 -4.63492 2.40775 0
M  V30 1436 H 141.919 -2.51724 1.62097 0
M  V30 1437 H 139.465 -1.20991 0.780838 0
M  V30 1438 H 141.418 -4.21199 -0.130147 0
M  V30 1439 H 140.142 -3.16617 -0.80134 0
M  V30 1440 H 138.801 -3.42173 1.3158 0
M  V30 1441 H 138.449 -4.99449 -0.596606 0
M  V30 1442 H 138.149 -5.79609 0.965788 0
M  V30 1443 H 139.673 -6.10539 0.0861567 0
M  V30 1444 H 141.087 -5.2913 2.20669 0
M  V30 1445 H 139.484 -5.20148 2.99276 0
M  V30 1446 H 140.554 -3.78834 3.02676 0
M  V30 1447 N 141.898 -0.863906 -1.31812 0
M  V30 1448 C 143.175 -0.39275 -1.91616 0
M  V30 1449 C 143.555 1.12461 -1.7865 0
M  V30 1450 O 142.903 1.95045 -1.19037 0
M  V30 1451 C 143.113 -0.867385 -3.38049 0
M  V30 1452 C 144.461 -0.889966 -4.15168 0
M  V30 1453 O 145.485 -0.812635 -3.46806 0
M  V30 1454 O 144.344 -1.00079 -5.37258 0
M  V30 1455 H 141.438 -0.116358 -0.818773 0
M  V30 1456 H 143.984 -0.951418 -1.40521 0
M  V30 1457 H 142.756 -1.91081 -3.41473 0
M  V30 1458 H 142.379 -0.286687 -3.96565 0
M  V30 1459 N 143.376 1.44774 -0.622745 0
M  V30 1460 C 144.622 2.0242 -0.124083 0
M  V30 1461 C 144.955 1.4881 1.24777 0
M  V30 1462 O 144.23 0.668799 1.8264 0
M  V30 1463 C 144.513 3.59957 -0.101619 0
M  V30 1464 C 144.366 4.23867 -1.50521 0
M  V30 1465 C 145.685 4.36284 0.578272 0
M  V30 1466 H 142.804 0.735528 -0.0465645 0
M  V30 1467 H 145.446 1.72447 -0.797617 0
M  V30 1468 H 143.596 3.85623 0.471934 0
M  V30 1469 H 145.268 4.09336 -2.12701 0
M  V30 1470 H 143.511 3.81684 -2.06154 0
M  V30 1471 H 144.182 5.32843 -1.4416 0
M  V30 1472 H 146.658 4.16001 0.0906057 0
M  V30 1473 H 145.534 5.46004 0.563149 0
M  V30 1474 H 145.795 4.10271 1.64713 0
M  V30 1475 N 144.854 0.36279 1.53368 0
M  V30 1476 C 146.082 -0.228613 2.05633 0
M  V30 1477 C 146.497 -1.42676 1.23649 0
M  V30 1478 O 145.854 -1.80394 0.27647 0
M  V30 1479 C 145.905 -0.624845 3.56059 0
M  V30 1480 O 145.626 0.525675 4.34935 0
M  V30 1481 C 147.127 -1.27493 4.24571 0
M  V30 1482 H 144.347 -0.0407183 0.669763 0
M  V30 1483 H 146.891 0.520352 1.97769 0
M  V30 1484 H 145.046 -1.32373 3.64083 0
M  V30 1485 H 145.46 0.205969 5.24095 0
M  V30 1486 H 146.934 -1.50277 5.31151 0
M  V30 1487 H 147.411 -2.23439 3.78116 0
M  V30 1488 H 148.017 -0.617558 4.20792 0
M  V30 1489 N 146.332 -1.57332 0.0918853 0
M  V30 1490 C 147.581 -1.93412 -0.572249 0
M  V30 1491 C 147.894 -0.975515 -1.69538 0
M  V30 1492 O 149.1 -1.22991 -2.42045 0
M  V30 1493 C 147.556 -3.43648 -1.0693 0
M  V30 1494 C 147.164 -4.47994 0.0239049 0
M  V30 1495 C 148.908 -3.88695 -1.70635 0
M  V30 1496 C 146.815 -5.89381 -0.488319 0
M  V30 1497 H 145.745 -0.721939 -0.217532 0
M  V30 1498 H 148.396 -1.82735 0.167369 0
M  V30 1499 H 146.778 -3.49466 -1.8625 0
M  V30 1500 H 147.952 -4.53815 0.799277 0
M  V30 1501 H 146.267 -4.12536 0.565946 0
M  V30 1502 H 148.864 -4.91725 -2.10025 0
M  V30 1503 H 149.207 -3.27166 -2.57426 0
M  V30 1504 H 149.74 -3.85564 -0.979023 0
M  V30 1505 H 146.479 -6.54602 0.342906 0
M  V30 1506 H 145.999 -5.87037 -1.23077 0
M  V30 1507 H 147.678 -6.39863 -0.958317 0
M  V30 1508 N 147.81 0.181792 -1.56548 0
M  V30 1509 C 149.059 0.898348 -1.8059 0
M  V30 1510 C 149.372 1.83862 -0.667379 0
M  V30 1511 O 150.578 2.59678 -0.792446 0
M  V30 1512 C 149.034 1.64791 -3.19956 0
M  V30 1513 C 148.642 0.751789 -4.41647 0
M  V30 1514 C 150.386 2.35331 -3.53298 0
M  V30 1515 C 148.293 1.50098 -5.72035 0
M  V30 1516 H 147.223 0.339194 -0.673397 0
M  V30 1517 H 149.874 0.151413 -1.82874 0
M  V30 1518 H 148.256 2.43921 -3.11959 0
M  V30 1519 H 149.43 -0.0018076 -4.608 0
M  V30 1520 H 147.745 0.156562 -4.16106 0
M  V30 1521 H 150.342 2.91958 -4.47956 0
M  V30 1522 H 150.685 3.10164 -2.77676 0
M  V30 1523 H 151.218 1.63154 -3.62803 0
M  V30 1524 H 147.957 0.795175 -6.50659 0
M  V30 1525 H 147.477 2.22817 -5.56878 0
M  V30 1526 H 149.156 2.05125 -6.13622 0
M  V30 1527 N 149.288 1.51039 0.449983 0
M  V30 1528 C 150.251 1.70863 1.5277 0
M  V30 1529 C 151.251 0.578846 1.5002 0
M  V30 1530 O 152.441 0.846213 1.52266 0
M  V30 1531 C 149.573 1.75341 2.9235 0
M  V30 1532 H 150.766 2.67034 1.36502 0
M  V30 1533 H 148.319 1.40838 0.677812 0
M  V30 1534 H 149.054 0.809383 3.14037 0
M  V30 1535 H 148.839 2.57436 2.95752 0
M  V30 1536 H 150.329 1.92559 3.70555 0
M  V30 1537 N 150.766 -0.704594 1.40972 0
M  V30 1538 C 151.698 -1.82974 1.38033 0
M  V30 1539 C 152.711 -1.60305 0.283931 0
M  V30 1540 O 153.9 -1.69975 0.545042 0
M  V30 1541 C 151 -3.19578 1.12795 0
M  V30 1542 C 150.173 -3.69352 2.34302 0
M  V30 1543 C 149.232 -4.84601 2.05058 0
M  V30 1544 O 148.258 -4.96682 2.7802 0
M  V30 1545 N 149.46 -5.71194 1.03528 0
M  V30 1546 H 152.225 -1.85991 2.35005 0
M  V30 1547 H 149.786 -0.886567 1.35468 0
M  V30 1548 H 151.778 -3.9429 0.911987 0
M  V30 1549 H 150.348 -3.11642 0.24452 0
M  V30 1550 H 149.568 -2.85649 2.71659 0
M  V30 1551 H 150.856 -3.99345 3.1528 0
M  V30 1552 H 150.254 -5.64054 0.431217 0
M  V30 1553 H 148.811 -6.45843 0.879205 0
M  V30 1554 N 152.244 -1.26651 -0.937939 0
M  V30 1555 C 153.207 -1.08546 -2.01867 0
M  V30 1556 C 154.207 -0.0327327 -1.60767 0
M  V30 1557 O 155.397 -0.276427 -1.71993 0
M  V30 1558 C 152.529 -0.651711 -3.34613 0
M  V30 1559 H 153.722 -2.04502 -2.1936 0
M  V30 1560 H 151.275 -1.09294 -1.11734 0
M  V30 1561 H 152.01 0.309696 -3.22818 0
M  V30 1562 H 151.795 -1.41189 -3.65798 0
M  V30 1563 H 153.285 -0.546973 -4.14002 0
M  V30 1564 N 153.722 1.14298 -1.08507 0
M  V30 1565 C 155.133 1.66926 -0.836227 0
M  V30 1566 C 155.484 1.85576 0.63686 0
M  V30 1567 O 154.609 1.56767 1.49175 0
M  V30 1568 C 155.204 3.03219 -1.51142 0
M  V30 1569 C 153.763 3.52876 -1.30979 0
M  V30 1570 C 152.91 2.2833 -1.57356 0
M  V30 1571 H 155.861 0.983491 -1.24552 0
M  V30 1572 H 155.882 3.68726 -0.939211 0
M  V30 1573 H 155.394 2.89612 -2.58353 0
M  V30 1574 H 153.495 3.71703 -0.258429 0
M  V30 1575 H 153.608 4.33586 -2.03814 0
M  V30 1576 H 151.972 2.34454 -0.995164 0
M  V30 1577 H 152.755 2.17298 -2.65775 0
M  V30 1578 N 155.201 0.870884 1.31352 0
M  V30 1579 C 156.148 0.325425 2.28494 0
M  V30 1580 C 157.118 -0.576615 1.5577 0
M  V30 1581 O 158.303 -0.508059 1.83911 0
M  V30 1582 C 155.443 -0.466283 3.41935 0
M  V30 1583 C 154.556 0.463378 4.29508 0
M  V30 1584 C 153.691 -0.342544 5.30094 0
M  V30 1585 C 152.73 0.583486 6.09313 0
M  V30 1586 N 151.867 -0.186244 7.01853 0
M  V30 1587 H 156.707 1.15901 2.74538 0
M  V30 1588 H 154.244 0.58294 1.35056 0
M  V30 1589 H 156.202 -0.941085 4.06447 0
M  V30 1590 H 154.832 -1.26456 2.97 0
M  V30 1591 H 153.884 1.05663 3.65431 0
M  V30 1592 H 155.196 1.1734 4.84802 0
M  V30 1593 H 154.35 -0.879816 6.00287 0
M  V30 1594 H 153.089 -1.08585 4.75458 0
M  V30 1595 H 152.094 1.13251 5.3801 0
M  V30 1596 H 153.319 1.32566 6.66035 0
M  V30 1597 H 151.265 -0.912348 6.49625 0
M  V30 1598 H 151.182 0.464422 7.54572 0
M  V30 1599 H 152.45 -0.704716 7.76308 0
M  V30 1600 N 156.679 -1.44442 0.630414 0
M  V30 1601 C 157.612 -2.27862 -0.124247 0
M  V30 1602 C 158.59 -1.38495 -0.851931 0
M  V30 1603 O 159.774 -1.67935 -0.856166 0
M  V30 1604 C 156.901 -3.17407 -1.18197 0
M  V30 1605 C 155.947 -4.22875 -0.554892 0
M  V30 1606 S 156.78 -5.31485 0.654489 0
M  V30 1607 C 157.936 -6.246 -0.40326 0
M  V30 1608 H 158.169 -2.91519 0.583435 0
M  V30 1609 H 155.702 -1.48618 0.418565 0
M  V30 1610 H 157.66 -3.69549 -1.78728 0
M  V30 1611 H 156.321 -2.52971 -1.86184 0
M  V30 1612 H 155.514 -4.85542 -1.35148 0
M  V30 1613 H 155.116 -3.73992 -0.0242105 0
M  V30 1614 H 157.408 -6.65375 -1.27602 0
M  V30 1615 H 158.351 -7.07851 0.187813 0
M  V30 1616 H 158.759 -5.59775 -0.728837 0
M  V30 1617 N 158.157 -0.370918 -1.53173 0
M  V30 1618 C 159.12 0.460778 -2.24521 0
M  V30 1619 C 160.12 1.00536 -1.25496 0
M  V30 1620 O 161.31 0.890266 -1.49733 0
M  V30 1621 C 158.442 1.64457 -2.98608 0
M  V30 1622 H 159.635 -0.163613 -2.99453 0
M  V30 1623 H 157.188 -0.122699 -1.55818 0
M  V30 1624 H 157.923 2.30691 -2.2793 0
M  V30 1625 H 157.708 1.26099 -3.7127 0
M  V30 1626 H 159.198 2.23384 -3.5283 0
M  V30 1627 N 159.635 1.57281 -0.100228 0
M  V30 1628 C 161.046 1.81725 0.428107 0
M  V30 1629 C 161.397 1.01619 1.67833 0
M  V30 1630 O 160.522 0.247098 2.14985 0
M  V30 1631 C 161.117 3.29617 0.78347 0
M  V30 1632 C 159.676 3.54808 1.25653 0
M  V30 1633 C 158.823 2.76118 0.255752 0
M  V30 1634 H 161.774 1.55324 -0.325608 0
M  V30 1635 H 161.795 3.4322 1.64256 0
M  V30 1636 H 161.307 3.87893 -0.12665 0
M  V30 1637 H 159.408 3.01868 2.18418 0
M  V30 1638 H 159.521 4.63443 1.21482 0
M  V30 1639 H 157.885 2.43745 0.738956 0
M  V30 1640 H 158.668 3.37145 -0.647136 0
M  V30 1641 N 161.113 -0.173488 1.56642 0
M  V30 1642 C 162.063 -1.21941 1.92651 0
M  V30 1643 C 163.047 -1.39912 0.794577 0
M  V30 1644 O 164.239 -1.41919 1.05773 0
M  V30 1645 C 161.368 -2.55935 2.28806 0
M  V30 1646 C 160.454 -2.41667 3.48508 0
M  V30 1647 N 160.845 -1.9711 4.65813 0
M  V30 1648 C 159.143 -2.72499 3.53072 0
M  V30 1649 C 159.844 -1.95253 5.47952 0
M  V30 1650 N 158.82 -2.37575 4.88937 0
M  V30 1651 H 162.622 -0.866581 2.80834 0
M  V30 1652 H 160.136 -0.381776 1.57849 0
M  V30 1653 H 162.133 -3.31511 2.52797 0
M  V30 1654 H 160.793 -2.92022 1.41961 0
M  V30 1655 H 161.804 -1.67481 4.90072 0
M  V30 1656 H 158.481 -3.12639 2.767 0
M  V30 1657 H 159.871 -1.6252 6.51948 0
M  V30 1658 N 162.591 -1.51276 -0.441967 0
M  V30 1659 C 163.84 -1.6295 -1.18871 0
M  V30 1660 C 164.153 -0.349312 -1.92456 0
M  V30 1661 O 165.359 -0.345355 -2.69295 0
M  V30 1662 C 163.815 -2.87759 -2.16155 0
M  V30 1663 C 163.423 -4.22764 -1.48239 0
M  V30 1664 C 165.167 -3.08788 -2.91291 0
M  V30 1665 C 163.074 -5.38728 -2.4398 0
M  V30 1666 H 162.004 -0.606913 -0.447406 0
M  V30 1667 H 164.655 -1.77739 -0.456205 0
M  V30 1668 H 163.037 -2.66593 -2.92821 0
M  V30 1669 H 164.211 -4.54293 -0.771635 0
M  V30 1670 H 162.526 -4.07575 -0.852741 0
M  V30 1671 H 165.123 -3.92599 -3.63002 0
M  V30 1672 H 165.466 -2.21679 -3.5237 0
M  V30 1673 H 165.999 -3.30272 -2.21733 0
M  V30 1674 H 162.738 -6.28082 -1.87598 0
M  V30 1675 H 162.258 -5.1158 -3.13123 0
M  V30 1676 H 163.937 -5.70489 -3.05207 0
M  V30 1677 N 164.069 0.697108 -1.41344 0
M  V30 1678 C 164.979 1.84088 -1.45427 0
M  V30 1679 C 165.995 1.70545 -0.34501 0
M  V30 1680 O 167.171 1.92488 -0.592492 0
M  V30 1681 C 164.236 3.20056 -1.33286 0
M  V30 1682 C 163.297 3.45718 -2.54514 0
M  V30 1683 C 162.53 4.75199 -2.42944 0
M  V30 1684 O 162.753 5.51579 -1.45318 0
M  V30 1685 O 161.687 5.0161 -3.32672 0
M  V30 1686 H 165.513 1.836 -2.41919 0
M  V30 1687 H 163.098 0.849966 -1.22866 0
M  V30 1688 H 164.98 4.01236 -1.28794 0
M  V30 1689 H 163.655 3.2123 -0.39909 0
M  V30 1690 H 162.562 2.64474 -2.64583 0
M  V30 1691 H 163.895 3.49356 -3.46715 0
M  V30 1692 N 165.547 1.27147 0.931209 0
M  V30 1693 C 166.824 1.0401 1.65654 0
M  V30 1694 C 167.204 -0.426297 2.06751 0
M  V30 1695 O 166.552 -1.40879 1.79904 0
M  V30 1696 C 166.762 1.99834 2.86125 0
M  V30 1697 C 168.11 2.29007 3.57549 0
M  V30 1698 O 169.134 1.97779 2.96246 0
M  V30 1699 O 167.993 2.82222 4.67989 0
M  V30 1700 H 165.087 0.396239 0.725895 0
M  V30 1701 H 167.633 1.38397 0.982056 0
M  V30 1702 H 166.405 2.98744 2.52721 0
M  V30 1703 H 166.028 1.65987 3.61295 0
M  V30 1704 N 167.025 -1.13721 1.09112 0
M  V30 1705 C 167.958 -2.18094 0.67158 0
M  V30 1706 C 168.936 -1.59414 -0.320299 0
M  V30 1707 O 170.12 -1.87183 -0.222444 0
M  V30 1708 C 167.247 -3.38698 -0.0111189 0
M  V30 1709 C 166.293 -4.15966 0.942055 0
M  V30 1710 S 167.126 -4.7604 2.45246 0
M  V30 1711 C 168.282 -5.99994 1.78208 0
M  V30 1712 H 168.515 -2.53344 1.55577 0
M  V30 1713 H 166.048 -1.24967 0.906789 0
M  V30 1714 H 168.006 -4.08559 -0.398716 0
M  V30 1715 H 166.667 -3.01756 -0.871905 0
M  V30 1716 H 165.86 -5.02318 0.411396 0
M  V30 1717 H 165.462 -3.51745 1.2709 0
M  V30 1718 H 167.754 -6.68441 1.10424 0
M  V30 1719 H 168.697 -6.57662 2.62463 0
M  V30 1720 H 169.105 -5.50432 1.25238 0
M  V30 1721 N 168.503 -0.877838 -1.30888 0
M  V30 1722 C 169.919 -0.570844 -1.49042 0
M  V30 1723 C 170.119 0.893159 -1.80624 0
M  V30 1724 O 169.175 1.67485 -1.88958 0
M  V30 1725 C 170.488 -1.47784 -2.61878 0
M  V30 1726 C 172.036 -1.48071 -2.75761 0
M  V30 1727 C 172.511 -2.37347 -3.91702 0
M  V30 1728 N 174.002 -2.35271 -3.99001 0
M  V30 1729 C 174.737 -3.01063 -4.88004 0
M  V30 1730 N 174.233 -3.76055 -5.81854 0
M  V30 1731 N 176.026 -2.90332 -4.81315 0
M  V30 1732 H 168.177 -1.82502 -1.0866 0
M  V30 1733 H 170.44 -0.780797 -0.537644 0
M  V30 1734 H 170.146 -2.51993 -2.45341 0
M  V30 1735 H 170.02 -1.18215 -3.58197 0
M  V30 1736 H 172.407 -0.446166 -2.91708 0
M  V30 1737 H 172.488 -1.81668 -1.80085 0
M  V30 1738 H 172.132 -3.40883 -3.76512 0
M  V30 1739 H 172.062 -2.01071 -4.86701 0
M  V30 1740 H 174.553 -1.80768 -3.3186 0
M  V30 1741 H 174.866 -4.23366 -6.46514 0
M  V30 1742 H 173.211 -3.80163 -5.81808 0
M  V30 1743 H 176.402 -2.31278 -4.06974 0
M  V30 1744 H 176.575 -3.41885 -5.50471 0
M  V30 1745 N 169.982 1.44106 -0.638065 0
M  V30 1746 C 170.914 2.28976 0.101205 0
M  V30 1747 C 171.927 1.4167 0.802088 0
M  V30 1748 O 173.116 1.65755 0.662375 0
M  V30 1749 C 170.216 3.18217 1.16581 0
M  V30 1750 C 169.389 4.33978 0.546066 0
M  V30 1751 C 168.448 5.04202 1.50554 0
M  V30 1752 O 167.474 5.59986 1.01999 0
M  V30 1753 N 168.676 5.06296 2.8398 0
M  V30 1754 H 171.441 2.93064 -0.627186 0
M  V30 1755 H 169.002 1.54629 -0.479731 0
M  V30 1756 H 170.994 3.62061 1.80815 0
M  V30 1757 H 169.564 2.55833 1.79634 0
M  V30 1758 H 168.784 3.93239 -0.275046 0
M  V30 1759 H 170.072 5.08675 0.112793 0
M  V30 1760 H 169.47 4.62319 3.26002 0
M  V30 1761 H 168.027 5.53907 3.43556 0
M  V30 1762 N 171.46 0.379036 1.52974 0
M  V30 1763 C 172.706 -0.206727 2.01744 0
M  V30 1764 C 173.039 -1.47314 1.26539 0
M  V30 1765 O 172.314 -1.91084 0.362903 0
M  V30 1766 C 172.597 -0.485066 3.56818 0
M  V30 1767 C 172.45 0.795919 4.42702 0
M  V30 1768 C 173.769 -1.28003 4.21074 0
M  V30 1769 H 170.888 -0.0736607 0.73331 0
M  V30 1770 H 173.53 0.506581 1.83122 0
M  V30 1771 H 171.68 -1.09272 3.72816 0
M  V30 1772 H 173.352 1.43307 4.38476 0
M  V30 1773 H 171.595 1.41344 4.10127 0
M  V30 1774 H 172.266 0.555947 5.49193 0
M  V30 1775 H 174.742 -0.765867 4.08991 0
M  V30 1776 H 173.618 -1.44352 5.29579 0
M  V30 1777 H 173.879 -2.29236 3.78026 0
M  V30 1778 N 172.938 -1.57226 0.108567 0
M  V30 1779 C 173.868 -2.17778 -0.84232 0
M  V30 1780 C 174.849 -1.11487 -1.2847 0
M  V30 1781 O 176.034 -1.39681 -1.34918 0
M  V30 1782 C 173.164 -2.76888 -2.09644 0
M  V30 1783 C 172.118 -3.88669 -1.79221 0
M  V30 1784 C 171.444 -4.34541 -3.11574 0
M  V30 1785 C 172.744 -5.11251 -1.06864 0
M  V30 1786 H 174.438 -2.97489 -0.337774 0
M  V30 1787 H 171.984 -1.43097 -0.161025 0
M  V30 1788 H 173.937 -3.17904 -2.76614 0
M  V30 1789 H 172.661 -1.94451 -2.62405 0
M  V30 1790 H 171.32 -3.48213 -1.14644 0
M  V30 1791 H 170.968 -3.48977 -3.62249 0
M  V30 1792 H 170.668 -5.09914 -2.91996 0
M  V30 1793 H 172.192 -4.782 -3.7968 0
M  V30 1794 H 173.606 -5.49352 -1.63968 0
M  V30 1795 H 172.003 -5.9214 -0.974178 0
M  V30 1796 H 173.073 -4.8487 -0.0536168 0
M  V30 1797 N 174.416 0.165178 -1.56732 0
M  V30 1798 C 175.379 1.18822 -1.95995 0
M  V30 1799 C 176.379 1.3685 -0.84431 0
M  V30 1800 O 177.569 1.34152 -1.11126 0
M  V30 1801 C 174.701 2.5521 -2.26011 0
M  V30 1802 H 175.894 0.851825 -2.87548 0
M  V30 1803 H 173.447 0.407857 -1.50885 0
M  V30 1804 H 174.182 2.93852 -1.37191 0
M  V30 1805 H 173.967 2.43489 -3.07336 0
M  V30 1806 H 175.457 3.28927 -2.57288 0
M  V30 1807 N 175.894 1.51508 0.433938 0
M  V30 1808 C 176.857 1.72473 1.50949 0
M  V30 1809 C 177.857 0.594725 1.49398 0
M  V30 1810 O 179.047 0.862315 1.5136 0
M  V30 1811 C 176.179 1.78431 2.90474 0
M  V30 1812 H 177.372 2.68467 1.33662 0
M  V30 1813 H 174.925 1.41549 0.662836 0
M  V30 1814 H 175.66 0.842645 3.13161 0
M  V30 1815 H 175.445 2.60558 2.93005 0
M  V30 1816 H 176.935 1.96479 3.68491 0
M  V30 1817 N 177.372 -0.689602 1.41712 0
M  V30 1818 C 178.649 -1.44457 1.31877 0
M  V30 1819 C 179.029 -2.11039 -0.0508537 0
M  V30 1820 O 178.377 -2.02138 -1.06547 0
M  V30 1821 C 178.587 -2.45913 2.47645 0
M  V30 1822 C 179.935 -3.10991 2.89084 0
M  V30 1823 O 180.959 -2.56238 2.47428 0
M  V30 1824 O 179.818 -4.10174 3.61137 0
M  V30 1825 H 176.912 -0.64362 0.519309 0
M  V30 1826 H 179.458 -0.719576 1.53689 0
M  V30 1827 H 178.23 -1.95409 3.39015 0
M  V30 1828 H 177.853 -3.25913 2.27742 0
M  V30 1829 N 178.85 -1.27639 -0.924453 0
M  V30 1830 C 179.78 -1.13166 -2.04244 0
M  V30 1831 C 180.761 -0.032256 -1.70069 0
M  V30 1832 O 181.946 -0.207328 -1.9309 0
M  V30 1833 C 179.076 -0.781496 -3.38393 0
M  V30 1834 C 178.03 -1.83449 -3.86692 0
M  V30 1835 C 177.356 -1.33822 -5.17683 0
M  V30 1836 C 178.656 -3.23917 -4.09726 0
M  V30 1837 H 180.35 -2.06689 -2.1661 0
M  V30 1838 H 177.896 -0.995136 -1.04082 0
M  V30 1839 H 179.849 -0.667057 -4.16087 0
M  V30 1840 H 178.573 0.189439 -3.2605 0
M  V30 1841 H 177.232 -1.93789 -3.11193 0
M  V30 1842 H 176.88 -0.35665 -5.01734 0
M  V30 1843 H 176.58 -2.04224 -5.50968 0
M  V30 1844 H 178.104 -1.23679 -5.97943 0
M  V30 1845 H 179.518 -3.16559 -4.77978 0
M  V30 1846 H 177.915 -3.92059 -4.54324 0
M  V30 1847 H 178.985 -3.68729 -3.14908 0
M  V30 1848 N 180.328 1.1314 -1.09713 0
M  V30 1849 C 181.276 2.20717 -0.733934 0
M  V30 1850 C 182.27 1.6729 0.266506 0
M  V30 1851 O 183.476 1.79547 0.127656 0
M  V30 1852 H 179.851 0.719292 -0.21937 0
M  V30 1853 H 181.822 2.48611 -1.6503 0
M  V30 1854 C 180.571 3.47265 -0.173849 0
M  V30 1855 H 179.894 3.88716 -0.934873 0
M  V30 1856 H 181.334 4.23979 0.0423126 0
M  V30 1857 C 179.793 3.18724 1.09164 0
M  V30 1858 O 180.323 3.37762 2.17439 0
M  V30 1859 N 178.529 2.72583 1.00732 0
M  V30 1860 H 178.076 2.57291 0.126121 0
M  V30 1861 H 178.034 2.53862 1.85476 0
M  V30 1862 N 181.806 0.884767 1.30421 0
M  V30 1863 C 182.769 0.356277 2.26414 0
M  V30 1864 C 183.769 -0.501124 1.52792 0
M  V30 1865 O 184.959 -0.30831 1.7145 0
M  V30 1866 C 182.091 -0.492316 3.37326 0
M  V30 1867 H 183.284 1.20389 2.74675 0
M  V30 1868 H 180.837 0.661607 1.41607 0
M  V30 1869 H 181.572 -1.36052 2.94381 0
M  V30 1870 H 181.357 0.121832 3.91911 0
M  V30 1871 H 182.847 -0.853871 4.08777 0
M  V30 1872 N 183.284 -1.43765 0.645699 0
M  V30 1873 C 184.561 -1.9541 0.0862963 0
M  V30 1874 C 184.941 -1.58725 -1.39175 0
M  V30 1875 O 184.289 -0.868581 -2.11348 0
M  V30 1876 C 184.499 -3.47488 0.324565 0
M  V30 1877 C 185.847 -4.24001 0.225497 0
M  V30 1878 O 186.871 -3.55274 0.256715 0
M  V30 1879 O 185.73 -5.46313 0.142801 0
M  V30 1880 H 182.824 -0.826882 -0.0139483 0
M  V30 1881 H 185.37 -1.53743 0.718415 0
M  V30 1882 H 184.142 -3.67289 1.3496 0
M  V30 1883 H 183.765 -3.96135 -0.340987 0
M  V30 1884 N 184.763 -0.387143 -1.52771 0
M  V30 1885 C 186.009 0.196025 -2.0185 0
M  V30 1886 C 186.342 1.46641 -1.27319 0
M  V30 1887 O 185.617 1.90889 -0.373032 0
M  V30 1888 C 185.9 0.466136 -3.5707 0
M  V30 1889 C 185.753 -0.819385 -4.42274 0
M  V30 1890 C 187.072 1.25768 -4.21747 0
M  V30 1891 H 184.191 0.0697708 -0.73369 0
M  V30 1892 H 186.833 -0.516286 -1.82851 0
M  V30 1893 H 184.983 1.07293 -3.7339 0
M  V30 1894 H 186.655 -1.4563 -4.37709 0
M  V30 1895 H 184.898 -1.43517 -4.09372 0
M  V30 1896 H 185.569 -0.585065 -5.48891 0
M  V30 1897 H 188.045 0.744167 -4.09391 0
M  V30 1898 H 186.921 1.41541 -5.30337 0
M  V30 1899 H 187.182 2.27228 -3.79236 0
M  V30 1900 N 186.241 1.57166 -0.116904 0
M  V30 1901 C 187.204 2.14039 0.819742 0
M  V30 1902 C 188.204 1.07477 1.19605 0
M  V30 1903 O 189.394 1.33263 1.1219 0
M  V30 1904 C 186.526 2.67891 2.10826 0
M  V30 1905 H 187.719 2.98128 0.325511 0
M  V30 1906 H 185.272 1.55739 0.132312 0
M  V30 1907 H 186.007 1.87384 2.64685 0
M  V30 1908 H 185.792 3.45823 1.84793 0
M  V30 1909 H 187.282 3.11809 2.77785 0
M  V30 1910 N 187.719 -0.156864 1.56817 0
M  V30 1911 C 188.996 -0.899244 1.73704 0
M  V30 1912 C 189.376 -1.99771 0.682254 0
M  V30 1913 O 188.724 -2.26515 -0.300522 0
M  V30 1914 C 188.934 -1.45075 3.17418 0
M  V30 1915 C 190.282 -1.91802 3.7881 0
M  V30 1916 O 191.306 -1.54838 3.20786 0
M  V30 1917 O 190.165 -2.5994 4.80722 0
M  V30 1918 H 187.259 -0.424267 0.709878 0
M  V30 1919 H 189.805 -0.143561 1.69092 0
M  V30 1920 H 188.577 -0.660846 3.85679 0
M  V30 1921 H 188.2 -2.27021 3.26416 0
M  V30 1922 N 189.197 -1.51736 -0.425897 0
M  V30 1923 C 190.446 -1.64201 -1.17136 0
M  V30 1924 C 190.759 -0.369705 -1.92074 0
M  V30 1925 O 191.965 -0.373898 -2.68913 0
M  V30 1926 C 190.421 -2.90035 -2.13091 0
M  V30 1927 C 190.029 -4.24312 -1.43747 0
M  V30 1928 C 191.773 -3.1186 -2.87999 0
M  V30 1929 C 189.68 -5.41285 -2.38253 0
M  V30 1930 H 188.61 -0.611624 -0.440944 0
M  V30 1931 H 191.261 -1.78212 -0.437328 0
M  V30 1932 H 189.643 -2.69684 -2.89977 0
M  V30 1933 H 190.817 -4.55086 -0.723408 0
M  V30 1934 H 189.132 -4.08456 -0.809465 0
M  V30 1935 H 191.729 -3.96427 -3.58817 0
M  V30 1936 H 192.072 -2.25403 -3.49999 0
M  V30 1937 H 192.605 -3.32605 -2.18217 0
M  V30 1938 H 189.344 -6.30037 -1.80925 0
M  V30 1939 H 188.864 -5.14872 -3.0768 0
M  V30 1940 H 190.543 -5.73694 -2.99139 0
M  V30 1941 N 190.675 0.682077 -1.42076 0
M  V30 1942 C 191.623 1.81707 -1.45208 0
M  V30 1943 C 192.617 1.66183 -0.328591 0
M  V30 1944 O 193.823 1.7288 -0.501264 0
M  V30 1945 H 190.198 0.599014 -0.454628 0
M  V30 1946 H 192.169 1.76183 -2.40836 0
M  V30 1947 C 190.918 3.19816 -1.36428 0
M  V30 1948 H 190.241 3.32385 -2.22171 0
M  V30 1949 H 191.681 3.99272 -1.42681 0
M  V30 1950 C 190.14 3.36809 -0.078191 0
M  V30 1951 O 190.67 3.92124 0.87188 0
M  V30 1952 N 188.876 2.906 0.00229266 0
M  V30 1953 H 188.423 2.45772 -0.771616 0
M  V30 1954 H 188.381 3.02347 0.862179 0
M  V30 1955 N 192.153 1.28127 0.917671 0
M  V30 1956 C 193.399 1.15223 1.66888 0
M  V30 1957 C 193.732 -0.299293 1.9188 0
M  V30 1958 O 193.007 -1.21805 1.51637 0
M  V30 1959 C 193.29 1.94706 3.02922 0
M  V30 1960 C 193.143 3.47898 2.85109 0
M  V30 1961 C 194.462 1.75939 4.03402 0
M  V30 1962 H 191.581 0.419946 0.605652 0
M  V30 1963 H 194.223 1.57398 1.06423 0
M  V30 1964 H 192.373 1.58864 3.54534 0
M  V30 1965 H 194.045 3.93624 2.40537 0
M  V30 1966 H 192.288 3.7373 2.20246 0
M  V30 1967 H 192.959 3.98765 3.81694 0
M  V30 1968 H 195.435 2.07209 3.60837 0
M  V30 1969 H 194.311 2.33931 4.96556 0
M  V30 1970 H 194.572 0.709877 4.36364 0
M  V30 1971 N 193.631 -1.12557 1.10312 0
M  V30 1972 C 194.578 -2.18247 0.750781 0
M  V30 1973 C 195.548 -1.63853 -0.272293 0
M  V30 1974 O 196.733 -1.90195 -0.151862 0
M  V30 1975 C 193.873 -3.44591 0.187379 0
M  V30 1976 C 192.986 -4.13046 1.2656 0
M  V30 1977 C 192.121 -5.27034 0.663978 0
M  V30 1978 C 191.16 -5.87353 1.72287 0
M  V30 1979 N 190.297 -6.92757 1.1416 0
M  V30 1980 H 195.137 -2.47732 1.65628 0
M  V30 1981 H 192.674 -1.21629 0.827337 0
M  V30 1982 H 194.632 -4.16904 -0.157148 0
M  V30 1983 H 193.262 -3.15527 -0.681355 0
M  V30 1984 H 192.314 -3.38924 1.72727 0
M  V30 1985 H 193.626 -4.53947 2.06721 0
M  V30 1986 H 192.78 -6.06104 0.268824 0
M  V30 1987 H 191.519 -4.87407 -0.169082 0
M  V30 1988 H 190.524 -5.06971 2.12746 0
M  V30 1989 H 191.749 -6.29051 2.55875 0
M  V30 1990 H 189.695 -6.5517 0.329984 0
M  V30 1991 H 189.612 -7.3225 1.88007 0
M  V30 1992 H 190.88 -7.75658 0.772956 0
M  V30 1993 N 195.109 -0.891671 -1.2995 0
M  V30 1994 C 196.072 -0.36828 -2.26222 0
M  V30 1995 C 197.072 0.493014 -1.53056 0
M  V30 1996 O 198.262 0.299213 -1.71611 0
M  V30 1997 C 195.394 0.47442 -3.37583 0
M  V30 1998 H 196.587 -1.21844 -2.74033 0
M  V30 1999 H 194.14 -0.669107 -1.41254 0
M  V30 2000 H 194.875 1.34489 -2.95099 0
M  V30 2001 H 194.66 -0.142615 -3.91841 0
M  V30 2002 H 196.15 0.83218 -4.09224 0
M  V30 2003 N 196.587 1.43421 -0.653314 0
M  V30 2004 C 197.815 2.06163 -0.174491 0
M  V30 2005 C 198.23 1.48969 1.1599 0
M  V30 2006 O 197.587 0.621042 1.71608 0
M  V30 2007 C 197.638 3.61417 -0.0774865 0
M  V30 2008 O 197.359 4.16485 -1.35912 0
M  V30 2009 C 198.86 4.41235 0.427402 0
M  V30 2010 H 196.08 0.664946 -0.0899353 0
M  V30 2011 H 198.624 1.83924 -0.893988 0
M  V30 2012 H 196.779 3.82841 0.59257 0
M  V30 2013 H 197.193 5.10153 -1.21839 0
M  V30 2014 H 198.667 5.5021 0.44423 0
M  V30 2015 H 199.144 4.14268 1.45873 0
M  V30 2016 H 199.75 4.2478 -0.210167 0
M  V30 2017 N 198.065 0.39524 1.52563 0
M  V30 2018 C 199.293 -0.184943 2.06072 0
M  V30 2019 C 199.708 -1.40021 1.26647 0
M  V30 2020 O 199.065 -1.79767 0.314672 0
M  V30 2021 C 199.116 -0.549179 3.57304 0
M  V30 2022 O 198.837 0.617813 4.33722 0
M  V30 2023 C 200.338 -1.18459 4.2718 0
M  V30 2024 H 197.558 -0.0265025 0.670476 0
M  V30 2025 H 200.102 0.562184 1.96621 0
M  V30 2026 H 198.257 -1.2462 3.66809 0
M  V30 2027 H 198.671 0.317091 5.23541 0
M  V30 2028 H 200.145 -1.38976 5.34219 0
M  V30 2029 H 200.622 -2.15368 3.82771 0
M  V30 2030 H 201.228 -0.528163 4.22008 0
M  V30 2031 N 199.544 -1.57102 0.125237 0
M  V30 2032 C 200.772 -1.99761 -0.538797 0
M  V30 2033 C 201.187 -1.00503 -1.59827 0
M  V30 2034 O 200.544 0.00119474 -1.825 0
M  V30 2035 C 200.595 -3.42408 -1.15927 0
M  V30 2036 O 200.316 -4.37869 -0.142143 0
M  V30 2037 C 201.817 -4.00232 -1.90602 0
M  V30 2038 H 199.037 -0.655772 -0.14214 0
M  V30 2039 H 201.581 -2.03383 0.213413 0
M  V30 2040 H 199.736 -3.39706 -1.86223 0
M  V30 2041 H 200.15 -5.21128 -0.593775 0
M  V30 2042 H 201.624 -5.02105 -2.29335 0
M  V30 2043 H 202.101 -3.39721 -2.78363 0
M  V30 2044 H 202.707 -4.06499 -1.25055 0
M  V30 2045 N 201.022 0.148545 -1.56898 0
M  V30 2046 C 201.932 1.20293 -2.01412 0
M  V30 2047 C 202.948 1.47107 -0.929273 0
M  V30 2048 O 204.124 1.58807 -1.23863 0
M  V30 2049 C 201.189 2.51682 -2.38447 0
M  V30 2050 C 200.25 2.32529 -3.60872 0
M  V30 2051 C 199.483 3.57653 -3.96132 0
M  V30 2052 O 199.706 4.63771 -3.32073 0
M  V30 2053 O 198.64 3.50408 -4.89385 0
M  V30 2054 H 202.466 0.855025 -2.91416 0
M  V30 2055 H 200.051 0.357151 -1.45068 0
M  V30 2056 H 201.933 3.29147 -2.63135 0
M  V30 2057 H 200.608 2.86006 -1.51599 0
M  V30 2058 H 199.515 1.53019 -3.41373 0
M  V30 2059 H 200.848 2.03121 -4.48333 0
M  V30 2060 N 202.5 1.5196 0.417844 0
M  V30 2061 C 203.447 1.74678 1.50852 0
M  V30 2062 C 204.417 0.588947 1.55308 0
M  V30 2063 O 205.602 0.825544 1.72016 0
M  V30 2064 C 202.742 1.89544 2.88387 0
M  V30 2065 C 201.855 3.17166 2.93309 0
M  V30 2066 C 200.99 3.22513 4.22088 0
M  V30 2067 C 200.029 4.44372 4.20951 0
M  V30 2068 N 199.166 4.47161 5.41287 0
M  V30 2069 H 204.006 2.67768 1.30783 0
M  V30 2070 H 201.543 1.32689 0.63498 0
M  V30 2071 H 203.501 1.96146 3.68216 0
M  V30 2072 H 202.131 0.998424 3.06971 0
M  V30 2073 H 201.183 3.19778 2.06024 0
M  V30 2074 H 202.495 4.07021 2.88332 0
M  V30 2075 H 201.649 3.28139 5.10303 0
M  V30 2076 H 200.388 2.30581 4.29748 0
M  V30 2077 H 199.393 4.38902 3.31127 0
M  V30 2078 H 200.618 5.3759 4.14938 0
M  V30 2079 H 198.564 3.58108 5.49632 0
M  V30 2080 H 198.481 5.3085 5.3827 0
M  V30 2081 H 199.749 4.57005 6.3148 0
M  V30 2082 N 203.978 -0.674533 1.42435 0
M  V30 2083 C 204.908 -1.80009 1.48724 0
M  V30 2084 C 205.889 -1.6659 0.343793 0
M  V30 2085 O 207.074 -1.86007 0.558137 0
M  V30 2086 C 204.204 -3.18306 1.38919 0
M  V30 2087 C 203.158 -3.46461 2.51294 0
M  V30 2088 C 202.484 -4.84335 2.26547 0
M  V30 2089 C 203.784 -3.43328 3.93603 0
M  V30 2090 H 205.478 -1.75004 2.42928 0
M  V30 2091 H 203.024 -0.840533 1.16923 0
M  V30 2092 H 204.977 -3.9678 1.41927 0
M  V30 2093 H 203.701 -3.2399 0.412094 0
M  V30 2094 H 202.36 -2.70348 2.47604 0
M  V30 2095 H 202.008 -4.86669 1.2713 0
M  V30 2096 H 201.708 -5.04136 3.01861 0
M  V30 2097 H 203.232 -5.65094 2.31304 0
M  V30 2098 H 204.646 -4.11772 3.98894 0
M  V30 2099 H 203.043 -3.74664 4.68771 0
M  V30 2100 H 204.113 -2.41897 4.20255 0
M  V30 2101 N 205.456 -1.28612 -0.910864 0
M  V30 2102 C 206.704 -1.15705 -1.65701 0
M  V30 2103 C 207.025 0.29416 -1.92769 0
M  V30 2104 O 206.295 1.20331 -1.54588 0
M  V30 2105 H 204.875 -0.425216 -0.614167 0
M  V30 2106 H 207.537 -1.61381 -1.0928 0
M  V30 2107 H 206.633 -1.6988 -2.61815 0
M  V30 2108 N 206.934 1.1197 -1.10907 0
M  V30 2109 C 208.181 1.83588 -0.854507 0
M  V30 2110 C 208.509 1.84357 0.6199 0
M  V30 2111 O 207.764 1.28809 1.47332 0
M  V30 2112 C 208.063 3.30749 -1.35425 0
M  V30 2113 C 207.729 3.50146 -2.84093 0
M  V30 2114 C 206.391 3.55148 -3.2469 0
M  V30 2115 C 208.743 3.56857 -3.79872 0
M  V30 2116 C 206.071 3.6441 -4.59806 0
M  V30 2117 C 208.423 3.6765 -5.14797 0
M  V30 2118 C 207.087 3.7091 -5.54961 0
M  V30 2119 H 206.357 0.671795 -0.312686 0
M  V30 2120 H 209.004 1.32091 -1.38652 0
M  V30 2121 H 207.309 3.84703 -0.742361 0
M  V30 2122 H 209.006 3.8464 -1.1337 0
M  V30 2123 H 205.596 3.46919 -2.51685 0
M  V30 2124 H 209.78 3.52258 -3.49611 0
M  V30 2125 H 205.036 3.65208 -4.9034 0
M  V30 2126 H 209.21 3.71786 -5.88853 0
M  V30 2127 H 206.837 3.7784 -6.59652 0
M  V30 2128 N 208.412 0.89855 1.29475 0
M  V30 2129 C 209.64 0.539261 1.99749 0
M  V30 2130 C 210.055 -0.875716 1.67262 0
M  V30 2131 O 209.412 -1.57786 0.917049 0
M  V30 2132 C 209.463 0.72061 3.54245 0
M  V30 2133 O 209.184 2.07989 3.8558 0
M  V30 2134 C 210.685 0.366118 4.41786 0
M  V30 2135 H 207.905 0.207047 0.638258 0
M  V30 2136 H 210.449 1.20758 1.65039 0
M  V30 2137 H 208.604 0.0994862 3.87272 0
M  V30 2138 H 209.018 2.10841 4.80257 0
M  V30 2139 H 210.492 0.543848 5.49314 0
M  V30 2140 H 210.969 -0.696763 4.33638 0
M  V30 2141 H 211.575 0.964135 4.14228 0
M  V30 2142 N 209.89 -1.43072 0.660911 0
M  V30 2143 C 211.138 -2.01323 0.177094 0
M  V30 2144 C 211.459 -1.5245 -1.2159 0
M  V30 2145 O 210.729 -0.740322 -1.81373 0
M  V30 2146 H 209.309 -0.744382 0.0624804 0
M  V30 2147 H 211.971 -1.75179 0.854305 0
M  V30 2148 H 211.067 -3.11649 0.167641 0
M  V30 2149 N 211.368 -0.403325 -1.52352 0
M  V30 2150 C 212.784 -0.0539281 -1.59509 0
M  V30 2151 C 212.984 1.43307 -1.41652 0
M  V30 2152 O 212.04 2.19924 -1.24056 0
M  V30 2153 C 213.353 -0.543654 -2.95745 0
M  V30 2154 C 214.901 -0.501125 -3.08962 0
M  V30 2155 C 215.376 -0.967267 -4.47669 0
M  V30 2156 N 216.867 -0.923849 -4.53893 0
M  V30 2157 C 217.602 -1.25578 -5.5948 0
M  V30 2158 N 217.098 -1.65889 -6.72646 0
M  V30 2159 N 218.891 -1.17613 -5.49658 0
M  V30 2160 H 211.042 -1.37123 -1.62206 0
M  V30 2161 H 213.305 -0.56294 -0.76276 0
M  V30 2162 H 213.011 -1.58275 -3.14073 0
M  V30 2163 H 212.885 0.0498042 -3.77167 0
M  V30 2164 H 215.272 0.528909 -2.90321 0
M  V30 2165 H 215.353 -1.13056 -2.2946 0
M  V30 2166 H 214.997 -1.9956 -4.67053 0
M  V30 2167 H 214.927 -0.314698 -5.25659 0
M  V30 2168 H 217.418 -0.627403 -3.72655 0
M  V30 2169 H 217.731 -1.89543 -7.49195 0
M  V30 2170 H 216.076 -1.69787 -6.73942 0
M  V30 2171 H 219.267 -0.860115 -4.6013 0
M  V30 2172 H 219.44 -1.43812 -6.3184 0
M  V30 2173 N 212.846 1.57033 -0.133567 0
M  V30 2174 C 213.793 2.16074 0.811208 0
M  V30 2175 C 214.763 1.08979 1.2535 0
M  V30 2176 O 215.948 1.36958 1.32843 0
M  V30 2177 C 213.088 2.77595 2.05024 0
M  V30 2178 C 212.201 3.99042 1.65498 0
M  V30 2179 C 211.336 4.48603 2.84479 0
M  V30 2180 C 210.375 5.62547 2.41262 0
M  V30 2181 N 209.512 6.06787 3.53206 0
M  V30 2182 H 214.352 2.96477 0.300906 0
M  V30 2183 H 211.889 1.46462 0.136822 0
M  V30 2184 H 213.847 3.11402 2.77642 0
M  V30 2185 H 212.477 1.99859 2.53488 0
M  V30 2186 H 211.529 3.71302 0.826981 0
M  V30 2187 H 212.841 4.81629 1.29748 0
M  V30 2188 H 211.995 4.84395 3.65303 0
M  V30 2189 H 210.734 3.64995 3.23465 0
M  V30 2190 H 209.739 5.26345 1.58874 0
M  V30 2191 H 210.964 6.47931 2.03377 0
M  V30 2192 H 208.91 5.26117 3.91838 0
M  V30 2193 H 208.827 6.84266 3.21427 0
M  V30 2194 H 210.095 6.4722 4.34427 0
M  V30 2195 N 214.325 -0.140222 1.56975 0
M  V30 2196 C 215.235 -1.19223 2.02047 0
M  V30 2197 C 216.251 -1.46612 0.937062 0
M  V30 2198 O 217.427 -1.58148 1.24704 0
M  V30 2199 C 214.492 -2.50414 2.39778 0
M  V30 2200 C 213.553 -2.30612 3.621 0
M  V30 2201 C 212.786 -3.55547 3.98023 0
M  V30 2202 O 213.009 -4.62004 3.34528 0
M  V30 2203 O 211.943 -3.47808 4.91237 0
M  V30 2204 H 215.769 -0.839559 2.91865 0
M  V30 2205 H 213.354 -0.349453 1.45256 0
M  V30 2206 H 215.236 -3.27747 2.64877 0
M  V30 2207 H 213.911 -2.85198 1.53114 0
M  V30 2208 H 212.818 -1.51207 3.4218 0
M  V30 2209 H 214.151 -2.00741 4.49404 0
M  V30 2210 N 215.803 -1.52179 -0.40978 0
M  V30 2211 C 217.051 -1.65878 -1.15451 0
M  V30 2212 C 217.372 -0.390771 -1.91044 0
M  V30 2213 O 216.642 0.594323 -1.86667 0
M  V30 2214 H 215.222 -0.611405 -0.429177 0
M  V30 2215 H 217.884 -1.89219 -0.467134 0
M  V30 2216 H 216.98 -2.49954 -1.86894 0
M  V30 2217 N 217.281 0.66697 -1.42791 0
M  V30 2218 C 218.53 1.42278 -1.42968 0
M  V30 2219 C 218.843 1.9553 -0.0524489 0
M  V30 2220 O 220.049 2.71414 0.068363 0
M  V30 2221 C 218.505 2.57418 -2.51524 0
M  V30 2222 C 218.113 2.10832 -3.9529 0
M  V30 2223 C 219.857 3.34878 -2.60877 0
M  V30 2224 C 217.764 3.23101 -4.95338 0
M  V30 2225 H 216.694 0.534533 -0.531781 0
M  V30 2226 H 219.345 0.721302 -1.68729 0
M  V30 2227 H 217.727 3.29971 -2.18941 0
M  V30 2228 H 218.901 1.4538 -4.37266 0
M  V30 2229 H 217.216 1.46289 -3.89857 0
M  V30 2230 H 219.813 4.18505 -3.32802 0
M  V30 2231 H 220.156 3.81993 -1.6549 0
M  V30 2232 H 220.689 2.69398 -2.92693 0
M  V30 2233 H 217.428 2.80969 -5.9223 0
M  V30 2234 H 216.948 3.87309 -4.57987 0
M  V30 2235 H 218.627 3.88447 -5.17415 0
M  V30 2236 N 218.759 1.29093 0.90403 0
M  V30 2237 C 219.722 1.1386 1.98919 0
M  V30 2238 C 220.722 0.0753457 1.60623 0
M  V30 2239 O 221.912 0.321931 1.71199 0
M  V30 2240 C 219.044 0.740198 3.32767 0
M  V30 2241 H 220.237 2.10246 2.13861 0
M  V30 2242 H 217.79 1.12218 1.08797 0
M  V30 2243 H 218.525 -0.223997 3.23525 0
M  V30 2244 H 218.31 1.50838 3.61926 0
M  V30 2245 H 219.8 0.656546 4.12407 0
M  V30 2246 N 220.237 -1.11381 1.11499 0
M  V30 2247 C 221.483 -1.83403 0.865512 0
M  V30 2248 C 221.816 -1.84459 -0.607329 0
M  V30 2249 O 221.091 -1.29811 -1.44842 0
M  V30 2250 C 221.374 -3.30552 1.42855 0
M  V30 2251 C 221.227 -3.37886 2.96906 0
M  V30 2252 C 222.546 -4.26643 1.08 0
M  V30 2253 H 219.665 -0.665879 0.31587 0
M  V30 2254 H 222.307 -1.30601 1.37998 0
M  V30 2255 H 220.457 -3.75648 0.990985 0
M  V30 2256 H 222.129 -3.01343 3.49271 0
M  V30 2257 H 220.372 -2.78088 3.32941 0
M  V30 2258 H 221.043 -4.41458 3.31389 0
M  V30 2259 H 223.519 -3.89729 1.45775 0
M  V30 2260 H 222.395 -5.27986 1.50072 0
M  V30 2261 H 222.656 -4.42099 -0.00915037 0
M  V30 2262 N 221.715 -0.905404 -1.28997 0
M  V30 2263 C 222.625 -0.392246 -2.31298 0
M  V30 2264 C 223.641 0.515889 -1.66176 0
M  V30 2265 O 224.817 0.404093 -1.97304 0
M  V30 2266 C 221.882 0.36686 -3.44754 0
M  V30 2267 C 220.943 -0.573485 -4.25452 0
M  V30 2268 C 220.176 0.149488 -5.33491 0
M  V30 2269 O 220.399 1.37255 -5.5364 0
M  V30 2270 O 219.333 -0.510919 -5.99728 0
M  V30 2271 H 223.159 -1.2411 -2.77183 0
M  V30 2272 H 220.744 -0.669926 -1.33538 0
M  V30 2273 H 222.626 0.795907 -4.13816 0
M  V30 2274 H 221.301 1.19169 -3.00966 0
M  V30 2275 H 220.208 -1.05176 -3.59011 0
M  V30 2276 H 221.541 -1.36489 -4.72897 0
M  V30 2277 N 223.193 1.4272 -0.668489 0
M  V30 2278 C 224.156 2.292 0.00448567 0
M  V30 2279 C 225.156 1.43001 0.735339 0
M  V30 2280 O 226.346 1.64461 0.57429 0
M  V30 2281 C 223.478 3.25375 1.01705 0
M  V30 2282 H 224.671 2.90199 -0.756608 0
M  V30 2283 H 222.224 1.50254 -0.430506 0
M  V30 2284 H 222.959 2.69301 1.80686 0
M  V30 2285 H 222.744 3.88944 0.496463 0
M  V30 2286 H 224.234 3.90245 1.48655 0
M  V30 2287 N 224.671 0.411399 1.52136 0
M  V30 2288 C 225.917 -0.163888 2.02137 0
M  V30 2289 C 226.25 -1.44597 1.29636 0
M  V30 2290 O 225.525 -1.90272 0.403353 0
M  V30 2291 C 225.808 -0.40927 3.57767 0
M  V30 2292 C 225.661 0.889643 4.40914 0
M  V30 2293 C 226.98 -1.19042 4.23694 0
M  V30 2294 H 224.099 -0.0580896 0.734707 0
M  V30 2295 H 226.741 0.54531 1.82007 0
M  V30 2296 H 224.891 -1.0134 3.7505 0
M  V30 2297 H 226.563 1.52575 4.35337 0
M  V30 2298 H 224.806 1.50011 4.07037 0
M  V30 2299 H 225.477 0.672314 5.4789 0
M  V30 2300 H 227.953 -0.678942 4.10524 0
M  V30 2301 H 226.829 -1.33086 5.32522 0
M  V30 2302 H 227.09 -2.21166 3.82803 0
M  V30 2303 N 226.149 -1.5696 0.141893 0
M  V30 2304 C 227.395 -1.9625 -0.511248 0
M  V30 2305 C 227.728 -1.02654 -1.64851 0
M  V30 2306 O 227.003 -0.0679676 -1.94381 0
M  V30 2307 C 227.286 -3.45285 -1.02227 0
M  V30 2308 C 227.139 -4.49658 0.113138 0
M  V30 2309 C 228.458 -3.96698 -1.90574 0
M  V30 2310 H 225.577 -0.713567 -0.184367 0
M  V30 2311 H 228.219 -1.88698 0.222087 0
M  V30 2312 H 226.369 -3.51852 -1.64719 0
M  V30 2313 H 228.041 -4.55174 0.749302 0
M  V30 2314 H 226.284 -4.26857 0.773026 0
M  V30 2315 H 226.955 -5.51258 -0.286053 0
M  V30 2316 H 229.431 -3.92578 -1.37918 0
M  V30 2317 H 228.307 -5.01453 -2.2324 0
M  V30 2318 H 228.568 -3.3875 -2.84079 0
M  V30 2319 N 227.627 0.131896 -1.57047 0
M  V30 2320 C 228.557 1.16384 -2.02428 0
M  V30 2321 C 229.538 1.43936 -0.90644 0
M  V30 2322 O 230.723 1.54599 -1.17528 0
M  V30 2323 C 227.853 2.49328 -2.4177 0
M  V30 2324 C 226.807 2.36266 -3.56879 0
M  V30 2325 C 226.133 3.74057 -3.8208 0
M  V30 2326 C 227.433 1.834 -4.89042 0
M  V30 2327 H 229.127 0.786433 -2.88887 0
M  V30 2328 H 226.673 0.376855 -1.38981 0
M  V30 2329 H 228.626 3.21759 -2.7212 0
M  V30 2330 H 227.35 2.88934 -1.52266 0
M  V30 2331 H 226.009 1.66286 -3.26718 0
M  V30 2332 H 225.657 4.11125 -2.89803 0
M  V30 2333 H 225.357 3.66174 -4.59554 0
M  V30 2334 H 226.881 4.48012 -4.1487 0
M  V30 2335 H 228.295 2.45636 -5.18011 0
M  V30 2336 H 226.692 1.8637 -5.70426 0
M  V30 2337 H 227.762 0.790662 -4.7841 0
M  V30 2338 N 229.106 1.52395 0.401703 0
M  V30 2339 C 230.036 1.79231 1.49661 0
M  V30 2340 C 231.017 0.643654 1.57452 0
M  V30 2341 O 232.202 0.889989 1.72606 0
M  V30 2342 C 229.332 1.94971 2.87409 0
M  V30 2343 C 228.286 3.10604 2.94465 0
M  V30 2344 C 227.612 3.11577 4.34538 0
M  V30 2345 C 228.912 4.49921 2.6527 0
M  V30 2346 H 230.606 2.70917 1.27454 0
M  V30 2347 H 228.152 1.30362 0.6117 0
M  V30 2348 H 230.105 2.12328 3.63999 0
M  V30 2349 H 228.829 0.999632 3.10926 0
M  V30 2350 H 227.488 2.93009 2.20321 0
M  V30 2351 H 227.136 2.14277 4.55076 0
M  V30 2352 H 226.836 3.89247 4.40183 0
M  V30 2353 H 228.36 3.31073 5.13053 0
M  V30 2354 H 229.774 4.67683 3.31581 0
M  V30 2355 H 228.171 5.29564 2.82281 0
M  V30 2356 H 229.241 4.57507 1.60671 0
M  V30 2357 N 230.584 -0.659388 1.43143 0
M  V30 2358 C 231.809 -1.45221 1.48073 0
M  V30 2359 C 232.234 -1.87845 0.097995 0
M  V30 2360 O 231.592 -1.56985 -0.90694 0
M  V30 2361 C 231.64 -2.66748 2.42647 0
M  V30 2362 O 230.744 -3.65583 1.90848 0
M  V30 2363 H 230.085 -0.435669 0.501088 0
M  V30 2364 H 232.615 -0.807432 1.87994 0
M  V30 2365 H 232.625 -3.14637 2.59745 0
M  V30 2366 H 231.3 -2.35067 3.43098 0
M  V30 2367 H 229.877 -3.24693 1.83381 0
M  V30 2368 N 232.062 -1.29571 -0.897171 0
M  V30 2369 C 233.478 -1.07637 -1.17841 0
M  V30 2370 C 233.678 0.170713 -2.00776 0
M  V30 2371 O 232.734 0.867768 -2.3712 0
M  V30 2372 C 234.047 -2.3332 -1.8969 0
M  V30 2373 C 235.595 -2.38664 -2.02505 0
M  V30 2374 C 236.07 -3.64157 -2.77765 0
M  V30 2375 N 237.561 -3.64894 -2.85318 0
M  V30 2376 C 238.296 -4.58679 -3.44094 0
M  V30 2377 N 237.792 -5.62799 -4.04017 0
M  V30 2378 N 239.585 -4.46245 -3.41793 0
M  V30 2379 H 231.736 -2.09598 -0.343883 0
M  V30 2380 H 233.999 -0.923333 -0.214848 0
M  V30 2381 H 233.705 -3.24262 -1.36187 0
M  V30 2382 H 233.579 -2.41025 -2.9015 0
M  V30 2383 H 235.966 -1.48208 -2.55183 0
M  V30 2384 H 236.047 -2.34943 -1.01171 0
M  V30 2385 H 235.691 -4.54965 -2.25763 0
M  V30 2386 H 235.621 -3.65137 -3.7945 0
M  V30 2387 H 238.112 -2.89613 -2.42761 0
M  V30 2388 H 238.425 -6.3048 -4.46895 0
M  V30 2389 H 236.77 -5.66605 -4.02472 0
M  V30 2390 H 239.961 -3.64094 -2.94199 0
M  V30 2391 H 240.134 -5.19518 -3.87304 0
M  V30 2392 N 233.54 1.10788 -1.12088 0
M  V30 2393 C 234.472 2.16816 -0.743213 0
M  V30 2394 C 235.485 1.6119 0.228412 0
M  V30 2395 O 236.674 1.78497 0.0102931 0
M  V30 2396 C 233.774 3.38809 -0.0787313 0
M  V30 2397 C 232.947 4.23885 -1.0789 0
M  V30 2398 C 232.006 5.24334 -0.442713 0
M  V30 2399 O 231.032 5.58497 -1.09864 0
M  V30 2400 N 232.234 5.75079 0.791457 0
M  V30 2401 H 234.999 2.49825 -1.65552 0
M  V30 2402 H 232.56 1.26373 -1.012 0
M  V30 2403 H 234.552 4.03107 0.358766 0
M  V30 2404 H 233.122 3.03805 0.736275 0
M  V30 2405 H 232.342 3.55939 -1.69414 0
M  V30 2406 H 233.63 4.77562 -1.75533 0
M  V30 2407 H 233.028 5.49517 1.3434 0
M  V30 2408 H 231.585 6.4118 1.17183 0
M  V30 2409 O 235.057 1.04415 1.23206 0
M  V30 2410 H 235.748 0.716727 1.79952 0
M  V30 END ATOM
M  V30 BEGIN BOND
M  V30 END BOND
M  V30 END CTAB
M  END
$$$$
