drugbank_target|P00781 Subtilisin DY (DB06886)
 OpenBabel12092120383D

  0  0  0     0  0            999 V3000
M  V30 BEGIN CTAB
M  V30 COUNTS 3843 3874 0 0 0
M  V30 BEGIN ATOM
M  V30 1 H -0.908 1.98254 -0.117106 0
M  V30 2 N 0 1.576 0 0
M  V30 3 C 0.963 2.07369 0.976253 0
M  V30 4 C 1.963 0.98309 1.27248 0
M  V30 5 O 3.153 1.24574 1.21766 0
M  V30 6 C 0.285 2.51514 2.30116 0
M  V30 7 H 1.478 2.94892 0.545759 0
M  V30 8 H -0.969 1.54328 0.247471 0
M  V30 9 H -0.234 1.67234 2.77855 0
M  V30 10 H -0.449 3.31163 2.09937 0
M  V30 11 H 1.041 2.90345 3.00149 0
M  V30 12 N 1.4781 -0.272755 1.55222 0
M  V30 13 C 2.4101 -1.35946 1.8453 0
M  V30 14 C 3.4231 -1.45525 0.729818 0
M  V30 15 O 4.6121 -1.47337 1.00767 0
M  V30 16 C 1.7121 -2.74069 1.99347 0
M  V30 17 C 0.8851 -2.87079 3.30007 0
M  V30 18 C -0.0559 -4.05879 3.34886 0
M  V30 19 O -1.0299 -3.96626 4.08261 0
M  V30 20 N 0.1721 -5.17857 2.62307 0
M  V30 21 H 2.9371 -1.11149 2.78327 0
M  V30 22 H 0.4981 -0.462869 1.55142 0
M  V30 23 H 2.4901 -3.51838 1.99981 0
M  V30 24 H 1.0601 -2.91688 1.12415 0
M  V30 25 H 0.2801 -1.96193 3.41909 0
M  V30 26 H 1.5681 -2.92701 4.16177 0
M  V30 27 H 0.9661 -5.28261 2.02377 0
M  V30 28 H -0.4769 -5.93855 2.68663 0
M  V30 29 N 2.9562 -1.48159 -0.537278 0
M  V30 30 C 4.1842 -1.59454 -1.31841 0
M  V30 31 C 4.5992 -0.252065 -1.8711 0
M  V30 32 O 3.9562 0.757621 -1.66031 0
M  V30 33 C 4.0072 -2.63546 -2.47439 0
M  V30 34 O 3.7282 -3.92583 -1.94449 0
M  V30 35 C 5.2292 -2.85212 -3.39366 0
M  V30 36 H 2.4492 -0.53785 -0.401196 0
M  V30 37 H 4.9932 -1.93932 -0.648891 0
M  V30 38 H 3.1482 -2.31946 -3.1029 0
M  V30 39 H 3.5622 -4.49629 -2.70063 0
M  V30 40 H 5.0362 -3.61863 -4.16844 0
M  V30 41 H 5.5132 -1.93765 -3.94147 0
M  V30 42 H 6.1192 -3.18086 -2.82314 0
M  V30 43 N 4.4343 0.785586 -1.36625 0
M  V30 44 C 5.6803 1.54591 -1.31261 0
M  V30 45 C 6.0133 1.93906 0.106823 0
M  V30 46 O 5.2883 1.63007 1.06108 0
M  V30 47 C 5.5713 2.82038 -2.23889 0
M  V30 48 C 5.4243 2.49066 -3.74548 0
M  V30 49 C 6.7433 3.83887 -2.15217 0
M  V30 50 H 3.8623 0.560846 -0.478143 0
M  V30 51 H 6.5043 0.902278 -1.67209 0
M  V30 52 H 4.6543 3.36961 -1.93363 0
M  V30 53 H 6.3263 2.00164 -4.15611 0
M  V30 54 H 4.5693 1.81954 -3.93796 0
M  V30 55 H 5.2403 3.40109 -4.34776 0
M  V30 56 H 7.7163 3.38421 -2.42096 0
M  V30 57 H 6.5923 4.70806 -2.82193 0
M  V30 58 H 6.8533 4.27131 -1.14068 0
M  V30 59 N 5.9124 1.20967 1.01018 0
M  V30 60 C 7.3234 1.02319 1.56165 0
M  V30 61 C 7.6744 -0.418546 1.91684 0
M  V30 62 O 6.7994 -1.30096 1.72928 0
M  V30 63 C 7.3944 1.85109 2.8376 0
M  V30 64 C 5.9534 1.70809 3.35412 0
M  V30 65 C 5.1004 1.82643 2.08655 0
M  V30 66 H 8.0514 1.35065 0.833255 0
M  V30 67 H 8.0724 1.35827 3.55431 0
M  V30 68 H 7.5844 2.90035 2.57878 0
M  V30 69 H 5.6854 0.685464 3.66241 0
M  V30 70 H 5.7984 2.52467 4.07182 0
M  V30 71 H 4.1624 1.25896 2.21409 0
M  V30 72 H 4.9454 2.89066 1.85191 0
M  V30 73 N 7.3905 -1.2043 1.01659 0
M  V30 74 C 8.6205 -1.93496 0.724081 0
M  V30 75 C 9.0285 -1.74998 -0.71918 0
M  V30 76 O 8.3715 -1.06118 -1.49949 0
M  V30 77 C 8.4335 -3.45886 0.97994 0
M  V30 78 C 8.0975 -3.88145 2.41232 0
M  V30 79 C 9.0945 -3.93907 3.39313 0
M  V30 80 C 6.7795 -4.20134 2.75305 0
M  V30 81 C 8.7735 -4.31069 4.6953 0
M  V30 82 C 6.4605 -4.56971 4.05735 0
M  V30 83 C 7.4585 -4.62411 5.02658 0
M  V30 84 O 7.1465 -4.98403 6.30754 0
M  V30 85 H 6.8785 -0.621824 0.265162 0
M  V30 86 H 9.4325 -1.53867 1.36066 0
M  V30 87 H 7.6625 -3.85639 0.286198 0
M  V30 88 H 9.3515 -4.0018 0.679021 0
M  V30 89 H 10.1175 -3.69357 3.14325 0
M  V30 90 H 5.9965 -4.1509 2.00551 0
M  V30 91 H 9.5405 -4.3523 5.45179 0
M  V30 92 H 5.4375 -4.80977 4.30502 0
M  V30 93 H 6.2055 -5.16395 6.35042 0
M  V30 94 N 8.8686 -0.792821 -1.36206 0
M  V30 95 C 10.1166 -0.366062 -1.98757 0
M  V30 96 C 10.4376 1.0668 -1.63231 0
M  V30 97 O 9.7076 1.73587 -0.907978 0
M  V30 98 H 8.2876 -0.132364 -0.735179 0
M  V30 99 H 10.9496 -1.01562 -1.66347 0
M  V30 100 H 10.0456 -0.460638 -3.08682 0
M  V30 101 N 10.3467 1.47872 -0.545128 0
M  V30 102 C 11.5957 2.01695 -0.0145033 0
M  V30 103 C 11.9087 1.42609 1.33873 0
M  V30 104 O 13.1147 1.88021 1.95858 0
M  V30 105 C 11.5707 3.59892 0.0245068 0
M  V30 106 C 11.1787 4.27966 -1.32475 0
M  V30 107 C 12.9227 4.21507 0.50316 0
M  V30 108 C 10.8297 5.78136 -1.2455 0
M  V30 109 H 9.7597 0.753998 -0.00165172 0
M  V30 110 H 12.4107 1.69985 -0.691175 0
M  V30 111 H 10.7927 3.88509 0.766575 0
M  V30 112 H 11.9667 4.11003 -2.08357 0
M  V30 113 H 10.2817 3.78286 -1.74036 0
M  V30 114 H 12.8787 5.31538 0.580656 0
M  V30 115 H 13.2217 3.87855 1.51243 0
M  V30 116 H 13.7547 3.97376 -0.183681 0
M  V30 117 H 10.4937 6.16388 -2.23039 0
M  V30 118 H 10.0137 5.97469 -0.528282 0
M  V30 119 H 11.6927 6.40099 -0.942488 0
M  V30 120 N 11.8248 0.280983 1.55075 0
M  V30 121 C 13.2358 -0.215629 1.85451 0
M  V30 122 C 13.5868 -1.54991 1.203 0
M  V30 123 O 12.7118 -2.10699 0.493435 0
M  V30 124 C 13.3068 -0.398026 3.36454 0
M  V30 125 C 11.8658 -0.838866 3.66933 0
M  V30 126 C 11.0128 0.064458 2.77225 0
M  V30 127 H 13.9638 0.502601 1.50531 0
M  V30 128 H 13.9848 -1.23569 3.59876 0
M  V30 129 H 13.4968 0.573241 3.83843 0
M  V30 130 H 11.5978 -1.8214 3.25048 0
M  V30 131 H 11.7108 -0.672123 4.74362 0
M  V30 132 H 10.0748 -0.452863 2.50642 0
M  V30 133 H 10.8578 1.03172 3.2743 0
M  V30 134 N 13.3029 -1.57598 0.00835791 0
M  V30 135 C 14.2329 -2.1198 -0.979113 0
M  V30 136 C 15.2139 -1.03091 -1.35301 0
M  V30 137 O 16.3989 -1.30818 -1.43528 0
M  V30 138 C 13.5289 -2.62995 -2.26828 0
M  V30 139 C 12.4829 -3.76485 -2.03576 0
M  V30 140 C 11.8089 -4.13846 -3.38579 0
M  V30 141 C 13.1089 -5.0342 -1.39161 0
M  V30 142 H 14.8029 -2.94738 -0.526281 0
M  V30 143 H 12.3489 -1.41783 -0.251704 0
M  V30 144 H 14.3019 -2.99669 -2.96271 0
M  V30 145 H 13.0259 -1.7737 -2.7424 0
M  V30 146 H 11.6849 -3.40217 -1.36557 0
M  V30 147 H 11.3329 -3.25232 -3.83709 0
M  V30 148 H 11.0329 -4.90312 -3.23834 0
M  V30 149 H 12.5569 -4.53086 -4.09323 0
M  V30 150 H 13.9709 -5.37812 -1.98573 0
M  V30 151 H 12.3679 -5.84746 -1.34878 0
M  V30 152 H 13.4379 -4.83548 -0.361868 0
M  V30 153 N 14.781 0.264519 -1.55364 0
M  V30 154 C 16.03 0.992812 -1.75574 0
M  V30 155 C 16.343 1.87142 -0.568979 0
M  V30 156 O 17.549 2.63513 -0.653682 0
M  V30 157 C 16.005 1.81519 -3.10771 0
M  V30 158 C 15.613 0.984839 -4.37041 0
M  V30 159 C 17.357 2.53727 -3.40327 0
M  V30 160 C 15.264 1.80209 -5.63275 0
M  V30 161 H 14.194 0.374412 -0.65447 0
M  V30 162 H 16.845 0.248138 -1.81815 0
M  V30 163 H 15.227 2.60115 -2.98591 0
M  V30 164 H 16.401 0.242455 -4.60162 0
M  V30 165 H 14.716 0.37691 -4.14691 0
M  V30 166 H 17.313 3.15292 -4.3185 0
M  V30 167 H 17.656 3.24447 -2.60845 0
M  V30 168 H 18.189 1.82156 -3.53644 0
M  V30 169 H 14.928 1.13896 -6.45529 0
M  V30 170 H 14.448 2.52022 -5.44284 0
M  V30 171 H 16.127 2.37364 -6.01887 0
M  V30 172 N 16.2591 1.48442 0.529413 0
M  V30 173 C 17.2061 1.63007 1.63394 0
M  V30 174 C 18.1761 0.47212 1.59249 0
M  V30 175 O 19.3611 0.695673 1.77666 0
M  V30 176 C 16.5011 1.6763 3.01653 0
M  V30 177 C 15.6141 2.94535 3.16027 0
M  V30 178 C 14.7491 2.90316 4.44849 0
M  V30 179 C 13.7881 4.11923 4.52754 0
M  V30 180 N 12.9251 4.05777 5.72965 0
M  V30 181 H 17.7651 2.5733 1.50285 0
M  V30 182 H 15.3021 1.27613 0.731656 0
M  V30 183 H 17.2601 1.68292 3.81751 0
M  V30 184 H 15.8901 0.76797 3.13532 0
M  V30 185 H 14.9421 3.03615 2.29177 0
M  V30 186 H 16.2541 3.84512 3.17729 0
M  V30 187 H 15.4081 2.89382 5.33238 0
M  V30 188 H 14.1471 1.98068 4.45668 0
M  V30 189 H 13.1521 4.13131 3.62771 0
M  V30 190 H 14.3771 5.0533 4.53672 0
M  V30 191 H 12.3231 3.16351 5.74681 0
M  V30 192 H 12.2401 4.8946 5.76164 0
M  V30 193 H 13.5081 4.08904 6.6364 0
M  V30 194 N 17.7372 -0.778329 1.37039 0
M  V30 195 C 18.7002 -1.87301 1.32102 0
M  V30 196 C 19.7002 -1.59198 0.226405 0
M  V30 197 O 20.8902 -1.67403 0.481861 0
M  V30 198 C 18.0222 -3.24309 1.05055 0
M  V30 199 H 19.2152 -1.93093 2.29467 0
M  V30 200 H 16.7682 -0.977358 1.21973 0
M  V30 201 H 17.5032 -3.24196 0.0819373 0
M  V30 202 H 17.2882 -3.46098 1.84279 0
M  V30 203 H 18.7782 -4.04382 1.04234 0
M  V30 204 N 19.2153 -1.21501 -1.00376 0
M  V30 205 C 20.4923 -0.941745 -1.71437 0
M  V30 206 C 20.8723 0.546114 -2.03914 0
M  V30 207 O 20.2203 1.51128 -1.71384 0
M  V30 208 C 20.4303 -1.82812 -2.97289 0
M  V30 209 C 21.7783 -2.07771 -3.70292 0
M  V30 210 O 22.8023 -1.80171 -3.07273 0
M  V30 211 O 21.6613 -2.54456 -4.83647 0
M  V30 212 H 18.7553 -0.353243 -0.747762 0
M  V30 213 H 21.3013 -1.32436 -1.06108 0
M  V30 214 H 20.0733 -2.83501 -2.69709 0
M  V30 215 H 19.6963 -1.4464 -3.70358 0
M  V30 216 N 20.6934 1.19889 -1.02296 0
M  V30 217 C 21.6404 2.22901 -0.598651 0
M  V30 218 C 22.6104 1.61588 0.384521 0
M  V30 219 O 23.7954 1.88697 0.282522 0
M  V30 220 C 20.9354 3.45063 0.0504476 0
M  V30 221 C 20.0484 4.20783 -0.978053 0
M  V30 222 C 19.1834 5.30356 -0.299338 0
M  V30 223 C 18.2224 5.97826 -1.31416 0
M  V30 224 N 17.3594 6.98975 -0.661667 0
M  V30 225 H 22.1994 2.58554 -1.48169 0
M  V30 226 H 19.7364 1.27039 -0.741584 0
M  V30 227 H 21.6944 4.14831 0.443971 0
M  V30 228 H 20.3244 3.10084 0.897097 0
M  V30 229 H 19.3764 3.50018 -1.48969 0
M  V30 230 H 20.6884 4.67109 -1.74958 0
M  V30 231 H 19.8424 6.06516 0.149347 0
M  V30 232 H 18.5814 4.85084 0.504445 0
M  V30 233 H 17.5864 5.20422 -1.77317 0
M  V30 234 H 18.8114 6.45183 -2.11933 0
M  V30 235 H 16.7574 6.55886 0.122132 0
M  V30 236 H 16.6744 7.43461 -1.37117 0
M  V30 237 H 17.9424 7.7914 -0.236785 0
M  V30 238 N 22.1715 0.800033 1.35784 0
M  V30 239 C 23.4175 0.377901 1.99248 0
M  V30 240 C 23.7505 -1.05052 1.63333 0
M  V30 241 O 23.0255 -1.72768 0.893385 0
M  V30 242 C 23.3085 0.553922 3.55814 0
M  V30 243 C 23.1615 2.0268 4.01548 0
M  V30 244 C 24.4805 -0.0244802 4.40093 0
M  V30 245 H 21.5995 0.138782 0.723815 0
M  V30 246 H 24.2415 1.00835 1.61035 0
M  V30 247 H 22.3915 0.0172398 3.88496 0
M  V30 248 H 24.0635 2.62536 3.79305 0
M  V30 249 H 22.3065 2.5256 3.52698 0
M  V30 250 H 22.9775 2.10087 5.10458 0
M  V30 251 H 25.4535 0.433775 4.13833 0
M  V30 252 H 24.3295 0.128637 5.48749 0
M  V30 253 H 24.5905 -1.11758 4.27741 0
M  V30 254 N 23.6496 -1.47581 0.552962 0
M  V30 255 C 24.5816 -2.27997 -0.234533 0
M  V30 256 C 25.5946 -1.36753 -0.883321 0
M  V30 257 O 26.7836 -1.61612 -0.757889 0
M  V30 258 C 23.8836 -3.10879 -1.34935 0
M  V30 259 C 23.0566 -4.30056 -0.798158 0
M  V30 260 C 22.1156 -4.94567 -1.79694 0
M  V30 261 O 21.1416 -5.53087 -1.34474 0
M  V30 262 N 22.3436 -4.88878 -3.13015 0
M  V30 263 H 25.1086 -2.96222 0.455255 0
M  V30 264 H 22.6696 -1.57163 0.388761 0
M  V30 265 H 24.6616 -3.50903 -2.01616 0
M  V30 266 H 23.2316 -2.44924 -1.94244 0
M  V30 267 H 22.4516 -3.94174 0.0453079 0
M  V30 268 H 23.7396 -5.07152 -0.409173 0
M  V30 269 H 23.1376 -4.42526 -3.52402 0
M  V30 270 H 21.6946 -5.32934 -3.75266 0
M  V30 271 N 25.1277 -0.289203 -1.54924 0
M  V30 272 C 26.0907 0.579144 -2.21762 0
M  V30 273 C 27.0907 1.07047 -1.1999 0
M  V30 274 O 28.2807 0.968384 -1.44803 0
M  V30 275 C 25.4127 1.80055 -2.8947 0
M  V30 276 H 26.6057 -0.00464908 -2.999 0
M  V30 277 H 24.1587 -0.0399306 -1.56249 0
M  V30 278 H 24.8937 2.42449 -2.15381 0
M  V30 279 H 24.6787 1.45602 -3.64064 0
M  V30 280 H 26.1687 2.41773 -3.40493 0
M  V30 281 N 26.6058 1.57591 -0.0167156 0
M  V30 282 C 27.5378 2.06343 0.997753 0
M  V30 283 C 28.5508 0.984469 1.29661 0
M  V30 284 O 29.7398 1.26093 1.26344 0
M  V30 285 C 26.8398 2.46255 2.32834 0
M  V30 286 C 26.0128 3.77083 2.21646 0
M  V30 287 C 25.0718 4.0368 3.37534 0
M  V30 288 O 24.0978 4.7411 3.14973 0
M  V30 289 N 25.2998 3.52881 4.60929 0
M  V30 290 H 28.0648 2.93997 0.581875 0
M  V30 291 H 25.6258 1.61002 0.170316 0
M  V30 292 H 27.6178 2.61149 3.09166 0
M  V30 293 H 26.1878 1.64032 2.66106 0
M  V30 294 H 25.4078 3.72106 1.30119 0
M  V30 295 H 26.6958 4.62822 2.11361 0
M  V30 296 H 26.0938 2.95878 4.82154 0
M  V30 297 H 24.6508 3.73076 5.34469 0
M  V30 298 N 28.0839 -0.256276 1.55502 0
M  V30 299 C 29.3319 -0.983672 1.76545 0
M  V30 300 C 29.6529 -1.86206 0.578982 0
M  V30 301 O 28.9229 -1.91656 -0.405577 0
M  V30 302 H 27.5029 -0.366191 0.651086 0
M  V30 303 H 30.1649 -0.276479 1.92929 0
M  V30 304 H 29.2609 -1.61087 2.67315 0
M  V30 305 N 29.562 -1.4872 -0.521534 0
M  V30 306 C 30.792 -1.6061 -1.29954 0
M  V30 307 C 31.2 -0.268728 -1.87282 0
M  V30 308 O 30.543 0.753221 -1.67548 0
M  V30 309 C 30.605 -2.60013 -2.48261 0
M  V30 310 C 30.269 -4.04874 -2.11957 0
M  V30 311 C 31.266 -4.92304 -1.67132 0
M  V30 312 C 28.951 -4.5047 -2.22221 0
M  V30 313 C 30.945 -6.2336 -1.33047 0
M  V30 314 C 28.632 -5.81544 -1.87748 0
M  V30 315 C 29.63 -6.67812 -1.43234 0
M  V30 316 O 29.318 -7.96446 -1.09217 0
M  V30 317 H 29.05 -0.544116 -0.401141 0
M  V30 318 H 31.604 -1.95339 -0.634958 0
M  V30 319 H 29.834 -2.20422 -3.17728 0
M  V30 320 H 31.523 -2.61648 -3.10315 0
M  V30 321 H 32.289 -4.58312 -1.58665 0
M  V30 322 H 28.168 -3.83504 -2.55823 0
M  V30 323 H 31.712 -6.90649 -0.982299 0
M  V30 324 H 27.609 -6.15069 -1.95858 0
M  V30 325 H 28.377 -8.09275 -1.22542 0
M  V30 326 N 31.0401 0.771051 -1.3745 0
M  V30 327 C 31.9871 1.88435 -1.3327 0
M  V30 328 C 32.9571 1.64914 -0.198136 0
M  V30 329 O 34.1421 1.86821 -0.387606 0
M  V30 330 C 31.2821 3.25509 -1.14622 0
M  V30 331 C 30.3951 3.60979 -2.37314 0
M  V30 332 C 29.5301 4.87265 -2.11533 0
M  V30 333 C 28.5691 5.15469 -3.30088 0
M  V30 334 N 27.7061 6.32944 -3.03853 0
M  V30 335 H 32.5461 1.91344 -2.28455 0
M  V30 336 H 30.0831 0.935466 -1.13523 0
M  V30 337 H 32.0411 4.04582 -1.01831 0
M  V30 338 H 30.6711 3.21974 -0.230837 0
M  V30 339 H 29.7231 2.76885 -2.60842 0
M  V30 340 H 31.0351 3.77759 -3.25729 0
M  V30 341 H 30.1891 5.74244 -1.95777 0
M  V30 342 H 28.9281 4.7259 -1.20457 0
M  V30 343 H 27.9331 4.26966 -3.46382 0
M  V30 344 H 29.1581 5.32052 -4.22016 0
M  V30 345 H 27.1041 6.19625 -2.15407 0
M  V30 346 H 27.0211 6.50143 -3.85812 0
M  V30 347 H 28.2891 7.22857 -2.91716 0
M  V30 348 N 32.5182 1.22032 0.997298 0
M  V30 349 C 33.7662 1.04016 1.73278 0
M  V30 350 C 34.0872 -0.426255 1.90284 0
M  V30 351 O 33.3572 -1.30694 1.45931 0
M  V30 352 H 31.9372 0.381897 0.642 0
M  V30 353 H 34.5992 1.5347 1.20137 0
M  V30 354 H 33.6952 1.51441 2.72896 0
M  V30 355 N 33.9963 -1.19345 1.0293 0
M  V30 356 C 34.9593 -2.20793 0.615069 0
M  V30 357 C 35.9593 -1.57553 -0.321533 0
M  V30 358 O 37.1493 -1.73862 -0.108483 0
M  V30 359 C 34.2813 -3.40754 -0.0999222 0
M  V30 360 H 35.4743 -2.58955 1.51269 0
M  V30 361 H 33.0273 -1.3303 0.820534 0
M  V30 362 H 33.7623 -3.0811 -1.01187 0
M  V30 363 H 33.5473 -3.87889 0.57309 0
M  V30 364 H 35.0373 -4.15898 -0.376645 0
M  V30 365 N 35.4744 -0.807222 -1.35358 0
M  V30 366 C 36.4224 -0.20614 -2.31685 0
M  V30 367 C 37.4164 0.644445 -1.56663 0
M  V30 368 O 38.6224 0.537538 -1.71786 0
M  V30 369 H 34.9974 -0.0479006 -0.750473 0
M  V30 370 H 36.9684 -1.03369 -2.79924 0
M  V30 371 C 35.7174 0.630212 -3.41941 0
M  V30 372 H 35.0404 -0.0149558 -3.99797 0
M  V30 373 H 36.4804 1.01716 -4.11619 0
M  V30 374 C 34.9394 1.79601 -2.85035 0
M  V30 375 O 35.4694 2.89351 -2.78637 0
M  V30 376 N 33.6754 1.60774 -2.42074 0
M  V30 377 H 33.2224 0.715009 -2.47478 0
M  V30 378 H 33.1804 2.38933 -2.04349 0
M  V30 379 N 36.9525 1.47285 -0.560781 0
M  V30 380 C 38.1985 2.02764 -0.0381184 0
M  V30 381 C 38.5315 1.43384 1.30976 0
M  V30 382 O 37.8065 0.590733 1.85312 0
M  V30 383 C 38.0895 3.60064 0.0511427 0
M  V30 384 C 37.9425 4.2987 -1.32408 0
M  V30 385 C 39.2615 4.33439 0.762795 0
M  V30 386 H 36.3805 0.736841 -0.0153264 0
M  V30 387 H 39.0225 1.75675 -0.723759 0
M  V30 388 H 37.1725 3.83274 0.635065 0
M  V30 389 H 38.8445 4.17989 -1.95148 0
M  V30 390 H 37.0875 3.90085 -1.8978 0
M  V30 391 H 37.7585 5.38478 -1.21431 0
M  V30 392 H 40.2345 4.15243 0.266965 0
M  V30 393 H 39.1105 5.43124 0.794221 0
M  V30 394 H 39.3715 4.02915 1.81966 0
M  V30 395 N 38.4306 0.297415 1.54768 0
M  V30 396 C 39.3776 -0.580276 2.23386 0
M  V30 397 C 40.3476 -1.13238 1.21517 0
M  V30 398 O 41.5326 -1.17757 1.50126 0
M  V30 399 C 38.6726 -1.74801 2.97555 0
M  V30 400 C 37.7856 -1.22764 4.1419 0
M  V30 401 C 36.9206 -2.35895 4.75949 0
M  V30 402 C 35.9596 -1.80974 5.84735 0
M  V30 403 N 35.0966 -2.87664 6.40464 0
M  V30 404 H 39.9366 0.0114833 2.97998 0
M  V30 405 H 37.4736 0.0174361 1.4709 0
M  V30 406 H 39.4316 -2.43475 3.38786 0
M  V30 407 H 38.0616 -2.31145 2.25326 0
M  V30 408 H 37.1136 -0.433271 3.77924 0
M  V30 409 H 38.4256 -0.785551 4.92575 0
M  V30 410 H 37.5796 -3.12523 5.20014 0
M  V30 411 H 36.3186 -2.83429 3.96887 0
M  V30 412 H 35.3236 -1.02834 5.40097 0
M  V30 413 H 36.5486 -1.34348 6.65678 0
M  V30 414 H 34.4946 -3.34538 5.64287 0
M  V30 415 H 34.4116 -2.4794 7.14186 0
M  V30 416 H 35.6796 -3.642 6.89187 0
M  V30 417 N 39.9087 -1.5758 0.0250728 0
M  V30 418 C 41.1547 -1.91917 -0.655413 0
M  V30 419 C 41.4877 -0.901433 -1.72011 0
M  V30 420 O 40.7627 0.0764069 -1.9435 0
M  V30 421 C 41.0457 -3.36751 -1.27558 0
M  V30 422 C 40.8987 -4.49258 -0.220719 0
M  V30 423 C 42.2177 -3.81469 -2.19475 0
M  V30 424 H 39.3367 -0.697925 -0.23679 0
M  V30 425 H 41.9787 -1.89825 0.0815036 0
M  V30 426 H 40.1287 -3.38664 -1.90365 0
M  V30 427 H 41.8007 -4.59478 0.409601 0
M  V30 428 H 40.0437 -4.31415 0.454264 0
M  V30 429 H 40.7147 -5.47618 -0.694175 0
M  V30 430 H 43.1907 -3.81266 -1.66659 0
M  V30 431 H 42.0667 -4.83512 -2.59822 0
M  V30 432 H 42.3277 -3.16744 -3.08424 0
M  V30 433 N 41.3868 0.248026 -1.55636 0
M  V30 434 C 42.6348 0.974295 -1.77065 0
M  V30 435 C 42.9558 1.85897 -0.588849 0
M  V30 436 O 42.2258 1.91868 0.395407 0
M  V30 437 H 40.8058 0.362733 -0.653019 0
M  V30 438 H 43.4678 0.266244 -1.93073 0
M  V30 439 H 42.5638 1.59667 -2.68166 0
M  V30 440 N 42.8649 1.48995 0.513639 0
M  V30 441 C 44.1139 1.57093 1.2651 0
M  V30 442 C 44.4269 0.257091 1.93903 0
M  V30 443 O 45.6329 0.216478 2.70636 0
M  V30 444 C 44.0889 2.77118 2.29638 0
M  V30 445 C 43.6969 4.15209 1.68241 0
M  V30 446 C 45.4409 2.94538 3.05692 0
M  V30 447 C 43.3479 5.26474 2.69406 0
M  V30 448 H 42.2779 0.584876 0.475854 0
M  V30 449 H 44.9289 1.7536 0.540487 0
M  V30 450 H 43.3109 2.52319 3.05207 0
M  V30 451 H 44.4849 4.50094 0.987505 0
M  V30 452 H 42.7999 4.03042 1.04623 0
M  V30 453 H 45.3969 3.74832 3.8132 0
M  V30 454 H 45.7399 2.04614 3.62545 0
M  V30 455 H 46.2729 3.19316 2.37238 0
M  V30 456 H 43.0119 6.18417 2.17351 0
M  V30 457 H 42.5319 4.96058 3.37175 0
M  V30 458 H 44.2109 5.55277 3.32078 0
M  V30 459 N 44.343 -0.763751 1.37857 0
M  V30 460 C 45.592 -1.51789 1.32827 0
M  V30 461 C 45.905 -1.95426 -0.0823719 0
M  V30 462 O 47.111 -2.70298 -0.255172 0
M  V30 463 C 45.567 -2.74133 2.33193 0
M  V30 464 C 45.175 -2.37562 3.79827 0
M  V30 465 C 46.919 -3.52054 2.37188 0
M  V30 466 C 44.826 -3.56456 4.71904 0
M  V30 467 H 43.756 -0.569896 0.493695 0
M  V30 468 H 46.407 -0.835822 1.63359 0
M  V30 469 H 44.789 -3.4427 1.9569 0
M  V30 470 H 45.963 -1.75157 4.26212 0
M  V30 471 H 44.278 -1.72798 3.78853 0
M  V30 472 H 46.875 -4.40437 3.03182 0
M  V30 473 H 47.218 -3.92486 1.38782 0
M  V30 474 H 47.751 -2.88921 2.7344 0
M  V30 475 H 44.49 -3.21099 5.71468 0
M  V30 476 H 44.01 -4.17938 4.30218 0
M  V30 477 H 45.689 -4.23168 4.89426 0
M  V30 478 N 45.8211 -1.22559 -0.990812 0
M  V30 479 C 47.0981 -0.959875 -1.70428 0
M  V30 480 C 47.4781 0.524455 -2.04481 0
M  V30 481 O 46.8261 1.49302 -1.72977 0
M  V30 482 C 47.0361 -1.85955 -2.95333 0
M  V30 483 C 48.3841 -2.11687 -3.68068 0
M  V30 484 O 49.4081 -1.8342 -3.05345 0
M  V30 485 O 48.2671 -2.59572 -4.80921 0
M  V30 486 H 45.3611 -0.361154 -0.743974 0
M  V30 487 H 47.9071 -1.33554 -1.04697 0
M  V30 488 H 46.6791 -2.86346 -2.66687 0
M  V30 489 H 46.3021 -1.4856 -3.68803 0
M  V30 490 N 47.2992 1.18797 -1.03562 0
M  V30 491 C 48.5272 1.92599 -0.755869 0
M  V30 492 C 48.9422 1.75886 0.686271 0
M  V30 493 O 48.2992 1.08517 1.46732 0
M  V30 494 C 48.3502 3.44159 -1.10619 0
M  V30 495 O 48.0712 3.60341 -2.4917 0
M  V30 496 C 49.5722 4.3507 -0.850214 0
M  V30 497 H 46.7922 0.611587 -0.276048 0
M  V30 498 H 49.3362 1.50742 -1.38192 0
M  V30 499 H 47.4912 3.83823 -0.525194 0
M  V30 500 H 47.9052 4.54128 -2.62427 0
M  V30 501 H 49.3792 5.39989 -1.14523 0
M  V30 502 H 49.8562 4.38673 0.215176 0
M  V30 503 H 50.4622 4.01097 -1.41426 0
M  V30 504 N 48.7773 0.814389 1.34928 0
M  V30 505 C 50.0253 0.397636 1.9815 0
M  V30 506 C 50.3463 -1.04069 1.64908 0
M  V30 507 O 49.6163 -1.72121 0.93548 0
M  V30 508 H 48.1963 0.144043 0.732981 0
M  V30 509 H 50.8583 1.04195 1.6471 0
M  V30 510 H 49.9543 0.509688 3.0791 0
M  V30 511 N 50.2554 -1.46986 0.568584 0
M  V30 512 C 51.5044 -2.01646 0.0465894 0
M  V30 513 C 51.8174 -1.44721 -1.31587 0
M  V30 514 O 53.0234 -1.91113 -1.92842 0
M  V30 515 C 51.4794 -3.59885 0.032752 0
M  V30 516 C 51.0874 -4.25804 1.39266 0
M  V30 517 C 52.8314 -4.22255 -0.436038 0
M  V30 518 C 50.7384 -5.76081 1.33732 0
M  V30 519 H 49.6684 -0.753876 0.013647 0
M  V30 520 H 52.3194 -1.68864 0.718131 0
M  V30 521 H 50.7014 -3.8968 -0.704669 0
M  V30 522 H 51.8754 -4.07637 2.1487 0
M  V30 523 H 50.1904 -3.7547 1.80032 0
M  V30 524 H 52.7874 -5.32394 -0.49602 0
M  V30 525 H 53.1304 -3.90212 -1.45053 0
M  V30 526 H 53.6634 -3.97033 0.246877 0
M  V30 527 H 50.4024 -6.12761 2.32817 0
M  V30 528 H 49.9224 -5.96553 0.623267 0
M  V30 529 H 51.6014 -6.38518 1.0442 0
M  V30 530 N 51.7335 -0.305618 -1.54608 0
M  V30 531 C 52.6965 0.555591 -2.22364 0
M  V30 532 C 53.6965 1.05768 -1.21119 0
M  V30 533 O 54.8865 0.952972 -1.45822 0
M  V30 534 C 52.0185 1.76974 -2.91364 0
M  V30 535 H 53.2115 -0.0364572 -2.99878 0
M  V30 536 H 50.7645 -0.0565007 -1.56198 0
M  V30 537 H 51.4995 2.40151 -2.17941 0
M  V30 538 H 51.2845 1.41732 -3.65588 0
M  V30 539 H 52.7745 2.38148 -3.43038 0
M  V30 540 N 53.2116 1.57565 -0.0334293 0
M  V30 541 C 54.1746 2.09393 0.932048 0
M  V30 542 C 55.1746 1.00986 1.25134 0
M  V30 543 O 56.3646 1.27129 1.19096 0
M  V30 544 C 53.4966 2.56338 2.2473 0
M  V30 545 H 54.6896 2.95984 0.483085 0
M  V30 546 H 52.2426 1.54819 0.21468 0
M  V30 547 H 52.9776 1.7309 2.74245 0
M  V30 548 H 52.7626 3.35542 2.02865 0
M  V30 549 H 54.2526 2.96646 2.93923 0
M  V30 550 N 54.6897 -0.239769 1.55765 0
M  V30 551 C 55.9147 -0.988373 1.82335 0
M  V30 552 C 56.3397 -1.77886 0.611421 0
M  V30 553 O 55.6977 -1.75889 -0.439639 0
M  V30 554 C 55.7457 -1.89627 3.06715 0
M  V30 555 O 54.8497 -2.98904 2.84131 0
M  V30 556 H 54.1907 -0.280858 0.601677 0
M  V30 557 H 56.7207 -0.258597 2.02959 0
M  V30 558 H 56.7307 -2.30957 3.36338 0
M  V30 559 H 55.4057 -1.31511 3.9456 0
M  V30 560 H 53.9827 -2.61651 2.65694 0
M  V30 561 N 56.1678 -1.49265 -0.50573 0
M  V30 562 C 57.1178 -1.6198 -1.60457 0
M  V30 563 C 58.1018 -0.47568 -1.53708 0
M  V30 564 O 59.2938 -0.728392 -1.61318 0
M  V30 565 C 56.4228 -1.68526 -2.99089 0
M  V30 566 C 55.5088 -2.885 -3.10852 0
M  V30 567 N 55.8998 -4.12635 -2.92517 0
M  V30 568 C 54.1978 -2.86338 -3.41945 0
M  V30 569 C 54.8988 -4.93258 -3.08337 0
M  V30 570 N 53.8748 -4.26533 -3.37003 0
M  V30 571 H 57.6768 -2.55681 -1.44928 0
M  V30 572 H 55.1908 -1.45972 -0.711752 0
M  V30 573 H 57.1878 -1.75732 -3.78053 0
M  V30 574 H 55.8478 -0.759584 -3.1569 0
M  V30 575 H 56.8588 -4.42689 -2.68787 0
M  V30 576 H 53.5358 -2.03129 -3.64753 0
M  V30 577 H 54.9258 -6.01856 -2.98695 0
M  V30 578 N 57.6459 0.756429 -1.3826 0
M  V30 579 C 58.8739 1.54565 -1.3754 0
M  V30 580 C 59.2889 1.88767 0.0355331 0
M  V30 581 O 58.6459 1.52572 1.0014 0
M  V30 582 C 58.6969 2.84654 -2.22833 0
M  V30 583 O 58.4179 2.51912 -3.5843 0
M  V30 584 C 59.9189 3.78807 -2.30261 0
M  V30 585 H 57.1389 0.478353 -0.470553 0
M  V30 586 H 59.6829 0.936381 -1.81803 0
M  V30 587 H 57.8379 3.41965 -1.8204 0
M  V30 588 H 58.2519 3.35325 -4.03308 0
M  V30 589 H 59.7259 4.67045 -2.94233 0
M  V30 590 H 60.2029 4.19038 -1.31545 0
M  V30 591 H 60.8089 3.2742 -2.71433 0
M  V30 592 N 59.124 1.23083 0.984299 0
M  V30 593 C 60.401 0.9689 1.69917 0
M  V30 594 C 60.781 -0.513604 2.04757 0
M  V30 595 O 60.129 -1.48383 1.73767 0
M  V30 596 C 60.339 1.87518 2.94343 0
M  V30 597 C 61.687 2.13636 3.6694 0
M  V30 598 O 62.711 1.85036 3.04368 0
M  V30 599 O 61.57 2.62119 4.79537 0
M  V30 600 H 58.664 0.365095 0.742048 0
M  V30 601 H 61.21 1.34107 1.03987 0
M  V30 602 H 59.982 2.87756 2.65164 0
M  V30 603 H 59.605 1.50514 3.6801 0
M  V30 604 N 60.6021 -1.18246 1.0419 0
M  V30 605 C 61.5321 -2.24127 0.654914 0
M  V30 606 C 62.5131 -1.66617 -0.342451 0
M  V30 607 O 63.6981 -1.92924 -0.222277 0
M  V30 608 C 60.8281 -3.47295 0.0183757 0
M  V30 609 C 59.7821 -4.17563 0.939414 0
M  V30 610 C 59.1081 -5.34438 0.167286 0
M  V30 611 C 60.4081 -4.70917 2.25908 0
M  V30 612 H 62.1021 -2.56753 1.54007 0
M  V30 613 H 59.6481 -1.23414 0.74195 0
M  V30 614 H 61.6011 -4.20572 -0.264082 0
M  V30 615 H 60.3251 -3.13907 -0.901664 0
M  V30 616 H 58.9841 -3.46186 1.20628 0
M  V30 617 H 58.6321 -4.97298 -0.7552 0
M  V30 618 H 58.3321 -5.82388 0.780901 0
M  V30 619 H 59.8561 -6.10504 -0.108125 0
M  V30 620 H 61.2701 -5.35882 2.03724 0
M  V30 621 H 59.6671 -5.29406 2.82577 0
M  V30 622 H 60.7371 -3.88272 2.9047 0
M  V30 623 N 62.0802 -0.821533 -1.34494 0
M  V30 624 C 63.0272 -0.240397 -2.29545 0
M  V30 625 C 63.9972 0.634031 -1.53523 0
M  V30 626 O 65.1822 0.575966 -1.81899 0
M  V30 627 C 62.3222 0.592869 -3.39969 0
M  V30 628 C 61.4352 -0.30365 -4.30932 0
M  V30 629 C 60.5702 0.539049 -5.28458 0
M  V30 630 C 59.6092 -0.356942 -6.11058 0
M  V30 631 N 58.7462 0.446603 -7.00678 0
M  V30 632 H 63.5862 -1.05632 -2.7865 0
M  V30 633 H 61.1232 -0.532413 -1.37127 0
M  V30 634 H 63.0812 1.09129 -4.02675 0
M  V30 635 H 61.7112 1.37392 -2.92102 0
M  V30 636 H 60.7632 -0.920276 -3.691 0
M  V30 637 H 62.0752 -0.992661 -4.88823 0
M  V30 638 H 61.2292 1.102 -5.96608 0
M  V30 639 H 59.9682 1.26157 -4.71101 0
M  V30 640 H 58.9732 -0.932047 -5.41842 0
M  V30 641 H 60.1982 -1.07755 -6.70497 0
M  V30 642 H 58.1442 1.15282 -6.45791 0
M  V30 643 H 58.0612 -0.184048 -7.55776 0
M  V30 644 H 59.3292 0.992352 -7.73158 0
M  V30 645 N 63.5583 1.46682 -0.576371 0
M  V30 646 C 64.8043 2.02712 -0.0596221 0
M  V30 647 C 65.1373 1.44765 1.29448 0
M  V30 648 O 64.4123 0.610355 1.84675 0
M  V30 649 C 64.6953 3.60098 0.0129503 0
M  V30 650 C 64.5483 4.28441 -1.3696 0
M  V30 651 C 65.8673 4.34224 0.71678 0
M  V30 652 H 62.9863 0.736637 -0.0231407 0
M  V30 653 H 65.6283 1.74898 -0.742351 0
M  V30 654 H 63.7783 3.83926 0.594378 0
M  V30 655 H 65.4503 4.15896 -1.9957 0
M  V30 656 H 63.6933 3.8805 -1.93907 0
M  V30 657 H 64.3643 5.3716 -1.27135 0
M  V30 658 H 66.8403 4.15503 0.222908 0
M  V30 659 H 65.7163 5.43936 0.73657 0
M  V30 660 H 65.9773 4.04823 1.77682 0
M  V30 661 N 65.0364 0.313813 1.54444 0
M  V30 662 C 66.2824 -0.292108 2.00685 0
M  V30 663 C 66.6154 -1.52548 1.20177 0
M  V30 664 O 65.8904 -1.92452 0.281531 0
M  V30 665 C 66.1734 -0.635968 3.5444 0
M  V30 666 C 66.0264 0.607437 4.4568 0
M  V30 667 C 67.3454 -1.45747 4.15266 0
M  V30 668 H 64.4644 -0.104697 0.729526 0
M  V30 669 H 67.1064 0.428457 1.85106 0
M  V30 670 H 65.2564 -1.24986 3.67846 0
M  V30 671 H 66.9284 1.24581 4.44159 0
M  V30 672 H 65.1714 1.23822 4.15753 0
M  V30 673 H 65.8424 0.322515 5.51057 0
M  V30 674 H 68.3184 -0.938645 4.05375 0
M  V30 675 H 67.1944 -1.66683 5.2298 0
M  V30 676 H 67.4554 -2.45063 3.67963 0
M  V30 677 N 66.5145 -1.57545 0.0417849 0
M  V30 678 C 67.7625 -1.91937 -0.632829 0
M  V30 679 C 68.0835 -0.919978 -1.71934 0
M  V30 680 O 67.3535 0.0366064 -1.95866 0
M  V30 681 H 65.9335 -0.708493 -0.236742 0
M  V30 682 H 68.5955 -1.9468 0.0925745 0
M  V30 683 H 67.6915 -2.92912 -1.07746 0
M  V30 684 N 67.9926 0.231505 -1.5589 0
M  V30 685 C 69.2406 0.955461 -1.78088 0
M  V30 686 C 69.5616 1.85262 -0.608533 0
M  V30 687 O 68.8316 1.92277 0.375035 0
M  V30 688 H 67.4116 0.355787 -0.656829 0
M  V30 689 H 70.0736 0.245751 -1.93344 0
M  V30 690 H 69.1696 1.56814 -2.69844 0
M  V30 691 N 69.4707 1.49531 0.497807 0
M  V30 692 C 70.4337 1.65916 1.58128 0
M  V30 693 C 71.4337 0.530825 1.51786 0
M  V30 694 O 72.6237 0.797342 1.54881 0
M  V30 695 C 69.7557 1.65951 2.9778 0
M  V30 696 H 70.9487 2.62556 1.44929 0
M  V30 697 H 68.5017 1.38611 0.722275 0
M  V30 698 H 69.2367 0.709065 3.16453 0
M  V30 699 H 69.0217 2.47897 3.03792 0
M  V30 700 H 70.5117 1.80673 3.76493 0
M  V30 701 N 70.9488 -0.749086 1.3866 0
M  V30 702 C 72.1738 -1.54344 1.38538 0
M  V30 703 C 72.5988 -1.88088 -0.0216655 0
M  V30 704 O 71.9568 -1.50899 -1.00494 0
M  V30 705 C 72.0048 -2.8164 2.25192 0
M  V30 706 O 71.1088 -3.7698 1.67212 0
M  V30 707 H 70.4498 -0.466654 0.472367 0
M  V30 708 H 72.9798 -0.925355 1.82478 0
M  V30 709 H 72.9898 -3.30519 2.3921 0
M  V30 710 H 71.6648 -2.56411 3.27454 0
M  V30 711 H 70.2418 -3.35699 1.6236 0
M  V30 712 N 72.4269 -1.23603 -0.977757 0
M  V30 713 C 73.6739 -1.06971 -1.71941 0
M  V30 714 C 74.0019 0.393009 -1.90488 0
M  V30 715 O 73.2569 1.30719 -1.4564 0
M  V30 716 C 73.5559 -1.7433 -3.11999 0
M  V30 717 C 73.2219 -3.24252 -3.13323 0
M  V30 718 C 71.8839 -3.65156 -3.13392 0
M  V30 719 C 74.2359 -4.20141 -3.08433 0
M  V30 720 C 71.5639 -5.00403 -3.0629 0
M  V30 721 C 73.9159 -5.55384 -3.02873 0
M  V30 722 C 72.5799 -5.95647 -3.01265 0
M  V30 723 H 71.8499 -0.391433 -0.629175 0
M  V30 724 H 74.4969 -1.53572 -1.14403 0
M  V30 725 H 72.8019 -1.20096 -3.7294 0
M  V30 726 H 74.4989 -1.58936 -3.68158 0
M  V30 727 H 71.0889 -2.91692 -3.14029 0
M  V30 728 H 75.2729 -3.89547 -3.07517 0
M  V30 729 H 70.5289 -5.3081 -3.03399 0
M  V30 730 H 74.7029 -6.29398 -2.98046 0
M  V30 731 H 72.3299 -7.0041 -2.95516 0
M  V30 732 N 73.905 1.17692 -1.04816 0
M  V30 733 C 75.151 1.88137 -0.75711 0
M  V30 734 C 75.484 1.80604 0.713841 0
M  V30 735 O 74.759 1.21146 1.52164 0
M  V30 736 C 75.042 3.38318 -1.2334 0
M  V30 737 C 74.895 3.54622 -2.76701 0
M  V30 738 C 76.214 4.32214 -0.829415 0
M  V30 739 H 73.333 0.683163 -0.27651 0
M  V30 740 H 75.975 1.38424 -1.30149 0
M  V30 741 H 74.125 3.80787 -0.770286 0
M  V30 742 H 75.797 3.21194 -3.31107 0
M  V30 743 H 74.04 2.97026 -3.16161 0
M  V30 744 H 74.711 4.60028 -3.05088 0
M  V30 745 H 77.187 3.97565 -1.22805 0
M  V30 746 H 76.063 5.35838 -1.19033 0
M  V30 747 H 76.324 4.41294 0.266891 0
M  V30 748 N 75.3831 0.828654 1.34056 0
M  V30 749 C 76.6081 0.431637 2.02859 0
M  V30 750 C 77.0331 -0.956339 1.61975 0
M  V30 751 O 76.3911 -1.62338 0.807228 0
M  V30 752 C 76.4391 0.548323 3.56407 0
M  V30 753 O 75.5431 -0.429556 4.10157 0
M  V30 754 H 74.8841 0.176886 0.640006 0
M  V30 755 H 77.4141 1.12066 1.71179 0
M  V30 756 H 77.4241 0.426196 4.05768 0
M  V30 757 H 76.0991 1.5606 3.8551 0
M  V30 758 H 74.6761 -0.265836 3.71951 0
M  V30 759 N 76.8612 -1.46375 0.584142 0
M  V30 760 C 78.1092 -2.01978 0.0701287 0
M  V30 761 C 78.4302 -1.4579 -1.295 0
M  V30 762 O 77.7002 -0.64314 -1.85042 0
M  V30 763 H 76.2802 -0.746648 0.0229345 0
M  V30 764 H 78.9422 -1.79461 0.760245 0
M  V30 765 H 78.0382 -3.121 0.0022064 0
M  V30 766 N 78.3393 -0.321999 -1.54275 0
M  V30 767 C 79.2493 0.553631 -2.27974 0
M  V30 768 C 80.2653 1.13054 -1.32268 0
M  V30 769 O 81.4413 1.15084 -1.6528 0
M  V30 770 C 78.5063 1.69927 -3.02201 0
M  V30 771 C 77.5673 1.15433 -4.1349 0
M  V30 772 C 76.8003 2.24537 -4.84168 0
M  V30 773 O 77.0233 3.44852 -4.5435 0
M  V30 774 O 75.9573 1.90044 -5.7111 0
M  V30 775 H 79.7833 -0.0448345 -3.03667 0
M  V30 776 H 77.3683 -0.0877418 -1.49142 0
M  V30 777 H 79.2503 2.3663 -3.48689 0
M  V30 778 H 77.9253 2.28395 -2.29385 0
M  V30 779 H 76.8323 0.452436 -3.71354 0
M  V30 780 H 78.1653 0.614805 -4.88345 0
M  V30 781 N 79.8174 1.5752 -0.0501392 0
M  V30 782 C 81.0424 1.97376 0.636997 0
M  V30 783 C 81.4674 0.927466 1.63645 0
M  V30 784 O 80.8254 -0.10941 1.8097 0
M  V30 785 C 80.8734 3.36304 1.30123 0
M  V30 786 O 79.9774 3.34156 2.41689 0
M  V30 787 H 79.3184 0.642998 0.165679 0
M  V30 788 H 81.8484 2.04258 -0.118233 0
M  V30 789 H 81.8584 3.73008 1.65315 0
M  V30 790 H 80.5334 4.11993 0.568746 0
M  V30 791 H 79.1104 3.09196 2.08451 0
M  V30 792 N 81.2955 -0.223234 1.56011 0
M  V30 793 C 82.5255 -0.963413 1.82762 0
M  V30 794 C 82.9335 -1.78516 0.626804 0
M  V30 795 O 82.2765 -1.78974 -0.414014 0
M  V30 796 C 82.3385 -1.93126 3.0322 0
M  V30 797 C 82.0025 -1.2942 4.38291 0
M  V30 798 C 82.9995 -0.684916 5.15369 0
M  V30 799 C 80.6845 -1.30647 4.85012 0
M  V30 800 C 82.6785 -0.0963971 6.37327 0
M  V30 801 C 80.3655 -0.71411 6.06913 0
M  V30 802 C 81.3635 -0.110123 6.82911 0
M  V30 803 O 81.0515 0.47303 8.02507 0
M  V30 804 H 80.7835 -0.288011 0.611576 0
M  V30 805 H 83.3375 -0.244103 2.03944 0
M  V30 806 H 81.5675 -2.68952 2.77852 0
M  V30 807 H 83.2565 -2.53685 3.16857 0
M  V30 808 H 84.0225 -0.667774 4.80381 0
M  V30 809 H 79.9015 -1.76598 4.25833 0
M  V30 810 H 83.4455 0.375657 6.96588 0
M  V30 811 H 79.3425 -0.728659 6.41374 0
M  V30 812 H 80.1105 0.367186 8.17676 0
M  V30 813 N 82.7736 -1.49793 -0.48987 0
M  V30 814 C 83.7216 -1.67783 -1.61095 0
M  V30 815 C 84.7156 -0.543683 -1.60438 0
M  V30 816 O 85.9216 -0.723647 -1.64813 0
M  V30 817 H 82.2966 -0.529255 -0.534222 0
M  V30 818 H 84.2676 -2.61861 -1.43078 0
M  V30 819 C 83.0166 -1.77191 -2.99164 0
M  V30 820 H 82.3396 -2.63841 -3.0038 0
M  V30 821 H 83.7796 -1.93809 -3.77113 0
M  V30 822 C 82.2386 -0.519203 -3.32875 0
M  V30 823 O 82.7686 0.350124 -4.00171 0
M  V30 824 N 80.9746 -0.378816 -2.8812 0
M  V30 825 H 80.5216 -1.08725 -2.33531 0
M  V30 826 H 80.4796 0.458239 -3.11043 0
M  V30 827 N 84.2517 0.741722 -1.39055 0
M  V30 828 C 85.4797 1.53098 -1.39171 0
M  V30 829 C 85.8947 1.88794 0.0155099 0
M  V30 830 O 85.2517 1.53626 0.985159 0
M  V30 831 C 85.3027 2.82274 -2.2584 0
M  V30 832 O 85.0237 2.48097 -3.61081 0
M  V30 833 C 86.5247 3.76343 -2.34266 0
M  V30 834 H 83.7447 0.473335 -0.4756 0
M  V30 835 H 86.2887 0.917045 -1.82785 0
M  V30 836 H 84.4437 3.40015 -1.85656 0
M  V30 837 H 84.8577 3.31029 -4.06842 0
M  V30 838 H 86.3317 4.63898 -2.9917 0
M  V30 839 H 86.8087 4.17619 -1.35982 0
M  V30 840 H 87.4147 3.24523 -2.74891 0
M  V30 841 N 85.7298 1.2412 0.971189 0
M  V30 842 C 87.0068 0.986867 1.6888 0
M  V30 843 C 87.3868 -0.491857 2.0529 0
M  V30 844 O 86.7348 -1.46531 1.75331 0
M  V30 845 C 86.9448 1.9063 2.92338 0
M  V30 846 C 88.2928 2.17515 3.64654 0
M  V30 847 O 89.3168 1.88254 3.02388 0
M  V30 848 O 88.1758 2.6719 4.7673 0
M  V30 849 H 85.2698 0.372944 0.738134 0
M  V30 850 H 87.8158 1.35203 1.02559 0
M  V30 851 H 86.5878 2.90552 2.62097 0
M  V30 852 H 86.2108 1.54408 3.66393 0
M  V30 853 N 87.2079 -1.17134 1.05439 0
M  V30 854 C 88.4559 -1.87085 0.764429 0
M  V30 855 C 88.7769 -1.81584 -0.710787 0
M  V30 856 O 88.0469 -1.24349 -1.51374 0
M  V30 857 H 86.6269 -0.692627 0.279779 0
M  V30 858 H 89.2889 -1.42087 1.33406 0
M  V30 859 H 88.3849 -2.92759 1.0816 0
M  V30 860 N 88.686 -0.835752 -1.33615 0
M  V30 861 C 89.634 -0.255238 -2.31195 0
M  V30 862 C 90.628 0.61107 -1.57995 0
M  V30 863 O 91.834 0.500979 -1.72888 0
M  V30 864 H 88.209 -0.0638085 -0.749288 0
M  V30 865 H 90.18 -1.09283 -2.77669 0
M  V30 866 C 88.929 0.55754 -3.43201 0
M  V30 867 H 88.252 -0.0997553 -3.99676 0
M  V30 868 H 89.692 0.929622 -4.13683 0
M  V30 869 C 88.151 1.73515 -2.88781 0
M  V30 870 O 88.681 2.83376 -2.84712 0
M  V30 871 N 86.887 1.55603 -2.4543 0
M  V30 872 H 86.434 0.662354 -2.48939 0
M  V30 873 H 86.392 2.34545 -2.09371 0
M  V30 874 N 90.1641 1.46063 -0.591896 0
M  V30 875 C 91.4121 2.01938 -0.0808391 0
M  V30 876 C 91.7331 1.46475 1.28725 0
M  V30 877 O 91.0031 0.652944 1.84698 0
M  V30 878 H 89.5831 0.746516 -0.0268938 0
M  V30 879 H 92.2451 1.79055 -0.769752 0
M  V30 880 H 91.3411 3.12094 -0.0187578 0
M  V30 881 N 91.6422 0.330177 1.54103 0
M  V30 882 C 92.5922 -0.548456 2.21305 0
M  V30 883 C 93.5762 -1.07651 1.19583 0
M  V30 884 O 94.7682 -1.01243 1.45186 0
M  V30 885 C 91.8972 -1.70559 2.97934 0
M  V30 886 C 90.9832 -1.19212 4.07 0
M  V30 887 N 91.3742 -0.398831 5.04225 0
M  V30 888 C 89.6722 -1.47024 4.2107 0
M  V30 889 C 90.3732 -0.121761 5.81573 0
M  V30 890 N 89.3492 -0.709722 5.38947 0
M  V30 891 H 93.1512 0.0648483 2.93828 0
M  V30 892 H 90.6652 0.136363 1.61826 0
M  V30 893 H 92.6622 -2.34688 3.44568 0
M  V30 894 H 91.3222 -2.32231 2.26934 0
M  V30 895 H 92.3332 -0.0410869 5.17884 0
M  V30 896 H 89.0102 -2.09232 3.61287 0
M  V30 897 H 90.4002 0.517298 6.69906 0
M  V30 898 N 93.1203 -1.57491 0.0584922 0
M  V30 899 C 94.3683 -1.92597 -0.612436 0
M  V30 900 C 94.6893 -0.938162 -1.70949 0
M  V30 901 O 93.9593 0.0158301 -1.95894 0
M  V30 902 H 92.5393 -0.710964 -0.229214 0
M  V30 903 H 95.2013 -1.94571 0.113218 0
M  V30 904 H 94.2973 -2.94038 -1.04633 0
M  V30 905 N 94.5984 0.214957 -1.56127 0
M  V30 906 C 95.8264 0.955092 -1.83536 0
M  V30 907 C 96.2414 1.77677 -0.638472 0
M  V30 908 O 95.5984 1.78219 0.392968 0
M  V30 909 C 95.6494 1.86734 -3.09536 0
M  V30 910 O 95.3704 1.07887 -4.24608 0
M  V30 911 C 96.8714 2.72082 -3.4998 0
M  V30 912 H 94.0914 0.279611 -0.609966 0
M  V30 913 H 96.6354 0.228197 -2.03223 0
M  V30 914 H 94.7904 2.5481 -2.91806 0
M  V30 915 H 95.2044 1.69872 -4.9623 0
M  V30 916 H 96.6784 3.31782 -4.41163 0
M  V30 917 H 97.1554 3.44806 -2.7204 0
M  V30 918 H 97.7614 2.09409 -3.70173 0
M  V30 919 N 96.0765 1.50051 0.48192 0
M  V30 920 C 97.0265 1.64512 1.5786 0
M  V30 921 C 98.0105 0.500073 1.52932 0
M  V30 922 O 99.2025 0.753964 1.60139 0
M  V30 923 C 96.3315 1.73263 2.9637 0
M  V30 924 C 95.4175 2.93409 3.06222 0
M  V30 925 N 95.8085 4.17236 2.85915 0
M  V30 926 C 94.1065 2.91742 3.37346 0
M  V30 927 C 94.8075 4.981 3.00451 0
M  V30 928 N 93.7835 4.3184 3.30174 0
M  V30 929 H 97.5855 2.57955 1.40842 0
M  V30 930 H 95.0995 1.47086 0.688439 0
M  V30 931 H 97.0965 1.81724 3.75209 0
M  V30 932 H 95.7565 0.809711 3.14442 0
M  V30 933 H 96.7675 4.46909 2.6171 0
M  V30 934 H 93.4445 2.08907 3.61475 0
M  V30 935 H 94.8345 6.06532 2.89082 0
M  V30 936 N 97.5546 -0.734337 1.39446 0
M  V30 937 C 98.8006 -1.49613 1.36908 0
M  V30 938 C 99.1336 -1.94169 -0.0347829 0
M  V30 939 O 98.4086 -1.66833 -0.999847 0
M  V30 940 C 98.6916 -2.73534 2.34203 0
M  V30 941 C 98.5446 -2.34993 3.83534 0
M  V30 942 C 99.8636 -3.75635 2.29317 0
M  V30 943 H 96.9826 -0.542714 0.498629 0
M  V30 944 H 99.6246 -0.839597 1.70443 0
M  V30 945 H 97.7746 -3.29553 2.05736 0
M  V30 946 H 99.4466 -1.84601 4.22753 0
M  V30 947 H 97.6896 -1.67213 4.00278 0
M  V30 948 H 98.3606 -3.23738 4.47099 0
M  V30 949 H 100.837 -3.29203 2.54489 0
M  V30 950 H 99.7126 -4.60008 2.99472 0
M  V30 951 H 99.9736 -4.22603 1.29842 0
M  V30 952 N 99.0327 -1.24633 -0.964593 0
M  V30 953 C 99.9957 -1.0424 -2.04124 0
M  V30 954 C 100.996 0.00137563 -1.608 0
M  V30 955 O 102.186 -0.239883 -1.7254 0
M  V30 956 C 99.3177 -0.580588 -3.3592 0
M  V30 957 H 100.511 -1.99803 -2.23649 0
M  V30 958 H 98.0637 -1.06899 -1.14027 0
M  V30 959 H 98.7987 0.3781 -3.22088 0
M  V30 960 H 98.5837 -1.33398 -3.6871 0
M  V30 961 H 100.074 -0.459034 -4.15069 0
M  V30 962 N 100.511 1.16574 -1.06058 0
M  V30 963 C 101.759 1.86677 -0.77434 0
M  V30 964 C 102.08 1.81959 0.701147 0
M  V30 965 O 101.35 1.2515 1.50713 0
M  V30 966 H 99.9298 0.691134 -0.283449 0
M  V30 967 H 102.592 1.41378 -1.34158 0
M  V30 968 H 101.688 2.92181 -1.09711 0
M  V30 969 N 101.989 0.842826 1.3317 0
M  V30 970 C 103.217 0.454055 2.01856 0
M  V30 971 C 103.632 -0.94587 1.63397 0
M  V30 972 O 102.989 -1.61534 0.849302 0
M  V30 973 C 103.04 0.569715 3.56982 0
M  V30 974 O 102.761 1.91448 3.94055 0
M  V30 975 C 104.262 0.178412 4.42941 0
M  V30 976 H 101.482 0.17979 0.646465 0
M  V30 977 H 104.026 1.1365 1.70012 0
M  V30 978 H 102.181 -0.0648587 3.87346 0
M  V30 979 H 102.595 1.90282 4.88767 0
M  V30 980 H 104.069 0.310376 5.51127 0
M  V30 981 H 104.546 -0.880056 4.30293 0
M  V30 982 H 105.152 0.787579 4.17944 0
M  V30 983 N 103.467 -1.45747 0.599634 0
M  V30 984 C 104.713 -2.02592 0.0918643 0
M  V30 985 C 105.046 -1.46806 -1.27128 0
M  V30 986 O 104.321 -0.639658 -1.83681 0
M  V30 987 C 104.604 -3.60073 0.0443398 0
M  V30 988 C 104.457 -4.26208 1.43759 0
M  V30 989 C 105.776 -4.35309 -0.647608 0
M  V30 990 H 102.895 -0.736175 0.034857 0
M  V30 991 H 105.537 -1.73694 0.770081 0
M  V30 992 H 103.687 -3.84823 -0.533224 0
M  V30 993 H 105.359 -4.12668 2.06162 0
M  V30 994 H 103.602 -3.84916 2.00056 0
M  V30 995 H 104.273 -5.35069 1.35665 0
M  V30 996 H 106.749 -4.15805 -0.156776 0
M  V30 997 H 105.625 -5.45038 -0.649942 0
M  V30 998 H 105.886 -4.07598 -1.71219 0
M  V30 999 N 104.945 -0.338344 -1.53925 0
M  V30 1000 C 105.908 0.508299 -2.23493 0
M  V30 1001 C 106.908 1.03175 -1.23335 0
M  V30 1002 O 108.098 0.921826 -1.47811 0
M  V30 1003 C 105.23 1.70754 -2.95052 0
M  V30 1004 H 106.423 -0.100058 -2.99733 0
M  V30 1005 H 103.976 -0.0896198 -1.56043 0
M  V30 1006 H 104.711 2.35474 -2.22986 0
M  V30 1007 H 104.496 1.33946 -3.68512 0
M  V30 1008 H 105.986 2.30818 -3.48013 0
M  V30 1009 N 106.423 1.57458 -0.0668435 0
M  V30 1010 C 107.386 2.11323 0.887422 0
M  V30 1011 C 108.386 1.03618 1.22964 0
M  V30 1012 O 109.576 1.29626 1.16373 0
M  V30 1013 C 106.708 2.61048 2.19242 0
M  V30 1014 H 107.901 2.96942 0.420194 0
M  V30 1015 H 105.454 1.55239 0.181793 0
M  V30 1016 H 106.189 1.78868 2.70512 0
M  V30 1017 H 105.974 3.39769 1.95702 0
M  V30 1018 H 107.464 3.02814 2.87565 0
M  V30 1019 N 107.901 -0.206675 1.56239 0
M  V30 1020 C 108.831 -1.25909 1.96645 0
M  V30 1021 C 109.812 -1.48097 0.836734 0
M  V30 1022 O 110.997 -1.6003 1.10019 0
M  V30 1023 C 108.127 -2.6058 2.29599 0
M  V30 1024 C 107.081 -2.53024 3.452 0
M  V30 1025 C 106.407 -3.91861 3.63798 0
M  V30 1026 C 107.707 -2.06524 4.79734 0
M  V30 1027 H 109.401 -0.923369 2.84806 0
M  V30 1028 H 106.947 -0.442735 1.37025 0
M  V30 1029 H 108.9 -3.34375 2.56459 0
M  V30 1030 H 107.624 -2.95869 1.38307 0
M  V30 1031 H 106.283 -1.81684 3.18412 0
M  V30 1032 H 105.931 -4.24483 2.69857 0
M  V30 1033 H 105.631 -3.87683 4.4156 0
M  V30 1034 H 107.155 -4.67296 3.93022 0
M  V30 1035 H 108.569 -2.70072 5.05702 0
M  V30 1036 H 106.966 -2.13374 5.60885 0
M  V30 1037 H 108.036 -1.01802 4.74093 0
M  V30 1038 N 109.379 -1.50304 -0.473955 0
M  V30 1039 C 110.656 -1.51667 -1.23518 0
M  V30 1040 C 111.036 -0.259701 -2.09496 0
M  V30 1041 O 110.384 0.756986 -2.15597 0
M  V30 1042 C 110.594 -2.81082 -2.06868 0
M  V30 1043 C 111.942 -3.31631 -2.65153 0
M  V30 1044 O 112.966 -2.82384 -2.17113 0
M  V30 1045 O 111.825 -4.17471 -3.52675 0
M  V30 1046 H 108.919 -0.60822 -0.560355 0
M  V30 1047 H 111.465 -1.62592 -0.486011 0
M  V30 1048 H 110.237 -3.64041 -1.4349 0
M  V30 1049 H 109.86 -2.73146 -2.88924 0
M  V30 1050 N 110.857 0.726932 -1.39834 0
M  V30 1051 C 111.805 1.86235 -1.39353 0
M  V30 1052 C 112.799 1.67144 -0.275555 0
M  V30 1053 O 114.005 1.74387 -0.44601 0
M  V30 1054 H 110.38 0.613174 -0.43534 0
M  V30 1055 H 112.351 1.83756 -2.35109 0
M  V30 1056 C 111.1 3.23995 -1.26185 0
M  V30 1057 H 110.423 3.39285 -2.11484 0
M  V30 1058 H 111.863 4.03609 -1.29907 0
M  V30 1059 C 110.322 3.36888 0.0290018 0
M  V30 1060 O 110.852 3.89152 0.99619 0
M  V30 1061 N 109.058 2.90446 0.0947437 0
M  V30 1062 H 108.605 2.48102 -0.693035 0
M  V30 1063 H 108.563 2.99451 0.957932 0
M  V30 1064 N 112.336 1.25143 0.95797 0
M  V30 1065 C 113.564 1.12424 1.73691 0
M  V30 1066 C 113.979 -0.322304 1.86029 0
M  V30 1067 O 113.336 -1.22186 1.35561 0
M  V30 1068 C 113.387 1.76933 3.15241 0
M  V30 1069 O 113.108 3.15932 3.03511 0
M  V30 1070 C 114.609 1.6995 4.09429 0
M  V30 1071 H 111.829 0.3923 0.544373 0
M  V30 1072 H 114.373 1.6544 1.20207 0
M  V30 1073 H 112.528 1.27895 3.6568 0
M  V30 1074 H 112.942 3.47598 3.9278 0
M  V30 1075 H 114.416 2.19753 5.06372 0
M  V30 1076 H 114.893 0.662619 4.34173 0
M  V30 1077 H 115.499 2.18461 3.64904 0
M  V30 1078 N 113.814 -1.1601 1.06675 0
M  V30 1079 C 115.042 -1.90527 0.806667 0
M  V30 1080 C 115.457 -1.77643 -0.639396 0
M  V30 1081 O 114.814 -1.12369 -1.43803 0
M  V30 1082 C 114.865 -3.41106 1.19705 0
M  V30 1083 O 114.586 -3.53608 2.58636 0
M  V30 1084 C 116.087 -4.32663 0.965266 0
M  V30 1085 H 113.307 -0.604053 0.292166 0
M  V30 1086 H 115.851 -1.47026 1.4214 0
M  V30 1087 H 114.006 -3.82296 0.626774 0
M  V30 1088 H 114.42 -4.47011 2.74375 0
M  V30 1089 H 115.894 -5.36763 1.288 0
M  V30 1090 H 116.371 -4.39089 -0.0987936 0
M  V30 1091 H 116.977 -3.97206 1.52011 0
M  V30 1092 N 115.292 -0.849877 -1.32721 0
M  V30 1093 C 116.54 -0.450032 -1.97026 0
M  V30 1094 C 116.861 0.996604 -1.67609 0
M  V30 1095 O 116.131 1.6958 -0.980786 0
M  V30 1096 H 114.711 -0.163426 -0.728904 0
M  V30 1097 H 117.373 -1.08526 -1.6189 0
M  V30 1098 H 116.469 -0.591146 -3.0645 0
M  V30 1099 N 116.77 1.45427 -0.607355 0
M  V30 1100 C 118.016 2.0254 -0.102607 0
M  V30 1101 C 118.349 1.47478 1.26348 0
M  V30 1102 O 117.624 0.64939 1.83339 0
M  V30 1103 C 117.907 3.60044 -0.0634347 0
M  V30 1104 C 117.76 4.2544 -1.46017 0
M  V30 1105 C 119.079 4.35646 0.624514 0
M  V30 1106 H 116.198 0.73598 -0.0387607 0
M  V30 1107 H 118.84 1.73284 -0.779282 0
M  V30 1108 H 116.99 3.85101 0.512808 0
M  V30 1109 H 118.662 4.11569 -2.08347 0
M  V30 1110 H 116.905 3.83849 -2.02094 0
M  V30 1111 H 117.576 5.34342 -1.385 0
M  V30 1112 H 120.052 4.15882 0.134723 0
M  V30 1113 H 118.928 5.45376 0.621028 0
M  V30 1114 H 119.189 4.08501 1.69055 0
M  V30 1115 N 118.248 0.346503 1.53744 0
M  V30 1116 C 119.178 -0.501193 2.28058 0
M  V30 1117 C 120.159 -1.10014 1.29734 0
M  V30 1118 O 121.344 -1.12097 1.58581 0
M  V30 1119 C 118.474 -1.65078 3.05559 0
M  V30 1120 C 117.428 -1.18003 4.11411 0
M  V30 1121 C 116.754 -2.41837 4.76884 0
M  V30 1122 C 118.054 -0.278394 5.21558 0
M  V30 1123 H 119.748 0.11875 2.99164 0
M  V30 1124 H 117.294 0.0585531 1.43881 0
M  V30 1125 H 119.247 -2.25028 3.56287 0
M  V30 1126 H 117.971 -2.29767 2.32109 0
M  V30 1127 H 116.63 -0.603331 3.61601 0
M  V30 1128 H 116.278 -3.0494 4.00026 0
M  V30 1129 H 115.978 -2.1102 5.48402 0
M  V30 1130 H 117.502 -3.02508 5.30397 0
M  V30 1131 H 118.916 -0.784823 5.67903 0
M  V30 1132 H 117.313 -0.0619707 6.00068 0
M  V30 1133 H 118.383 0.684677 4.80042 0
M  V30 1134 N 119.726 -1.57421 0.075193 0
M  V30 1135 C 120.974 -1.93236 -0.591974 0
M  V30 1136 C 121.295 -0.956241 -1.69944 0
M  V30 1137 O 120.565 -0.00494792 -1.95899 0
M  V30 1138 H 119.145 -0.713355 -0.22166 0
M  V30 1139 H 121.807 -1.9444 0.133848 0
M  V30 1140 H 120.903 -2.95131 -1.01509 0
M  V30 1141 N 121.204 0.198386 -1.56346 0
M  V30 1142 C 122.45 0.920648 -1.80698 0
M  V30 1143 C 122.783 1.83045 -0.648697 0
M  V30 1144 O 122.058 1.91308 0.350925 0
M  V30 1145 C 122.341 1.73971 -3.15287 0
M  V30 1146 C 122.194 0.85485 -4.41602 0
M  V30 1147 C 123.513 2.71296 -3.46535 0
M  V30 1148 H 120.632 0.333261 -0.657348 0
M  V30 1149 H 123.274 0.188198 -1.89066 0
M  V30 1150 H 121.424 2.36416 -3.08285 0
M  V30 1151 H 123.096 0.245362 -4.60647 0
M  V30 1152 H 121.339 0.161398 -4.335 0
M  V30 1153 H 122.01 1.46286 -5.32264 0
M  V30 1154 H 124.486 2.18983 -3.53816 0
M  V30 1155 H 123.362 3.2569 -4.41834 0
M  V30 1156 H 123.623 3.5018 -2.69864 0
M  V30 1157 N 122.682 1.50554 0.465978 0
M  V30 1158 C 123.645 1.69233 1.54574 0
M  V30 1159 C 124.645 0.562901 1.50626 0
M  V30 1160 O 125.835 0.830016 1.53155 0
M  V30 1161 C 122.967 1.7223 2.94193 0
M  V30 1162 H 124.16 2.65571 1.39327 0
M  V30 1163 H 121.713 1.40111 0.692711 0
M  V30 1164 H 122.448 0.77603 3.14878 0
M  V30 1165 H 122.233 2.54285 2.98466 0
M  V30 1166 H 123.723 1.88618 3.72576 0
M  V30 1167 N 124.16 -0.719506 1.40217 0
M  V30 1168 C 125.571 -1.29848 1.34151 0
M  V30 1169 C 125.922 -1.96196 0.0131349 0
M  V30 1170 O 125.047 -1.973 -0.88892 0
M  V30 1171 C 125.642 -2.36118 2.42968 0
M  V30 1172 C 124.201 -2.8965 2.40374 0
M  V30 1173 C 123.348 -1.63393 2.24049 0
M  V30 1174 H 126.299 -0.51591 1.5008 0
M  V30 1175 H 126.32 -3.16871 2.10649 0
M  V30 1176 H 125.832 -1.878 3.39636 0
M  V30 1177 H 123.933 -3.42208 1.47392 0
M  V30 1178 H 124.046 -3.4171 3.35814 0
M  V30 1179 H 122.41 -1.88312 1.71495 0
M  V30 1180 H 123.193 -1.17104 3.2271 0
M  V30 1181 N 125.638 -1.25649 -0.95132 0
M  V30 1182 C 126.586 -1.06118 -2.06982 0
M  V30 1183 C 127.58 0.00889169 -1.69398 0
M  V30 1184 O 128.786 -0.146988 -1.79399 0
M  V30 1185 H 125.161 -0.326248 -0.677544 0
M  V30 1186 H 127.132 -2.00932 -2.2061 0
M  V30 1187 C 125.881 -0.700145 -3.40578 0
M  V30 1188 H 125.204 -1.51537 -3.69968 0
M  V30 1189 H 126.644 -0.603211 -4.19687 0
M  V30 1190 C 125.103 0.59403 -3.31622 0
M  V30 1191 O 125.633 1.63522 -3.66911 0
M  V30 1192 N 123.839 0.58089 -2.84735 0
M  V30 1193 H 123.386 -0.266783 -2.56215 0
M  V30 1194 H 123.344 1.44695 -2.79125 0
M  V30 1195 N 127.117 1.15442 -1.07289 0
M  V30 1196 C 128.363 1.86489 -0.796846 0
M  V30 1197 C 128.696 1.82078 0.675371 0
M  V30 1198 O 127.971 1.24346 1.4956 0
M  V30 1199 C 128.254 3.35626 -1.30489 0
M  V30 1200 C 128.107 3.48673 -2.84161 0
M  V30 1201 C 129.426 4.30357 -0.920907 0
M  V30 1202 H 126.545 0.677144 -0.290939 0
M  V30 1203 H 129.187 1.35633 -1.33056 0
M  V30 1204 H 127.337 3.79068 -0.850883 0
M  V30 1205 H 129.009 3.14099 -3.37846 0
M  V30 1206 H 127.252 2.90253 -3.22391 0
M  V30 1207 H 127.923 4.53453 -3.14777 0
M  V30 1208 H 130.399 3.94871 -1.3121 0
M  V30 1209 H 129.275 5.33193 -1.30372 0
M  V30 1210 H 129.536 4.4176 0.173226 0
M  V30 1211 N 128.595 0.856903 1.32268 0
M  V30 1212 C 129.82 0.474569 2.01897 0
M  V30 1213 C 130.245 -0.921766 1.63967 0
M  V30 1214 O 129.603 -1.60589 0.84148 0
M  V30 1215 C 129.651 0.623799 3.55164 0
M  V30 1216 O 128.755 -0.342459 4.10976 0
M  V30 1217 H 128.096 0.190422 0.63611 0
M  V30 1218 H 130.626 1.15672 1.68764 0
M  V30 1219 H 130.636 0.512169 4.04773 0
M  V30 1220 H 129.311 1.64202 3.82113 0
M  V30 1221 H 127.888 -0.18688 3.72431 0
M  V30 1222 N 130.073 -1.45103 0.615059 0
M  V30 1223 C 131.003 -2.33339 -0.0865619 0
M  V30 1224 C 131.984 -1.4727 -0.851209 0
M  V30 1225 O 133.169 -1.76026 -0.820281 0
M  V30 1226 C 130.299 -3.30095 -1.07956 0
M  V30 1227 C 129.253 -4.25858 -0.427628 0
M  V30 1228 C 128.579 -5.12361 -1.5294 0
M  V30 1229 C 129.879 -5.18165 0.655944 0
M  V30 1230 H 131.573 -2.92254 0.650224 0
M  V30 1231 H 129.119 -1.40532 0.314138 0
M  V30 1232 H 131.072 -3.90698 -1.57901 0
M  V30 1233 H 129.796 -2.69355 -1.84703 0
M  V30 1234 H 128.455 -3.66564 0.0510292 0
M  V30 1235 H 128.103 -4.47984 -2.28734 0
M  V30 1236 H 127.803 -5.77238 -1.09865 0
M  V30 1237 H 129.327 -5.75833 -2.03098 0
M  V30 1238 H 130.741 -5.72796 0.240257 0
M  V30 1239 H 129.138 -5.91559 1.00888 0
M  V30 1240 H 130.208 -4.60144 1.52957 0
M  V30 1241 N 131.551 -0.354651 -1.53558 0
M  V30 1242 C 132.781 0.239167 -2.05211 0
M  V30 1243 C 133.189 1.43879 -1.22863 0
M  V30 1244 O 132.532 1.81857 -0.259565 0
M  V30 1245 C 132.594 0.707251 -3.52474 0
M  V30 1246 C 132.258 -0.374212 -4.55465 0
M  V30 1247 C 133.255 -1.22054 -5.0537 0
M  V30 1248 C 130.94 -0.531323 -4.99482 0
M  V30 1249 C 132.934 -2.20942 -5.97882 0
M  V30 1250 C 130.621 -1.52358 -5.91802 0
M  V30 1251 C 131.619 -2.36108 -6.40892 0
M  V30 1252 O 131.307 -3.33643 -7.31394 0
M  V30 1253 H 131.039 0.0479716 -0.674296 0
M  V30 1254 H 133.593 -0.508121 -1.99016 0
M  V30 1255 H 131.823 1.50596 -3.56171 0
M  V30 1256 H 133.512 1.22285 -3.87042 0
M  V30 1257 H 134.278 -1.1103 -4.7212 0
M  V30 1258 H 130.157 0.110738 -4.60867 0
M  V30 1259 H 133.701 -2.86348 -6.36121 0
M  V30 1260 H 129.598 -1.63434 -6.24467 0
M  V30 1261 H 130.366 -3.29244 -7.4936 0
M  V30 1262 N 133.029 1.57378 -0.0835403 0
M  V30 1263 C 133.992 2.12252 0.864959 0
M  V30 1264 C 134.992 1.04916 1.21858 0
M  V30 1265 O 136.182 1.30853 1.14991 0
M  V30 1266 C 133.314 2.63358 2.16461 0
M  V30 1267 H 134.507 2.97371 0.388676 0
M  V30 1268 H 132.06 1.55423 0.165317 0
M  V30 1269 H 132.795 1.81727 2.686 0
M  V30 1270 H 132.58 3.41826 1.92087 0
M  V30 1271 H 134.07 3.05847 2.84337 0
M  V30 1272 N 134.507 -0.190092 1.56449 0
M  V30 1273 C 135.756 -0.907912 1.80111 0
M  V30 1274 C 136.069 -1.84214 0.657619 0
M  V30 1275 O 137.275 -2.60094 0.778663 0
M  V30 1276 C 135.731 -1.66485 3.19078 0
M  V30 1277 C 135.339 -0.7752 4.41242 0
M  V30 1278 C 137.083 -2.37201 3.52045 0
M  V30 1279 C 134.99 -1.53129 5.71231 0
M  V30 1280 H 133.92 -0.34276 0.671589 0
M  V30 1281 H 136.571 -0.161109 1.82791 0
M  V30 1282 H 134.953 -2.45572 3.10661 0
M  V30 1283 H 136.127 -0.0226298 4.60794 0
M  V30 1284 H 134.442 -0.178627 4.16017 0
M  V30 1285 H 137.039 -2.94329 4.46402 0
M  V30 1286 H 137.382 -3.11632 2.76028 0
M  V30 1287 H 137.915 -1.65075 3.61932 0
M  V30 1288 H 134.654 -0.82967 6.50228 0
M  V30 1289 H 134.174 -2.25767 5.55688 0
M  V30 1290 H 135.853 -2.08377 6.12526 0
M  V30 1291 N 135.985 -1.50799 -0.457987 0
M  V30 1292 C 136.932 -1.70617 -1.5543 0
M  V30 1293 C 137.902 -0.547562 -1.56815 0
M  V30 1294 O 139.087 -0.779647 -1.74144 0
M  V30 1295 C 136.227 -1.81831 -2.93311 0
M  V30 1296 C 135.34 -3.09278 -3.01615 0
M  V30 1297 C 134.475 -3.11209 -4.30491 0
M  V30 1298 C 133.514 -4.33055 -4.32585 0
M  V30 1299 N 132.651 -4.32652 -5.52952 0
M  V30 1300 H 137.491 -2.64207 -1.37836 0
M  V30 1301 H 135.028 -1.30959 -0.669937 0
M  V30 1302 H 136.986 -1.86314 -3.73287 0
M  V30 1303 H 135.616 -0.916685 -3.0951 0
M  V30 1304 H 134.668 -3.14203 -2.1443 0
M  V30 1305 H 135.98 -3.99233 -2.99022 0
M  V30 1306 H 135.134 -3.14494 -5.18824 0
M  V30 1307 H 133.873 -2.19106 -4.35711 0
M  V30 1308 H 132.878 -4.29969 -3.42647 0
M  V30 1309 H 134.103 -5.264 -4.29046 0
M  V30 1310 H 132.049 -3.43409 -5.58933 0
M  V30 1311 H 131.966 -5.16392 -5.52155 0
M  V30 1312 H 133.234 -4.40101 -6.43375 0
M  V30 1313 N 137.463 0.71206 -1.40597 0
M  V30 1314 C 138.709 1.47416 -1.39271 0
M  V30 1315 C 139.042 1.942 0.00388791 0
M  V30 1316 O 138.317 1.68403 0.973179 0
M  V30 1317 C 138.6 2.69774 -2.38525 0
M  V30 1318 C 138.453 2.28861 -3.87224 0
M  V30 1319 C 139.772 3.71939 -2.35264 0
M  V30 1320 H 136.891 0.534713 -0.5072 0
M  V30 1321 H 139.533 0.812375 -1.71757 0
M  V30 1322 H 137.683 3.26238 -2.10953 0
M  V30 1323 H 139.355 1.77852 -4.25636 0
M  V30 1324 H 137.598 1.60824 -4.02887 0
M  V30 1325 H 138.269 3.16584 -4.52193 0
M  V30 1326 H 140.745 3.25113 -2.59694 0
M  V30 1327 H 139.621 4.55186 -3.06753 0
M  V30 1328 H 139.882 4.20484 -1.36549 0
M  V30 1329 N 138.941 1.26152 0.944643 0
M  V30 1330 C 139.871 1.09902 2.06019 0
M  V30 1331 C 140.852 0.00519538 1.70099 0
M  V30 1332 O 142.037 0.176583 1.93396 0
M  V30 1333 C 139.167 0.727562 3.39594 0
M  V30 1334 C 138.121 1.77274 3.89561 0
M  V30 1335 C 137.447 1.25569 5.19747 0
M  V30 1336 C 138.747 3.17357 4.14827 0
M  V30 1337 H 140.441 2.03217 2.19871 0
M  V30 1338 H 137.987 0.978452 1.05652 0
M  V30 1339 H 139.94 0.600777 4.17095 0
M  V30 1340 H 138.664 -0.241287 3.25707 0
M  V30 1341 H 137.323 1.88814 3.14237 0
M  V30 1342 H 136.971 0.276783 5.02238 0
M  V30 1343 H 136.671 1.95433 5.54148 0
M  V30 1344 H 138.195 1.1415 5.99835 0
M  V30 1345 H 139.609 3.08914 4.82954 0
M  V30 1346 H 138.006 3.84781 4.60504 0
M  V30 1347 H 139.076 3.63673 3.20734 0
M  V30 1348 N 140.419 -1.14872 1.07899 0
M  V30 1349 C 141.367 -2.21857 0.698727 0
M  V30 1350 C 142.361 -1.66845 -0.293086 0
M  V30 1351 O 143.567 -1.79321 -0.156204 0
M  V30 1352 H 139.942 -0.722691 0.207899 0
M  V30 1353 H 141.913 -2.51205 1.61054 0
M  V30 1354 C 140.662 -3.47498 0.11858 0
M  V30 1355 H 139.985 -3.90154 0.872914 0
M  V30 1356 H 141.425 -4.23858 -0.109759 0
M  V30 1357 C 139.884 -3.16947 -1.1422 0
M  V30 1358 O 140.414 -3.3426 -2.22785 0
M  V30 1359 N 138.62 -2.70946 -1.05055 0
M  V30 1360 H 138.167 -2.57058 -0.167038 0
M  V30 1361 H 138.125 -2.50879 -1.89491 0
M  V30 1362 N 141.898 -0.863906 -1.31812 0
M  V30 1363 C 143.123 -0.48527 -2.01643 0
M  V30 1364 C 143.548 0.913058 -1.64453 0
M  V30 1365 O 142.906 1.6014 -0.849985 0
M  V30 1366 C 142.954 -0.642625 -3.54828 0
M  V30 1367 O 142.058 0.320659 -4.11151 0
M  V30 1368 H 141.399 -0.193793 -0.635091 0
M  V30 1369 H 143.929 -1.16565 -1.68148 0
M  V30 1370 H 143.939 -0.533628 -4.04495 0
M  V30 1371 H 142.614 -1.66227 -3.81237 0
M  V30 1372 H 141.191 0.167126 -3.72525 0
M  V30 1373 N 143.376 1.44774 -0.622745 0
M  V30 1374 C 144.601 2.06999 -0.128968 0
M  V30 1375 C 145.026 1.4617 1.1839 0
M  V30 1376 O 144.384 0.560007 1.72434 0
M  V30 1377 C 144.432 3.60595 -0.0188351 0
M  V30 1378 O 143.536 3.99398 1.02739 0
M  V30 1379 H 142.877 0.659047 -0.0809544 0
M  V30 1380 H 145.407 1.85784 -0.85705 0
M  V30 1381 H 145.417 4.07627 0.174476 0
M  V30 1382 H 144.092 4.04252 -0.977384 0
M  V30 1383 H 142.669 3.64011 0.809326 0
M  V30 1384 N 144.854 0.36279 1.53368 0
M  V30 1385 C 146.102 -0.227326 2.00817 0
M  V30 1386 C 146.423 -1.49511 1.25186 0
M  V30 1387 O 145.693 -1.92482 0.364348 0
M  V30 1388 H 144.273 -0.0869923 0.741917 0
M  V30 1389 H 146.935 0.488381 1.88682 0
M  V30 1390 H 146.031 -0.456273 3.08747 0
M  V30 1391 N 146.332 -1.57332 0.0918853 0
M  V30 1392 C 147.557 -1.98995 -0.584442 0
M  V30 1393 C 147.982 -0.970528 -1.61128 0
M  V30 1394 O 147.34 0.0613904 -1.81196 0
M  V30 1395 C 147.388 -3.39636 -1.21161 0
M  V30 1396 O 146.492 -3.40447 -2.32744 0
M  V30 1397 H 145.833 -0.647165 -0.148572 0
M  V30 1398 H 148.363 -2.03873 0.172347 0
M  V30 1399 H 148.373 -3.7726 -1.55367 0
M  V30 1400 H 147.048 -4.13356 -0.459313 0
M  V30 1401 H 145.625 -3.14614 -2.0018 0
M  V30 1402 N 147.81 0.181792 -1.56548 0
M  V30 1403 C 149.058 0.89832 -1.81038 0
M  V30 1404 C 149.379 1.83232 -0.667164 0
M  V30 1405 O 148.649 1.93372 0.313673 0
M  V30 1406 H 147.229 0.33471 -0.667816 0
M  V30 1407 H 149.891 0.184116 -1.94028 0
M  V30 1408 H 148.987 1.4815 -2.74696 0
M  V30 1409 N 149.288 1.51039 0.449983 0
M  V30 1410 C 150.516 1.66869 1.2232 0
M  V30 1411 C 150.931 0.360727 1.85322 0
M  V30 1412 O 150.288 -0.659531 1.70166 0
M  V30 1413 C 150.339 2.77524 2.31652 0
M  V30 1414 O 150.06 4.03252 1.7123 0
M  V30 1415 C 151.561 3.04512 3.2216 0
M  V30 1416 H 148.781 0.560326 0.369155 0
M  V30 1417 H 151.325 1.97385 0.534719 0
M  V30 1418 H 149.48 2.49642 2.96239 0
M  V30 1419 H 149.894 4.64609 2.43389 0
M  V30 1420 H 151.368 3.85551 3.95038 0
M  V30 1421 H 151.845 2.16415 3.8218 0
M  V30 1422 H 152.451 3.34005 2.63288 0
M  V30 1423 N 150.766 -0.704594 1.40972 0
M  V30 1424 C 151.996 -1.49138 1.42974 0
M  V30 1425 C 152.404 -1.89175 0.0308406 0
M  V30 1426 O 151.747 -1.56734 -0.958138 0
M  V30 1427 C 151.809 -2.79016 2.26694 0
M  V30 1428 C 151.473 -2.61236 3.74973 0
M  V30 1429 C 152.47 -2.27773 4.67349 0
M  V30 1430 C 150.155 -2.77158 4.18914 0
M  V30 1431 C 152.149 -2.10457 6.01653 0
M  V30 1432 C 149.836 -2.59459 5.53285 0
M  V30 1433 C 150.834 -2.26158 6.4447 0
M  V30 1434 O 150.522 -2.08605 7.76363 0
M  V30 1435 H 150.254 -0.466443 0.489292 0
M  V30 1436 H 152.808 -0.8758 1.85793 0
M  V30 1437 H 151.038 -3.42947 1.78673 0
M  V30 1438 H 152.727 -3.40782 2.20504 0
M  V30 1439 H 153.493 -2.15095 4.34694 0
M  V30 1440 H 149.372 -3.02064 3.48251 0
M  V30 1441 H 152.916 -1.84387 6.72791 0
M  V30 1442 H 148.813 -2.71725 5.85522 0
M  V30 1443 H 149.581 -2.23439 7.87412 0
M  V30 1444 N 152.244 -1.26651 -0.937939 0
M  V30 1445 C 153.469 -1.15279 -1.72411 0
M  V30 1446 C 153.894 0.287866 -1.85884 0
M  V30 1447 O 153.252 1.20855 -1.35143 0
M  V30 1448 C 153.3 -1.83028 -3.10698 0
M  V30 1449 O 152.404 -1.12128 -3.96864 0
M  V30 1450 H 151.745 -0.401504 -0.528858 0
M  V30 1451 H 154.275 -1.67531 -1.1745 0
M  V30 1452 H 154.285 -1.89981 -3.6107 0
M  V30 1453 H 152.96 -2.87833 -3.00208 0
M  V30 1454 H 151.537 -1.13173 -3.55312 0
M  V30 1455 N 153.722 1.14298 -1.08507 0
M  V30 1456 C 154.685 2.17607 -0.719711 0
M  V30 1457 C 155.685 1.58907 0.245997 0
M  V30 1458 O 156.875 1.74181 0.0254081 0
M  V30 1459 C 154.007 3.40842 -0.0627695 0
M  V30 1460 H 155.2 2.51443 -1.63452 0
M  V30 1461 H 152.753 1.28963 -0.88307 0
M  V30 1462 H 153.488 3.12587 0.863716 0
M  V30 1463 H 153.273 3.84713 -0.757504 0
M  V30 1464 H 154.763 4.17221 0.177786 0
M  V30 1465 N 155.201 0.870884 1.31352 0
M  V30 1466 C 156.45 0.478408 1.95944 0
M  V30 1467 C 156.763 -0.974493 1.69597 0
M  V30 1468 O 157.969 -1.47316 2.28058 0
M  V30 1469 C 156.425 0.804609 3.50791 0
M  V30 1470 C 156.033 2.27433 3.85977 0
M  V30 1471 C 157.777 0.480648 4.2177 0
M  V30 1472 C 155.684 2.5429 5.33939 0
M  V30 1473 H 154.614 0.175175 0.733369 0
M  V30 1474 H 157.265 1.06391 1.4951 0
M  V30 1475 H 155.647 0.148347 3.95722 0
M  V30 1476 H 156.821 2.97373 3.52002 0
M  V30 1477 H 155.136 2.56442 3.28065 0
M  V30 1478 H 157.733 0.658519 5.30629 0
M  V30 1479 H 158.076 -0.578979 4.12254 0
M  V30 1480 H 158.609 1.09349 3.82476 0
M  V30 1481 H 155.348 3.58939 5.48491 0
M  V30 1482 H 154.868 1.88945 5.69263 0
M  V30 1483 H 156.547 2.39066 6.01212 0
M  V30 1484 N 156.679 -1.44442 0.630414 0
M  V30 1485 C 157.925 -2.02351 0.134816 0
M  V30 1486 C 158.258 -1.4947 -1.23986 0
M  V30 1487 O 157.533 -0.678475 -1.82283 0
M  V30 1488 C 157.816 -3.59898 0.120707 0
M  V30 1489 C 157.669 -4.23063 1.52767 0
M  V30 1490 C 158.988 -4.36585 -0.555127 0
M  V30 1491 H 156.107 -0.73527 0.0504646 0
M  V30 1492 H 158.749 -1.72022 0.806751 0
M  V30 1493 H 156.899 -3.85868 -0.451477 0
M  V30 1494 H 158.571 -4.08202 2.14869 0
M  V30 1495 H 156.814 -3.80586 2.08175 0
M  V30 1496 H 157.485 -5.32071 1.46984 0
M  V30 1497 H 159.961 -4.16044 -0.0685429 0
M  V30 1498 H 158.837 -5.46294 -0.534185 0
M  V30 1499 H 159.098 -4.11138 -1.62535 0
M  V30 1500 N 158.157 -0.370918 -1.53173 0
M  V30 1501 C 159.382 0.220293 -2.06227 0
M  V30 1502 C 159.807 1.41243 -1.24225 0
M  V30 1503 O 159.165 1.79387 -0.262645 0
M  V30 1504 C 159.213 0.586663 -3.55796 0
M  V30 1505 O 158.317 1.68317 -3.76488 0
M  V30 1506 H 157.658 0.0308099 -0.663285 0
M  V30 1507 H 160.188 -0.533068 -1.97534 0
M  V30 1508 H 160.198 0.85617 -3.98916 0
M  V30 1509 H 158.873 -0.285013 -4.14922 0
M  V30 1510 H 157.45 1.40881 -3.45264 0
M  V30 1511 N 159.635 1.57281 -0.100228 0
M  V30 1512 C 160.883 1.94153 0.561157 0
M  V30 1513 C 161.204 0.983157 1.68401 0
M  V30 1514 O 160.474 0.0361132 1.95867 0
M  V30 1515 H 159.054 0.716791 0.210283 0
M  V30 1516 H 161.716 1.94202 -0.164765 0
M  V30 1517 H 160.812 2.96709 0.968008 0
M  V30 1518 N 161.113 -0.173488 1.56642 0
M  V30 1519 C 162.362 -0.888758 1.81063 0
M  V30 1520 C 162.675 -1.83506 0.67712 0
M  V30 1521 O 163.881 -2.59254 0.806206 0
M  V30 1522 C 162.337 -1.63091 3.20826 0
M  V30 1523 C 161.945 -0.728357 4.4204 0
M  V30 1524 C 163.689 -2.33454 3.54541 0
M  V30 1525 C 161.596 -1.47062 5.72823 0
M  V30 1526 H 160.526 -0.335618 0.675186 0
M  V30 1527 H 163.177 -0.141712 1.82952 0
M  V30 1528 H 161.559 -2.42263 3.13248 0
M  V30 1529 H 162.733 0.0262449 4.60793 0
M  V30 1530 H 161.048 -0.134492 4.16183 0
M  V30 1531 H 163.645 -2.89578 4.49498 0
M  V30 1532 H 163.988 -3.08687 2.79317 0
M  V30 1533 H 164.521 -1.61227 3.63663 0
M  V30 1534 H 161.26 -0.760658 6.51072 0
M  V30 1535 H 160.78 -2.1986 5.58052 0
M  V30 1536 H 162.459 -2.01868 6.14702 0
M  V30 1537 N 162.591 -1.51276 -0.441967 0
M  V30 1538 C 163.501 -1.75092 -1.56141 0
M  V30 1539 C 164.517 -0.634963 -1.62001 0
M  V30 1540 O 165.693 -0.916686 -1.79329 0
M  V30 1541 C 162.758 -1.86666 -2.92158 0
M  V30 1542 C 161.819 -3.10506 -2.96453 0
M  V30 1543 C 161.052 -3.21519 -4.25982 0
M  V30 1544 O 161.275 -2.38586 -5.18105 0
M  V30 1545 O 160.209 -4.14465 -4.36466 0
M  V30 1546 H 164.035 -2.70044 -1.38961 0
M  V30 1547 H 161.62 -1.35722 -0.624499 0
M  V30 1548 H 163.502 -1.96292 -3.72891 0
M  V30 1549 H 162.177 -0.949014 -3.09476 0
M  V30 1550 H 161.084 -3.06363 -2.14692 0
M  V30 1551 H 162.417 -4.01945 -2.84079 0
M  V30 1552 N 164.069 0.697108 -1.41344 0
M  V30 1553 C 165.315 1.45796 -1.41828 0
M  V30 1554 C 165.67 1.92382 -0.0261743 0
M  V30 1555 O 164.963 1.66522 0.947688 0
M  V30 1556 C 165.157 2.68553 -2.35826 0
M  V30 1557 C 164.986 2.33975 -3.84039 0
M  V30 1558 C 163.756 2.24414 -4.52732 0
M  V30 1559 C 165.954 1.97048 -4.75054 0
M  V30 1560 N 163.936 1.82705 -5.86082 0
M  V30 1561 C 165.307 1.66086 -5.9734 0
M  V30 1562 C 167.362 1.83845 -4.62715 0
M  V30 1563 C 166.065 1.23246 -7.08663 0
M  V30 1564 C 168.091 1.4241 -5.73998 0
M  V30 1565 C 167.453 1.12357 -6.95381 0
M  V30 1566 H 163.552 0.530859 -0.574206 0
M  V30 1567 H 166.136 0.806674 -1.77203 0
M  V30 1568 H 164.307 3.31404 -2.02549 0
M  V30 1569 H 166.039 3.35015 -2.2704 0
M  V30 1570 H 162.794 2.4276 -4.0665 0
M  V30 1571 H 163.218 1.64337 -6.56751 0
M  V30 1572 H 167.86 2.05734 -3.69369 0
M  V30 1573 H 165.578 1.00102 -8.01876 0
M  V30 1574 H 169.164 1.32746 -5.66454 0
M  V30 1575 H 168.044 0.807795 -7.80028 0
M  V30 1576 N 165.547 1.27147 0.931209 0
M  V30 1577 C 166.51 1.09615 2.01289 0
M  V30 1578 C 167.51 0.0412581 1.60747 0
M  V30 1579 O 168.7 0.285545 1.71844 0
M  V30 1580 C 165.832 0.669447 3.34262 0
M  V30 1581 H 167.025 2.05662 2.18273 0
M  V30 1582 H 164.578 1.09885 1.11153 0
M  V30 1583 H 165.313 -0.292572 3.22978 0
M  V30 1584 H 165.098 1.43127 3.65044 0
M  V30 1585 H 166.588 0.568921 4.13706 0
M  V30 1586 N 167.025 -1.13721 1.09112 0
M  V30 1587 C 168.253 -1.88773 0.846899 0
M  V30 1588 C 168.668 -1.7896 -0.601572 0
M  V30 1589 O 168.025 -1.15394 -1.41388 0
M  V30 1590 C 168.076 -3.3849 1.26913 0
M  V30 1591 O 167.797 -3.48043 2.66079 0
M  V30 1592 C 169.298 -4.30518 1.05682 0
M  V30 1593 H 166.518 -0.59772 0.304914 0
M  V30 1594 H 169.062 -1.43977 1.45227 0
M  V30 1595 H 167.217 -3.80881 0.707723 0
M  V30 1596 H 167.631 -4.4109 2.83795 0
M  V30 1597 H 169.105 -5.3391 1.40156 0
M  V30 1598 H 169.582 -4.392 -0.00563416 0
M  V30 1599 H 170.188 -3.93893 1.60402 0
M  V30 1600 N 168.503 -0.877838 -1.30888 0
M  V30 1601 C 169.435 -0.296607 -2.27273 0
M  V30 1602 C 170.448 0.544799 -1.53414 0
M  V30 1603 O 171.637 0.365511 -1.74718 0
M  V30 1604 C 168.737 0.597481 -3.33592 0
M  V30 1605 C 167.91 -0.213251 -4.3688 0
M  V30 1606 C 166.969 0.610208 -5.2265 0
M  V30 1607 O 165.995 0.035441 -5.69189 0
M  V30 1608 N 167.197 1.92071 -5.47804 0
M  V30 1609 H 169.962 -1.12492 -2.77787 0
M  V30 1610 H 167.523 -0.740105 -1.43993 0
M  V30 1611 H 169.515 1.15425 -3.87891 0
M  V30 1612 H 168.085 1.32647 -2.83061 0
M  V30 1613 H 167.305 -0.951466 -3.82545 0
M  V30 1614 H 168.593 -0.769262 -5.02951 0
M  V30 1615 H 167.991 2.4107 -5.11763 0
M  V30 1616 H 166.548 2.42508 -6.05007 0
M  V30 1617 N 169.982 1.44106 -0.638065 0
M  V30 1618 C 170.93 2.3248 0.0748149 0
M  V30 1619 C 171.924 1.47746 0.828702 0
M  V30 1620 O 173.13 1.64049 0.740816 0
M  V30 1621 H 169.505 0.750771 0.0429686 0
M  V30 1622 H 171.476 2.90348 -0.688504 0
M  V30 1623 C 170.225 3.31843 1.03805 0
M  V30 1624 H 169.548 3.97059 0.467375 0
M  V30 1625 H 170.988 3.96345 1.50622 0
M  V30 1626 C 169.447 2.61291 2.1267 0
M  V30 1627 O 169.977 2.41702 3.20847 0
M  V30 1628 N 168.183 2.20915 1.88798 0
M  V30 1629 H 167.73 2.37047 1.00829 0
M  V30 1630 H 167.688 1.74038 2.61836 0
M  V30 1631 N 171.46 0.379036 1.52974 0
M  V30 1632 C 172.708 -0.206014 2.01047 0
M  V30 1633 C 173.029 -1.48175 1.26765 0
M  V30 1634 O 172.299 -1.92085 0.384743 0
M  V30 1635 H 170.879 -0.0791184 0.742798 0
M  V30 1636 H 173.541 0.508366 1.88153 0
M  V30 1637 H 172.637 -0.423501 3.09213 0
M  V30 1638 N 172.938 -1.57226 0.108567 0
M  V30 1639 C 173.868 -2.17778 -0.84232 0
M  V30 1640 C 174.849 -1.11487 -1.2847 0
M  V30 1641 O 176.034 -1.39681 -1.34918 0
M  V30 1642 C 173.164 -2.76888 -2.09644 0
M  V30 1643 C 172.118 -3.88669 -1.79221 0
M  V30 1644 C 171.444 -4.34541 -3.11574 0
M  V30 1645 C 172.744 -5.11251 -1.06864 0
M  V30 1646 H 174.438 -2.97489 -0.337774 0
M  V30 1647 H 171.984 -1.43097 -0.161025 0
M  V30 1648 H 173.937 -3.17904 -2.76614 0
M  V30 1649 H 172.661 -1.94451 -2.62405 0
M  V30 1650 H 171.32 -3.48213 -1.14644 0
M  V30 1651 H 170.968 -3.48977 -3.62249 0
M  V30 1652 H 170.668 -5.09914 -2.91996 0
M  V30 1653 H 172.192 -4.782 -3.7968 0
M  V30 1654 H 173.606 -5.49352 -1.63968 0
M  V30 1655 H 172.003 -5.9214 -0.974178 0
M  V30 1656 H 173.073 -4.8487 -0.0536168 0
M  V30 1657 N 174.416 0.165178 -1.56732 0
M  V30 1658 C 175.693 0.908443 -1.73224 0
M  V30 1659 C 176.073 2.0013 -0.67165 0
M  V30 1660 O 175.421 2.26353 0.31253 0
M  V30 1661 C 175.631 1.46756 -3.16644 0
M  V30 1662 C 176.979 1.93809 -3.77787 0
M  V30 1663 O 178.003 1.56537 -3.1996 0
M  V30 1664 O 176.862 2.62486 -4.79336 0
M  V30 1665 H 173.956 0.428025 -0.707618 0
M  V30 1666 H 176.502 0.152526 -1.69013 0
M  V30 1667 H 175.274 0.68129 -3.85323 0
M  V30 1668 H 174.897 2.28749 -3.25207 0
M  V30 1669 N 175.894 1.51508 0.433938 0
M  V30 1670 C 177.14 1.64588 1.18484 0
M  V30 1671 C 177.473 0.362666 1.90784 0
M  V30 1672 O 176.748 -0.637892 1.83742 0
M  V30 1673 C 177.031 2.85149 2.19913 0
M  V30 1674 C 176.884 4.23456 1.51674 0
M  V30 1675 C 178.203 3.01227 3.20858 0
M  V30 1676 H 175.322 0.598994 0.429389 0
M  V30 1677 H 177.964 1.84002 0.473647 0
M  V30 1678 H 176.114 2.68729 2.80566 0
M  V30 1679 H 177.786 4.51552 0.943322 0
M  V30 1680 H 176.029 4.25998 0.819035 0
M  V30 1681 H 176.7 5.03812 2.2556 0
M  V30 1682 H 179.176 3.16382 2.70263 0
M  V30 1683 H 178.052 3.87141 3.89118 0
M  V30 1684 H 178.313 2.13447 3.8716 0
M  V30 1685 N 177.372 -0.689602 1.41712 0
M  V30 1686 C 178.621 -1.44534 1.40686 0
M  V30 1687 C 178.934 -1.95588 0.0213352 0
M  V30 1688 O 180.14 -2.71271 -0.111534 0
M  V30 1689 C 178.596 -2.61387 2.47396 0
M  V30 1690 C 178.204 -2.17094 3.91885 0
M  V30 1691 C 179.948 -3.38986 2.55517 0
M  V30 1692 C 177.855 -3.3094 4.90135 0
M  V30 1693 H 176.785 -0.542925 0.52321 0
M  V30 1694 H 179.436 -0.748054 1.6756 0
M  V30 1695 H 177.818 -3.33412 2.13664 0
M  V30 1696 H 178.992 -1.52318 4.34897 0
M  V30 1697 H 177.307 -1.52473 3.8748 0
M  V30 1698 H 179.904 -4.23747 3.26102 0
M  V30 1699 H 180.247 -3.84578 1.59391 0
M  V30 1700 H 180.78 -2.74021 2.8837 0
M  V30 1701 H 177.519 -2.90355 5.87685 0
M  V30 1702 H 177.039 -3.94546 4.51767 0
M  V30 1703 H 178.718 -3.9663 5.11169 0
M  V30 1704 N 178.85 -1.27639 -0.924453 0
M  V30 1705 C 179.798 -1.10485 -2.04685 0
M  V30 1706 C 180.792 -0.0270421 -1.69378 0
M  V30 1707 O 181.998 -0.185008 -1.79047 0
M  V30 1708 H 178.373 -0.340546 -0.670472 0
M  V30 1709 H 180.344 -2.05566 -2.16298 0
M  V30 1710 C 179.093 -0.772229 -3.39016 0
M  V30 1711 H 178.416 -1.59351 -3.66671 0
M  V30 1712 H 179.856 -0.692097 -4.18313 0
M  V30 1713 C 178.315 0.523554 -3.32807 0
M  V30 1714 O 178.845 1.55702 -3.70297 0
M  V30 1715 N 177.051 0.520363 -2.85903 0
M  V30 1716 H 176.598 -0.32107 -2.55591 0
M  V30 1717 H 176.556 1.38742 -2.82131 0
M  V30 1718 N 180.328 1.1314 -1.09713 0
M  V30 1719 C 181.261 2.17735 -0.683137 0
M  V30 1720 C 182.239 1.59582 0.311841 0
M  V30 1721 O 183.423 1.87298 0.212514 0
M  V30 1722 C 180.55 3.38699 -0.00684324 0
M  V30 1723 C 179.596 4.1546 -0.964102 0
M  V30 1724 S 180.429 4.74733 -2.47767 0
M  V30 1725 C 181.585 5.9904 -1.81387 0
M  V30 1726 H 181.818 2.52515 -1.56918 0
M  V30 1727 H 179.351 1.24484 -0.913404 0
M  V30 1728 H 181.309 4.08765 0.377044 0
M  V30 1729 H 179.97 3.02214 0.85589 0
M  V30 1730 H 179.163 5.02093 -0.43803 0
M  V30 1731 H 178.765 3.51066 -1.28953 0
M  V30 1732 H 181.057 6.67846 -1.13967 0
M  V30 1733 H 182 6.56261 -2.65947 0
M  V30 1734 H 182.408 5.4976 -1.28155 0
M  V30 1735 N 181.806 0.884767 1.30421 0
M  V30 1736 C 183.031 0.517288 2.00845 0
M  V30 1737 C 183.456 -0.886779 1.65885 0
M  V30 1738 O 182.814 -1.58768 0.875354 0
M  V30 1739 C 182.862 0.698994 3.5376 0
M  V30 1740 O 181.966 -0.255208 4.1161 0
M  V30 1741 H 181.307 0.203872 0.631927 0
M  V30 1742 H 183.837 1.19225 1.66272 0
M  V30 1743 H 183.847 0.597912 4.03595 0
M  V30 1744 H 182.522 1.72271 3.78544 0
M  V30 1745 H 181.099 -0.10784 3.72744 0
M  V30 1746 N 183.284 -1.43765 0.645699 0
M  V30 1747 C 184.214 -2.33471 -0.0370477 0
M  V30 1748 C 185.195 -1.49042 -0.819779 0
M  V30 1749 O 186.38 -1.77726 -0.782758 0
M  V30 1750 C 183.51 -3.32311 -1.0093 0
M  V30 1751 C 182.464 -4.2667 -0.337201 0
M  V30 1752 C 181.79 -5.1549 -1.42037 0
M  V30 1753 C 183.09 -5.16657 0.765706 0
M  V30 1754 H 184.784 -2.90809 0.712069 0
M  V30 1755 H 182.33 -1.39834 0.343876 0
M  V30 1756 H 184.283 -3.9396 -1.49578 0
M  V30 1757 H 183.007 -2.73213 -1.78948 0
M  V30 1758 H 181.666 -3.66374 0.128771 0
M  V30 1759 H 181.314 -4.52735 -2.1918 0
M  V30 1760 H 181.014 -5.79438 -0.975966 0
M  V30 1761 H 182.538 -5.80012 -1.90838 0
M  V30 1762 H 183.952 -5.72158 0.361702 0
M  V30 1763 H 182.349 -5.89286 1.13413 0
M  V30 1764 H 183.419 -4.56796 1.62683 0
M  V30 1765 N 184.763 -0.387143 -1.52771 0
M  V30 1766 C 186.011 0.195349 -2.01154 0
M  V30 1767 C 186.332 1.475 -1.27549 0
M  V30 1768 O 185.602 1.91878 -0.394924 0
M  V30 1769 H 184.182 0.075178 -0.743207 0
M  V30 1770 H 186.844 -0.518337 -1.87881 0
M  V30 1771 H 185.94 0.407096 -3.09434 0
M  V30 1772 N 186.241 1.57166 -0.116904 0
M  V30 1773 C 187.489 1.94737 0.540533 0
M  V30 1774 C 187.81 1.00096 1.67349 0
M  V30 1775 O 187.08 0.0568854 1.95817 0
M  V30 1776 H 185.66 0.718981 0.202669 0
M  V30 1777 H 188.322 1.94017 -0.185353 0
M  V30 1778 H 187.418 2.97719 0.936483 0
M  V30 1779 N 187.719 -0.156864 1.56817 0
M  V30 1780 C 189.13 -0.717916 1.72345 0
M  V30 1781 C 189.481 -1.82124 0.729747 0
M  V30 1782 O 188.606 -2.16141 -0.105781 0
M  V30 1783 C 189.201 -1.30904 3.12489 0
M  V30 1784 C 187.76 -1.81676 3.29653 0
M  V30 1785 C 186.907 -0.701349 2.68284 0
M  V30 1786 H 189.858 0.0686989 1.58551 0
M  V30 1787 H 189.879 -2.17882 3.11942 0
M  V30 1788 H 189.391 -0.505796 3.8479 0
M  V30 1789 H 187.492 -2.64598 2.62333 0
M  V30 1790 H 187.605 -1.95226 4.3752 0
M  V30 1791 H 185.969 -1.12548 2.28484 0
M  V30 1792 H 186.752 0.0902846 3.43181 0
M  V30 1793 N 189.197 -1.51736 -0.425897 0
M  V30 1794 C 190.422 -1.69082 -1.20108 0
M  V30 1795 C 190.847 -0.392398 -1.83962 0
M  V30 1796 O 190.205 0.64858 -1.69302 0
M  V30 1797 C 190.253 -2.81604 -2.25237 0
M  V30 1798 O 189.357 -2.46004 -3.30992 0
M  V30 1799 H 188.698 -0.563408 -0.35138 0
M  V30 1800 H 191.228 -1.98358 -0.501512 0
M  V30 1801 H 191.238 -3.06025 -2.69838 0
M  V30 1802 H 189.913 -3.75817 -1.78142 0
M  V30 1803 H 188.49 -2.32195 -2.91787 0
M  V30 1804 N 190.675 0.682077 -1.42076 0
M  V30 1805 C 191.923 1.4393 -1.41876 0
M  V30 1806 C 192.244 1.94971 -0.0335599 0
M  V30 1807 O 191.514 1.72591 0.926773 0
M  V30 1808 H 190.094 0.534085 -0.522267 0
M  V30 1809 H 192.756 0.806427 -1.77434 0
M  V30 1810 H 191.852 2.29588 -2.11414 0
M  V30 1811 N 192.153 1.28127 0.917671 0
M  V30 1812 C 193.378 1.18007 1.70555 0
M  V30 1813 C 193.803 -0.258257 1.86319 0
M  V30 1814 O 193.161 -1.1869 1.37049 0
M  V30 1815 C 193.209 1.87948 3.07746 0
M  V30 1816 O 192.313 1.18427 3.9503 0
M  V30 1817 H 191.654 0.409867 0.522403 0
M  V30 1818 H 194.184 1.69379 1.1477 0
M  V30 1819 H 194.194 1.95701 3.58001 0
M  V30 1820 H 192.869 2.92573 2.95591 0
M  V30 1821 H 191.446 1.18811 3.53466 0
M  V30 1822 N 193.631 -1.12557 1.10312 0
M  V30 1823 C 194.859 -1.87864 0.866873 0
M  V30 1824 C 195.274 -1.79588 -0.582557 0
M  V30 1825 O 194.631 -1.16887 -1.40156 0
M  V30 1826 C 194.682 -3.37125 1.30496 0
M  V30 1827 O 194.403 -3.45201 2.69755 0
M  V30 1828 C 195.904 -4.29373 1.10243 0
M  V30 1829 H 193.124 -0.594452 0.311236 0
M  V30 1830 H 195.668 -1.42429 1.46745 0
M  V30 1831 H 193.823 -3.80109 0.748081 0
M  V30 1832 H 194.237 -4.38056 2.88457 0
M  V30 1833 H 195.711 -5.32394 1.45811 0
M  V30 1834 H 196.188 -4.39181 0.0409492 0
M  V30 1835 H 196.794 -3.92169 1.64571 0
M  V30 1836 N 195.109 -0.891671 -1.2995 0
M  V30 1837 C 196.072 -0.36828 -2.26222 0
M  V30 1838 C 197.072 0.493014 -1.53056 0
M  V30 1839 O 198.262 0.299213 -1.71611 0
M  V30 1840 C 195.394 0.47442 -3.37583 0
M  V30 1841 H 196.587 -1.21844 -2.74033 0
M  V30 1842 H 194.14 -0.669107 -1.41254 0
M  V30 1843 H 194.875 1.34489 -2.95099 0
M  V30 1844 H 194.66 -0.142615 -3.91841 0
M  V30 1845 H 196.15 0.83218 -4.09224 0
M  V30 1846 N 196.587 1.43421 -0.653314 0
M  V30 1847 C 197.517 2.33487 0.0246656 0
M  V30 1848 C 198.498 1.49475 0.811863 0
M  V30 1849 O 199.683 1.78139 0.773322 0
M  V30 1850 C 196.813 3.32841 0.99166 0
M  V30 1851 C 195.767 4.26842 0.314568 0
M  V30 1852 C 195.093 5.16236 1.39302 0
M  V30 1853 C 196.393 5.16243 -0.793095 0
M  V30 1854 H 198.087 2.90427 -0.727481 0
M  V30 1855 H 195.633 1.39649 -0.351287 0
M  V30 1856 H 197.586 3.94747 1.47487 0
M  V30 1857 H 196.31 2.74158 1.77497 0
M  V30 1858 H 194.969 3.663 -0.148199 0
M  V30 1859 H 194.617 4.53891 2.16776 0
M  V30 1860 H 194.317 5.79948 0.945223 0
M  V30 1861 H 195.841 5.81015 1.87759 0
M  V30 1862 H 197.255 5.71958 -0.392039 0
M  V30 1863 H 195.652 5.88676 -1.16536 0
M  V30 1864 H 196.722 4.55927 -1.65103 0
M  V30 1865 N 198.065 0.39524 1.52563 0
M  V30 1866 C 199.012 -0.437036 2.26624 0
M  V30 1867 C 199.982 -1.05281 1.28472 0
M  V30 1868 O 201.167 -1.07971 1.57311 0
M  V30 1869 C 198.307 -1.55524 3.08069 0
M  V30 1870 C 197.42 -0.961745 4.21158 0
M  V30 1871 C 196.555 -2.05149 4.89987 0
M  V30 1872 C 195.594 -1.4342 5.95061 0
M  V30 1873 N 194.731 -2.46351 6.57462 0
M  V30 1874 H 199.571 0.200976 2.97322 0
M  V30 1875 H 197.108 0.110944 1.46681 0
M  V30 1876 H 199.066 -2.21437 3.53584 0
M  V30 1877 H 197.696 -2.16348 2.3957 0
M  V30 1878 H 196.748 -0.192048 3.79915 0
M  V30 1879 H 198.06 -0.470701 4.96574 0
M  V30 1880 H 197.214 -2.78819 5.38837 0
M  V30 1881 H 195.953 -2.57615 4.14109 0
M  V30 1882 H 194.958 -0.682774 5.45544 0
M  V30 1883 H 196.183 -0.917416 6.72875 0
M  V30 1884 H 194.129 -2.97975 5.8442 0
M  V30 1885 H 194.046 -2.02019 7.28508 0
M  V30 1886 H 195.314 -3.19633 7.10954 0
M  V30 1887 N 199.544 -1.57102 0.125237 0
M  V30 1888 C 200.476 -2.12726 -0.853237 0
M  V30 1889 C 201.489 -1.07145 -1.22571 0
M  V30 1890 O 202.678 -1.34497 -1.17358 0
M  V30 1891 C 199.778 -2.61709 -2.15317 0
M  V30 1892 C 198.951 -3.91456 -1.95143 0
M  V30 1893 C 198.01 -4.25973 -3.08923 0
M  V30 1894 O 197.036 -4.94682 -2.81564 0
M  V30 1895 N 198.238 -3.83795 -4.35524 0
M  V30 1896 H 201.003 -2.97307 -0.377964 0
M  V30 1897 H 198.564 -1.61792 -0.0590011 0
M  V30 1898 H 200.556 -2.81826 -2.90441 0
M  V30 1899 H 199.126 -1.81974 -2.54174 0
M  V30 1900 H 198.346 -3.80185 -1.04177 0
M  V30 1901 H 199.634 -4.76283 -1.78976 0
M  V30 1902 H 199.032 -3.2839 -4.60626 0
M  V30 1903 H 197.589 -4.09008 -5.07499 0
M  V30 1904 N 201.022 0.148545 -1.56898 0
M  V30 1905 C 201.985 1.16736 -1.97244 0
M  V30 1906 C 202.985 1.35947 -0.858777 0
M  V30 1907 O 204.175 1.32966 -1.12542 0
M  V30 1908 C 201.307 2.52798 -2.28705 0
M  V30 1909 H 202.5 0.821279 -2.88435 0
M  V30 1910 H 200.053 0.391831 -1.51309 0
M  V30 1911 H 200.788 2.92381 -1.403 0
M  V30 1912 H 200.573 2.40216 -3.09901 0
M  V30 1913 H 202.063 3.26179 -2.60762 0
M  V30 1914 N 202.5 1.5196 0.417844 0
M  V30 1915 C 203.746 1.65836 1.16732 0
M  V30 1916 C 204.079 0.382881 1.90388 0
M  V30 1917 O 203.354 -0.618368 1.84408 0
M  V30 1918 C 203.637 2.87466 2.16876 0
M  V30 1919 C 203.49 4.25041 1.47174 0
M  V30 1920 C 204.809 3.04613 3.17646 0
M  V30 1921 H 201.928 0.603515 0.423011 0
M  V30 1922 H 204.57 1.84494 0.454105 0
M  V30 1923 H 202.72 2.71689 2.777 0
M  V30 1924 H 204.392 4.52527 0.895376 0
M  V30 1925 H 202.635 4.26843 0.773806 0
M  V30 1926 H 203.306 5.06176 2.20204 0
M  V30 1927 H 205.782 3.1923 2.66892 0
M  V30 1928 H 204.658 3.91247 3.8499 0
M  V30 1929 H 204.919 2.17541 3.84874 0
M  V30 1930 N 203.978 -0.674533 1.42435 0
M  V30 1931 C 205.255 -1.4305 1.33402 0
M  V30 1932 C 205.635 -2.11081 -0.0284674 0
M  V30 1933 O 204.983 -2.03257 -1.04397 0
M  V30 1934 C 205.193 -2.43272 2.50239 0
M  V30 1935 C 206.541 -3.07907 2.92367 0
M  V30 1936 O 207.565 -2.53599 2.50132 0
M  V30 1937 O 206.424 -4.0632 3.65467 0
M  V30 1938 H 203.518 -0.638076 0.526106 0
M  V30 1939 H 206.064 -0.703235 1.54443 0
M  V30 1940 H 204.836 -1.91803 3.41068 0
M  V30 1941 H 204.459 -3.23479 2.31186 0
M  V30 1942 N 205.456 -1.28612 -0.910864 0
M  V30 1943 C 206.403 -1.12786 -2.01365 0
M  V30 1944 C 207.373 -0.024201 -1.66082 0
M  V30 1945 O 208.558 -0.189667 -1.89855 0
M  V30 1946 C 205.698 -0.798743 -3.35729 0
M  V30 1947 C 204.811 -1.98173 -3.83864 0
M  V30 1948 C 203.946 -1.59298 -5.06752 0
M  V30 1949 C 202.985 -2.74245 -5.47226 0
M  V30 1950 N 202.122 -2.35842 -6.61304 0
M  V30 1951 H 206.962 -2.07142 -2.14234 0
M  V30 1952 H 204.499 -1.03093 -1.0493 0
M  V30 1953 H 206.457 -0.588662 -4.13026 0
M  V30 1954 H 205.087 0.10789 -3.2262 0
M  V30 1955 H 204.139 -2.30386 -3.02699 0
M  V30 1956 H 205.451 -2.84343 -4.09818 0
M  V30 1957 H 204.605 -1.34513 -5.916 0
M  V30 1958 H 203.344 -0.702618 -4.82612 0
M  V30 1959 H 202.349 -2.99725 -4.60918 0
M  V30 1960 H 203.574 -3.63928 -5.73353 0
M  V30 1961 H 201.52 -1.49279 -6.38789 0
M  V30 1962 H 201.437 -3.15546 -6.86998 0
M  V30 1963 H 202.705 -2.14348 -7.4945 0
M  V30 1964 N 206.934 1.1197 -1.10907 0
M  V30 1965 C 207.897 2.16031 -0.765707 0
M  V30 1966 C 208.897 1.59393 0.212235 0
M  V30 1967 O 210.087 1.74196 -0.0115441 0
M  V30 1968 C 207.219 3.40632 -0.135053 0
M  V30 1969 H 208.412 2.47919 -1.68748 0
M  V30 1970 H 205.965 1.27061 -0.910226 0
M  V30 1971 H 206.7 3.14348 0.797218 0
M  V30 1972 H 206.485 3.8302 -0.838937 0
M  V30 1973 H 207.975 4.17505 0.0892469 0
M  V30 1974 N 208.412 0.89855 1.29475 0
M  V30 1975 C 209.642 0.538479 1.99459 0
M  V30 1976 C 210.05 -0.880922 1.67441 0
M  V30 1977 O 209.393 -1.59283 0.915127 0
M  V30 1978 C 209.455 0.649564 3.53583 0
M  V30 1979 C 209.119 2.03573 4.09154 0
M  V30 1980 C 210.116 3.00675 4.24135 0
M  V30 1981 C 207.801 2.3448 4.44212 0
M  V30 1982 C 209.795 4.26809 4.73405 0
M  V30 1983 C 207.482 3.60857 4.93179 0
M  V30 1984 C 208.48 4.56836 5.0773 0
M  V30 1985 O 208.168 5.80969 5.55635 0
M  V30 1986 H 207.9 0.205372 0.644048 0
M  V30 1987 H 210.454 1.20958 1.66007 0
M  V30 1988 H 208.684 -0.0785592 3.8662 0
M  V30 1989 H 210.373 0.29881 4.04799 0
M  V30 1990 H 211.139 2.78112 3.97339 0
M  V30 1991 H 207.018 1.60534 4.32145 0
M  V30 1992 H 210.562 5.0173 4.84678 0
M  V30 1993 H 206.459 3.83251 5.19412 0
M  V30 1994 H 207.227 5.83542 5.73952 0
M  V30 1995 N 209.89 -1.43072 0.660911 0
M  V30 1996 C 210.853 -2.29194 -0.0166406 0
M  V30 1997 C 211.853 -1.42609 -0.742912 0
M  V30 1998 O 213.043 -1.64155 -0.583004 0
M  V30 1999 C 210.175 -3.24831 -1.0343 0
M  V30 2000 H 211.368 -2.90596 0.741208 0
M  V30 2001 H 208.921 -1.5048 0.422532 0
M  V30 2002 H 209.656 -2.68339 -1.82111 0
M  V30 2003 H 209.441 -3.88676 -0.517082 0
M  V30 2004 H 210.931 -3.89451 -1.50723 0
M  V30 2005 N 211.368 -0.403325 -1.52352 0
M  V30 2006 C 212.593 0.176499 -2.06648 0
M  V30 2007 C 213.018 1.38577 -1.27193 0
M  V30 2008 O 212.376 1.7879 -0.300637 0
M  V30 2009 C 212.424 0.511061 -3.5696 0
M  V30 2010 O 211.528 1.60294 -3.79973 0
M  V30 2011 H 210.869 0.0167337 -0.663789 0
M  V30 2012 H 213.399 -0.574848 -1.96359 0
M  V30 2013 H 213.409 0.771362 -4.00642 0
M  V30 2014 H 212.084 -0.37296 -4.14224 0
M  V30 2015 H 210.661 1.33526 -3.48174 0
M  V30 2016 N 212.846 1.57033 -0.133567 0
M  V30 2017 C 214.094 1.953 0.519848 0
M  V30 2018 C 214.415 1.01866 1.66278 0
M  V30 2019 O 213.685 0.0776513 1.95746 0
M  V30 2020 H 212.265 0.721091 0.195032 0
M  V30 2021 H 214.927 1.93809 -0.205921 0
M  V30 2022 H 214.023 2.98695 0.904854 0
M  V30 2023 N 214.325 -0.140222 1.56975 0
M  V30 2024 C 215.574 -0.850152 1.82908 0
M  V30 2025 C 215.887 -1.82028 0.715892 0
M  V30 2026 O 217.093 -2.57485 0.861016 0
M  V30 2027 C 215.549 -1.5625 3.24213 0
M  V30 2028 C 215.157 -0.63443 4.43485 0
M  V30 2029 C 216.901 -2.25881 3.59413 0
M  V30 2030 C 214.808 -1.34879 5.75814 0
M  V30 2031 H 213.738 -0.321221 0.682153 0
M  V30 2032 H 216.389 -0.102874 1.83211 0
M  V30 2033 H 214.771 -2.35565 3.18316 0
M  V30 2034 H 215.945 0.12398 4.60633 0
M  V30 2035 H 214.26 -0.0461836 4.16374 0
M  V30 2036 H 216.857 -2.79978 4.5554 0
M  V30 2037 H 217.2 -3.02693 2.85802 0
M  V30 2038 H 217.733 -1.53477 3.67001 0
M  V30 2039 H 214.472 -0.622385 6.52539 0
M  V30 2040 H 213.992 -2.07974 5.6259 0
M  V30 2041 H 215.671 -1.88784 6.18845 0
M  V30 2042 N 215.803 -1.52179 -0.40978 0
M  V30 2043 C 217.049 -1.66453 -1.15851 0
M  V30 2044 C 217.382 -0.392972 -1.90182 0
M  V30 2045 O 216.657 0.608579 -1.84734 0
M  V30 2046 C 216.94 -2.88612 -2.15349 0
M  V30 2047 C 216.793 -4.25815 -1.44918 0
M  V30 2048 C 218.112 -3.06294 -3.16026 0
M  V30 2049 H 215.231 -0.60575 -0.419805 0
M  V30 2050 H 217.873 -1.84732 -0.444314 0
M  V30 2051 H 216.023 -2.73158 -2.76255 0
M  V30 2052 H 217.695 -4.52995 -0.871365 0
M  V30 2053 H 215.938 -4.27247 -0.751159 0
M  V30 2054 H 216.609 -5.07337 -2.17516 0
M  V30 2055 H 219.085 -3.20641 -2.65195 0
M  V30 2056 H 217.961 -3.93283 -3.8291 0
M  V30 2057 H 218.222 -2.19579 -3.83715 0
M  V30 2058 N 217.281 0.66697 -1.42791 0
M  V30 2059 C 218.527 1.4291 -1.43891 0
M  V30 2060 C 218.86 1.94114 -0.0578972 0
M  V30 2061 O 218.135 1.71414 0.91911 0
M  V30 2062 C 218.418 2.62049 -2.46987 0
M  V30 2063 C 218.271 2.16426 -3.94309 0
M  V30 2064 C 219.59 3.64266 -2.46978 0
M  V30 2065 H 216.709 0.518306 -0.523954 0
M  V30 2066 H 219.351 0.757321 -1.74255 0
M  V30 2067 H 217.501 3.19361 -2.21225 0
M  V30 2068 H 219.173 1.64221 -4.31079 0
M  V30 2069 H 217.416 1.47925 -4.078 0
M  V30 2070 H 218.087 3.02038 -4.62036 0
M  V30 2071 H 220.563 3.16686 -2.69906 0
M  V30 2072 H 219.439 4.45196 -3.21079 0
M  V30 2073 H 219.7 4.15927 -1.49857 0
M  V30 2074 N 218.759 1.29093 0.90403 0
M  V30 2075 C 220.005 1.16986 1.65656 0
M  V30 2076 C 220.338 -0.278925 1.92186 0
M  V30 2077 O 219.613 -1.2019 1.5292 0
M  V30 2078 C 219.896 1.97908 3.0084 0
M  V30 2079 C 219.749 3.50903 2.81403 0
M  V30 2080 C 221.068 1.80208 4.01513 0
M  V30 2081 H 218.187 0.426346 0.601164 0
M  V30 2082 H 220.829 1.58518 1.04747 0
M  V30 2083 H 218.979 1.62616 3.52829 0
M  V30 2084 H 220.651 3.96153 2.36348 0
M  V30 2085 H 218.894 3.76045 2.1627 0
M  V30 2086 H 219.565 4.02791 3.77443 0
M  V30 2087 H 222.041 2.11025 3.58619 0
M  V30 2088 H 220.917 2.39184 4.94047 0
M  V30 2089 H 221.178 0.756119 4.35586 0
M  V30 2090 N 220.237 -1.11381 1.11499 0
M  V30 2091 C 221.2 -2.15622 0.777153 0
M  V30 2092 C 222.2 -1.59504 -0.203779 0
M  V30 2093 O 223.39 -1.74188 0.020782 0
M  V30 2094 C 220.522 -3.40556 0.153116 0
M  V30 2095 H 221.715 -2.47021 1.70061 0
M  V30 2096 H 219.268 -1.26577 0.916952 0
M  V30 2097 H 220.003 -3.14767 -0.780536 0
M  V30 2098 H 219.788 -3.8257 0.859238 0
M  V30 2099 H 221.278 -4.17546 -0.0671044 0
M  V30 2100 N 221.715 -0.905404 -1.28997 0
M  V30 2101 C 222.678 -0.392253 -2.25819 0
M  V30 2102 C 223.678 0.476753 -1.5357 0
M  V30 2103 O 224.868 0.280994 -1.71919 0
M  V30 2104 C 222 0.438588 -3.38067 0
M  V30 2105 H 223.193 -1.24743 -2.72725 0
M  V30 2106 H 220.746 -0.684051 -1.40536 0
M  V30 2107 H 221.481 1.31352 -2.96508 0
M  V30 2108 H 221.266 -0.184167 -3.91667 0
M  V30 2109 H 222.756 0.78873 -4.10084 0
M  V30 2110 N 223.193 1.4272 -0.668489 0
M  V30 2111 C 224.156 2.292 0.00448567 0
M  V30 2112 C 225.156 1.43001 0.735339 0
M  V30 2113 O 226.346 1.64461 0.57429 0
M  V30 2114 C 223.478 3.25375 1.01705 0
M  V30 2115 H 224.671 2.90199 -0.756608 0
M  V30 2116 H 222.224 1.50254 -0.430506 0
M  V30 2117 H 222.959 2.69301 1.80686 0
M  V30 2118 H 222.744 3.88944 0.496463 0
M  V30 2119 H 224.234 3.90245 1.48655 0
M  V30 2120 N 224.671 0.411399 1.52136 0
M  V30 2121 C 225.919 -0.163322 2.01439 0
M  V30 2122 C 226.24 -1.45453 1.29879 0
M  V30 2123 O 225.51 -1.91225 0.4254 0
M  V30 2124 H 224.09 -0.0633447 0.744309 0
M  V30 2125 H 226.752 0.548161 1.87033 0
M  V30 2126 H 225.848 -0.357817 3.10042 0
M  V30 2127 N 226.149 -1.5696 0.141893 0
M  V30 2128 C 227.097 -2.17784 -0.816874 0
M  V30 2129 C 228.091 -1.1334 -1.25899 0
M  V30 2130 O 229.297 -1.316 -1.22806 0
M  V30 2131 H 225.672 -0.697278 -0.281615 0
M  V30 2132 H 227.643 -2.97087 -0.279621 0
M  V30 2133 C 226.392 -2.80983 -2.04802 0
M  V30 2134 H 225.715 -3.61062 -1.7168 0
M  V30 2135 H 227.155 -3.2705 -2.69841 0
M  V30 2136 C 225.614 -1.79228 -2.8527 0
M  V30 2137 O 226.144 -1.25962 -3.8144 0
M  V30 2138 N 224.35 -1.48647 -2.49704 0
M  V30 2139 H 223.897 -1.92155 -1.71564 0
M  V30 2140 H 223.855 -0.808115 -3.03837 0
M  V30 2141 N 227.627 0.131896 -1.57047 0
M  V30 2142 C 228.852 0.860418 -1.8871 0
M  V30 2143 C 229.277 1.73251 -0.73251 0
M  V30 2144 O 228.635 1.785 0.317429 0
M  V30 2145 C 228.683 1.68047 -3.19049 0
M  V30 2146 O 227.787 2.7862 -3.04047 0
M  V30 2147 H 227.128 0.238743 -0.619595 0
M  V30 2148 H 229.658 0.118169 -2.04258 0
M  V30 2149 H 229.668 2.07238 -3.51449 0
M  V30 2150 H 228.343 1.04018 -4.02682 0
M  V30 2151 H 226.92 2.42726 -2.83088 0
M  V30 2152 N 229.106 1.52395 0.401703 0
M  V30 2153 C 230.354 1.66488 1.14569 0
M  V30 2154 C 230.675 0.400897 1.90835 0
M  V30 2155 O 229.945 -0.584415 1.8698 0
M  V30 2156 H 228.525 0.613672 0.425929 0
M  V30 2157 H 231.187 1.89464 0.457093 0
M  V30 2158 H 230.283 2.50942 1.85566 0
M  V30 2159 N 230.584 -0.659388 1.43143 0
M  V30 2160 C 231.809 -1.45221 1.48073 0
M  V30 2161 C 232.234 -1.87845 0.097995 0
M  V30 2162 O 231.592 -1.56985 -0.90694 0
M  V30 2163 C 231.64 -2.66748 2.42647 0
M  V30 2164 O 230.744 -3.65583 1.90848 0
M  V30 2165 H 230.085 -0.435669 0.501088 0
M  V30 2166 H 232.615 -0.807432 1.87994 0
M  V30 2167 H 232.625 -3.14637 2.59745 0
M  V30 2168 H 231.3 -2.35067 3.43098 0
M  V30 2169 H 229.877 -3.24693 1.83381 0
M  V30 2170 N 232.062 -1.29571 -0.897171 0
M  V30 2171 C 233.287 -1.20705 -1.68656 0
M  V30 2172 C 233.712 0.228582 -1.86706 0
M  V30 2173 O 233.07 1.16494 -1.3892 0
M  V30 2174 C 233.118 -1.9282 -3.04717 0
M  V30 2175 O 232.222 -1.24697 -3.93096 0
M  V30 2176 H 231.563 -0.418126 -0.515816 0
M  V30 2177 H 234.093 -1.71183 -1.12061 0
M  V30 2178 H 234.103 -2.01372 -3.54843 0
M  V30 2179 H 232.778 -2.97239 -2.90899 0
M  V30 2180 H 231.355 -1.2442 -3.51531 0
M  V30 2181 N 233.54 1.10788 -1.12088 0
M  V30 2182 C 234.788 1.8231 -0.872205 0
M  V30 2183 C 235.109 1.85419 0.603709 0
M  V30 2184 O 234.379 1.32963 1.43867 0
M  V30 2185 H 232.959 0.675137 -0.319686 0
M  V30 2186 H 235.621 1.34068 -1.41463 0
M  V30 2187 H 234.717 2.85955 -1.25045 0
M  V30 2188 N 235.018 0.912232 1.28515 0
M  V30 2189 C 236.243 0.559774 1.99703 0
M  V30 2190 C 236.668 -0.851393 1.67729 0
M  V30 2191 O 236.026 -1.56875 0.908834 0
M  V30 2192 C 236.074 0.773874 3.52198 0
M  V30 2193 O 235.178 -0.167842 4.12058 0
M  V30 2194 H 234.519 0.21723 0.627461 0
M  V30 2195 H 237.049 1.22725 1.63706 0
M  V30 2196 H 237.059 0.683386 4.02236 0
M  V30 2197 H 235.734 1.80261 3.74805 0
M  V30 2198 H 234.311 -0.0287509 3.72889 0
M  V30 2199 N 236.496 -1.42363 0.676048 0
M  V30 2200 C 237.428 -2.29164 -0.0404605 0
M  V30 2201 C 238.441 -1.43747 -0.764245 0
M  V30 2202 O 239.63 -1.67453 -0.618195 0
M  V30 2203 C 236.73 -3.21196 -1.08103 0
M  V30 2204 C 235.903 -4.35273 -0.430812 0
M  V30 2205 C 234.962 -5.08017 -1.37133 0
M  V30 2206 O 233.988 -5.62494 -0.87116 0
M  V30 2207 N 235.19 -5.13647 -2.70456 0
M  V30 2208 H 237.955 -2.91298 0.704667 0
M  V30 2209 H 235.516 -1.53303 0.520559 0
M  V30 2210 H 237.508 -3.66728 -1.71152 0
M  V30 2211 H 236.078 -2.60505 -1.72788 0
M  V30 2212 H 235.298 -3.92372 0.379209 0
M  V30 2213 H 236.586 -5.08795 0.0221132 0
M  V30 2214 H 235.984 -4.708 -3.1363 0
M  V30 2215 H 234.541 -5.62821 -3.28749 0
M  V30 2216 N 237.974 -0.419461 -1.51915 0
M  V30 2217 C 238.922 0.415502 -2.28859 0
M  V30 2218 C 239.916 1.03674 -1.3397 0
M  V30 2219 O 241.122 0.973757 -1.51387 0
M  V30 2220 H 237.497 0.152786 -0.736315 0
M  V30 2221 H 239.468 -0.254531 -2.97312 0
M  V30 2222 C 238.217 1.51425 -3.12995 0
M  V30 2223 H 237.54 1.04556 -3.85886 0
M  V30 2224 H 238.98 2.07208 -3.6992 0
M  V30 2225 C 237.439 2.48745 -2.27217 0
M  V30 2226 O 237.969 3.52871 -1.9195 0
M  V30 2227 N 236.175 2.19202 -1.90785 0
M  V30 2228 H 235.722 1.34556 -2.19664 0
M  V30 2229 H 235.68 2.84561 -1.33687 0
M  V30 2230 N 239.452 1.56882 -0.150215 0
M  V30 2231 C 240.68 2.00593 0.506948 0
M  V30 2232 C 241.095 1.03033 1.58208 0
M  V30 2233 O 240.452 0.0278396 1.82479 0
M  V30 2234 C 240.503 3.44209 1.10465 0
M  V30 2235 O 240.224 4.3804 0.0724636 0
M  V30 2236 C 241.725 4.03214 1.84211 0
M  V30 2237 H 238.945 0.65795 0.13169 0
M  V30 2238 H 241.489 2.03018 -0.245743 0
M  V30 2239 H 239.644 3.42625 1.80795 0
M  V30 2240 H 240.058 5.22007 0.510793 0
M  V30 2241 H 241.532 5.0569 2.21318 0
M  V30 2242 H 242.009 3.44107 2.72923 0
M  V30 2243 H 242.615 4.08437 1.18572 0
M  V30 2244 N 240.93 -0.123565 1.57115 0
M  V30 2245 C 242.179 -0.830704 1.83799 0
M  V30 2246 C 242.492 -1.81259 0.735158 0
M  V30 2247 O 243.698 -2.56558 0.888278 0
M  V30 2248 C 242.154 -1.52802 3.25852 0
M  V30 2249 C 241.762 -0.587356 4.44133 0
M  V30 2250 C 243.506 -2.22056 3.61789 0
M  V30 2251 C 241.413 -1.28764 5.77212 0
M  V30 2252 H 240.343 -0.313967 0.685522 0
M  V30 2253 H 242.994 -0.0834359 1.8331 0
M  V30 2254 H 241.376 -2.32175 3.20797 0
M  V30 2255 H 242.55 0.172829 4.60476 0
M  V30 2256 H 240.865 -0.00201892 4.164 0
M  V30 2257 H 243.462 -2.75131 4.58483 0
M  V30 2258 H 243.805 -2.99644 2.88997 0
M  V30 2259 H 244.338 -1.49576 3.68608 0
M  V30 2260 H 241.077 -0.55314 6.53162 0
M  V30 2261 H 240.597 -2.01995 5.64764 0
M  V30 2262 H 242.276 -1.8221 6.20813 0
M  V30 2263 N 242.408 -1.52605 -0.393616 0
M  V30 2264 C 243.656 -1.67093 -1.13685 0
M  V30 2265 C 243.977 -0.411011 -1.90619 0
M  V30 2266 O 243.247 0.574491 -1.87287 0
M  V30 2267 H 241.827 -0.615923 -0.422668 0
M  V30 2268 H 244.489 -1.89704 -0.447039 0
M  V30 2269 H 243.585 -2.51922 -1.84232 0
M  V30 2270 N 243.887 0.651787 -1.4349 0
M  V30 2271 C 245.117 1.43728 -1.48411 0
M  V30 2272 C 245.525 1.8893 -0.10103 0
M  V30 2273 O 244.868 1.60182 0.899307 0
M  V30 2274 C 244.93 2.70411 -2.36893 0
M  V30 2275 C 244.594 2.4714 -3.8441 0
M  V30 2276 C 245.591 2.10271 -4.75481 0
M  V30 2277 C 243.276 2.6142 -4.28912 0
M  V30 2278 C 245.27 1.87982 -6.0905 0
M  V30 2279 C 242.957 2.38746 -5.62533 0
M  V30 2280 C 243.955 2.02083 -6.5242 0
M  V30 2281 O 243.643 1.79647 -7.8357 0
M  V30 2282 H 243.375 0.447962 -0.506267 0
M  V30 2283 H 245.929 0.80624 -1.88915 0
M  V30 2284 H 244.159 3.36079 -1.91278 0
M  V30 2285 H 245.848 3.32364 -2.33 0
M  V30 2286 H 246.614 1.98814 -4.42378 0
M  V30 2287 H 242.493 2.88931 -3.59222 0
M  V30 2288 H 246.037 1.5929 -6.7917 0
M  V30 2289 H 241.934 2.49806 -5.95203 0
M  V30 2290 H 242.702 1.9406 -7.95162 0
M  V30 2291 N 245.365 1.30045 0.890287 0
M  V30 2292 C 246.776 1.16738 1.45702 0
M  V30 2293 C 247.127 -0.233939 1.948 0
M  V30 2294 O 246.252 -1.13021 1.84541 0
M  V30 2295 C 246.847 2.11313 2.64825 0
M  V30 2296 C 245.406 2.02001 3.17604 0
M  V30 2297 C 244.553 2.01699 1.90296 0
M  V30 2298 H 247.504 1.42392 0.700726 0
M  V30 2299 H 247.525 1.69086 3.40867 0
M  V30 2300 H 247.037 3.13294 2.2906 0
M  V30 2301 H 245.138 1.03142 3.5804 0
M  V30 2302 H 245.251 2.90128 3.81264 0
M  V30 2303 H 243.615 1.46427 2.08402 0
M  V30 2304 H 244.398 3.05402 1.56795 0
M  V30 2305 N 246.843 -1.10192 1.12674 0
M  V30 2306 C 247.806 -2.14786 0.799979 0
M  V30 2307 C 248.806 -1.59711 -0.18685 0
M  V30 2308 O 249.996 -1.74156 0.0392558 0
M  V30 2309 C 247.128 -3.40374 0.189228 0
M  V30 2310 H 248.321 -2.45203 1.72671 0
M  V30 2311 H 245.874 -1.25597 0.930326 0
M  V30 2312 H 246.609 -3.15577 -0.747107 0
M  V30 2313 H 246.394 -3.81637 0.899766 0
M  V30 2314 H 247.884 -4.17594 -0.0228143 0
M  V30 2315 N 248.321 -0.919034 -1.28029 0
M  V30 2316 C 249.268 -0.410005 -2.27129 0
M  V30 2317 C 250.238 0.518405 -1.57803 0
M  V30 2318 O 251.423 0.439451 -1.8567 0
M  V30 2319 C 248.563 0.339054 -3.4343 0
M  V30 2320 C 247.676 -0.622468 -4.27492 0
M  V30 2321 C 246.811 0.145567 -5.31001 0
M  V30 2322 C 245.85 -0.809226 -6.06727 0
M  V30 2323 N 244.987 -0.0743728 -7.02061 0
M  V30 2324 H 249.827 -1.26011 -2.70047 0
M  V30 2325 H 247.364 -0.632663 -1.328 0
M  V30 2326 H 249.322 0.789586 -4.0966 0
M  V30 2327 H 247.952 1.15346 -3.01488 0
M  V30 2328 H 247.004 -1.19153 -3.61257 0
M  V30 2329 H 248.316 -1.35252 -4.80113 0
M  V30 2330 H 247.47 0.656417 -6.03139 0
M  V30 2331 H 246.209 0.908643 -4.79161 0
M  V30 2332 H 245.214 -1.3314 -5.33436 0
M  V30 2333 H 246.439 -1.57194 -6.60656 0
M  V30 2334 H 244.385 0.670616 -6.52563 0
M  V30 2335 H 244.302 -0.744157 -7.52329 0
M  V30 2336 H 245.57 0.416109 -7.78389 0
M  V30 2337 N 249.799 1.42003 -0.683588 0
M  V30 2338 C 251.029 2.05448 -0.217866 0
M  V30 2339 C 251.437 1.51491 1.13346 0
M  V30 2340 O 250.78 0.653048 1.717 0
M  V30 2341 C 250.842 3.59399 -0.0850118 0
M  V30 2342 C 250.506 4.36093 -1.36645 0
M  V30 2343 C 251.503 4.66169 -2.30179 0
M  V30 2344 C 249.188 4.75578 -1.61649 0
M  V30 2345 C 251.182 5.34676 -3.46988 0
M  V30 2346 C 248.869 5.43824 -2.78745 0
M  V30 2347 C 249.867 5.73299 -3.71238 0
M  V30 2348 O 249.555 6.40142 -4.86285 0
M  V30 2349 H 249.287 0.668344 -0.101454 0
M  V30 2350 H 251.841 1.82974 -0.933248 0
M  V30 2351 H 250.071 3.80566 0.686031 0
M  V30 2352 H 251.76 4.04457 0.341973 0
M  V30 2353 H 252.526 4.36156 -2.12115 0
M  V30 2354 H 248.405 4.52025 -0.905243 0
M  V30 2355 H 251.949 5.57599 -4.19201 0
M  V30 2356 H 247.846 5.73254 -2.96732 0
M  V30 2357 H 248.614 6.58636 -4.85944 0
M  V30 2358 N 251.277 0.427512 1.51691 0
M  V30 2359 C 252.554 -0.201684 1.94557 0
M  V30 2360 C 252.934 -1.60981 1.36559 0
M  V30 2361 O 252.282 -2.21814 0.548702 0
M  V30 2362 C 252.492 -0.189394 3.48486 0
M  V30 2363 C 253.84 -0.39978 4.22714 0
M  V30 2364 O 254.864 -0.267945 3.55191 0
M  V30 2365 O 253.723 -0.661249 5.42485 0
M  V30 2366 H 250.817 -0.135261 0.815864 0
M  V30 2367 H 253.363 0.484782 1.62628 0
M  V30 2368 H 252.135 0.795431 3.8313 0
M  V30 2369 H 251.758 -0.919187 3.86829 0
M  V30 2370 N 252.755 -1.56801 0.158532 0
M  V30 2371 C 253.98 -2.01295 -0.499516 0
M  V30 2372 C 254.405 -1.03799 -1.56867 0
M  V30 2373 O 253.763 -0.0155162 -1.81293 0
M  V30 2374 C 253.811 -3.44469 -1.06647 0
M  V30 2375 O 252.915 -3.50012 -2.18095 0
M  V30 2376 H 252.256 -0.652884 -0.12099 0
M  V30 2377 H 254.786 -2.02958 0.258661 0
M  V30 2378 H 254.796 -3.8351 -1.39227 0
M  V30 2379 H 253.471 -4.14932 -0.283581 0
M  V30 2380 H 252.048 -3.22822 -1.86656 0
M  V30 2381 N 254.233 0.115231 -1.57178 0
M  V30 2382 C 255.479 0.82357 -1.85325 0
M  V30 2383 C 255.812 1.79349 -0.744814 0
M  V30 2384 O 255.087 1.92899 0.249024 0
M  V30 2385 C 255.37 1.57014 -3.24066 0
M  V30 2386 C 255.223 0.619565 -4.45513 0
M  V30 2387 C 256.542 2.52545 -3.60429 0
M  V30 2388 H 253.661 0.297948 -0.674089 0
M  V30 2389 H 256.303 0.0877138 -1.89797 0
M  V30 2390 H 254.453 2.19742 -3.20383 0
M  V30 2391 H 256.125 0.000837639 -4.613 0
M  V30 2392 H 254.368 -0.0686174 -4.33746 0
M  V30 2393 H 255.039 1.17866 -5.3927 0
M  V30 2394 H 257.515 1.9992 -3.64926 0
M  V30 2395 H 256.391 3.01811 -4.58477 0
M  V30 2396 H 256.652 3.35383 -2.88047 0
M  V30 2397 N 255.711 1.52812 0.385517 0
M  V30 2398 C 256.96 1.67249 1.12741 0
M  V30 2399 C 257.273 0.4205 1.91027 0
M  V30 2400 O 258.479 0.445064 2.67827 0
M  V30 2401 C 256.935 2.95583 2.05326 0
M  V30 2402 C 256.543 4.27974 1.32447 0
M  V30 2403 C 258.287 3.19386 2.7963 0
M  V30 2404 C 256.194 5.47412 2.23818 0
M  V30 2405 H 255.124 0.6231 0.424573 0
M  V30 2406 H 257.775 1.79309 0.389924 0
M  V30 2407 H 256.157 2.77277 2.82725 0
M  V30 2408 H 257.331 4.56844 0.602495 0
M  V30 2409 H 255.646 4.10459 0.700885 0
M  V30 2410 H 258.243 4.05801 3.48181 0
M  V30 2411 H 258.586 2.34604 3.43899 0
M  V30 2412 H 259.119 3.38274 2.09322 0
M  V30 2413 H 255.858 6.34612 1.64157 0
M  V30 2414 H 255.378 5.22849 2.93921 0
M  V30 2415 H 257.057 5.81423 2.83824 0
M  V30 2416 N 257.189 -0.644168 1.43834 0
M  V30 2417 C 258.152 -1.73857 1.49353 0
M  V30 2418 C 259.152 -1.56315 0.377112 0
M  V30 2419 O 260.342 -1.62048 0.639226 0
M  V30 2420 C 257.474 -3.12819 1.35488 0
M  V30 2421 H 258.667 -1.70342 2.46827 0
M  V30 2422 H 256.22 -0.856652 1.30733 0
M  V30 2423 H 256.955 -3.2194 0.390569 0
M  V30 2424 H 256.74 -3.26958 2.16428 0
M  V30 2425 H 258.23 -3.92606 1.42302 0
M  V30 2426 N 258.668 -1.30515 -0.883378 0
M  V30 2427 C 259.914 -1.19607 -1.63774 0
M  V30 2428 C 260.247 0.248314 -1.92606 0
M  V30 2429 O 259.522 1.17742 -1.54813 0
M  V30 2430 C 259.805 -2.02669 -2.97653 0
M  V30 2431 C 259.658 -3.55335 -2.75784 0
M  V30 2432 C 260.977 -1.86573 -3.98596 0
M  V30 2433 H 258.096 -0.435856 -0.594305 0
M  V30 2434 H 260.738 -1.60165 -1.02212 0
M  V30 2435 H 258.888 -1.68208 -3.50197 0
M  V30 2436 H 260.56 -3.99863 -2.30016 0
M  V30 2437 H 258.803 -3.79438 -2.1026 0
M  V30 2438 H 259.474 -4.08745 -3.70988 0
M  V30 2439 H 261.95 -2.16703 -3.55217 0
M  V30 2440 H 260.826 -2.47014 -4.90179 0
M  V30 2441 H 261.087 -0.825321 -4.34328 0
M  V30 2442 N 260.146 1.09593 -1.13257 0
M  V30 2443 C 261.394 1.81375 -0.891492 0
M  V30 2444 C 261.715 1.86049 0.584009 0
M  V30 2445 O 260.985 1.34481 1.42449 0
M  V30 2446 H 259.565 0.671708 -0.326828 0
M  V30 2447 H 262.227 1.3256 -1.42877 0
M  V30 2448 H 261.323 2.84612 -1.28071 0
M  V30 2449 N 261.624 0.925811 1.2754 0
M  V30 2450 C 262.587 0.428129 2.25166 0
M  V30 2451 C 263.587 -0.452261 1.54309 0
M  V30 2452 O 264.777 -0.253608 1.72344 0
M  V30 2453 C 261.909 -0.384749 3.38722 0
M  V30 2454 H 263.102 1.29066 2.70706 0
M  V30 2455 H 260.655 0.706323 1.3943 0
M  V30 2456 H 261.39 -1.26618 2.98561 0
M  V30 2457 H 261.175 0.246454 3.91325 0
M  V30 2458 H 262.665 -0.723389 4.11287 0
M  V30 2459 N 263.102 -1.41638 0.69111 0
M  V30 2460 C 264.348 -2.01598 0.220519 0
M  V30 2461 C 264.681 -1.54594 -1.17535 0
M  V30 2462 O 263.956 -0.755177 -1.79241 0
M  V30 2463 C 264.239 -3.59062 0.273243 0
M  V30 2464 C 264.092 -4.16203 1.70573 0
M  V30 2465 C 265.411 -4.38546 -0.369457 0
M  V30 2466 H 262.53 -0.732468 0.0816045 0
M  V30 2467 H 265.172 -1.68445 0.878986 0
M  V30 2468 H 263.322 -3.87435 -0.287411 0
M  V30 2469 H 264.994 -3.98722 2.31989 0
M  V30 2470 H 263.237 -3.71414 2.2413 0
M  V30 2471 H 263.908 -5.25358 1.69419 0
M  V30 2472 H 266.384 -4.1596 0.107977 0
M  V30 2473 H 265.26 -5.48069 -0.302002 0
M  V30 2474 H 265.521 -4.17662 -1.44951 0
M  V30 2475 N 264.58 -0.43555 -1.51462 0
M  V30 2476 C 265.857 0.191364 -1.94662 0
M  V30 2477 C 266.237 1.60254 -1.37411 0
M  V30 2478 O 265.585 2.2152 -0.560458 0
M  V30 2479 C 265.795 0.17091 -3.48581 0
M  V30 2480 C 267.143 0.377357 -4.2292 0
M  V30 2481 O 268.167 0.249104 -3.55328 0
M  V30 2482 O 267.026 0.63247 -5.42828 0
M  V30 2483 H 264.12 0.130932 -0.816569 0
M  V30 2484 H 266.666 -0.4934 -1.62369 0
M  V30 2485 H 265.438 -0.815738 -3.82703 0
M  V30 2486 H 265.061 0.898659 -3.87311 0
M  V30 2487 N 266.058 1.56714 -0.166846 0
M  V30 2488 C 267.283 2.01557 0.488833 0
M  V30 2489 C 267.708 1.0463 1.56314 0
M  V30 2490 O 267.066 0.0251304 1.81283 0
M  V30 2491 C 267.114 3.4503 1.04818 0
M  V30 2492 O 266.218 3.51163 2.16236 0
M  V30 2493 H 265.559 0.653516 0.117526 0
M  V30 2494 H 268.089 2.02818 -0.269421 0
M  V30 2495 H 268.099 3.84243 1.37191 0
M  V30 2496 H 266.774 4.15077 0.261572 0
M  V30 2497 H 265.351 3.23807 1.84942 0
M  V30 2498 N 267.536 -0.106894 1.57237 0
M  V30 2499 C 268.484 -1.14944 2.02215 0
M  V30 2500 C 269.478 -1.42167 0.92114 0
M  V30 2501 O 270.684 -1.41987 1.10634 0
M  V30 2502 H 267.059 -0.387841 0.64427 0
M  V30 2503 H 269.03 -0.743683 2.88984 0
M  V30 2504 C 267.779 -2.4647 2.4525 0
M  V30 2505 H 267.102 -2.26363 3.29545 0
M  V30 2506 H 268.542 -3.17948 2.80508 0
M  V30 2507 C 267.001 -3.09921 1.321 0
M  V30 2508 O 267.531 -3.9651 0.643622 0
M  V30 2509 N 265.737 -2.69986 1.07497 0
M  V30 2510 H 265.284 -1.99667 1.62761 0
M  V30 2511 H 265.242 -3.12769 0.319876 0
M  V30 2512 N 269.014 -1.53014 -0.377408 0
M  V30 2513 C 269.961 -1.78616 -1.46168 0
M  V30 2514 C 270.931 -0.629917 -1.53692 0
M  V30 2515 O 272.116 -0.870861 -1.69766 0
M  V30 2516 C 269.256 -1.97123 -2.8326 0
M  V30 2517 C 268.369 -3.24831 -2.84796 0
M  V30 2518 C 267.504 -3.33591 -4.13389 0
M  V30 2519 C 266.543 -4.55377 -4.09021 0
M  V30 2520 N 265.68 -4.61355 -5.29241 0
M  V30 2521 H 270.52 -2.71142 -1.23637 0
M  V30 2522 H 268.057 -1.34326 -0.599577 0
M  V30 2523 H 270.015 -2.05839 -3.62886 0
M  V30 2524 H 268.645 -1.07946 -3.04216 0
M  V30 2525 H 267.697 -3.25128 -1.97474 0
M  V30 2526 H 269.009 -4.14523 -2.77439 0
M  V30 2527 H 268.163 -3.41554 -5.01424 0
M  V30 2528 H 266.902 -2.41894 -4.23484 0
M  V30 2529 H 265.907 -4.47527 -3.19373 0
M  V30 2530 H 267.132 -5.48402 -4.00539 0
M  V30 2531 H 265.078 -3.72554 -5.39944 0
M  V30 2532 H 264.995 -5.44935 -5.24006 0
M  V30 2533 H 266.263 -4.73586 -6.19141 0
M  V30 2534 N 270.492 0.636531 -1.44174 0
M  V30 2535 C 271.44 1.76995 -1.50915 0
M  V30 2536 C 272.434 1.65053 -0.381295 0
M  V30 2537 O 273.64 1.71197 -0.55601 0
M  V30 2538 H 270.015 0.584247 -0.473455 0
M  V30 2539 H 271.986 1.68432 -2.4632 0
M  V30 2540 C 270.735 3.15314 -1.46534 0
M  V30 2541 H 270.058 3.25149 -2.32633 0
M  V30 2542 H 271.498 3.9453 -1.55312 0
M  V30 2543 C 269.957 3.3639 -0.185305 0
M  V30 2544 O 270.487 3.94699 0.746688 0
M  V30 2545 N 268.693 2.9046 -0.0901606 0
M  V30 2546 H 268.24 2.43193 -0.849416 0
M  V30 2547 H 268.198 3.04937 0.765553 0
M  V30 2548 N 271.97 1.30982 0.876444 0
M  V30 2549 C 273.386 1.09498 1.16113 0
M  V30 2550 C 273.586 -0.13875 2.01022 0
M  V30 2551 O 272.642 -0.829935 2.38471 0
M  V30 2552 C 273.955 2.36308 1.85954 0
M  V30 2553 C 275.503 2.41856 1.98683 0
M  V30 2554 C 275.978 3.6853 2.71937 0
M  V30 2555 N 277.469 3.69387 2.79477 0
M  V30 2556 C 278.204 4.64096 3.36753 0
M  V30 2557 N 277.7 5.69155 3.95012 0
M  V30 2558 N 279.493 4.51626 3.3465 0
M  V30 2559 H 271.644 2.10118 0.310494 0
M  V30 2560 H 273.907 0.926634 0.200131 0
M  V30 2561 H 273.613 3.26388 1.31011 0
M  V30 2562 H 273.487 2.4561 2.86278 0
M  V30 2563 H 275.874 1.52249 2.52793 0
M  V30 2564 H 275.955 2.36523 0.9742 0
M  V30 2565 H 275.599 4.58499 2.18496 0
M  V30 2566 H 275.529 3.71127 3.73593 0
M  V30 2567 H 278.02 2.93438 2.38123 0
M  V30 2568 H 278.333 6.3751 4.36808 0
M  V30 2569 H 276.678 5.72937 3.93406 0
M  V30 2570 H 279.869 3.68728 2.8837 0
M  V30 2571 H 280.042 5.25614 3.7899 0
M  V30 2572 N 273.449 -1.08991 1.13837 0
M  V30 2573 C 274.412 -2.13925 0.822715 0
M  V30 2574 C 275.412 -1.599 -0.1699 0
M  V30 2575 O 276.602 -1.74104 0.0577251 0
M  V30 2576 C 273.734 -3.40155 0.225318 0
M  V30 2577 H 274.927 -2.43358 1.75262 0
M  V30 2578 H 272.48 -1.24603 0.943594 0
M  V30 2579 H 273.215 -3.16352 -0.713594 0
M  V30 2580 H 273 -3.80661 0.940193 0
M  V30 2581 H 274.49 -4.17594 0.0214784 0
M  V30 2582 N 274.927 -0.932562 -1.27047 0
M  V30 2583 C 276.152 -0.591474 -1.98787 0
M  V30 2584 C 276.577 0.824601 -1.69062 0
M  V30 2585 O 275.935 1.5541 -0.933677 0
M  V30 2586 C 275.983 -0.829808 -3.50922 0
M  V30 2587 O 275.087 0.102266 -4.12273 0
M  V30 2588 H 274.428 -0.227185 -0.623926 0
M  V30 2589 H 276.958 -1.25314 -1.61733 0
M  V30 2590 H 276.968 -0.747292 -4.01098 0
M  V30 2591 H 275.643 -1.86201 -3.7189 0
M  V30 2592 H 274.22 -0.0305761 -3.72887 0
M  V30 2593 N 276.405 1.4127 -0.698611 0
M  V30 2594 C 277.652 2.0118 -0.230865 0
M  V30 2595 C 277.98 1.55338 1.17049 0
M  V30 2596 O 277.235 0.756775 1.80475 0
M  V30 2597 C 277.534 3.56592 -0.240192 0
M  V30 2598 C 277.2 4.21955 -1.58948 0
M  V30 2599 C 275.862 4.39524 -1.95887 0
M  V30 2600 C 278.214 4.58576 -2.47704 0
M  V30 2601 C 275.542 4.90992 -3.2116 0
M  V30 2602 C 277.894 5.11435 -3.72313 0
M  V30 2603 C 276.558 5.27215 -4.0939 0
M  V30 2604 H 275.828 0.736169 -0.0844796 0
M  V30 2605 H 278.475 1.69124 -0.8983 0
M  V30 2606 H 276.78 3.88456 0.510797 0
M  V30 2607 H 278.477 4.00758 0.139296 0
M  V30 2608 H 275.067 4.08657 -1.29219 0
M  V30 2609 H 279.251 4.44654 -2.20445 0
M  V30 2610 H 274.507 5.01393 -3.49878 0
M  V30 2611 H 278.681 5.38752 -4.4127 0
M  V30 2612 H 276.308 5.66859 -5.06533 0
M  V30 2613 N 277.883 0.443576 1.51229 0
M  V30 2614 C 279.108 -0.121648 2.07043 0
M  V30 2615 C 279.533 -1.35156 1.30823 0
M  V30 2616 O 278.891 -1.7793 0.347934 0
M  V30 2617 C 278.939 -0.41624 3.5819 0
M  V30 2618 O 278.043 -1.50163 3.8409 0
M  V30 2619 H 277.384 0.000871367 0.663999 0
M  V30 2620 H 279.914 0.626706 1.94765 0
M  V30 2621 H 279.924 -0.664867 4.02546 0
M  V30 2622 H 278.599 0.482653 4.1309 0
M  V30 2623 H 277.176 -1.24248 3.51592 0
M  V30 2624 N 279.361 -1.56624 0.175154 0
M  V30 2625 C 280.586 -2.01813 -0.478137 0
M  V30 2626 C 281.011 -1.05457 -1.55757 0
M  V30 2627 O 280.369 -0.0347439 -1.81267 0
M  V30 2628 C 280.417 -3.45581 -1.02987 0
M  V30 2629 O 279.521 -3.52305 -2.14371 0
M  V30 2630 H 278.862 -0.65413 -0.114059 0
M  V30 2631 H 281.392 -2.02673 0.280173 0
M  V30 2632 H 281.402 -3.84965 -1.35151 0
M  V30 2633 H 280.077 -4.1521 -0.239556 0
M  V30 2634 H 278.654 -3.24783 -1.83222 0
M  V30 2635 N 280.839 0.0985539 -1.57292 0
M  V30 2636 C 282.085 0.803867 -1.86188 0
M  V30 2637 C 282.418 1.78549 -0.763794 0
M  V30 2638 O 281.693 1.93153 0.22855 0
M  V30 2639 C 281.976 1.53568 -3.25713 0
M  V30 2640 C 281.829 0.572277 -4.46145 0
M  V30 2641 C 283.148 2.48708 -3.63087 0
M  V30 2642 H 280.267 0.290781 -0.677211 0
M  V30 2643 H 282.909 0.0675783 -1.8988 0
M  V30 2644 H 281.059 2.16332 -3.22696 0
M  V30 2645 H 282.731 -0.0480894 -4.61275 0
M  V30 2646 H 280.974 -0.114618 -4.33649 0
M  V30 2647 H 281.645 1.12139 -5.40489 0
M  V30 2648 H 284.121 1.96039 -3.67026 0
M  V30 2649 H 282.997 2.96932 -4.61652 0
M  V30 2650 H 283.258 3.32309 -2.91588 0
M  V30 2651 N 282.317 1.53212 0.369288 0
M  V30 2652 C 283.565 1.68881 1.11012 0
M  V30 2653 C 283.886 0.441285 1.89941 0
M  V30 2654 O 283.156 -0.544623 1.88177 0
M  V30 2655 H 281.736 0.622569 0.412816 0
M  V30 2656 H 284.398 1.90391 0.416802 0
M  V30 2657 H 283.494 2.54822 1.80201 0
M  V30 2658 N 283.795 -0.628877 1.44509 0
M  V30 2659 C 284.758 -1.72263 1.51188 0
M  V30 2660 C 285.758 -1.55907 0.39367 0
M  V30 2661 O 286.948 -1.61361 0.656377 0
M  V30 2662 C 284.08 -3.11365 1.38798 0
M  V30 2663 H 285.273 -1.67714 2.4862 0
M  V30 2664 H 282.826 -0.842737 1.31634 0
M  V30 2665 H 283.561 -3.21507 0.424693 0
M  V30 2666 H 283.346 -3.24644 2.19884 0
M  V30 2667 H 284.836 -3.91075 1.46458 0
M  V30 2668 N 285.273 -1.31445 -0.869486 0
M  V30 2669 C 286.183 -1.21097 -2.0093 0
M  V30 2670 C 287.199 -0.127584 -1.73532 0
M  V30 2671 O 288.375 -0.345477 -1.98415 0
M  V30 2672 C 285.44 -0.919378 -3.34288 0
M  V30 2673 C 284.501 -2.08971 -3.75006 0
M  V30 2674 C 283.734 -1.81194 -5.02001 0
M  V30 2675 O 283.957 -0.747296 -5.65484 0
M  V30 2676 O 282.891 -2.66883 -5.39497 0
M  V30 2677 H 286.717 -2.16883 -2.12592 0
M  V30 2678 H 284.302 -1.11189 -0.997868 0
M  V30 2679 H 286.184 -0.772625 -4.14257 0
M  V30 2680 H 284.859 0.00844772 -3.23699 0
M  V30 2681 H 283.766 -2.29187 -2.95676 0
M  V30 2682 H 285.099 -2.9998 -3.90221 0
M  V30 2683 N 286.751 1.08385 -1.14413 0
M  V30 2684 C 287.681 2.17321 -0.854044 0
M  V30 2685 C 288.662 1.69024 0.191049 0
M  V30 2686 O 289.847 1.94141 0.0476779 0
M  V30 2687 C 286.977 3.45719 -0.330983 0
M  V30 2688 C 285.931 4.07409 -1.31155 0
M  V30 2689 C 285.257 5.30762 -0.64778 0
M  V30 2690 C 286.557 4.48665 -2.67388 0
M  V30 2691 H 288.251 2.41845 -1.76498 0
M  V30 2692 H 285.797 1.16233 -0.850051 0
M  V30 2693 H 287.75 4.21241 -0.115645 0
M  V30 2694 H 286.474 3.2075 0.615381 0
M  V30 2695 H 285.133 3.33919 -1.51306 0
M  V30 2696 H 284.781 5.02078 0.304398 0
M  V30 2697 H 284.481 5.72992 -1.30207 0
M  V30 2698 H 286.005 6.08998 -0.441972 0
M  V30 2699 H 287.419 5.15364 -2.51143 0
M  V30 2700 H 285.816 5.01814 -3.29093 0
M  V30 2701 H 286.886 3.60543 -3.24248 0
M  V30 2702 N 288.23 0.939286 1.26551 0
M  V30 2703 C 289.14 0.453432 2.30176 0
M  V30 2704 C 290.156 -0.471649 1.67486 0
M  V30 2705 O 291.332 -0.35164 1.98306 0
M  V30 2706 C 288.397 -0.275326 3.45605 0
M  V30 2707 C 287.458 0.686084 4.23782 0
M  V30 2708 C 286.691 -0.00798994 5.33699 0
M  V30 2709 O 286.914 -1.22528 5.57085 0
M  V30 2710 O 285.848 0.669746 5.98162 0
M  V30 2711 H 289.674 1.31416 2.73795 0
M  V30 2712 H 287.259 0.705095 1.31715 0
M  V30 2713 H 289.141 -0.685911 4.1578 0
M  V30 2714 H 287.816 -1.11147 3.0402 0
M  V30 2715 H 286.723 1.14658 3.56096 0
M  V30 2716 H 288.056 1.48979 4.69112 0
M  V30 2717 N 289.708 -1.40897 0.706093 0
M  V30 2718 C 290.954 -2.01352 0.241889 0
M  V30 2719 C 291.287 -1.55832 -1.15888 0
M  V30 2720 O 290.562 -0.774145 -1.7843 0
M  V30 2721 C 290.845 -3.58752 0.311311 0
M  V30 2722 C 290.698 -4.1437 1.74978 0
M  V30 2723 C 292.017 -4.38914 -0.322922 0
M  V30 2724 H 289.136 -0.731562 0.0893687 0
M  V30 2725 H 291.778 -1.67504 0.896802 0
M  V30 2726 H 289.928 -3.87718 -0.246302 0
M  V30 2727 H 291.6 -3.96239 2.36205 0
M  V30 2728 H 289.843 -3.69016 2.28057 0
M  V30 2729 H 290.514 -5.23532 1.74981 0
M  V30 2730 H 292.99 -4.15822 0.152089 0
M  V30 2731 H 291.866 -5.48358 -0.243855 0
M  V30 2732 H 292.127 -4.19176 -1.40513 0
M  V30 2733 N 291.186 -0.45159 -1.50991 0
M  V30 2734 C 292.119 0.398179 -2.24699 0
M  V30 2735 C 293.097 1.01276 -1.27208 0
M  V30 2736 O 294.281 1.05247 -1.56382 0
M  V30 2737 C 291.408 1.55618 -3.00833 0
M  V30 2738 C 290.454 1.0609 -4.13095 0
M  V30 2739 S 291.287 -0.00865136 -5.35499 0
M  V30 2740 C 292.443 1.15369 -6.15175 0
M  V30 2741 H 292.676 -0.227555 -2.96428 0
M  V30 2742 H 290.209 -0.236251 -1.52582 0
M  V30 2743 H 292.167 2.21997 -3.45293 0
M  V30 2744 H 290.828 2.15337 -2.28667 0
M  V30 2745 H 290.021 1.92726 -4.65696 0
M  V30 2746 H 289.623 0.47513 -3.7097 0
M  V30 2747 H 291.915 2.06925 -6.45126 0
M  V30 2748 H 292.858 0.667344 -7.04948 0
M  V30 2749 H 293.266 1.3987 -5.46897 0
M  V30 2750 N 292.664 1.56529 -0.183458 0
M  V30 2751 C 293.627 2.17324 0.728223 0
M  V30 2752 C 294.627 1.12453 1.14939 0
M  V30 2753 O 295.817 1.37902 1.06437 0
M  V30 2754 C 292.949 2.76591 1.99274 0
M  V30 2755 H 294.142 2.99241 0.198772 0
M  V30 2756 H 291.695 1.5616 0.0661391 0
M  V30 2757 H 292.43 1.98441 2.56499 0
M  V30 2758 H 292.215 3.5335 1.69959 0
M  V30 2759 H 293.705 3.23311 2.6431 0
M  V30 2760 N 294.142 -0.090211 1.57342 0
M  V30 2761 C 295.553 -0.644173 1.75235 0
M  V30 2762 C 295.904 -1.78865 0.806335 0
M  V30 2763 O 295.029 -2.16395 -0.0140128 0
M  V30 2764 C 295.624 -1.17532 3.1776 0
M  V30 2765 C 294.183 -1.67531 3.37061 0
M  V30 2766 C 293.33 -0.58693 2.71017 0
M  V30 2767 H 296.281 0.135884 1.58117 0
M  V30 2768 H 296.302 -2.04455 3.20902 0
M  V30 2769 H 295.814 -0.342138 3.86589 0
M  V30 2770 H 293.915 -2.53234 2.73319 0
M  V30 2771 H 294.028 -1.76493 4.45406 0
M  V30 2772 H 292.392 -1.02756 2.33052 0
M  V30 2773 H 293.175 0.235758 3.4249 0
M  V30 2774 N 295.62 -1.53406 -0.361157 0
M  V30 2775 C 296.868 -1.69467 -1.10115 0
M  V30 2776 C 297.189 -0.451352 -1.89705 0
M  V30 2777 O 296.459 0.534636 -1.88463 0
M  V30 2778 H 295.039 -0.624749 -0.409508 0
M  V30 2779 H 297.701 -1.90609 -0.406699 0
M  V30 2780 H 296.797 -2.55774 -1.78847 0
M  V30 2781 N 297.098 0.621204 -1.44841 0
M  V30 2782 C 298.344 1.3826 -1.48365 0
M  V30 2783 C 298.677 1.93831 -0.119624 0
M  V30 2784 O 297.952 1.74251 0.864111 0
M  V30 2785 C 298.235 2.54058 -2.55199 0
M  V30 2786 C 298.088 2.03772 -4.00995 0
M  V30 2787 C 299.407 3.56225 -2.58442 0
M  V30 2788 H 296.526 0.501374 -0.540179 0
M  V30 2789 H 299.168 0.7015 -1.76576 0
M  V30 2790 H 297.318 3.12162 -2.31274 0
M  V30 2791 H 298.99 1.50423 -4.36086 0
M  V30 2792 H 297.233 1.34876 -4.12299 0
M  V30 2793 H 297.904 2.87185 -4.71411 0
M  V30 2794 H 300.38 3.07939 -2.79844 0
M  V30 2795 H 299.256 4.34756 -3.3508 0
M  V30 2796 H 299.517 4.10949 -1.63013 0
M  V30 2797 N 298.576 1.31904 0.862503 0
M  V30 2798 C 299.801 1.25135 1.65397 0
M  V30 2799 C 300.226 -0.179 1.87246 0
M  V30 2800 O 299.584 -1.1277 1.4196 0
M  V30 2801 C 299.632 2.00832 2.99498 0
M  V30 2802 O 298.736 1.35075 3.89652 0
M  V30 2803 H 298.077 0.431655 0.504549 0
M  V30 2804 H 300.607 1.74094 1.07483 0
M  V30 2805 H 300.617 2.10709 3.49379 0
M  V30 2806 H 299.292 3.04847 2.82916 0
M  V30 2807 H 297.869 1.33696 3.48109 0
M  V30 2808 N 300.054 -1.07777 1.14986 0
M  V30 2809 C 301.3 -1.80557 0.923422 0
M  V30 2810 C 301.633 -1.86298 -0.548337 0
M  V30 2811 O 300.908 -1.34354 -1.40639 0
M  V30 2812 C 301.191 -3.25839 1.53299 0
M  V30 2813 C 301.044 -3.28269 3.07505 0
M  V30 2814 C 302.363 -4.22991 1.21518 0
M  V30 2815 H 299.482 -0.655493 0.336894 0
M  V30 2816 H 302.124 -1.26144 1.42083 0
M  V30 2817 H 300.274 -3.72306 1.10999 0
M  V30 2818 H 301.946 -2.90079 3.58681 0
M  V30 2819 H 300.189 -2.67355 3.4162 0
M  V30 2820 H 300.86 -4.30691 3.45266 0
M  V30 2821 H 303.336 -3.84894 1.581 0
M  V30 2822 H 302.212 -5.22945 1.66793 0
M  V30 2823 H 302.473 -4.41904 0.131505 0
M  V30 2824 N 301.532 -0.945985 -1.26051 0
M  V30 2825 C 302.762 -0.612136 -1.97323 0
M  V30 2826 C 303.17 0.818171 -1.70595 0
M  V30 2827 O 302.513 1.55777 -0.973613 0
M  V30 2828 C 302.575 -0.780347 -3.50929 0
M  V30 2829 C 302.239 -2.18619 -4.01317 0
M  V30 2830 C 303.236 -3.16209 -4.12683 0
M  V30 2831 C 300.921 -2.50805 -4.35203 0
M  V30 2832 C 302.915 -4.44085 -4.57238 0
M  V30 2833 C 300.602 -3.78912 -4.79446 0
M  V30 2834 C 301.6 -4.75365 -4.90425 0
M  V30 2835 O 301.288 -6.01191 -5.3369 0
M  V30 2836 H 301.02 -0.229134 -0.635982 0
M  V30 2837 H 303.574 -1.27036 -1.61404 0
M  V30 2838 H 301.804 -0.0649864 -3.86645 0
M  V30 2839 H 303.493 -0.448842 -4.03411 0
M  V30 2840 H 304.259 -2.92668 -3.86744 0
M  V30 2841 H 300.138 -1.76463 -4.2589 0
M  V30 2842 H 303.682 -5.19373 -4.65723 0
M  V30 2843 H 299.579 -4.02265 -5.0483 0
M  V30 2844 H 300.347 -6.04442 -5.51899 0
M  V30 2845 N 303.011 1.40521 -0.713556 0
M  V30 2846 C 304.236 2.05759 -0.26035 0
M  V30 2847 C 304.661 1.53403 1.08854 0
M  V30 2848 O 304.019 0.668535 1.68524 0
M  V30 2849 C 304.067 3.59745 -0.248122 0
M  V30 2850 O 303.171 4.05123 0.77131 0
M  V30 2851 H 302.512 0.652564 -0.122703 0
M  V30 2852 H 305.042 1.79958 -0.973467 0
M  V30 2853 H 305.052 4.07911 -0.0851129 0
M  V30 2854 H 303.727 3.97218 -1.2325 0
M  V30 2855 H 302.304 3.68422 0.57619 0
M  V30 2856 N 304.489 0.459591 1.5075 0
M  V30 2857 C 305.717 -0.0973749 2.06671 0
M  V30 2858 C 306.132 -1.34524 1.32472 0
M  V30 2859 O 305.489 -1.7827 0.390634 0
M  V30 2860 C 305.54 -0.39714 3.59312 0
M  V30 2861 O 305.261 0.801214 4.30711 0
M  V30 2862 C 306.762 -1.00234 4.31819 0
M  V30 2863 H 303.982 0.00195854 0.670997 0
M  V30 2864 H 306.526 0.645072 1.94059 0
M  V30 2865 H 304.681 -1.08951 3.71764 0
M  V30 2866 H 305.095 0.538857 5.21725 0
M  V30 2867 H 306.569 -1.16193 5.39632 0
M  V30 2868 H 307.046 -1.98939 3.91561 0
M  V30 2869 H 307.652 -0.348699 4.23868 0
M  V30 2870 N 305.967 -1.56429 0.191757 0
M  V30 2871 C 307.197 -2.01574 -0.452928 0
M  V30 2872 C 307.605 -1.07107 -1.55964 0
M  V30 2873 O 306.948 -0.067534 -1.83576 0
M  V30 2874 C 307.01 -3.43121 -1.07278 0
M  V30 2875 C 306.674 -4.56879 -0.105214 0
M  V30 2876 C 307.671 -5.15379 0.684149 0
M  V30 2877 C 305.356 -5.023 0.00489824 0
M  V30 2878 C 307.35 -6.17746 1.57062 0
M  V30 2879 C 305.037 -6.04511 0.894935 0
M  V30 2880 C 306.035 -6.62108 1.67637 0
M  V30 2881 O 305.723 -7.62335 2.55149 0
M  V30 2882 H 305.455 -0.665554 -0.118379 0
M  V30 2883 H 308.009 -2.03245 0.296737 0
M  V30 2884 H 306.239 -3.38425 -1.87097 0
M  V30 2885 H 307.928 -3.72093 -1.62177 0
M  V30 2886 H 308.694 -4.81157 0.609365 0
M  V30 2887 H 304.573 -4.57168 -0.593156 0
M  V30 2888 H 308.117 -6.6263 2.181 0
M  V30 2889 H 304.014 -6.38157 0.970847 0
M  V30 2890 H 304.782 -7.79741 2.48892 0
M  V30 2891 N 307.445 0.0818655 -1.57387 0
M  V30 2892 C 308.856 0.634871 -1.75574 0
M  V30 2893 C 309.207 1.78435 -0.815809 0
M  V30 2894 O 308.332 2.164 0.0025366 0
M  V30 2895 C 308.927 1.15845 -3.18379 0
M  V30 2896 C 307.486 1.65741 -3.37945 0
M  V30 2897 C 306.633 0.572549 -2.71325 0
M  V30 2898 H 309.584 -0.144268 -1.58043 0
M  V30 2899 H 309.605 2.02751 -3.21982 0
M  V30 2900 H 309.117 0.321631 -3.86765 0
M  V30 2901 H 307.218 2.51781 -2.74658 0
M  V30 2902 H 307.331 1.74129 -4.46336 0
M  V30 2903 H 305.695 1.01518 -2.33594 0
M  V30 2904 H 306.478 -0.253918 -3.4236 0
M  V30 2905 N 308.923 1.53595 0.353017 0
M  V30 2906 C 310.148 1.7462 1.11904 0
M  V30 2907 C 310.573 0.479721 1.8188 0
M  V30 2908 O 309.931 -0.567066 1.72204 0
M  V30 2909 C 309.979 2.92029 2.11545 0
M  V30 2910 O 309.083 2.61516 3.18878 0
M  V30 2911 H 308.424 0.579531 0.324099 0
M  V30 2912 H 310.954 2.00525 0.406301 0
M  V30 2913 H 310.964 3.18551 2.5493 0
M  V30 2914 H 309.639 3.83888 1.60008 0
M  V30 2915 H 308.216 2.45852 2.80377 0
M  V30 2916 N 310.401 -0.613514 1.45168 0
M  V30 2917 C 311.349 -1.74572 1.53712 0
M  V30 2918 C 312.343 -1.64426 0.407505 0
M  V30 2919 O 313.549 -1.70291 0.583176 0
M  V30 2920 H 309.924 -0.576641 0.48269 0
M  V30 2921 H 311.895 -1.64492 2.48968 0
M  V30 2922 C 310.644 -3.12943 1.51532 0
M  V30 2923 H 309.967 -3.21407 2.37776 0
M  V30 2924 H 311.407 -3.9201 1.61569 0
M  V30 2925 C 309.866 -3.36053 0.238798 0
M  V30 2926 O 310.396 -3.95837 -0.6838 0
M  V30 2927 N 308.602 -2.9028 0.136359 0
M  V30 2928 H 308.149 -2.41811 0.887999 0
M  V30 2929 H 308.107 -3.06116 -0.716944 0
M  V30 2930 N 311.879 -1.3236 -0.855495 0
M  V30 2931 C 313.107 -1.2587 -1.64208 0
M  V30 2932 C 313.522 0.173457 -1.88002 0
M  V30 2933 O 312.879 1.11027 -1.44842 0
M  V30 2934 C 312.93 -2.01424 -3.00184 0
M  V30 2935 O 312.651 -3.39051 -2.77445 0
M  V30 2936 C 314.152 -2.01948 -3.94629 0
M  V30 2937 H 311.372 -0.434318 -0.511477 0
M  V30 2938 H 313.916 -1.74469 -1.0668 0
M  V30 2939 H 312.071 -1.56549 -3.5436 0
M  V30 2940 H 312.485 -3.77711 -3.63916 0
M  V30 2941 H 313.959 -2.59297 -4.87308 0
M  V30 2942 H 314.436 -1.00554 -4.27534 0
M  V30 2943 H 315.042 -2.46767 -3.4639 0
M  V30 2944 N 313.357 1.07166 -1.15556 0
M  V30 2945 C 314.587 1.83248 -0.954133 0
M  V30 2946 C 314.995 1.82449 0.500911 0
M  V30 2947 O 314.338 1.23575 1.35923 0
M  V30 2948 C 314.4 3.31393 -1.39351 0
M  V30 2949 C 314.064 3.5591 -2.86666 0
M  V30 2950 C 315.061 3.49695 -3.8472 0
M  V30 2951 C 312.746 3.83515 -3.24379 0
M  V30 2952 C 314.74 3.70737 -5.18491 0
M  V30 2953 C 312.427 4.04209 -4.58321 0
M  V30 2954 C 313.425 3.97815 -5.55186 0
M  V30 2955 O 313.113 4.17954 -6.86709 0
M  V30 2956 H 312.845 0.584941 -0.338851 0
M  V30 2957 H 315.399 1.36169 -1.53777 0
M  V30 2958 H 313.629 3.79292 -0.75329 0
M  V30 2959 H 315.318 3.88945 -1.16089 0
M  V30 2960 H 316.084 3.28368 -3.56931 0
M  V30 2961 H 311.963 3.87605 -2.49567 0
M  V30 2962 H 315.507 3.65663 -5.94085 0
M  V30 2963 H 311.404 4.25023 -4.85825 0
M  V30 2964 H 312.172 4.35291 -6.93155 0
M  V30 2965 N 314.835 0.952656 1.25548 0
M  V30 2966 C 316.063 0.623496 1.97282 0
M  V30 2967 C 316.478 -0.803987 1.70826 0
M  V30 2968 O 315.835 -1.53755 0.983147 0
M  V30 2969 C 315.886 0.870209 3.5087 0
M  V30 2970 O 315.607 2.24156 3.76412 0
M  V30 2971 C 317.108 0.553164 4.39835 0
M  V30 2972 H 314.328 0.233931 0.628902 0
M  V30 2973 H 316.872 1.27649 1.59768 0
M  V30 2974 H 315.027 0.263652 3.86502 0
M  V30 2975 H 315.441 2.31021 4.70882 0
M  V30 2976 H 316.915 0.776342 5.46513 0
M  V30 2977 H 317.392 -0.512215 4.36203 0
M  V30 2978 H 317.998 1.13896 4.09766 0
M  V30 2979 N 316.313 -1.40141 0.720998 0
M  V30 2980 C 317.538 -2.05618 0.271258 0
M  V30 2981 C 317.963 -1.53978 -1.08039 0
M  V30 2982 O 317.321 -0.677463 -1.68167 0
M  V30 2983 C 317.369 -3.59609 0.267197 0
M  V30 2984 O 316.473 -4.05526 -0.749814 0
M  V30 2985 H 315.814 -0.651904 0.126162 0
M  V30 2986 H 318.344 -1.79439 0.982997 0
M  V30 2987 H 318.354 -4.0786 0.106744 0
M  V30 2988 H 317.029 -3.96559 1.25354 0
M  V30 2989 H 315.606 -3.68722 -0.556644 0
M  V30 2990 N 317.792 -0.46758 -1.50504 0
M  V30 2991 C 318.722 0.318381 -2.31319 0
M  V30 2992 C 319.703 0.993564 -1.38066 0
M  V30 2993 O 320.888 0.991411 -1.66987 0
M  V30 2994 C 318.018 1.40275 -3.17711 0
M  V30 2995 C 316.972 0.849373 -4.19487 0
M  V30 2996 C 316.298 2.03177 -4.94594 0
M  V30 2997 C 317.598 -0.136942 -5.2212 0
M  V30 2998 H 319.292 -0.356106 -2.97275 0
M  V30 2999 H 316.838 -0.172703 -1.42961 0
M  V30 3000 H 318.791 1.96004 -3.73042 0
M  V30 3001 H 317.515 2.10596 -2.49634 0
M  V30 3002 H 316.174 0.314076 -3.65252 0
M  V30 3003 H 315.822 2.72187 -4.22993 0
M  V30 3004 H 315.522 1.66774 -5.63436 0
M  V30 3005 H 317.046 2.59403 -5.52759 0
M  V30 3006 H 318.46 0.331056 -5.72343 0
M  V30 3007 H 316.857 -0.41507 -5.98663 0
M  V30 3008 H 317.927 -1.06398 -4.73083 0
M  V30 3009 N 319.27 1.56325 -0.20005 0
M  V30 3010 C 320.218 2.20666 0.735482 0
M  V30 3011 C 321.212 1.17934 1.21605 0
M  V30 3012 O 322.418 1.36068 1.17837 0
M  V30 3013 H 318.793 0.70725 0.255542 0
M  V30 3014 H 320.764 2.9792 0.169166 0
M  V30 3015 C 319.513 2.88391 1.94232 0
M  V30 3016 H 318.836 3.67185 1.58161 0
M  V30 3017 H 320.276 3.3684 2.57517 0
M  V30 3018 C 318.735 1.89692 2.78421 0
M  V30 3019 O 319.265 1.40032 3.76502 0
M  V30 3020 N 317.471 1.57813 2.44015 0
M  V30 3021 H 317.018 1.9839 1.64314 0
M  V30 3022 H 316.976 0.920325 3.00628 0
M  V30 3023 N 320.748 -0.0735177 1.57428 0
M  V30 3024 C 321.996 -0.771472 1.86796 0
M  V30 3025 C 322.317 -1.78201 0.791804 0
M  V30 3026 O 321.587 -1.95074 -0.179718 0
M  V30 3027 H 320.167 -0.28791 0.689287 0
M  V30 3028 H 322.829 -0.0500161 1.94836 0
M  V30 3029 H 321.925 -1.28874 2.8425 0
M  V30 3030 N 322.226 -1.5378 -0.344866 0
M  V30 3031 C 323.454 -1.74899 -1.10534 0
M  V30 3032 C 323.869 -0.487534 -1.82397 0
M  V30 3033 O 323.226 0.540741 -1.74305 0
M  V30 3034 C 323.277 -2.92822 -2.11984 0
M  V30 3035 O 322.998 -4.14089 -1.43044 0
M  V30 3036 C 324.499 -3.25982 -3.00417 0
M  V30 3037 H 321.719 -0.584426 -0.329678 0
M  V30 3038 H 324.263 -2.006 -0.397474 0
M  V30 3039 H 322.418 -2.69457 -2.78338 0
M  V30 3040 H 322.832 -4.80272 -2.10805 0
M  V30 3041 H 324.306 -4.11848 -3.67539 0
M  V30 3042 H 324.783 -2.42228 -3.66363 0
M  V30 3043 H 325.389 -3.51349 -2.39654 0
M  V30 3044 N 323.704 0.605807 -1.45491 0
M  V30 3045 C 324.929 1.39625 -1.53361 0
M  V30 3046 C 325.354 1.87351 -0.167645 0
M  V30 3047 O 324.712 1.60243 0.848051 0
M  V30 3048 C 324.76 2.57559 -2.5238 0
M  V30 3049 O 323.864 3.58248 -2.04285 0
M  V30 3050 H 323.205 0.416771 -0.516912 0
M  V30 3051 H 325.735 0.737103 -1.90861 0
M  V30 3052 H 325.745 3.0478 -2.71244 0
M  V30 3053 H 324.42 2.22171 -3.51586 0
M  V30 3054 H 322.997 3.17664 -1.95305 0
M  V30 3055 N 325.182 1.32811 0.848464 0
M  V30 3056 C 326.115 1.16601 1.96162 0
M  V30 3057 C 327.093 0.0638855 1.62474 0
M  V30 3058 O 328.277 0.224348 1.8716 0
M  V30 3059 C 325.404 0.786333 3.29446 0
M  V30 3060 C 324.45 1.89459 3.8211 0
M  V30 3061 S 325.283 3.50395 4.04949 0
M  V30 3062 C 326.439 3.14413 5.41198 0
M  V30 3063 H 326.672 2.10832 2.09612 0
M  V30 3064 H 324.205 1.17543 1.00115 0
M  V30 3065 H 326.163 0.574044 4.06466 0
M  V30 3066 H 324.824 -0.137218 3.138 0
M  V30 3067 H 324.017 1.58207 4.78526 0
M  V30 3068 H 323.619 2.06304 3.11953 0
M  V30 3069 H 325.911 2.64642 6.23675 0
M  V30 3070 H 326.854 4.09874 5.77416 0
M  V30 3071 H 327.262 2.51266 5.05495 0
M  V30 3072 N 326.66 -1.06551 1.16123 0
M  V30 3073 C 327.623 -2.12132 0.867906 0
M  V30 3074 C 328.623 -1.60224 -0.135944 0
M  V30 3075 O 329.813 -1.73943 0.0946422 0
M  V30 3076 C 326.945 -3.396 0.297419 0
M  V30 3077 H 328.138 -2.39586 1.80385 0
M  V30 3078 H 325.691 -1.22574 0.969812 0
M  V30 3079 H 326.426 -3.17794 -0.64633 0
M  V30 3080 H 326.211 -3.78581 1.02073 0
M  V30 3081 H 327.701 -4.17455 0.110052 0
M  V30 3082 N 328.138 -0.959301 -1.25041 0
M  V30 3083 C 329.363 -0.633507 -1.97488 0
M  V30 3084 C 329.788 0.788555 -1.70773 0
M  V30 3085 O 329.146 1.53394 -0.966431 0
M  V30 3086 C 329.194 -0.904057 -3.49083 0
M  V30 3087 O 328.298 0.0147939 -4.12397 0
M  V30 3088 H 327.639 -0.240368 -0.618966 0
M  V30 3089 H 330.169 -1.28717 -1.59038 0
M  V30 3090 H 330.179 -0.832203 -3.99423 0
M  V30 3091 H 328.854 -1.94048 -3.67856 0
M  V30 3092 H 327.431 -0.109664 -3.72739 0
M  V30 3093 N 329.616 1.39756 -0.72842 0
M  V30 3094 C 331.027 1.83498 -0.344289 0
M  V30 3095 C 331.378 1.60868 1.12321 0
M  V30 3096 O 330.503 1.09634 1.86573 0
M  V30 3097 C 331.098 3.33114 -0.618112 0
M  V30 3098 C 329.657 3.753 -0.287549 0
M  V30 3099 C 328.804 2.62831 -0.884048 0
M  V30 3100 H 331.755 1.28842 -0.926578 0
M  V30 3101 H 331.776 3.80334 0.112349 0
M  V30 3102 H 331.288 3.49553 -1.68625 0
M  V30 3103 H 329.389 3.64451 0.775012 0
M  V30 3104 H 329.502 4.72945 -0.765512 0
M  V30 3105 H 327.866 2.52792 -0.311149 0
M  V30 3106 H 328.649 2.82078 -1.95671 0
M  V30 3107 N 331.094 0.475555 1.50254 0
M  V30 3108 C 332.044 -0.335025 2.25525 0
M  V30 3109 C 333.028 -0.957625 1.29299 0
M  V30 3110 O 334.22 -0.869436 1.54175 0
M  V30 3111 C 331.349 -1.41385 3.12834 0
M  V30 3112 C 330.435 -0.798762 4.1651 0
M  V30 3113 N 330.826 0.0835815 5.05731 0
M  V30 3114 C 329.124 -1.06221 4.33166 0
M  V30 3115 C 329.825 0.433113 5.80085 0
M  V30 3116 N 328.801 -0.1928 5.43258 0
M  V30 3117 H 332.603 0.344612 2.91873 0
M  V30 3118 H 330.117 0.289986 1.5979 0
M  V30 3119 H 332.114 -2.00777 3.65368 0
M  V30 3120 H 330.774 -2.09543 2.48036 0
M  V30 3121 H 331.785 0.452715 5.15918 0
M  V30 3122 H 328.462 -1.73844 3.79585 0
M  V30 3123 H 329.852 1.15346 6.61925 0
M  V30 3124 N 332.573 -1.56217 0.208337 0
M  V30 3125 C 333.819 -1.98242 -0.427552 0
M  V30 3126 C 334.152 -1.09554 -1.60348 0
M  V30 3127 O 333.427 -0.15035 -1.93918 0
M  V30 3128 C 333.71 -3.4931 -0.874907 0
M  V30 3129 C 333.563 -4.48773 0.303751 0
M  V30 3130 C 334.882 -4.04424 -1.73577 0
M  V30 3131 H 332.001 -0.720744 -0.153936 0
M  V30 3132 H 334.643 -1.87586 0.30192 0
M  V30 3133 H 332.793 -3.58522 -1.49648 0
M  V30 3134 H 334.465 -4.51586 0.941682 0
M  V30 3135 H 332.708 -4.23194 0.953375 0
M  V30 3136 H 333.379 -5.51976 -0.0519883 0
M  V30 3137 H 335.855 -3.98075 -1.21143 0
M  V30 3138 H 334.731 -5.1047 -2.01771 0
M  V30 3139 H 334.992 -3.50494 -2.69456 0
M  V30 3140 N 334.051 0.0651679 -1.57465 0
M  V30 3141 C 335.014 1.06117 -2.03155 0
M  V30 3142 C 336.014 1.31204 -0.929632 0
M  V30 3143 O 337.204 1.26813 -1.19432 0
M  V30 3144 C 334.336 2.4032 -2.41783 0
M  V30 3145 H 335.529 0.667231 -2.92383 0
M  V30 3146 H 333.082 0.311075 -1.53173 0
M  V30 3147 H 333.817 2.84532 -1.55601 0
M  V30 3148 H 333.602 2.23451 -3.22199 0
M  V30 3149 H 335.092 3.11898 -2.77685 0
M  V30 3150 N 335.529 1.53961 0.336706 0
M  V30 3151 C 336.777 1.71197 1.07405 0
M  V30 3152 C 337.098 0.481475 1.88962 0
M  V30 3153 O 336.368 -0.504585 1.8929 0
M  V30 3154 H 334.948 0.631185 0.399517 0
M  V30 3155 H 337.61 1.91232 0.376323 0
M  V30 3156 H 336.706 2.58587 1.74755 0
M  V30 3157 N 337.007 -0.598083 1.45811 0
M  V30 3158 C 337.97 -1.69018 1.54808 0
M  V30 3159 C 338.97 -1.55037 0.426652 0
M  V30 3160 O 340.16 -1.59932 0.690456 0
M  V30 3161 C 337.292 -3.0835 1.45371 0
M  V30 3162 H 338.485 -1.62403 2.52121 0
M  V30 3163 H 336.038 -0.814626 1.33392 0
M  V30 3164 H 336.773 -3.20534 0.492793 0
M  V30 3165 H 336.558 -3.19907 2.26721 0
M  V30 3166 H 338.048 -3.8788 1.54721 0
M  V30 3167 N 338.485 -1.33259 -0.841409 0
M  V30 3168 C 339.448 -1.23221 -1.9326 0
M  V30 3169 C 340.448 -0.151895 -1.60081 0
M  V30 3170 O 341.638 -0.403246 -1.69468 0
M  V30 3171 C 338.77 -0.898123 -3.28856 0
M  V30 3172 H 339.963 -2.2021 -2.03587 0
M  V30 3173 H 337.516 -1.17281 -1.03319 0
M  V30 3174 H 338.251 0.0693841 -3.24226 0
M  V30 3175 H 338.036 -1.67934 -3.54317 0
M  V30 3176 H 339.526 -0.852563 -4.08805 0
M  V30 3177 N 339.963 1.05934 -1.16686 0
M  V30 3178 C 340.926 2.11669 -0.879144 0
M  V30 3179 C 341.926 1.60294 0.127445 0
M  V30 3180 O 343.116 1.7389 -0.103865 0
M  V30 3181 C 340.248 3.39438 -0.315425 0
M  V30 3182 H 341.441 2.38626 -1.81653 0
M  V30 3183 H 338.994 1.22058 -0.976299 0
M  V30 3184 H 339.729 3.18132 0.629468 0
M  V30 3185 H 339.514 3.78034 -1.04079 0
M  V30 3186 H 341.004 4.17391 -0.132189 0
M  V30 3187 N 341.441 0.965919 1.2453 0
M  V30 3188 C 342.371 0.513476 2.27784 0
M  V30 3189 C 343.352 -0.445974 1.6415 0
M  V30 3190 O 344.537 -0.342485 1.91156 0
M  V30 3191 C 341.667 -0.198839 3.4673 0
M  V30 3192 C 340.621 0.676456 4.2262 0
M  V30 3193 C 339.947 -0.167248 5.34438 0
M  V30 3194 C 341.247 1.96017 4.84123 0
M  V30 3195 H 342.941 1.3765 2.65881 0
M  V30 3196 H 340.487 0.663321 1.27813 0
M  V30 3197 H 342.44 -0.526567 4.18097 0
M  V30 3198 H 341.164 -1.0962 3.07654 0
M  V30 3199 H 339.823 0.98743 3.53052 0
M  V30 3200 H 339.471 -1.0647 4.91603 0
M  V30 3201 H 339.171 0.415181 5.86131 0
M  V30 3202 H 340.695 -0.489688 6.08633 0
M  V30 3203 H 342.109 1.69814 5.47573 0
M  V30 3204 H 340.506 2.48918 5.4604 0
M  V30 3205 H 341.576 2.65622 4.05676 0
M  V30 3206 N 342.919 -1.39368 0.735821 0
M  V30 3207 C 344.168 -1.99733 0.281004 0
M  V30 3208 C 344.481 -1.59055 -1.13846 0
M  V30 3209 O 345.687 -2.12262 -1.69284 0
M  V30 3210 C 344.143 -3.57057 0.451462 0
M  V30 3211 C 343.751 -4.06697 1.87886 0
M  V30 3212 C 345.495 -4.2446 0.0584616 0
M  V30 3213 C 343.402 -5.56598 1.99883 0
M  V30 3214 H 342.332 -0.747163 0.101311 0
M  V30 3215 H 344.983 -1.59357 0.909819 0
M  V30 3216 H 343.365 -3.95234 -0.246263 0
M  V30 3217 H 344.539 -3.79853 2.60861 0
M  V30 3218 H 342.854 -3.5196 2.22515 0
M  V30 3219 H 345.451 -5.34549 0.127099 0
M  V30 3220 H 345.794 -4.04444 -0.986433 0
M  V30 3221 H 346.327 -3.9146 0.707374 0
M  V30 3222 H 343.066 -5.81494 3.02564 0
M  V30 3223 H 342.586 -5.85242 1.31346 0
M  V30 3224 H 344.265 -6.22022 1.78039 0
M  V30 3225 N 344.397 -0.483516 -1.5 0
M  V30 3226 C 345.327 0.293829 -2.31644 0
M  V30 3227 C 346.308 0.978864 -1.39112 0
M  V30 3228 O 347.493 0.973644 -1.68029 0
M  V30 3229 C 344.623 1.36897 -3.19181 0
M  V30 3230 C 343.577 0.804833 -4.20365 0
M  V30 3231 C 342.903 1.9792 -4.96721 0
M  V30 3232 C 344.203 -0.192313 -5.21946 0
M  V30 3233 H 345.897 -0.387616 -2.9688 0
M  V30 3234 H 343.443 -0.187856 -1.42769 0
M  V30 3235 H 345.396 1.92037 -3.751 0
M  V30 3236 H 344.12 2.07936 -2.51853 0
M  V30 3237 H 342.779 0.275319 -3.65565 0
M  V30 3238 H 342.427 2.67686 -4.25856 0
M  V30 3239 H 342.127 1.60789 -5.65173 0
M  V30 3240 H 343.651 2.53526 -5.55479 0
M  V30 3241 H 345.065 0.270333 -5.72662 0
M  V30 3242 H 343.462 -0.478543 -5.98189 0
M  V30 3243 H 344.532 -1.11409 -4.71928 0
M  V30 3244 N 345.875 1.56104 -0.216619 0
M  V30 3245 C 347.1 2.0301 0.424462 0
M  V30 3246 C 347.525 1.0955 1.52907 0
M  V30 3247 O 346.883 0.0827914 1.81111 0
M  V30 3248 C 346.931 3.4819 0.937883 0
M  V30 3249 O 346.035 3.57865 2.04955 0
M  V30 3250 H 345.376 0.656925 0.0966755 0
M  V30 3251 H 347.906 2.01859 -0.33381 0
M  V30 3252 H 347.916 3.88413 1.24897 0
M  V30 3253 H 346.591 4.15699 0.129387 0
M  V30 3254 H 345.168 3.29527 1.74546 0
M  V30 3255 N 347.353 -0.0568162 1.57498 0
M  V30 3256 C 348.3 -1.06591 2.04712 0
M  V30 3257 C 349.27 -1.3758 0.930644 0
M  V30 3258 O 350.455 -1.48392 1.19935 0
M  V30 3259 C 347.595 -2.3701 2.50839 0
M  V30 3260 C 346.708 -2.12421 3.76167 0
M  V30 3261 C 345.843 -3.36511 4.11015 0
M  V30 3262 C 344.882 -3.07353 5.2934 0
M  V30 3263 N 344.019 -4.23816 5.59754 0
M  V30 3264 H 348.859 -0.65631 2.90683 0
M  V30 3265 H 346.396 -0.312481 1.43743 0
M  V30 3266 H 348.354 -3.13175 2.7564 0
M  V30 3267 H 346.984 -2.75744 1.67825 0
M  V30 3268 H 346.036 -1.2688 3.58616 0
M  V30 3269 H 347.348 -1.86894 4.62463 0
M  V30 3270 H 346.502 -4.21062 4.36797 0
M  V30 3271 H 345.241 -3.65128 3.23315 0
M  V30 3272 H 344.246 -2.212 5.03339 0
M  V30 3273 H 345.471 -2.80043 6.1867 0
M  V30 3274 H 343.417 -4.52436 4.75014 0
M  V30 3275 H 343.334 -4.01614 6.40501 0
M  V30 3276 H 344.602 -5.0932 5.90096 0
M  V30 3277 N 348.832 -1.54138 -0.328536 0
M  V30 3278 C 350.062 -1.75807 -1.08516 0
M  V30 3279 C 350.47 -0.50428 -1.82356 0
M  V30 3280 O 349.813 0.534451 -1.75754 0
M  V30 3281 C 349.875 -2.89423 -2.13248 0
M  V30 3282 C 349.539 -4.28504 -1.5885 0
M  V30 3283 C 350.536 -5.09536 -1.03289 0
M  V30 3284 C 348.221 -4.75034 -1.63243 0
M  V30 3285 C 350.215 -6.35206 -0.52845 0
M  V30 3286 C 347.902 -6.00672 -1.12411 0
M  V30 3287 C 348.9 -6.80592 -0.573062 0
M  V30 3288 O 348.588 -8.03867 -0.0723692 0
M  V30 3289 H 348.32 -0.590633 -0.328829 0
M  V30 3290 H 350.874 -2.01819 -0.381868 0
M  V30 3291 H 349.104 -2.5897 -2.87178 0
M  V30 3292 H 350.793 -2.98921 -2.74592 0
M  V30 3293 H 351.559 -4.74745 -0.99206 0
M  V30 3294 H 347.438 -4.12875 -2.05074 0
M  V30 3295 H 350.982 -6.97532 -0.0976774 0
M  V30 3296 H 346.879 -6.34955 -1.162 0
M  V30 3297 H 347.647 -8.18283 -0.188258 0
M  V30 3298 N 350.31 0.590341 -1.46126 0
M  V30 3299 C 351.721 1.17243 -1.45296 0
M  V30 3300 C 352.072 1.95281 -0.189723 0
M  V30 3301 O 351.197 2.04502 0.707674 0
M  V30 3302 C 351.792 2.13284 -2.6324 0
M  V30 3303 C 350.351 2.66832 -2.65476 0
M  V30 3304 C 349.498 1.42557 -2.3785 0
M  V30 3305 H 352.449 0.378692 -1.54116 0
M  V30 3306 H 352.47 2.96619 -2.38323 0
M  V30 3307 H 351.982 1.56459 -3.55165 0
M  V30 3308 H 350.083 3.27548 -1.77603 0
M  V30 3309 H 350.196 3.10088 -3.65215 0
M  V30 3310 H 348.56 1.72107 -1.87753 0
M  V30 3311 H 349.343 0.875741 -3.31942 0
M  V30 3312 N 351.788 1.33704 0.83433 0
M  V30 3313 C 353.016 1.28467 1.62185 0
M  V30 3314 C 353.431 -0.143526 1.88254 0
M  V30 3315 O 352.788 -1.08709 1.4659 0
M  V30 3316 C 352.839 2.06174 2.96942 0
M  V30 3317 O 352.56 3.43422 2.72016 0
M  V30 3318 C 354.061 2.08201 3.91366 0
M  V30 3319 H 351.281 0.4424 0.504503 0
M  V30 3320 H 353.825 1.76145 1.03891 0
M  V30 3321 H 351.98 1.62167 3.51825 0
M  V30 3322 H 352.394 3.83453 3.57861 0
M  V30 3323 H 353.868 2.67017 4.83121 0
M  V30 3324 H 354.345 1.07343 4.2588 0
M  V30 3325 H 354.951 2.52246 3.42421 0
M  V30 3326 N 353.266 -1.05314 1.17247 0
M  V30 3327 C 354.196 -2.1498 0.911362 0
M  V30 3328 C 355.177 -1.69471 -0.146169 0
M  V30 3329 O 356.362 -1.942 0.003812 0
M  V30 3330 C 353.492 -3.4472 0.422528 0
M  V30 3331 C 352.446 -4.03789 1.4191 0
M  V30 3332 C 351.772 -5.28858 0.788274 0
M  V30 3333 C 353.072 -4.41418 2.7919 0
M  V30 3334 H 354.766 -2.3708 1.82848 0
M  V30 3335 H 352.312 -1.13938 0.880569 0
M  V30 3336 H 354.265 -4.20787 0.227289 0
M  V30 3337 H 352.989 -3.22269 -0.530123 0
M  V30 3338 H 351.648 -3.2979 1.60106 0
M  V30 3339 H 351.296 -5.02709 -0.171173 0
M  V30 3340 H 350.996 -5.69338 1.45353 0
M  V30 3341 H 352.52 -6.07612 0.603282 0
M  V30 3342 H 353.934 -5.08524 2.64719 0
M  V30 3343 H 352.331 -4.92913 3.42282 0
M  V30 3344 H 353.401 -3.51819 3.33693 0
M  V30 3345 N 354.744 -0.972509 -1.24016 0
M  V30 3346 C 355.969 -0.654417 -1.96805 0
M  V30 3347 C 356.394 0.770398 -1.716 0
M  V30 3348 O 355.752 1.52361 -0.982647 0
M  V30 3349 C 355.8 -0.941031 -3.48105 0
M  V30 3350 O 354.904 -0.0289472 -4.1239 0
M  V30 3351 H 354.245 -0.24692 -0.616382 0
M  V30 3352 H 356.775 -1.30396 -1.57664 0
M  V30 3353 H 356.785 -0.87452 -3.98517 0
M  V30 3354 H 355.46 -1.97939 -3.65777 0
M  V30 3355 H 354.037 -0.149192 -3.72601 0
M  V30 3356 N 356.222 1.38976 -0.743202 0
M  V30 3357 C 357.185 2.28901 -0.117014 0
M  V30 3358 C 358.185 1.46698 0.658503 0
M  V30 3359 O 359.375 1.67274 0.486305 0
M  V30 3360 C 356.507 3.30309 0.84315 0
M  V30 3361 H 357.7 2.8578 -0.909373 0
M  V30 3362 H 355.253 1.47761 -0.509547 0
M  V30 3363 H 355.988 2.785 1.66157 0
M  V30 3364 H 355.773 3.91029 0.289594 0
M  V30 3365 H 357.263 3.97577 1.2776 0
M  V30 3366 N 357.7 0.491464 1.49741 0
M  V30 3367 C 358.925 -0.0557177 2.07325 0
M  V30 3368 C 359.35 -1.30925 1.35056 0
M  V30 3369 O 358.708 -1.76733 0.404365 0
M  V30 3370 C 358.756 -0.302074 3.59333 0
M  V30 3371 O 357.86 -1.37868 3.88672 0
M  V30 3372 H 357.201 0.0219956 0.663636 0
M  V30 3373 H 359.731 0.688352 1.92673 0
M  V30 3374 H 359.741 -0.536464 4.04458 0
M  V30 3375 H 358.416 0.61383 4.11345 0
M  V30 3376 H 356.993 -1.12999 3.55367 0
M  V30 3377 N 359.178 -1.55987 0.224894 0
M  V30 3378 C 360.11 -2.17722 -0.716224 0
M  V30 3379 C 361.123 -1.14723 -1.15509 0
M  V30 3380 O 362.312 -1.41688 -1.08567 0
M  V30 3381 C 359.412 -2.74873 -1.98238 0
M  V30 3382 C 358.585 -4.03074 -1.69853 0
M  V30 3383 C 357.644 -4.44757 -2.81208 0
M  V30 3384 O 356.67 -5.11587 -2.49534 0
M  V30 3385 N 357.872 -4.10716 -4.10235 0
M  V30 3386 H 360.637 -2.99109 -0.188123 0
M  V30 3387 H 358.198 -1.6184 0.0440123 0
M  V30 3388 H 360.19 -2.99727 -2.7193 0
M  V30 3389 H 358.76 -1.9777 -2.42086 0
M  V30 3390 H 357.98 -3.86041 -0.797875 0
M  V30 3391 H 359.268 -4.86701 -1.48324 0
M  V30 3392 H 358.666 -3.57019 -4.38809 0
M  V30 3393 H 357.223 -4.40455 -4.80461 0
M  V30 3394 N 360.656 0.0484629 -1.57525 0
M  V30 3395 C 361.902 0.744226 -1.88651 0
M  V30 3396 C 362.235 1.76029 -0.820212 0
M  V30 3397 O 361.51 1.93782 0.166985 0
M  V30 3398 C 361.793 1.43128 -3.30434 0
M  V30 3399 C 361.646 0.43005 -4.47739 0
M  V30 3400 C 362.965 2.37031 -3.70816 0
M  V30 3401 H 360.084 0.269089 -0.68612 0
M  V30 3402 H 362.726 0.00713532 -1.89999 0
M  V30 3403 H 360.876 2.05956 -3.29415 0
M  V30 3404 H 362.548 -0.194816 -4.60888 0
M  V30 3405 H 360.791 -0.252522 -4.33064 0
M  V30 3406 H 361.462 0.948874 -5.43783 0
M  V30 3407 H 363.938 1.84263 -3.73077 0
M  V30 3408 H 362.814 2.82094 -4.70865 0
M  V30 3409 H 363.075 3.22864 -3.02012 0
M  V30 3410 N 362.134 1.5431 0.320358 0
M  V30 3411 C 363.55 1.45091 0.664889 0
M  V30 3412 C 363.75 0.626382 1.91517 0
M  V30 3413 O 362.806 0.126443 2.52183 0
M  V30 3414 C 364.119 2.88848 0.83591 0
M  V30 3415 C 365.667 2.9877 0.933046 0
M  V30 3416 C 366.142 4.43683 1.13621 0
M  V30 3417 N 367.633 4.47309 1.20287 0
M  V30 3418 C 368.368 5.56595 1.37801 0
M  V30 3419 N 367.864 6.75844 1.52338 0
M  V30 3420 N 369.657 5.44248 1.40535 0
M  V30 3421 H 361.808 2.06398 -0.501374 0
M  V30 3422 H 364.071 0.933963 -0.162534 0
M  V30 3423 H 363.777 3.51698 -0.0116092 0
M  V30 3424 H 363.651 3.35148 1.73078 0
M  V30 3425 H 366.038 2.36045 1.77107 0
M  V30 3426 H 366.119 2.55796 0.0145782 0
M  V30 3427 H 365.763 5.06995 0.303032 0
M  V30 3428 H 365.693 4.84269 2.0686 0
M  V30 3429 H 368.184 3.61388 1.10485 0
M  V30 3430 H 368.497 7.54892 1.65403 0
M  V30 3431 H 366.842 6.78746 1.4943 0
M  V30 3432 H 370.033 4.50038 1.28777 0
M  V30 3433 H 370.206 6.29473 1.53842 0
M  V30 3434 N 363.613 -0.582584 1.46437 0
M  V30 3435 C 364.561 -1.71272 1.5738 0
M  V30 3436 C 365.555 -1.63524 0.44229 0
M  V30 3437 O 366.761 -1.69016 0.619166 0
M  V30 3438 H 363.136 -0.566273 0.494813 0
M  V30 3439 H 365.107 -1.59174 2.52401 0
M  V30 3440 C 363.856 -3.09658 1.58136 0
M  V30 3441 H 363.179 -3.16291 2.44541 0
M  V30 3442 H 364.619 -3.88494 1.69847 0
M  V30 3443 C 363.078 -3.3547 0.310026 0
M  V30 3444 O 363.608 -3.97199 -0.599683 0
M  V30 3445 N 361.814 -2.89925 0.197901 0
M  V30 3446 H 361.361 -2.39873 0.93909 0
M  V30 3447 H 361.319 -3.07568 -0.65185 0
M  V30 3448 N 365.091 -1.34144 -0.827227 0
M  V30 3449 C 366.507 -1.13732 -1.11969 0
M  V30 3450 C 366.707 0.0640463 -2.01398 0
M  V30 3451 O 365.763 0.740856 -2.41387 0
M  V30 3452 C 367.076 -2.43047 -1.77055 0
M  V30 3453 C 368.624 -2.49063 -1.89569 0
M  V30 3454 C 369.099 -3.78369 -2.58072 0
M  V30 3455 N 370.59 -3.79505 -2.65575 0
M  V30 3456 C 371.325 -4.76274 -3.19297 0
M  V30 3457 N 370.821 -5.83424 -3.73616 0
M  V30 3458 N 372.614 -4.63735 -3.17658 0
M  V30 3459 H 364.765 -2.11126 -0.232296 0
M  V30 3460 H 367.028 -0.933424 -0.165602 0
M  V30 3461 H 366.734 -3.31025 -1.18807 0
M  V30 3462 H 366.608 -2.56066 -2.76966 0
M  V30 3463 H 368.995 -1.61527 -2.46968 0
M  V30 3464 H 369.076 -2.39975 -0.885745 0
M  V30 3465 H 368.72 -4.66293 -2.01329 0
M  V30 3466 H 368.65 -3.84737 -3.59562 0
M  V30 3467 H 371.141 -3.02074 -2.27068 0
M  V30 3468 H 371.454 -6.53282 -4.12846 0
M  V30 3469 H 369.799 -5.87143 -3.71871 0
M  V30 3470 H 372.99 -3.79177 -2.74486 0
M  V30 3471 H 373.163 -5.39318 -3.59221 0
M  V30 3472 N 366.569 1.04691 -1.17803 0
M  V30 3473 C 367.499 2.14494 -0.92275 0
M  V30 3474 C 368.48 1.69546 0.137179 0
M  V30 3475 O 369.665 1.94195 -0.0141108 0
M  V30 3476 C 366.795 3.44491 -0.440803 0
M  V30 3477 C 365.749 4.03031 -1.4405 0
M  V30 3478 C 365.075 5.28432 -0.81631 0
M  V30 3479 C 366.375 4.39932 -2.81527 0
M  V30 3480 H 368.069 2.36107 -1.84103 0
M  V30 3481 H 365.615 1.1347 -0.886599 0
M  V30 3482 H 367.568 4.2066 -0.249602 0
M  V30 3483 H 366.292 3.22546 0.513025 0
M  V30 3484 H 364.951 3.28937 -1.61853 0
M  V30 3485 H 364.599 5.02792 0.144511 0
M  V30 3486 H 364.299 5.68559 -1.48371 0
M  V30 3487 H 365.823 6.07284 -0.635496 0
M  V30 3488 H 367.237 5.07113 -2.67412 0
M  V30 3489 H 365.634 4.9109 -3.44892 0
M  V30 3490 H 366.704 3.50045 -3.35554 0
M  V30 3491 N 368.047 0.979072 1.23499 0
M  V30 3492 C 369.272 0.664845 1.96455 0
M  V30 3493 C 369.697 -0.761287 1.72006 0
M  V30 3494 O 369.055 -1.51837 0.990713 0
M  V30 3495 C 369.103 0.959479 3.47601 0
M  V30 3496 O 368.207 0.0508168 4.12369 0
M  V30 3497 H 367.548 0.250185 0.615064 0
M  V30 3498 H 370.078 1.31231 1.5697 0
M  V30 3499 H 370.088 0.895642 3.98048 0
M  V30 3500 H 368.763 1.99876 3.64723 0
M  V30 3501 H 367.34 0.16895 3.72517 0
M  V30 3502 N 369.525 -1.3858 0.750561 0
M  V30 3503 C 370.75 -2.04997 0.314812 0
M  V30 3504 C 371.175 -1.56235 -1.04749 0
M  V30 3505 O 370.533 -0.712981 -1.66692 0
M  V30 3506 C 370.581 -3.58961 0.343415 0
M  V30 3507 O 369.685 -4.07025 -0.663628 0
M  V30 3508 H 369.026 -0.649081 0.139962 0
M  V30 3509 H 371.556 -1.77313 1.02084 0
M  V30 3510 H 371.566 -4.07542 0.193233 0
M  V30 3511 H 370.241 -3.93811 1.33738 0
M  V30 3512 H 368.818 -3.6982 -0.478307 0
M  V30 3513 N 371.003 -0.499398 -1.49478 0
M  V30 3514 C 372.231 0.0425456 -2.06856 0
M  V30 3515 C 372.646 1.30964 -1.35992 0
M  V30 3516 O 372.003 1.77172 -0.437762 0
M  V30 3517 C 372.054 0.301735 -3.60239 0
M  V30 3518 O 371.775 -0.915127 -4.28436 0
M  V30 3519 C 373.276 0.887499 -4.34325 0
M  V30 3520 H 370.496 -0.0197482 -0.670709 0
M  V30 3521 H 373.04 -0.696297 -1.92281 0
M  V30 3522 H 371.195 0.990556 -3.74522 0
M  V30 3523 H 371.609 -0.676993 -5.20113 0
M  V30 3524 H 373.083 1.01845 -5.42523 0
M  V30 3525 H 373.56 1.88488 -3.96698 0
M  V30 3526 H 374.166 0.236196 -4.24644 0
M  V30 3527 N 372.481 1.55866 -0.233164 0
M  V30 3528 C 373.444 2.1953 0.658715 0
M  V30 3529 C 374.444 1.16053 1.11303 0
M  V30 3530 O 375.634 1.41218 1.01996 0
M  V30 3531 C 372.766 2.82791 1.90373 0
M  V30 3532 H 373.959 2.99721 0.10347 0
M  V30 3533 H 371.512 1.56291 0.0164245 0
M  V30 3534 H 372.247 2.06501 2.50056 0
M  V30 3535 H 372.032 3.58578 1.58632 0
M  V30 3536 H 373.522 3.31556 2.53891 0
M  V30 3537 N 373.959 -0.0401083 1.57549 0
M  V30 3538 C 375.187 -0.745196 1.93014 0
M  V30 3539 C 375.602 -1.6948 0.831984 0
M  V30 3540 O 374.959 -1.81482 -0.192463 0
M  V30 3541 C 375.01 -1.51176 3.28372 0
M  V30 3542 O 374.731 -0.600284 4.33968 0
M  V30 3543 C 376.232 -2.315 3.78051 0
M  V30 3544 H 373.452 -0.210088 0.637263 0
M  V30 3545 H 375.996 -0.000924689 2.045 0
M  V30 3546 H 374.151 -2.20801 3.18317 0
M  V30 3547 H 374.565 -1.13669 5.12035 0
M  V30 3548 H 376.039 -2.80697 4.75303 0
M  V30 3549 H 376.516 -3.12436 3.08675 0
M  V30 3550 H 377.122 -1.66971 3.91153 0
M  V30 3551 N 375.437 -1.54477 -0.31217 0
M  V30 3552 C 376.385 -1.85395 -1.40469 0
M  V30 3553 C 377.379 -0.726749 -1.53019 0
M  V30 3554 O 378.585 -0.910582 -1.55269 0
M  V30 3555 H 374.96 -0.587845 -0.46898 0
M  V30 3556 H 376.931 -2.76736 -1.11623 0
M  V30 3557 C 375.68 -2.10811 -2.76503 0
M  V30 3558 H 375.003 -2.97014 -2.67625 0
M  V30 3559 H 376.443 -2.3639 -3.51988 0
M  V30 3560 C 374.902 -0.903165 -3.24568 0
M  V30 3561 O 375.432 -0.118085 -4.01526 0
M  V30 3562 N 373.638 -0.711634 -2.81752 0
M  V30 3563 H 373.185 -1.35171 -2.19286 0
M  V30 3564 H 373.143 0.0930473 -3.14262 0
M  V30 3565 N 376.915 0.57481 -1.46744 0
M  V30 3566 C 377.845 1.69337 -1.60771 0
M  V30 3567 C 378.826 1.63825 -0.457736 0
M  V30 3568 O 380.011 1.8172 -0.684947 0
M  V30 3569 C 377.141 3.0798 -1.60517 0
M  V30 3570 C 376.095 3.28327 -2.74564 0
M  V30 3571 C 375.421 4.67578 -2.59373 0
M  V30 3572 C 376.721 3.15398 -4.16319 0
M  V30 3573 H 378.415 1.57853 -2.54407 0
M  V30 3574 H 375.961 0.75799 -1.22436 0
M  V30 3575 H 377.914 3.86061 -1.68923 0
M  V30 3576 H 376.638 3.20381 -0.634305 0
M  V30 3577 H 375.297 2.52649 -2.65639 0
M  V30 3578 H 374.945 4.76755 -1.60353 0
M  V30 3579 H 374.645 4.82144 -3.35873 0
M  V30 3580 H 376.169 5.47817 -2.69682 0
M  V30 3581 H 377.583 3.83315 -4.26313 0
M  V30 3582 H 375.98 3.41482 -4.93468 0
M  V30 3583 H 377.05 2.12372 -4.3592 0
M  V30 3584 N 378.394 1.34581 0.820102 0
M  V30 3585 C 379.642 1.26845 1.57336 0
M  V30 3586 C 379.963 -0.160667 1.94337 0
M  V30 3587 O 379.233 -1.09396 1.6251 0
M  V30 3588 H 377.813 0.466514 0.583415 0
M  V30 3589 H 380.475 1.68526 0.979027 0
M  V30 3590 H 379.571 1.87513 2.4949 0
M  V30 3591 N 379.872 -1.04064 1.18357 0
M  V30 3592 C 381.149 -1.74252 0.888581 0
M  V30 3593 C 381.529 -2.02138 -0.60856 0
M  V30 3594 O 380.877 -1.66656 -1.56327 0
M  V30 3595 C 381.087 -3.0277 1.73584 0
M  V30 3596 C 382.435 -3.76506 1.96286 0
M  V30 3597 O 383.459 -3.12668 1.70637 0
M  V30 3598 O 382.318 -4.91243 2.39464 0
M  V30 3599 H 379.412 -0.758271 0.330082 0
M  V30 3600 H 381.958 -1.1013 1.2911 0
M  V30 3601 H 380.73 -2.78299 2.75073 0
M  V30 3602 H 380.353 -3.74631 1.33183 0
M  V30 3603 N 381.35 -0.985608 -1.22978 0
M  V30 3604 C 382.575 -0.675254 -1.961 0
M  V30 3605 C 383 0.752154 -1.72407 0
M  V30 3606 O 382.358 1.5131 -0.998751 0
M  V30 3607 C 382.406 -0.977899 -3.47087 0
M  V30 3608 O 381.51 -0.072685 -4.12336 0
M  V30 3609 H 380.851 -0.253443 -0.613728 0
M  V30 3610 H 383.381 -1.32061 -1.56272 0
M  V30 3611 H 383.391 -0.916739 -3.97567 0
M  V30 3612 H 382.066 -2.01807 -3.63657 0
M  V30 3613 H 380.643 -0.188703 -3.72422 0
M  V30 3614 N 382.828 1.3818 -0.7579 0
M  V30 3615 C 384.075 2.00019 -0.315985 0
M  V30 3616 C 384.403 1.60163 1.10355 0
M  V30 3617 O 383.658 0.83264 1.77103 0
M  V30 3618 C 383.957 3.55252 -0.391218 0
M  V30 3619 C 383.623 4.14834 -1.76702 0
M  V30 3620 C 382.285 4.30821 -2.14353 0
M  V30 3621 C 384.637 4.47658 -2.66931 0
M  V30 3622 C 381.965 4.76928 -3.41696 0
M  V30 3623 C 384.317 4.95184 -3.93669 0
M  V30 3624 C 382.981 5.09377 -4.31383 0
M  V30 3625 H 382.251 0.731923 -0.115627 0
M  V30 3626 H 384.898 1.65161 -0.969223 0
M  V30 3627 H 383.203 3.90273 0.34558 0
M  V30 3628 H 384.9 4.00988 -0.030805 0
M  V30 3629 H 381.49 4.02808 -1.46435 0
M  V30 3630 H 385.674 4.34904 -2.39106 0
M  V30 3631 H 380.93 4.86103 -3.70829 0
M  V30 3632 H 385.104 5.19551 -4.63724 0
M  V30 3633 H 382.731 5.44865 -5.30119 0
M  V30 3634 N 384.306 0.507319 1.49211 0
M  V30 3635 C 385.536 -0.0315292 2.06576 0
M  V30 3636 C 385.944 -1.30791 1.36713 0
M  V30 3637 O 385.287 -1.78324 0.441181 0
M  V30 3638 C 385.349 -0.349104 3.57801 0
M  V30 3639 C 385.013 0.830475 4.49391 0
M  V30 3640 C 386.01 1.72271 4.90529 0
M  V30 3641 C 383.695 1.03107 4.91604 0
M  V30 3642 C 385.689 2.79964 5.72625 0
M  V30 3643 C 383.376 2.11116 5.73475 0
M  V30 3644 C 384.374 2.99379 6.1389 0
M  V30 3645 O 384.062 4.05523 6.94123 0
M  V30 3646 H 383.794 0.0201002 0.675701 0
M  V30 3647 H 386.348 0.705737 1.92895 0
M  V30 3648 H 384.578 -1.14005 3.69513 0
M  V30 3649 H 386.267 -0.827319 3.97379 0
M  V30 3650 H 387.033 1.57958 4.58557 0
M  V30 3651 H 382.912 0.353417 4.59643 0
M  V30 3652 H 386.456 3.48884 6.04091 0
M  V30 3653 H 382.353 2.25421 6.0486 0
M  V30 3654 H 383.121 4.02953 7.1244 0
M  V30 3655 N 385.784 -1.5574 0.241426 0
M  V30 3656 C 387.014 -2.02913 -0.38857 0
M  V30 3657 C 387.422 -1.12014 -1.52478 0
M  V30 3658 O 386.765 -0.125903 -1.83268 0
M  V30 3659 C 386.827 -3.4636 -0.963075 0
M  V30 3660 C 386.491 -4.56982 0.0401916 0
M  V30 3661 C 387.488 -5.12941 0.847766 0
M  V30 3662 C 385.173 -5.0203 0.164699 0
M  V30 3663 C 387.167 -6.12437 1.76636 0
M  V30 3664 C 384.854 -6.01358 1.0868 0
M  V30 3665 C 385.852 -6.5644 1.88616 0
M  V30 3666 O 385.54 -7.53831 2.79273 0
M  V30 3667 H 385.272 -0.668983 -0.0971452 0
M  V30 3668 H 387.826 -2.02198 0.361248 0
M  V30 3669 H 386.056 -3.44206 -1.76235 0
M  V30 3670 H 387.745 -3.77065 -1.50257 0
M  V30 3671 H 388.511 -4.78974 0.762133 0
M  V30 3672 H 384.39 -4.58824 -0.447411 0
M  V30 3673 H 387.934 -6.55355 2.39071 0
M  V30 3674 H 383.831 -6.34746 1.17338 0
M  V30 3675 H 384.599 -7.71428 2.73572 0
M  V30 3676 N 387.262 0.0317525 -1.57568 0
M  V30 3677 C 388.51 0.721676 -1.88776 0
M  V30 3678 C 388.831 1.76039 -0.838772 0
M  V30 3679 O 388.101 1.95482 0.127935 0
M  V30 3680 H 386.681 0.269534 -0.696678 0
M  V30 3681 H 389.343 -0.00165879 -1.949 0
M  V30 3682 H 388.439 1.21293 -2.87566 0
M  V30 3683 N 388.74 1.54641 0.303973 0
M  V30 3684 C 389.687 1.85386 1.37479 0
M  V30 3685 C 390.657 0.702528 1.50512 0
M  V30 3686 O 391.842 0.950867 1.65418 0
M  V30 3687 C 388.982 2.10413 2.73533 0
M  V30 3688 C 388.095 3.38049 2.68974 0
M  V30 3689 C 387.23 3.52934 3.97002 0
M  V30 3690 C 386.269 4.74373 3.86829 0
M  V30 3691 N 385.406 4.8608 5.06627 0
M  V30 3692 H 390.246 2.76732 1.1056 0
M  V30 3693 H 387.783 1.37034 0.534805 0
M  V30 3694 H 389.741 2.22919 3.52652 0
M  V30 3695 H 388.371 1.22338 2.98719 0
M  V30 3696 H 387.423 3.3418 1.81736 0
M  V30 3697 H 388.735 4.27288 2.57346 0
M  V30 3698 H 387.889 3.65088 4.84557 0
M  V30 3699 H 386.628 2.61824 4.1146 0
M  V30 3700 H 385.633 4.62255 2.97658 0
M  V30 3701 H 386.858 5.66888 3.73918 0
M  V30 3702 H 384.804 3.97891 5.21554 0
M  V30 3703 H 384.721 5.69315 4.9741 0
M  V30 3704 H 385.989 5.02587 5.95841 0
M  V30 3705 N 390.218 -0.567019 1.47046 0
M  V30 3706 C 391.466 -1.322 1.52864 0
M  V30 3707 C 391.787 -1.94088 0.188388 0
M  V30 3708 O 391.057 -1.7941 -0.786693 0
M  V30 3709 H 389.637 -0.490894 0.563056 0
M  V30 3710 H 392.299 -0.662879 1.83281 0
M  V30 3711 H 391.395 -2.12062 2.2899 0
M  V30 3712 N 391.696 -1.35014 -0.812953 0
M  V30 3713 C 392.626 -1.30069 -1.93919 0
M  V30 3714 C 393.607 -0.176275 -1.69184 0
M  V30 3715 O 394.792 -0.370227 -1.90638 0
M  V30 3716 C 391.922 -1.06547 -3.30552 0
M  V30 3717 C 390.876 -2.15561 -3.69753 0
M  V30 3718 C 390.202 -1.77214 -5.04479 0
M  V30 3719 C 391.502 -3.57476 -3.808 0
M  V30 3720 H 393.196 -2.24303 -1.98314 0
M  V30 3721 H 390.742 -1.07977 -0.952736 0
M  V30 3722 H 392.695 -1.01729 -4.08937 0
M  V30 3723 H 391.419 -0.0875719 -3.26483 0
M  V30 3724 H 390.078 -2.19466 -2.9365 0
M  V30 3725 H 389.726 -0.780589 -4.96906 0
M  V30 3726 H 389.426 -2.50184 -5.31678 0
M  V30 3727 H 390.95 -1.7391 -5.8531 0
M  V30 3728 H 392.364 -3.55929 -4.4943 0
M  V30 3729 H 390.761 -4.29152 -4.19462 0
M  V30 3730 H 391.831 -3.94091 -2.82525 0
M  V30 3731 N 393.175 1.03435 -1.18907 0
M  V30 3732 C 394.424 1.76143 -0.982669 0
M  V30 3733 C 394.737 1.89416 0.487953 0
M  V30 3734 O 395.943 2.59041 0.813036 0
M  V30 3735 C 394.399 3.16722 -1.70924 0
M  V30 3736 C 394.007 3.11522 -3.21959 0
M  V30 3737 C 395.751 3.93764 -1.58588 0
M  V30 3738 C 393.658 4.46999 -3.87228 0
M  V30 3739 H 392.588 0.660292 -0.364047 0
M  V30 3740 H 395.239 1.158 -1.42347 0
M  V30 3741 H 393.621 3.775 -1.19623 0
M  V30 3742 H 394.795 2.60158 -3.80335 0
M  V30 3743 H 393.11 2.47978 -3.34508 0
M  V30 3744 H 395.707 4.93963 -2.04707 0
M  V30 3745 H 396.05 4.12794 -0.539142 0
M  V30 3746 H 396.583 3.39576 -2.07203 0
M  V30 3747 H 393.322 4.33174 -4.91976 0
M  V30 3748 H 392.842 4.98441 -3.33642 0
M  V30 3749 H 394.521 5.15898 -3.90459 0
M  V30 3750 N 394.653 0.992116 1.22453 0
M  V30 3751 C 395.601 0.534644 2.26372 0
M  V30 3752 C 396.595 -0.414293 1.64256 0
M  V30 3753 O 397.801 -0.286899 1.77699 0
M  V30 3754 H 394.176 0.154502 0.735957 0
M  V30 3755 H 396.147 1.42256 2.62309 0
M  V30 3756 C 394.896 -0.135815 3.47435 0
M  V30 3757 H 394.219 0.585311 3.95492 0
M  V30 3758 H 395.659 -0.419374 4.21921 0
M  V30 3759 C 394.118 -1.37089 3.07747 0
M  V30 3760 O 394.648 -2.46629 3.17076 0
M  V30 3761 N 392.854 -1.24585 2.62539 0
M  V30 3762 H 392.401 -0.354542 2.55149 0
M  V30 3763 H 392.359 -2.07327 2.36353 0
M  V30 3764 N 396.131 -1.37776 0.765217 0
M  V30 3765 C 397.377 -2.00145 0.327072 0
M  V30 3766 C 397.71 -1.60607 -1.09175 0
M  V30 3767 O 396.985 -0.849127 -1.74986 0
M  V30 3768 C 397.268 -3.57109 0.46319 0
M  V30 3769 C 397.121 -4.06576 1.92395 0
M  V30 3770 C 398.44 -4.39888 -0.136473 0
M  V30 3771 H 395.559 -0.727113 0.120316 0
M  V30 3772 H 398.201 -1.63549 0.967039 0
M  V30 3773 H 396.351 -3.88414 -0.0816358 0
M  V30 3774 H 398.023 -3.85864 2.52798 0
M  V30 3775 H 396.266 -3.59011 2.43503 0
M  V30 3776 H 396.937 -5.15639 1.97028 0
M  V30 3777 H 399.413 -4.14803 0.328317 0
M  V30 3778 H 398.289 -5.48899 -0.0110582 0
M  V30 3779 H 398.55 -4.24758 -1.22608 0
M  V30 3780 N 397.609 -0.515225 -1.4894 0
M  V30 3781 C 398.519 0.259774 -2.33157 0
M  V30 3782 C 399.535 0.953501 -1.45548 0
M  V30 3783 O 400.711 0.931735 -1.78552 0
M  V30 3784 C 397.776 1.30193 -3.21326 0
M  V30 3785 C 396.837 0.620129 -4.24797 0
M  V30 3786 C 396.07 1.61263 -5.08753 0
M  V30 3787 O 396.293 2.84389 -4.94448 0
M  V30 3788 O 395.227 1.16013 -5.90614 0
M  V30 3789 H 399.053 -0.429932 -3.00641 0
M  V30 3790 H 396.638 -0.276346 -1.46822 0
M  V30 3791 H 398.52 1.90455 -3.75905 0
M  V30 3792 H 397.195 1.97431 -2.56521 0
M  V30 3793 H 396.102 -0.0226019 -3.74093 0
M  V30 3794 H 397.435 -0.0100493 -4.92199 0
M  V30 3795 N 399.087 1.5561 -0.249682 0
M  V30 3796 C 400.05 2.20217 0.635394 0
M  V30 3797 C 401.05 1.17227 1.10066 0
M  V30 3798 O 402.24 1.42292 1.00492 0
M  V30 3799 C 399.372 2.84794 1.87363 0
M  V30 3800 H 400.565 2.99814 0.0716752 0
M  V30 3801 H 398.118 1.563 -0.000153234 0
M  V30 3802 H 398.853 2.09142 2.47851 0
M  V30 3803 H 398.638 3.60241 1.5482 0
M  V30 3804 H 400.128 3.3423 2.5036 0
M  V30 3805 N 400.565 -0.0233959 1.57583 0
M  V30 3806 C 401.528 -1.00693 2.05897 0
M  V30 3807 C 402.528 -1.28693 0.964092 0
M  V30 3808 O 403.718 -1.23602 1.22753 0
M  V30 3809 C 400.85 -2.33825 2.4807 0
M  V30 3810 H 402.043 -0.589476 2.9405 0
M  V30 3811 H 399.596 -0.270354 1.53944 0
M  V30 3812 H 400.331 -2.80307 1.6309 0
M  V30 3813 H 400.116 -2.1483 3.2801 0
M  V30 3814 H 401.606 -3.04426 2.85857 0
M  V30 3815 N 402.043 -1.548 -0.295768 0
M  V30 3816 C 403.006 -1.85363 -1.34808 0
M  V30 3817 C 404.006 -0.726817 -1.43436 0
M  V30 3818 O 405.196 -0.995088 -1.42981 0
M  V30 3819 C 402.328 -2.03859 -2.73229 0
M  V30 3820 H 403.521 -2.7941 -1.08949 0
M  V30 3821 H 401.074 -1.46942 -0.532702 0
M  V30 3822 H 401.809 -1.12117 -3.04303 0
M  V30 3823 H 401.594 -2.8588 -2.68356 0
M  V30 3824 H 403.084 -2.28857 -3.49305 0
M  V30 3825 N 403.521 0.559213 -1.47345 0
M  V30 3826 C 404.453 1.68161 -1.55738 0
M  V30 3827 C 405.466 1.56636 -0.443744 0
M  V30 3828 O 406.655 1.6363 -0.713258 0
M  V30 3829 C 403.755 3.06611 -1.4437 0
M  V30 3830 C 402.928 3.4391 -2.70268 0
M  V30 3831 C 401.987 4.61515 -2.52765 0
M  V30 3832 O 401.013 4.66197 -3.26572 0
M  V30 3833 N 402.215 5.57883 -1.6046 0
M  V30 3834 H 404.98 1.61408 -2.52522 0
M  V30 3835 H 402.541 0.7458 -1.43699 0
M  V30 3836 H 404.533 3.83117 -1.30398 0
M  V30 3837 H 403.103 3.07602 -0.556766 0
M  V30 3838 H 402.323 2.56873 -2.99015 0
M  V30 3839 H 403.611 3.65605 -3.53851 0
M  V30 3840 H 403.009 5.56855 -0.996422 0
M  V30 3841 H 401.566 6.33723 -1.52441 0
M  V30 3842 O 405.038 1.45356 0.703831 0
M  V30 3843 H 405.729 1.38392 1.35526 0
M  V30 END ATOM
M  V30 BEGIN BOND
M  V30 END BOND
M  V30 END CTAB
M  END
$$$$
