drugbank_drug|DB00001 DB00001 sequence
 OpenBabel12092119113D

923929  0  0  0  0  0  0  0  0999 V2000
   -0.9080    1.9825   -0.1171 H   0  0  0  0  0 15  0  0  0  0  0  0
    0.0000    1.5760    0.0000 N   0  0  0  0  0 15  0  0  0  0  0  0
    0.9300    2.1146    0.9903 C   0  0  0  0  0 15  0  0  0  0  0  0
    1.9110    1.0237    1.3585 C   0  0  0  0  0 15  0  0  0  0  0  0
    3.0960    1.3005    1.4422 O   0  0  0  0  0 15  0  0  0  0  0  0
    0.2260    2.6179    2.2822 C   0  0  0  0  0 15  0  0  0  0  0  0
   -0.8200    3.7540    2.0557 C   0  0  0  0  0 15  0  0  0  0  0  0
   -1.4940    4.1204    3.4077 C   0  0  0  0  0 15  0  0  0  0  0  0
   -0.1940    5.0267    1.4183 C   0  0  0  0  0 15  0  0  0  0  0  0
    1.5000    2.9446    0.5419 H   0  0  0  0  0 15  0  0  0  0  0  0
   -0.9540    1.4165    0.2592 H   0  0  0  0  0 15  0  0  0  0  0  0
    0.9990    2.9809    2.9786 H   0  0  0  0  0 15  0  0  0  0  0  0
   -0.2770    1.7591    2.7518 H   0  0  0  0  0 15  0  0  0  0  0  0
   -1.6180    3.3949    1.3836 H   0  0  0  0  0 15  0  0  0  0  0  0
   -1.9700    3.2319    3.8543 H   0  0  0  0  0 15  0  0  0  0  0  0
   -2.2700    4.8859    3.2643 H   0  0  0  0  0 15  0  0  0  0  0  0
   -0.7460    4.5091    4.1172 H   0  0  0  0  0 15  0  0  0  0  0  0
    0.6680    5.3675    2.0142 H   0  0  0  0  0 15  0  0  0  0  0  0
   -0.9350    5.8402    1.3798 H   0  0  0  0  0 15  0  0  0  0  0  0
    0.1350    4.8335    0.3875 H   0  0  0  0  0 15  0  0  0  0  0  0
    1.4781   -0.2728    1.5522 N   0  0  0  0  0 15  0  0  0  0  0  0
    2.7241   -1.0058    1.7610 C   0  0  0  0  0 15  0  0  0  0  0  0
    3.0571   -1.8593    0.5606 C   0  0  0  0  0 15  0  0  0  0  0  0
    2.3321   -1.8942   -0.4418 O   0  0  0  0  0 15  0  0  0  0  0  0
    2.6151   -1.8882    3.0663 C   0  0  0  0  0 15  0  0  0  0  0  0
    2.4681   -1.0646    4.3702 C   0  0  0  0  0 15  0  0  0  0  0  0
    3.7871   -2.8752    3.3320 C   0  0  0  0  0 15  0  0  0  0  0  0
    0.9061   -0.3642    0.6407 H   0  0  0  0  0 15  0  0  0  0  0  0
    3.5481   -0.2782    1.8795 H   0  0  0  0  0 15  0  0  0  0  0  0
    1.6981   -2.5086    2.9665 H   0  0  0  0  0 15  0  0  0  0  0  0
    3.3701   -0.4649    4.5895 H   0  0  0  0  0 15  0  0  0  0  0  0
    1.6131   -0.3680    4.3224 H   0  0  0  0  0 15  0  0  0  0  0  0
    2.2841   -1.7151    5.2468 H   0  0  0  0  0 15  0  0  0  0  0  0
    4.7601   -2.3561    3.4296 H   0  0  0  0  0 15  0  0  0  0  0  0
    3.6361   -3.4640    4.2579 H   0  0  0  0  0 15  0  0  0  0  0  0
    3.8971   -3.6266    2.5285 H   0  0  0  0  0 15  0  0  0  0  0  0
    2.9562   -1.4816   -0.5373 N   0  0  0  0  0 15  0  0  0  0  0  0
    4.1862   -1.5922   -1.3165 C   0  0  0  0  0 15  0  0  0  0  0  0
    4.5942   -0.2488   -1.8756 C   0  0  0  0  0 15  0  0  0  0  0  0
    3.9372    0.7709   -1.6674 O   0  0  0  0  0 15  0  0  0  0  0  0
    3.9992   -2.5737   -2.5100 C   0  0  0  0  0 15  0  0  0  0  0  0
    3.6632   -4.0260   -2.1624 C   0  0  0  0  0 15  0  0  0  0  0  0
    4.6602   -4.9050   -1.7234 C   0  0  0  0  0 15  0  0  0  0  0  0
    2.3452   -4.4809   -2.2699 C   0  0  0  0  0 15  0  0  0  0  0  0
    4.3392   -6.2191   -1.3965 C   0  0  0  0  0 15  0  0  0  0  0  0
    2.0262   -5.7952   -1.9391 C   0  0  0  0  0 15  0  0  0  0  0  0
    3.0242   -6.6626   -1.5031 C   0  0  0  0  0 15  0  0  0  0  0  0
    2.7122   -7.9524   -1.1766 O   0  0  0  0  0 15  0  0  0  0  0  0
    2.4442   -0.5398   -0.4069 H   0  0  0  0  0 15  0  0  0  0  0  0
    4.9982   -1.9465   -0.6556 H   0  0  0  0  0 15  0  0  0  0  0  0
    3.2282   -2.1704   -3.2005 H   0  0  0  0  0 15  0  0  0  0  0  0
    4.9172   -2.5834   -3.1307 H   0  0  0  0  0 15  0  0  0  0  0  0
    5.6832   -4.5660   -1.6352 H   0  0  0  0  0 15  0  0  0  0  0  0
    1.5622   -3.8077   -2.5988 H   0  0  0  0  0 15  0  0  0  0  0  0
    5.1062   -6.8957   -1.0555 H   0  0  0  0  0 15  0  0  0  0  0  0
    1.0032   -6.1296   -2.0237 H   0  0  0  0  0 15  0  0  0  0  0  0
    1.7712   -8.0793   -1.3112 H   0  0  0  0  0 15  0  0  0  0  0  0
    4.4343    0.7856   -1.3662 N   0  0  0  0  0 15  0  0  0  0  0  0
    5.6623    1.5745   -1.3423 C   0  0  0  0  0 15  0  0  0  0  0  0
    6.0773    1.8865    0.0756 C   0  0  0  0  0 15  0  0  0  0  0  0
    5.4343    1.5041    1.0335 O   0  0  0  0  0 15  0  0  0  0  0  0
    5.4853    2.8932   -2.1675 C   0  0  0  0  0 15  0  0  0  0  0  0
    5.2063    2.5946   -3.5301 O   0  0  0  0  0 15  0  0  0  0  0  0
    6.7073    3.8361   -2.2217 C   0  0  0  0  0 15  0  0  0  0  0  0
    3.9273    0.4882   -0.4603 H   0  0  0  0  0 15  0  0  0  0  0  0
    6.4713    0.9747   -1.7978 H   0  0  0  0  0 15  0  0  0  0  0  0
    4.6263    3.4575   -1.7475 H   0  0  0  0  0 15  0  0  0  0  0  0
    5.0403    3.4380   -3.9610 H   0  0  0  0  0 15  0  0  0  0  0  0
    6.5143    4.7318   -2.8426 H   0  0  0  0  0 15  0  0  0  0  0  0
    6.9913    4.2173   -1.2263 H   0  0  0  0  0 15  0  0  0  0  0  0
    7.5973    3.3310   -2.6443 H   0  0  0  0  0 15  0  0  0  0  0  0
    5.9124    1.2097    1.0102 N   0  0  0  0  0 15  0  0  0  0  0  0
    7.1894    0.9326    1.7193 C   0  0  0  0  0 15  0  0  0  0  0  0
    7.5694   -0.5569    2.0362 C   0  0  0  0  0 15  0  0  0  0  0  0
    6.9174   -1.5204    1.7058 O   0  0  0  0  0 15  0  0  0  0  0  0
    7.1274    1.8123    2.9825 C   0  0  0  0  0 15  0  0  0  0  0  0
    8.4754    2.0580    3.7139 C   0  0  0  0  0 15  0  0  0  0  0  0
    9.4994    1.7854    3.0822 O   0  0  0  0  0 15  0  0  0  0  0  0
    8.3584    2.5189    4.8499 O   0  0  0  0  0 15  0  0  0  0  0  0
    5.4524    0.3493    0.7496 H   0  0  0  0  0 15  0  0  0  0  0  0
    7.9984    1.3187    1.0681 H   0  0  0  0  0 15  0  0  0  0  0  0
    6.7704    2.8207    2.7121 H   0  0  0  0  0 15  0  0  0  0  0  0
    6.3934    1.4267    3.7112 H   0  0  0  0  0 15  0  0  0  0  0  0
    7.3905   -1.2043    1.0166 N   0  0  0  0  0 15  0  0  0  0  0  0
    8.6305   -1.9151    0.7145 C   0  0  0  0  0 15  0  0  0  0  0  0
    8.9945   -1.7707   -0.7422 C   0  0  0  0  0 15  0  0  0  0  0  0
   10.1955   -2.4263   -1.1569 O   0  0  0  0  0 15  0  0  0  0  0  0
    8.4665   -3.3880    1.1381 C   0  0  0  0  0 15  0  0  0  0  0  0
   10.0255   -4.2822    0.9579 S   0  0  0  0  0 15  0  0  0  0  0  0
    6.8435   -0.6616    0.2605 H   0  0  0  0  0 15  0  0  0  0  0  0
    9.4455   -1.4567    1.3038 H   0  0  0  0  0 15  0  0  0  0  0  0
    8.1495   -3.4682    2.1941 H   0  0  0  0  0 15  0  0  0  0  0  0
    7.6805   -3.8966    0.5415 H   0  0  0  0  0 15  0  0  0  0  0  0
    9.6955   -4.9601   -0.1385 H   0  0  0  0  0 15  0  0  0  0  0  0
    8.8686   -0.7928   -1.3621 N   0  0  0  0  0 15  0  0  0  0  0  0
   10.0966   -0.3788   -2.0340 C   0  0  0  0  0 15  0  0  0  0  0  0
   10.5116    1.0059   -1.5977 C   0  0  0  0  0 15  0  0  0  0  0  0
    9.8686    1.6457   -0.7888 O   0  0  0  0  0 15  0  0  0  0  0  0
    9.9196   -0.4368   -3.5885 C   0  0  0  0  0 15  0  0  0  0  0  0
    9.6406   -1.7669   -4.0089 O   0  0  0  0  0 15  0  0  0  0  0  0
   11.1416   -0.0139   -4.4330 C   0  0  0  0  0 15  0  0  0  0  0  0
    8.3616   -0.1557   -0.6527 H   0  0  0  0  0 15  0  0  0  0  0  0
   10.9056   -1.0726   -1.7411 H   0  0  0  0  0 15  0  0  0  0  0  0
    9.0606    0.2086   -3.8684 H   0  0  0  0  0 15  0  0  0  0  0  0
    9.4746   -1.7201   -4.9549 H   0  0  0  0  0 15  0  0  0  0  0  0
   10.9486   -0.1056   -5.5190 H   0  0  0  0  0 15  0  0  0  0  0  0
   11.4256    1.0392   -4.2673 H   0  0  0  0  0 15  0  0  0  0  0  0
   12.0316   -0.6319   -4.2058 H   0  0  0  0  0 15  0  0  0  0  0  0
   10.3467    1.4787   -0.5451 N   0  0  0  0  0 15  0  0  0  0  0  0
   11.2567    2.3363    0.2127 C   0  0  0  0  0 15  0  0  0  0  0  0
   12.2727    1.4744    0.9240 C   0  0  0  0  0 15  0  0  0  0  0  0
   13.4487    1.8039    0.8956 O   0  0  0  0  0 15  0  0  0  0  0  0
   10.5137    3.2388    1.2369 C   0  0  0  0  0 15  0  0  0  0  0  0
    9.5747    4.2596    0.5344 C   0  0  0  0  0 15  0  0  0  0  0  0
    8.8077    5.1190    1.5098 C   0  0  0  0  0 15  0  0  0  0  0  0
    9.0307    5.0008    2.7437 O   0  0  0  0  0 15  0  0  0  0  0  0
    7.9647    5.9283    1.0409 O   0  0  0  0  0 15  0  0  0  0  0  0
   11.7907    2.9971   -0.4904 H   0  0  0  0  0 15  0  0  0  0  0  0
    9.3757    1.4624   -0.3059 H   0  0  0  0  0 15  0  0  0  0  0  0
   11.2577    3.7967    1.8284 H   0  0  0  0  0 15  0  0  0  0  0  0
    9.9327    2.6045    1.9222 H   0  0  0  0  0 15  0  0  0  0  0  0
    8.8397    3.7397   -0.0980 H   0  0  0  0  0 15  0  0  0  0  0  0
   10.1727    4.9208   -0.1092 H   0  0  0  0  0 15  0  0  0  0  0  0
   11.8248    0.2810    1.5507 N   0  0  0  0  0 15  0  0  0  0  0  0
   13.0498   -0.3402    2.0459 C   0  0  0  0  0 15  0  0  0  0  0  0
   13.4748   -1.4825    1.1578 C   0  0  0  0  0 15  0  0  0  0  0  0
   12.8328   -1.8061    0.1576 O   0  0  0  0  0 15  0  0  0  0  0  0
   12.8808   -0.7931    3.5177 C   0  0  0  0  0 15  0  0  0  0  0  0
   11.9848   -1.8998    3.6603 O   0  0  0  0  0 15  0  0  0  0  0  0
   11.3258   -0.0694    0.6604 H   0  0  0  0  0 15  0  0  0  0  0  0
   13.8558    0.4170    2.0031 H   0  0  0  0  0 15  0  0  0  0  0  0
   13.8658   -1.0873    3.9325 H   0  0  0  0  0 15  0  0  0  0  0  0
   12.5408    0.0426    4.1588 H   0  0  0  0  0 15  0  0  0  0  0  0
   11.1178   -1.6077    3.3646 H   0  0  0  0  0 15  0  0  0  0  0  0
   13.3029   -1.5760    0.0084 N   0  0  0  0  0 15  0  0  0  0  0  0
   14.5509   -1.9055   -0.6734 C   0  0  0  0  0 15  0  0  0  0  0  0
   14.8719   -0.8833   -1.7385 C   0  0  0  0  0 15  0  0  0  0  0  0
   14.1419    0.0781   -1.9574 O   0  0  0  0  0 15  0  0  0  0  0  0
   12.7219   -0.7033   -0.2517 H   0  0  0  0  0 15  0  0  0  0  0  0
   15.3839   -1.9483    0.0513 H   0  0  0  0  0 15  0  0  0  0  0  0
   14.4799   -2.9056   -1.1394 H   0  0  0  0  0 15  0  0  0  0  0  0
   14.7810    0.2645   -1.5536 N   0  0  0  0  0 15  0  0  0  0  0  0
   15.7130    1.3497   -1.8525 C   0  0  0  0  0 15  0  0  0  0  0  0
   16.7260    1.4514   -0.7375 C   0  0  0  0  0 15  0  0  0  0  0  0
   17.9150    1.4680   -1.0155 O   0  0  0  0  0 15  0  0  0  0  0  0
   15.0150    2.7301   -2.0080 C   0  0  0  0  0 15  0  0  0  0  0  0
   14.1880    2.8532   -3.3152 C   0  0  0  0  0 15  0  0  0  0  0  0
   13.2470    4.0410   -3.3703 C   0  0  0  0  0 15  0  0  0  0  0  0
   12.2730    3.9445   -4.1036 O   0  0  0  0  0 15  0  0  0  0  0  0
   13.4750    5.1646   -2.6505 N   0  0  0  0  0 15  0  0  0  0  0  0
   16.2400    1.0967   -2.7891 H   0  0  0  0  0 15  0  0  0  0  0  0
   13.8010    0.4546   -1.5539 H   0  0  0  0  0 15  0  0  0  0  0  0
   15.7930    3.5077   -2.0184 H   0  0  0  0  0 15  0  0  0  0  0  0
   14.3630    2.9109   -1.1396 H   0  0  0  0  0 15  0  0  0  0  0  0
   13.5830    1.9438   -3.4294 H   0  0  0  0  0 15  0  0  0  0  0  0
   14.8710    2.9049   -4.1772 H   0  0  0  0  0 15  0  0  0  0  0  0
   14.2690    5.2718   -2.0518 H   0  0  0  0  0 15  0  0  0  0  0  0
   12.8260    5.9242   -2.7181 H   0  0  0  0  0 15  0  0  0  0  0  0
   16.2591    1.4844    0.5294 N   0  0  0  0  0 15  0  0  0  0  0  0
   17.2071    1.6345    1.6549 C   0  0  0  0  0 15  0  0  0  0  0  0
   18.2011    0.5010    1.6182 C   0  0  0  0  0 15  0  0  0  0  0  0
   19.4071    0.6797    1.6667 O   0  0  0  0  0 15  0  0  0  0  0  0
   15.7821    0.5149    0.5481 H   0  0  0  0  0 15  0  0  0  0  0  0
   17.7531    2.5798    1.4997 H   0  0  0  0  0 15  0  0  0  0  0  0
   16.5021    1.6920    3.0376 C   0  0  0  0  0 15  0  0  0  0  0  0
   15.8251    2.5578    3.0727 H   0  0  0  0  0 15  0  0  0  0  0  0
   17.2651    1.8374    3.8212 H   0  0  0  0  0 15  0  0  0  0  0  0
   15.7241    0.4308    3.3413 C   0  0  0  0  0 15  0  0  0  0  0  0
   16.2541   -0.4561    3.9910 O   0  0  0  0  0 15  0  0  0  0  0  0
   14.4601    0.3023    2.8902 N   0  0  0  0  0 15  0  0  0  0  0  0
   14.0071    1.0250    2.3633 H   0  0  0  0  0 15  0  0  0  0  0  0
   13.9651   -0.5405    3.0972 H   0  0  0  0  0 15  0  0  0  0  0  0
   17.7372   -0.7783    1.3704 N   0  0  0  0  0 15  0  0  0  0  0  0
   18.6672   -1.9055    1.3496 C   0  0  0  0  0 15  0  0  0  0  0  0
   19.6482   -1.6868    0.2193 C   0  0  0  0  0 15  0  0  0  0  0  0
   20.8332   -1.8963    0.4186 O   0  0  0  0  0 15  0  0  0  0  0  0
   17.9632   -3.2773    1.1493 C   0  0  0  0  0 15  0  0  0  0  0  0
   16.9172   -3.6415    2.2490 C   0  0  0  0  0 15  0  0  0  0  0  0
   16.2432   -4.9981    1.9000 C   0  0  0  0  0 15  0  0  0  0  0  0
   17.5432   -3.7158    3.6705 C   0  0  0  0  0 15  0  0  0  0  0  0
   19.2372   -1.9254    2.2928 H   0  0  0  0  0 15  0  0  0  0  0  0
   16.7832   -0.9249    1.1037 H   0  0  0  0  0 15  0  0  0  0  0  0
   18.7362   -4.0622    1.1210 H   0  0  0  0  0 15  0  0  0  0  0  0
   17.4602   -3.2615    0.1706 H   0  0  0  0  0 15  0  0  0  0  0  0
   16.1192   -2.8797    2.2687 H   0  0  0  0  0 15  0  0  0  0  0  0
   15.7672   -4.9476    0.9068 H   0  0  0  0  0 15  0  0  0  0  0  0
   15.4672   -5.2514    2.6363 H   0  0  0  0  0 15  0  0  0  0  0  0
   16.9912   -5.8069    1.8875 H   0  0  0  0  0 15  0  0  0  0  0  0
   18.4052   -4.4023    3.6725 H   0  0  0  0  0 15  0  0  0  0  0  0
   16.8022   -4.0840    4.3969 H   0  0  0  0  0 15  0  0  0  0  0  0
   17.8722   -2.7240    4.0115 H   0  0  0  0  0 15  0  0  0  0  0  0
   19.2153   -1.2150   -1.0038 N   0  0  0  0  0 15  0  0  0  0  0  0
   20.4553   -1.0444   -1.7570 C   0  0  0  0  0 15  0  0  0  0  0  0
   20.8193    0.4146   -1.8747 C   0  0  0  0  0 15  0  0  0  0  0  0
   22.0203    0.7058   -2.5937 O   0  0  0  0  0 15  0  0  0  0  0  0
   20.2913   -1.7239   -3.1308 C   0  0  0  0  0 15  0  0  0  0  0  0
   21.8503   -1.7060   -4.0428 S   0  0  0  0  0 15  0  0  0  0  0  0
   18.6683   -0.3742   -0.6045 H   0  0  0  0  0 15  0  0  0  0  0  0
   21.2703   -1.5427   -1.2009 H   0  0  0  0  0 15  0  0  0  0  0  0
   19.9743   -2.7773   -3.0215 H   0  0  0  0  0 15  0  0  0  0  0  0
   19.5053   -1.2275   -3.7376 H   0  0  0  0  0 15  0  0  0  0  0  0
   21.5203   -0.7480   -4.9053 H   0  0  0  0  0 15  0  0  0  0  0  0
   20.6934    1.1989   -1.0230 N   0  0  0  0  0 15  0  0  0  0  0  0
   21.6234    2.2514   -0.6192 C   0  0  0  0  0 15  0  0  0  0  0  0
   22.6044    1.6605    0.3689 C   0  0  0  0  0 15  0  0  0  0  0  0
   23.7894    1.9255    0.2529 O   0  0  0  0  0 15  0  0  0  0  0  0
   20.9194    3.4728    0.0369 C   0  0  0  0  0 15  0  0  0  0  0  0
   19.8734    4.1900   -0.8729 C   0  0  0  0  0 15  0  0  0  0  0  0
   19.1994    5.3464   -0.0822 C   0  0  0  0  0 15  0  0  0  0  0  0
   20.4994    4.7445   -2.1839 C   0  0  0  0  0 15  0  0  0  0  0  0
   22.1934    2.5917   -1.4990 H   0  0  0  0  0 15  0  0  0  0  0  0
   19.7394    1.2458   -0.7222 H   0  0  0  0  0 15  0  0  0  0  0  0
   21.6924    4.2010    0.3310 H   0  0  0  0  0 15  0  0  0  0  0  0
   20.4164    3.1243    0.9515 H   0  0  0  0  0 15  0  0  0  0  0  0
   19.0754    3.4806   -1.1510 H   0  0  0  0  0 15  0  0  0  0  0  0
   18.7234    4.9603    0.8342 H   0  0  0  0  0 15  0  0  0  0  0  0
   18.4234    5.8356   -0.6881 H   0  0  0  0  0 15  0  0  0  0  0  0
   19.9474    6.1025    0.2052 H   0  0  0  0  0 15  0  0  0  0  0  0
   21.3614    5.3906   -1.9517 H   0  0  0  0  0 15  0  0  0  0  0  0
   19.7584    5.3383   -2.7412 H   0  0  0  0  0 15  0  0  0  0  0  0
   20.8284    3.9284   -2.8426 H   0  0  0  0  0 15  0  0  0  0  0  0
   22.1715    0.8000    1.3578 N   0  0  0  0  0 15  0  0  0  0  0  0
   23.4115    0.3829    2.0078 C   0  0  0  0  0 15  0  0  0  0  0  0
   23.7755   -1.0289    1.6210 C   0  0  0  0  0 15  0  0  0  0  0  0
   24.9765   -1.5477    2.1977 O   0  0  0  0  0 15  0  0  0  0  0  0
   23.2475    0.5533    3.5309 C   0  0  0  0  0 15  0  0  0  0  0  0
   24.8065    0.2256    4.3822 S   0  0  0  0  0 15  0  0  0  0  0  0
   21.6245    0.1457    0.6959 H   0  0  0  0  0 15  0  0  0  0  0  0
   24.2265    1.0408    1.6549 H   0  0  0  0  0 15  0  0  0  0  0  0
   22.9305    1.5809    3.7873 H   0  0  0  0  0 15  0  0  0  0  0  0
   22.4615   -0.1202    3.9322 H   0  0  0  0  0 15  0  0  0  0  0  0
   24.4765   -0.9691    4.8665 H   0  0  0  0  0 15  0  0  0  0  0  0
   23.6496   -1.4758    0.5530 N   0  0  0  0  0 15  0  0  0  0  0  0
   24.5596   -2.3374   -0.2004 C   0  0  0  0  0 15  0  0  0  0  0  0
   25.5756   -1.4793   -0.9162 C   0  0  0  0  0 15  0  0  0  0  0  0
   26.7516   -1.8086   -0.8860 O   0  0  0  0  0 15  0  0  0  0  0  0
   23.8166   -3.2454   -1.2197 C   0  0  0  0  0 15  0  0  0  0  0  0
   22.8776   -4.2624   -0.5118 C   0  0  0  0  0 15  0  0  0  0  0  0
   22.1106   -5.1269   -1.4826 C   0  0  0  0  0 15  0  0  0  0  0  0
   22.3336   -5.0153   -2.7171 O   0  0  0  0  0 15  0  0  0  0  0  0
   21.2676   -5.9337   -1.0094 O   0  0  0  0  0 15  0  0  0  0  0  0
   25.0936   -2.9945    0.5063 H   0  0  0  0  0 15  0  0  0  0  0  0
   22.6786   -1.4607    0.3136 H   0  0  0  0  0 15  0  0  0  0  0  0
   24.5606   -3.8063   -1.8083 H   0  0  0  0  0 15  0  0  0  0  0  0
   23.2356   -2.6146   -1.9084 H   0  0  0  0  0 15  0  0  0  0  0  0
   22.1426   -3.7391    0.1178 H   0  0  0  0  0 15  0  0  0  0  0  0
   23.4756   -4.9201    0.1353 H   0  0  0  0  0 15  0  0  0  0  0  0
   25.1277   -0.2892   -1.5492 N   0  0  0  0  0 15  0  0  0  0  0  0
   26.3757    0.3229   -1.9950 C   0  0  0  0  0 15  0  0  0  0  0  0
   26.6967    1.5531   -1.1791 C   0  0  0  0  0 15  0  0  0  0  0  0
   25.9667    1.9400   -0.2721 O   0  0  0  0  0 15  0  0  0  0  0  0
   24.5467    0.1223   -0.7369 H   0  0  0  0  0 15  0  0  0  0  0  0
   27.2087   -0.3978   -1.9080 H   0  0  0  0  0 15  0  0  0  0  0  0
   26.3047    0.6031   -3.0622 H   0  0  0  0  0 15  0  0  0  0  0  0
   26.6058    1.5759   -0.0167 N   0  0  0  0  0 15  0  0  0  0  0  0
   27.8308    1.9598    0.6787 C   0  0  0  0  0 15  0  0  0  0  0  0
   28.2558    0.8925    1.6558 C   0  0  0  0  0 15  0  0  0  0  0  0
   27.6138   -0.1478    1.8070 O   0  0  0  0  0 15  0  0  0  0  0  0
   27.6618    3.3347    1.3723 C   0  0  0  0  0 15  0  0  0  0  0  0
   26.7658    3.2895    2.4872 O   0  0  0  0  0 15  0  0  0  0  0  0
   26.1068    0.6393    0.1793 H   0  0  0  0  0 15  0  0  0  0  0  0
   28.6368    2.0446   -0.0749 H   0  0  0  0  0 15  0  0  0  0  0  0
   28.6468    3.6942    1.7319 H   0  0  0  0  0 15  0  0  0  0  0  0
   27.3218    4.1069    0.6560 H   0  0  0  0  0 15  0  0  0  0  0  0
   25.8988    3.0471    2.1496 H   0  0  0  0  0 15  0  0  0  0  0  0
   28.0839   -0.2563    1.5550 N   0  0  0  0  0 15  0  0  0  0  0  0
   29.0319   -1.3369    1.9034 C   0  0  0  0  0 15  0  0  0  0  0  0
   30.0259   -1.5030    0.7814 C   0  0  0  0  0 15  0  0  0  0  0  0
   31.2319   -1.5189    0.9660 O   0  0  0  0  0 15  0  0  0  0  0  0
   27.6069   -0.4475    0.6044 H   0  0  0  0  0 15  0  0  0  0  0  0
   29.5779   -1.0157    2.8058 H   0  0  0  0  0 15  0  0  0  0  0  0
   28.3269   -2.6872    2.2064 C   0  0  0  0  0 15  0  0  0  0  0  0
   27.6499   -2.5674    3.0647 H   0  0  0  0  0 15  0  0  0  0  0  0
   29.0899   -3.4324    2.4893 H   0  0  0  0  0 15  0  0  0  0  0  0
   27.5489   -3.2110    1.0196 C   0  0  0  0  0 15  0  0  0  0  0  0
   28.0789   -4.0084    0.2628 O   0  0  0  0  0 15  0  0  0  0  0  0
   26.2849   -2.7900    0.8127 N   0  0  0  0  0 15  0  0  0  0  0  0
   25.8319   -2.1427    1.4299 H   0  0  0  0  0 15  0  0  0  0  0  0
   25.7899   -3.1439    0.0203 H   0  0  0  0  0 15  0  0  0  0  0  0
   29.5620   -1.4872   -0.5215 N   0  0  0  0  0 15  0  0  0  0  0  0
   30.8080   -1.5740   -1.2788 C   0  0  0  0  0 15  0  0  0  0  0  0
   31.1410   -0.2508   -1.9257 C   0  0  0  0  0 15  0  0  0  0  0  0
   30.4160    0.7439   -1.7971 O   0  0  0  0  0 15  0  0  0  0  0  0
   30.6990   -2.7184   -2.3616 C   0  0  0  0  0 15  0  0  0  0  0  0
   30.5520   -4.1389   -1.7610 C   0  0  0  0  0 15  0  0  0  0  0  0
   31.8710   -2.8201   -3.3788 C   0  0  0  0  0 15  0  0  0  0  0  0
   28.9900   -0.5729   -0.4636 H   0  0  0  0  0 15  0  0  0  0  0  0
   31.6320   -1.8093   -0.5801 H   0  0  0  0  0 15  0  0  0  0  0  0
   29.7820   -2.5191   -2.9576 H   0  0  0  0  0 15  0  0  0  0  0  0
   31.4540   -4.4528   -1.2050 H   0  0  0  0  0 15  0  0  0  0  0  0
   29.6970   -4.2050   -1.0660 H   0  0  0  0  0 15  0  0  0  0  0  0
   30.3680   -4.8980   -2.5455 H   0  0  0  0  0 15  0  0  0  0  0  0
   32.8440   -3.0009   -2.8825 H   0  0  0  0  0 15  0  0  0  0  0  0
   31.7200   -3.6380   -4.1103 H   0  0  0  0  0 15  0  0  0  0  0  0
   31.9810   -1.9051   -3.9895 H   0  0  0  0  0 15  0  0  0  0  0  0
   31.0401    0.7711   -1.3745 N   0  0  0  0  0 15  0  0  0  0  0  0
   32.2801    1.5426   -1.3410 C   0  0  0  0  0 15  0  0  0  0  0  0
   32.6441    1.9186    0.0738 C   0  0  0  0  0 15  0  0  0  0  0  0
   33.8451    2.6780    0.2320 O   0  0  0  0  0 15  0  0  0  0  0  0
   32.1161    2.7733   -2.2544 C   0  0  0  0  0 15  0  0  0  0  0  0
   33.6751    3.6738   -2.3995 S   0  0  0  0  0 15  0  0  0  0  0  0
   30.4931    0.5281   -0.4760 H   0  0  0  0  0 15  0  0  0  0  0  0
   33.0951    0.9066   -1.7321 H   0  0  0  0  0 15  0  0  0  0  0  0
   31.7991    2.4779   -3.2715 H   0  0  0  0  0 15  0  0  0  0  0  0
   31.3301    3.4589   -1.8742 H   0  0  0  0  0 15  0  0  0  0  0  0
   33.3451    4.6933   -1.6106 H   0  0  0  0  0 15  0  0  0  0  0  0
   32.5182    1.2203    0.9973 N   0  0  0  0  0 15  0  0  0  0  0  0
   33.7662    1.0402    1.7328 C   0  0  0  0  0 15  0  0  0  0  0  0
   34.0872   -0.4263    1.9028 C   0  0  0  0  0 15  0  0  0  0  0  0
   33.3572   -1.3069    1.4593 O   0  0  0  0  0 15  0  0  0  0  0  0
   31.9372    0.3819    0.6420 H   0  0  0  0  0 15  0  0  0  0  0  0
   34.5992    1.5347    1.2014 H   0  0  0  0  0 15  0  0  0  0  0  0
   33.6952    1.5144    2.7290 H   0  0  0  0  0 15  0  0  0  0  0  0
   33.9963   -1.1934    1.0293 N   0  0  0  0  0 15  0  0  0  0  0  0
   34.9283   -2.2204    0.5686 C   0  0  0  0  0 15  0  0  0  0  0  0
   35.9413   -1.5886   -0.3558 C   0  0  0  0  0 15  0  0  0  0  0  0
   37.1303   -1.7785   -0.1521 O   0  0  0  0  0 15  0  0  0  0  0  0
   34.2303   -3.3836   -0.1908 C   0  0  0  0  0 15  0  0  0  0  0  0
   33.4033   -4.3112    0.7386 C   0  0  0  0  0 15  0  0  0  0  0  0
   32.4623   -5.2619    0.0246 C   0  0  0  0  0 15  0  0  0  0  0  0
   31.4883   -5.6546    0.6514 O   0  0  0  0  0 15  0  0  0  0  0  0
   32.6903   -5.6697   -1.2459 N   0  0  0  0  0 15  0  0  0  0  0  0
   35.4553   -2.6219    1.4518 H   0  0  0  0  0 15  0  0  0  0  0  0
   33.0163   -1.3402    0.9084 H   0  0  0  0  0 15  0  0  0  0  0  0
   35.0083   -3.9898   -0.6780 H   0  0  0  0  0 15  0  0  0  0  0  0
   33.5783   -2.9699   -0.9754 H   0  0  0  0  0 15  0  0  0  0  0  0
   32.7983   -3.6828    1.4059 H   0  0  0  0  0 15  0  0  0  0  0  0
   34.0863   -4.9000    1.3703 H   0  0  0  0  0 15  0  0  0  0  0  0
   33.4843   -5.3710   -1.7758 H   0  0  0  0  0 15  0  0  0  0  0  0
   32.0413   -6.2984   -1.6776 H   0  0  0  0  0 15  0  0  0  0  0  0
   35.4744   -0.8072   -1.3536 N   0  0  0  0  0 15  0  0  0  0  0  0
   36.7224   -0.3871   -1.9836 C   0  0  0  0  0 15  0  0  0  0  0  0
   37.0434    1.0494   -1.6435 C   0  0  0  0  0 15  0  0  0  0  0  0
   36.3134    1.7261   -0.9263 O   0  0  0  0  0 15  0  0  0  0  0  0
   34.8934   -0.1402   -0.7337 H   0  0  0  0  0 15  0  0  0  0  0  0
   37.5554   -1.0332   -1.6526 H   0  0  0  0  0 15  0  0  0  0  0  0
   36.6514   -0.4934   -3.0818 H   0  0  0  0  0 15  0  0  0  0  0  0
   36.9525    1.4729   -0.5608 N   0  0  0  0  0 15  0  0  0  0  0  0
   37.9005    2.3176    0.1979 C   0  0  0  0  0 15  0  0  0  0  0  0
   38.8945    1.4315    0.9059 C   0  0  0  0  0 15  0  0  0  0  0  0
   40.1005    1.5989    0.8267 O   0  0  0  0  0 15  0  0  0  0  0  0
   36.4755    0.7474    0.0827 H   0  0  0  0  0 15  0  0  0  0  0  0
   38.4465    2.9359   -0.5336 H   0  0  0  0  0 15  0  0  0  0  0  0
   37.1955    3.2587    1.2125 C   0  0  0  0  0 15  0  0  0  0  0  0
   36.5185    3.9402    0.6772 H   0  0  0  0  0 15  0  0  0  0  0  0
   37.9585    3.8780    1.7142 H   0  0  0  0  0 15  0  0  0  0  0  0
   36.4175    2.4965    2.2622 C   0  0  0  0  0 15  0  0  0  0  0  0
   36.9475    2.2436    3.3321 O   0  0  0  0  0 15  0  0  0  0  0  0
   35.1535    2.1060    2.0024 N   0  0  0  0  0 15  0  0  0  0  0  0
   34.7005    2.3137    1.1325 H   0  0  0  0  0 15  0  0  0  0  0  0
   34.6585    1.5991    2.7069 H   0  0  0  0  0 15  0  0  0  0  0  0
   38.4306    0.2974    1.5477 N   0  0  0  0  0 15  0  0  0  0  0  0
   39.3776   -0.5803    2.2339 C   0  0  0  0  0 15  0  0  0  0  0  0
   40.3476   -1.1324    1.2152 C   0  0  0  0  0 15  0  0  0  0  0  0
   41.5326   -1.1776    1.5013 O   0  0  0  0  0 15  0  0  0  0  0  0
   38.6726   -1.7480    2.9755 C   0  0  0  0  0 15  0  0  0  0  0  0
   37.7856   -1.2276    4.1419 C   0  0  0  0  0 15  0  0  0  0  0  0
   36.9206   -2.3589    4.7595 C   0  0  0  0  0 15  0  0  0  0  0  0
   35.9596   -1.8097    5.8473 C   0  0  0  0  0 15  0  0  0  0  0  0
   35.0966   -2.8766    6.4046 N   0  0  0  0  0 15  0  0  0  0  0  0
   39.9366    0.0115    2.9800 H   0  0  0  0  0 15  0  0  0  0  0  0
   37.4736    0.0174    1.4709 H   0  0  0  0  0 15  0  0  0  0  0  0
   39.4316   -2.4348    3.3879 H   0  0  0  0  0 15  0  0  0  0  0  0
   38.0616   -2.3115    2.2533 H   0  0  0  0  0 15  0  0  0  0  0  0
   37.1136   -0.4333    3.7792 H   0  0  0  0  0 15  0  0  0  0  0  0
   38.4256   -0.7856    4.9258 H   0  0  0  0  0 15  0  0  0  0  0  0
   37.5796   -3.1252    5.2001 H   0  0  0  0  0 15  0  0  0  0  0  0
   36.3186   -2.8343    3.9689 H   0  0  0  0  0 15  0  0  0  0  0  0
   35.3236   -1.0283    5.4010 H   0  0  0  0  0 15  0  0  0  0  0  0
   36.5486   -1.3435    6.6568 H   0  0  0  0  0 15  0  0  0  0  0  0
   34.4946   -3.3454    5.6429 H   0  0  0  0  0 15  0  0  0  0  0  0
   34.4116   -2.4794    7.1419 H   0  0  0  0  0 15  0  0  0  0  0  0
   35.6796   -3.6420    6.8919 H   0  0  0  0  0 15  0  0  0  0  0  0
   39.9087   -1.5758    0.0251 N   0  0  0  0  0 15  0  0  0  0  0  0
   41.1487   -1.9350   -0.6586 C   0  0  0  0  0 15  0  0  0  0  0  0
   41.5127   -0.9014   -1.6952 C   0  0  0  0  0 15  0  0  0  0  0  0
   42.7137   -1.1466   -2.4312 O   0  0  0  0  0 15  0  0  0  0  0  0
   40.9847   -3.3435   -1.2627 C   0  0  0  0  0 15  0  0  0  0  0  0
   42.5437   -3.9219   -1.9680 S   0  0  0  0  0 15  0  0  0  0  0  0
   39.3617   -0.6771   -0.2170 H   0  0  0  0  0 15  0  0  0  0  0  0
   41.9637   -1.9530    0.0878 H   0  0  0  0  0 15  0  0  0  0  0  0
   40.6677   -4.0739   -0.4957 H   0  0  0  0  0 15  0  0  0  0  0  0
   40.1987   -3.3598   -2.0465 H   0  0  0  0  0 15  0  0  0  0  0  0
   42.2137   -3.7530   -3.2460 H   0  0  0  0  0 15  0  0  0  0  0  0
   41.3868    0.2480   -1.5564 N   0  0  0  0  0 15  0  0  0  0  0  0
   42.6358    0.9741   -1.7662 C   0  0  0  0  0 15  0  0  0  0  0  0
   42.9488    1.8653   -0.5888 C   0  0  0  0  0 15  0  0  0  0  0  0
   44.1548    2.6281   -0.6816 O   0  0  0  0  0 15  0  0  0  0  0  0
   42.6108    1.7821   -3.1268 C   0  0  0  0  0 15  0  0  0  0  0  0
   42.2188    0.9384   -4.3806 C   0  0  0  0  0 15  0  0  0  0  0  0
   43.9628    2.5010   -3.4300 C   0  0  0  0  0 15  0  0  0  0  0  0
   41.8698    1.7422   -5.6515 C   0  0  0  0  0 15  0  0  0  0  0  0
   40.7998    0.3674   -0.6584 H   0  0  0  0  0 15  0  0  0  0  0  0
   43.4508    0.2288   -1.8207 H   0  0  0  0  0 15  0  0  0  0  0  0
   41.8328    2.5693   -3.0133 H   0  0  0  0  0 15  0  0  0  0  0  0
   43.0068    0.1936   -4.6039 H   0  0  0  0  0 15  0  0  0  0  0  0
   41.3218    0.3329   -4.1507 H   0  0  0  0  0 15  0  0  0  0  0  0
   43.9188    3.1069   -4.3517 H   0  0  0  0  0 15  0  0  0  0  0  0
   44.2618    3.2166   -2.6427 H   0  0  0  0  0 15  0  0  0  0  0  0
   44.7948    1.7839   -3.5556 H   0  0  0  0  0 15  0  0  0  0  0  0
   41.5338    1.0704   -6.4670 H   0  0  0  0  0 15  0  0  0  0  0  0
   41.0538    2.4624   -5.4693 H   0  0  0  0  0 15  0  0  0  0  0  0
   42.7328    2.3097   -6.0437 H   0  0  0  0  0 15  0  0  0  0  0  0
   42.8649    1.4899    0.5136 N   0  0  0  0  0 15  0  0  0  0  0  0
   43.7949    1.6764    1.6254 C   0  0  0  0  0 15  0  0  0  0  0  0
   44.7759    0.5251    1.6179 C   0  0  0  0  0 15  0  0  0  0  0  0
   45.9609    0.7595    1.7873 O   0  0  0  0  0 15  0  0  0  0  0  0
   43.0909    1.7311    3.0108 C   0  0  0  0  0 15  0  0  0  0  0  0
   42.0449    2.8791    3.1669 C   0  0  0  0  0 15  0  0  0  0  0  0
   41.3709    2.7849    4.5645 C   0  0  0  0  0 15  0  0  0  0  0  0
   42.6709    4.2900    2.9791 C   0  0  0  0  0 15  0  0  0  0  0  0
   44.3649    2.6072    1.4720 H   0  0  0  0  0 15  0  0  0  0  0  0
   41.9109    1.2547    0.7067 H   0  0  0  0  0 15  0  0  0  0  0  0
   43.8639    1.8474    3.7875 H   0  0  0  0  0 15  0  0  0  0  0  0
   42.5879    0.7662    3.1748 H   0  0  0  0  0 15  0  0  0  0  0  0
   41.2469    2.7586    2.4145 H   0  0  0  0  0 15  0  0  0  0  0  0
   40.8949    1.7993    4.6972 H   0  0  0  0  0 15  0  0  0  0  0  0
   40.5949    3.5552    4.6784 H   0  0  0  0  0 15  0  0  0  0  0  0
   42.1189    2.9210    5.3620 H   0  0  0  0  0 15  0  0  0  0  0  0
   43.5329    4.4180    3.6536 H   0  0  0  0  0 15  0  0  0  0  0  0
   41.9299    5.0717    3.2078 H   0  0  0  0  0 15  0  0  0  0  0  0
   42.9999    4.4433    1.9416 H   0  0  0  0  0 15  0  0  0  0  0  0
   44.3430   -0.7638    1.3786 N   0  0  0  0  0 15  0  0  0  0  0  0
   45.5910   -1.5196    1.3324 C   0  0  0  0  0 15  0  0  0  0  0  0
   45.9120   -1.9484   -0.0802 C   0  0  0  0  0 15  0  0  0  0  0  0
   45.1820   -1.6689   -1.0258 O   0  0  0  0  0 15  0  0  0  0  0  0
   43.7620   -0.5636    0.4902 H   0  0  0  0  0 15  0  0  0  0  0  0
   46.4240   -0.9085    1.7243 H   0  0  0  0  0 15  0  0  0  0  0  0
   45.5200   -2.4152    1.9767 H   0  0  0  0  0 15  0  0  0  0  0  0
   45.8211   -1.2256   -0.9908 N   0  0  0  0  0 15  0  0  0  0  0  0
   47.0461   -1.0786   -1.7715 C   0  0  0  0  0 15  0  0  0  0  0  0
   47.4711    0.3664   -1.8450 C   0  0  0  0  0 15  0  0  0  0  0  0
   46.8291    1.2648   -1.2990 O   0  0  0  0  0 15  0  0  0  0  0  0
   46.8771   -1.6969   -3.1818 C   0  0  0  0  0 15  0  0  0  0  0  0
   45.9811   -0.9519   -4.0126 O   0  0  0  0  0 15  0  0  0  0  0  0
   45.3221   -0.3787   -0.5454 H   0  0  0  0  0 15  0  0  0  0  0  0
   47.8521   -1.6240   -1.2445 H   0  0  0  0  0 15  0  0  0  0  0  0
   47.8621   -1.7450   -3.6880 H   0  0  0  0  0 15  0  0  0  0  0  0
   46.5371   -2.7484   -3.1215 H   0  0  0  0  0 15  0  0  0  0  0  0
   45.1141   -0.9800   -3.5979 H   0  0  0  0  0 15  0  0  0  0  0  0
   47.2992    1.1880   -1.0356 N   0  0  0  0  0 15  0  0  0  0  0  0
   48.5762    1.8447   -0.6504 C   0  0  0  0  0 15  0  0  0  0  0  0
   48.9562    1.9232    0.8704 C   0  0  0  0  0 15  0  0  0  0  0  0
   48.3042    1.4453    1.7699 O   0  0  0  0  0 15  0  0  0  0  0  0
   48.5142    3.2306   -1.3204 C   0  0  0  0  0 15  0  0  0  0  0  0
   49.8622    3.9915   -1.4479 C   0  0  0  0  0 15  0  0  0  0  0  0
   50.8862    3.3248   -1.2781 O   0  0  0  0  0 15  0  0  0  0  0  0
   49.7452    5.1859   -1.7242 O   0  0  0  0  0 15  0  0  0  0  0  0
   46.8392    0.7953   -0.2269 H   0  0  0  0  0 15  0  0  0  0  0  0
   49.3852    1.2623   -1.1342 H   0  0  0  0  0 15  0  0  0  0  0  0
   48.1572    3.1222   -2.3587 H   0  0  0  0  0 15  0  0  0  0  0  0
   47.7802    3.8895   -0.8249 H   0  0  0  0  0 15  0  0  0  0  0  0
   48.7773    0.8144    1.3493 N   0  0  0  0  0 15  0  0  0  0  0  0
   50.0253    0.3976    1.9815 C   0  0  0  0  0 15  0  0  0  0  0  0
   50.3463   -1.0407    1.6491 C   0  0  0  0  0 15  0  0  0  0  0  0
   49.6163   -1.7212    0.9355 O   0  0  0  0  0 15  0  0  0  0  0  0
   48.1963    0.1440    0.7330 H   0  0  0  0  0 15  0  0  0  0  0  0
   50.8583    1.0420    1.6471 H   0  0  0  0  0 15  0  0  0  0  0  0
   49.9543    0.5097    3.0791 H   0  0  0  0  0 15  0  0  0  0  0  0
   50.2554   -1.4699    0.5686 N   0  0  0  0  0 15  0  0  0  0  0  0
   51.1654   -2.3394   -0.1756 C   0  0  0  0  0 15  0  0  0  0  0  0
   52.1814   -1.4889   -0.9004 C   0  0  0  0  0 15  0  0  0  0  0  0
   53.3574   -1.8179   -0.8668 O   0  0  0  0  0 15  0  0  0  0  0  0
   50.4224   -3.2581   -1.1852 C   0  0  0  0  0 15  0  0  0  0  0  0
   49.4834   -4.2676   -0.4666 C   0  0  0  0  0 15  0  0  0  0  0  0
   48.7164   -5.1424   -1.4282 C   0  0  0  0  0 15  0  0  0  0  0  0
   48.9394   -5.0438   -2.6638 O   0  0  0  0  0 15  0  0  0  0  0  0
   47.8734   -5.9441   -0.9465 O   0  0  0  0  0 15  0  0  0  0  0  0
   51.6994   -2.9890    0.5380 H   0  0  0  0  0 15  0  0  0  0  0  0
   49.2844   -1.4573    0.3291 H   0  0  0  0  0 15  0  0  0  0  0  0
   51.1664   -3.8253   -1.7678 H   0  0  0  0  0 15  0  0  0  0  0  0
   49.8414   -2.6347   -1.8805 H   0  0  0  0  0 15  0  0  0  0  0  0
   48.7484   -3.7377    0.1575 H   0  0  0  0  0 15  0  0  0  0  0  0
   50.0814   -4.9184    0.1875 H   0  0  0  0  0 15  0  0  0  0  0  0
   51.7335   -0.3056   -1.5461 N   0  0  0  0  0 15  0  0  0  0  0  0
   52.6805    0.5684   -2.2369 C   0  0  0  0  0 15  0  0  0  0  0  0
   53.6505    1.1259   -1.2212 C   0  0  0  0  0 15  0  0  0  0  0  0
   54.8355    1.1696   -1.5075 O   0  0  0  0  0 15  0  0  0  0  0  0
   51.9755    1.7322   -2.9848 C   0  0  0  0  0 15  0  0  0  0  0  0
   51.0885    1.2057   -4.1483 C   0  0  0  0  0 15  0  0  0  0  0  0
   50.2235    2.3337   -4.7719 C   0  0  0  0  0 15  0  0  0  0  0  0
   49.2625    1.7787   -5.8569 C   0  0  0  0  0 15  0  0  0  0  0  0
   48.3995    2.8426   -6.4198 N   0  0  0  0  0 15  0  0  0  0  0  0
   53.2395   -0.0273   -2.9799 H   0  0  0  0  0 15  0  0  0  0  0  0
   50.7765   -0.0252   -1.4708 H   0  0  0  0  0 15  0  0  0  0  0  0
   52.7345    2.4167   -3.4007 H   0  0  0  0  0 15  0  0  0  0  0  0
   51.3645    2.2995   -2.2655 H   0  0  0  0  0 15  0  0  0  0  0  0
   50.4165    0.4132   -3.7815 H   0  0  0  0  0 15  0  0  0  0  0  0
   51.7285    0.7594   -4.9299 H   0  0  0  0  0 15  0  0  0  0  0  0
   50.8825    3.0976   -5.2166 H   0  0  0  0  0 15  0  0  0  0  0  0
   49.6215    2.8132   -3.9838 H   0  0  0  0  0 15  0  0  0  0  0  0
   48.6265    0.9997   -5.4064 H   0  0  0  0  0 15  0  0  0  0  0  0
   49.8515    1.3082   -6.6638 H   0  0  0  0  0 15  0  0  0  0  0  0
   47.7975    3.3154   -5.6605 H   0  0  0  0  0 15  0  0  0  0  0  0
   47.7145    2.4415   -7.1549 H   0  0  0  0  0 15  0  0  0  0  0  0
   48.9825    3.6054   -6.9111 H   0  0  0  0  0 15  0  0  0  0  0  0
   53.2116    1.5756   -0.0334 N   0  0  0  0  0 15  0  0  0  0  0  0
   54.1596    2.1164    0.9650 C   0  0  0  0  0 15  0  0  0  0  0  0
   55.1536    1.0440    1.3341 C   0  0  0  0  0 15  0  0  0  0  0  0
   56.3596    1.2283    1.3158 O   0  0  0  0  0 15  0  0  0  0  0  0
   52.7346    0.6762    0.3290 H   0  0  0  0  0 15  0  0  0  0  0  0
   54.7056    2.9445    0.4836 H   0  0  0  0  0 15  0  0  0  0  0  0
   53.4546    2.6621    2.2367 C   0  0  0  0  0 15  0  0  0  0  0  0
   52.7776    3.4838    1.9614 H   0  0  0  0  0 15  0  0  0  0  0  0
   54.2176    3.0768    2.9173 H   0  0  0  0  0 15  0  0  0  0  0  0
   52.6766    1.5915    2.9694 C   0  0  0  0  0 15  0  0  0  0  0  0
   53.2066    0.9939    3.8921 O   0  0  0  0  0 15  0  0  0  0  0  0
   51.4126    1.3109    2.5935 N   0  0  0  0  0 15  0  0  0  0  0  0
   50.9596    1.7988    1.8439 H   0  0  0  0  0 15  0  0  0  0  0  0
   50.9176    0.5969    3.0868 H   0  0  0  0  0 15  0  0  0  0  0  0
   54.6897   -0.2398    1.5577 N   0  0  0  0  0 15  0  0  0  0  0  0
   55.6217   -1.3200    1.8737 C   0  0  0  0  0 15  0  0  0  0  0  0
   56.6347   -1.4394    0.7605 C   0  0  0  0  0 15  0  0  0  0  0  0
   57.8237   -1.4517    1.0387 O   0  0  0  0  0 15  0  0  0  0  0  0
   54.9237   -2.6978    2.0512 C   0  0  0  0  0 15  0  0  0  0  0  0
   54.0967   -2.8001    3.3602 C   0  0  0  0  0 15  0  0  0  0  0  0
   53.1557   -3.9868    3.4342 C   0  0  0  0  0 15  0  0  0  0  0  0
   52.1817   -3.8788    4.1658 O   0  0  0  0  0 15  0  0  0  0  0  0
   53.3837   -5.1218    2.7323 N   0  0  0  0  0 15  0  0  0  0  0  0
   56.1487   -1.0522    2.8062 H   0  0  0  0  0 15  0  0  0  0  0  0
   53.7097   -0.4299    1.5609 H   0  0  0  0  0 15  0  0  0  0  0  0
   55.7017   -3.4752    2.0740 H   0  0  0  0  0 15  0  0  0  0  0  0
   54.2717   -2.8924    1.1858 H   0  0  0  0  0 15  0  0  0  0  0  0
   53.4917   -1.8890    3.4599 H   0  0  0  0  0 15  0  0  0  0  0  0
   54.7797   -2.8381    4.2229 H   0  0  0  0  0 15  0  0  0  0  0  0
   54.1777   -5.2385    2.1354 H   0  0  0  0  0 15  0  0  0  0  0  0
   52.7347   -5.8802    2.8120 H   0  0  0  0  0 15  0  0  0  0  0  0
   56.1678   -1.4927   -0.5057 N   0  0  0  0  0 15  0  0  0  0  0  0
   57.4078   -1.6013   -1.2704 C   0  0  0  0  0 15  0  0  0  0  0  0
   57.7718   -0.2796   -1.8995 C   0  0  0  0  0 15  0  0  0  0  0  0
   58.9728   -0.2633   -2.6751 O   0  0  0  0  0 15  0  0  0  0  0  0
   57.2438   -2.7251   -2.3125 C   0  0  0  0  0 15  0  0  0  0  0  0
   58.8028   -3.0329   -3.1711 S   0  0  0  0  0 15  0  0  0  0  0  0
   55.6208   -0.5649   -0.4318 H   0  0  0  0  0 15  0  0  0  0  0  0
   58.2228   -1.8690   -0.5734 H   0  0  0  0  0 15  0  0  0  0  0  0
   56.9268   -3.6707   -1.8355 H   0  0  0  0  0 15  0  0  0  0  0  0
   56.4578   -2.4771   -3.0562 H   0  0  0  0  0 15  0  0  0  0  0  0
   58.4728   -2.4445   -4.3181 H   0  0  0  0  0 15  0  0  0  0  0  0
   57.6459    0.7564   -1.3826 N   0  0  0  0  0 15  0  0  0  0  0  0
   58.8919    1.5177   -1.3451 C   0  0  0  0  0 15  0  0  0  0  0  0
   59.2249    1.9409    0.0657 C   0  0  0  0  0 15  0  0  0  0  0  0
   58.4999    1.6522    1.0263 O   0  0  0  0  0 15  0  0  0  0  0  0
   58.7829    2.7723   -2.2982 C   0  0  0  0  0 15  0  0  0  0  0  0
   58.6359    2.4106   -3.7975 C   0  0  0  0  0 15  0  0  0  0  0  0
   59.9549    3.7924   -2.2331 C   0  0  0  0  0 15  0  0  0  0  0  0
   57.0739    0.5506   -0.4899 H   0  0  0  0  0 15  0  0  0  0  0  0
   59.7159    0.8666   -1.6909 H   0  0  0  0  0 15  0  0  0  0  0  0
   57.8659    3.3278   -2.0047 H   0  0  0  0  0 15  0  0  0  0  0  0
   59.5379    1.9130   -4.1976 H   0  0  0  0  0 15  0  0  0  0  0  0
   57.7809    1.7356   -3.9757 H   0  0  0  0  0 15  0  0  0  0  0  0
   58.4519    3.3081   -4.4189 H   0  0  0  0  0 15  0  0  0  0  0  0
   60.9279    3.3321   -2.4922 H   0  0  0  0  0 15  0  0  0  0  0  0
   59.8039    4.6471   -2.9212 H   0  0  0  0  0 15  0  0  0  0  0  0
   60.0649    4.2462   -1.2310 H   0  0  0  0  0 15  0  0  0  0  0  0
   59.1240    1.2308    0.9843 N   0  0  0  0  0 15  0  0  0  0  0  0
   60.3520    1.0871    1.7604 C   0  0  0  0  0 15  0  0  0  0  0  0
   60.7670   -0.3617    1.8530 C   0  0  0  0  0 15  0  0  0  0  0  0
   60.1240   -1.2503    1.3294 O   0  0  0  0  0 15  0  0  0  0  0  0
   60.1750    1.7021    3.1892 C   0  0  0  0  0 15  0  0  0  0  0  0
   59.8960    3.0942    3.1014 O   0  0  0  0  0 15  0  0  0  0  0  0
   61.3970    1.6123    4.1294 C   0  0  0  0  0 15  0  0  0  0  0  0
   58.6170    0.3807    0.5526 H   0  0  0  0  0 15  0  0  0  0  0  0
   61.1610    1.6285    1.2369 H   0  0  0  0  0 15  0  0  0  0  0  0
   59.3160    1.2011    3.6831 H   0  0  0  0  0 15  0  0  0  0  0  0
   59.7300    3.3919    4.0006 H   0  0  0  0  0 15  0  0  0  0  0  0
   61.2040    2.0896    5.1092 H   0  0  0  0  0 15  0  0  0  0  0  0
   61.6810    0.5704    4.3548 H   0  0  0  0  0 15  0  0  0  0  0  0
   62.2870    2.1067    3.6946 H   0  0  0  0  0 15  0  0  0  0  0  0
   60.6021   -1.1825    1.0419 N   0  0  0  0  0 15  0  0  0  0  0  0
   61.8501   -1.8789    0.7445 C   0  0  0  0  0 15  0  0  0  0  0  0
   62.1711   -1.8082   -0.7300 C   0  0  0  0  0 15  0  0  0  0  0  0
   61.4411   -1.2274   -1.5268 O   0  0  0  0  0 15  0  0  0  0  0  0
   60.0211   -0.6956    0.2724 H   0  0  0  0  0 15  0  0  0  0  0  0
   62.6831   -1.4349    1.3189 H   0  0  0  0  0 15  0  0  0  0  0  0
   61.7791   -2.9389    1.0505 H   0  0  0  0  0 15  0  0  0  0  0  0
   62.0802   -0.8215   -1.3449 N   0  0  0  0  0 15  0  0  0  0  0  0
   62.9902   -0.2444   -2.3332 C   0  0  0  0  0 15  0  0  0  0  0  0
   64.0062    0.6205   -1.6256 C   0  0  0  0  0 15  0  0  0  0  0  0
   65.1822    0.5288   -1.9434 O   0  0  0  0  0 15  0  0  0  0  0  0
   62.2472    0.5854   -3.4172 C   0  0  0  0  0 15  0  0  0  0  0  0
   61.3082   -0.3018   -4.2824 C   0  0  0  0  0 15  0  0  0  0  0  0
   60.5412    0.4885   -5.3146 C   0  0  0  0  0 15  0  0  0  0  0  0
   60.7642    1.7219   -5.4379 O   0  0  0  0  0 15  0  0  0  0  0  0
   59.6982   -0.1285   -6.0176 O   0  0  0  0  0 15  0  0  0  0  0  0
   63.5242   -1.0623   -2.8451 H   0  0  0  0  0 15  0  0  0  0  0  0
   61.1092   -0.5836   -1.3753 H   0  0  0  0  0 15  0  0  0  0  0  0
   62.9912    1.0575   -4.0792 H   0  0  0  0  0 15  0  0  0  0  0  0
   61.6662    1.3807   -2.9278 H   0  0  0  0  0 15  0  0  0  0  0  0
   60.5732   -0.8213   -3.6497 H   0  0  0  0  0 15  0  0  0  0  0  0
   61.9062   -1.0614   -4.8062 H   0  0  0  0  0 15  0  0  0  0  0  0
   63.5583    1.4668   -0.5764 N   0  0  0  0  0 15  0  0  0  0  0  0
   64.8063    2.0201   -0.0594 C   0  0  0  0  0 15  0  0  0  0  0  0
   65.1273    1.4510    1.3027 C   0  0  0  0  0 15  0  0  0  0  0  0
   64.3973    0.6333    1.8538 O   0  0  0  0  0 15  0  0  0  0  0  0
   62.9773    0.7468   -0.0190 H   0  0  0  0  0 15  0  0  0  0  0  0
   65.6393    1.7986   -0.7507 H   0  0  0  0  0 15  0  0  0  0  0  0
   64.7353    3.1210    0.0143 H   0  0  0  0  0 15  0  0  0  0  0  0
   65.0364    0.3138    1.5444 N   0  0  0  0  0 15  0  0  0  0  0  0
   66.2644   -0.2939    2.0480 C   0  0  0  0  0 15  0  0  0  0  0  0
   66.6794   -1.4654    1.1905 C   0  0  0  0  0 15  0  0  0  0  0  0
   66.0364   -1.8118    0.2189 O   0  0  0  0  0 15  0  0  0  0  0  0
   66.0874   -0.7378    3.5389 C   0  0  0  0  0 15  0  0  0  0  0  0
   65.8084    0.3870    4.3639 O   0  0  0  0  0 15  0  0  0  0  0  0
   67.3094   -1.4094    4.2030 C   0  0  0  0  0 15  0  0  0  0  0  0
   64.5294   -0.0620    0.6681 H   0  0  0  0  0 15  0  0  0  0  0  0
   67.0734    0.4572    1.9932 H   0  0  0  0  0 15  0  0  0  0  0  0
   65.2284   -1.4389    3.5969 H   0  0  0  0  0 15  0  0  0  0  0  0
   65.6424    0.0391    5.2449 H   0  0  0  0  0 15  0  0  0  0  0  0
   67.1164   -1.6710    5.2610 H   0  0  0  0  0 15  0  0  0  0  0  0
   67.5934   -2.3535    3.7082 H   0  0  0  0  0 15  0  0  0  0  0  0
   68.1994   -0.7511    4.1861 H   0  0  0  0  0 15  0  0  0  0  0  0
   66.5145   -1.5754    0.0418 N   0  0  0  0  0 15  0  0  0  0  0  0
   67.9255   -1.8001   -0.4953 C   0  0  0  0  0 15  0  0  0  0  0  0
   68.2765   -0.9532   -1.7149 C   0  0  0  0  0 15  0  0  0  0  0  0
   67.4015   -0.1671   -2.1575 O   0  0  0  0  0 15  0  0  0  0  0  0
   67.9965   -3.2648   -0.9053 C   0  0  0  0  0 15  0  0  0  0  0  0
   66.5555   -3.4990   -1.3873 C   0  0  0  0  0 15  0  0  0  0  0  0
   65.7025   -2.7498   -0.3581 C   0  0  0  0  0 15  0  0  0  0  0  0
   68.6535   -1.5643    0.2677 H   0  0  0  0  0 15  0  0  0  0  0  0
   68.6745   -3.3689   -1.7688 H   0  0  0  0  0 15  0  0  0  0  0  0
   68.1865   -3.8810   -0.0174 H   0  0  0  0  0 15  0  0  0  0  0  0
   66.2875   -2.9355   -2.2947 H   0  0  0  0  0 15  0  0  0  0  0  0
   66.4005   -4.5861   -1.3860 H   0  0  0  0  0 15  0  0  0  0  0  0
   64.7645   -2.4083   -0.8289 H   0  0  0  0  0 15  0  0  0  0  0  0
   65.5475   -3.3931    0.5216 H   0  0  0  0  0 15  0  0  0  0  0  0
   67.9926    0.2315   -1.5589 N   0  0  0  0  0 15  0  0  0  0  0  0
   68.9396    1.2868   -1.9160 C   0  0  0  0  0 15  0  0  0  0  0  0
   69.9096    1.4707   -0.7720 C   0  0  0  0  0 15  0  0  0  0  0  0
   71.0946    1.6080   -1.0270 O   0  0  0  0  0 15  0  0  0  0  0  0
   68.2346    2.6342   -2.2294 C   0  0  0  0  0 15  0  0  0  0  0  0
   67.3476    2.5291   -3.5023 C   0  0  0  0  0 15  0  0  0  0  0  0
   66.4826    3.8011   -3.7107 C   0  0  0  0  0 15  0  0  0  0  0  0
   65.5216    3.6428   -4.9190 C   0  0  0  0  0 15  0  0  0  0  0  0
   64.6586    4.8340   -5.0918 N   0  0  0  0  0 15  0  0  0  0  0  0
   69.4986    0.9753   -2.8159 H   0  0  0  0  0 15  0  0  0  0  0  0
   67.0356    0.4703   -1.3938 H   0  0  0  0  0 15  0  0  0  0  0  0
   68.9936    3.4187   -2.3913 H   0  0  0  0  0 15  0  0  0  0  0  0
   67.6236    2.9269   -1.3614 H   0  0  0  0  0 15  0  0  0  0  0  0
   66.6756    1.6595   -3.4229 H   0  0  0  0  0 15  0  0  0  0  0  0
   67.9876    2.3713   -4.3883 H   0  0  0  0  0 15  0  0  0  0  0  0
   67.1416    4.6700   -3.8729 H   0  0  0  0  0 15  0  0  0  0  0  0
   65.8806    3.9880   -2.8073 H   0  0  0  0  0 15  0  0  0  0  0  0
   64.8856    2.7577   -4.7564 H   0  0  0  0  0 15  0  0  0  0  0  0
   66.1106    3.4707   -5.8371 H   0  0  0  0  0 15  0  0  0  0  0  0
   64.0566    5.0243   -4.2179 H   0  0  0  0  0 15  0  0  0  0  0  0
   63.9736    4.7031   -5.9190 H   0  0  0  0  0 15  0  0  0  0  0  0
   65.2416    5.7175   -5.2983 H   0  0  0  0  0 15  0  0  0  0  0  0
   69.4707    1.4953    0.4978 N   0  0  0  0  0 15  0  0  0  0  0  0
   70.8817    1.5234    1.0793 C   0  0  0  0  0 15  0  0  0  0  0  0
   71.2327    0.3115    1.9371 C   0  0  0  0  0 15  0  0  0  0  0  0
   70.3577   -0.5784    2.0853 O   0  0  0  0  0 15  0  0  0  0  0  0
   70.9527    2.7606    1.9641 C   0  0  0  0  0 15  0  0  0  0  0  0
   69.5117    2.8164    2.4971 C   0  0  0  0  0 15  0  0  0  0  0  0
   68.6587    2.4630    1.2740 C   0  0  0  0  0 15  0  0  0  0  0  0
   71.6097    1.5618    0.2816 H   0  0  0  0  0 15  0  0  0  0  0  0
   71.6307    2.5641    2.8113 H   0  0  0  0  0 15  0  0  0  0  0  0
   71.1427    3.6425    1.3394 H   0  0  0  0  0 15  0  0  0  0  0  0
   69.2437    1.9774    3.1580 H   0  0  0  0  0 15  0  0  0  0  0  0
   69.3567    3.8389    2.8664 H   0  0  0  0  0 15  0  0  0  0  0  0
   67.7207    1.9815    1.6003 H   0  0  0  0  0 15  0  0  0  0  0  0
   68.5037    3.3677    0.6664 H   0  0  0  0  0 15  0  0  0  0  0  0
   70.9488   -0.7491    1.3866 N   0  0  0  0  0 15  0  0  0  0  0  0
   71.8808   -1.8727    1.3214 C   0  0  0  0  0 15  0  0  0  0  0  0
   72.8938   -1.6113    0.2328 C   0  0  0  0  0 15  0  0  0  0  0  0
   74.0828   -1.7162    0.4907 O   0  0  0  0  0 15  0  0  0  0  0  0
   71.1828   -3.2301    1.0257 C   0  0  0  0  0 15  0  0  0  0  0  0
   70.3558   -3.7662    2.2243 C   0  0  0  0  0 15  0  0  0  0  0  0
   69.4148   -4.9088    1.8954 C   0  0  0  0  0 15  0  0  0  0  0  0
   68.4408   -5.0528    2.6208 O   0  0  0  0  0 15  0  0  0  0  0  0
   69.6428   -5.7420    0.8530 N   0  0  0  0  0 15  0  0  0  0  0  0
   72.4078   -1.9337    2.2897 H   0  0  0  0  0 15  0  0  0  0  0  0
   69.9688   -0.9292    1.3258 H   0  0  0  0  0 15  0  0  0  0  0  0
   71.9608   -3.9699    0.7861 H   0  0  0  0  0 15  0  0  0  0  0  0
   70.5308   -3.1226    0.1452 H   0  0  0  0  0 15  0  0  0  0  0  0
   69.7508   -2.9415    2.6243 H   0  0  0  0  0 15  0  0  0  0  0  0
   71.0388   -4.0917    3.0242 H   0  0  0  0  0 15  0  0  0  0  0  0
   70.4368   -5.6514    0.2515 H   0  0  0  0  0 15  0  0  0  0  0  0
   68.9938   -6.4831    0.6733 H   0  0  0  0  0 15  0  0  0  0  0  0
   72.4269   -1.2360   -0.9778 N   0  0  0  0  0 15  0  0  0  0  0  0
   73.6519   -1.0974   -1.7599 C   0  0  0  0  0 15  0  0  0  0  0  0
   74.0769    0.3469   -1.8487 C   0  0  0  0  0 15  0  0  0  0  0  0
   73.4349    1.2509   -1.3123 O   0  0  0  0  0 15  0  0  0  0  0  0
   73.4829   -1.7305   -3.1636 C   0  0  0  0  0 15  0  0  0  0  0  0
   72.5869   -0.9945   -4.0023 O   0  0  0  0  0 15  0  0  0  0  0  0
   71.9279   -0.3845   -0.5414 H   0  0  0  0  0 15  0  0  0  0  0  0
   74.4579   -1.6371   -1.2272 H   0  0  0  0  0 15  0  0  0  0  0  0
   74.4679   -1.7840   -3.6693 H   0  0  0  0  0 15  0  0  0  0  0  0
   73.1429   -2.7814   -3.0921 H   0  0  0  0  0 15  0  0  0  0  0  0
   71.7199   -1.0181   -3.5873 H   0  0  0  0  0 15  0  0  0  0  0  0
   73.9050    1.1769   -1.0482 N   0  0  0  0  0 15  0  0  0  0  0  0
   74.8550    2.1952   -0.6160 C   0  0  0  0  0 15  0  0  0  0  0  0
   75.8390    1.5715    0.3455 C   0  0  0  0  0 15  0  0  0  0  0  0
   77.0310    1.7624    0.1633 O   0  0  0  0  0 15  0  0  0  0  0  0
   74.1600    3.4330    0.0117 C   0  0  0  0  0 15  0  0  0  0  0  0
   73.2460    4.1278   -0.9734 C   0  0  0  0  0 15  0  0  0  0  0  0
   73.6370    4.5814   -2.1434 N   0  0  0  0  0 15  0  0  0  0  0  0
   71.9350    4.3875   -0.8011 C   0  0  0  0  0 15  0  0  0  0  0  0
   72.6360    5.1171   -2.7663 C   0  0  0  0  0 15  0  0  0  0  0  0
   71.6120    5.0369   -2.0445 N   0  0  0  0  0 15  0  0  0  0  0  0
   75.4140    2.5229   -1.5075 H   0  0  0  0  0 15  0  0  0  0  0  0
   72.9280    1.3398   -0.9178 H   0  0  0  0  0 15  0  0  0  0  0  0
   74.9250    4.1552    0.3390 H   0  0  0  0  0 15  0  0  0  0  0  0
   73.5850    3.1202    0.8986 H   0  0  0  0  0 15  0  0  0  0  0  0
   74.5960    4.5235   -2.5219 H   0  0  0  0  0 15  0  0  0  0  0  0
   71.2730    4.1749    0.0351 H   0  0  0  0  0 15  0  0  0  0  0  0
   72.6630    5.5696   -3.7582 H   0  0  0  0  0 15  0  0  0  0  0  0
   75.3831    0.8287    1.3406 N   0  0  0  0  0 15  0  0  0  0  0  0
   76.3311    0.2430    2.3133 C   0  0  0  0  0 15  0  0  0  0  0  0
   77.3251   -0.6194    1.5767 C   0  0  0  0  0 15  0  0  0  0  0  0
   78.5311   -0.5101    1.7262 O   0  0  0  0  0 15  0  0  0  0  0  0
   74.9061    0.0598    0.7496 H   0  0  0  0  0 15  0  0  0  0  0  0
   76.8771    1.0781    2.7824 H   0  0  0  0  0 15  0  0  0  0  0  0
   75.6261   -0.5757    3.4290 C   0  0  0  0  0 15  0  0  0  0  0  0
   74.9491    0.0786    3.9972 H   0  0  0  0  0 15  0  0  0  0  0  0
   76.3891   -0.9515    4.1318 H   0  0  0  0  0 15  0  0  0  0  0  0
   74.8481   -1.7504    2.8786 C   0  0  0  0  0 15  0  0  0  0  0  0
   75.3781   -2.8488    2.8321 O   0  0  0  0  0 15  0  0  0  0  0  0
   73.5841   -1.5690    2.4460 N   0  0  0  0  0 15  0  0  0  0  0  0
   73.1311   -0.6755    2.4858 H   0  0  0  0  0 15  0  0  0  0  0  0
   73.0891   -2.3565    2.0812 H   0  0  0  0  0 15  0  0  0  0  0  0
   76.8612   -1.4637    0.5841 N   0  0  0  0  0 15  0  0  0  0  0  0
   78.1382   -1.9560    0.0033 C   0  0  0  0  0 15  0  0  0  0  0  0
   78.5182   -1.5268   -1.4578 C   0  0  0  0  0 15  0  0  0  0  0  0
   77.8662   -0.7782   -2.1484 O   0  0  0  0  0 15  0  0  0  0  0  0
   78.0762   -3.4855    0.1769 C   0  0  0  0  0 15  0  0  0  0  0  0
   79.4242   -4.2458    0.0455 C   0  0  0  0  0 15  0  0  0  0  0  0
   80.4482   -3.5604    0.1058 O   0  0  0  0  0 15  0  0  0  0  0  0
   79.3072   -5.4643   -0.0890 O   0  0  0  0  0 15  0  0  0  0  0  0
   76.4012   -0.8255   -0.0490 H   0  0  0  0  0 15  0  0  0  0  0  0
   78.9472   -1.5665    0.6526 H   0  0  0  0  0 15  0  0  0  0  0  0
   77.7192   -3.7268    1.1926 H   0  0  0  0  0 15  0  0  0  0  0  0
   77.3422   -3.9433   -0.5087 H   0  0  0  0  0 15  0  0  0  0  0  0
   78.3393   -0.3220   -1.5428 N   0  0  0  0  0 15  0  0  0  0  0  0
   79.5873    0.2805   -2.0014 C   0  0  0  0  0 15  0  0  0  0  0  0
   79.9083    1.5278   -1.2118 C   0  0  0  0  0 15  0  0  0  0  0  0
   79.1783    1.9338   -0.3132 O   0  0  0  0  0 15  0  0  0  0  0  0
   77.7583    0.1066   -0.7394 H   0  0  0  0  0 15  0  0  0  0  0  0
   80.4203   -0.4382   -1.8991 H   0  0  0  0  0 15  0  0  0  0  0  0
   79.5163    0.5380   -3.0743 H   0  0  0  0  0 15  0  0  0  0  0  0
   79.8174    1.5752   -0.0501 N   0  0  0  0  0 15  0  0  0  0  0  0
   81.0944    1.8400    0.6637 C   0  0  0  0  0 15  0  0  0  0  0  0
   81.4744    0.9383    1.8910 C   0  0  0  0  0 15  0  0  0  0  0  0
   80.8224   -0.0009    2.2850 O   0  0  0  0  0 15  0  0  0  0  0  0
   81.0324    3.3370    1.0220 C   0  0  0  0  0 15  0  0  0  0  0  0
   82.3804    4.0069    1.4047 C   0  0  0  0  0 15  0  0  0  0  0  0
   83.4044    3.3832    1.1143 O   0  0  0  0  0 15  0  0  0  0  0  0
   82.2634    5.1066    1.9465 O   0  0  0  0  0 15  0  0  0  0  0  0
   79.3574    0.7594    0.3275 H   0  0  0  0  0 15  0  0  0  0  0  0
   81.9034    1.6951   -0.0794 H   0  0  0  0  0 15  0  0  0  0  0  0
   80.6754    3.9101    0.1494 H   0  0  0  0  0 15  0  0  0  0  0  0
   80.2984    3.5337    1.8226 H   0  0  0  0  0 15  0  0  0  0  0  0
   81.2955   -0.2232    1.5601 N   0  0  0  0  0 15  0  0  0  0  0  0
   82.5425   -0.9479    1.7895 C   0  0  0  0  0 15  0  0  0  0  0  0
   82.8705   -1.8440    0.6186 C   0  0  0  0  0 15  0  0  0  0  0  0
   82.1255   -1.9163   -0.3971 O   0  0  0  0  0 15  0  0  0  0  0  0
   82.4245   -1.8195    3.0762 C   0  0  0  0  0 15  0  0  0  0  0  0
   82.0905   -1.0767    4.3786 C   0  0  0  0  0 15  0  0  0  0  0  0
   80.7525   -0.8715    4.7324 C   0  0  0  0  0 15  0  0  0  0  0  0
   83.1045   -0.5521    5.1827 C   0  0  0  0  0 15  0  0  0  0  0  0
   80.4325   -0.1298    5.8656 C   0  0  0  0  0 15  0  0  0  0  0  0
   82.7845    0.1763    6.3235 C   0  0  0  0  0 15  0  0  0  0  0  0
   81.4485    0.3928    6.6634 C   0  0  0  0  0 15  0  0  0  0  0  0
   80.7185   -0.3469    0.6548 H   0  0  0  0  0 15  0  0  0  0  0  0
   83.3655   -0.2162    1.9028 H   0  0  0  0  0 15  0  0  0  0  0  0
   81.6705   -2.6190    2.9140 H   0  0  0  0  0 15  0  0  0  0  0  0
   83.3675   -2.3823    3.2257 H   0  0  0  0  0 15  0  0  0  0  0  0
   79.9575   -1.2466    4.1007 H   0  0  0  0  0 15  0  0  0  0  0  0
   84.1415   -0.6981    4.9137 H   0  0  0  0  0 15  0  0  0  0  0  0
   79.3975    0.0482    6.1138 H   0  0  0  0  0 15  0  0  0  0  0  0
   83.5715    0.5904    6.9389 H   0  0  0  0  0 15  0  0  0  0  0  0
   81.1985    0.9695    7.5399 H   0  0  0  0  0 15  0  0  0  0  0  0
   82.7736   -1.4979   -0.4899 N   0  0  0  0  0 15  0  0  0  0  0  0
   83.6836   -1.7004   -1.6163 C   0  0  0  0  0 15  0  0  0  0  0  0
   84.6996   -0.5831   -1.6394 C   0  0  0  0  0 15  0  0  0  0  0  0
   85.8756   -0.8592   -1.8215 O   0  0  0  0  0 15  0  0  0  0  0  0
   82.9406   -1.7728   -2.9795 C   0  0  0  0  0 15  0  0  0  0  0  0
   82.0016   -3.0092   -3.0618 C   0  0  0  0  0 15  0  0  0  0  0  0
   81.2346   -3.0780   -4.3600 C   0  0  0  0  0 15  0  0  0  0  0  0
   81.4576   -2.2198   -5.2543 O   0  0  0  0  0 15  0  0  0  0  0  0
   80.3916   -4.0037   -4.4943 O   0  0  0  0  0 15  0  0  0  0  0  0
   84.2176   -2.6549   -1.4748 H   0  0  0  0  0 15  0  0  0  0  0  0
   81.8026   -1.3367   -0.6674 H   0  0  0  0  0 15  0  0  0  0  0  0
   83.6846   -1.8433   -3.7895 H   0  0  0  0  0 15  0  0  0  0  0  0
   82.3596   -0.8501   -3.1234 H   0  0  0  0  0 15  0  0  0  0  0  0
   81.2666   -2.9938   -2.2433 H   0  0  0  0  0 15  0  0  0  0  0  0
   82.5996   -3.9270   -2.9672 H   0  0  0  0  0 15  0  0  0  0  0  0
   84.2517    0.7417   -1.3905 N   0  0  0  0  0 15  0  0  0  0  0  0
   85.1617    1.8862   -1.3950 C   0  0  0  0  0 15  0  0  0  0  0  0
   86.1777    1.7156   -0.2906 C   0  0  0  0  0 15  0  0  0  0  0  0
   87.3537    1.9428   -0.5310 O   0  0  0  0  0 15  0  0  0  0  0  0
   84.4187    3.2413   -1.2304 C   0  0  0  0  0 15  0  0  0  0  0  0
   83.4797    3.5364   -2.4339 C   0  0  0  0  0 15  0  0  0  0  0  0
   82.7127    4.8269   -2.2770 C   0  0  0  0  0 15  0  0  0  0  0  0
   82.9357    5.5592   -1.2770 O   0  0  0  0  0 15  0  0  0  0  0  0
   81.8697    5.1194   -3.1655 O   0  0  0  0  0 15  0  0  0  0  0  0
   85.6957    1.9120   -2.3596 H   0  0  0  0  0 15  0  0  0  0  0  0
   83.2807    0.8886   -1.2010 H   0  0  0  0  0 15  0  0  0  0  0  0
   85.1627    4.0513   -1.1596 H   0  0  0  0  0 15  0  0  0  0  0  0
   83.8377    3.2234   -0.2967 H   0  0  0  0  0 15  0  0  0  0  0  0
   82.7447    2.7276   -2.5604 H   0  0  0  0  0 15  0  0  0  0  0  0
   84.0777    3.6021   -3.3543 H   0  0  0  0  0 15  0  0  0  0  0  0
   85.7298    1.2412    0.9712 N   0  0  0  0  0 15  0  0  0  0  0  0
   86.9788    1.0728    1.7080 C   0  0  0  0  0 15  0  0  0  0  0  0
   87.2918   -0.3889    1.9169 C   0  0  0  0  0 15  0  0  0  0  0  0
   88.4978   -0.6774    2.6291 O   0  0  0  0  0 15  0  0  0  0  0  0
   86.9538    1.8715    3.0742 C   0  0  0  0  0 15  0  0  0  0  0  0
   86.5618    3.3771    2.9438 C   0  0  0  0  0 15  0  0  0  0  0  0
   88.3058    1.7883    3.8499 C   0  0  0  0  0 15  0  0  0  0  0  0
   86.2128    4.0993    4.2628 C   0  0  0  0  0 15  0  0  0  0  0  0
   85.1428    0.3979    0.6405 H   0  0  0  0  0 15  0  0  0  0  0  0
   87.7938    1.4817    1.0825 H   0  0  0  0  0 15  0  0  0  0  0  0
   86.1758    1.3907    3.7078 H   0  0  0  0  0 15  0  0  0  0  0  0
   87.3498    3.9334    2.4005 H   0  0  0  0  0 15  0  0  0  0  0  0
   85.6648    3.4694    2.3027 H   0  0  0  0  0 15  0  0  0  0  0  0
   88.2618    2.3009    4.8266 H   0  0  0  0  0 15  0  0  0  0  0  0
   88.6048    0.7528    4.0944 H   0  0  0  0  0 15  0  0  0  0  0  0
   89.1378    2.2456    3.2835 H   0  0  0  0  0 15  0  0  0  0  0  0
   85.8768    5.1381    4.0703 H   0  0  0  0  0 15  0  0  0  0  0  0
   85.3968    3.5908    4.8044 H   0  0  0  0  0 15  0  0  0  0  0  0
   87.0758    4.1673    4.9492 H   0  0  0  0  0 15  0  0  0  0  0  0
   87.2079   -1.1713    1.0544 N   0  0  0  0  0 15  0  0  0  0  0  0
   88.6189   -1.6908    0.7917 C   0  0  0  0  0 15  0  0  0  0  0  0
   88.9699   -1.8382   -0.6858 C   0  0  0  0  0 15  0  0  0  0  0  0
   88.0949   -1.5276   -1.5328 O   0  0  0  0  0 15  0  0  0  0  0  0
   88.6899   -3.0712    1.4305 C   0  0  0  0  0 15  0  0  0  0  0  0
   87.2489   -3.5622    1.2158 C   0  0  0  0  0 15  0  0  0  0  0  0
   86.3959   -2.3242    1.5125 C   0  0  0  0  0 15  0  0  0  0  0  0
   89.3469   -1.0162    1.2190 H   0  0  0  0  0 15  0  0  0  0  0  0
   89.3679   -3.7109    0.8411 H   0  0  0  0  0 15  0  0  0  0  0  0
   88.8799   -2.9636    2.5058 H   0  0  0  0  0 15  0  0  0  0  0  0
   86.9809   -3.7226    0.1598 H   0  0  0  0  0 15  0  0  0  0  0  0
   87.0939   -4.3884    1.9225 H   0  0  0  0  0 15  0  0  0  0  0  0
   85.4579   -2.3701    0.9327 H   0  0  0  0  0 15  0  0  0  0  0  0
   86.2409   -2.2427    2.5992 H   0  0  0  0  0 15  0  0  0  0  0  0
   88.6860   -0.8358   -1.3361 N   0  0  0  0  0 15  0  0  0  0  0  0
   89.5960   -0.2691   -2.3305 C   0  0  0  0  0 15  0  0  0  0  0  0
   90.6120    0.6033   -1.6321 C   0  0  0  0  0 15  0  0  0  0  0  0
   91.7880    0.5081   -1.9489 O   0  0  0  0  0 15  0  0  0  0  0  0
   88.8530    0.5491   -3.4232 C   0  0  0  0  0 15  0  0  0  0  0  0
   87.9140   -0.3472   -4.2789 C   0  0  0  0  0 15  0  0  0  0  0  0
   87.1470    0.4321   -5.3195 C   0  0  0  0  0 15  0  0  0  0  0  0
   87.3700    1.6641   -5.4559 O   0  0  0  0  0 15  0  0  0  0  0  0
   86.3040   -0.1923   -6.0159 O   0  0  0  0  0 15  0  0  0  0  0  0
   90.1300   -1.0924   -2.8337 H   0  0  0  0  0 15  0  0  0  0  0  0
   87.7150   -0.5982   -1.3690 H   0  0  0  0  0 15  0  0  0  0  0  0
   89.5970    1.0141   -4.0901 H   0  0  0  0  0 15  0  0  0  0  0  0
   88.2720    1.3495   -2.9423 H   0  0  0  0  0 15  0  0  0  0  0  0
   87.1790   -0.8600   -3.6408 H   0  0  0  0  0 15  0  0  0  0  0  0
   88.5120   -1.1123   -4.7947 H   0  0  0  0  0 15  0  0  0  0  0  0
   90.1641    1.4606   -0.5919 N   0  0  0  0  0 15  0  0  0  0  0  0
   91.0741    2.3419    0.1383 C   0  0  0  0  0 15  0  0  0  0  0  0
   92.0901    1.5030    0.8766 C   0  0  0  0  0 15  0  0  0  0  0  0
   93.2661    1.8315    0.8377 O   0  0  0  0  0 15  0  0  0  0  0  0
   90.3311    3.2766    1.1333 C   0  0  0  0  0 15  0  0  0  0  0  0
   89.3921    4.2745    0.3986 C   0  0  0  0  0 15  0  0  0  0  0  0
   88.6251    5.1644    1.3462 C   0  0  0  0  0 15  0  0  0  0  0  0
   88.8481    5.0855    2.5832 O   0  0  0  0  0 15  0  0  0  0  0  0
   87.7821    5.9584    0.8518 O   0  0  0  0  0 15  0  0  0  0  0  0
   91.6081    2.9800   -0.5855 H   0  0  0  0  0 15  0  0  0  0  0  0
   89.1931    1.4519   -0.3522 H   0  0  0  0  0 15  0  0  0  0  0  0
   91.0751    3.8529    1.7067 H   0  0  0  0  0 15  0  0  0  0  0  0
   89.7501    2.6643    1.8384 H   0  0  0  0  0 15  0  0  0  0  0  0
   88.6571    3.7347   -0.2169 H   0  0  0  0  0 15  0  0  0  0  0  0
   89.9901    4.9148   -0.2657 H   0  0  0  0  0 15  0  0  0  0  0  0
   91.6422    0.3302    1.5410 N   0  0  0  0  0 15  0  0  0  0  0  0
   92.8722   -0.2718    2.0480 C   0  0  0  0  0 15  0  0  0  0  0  0
   93.2802   -1.4582    1.2056 C   0  0  0  0  0 15  0  0  0  0  0  0
   92.6232   -1.8225    0.2306 O   0  0  0  0  0 15  0  0  0  0  0  0
   92.6852   -0.7632    3.5130 C   0  0  0  0  0 15  0  0  0  0  0  0
   92.3492    0.3017    4.5600 C   0  0  0  0  0 15  0  0  0  0  0  0
   93.3462    1.1400    5.0725 C   0  0  0  0  0 15  0  0  0  0  0  0
   91.0312    0.4518    5.0026 C   0  0  0  0  0 15  0  0  0  0  0  0
   93.0252    2.1140    6.0132 C   0  0  0  0  0 15  0  0  0  0  0  0
   90.7122    1.4292    5.9415 C   0  0  0  0  0 15  0  0  0  0  0  0
   91.7102    2.2588    6.4457 C   0  0  0  0  0 15  0  0  0  0  0  0
   91.3982    3.2196    7.3661 O   0  0  0  0  0 15  0  0  0  0  0  0
   91.1302   -0.0587    0.6734 H   0  0  0  0  0 15  0  0  0  0  0  0
   93.6842    0.4764    1.9980 H   0  0  0  0  0 15  0  0  0  0  0  0
   91.9142   -1.5624    3.5373 H   0  0  0  0  0 15  0  0  0  0  0  0
   93.6032   -1.2843    3.8505 H   0  0  0  0  0 15  0  0  0  0  0  0
   94.3692    1.0351    4.7383 H   0  0  0  0  0 15  0  0  0  0  0  0
   90.2482   -0.1840    4.6063 H   0  0  0  0  0 15  0  0  0  0  0  0
   93.7922    2.7619    6.4060 H   0  0  0  0  0 15  0  0  0  0  0  0
   89.6892    1.5348    6.2699 H   0  0  0  0  0 15  0  0  0  0  0  0
   90.4572    3.1728    7.5450 H   0  0  0  0  0 15  0  0  0  0  0  0
   93.1203   -1.5749    0.0585 N   0  0  0  0  0 15  0  0  0  0  0  0
   94.0503   -2.1499   -0.9112 C   0  0  0  0  0 15  0  0  0  0  0  0
   95.0313   -1.0734   -1.3195 C   0  0  0  0  0 15  0  0  0  0  0  0
   96.2163   -1.3532   -1.3929 O   0  0  0  0  0 15  0  0  0  0  0  0
   93.3463   -2.7008   -2.1835 C   0  0  0  0  0 15  0  0  0  0  0  0
   92.3003   -3.8277   -1.9150 C   0  0  0  0  0 15  0  0  0  0  0  0
   91.6263   -4.2441   -3.2524 C   0  0  0  0  0 15  0  0  0  0  0  0
   92.9263   -5.0759   -1.2307 C   0  0  0  0  0 15  0  0  0  0  0  0
   94.6203   -2.9626   -0.4322 H   0  0  0  0  0 15  0  0  0  0  0  0
   92.1663   -1.4251   -0.2065 H   0  0  0  0  0 15  0  0  0  0  0  0
   94.1193   -3.0894   -2.8659 H   0  0  0  0  0 15  0  0  0  0  0  0
   92.8433   -1.8600   -2.6846 H   0  0  0  0  0 15  0  0  0  0  0  0
   91.5023   -3.4439   -1.2566 H   0  0  0  0  0 15  0  0  0  0  0  0
   91.1503   -3.3728   -3.7317 H   0  0  0  0  0 15  0  0  0  0  0  0
   90.8503   -5.0037   -3.0807 H   0  0  0  0  0 15  0  0  0  0  0  0
   92.3743   -4.6588   -3.9470 H   0  0  0  0  0 15  0  0  0  0  0  0
   93.7883   -5.4386   -1.8136 H   0  0  0  0  0 15  0  0  0  0  0  0
   92.1853   -5.8874   -1.1621 H   0  0  0  0  0 15  0  0  0  0  0  0
   93.2553   -4.8445   -0.2078 H   0  0  0  0  0 15  0  0  0  0  0  0
   94.5984    0.2150   -1.5613 N   0  0  0  0  0 15  0  0  0  0  0  0
   95.5304    1.2900   -1.8945 C   0  0  0  0  0 15  0  0  0  0  0  0
   96.5434    1.4272   -0.7833 C   0  0  0  0  0 15  0  0  0  0  0  0
   97.7324    1.4350   -1.0617 O   0  0  0  0  0 15  0  0  0  0  0  0
   94.8324    2.6648   -2.0938 C   0  0  0  0  0 15  0  0  0  0  0  0
   94.0054    2.7463   -3.4043 C   0  0  0  0  0 15  0  0  0  0  0  0
   93.0644    3.9317   -3.4972 C   0  0  0  0  0 15  0  0  0  0  0  0
   92.0904    3.8120   -4.2270 O   0  0  0  0  0 15  0  0  0  0  0  0
   93.2924    5.0776   -2.8135 N   0  0  0  0  0 15  0  0  0  0  0  0
   96.0574    1.0074   -2.8226 H   0  0  0  0  0 15  0  0  0  0  0  0
   93.6184    0.4050   -1.5675 H   0  0  0  0  0 15  0  0  0  0  0  0
   95.6104    3.4417   -2.1290 H   0  0  0  0  0 15  0  0  0  0  0  0
   94.1804    2.8731   -1.2316 H   0  0  0  0  0 15  0  0  0  0  0  0
   93.4004    1.8337   -3.4896 H   0  0  0  0  0 15  0  0  0  0  0  0
   94.6884    2.7705   -4.2675 H   0  0  0  0  0 15  0  0  0  0  0  0
   94.0864    5.2039   -2.2184 H   0  0  0  0  0 15  0  0  0  0  0  0
   92.6434    5.8347   -2.9052 H   0  0  0  0  0 15  0  0  0  0  0  0
   96.1154    1.5743    0.3604 O   0  0  0  0  0 15  0  0  0  0  0  0
   96.8064    1.6523    1.0108 H   0  0  0  0  0 15  0  0  0  0  0  0
M  END
$$$$
